# Generated by pormake.
# Topology fno, (5)-cn, num edge types: 1
# Building blocks:
#     Node 0, Type 0, BuildingBlock: BEQFEK_clean_sbu_0, # of connection points: 5
#     Node 1, Type 0, BuildingBlock: BEQFEK_clean_sbu_0, # of connection points: 5
#     Node 2, Type 0, BuildingBlock: BEQFEK_clean_sbu_0, # of connection points: 5
#     Node 3, Type 0, BuildingBlock: BEQFEK_clean_sbu_0, # of connection points: 5
#     Node 4, Type 0, BuildingBlock: BEQFEK_clean_sbu_0, # of connection points: 5
#     Node 5, Type 0, BuildingBlock: BEQFEK_clean_sbu_0, # of connection points: 5
#     Node 6, Type 0, BuildingBlock: BEQFEK_clean_sbu_0, # of connection points: 5
#     Node 7, Type 0, BuildingBlock: BEQFEK_clean_sbu_0, # of connection points: 5
#     Node 8, Type 0, BuildingBlock: BEQFEK_clean_sbu_0, # of connection points: 5
#     Node 9, Type 0, BuildingBlock: BEQFEK_clean_sbu_0, # of connection points: 5
#     Node 10, Type 0, BuildingBlock: BEQFEK_clean_sbu_0, # of connection points: 5
#     Node 11, Type 0, BuildingBlock: BEQFEK_clean_sbu_0, # of connection points: 5
#     Node 12, Type 0, BuildingBlock: BEQFEK_clean_sbu_0, # of connection points: 5
#     Node 13, Type 0, BuildingBlock: BEQFEK_clean_sbu_0, # of connection points: 5
#     Node 14, Type 0, BuildingBlock: BEQFEK_clean_sbu_0, # of connection points: 5
#     Node 15, Type 0, BuildingBlock: BEQFEK_clean_sbu_0, # of connection points: 5
#     Node 16, Type 0, BuildingBlock: BEQFEK_clean_sbu_0, # of connection points: 5
#     Node 17, Type 0, BuildingBlock: BEQFEK_clean_sbu_0, # of connection points: 5
#     Node 18, Type 0, BuildingBlock: BEQFEK_clean_sbu_0, # of connection points: 5
#     Node 19, Type 0, BuildingBlock: BEQFEK_clean_sbu_0, # of connection points: 5
#     Node 20, Type 0, BuildingBlock: BEQFEK_clean_sbu_0, # of connection points: 5
#     Node 21, Type 0, BuildingBlock: BEQFEK_clean_sbu_0, # of connection points: 5
#     Node 22, Type 0, BuildingBlock: BEQFEK_clean_sbu_0, # of connection points: 5
#     Node 23, Type 0, BuildingBlock: BEQFEK_clean_sbu_0, # of connection points: 5
#     Node 24, Type 0, BuildingBlock: BEQFEK_clean_sbu_0, # of connection points: 5
#     Node 25, Type 0, BuildingBlock: BEQFEK_clean_sbu_0, # of connection points: 5
#     Node 26, Type 0, BuildingBlock: BEQFEK_clean_sbu_0, # of connection points: 5
#     Node 27, Type 0, BuildingBlock: BEQFEK_clean_sbu_0, # of connection points: 5
#     Node 28, Type 0, BuildingBlock: BEQFEK_clean_sbu_0, # of connection points: 5
#     Node 29, Type 0, BuildingBlock: BEQFEK_clean_sbu_0, # of connection points: 5
#     Node 30, Type 0, BuildingBlock: BEQFEK_clean_sbu_0, # of connection points: 5
#     Node 31, Type 0, BuildingBlock: BEQFEK_clean_sbu_0, # of connection points: 5
#     Node 32, Type 0, BuildingBlock: BEQFEK_clean_sbu_0, # of connection points: 5
#     Node 33, Type 0, BuildingBlock: BEQFEK_clean_sbu_0, # of connection points: 5
#     Node 34, Type 0, BuildingBlock: BEQFEK_clean_sbu_0, # of connection points: 5
#     Node 35, Type 0, BuildingBlock: BEQFEK_clean_sbu_0, # of connection points: 5
#     Node 36, Type 0, BuildingBlock: BEQFEK_clean_sbu_0, # of connection points: 5
#     Node 37, Type 0, BuildingBlock: BEQFEK_clean_sbu_0, # of connection points: 5
#     Node 38, Type 0, BuildingBlock: BEQFEK_clean_sbu_0, # of connection points: 5
#     Node 39, Type 0, BuildingBlock: BEQFEK_clean_sbu_0, # of connection points: 5
#     Node 40, Type 0, BuildingBlock: BEQFEK_clean_sbu_0, # of connection points: 5
#     Node 41, Type 0, BuildingBlock: BEQFEK_clean_sbu_0, # of connection points: 5
#     Node 42, Type 0, BuildingBlock: BEQFEK_clean_sbu_0, # of connection points: 5
#     Node 43, Type 0, BuildingBlock: BEQFEK_clean_sbu_0, # of connection points: 5
#     Node 44, Type 0, BuildingBlock: BEQFEK_clean_sbu_0, # of connection points: 5
#     Node 45, Type 0, BuildingBlock: BEQFEK_clean_sbu_0, # of connection points: 5
#     Node 46, Type 0, BuildingBlock: BEQFEK_clean_sbu_0, # of connection points: 5
#     Node 47, Type 0, BuildingBlock: BEQFEK_clean_sbu_0, # of connection points: 5
#     Edge 48, Type (0, 0), BuildingBlock: UVAHIK_clean_linker_0, # of connection points: 2
#     Edge 49, Type (0, 0), BuildingBlock: UVAHIK_clean_linker_0, # of connection points: 2
#     Edge 50, Type (0, 0), BuildingBlock: UVAHIK_clean_linker_0, # of connection points: 2
#     Edge 51, Type (0, 0), BuildingBlock: UVAHIK_clean_linker_0, # of connection points: 2
#     Edge 52, Type (0, 0), BuildingBlock: UVAHIK_clean_linker_0, # of connection points: 2
#     Edge 53, Type (0, 0), BuildingBlock: UVAHIK_clean_linker_0, # of connection points: 2
#     Edge 54, Type (0, 0), BuildingBlock: UVAHIK_clean_linker_0, # of connection points: 2
#     Edge 55, Type (0, 0), BuildingBlock: UVAHIK_clean_linker_0, # of connection points: 2
#     Edge 56, Type (0, 0), BuildingBlock: UVAHIK_clean_linker_0, # of connection points: 2
#     Edge 57, Type (0, 0), BuildingBlock: UVAHIK_clean_linker_0, # of connection points: 2
#     Edge 58, Type (0, 0), BuildingBlock: UVAHIK_clean_linker_0, # of connection points: 2
#     Edge 59, Type (0, 0), BuildingBlock: UVAHIK_clean_linker_0, # of connection points: 2
#     Edge 60, Type (0, 0), BuildingBlock: UVAHIK_clean_linker_0, # of connection points: 2
#     Edge 61, Type (0, 0), BuildingBlock: UVAHIK_clean_linker_0, # of connection points: 2
#     Edge 62, Type (0, 0), BuildingBlock: UVAHIK_clean_linker_0, # of connection points: 2
#     Edge 63, Type (0, 0), BuildingBlock: UVAHIK_clean_linker_0, # of connection points: 2
#     Edge 64, Type (0, 0), BuildingBlock: UVAHIK_clean_linker_0, # of connection points: 2
#     Edge 65, Type (0, 0), BuildingBlock: UVAHIK_clean_linker_0, # of connection points: 2
#     Edge 66, Type (0, 0), BuildingBlock: UVAHIK_clean_linker_0, # of connection points: 2
#     Edge 67, Type (0, 0), BuildingBlock: UVAHIK_clean_linker_0, # of connection points: 2
#     Edge 68, Type (0, 0), BuildingBlock: UVAHIK_clean_linker_0, # of connection points: 2
#     Edge 69, Type (0, 0), BuildingBlock: UVAHIK_clean_linker_0, # of connection points: 2
#     Edge 70, Type (0, 0), BuildingBlock: UVAHIK_clean_linker_0, # of connection points: 2
#     Edge 71, Type (0, 0), BuildingBlock: UVAHIK_clean_linker_0, # of connection points: 2
#     Edge 72, Type (0, 0), BuildingBlock: UVAHIK_clean_linker_0, # of connection points: 2
#     Edge 73, Type (0, 0), BuildingBlock: UVAHIK_clean_linker_0, # of connection points: 2
#     Edge 74, Type (0, 0), BuildingBlock: UVAHIK_clean_linker_0, # of connection points: 2
#     Edge 75, Type (0, 0), BuildingBlock: UVAHIK_clean_linker_0, # of connection points: 2
#     Edge 76, Type (0, 0), BuildingBlock: UVAHIK_clean_linker_0, # of connection points: 2
#     Edge 77, Type (0, 0), BuildingBlock: UVAHIK_clean_linker_0, # of connection points: 2
#     Edge 78, Type (0, 0), BuildingBlock: UVAHIK_clean_linker_0, # of connection points: 2
#     Edge 79, Type (0, 0), BuildingBlock: UVAHIK_clean_linker_0, # of connection points: 2
#     Edge 80, Type (0, 0), BuildingBlock: UVAHIK_clean_linker_0, # of connection points: 2
#     Edge 81, Type (0, 0), BuildingBlock: UVAHIK_clean_linker_0, # of connection points: 2
#     Edge 82, Type (0, 0), BuildingBlock: UVAHIK_clean_linker_0, # of connection points: 2
#     Edge 83, Type (0, 0), BuildingBlock: UVAHIK_clean_linker_0, # of connection points: 2
#     Edge 84, Type (0, 0), BuildingBlock: UVAHIK_clean_linker_0, # of connection points: 2
#     Edge 85, Type (0, 0), BuildingBlock: UVAHIK_clean_linker_0, # of connection points: 2
#     Edge 86, Type (0, 0), BuildingBlock: UVAHIK_clean_linker_0, # of connection points: 2
#     Edge 87, Type (0, 0), BuildingBlock: UVAHIK_clean_linker_0, # of connection points: 2
#     Edge 88, Type (0, 0), BuildingBlock: UVAHIK_clean_linker_0, # of connection points: 2
#     Edge 89, Type (0, 0), BuildingBlock: UVAHIK_clean_linker_0, # of connection points: 2
#     Edge 90, Type (0, 0), BuildingBlock: UVAHIK_clean_linker_0, # of connection points: 2
#     Edge 91, Type (0, 0), BuildingBlock: UVAHIK_clean_linker_0, # of connection points: 2
#     Edge 92, Type (0, 0), BuildingBlock: UVAHIK_clean_linker_0, # of connection points: 2
#     Edge 93, Type (0, 0), BuildingBlock: UVAHIK_clean_linker_0, # of connection points: 2
#     Edge 94, Type (0, 0), BuildingBlock: UVAHIK_clean_linker_0, # of connection points: 2
#     Edge 95, Type (0, 0), BuildingBlock: UVAHIK_clean_linker_0, # of connection points: 2
#     Edge 96, Type (0, 0), BuildingBlock: UVAHIK_clean_linker_0, # of connection points: 2
#     Edge 97, Type (0, 0), BuildingBlock: UVAHIK_clean_linker_0, # of connection points: 2
#     Edge 98, Type (0, 0), BuildingBlock: UVAHIK_clean_linker_0, # of connection points: 2
#     Edge 99, Type (0, 0), BuildingBlock: UVAHIK_clean_linker_0, # of connection points: 2
#     Edge 100, Type (0, 0), BuildingBlock: UVAHIK_clean_linker_0, # of connection points: 2
#     Edge 101, Type (0, 0), BuildingBlock: UVAHIK_clean_linker_0, # of connection points: 2
#     Edge 102, Type (0, 0), BuildingBlock: UVAHIK_clean_linker_0, # of connection points: 2
#     Edge 103, Type (0, 0), BuildingBlock: UVAHIK_clean_linker_0, # of connection points: 2
#     Edge 104, Type (0, 0), BuildingBlock: UVAHIK_clean_linker_0, # of connection points: 2
#     Edge 105, Type (0, 0), BuildingBlock: UVAHIK_clean_linker_0, # of connection points: 2
#     Edge 106, Type (0, 0), BuildingBlock: UVAHIK_clean_linker_0, # of connection points: 2
#     Edge 107, Type (0, 0), BuildingBlock: UVAHIK_clean_linker_0, # of connection points: 2
#     Edge 108, Type (0, 0), BuildingBlock: UVAHIK_clean_linker_0, # of connection points: 2
#     Edge 109, Type (0, 0), BuildingBlock: UVAHIK_clean_linker_0, # of connection points: 2
#     Edge 110, Type (0, 0), BuildingBlock: UVAHIK_clean_linker_0, # of connection points: 2
#     Edge 111, Type (0, 0), BuildingBlock: UVAHIK_clean_linker_0, # of connection points: 2
#     Edge 112, Type (0, 0), BuildingBlock: UVAHIK_clean_linker_0, # of connection points: 2
#     Edge 113, Type (0, 0), BuildingBlock: UVAHIK_clean_linker_0, # of connection points: 2
#     Edge 114, Type (0, 0), BuildingBlock: UVAHIK_clean_linker_0, # of connection points: 2
#     Edge 115, Type (0, 0), BuildingBlock: UVAHIK_clean_linker_0, # of connection points: 2
#     Edge 116, Type (0, 0), BuildingBlock: UVAHIK_clean_linker_0, # of connection points: 2
#     Edge 117, Type (0, 0), BuildingBlock: UVAHIK_clean_linker_0, # of connection points: 2
#     Edge 118, Type (0, 0), BuildingBlock: UVAHIK_clean_linker_0, # of connection points: 2
#     Edge 119, Type (0, 0), BuildingBlock: UVAHIK_clean_linker_0, # of connection points: 2
#     Edge 120, Type (0, 0), BuildingBlock: UVAHIK_clean_linker_0, # of connection points: 2
#     Edge 121, Type (0, 0), BuildingBlock: UVAHIK_clean_linker_0, # of connection points: 2
#     Edge 122, Type (0, 0), BuildingBlock: UVAHIK_clean_linker_0, # of connection points: 2
#     Edge 123, Type (0, 0), BuildingBlock: UVAHIK_clean_linker_0, # of connection points: 2
#     Edge 124, Type (0, 0), BuildingBlock: UVAHIK_clean_linker_0, # of connection points: 2
#     Edge 125, Type (0, 0), BuildingBlock: UVAHIK_clean_linker_0, # of connection points: 2
#     Edge 126, Type (0, 0), BuildingBlock: UVAHIK_clean_linker_0, # of connection points: 2
#     Edge 127, Type (0, 0), BuildingBlock: UVAHIK_clean_linker_0, # of connection points: 2
#     Edge 128, Type (0, 0), BuildingBlock: UVAHIK_clean_linker_0, # of connection points: 2
#     Edge 129, Type (0, 0), BuildingBlock: UVAHIK_clean_linker_0, # of connection points: 2
#     Edge 130, Type (0, 0), BuildingBlock: UVAHIK_clean_linker_0, # of connection points: 2
#     Edge 131, Type (0, 0), BuildingBlock: UVAHIK_clean_linker_0, # of connection points: 2
#     Edge 132, Type (0, 0), BuildingBlock: UVAHIK_clean_linker_0, # of connection points: 2
#     Edge 133, Type (0, 0), BuildingBlock: UVAHIK_clean_linker_0, # of connection points: 2
#     Edge 134, Type (0, 0), BuildingBlock: UVAHIK_clean_linker_0, # of connection points: 2
#     Edge 135, Type (0, 0), BuildingBlock: UVAHIK_clean_linker_0, # of connection points: 2
#     Edge 136, Type (0, 0), BuildingBlock: UVAHIK_clean_linker_0, # of connection points: 2
#     Edge 137, Type (0, 0), BuildingBlock: UVAHIK_clean_linker_0, # of connection points: 2
#     Edge 138, Type (0, 0), BuildingBlock: UVAHIK_clean_linker_0, # of connection points: 2
#     Edge 139, Type (0, 0), BuildingBlock: UVAHIK_clean_linker_0, # of connection points: 2
#     Edge 140, Type (0, 0), BuildingBlock: UVAHIK_clean_linker_0, # of connection points: 2
#     Edge 141, Type (0, 0), BuildingBlock: UVAHIK_clean_linker_0, # of connection points: 2
#     Edge 142, Type (0, 0), BuildingBlock: UVAHIK_clean_linker_0, # of connection points: 2
#     Edge 143, Type (0, 0), BuildingBlock: UVAHIK_clean_linker_0, # of connection points: 2
#     Edge 144, Type (0, 0), BuildingBlock: UVAHIK_clean_linker_0, # of connection points: 2
#     Edge 145, Type (0, 0), BuildingBlock: UVAHIK_clean_linker_0, # of connection points: 2
#     Edge 146, Type (0, 0), BuildingBlock: UVAHIK_clean_linker_0, # of connection points: 2
#     Edge 147, Type (0, 0), BuildingBlock: UVAHIK_clean_linker_0, # of connection points: 2
#     Edge 148, Type (0, 0), BuildingBlock: UVAHIK_clean_linker_0, # of connection points: 2
#     Edge 149, Type (0, 0), BuildingBlock: UVAHIK_clean_linker_0, # of connection points: 2
#     Edge 150, Type (0, 0), BuildingBlock: UVAHIK_clean_linker_0, # of connection points: 2
#     Edge 151, Type (0, 0), BuildingBlock: UVAHIK_clean_linker_0, # of connection points: 2
#     Edge 152, Type (0, 0), BuildingBlock: UVAHIK_clean_linker_0, # of connection points: 2
#     Edge 153, Type (0, 0), BuildingBlock: UVAHIK_clean_linker_0, # of connection points: 2
#     Edge 154, Type (0, 0), BuildingBlock: UVAHIK_clean_linker_0, # of connection points: 2
#     Edge 155, Type (0, 0), BuildingBlock: UVAHIK_clean_linker_0, # of connection points: 2
#     Edge 156, Type (0, 0), BuildingBlock: UVAHIK_clean_linker_0, # of connection points: 2
#     Edge 157, Type (0, 0), BuildingBlock: UVAHIK_clean_linker_0, # of connection points: 2
#     Edge 158, Type (0, 0), BuildingBlock: UVAHIK_clean_linker_0, # of connection points: 2
#     Edge 159, Type (0, 0), BuildingBlock: UVAHIK_clean_linker_0, # of connection points: 2
#     Edge 160, Type (0, 0), BuildingBlock: UVAHIK_clean_linker_0, # of connection points: 2
#     Edge 161, Type (0, 0), BuildingBlock: UVAHIK_clean_linker_0, # of connection points: 2
#     Edge 162, Type (0, 0), BuildingBlock: UVAHIK_clean_linker_0, # of connection points: 2
#     Edge 163, Type (0, 0), BuildingBlock: UVAHIK_clean_linker_0, # of connection points: 2
#     Edge 164, Type (0, 0), BuildingBlock: UVAHIK_clean_linker_0, # of connection points: 2
#     Edge 165, Type (0, 0), BuildingBlock: UVAHIK_clean_linker_0, # of connection points: 2
#     Edge 166, Type (0, 0), BuildingBlock: UVAHIK_clean_linker_0, # of connection points: 2
#     Edge 167, Type (0, 0), BuildingBlock: UVAHIK_clean_linker_0, # of connection points: 2
# Relax obj value: 0.209
# Max RMSD: 0.142
# Mean RMSD: 0.129
data_MOF--net-fno--node1-BEQFEK_clean_sbu_0--edge1-UVAHIK_clean_linker_0
_symmetry_space_group_name_H-M    P1
_symmetry_Int_Tables_number       1
_symmetry_cell_setting            triclinic
loop_
_symmetry_equiv_pos_as_xyz
'x, y, z'
_cell_length_a     76.085923
_cell_length_b     76.558888
_cell_length_c     75.033035
_cell_angle_alpha  90.180945
_cell_angle_beta   90.25865
_cell_angle_gamma 90.626355
loop_
_atom_site_label
_atom_site_type_symbol
_atom_site_fract_x
_atom_site_fract_y
_atom_site_fract_z
_atom_type_partial_charge
Co0 Co 0.10408 0.35712 0.10237 0.0
Co1 Co 0.09914 0.36126 0.14357 0.0
C2 C 0.13473 0.36299 0.12606 0.0
O3 O 0.12868 0.35964 0.11057 0.0
O4 O 0.12468 0.36428 0.1395 0.0
C5 C 0.11622 0.34839 0.06694 0.0
O6 O 0.13033 0.34234 0.07485 0.0
C7 C 0.10729 0.35537 0.18101 0.0
C8 C 0.08382 0.36561 0.19455 0.0
C9 C 0.1003 0.3587 0.1977 0.0
N10 N 0.0956 0.36033 0.1686 0.0
N11 N 0.08155 0.36635 0.17676 0.0
C12 C 0.12447 0.34704 0.17676 0.0
H13 H 0.12327 0.3393 0.16427 0.0
H14 H 0.12878 0.33843 0.18779 0.0
H15 H 0.13459 0.35738 0.17473 0.0
C16 C 0.08445 0.32445 0.10913 0.0
N17 N 0.0925 0.33916 0.11478 0.0
N18 N 0.09042 0.34076 0.13211 0.0
C19 C 0.08103 0.32699 0.13808 0.0
C20 C 0.07692 0.31623 0.1237 0.0
C21 C 0.08361 0.31876 0.09005 0.0
H22 H 0.09701 0.31912 0.0843 0.0
H23 H 0.078 0.30538 0.08865 0.0
H24 H 0.07541 0.32806 0.08242 0.0
O25 O 0.0918 0.37932 0.10581 0.0
O26 O 0.08726 0.38238 0.13478 0.0
H27 H 0.06688 0.33682 0.16043 0.0
H28 H 0.06647 0.3133 0.15869 0.0
C29 C 0.07469 0.32519 0.15685 0.0
H30 H 0.08617 0.32472 0.166 0.0
H31 H 0.07059 0.37134 0.17019 0.0
O32 O 0.10355 0.35386 0.07631 0.0
C33 C 0.08569 0.38786 0.11889 0.0
Co34 Co 0.90022 0.84408 0.35437 0.0
Co35 Co 0.89963 0.84241 0.39601 0.0
C36 C 0.90275 0.8765 0.37654 0.0
O37 O 0.90284 0.86889 0.36145 0.0
O38 O 0.90175 0.86776 0.39089 0.0
C39 C 0.90793 0.85565 0.31925 0.0
O40 O 0.91679 0.86797 0.32771 0.0
C41 C 0.91028 0.85035 0.43246 0.0
C42 C 0.89172 0.83393 0.44772 0.0
C43 C 0.90414 0.84721 0.44954 0.0
N44 N 0.90164 0.83967 0.4211 0.0
N45 N 0.89093 0.82953 0.43037 0.0
C46 C 0.92219 0.86493 0.42666 0.0
H47 H 0.91523 0.87752 0.42792 0.0
H48 H 0.92644 0.86296 0.41269 0.0
H49 H 0.93405 0.86559 0.43525 0.0
C50 C 0.92939 0.81901 0.35991 0.0
N51 N 0.91673 0.82961 0.36603 0.0
N52 N 0.9165 0.82894 0.38355 0.0
C53 C 0.92901 0.81789 0.38917 0.0
C54 C 0.93765 0.8112 0.37437 0.0
C55 C 0.93372 0.81691 0.34061 0.0
H56 H 0.93395 0.82989 0.33408 0.0
H57 H 0.94661 0.81053 0.33874 0.0
H58 H 0.92329 0.80889 0.33406 0.0
O59 O 0.8757 0.83744 0.36005 0.0
O60 O 0.87516 0.8359 0.38951 0.0
H61 H 0.91903 0.80963 0.41441 0.0
H62 H 0.94089 0.80198 0.40977 0.0
C63 C 0.93183 0.81313 0.40829 0.0
H64 H 0.93727 0.82462 0.41557 0.0
H65 H 0.88208 0.82059 0.42469 0.0
O66 O 0.90142 0.84303 0.3281 0.0
C67 C 0.86735 0.83498 0.37449 0.0
Co68 Co 0.40778 0.64613 0.64993 0.0
Co69 Co 0.4008 0.65462 0.60957 0.0
C70 C 0.40319 0.61771 0.62304 0.0
O71 O 0.40653 0.62267 0.63892 0.0
O72 O 0.40072 0.62871 0.61059 0.0
C73 C 0.41551 0.62957 0.68328 0.0
O74 O 0.41702 0.61543 0.67347 0.0
C75 C 0.40299 0.65213 0.57073 0.0
C76 C 0.3911 0.6769 0.56209 0.0
C77 C 0.3978 0.66132 0.55581 0.0
N78 N 0.39934 0.66167 0.58527 0.0
N79 N 0.39236 0.67654 0.58001 0.0
C80 C 0.41148 0.63462 0.5711 0.0
H81 H 0.42031 0.63358 0.58284 0.0
H82 H 0.41907 0.63238 0.55871 0.0
H83 H 0.40111 0.6244 0.57196 0.0
C84 C 0.43886 0.66858 0.64321 0.0
N85 N 0.42392 0.66061 0.63782 0.0
N86 N 0.42113 0.66412 0.62089 0.0
C87 C 0.43429 0.67441 0.61491 0.0
C88 C 0.44597 0.67757 0.62887 0.0
C89 C 0.4463 0.66713 0.66163 0.0
H90 H 0.44595 0.65327 0.66589 0.0
H91 H 0.46002 0.67217 0.66234 0.0
H92 H 0.438 0.67466 0.67096 0.0
O93 O 0.38391 0.65578 0.64931 0.0
O94 O 0.37886 0.66235 0.62104 0.0
H95 H 0.44659 0.69051 0.59456 0.0
H96 H 0.4353 0.67103 0.58664 0.0
C97 C 0.435 0.68185 0.5965 0.0
H98 H 0.42295 0.68949 0.59402 0.0
H99 H 0.38796 0.68622 0.58868 0.0
O100 O 0.41309 0.64416 0.67569 0.0
C101 C 0.37386 0.66159 0.63718 0.0
Co102 Co 0.60549 0.14178 0.89698 0.0
Co103 Co 0.59886 0.13879 0.85593 0.0
C104 C 0.63523 0.14422 0.87214 0.0
O105 O 0.62968 0.14592 0.88803 0.0
O106 O 0.62463 0.1413 0.85928 0.0
C107 C 0.6175 0.13372 0.93043 0.0
O108 O 0.62878 0.12579 0.92004 0.0
C109 C 0.60454 0.1499 0.81947 0.0
C110 C 0.58586 0.13334 0.80424 0.0
C111 C 0.59944 0.14541 0.80225 0.0
N112 N 0.59473 0.14068 0.83099 0.0
N113 N 0.58342 0.13093 0.82183 0.0
C114 C 0.61823 0.16301 0.82508 0.0
H115 H 0.61466 0.16888 0.8381 0.0
H116 H 0.61967 0.17344 0.81492 0.0
H117 H 0.63103 0.1564 0.8267 0.0
C118 C 0.57897 0.16991 0.89304 0.0
N119 N 0.58909 0.15714 0.88635 0.0
N120 N 0.58627 0.15586 0.86907 0.0
C121 C 0.57424 0.16775 0.86421 0.0
C122 C 0.56919 0.17711 0.87923 0.0
C123 C 0.57924 0.17543 0.91218 0.0
H124 H 0.59283 0.17479 0.91753 0.0
H125 H 0.57418 0.18888 0.91382 0.0
H126 H 0.57089 0.16629 0.91996 0.0
O127 O 0.5994 0.11701 0.89196 0.0
O128 O 0.59273 0.11468 0.86329 0.0
H129 H 0.5551 0.17743 0.84525 0.0
H130 H 0.57731 0.17537 0.83704 0.0
C131 C 0.56711 0.16937 0.84567 0.0
H132 H 0.56395 0.1562 0.84029 0.0
H133 H 0.57455 0.12215 0.82757 0.0
O134 O 0.60566 0.14303 0.92332 0.0
C135 C 0.59457 0.10784 0.87861 0.0
Co136 Co 0.108 0.64486 0.39531 0.0
Co137 Co 0.10169 0.64012 0.35427 0.0
C138 C 0.13803 0.64484 0.37062 0.0
O139 O 0.13235 0.64781 0.38625 0.0
O140 O 0.1275 0.64154 0.35779 0.0
C141 C 0.12004 0.63771 0.42888 0.0
O142 O 0.13093 0.62913 0.4186 0.0
C143 C 0.10831 0.64659 0.31653 0.0
C144 C 0.08479 0.6352 0.30344 0.0
C145 C 0.10089 0.64308 0.30003 0.0
N146 N 0.09726 0.64087 0.32921 0.0
N147 N 0.08313 0.6342 0.3213 0.0
C148 C 0.12544 0.65573 0.32015 0.0
H149 H 0.12443 0.66392 0.33232 0.0
H150 H 0.12933 0.66406 0.30871 0.0
H151 H 0.13578 0.64586 0.32228 0.0
C152 C 0.08157 0.67286 0.38994 0.0
N153 N 0.09201 0.66005 0.38384 0.0
N154 N 0.08969 0.65833 0.36653 0.0
C155 C 0.07791 0.6702 0.361 0.0
C156 C 0.07223 0.67975 0.37565 0.0
C157 C 0.07985 0.67749 0.40924 0.0
H158 H 0.08001 0.66546 0.41742 0.0
H159 H 0.09125 0.68576 0.4133 0.0
H160 H 0.06754 0.68467 0.41186 0.0
O161 O 0.10109 0.62023 0.39142 0.0
O162 O 0.09453 0.61662 0.36285 0.0
H163 H 0.06395 0.662 0.33761 0.0
H164 H 0.06612 0.68545 0.33987 0.0
C165 C 0.07283 0.67282 0.3419 0.0
H166 H 0.08473 0.67258 0.33344 0.0
H167 H 0.07257 0.62855 0.32808 0.0
O168 O 0.10841 0.64717 0.42161 0.0
C169 C 0.096 0.61055 0.37856 0.0
Co170 Co 0.60303 0.85488 0.60149 0.0
Co171 Co 0.59993 0.85637 0.64306 0.0
C172 C 0.63471 0.85926 0.62432 0.0
O173 O 0.6281 0.85664 0.60891 0.0
O174 O 0.62515 0.85975 0.63816 0.0
C175 C 0.61305 0.84406 0.56604 0.0
O176 O 0.62479 0.83434 0.57405 0.0
C177 C 0.60935 0.85126 0.68051 0.0
C178 C 0.58415 0.85575 0.69421 0.0
C179 C 0.60173 0.85223 0.69718 0.0
N180 N 0.59691 0.85423 0.66816 0.0
N181 N 0.58185 0.85683 0.67643 0.0
C182 C 0.62803 0.84696 0.67638 0.0
H183 H 0.62857 0.83846 0.6644 0.0
H184 H 0.63442 0.84025 0.68775 0.0
H185 H 0.63539 0.85922 0.67359 0.0
C186 C 0.58254 0.82204 0.60721 0.0
N187 N 0.59127 0.8363 0.61322 0.0
N188 N 0.59067 0.83663 0.63075 0.0
C189 C 0.58194 0.82237 0.63648 0.0
C190 C 0.57628 0.81274 0.62179 0.0
C191 C 0.57911 0.8183 0.58791 0.0
H192 H 0.5765 0.83065 0.58074 0.0
H193 H 0.59098 0.81232 0.58202 0.0
H194 H 0.56777 0.80925 0.58606 0.0
O195 O 0.5917 0.87742 0.60662 0.0
O196 O 0.588 0.87799 0.63588 0.0
H197 H 0.56892 0.82573 0.66141 0.0
H198 H 0.5762 0.80371 0.65736 0.0
C199 C 0.5796 0.81774 0.65571 0.0
H200 H 0.5919 0.82059 0.66319 0.0
H201 H 0.57007 0.85967 0.66994 0.0
O202 O 0.60229 0.85274 0.57533 0.0
C203 C 0.58626 0.88499 0.62063 0.0
Co204 Co 0.40306 0.34864 0.89798 0.0
Co205 Co 0.40426 0.34679 0.85644 0.0
C206 C 0.37029 0.34349 0.87703 0.0
O207 O 0.37794 0.34375 0.89216 0.0
O208 O 0.37908 0.34456 0.86269 0.0
C209 C 0.39445 0.36093 0.93074 0.0
O210 O 0.38242 0.36761 0.92024 0.0
C211 C 0.39438 0.3335 0.82154 0.0
C212 C 0.41229 0.34803 0.80374 0.0
C213 C 0.39784 0.33681 0.80373 0.0
N214 N 0.40592 0.34265 0.83155 0.0
N215 N 0.4168 0.35109 0.82084 0.0
C216 C 0.38071 0.32147 0.82911 0.0
H217 H 0.38541 0.31594 0.84191 0.0
H218 H 0.37754 0.31074 0.81962 0.0
H219 H 0.36858 0.32888 0.8318 0.0
C220 C 0.43002 0.32084 0.89405 0.0
N221 N 0.41844 0.3323 0.88731 0.0
N222 N 0.41876 0.33141 0.8698 0.0
C223 C 0.43041 0.31921 0.86482 0.0
C224 C 0.43806 0.31211 0.88002 0.0
C225 C 0.43391 0.31908 0.91353 0.0
H226 H 0.43401 0.33215 0.91995 0.0
H227 H 0.42337 0.31111 0.9198 0.0
H228 H 0.44675 0.31274 0.91586 0.0
O229 O 0.40825 0.37264 0.88987 0.0
O230 O 0.41038 0.37174 0.86048 0.0
H231 H 0.44039 0.32472 0.83884 0.0
H232 H 0.44122 0.30184 0.84483 0.0
C233 C 0.43344 0.31395 0.84585 0.0
H234 H 0.42062 0.31174 0.8391 0.0
H235 H 0.42672 0.35962 0.82521 0.0
O236 O 0.40554 0.35046 0.92413 0.0
C237 C 0.41076 0.38026 0.87506 0.0
Co238 Co 0.90592 0.15112 0.15029 0.0
Co239 Co 0.89676 0.16059 0.11065 0.0
C240 C 0.90484 0.12392 0.12213 0.0
O241 O 0.90838 0.1283 0.13813 0.0
O242 O 0.89992 0.13509 0.11071 0.0
C243 C 0.91465 0.13391 0.183 0.0
O244 O 0.91638 0.12013 0.17271 0.0
C245 C 0.89888 0.15832 0.07208 0.0
C246 C 0.88196 0.17991 0.06325 0.0
C247 C 0.89128 0.16568 0.05708 0.0
N248 N 0.89393 0.16749 0.08646 0.0
N249 N 0.88401 0.18054 0.08109 0.0
C250 C 0.91111 0.14316 0.07281 0.0
H251 H 0.92051 0.14481 0.08406 0.0
H252 H 0.91849 0.1419 0.06015 0.0
H253 H 0.90343 0.13097 0.07499 0.0
C254 C 0.93351 0.17793 0.14411 0.0
N255 N 0.91948 0.16844 0.13873 0.0
N256 N 0.91595 0.17211 0.12197 0.0
C257 C 0.92779 0.18387 0.11603 0.0
C258 C 0.9393 0.18801 0.12989 0.0
C259 C 0.94076 0.17759 0.16268 0.0
H260 H 0.92982 0.17746 0.1724 0.0
H261 H 0.94837 0.16545 0.16454 0.0
H262 H 0.9494 0.18907 0.16542 0.0
O263 O 0.88082 0.15727 0.15034 0.0
O264 O 0.87439 0.16534 0.12278 0.0
H265 H 0.91752 0.19856 0.09425 0.0
H266 H 0.94124 0.19685 0.0942 0.0
C267 C 0.92875 0.18985 0.09707 0.0
H268 H 0.92766 0.17841 0.08804 0.0
H269 H 0.87801 0.18939 0.08967 0.0
O270 O 0.91178 0.14867 0.1759 0.0
C271 C 0.86989 0.16281 0.13887 0.0
Co272 Co 0.09241 0.09426 0.35109 0.0
Co273 Co 0.13226 0.08849 0.36037 0.0
C274 C 0.11853 0.12409 0.3527 0.0
O275 O 0.10311 0.11803 0.34987 0.0
O276 O 0.13119 0.1141 0.35674 0.0
C277 C 0.05899 0.10928 0.34847 0.0
O278 O 0.06821 0.12325 0.35283 0.0
C279 C 0.17078 0.09044 0.35979 0.0
C280 C 0.17782 0.06789 0.37662 0.0
C281 C 0.18491 0.08198 0.36752 0.0
N282 N 0.156 0.08171 0.36412 0.0
N283 N 0.16032 0.06811 0.37396 0.0
C284 C 0.17093 0.10769 0.35049 0.0
H285 H 0.16824 0.11807 0.36041 0.0
H286 H 0.16046 0.10789 0.34014 0.0
H287 H 0.18377 0.1106 0.34425 0.0
C288 C 0.10048 0.06722 0.32392 0.0
N289 N 0.10516 0.07807 0.33732 0.0
N290 N 0.12198 0.0761 0.34089 0.0
C291 C 0.12865 0.06421 0.32961 0.0
C292 C 0.11523 0.05804 0.31857 0.0
C293 C 0.082 0.06495 0.31735 0.0
H294 H 0.07273 0.06583 0.32866 0.0
H295 H 0.07896 0.07563 0.30789 0.0
H296 H 0.08008 0.05221 0.31049 0.0
O297 O 0.09213 0.0871 0.37611 0.0
O298 O 0.12009 0.08307 0.38302 0.0
H299 H 0.15091 0.05101 0.34034 0.0
H300 H 0.15103 0.0528 0.3163 0.0
C301 C 0.1477 0.05958 0.32891 0.0
H302 H 0.15587 0.07161 0.32999 0.0
H303 H 0.15123 0.05939 0.37949 0.0
O304 O 0.06702 0.09519 0.34505 0.0
C305 C 0.10395 0.08313 0.38733 0.0
Co306 Co 0.14979 0.90372 0.60343 0.0
Co307 Co 0.15155 0.86256 0.60273 0.0
C308 C 0.15197 0.88246 0.63705 0.0
O309 O 0.15105 0.89699 0.62891 0.0
O310 O 0.1527 0.86808 0.62852 0.0
C311 C 0.15442 0.93903 0.61537 0.0
O312 O 0.16064 0.93148 0.62973 0.0
C313 C 0.15705 0.82554 0.61136 0.0
C314 C 0.15117 0.81262 0.58564 0.0
C315 C 0.15529 0.80933 0.60329 0.0
N316 N 0.15403 0.83794 0.59912 0.0
N317 N 0.15057 0.8301 0.58374 0.0
C318 C 0.16126 0.82912 0.6305 0.0
H319 H 0.17061 0.84029 0.63156 0.0
H320 H 0.16709 0.81755 0.63703 0.0
H321 H 0.14895 0.83255 0.6375 0.0
C322 C 0.18016 0.89959 0.57921 0.0
N323 N 0.16754 0.89291 0.5898 0.0
N324 N 0.16861 0.87575 0.58979 0.0
C325 C 0.18221 0.87099 0.57946 0.0
C326 C 0.18991 0.88593 0.57231 0.0
C327 C 0.18278 0.9187 0.57598 0.0
H328 H 0.18362 0.92567 0.58894 0.0
H329 H 0.19488 0.92138 0.5682 0.0
H330 H 0.17121 0.92381 0.56868 0.0
O331 O 0.12616 0.89674 0.59516 0.0
O332 O 0.12721 0.86784 0.59517 0.0
H333 H 0.20018 0.85136 0.56963 0.0
H334 H 0.18651 0.84469 0.58806 0.0
C335 C 0.18696 0.85244 0.57561 0.0
H336 H 0.17729 0.84682 0.56605 0.0
H337 H 0.14715 0.83667 0.57209 0.0
O338 O 0.1503 0.92965 0.60193 0.0
C339 C 0.11875 0.88192 0.59295 0.0
Co340 Co 0.39708 0.88889 0.83121 0.0
Co341 Co 0.35604 0.89089 0.83305 0.0
C342 C 0.3742 0.85691 0.82714 0.0
O343 O 0.38928 0.86426 0.82769 0.0
O344 O 0.36022 0.86575 0.82865 0.0
C345 C 0.43224 0.87698 0.82665 0.0
O346 O 0.42446 0.86195 0.8232 0.0
C347 C 0.31922 0.88435 0.82465 0.0
C348 C 0.30581 0.90333 0.84195 0.0
C349 C 0.30278 0.88927 0.83062 0.0
N350 N 0.33139 0.89466 0.83244 0.0
N351 N 0.32329 0.90621 0.84253 0.0
C352 C 0.32337 0.87024 0.81158 0.0
H353 H 0.33561 0.87354 0.80426 0.0
H354 H 0.31235 0.86828 0.80201 0.0
H355 H 0.32541 0.85791 0.8189 0.0
C356 C 0.39142 0.91687 0.80466 0.0
N357 N 0.38536 0.90457 0.81591 0.0
N358 N 0.3681 0.90528 0.81651 0.0
C359 C 0.36257 0.91791 0.80544 0.0
C360 C 0.37716 0.92578 0.79762 0.0
C361 C 0.41053 0.92104 0.80229 0.0
H362 H 0.41712 0.92154 0.8155 0.0
H363 H 0.41669 0.91044 0.79445 0.0
H364 H 0.41265 0.93368 0.79543 0.0
O365 O 0.39266 0.89493 0.8563 0.0
O366 O 0.36362 0.89596 0.85789 0.0
H367 H 0.33853 0.92905 0.81437 0.0
H368 H 0.34189 0.93063 0.79056 0.0
C369 C 0.34366 0.92223 0.80244 0.0
H370 H 0.33591 0.91002 0.80053 0.0
H371 H 0.32975 0.91546 0.85051 0.0
O372 O 0.42292 0.89047 0.82893 0.0
C373 C 0.3787 0.89707 0.86524 0.0
Co374 Co 0.36534 0.15887 0.09403 0.0
Co375 Co 0.35826 0.11868 0.09962 0.0
C376 C 0.39491 0.13473 0.09959 0.0
O377 O 0.3895 0.15007 0.09623 0.0
O378 O 0.38424 0.12187 0.1012 0.0
C379 C 0.37835 0.19406 0.0865 0.0
O380 O 0.39351 0.18688 0.08282 0.0
C381 C 0.36263 0.08061 0.09523 0.0
C382 C 0.3401 0.07073 0.11085 0.0
C383 C 0.35501 0.06543 0.1019 0.0
N384 N 0.35274 0.09425 0.1002 0.0
N385 N 0.33911 0.08818 0.1092 0.0
C386 C 0.38012 0.08233 0.08637 0.0
H387 H 0.38174 0.09547 0.08038 0.0
H388 H 0.38147 0.07232 0.07579 0.0
H389 H 0.39065 0.08017 0.09637 0.0
C390 C 0.34394 0.15184 0.06188 0.0
N391 N 0.35227 0.14642 0.07666 0.0
N392 N 0.34903 0.12966 0.079 0.0
C393 C 0.33839 0.12388 0.0658 0.0
C394 C 0.33479 0.13778 0.0545 0.0
C395 C 0.34476 0.1702 0.05513 0.0
H396 H 0.35841 0.17532 0.05625 0.0
H397 H 0.34034 0.17099 0.04105 0.0
H398 H 0.33624 0.17853 0.06351 0.0
O399 O 0.35428 0.15674 0.11749 0.0
O400 O 0.34798 0.12875 0.12154 0.0
H401 H 0.32456 0.1028 0.07826 0.0
H402 H 0.32039 0.10446 0.05466 0.0
C403 C 0.33057 0.10586 0.06519 0.0
H404 H 0.34116 0.0963 0.06282 0.0
H405 H 0.32965 0.09606 0.11512 0.0
O406 O 0.36519 0.18438 0.09011 0.0
C407 C 0.34787 0.14452 0.12692 0.0
Co408 Co 0.144 0.88446 0.15378 0.0
Co409 Co 0.10383 0.87845 0.16179 0.0
C410 C 0.11718 0.8878 0.12523 0.0
O411 O 0.13303 0.88973 0.13046 0.0
O412 O 0.10505 0.88329 0.13594 0.0
C413 C 0.17652 0.88179 0.13806 0.0
O414 O 0.16614 0.87447 0.12608 0.0
C415 C 0.06566 0.88301 0.15982 0.0
C416 C 0.05654 0.8664 0.18205 0.0
C417 C 0.05063 0.87638 0.16792 0.0
N418 N 0.07975 0.87717 0.16878 0.0
N419 N 0.07421 0.86746 0.1822 0.0
C420 C 0.06691 0.89252 0.14246 0.0
H421 H 0.0698 0.88297 0.13175 0.0
H422 H 0.07782 0.90224 0.14308 0.0
H423 H 0.0546 0.89923 0.13889 0.0
C424 C 0.13965 0.91092 0.18223 0.0
N425 N 0.13347 0.89771 0.17203 0.0
N426 N 0.11658 0.89545 0.17512 0.0
C427 C 0.11143 0.90724 0.18731 0.0
C428 C 0.12586 0.91742 0.19222 0.0
C429 C 0.15803 0.91796 0.18119 0.0
H430 H 0.16144 0.92043 0.16705 0.0
H431 H 0.15969 0.9302 0.189 0.0
H432 H 0.16723 0.90799 0.18632 0.0
O433 O 0.14128 0.85909 0.15776 0.0
O434 O 0.11335 0.85488 0.16491 0.0
H435 H 0.09181 0.91891 0.20442 0.0
H436 H 0.08413 0.91184 0.18264 0.0
C437 C 0.09299 0.90873 0.19395 0.0
H438 H 0.0887 0.89601 0.19956 0.0
H439 H 0.08251 0.86085 0.19092 0.0
O440 O 0.16972 0.88832 0.15199 0.0
C441 C 0.12864 0.84898 0.16207 0.0
Co442 Co 0.35358 0.85645 0.39726 0.0
Co443 Co 0.34662 0.89606 0.3904 0.0
C444 C 0.38277 0.88209 0.39893 0.0
O445 O 0.37723 0.86664 0.40198 0.0
O446 O 0.37233 0.89405 0.39405 0.0
C447 C 0.3674 0.82397 0.3929 0.0
O448 O 0.37947 0.83426 0.38597 0.0
C449 C 0.35114 0.93387 0.39326 0.0
C450 C 0.32998 0.94303 0.37547 0.0
C451 C 0.34465 0.94864 0.38497 0.0
N452 N 0.34091 0.92015 0.38865 0.0
N453 N 0.32799 0.92579 0.37842 0.0
C454 C 0.36822 0.93224 0.40307 0.0
H455 H 0.36751 0.92119 0.41257 0.0
H456 H 0.37157 0.94431 0.41055 0.0
H457 H 0.37885 0.92982 0.39333 0.0
C458 C 0.32587 0.86228 0.42458 0.0
N459 N 0.33627 0.86775 0.41118 0.0
N460 N 0.33369 0.88451 0.4085 0.0
C461 C 0.32166 0.89029 0.42015 0.0
C462 C 0.31621 0.87639 0.43072 0.0
C463 C 0.32506 0.84383 0.43105 0.0
H464 H 0.32551 0.83471 0.41955 0.0
H465 H 0.3367 0.84134 0.43959 0.0
H466 H 0.31294 0.84127 0.43884 0.0
O467 O 0.34874 0.85857 0.37139 0.0
O468 O 0.3415 0.88608 0.36675 0.0
H469 H 0.30833 0.91271 0.41026 0.0
H470 H 0.30921 0.91157 0.43434 0.0
C471 C 0.31656 0.90905 0.42188 0.0
H472 H 0.32853 0.91744 0.42182 0.0
H473 H 0.31864 0.91766 0.37232 0.0
O474 O 0.35432 0.83087 0.40061 0.0
C475 C 0.34389 0.87067 0.36098 0.0
Co476 Co 0.39496 0.11584 0.65256 0.0
Co477 Co 0.35414 0.11018 0.64849 0.0
C478 C 0.37052 0.14576 0.65474 0.0
O479 O 0.38596 0.13966 0.65617 0.0
O480 O 0.3573 0.13576 0.6519 0.0
C481 C 0.42826 0.12819 0.64597 0.0
O482 O 0.41831 0.13939 0.6375 0.0
C483 C 0.31654 0.11436 0.65541 0.0
C484 C 0.30489 0.09373 0.63831 0.0
C485 C 0.30058 0.10776 0.64912 0.0
N486 N 0.32958 0.10492 0.64832 0.0
N487 N 0.32251 0.09247 0.63829 0.0
C488 C 0.31953 0.12909 0.66823 0.0
H489 H 0.33184 0.12704 0.6759 0.0
H490 H 0.30829 0.13024 0.67753 0.0
H491 H 0.32089 0.14146 0.66072 0.0
C492 C 0.38998 0.08812 0.67947 0.0
N493 N 0.38364 0.09944 0.66745 0.0
N494 N 0.36653 0.09711 0.66591 0.0
C495 C 0.36141 0.08423 0.67699 0.0
C496 C 0.37613 0.07806 0.68593 0.0
C497 C 0.40901 0.08689 0.68438 0.0
H498 H 0.41471 0.1002 0.68603 0.0
H499 H 0.41086 0.07938 0.69687 0.0
H500 H 0.41613 0.08034 0.6734 0.0
O501 O 0.39113 0.10997 0.62733 0.0
O502 O 0.36258 0.10491 0.62417 0.0
H503 H 0.33923 0.07238 0.66408 0.0
H504 H 0.34182 0.06591 0.687 0.0
C505 C 0.34308 0.07696 0.67758 0.0
H506 H 0.33392 0.08747 0.68149 0.0
H507 H 0.32975 0.08357 0.63083 0.0
O508 O 0.4209 0.11621 0.65507 0.0
C509 C 0.37795 0.10595 0.61764 0.0
Co510 Co 0.1612 0.14652 0.88571 0.0
Co511 Co 0.15967 0.10653 0.89406 0.0
C512 C 0.12778 0.12861 0.89745 0.0
O513 O 0.13632 0.14219 0.89262 0.0
O514 O 0.13532 0.11392 0.89907 0.0
C515 C 0.15661 0.18336 0.8908 0.0
O516 O 0.14667 0.17867 0.90428 0.0
C517 C 0.1505 0.07067 0.90436 0.0
C518 C 0.17512 0.05682 0.89847 0.0
C519 C 0.15789 0.05423 0.90376 0.0
N520 N 0.16275 0.08247 0.89954 0.0
N521 N 0.17748 0.07411 0.89615 0.0
C522 C 0.13199 0.07508 0.90905 0.0
H523 H 0.13202 0.08637 0.91835 0.0
H524 H 0.12511 0.06391 0.91545 0.0
H525 H 0.12482 0.0788 0.89676 0.0
C526 C 0.19048 0.14506 0.9118 0.0
N527 N 0.17729 0.13752 0.90244 0.0
N528 N 0.17635 0.1208 0.9064 0.0
C529 C 0.18865 0.11728 0.91882 0.0
C530 C 0.19816 0.13245 0.92246 0.0
C531 C 0.19615 0.16372 0.90971 0.0
H532 H 0.19592 0.16733 0.89541 0.0
H533 H 0.18675 0.17221 0.91684 0.0
H534 H 0.20955 0.16605 0.91516 0.0
O535 O 0.16451 0.13599 0.86219 0.0
O536 O 0.16252 0.10769 0.86783 0.0
H537 H 0.19947 0.09168 0.92025 0.0
H538 H 0.19618 0.10185 0.94157 0.0
C539 C 0.1905 0.10007 0.92802 0.0
H540 H 0.17753 0.09344 0.92913 0.0
H541 H 0.1889 0.08012 0.89141 0.0
O542 O 0.16451 0.17174 0.88191 0.0
C543 C 0.16426 0.12022 0.85688 0.0
Co544 Co 0.8494 0.36101 0.89192 0.0
Co545 Co 0.84939 0.40172 0.89117 0.0
C546 C 0.88263 0.38101 0.89664 0.0
O547 O 0.87449 0.36639 0.89647 0.0
O548 O 0.87443 0.39532 0.89478 0.0
C549 C 0.85623 0.32471 0.89882 0.0
O550 O 0.86924 0.33047 0.90888 0.0
C551 C 0.85818 0.43667 0.90386 0.0
C552 C 0.84093 0.45316 0.88737 0.0
C553 C 0.85426 0.4539 0.90003 0.0
N554 N 0.84787 0.42628 0.89374 0.0
N555 N 0.83746 0.43619 0.88403 0.0
C556 C 0.87105 0.43003 0.91728 0.0
H557 H 0.86653 0.41721 0.92252 0.0
H558 H 0.87274 0.43948 0.92842 0.0
H559 H 0.88394 0.42818 0.91078 0.0
C560 C 0.82374 0.36723 0.921 0.0
N561 N 0.83458 0.37286 0.90803 0.0
N562 N 0.83437 0.39003 0.90754 0.0
C563 C 0.82325 0.3959 0.92008 0.0
C564 C 0.81616 0.38165 0.92912 0.0
C565 C 0.82163 0.34845 0.9261 0.0
H566 H 0.83459 0.34198 0.92583 0.0
H567 H 0.81584 0.34704 0.93957 0.0
H568 H 0.81297 0.34179 0.91621 0.0
O569 O 0.84462 0.3674 0.86691 0.0
O570 O 0.8435 0.39624 0.86605 0.0
H571 H 0.80723 0.41645 0.93127 0.0
H572 H 0.83041 0.42151 0.92911 0.0
C573 C 0.81899 0.41476 0.92279 0.0
H574 H 0.81651 0.42096 0.90971 0.0
H575 H 0.82836 0.43137 0.87475 0.0
O576 O 0.8457 0.33553 0.89189 0.0
C577 C 0.84268 0.38149 0.85824 0.0
Co578 Co 0.89326 0.61422 0.15015 0.0
Co579 Co 0.85244 0.60758 0.14772 0.0
C580 C 0.86788 0.64273 0.15735 0.0
O581 O 0.88365 0.63729 0.15711 0.0
O582 O 0.85496 0.6325 0.15405 0.0
C583 C 0.9261 0.62792 0.14305 0.0
O584 O 0.91566 0.63951 0.13582 0.0
C585 C 0.81477 0.61028 0.15504 0.0
C586 C 0.80367 0.58996 0.13722 0.0
C587 C 0.79899 0.60357 0.14841 0.0
N588 N 0.82806 0.60138 0.14773 0.0
N589 N 0.82132 0.58905 0.13732 0.0
C590 C 0.81728 0.62453 0.16852 0.0
H591 H 0.82946 0.62233 0.17637 0.0
H592 H 0.80584 0.62516 0.17761 0.0
H593 H 0.81862 0.6372 0.16157 0.0
C594 C 0.89031 0.58335 0.17405 0.0
N595 N 0.88318 0.59564 0.16352 0.0
N596 N 0.86603 0.59323 0.16289 0.0
C597 C 0.86163 0.57959 0.17327 0.0
C598 C 0.87688 0.57272 0.18062 0.0
C599 C 0.90968 0.58122 0.17664 0.0
H600 H 0.91661 0.58372 0.16392 0.0
H601 H 0.91445 0.59097 0.18657 0.0
H602 H 0.9129 0.56792 0.18138 0.0
O603 O 0.88848 0.6111 0.12452 0.0
O604 O 0.85993 0.60548 0.12265 0.0
H605 H 0.83812 0.56637 0.1649 0.0
H606 H 0.84207 0.56552 0.18868 0.0
C607 C 0.84308 0.57382 0.17663 0.0
H608 H 0.83464 0.5854 0.17843 0.0
H609 H 0.82881 0.58058 0.12959 0.0
O610 O 0.91926 0.61526 0.1516 0.0
C611 C 0.8748 0.60774 0.11531 0.0
Co612 Co 0.66186 0.64553 0.38387 0.0
Co613 Co 0.66057 0.60563 0.3929 0.0
C614 C 0.62858 0.62782 0.39595 0.0
O615 O 0.63714 0.64133 0.391 0.0
O616 O 0.63611 0.61313 0.39771 0.0
C617 C 0.65633 0.68243 0.38701 0.0
O618 O 0.64616 0.67819 0.40045 0.0
C619 C 0.65115 0.56996 0.40366 0.0
C620 C 0.67564 0.55584 0.39796 0.0
C621 C 0.65835 0.55343 0.40313 0.0
N622 N 0.66355 0.58164 0.39888 0.0
N623 N 0.67821 0.5731 0.39563 0.0
C624 C 0.63263 0.57454 0.40808 0.0
H625 H 0.63257 0.58603 0.41712 0.0
H626 H 0.62566 0.56352 0.41466 0.0
H627 H 0.62558 0.57797 0.39562 0.0
C628 C 0.69092 0.6449 0.41013 0.0
N629 N 0.67795 0.63696 0.40078 0.0
N630 N 0.67734 0.62027 0.40491 0.0
C631 C 0.68977 0.61713 0.41732 0.0
C632 C 0.69888 0.63257 0.42089 0.0
C633 C 0.69603 0.6637 0.408 0.0
H634 H 0.69639 0.66706 0.39363 0.0
H635 H 0.68596 0.67196 0.41441 0.0
H636 H 0.70905 0.66661 0.4141 0.0
O637 O 0.66504 0.63446 0.36061 0.0
O638 O 0.66328 0.60622 0.3666 0.0
H639 H 0.70127 0.59184 0.41848 0.0
H640 H 0.69823 0.60191 0.43988 0.0
C641 C 0.69227 0.59999 0.42648 0.0
H642 H 0.6795 0.59304 0.42787 0.0
H643 H 0.68971 0.57896 0.39086 0.0
O644 O 0.66494 0.67061 0.37912 0.0
C645 C 0.66484 0.61864 0.35548 0.0
Co646 Co 0.89318 0.38454 0.32903 0.0
Co647 Co 0.85432 0.39428 0.33686 0.0
C648 C 0.86587 0.35727 0.32873 0.0
O649 O 0.88163 0.36158 0.32512 0.0
O650 O 0.85484 0.36863 0.33365 0.0
C651 C 0.92613 0.36805 0.32449 0.0
O652 O 0.91645 0.35375 0.32429 0.0
C653 C 0.81758 0.39107 0.32863 0.0
C654 C 0.80507 0.40781 0.3488 0.0
C655 C 0.80143 0.39549 0.33566 0.0
N656 N 0.83017 0.39995 0.33747 0.0
N657 N 0.82264 0.41021 0.34932 0.0
C658 C 0.82119 0.37853 0.31377 0.0
H659 H 0.8333 0.38258 0.3066 0.0
H660 H 0.80992 0.37788 0.30434 0.0
H661 H 0.82333 0.36531 0.31929 0.0
C662 C 0.88916 0.41288 0.30256 0.0
N663 N 0.88275 0.40225 0.31526 0.0
N664 N 0.86631 0.40631 0.31846 0.0
C665 C 0.86169 0.41967 0.30785 0.0
C666 C 0.87604 0.4243 0.29742 0.0
C667 C 0.90753 0.41205 0.29561 0.0
H668 H 0.91666 0.41781 0.30567 0.0
H669 H 0.91125 0.39822 0.29356 0.0
H670 H 0.90891 0.41929 0.2829 0.0
O671 O 0.89184 0.39011 0.35485 0.0
O672 O 0.86484 0.39916 0.36045 0.0
H673 H 0.84109 0.43136 0.32294 0.0
H674 H 0.84436 0.44104 0.30124 0.0
C675 C 0.84433 0.42863 0.30882 0.0
H676 H 0.83396 0.41979 0.30336 0.0
H677 H 0.82951 0.41801 0.35846 0.0
O678 O 0.91863 0.3828 0.32467 0.0
C679 C 0.8804 0.39587 0.36565 0.0
Co680 Co 0.59507 0.59649 0.85073 0.0
Co681 Co 0.63297 0.58585 0.86236 0.0
C682 C 0.62332 0.62333 0.85552 0.0
O683 O 0.60777 0.61924 0.85061 0.0
O684 O 0.63411 0.61171 0.8605 0.0
C685 C 0.56317 0.61381 0.84851 0.0
O686 O 0.57328 0.62652 0.85458 0.0
C687 C 0.67089 0.58468 0.85892 0.0
C688 C 0.67833 0.56682 0.88069 0.0
C689 C 0.68523 0.57788 0.86784 0.0
N690 N 0.65621 0.578 0.86618 0.0
N691 N 0.66072 0.56704 0.87894 0.0
C692 C 0.67095 0.59905 0.84544 0.0
H693 H 0.67449 0.61157 0.85211 0.0
H694 H 0.65784 0.60018 0.83906 0.0
H695 H 0.68086 0.59654 0.83499 0.0
C696 C 0.60195 0.57007 0.82266 0.0
N697 N 0.60685 0.57968 0.83692 0.0
N698 N 0.62288 0.57536 0.84172 0.0
C699 C 0.62875 0.56291 0.83059 0.0
C700 C 0.6157 0.55919 0.81813 0.0
C701 C 0.58437 0.57125 0.81379 0.0
H702 H 0.58074 0.58516 0.81226 0.0
H703 H 0.58433 0.56472 0.80056 0.0
H704 H 0.57435 0.56491 0.82239 0.0
O705 O 0.59298 0.58861 0.87558 0.0
O706 O 0.61943 0.58004 0.88398 0.0
H707 H 0.64753 0.54964 0.84683 0.0
H708 H 0.64686 0.54218 0.82399 0.0
C709 C 0.64593 0.5538 0.83278 0.0
H710 H 0.65679 0.56303 0.82958 0.0
H711 H 0.65177 0.56052 0.88713 0.0
O712 O 0.57022 0.59957 0.84373 0.0
C713 C 0.60324 0.58233 0.88727 0.0
Co714 Co 0.88729 0.65805 0.89827 0.0
Co715 Co 0.89438 0.65026 0.85793 0.0
C716 C 0.85784 0.65261 0.87256 0.0
O717 O 0.86343 0.65663 0.88804 0.0
O718 O 0.86842 0.64962 0.85987 0.0
C719 C 0.87255 0.65719 0.93204 0.0
O720 O 0.86027 0.64915 0.92268 0.0
C721 C 0.88964 0.65444 0.81987 0.0
C722 C 0.91072 0.63814 0.80874 0.0
C723 C 0.89614 0.64784 0.80398 0.0
N724 N 0.89965 0.64861 0.83331 0.0
N725 N 0.91237 0.63903 0.8266 0.0
C726 C 0.87451 0.6665 0.82244 0.0
H727 H 0.87665 0.67464 0.83454 0.0
H728 H 0.87282 0.67505 0.81065 0.0
H729 H 0.8623 0.6587 0.82434 0.0
C730 C 0.90995 0.68846 0.89036 0.0
N731 N 0.90119 0.67392 0.88537 0.0
N732 N 0.90411 0.67084 0.86837 0.0
C733 C 0.91485 0.6834 0.86197 0.0
C734 C 0.91889 0.69497 0.87572 0.0
C735 C 0.9099 0.6957 0.90891 0.0
H736 H 0.89626 0.69569 0.91408 0.0
H737 H 0.9154 0.70917 0.90938 0.0
H738 H 0.91783 0.68715 0.91766 0.0
O739 O 0.89774 0.63468 0.89783 0.0
O740 O 0.90356 0.62901 0.86951 0.0
H741 H 0.93238 0.69371 0.84173 0.0
H742 H 0.91147 0.68528 0.83378 0.0
C743 C 0.92227 0.68334 0.84353 0.0
H744 H 0.92819 0.67045 0.84076 0.0
H745 H 0.92173 0.63255 0.83424 0.0
O746 O 0.88576 0.66366 0.92398 0.0
C747 C 0.9037 0.62461 0.88585 0.0
Co748 Co 0.08912 0.14478 0.65447 0.0
Co749 Co 0.09027 0.14791 0.61305 0.0
C750 C 0.08833 0.11306 0.63111 0.0
O751 O 0.08783 0.12004 0.6465 0.0
O752 O 0.08896 0.12241 0.61716 0.0
C753 C 0.08227 0.13169 0.68937 0.0
O754 O 0.07483 0.11857 0.68078 0.0
C755 C 0.07914 0.14057 0.57693 0.0
C756 C 0.09532 0.15885 0.5611 0.0
C757 C 0.08357 0.14494 0.5596 0.0
N758 N 0.08812 0.1511 0.5881 0.0
N759 N 0.09759 0.1622 0.5786 0.0
C760 C 0.06613 0.12705 0.58295 0.0
H761 H 0.06038 0.1309 0.59593 0.0
H762 H 0.05554 0.12522 0.57287 0.0
H763 H 0.07288 0.11445 0.58479 0.0
C764 C 0.06026 0.17029 0.64954 0.0
N765 N 0.07238 0.15922 0.64316 0.0
N766 N 0.07277 0.16037 0.62568 0.0
C767 C 0.06077 0.17206 0.62032 0.0
C768 C 0.05249 0.17889 0.63526 0.0
C769 C 0.05755 0.17368 0.66898 0.0
H770 H 0.07046 0.17453 0.67587 0.0
H771 H 0.05011 0.16256 0.6748 0.0
H772 H 0.05024 0.18593 0.67132 0.0
O773 O 0.11327 0.153 0.64949 0.0
O774 O 0.11436 0.15549 0.62009 0.0
H775 H 0.06883 0.1837 0.59577 0.0
H776 H 0.04534 0.18444 0.59957 0.0
C777 C 0.05733 0.17648 0.6012 0.0
H778 H 0.0556 0.1643 0.59337 0.0
H779 H 0.1062 0.1715 0.58405 0.0
O780 O 0.08748 0.14497 0.68067 0.0
C781 C 0.12174 0.1565 0.63534 0.0
Co782 Co 0.59595 0.34995 0.35042 0.0
Co783 Co 0.60538 0.34092 0.39023 0.0
C784 C 0.60109 0.37792 0.37725 0.0
O785 O 0.59628 0.37343 0.36162 0.0
O786 O 0.60523 0.36663 0.38887 0.0
C787 C 0.5896 0.36657 0.31692 0.0
O788 O 0.58992 0.38088 0.32662 0.0
C789 C 0.60404 0.34512 0.42882 0.0
C790 C 0.61547 0.32061 0.43875 0.0
C791 C 0.60903 0.33659 0.44419 0.0
N792 N 0.60752 0.33482 0.41479 0.0
N793 N 0.61424 0.3201 0.42081 0.0
C794 C 0.59559 0.36264 0.42762 0.0
H795 H 0.58588 0.36273 0.41655 0.0
H796 H 0.58892 0.36601 0.44028 0.0
H797 H 0.60585 0.37268 0.42501 0.0
C798 C 0.56614 0.32596 0.35832 0.0
N799 N 0.58096 0.33459 0.36303 0.0
N800 N 0.58472 0.33112 0.37979 0.0
C801 C 0.57227 0.32035 0.38637 0.0
C802 C 0.56015 0.31662 0.37296 0.0
C803 C 0.55853 0.32611 0.3399 0.0
H804 H 0.5692 0.32482 0.32998 0.0
H805 H 0.55204 0.33882 0.3376 0.0
H806 H 0.5488 0.31537 0.33789 0.0
O807 O 0.62015 0.34106 0.35037 0.0
O808 O 0.62678 0.33309 0.37795 0.0
H809 H 0.58211 0.30505 0.40791 0.0
H810 H 0.55866 0.30856 0.40875 0.0
C811 C 0.57153 0.3146 0.40541 0.0
H812 H 0.57375 0.32601 0.41429 0.0
H813 H 0.61837 0.30988 0.41266 0.0
O814 O 0.59018 0.35183 0.32466 0.0
C815 C 0.63085 0.33466 0.3616 0.0
Co816 Co 0.39589 0.85658 0.14303 0.0
Co817 Co 0.39416 0.8527 0.10145 0.0
C818 C 0.40354 0.88694 0.11905 0.0
O819 O 0.4025 0.88023 0.13453 0.0
O820 O 0.40087 0.87773 0.10509 0.0
C821 C 0.38849 0.86817 0.17671 0.0
O822 O 0.38102 0.88 0.16663 0.0
C823 C 0.39795 0.85726 0.06269 0.0
C824 C 0.3865 0.83249 0.05255 0.0
C825 C 0.39332 0.84844 0.04716 0.0
N826 N 0.39416 0.84692 0.07664 0.0
N827 N 0.38747 0.83208 0.07047 0.0
C828 C 0.40332 0.87604 0.0645 0.0
H829 H 0.39264 0.88319 0.07126 0.0
H830 H 0.41532 0.87704 0.07292 0.0
H831 H 0.40581 0.88232 0.05147 0.0
C832 C 0.4202 0.82688 0.13905 0.0
N833 N 0.40946 0.839 0.13216 0.0
N834 N 0.40922 0.83757 0.11468 0.0
C835 C 0.4202 0.82467 0.10985 0.0
C836 C 0.42745 0.81736 0.12514 0.0
C837 C 0.42257 0.82395 0.15862 0.0
H838 H 0.40973 0.82508 0.16545 0.0
H839 H 0.43152 0.83419 0.1641 0.0
H840 H 0.42811 0.8109 0.16143 0.0
O841 O 0.37077 0.85304 0.13808 0.0
O842 O 0.36914 0.85012 0.10879 0.0
H843 H 0.41427 0.81112 0.08561 0.0
H844 H 0.43746 0.81371 0.09004 0.0
C845 C 0.4245 0.82017 0.09096 0.0
H846 H 0.42473 0.83214 0.08268 0.0
H847 H 0.38281 0.82197 0.07853 0.0
O848 O 0.39734 0.85622 0.16929 0.0
C849 C 0.36177 0.85083 0.12396 0.0
Co850 Co 0.89604 0.35897 0.64136 0.0
Co851 Co 0.89165 0.34993 0.60083 0.0
C852 C 0.9012 0.38626 0.61419 0.0
O853 O 0.90247 0.38169 0.63044 0.0
O854 O 0.89687 0.37532 0.60211 0.0
C855 C 0.89114 0.37432 0.67436 0.0
O856 O 0.88513 0.38644 0.66365 0.0
C857 C 0.90059 0.35204 0.5632 0.0
C858 C 0.88239 0.33274 0.55101 0.0
C859 C 0.89461 0.34567 0.54689 0.0
N860 N 0.89204 0.34357 0.57625 0.0
N861 N 0.88133 0.33188 0.5689 0.0
C862 C 0.91444 0.36571 0.56653 0.0
H863 H 0.92142 0.363 0.57923 0.0
H864 H 0.92402 0.36612 0.55541 0.0
H865 H 0.90817 0.37867 0.56769 0.0
C866 C 0.92123 0.32966 0.63909 0.0
N867 N 0.90949 0.34055 0.63173 0.0
N868 N 0.9078 0.33684 0.61466 0.0
C869 C 0.91846 0.32349 0.61059 0.0
C870 C 0.92733 0.31845 0.62595 0.0
C871 C 0.92681 0.33044 0.65822 0.0
H872 H 0.92844 0.34426 0.66246 0.0
H873 H 0.93929 0.32338 0.66045 0.0
H874 H 0.91636 0.32443 0.66654 0.0
O875 O 0.87064 0.35478 0.63737 0.0
O876 O 0.86727 0.34654 0.60924 0.0
H877 H 0.90585 0.31194 0.58786 0.0
H878 H 0.92729 0.30318 0.59258 0.0
C879 C 0.91933 0.31522 0.59252 0.0
H880 H 0.92509 0.32473 0.58299 0.0
H881 H 0.87274 0.32387 0.57606 0.0
O882 O 0.898 0.36076 0.66761 0.0
C883 C 0.86086 0.34979 0.6245 0.0
Co884 Co 0.39662 0.14444 0.39711 0.0
Co885 Co 0.39632 0.14872 0.35568 0.0
C886 C 0.36303 0.1442 0.37677 0.0
O887 O 0.37124 0.14389 0.39157 0.0
O888 O 0.37119 0.14593 0.3621 0.0
C889 C 0.38837 0.15027 0.43373 0.0
O890 O 0.37599 0.16034 0.42733 0.0
C891 C 0.38477 0.16101 0.32086 0.0
C892 C 0.40663 0.1532 0.30343 0.0
C893 C 0.39001 0.16038 0.30326 0.0
N894 N 0.39757 0.15431 0.33104 0.0
N895 N 0.41072 0.14987 0.32057 0.0
C896 C 0.36781 0.16787 0.32785 0.0
H897 H 0.36975 0.17338 0.34142 0.0
H898 H 0.36253 0.17805 0.31885 0.0
H899 H 0.35809 0.15704 0.32851 0.0
C900 C 0.41709 0.17747 0.39462 0.0
N901 N 0.40781 0.16423 0.38725 0.0
N902 N 0.40756 0.16613 0.36982 0.0
C903 C 0.41656 0.18075 0.36554 0.0
C904 C 0.42289 0.18842 0.38111 0.0
C905 C 0.42022 0.17949 0.41422 0.0
H906 H 0.40739 0.18048 0.42108 0.0
H907 H 0.4282 0.19131 0.41739 0.0
H908 H 0.4269 0.16772 0.41937 0.0
O909 O 0.40684 0.12269 0.38802 0.0
O910 O 0.4073 0.12559 0.35866 0.0
H911 H 0.4284 0.19837 0.34622 0.0
H912 H 0.40762 0.1885 0.33972 0.0
C913 C 0.42023 0.18631 0.3468 0.0
H914 H 0.42724 0.17572 0.33979 0.0
H915 H 0.42219 0.14391 0.32504 0.0
O916 O 0.39916 0.1432 0.42314 0.0
C917 C 0.41031 0.11669 0.37262 0.0
Co918 Co 0.58769 0.64214 0.15293 0.0
Co919 Co 0.58921 0.64593 0.11156 0.0
C920 C 0.58702 0.61079 0.12938 0.0
O921 O 0.58619 0.61751 0.14486 0.0
O922 O 0.58802 0.62036 0.1156 0.0
C923 C 0.58177 0.62908 0.18803 0.0
O924 O 0.57459 0.61572 0.17959 0.0
C925 C 0.57682 0.63894 0.0758 0.0
C926 C 0.5937 0.65605 0.05938 0.0
C927 C 0.58103 0.64291 0.05829 0.0
N928 N 0.58677 0.64896 0.08662 0.0
N929 N 0.59669 0.65935 0.07677 0.0
C930 C 0.56334 0.62615 0.08238 0.0
H931 H 0.55808 0.63056 0.09541 0.0
H932 H 0.55244 0.62463 0.0726 0.0
H933 H 0.56955 0.61328 0.08441 0.0
C934 C 0.55814 0.66691 0.14805 0.0
N935 N 0.57089 0.65655 0.14168 0.0
N936 N 0.57165 0.65825 0.12426 0.0
C937 C 0.55946 0.66978 0.11896 0.0
C938 C 0.55042 0.67565 0.13385 0.0
C939 C 0.55358 0.66833 0.16736 0.0
H940 H 0.55387 0.65522 0.17359 0.0
H941 H 0.54041 0.67414 0.16921 0.0
H942 H 0.56358 0.67667 0.17417 0.0
O943 O 0.61191 0.65022 0.14779 0.0
O944 O 0.61325 0.65354 0.11849 0.0
H945 H 0.54957 0.68809 0.09938 0.0
H946 H 0.55164 0.66575 0.09187 0.0
C947 C 0.55771 0.6762 0.10021 0.0
H948 H 0.57092 0.6792 0.09477 0.0
H949 H 0.606 0.66813 0.0819 0.0
O950 O 0.5864 0.64249 0.1792 0.0
C951 C 0.62051 0.65407 0.13381 0.0
Co952 Co 0.09862 0.85003 0.84934 0.0
Co953 Co 0.1063 0.84097 0.88943 0.0
C954 C 0.104 0.87797 0.87627 0.0
O955 O 0.09971 0.8735 0.86048 0.0
O956 O 0.10724 0.86665 0.88815 0.0
C957 C 0.09072 0.86705 0.8162 0.0
O958 O 0.08915 0.88109 0.82614 0.0
C959 C 0.10356 0.84521 0.92788 0.0
C960 C 0.11354 0.82024 0.93828 0.0
C961 C 0.10748 0.83647 0.94345 0.0
N962 N 0.10731 0.83479 0.91401 0.0
N963 N 0.11317 0.81981 0.9203 0.0
C964 C 0.09562 0.86294 0.92627 0.0
H965 H 0.0864 0.86323 0.91478 0.0
H966 H 0.08848 0.86651 0.93861 0.0
H967 H 0.10622 0.87273 0.92407 0.0
C968 C 0.06772 0.82734 0.85614 0.0
N969 N 0.08262 0.83546 0.86144 0.0
N970 N 0.0855 0.83209 0.87839 0.0
C971 C 0.07227 0.82203 0.88456 0.0
C972 C 0.06061 0.81856 0.87063 0.0
C973 C 0.06118 0.82724 0.83729 0.0
H974 H 0.07241 0.82586 0.82803 0.0
H975 H 0.05476 0.83988 0.83445 0.0
H976 H 0.05166 0.81642 0.83483 0.0
O977 O 0.12222 0.83984 0.84985 0.0
O978 O 0.12775 0.83216 0.87777 0.0
H979 H 0.08008 0.80655 0.90683 0.0
H980 H 0.05694 0.81179 0.90658 0.0
C981 C 0.07035 0.81679 0.90367 0.0
H982 H 0.07304 0.82821 0.9124 0.0
H983 H 0.11723 0.80943 0.91233 0.0
O984 O 0.09325 0.8524 0.82365 0.0
C985 C 0.13227 0.83314 0.86149 0.0
Co986 Co 0.9094 0.90586 0.64714 0.0
Co987 Co 0.86854 0.90998 0.64315 0.0
C988 C 0.88516 0.87477 0.64292 0.0
O989 O 0.90035 0.88161 0.64498 0.0
O990 O 0.87146 0.88417 0.64227 0.0
C991 C 0.94315 0.89103 0.65372 0.0
O992 O 0.93396 0.87689 0.65739 0.0
C993 C 0.83025 0.9047 0.64522 0.0
C994 C 0.82048 0.93076 0.6378 0.0
C995 C 0.81504 0.91398 0.64202 0.0
N996 N 0.84412 0.91545 0.64288 0.0
N997 N 0.83817 0.93102 0.63847 0.0
C998 C 0.83155 0.88596 0.65055 0.0
H999 H 0.84258 0.88429 0.66009 0.0
H1000 H 0.81915 0.88126 0.65672 0.0
H1001 H 0.83414 0.87799 0.6385 0.0
C1002 C 0.90322 0.928 0.67875 0.0
N1003 N 0.89737 0.91856 0.66474 0.0
N1004 N 0.8802 0.92012 0.66338 0.0
C1005 C 0.87455 0.93045 0.67673 0.0
C1006 C 0.88897 0.93589 0.68684 0.0
C1007 C 0.9222 0.92989 0.68375 0.0
H1008 H 0.92906 0.93773 0.67344 0.0
H1009 H 0.92833 0.91681 0.68408 0.0
H1010 H 0.92386 0.93632 0.69694 0.0
O1011 O 0.90675 0.91688 0.62375 0.0
O1012 O 0.87796 0.91936 0.62045 0.0
H1013 H 0.85319 0.94612 0.66799 0.0
H1014 H 0.85359 0.9427 0.69164 0.0
C1015 C 0.85598 0.93644 0.67857 0.0
H1016 H 0.84683 0.92519 0.67689 0.0
H1017 H 0.84622 0.94174 0.6355 0.0
O1018 O 0.93516 0.90524 0.65082 0.0
C1019 C 0.8935 0.92127 0.61451 0.0
Co1020 Co 0.84964 0.08968 0.39291 0.0
Co1021 Co 0.84954 0.1309 0.39452 0.0
C1022 C 0.84937 0.11138 0.35973 0.0
O1023 O 0.84924 0.09661 0.36746 0.0
O1024 O 0.84915 0.12558 0.36863 0.0
C1025 C 0.84561 0.05431 0.38086 0.0
O1026 O 0.84167 0.06181 0.36567 0.0
C1027 C 0.84279 0.16762 0.38582 0.0
C1028 C 0.85149 0.1813 0.41029 0.0
C1029 C 0.8454 0.18406 0.39314 0.0
N1030 N 0.8473 0.15559 0.39796 0.0
N1031 N 0.85236 0.16387 0.41264 0.0
C1032 C 0.83637 0.16349 0.36744 0.0
H1033 H 0.82821 0.1514 0.36752 0.0
H1034 H 0.82854 0.17441 0.36197 0.0
H1035 H 0.8479 0.16149 0.35873 0.0
C1036 C 0.81843 0.09461 0.41585 0.0
N1037 N 0.8319 0.10095 0.40616 0.0
N1038 N 0.83173 0.11814 0.40673 0.0
C1039 C 0.81799 0.12329 0.41666 0.0
C1040 C 0.80912 0.10855 0.42281 0.0
C1041 C 0.81442 0.07556 0.41793 0.0
H1042 H 0.81448 0.06914 0.40466 0.0
H1043 H 0.80149 0.07331 0.42436 0.0
H1044 H 0.82489 0.06951 0.42612 0.0
O1045 O 0.87329 0.09593 0.40173 0.0
O1046 O 0.87348 0.12486 0.40282 0.0
H1047 H 0.8019 0.14341 0.42869 0.0
H1048 H 0.81321 0.14958 0.40845 0.0
C1049 C 0.81417 0.14197 0.42097 0.0
H1050 H 0.82518 0.14748 0.42899 0.0
H1051 H 0.85702 0.15765 0.42405 0.0
O1052 O 0.84828 0.06377 0.39458 0.0
C1053 C 0.88127 0.11034 0.40466 0.0
Co1054 Co 0.60628 0.09954 0.15118 0.0
Co1055 Co 0.64634 0.09278 0.14555 0.0
C1056 C 0.63183 0.12874 0.15294 0.0
O1057 O 0.61613 0.12339 0.15527 0.0
O1058 O 0.64394 0.11814 0.14899 0.0
C1059 C 0.57254 0.11363 0.15951 0.0
O1060 O 0.58176 0.12759 0.16393 0.0
C1061 C 0.68255 0.09837 0.15527 0.0
C1062 C 0.69694 0.08176 0.13631 0.0
C1063 C 0.69929 0.09448 0.14935 0.0
N1064 N 0.67088 0.08875 0.14593 0.0
N1065 N 0.67953 0.07863 0.13477 0.0
C1066 C 0.67755 0.1107 0.16989 0.0
H1067 H 0.6651 0.10629 0.17618 0.0
H1068 H 0.68812 0.1116 0.18011 0.0
H1069 H 0.67542 0.12388 0.16428 0.0
C1070 C 0.6115 0.07178 0.17842 0.0
N1071 N 0.6175 0.08258 0.16561 0.0
N1072 N 0.63437 0.07986 0.16327 0.0
C1073 C 0.63972 0.06732 0.17452 0.0
C1074 C 0.62539 0.0617 0.1845 0.0
C1075 C 0.59264 0.0706 0.18387 0.0
H1076 H 0.58416 0.06982 0.17182 0.0
H1077 H 0.58913 0.08265 0.19124 0.0
H1078 H 0.59002 0.05904 0.19237 0.0
O1079 O 0.60922 0.09427 0.1254 0.0
O1080 O 0.63721 0.0875 0.1215 0.0
H1081 H 0.66242 0.05529 0.16336 0.0
H1082 H 0.66033 0.05221 0.1872 0.0
C1083 C 0.65839 0.06147 0.17608 0.0
H1084 H 0.66705 0.07298 0.1784 0.0
H1085 H 0.67353 0.07027 0.12552 0.0
O1086 O 0.58051 0.09985 0.15486 0.0
C1087 C 0.62178 0.08962 0.11533 0.0
Co1088 Co 0.63528 0.89221 0.90705 0.0
Co1089 Co 0.63148 0.85178 0.91349 0.0
C1090 C 0.64409 0.86702 0.87861 0.0
O1091 O 0.64399 0.88275 0.88418 0.0
O1092 O 0.63938 0.85441 0.88858 0.0
C1093 C 0.62953 0.92462 0.89275 0.0
O1094 O 0.6232 0.91398 0.88047 0.0
C1095 C 0.64136 0.81514 0.91092 0.0
C1096 C 0.62167 0.80224 0.9281 0.0
C1097 C 0.63516 0.79884 0.91625 0.0
N1098 N 0.63174 0.82748 0.91894 0.0
N1099 N 0.62013 0.8197 0.92936 0.0
C1100 C 0.65639 0.81915 0.89876 0.0
H1101 H 0.66275 0.83171 0.90269 0.0
H1102 H 0.66623 0.80856 0.89913 0.0
H1103 H 0.6514 0.82048 0.88493 0.0
C1104 C 0.65948 0.88874 0.93797 0.0
N1105 N 0.64753 0.88213 0.92643 0.0
N1106 N 0.64577 0.86522 0.92919 0.0
C1107 C 0.65641 0.86055 0.94268 0.0
C1108 C 0.66555 0.87526 0.94864 0.0
C1109 C 0.66603 0.90722 0.93754 0.0
H1110 H 0.66676 0.91184 0.92356 0.0
H1111 H 0.67916 0.90855 0.94393 0.0
H1112 H 0.65661 0.91562 0.94475 0.0
O1113 O 0.60973 0.88722 0.90814 0.0
O1114 O 0.6068 0.85902 0.91405 0.0
H1115 H 0.64431 0.83674 0.95145 0.0
H1116 H 0.66476 0.8419 0.9626 0.0
C1117 C 0.65769 0.84231 0.94965 0.0
H1118 H 0.66468 0.83411 0.93979 0.0
H1119 H 0.61068 0.82628 0.93676 0.0
O1120 O 0.6368 0.9181 0.90647 0.0
C1121 C 0.6001 0.87384 0.91096 0.0
Co1122 Co 0.8537 0.11503 0.84269 0.0
Co1123 Co 0.8949 0.11972 0.84173 0.0
C1124 C 0.8755 0.1116 0.87565 0.0
O1125 O 0.86062 0.11097 0.86779 0.0
O1126 O 0.88963 0.1147 0.8671 0.0
C1127 C 0.81818 0.10364 0.85097 0.0
O1128 O 0.82546 0.0945 0.86376 0.0
C1129 C 0.93281 0.11732 0.84968 0.0
C1130 C 0.94455 0.12846 0.82531 0.0
C1131 C 0.94872 0.12213 0.84206 0.0
N1132 N 0.9198 0.12092 0.83811 0.0
N1133 N 0.92694 0.12749 0.82353 0.0
C1134 C 0.93003 0.1089 0.8674 0.0
H1135 H 0.91916 0.09916 0.86649 0.0
H1136 H 0.9421 0.10229 0.87208 0.0
H1137 H 0.92643 0.1191 0.87721 0.0
C1138 C 0.86191 0.08788 0.81584 0.0
N1139 N 0.86678 0.10097 0.82689 0.0
N1140 N 0.88401 0.10269 0.82667 0.0
C1141 C 0.89069 0.09054 0.81564 0.0
C1142 C 0.87691 0.0808 0.80832 0.0
C1143 C 0.84321 0.08251 0.81253 0.0
H1144 H 0.83495 0.09428 0.81115 0.0
H1145 H 0.83834 0.07497 0.82414 0.0
H1146 H 0.84187 0.07439 0.80031 0.0
O1147 O 0.85748 0.13998 0.8382 0.0
O1148 O 0.88634 0.14366 0.83703 0.0
H1149 H 0.91564 0.09719 0.80449 0.0
H1150 H 0.91241 0.07407 0.80801 0.0
C1151 C 0.90994 0.08726 0.81357 0.0
H1152 H 0.91663 0.08843 0.82668 0.0
H1153 H 0.91974 0.13168 0.8125 0.0
O1154 O 0.82793 0.11198 0.84015 0.0
C1155 C 0.8709 0.14983 0.83645 0.0
Co1156 Co 0.64158 0.14797 0.58931 0.0
Co1157 Co 0.64419 0.10819 0.59822 0.0
C1158 C 0.60937 0.12568 0.59324 0.0
O1159 O 0.61658 0.14027 0.58942 0.0
O1160 O 0.61859 0.11237 0.59682 0.0
C1161 C 0.62934 0.1818 0.57957 0.0
O1162 O 0.6144 0.17353 0.57661 0.0
C1163 C 0.63659 0.07084 0.5964 0.0
C1164 C 0.65593 0.06052 0.6156 0.0
C1165 C 0.64147 0.05583 0.60531 0.0
N1166 N 0.64757 0.08385 0.60133 0.0
N1167 N 0.65937 0.07751 0.61248 0.0
C1168 C 0.62039 0.07338 0.58538 0.0
H1169 H 0.62181 0.08517 0.57692 0.0
H1170 H 0.6178 0.06187 0.57674 0.0
H1171 H 0.60896 0.07496 0.59434 0.0
C1172 C 0.66582 0.13729 0.56037 0.0
N1173 N 0.65555 0.1337 0.57449 0.0
N1174 N 0.65638 0.11691 0.57805 0.0
C1175 C 0.66708 0.10921 0.5662 0.0
C1176 C 0.67351 0.12187 0.5546 0.0
C1177 C 0.66905 0.15536 0.55347 0.0
H1178 H 0.67087 0.16454 0.5648 0.0
H1179 H 0.65736 0.15958 0.54577 0.0
H1180 H 0.68081 0.156 0.5448 0.0
O1181 O 0.64983 0.14747 0.61431 0.0
O1182 O 0.65249 0.11938 0.62051 0.0
H1183 H 0.67869 0.08647 0.57748 0.0
H1184 H 0.67732 0.08604 0.55337 0.0
C1185 C 0.67054 0.09001 0.56576 0.0
H1186 H 0.65791 0.08271 0.56666 0.0
H1187 H 0.669 0.08505 0.61891 0.0
O1188 O 0.64298 0.17301 0.58311 0.0
C1189 C 0.65357 0.13534 0.62518 0.0
Co1190 Co 0.65537 0.88967 0.34998 0.0
Co1191 Co 0.6144 0.88624 0.34444 0.0
C1192 C 0.63137 0.88658 0.38089 0.0
O1193 O 0.64674 0.8894 0.37485 0.0
O1194 O 0.6182 0.8849 0.3705 0.0
C1195 C 0.69009 0.89348 0.36449 0.0
O1196 O 0.68154 0.89609 0.37941 0.0
C1197 C 0.57748 0.89295 0.35212 0.0
C1198 C 0.56394 0.88303 0.32798 0.0
C1199 C 0.561 0.89011 0.3447 0.0
N1200 N 0.58966 0.88764 0.34044 0.0
N1201 N 0.58148 0.8818 0.32599 0.0
C1202 C 0.5816 0.90095 0.36989 0.0
H1203 H 0.5939 0.90883 0.36911 0.0
H1204 H 0.57069 0.90935 0.37444 0.0
H1205 H 0.58351 0.89042 0.3798 0.0
C1206 C 0.64982 0.92071 0.32708 0.0
N1207 N 0.64381 0.90682 0.33628 0.0
N1208 N 0.62664 0.90557 0.33426 0.0
C1209 C 0.62115 0.91876 0.32386 0.0
C1210 C 0.63565 0.92878 0.31894 0.0
C1211 C 0.66878 0.92591 0.32602 0.0
H1212 H 0.67477 0.92554 0.33952 0.0
H1213 H 0.67044 0.93916 0.32028 0.0
H1214 H 0.67578 0.91633 0.31757 0.0
O1215 O 0.65095 0.86618 0.33999 0.0
O1216 O 0.62239 0.8638 0.33443 0.0
H1217 H 0.5986 0.90895 0.3099 0.0
H1218 H 0.60094 0.93235 0.30893 0.0
C1219 C 0.60258 0.92076 0.31756 0.0
H1220 H 0.59378 0.92185 0.32925 0.0
H1221 H 0.58786 0.87657 0.31493 0.0
O1222 O 0.68147 0.89203 0.34999 0.0
C1223 C 0.63777 0.85742 0.33431 0.0
Co1224 Co 0.83815 0.85708 0.11716 0.0
Co1225 Co 0.84101 0.8977 0.11288 0.0
C1226 C 0.87243 0.87492 0.10875 0.0
O1227 O 0.86336 0.86117 0.11174 0.0
O1228 O 0.86534 0.88991 0.10845 0.0
C1229 C 0.84299 0.82079 0.10957 0.0
O1230 O 0.85352 0.82653 0.09699 0.0
C1231 C 0.85181 0.93339 0.10347 0.0
C1232 C 0.82853 0.94857 0.11121 0.0
C1233 C 0.8455 0.95021 0.10483 0.0
N1234 N 0.83924 0.92222 0.10896 0.0
N1235 N 0.82529 0.93138 0.11344 0.0
C1236 C 0.86954 0.92803 0.09713 0.0
H1237 H 0.86825 0.91641 0.08834 0.0
H1238 H 0.87617 0.9387 0.08967 0.0
H1239 H 0.87772 0.92458 0.10885 0.0
C1240 C 0.8105 0.86176 0.08966 0.0
N1241 N 0.82317 0.86804 0.10059 0.0
N1242 N 0.82462 0.88505 0.09847 0.0
C1243 C 0.81316 0.8901 0.08581 0.0
C1244 C 0.8037 0.87556 0.07994 0.0
C1245 C 0.80455 0.84307 0.08931 0.0
H1246 H 0.80413 0.83786 0.10308 0.0
H1247 H 0.81415 0.83529 0.08163 0.0
H1248 H 0.79137 0.84158 0.08308 0.0
O1249 O 0.83411 0.86573 0.14137 0.0
O1250 O 0.83678 0.89443 0.13875 0.0
H1251 H 0.80375 0.91624 0.08738 0.0
H1252 H 0.80631 0.90826 0.06495 0.0
C1253 C 0.81212 0.90825 0.07854 0.0
H1254 H 0.82542 0.91427 0.078 0.0
H1255 H 0.81376 0.92593 0.1186 0.0
O1256 O 0.83432 0.83167 0.11869 0.0
C1257 C 0.83437 0.8809 0.14827 0.0
Co1258 Co 0.13869 0.64938 0.08371 0.0
Co1259 Co 0.14128 0.60957 0.09178 0.0
C1260 C 0.10645 0.62778 0.08684 0.0
O1261 O 0.11355 0.6423 0.08259 0.0
O1262 O 0.1158 0.61465 0.09074 0.0
C1263 C 0.12783 0.68424 0.07694 0.0
O1264 O 0.11228 0.67688 0.07492 0.0
C1265 C 0.1316 0.57329 0.08692 0.0
C1266 C 0.15115 0.55951 0.10337 0.0
C1267 C 0.13604 0.55697 0.09325 0.0
N1268 N 0.14329 0.585 0.09327 0.0
N1269 N 0.15509 0.5767 0.10294 0.0
C1270 C 0.1169 0.57772 0.07447 0.0
H1271 H 0.12055 0.58926 0.0663 0.0
H1272 H 0.11367 0.56647 0.06562 0.0
H1273 H 0.10506 0.58097 0.08229 0.0
C1274 C 0.16382 0.63946 0.05523 0.0
N1275 N 0.15298 0.63549 0.06881 0.0
N1276 N 0.15377 0.61864 0.07202 0.0
C1277 C 0.16502 0.61128 0.0605 0.0
C1278 C 0.17188 0.62422 0.0495 0.0
C1279 C 0.16739 0.65773 0.04906 0.0
H1280 H 0.1698 0.66631 0.06077 0.0
H1281 H 0.15559 0.66264 0.042 0.0
H1282 H 0.17889 0.65847 0.04007 0.0
O1283 O 0.14583 0.64753 0.10904 0.0
O1284 O 0.15017 0.61946 0.11443 0.0
H1285 H 0.17638 0.58855 0.0721 0.0
H1286 H 0.17646 0.5885 0.04796 0.0
C1287 C 0.16887 0.59215 0.05997 0.0
H1288 H 0.15636 0.5846 0.05994 0.0
H1289 H 0.16543 0.58284 0.10976 0.0
O1290 O 0.1412 0.67459 0.07874 0.0
C1291 C 0.15021 0.63531 0.11956 0.0
Co1292 Co 0.15578 0.39589 0.85349 0.0
Co1293 Co 0.11537 0.39001 0.84603 0.0
C1294 C 0.12979 0.39539 0.88306 0.0
O1295 O 0.14537 0.39827 0.87759 0.0
O1296 O 0.11732 0.39191 0.87223 0.0
C1297 C 0.18855 0.39145 0.86858 0.0
O1298 O 0.17816 0.38337 0.87989 0.0
C1299 C 0.07713 0.39381 0.84933 0.0
C1300 C 0.06758 0.37834 0.82627 0.0
C1301 C 0.06198 0.38732 0.84122 0.0
N1302 N 0.09104 0.38883 0.83963 0.0
N1303 N 0.08521 0.37986 0.8257 0.0
C1304 C 0.07864 0.40258 0.86714 0.0
H1305 H 0.09001 0.41177 0.86724 0.0
H1306 H 0.06655 0.40974 0.87057 0.0
H1307 H 0.08083 0.39251 0.87748 0.0
C1308 C 0.15031 0.42371 0.82628 0.0
N1309 N 0.14444 0.41068 0.83681 0.0
N1310 N 0.12741 0.40855 0.83426 0.0
C1311 C 0.12183 0.42036 0.82231 0.0
C1312 C 0.13617 0.43031 0.81668 0.0
C1313 C 0.16925 0.42895 0.82479 0.0
H1314 H 0.1777 0.41733 0.82626 0.0
H1315 H 0.17257 0.43825 0.83568 0.0
H1316 H 0.17198 0.4353 0.8118 0.0
O1317 O 0.15331 0.37121 0.84632 0.0
O1318 O 0.12521 0.3671 0.83954 0.0
H1319 H 0.09894 0.41186 0.808 0.0
H1320 H 0.10069 0.43532 0.8106 0.0
C1321 C 0.10295 0.42258 0.81717 0.0
H1322 H 0.09461 0.42181 0.82922 0.0
H1323 H 0.09334 0.37398 0.81631 0.0
O1324 O 0.18168 0.39942 0.85545 0.0
C1325 C 0.14077 0.36137 0.84102 0.0
Co1326 Co 0.34105 0.35253 0.59985 0.0
Co1327 Co 0.33453 0.39146 0.61065 0.0
C1328 C 0.37078 0.37775 0.60328 0.0
O1329 O 0.36512 0.36255 0.59924 0.0
O1330 O 0.3603 0.38976 0.60788 0.0
C1331 C 0.35582 0.31979 0.59002 0.0
O1332 O 0.37035 0.32908 0.58857 0.0
C1333 C 0.33852 0.4285 0.60515 0.0
C1334 C 0.32189 0.43997 0.62609 0.0
C1335 C 0.33393 0.44425 0.61293 0.0
N1336 N 0.32992 0.41557 0.61353 0.0
N1337 N 0.31981 0.42248 0.62591 0.0
C1338 C 0.35052 0.42557 0.5897 0.0
H1339 H 0.3641 0.42366 0.59467 0.0
H1340 H 0.34646 0.41358 0.58232 0.0
H1341 H 0.35045 0.43697 0.58059 0.0
C1342 C 0.31449 0.36125 0.57253 0.0
N1343 N 0.32523 0.36569 0.58611 0.0
N1344 N 0.32233 0.382 0.59073 0.0
C1345 C 0.30959 0.38848 0.58024 0.0
C1346 C 0.30422 0.37555 0.56833 0.0
C1347 C 0.31384 0.3435 0.56415 0.0
H1348 H 0.32739 0.33867 0.56222 0.0
H1349 H 0.30684 0.3437 0.55114 0.0
H1350 H 0.30694 0.33434 0.57325 0.0
O1351 O 0.33347 0.35195 0.62493 0.0
O1352 O 0.32806 0.37928 0.63289 0.0
H1353 H 0.29888 0.40811 0.59731 0.0
H1354 H 0.28903 0.40735 0.57539 0.0
C1355 C 0.3015 0.40603 0.58294 0.0
H1356 H 0.31089 0.4163 0.57852 0.0
H1357 H 0.31206 0.41522 0.63468 0.0
O1358 O 0.34144 0.32756 0.59297 0.0
C1359 C 0.32869 0.36307 0.63652 0.0
Co1360 Co 0.10886 0.60227 0.65002 0.0
Co1361 Co 0.14908 0.59631 0.64423 0.0
C1362 C 0.13388 0.63177 0.65282 0.0
O1363 O 0.11826 0.62609 0.65494 0.0
O1364 O 0.14621 0.62155 0.64847 0.0
C1365 C 0.07469 0.61519 0.65876 0.0
O1366 O 0.08355 0.62896 0.6644 0.0
C1367 C 0.18549 0.60211 0.65365 0.0
C1368 C 0.19965 0.58563 0.6344 0.0
C1369 C 0.20215 0.59827 0.64748 0.0
N1370 N 0.1737 0.59254 0.6444 0.0
N1371 N 0.18222 0.58251 0.63306 0.0
C1372 C 0.18069 0.61449 0.66828 0.0
H1373 H 0.16845 0.60996 0.6749 0.0
H1374 H 0.19149 0.61561 0.67823 0.0
H1375 H 0.17827 0.62759 0.66259 0.0
C1376 C 0.11471 0.57464 0.67719 0.0
N1377 N 0.12039 0.58528 0.66411 0.0
N1378 N 0.13732 0.58287 0.6617 0.0
C1379 C 0.14297 0.57064 0.67316 0.0
C1380 C 0.12886 0.56502 0.6834 0.0
C1381 C 0.09627 0.57434 0.684 0.0
H1382 H 0.09156 0.58792 0.68562 0.0
H1383 H 0.0953 0.56738 0.69692 0.0
H1384 H 0.08764 0.56771 0.67406 0.0
O1385 O 0.11199 0.59781 0.62411 0.0
O1386 O 0.14005 0.59149 0.62005 0.0
H1387 H 0.16597 0.56136 0.65997 0.0
H1388 H 0.16244 0.55192 0.68171 0.0
C1389 C 0.16141 0.56403 0.67372 0.0
H1390 H 0.17014 0.57424 0.67959 0.0
H1391 H 0.17613 0.57419 0.62384 0.0
O1392 O 0.08303 0.60189 0.65337 0.0
C1393 C 0.1246 0.5936 0.61392 0.0
Co1394 Co 0.4092 0.40286 0.14392 0.0
Co1395 Co 0.36916 0.41 0.13766 0.0
C1396 C 0.38349 0.37354 0.14031 0.0
O1397 O 0.39895 0.37899 0.14398 0.0
O1398 O 0.37103 0.38413 0.13741 0.0
C1399 C 0.44259 0.38721 0.15008 0.0
O1400 O 0.43315 0.37289 0.15202 0.0
C1401 C 0.33115 0.4057 0.14118 0.0
C1402 C 0.32124 0.43075 0.13084 0.0
C1403 C 0.3159 0.41468 0.13741 0.0
N1404 N 0.34495 0.41593 0.13697 0.0
N1405 N 0.33895 0.4309 0.13082 0.0
C1406 C 0.33261 0.38784 0.14905 0.0
H1407 H 0.3439 0.38747 0.15845 0.0
H1408 H 0.32039 0.38405 0.15615 0.0
H1409 H 0.33495 0.37826 0.13822 0.0
C1410 C 0.40333 0.42716 0.17408 0.0
N1411 N 0.39756 0.41767 0.16006 0.0
N1412 N 0.38063 0.42031 0.15778 0.0
C1413 C 0.37504 0.43142 0.17047 0.0
C1414 C 0.38925 0.43616 0.18119 0.0
C1415 C 0.42204 0.42771 0.18026 0.0
H1416 H 0.43012 0.43472 0.17023 0.0
H1417 H 0.42709 0.41421 0.18129 0.0
H1418 H 0.42341 0.43439 0.19335 0.0
O1419 O 0.40741 0.41155 0.11926 0.0
O1420 O 0.37944 0.41814 0.11502 0.0
H1421 H 0.35447 0.44668 0.15932 0.0
H1422 H 0.35472 0.44667 0.18328 0.0
C1423 C 0.35681 0.43852 0.17126 0.0
H1424 H 0.34714 0.42758 0.17113 0.0
H1425 H 0.34695 0.44111 0.1263 0.0
O1426 O 0.43484 0.40172 0.14823 0.0
C1427 C 0.39514 0.4172 0.10935 0.0
Co1428 Co 0.65125 0.40162 0.10485 0.0
Co1429 Co 0.65296 0.36045 0.10375 0.0
C1430 C 0.65369 0.37976 0.13828 0.0
O1431 O 0.65272 0.39438 0.13029 0.0
O1432 O 0.65446 0.36548 0.12959 0.0
C1433 C 0.65425 0.43699 0.11743 0.0
O1434 O 0.65891 0.42946 0.13239 0.0
C1435 C 0.65698 0.32294 0.11132 0.0
C1436 C 0.65324 0.31125 0.08461 0.0
C1437 C 0.65584 0.30713 0.10236 0.0
N1438 N 0.65512 0.33591 0.09943 0.0
N1439 N 0.65286 0.3288 0.08349 0.0
C1440 C 0.65972 0.32569 0.13087 0.0
H1441 H 0.66984 0.33602 0.13306 0.0
H1442 H 0.664 0.31354 0.13755 0.0
H1443 H 0.64721 0.33006 0.13687 0.0
C1444 C 0.68066 0.3976 0.07925 0.0
N1445 N 0.66868 0.39092 0.0906 0.0
N1446 N 0.66981 0.37376 0.09062 0.0
C1447 C 0.6829 0.36904 0.07962 0.0
C1448 C 0.69005 0.38392 0.07183 0.0
C1449 C 0.68202 0.41658 0.07472 0.0
H1450 H 0.66867 0.42211 0.07332 0.0
H1451 H 0.6888 0.4236 0.08578 0.0
H1452 H 0.68943 0.41872 0.0622 0.0
O1453 O 0.62756 0.39487 0.09669 0.0
O1454 O 0.62856 0.36597 0.09657 0.0
H1455 H 0.68129 0.34427 0.06648 0.0
H1456 H 0.70315 0.35055 0.07325 0.0
C1457 C 0.6891 0.3507 0.07719 0.0
H1458 H 0.68747 0.34323 0.08972 0.0
H1459 H 0.65052 0.33592 0.0719 0.0
O1460 O 0.65173 0.42761 0.10361 0.0
C1461 C 0.62013 0.38008 0.09445 0.0
Co1462 Co 0.86702 0.6594 0.59224 0.0
Co1463 Co 0.86345 0.61829 0.59134 0.0
C1464 C 0.89858 0.63639 0.59428 0.0
O1465 O 0.89168 0.65146 0.59392 0.0
O1466 O 0.8892 0.62255 0.59309 0.0
C1467 C 0.88051 0.69449 0.58919 0.0
O1468 O 0.89564 0.68667 0.58707 0.0
C1469 C 0.87046 0.58094 0.58559 0.0
C1470 C 0.8446 0.5689 0.59123 0.0
C1471 C 0.86184 0.565 0.58718 0.0
N1472 N 0.8589 0.59376 0.58868 0.0
N1473 N 0.84344 0.58644 0.59197 0.0
C1474 C 0.88943 0.58391 0.58142 0.0
H1475 H 0.89098 0.59554 0.57276 0.0
H1476 H 0.89511 0.57237 0.57466 0.0
H1477 H 0.89669 0.58628 0.59406 0.0
C1478 C 0.84617 0.65546 0.5591 0.0
N1479 N 0.85492 0.64862 0.57299 0.0
N1480 N 0.85338 0.63148 0.57248 0.0
C1481 C 0.84364 0.62686 0.55814 0.0
C1482 C 0.83867 0.64193 0.5492 0.0
C1483 C 0.84503 0.67464 0.55553 0.0
H1484 H 0.85833 0.68064 0.55649 0.0
H1485 H 0.83942 0.67728 0.54214 0.0
H1486 H 0.8367 0.68078 0.56586 0.0
O1487 O 0.85576 0.65373 0.61512 0.0
O1488 O 0.8534 0.62486 0.61467 0.0
H1489 H 0.83116 0.60719 0.54114 0.0
H1490 H 0.84933 0.59973 0.55459 0.0
C1491 C 0.83782 0.60849 0.55422 0.0
H1492 H 0.82846 0.60422 0.56464 0.0
H1493 H 0.83221 0.5934 0.59536 0.0
O1494 O 0.86659 0.68529 0.59072 0.0
C1495 C 0.85133 0.63944 0.62253 0.0
Co1496 Co 0.64278 0.38364 0.65515 0.0
Co1497 Co 0.602 0.38096 0.66055 0.0
C1498 C 0.61803 0.39012 0.6252 0.0
O1499 O 0.63364 0.39038 0.63137 0.0
O1500 O 0.60496 0.38657 0.63511 0.0
C1501 C 0.67529 0.37737 0.64138 0.0
O1502 O 0.66465 0.36961 0.62993 0.0
C1503 C 0.56506 0.38966 0.65631 0.0
C1504 C 0.55228 0.373 0.67655 0.0
C1505 C 0.54874 0.38433 0.66263 0.0
N1506 N 0.57757 0.38157 0.66577 0.0
N1507 N 0.56988 0.37179 0.678 0.0
C1508 C 0.56889 0.40274 0.64202 0.0
H1509 H 0.58139 0.40979 0.64502 0.0
H1510 H 0.55809 0.4123 0.64085 0.0
H1511 H 0.57037 0.39587 0.62909 0.0
C1512 C 0.63918 0.40891 0.68501 0.0
N1513 N 0.63246 0.39711 0.67345 0.0
N1514 N 0.61529 0.3963 0.67537 0.0
C1515 C 0.61047 0.40776 0.68804 0.0
C1516 C 0.62546 0.4161 0.69468 0.0
C1517 C 0.65839 0.41297 0.68679 0.0
H1518 H 0.66604 0.40077 0.68569 0.0
H1519 H 0.66244 0.42172 0.67575 0.0
H1520 H 0.66144 0.41944 0.69971 0.0
O1521 O 0.6378 0.35845 0.6581 0.0
O1522 O 0.60919 0.35644 0.6631 0.0
H1523 H 0.58593 0.40066 0.69989 0.0
H1524 H 0.59045 0.42392 0.70018 0.0
C1525 C 0.59172 0.41173 0.69232 0.0
H1526 H 0.58412 0.41317 0.6798 0.0
H1527 H 0.57661 0.36379 0.68689 0.0
O1528 O 0.6687 0.38559 0.65445 0.0
C1529 C 0.62407 0.34932 0.66105 0.0
Co1530 Co 0.35511 0.59162 0.89556 0.0
Co1531 Co 0.35492 0.63282 0.89756 0.0
C1532 C 0.35437 0.61377 0.8626 0.0
O1533 O 0.35431 0.59894 0.87025 0.0
O1534 O 0.35429 0.62791 0.87159 0.0
C1535 C 0.35132 0.55635 0.88296 0.0
O1536 O 0.34665 0.56397 0.86805 0.0
C1537 C 0.34863 0.67005 0.89029 0.0
C1538 C 0.36063 0.68231 0.91417 0.0
C1539 C 0.35326 0.68609 0.89774 0.0
N1540 N 0.35315 0.6574 0.90178 0.0
N1541 N 0.36 0.66486 0.91617 0.0
C1542 C 0.34274 0.66661 0.87156 0.0
H1543 H 0.35453 0.66495 0.86312 0.0
H1544 H 0.33462 0.65451 0.87096 0.0
H1545 H 0.33505 0.67757 0.86612 0.0
C1546 C 0.3238 0.59638 0.91856 0.0
N1547 N 0.33743 0.60273 0.9091 0.0
N1548 N 0.33726 0.61992 0.90974 0.0
C1549 C 0.32343 0.62507 0.9195 0.0
C1550 C 0.31442 0.61033 0.92543 0.0
C1551 C 0.31956 0.57734 0.92027 0.0
H1552 H 0.31999 0.57107 0.90693 0.0
H1553 H 0.30642 0.57513 0.92626 0.0
H1554 H 0.32972 0.57111 0.92871 0.0
O1555 O 0.37888 0.59776 0.90418 0.0
O1556 O 0.37878 0.62665 0.90561 0.0
H1557 H 0.33083 0.64965 0.93091 0.0
H1558 H 0.30761 0.64515 0.93197 0.0
C1559 C 0.3195 0.64376 0.92364 0.0
H1560 H 0.31778 0.65107 0.91102 0.0
H1561 H 0.36525 0.65796 0.92688 0.0
O1562 O 0.35407 0.56567 0.89678 0.0
C1563 C 0.38673 0.61222 0.90725 0.0
Co1564 Co 0.12458 0.39312 0.40873 0.0
Co1565 Co 0.12849 0.35237 0.41165 0.0
C1566 C 0.13998 0.37163 0.37913 0.0
O1567 O 0.13516 0.38622 0.38562 0.0
O1568 O 0.13851 0.3575 0.38796 0.0
C1569 C 0.13321 0.42948 0.40216 0.0
O1570 O 0.14738 0.42355 0.39436 0.0
C1571 C 0.13541 0.31496 0.40667 0.0
C1572 C 0.12481 0.30388 0.43162 0.0
C1573 C 0.13201 0.29934 0.41536 0.0
N1574 N 0.13065 0.32817 0.41739 0.0
N1575 N 0.12447 0.32145 0.43235 0.0
C1576 C 0.14072 0.31732 0.38765 0.0
H1577 H 0.13068 0.32517 0.38063 0.0
H1578 H 0.15338 0.32463 0.38726 0.0
H1579 H 0.14217 0.30471 0.38054 0.0
C1580 C 0.14699 0.39171 0.44106 0.0
N1581 N 0.13737 0.38392 0.42814 0.0
N1582 N 0.1394 0.36689 0.4291 0.0
C1583 C 0.15075 0.36333 0.44237 0.0
C1584 C 0.1558 0.37892 0.45053 0.0
C1585 C 0.14795 0.41105 0.44393 0.0
H1586 H 0.13469 0.41672 0.44235 0.0
H1587 H 0.15666 0.41694 0.43371 0.0
H1588 H 0.15317 0.41431 0.45738 0.0
O1589 O 0.10019 0.38475 0.40871 0.0
O1590 O 0.10283 0.35604 0.41006 0.0
H1591 H 0.14992 0.33816 0.45458 0.0
H1592 H 0.17181 0.34678 0.45158 0.0
C1593 C 0.15854 0.3457 0.44546 0.0
H1594 H 0.15962 0.33849 0.4327 0.0
H1595 H 0.11919 0.32884 0.44269 0.0
O1596 O 0.12268 0.41883 0.4096 0.0
C1597 C 0.09335 0.36955 0.40891 0.0
Co1598 Co 0.3564 0.61312 0.34147 0.0
Co1599 Co 0.39713 0.61861 0.33677 0.0
C1600 C 0.38038 0.61196 0.3726 0.0
O1601 O 0.36494 0.60975 0.36628 0.0
O1602 O 0.39336 0.61545 0.36254 0.0
C1603 C 0.32124 0.60294 0.35261 0.0
O1604 O 0.32901 0.59546 0.36621 0.0
C1605 C 0.43474 0.61406 0.3434 0.0
C1606 C 0.44664 0.62861 0.32106 0.0
C1607 C 0.45073 0.61985 0.33666 0.0
N1608 N 0.42183 0.61946 0.33252 0.0
N1609 N 0.42905 0.62799 0.31907 0.0
C1610 C 0.43171 0.60295 0.35948 0.0
H1611 H 0.42002 0.59437 0.35739 0.0
H1612 H 0.44335 0.5948 0.36236 0.0
H1613 H 0.42923 0.61147 0.37115 0.0
C1614 C 0.36313 0.58539 0.3145 0.0
N1615 N 0.36853 0.59866 0.32509 0.0
N1616 N 0.38563 0.60078 0.3234 0.0
C1617 C 0.39172 0.58879 0.31188 0.0
C1618 C 0.37765 0.57867 0.30574 0.0
C1619 C 0.34432 0.57977 0.31252 0.0
H1620 H 0.33584 0.59142 0.31159 0.0
H1621 H 0.34033 0.57231 0.32452 0.0
H1622 H 0.34227 0.57151 0.3005 0.0
O1623 O 0.35973 0.63814 0.33601 0.0
O1624 O 0.38816 0.64201 0.33103 0.0
H1625 H 0.41554 0.59717 0.29941 0.0
H1626 H 0.41329 0.57369 0.30125 0.0
C1627 C 0.41082 0.58633 0.30798 0.0
H1628 H 0.41845 0.58675 0.3206 0.0
H1629 H 0.42191 0.63391 0.30888 0.0
O1630 O 0.33055 0.60986 0.34045 0.0
C1631 C 0.37269 0.64802 0.33212 0.0
C1632 C 0.1041 0.36357 0.04028 0.0
C1633 C 0.11614 0.3517 0.04755 0.0
C1634 C 0.10521 0.36849 0.02245 0.0
C1635 C 0.11959 0.35531 0.97873 0.0
H1636 H 0.12378 0.40495 0.96883 0.0
C1637 C 0.11201 0.38382 0.90835 0.0
C1638 C 0.12663 0.39353 0.90239 0.0
C1639 C 0.11035 0.37946 0.9263 0.0
C1640 C 0.12262 0.39108 0.97146 0.0
H1641 H 0.13829 0.33512 0.04162 0.0
H1642 H 0.13984 0.34337 0.0101 0.0
H1643 H 0.12158 0.39486 -0.00024 0.0
H1644 H 0.15047 0.40708 0.91075 0.0
H1645 H 0.14721 0.39987 0.94237 0.0
H1646 H 0.12025 0.35154 0.95043 0.0
C1647 C 0.12975 0.34899 0.01841 0.0
C1648 C 0.1213 0.38532 0.98906 0.0
C1649 C 0.12885 0.34429 0.03639 0.0
C1650 C 0.13906 0.3996 0.91494 0.0
C1651 C 0.13722 0.39548 0.93299 0.0
C1652 C 0.12055 0.36109 0.96112 0.0
C1653 C 0.11816 0.36141 0.01143 0.0
C1654 C 0.11978 0.3674 0.99282 0.0
C1655 C 0.1231 0.38498 0.9387 0.0
C1656 C 0.12208 0.37901 0.95736 0.0
H1657 H 0.09416 0.36957 0.04851 0.0
H1658 H 0.09603 0.37796 0.01728 0.0
H1659 H 0.11838 0.34144 0.98135 0.0
H1660 H 0.10225 0.37881 0.89905 0.0
H1661 H 0.09928 0.37147 0.93047 0.0
C1662 C 0.89103 0.84609 0.29221 0.0
C1663 C 0.90191 0.85853 0.30075 0.0
C1664 C 0.88261 0.8501 0.27621 0.0
C1665 C 0.88259 0.88081 0.23836 0.0
H1666 H 0.83373 0.86621 0.23426 0.0
C1667 C 0.84284 0.89723 0.17597 0.0
C1668 C 0.83529 0.88233 0.1679 0.0
C1669 C 0.84837 0.89672 0.19375 0.0
C1670 C 0.84734 0.8704 0.23524 0.0
H1671 H 0.91328 0.88456 0.29862 0.0
H1672 H 0.89855 0.89154 0.2707 0.0
H1673 H 0.85022 0.85961 0.26133 0.0
H1674 H 0.82574 0.85596 0.17267 0.0
H1675 H 0.83529 0.85511 0.20359 0.0
H1676 H 0.87981 0.89133 0.21216 0.0
C1677 C 0.89654 0.87869 0.27638 0.0
C1678 C 0.85683 0.86652 0.25067 0.0
C1679 C 0.905 0.87467 0.29238 0.0
C1680 C 0.83168 0.8676 0.17845 0.0
C1681 C 0.8371 0.86713 0.19622 0.0
C1682 C 0.87309 0.88472 0.22295 0.0
C1683 C 0.88487 0.86663 0.26838 0.0
C1684 C 0.87465 0.87141 0.25227 0.0
C1685 C 0.84627 0.88138 0.20378 0.0
C1686 C 0.85545 0.87931 0.22111 0.0
H1687 H 0.88847 0.83348 0.29824 0.0
H1688 H 0.87404 0.84036 0.27013 0.0
H1689 H 0.89631 0.88465 0.23913 0.0
H1690 H 0.84574 0.90883 0.16823 0.0
H1691 H 0.8551 0.90801 0.19936 0.0
C1692 C 0.40297 0.66512 0.52327 0.0
C1693 C 0.39666 0.6549 0.53735 0.0
C1694 C 0.40146 0.65912 0.50572 0.0
C1695 C 0.39175 0.61889 0.47888 0.0
H1696 H 0.38445 0.65274 0.44131 0.0
C1697 C 0.3701 0.60697 0.40401 0.0
C1698 C 0.38306 0.61295 0.39211 0.0
C1699 C 0.37183 0.61024 0.42232 0.0
C1700 C 0.38644 0.64319 0.45174 0.0
H1701 H 0.38318 0.63085 0.54432 0.0
H1702 H 0.37987 0.62062 0.51375 0.0
H1703 H 0.38696 0.66269 0.4721 0.0
H1704 H 0.40815 0.62666 0.39017 0.0
H1705 H 0.41087 0.63253 0.42194 0.0
H1706 H 0.39058 0.5994 0.45821 0.0
C1707 C 0.38671 0.63289 0.51613 0.0
C1708 C 0.38808 0.64885 0.46935 0.0
C1709 C 0.38855 0.63875 0.53366 0.0
C1710 C 0.39801 0.62168 0.39893 0.0
C1711 C 0.39957 0.62516 0.41709 0.0
C1712 C 0.38975 0.61321 0.46124 0.0
C1713 C 0.39316 0.64297 0.50189 0.0
C1714 C 0.39099 0.63682 0.48316 0.0
C1715 C 0.38637 0.61976 0.42884 0.0
C1716 C 0.38729 0.62536 0.44759 0.0
H1717 H 0.40925 0.67765 0.52588 0.0
H1718 H 0.4069 0.66712 0.49519 0.0
H1719 H 0.39423 0.60923 0.48906 0.0
H1720 H 0.35843 0.60024 0.39914 0.0
H1721 H 0.3615 0.60603 0.43126 0.0
C1722 C 0.65727 0.12642 0.65703 0.0
C1723 C 0.65626 0.13976 0.64424 0.0
C1724 C 0.65559 0.13028 0.67514 0.0
C1725 C 0.63348 0.16242 0.70295 0.0
H1726 H 0.65366 0.13549 0.74146 0.0
C1727 C 0.59808 0.15072 0.76948 0.0
C1728 C 0.6081 0.14976 0.78519 0.0
C1729 C 0.60629 0.15278 0.75299 0.0
C1730 C 0.64807 0.14336 0.73093 0.0
H1731 H 0.6545 0.16782 0.64061 0.0
H1732 H 0.65182 0.17452 0.67224 0.0
H1733 H 0.66596 0.13325 0.71162 0.0
H1734 H 0.63469 0.14983 0.7958 0.0
H1735 H 0.64893 0.15401 0.7672 0.0
H1736 H 0.61543 0.17233 0.7222 0.0
C1737 C 0.65347 0.16104 0.66821 0.0
C1738 C 0.65503 0.14193 0.71379 0.0
C1739 C 0.65513 0.15719 0.65008 0.0
C1740 C 0.6265 0.15117 0.78409 0.0
C1741 C 0.63471 0.15324 0.76762 0.0
C1742 C 0.62653 0.16384 0.72009 0.0
C1743 C 0.65293 0.14755 0.68086 0.0
C1744 C 0.64753 0.15111 0.69952 0.0
C1745 C 0.62473 0.15377 0.75184 0.0
C1746 C 0.63346 0.154 0.73418 0.0
H1747 H 0.65822 0.11286 0.65303 0.0
H1748 H 0.65516 0.11955 0.68451 0.0
H1749 H 0.62725 0.16954 0.69224 0.0
H1750 H 0.58389 0.14948 0.76991 0.0
H1751 H 0.59821 0.15286 0.74107 0.0
C1752 C 0.13424 0.62553 0.45605 0.0
C1753 C 0.1201 0.6344 0.44827 0.0
C1754 C 0.13363 0.62043 0.47386 0.0
C1755 C 0.11067 0.62789 0.51653 0.0
H1756 H 0.12946 0.58234 0.52801 0.0
C1757 C 0.10574 0.59952 0.58721 0.0
C1758 C 0.12176 0.59367 0.59437 0.0
C1759 C 0.10408 0.60276 0.56898 0.0
C1760 C 0.12421 0.5951 0.52501 0.0
H1761 H 0.09441 0.64536 0.4532 0.0
H1762 H 0.09323 0.63625 0.48436 0.0
H1763 H 0.12963 0.59241 0.49721 0.0
H1764 H 0.14816 0.58548 0.58774 0.0
H1765 H 0.14517 0.59102 0.55591 0.0
H1766 H 0.10528 0.63054 0.54437 0.0
C1767 C 0.10489 0.63339 0.47671 0.0
C1768 C 0.12437 0.60093 0.50739 0.0
C1769 C 0.10555 0.63861 0.45886 0.0
C1770 C 0.13566 0.59002 0.5827 0.0
C1771 C 0.13394 0.59316 0.56444 0.0
C1772 C 0.11041 0.62201 0.53414 0.0
C1773 C 0.1188 0.62395 0.48432 0.0
C1774 C 0.11784 0.6175 0.50297 0.0
C1775 C 0.11832 0.60008 0.55749 0.0
C1776 C 0.11736 0.60564 0.53859 0.0
H1777 H 0.14571 0.62222 0.44829 0.0
H1778 H 0.14477 0.6136 0.4794 0.0
H1779 H 0.1057 0.64078 0.51364 0.0
H1780 H 0.09472 0.6024 0.59578 0.0
H1781 H 0.09179 0.60781 0.56393 0.0
C1782 C 0.65464 0.87635 0.84845 0.0
C1783 C 0.64734 0.86347 0.85955 0.0
C1784 C 0.65485 0.87397 0.82997 0.0
C1785 C 0.64449 0.84121 0.79385 0.0
H1786 H 0.63091 0.88266 0.76784 0.0
C1787 C 0.60361 0.84197 0.72862 0.0
C1788 C 0.61059 0.85194 0.71464 0.0
C1789 C 0.61165 0.84232 0.7454 0.0
C1790 C 0.63491 0.87103 0.77491 0.0
H1791 H 0.63541 0.83759 0.86004 0.0
H1792 H 0.63507 0.83376 0.82809 0.0
H1793 H 0.63955 0.88523 0.79897 0.0
H1794 H 0.63103 0.8704 0.70714 0.0
H1795 H 0.64481 0.87137 0.73669 0.0
H1796 H 0.63848 0.82697 0.76986 0.0
C1797 C 0.64112 0.84552 0.83346 0.0
C1798 C 0.64002 0.87247 0.79274 0.0
C1799 C 0.64121 0.84777 0.85189 0.0
C1800 C 0.62563 0.86234 0.71766 0.0
C1801 C 0.63344 0.86298 0.73452 0.0
C1802 C 0.63899 0.83974 0.77611 0.0
C1803 C 0.64744 0.85881 0.82219 0.0
C1804 C 0.64454 0.85753 0.80258 0.0
C1805 C 0.62649 0.853 0.74851 0.0
C1806 C 0.63391 0.85461 0.76663 0.0
H1807 H 0.65964 0.88852 0.85399 0.0
H1808 H 0.66027 0.8843 0.82177 0.0
H1809 H 0.64826 0.82947 0.80082 0.0
H1810 H 0.59195 0.83396 0.72656 0.0
H1811 H 0.60596 0.83469 0.7561 0.0
C1812 C 0.41182 0.36525 0.95892 0.0
C1813 C 0.39617 0.3674 0.94922 0.0
C1814 C 0.41397 0.37319 0.97562 0.0
C1815 C 0.39564 0.40872 0.00359 0.0
H1816 H 0.41794 0.38384 0.04231 0.0
C1817 C 0.38464 0.42244 0.07817 0.0
C1818 C 0.39859 0.41944 0.09009 0.0
C1819 C 0.38689 0.41983 0.05989 0.0
C1820 C 0.412 0.39112 0.03155 0.0
H1821 H 0.37025 0.37892 0.94965 0.0
H1822 H 0.37375 0.39221 0.9789 0.0
H1823 H 0.41652 0.37056 0.01284 0.0
H1824 H 0.42637 0.41337 0.09195 0.0
H1825 H 0.4302 0.40886 0.06007 0.0
H1826 H 0.39047 0.42896 0.02261 0.0
C1827 C 0.38461 0.38492 0.97345 0.0
C1828 C 0.41116 0.38349 0.01465 0.0
C1829 C 0.38253 0.37713 0.95675 0.0
C1830 C 0.41526 0.41556 0.08318 0.0
C1831 C 0.41747 0.41287 0.06493 0.0
C1832 C 0.39637 0.4163 0.02054 0.0
C1833 C 0.40045 0.38331 0.98296 0.0
C1834 C 0.40267 0.39204 0.00055 0.0
C1835 C 0.4031 0.41417 0.05323 0.0
C1836 C 0.40431 0.40744 0.03475 0.0
H1837 H 0.42262 0.35793 0.95338 0.0
H1838 H 0.42638 0.37175 0.98256 0.0
H1839 H 0.38936 0.41585 0.99292 0.0
H1840 H 0.37166 0.42556 0.08302 0.0
H1841 H 0.37556 0.42094 0.05118 0.0
C1842 C 0.91275 0.11496 0.21006 0.0
C1843 C 0.91199 0.13166 0.20237 0.0
C1844 C 0.90702 0.11225 0.22751 0.0
C1845 C 0.89451 0.13509 0.26927 0.0
H1846 H 0.86429 0.0945 0.27591 0.0
C1847 C 0.85142 0.12814 0.33122 0.0
C1848 C 0.85263 0.11219 0.34031 0.0
C1849 C 0.858 0.12986 0.31398 0.0
C1850 C 0.87279 0.10581 0.27428 0.0
H1851 H 0.90572 0.15882 0.2074 0.0
H1852 H 0.89559 0.15407 0.23767 0.0
H1853 H 0.87905 0.09887 0.24744 0.0
H1854 H 0.86044 0.08509 0.33782 0.0
H1855 H 0.87178 0.08809 0.30762 0.0
H1856 H 0.88802 0.14216 0.29602 0.0
C1857 C 0.90068 0.14306 0.2303 0.0
C1858 C 0.88135 0.10828 0.25802 0.0
C1859 C 0.90646 0.14577 0.21289 0.0
C1860 C 0.85931 0.0976 0.33123 0.0
C1861 C 0.86585 0.09931 0.31393 0.0
C1862 C 0.88589 0.13267 0.28547 0.0
C1863 C 0.90041 0.12618 0.23764 0.0
C1864 C 0.89223 0.12301 0.25529 0.0
C1865 C 0.86582 0.11562 0.3054 0.0
C1866 C 0.87484 0.11808 0.2881 0.0
H1867 H 0.91707 0.10382 0.20237 0.0
H1868 H 0.90736 0.09916 0.23292 0.0
H1869 H 0.90301 0.14642 0.26771 0.0
H1870 H 0.84596 0.13949 0.33763 0.0
H1871 H 0.85738 0.14249 0.30754 0.0
C1872 C 0.91045 0.12577 0.4045 0.0
C1873 C 0.90067 0.1102 0.40638 0.0
C1874 C 0.92843 0.12525 0.4008 0.0
C1875 C 0.95851 0.09634 0.37766 0.0
H1876 H 0.99432 0.12964 0.39278 0.0
C1877 C 0.03082 0.09313 0.35431 0.0
C1878 C 0.03988 0.10903 0.35187 0.0
C1879 C 0.01375 0.09295 0.36112 0.0
C1880 C 0.98439 0.12038 0.38825 0.0
H1881 H 0.90255 0.08196 0.40802 0.0
H1882 H 0.9339 0.08112 0.40179 0.0
H1883 H 0.96559 0.12972 0.40712 0.0
H1884 H 0.03769 0.13722 0.35333 0.0
H1885 H 0.00776 0.13692 0.36467 0.0
H1886 H 0.97709 0.08723 0.35855 0.0
C1887 C 0.92756 0.09369 0.40267 0.0
C1888 C 0.96799 0.12037 0.39657 0.0
C1889 C 0.90961 0.09421 0.40639 0.0
C1890 C 0.03111 0.12475 0.35522 0.0
C1891 C 0.01403 0.12457 0.36192 0.0
C1892 C 0.97486 0.09641 0.3693 0.0
C1893 C 0.93694 0.10915 0.39898 0.0
C1894 C 0.95485 0.10839 0.3913 0.0
C1895 C 0.00536 0.10867 0.36549 0.0
C1896 C 0.98796 0.10851 0.3744 0.0
H1897 H 0.90402 0.13833 0.40449 0.0
H1898 H 0.93532 0.13739 0.39807 0.0
H1899 H 0.94852 0.08718 0.37304 0.0
H1900 H 0.03725 0.08079 0.35194 0.0
H1901 H 0.00747 0.08047 0.36375 0.0
C1902 C 0.14387 0.78935 0.62681 0.0
C1903 C 0.15468 0.7921 0.61193 0.0
C1904 C 0.14239 0.77278 0.63439 0.0
C1905 C 0.16425 0.73126 0.63989 0.0
H1906 H 0.11752 0.71062 0.64146 0.0
C1907 C 0.15319 0.65738 0.64593 0.0
C1908 C 0.1376 0.65077 0.65345 0.0
C1909 C 0.1559 0.67532 0.64417 0.0
C1910 C 0.13063 0.71625 0.64159 0.0
H1911 H 0.1724 0.77993 0.59328 0.0
H1912 H 0.17019 0.75087 0.60692 0.0
H1913 H 0.12128 0.74083 0.63206 0.0
H1914 H 0.11311 0.65787 0.66607 0.0
H1915 H 0.11814 0.68931 0.66367 0.0
H1916 H 0.1737 0.70692 0.64966 0.0
C1917 C 0.16291 0.76157 0.61266 0.0
C1918 C 0.13276 0.73354 0.63606 0.0
C1919 C 0.16412 0.77809 0.60485 0.0
C1920 C 0.12519 0.66256 0.66007 0.0
C1921 C 0.12803 0.68058 0.65856 0.0
C1922 C 0.16212 0.71408 0.64577 0.0
C1923 C 0.15188 0.75876 0.62737 0.0
C1924 C 0.14961 0.74104 0.63478 0.0
C1925 C 0.14322 0.68719 0.65014 0.0
C1926 C 0.14531 0.70618 0.64626 0.0
H1927 H 0.13619 0.79991 0.63227 0.0
H1928 H 0.13376 0.77088 0.64569 0.0
H1929 H 0.17736 0.73689 0.63921 0.0
H1930 H 0.163 0.64869 0.64057 0.0
H1931 H 0.1676 0.67977 0.63733 0.0
C1932 C 0.45919 0.8934 0.83654 0.0
C1933 C 0.45094 0.87747 0.83201 0.0
C1934 C 0.47566 0.89358 0.84484 0.0
C1935 C 0.51387 0.86578 0.85608 0.0
H1936 H 0.51899 0.89785 0.89598 0.0
C1937 C 0.57087 0.85962 0.90536 0.0
C1938 C 0.58102 0.87496 0.90739 0.0
C1939 C 0.55413 0.86027 0.89774 0.0
C1940 C 0.51773 0.88887 0.88485 0.0
H1941 H 0.45397 0.84932 0.83159 0.0
H1942 H 0.48245 0.84963 0.84628 0.0
H1943 H 0.4925 0.89864 0.87752 0.0
H1944 H 0.58086 0.90319 0.90463 0.0
H1945 H 0.55153 0.90428 0.89152 0.0
H1946 H 0.53898 0.85585 0.86362 0.0
C1947 C 0.47635 0.862 0.84331 0.0
C1948 C 0.50266 0.8894 0.87417 0.0
C1949 C 0.45996 0.86182 0.8349 0.0
C1950 C 0.57344 0.89112 0.90315 0.0
C1951 C 0.55662 0.89176 0.89565 0.0
C1952 C 0.52884 0.86515 0.86685 0.0
C1953 C 0.48416 0.87785 0.84885 0.0
C1954 C 0.50055 0.87785 0.85966 0.0
C1955 C 0.54715 0.87628 0.8922 0.0
C1956 C 0.53089 0.87664 0.88135 0.0
H1957 H 0.45263 0.90569 0.83433 0.0
H1958 H 0.48151 0.90604 0.84853 0.0
H1959 H 0.51282 0.85689 0.84486 0.0
H1960 H 0.57624 0.84697 0.90859 0.0
H1961 H 0.54692 0.84818 0.89551 0.0
C1962 C 0.36703 0.34907 0.12548 0.0
C1963 C 0.38058 0.35468 0.13702 0.0
C1964 C 0.36589 0.33163 0.12002 0.0
C1965 C 0.37678 0.28718 0.1314 0.0
H1966 H 0.37888 0.27855 0.08042 0.0
C1967 C 0.36318 0.21976 0.09971 0.0
C1968 C 0.3772 0.2131 0.08968 0.0
C1969 C 0.36308 0.23727 0.10489 0.0
C1970 C 0.37828 0.28083 0.09466 0.0
H1971 H 0.40299 0.34626 0.15262 0.0
H1972 H 0.40055 0.31557 0.14354 0.0
H1973 H 0.37906 0.30869 0.09173 0.0
H1974 H 0.40163 0.2198 0.07646 0.0
H1975 H 0.40109 0.25074 0.0851 0.0
H1976 H 0.37564 0.25935 0.13433 0.0
C1977 C 0.39104 0.32479 0.13854 0.0
C1978 C 0.37828 0.29799 0.10111 0.0
C1979 C 0.39242 0.34232 0.14372 0.0
C1980 C 0.39068 0.22455 0.0842 0.0
C1981 C 0.39038 0.24221 0.08911 0.0
C1982 C 0.37639 0.27005 0.12494 0.0
C1983 C 0.37804 0.31942 0.1263 0.0
C1984 C 0.3776 0.30128 0.11953 0.0
C1985 C 0.37679 0.24857 0.09986 0.0
C1986 C 0.3772 0.26674 0.10653 0.0
H1987 H 0.35778 0.35829 0.11998 0.0
H1988 H 0.35568 0.32772 0.11067 0.0
H1989 H 0.37625 0.28944 0.14565 0.0
H1990 H 0.3526 0.21131 0.1042 0.0
H1991 H 0.3524 0.24195 0.11305 0.0
C1992 C 0.02296 0.86077 0.1594 0.0
C1993 C 0.03242 0.87653 0.16108 0.0
C1994 C 0.00612 0.86054 0.15192 0.0
C1995 C 0.96859 0.88913 0.14124 0.0
H1996 H 0.95489 0.85072 0.11011 0.0
C1997 C 0.90214 0.88888 0.10541 0.0
C1998 C 0.89186 0.87383 0.10845 0.0
C1999 C 0.92014 0.88894 0.10907 0.0
C2000 C 0.95856 0.8615 0.11878 0.0
H2001 H 0.03129 0.90455 0.1576 0.0
H2002 H 0.00216 0.90417 0.14385 0.0
H2003 H 0.98446 0.85167 0.12291 0.0
H2004 H 0.89279 0.8465 0.11606 0.0
H2005 H 0.92426 0.84662 0.12229 0.0
H2006 H 0.94271 0.89896 0.13708 0.0
C2007 C 0.0077 0.89193 0.14824 0.0
C2008 C 0.97544 0.86202 0.12621 0.0
C2009 C 0.02449 0.89215 0.15585 0.0
C2010 C 0.90028 0.85838 0.11366 0.0
C2011 C 0.91833 0.85842 0.11723 0.0
C2012 C 0.9518 0.88869 0.13369 0.0
C2013 C 0.99837 0.87609 0.14601 0.0
C2014 C 0.98061 0.87577 0.13766 0.0
C2015 C 0.92827 0.8739 0.11566 0.0
C2016 C 0.94656 0.87482 0.12249 0.0
H2017 H 0.02874 0.84855 0.16353 0.0
H2018 H -0.00083 0.84816 0.15084 0.0
H2019 H 0.97198 0.89975 0.15023 0.0
H2020 H 0.8962 0.90088 0.10101 0.0
H2021 H 0.92759 0.90096 0.10735 0.0
C2022 C 0.35206 0.79501 0.38944 0.0
C2023 C 0.36753 0.80516 0.38857 0.0
C2024 C 0.35159 0.77811 0.38229 0.0
C2025 C 0.37464 0.75112 0.34901 0.0
H2026 H 0.34955 0.71262 0.37108 0.0
C2027 C 0.38469 0.67859 0.33107 0.0
C2028 C 0.37014 0.66717 0.33213 0.0
C2029 C 0.38297 0.69625 0.33541 0.0
C2030 C 0.35636 0.72332 0.36459 0.0
H2031 H 0.39492 0.80518 0.38067 0.0
H2032 H 0.39422 0.77563 0.3687 0.0
H2033 H 0.34977 0.74124 0.3854 0.0
H2034 H 0.34201 0.66572 0.33687 0.0
H2035 H 0.33906 0.69653 0.34428 0.0
H2036 H 0.38156 0.73306 0.3284 0.0
C2037 C 0.3823 0.78086 0.37435 0.0
C2038 C 0.35653 0.73971 0.37283 0.0
C2039 C 0.38275 0.79774 0.38138 0.0
C2040 C 0.35355 0.67409 0.3361 0.0
C2041 C 0.35185 0.69172 0.34049 0.0
C2042 C 0.37453 0.73472 0.3408 0.0
C2043 C 0.3666 0.77104 0.37424 0.0
C2044 C 0.36586 0.75374 0.36525 0.0
C2045 C 0.36667 0.70281 0.34088 0.0
C2046 C 0.36553 0.72061 0.3486 0.0
H2047 H 0.34009 0.80041 0.39482 0.0
H2048 H 0.33927 0.77089 0.38239 0.0
H2049 H 0.38163 0.76177 0.3426 0.0
H2050 H 0.39765 0.67373 0.328 0.0
H2051 H 0.39464 0.70448 0.33559 0.0
C2052 C 0.58229 0.10983 0.6035 0.0
C2053 C 0.59008 0.12472 0.59577 0.0
C2054 C 0.56462 0.10983 0.60846 0.0
C2055 C 0.5298 0.14057 0.62092 0.0
H2056 H 0.49937 0.09976 0.61705 0.0
C2057 C 0.45529 0.14255 0.63399 0.0
C2058 C 0.44744 0.12837 0.64289 0.0
C2059 C 0.47295 0.14208 0.62912 0.0
C2060 C 0.50779 0.11118 0.61843 0.0
H2061 H 0.58505 0.15095 0.58628 0.0
H2062 H 0.55414 0.15081 0.59462 0.0
H2063 H 0.52914 0.09873 0.60514 0.0
H2064 H 0.45213 0.10281 0.65422 0.0
H2065 H 0.48313 0.10202 0.64572 0.0
H2066 H 0.50841 0.15306 0.63407 0.0
C2067 C 0.56184 0.13927 0.59723 0.0
C2068 C 0.52483 0.11062 0.61156 0.0
C2069 C 0.57953 0.13929 0.5923 0.0
C2070 C 0.45781 0.11394 0.64738 0.0
C2071 C 0.4755 0.11342 0.64238 0.0
C2072 C 0.51276 0.14115 0.62772 0.0
C2073 C 0.55429 0.1247 0.60577 0.0
C2074 C 0.53602 0.12533 0.61267 0.0
C2075 C 0.48318 0.12739 0.63297 0.0
C2076 C 0.50156 0.12648 0.62652 0.0
H2077 H 0.59001 0.0984 0.60648 0.0
H2078 H 0.55929 0.09844 0.61513 0.0
H2079 H 0.53819 0.15201 0.62236 0.0
H2080 H 0.44768 0.15388 0.63036 0.0
H2081 H 0.47843 0.15299 0.62177 0.0
C2082 C 0.16491 0.20584 0.8682 0.0
C2083 C 0.15694 0.20163 0.88453 0.0
C2084 C 0.16378 0.22269 0.86129 0.0
C2085 C 0.16678 0.26142 0.85353 0.0
H2086 H 0.1231 0.28616 0.86015 0.0
C2087 C 0.16028 0.33553 0.84421 0.0
C2088 C 0.14391 0.34241 0.83927 0.0
C2089 C 0.1623 0.31758 0.84638 0.0
C2090 C 0.13528 0.27934 0.85787 0.0
H2091 H 0.14217 0.21196 0.90677 0.0
H2092 H 0.14063 0.24154 0.89495 0.0
H2093 H 0.12589 0.25663 0.87146 0.0
H2094 H 0.1173 0.33568 0.83102 0.0
H2095 H 0.12099 0.30427 0.83434 0.0
H2096 H 0.17604 0.28405 0.83965 0.0
C2097 C 0.14734 0.23168 0.88724 0.0
C2098 C 0.137 0.26251 0.86467 0.0
C2099 C 0.14835 0.21477 0.8941 0.0
C2100 C 0.13003 0.33082 0.83505 0.0
C2101 C 0.1321 0.31283 0.8371 0.0
C2102 C 0.16502 0.27823 0.84661 0.0
C2103 C 0.15478 0.23575 0.87061 0.0
C2104 C 0.15285 0.25345 0.86284 0.0
C2105 C 0.14804 0.30607 0.8435 0.0
C2106 C 0.14933 0.28749 0.84893 0.0
H2107 H 0.1716 0.196 0.86045 0.0
H2108 H 0.16952 0.22531 0.84838 0.0
H2109 H 0.1792 0.25485 0.85195 0.0
H2110 H 0.17129 0.34405 0.8475 0.0
H2111 H 0.17474 0.31289 0.85142 0.0
C2112 C 0.40401 0.91684 0.13269 0.0
C2113 C 0.40516 0.90621 0.11742 0.0
C2114 C 0.40176 0.93485 0.13109 0.0
C2115 C 0.40324 0.9725 0.10021 0.0
H2116 H 0.36408 0.98847 0.12862 0.0
C2117 C 0.36878 0.0389 0.08822 0.0
C2118 C 0.36284 0.04792 0.1033 0.0
C2119 C 0.37569 0.02209 0.0899 0.0
C2120 C 0.37524 0.98439 0.12079 0.0
H2121 H 0.40654 0.90654 0.08855 0.0
H2122 H 0.40252 0.93795 0.0858 0.0
H2123 H 0.37439 0.9588 0.13202 0.0
H2124 H 0.35969 0.04674 0.13193 0.0
H2125 H 0.37207 0.01773 0.13499 0.0
H2126 H 0.404 0.9982 0.08895 0.0
C2127 C 0.40326 0.9323 0.09899 0.0
C2128 C 0.38116 0.96733 0.12276 0.0
C2129 C 0.40546 0.91425 0.10058 0.0
C2130 C 0.36406 0.03998 0.12007 0.0
C2131 C 0.3711 0.02332 0.12179 0.0
C2132 C 0.39738 0.98969 0.09833 0.0
C2133 C 0.40069 0.94268 0.11421 0.0
C2134 C 0.39521 0.96116 0.11251 0.0
C2135 C 0.37681 0.01404 0.10671 0.0
C2136 C 0.38329 0.99584 0.10861 0.0
H2137 H 0.40388 0.91118 0.1459 0.0
H2138 H 0.40019 0.94258 0.14309 0.0
H2139 H 0.41412 0.96812 0.09216 0.0
H2140 H 0.3676 0.0446 0.07509 0.0
H2141 H 0.3797 0.01523 0.07797 0.0
C2142 C 0.90946 0.59346 0.87789 0.0
C2143 C 0.90847 0.60663 0.89091 0.0
C2144 C 0.90971 0.57591 0.8829 0.0
C2145 C 0.89193 0.54961 0.91898 0.0
H2146 H 0.91014 0.51154 0.89061 0.0
C2147 C 0.85443 0.48557 0.9075 0.0
C2148 C 0.86371 0.46996 0.90556 0.0
C2149 C 0.86342 0.50135 0.91018 0.0
C2150 C 0.90521 0.52196 0.89894 0.0
H2151 H 0.90913 0.61187 0.91936 0.0
H2152 H 0.90987 0.58126 0.92804 0.0
H2153 H 0.92208 0.54096 0.88671 0.0
H2154 H 0.88972 0.45863 0.90486 0.0
H2155 H 0.90539 0.48611 0.90993 0.0
H2156 H 0.8747 0.53072 0.93082 0.0
C2157 C 0.90993 0.58446 0.91399 0.0
C2158 C 0.91194 0.53883 0.89658 0.0
C2159 C 0.90957 0.602 0.909 0.0
C2160 C 0.88214 0.47033 0.90687 0.0
C2161 C 0.89115 0.48612 0.9095 0.0
C2162 C 0.88523 0.53276 0.92135 0.0
C2163 C 0.90911 0.57123 0.901 0.0
C2164 C 0.90491 0.55294 0.90609 0.0
C2165 C 0.8819 0.50184 0.9108 0.0
C2166 C 0.89132 0.51888 0.91088 0.0
H2167 H 0.90873 0.59659 0.86384 0.0
H2168 H 0.909 0.56605 0.87253 0.0
H2169 H 0.88609 0.56017 0.92644 0.0
H2170 H 0.84023 0.48566 0.90639 0.0
H2171 H 0.85591 0.51326 0.91084 0.0
C2172 C 0.77846 0.62901 0.15036 0.0
C2173 C 0.78107 0.61086 0.14972 0.0
C2174 C 0.76153 0.63585 0.14941 0.0
C2175 C 0.71776 0.62502 0.13183 0.0
H2176 H 0.7021 0.66345 0.16137 0.0
C2177 C 0.64807 0.65609 0.15209 0.0
C2178 C 0.63986 0.65614 0.13525 0.0
C2179 C 0.6662 0.65378 0.15361 0.0
C2180 C 0.70632 0.65275 0.153 0.0
H2181 H 0.76796 0.58568 0.14763 0.0
H2182 H 0.73835 0.59762 0.14599 0.0
H2183 H 0.73162 0.65173 0.16564 0.0
H2184 H 0.64455 0.65546 0.10674 0.0
H2185 H 0.67622 0.65159 0.10943 0.0
H2186 H 0.69244 0.62571 0.11942 0.0
C2187 C 0.74943 0.60655 0.14724 0.0
C2188 C 0.72323 0.64609 0.15539 0.0
C2189 C 0.76636 0.59971 0.14828 0.0
C2190 C 0.6504 0.65536 0.11993 0.0
C2191 C 0.66853 0.65299 0.12146 0.0
C2192 C 0.70095 0.63172 0.12936 0.0
C2193 C 0.74686 0.62471 0.14752 0.0
C2194 C 0.72904 0.63201 0.14496 0.0
C2195 C 0.67651 0.65146 0.13832 0.0
C2196 C 0.69497 0.64557 0.14 0.0
H2197 H 0.78945 0.63806 0.15065 0.0
H2198 H 0.76 0.6499 0.14935 0.0
H2199 H 0.72195 0.61435 0.12339 0.0
H2200 H 0.64038 0.65678 0.16418 0.0
H2201 H 0.67193 0.65265 0.16679 0.0
C2202 C 0.61403 0.40168 0.39608 0.0
C2203 C 0.60309 0.39661 0.38181 0.0
C2204 C 0.61707 0.41929 0.3998 0.0
C2205 C 0.61608 0.46236 0.37812 0.0
H2206 H 0.62529 0.47889 0.42624 0.0
C2207 C 0.63355 0.53407 0.39344 0.0
C2208 C 0.64903 0.53648 0.40345 0.0
C2209 C 0.62563 0.51761 0.39217 0.0
C2210 C 0.62274 0.47441 0.41275 0.0
H2211 H 0.5863 0.40598 0.36057 0.0
H2212 H 0.59123 0.43688 0.36736 0.0
H2213 H 0.61464 0.44902 0.42145 0.0
H2214 H 0.6684 0.52378 0.41999 0.0
H2215 H 0.65437 0.49483 0.41798 0.0
H2216 H 0.62415 0.4878 0.36948 0.0
C2217 C 0.59777 0.42721 0.37545 0.0
C2218 C 0.6167 0.45732 0.40997 0.0
C2219 C 0.59487 0.40953 0.3716 0.0
C2220 C 0.65634 0.52222 0.41239 0.0
C2221 C 0.6483 0.50575 0.41129 0.0
C2222 C 0.62189 0.4795 0.38092 0.0
C2223 C 0.60913 0.43229 0.38944 0.0
C2224 C 0.61364 0.45098 0.39259 0.0
C2225 C 0.63303 0.50327 0.40092 0.0
C2226 C 0.62555 0.48557 0.39823 0.0
H2227 H 0.62082 0.39206 0.40401 0.0
H2228 H 0.62619 0.42267 0.41042 0.0
H2229 H 0.61417 0.45787 0.36454 0.0
H2230 H 0.62793 0.54476 0.38599 0.0
H2231 H 0.61388 0.51602 0.38409 0.0
C2232 C 0.33429 0.85396 0.14179 0.0
C2233 C 0.34234 0.85101 0.12523 0.0
C2234 C 0.3162 0.85648 0.14289 0.0
C2235 C 0.27856 0.87036 0.11539 0.0
H2236 H 0.25147 0.85466 0.15608 0.0
C2237 C 0.20293 0.8752 0.11973 0.0
C2238 C 0.19578 0.8805 0.1361 0.0
C2239 C 0.2209 0.87211 0.11817 0.0
C2240 C 0.25892 0.85929 0.14474 0.0
H2241 H 0.33748 0.84751 0.09692 0.0
H2242 H 0.30576 0.85147 0.09891 0.0
H2243 H 0.28223 0.84648 0.15351 0.0
H2244 H 0.20194 0.88723 0.16354 0.0
H2245 H 0.23344 0.88175 0.1608 0.0
H2246 H 0.2551 0.88297 0.10654 0.0
C2247 C 0.31356 0.85227 0.111 0.0
C2248 C 0.27654 0.85458 0.14324 0.0
C2249 C 0.33173 0.84984 0.10988 0.0
C2250 C 0.20707 0.88317 0.15075 0.0
C2251 C 0.22506 0.8799 0.14922 0.0
C2252 C 0.26089 0.87494 0.11683 0.0
C2253 C 0.30564 0.85598 0.12748 0.0
C2254 C 0.28662 0.86015 0.12859 0.0
C2255 C 0.2321 0.87412 0.13297 0.0
C2256 C 0.25093 0.86953 0.13157 0.0
H2257 H 0.34203 0.85499 0.15391 0.0
H2258 H 0.31063 0.8595 0.15578 0.0
H2259 H 0.28598 0.87516 0.10411 0.0
H2260 H 0.19458 0.87306 0.10818 0.0
H2261 H 0.22594 0.86757 0.10551 0.0
C2262 C 0.14236 0.96585 0.60081 0.0
C2263 C 0.14928 0.95762 0.61599 0.0
C2264 C 0.13535 0.98262 0.60205 0.0
C2265 C 0.11481 0.0119 0.63436 0.0
H2266 H 0.12452 0.04807 0.59965 0.0
C2267 C 0.09485 0.08388 0.64457 0.0
C2268 C 0.09084 0.09394 0.62947 0.0
C2269 C 0.10044 0.06664 0.64271 0.0
C2270 C 0.12138 0.03803 0.60929 0.0
H2271 H 0.15488 0.96085 0.64421 0.0
H2272 H 0.14265 0.99007 0.64631 0.0
H2273 H 0.13836 0.01968 0.5966 0.0
H2274 H 0.08846 0.09328 0.60066 0.0
H2275 H 0.09749 0.06311 0.59748 0.0
H2276 H 0.0977 0.03011 0.64698 0.0
C2277 C 0.14249 0.98346 0.63352 0.0
C2278 C 0.12942 0.02179 0.60758 0.0
C2279 C 0.14964 0.96678 0.63226 0.0
C2280 C 0.09148 0.08599 0.61258 0.0
C2281 C 0.09688 0.06871 0.61073 0.0
C2282 C 0.10665 0.02808 0.636 0.0
C2283 C 0.13499 0.99142 0.6185 0.0
C2284 C 0.12633 0.00861 0.62017 0.0
C2285 C 0.10199 0.05899 0.62572 0.0
C2286 C 0.10991 0.04141 0.62355 0.0
H2287 H 0.14189 0.95914 0.58808 0.0
H2288 H 0.12962 0.98843 0.59026 0.0
H2289 H 0.11196 0.00186 0.6441 0.0
H2290 H 0.09458 0.08959 0.6578 0.0
H2291 H 0.10437 0.05962 0.65456 0.0
C2292 C 0.66277 0.33125 0.36859 0.0
C2293 C 0.64916 0.33183 0.35591 0.0
C2294 C 0.68024 0.33336 0.36331 0.0
C2295 C 0.70373 0.3566 0.3284 0.0
H2296 H 0.74491 0.33901 0.35273 0.0
C2297 C 0.78387 0.36793 0.33194 0.0
C2298 C 0.78445 0.38625 0.3333 0.0
C2299 C 0.76782 0.35899 0.33167 0.0
C2300 C 0.73358 0.34388 0.34559 0.0
H2301 H 0.64328 0.33281 0.32759 0.0
H2302 H 0.67377 0.33618 0.31841 0.0
H2303 H 0.7164 0.32496 0.35753 0.0
H2304 H 0.76877 0.40955 0.33559 0.0
H2305 H 0.74058 0.3939 0.33529 0.0
H2306 H 0.72083 0.37571 0.31672 0.0
C2307 C 0.67092 0.33465 0.33245 0.0
C2308 C 0.71725 0.33591 0.34846 0.0
C2309 C 0.65346 0.33263 0.33772 0.0
C2310 C 0.76865 0.39546 0.33426 0.0
C2311 C 0.75255 0.38649 0.33399 0.0
C2312 C 0.72004 0.36457 0.32556 0.0
C2313 C 0.68438 0.33595 0.34526 0.0
C2314 C 0.70209 0.34243 0.34019 0.0
C2315 C 0.752 0.36814 0.33295 0.0
C2316 C 0.73506 0.35855 0.33443 0.0
H2317 H 0.6599 0.33058 0.3827 0.0
H2318 H 0.69031 0.33433 0.37353 0.0
H2319 H 0.69228 0.36211 0.322 0.0
H2320 H 0.79576 0.36036 0.33195 0.0
H2321 H 0.76781 0.34486 0.33084 0.0
C2322 C 0.83246 0.6422 0.85379 0.0
C2323 C 0.83884 0.64917 0.86997 0.0
C2324 C 0.81517 0.63598 0.85246 0.0
C2325 C 0.78231 0.61606 0.88087 0.0
H2326 H 0.74989 0.62298 0.84158 0.0
C2327 C 0.71116 0.59081 0.88326 0.0
C2328 C 0.70338 0.58463 0.86747 0.0
C2329 C 0.72771 0.59876 0.88294 0.0
C2330 C 0.75891 0.62072 0.85251 0.0
H2331 H 0.83164 0.65636 0.89698 0.0
H2332 H 0.80157 0.64544 0.89461 0.0
H2333 H 0.77828 0.63831 0.8418 0.0
H2334 H 0.70702 0.58086 0.83913 0.0
H2335 H 0.73623 0.59454 0.83852 0.0
H2336 H 0.76335 0.59821 0.89145 0.0
C2337 C 0.81003 0.64458 0.88307 0.0
C2338 C 0.77508 0.62958 0.85267 0.0
C2339 C 0.82724 0.65089 0.88438 0.0
C2340 C 0.71264 0.58592 0.8514 0.0
C2341 C 0.72931 0.59376 0.85108 0.0
C2342 C 0.76629 0.60709 0.88063 0.0
C2343 C 0.80403 0.63655 0.86731 0.0
C2344 C 0.78682 0.62744 0.86696 0.0
C2345 C 0.73694 0.60046 0.86683 0.0
C2346 C 0.75432 0.60943 0.86655 0.0
H2347 H 0.84103 0.64069 0.84242 0.0
H2348 H 0.81084 0.62983 0.84015 0.0
H2349 H 0.79132 0.61387 0.89184 0.0
H2350 H 0.70416 0.59006 0.89579 0.0
H2351 H 0.73305 0.60399 0.89528 0.0
C2352 C 0.86055 0.60746 0.08516 0.0
C2353 C 0.87583 0.60902 0.09568 0.0
C2354 C 0.86092 0.61183 0.06712 0.0
C2355 C 0.88516 0.64035 0.03664 0.0
H2356 H 0.85902 0.61537 -3e-05 0.0
C2357 C 0.88807 0.65771 0.96154 0.0
C2358 C 0.8725 0.65551 0.95161 0.0
C2359 C 0.88866 0.65281 0.97946 0.0
C2360 C 0.86619 0.62262 0.01012 0.0
H2361 H 0.90376 0.61521 0.09516 0.0
H2362 H 0.90437 0.62266 0.06364 0.0
H2363 H 0.86036 0.60348 0.03003 0.0
H2364 H 0.84501 0.64783 0.95297 0.0
H2365 H 0.84594 0.6397 0.98427 0.0
H2366 H 0.89086 0.65957 0.01677 0.0
C2367 C 0.89205 0.61838 0.06947 0.0
C2368 C 0.86703 0.61575 0.0273 0.0
C2369 C 0.89171 0.61397 0.08749 0.0
C2370 C 0.85726 0.64948 0.96022 0.0
C2371 C 0.85783 0.64467 0.97811 0.0
C2372 C 0.8843 0.64724 0.01946 0.0
C2373 C 0.87656 0.61784 0.05923 0.0
C2374 C 0.87645 0.62458 0.04076 0.0
C2375 C 0.87367 0.64572 0.98776 0.0
C2376 C 0.8747 0.63851 0.00605 0.0
H2377 H 0.8481 0.60366 0.09103 0.0
H2378 H 0.84875 0.61133 0.05957 0.0
H2379 H 0.8923 0.64759 0.04683 0.0
H2380 H 0.90004 0.6623 0.95524 0.0
H2381 H 0.90107 0.65375 0.98654 0.0
C2382 C 0.15559 0.10083 0.83136 0.0
C2383 C 0.16263 0.1168 0.83756 0.0
C2384 C 0.1494 0.09928 0.81386 0.0
C2385 C 0.14716 0.12197 0.77011 0.0
H2386 H 0.09898 0.10478 0.76971 0.0
C2387 C 0.09868 0.14259 0.71611 0.0
C2388 C 0.08879 0.12926 0.70777 0.0
C2389 C 0.10804 0.13923 0.73172 0.0
C2390 C 0.11248 0.10941 0.76955 0.0
H2391 H 0.17059 0.14296 0.82972 0.0
H2392 H 0.15983 0.14029 0.79936 0.0
H2393 H 0.11722 0.10067 0.79614 0.0
H2394 H 0.0799 0.10231 0.70999 0.0
H2395 H 0.09616 0.09654 0.73744 0.0
H2396 H 0.14219 0.13124 0.74372 0.0
C2397 C 0.15895 0.12897 0.80794 0.0
C2398 C 0.12298 0.10696 0.78462 0.0
C2399 C 0.16507 0.13053 0.82541 0.0
C2400 C 0.08743 0.11286 0.71607 0.0
C2401 C 0.09677 0.10952 0.73176 0.0
C2402 C 0.13664 0.12448 0.75508 0.0
C2403 C 0.15029 0.11362 0.80224 0.0
C2404 C 0.14031 0.11358 0.78522 0.0
C2405 C 0.10764 0.12252 0.73937 0.0
C2406 C 0.11907 0.11861 0.75483 0.0
H2407 H 0.15362 0.08994 0.84035 0.0
H2408 H 0.1431 0.08718 0.8097 0.0
H2409 H 0.16052 0.12698 0.77007 0.0
H2410 H 0.09988 0.15542 0.71017 0.0
H2411 H 0.11595 0.14962 0.73758 0.0
C2412 C 0.59991 0.38368 0.59818 0.0
C2413 C 0.61526 0.39099 0.60571 0.0
C2414 C 0.59861 0.38096 0.57984 0.0
C2415 C 0.62772 0.37524 0.54084 0.0
H2416 H 0.58315 0.37079 0.51582 0.0
C2417 C 0.6187 0.35983 0.46535 0.0
C2418 C 0.60976 0.34395 0.46229 0.0
C2419 C 0.61929 0.36712 0.48241 0.0
C2420 C 0.59565 0.37201 0.52272 0.0
H2421 H 0.64064 0.40263 0.59978 0.0
H2422 H 0.63802 0.39878 0.5676 0.0
H2423 H 0.58394 0.38323 0.54583 0.0
H2424 H 0.59449 0.32316 0.47434 0.0
H2425 H 0.59502 0.33632 0.50433 0.0
H2426 H 0.63935 0.36446 0.51731 0.0
C2427 C 0.62727 0.3944 0.57594 0.0
C2428 C 0.59615 0.37905 0.53992 0.0
C2429 C 0.62871 0.3968 0.59437 0.0
C2430 C 0.60143 0.33542 0.47649 0.0
C2431 C 0.60166 0.34295 0.4935 0.0
C2432 C 0.62724 0.36859 0.52349 0.0
C2433 C 0.61249 0.38579 0.5685 0.0
C2434 C 0.61215 0.38041 0.54938 0.0
C2435 C 0.61064 0.35882 0.49654 0.0
C2436 C 0.61117 0.36663 0.51448 0.0
H2437 H 0.58932 0.37892 0.60653 0.0
H2438 H 0.58711 0.3741 0.57479 0.0
H2439 H 0.64025 0.3757 0.54771 0.0
H2440 H 0.62535 0.36651 0.45456 0.0
H2441 H 0.62631 0.37935 0.48454 0.0
C2442 C 0.38867 0.85281 0.20618 0.0
C2443 C 0.38453 0.86756 0.19595 0.0
C2444 C 0.38308 0.85155 0.22387 0.0
C2445 C 0.34981 0.86948 0.25455 0.0
H2446 H 0.38007 0.85107 0.29152 0.0
C2447 C 0.3391 0.88082 0.32966 0.0
C2448 C 0.34351 0.86738 0.34154 0.0
C2449 C 0.3419 0.87885 0.31139 0.0
C2450 C 0.37134 0.85596 0.28129 0.0
H2451 H 0.37197 0.89286 0.19645 0.0
H2452 H 0.36262 0.89084 0.22732 0.0
H2453 H 0.39041 0.85199 0.26084 0.0
H2454 H 0.35313 0.84083 0.34336 0.0
H2455 H 0.35793 0.83743 0.31145 0.0
H2456 H 0.33092 0.87386 0.27512 0.0
C2457 C 0.36975 0.88004 0.22159 0.0
C2458 C 0.37728 0.85652 0.26371 0.0
C2459 C 0.37526 0.88126 0.20393 0.0
C2460 C 0.34968 0.8515 0.33461 0.0
C2461 C 0.35256 0.84957 0.31635 0.0
C2462 C 0.34389 0.86898 0.27213 0.0
C2463 C 0.37331 0.86504 0.23167 0.0
C2464 C 0.36668 0.86353 0.25019 0.0
C2465 C 0.34921 0.86342 0.30463 0.0
C2466 C 0.35469 0.86242 0.28572 0.0
H2467 H 0.39574 0.842 0.20038 0.0
H2468 H 0.38598 0.83979 0.23126 0.0
H2469 H 0.34116 0.87461 0.24437 0.0
H2470 H 0.33427 0.8932 0.33453 0.0
H2471 H 0.33926 0.88979 0.30269 0.0
C2472 C 0.87142 0.39843 0.39766 0.0
C2473 C 0.88475 0.39652 0.38491 0.0
C2474 C 0.87499 0.39583 0.41574 0.0
C2475 C 0.9056 0.37145 0.44404 0.0
H2476 H 0.88165 0.39531 0.48237 0.0
C2477 C 0.89946 0.37084 0.52603 0.0
C2478 C 0.89766 0.35276 0.5288 0.0
C2479 C 0.90036 0.3776 0.50879 0.0
C2480 C 0.88865 0.38865 0.47187 0.0
H2481 H 0.91259 0.39176 0.38133 0.0
H2482 H 0.91884 0.38756 0.41287 0.0
H2483 H 0.87894 0.40611 0.45198 0.0
H2484 H 0.89535 0.3276 0.51568 0.0
H2485 H 0.89669 0.33939 0.48552 0.0
H2486 H 0.9153 0.35398 0.46391 0.0
C2487 C 0.90554 0.39061 0.40885 0.0
C2488 C 0.88694 0.39474 0.45441 0.0
C2489 C 0.90196 0.39314 0.39077 0.0
C2490 C 0.89695 0.34157 0.51395 0.0
C2491 C 0.89783 0.34833 0.49669 0.0
C2492 C 0.90734 0.36537 0.46148 0.0
C2493 C 0.89198 0.39135 0.42148 0.0
C2494 C 0.89517 0.38605 0.44025 0.0
C2495 C 0.89929 0.36646 0.4939 0.0
C2496 C 0.89866 0.37373 0.47557 0.0
H2497 H 0.85801 0.40101 0.39362 0.0
H2498 H 0.8642 0.39639 0.42508 0.0
H2499 H 0.91196 0.3643 0.43344 0.0
H2500 H 0.89936 0.37993 0.53708 0.0
H2501 H 0.90158 0.39161 0.50713 0.0
C2502 C 0.38527 0.17177 0.27256 0.0
C2503 C 0.37894 0.16249 0.28731 0.0
C2504 C 0.37557 0.17201 0.25671 0.0
C2505 C 0.35007 0.14369 0.23014 0.0
H2506 H 0.33641 0.18432 0.20293 0.0
C2507 C 0.33446 0.13588 0.15616 0.0
C2508 C 0.34247 0.14859 0.14535 0.0
C2509 C 0.33243 0.13888 0.17443 0.0
C2510 C 0.34021 0.17282 0.21028 0.0
H2511 H 0.35774 0.14611 0.29722 0.0
H2512 H 0.34104 0.14614 0.26928 0.0
H2513 H 0.34641 0.18786 0.23373 0.0
H2514 H 0.35334 0.17493 0.14498 0.0
H2515 H 0.3507 0.17977 0.17656 0.0
H2516 H 0.34563 0.12872 0.20657 0.0
C2517 C 0.35317 0.15363 0.27019 0.0
C2518 C 0.34579 0.17489 0.22794 0.0
C2519 C 0.36267 0.15371 0.28614 0.0
C2520 C 0.3472 0.16479 0.15292 0.0
C2521 C 0.3455 0.16764 0.17116 0.0
C2522 C 0.34494 0.14164 0.21238 0.0
C2523 C 0.35967 0.1626 0.25532 0.0
C2524 C 0.35116 0.16038 0.2378 0.0
C2525 C 0.3387 0.15449 0.1823 0.0
C2526 C 0.34049 0.15626 0.20201 0.0
H2527 H 0.39788 0.17847 0.27318 0.0
H2528 H 0.38091 0.17878 0.24525 0.0
H2529 H 0.35428 0.13233 0.23754 0.0
H2530 H 0.33042 0.12336 0.15066 0.0
H2531 H 0.32664 0.12863 0.18249 0.0
C2532 C 0.60838 0.57875 0.91998 0.0
C2533 C 0.5966 0.58002 0.9056 0.0
C2534 C 0.60241 0.58058 0.93745 0.0
C2535 C 0.58656 0.58234 0.97427 0.0
H2536 H 0.55591 0.62233 0.97802 0.0
C2537 C 0.57411 0.61508 0.04184 0.0
C2538 C 0.57618 0.63335 0.04181 0.0
C2539 C 0.57212 0.60587 0.02587 0.0
C2540 C 0.56441 0.61111 0.97721 0.0
H2541 H 0.56907 0.58226 0.8983 0.0
H2542 H 0.55864 0.58508 0.9288 0.0
H2543 H 0.56132 0.60935 0.94899 0.0
H2544 H 0.57748 0.65631 0.02507 0.0
H2545 H 0.57437 0.64024 0.99713 0.0
H2546 H 0.59063 0.58491 0.00235 0.0
C2547 C 0.57255 0.58321 0.92657 0.0
C2548 C 0.56734 0.60349 0.96059 0.0
C2549 C 0.57853 0.5815 0.9091 0.0
C2550 C 0.57574 0.64225 0.0255 0.0
C2551 C 0.57382 0.63304 0.00951 0.0
C2552 C 0.5837 0.59002 0.9909 0.0
C2553 C 0.58452 0.58358 0.94087 0.0
C2554 C 0.5789 0.58936 0.95885 0.0
C2555 C 0.5724 0.61469 0.0095 0.0
C2556 C 0.57303 0.60484 0.99245 0.0
H2557 H 0.62237 0.57756 0.91775 0.0
H2558 H 0.61203 0.5809 0.94813 0.0
H2559 H 0.59534 0.57133 0.97341 0.0
H2560 H 0.57504 0.60769 0.05404 0.0
H2561 H 0.57097 0.59176 0.02632 0.0
C2562 C 0.15017 0.86623 0.66592 0.0
C2563 C 0.14939 0.8821 0.6566 0.0
C2564 C 0.14425 0.86513 0.68347 0.0
C2565 C 0.13225 0.89068 0.72326 0.0
H2566 H 0.10023 0.85184 0.73179 0.0
C2567 C 0.0934 0.88526 0.78866 0.0
C2568 C 0.09339 0.86873 0.79677 0.0
C2569 C 0.09899 0.88723 0.77106 0.0
C2570 C 0.10924 0.86268 0.72969 0.0
H2571 H 0.14308 0.90961 0.65896 0.0
H2572 H 0.13288 0.90768 0.68962 0.0
H2573 H 0.11448 0.85466 0.70292 0.0
H2574 H 0.09821 0.84116 0.79238 0.0
H2575 H 0.10809 0.84461 0.76185 0.0
H2576 H 0.12719 0.89858 0.7501 0.0
C2577 C 0.13796 0.89606 0.68329 0.0
C2578 C 0.11746 0.86426 0.71317 0.0
C2579 C 0.14383 0.89715 0.6657 0.0
C2580 C 0.09808 0.85409 0.78656 0.0
C2581 C 0.10371 0.85606 0.769 0.0
C2582 C 0.1241 0.88904 0.73984 0.0
C2583 C 0.13754 0.87991 0.69212 0.0
C2584 C 0.12912 0.87822 0.70981 0.0
C2585 C 0.10468 0.87272 0.7612 0.0
C2586 C 0.11256 0.87498 0.74326 0.0
H2587 H 0.15469 0.85447 0.65949 0.0
H2588 H 0.14448 0.85259 0.69011 0.0
H2589 H 0.14125 0.90151 0.72107 0.0
H2590 H 0.08976 0.8968 0.79611 0.0
H2591 H 0.09923 0.90018 0.7653 0.0
C2592 C 0.09035 0.86516 0.59399 0.0
C2593 C 0.09934 0.88111 0.59149 0.0
C2594 C 0.07239 0.86494 0.59777 0.0
C2595 C 0.03226 0.89209 0.60005 0.0
H2596 H 0.02301 0.86512 0.64274 0.0
C2597 C 0.97132 0.9044 0.643 0.0
C2598 C 0.96191 0.88962 0.64887 0.0
C2599 C 0.98795 0.90264 0.63543 0.0
C2600 C 0.02528 0.87255 0.6307 0.0
H2601 H 0.0961 0.90913 0.58895 0.0
H2602 H 0.06487 0.90872 0.59553 0.0
H2603 H 0.05122 0.86251 0.62785 0.0
H2604 H 0.96298 0.86151 0.65228 0.0
H2605 H 0.99196 0.85846 0.63907 0.0
H2606 H 0.00639 0.90233 0.60308 0.0
C2607 C 0.07167 0.89639 0.59471 0.0
C2608 C 0.04142 0.87099 0.62209 0.0
C2609 C 0.08963 0.89662 0.59097 0.0
C2610 C 0.96988 0.87317 0.64792 0.0
C2611 C 0.98651 0.87141 0.64033 0.0
C2612 C 0.0161 0.89364 0.60864 0.0
C2613 C 0.06306 0.88064 0.59901 0.0
C2614 C 0.04517 0.8809 0.60679 0.0
C2615 C 0.99552 0.88607 0.63359 0.0
C2616 C 0.01252 0.88406 0.62421 0.0
H2617 H 0.09737 0.85293 0.59432 0.0
H2618 H 0.06599 0.85256 0.60062 0.0
H2619 H 0.03471 0.89977 0.58819 0.0
H2620 H 0.9656 0.91728 0.64363 0.0
H2621 H 0.99475 0.91424 0.63075 0.0
C2622 C 0.87189 0.32563 0.32275 0.0
C2623 C 0.86086 0.33857 0.32964 0.0
C2624 C 0.86849 0.30798 0.32623 0.0
C2625 C 0.8353 0.27728 0.34646 0.0
H2626 H 0.87686 0.25032 0.35719 0.0
C2627 C 0.83693 0.21545 0.39126 0.0
C2628 C 0.84529 0.20096 0.38378 0.0
C2629 C 0.83745 0.2316 0.38257 0.0
C2630 C 0.86515 0.25767 0.3541 0.0
H2631 H 0.83707 0.34306 0.34478 0.0
H2632 H 0.8316 0.31261 0.35144 0.0
H2633 H 0.88011 0.27952 0.34491 0.0
H2634 H 0.86123 0.19193 0.3618 0.0
H2635 H 0.86243 0.22021 0.34681 0.0
H2636 H 0.82049 0.25553 0.35674 0.0
C2637 C 0.84264 0.31586 0.34298 0.0
C2638 C 0.86696 0.27437 0.34689 0.0
C2639 C 0.84585 0.33344 0.33923 0.0
C2640 C 0.85434 0.20284 0.36762 0.0
C2641 C 0.85515 0.21901 0.35913 0.0
C2642 C 0.83352 0.26068 0.35402 0.0
C2643 C 0.85418 0.3029 0.33695 0.0
C2644 C 0.85207 0.28449 0.3431 0.0
C2645 C 0.84674 0.23352 0.36654 0.0
C2646 C 0.84844 0.25081 0.35799 0.0
H2647 H 0.88345 0.32915 0.31514 0.0
H2648 H 0.8774 0.29836 0.3209 0.0
H2649 H 0.8235 0.28448 0.34342 0.0
H2650 H 0.83 0.21428 0.40379 0.0
H2651 H 0.83104 0.24269 0.38861 0.0
C2652 C 0.5434 0.1001 0.15159 0.0
C2653 C 0.55338 0.1149 0.1566 0.0
C2654 C 0.52592 0.10181 0.14614 0.0
C2655 C 0.49729 0.13359 0.12511 0.0
H2656 H 0.45923 0.10284 0.13969 0.0
C2657 C 0.42504 0.14647 0.10645 0.0
C2658 C 0.41378 0.13207 0.10345 0.0
C2659 C 0.44227 0.14401 0.1123 0.0
C2660 C 0.46977 0.11137 0.13525 0.0
H2661 H 0.55253 0.14295 0.16078 0.0
H2662 H 0.52205 0.14588 0.15123 0.0
H2663 H 0.48849 0.09916 0.15248 0.0
H2664 H 0.41213 0.10376 0.10334 0.0
H2665 H 0.44234 0.09946 0.11301 0.0
H2666 H 0.4788 0.14562 0.10764 0.0
C2667 C 0.52783 0.13301 0.15134 0.0
C2668 C 0.48649 0.1093 0.14267 0.0
C2669 C 0.54524 0.13129 0.15694 0.0
C2670 C 0.4204 0.11514 0.10566 0.0
C2671 C 0.43769 0.11267 0.11136 0.0
C2672 C 0.48064 0.13555 0.11756 0.0
C2673 C 0.51815 0.11835 0.14548 0.0
C2674 C 0.50037 0.12048 0.13777 0.0
C2675 C 0.44872 0.12708 0.11513 0.0
C2676 C 0.46663 0.12454 0.1226 0.0
H2677 H 0.54928 0.08728 0.15124 0.0
H2678 H 0.51874 0.09029 0.14167 0.0
H2679 H 0.50786 0.14218 0.12084 0.0
H2680 H 0.42035 0.15969 0.10496 0.0
H2681 H 0.45031 0.15542 0.11525 0.0
C2682 C 0.64332 0.77904 0.8909 0.0
C2683 C 0.6393 0.78133 0.90902 0.0
C2684 C 0.64506 0.76231 0.8837 0.0
C2685 C 0.63431 0.72666 0.86969 0.0
H2686 H 0.65299 0.68775 0.89643 0.0
C2687 C 0.61582 0.65509 0.85435 0.0
C2688 C 0.62831 0.64202 0.85736 0.0
C2689 C 0.61966 0.6725 0.85858 0.0
C2690 C 0.64797 0.69849 0.88863 0.0
H2691 H 0.63401 0.76785 0.93378 0.0
H2692 H 0.63668 0.73861 0.92118 0.0
H2693 H 0.65602 0.71729 0.9083 0.0
H2694 H 0.65503 0.63719 0.86619 0.0
H2695 H 0.66179 0.66762 0.87328 0.0
H2696 H 0.62628 0.70788 0.85001 0.0
C2697 C 0.63896 0.74975 0.9126 0.0
C2698 C 0.6495 0.71541 0.89556 0.0
C2699 C 0.63731 0.7665 0.91982 0.0
C2700 C 0.64505 0.6469 0.86381 0.0
C2701 C 0.64889 0.66434 0.86801 0.0
C2702 C 0.63282 0.70975 0.86274 0.0
C2703 C 0.64255 0.74744 0.89437 0.0
C2704 C 0.64242 0.72966 0.88632 0.0
C2705 C 0.63609 0.67727 0.86586 0.0
C2706 C 0.63934 0.69543 0.87227 0.0
H2707 H 0.64429 0.79005 0.88198 0.0
H2708 H 0.64795 0.76102 0.86964 0.0
H2709 H 0.62853 0.73728 0.86228 0.0
H2710 H 0.6028 0.65183 0.8494 0.0
H2711 H 0.60942 0.68208 0.85691 0.0
C2712 C 0.96892 0.12775 0.86796 0.0
C2713 C 0.96643 0.12225 0.85023 0.0
C2714 C 0.98577 0.12845 0.87544 0.0
C2715 C 0.02389 0.13907 0.88334 0.0
H2716 H 0.05626 0.10134 0.87428 0.0
C2717 C 0.09934 0.14427 0.89279 0.0
C2718 C 0.10833 0.12928 0.89842 0.0
C2719 C 0.08115 0.1437 0.89001 0.0
C2720 C 0.04732 0.11189 0.87714 0.0
H2721 H 0.97955 0.11362 0.82629 0.0
H2722 H 0.00906 0.11475 0.83937 0.0
H2723 H 0.02632 0.09942 0.86271 0.0
H2724 H 0.10491 0.10249 0.90722 0.0
H2725 H 0.07327 0.10155 0.90241 0.0
H2726 H 0.04501 0.15162 0.89762 0.0
C2727 C 0.99796 0.11826 0.84756 0.0
C2728 C 0.03024 0.11087 0.87031 0.0
C2729 C 0.98111 0.1177 0.84005 0.0
C2730 C 0.09851 0.11418 0.90259 0.0
C2731 C 0.08036 0.1136 0.89976 0.0
C2732 C 0.04104 0.14015 0.89007 0.0
C2733 C 0.00046 0.12367 0.86534 0.0
C2734 C 0.01838 0.12451 0.8732 0.0
C2735 C 0.07159 0.12815 0.89282 0.0
C2736 C 0.05298 0.12661 0.88694 0.0
H2737 H 0.95791 0.13188 0.87596 0.0
H2738 H 0.98729 0.13266 0.88916 0.0
H2739 H 0.01507 0.14984 0.88569 0.0
H2740 H 0.10644 0.15616 0.88952 0.0
H2741 H 0.07478 0.15513 0.88464 0.0
C2742 C 0.64511 0.20933 0.58842 0.0
C2743 C 0.62933 0.20064 0.5839 0.0
C2744 C 0.64481 0.22577 0.5965 0.0
C2745 C 0.616 0.26313 0.60757 0.0
H2746 H 0.64755 0.26819 0.6481 0.0
C2747 C 0.60932 0.32037 0.65605 0.0
C2748 C 0.62489 0.33019 0.6584 0.0
C2749 C 0.60987 0.30359 0.64875 0.0
C2750 C 0.63871 0.26695 0.6368 0.0
H2751 H 0.60094 0.20302 0.58301 0.0
H2752 H 0.60042 0.23154 0.59725 0.0
H2753 H 0.6489 0.24205 0.62949 0.0
H2754 H 0.65335 0.32936 0.65673 0.0
H2755 H 0.65426 0.30003 0.64418 0.0
H2756 H 0.60571 0.28797 0.61501 0.0
C2757 C 0.61304 0.22573 0.59452 0.0
C2758 C 0.63956 0.25207 0.62603 0.0
C2759 C 0.61334 0.20933 0.58634 0.0
C2760 C 0.6411 0.32221 0.65498 0.0
C2761 C 0.64164 0.30538 0.64779 0.0
C2762 C 0.61507 0.27793 0.6184 0.0
C2763 C 0.62874 0.23385 0.60028 0.0
C2764 C 0.62825 0.25 0.61126 0.0
C2765 C 0.62599 0.29625 0.64385 0.0
C2766 C 0.62641 0.28 0.63311 0.0
H2767 H 0.65766 0.20306 0.58654 0.0
H2768 H 0.65717 0.2319 0.60033 0.0
H2769 H 0.60725 0.26206 0.59619 0.0
H2770 H 0.5966 0.32605 0.65865 0.0
H2771 H 0.59762 0.29665 0.64619 0.0
C2772 C 0.54108 0.88457 0.37041 0.0
C2773 C 0.54378 0.89172 0.35342 0.0
C2774 C 0.52447 0.88498 0.37823 0.0
C2775 C 0.483 0.90774 0.37913 0.0
H2776 H 0.46164 0.86291 0.39027 0.0
C2777 C 0.40857 0.89946 0.38837 0.0
C2778 C 0.40189 0.88571 0.39877 0.0
C2779 C 0.42662 0.90149 0.38586 0.0
C2780 C 0.46747 0.87561 0.38772 0.0
H2781 H 0.53149 0.90498 0.33127 0.0
H2782 H 0.50239 0.90618 0.34523 0.0
H2783 H 0.49196 0.86425 0.38013 0.0
H2784 H 0.40896 0.86392 0.41561 0.0
H2785 H 0.4406 0.86794 0.41195 0.0
H2786 H 0.45878 0.91925 0.38699 0.0
C2787 C 0.51315 0.90025 0.35243 0.0
C2788 C 0.48482 0.87632 0.38176 0.0
C2789 C 0.5297 0.89951 0.34445 0.0
C2790 C 0.41372 0.87458 0.40742 0.0
C2791 C 0.43186 0.87681 0.40517 0.0
C2792 C 0.46576 0.9071 0.38546 0.0
C2793 C 0.51037 0.8928 0.36928 0.0
C2794 C 0.49258 0.89234 0.37706 0.0
C2795 C 0.43853 0.88999 0.39392 0.0
C2796 C 0.45759 0.89097 0.38942 0.0
H2797 H 0.55167 0.87817 0.37743 0.0
H2798 H 0.52258 0.8791 0.3912 0.0
H2799 H 0.48884 0.92027 0.37576 0.0
H2800 H 0.39982 0.90812 0.3813 0.0
H2801 H 0.43109 0.91159 0.37684 0.0
C2802 C 0.85277 0.78994 0.10527 0.0
C2803 C 0.8435 0.80233 0.11522 0.0
C2804 C 0.85495 0.773 0.11177 0.0
C2805 C 0.83812 0.74173 0.14562 0.0
H2806 H 0.88273 0.71929 0.13702 0.0
C2807 C 0.8479 0.66816 0.15413 0.0
C2808 C 0.86456 0.66171 0.15864 0.0
C2809 C 0.84532 0.686 0.15192 0.0
C2810 C 0.87031 0.72547 0.13986 0.0
H2811 H 0.82885 0.80657 0.1396 0.0
H2812 H 0.833 0.77731 0.15108 0.0
H2813 H 0.87803 0.74878 0.12625 0.0
H2814 H 0.89134 0.66915 0.16554 0.0
H2815 H 0.88671 0.70048 0.16208 0.0
H2816 H 0.83057 0.71859 0.15963 0.0
C2817 C 0.83834 0.78047 0.13812 0.0
C2818 C 0.86748 0.74228 0.13335 0.0
C2819 C 0.836 0.79731 0.13153 0.0
C2820 C 0.87835 0.67367 0.16199 0.0
C2821 C 0.87573 0.69161 0.15986 0.0
C2822 C 0.84101 0.725 0.15229 0.0
C2823 C 0.84805 0.76817 0.12845 0.0
C2824 C 0.85124 0.7505 0.13589 0.0
C2825 C 0.85931 0.69792 0.15424 0.0
C2826 C 0.85703 0.71652 0.1492 0.0
H2827 H 0.85862 0.79339 0.09261 0.0
H2828 H 0.86215 0.76374 0.10376 0.0
H2829 H 0.82541 0.74759 0.14776 0.0
H2830 H 0.83703 0.6594 0.15117 0.0
H2831 H 0.83256 0.69029 0.14733 0.0
C2832 C 0.59074 0.07768 0.86574 0.0
C2833 C 0.59354 0.08859 0.88062 0.0
C2834 C 0.59287 0.05961 0.86716 0.0
C2835 C 0.59807 0.0233 0.89972 0.0
H2836 H 0.62431 0.00205 0.86129 0.0
C2837 C 0.62927 0.95491 0.90577 0.0
C2838 C 0.62659 0.94363 0.89117 0.0
C2839 C 0.62491 0.97259 0.90451 0.0
C2840 C 0.61685 0.00775 0.87207 0.0
H2841 H 0.59972 0.08886 0.90892 0.0
H2842 H 0.60361 0.05755 0.91128 0.0
H2843 H 0.61563 0.03248 0.85901 0.0
H2844 H 0.6177 0.94215 0.86367 0.0
H2845 H 0.61024 0.97289 0.86149 0.0
H2846 H 0.59961 -0.00145 0.91288 0.0
C2847 C 0.59965 0.06286 0.89854 0.0
C2848 C 0.61177 0.02517 0.87072 0.0
C2849 C 0.59748 0.08089 0.89715 0.0
C2850 C 0.61993 0.95048 0.87518 0.0
C2851 C 0.61571 0.96812 0.87389 0.0
C2852 C 0.60325 0.00588 0.9011 0.0
C2853 C 0.59786 0.05204 0.88346 0.0
C2854 C 0.60234 0.03319 0.88454 0.0
C2855 C 0.61795 0.97934 0.88859 0.0
C2856 C 0.61272 0.99793 0.8873 0.0
H2857 H 0.58761 0.08315 0.85283 0.0
H2858 H 0.59101 0.0516 0.85536 0.0
H2859 H 0.59065 0.02898 0.91052 0.0
H2860 H 0.63435 0.95001 0.91828 0.0
H2861 H 0.62697 0.98097 0.916 0.0
C2862 C 0.07486 0.41068 0.09808 0.0
C2863 C 0.07924 0.40565 0.11553 0.0
C2864 C 0.07372 0.42831 0.09371 0.0
C2865 C 0.077 0.47365 0.1119 0.0
H2866 H 0.10901 0.48006 0.07227 0.0
C2867 C 0.10734 0.54084 0.09417 0.0
C2868 C 0.12569 0.54063 0.09213 0.0
C2869 C 0.09769 0.52525 0.09455 0.0
C2870 C 0.09996 0.4785 0.08327 0.0
H2871 H 0.08368 0.41496 0.14251 0.0
H2872 H 0.08214 0.44572 0.13482 0.0
H2873 H 0.09666 0.45128 0.07813 0.0
H2874 H 0.14838 0.52413 0.08902 0.0
H2875 H 0.13153 0.49678 0.08967 0.0
H2876 H 0.08128 0.50078 0.11762 0.0
C2877 C 0.07944 0.43612 0.12451 0.0
C2878 C 0.09266 0.46206 0.08651 0.0
C2879 C 0.08041 0.41845 0.12893 0.0
C2880 C 0.13422 0.5246 0.09039 0.0
C2881 C 0.12457 0.509 0.09064 0.0
C2882 C 0.08429 0.49015 0.10862 0.0
C2883 C 0.07713 0.44121 0.10666 0.0
C2884 C 0.08156 0.45931 0.10121 0.0
C2885 C 0.10622 0.50918 0.0929 0.0
C2886 C 0.09632 0.49256 0.09464 0.0
H2887 H 0.07353 0.40104 0.08754 0.0
H2888 H 0.07146 0.43185 0.07992 0.0
H2889 H 0.06839 0.47196 0.12323 0.0
H2890 H 0.10046 0.55297 0.09618 0.0
H2891 H 0.08358 0.52574 0.09636 0.0
C2892 C 0.34265 0.34871 0.85973 0.0
C2893 C 0.35086 0.34473 0.87604 0.0
C2894 C 0.32486 0.35295 0.85908 0.0
C2895 C 0.2898 0.37019 0.88793 0.0
H2896 H 0.25999 0.35897 0.84733 0.0
C2897 C 0.21503 0.38269 0.88595 0.0
C2898 C 0.20776 0.38901 0.87 0.0
C2899 C 0.2327 0.37805 0.88686 0.0
C2900 C 0.26824 0.36238 0.85865 0.0
H2901 H 0.34644 0.34117 0.90434 0.0
H2902 H 0.31523 0.3481 0.90312 0.0
H2903 H 0.28967 0.34734 0.84882 0.0
H2904 H 0.21348 0.39601 0.84264 0.0
H2905 H 0.24448 0.38779 0.84422 0.0
H2906 H 0.26818 0.385 0.89784 0.0
C2907 C 0.32271 0.34837 0.89088 0.0
C2908 C 0.28524 0.35569 0.85954 0.0
C2909 C 0.34058 0.3442 0.89156 0.0
C2910 C 0.21872 0.39122 0.85513 0.0
C2911 C 0.2364 0.38637 0.85599 0.0
C2912 C 0.27274 0.37676 0.88709 0.0
C2913 C 0.31474 0.35324 0.87469 0.0
C2914 C 0.29629 0.35956 0.87416 0.0
C2915 C 0.24348 0.37946 0.87179 0.0
C2916 C 0.2618 0.37298 0.87242 0.0
H2917 H 0.35014 0.34948 0.84753 0.0
H2918 H 0.3193 0.35682 0.8464 0.0
H2919 H 0.29802 0.37377 0.89921 0.0
H2920 H 0.20693 0.38087 0.89765 0.0
H2921 H 0.23774 0.37268 0.89919 0.0
C2922 C 0.39438 0.59324 0.60252 0.0
C2923 C 0.40027 0.59889 0.61938 0.0
C2924 C 0.38926 0.5759 0.59972 0.0
C2925 C 0.39059 0.5315 0.61916 0.0
H2926 H 0.34634 0.52534 0.5939 0.0
C2927 C 0.36014 0.46342 0.60721 0.0
C2928 C 0.34202 0.46167 0.61034 0.0
C2929 C 0.36805 0.4799 0.60631 0.0
C2930 C 0.35867 0.52686 0.60103 0.0
H2931 H 0.4062 0.59045 0.64633 0.0
H2932 H 0.39701 0.56027 0.64151 0.0
H2933 H 0.35963 0.55435 0.59624 0.0
H2934 H 0.31799 0.47577 0.61521 0.0
H2935 H 0.33184 0.50469 0.6139 0.0
H2936 H 0.38927 0.50413 0.62457 0.0
C2937 C 0.39653 0.56923 0.63038 0.0
C2938 C 0.36642 0.54344 0.60217 0.0
C2939 C 0.40172 0.58658 0.63316 0.0
C2940 C 0.33195 0.47676 0.61255 0.0
C2941 C 0.33986 0.49329 0.61169 0.0
C2942 C 0.38284 0.51493 0.61804 0.0
C2943 C 0.38983 0.56381 0.61374 0.0
C2944 C 0.38238 0.54597 0.61141 0.0
C2945 C 0.35805 0.49502 0.60876 0.0
C2946 C 0.3667 0.51246 0.60911 0.0
H2947 H 0.39306 0.60233 0.59162 0.0
H2948 H 0.38445 0.57205 0.58666 0.0
H2949 H 0.40296 0.53301 0.62624 0.0
H2950 H 0.36845 0.45211 0.60618 0.0
H2951 H 0.38206 0.4808 0.60396 0.0
C2952 C 0.79201 0.12052 0.8409 0.0
C2953 C 0.799 0.10673 0.85092 0.0
C2954 C 0.77434 0.12498 0.84248 0.0
C2955 C 0.7364 0.11986 0.87312 0.0
H2956 H 0.71064 0.13895 0.83313 0.0
C2957 C 0.66668 0.14724 0.88225 0.0
C2958 C 0.65438 0.14339 0.86873 0.0
C2959 C 0.68459 0.14416 0.87961 0.0
C2960 C 0.71755 0.13351 0.84444 0.0
H2961 H 0.7927 0.08626 0.8698 0.0
H2962 H 0.76166 0.09355 0.872 0.0
H2963 H 0.74049 0.12898 0.82887 0.0
H2964 H 0.65139 0.13375 0.84163 0.0
H2965 H 0.68227 0.12797 0.83724 0.0
H2966 H 0.71314 0.12356 0.88847 0.0
C2967 C 0.76997 0.10134 0.86337 0.0
C2968 C 0.73482 0.12798 0.84204 0.0
C2969 C 0.78774 0.09702 0.86198 0.0
C2970 C 0.66047 0.13701 0.85232 0.0
C2971 C 0.67829 0.13374 0.84976 0.0
C2972 C 0.71904 0.12516 0.87546 0.0
C2973 C 0.76311 0.11562 0.85392 0.0
C2974 C 0.74451 0.12109 0.85635 0.0
C2975 C 0.69058 0.13697 0.86347 0.0
C2976 C 0.70935 0.13205 0.86115 0.0
H2977 H 0.80034 0.12837 0.83234 0.0
H2978 H 0.76969 0.1362 0.83516 0.0
H2979 H 0.74349 0.11492 0.88456 0.0
H2980 H 0.66244 0.15224 0.89503 0.0
H2981 H 0.69369 0.14719 0.89035 0.0
C2982 C 0.89882 0.90535 0.36148 0.0
C2983 C 0.90111 0.89576 0.37727 0.0
C2984 C 0.89392 0.92287 0.36216 0.0
C2985 C 0.89082 0.96173 0.39107 0.0
H2986 H 0.85082 0.97263 0.36103 0.0
C2987 C 0.85454 0.02731 0.39732 0.0
C2988 C 0.8497 0.03545 0.38129 0.0
C2989 C 0.86044 0.01006 0.39729 0.0
C2990 C 0.86212 0.9699 0.36936 0.0
H2991 H 0.9012 0.89747 0.40615 0.0
H2992 H 0.89285 0.9281 0.40729 0.0
H2993 H 0.86366 0.94368 0.35961 0.0
H2994 H 0.84675 0.03169 0.35275 0.0
H2995 H 0.85726 0.00186 0.35267 0.0
H2996 H 0.88944 0.98803 0.40067 0.0
C2997 C 0.89476 0.92201 0.3944 0.0
C2998 C 0.86949 0.95331 0.36852 0.0
C2999 C 0.89954 0.90444 0.39373 0.0
C3000 C 0.8503 0.0258 0.36535 0.0
C3001 C 0.85629 0.00863 0.36532 0.0
C3002 C 0.88353 0.97841 0.39181 0.0
C3003 C 0.89134 0.93122 0.37863 0.0
C3004 C 0.88394 0.94905 0.37932 0.0
C3005 C 0.86169 0.00062 0.38124 0.0
C3006 C 0.8691 0.98271 0.38093 0.0
H3007 H 0.89998 0.89914 0.34855 0.0
H3008 H 0.89167 0.92976 0.34979 0.0
H3009 H 0.90201 0.95883 0.39949 0.0
H3010 H 0.85415 0.03436 0.40984 0.0
H3011 H 0.86416 0.00419 0.40985 0.0
C3012 C 0.34931 0.66279 0.65916 0.0
C3013 C 0.35511 0.66428 0.64145 0.0
C3014 C 0.33149 0.66038 0.66284 0.0
C3015 C 0.29862 0.63802 0.66329 0.0
H3016 H 0.2594 0.65607 0.63614 0.0
C3017 C 0.23479 0.59876 0.651 0.0
C3018 C 0.21882 0.60774 0.65106 0.0
C3019 C 0.25072 0.60789 0.65269 0.0
C3020 C 0.27016 0.65105 0.64404 0.0
H3021 H 0.34655 0.66644 0.61393 0.0
H3022 H 0.31555 0.66208 0.62033 0.0
H3023 H 0.28807 0.67052 0.63429 0.0
H3024 H 0.20708 0.63343 0.65227 0.0
H3025 H 0.23473 0.64925 0.65576 0.0
H3026 H 0.28082 0.61837 0.6728 0.0
C3027 C 0.32472 0.66275 0.63139 0.0
C3028 C 0.2866 0.65925 0.64287 0.0
C3029 C 0.34255 0.66522 0.62771 0.0
C3030 C 0.21907 0.62602 0.65289 0.0
C3031 C 0.23496 0.63515 0.65455 0.0
C3032 C 0.28221 0.62981 0.66444 0.0
C3033 C 0.31912 0.65942 0.6489 0.0
C3034 C 0.3011 0.6526 0.65219 0.0
C3035 C 0.25097 0.62621 0.65427 0.0
C3036 C 0.2679 0.63599 0.65453 0.0
H3037 H 0.35862 0.66229 0.67011 0.0
H3038 H 0.3275 0.65829 0.67652 0.0
H3039 H 0.30956 0.63239 0.67047 0.0
H3040 H 0.23496 0.5847 0.64935 0.0
H3041 H 0.26285 0.60065 0.65212 0.0
C3042 C 0.29344 0.39195 0.12979 0.0
C3043 C 0.29771 0.40801 0.13788 0.0
C3044 C 0.27605 0.38602 0.12929 0.0
C3045 C 0.2344 0.38742 0.15146 0.0
H3046 H 0.21317 0.38019 0.1049 0.0
C3047 C 0.15986 0.37647 0.14278 0.0
C3048 C 0.15374 0.36622 0.12844 0.0
C3049 C 0.1777 0.38052 0.1445 0.0
C3050 C 0.21892 0.38175 0.11803 0.0
H3051 H 0.28746 0.43046 0.15183 0.0
H3052 H 0.25689 0.41975 0.15147 0.0
H3053 H 0.24396 0.38897 0.10716 0.0
H3054 H 0.1615 0.35155 0.10509 0.0
H3055 H 0.19278 0.35784 0.10854 0.0
H3056 H 0.20971 0.37965 0.16248 0.0
C3057 C 0.26703 0.41187 0.14548 0.0
C3058 C 0.23652 0.38693 0.11928 0.0
C3059 C 0.28441 0.41799 0.14563 0.0
C3060 C 0.16586 0.35964 0.11617 0.0
C3061 C 0.18377 0.36338 0.1181 0.0
C3062 C 0.21688 0.38186 0.15026 0.0
C3063 C 0.26274 0.39594 0.13713 0.0
C3064 C 0.24431 0.38995 0.13597 0.0
C3065 C 0.18992 0.37412 0.13212 0.0
C3066 C 0.20884 0.37913 0.13351 0.0
H3067 H 0.30348 0.38421 0.12344 0.0
H3068 H 0.27296 0.37372 0.12276 0.0
H3069 H 0.24027 0.38955 0.16448 0.0
H3070 H 0.15078 0.38184 0.15238 0.0
H3071 H 0.1818 0.3891 0.15527 0.0
C3072 C 0.64203 0.88855 0.41253 0.0
C3073 C 0.62896 0.88355 0.40017 0.0
C3074 C 0.64026 0.88434 0.43056 0.0
C3075 C 0.61991 0.85218 0.45982 0.0
H3076 H 0.62587 0.88697 0.4971 0.0
C3077 C 0.62454 0.83669 0.53564 0.0
C3078 C 0.61373 0.84689 0.54657 0.0
C3079 C 0.62627 0.84056 0.51751 0.0
C3080 C 0.62419 0.87714 0.4868 0.0
H3081 H 0.60375 0.8703 0.39707 0.0
H3082 H 0.6008 0.86284 0.42847 0.0
H3083 H 0.62933 0.89548 0.46588 0.0
H3084 H 0.59595 0.86891 0.54695 0.0
H3085 H 0.59922 0.87572 0.51547 0.0
H3086 H 0.61487 0.83383 0.48078 0.0
C3087 C 0.61236 0.87005 0.42419 0.0
C3088 C 0.62627 0.88198 0.469 0.0
C3089 C 0.61399 0.87448 0.40625 0.0
C3090 C 0.60439 0.86077 0.53893 0.0
C3091 C 0.60633 0.86477 0.52093 0.0
C3092 C 0.61812 0.84728 0.47765 0.0
C3093 C 0.62553 0.8748 0.43647 0.0
C3094 C 0.62396 0.86958 0.45535 0.0
C3095 C 0.61744 0.85485 0.51011 0.0
C3096 C 0.62005 0.85977 0.49127 0.0
H3097 H 0.65372 0.89554 0.40825 0.0
H3098 H 0.65061 0.88811 0.4398 0.0
H3099 H 0.61822 0.84236 0.44951 0.0
H3100 H 0.63188 0.82591 0.54115 0.0
H3101 H 0.63493 0.83272 0.5094 0.0
C3102 C 0.32753 0.36924 0.66923 0.0
C3103 C 0.3265 0.35717 0.65512 0.0
C3104 C 0.32985 0.36347 0.6867 0.0
C3105 C 0.35045 0.32665 0.70906 0.0
H3106 H 0.33757 0.35239 0.75149 0.0
C3107 C 0.39448 0.33127 0.77112 0.0
C3108 C 0.38673 0.33287 0.78796 0.0
C3109 C 0.38404 0.33029 0.75578 0.0
C3110 C 0.34106 0.34479 0.73986 0.0
H3111 H 0.32498 0.32957 0.64847 0.0
H3112 H 0.32865 0.31953 0.67901 0.0
H3113 H 0.32248 0.35816 0.72348 0.0
H3114 H 0.36182 0.33483 0.80183 0.0
H3115 H 0.3437 0.33235 0.77528 0.0
H3116 H 0.36922 0.31349 0.72537 0.0
C3117 C 0.32823 0.33345 0.67651 0.0
C3118 C 0.33252 0.34825 0.72376 0.0
C3119 C 0.32604 0.33922 0.65903 0.0
C3120 C 0.36829 0.33293 0.78921 0.0
C3121 C 0.35786 0.33187 0.7739 0.0
C3122 C 0.35893 0.32315 0.72516 0.0
C3123 C 0.33103 0.34551 0.69042 0.0
C3124 C 0.33752 0.33962 0.70806 0.0
C3125 C 0.36561 0.33099 0.75698 0.0
C3126 C 0.35473 0.33258 0.74062 0.0
H3127 H 0.32787 0.38316 0.66667 0.0
H3128 H 0.33203 0.37314 0.69706 0.0
H3129 H 0.35477 0.31986 0.69721 0.0
H3130 H 0.40865 0.33138 0.76975 0.0
H3131 H 0.39047 0.32989 0.74294 0.0
C3132 C 0.88995 0.16984 0.02408 0.0
C3133 C 0.89048 0.15855 0.03876 0.0
C3134 C 0.88816 0.16313 0.0068 0.0
C3135 C 0.8935 0.12289 0.98026 0.0
H3136 H 0.86166 0.14562 0.94742 0.0
C3137 C 0.86081 0.11408 0.90531 0.0
C3138 C 0.87615 0.11129 0.89536 0.0
C3139 C 0.86188 0.11743 0.92359 0.0
C3140 C 0.87043 0.13898 0.95651 0.0
H3141 H 0.88842 0.13142 0.04691 0.0
H3142 H 0.8857 0.11976 0.0169 0.0
H3143 H 0.86528 0.15711 0.97756 0.0
H3144 H 0.90439 0.10815 0.89713 0.0
H3145 H 0.90626 0.11413 0.92892 0.0
H3146 H 0.89861 0.10473 0.95918 0.0
C3147 C 0.88719 0.13375 0.01864 0.0
C3148 C 0.8727 0.14573 0.97367 0.0
C3149 C 0.88893 0.14045 0.03587 0.0
C3150 C 0.89237 0.11054 0.90433 0.0
C3151 C 0.89343 0.11384 0.92261 0.0
C3152 C 0.89128 0.11617 0.96305 0.0
C3153 C 0.88672 0.145 0.00393 0.0
C3154 C 0.88433 0.13781 0.9857 0.0
C3155 C 0.87827 0.11795 0.9323 0.0
C3156 C 0.87977 0.1242 0.95097 0.0
H3157 H 0.89092 0.18385 0.02596 0.0
H3158 H 0.88795 0.17213 0.99569 0.0
H3159 H 0.90263 0.11656 0.98921 0.0
H3160 H 0.84807 0.11465 0.89885 0.0
H3161 H 0.84993 0.12022 0.93081 0.0
C3162 C 0.14466 0.6543 0.14593 0.0
C3163 C 0.15241 0.63928 0.13874 0.0
C3164 C 0.14314 0.65635 0.16433 0.0
C3165 C 0.14196 0.62885 0.20493 0.0
H3166 H 0.13448 0.67359 0.22793 0.0
C3167 C 0.12619 0.6377 0.27989 0.0
C3168 C 0.10937 0.64462 0.2825 0.0
C3169 C 0.13396 0.63823 0.26309 0.0
C3170 C 0.13662 0.66105 0.22163 0.0
H3171 H 0.16622 0.61551 0.14517 0.0
H3172 H 0.16457 0.61959 0.17735 0.0
H3173 H 0.14587 0.67271 0.19755 0.0
H3174 H 0.08749 0.65759 0.26988 0.0
H3175 H 0.10142 0.65902 0.24038 0.0
H3176 H 0.13307 0.61733 0.22932 0.0
C3177 C 0.15883 0.62938 0.1688 0.0
C3178 C 0.14303 0.66048 0.2042 0.0
C3179 C 0.15998 0.62712 0.15034 0.0
C3180 C 0.10052 0.65228 0.26813 0.0
C3181 C 0.10848 0.65317 0.25138 0.0
C3182 C 0.13598 0.62945 0.22247 0.0
C3183 C 0.14968 0.64363 0.17605 0.0
C3184 C 0.14536 0.64436 0.19542 0.0
C3185 C 0.12516 0.64596 0.24874 0.0
C3186 C 0.1329 0.64553 0.23078 0.0
H3187 H 0.13861 0.6639 0.13736 0.0
H3188 H 0.13583 0.66741 0.16922 0.0
H3189 H 0.14317 0.61618 0.19865 0.0
H3190 H 0.13312 0.63144 0.29073 0.0
H3191 H 0.14678 0.63249 0.26125 0.0
C3192 C 0.6316 0.12101 0.95743 0.0
C3193 C 0.61746 0.12995 0.94973 0.0
C3194 C 0.63097 0.11572 0.97519 0.0
C3195 C 0.60795 0.12302 0.01785 0.0
H3196 H 0.62693 0.07757 0.02939 0.0
C3197 C 0.60288 0.09491 0.08851 0.0
C3198 C 0.61893 0.08928 0.09578 0.0
C3199 C 0.60124 0.09794 0.07024 0.0
C3200 C 0.62162 0.09029 0.02636 0.0
H3201 H 0.59173 0.14078 0.95474 0.0
H3202 H 0.5905 0.13133 0.98577 0.0
H3203 H 0.62715 0.08765 -0.00142 0.0
H3204 H 0.64539 0.08115 0.08931 0.0
H3205 H 0.64244 0.08633 0.05741 0.0
H3206 H 0.60245 0.12564 0.04566 0.0
C3207 C 0.60218 0.12857 0.97811 0.0
C3208 C 0.62182 0.09613 0.00874 0.0
C3209 C 0.60287 0.13398 0.96033 0.0
C3210 C 0.63287 0.08554 0.08418 0.0
C3211 C 0.63118 0.08847 0.06588 0.0
C3212 C 0.60765 0.11713 0.03545 0.0
C3213 C 0.61612 0.11913 0.98566 0.0
C3214 C 0.61519 0.11266 0.0043 0.0
C3215 C 0.61554 0.09526 0.05882 0.0
C3216 C 0.61465 0.10079 0.03992 0.0
H3217 H 0.6431 0.11784 0.94966 0.0
H3218 H 0.64213 0.10888 0.98069 0.0
H3219 H 0.60294 0.13589 0.01495 0.0
H3220 H 0.59183 0.09783 0.09702 0.0
H3221 H 0.58893 0.10287 0.06511 0.0
C3222 C 0.09887 0.35249 0.23023 0.0
C3223 C 0.10885 0.3573 0.21533 0.0
C3224 C 0.10649 0.35245 0.2472 0.0
C3225 C 0.14177 0.3734 0.27298 0.0
H3226 H 0.1297 0.33792 0.30771 0.0
C3227 C 0.14161 0.3848 0.34869 0.0
C3228 C 0.1448 0.37061 0.36007 0.0
C3229 C 0.14215 0.38261 0.33022 0.0
C3230 C 0.13351 0.34779 0.29812 0.0
H3231 H 0.13448 0.3664 0.20654 0.0
H3232 H 0.14786 0.36602 0.23611 0.0
H3233 H 0.12057 0.33411 0.2768 0.0
H3234 H 0.15312 0.34361 0.36096 0.0
H3235 H 0.15418 0.33985 0.32876 0.0
H3236 H 0.1544 0.38725 0.29443 0.0
C3237 C 0.1342 0.36212 0.23466 0.0
C3238 C 0.12807 0.3457 0.28046 0.0
C3239 C 0.1266 0.36207 0.21768 0.0
C3240 C 0.15021 0.3547 0.3526 0.0
C3241 C 0.15078 0.35252 0.33413 0.0
C3242 C 0.14718 0.37552 0.29069 0.0
C3243 C 0.12419 0.35744 0.24961 0.0
C3244 C 0.13177 0.35867 0.2678 0.0
C3245 C 0.14599 0.36622 0.32276 0.0
C3246 C 0.14276 0.36292 0.30353 0.0
H3247 H 0.08511 0.34895 0.22879 0.0
H3248 H 0.09834 0.34907 0.2585 0.0
H3249 H 0.14474 0.38368 0.26353 0.0
H3250 H 0.1375 0.39728 0.35398 0.0
H3251 H 0.13834 0.39343 0.32183 0.0
C3252 C 0.88208 0.9239 0.58338 0.0
C3253 C 0.89619 0.92532 0.59545 0.0
C3254 C 0.88524 0.92216 0.56514 0.0
C3255 C 0.91917 0.9022 0.5384 0.0
H3256 H 0.88691 0.91187 0.49965 0.0
C3257 C 0.92199 0.86512 0.47123 0.0
C3258 C 0.9056 0.85909 0.46499 0.0
C3259 C 0.92296 0.87722 0.48523 0.0
C3260 C 0.89606 0.90909 0.51034 0.0
H3261 H 0.92448 0.92869 0.59768 0.0
H3262 H 0.92993 0.92595 0.56585 0.0
H3263 H 0.88491 0.92849 0.52741 0.0
H3264 H 0.87741 0.86067 0.46852 0.0
H3265 H 0.87906 0.88139 0.49315 0.0
H3266 H 0.92977 0.88226 0.52175 0.0
C3267 C 0.91648 0.9256 0.57051 0.0
C3268 C 0.89495 0.91864 0.52619 0.0
C3269 C 0.91333 0.92725 0.58875 0.0
C3270 C 0.89023 0.8651 0.47312 0.0
C3271 C 0.89117 0.87718 0.48703 0.0
C3272 C 0.92028 0.89267 0.52258 0.0
C3273 C 0.90256 0.92194 0.55867 0.0
C3274 C 0.9061 0.91487 0.54062 0.0
C3275 C 0.90753 0.88345 0.49319 0.0
C3276 C 0.90832 0.89557 0.50863 0.0
H3277 H 0.86869 0.92252 0.58807 0.0
H3278 H 0.87419 0.91938 0.5564 0.0
H3279 H 0.9278 0.89873 0.54932 0.0
H3280 H 0.93404 0.86036 0.46547 0.0
H3281 H 0.93576 0.88173 0.48977 0.0
C3282 C 0.40864 0.64291 0.71289 0.0
C3283 C 0.41274 0.62805 0.70272 0.0
C3284 C 0.40281 0.64117 0.73041 0.0
C3285 C 0.39954 0.61079 0.76846 0.0
H3286 H 0.35807 0.63764 0.77976 0.0
C3287 C 0.36138 0.59944 0.83345 0.0
C3288 C 0.3571 0.61459 0.84309 0.0
C3289 C 0.36708 0.60061 0.81582 0.0
C3290 C 0.36972 0.63015 0.77687 0.0
H3291 H 0.41509 0.59984 0.7034 0.0
H3292 H 0.40492 0.59685 0.73399 0.0
H3293 H 0.372 0.64111 0.75079 0.0
H3294 H 0.35427 0.64268 0.84124 0.0
H3295 H 0.36433 0.64474 0.81064 0.0
H3296 H 0.39731 0.59991 0.79458 0.0
C3297 C 0.40618 0.60982 0.7284 0.0
C3298 C 0.37774 0.63219 0.7603 0.0
C3299 C 0.412 0.61154 0.71084 0.0
C3300 C 0.35759 0.63078 0.83431 0.0
C3301 C 0.36329 0.63195 0.81669 0.0
C3302 C 0.39152 0.60878 0.78505 0.0
C3303 C 0.40101 0.62457 0.73816 0.0
C3304 C 0.39278 0.62258 0.75594 0.0
C3305 C 0.36858 0.61693 0.80742 0.0
C3306 C 0.37655 0.61847 0.78946 0.0
H3307 H 0.40921 0.65584 0.70709 0.0
H3308 H 0.39928 0.65282 0.73775 0.0
H3309 H 0.41119 0.60332 0.76553 0.0
H3310 H 0.36109 0.58672 0.83974 0.0
H3311 H 0.37072 0.58876 0.80889 0.0
C3312 C 0.53397 0.59902 0.85243 0.0
C3313 C 0.54407 0.61449 0.85182 0.0
C3314 C 0.51699 0.59918 0.85943 0.0
C3315 C 0.48018 0.62767 0.87156 0.0
H3316 H 0.47016 0.5918 0.90662 0.0
C3317 C 0.4154 0.6284 0.90942 0.0
C3318 C 0.40613 0.61242 0.90885 0.0
C3319 C 0.43334 0.62902 0.90557 0.0
C3320 C 0.47273 0.60186 0.89683 0.0
H3321 H 0.54385 0.64242 0.85677 0.0
H3322 H 0.51417 0.6427 0.86877 0.0
H3323 H 0.49831 0.59195 0.89114 0.0
H3324 H 0.40887 0.58435 0.90593 0.0
H3325 H 0.43998 0.58548 0.89907 0.0
H3326 H 0.45454 0.6374 0.87691 0.0
C3327 C 0.5194 0.63045 0.86399 0.0
C3328 C 0.4888 0.60189 0.88789 0.0
C3329 C 0.53641 0.63028 0.85712 0.0
C3330 C 0.41555 0.59692 0.90632 0.0
C3331 C 0.43346 0.59755 0.9024 0.0
C3332 C 0.46409 0.6276 0.88043 0.0
C3333 C 0.50975 0.61482 0.86577 0.0
C3334 C 0.49262 0.61471 0.87508 0.0
C3335 C 0.44234 0.61369 0.9011 0.0
C3336 C 0.46013 0.61463 0.89308 0.0
H3337 H 0.53949 0.58664 0.84844 0.0
H3338 H 0.50969 0.58699 0.86033 0.0
H3339 H 0.48272 0.63764 0.86167 0.0
H3340 H 0.40861 0.64058 0.91157 0.0
H3341 H 0.43995 0.64162 0.90517 0.0
C3342 C 0.66528 0.27609 0.10283 0.0
C3343 C 0.655 0.28943 0.10997 0.0
C3344 C 0.66391 0.25911 0.10948 0.0
C3345 C 0.64533 0.23297 0.14722 0.0
H3346 H 0.65012 0.195 0.11334 0.0
C3347 C 0.6232 0.16012 0.15726 0.0
C3348 C 0.63588 0.1477 0.15256 0.0
C3349 C 0.62637 0.17794 0.15431 0.0
C3350 C 0.64886 0.20549 0.12296 0.0
H3351 H 0.63488 0.29564 0.12921 0.0
H3352 H 0.63189 0.26592 0.14039 0.0
H3353 H 0.65384 0.22495 0.10332 0.0
H3354 H 0.66215 0.14441 0.14185 0.0
H3355 H 0.66743 0.1753 0.13655 0.0
H3356 H 0.63955 0.21317 0.16664 0.0
C3357 C 0.64158 0.26854 0.1302 0.0
C3358 C 0.65112 0.22269 0.11728 0.0
C3359 C 0.64323 0.28558 0.12377 0.0
C3360 C 0.65207 0.15355 0.14566 0.0
C3361 C 0.65511 0.17125 0.14252 0.0
C3362 C 0.64274 0.21571 0.15283 0.0
C3363 C 0.65183 0.25503 0.12309 0.0
C3364 C 0.64951 0.23669 0.12933 0.0
C3365 C 0.64215 0.18353 0.1464 0.0
C3366 C 0.64462 0.20186 0.14075 0.0
H3367 H 0.67445 0.27883 0.09216 0.0
H3368 H 0.67231 0.24919 0.1039 0.0
H3369 H 0.64422 0.24335 0.15697 0.0
H3370 H 0.61062 0.15605 0.16262 0.0
H3371 H 0.61618 0.18723 0.15737 0.0
C3372 C 0.95271 0.35083 0.3326 0.0
C3373 C 0.94492 0.36709 0.32934 0.0
C3374 C 0.96902 0.34995 0.34114 0.0
C3375 C 0.99469 0.37504 0.37343 0.0
H3376 H 0.03302 0.3444 0.36113 0.0
C3377 C 0.06399 0.38251 0.40283 0.0
C3378 C 0.07438 0.3676 0.40502 0.0
C3379 C 0.04716 0.38109 0.39553 0.0
C3380 C 0.02228 0.35277 0.36495 0.0
H3381 H 0.94889 0.39519 0.33092 0.0
H3382 H 0.97736 0.3936 0.34573 0.0
H3383 H 0.00671 0.34486 0.34239 0.0
H3384 H 0.07466 0.33932 0.40268 0.0
H3385 H 0.04508 0.33686 0.3902 0.0
H3386 H 0.01012 0.38295 0.39598 0.0
C3387 C 0.97066 0.38156 0.34203 0.0
C3388 C 0.0073 0.35312 0.35413 0.0
C3389 C 0.95442 0.38245 0.33342 0.0
C3390 C 0.06705 0.35109 0.40105 0.0
C3391 C 0.05017 0.34968 0.39374 0.0
C3392 C 0.00958 0.37461 0.38431 0.0
C3393 C 0.97777 0.36532 0.34658 0.0
C3394 C 0.99352 0.3645 0.35811 0.0
C3395 C 0.04031 0.36473 0.39034 0.0
C3396 C 0.02366 0.36368 0.38003 0.0
H3397 H 0.94577 0.33876 0.32952 0.0
H3398 H 0.97427 0.33726 0.34444 0.0
H3399 H 0.98404 0.38363 0.37705 0.0
H3400 H 0.06918 0.39542 0.40584 0.0
H3401 H 0.03997 0.39297 0.39301 0.0
C3402 C 0.86725 0.84759 0.63674 0.0
C3403 C 0.88373 0.85574 0.63935 0.0
C3404 C 0.86612 0.83012 0.63126 0.0
C3405 C 0.89164 0.79725 0.60721 0.0
H3406 H 0.85865 0.76388 0.62735 0.0
C3407 C 0.89567 0.72339 0.59334 0.0
C3408 C 0.87998 0.7136 0.59211 0.0
C3409 C 0.89536 0.74104 0.59804 0.0
C3410 C 0.86775 0.77311 0.62137 0.0
H3411 H 0.91193 0.8516 0.63895 0.0
H3412 H 0.90989 0.82123 0.62952 0.0
H3413 H 0.85955 0.79383 0.63861 0.0
H3414 H 0.85157 0.7149 0.59407 0.0
H3415 H 0.85103 0.74583 0.60194 0.0
H3416 H 0.89982 0.77665 0.58992 0.0
C3417 C 0.89787 0.82843 0.63146 0.0
C3418 C 0.8683 0.79024 0.62789 0.0
C3419 C 0.899 0.84581 0.63702 0.0
C3420 C 0.86391 0.72204 0.59501 0.0
C3421 C 0.86361 0.73973 0.59966 0.0
C3422 C 0.89103 0.78017 0.60063 0.0
C3423 C 0.88144 0.82049 0.62818 0.0
C3424 C 0.8804 0.80243 0.62101 0.0
C3425 C 0.87935 0.74937 0.60153 0.0
C3426 C 0.87921 0.76783 0.60775 0.0
H3427 H 0.85523 0.85479 0.63846 0.0
H3428 H 0.85327 0.82436 0.62881 0.0
H3429 H 0.90087 0.80645 0.60139 0.0
H3430 H 0.90827 0.71729 0.59124 0.0
H3431 H 0.90776 0.74799 0.59955 0.0
C3432 C 0.5163 0.38755 0.66605 0.0
C3433 C 0.53112 0.38749 0.65496 0.0
C3434 C 0.49944 0.38887 0.65876 0.0
C3435 C 0.47526 0.38042 0.61683 0.0
H3436 H 0.43807 0.40516 0.64098 0.0
C3437 C 0.40183 0.3672 0.60289 0.0
C3438 C 0.38995 0.38103 0.60461 0.0
C3439 C 0.41964 0.36975 0.6068 0.0
C3440 C 0.44834 0.39841 0.63388 0.0
H3441 H 0.5397 0.38814 0.62741 0.0
H3442 H 0.51053 0.39132 0.61483 0.0
H3443 H 0.46798 0.40709 0.65248 0.0
H3444 H 0.38771 0.40866 0.61073 0.0
H3445 H 0.41881 0.41317 0.61705 0.0
H3446 H 0.45567 0.37189 0.59812 0.0
C3447 C 0.51189 0.39031 0.62916 0.0
C3448 C 0.46546 0.39932 0.64064 0.0
C3449 C 0.52871 0.38888 0.63644 0.0
C3450 C 0.39646 0.39768 0.60934 0.0
C3451 C 0.41428 0.40025 0.61313 0.0
C3452 C 0.45817 0.37959 0.61002 0.0
C3453 C 0.49703 0.39007 0.6402 0.0
C3454 C 0.47907 0.39014 0.63235 0.0
C3455 C 0.42599 0.3862 0.61239 0.0
C3456 C 0.44445 0.38836 0.61861 0.0
H3457 H 0.51774 0.38628 0.68035 0.0
H3458 H 0.48827 0.38834 0.66765 0.0
H3459 H 0.48538 0.37302 0.6102 0.0
H3460 H 0.39729 0.3542 0.59932 0.0
H3461 H 0.42824 0.35859 0.60625 0.0
C3462 C 0.86546 0.29351 0.90163 0.0
C3463 C 0.85575 0.30636 0.89274 0.0
C3464 C 0.86648 0.27661 0.89457 0.0
C3465 C 0.86634 0.25334 0.85275 0.0
H3466 H 0.85299 0.21212 0.87962 0.0
C3467 C 0.88295 0.18051 0.83642 0.0
C3468 C 0.86844 0.16898 0.83707 0.0
C3469 C 0.88103 0.1981 0.84104 0.0
C3470 C 0.85674 0.22356 0.872 0.0
H3471 H 0.83926 0.31152 0.86967 0.0
H3472 H 0.84141 0.28216 0.85726 0.0
H3473 H 0.85045 0.24107 0.89334 0.0
H3474 H 0.84027 0.16725 0.84168 0.0
H3475 H 0.83714 0.19779 0.85002 0.0
H3476 H 0.87302 0.23573 0.83155 0.0
C3477 C 0.8481 0.28516 0.86969 0.0
C3478 C 0.85538 0.24003 0.87986 0.0
C3479 C 0.84678 0.3019 0.8769 0.0
C3480 C 0.85177 0.17569 0.84113 0.0
C3481 C 0.84994 0.19315 0.846 0.0
C3482 C 0.86806 0.23682 0.84501 0.0
C3483 C 0.85811 0.27247 0.87836 0.0
C3484 C 0.86003 0.25503 0.87025 0.0
C3485 C 0.86464 0.20432 0.84655 0.0
C3486 C 0.8631 0.22185 0.85454 0.0
H3487 H 0.87251 0.29658 0.91383 0.0
H3488 H 0.87425 0.26695 0.90146 0.0
H3489 H 0.87008 0.2648 0.84516 0.0
H3490 H 0.89594 0.17577 0.83329 0.0
H3491 H 0.89252 0.20658 0.84135 0.0
C3492 C 0.07642 0.64114 0.08615 0.0
C3493 C 0.08718 0.62668 0.08955 0.0
C3494 C 0.05874 0.64091 0.09121 0.0
C3495 C 0.02945 0.61994 0.12383 0.0
H3496 H 0.99213 0.63953 0.09509 0.0
C3497 C 0.95591 0.61415 0.14288 0.0
C3498 C 0.94513 0.62848 0.13909 0.0
C3499 C 0.97339 0.614 0.13716 0.0
C3500 C 0.00244 0.63421 0.10339 0.0
H3501 H 0.08748 0.60039 0.10034 0.0
H3502 H 0.0567 0.59993 0.10881 0.0
H3503 H 0.02197 0.63873 0.08339 0.0
H3504 H 0.9445 0.65422 0.1271 0.0
H3505 H 0.97498 0.6541 0.11749 0.0
H3506 H 0.01 0.61555 0.14389 0.0
C3507 C 0.062 0.61153 0.10249 0.0
C3508 C 0.01952 0.63371 0.09665 0.0
C3509 C 0.07963 0.61174 0.09741 0.0
C3510 C 0.9524 0.64291 0.13011 0.0
C3511 C 0.96985 0.64279 0.12446 0.0
C3512 C 0.01238 0.62049 0.1306 0.0
C3513 C 0.05146 0.62625 0.09983 0.0
C3514 C 0.03322 0.62656 0.10678 0.0
C3515 C 0.98046 0.6282 0.12759 0.0
C3516 C -0.00133 0.62765 0.12047 0.0
H3517 H 0.08179 0.65287 0.08016 0.0
H3518 H 0.05098 0.65249 0.08904 0.0
H3519 H 0.03977 0.61463 0.13211 0.0
H3520 H 0.95068 0.6028 0.14971 0.0
H3521 H 0.98116 0.6025 0.1397 0.0
C3522 C 0.64741 0.71378 0.3883 0.0
C3523 C 0.65578 0.70013 0.37929 0.0
C3524 C 0.64548 0.73004 0.38016 0.0
C3525 C 0.63338 0.75932 0.35649 0.0
H3526 H 0.67019 0.77899 0.32689 0.0
C3527 C 0.62542 0.82759 0.32761 0.0
C3528 C 0.64006 0.83858 0.33061 0.0
C3529 C 0.62709 0.80946 0.32878 0.0
C3530 C 0.65977 0.77369 0.33511 0.0
H3531 H 0.66891 0.69288 0.35476 0.0
H3532 H 0.66514 0.72098 0.34045 0.0
H3533 H 0.6742 0.75047 0.34039 0.0
H3534 H 0.66827 0.83907 0.3352 0.0
H3535 H 0.67106 0.80778 0.33771 0.0
H3536 H 0.61945 0.78298 0.35222 0.0
C3537 C 0.66037 0.71934 0.35392 0.0
C3538 C 0.66199 0.75724 0.34273 0.0
C3539 C 0.6625 0.70317 0.36214 0.0
C3540 C 0.65666 0.83102 0.33301 0.0
C3541 C 0.65829 0.81296 0.33434 0.0
C3542 C 0.63126 0.77585 0.34905 0.0
C3543 C 0.65167 0.73293 0.36274 0.0
C3544 C 0.64896 0.74999 0.3538 0.0
C3545 C 0.64339 0.802 0.33308 0.0
C3546 C 0.64457 0.7834 0.33855 0.0
H3547 H 0.64218 0.71186 0.40156 0.0
H3548 H 0.63909 0.74034 0.38753 0.0
H3549 H 0.62288 0.75398 0.36458 0.0
H3550 H 0.61248 0.83298 0.32549 0.0
H3551 H 0.61543 0.80135 0.32722 0.0
C3552 C 0.89536 0.41097 0.59344 0.0
C3553 C 0.90277 0.40496 0.60944 0.0
C3554 C 0.89444 0.42882 0.58993 0.0
C3555 C 0.89477 0.47125 0.61387 0.0
H3556 H 0.89218 0.48958 0.5658 0.0
C3557 C 0.88442 0.54432 0.59843 0.0
C3558 C 0.8696 0.54745 0.58773 0.0
C3559 C 0.89096 0.52744 0.60016 0.0
C3560 C 0.89292 0.48459 0.57928 0.0
H3561 H 0.91612 0.41291 0.63377 0.0
H3562 H 0.91527 0.44409 0.62728 0.0
H3563 H 0.90067 0.45926 0.57047 0.0
H3564 H 0.85004 0.5356 0.57036 0.0
H3565 H 0.86181 0.50598 0.573 0.0
H3566 H 0.88729 0.49678 0.62257 0.0
C3567 C 0.90953 0.43505 0.61772 0.0
C3568 C 0.89768 0.46721 0.582 0.0
C3569 C 0.91017 0.41716 0.62139 0.0
C3570 C 0.86158 0.53348 0.57856 0.0
C3571 C 0.86833 0.51663 0.58001 0.0
C3572 C 0.89037 0.4887 0.61115 0.0
C3573 C 0.90119 0.44115 0.60218 0.0
C3574 C 0.89827 0.46017 0.59932 0.0
C3575 C 0.88292 0.51345 0.59103 0.0
C3576 C 0.88907 0.49541 0.59383 0.0
H3577 H 0.8894 0.40194 0.58399 0.0
H3578 H 0.88765 0.43288 0.57796 0.0
H3579 H 0.89472 0.46633 0.62738 0.0
H3580 H 0.8906 0.55483 0.60596 0.0
H3581 H 0.90218 0.52527 0.60878 0.0
C3582 C 0.35769 0.97062 0.36448 0.0
C3583 C 0.35422 0.96519 0.38197 0.0
C3584 C 0.368 0.98546 0.36135 0.0
C3585 C 0.40085 0.01471 0.38259 0.0
H3586 H 0.38404 0.04862 0.34846 0.0
C3587 C 0.41606 0.08768 0.38637 0.0
C3588 C 0.41446 0.09793 0.37095 0.0
C3589 C 0.41427 0.06956 0.38537 0.0
C3590 C 0.38927 0.03912 0.35768 0.0
H3591 H 0.35787 0.9714 0.40991 0.0
H3592 H 0.37598 0.99744 0.4045 0.0
H3593 H 0.36858 0.02093 0.35163 0.0
H3594 H 0.41243 0.09704 0.34209 0.0
H3595 H 0.40971 0.06533 0.34034 0.0
H3596 H 0.42127 0.03318 0.38901 0.0
C3597 C 0.37115 0.98994 0.3932 0.0
C3598 C 0.38029 0.02327 0.35958 0.0
C3599 C 0.36078 0.9751 0.39631 0.0
C3600 C 0.41341 0.08954 0.35427 0.0
C3601 C 0.41171 0.07137 0.35327 0.0
C3602 C 0.40991 0.03056 0.38063 0.0
C3603 C 0.37498 0.99518 0.37568 0.0
C3604 C 0.38569 0.01112 0.3724 0.0
C3605 C 0.411 0.06131 0.36891 0.0
C3606 C 0.40391 0.04317 0.36851 0.0
H3607 H 0.35282 0.9631 0.3532 0.0
H3608 H 0.37076 0.98917 0.34772 0.0
H3609 H 0.40549 0.00541 0.39234 0.0
H3610 H 0.41715 0.09369 0.39942 0.0
H3611 H 0.41386 0.06226 0.3977 0.0
C3612 C 0.26798 0.10401 0.64968 0.0
C3613 C 0.28273 0.11516 0.65061 0.0
C3614 C 0.25105 0.11085 0.64869 0.0
C3615 C 0.2248 0.15043 0.65608 0.0
H3616 H 0.19395 0.12907 0.62075 0.0
C3617 C 0.15148 0.15799 0.62115 0.0
C3618 C 0.14107 0.15884 0.63656 0.0
C3619 C 0.16967 0.15599 0.62254 0.0
C3620 C 0.20246 0.13536 0.6305 0.0
H3621 H 0.29117 0.14236 0.65086 0.0
H3622 H 0.26168 0.15422 0.64963 0.0
H3623 H 0.22359 0.1181 0.6247 0.0
H3624 H 0.14185 0.15998 0.66548 0.0
H3625 H 0.17351 0.15646 0.66784 0.0
H3626 H 0.20351 0.16765 0.66192 0.0
C3627 C 0.26321 0.14017 0.65 0.0
C3628 C 0.21936 0.12888 0.63295 0.0
C3629 C 0.28015 0.13333 0.6509 0.0
C3630 C 0.14944 0.15923 0.65332 0.0
C3631 C 0.16763 0.15728 0.6547 0.0
C3632 C 0.20779 0.15686 0.6537 0.0
C3633 C 0.24851 0.12901 0.64853 0.0
C3634 C 0.23066 0.13621 0.64588 0.0
C3635 C 0.17784 0.15489 0.63935 0.0
C3636 C 0.19641 0.14931 0.64095 0.0
H3637 H 0.26954 0.08997 0.64935 0.0
H3638 H 0.23995 0.1019 0.6478 0.0
H3639 H 0.23322 0.15633 0.66615 0.0
H3640 H 0.1455 0.15778 0.60802 0.0
H3641 H 0.17726 0.15452 0.61046 0.0
C3642 C 0.11661 0.90166 0.8954 0.0
C3643 C 0.10606 0.89662 0.88082 0.0
C3644 C 0.11946 0.91928 0.89929 0.0
C3645 C 0.11825 0.96259 0.87796 0.0
H3646 H 0.12605 0.97883 0.92643 0.0
C3647 C 0.13333 0.03452 0.89428 0.0
C3648 C 0.14881 0.03717 0.90421 0.0
C3649 C 0.12578 0.0179 0.89292 0.0
C3650 C 0.12387 0.97443 0.91285 0.0
H3651 H 0.08974 0.90602 0.85921 0.0
H3652 H 0.09427 0.93687 0.86631 0.0
H3653 H 0.11627 0.94876 0.92111 0.0
H3654 H 0.16853 0.02479 0.92059 0.0
H3655 H 0.15512 0.99556 0.91843 0.0
H3656 H 0.12577 0.98834 0.86977 0.0
C3657 C 0.10072 0.92721 0.87449 0.0
C3658 C 0.11836 0.95722 0.90977 0.0
C3659 C 0.09805 0.90955 0.87045 0.0
C3660 C 0.15646 0.02303 0.91305 0.0
C3661 C 0.14878 0.0064 0.91187 0.0
C3662 C 0.12351 0.97984 0.88106 0.0
C3663 C 0.11167 0.93229 0.88881 0.0
C3664 C 0.1158 0.951 0.89226 0.0
C3665 C 0.13356 0.00367 0.9015 0.0
C3666 C 0.12663 0.98582 0.8985 0.0
H3667 H 0.12317 0.89201 0.90349 0.0
H3668 H 0.12827 0.92265 0.91017 0.0
H3669 H 0.11675 0.95822 0.86429 0.0
H3670 H 0.12745 0.04512 0.88692 0.0
H3671 H 0.11406 0.01608 0.88484 0.0
C3672 C 0.83018 0.34511 0.61285 0.0
C3673 C 0.84157 0.34948 0.62702 0.0
C3674 C 0.81202 0.34695 0.61468 0.0
C3675 C 0.77663 0.35338 0.648 0.0
H3676 H 0.75232 0.3745 0.60811 0.0
C3677 C 0.70603 0.38016 0.65344 0.0
C3678 C 0.69449 0.37534 0.63956 0.0
C3679 C 0.72404 0.37696 0.65202 0.0
C3680 C 0.7589 0.36848 0.61931 0.0
H3681 H 0.84269 0.35851 0.65449 0.0
H3682 H 0.81118 0.36194 0.65753 0.0
H3683 H 0.78339 0.36765 0.60552 0.0
H3684 H 0.69282 0.36378 0.61314 0.0
H3685 H 0.72414 0.3583 0.61067 0.0
H3686 H 0.7521 0.35447 0.66185 0.0
C3687 C 0.81621 0.35691 0.64507 0.0
C3688 C 0.77668 0.36446 0.61781 0.0
C3689 C 0.83433 0.35501 0.64328 0.0
C3690 C 0.70136 0.36765 0.62409 0.0
C3691 C 0.71932 0.36457 0.62262 0.0
C3692 C 0.75885 0.35749 0.64954 0.0
C3693 C 0.80486 0.35325 0.63069 0.0
C3694 C 0.78577 0.35685 0.63213 0.0
C3695 C 0.73083 0.36902 0.63662 0.0
C3696 C 0.74981 0.36507 0.6352 0.0
H3697 H 0.83531 0.34071 0.60018 0.0
H3698 H 0.8036 0.34369 0.60345 0.0
H3699 H 0.78317 0.34734 0.65921 0.0
H3700 H 0.70112 0.38609 0.66554 0.0
H3701 H 0.73265 0.38069 0.66294 0.0
C3702 C 0.59103 0.58401 0.11054 0.0
C3703 C 0.58949 0.59168 0.12751 0.0
C3704 C 0.59642 0.5667 0.10873 0.0
C3705 C 0.60425 0.52562 0.13398 0.0
H3706 H 0.63867 0.51748 0.09695 0.0
C3707 C 0.64784 0.46475 0.13369 0.0
C3708 C 0.64888 0.45553 0.1175 0.0
C3709 C 0.64044 0.48135 0.13427 0.0
C3710 C 0.62897 0.51951 0.10725 0.0
H3711 H 0.59156 0.5868 0.15592 0.0
H3712 H 0.60124 0.55683 0.15276 0.0
H3713 H 0.62457 0.54585 0.09912 0.0
H3714 H 0.64375 0.45691 0.08907 0.0
H3715 H 0.63102 0.48606 0.09009 0.0
H3716 H 0.60904 0.49938 0.14234 0.0
C3717 C 0.59808 0.56407 0.14082 0.0
C3718 C 0.62079 0.53574 0.10845 0.0
C3719 C 0.59255 0.58133 0.14264 0.0
C3720 C 0.64313 0.46365 0.10177 0.0
C3721 C 0.63585 0.48035 0.10234 0.0
C3722 C 0.61254 0.50946 0.13286 0.0
C3723 C 0.60054 0.55668 0.12383 0.0
C3724 C 0.6084 0.53904 0.12191 0.0
C3725 C 0.63405 0.48919 0.11866 0.0
C3726 C 0.62508 0.50628 0.11957 0.0
H3727 H 0.58873 0.59155 0.09859 0.0
H3728 H 0.59778 0.56132 0.09545 0.0
H3729 H 0.59457 0.52757 0.14431 0.0
H3730 H 0.65217 0.45892 0.14607 0.0
H3731 H 0.63951 0.48799 0.147 0.0
C3732 C 0.27007 0.88875 0.82836 0.0
C3733 C 0.28594 0.87964 0.82888 0.0
C3734 C 0.25403 0.8797 0.82877 0.0
C3735 C 0.23502 0.83864 0.84503 0.0
H3736 H 0.19403 0.85423 0.81898 0.0
C3737 C 0.16404 0.82955 0.86897 0.0
C3738 C 0.15045 0.82912 0.85624 0.0
C3739 C 0.18155 0.83064 0.86353 0.0
C3740 C 0.20538 0.84941 0.82611 0.0
H3741 H 0.29744 0.85387 0.83082 0.0
H3742 H 0.26959 0.83813 0.83091 0.0
H3743 H 0.22267 0.86693 0.81236 0.0
H3744 H 0.14454 0.82716 0.82798 0.0
H3745 H 0.1751 0.82865 0.81855 0.0
H3746 H 0.21764 0.82134 0.85901 0.0
C3747 C 0.2695 0.85225 0.83006 0.0
C3748 C 0.22176 0.8569 0.82247 0.0
C3749 C 0.2855 0.86129 0.82965 0.0
C3750 C 0.15475 0.82781 0.83809 0.0
C3751 C 0.17224 0.82875 0.83267 0.0
C3752 C 0.21861 0.83114 0.84867 0.0
C3753 C 0.2536 0.86136 0.82991 0.0
C3754 C 0.23667 0.85192 0.8322 0.0
C3755 C 0.18574 0.83115 0.84529 0.0
C3756 C 0.20355 0.83676 0.83955 0.0
H3757 H 0.27006 0.9029 0.82802 0.0
H3758 H 0.24199 0.88712 0.82893 0.0
H3759 H 0.24626 0.8346 0.85284 0.0
H3760 H 0.16115 0.83054 0.88306 0.0
H3761 H 0.19164 0.8325 0.87361 0.0
C3762 C 0.33494 0.13833 0.36021 0.0
C3763 C 0.34382 0.14093 0.37649 0.0
C3764 C 0.31724 0.13345 0.3599 0.0
C3765 C 0.28451 0.11058 0.38681 0.0
H3766 H 0.25148 0.12902 0.35235 0.0
C3767 C 0.21118 0.09036 0.38554 0.0
C3768 C 0.20324 0.08819 0.36877 0.0
C3769 C 0.22819 0.09726 0.38695 0.0
C3770 C 0.2606 0.12361 0.36192 0.0
H3771 H 0.34084 0.14094 0.40526 0.0
H3772 H 0.30984 0.13238 0.40467 0.0
H3773 H 0.28112 0.14137 0.35426 0.0
H3774 H 0.20701 0.09032 0.34029 0.0
H3775 H 0.23686 0.10229 0.34266 0.0
H3776 H 0.26415 0.0926 0.39426 0.0
C3777 C 0.3167 0.13403 0.39216 0.0
C3778 C 0.27754 0.13074 0.36306 0.0
C3779 C 0.33442 0.13901 0.39247 0.0
C3780 C 0.21275 0.09236 0.35338 0.0
C3781 C 0.22979 0.09921 0.35476 0.0
C3782 C 0.2676 0.1034 0.38563 0.0
C3783 C 0.30801 0.13095 0.37587 0.0
C3784 C 0.28969 0.12421 0.37544 0.0
C3785 C 0.23762 0.10195 0.37158 0.0
C3786 C 0.25549 0.10975 0.37308 0.0
H3787 H 0.34179 0.13939 0.34767 0.0
H3788 H 0.31096 0.13095 0.34715 0.0
H3789 H 0.29369 0.1051 0.39628 0.0
H3790 H 0.20404 0.08718 0.39758 0.0
H3791 H 0.23378 0.09932 0.4001 0.0
C3792 C 0.39646 0.11052 0.59068 0.0
C3793 C 0.38031 0.10527 0.59811 0.0
C3794 C 0.39787 0.11354 0.57244 0.0
C3795 C 0.37925 0.10558 0.52856 0.0
H3796 H 0.39464 0.15304 0.51836 0.0
C3797 C 0.39731 0.13031 0.45827 0.0
C3798 C 0.38854 0.14544 0.45274 0.0
C3799 C 0.39633 0.12478 0.47593 0.0
C3800 C 0.39031 0.13978 0.52105 0.0
H3801 H 0.35339 0.09763 0.59197 0.0
H3802 H 0.35607 0.10256 0.55987 0.0
H3803 H 0.39331 0.14298 0.54926 0.0
H3804 H 0.37227 0.16691 0.46141 0.0
H3805 H 0.37104 0.15747 0.49256 0.0
H3806 H 0.37652 0.10235 0.50027 0.0
C3807 C 0.3675 0.10455 0.56834 0.0
C3808 C 0.38967 0.134 0.53864 0.0
C3809 C 0.36598 0.10174 0.58668 0.0
C3810 C 0.37915 0.1552 0.46531 0.0
C3811 C 0.37845 0.14983 0.48308 0.0
C3812 C 0.38022 0.11128 0.51091 0.0
C3813 C 0.38327 0.11109 0.56123 0.0
C3814 C 0.38413 0.11687 0.54252 0.0
C3815 C 0.38683 0.13445 0.48844 0.0
C3816 C 0.38571 0.12844 0.50705 0.0
H3817 H 0.40781 0.11328 0.59904 0.0
H3818 H 0.41023 0.11838 0.56716 0.0
H3819 H 0.37492 0.09234 0.5313 0.0
H3820 H 0.40457 0.12245 0.44886 0.0
H3821 H 0.40303 0.11297 0.47983 0.0
C3822 C 0.6656 0.62862 0.32391 0.0
C3823 C 0.66298 0.61504 0.3362 0.0
C3824 C 0.65926 0.62706 0.30651 0.0
C3825 C 0.62267 0.60554 0.28358 0.0
H3826 H 0.64212 0.62901 0.24232 0.0
C3827 C 0.58704 0.61069 0.21504 0.0
C3828 C 0.58853 0.62691 0.20639 0.0
C3829 C 0.59642 0.60756 0.23076 0.0
C3830 C 0.63649 0.62249 0.25378 0.0
H3831 H 0.65335 0.58844 0.33934 0.0
H3832 H 0.64245 0.58566 0.30881 0.0
H3833 H 0.66045 0.62483 0.26868 0.0
H3834 H 0.60001 0.65295 0.20815 0.0
H3835 H 0.61616 0.64751 0.23561 0.0
H3836 H 0.59861 0.60348 0.26874 0.0
C3837 C 0.64908 0.59765 0.31279 0.0
C3838 C 0.64701 0.62002 0.26882 0.0
C3839 C 0.65549 0.5992 0.33022 0.0
C3840 C 0.59867 0.64026 0.21438 0.0
C3841 C 0.60808 0.6371 0.23002 0.0
C3842 C 0.61217 0.60794 0.26849 0.0
C3843 C 0.65018 0.61188 0.30103 0.0
C3844 C 0.64009 0.61189 0.28405 0.0
C3845 C 0.60747 0.62057 0.23805 0.0
C3846 C 0.61885 0.61683 0.25361 0.0
H3847 H 0.67146 0.64095 0.32805 0.0
H3848 H 0.66031 0.63829 0.29783 0.0
H3849 H 0.61684 0.59947 0.29519 0.0
H3850 H 0.57932 0.60013 0.20924 0.0
H3851 H 0.59566 0.59471 0.23672 0.0
C3852 C 0.12497 0.8962 0.09399 0.0
C3853 C 0.11329 0.88817 0.10594 0.0
C3854 C 0.12284 0.89386 0.07562 0.0
C3855 C 0.09242 0.87462 0.04103 0.0
H3856 H 0.13606 0.86719 0.01572 0.0
C3857 C 0.09914 0.83466 0.97554 0.0
C3858 C 0.10745 0.84368 0.96164 0.0
C3859 C 0.0989 0.84185 0.9927 0.0
C3860 C 0.12379 0.86935 0.02263 0.0
H3861 H 0.08981 0.87199 0.108 0.0
H3862 H 0.08647 0.86737 0.07628 0.0
H3863 H 0.13695 0.87772 0.04635 0.0
H3864 H 0.12257 0.86678 0.95464 0.0
H3865 H 0.12257 0.87912 0.98476 0.0
H3866 H 0.07943 0.86519 0.01738 0.0
C3867 C 0.097 0.87591 0.08085 0.0
C3868 C 0.12425 0.87556 0.04013 0.0
C3869 C 0.09894 0.87853 0.09915 0.0
C3870 C 0.11586 0.85974 0.96515 0.0
C3871 C 0.11593 0.86674 0.98232 0.0
C3872 C 0.092 0.86805 0.02364 0.0
C3873 C 0.1092 0.88312 0.06885 0.0
C3874 C 0.10857 0.87814 0.04965 0.0
C3875 C 0.10737 0.85791 0.99619 0.0
C3876 C 0.10769 0.86527 0.01438 0.0
H3877 H 0.13609 0.90383 0.09885 0.0
H3878 H 0.13223 0.90003 0.06678 0.0
H3879 H 0.08007 0.87676 0.04775 0.0
H3880 H 0.09264 0.82222 0.97307 0.0
H3881 H 0.09236 0.83477 0.00329 0.0
C3882 C 0.88188 0.39122 0.70117 0.0
C3883 C 0.88751 0.37542 0.69366 0.0
C3884 C 0.87638 0.39193 0.71888 0.0
C3885 C 0.87703 0.36739 0.76152 0.0
H3886 H 0.83685 0.39627 0.77245 0.0
C3887 C 0.84395 0.36442 0.82981 0.0
C3888 C 0.84239 0.38065 0.8385 0.0
C3889 C 0.84753 0.36363 0.81161 0.0
C3890 C 0.84811 0.3882 0.76958 0.0
H3891 H 0.89222 0.34804 0.69895 0.0
H3892 H 0.88227 0.34915 0.72974 0.0
H3893 H 0.84806 0.39525 0.74203 0.0
H3894 H 0.84191 0.40871 0.83451 0.0
H3895 H 0.84796 0.40725 0.8026 0.0
H3896 H 0.87688 0.36018 0.78904 0.0
C3897 C 0.88238 0.36111 0.72208 0.0
C3898 C 0.85462 0.38769 0.75219 0.0
C3899 C 0.88806 0.36045 0.70439 0.0
C3900 C 0.84309 0.396 0.82826 0.0
C3901 C 0.84656 0.39518 0.80998 0.0
C3902 C 0.8704 0.36777 0.77884 0.0
C3903 C 0.8762 0.37681 0.72946 0.0
C3904 C 0.86923 0.37733 0.74796 0.0
C3905 C 0.84947 0.37901 0.80165 0.0
C3906 C 0.8559 0.37821 0.78305 0.0
H3907 H 0.88143 0.40303 0.69326 0.0
H3908 H 0.87214 0.40434 0.72422 0.0
H3909 H 0.88846 0.35952 0.75887 0.0
H3910 H 0.84334 0.35231 0.83721 0.0
H3911 H 0.84938 0.35098 0.80543 0.0
C3912 C 0.39654 0.90117 0.89307 0.0
C3913 C 0.38007 0.89853 0.88487 0.0
C3914 C 0.39846 0.89931 0.91148 0.0
C3915 C 0.37366 0.89375 0.9539 0.0
H3916 H 0.41398 0.86598 0.96722 0.0
C3917 C 0.37697 0.85445 0.0191 0.0
C3918 C 0.3927 0.85541 0.0289 0.0
C3919 C 0.37598 0.86173 0.0021 0.0
C3920 C 0.40278 0.87394 0.96376 0.0
H3921 H 0.35248 0.89304 0.88972 0.0
H3922 H 0.35586 0.88944 0.92172 0.0
H3923 H 0.41112 0.87639 0.93675 0.0
H3924 H 0.41991 0.86391 0.02852 0.0
H3925 H 0.41826 0.87662 -0.00139 0.0
H3926 H 0.36507 0.89066 0.98087 0.0
C3927 C 0.36729 0.89315 0.91401 0.0
C3928 C 0.40116 0.87999 0.94631 0.0
C3929 C 0.36535 0.89516 0.89561 0.0
C3930 C 0.40758 0.86328 0.02125 0.0
C3931 C 0.40665 0.87044 0.00417 0.0
C3932 C 0.37523 0.88756 0.97133 0.0
C3933 C 0.38397 0.89464 0.92208 0.0
C3934 C 0.38647 0.88978 0.94109 0.0
C3935 C 0.39078 0.86987 0.99449 0.0
C3936 C 0.38969 0.8774 0.97636 0.0
H3937 H 0.40812 0.90399 0.88519 0.0
H3938 H 0.41141 0.90098 0.91732 0.0
H3939 H 0.36233 0.90148 0.95042 0.0
H3940 H 0.36535 0.84835 0.02473 0.0
H3941 H 0.36367 0.86083 0.99482 0.0
C3942 C 0.86996 0.64807 0.78346 0.0
C3943 C 0.8883 0.64839 0.78592 0.0
C3944 C 0.86271 0.64703 0.76636 0.0
C3945 C 0.85199 0.65414 0.72758 0.0
H3946 H 0.87252 0.62031 0.69546 0.0
C3947 C 0.84624 0.65557 0.65105 0.0
C3948 C 0.84677 0.63964 0.64168 0.0
C3949 C 0.84675 0.65579 0.66965 0.0
C3950 C 0.86641 0.62961 0.70434 0.0
H3951 H 0.91339 0.64772 0.77241 0.0
H3952 H 0.90071 0.64582 0.74249 0.0
H3953 H 0.8836 0.62293 0.72582 0.0
H3954 H 0.84606 0.61143 0.64453 0.0
H3955 H 0.84682 0.61187 0.677 0.0
H3956 H 0.83499 0.66101 0.70588 0.0
C3957 C 0.89197 0.64645 0.75383 0.0
C3958 C 0.87296 0.63129 0.72164 0.0
C3959 C 0.89922 0.64762 0.77092 0.0
C3960 C 0.84588 0.62393 0.65131 0.0
C3961 C 0.84643 0.62417 0.66992 0.0
C3962 C 0.8455 0.65255 0.71017 0.0
C3963 C 0.87364 0.64597 0.7514 0.0
C3964 C 0.86602 0.64375 0.73334 0.0
C3965 C 0.84777 0.64009 0.67921 0.0
C3966 C 0.85281 0.6404 0.69831 0.0
H3967 H 0.86113 0.64783 0.79469 0.0
H3968 H 0.84855 0.64639 0.76488 0.0
H3969 H 0.8464 0.66385 0.73635 0.0
H3970 H 0.84673 0.66792 0.64405 0.0
H3971 H 0.84776 0.66827 0.67643 0.0
C3972 C 0.08105 0.08073 0.41099 0.0
C3973 C 0.0989 0.081 0.4062 0.0
C3974 C 0.07615 0.08262 0.42878 0.0
C3975 C 0.07142 0.10392 0.46226 0.0
H3976 H 0.09826 0.08832 0.50312 0.0
C3977 C 0.07865 0.14393 0.52673 0.0
C3978 C 0.07982 0.13509 0.54303 0.0
C3979 C 0.07742 0.13459 0.51075 0.0
C3980 C 0.0904 0.09259 0.49192 0.0
H3981 H 0.1256 0.08177 0.41647 0.0
H3982 H 0.11707 0.08534 0.44743 0.0
H3983 H 0.10279 0.07462 0.47418 0.0
H3984 H 0.08095 0.10945 0.55527 0.0
H3985 H 0.07814 0.09326 0.52757 0.0
H3986 H 0.05927 0.12211 0.47993 0.0
C3987 C 0.10683 0.08358 0.43749 0.0
C3988 C 0.09312 0.08484 0.47531 0.0
C3989 C 0.11174 0.08161 0.4197 0.0
C3990 C 0.07938 0.11673 0.54307 0.0
C3991 C 0.07811 0.1074 0.52712 0.0
C3992 C 0.06868 0.11165 0.47886 0.0
C3993 C 0.089 0.08485 0.44211 0.0
C3994 C 0.08402 0.09076 0.46021 0.0
C3995 C 0.07748 0.11622 0.51077 0.0
C3996 C 0.0785 0.1064 0.49376 0.0
H3997 H 0.07082 0.08 0.40092 0.0
H3998 H 0.0623 0.08317 0.43199 0.0
H3999 H 0.06431 0.10893 0.45087 0.0
H4000 H 0.07918 0.15807 0.52632 0.0
H4001 H 0.07724 0.14178 0.49835 0.0
C4002 C 0.65114 0.36309 0.16689 0.0
C4003 C 0.65101 0.37915 0.15784 0.0
C4004 C 0.64511 0.3619 0.1844 0.0
C4005 C 0.63382 0.38749 0.22453 0.0
H4006 H 0.60079 0.34945 0.23289 0.0
C4007 C 0.59354 0.38405 0.28907 0.0
C4008 C 0.59271 0.36769 0.29749 0.0
C4009 C 0.59964 0.3855 0.2716 0.0
C4010 C 0.6101 0.36005 0.23084 0.0
H4011 H 0.64562 0.40681 0.16068 0.0
H4012 H 0.63524 0.40472 0.19124 0.0
H4013 H 0.61537 0.35185 0.20413 0.0
H4014 H 0.59665 0.33989 0.29376 0.0
H4015 H 0.60742 0.34244 0.26339 0.0
H4016 H 0.62866 0.39563 0.25127 0.0
C4017 C 0.63993 0.39303 0.18474 0.0
C4018 C 0.6185 0.3614 0.21438 0.0
C4019 C 0.64591 0.39421 0.16719 0.0
C4020 C 0.59711 0.3527 0.28768 0.0
C4021 C 0.60327 0.35416 0.27023 0.0
C4022 C 0.62547 0.38611 0.24103 0.0
C4023 C 0.63892 0.37676 0.19332 0.0
C4024 C 0.63047 0.37512 0.21104 0.0
C4025 C 0.60508 0.37063 0.26216 0.0
C4026 C 0.61349 0.37237 0.24438 0.0
H4027 H 0.65521 0.35127 0.16024 0.0
H4028 H 0.64488 0.34924 0.19082 0.0
H4029 H 0.64308 0.39812 0.22242 0.0
H4030 H 0.59012 0.39585 0.2962 0.0
H4031 H 0.60047 0.39834 0.26562 0.0
C4032 C 0.59104 0.39483 0.09245 0.0
C4033 C 0.60074 0.3793 0.09281 0.0
C4034 C 0.573 0.39451 0.09577 0.0
C4035 C 0.54199 0.36841 0.12161 0.0
H4036 H 0.50752 0.40021 0.10235 0.0
C4037 C 0.46953 0.36959 0.14464 0.0
C4038 C 0.46152 0.386 0.14595 0.0
C4039 C 0.48645 0.36812 0.13769 0.0
C4040 C 0.51707 0.39138 0.10797 0.0
H4041 H 0.59874 0.35107 0.09496 0.0
H4042 H 0.56722 0.35054 0.10052 0.0
H4043 H 0.5363 0.39808 0.08831 0.0
H4044 H 0.46541 0.41385 0.14202 0.0
H4045 H 0.49504 0.41129 0.1302 0.0
H4046 H 0.52292 0.36194 0.14145 0.0
C4047 C 0.57367 0.36299 0.09812 0.0
C4048 C 0.5335 0.39009 0.09987 0.0
C4049 C 0.59172 0.3633 0.09478 0.0
C4050 C 0.47116 0.401 0.14109 0.0
C4051 C 0.48806 0.39953 0.13414 0.0
C4052 C 0.52558 0.36971 0.12972 0.0
C4053 C 0.56431 0.37865 0.09947 0.0
C4054 C 0.5462 0.37872 0.10671 0.0
C4055 C 0.49571 0.38304 0.13193 0.0
C4056 C 0.51302 0.38137 0.12312 0.0
H4057 H 0.59753 0.40738 0.09083 0.0
H4058 H 0.56617 0.40681 0.09671 0.0
H4059 H 0.55162 0.35979 0.12744 0.0
H4060 H 0.46248 0.35777 0.14826 0.0
H4061 H 0.49197 0.35523 0.13613 0.0
C4062 C 0.34014 0.71029 0.87979 0.0
C4063 C 0.35464 0.70308 0.88861 0.0
C4064 C 0.34194 0.72599 0.87046 0.0
C4065 C 0.37545 0.75488 0.84988 0.0
H4066 H 0.33987 0.7904 0.85468 0.0
C4067 C 0.38718 0.8277 0.83364 0.0
C4068 C 0.37291 0.8376 0.82757 0.0
C4069 C 0.38491 0.81004 0.83781 0.0
C4070 C 0.34978 0.78051 0.85288 0.0
H4071 H 0.38218 0.70678 0.89518 0.0
H4072 H 0.38529 0.73432 0.87917 0.0
H4073 H 0.33565 0.76225 0.86909 0.0
H4074 H 0.34563 0.83623 0.8193 0.0
H4075 H 0.34168 0.80544 0.82635 0.0
H4076 H 0.38973 0.77331 0.83396 0.0
C4077 C 0.37264 0.72769 0.87906 0.0
C4078 C 0.34737 0.76438 0.8612 0.0
C4079 C 0.37082 0.71205 0.88839 0.0
C4080 C 0.35675 0.82911 0.82434 0.0
C4081 C 0.35448 0.81145 0.82844 0.0
C4082 C 0.37786 0.77102 0.84155 0.0
C4083 C 0.35826 0.73478 0.86986 0.0
C4084 C 0.36029 0.75147 0.86002 0.0
C4085 C 0.36834 0.80189 0.83588 0.0
C4086 C 0.36515 0.78411 0.84315 0.0
H4087 H 0.32742 0.70381 0.88016 0.0
H4088 H 0.3306 0.73112 0.86354 0.0
H4089 H 0.38551 0.74508 0.84847 0.0
H4090 H 0.39983 0.83382 0.8363 0.0
H4091 H 0.39586 0.80308 0.84357 0.0
C4092 C 0.92697 0.64912 0.60562 0.0
C4093 C 0.91757 0.63488 0.5983 0.0
C4094 C 0.9441 0.64702 0.61197 0.0
C4095 C 0.97334 0.61273 0.62896 0.0
H4096 H 0.00949 0.64846 0.62426 0.0
C4097 C 0.0463 0.60226 0.64764 0.0
C4098 C 0.05557 0.61636 0.65539 0.0
C4099 C 0.02899 0.60428 0.64178 0.0
C4100 C -0.00055 0.63847 0.62589 0.0
H4101 H 0.91935 0.60763 0.59067 0.0
H4102 H 0.94928 0.604 0.60154 0.0
H4103 H 0.98088 0.65266 0.61027 0.0
H4104 H 0.05354 0.64334 0.66406 0.0
H4105 H 0.02328 0.64678 0.65399 0.0
H4106 H 0.99199 0.59849 0.64448 0.0
C4107 C 0.9432 0.61666 0.60286 0.0
C4108 C 0.98307 0.64085 0.61783 0.0
C4109 C 0.92606 0.61876 0.59656 0.0
C4110 C 0.04683 0.63223 0.65805 0.0
C4111 C 0.02954 0.63427 0.65215 0.0
C4112 C 0.98973 0.61033 0.63698 0.0
C4113 C 0.95226 0.63065 0.61105 0.0
C4114 C 0.96983 0.628 0.61925 0.0
C4115 C 0.02059 0.62045 0.64354 0.0
C4116 C 0.00296 0.62317 0.63554 0.0
H4117 H 0.92082 0.66173 0.60721 0.0
H4118 H 0.95066 0.65805 0.61828 0.0
H4119 H 0.96331 0.60272 0.63061 0.0
H4120 H 0.05263 0.58984 0.64542 0.0
H4121 H 0.02247 0.59341 0.63515 0.0
C4122 C 0.14771 0.27511 0.39992 0.0
C4123 C 0.13237 0.28159 0.40775 0.0
C4124 C 0.1476 0.25861 0.39186 0.0
C4125 C 0.11823 0.22721 0.37007 0.0
H4126 H 0.15209 0.19208 0.38344 0.0
C4127 C 0.10681 0.15431 0.35575 0.0
C4128 C 0.12126 0.14325 0.35356 0.0
C4129 C 0.10934 0.17201 0.35957 0.0
C4130 C 0.14276 0.20182 0.3792 0.0
H4131 H 0.10507 0.27603 0.41372 0.0
H4132 H 0.10479 0.24726 0.3994 0.0
H4133 H 0.15453 0.2214 0.39607 0.0
H4134 H 0.14969 0.14242 0.35225 0.0
H4135 H 0.15414 0.17344 0.35837 0.0
H4136 H 0.10648 0.20786 0.35311 0.0
C4137 C 0.11685 0.25492 0.39944 0.0
C4138 C 0.14413 0.21858 0.38655 0.0
C4139 C 0.11704 0.27126 0.40773 0.0
C4140 C 0.13829 0.15053 0.35413 0.0
C4141 C 0.14083 0.16831 0.35776 0.0
C4142 C 0.11701 0.21056 0.36251 0.0
C4143 C 0.13208 0.24851 0.39132 0.0
C4144 C 0.13164 0.23128 0.38235 0.0
C4145 C 0.1264 0.17917 0.36105 0.0
C4146 C 0.129 0.1975 0.3673 0.0
H4147 H 0.1597 0.28287 0.39994 0.0
H4148 H 0.15951 0.2539 0.38571 0.0
H4149 H 0.1086 0.2369 0.36642 0.0
H4150 H 0.09351 0.14916 0.35548 0.0
H4151 H 0.09788 0.17984 0.36224 0.0
C4152 C 0.59905 0.61333 0.3994 0.0
C4153 C 0.60912 0.6286 0.39671 0.0
C4154 C 0.58097 0.61316 0.396 0.0
C4155 C 0.54131 0.61724 0.39186 0.0
H4156 H 0.5299 0.64059 0.34756 0.0
C4157 C 0.47046 0.62143 0.36354 0.0
C4158 C 0.46837 0.61933 0.34502 0.0
C4159 C 0.48722 0.62242 0.37117 0.0
C4160 C 0.53289 0.6339 0.35989 0.0
H4161 H 0.6077 0.65616 0.39014 0.0
H4162 H 0.57616 0.65589 0.38454 0.0
H4163 H 0.55938 0.64339 0.35993 0.0
H4164 H 0.48218 0.61673 0.32 0.0
H4165 H 0.51151 0.6183 0.33333 0.0
H4166 H 0.51485 0.60734 0.39146 0.0
C4167 C 0.58235 0.64391 0.38876 0.0
C4168 C 0.54972 0.63574 0.36715 0.0
C4169 C 0.60042 0.64408 0.39212 0.0
C4170 C 0.4834 0.61824 0.33432 0.0
C4171 C 0.50017 0.61924 0.34194 0.0
C4172 C 0.52442 0.61543 0.38459 0.0
C4173 C 0.57256 0.62828 0.38993 0.0
C4174 C 0.55419 0.62734 0.38315 0.0
C4175 C 0.50227 0.62153 0.36045 0.0
C4176 C 0.52008 0.6236 0.36842 0.0
H4177 H 0.60523 0.60122 0.40312 0.0
H4178 H 0.57383 0.60089 0.39705 0.0
H4179 H 0.54432 0.61066 0.40425 0.0
H4180 H 0.45921 0.62305 0.37211 0.0
H4181 H 0.48839 0.62451 0.38542 0.0
C4182 C 0.11608 0.81883 0.15927 0.0
C4183 C 0.13091 0.82992 0.16006 0.0
C4184 C 0.11743 0.80198 0.15234 0.0
C4185 C 0.14492 0.77868 0.12019 0.0
H4186 H 0.1141 0.73976 0.13184 0.0
C4187 C 0.14572 0.71042 0.08599 0.0
C4188 C 0.1292 0.70277 0.08235 0.0
C4189 C 0.14694 0.72633 0.09511 0.0
C4190 C 0.12268 0.75061 0.12838 0.0
H4191 H 0.15917 0.83126 0.15629 0.0
H4192 H 0.16159 0.80162 0.14474 0.0
H4193 H 0.11546 0.76513 0.15155 0.0
H4194 H 0.10101 0.70653 0.08405 0.0
H4195 H 0.10321 0.73426 0.09995 0.0
H4196 H 0.15219 0.76398 0.09705 0.0
C4197 C 0.1488 0.80621 0.14882 0.0
C4198 C 0.12351 0.7651 0.13968 0.0
C4199 C 0.14743 0.82314 0.15562 0.0
C4200 C 0.11394 0.712 0.08674 0.0
C4201 C 0.11518 0.72779 0.096 0.0
C4202 C 0.14423 0.76409 0.10898 0.0
C4203 C 0.13368 0.79577 0.14626 0.0
C4204 C 0.13441 0.77944 0.13557 0.0
C4205 C 0.13167 0.73476 0.10082 0.0
C4206 C 0.13286 0.75007 0.11282 0.0
H4207 H 0.10316 0.82359 0.16265 0.0
H4208 H 0.10549 0.79434 0.15056 0.0
H4209 H 0.15322 0.78962 0.11641 0.0
H4210 H 0.15772 0.70367 0.08269 0.0
H4211 H 0.15982 0.73149 0.0986 0.0
C4212 C 0.03552 0.37042 0.85056 0.0
C4213 C 0.04405 0.38662 0.84857 0.0
C4214 C 0.01869 0.36944 0.85786 0.0
C4215 C 0.98663 0.39471 0.88447 0.0
H4216 H 0.95322 0.36149 0.86424 0.0
C4217 C 0.91142 0.3972 0.89515 0.0
C4218 C 0.90212 0.38128 0.89659 0.0
C4219 C 0.9295 0.3974 0.89197 0.0
C4220 C 0.96248 0.37064 0.87024 0.0
H4221 H 0.04155 0.41457 0.85184 0.0
H4222 H 0.01195 0.41298 0.86438 0.0
H4223 H 0.98295 0.363 0.85257 0.0
H4224 H 0.90484 0.35308 0.89694 0.0
H4225 H 0.93639 0.35348 0.89139 0.0
H4226 H 0.96583 0.40265 0.90179 0.0
C4227 C 0.01845 0.40095 0.86085 0.0
C4228 C 0.97954 0.37153 0.86354 0.0
C4229 C 0.03536 0.40189 0.85366 0.0
C4230 C 0.91153 0.36559 0.89582 0.0
C4231 C 0.9296 0.36579 0.89252 0.0
C4232 C 0.96948 0.3939 0.8911 0.0
C4233 C 0.00992 0.38469 0.86308 0.0
C4234 C 0.99183 0.38361 0.87051 0.0
C4235 C 0.93867 0.38169 0.89006 0.0
C4236 C 0.95721 0.38189 0.884 0.0
H4237 H 0.04201 0.35845 0.84676 0.0
H4238 H 0.01266 0.35669 0.85959 0.0
H4239 H 0.99583 0.40398 0.89035 0.0
H4240 H 0.90463 0.40954 0.89561 0.0
H4241 H 0.93609 0.40986 0.89004 0.0
C4242 C 0.35171 0.17193 0.64961 0.0
C4243 C 0.36837 0.16488 0.65305 0.0
C4244 C 0.35009 0.18919 0.64392 0.0
C4245 C 0.37508 0.22122 0.61856 0.0
H4246 H 0.33887 0.25353 0.63288 0.0
C4247 C 0.37322 0.29273 0.59485 0.0
C4248 C 0.3568 0.30073 0.59282 0.0
C4249 C 0.37432 0.27567 0.60121 0.0
C4250 C 0.34887 0.24454 0.62851 0.0
H4251 H 0.3963 0.17097 0.65461 0.0
H4252 H 0.3934 0.20107 0.64469 0.0
H4253 H 0.34159 0.22563 0.64822 0.0
H4254 H 0.32859 0.29659 0.59443 0.0
H4255 H 0.33051 0.26661 0.60506 0.0
H4256 H 0.38221 0.23989 0.59866 0.0
C4257 C 0.38163 0.19311 0.64616 0.0
C4258 C 0.3505 0.22864 0.63741 0.0
C4259 C 0.38325 0.1759 0.65199 0.0
C4260 C 0.34146 0.29085 0.59602 0.0
C4261 C 0.34256 0.27374 0.60229 0.0
C4262 C 0.37337 0.23705 0.60956 0.0
C4263 C 0.3651 0.1997 0.64146 0.0
C4264 C 0.36368 0.21687 0.63258 0.0
C4265 C 0.35901 0.26617 0.60555 0.0
C4266 C 0.36029 0.24893 0.61446 0.0
H4267 H 0.33998 0.16386 0.65027 0.0
H4268 H 0.33717 0.19393 0.64038 0.0
H4269 H 0.38512 0.21222 0.61429 0.0
H4270 H 0.3853 0.29996 0.5925 0.0
H4271 H 0.38721 0.2703 0.60363 0.0
C4272 C 0.14078 0.46059 0.39477 0.0
C4273 C 0.12854 0.44814 0.40088 0.0
C4274 C 0.13594 0.47805 0.39272 0.0
C4275 C 0.09783 0.50579 0.38493 0.0
H4276 H 0.12747 0.54295 0.40402 0.0
C4277 C 0.09218 0.5797 0.36743 0.0
C4278 C 0.09438 0.5915 0.3817 0.0
C4279 C 0.0942 0.56174 0.37011 0.0
C4280 C 0.11901 0.53269 0.3987 0.0
H4281 H 0.10163 0.44426 0.4097 0.0
H4282 H 0.09321 0.47467 0.40593 0.0
H4283 H 0.13606 0.51256 0.40799 0.0
H4284 H 0.09904 0.59348 0.41025 0.0
H4285 H 0.1026 0.56229 0.41478 0.0
H4286 H 0.08088 0.52603 0.37546 0.0
C4287 C 0.10652 0.4709 0.40273 0.0
C4288 C 0.12402 0.51534 0.40084 0.0
C4289 C 0.11141 0.45353 0.40501 0.0
C4290 C 0.09742 0.58483 0.39889 0.0
C4291 C 0.09957 0.56696 0.40151 0.0
C4292 C 0.09294 0.5232 0.38257 0.0
C4293 C 0.11871 0.48331 0.39651 0.0
C4294 C 0.11345 0.50172 0.39404 0.0
C4295 C 0.09856 0.55531 0.38707 0.0
C4296 C 0.10344 0.5368 0.38954 0.0
H4297 H 0.15407 0.45684 0.39147 0.0
H4298 H 0.14558 0.48737 0.38784 0.0
H4299 H 0.08952 0.49551 0.37945 0.0
H4300 H 0.08981 0.58439 0.35403 0.0
H4301 H 0.09333 0.553 0.35875 0.0
C4302 C 0.5778 0.91317 0.63507 0.0
C4303 C 0.58079 0.90344 0.61947 0.0
C4304 C 0.57764 0.9314 0.63448 0.0
C4305 C 0.58039 0.97006 0.6044 0.0
H4306 H 0.6155 0.9856 0.63872 0.0
C4307 C 0.6258 0.02966 0.59274 0.0
C4308 C 0.6309 0.03979 0.60751 0.0
C4309 C 0.61565 0.01453 0.59509 0.0
C4310 C 0.6054 0.98169 0.62926 0.0
H4311 H 0.58353 0.90511 0.59073 0.0
H4312 H 0.58354 0.93677 0.58979 0.0
H4313 H 0.6025 0.95677 0.64153 0.0
H4314 H 0.62926 0.0425 0.63617 0.0
H4315 H 0.61131 0.01625 0.64033 0.0
H4316 H 0.58386 0.99492 0.59178 0.0
C4317 C 0.58136 0.93042 0.60247 0.0
C4318 C 0.59787 0.96512 0.63091 0.0
C4319 C 0.58147 0.91221 0.60304 0.0
C4320 C 0.62561 0.03473 0.62462 0.0
C4321 C 0.61534 0.01973 0.62697 0.0
C4322 C 0.5879 0.98674 0.60278 0.0
C4323 C 0.58047 0.94019 0.61831 0.0
C4324 C 0.58562 0.95893 0.61826 0.0
C4325 C 0.61038 0.00933 0.61226 0.0
C4326 C 0.60082 0.99255 0.61495 0.0
H4327 H 0.57691 0.90682 0.64792 0.0
H4328 H 0.57651 0.93862 0.64686 0.0
H4329 H 0.57088 0.96569 0.59452 0.0
H4330 H 0.62999 0.03324 0.57945 0.0
H4331 H 0.61237 0.00664 0.58351 0.0
C4332 C 0.83895 0.83523 0.35745 0.0
C4333 C 0.84786 0.83461 0.37391 0.0
C4334 C 0.82113 0.83944 0.3567 0.0
C4335 C 0.78986 0.86527 0.3821 0.0
H4336 H 0.75539 0.84683 0.34861 0.0
C4337 C 0.71772 0.88772 0.38158 0.0
C4338 C 0.70895 0.88887 0.36511 0.0
C4339 C 0.73465 0.88092 0.3826 0.0
C4340 C 0.76495 0.85228 0.35787 0.0
H4341 H 0.84453 0.83626 0.40259 0.0
H4342 H 0.81343 0.84342 0.40124 0.0
H4343 H 0.78414 0.83312 0.351 0.0
H4344 H 0.71146 0.88455 0.33664 0.0
H4345 H 0.74121 0.87307 0.33838 0.0
H4346 H 0.77092 0.88462 0.38876 0.0
C4347 C 0.82036 0.84103 0.38891 0.0
C4348 C 0.78137 0.84434 0.35931 0.0
C4349 C 0.83816 0.83675 0.38967 0.0
C4350 C 0.71782 0.88379 0.34956 0.0
C4351 C 0.7348 0.87703 0.35057 0.0
C4352 C 0.77351 0.87325 0.3806 0.0
C4353 C 0.81185 0.84312 0.37239 0.0
C4354 C 0.794 0.85075 0.37146 0.0
C4355 C 0.74329 0.87519 0.36715 0.0
C4356 C 0.76084 0.86688 0.36846 0.0
H4357 H 0.84598 0.83358 0.34505 0.0
H4358 H 0.81496 0.84093 0.34377 0.0
H4359 H 0.79945 0.87078 0.3913 0.0
H4360 H 0.71128 0.89145 0.39383 0.0
H4361 H 0.7407 0.87957 0.3956 0.0
C4362 C 0.8719 0.96846 0.11192 0.0
C4363 C 0.85553 0.96667 0.10335 0.0
C4364 C 0.88085 0.98444 0.11182 0.0
C4365 C 0.88511 0.02638 0.08926 0.0
H4366 H 0.89555 0.04503 0.13628 0.0
C4367 C 0.89456 0.09958 0.10246 0.0
C4368 C 0.90468 0.10528 0.1171 0.0
C4369 C 0.89226 0.08181 0.09902 0.0
C4370 C 0.89322 0.03993 0.123 0.0
H4371 H 0.83566 0.97991 0.0879 0.0
H4372 H 0.85153 0.008 0.08747 0.0
H4373 H 0.88446 0.0153 0.13322 0.0
H4374 H 0.92139 0.09692 0.13885 0.0
H4375 H 0.91795 0.06581 0.13244 0.0
H4376 H 0.89391 0.05094 0.07895 0.0
C4377 C 0.85745 0.99697 0.09412 0.0
C4378 C 0.88673 0.02291 0.12129 0.0
C4379 C 0.84835 0.98102 0.09444 0.0
C4380 C 0.91334 0.09288 0.1276 0.0
C4381 C 0.91128 0.07506 0.12397 0.0
C4382 C 0.89191 0.04333 0.09092 0.0
C4383 C 0.87364 -0.00115 0.10305 0.0
C4384 C 0.88224 0.01615 0.10446 0.0
C4385 C 0.90023 0.0693 0.10998 0.0
C4386 C 0.8956 0.05049 0.10786 0.0
H4387 H 0.8775 0.95768 0.11924 0.0
H4388 H 0.89328 0.98563 0.11885 0.0
H4389 H 0.88191 0.02132 0.07612 0.0
H4390 H 0.88758 0.10881 0.09419 0.0
H4391 H 0.88344 0.07796 0.08831 0.0
C4392 C 0.29457 0.61811 0.34112 0.0
C4393 C 0.30204 0.60589 0.35278 0.0
C4394 C 0.27688 0.62256 0.34255 0.0
C4395 C 0.23969 0.62119 0.37448 0.0
H4396 H 0.21275 0.63377 0.33258 0.0
C4397 C 0.16952 0.64886 0.38031 0.0
C4398 C 0.15715 0.64305 0.36759 0.0
C4399 C 0.18742 0.64539 0.37811 0.0
C4400 C 0.21999 0.63016 0.34444 0.0
H4401 H 0.29658 0.58819 0.3746 0.0
H4402 H 0.2655 0.59541 0.37665 0.0
H4403 H 0.24273 0.62388 0.32924 0.0
H4404 H 0.15396 0.62899 0.34259 0.0
H4405 H 0.1848 0.62269 0.33896 0.0
H4406 H 0.21662 0.62667 0.38959 0.0
C4407 C 0.27345 0.602 0.36676 0.0
C4408 C 0.23734 0.62469 0.34254 0.0
C4409 C 0.29124 0.59772 0.36547 0.0
C4410 C 0.16312 0.634 0.35249 0.0
C4411 C 0.18091 0.63037 0.35039 0.0
C4412 C 0.22224 0.62645 0.37636 0.0
C4413 C 0.26611 0.61472 0.35551 0.0
C4414 C 0.24745 0.62014 0.35753 0.0
C4415 C 0.19331 0.63585 0.36324 0.0
C4416 C 0.21214 0.63098 0.36136 0.0
H4417 H 0.30252 0.62477 0.33126 0.0
H4418 H 0.27185 0.63258 0.33382 0.0
H4419 H 0.24711 0.6181 0.38638 0.0
H4420 H 0.16535 0.65586 0.3921 0.0
H4421 H 0.19661 0.65008 0.38814 0.0
C4422 C 0.35608 0.52814 0.86681 0.0
C4423 C 0.35644 0.53774 0.88282 0.0
C4424 C 0.36314 0.51139 0.86604 0.0
C4425 C 0.37654 0.47404 0.89371 0.0
H4426 H 0.40593 0.46283 0.85321 0.0
C4427 C 0.41259 0.40896 0.89093 0.0
C4428 C 0.41086 0.3996 0.87486 0.0
C4429 C 0.40844 0.42666 0.89173 0.0
C4430 C 0.39768 0.46572 0.86455 0.0
H4431 H 0.36387 0.53694 0.91076 0.0
H4432 H 0.37613 0.50767 0.90941 0.0
H4433 H 0.39229 0.4915 0.85513 0.0
H4434 H 0.40474 0.40185 0.8467 0.0
H4435 H 0.39734 0.43269 0.84811 0.0
H4436 H 0.38164 0.44824 0.90303 0.0
C4437 C 0.37037 0.51312 0.89745 0.0
C4438 C 0.38982 0.48212 0.86562 0.0
C4439 C 0.36335 0.5299 0.89822 0.0
C4440 C 0.40626 0.40867 0.85929 0.0
C4441 C 0.40199 0.42639 0.86011 0.0
C4442 C 0.38435 0.45765 0.89261 0.0
C4443 C 0.37066 0.50381 0.88127 0.0
C4444 C 0.37909 0.48643 0.88018 0.0
C4445 C 0.40235 0.4354 0.87649 0.0
C4446 C 0.39498 0.45325 0.878 0.0
H4447 H 0.35081 0.53375 0.85471 0.0
H4448 H 0.36285 0.50442 0.85345 0.0
H4449 H 0.36817 0.47687 0.90497 0.0
H4450 H 0.41628 0.40241 0.90315 0.0
H4451 H 0.40932 0.43333 0.90445 0.0
C4452 C 0.71607 0.12217 0.1555 0.0
C4453 C 0.71592 0.10394 0.15317 0.0
C4454 C 0.73189 0.13132 0.15752 0.0
C4455 C 0.77939 0.12594 0.16663 0.0
H4456 H 0.78408 0.16821 0.13858 0.0
C4457 C 0.83816 0.16487 0.13043 0.0
C4458 C 0.85112 0.16361 0.14376 0.0
C4459 C 0.82056 0.16144 0.1344 0.0
C4460 C 0.78296 0.15649 0.14654 0.0
H4461 H 0.73219 0.08104 0.15087 0.0
H4462 H 0.75998 0.09708 0.15403 0.0
H4463 H 0.75571 0.1533 0.1402 0.0
H4464 H 0.85554 0.1597 0.17207 0.0
H4465 H 0.82477 0.15403 0.17901 0.0
H4466 H 0.80684 0.12855 0.17213 0.0
C4467 C 0.74781 0.10423 0.15484 0.0
C4468 C 0.76666 0.14801 0.14762 0.0
C4469 C 0.73193 0.09505 0.1529 0.0
C4470 C 0.84591 0.16051 0.16143 0.0
C4471 C 0.82829 0.15716 0.16541 0.0
C4472 C 0.79568 0.13439 0.16551 0.0
C4473 C 0.74795 0.12251 0.15695 0.0
C4474 C 0.76479 0.13243 0.15736 0.0
C4475 C 0.81557 0.1568 0.15179 0.0
C4476 C 0.79774 0.14954 0.15513 0.0
H4477 H 0.70407 0.12957 0.15499 0.0
H4478 H 0.73154 0.14538 0.15917 0.0
H4479 H 0.77831 0.11411 0.17444 0.0
H4480 H 0.84171 0.16731 0.11669 0.0
H4481 H 0.81111 0.16122 0.12357 0.0
C4482 C 0.6658 0.85763 0.61337 0.0
C4483 C 0.65367 0.86317 0.62623 0.0
C4484 C 0.68361 0.86214 0.61507 0.0
C4485 C 0.7121 0.89612 0.6322 0.0
H4486 H 0.74902 0.86171 0.63457 0.0
C4487 C 0.78322 0.91639 0.64915 0.0
C4488 C 0.79686 0.90728 0.64095 0.0
C4489 C 0.76587 0.9104 0.64757 0.0
C4490 C 0.73894 0.87153 0.63362 0.0
H4491 H 0.65062 0.87785 0.6508 0.0
H4492 H 0.68157 0.88597 0.65348 0.0
H4493 H 0.71852 0.85217 0.63051 0.0
H4494 H 0.80322 0.88522 0.62414 0.0
H4495 H 0.77295 0.87508 0.62076 0.0
H4496 H 0.73226 0.91556 0.63465 0.0
C4497 C 0.67734 0.87798 0.64228 0.0
C4498 C 0.72149 0.86602 0.63138 0.0
C4499 C 0.65967 0.87322 0.64079 0.0
C4500 C 0.79293 0.89222 0.63096 0.0
C4501 C 0.77556 0.8864 0.62907 0.0
C4502 C 0.72953 0.90166 0.63409 0.0
C4503 C 0.68942 0.87256 0.62941 0.0
C4504 C 0.70795 0.87827 0.63084 0.0
C4505 C 0.76177 0.89542 0.63734 0.0
C4506 C 0.7432 0.88945 0.63502 0.0
H4507 H 0.66152 0.84987 0.60203 0.0
H4508 H 0.69277 0.85787 0.60498 0.0
H4509 H 0.70183 0.90579 0.63165 0.0
H4510 H 0.78601 0.92806 0.65691 0.0
H4511 H 0.75571 0.91752 0.65445 0.0
C4512 C 0.97096 0.19486 0.13595 0.0
C4513 C 0.95452 0.20007 0.1294 0.0
C4514 C 0.98542 0.20621 0.13512 0.0
C4515 C 0.00282 0.24306 0.11009 0.0
H4516 H 0.03003 0.25412 0.15255 0.0
C4517 C 0.04903 0.30248 0.11336 0.0
C4518 C 0.06453 0.30139 0.12341 0.0
C4519 C 0.03679 0.28883 0.11357 0.0
C4520 C 0.02281 0.25092 0.14048 0.0
H4521 H 0.94009 0.22118 0.11724 0.0
H4522 H 0.9655 0.2409 0.11533 0.0
H4523 H 0.00634 0.23241 0.15404 0.0
H4524 H 0.07979 0.28537 0.14125 0.0
H4525 H 0.05854 0.26109 0.14132 0.0
H4526 H 0.01926 0.26134 0.09641 0.0
C4527 C 0.9672 0.22804 0.12103 0.0
C4528 C 0.00921 0.23856 0.14138 0.0
C4529 C 0.95271 0.2168 0.12211 0.0
C4530 C 0.06782 0.28639 0.13347 0.0
C4531 C 0.05563 0.27261 0.13356 0.0
C4532 C 0.01654 0.25522 0.10911 0.0
C4533 C 0.98367 0.22282 0.12749 0.0
C4534 C -0.00109 0.23481 0.12627 0.0
C4535 C 0.03991 0.27374 0.1237 0.0
C4536 C 0.02646 0.25958 0.12438 0.0
H4537 H 0.97268 0.18192 0.14145 0.0
H4538 H 0.99803 0.20191 0.1401 0.0
H4539 H 0.99519 0.24014 0.09819 0.0
H4540 H 0.04622 0.31408 0.10567 0.0
H4541 H 0.02467 0.29032 0.10613 0.0
C4542 C 0.04249 0.69076 0.36714 0.0
C4543 C 0.0586 0.69347 0.37598 0.0
C4544 C 0.02976 0.70379 0.36697 0.0
C4545 C 0.01512 0.74311 0.39087 0.0
H4546 H 0.99088 0.7531 0.34654 0.0
C4547 C 0.96723 0.80097 0.38436 0.0
C4548 C 0.95197 0.79826 0.37411 0.0
C4549 C 0.98059 0.78855 0.38443 0.0
C4550 C 0.99735 0.75035 0.3591 0.0
H4551 H 0.07399 0.71183 0.39173 0.0
H4552 H 0.05163 0.73461 0.39167 0.0
H4553 H 0.01335 0.73067 0.34724 0.0
H4554 H 0.93857 0.78054 0.35597 0.0
H4555 H 0.96171 0.75867 0.35624 0.0
H4556 H -0.00104 0.76258 0.40282 0.0
C4557 C 0.04883 0.72238 0.38488 0.0
C4558 C 0.01026 0.7375 0.35947 0.0
C4559 C 0.06162 0.70936 0.38494 0.0
C4560 C 0.95031 0.78298 0.36385 0.0
C4561 C 0.96361 0.77051 0.36398 0.0
C4562 C 0.00211 0.7559 0.39052 0.0
C4563 C 0.03279 0.71979 0.37578 0.0
C4564 C 0.01927 0.73368 0.37537 0.0
C4565 C 0.97893 0.7731 0.37431 0.0
C4566 C 0.99301 0.75967 0.37464 0.0
H4567 H 0.0397 0.6785 0.3604 0.0
H4568 H 0.01745 0.70125 0.36009 0.0
H4569 H 0.02167 0.74034 0.40337 0.0
H4570 H 0.96886 0.81276 0.39224 0.0
H4571 H 0.9923 0.79116 0.3923 0.0
C4572 C 0.54944 0.79732 0.63258 0.0
C4573 C 0.56449 0.79729 0.62186 0.0
C4574 C 0.53852 0.78264 0.63339 0.0
C4575 C 0.52408 0.74414 0.60881 0.0
H4576 H 0.50814 0.72843 0.65518 0.0
C4577 C 0.47513 0.68645 0.61651 0.0
C4578 C 0.46161 0.68907 0.62884 0.0
C4579 C 0.48952 0.69794 0.61597 0.0
C4580 C 0.51237 0.73272 0.64212 0.0
H4581 H 0.57981 0.78215 0.60325 0.0
H4582 H 0.56032 0.75637 0.60431 0.0
H4583 H 0.52984 0.752 0.65323 0.0
H4584 H 0.45239 0.70536 0.65038 0.0
H4585 H 0.47731 0.72564 0.64934 0.0
H4586 H 0.50613 0.72535 0.59765 0.0
C4587 C 0.55713 0.76776 0.6122 0.0
C4588 C 0.52483 0.74616 0.64102 0.0
C4589 C 0.56822 0.78246 0.61156 0.0
C4590 C 0.46278 0.70307 0.64086 0.0
C4591 C 0.47709 0.7146 0.64028 0.0
C4592 C 0.51148 0.73077 0.6099 0.0
C4593 C 0.5423 0.76768 0.6233 0.0
C4594 C 0.53054 0.75223 0.62436 0.0
C4595 C 0.49057 0.71225 0.62774 0.0
C4596 C 0.50523 0.72515 0.62657 0.0
H4597 H 0.54607 0.80875 0.64034 0.0
H4598 H 0.52696 0.78305 0.64176 0.0
H4599 H 0.5282 0.74867 0.5958 0.0
H4600 H 0.47449 0.67558 0.60725 0.0
H4601 H 0.49978 0.69563 0.60633 0.0
C4602 C 0.46703 0.30017 0.87032 0.0
C4603 C 0.45195 0.29867 0.88095 0.0
C4604 C 0.47989 0.28726 0.87068 0.0
C4605 C 0.49729 0.25108 0.89779 0.0
H4606 H 0.51647 0.2353 0.85282 0.0
C4607 C 0.54252 0.19079 0.89266 0.0
C4608 C 0.55625 0.19142 0.88025 0.0
C4609 C 0.52997 0.20403 0.89318 0.0
C4610 C 0.51147 0.2397 0.86554 0.0
H4611 H 0.43858 0.28264 0.90048 0.0
H4612 H 0.46116 0.26009 0.90129 0.0
H4613 H 0.49443 0.25811 0.85305 0.0
H4614 H 0.56804 0.20657 0.85905 0.0
H4615 H 0.54638 0.22985 0.86008 0.0
H4616 H 0.51444 0.23278 0.91031 0.0
C4617 C 0.46307 0.27129 0.8927 0.0
C4618 C 0.49878 0.25278 0.86565 0.0
C4619 C 0.45015 0.28417 0.89224 0.0
C4620 C 0.55742 0.20567 0.86859 0.0
C4621 C 0.54496 0.21896 0.86915 0.0
C4622 C 0.51007 0.23805 0.89769 0.0
C4623 C 0.47803 0.2726 0.88179 0.0
C4624 C 0.49153 0.25865 0.88177 0.0
C4625 C 0.53096 0.21826 0.88136 0.0
C4626 C 0.51735 0.23219 0.88156 0.0
H4627 H 0.46889 0.31138 0.86173 0.0
H4628 H 0.49137 0.28883 0.86234 0.0
H4629 H 0.49212 0.25545 0.91045 0.0
H4630 H 0.54127 0.17985 0.9017 0.0
H4631 H 0.51929 0.2029 0.9026 0.0
C4632 C 0.13647 0.93304 0.21946 0.0
C4633 C 0.12601 0.93278 0.20406 0.0
C4634 C 0.13579 0.94722 0.23121 0.0
C4635 C 0.10719 0.98426 0.24356 0.0
H4636 H 0.14862 9e-05 0.26949 0.0
C4637 C 0.10883 0.04626 0.28802 0.0
C4638 C 0.11631 0.04407 0.30499 0.0
C4639 C 0.11013 0.03308 0.27518 0.0
C4640 C 0.13694 0.99573 0.26237 0.0
H4641 H 0.10723 0.94709 0.18826 0.0
H4642 H 0.10637 0.97217 0.20842 0.0
H4643 H 0.15114 0.97661 0.24763 0.0
H4644 H 0.13058 0.02634 0.32206 0.0
H4645 H 0.13324 0.00347 0.29949 0.0
H4646 H 0.0931 0.00362 0.2582 0.0
C4647 C 0.1147 0.96129 0.21183 0.0
C4648 C 0.13835 0.98224 0.24991 0.0
C4649 C 0.11526 0.94703 0.20023 0.0
C4650 C 0.125 0.02847 0.30895 0.0
C4651 C 0.1265 0.0154 0.29607 0.0
C4652 C 0.10584 0.99788 0.25587 0.0
C4653 C 0.12478 0.96147 0.22761 0.0
C4654 C 0.12346 0.97623 0.24044 0.0
C4655 C 0.1191 0.01759 0.27906 0.0
C4656 C 0.12067 0.00363 0.2655 0.0
H4657 H 0.14481 0.92208 0.22263 0.0
H4658 H 0.14355 0.94678 0.24333 0.0
H4659 H 0.09538 0.97977 0.23677 0.0
H4660 H 0.10219 0.05825 0.28462 0.0
H4661 H 0.1044 0.03511 0.26212 0.0
C4662 C 0.30774 0.87017 0.46229 0.0
C4663 C 0.30337 0.8768 0.44545 0.0
C4664 C 0.29589 0.87142 0.47642 0.0
C4665 C 0.25751 0.89664 0.4914 0.0
H4666 H 0.25051 0.85801 0.52398 0.0
C4667 C 0.20056 0.89411 0.54205 0.0
C4668 C 0.20395 0.88681 0.55881 0.0
C4669 C 0.21331 0.89364 0.52871 0.0
C4670 C 0.25249 0.86901 0.51516 0.0
H4671 H 0.28314 0.8894 0.42991 0.0
H4672 H 0.26236 0.89156 0.45453 0.0
H4673 H 0.27137 0.85521 0.49959 0.0
H4674 H 0.22338 0.87409 0.57523 0.0
H4675 H 0.24583 0.87334 0.55197 0.0
H4676 H 0.23859 0.91042 0.50691 0.0
C4677 C 0.27503 0.88568 0.45697 0.0
C4678 C 0.26443 0.86739 0.50116 0.0
C4679 C 0.28687 0.8844 0.44286 0.0
C4680 C 0.22046 0.87958 0.56228 0.0
C4681 C 0.23322 0.8791 0.54895 0.0
C4682 C 0.24558 0.89826 0.50541 0.0
C4683 C 0.27945 0.87934 0.47396 0.0
C4684 C 0.267 0.88115 0.48905 0.0
C4685 C 0.22971 0.8859 0.53192 0.0
C4686 C 0.24286 0.88444 0.5174 0.0
H4687 H 0.32047 0.86441 0.46463 0.0
H4688 H 0.29976 0.86656 0.48938 0.0
H4689 H 0.25941 0.9076 0.4825 0.0
H4690 H 0.18785 0.89969 0.5391 0.0
H4691 H 0.2101 0.89885 0.5157 0.0
C4692 C 0.36685 0.06199 0.71328 0.0
C4693 C 0.37716 0.06283 0.69786 0.0
C4694 C 0.3675 0.04732 0.72429 0.0
C4695 C 0.3782 0.00067 0.72364 0.0
H4696 H 0.38019 0.00571 0.77504 0.0
C4697 C 0.38729 0.94154 0.77031 0.0
C4698 C 0.37752 0.94141 0.78611 0.0
C4699 C 0.38774 0.95643 0.75957 0.0
C4700 C 0.37942 0.00406 0.76072 0.0
H4701 H 0.39626 0.04931 0.68177 0.0
H4702 H 0.39749 0.02362 0.70104 0.0
H4703 H 0.38001 0.03169 0.75633 0.0
H4704 H 0.36074 0.95664 0.80328 0.0
H4705 H 0.36103 0.98245 0.78432 0.0
H4706 H 0.37734 0.97308 0.72797 0.0
C4707 C 0.38883 0.0342 0.70459 0.0
C4708 C 0.37936 0.01896 0.75001 0.0
C4709 C 0.38824 0.04891 0.69366 0.0
C4710 C 0.36822 0.95637 0.79103 0.0
C4711 C 0.36858 0.97122 0.78028 0.0
C4712 C 0.37816 0.98578 0.73434 0.0
C4713 C 0.37841 0.03321 0.71998 0.0
C4714 C 0.37872 0.01742 0.73136 0.0
C4715 C 0.37838 0.97145 0.76443 0.0
C4716 C 0.37873 0.98729 0.75302 0.0
H4717 H 0.35826 0.07265 0.71676 0.0
H4718 H 0.35922 0.04686 0.73599 0.0
H4719 H 0.37746 -0.00091 0.7093 0.0
H4720 H 0.39454 0.93011 0.76625 0.0
H4721 H 0.39559 0.95622 0.74757 0.0
C4722 C 0.21425 0.14757 0.94734 0.0
C4723 C 0.21352 0.13431 0.93441 0.0
C4724 C 0.22846 0.14867 0.95917 0.0
C4725 C 0.26311 0.12146 0.97881 0.0
H4726 H 0.28329 0.16595 0.99363 0.0
C4727 C 0.32334 0.12592 0.02558 0.0
C4728 C 0.32223 0.13814 0.03947 0.0
C4729 C 0.31104 0.12597 0.01169 0.0
C4730 C 0.27771 0.15344 0.98969 0.0
H4731 H 0.22718 0.11225 0.92313 0.0
H4732 H 0.25207 0.11418 0.94369 0.0
H4733 H 0.25992 0.16523 0.97122 0.0
H4734 H 0.30761 0.15999 0.04989 0.0
H4735 H 0.2861 0.16014 0.02566 0.0
H4736 H 0.28075 0.10968 0.99738 0.0
C4737 C 0.24157 0.12352 0.94498 0.0
C4738 C 0.26432 0.15303 0.97688 0.0
C4739 C 0.22736 0.12242 0.9332 0.0
C4740 C 0.30883 0.15057 0.03918 0.0
C4741 C 0.29656 0.15067 0.0253 0.0
C4742 C 0.2765 0.12187 0.99159 0.0
C4743 C 0.24219 0.13653 0.95823 0.0
C4744 C 0.25681 0.13704 0.97138 0.0
C4745 C 0.29745 0.13828 0.01148 0.0
C4746 C 0.28386 0.13786 0.99726 0.0
H4747 H 0.20362 0.15678 0.94857 0.0
H4748 H 0.22845 0.15871 0.96936 0.0
H4749 H 0.2574 0.10895 0.97509 0.0
H4750 H 0.33371 0.11633 0.02549 0.0
H4751 H 0.31219 0.1164 0.00111 0.0
C4752 C 0.70114 0.37366 0.04243 0.0
C4753 C 0.7032 0.38457 0.05737 0.0
C4754 C 0.7137 0.37365 0.02893 0.0
C4755 C 0.7501 0.3996 0.00959 0.0
H4756 H 0.76275 0.35514 0.98859 0.0
C4757 C 0.80687 0.39276 0.959 0.0
C4758 C 0.80372 0.38186 0.94423 0.0
C4759 C 0.79498 0.3932 0.97314 0.0
C4760 C 0.75924 0.36768 0.99419 0.0
H4761 H 0.71985 0.40417 0.06992 0.0
H4762 H 0.742 0.40416 0.04628 0.0
H4763 H 0.74142 0.35593 0.01268 0.0
H4764 H 0.78577 0.36287 0.93257 0.0
H4765 H 0.76495 0.36354 0.95729 0.0
H4766 H 0.76796 0.41133 0.99104 0.0
C4767 C 0.73057 0.39571 0.04492 0.0
C4768 C 0.74701 0.36814 0.008 0.0
C4769 C 0.71794 0.39572 0.05846 0.0
C4770 C 0.78856 0.37127 0.9439 0.0
C4771 C 0.77668 0.37165 0.95806 0.0
C4772 C 0.76238 0.39914 0.99577 0.0
C4773 C 0.72866 0.38455 0.03006 0.0
C4774 C 0.74217 0.38411 0.01578 0.0
C4775 C 0.77973 0.38267 0.97284 0.0
C4776 C 0.767 0.38317 0.98782 0.0
H4777 H 0.68971 0.36519 0.04112 0.0
H4778 H 0.71159 0.36518 0.01752 0.0
H4779 H 0.74652 0.41214 0.01513 0.0
H4780 H 0.81861 0.40088 0.95965 0.0
H4781 H 0.79785 0.40163 0.98443 0.0
C4782 C 0.8889 0.5576 0.20754 0.0
C4783 C 0.87842 0.55714 0.19211 0.0
C4784 C 0.88997 0.54295 0.21856 0.0
C4785 C 0.88031 0.49507 0.21954 0.0
H4786 H 0.88174 0.50206 0.27074 0.0
C4787 C 0.86567 0.44039 0.27055 0.0
C4788 C 0.87747 0.43902 0.28486 0.0
C4789 C 0.86682 0.45453 0.25886 0.0
C4790 C 0.88151 0.49993 0.25646 0.0
H4791 H 0.86117 0.54096 0.17584 0.0
H4792 H 0.86231 0.5157 0.1954 0.0
H4793 H 0.88181 0.52732 0.25104 0.0
H4794 H 0.89964 0.45115 0.2984 0.0
H4795 H 0.90156 0.4761 0.27807 0.0
H4796 H 0.8794 0.46764 0.22513 0.0
C4797 C 0.87005 0.52717 0.1989 0.0
C4798 C 0.88163 0.51439 0.24514 0.0
C4799 C 0.86917 0.54173 0.1878 0.0
C4800 C 0.89046 0.45195 0.28736 0.0
C4801 C 0.89148 0.46622 0.27583 0.0
C4802 C 0.87995 0.48063 0.23088 0.0
C4803 C 0.88043 0.52758 0.21447 0.0
C4804 C 0.88095 0.51216 0.22652 0.0
C4805 C 0.87966 0.46764 0.26147 0.0
C4806 C 0.88049 0.48293 0.24944 0.0
H4807 H 0.8961 0.56936 0.2112 0.0
H4808 H 0.89831 0.54369 0.23028 0.0
H4809 H 0.88014 0.49281 0.20529 0.0
H4810 H 0.85556 0.43051 0.26842 0.0
H4811 H 0.85746 0.45539 0.24799 0.0
C4812 C 0.72885 0.62415 0.43091 0.0
C4813 C 0.71422 0.63496 0.43277 0.0
C4814 C 0.74329 0.62606 0.44231 0.0
C4815 C 0.76407 0.65652 0.47515 0.0
H4816 H 0.78708 0.6144 0.4912 0.0
C4817 C 0.81096 0.65345 0.53603 0.0
C4818 C 0.82611 0.64332 0.53423 0.0
C4819 C 0.79833 0.65369 0.52247 0.0
C4820 C 0.78093 0.62629 0.48666 0.0
H4821 H 0.70299 0.65618 0.44784 0.0
H4822 H 0.72803 0.6593 0.4682 0.0
H4823 H 0.76278 0.6122 0.47011 0.0
H4824 H 0.8405 0.62624 0.51664 0.0
H4825 H 0.8182 0.62634 0.49297 0.0
H4826 H 0.78198 0.67049 0.49229 0.0
C4827 C 0.72862 0.64961 0.45768 0.0
C4828 C 0.76701 0.62506 0.47453 0.0
C4829 C 0.71424 0.6478 0.44612 0.0
C4830 C 0.82874 0.63391 0.51842 0.0
C4831 C 0.81603 0.63398 0.50492 0.0
C4832 C 0.77789 0.65772 0.48745 0.0
C4833 C 0.7433 0.6387 0.45597 0.0
C4834 C 0.75837 0.64014 0.46863 0.0
C4835 C 0.80058 0.64368 0.50694 0.0
C4836 C 0.78643 0.64261 0.49334 0.0
H4837 H 0.72916 0.61429 0.42053 0.0
H4838 H 0.75448 0.61767 0.44034 0.0
H4839 H 0.75793 0.66843 0.47069 0.0
H4840 H 0.80863 0.66075 0.54817 0.0
H4841 H 0.78648 0.66117 0.52443 0.0
C4842 C 0.62906 0.54565 0.79126 0.0
C4843 C 0.61596 0.54547 0.80435 0.0
C4844 C 0.63022 0.53192 0.77904 0.0
C4845 C 0.62087 0.48557 0.77456 0.0
H4846 H 0.62421 0.49335 0.72366 0.0
C4847 C 0.61682 0.42892 0.72395 0.0
C4848 C 0.62629 0.43033 0.70803 0.0
C4849 C 0.61627 0.44291 0.73589 0.0
C4850 C 0.62363 0.49092 0.73785 0.0
H4851 H 0.59374 0.53118 0.81505 0.0
H4852 H 0.5959 0.50688 0.79379 0.0
H4853 H 0.62145 0.51823 0.74379 0.0
H4854 H 0.64316 0.44717 0.69231 0.0
H4855 H 0.64303 0.47134 0.71355 0.0
H4856 H 0.62353 0.45839 0.76885 0.0
C4857 C 0.60518 0.51767 0.79292 0.0
C4858 C 0.62191 0.50519 0.74934 0.0
C4859 C 0.60386 0.53155 0.80495 0.0
C4860 C 0.63582 0.44572 0.70456 0.0
C4861 C 0.6355 0.45966 0.71662 0.0
C4862 C 0.62285 0.47132 0.76312 0.0
C4863 C 0.61846 0.51768 0.77996 0.0
C4864 C 0.62038 0.50262 0.76777 0.0
C4865 C 0.62546 0.45855 0.7323 0.0
C4866 C 0.62412 0.47379 0.74459 0.0
H4867 H 0.63853 0.5563 0.79067 0.0
H4868 H 0.64061 0.53216 0.76923 0.0
H4869 H 0.61997 0.48329 0.78878 0.0
H4870 H 0.60951 0.41708 0.72699 0.0
H4871 H 0.60823 0.44159 0.74768 0.0
C4872 C 0.92979 0.72345 0.86387 0.0
C4873 C 0.9318 0.70936 0.87553 0.0
C4874 C 0.94227 0.73697 0.86365 0.0
C4875 C 0.97942 0.75573 0.89015 0.0
H4876 H 0.99379 0.77514 0.84473 0.0
C4877 C 0.04539 0.79089 0.87915 0.0
C4878 C 0.04474 0.80735 0.87104 0.0
C4879 C 0.03037 0.78035 0.87995 0.0
C4880 C 0.98973 0.76995 0.8575 0.0
H4881 H 0.94822 0.69794 0.8959 0.0
H4882 H 0.97035 0.72115 0.89522 0.0
H4883 H 0.96964 0.7539 0.84572 0.0
H4884 H 0.02808 0.82572 0.85722 0.0
H4885 H 0.0018 0.80686 0.85801 0.0
H4886 H 0.00014 0.77121 0.90173 0.0
C4887 C 0.95895 0.72221 0.88661 0.0
C4888 C 0.97587 0.75786 0.85811 0.0
C4889 C 0.94638 0.70885 0.88695 0.0
C4890 C 0.02891 0.81299 0.86341 0.0
C4891 C 0.01393 0.80229 0.86392 0.0
C4892 C 0.99342 0.7676 0.88948 0.0
C4893 C 0.95705 0.73646 0.87498 0.0
C4894 C 0.97075 0.75039 0.87442 0.0
C4895 C 0.01454 0.78597 0.87234 0.0
C4896 C -0.00118 0.7746 0.87313 0.0
H4897 H 0.91852 0.72402 0.85501 0.0
H4898 H 0.94028 0.74783 0.85469 0.0
H4899 H 0.97554 0.75059 0.90299 0.0
H4900 H 0.05754 0.78613 0.88482 0.0
H4901 H 0.03119 0.76769 0.88628 0.0
C4902 C 0.95511 0.30388 0.61691 0.0
C4903 C 0.94025 0.3043 0.62787 0.0
C4904 C 0.9672 0.29035 0.61845 0.0
C4905 C 0.98159 0.25467 0.64868 0.0
H4906 H 0.00324 0.23719 0.60557 0.0
C4907 C 0.02416 0.19194 0.6456 0.0
C4908 C 0.03977 0.1934 0.63579 0.0
C4909 C 0.01192 0.20548 0.64542 0.0
C4910 C 0.99739 0.24202 0.61774 0.0
H4911 H 0.92627 0.29113 0.64905 0.0
H4912 H 0.94713 0.26717 0.65154 0.0
H4913 H 0.98194 0.2606 0.60363 0.0
H4914 H 0.05526 0.21036 0.6188 0.0
H4915 H 0.03378 0.23381 0.61816 0.0
H4916 H 0.99692 0.23572 0.66268 0.0
C4917 C 0.94972 0.27743 0.64198 0.0
C4918 C 0.98522 0.2555 0.61666 0.0
C4919 C 0.93772 0.29108 0.64052 0.0
C4920 C 0.04313 0.20875 0.62615 0.0
C4921 C 0.03086 0.22217 0.62581 0.0
C4922 C 0.99365 0.24103 0.64973 0.0
C4923 C 0.9646 0.27683 0.63089 0.0
C4924 C 0.97726 0.26215 0.63212 0.0
C4925 C 0.01505 0.22062 0.6353 0.0
C4926 C 0.0018 0.23469 0.63428 0.0
H4927 H 0.95741 0.31409 0.6072 0.0
H4928 H 0.97866 0.29058 0.60995 0.0
H4929 H 0.97592 0.25957 0.6609 0.0
H4930 H 0.02127 0.1802 0.6531 0.0
H4931 H -0.0002 0.20391 0.6528 0.0
C4932 C 0.43041 0.21971 0.37557 0.0
C4933 C 0.43502 0.20346 0.38264 0.0
C4934 C 0.44248 0.23359 0.37584 0.0
C4935 C 0.48431 0.24857 0.39666 0.0
H4936 H 0.48977 0.27506 0.353 0.0
C4937 C 0.54679 0.28794 0.38108 0.0
C4938 C 0.54481 0.30474 0.37403 0.0
C4939 C 0.53227 0.27685 0.38286 0.0
C4940 C 0.48823 0.26794 0.36536 0.0
H4941 H 0.45548 0.18878 0.39569 0.0
H4942 H 0.4767 0.21292 0.39608 0.0
H4943 H 0.46605 0.25349 0.35538 0.0
H4944 H 0.52632 0.32317 0.36306 0.0
H4945 H 0.50078 0.30357 0.3659 0.0
H4946 H 0.5068 0.26269 0.40643 0.0
C4947 C 0.46373 0.21514 0.3906 0.0
C4948 C 0.47463 0.25562 0.36675 0.0
C4949 C 0.45165 0.20131 0.39035 0.0
C4950 C 0.52813 0.31019 0.36842 0.0
C4951 C 0.51358 0.29903 0.37009 0.0
C4952 C 0.49793 0.26082 0.39523 0.0
C4953 C 0.45936 0.23138 0.38316 0.0
C4954 C 0.47271 0.2456 0.38231 0.0
C4955 C 0.51551 0.28231 0.37748 0.0
C4956 C 0.5002 0.2704 0.37946 0.0
H4957 H 0.41756 0.22158 0.36963 0.0
H4958 H 0.43866 0.24599 0.37021 0.0
H4959 H 0.48297 0.2413 0.40895 0.0
H4960 H 0.5596 0.28339 0.38523 0.0
H4961 H 0.5342 0.2639 0.38827 0.0
C4962 C 0.53871 0.70385 0.1456 0.0
C4963 C 0.53673 0.68923 0.13443 0.0
C4964 C 0.52639 0.71728 0.14519 0.0
C4965 C 0.49213 0.73611 0.11593 0.0
H4966 H 0.47873 0.76091 0.15882 0.0
C4967 C 0.43669 0.78719 0.11653 0.0
C4968 C 0.43982 0.80257 0.12633 0.0
C4969 C 0.44826 0.77317 0.11774 0.0
C4970 C 0.48246 0.75421 0.1467 0.0
H4971 H 0.52014 0.67678 0.11454 0.0
H4972 H 0.49841 0.70005 0.11395 0.0
H4973 H 0.499 0.73651 0.16087 0.0
H4974 H 0.45759 0.81549 0.14487 0.0
H4975 H 0.47779 0.79096 0.14712 0.0
H4976 H 0.47553 0.75377 0.10178 0.0
C4977 C 0.50964 0.70141 0.12277 0.0
C4978 C 0.4941 0.74022 0.14787 0.0
C4979 C 0.52201 0.68803 0.12316 0.0
C4980 C 0.45475 0.80368 0.13736 0.0
C4981 C 0.46629 0.78964 0.13865 0.0
C4982 C 0.48044 0.75004 0.11478 0.0
C4983 C 0.51179 0.71633 0.13361 0.0
C4984 C 0.49912 0.73101 0.13249 0.0
C4985 C 0.46319 0.77421 0.12885 0.0
C4986 C 0.4755 0.75929 0.13014 0.0
H4987 H 0.55008 0.70515 0.15427 0.0
H4988 H 0.5286 0.72865 0.15356 0.0
H4989 H 0.49594 0.72955 0.10376 0.0
H4990 H 0.42515 0.7859 0.10811 0.0
H4991 H 0.44537 0.76139 0.11019 0.0
C4992 C 0.86935 0.05 0.79977 0.0
C4993 C 0.87813 0.06576 0.79601 0.0
C4994 C 0.8709 0.03566 0.78833 0.0
C4995 C 0.88287 0.02395 0.74215 0.0
H4996 H 0.88819 0.97745 0.76167 0.0
C4997 C 0.89914 0.96512 0.69758 0.0
C4998 C 0.8894 0.94977 0.70053 0.0
C4999 C 0.89848 0.97893 0.70975 0.0
C5000 C 0.88657 0.99033 0.75603 0.0
H5001 H 0.8953 0.07905 0.77743 0.0
H5002 H 0.89829 0.05396 0.75753 0.0
H5003 H 0.88529 0.00238 0.78177 0.0
H5004 H 0.8719 0.93634 0.71867 0.0
H5005 H 0.87054 0.96057 0.74 0.0
H5006 H 0.88413 0.01194 0.71643 0.0
C5007 C 0.89002 0.05268 0.76917 0.0
C5008 C 0.88487 0.00462 0.76753 0.0
C5009 C 0.88844 0.06699 0.78061 0.0
C5010 C 0.87942 0.94816 0.71612 0.0
C5011 C 0.87876 0.96196 0.72834 0.0
C5012 C 0.88459 0.0097 0.73067 0.0
C5013 C 0.88128 0.03682 0.7729 0.0
C5014 C 0.88301 0.0216 0.76072 0.0
C5015 C 0.88807 0.97761 0.72514 0.0
C5016 C 0.88647 0.99273 0.73746 0.0
H5017 H 0.86145 0.04869 0.81168 0.0
H5018 H 0.86385 0.02371 0.79149 0.0
H5019 H 0.88115 0.03681 0.73646 0.0
H5020 H 0.90692 0.96663 0.6856 0.0
H5021 H 0.90602 0.9907 0.70705 0.0
C5022 C 0.7951 0.09934 0.45133 0.0
C5023 C 0.79389 0.10795 0.43492 0.0
C5024 C 0.78114 0.09982 0.46337 0.0
C5025 C 0.74224 0.12609 0.4746 0.0
H5026 H 0.7304 0.08642 0.50439 0.0
C5027 C 0.68335 0.12645 0.52314 0.0
C5028 C 0.6865 0.11963 0.54018 0.0
C5029 C 0.69574 0.12442 0.50959 0.0
C5030 C 0.73364 0.09765 0.49625 0.0
H5031 H 0.77707 0.12311 0.41772 0.0
H5032 H 0.75249 0.12381 0.43861 0.0
H5033 H 0.75311 0.08357 0.48175 0.0
H5034 H 0.70504 0.10559 0.55659 0.0
H5035 H 0.72666 0.10192 0.53294 0.0
H5036 H 0.7228 0.14017 0.48915 0.0
C5037 C 0.76433 0.11702 0.44243 0.0
C5038 C 0.74666 0.09603 0.48328 0.0
C5039 C 0.77832 0.11657 0.43044 0.0
C5040 C 0.7022 0.11073 0.54346 0.0
C5041 C 0.71455 0.10862 0.52992 0.0
C5042 C 0.72917 0.12768 0.48752 0.0
C5043 C 0.76566 0.10886 0.45915 0.0
C5044 C 0.75123 0.11027 0.47239 0.0
C5045 C 0.71148 0.11547 0.51284 0.0
C5046 C 0.72483 0.11353 0.49859 0.0
H5047 H 0.80706 0.09268 0.45506 0.0
H5048 H 0.78271 0.09357 0.47619 0.0
H5049 H 0.7456 0.13742 0.46666 0.0
H5050 H 0.67125 0.13324 0.52027 0.0
H5051 H 0.69291 0.12969 0.49653 0.0
C5052 C 0.63238 0.03152 0.19465 0.0
C5053 C 0.62511 0.04791 0.19825 0.0
C5054 C 0.63325 0.01883 0.20793 0.0
C5055 C 0.63185 0.01376 0.25709 0.0
H5056 H 0.62667 0.96465 0.24514 0.0
C5057 C 0.62611 0.95843 0.30946 0.0
C5058 C 0.63597 0.94339 0.30619 0.0
C5059 C 0.62519 0.97163 0.29668 0.0
C5060 C 0.6283 0.97831 0.24864 0.0
H5061 H 0.61252 0.06378 0.21829 0.0
H5062 H 0.61336 0.04137 0.24141 0.0
H5063 H 0.62307 0.98656 0.22198 0.0
H5064 H 0.65289 0.93034 0.2874 0.0
H5065 H 0.65125 0.95341 0.2649 0.0
H5066 H 0.6367 0.00538 0.28389 0.0
C5067 C 0.61888 0.03844 0.22848 0.0
C5068 C 0.62627 0.99089 0.23536 0.0
C5069 C 0.61818 0.05121 0.2152 0.0
C5070 C 0.64525 0.94189 0.29017 0.0
C5071 C 0.64419 0.95499 0.27729 0.0
C5072 C 0.63369 0.00117 0.27041 0.0
C5073 C 0.62662 0.02215 0.22508 0.0
C5074 C 0.62814 0.00878 0.23937 0.0
C5075 C 0.63399 0.9699 0.28034 0.0
C5076 C 0.63205 0.98332 0.26628 0.0
H5077 H 0.63764 0.02862 0.18159 0.0
H5078 H 0.63949 0.00656 0.20483 0.0
H5079 H 0.63369 0.02738 0.26064 0.0
H5080 H 0.61886 0.95979 0.32177 0.0
H5081 H 0.61716 0.98294 0.29933 0.0
C5082 C 0.69383 0.8641 0.96071 0.0
C5083 C 0.67993 0.87592 0.96189 0.0
C5084 C 0.70721 0.86425 0.97348 0.0
C5085 C 0.72837 0.89176 0.00796 0.0
H5086 H 0.74482 0.84739 0.02604 0.0
C5087 C 0.77552 0.88718 0.06803 0.0
C5088 C 0.78925 0.87516 0.06675 0.0
C5089 C 0.76208 0.88725 0.05533 0.0
C5090 C 0.74051 0.85988 0.02099 0.0
H5091 H 0.66913 0.89739 0.97696 0.0
H5092 H 0.69257 0.89769 -0.00054 0.0
H5093 H 0.72157 0.84784 0.0036 0.0
H5094 H 0.79983 0.85381 0.05133 0.0
H5095 H 0.77628 0.85387 0.02901 0.0
H5096 H 0.74732 0.9038 0.02536 0.0
C5097 C 0.69319 0.88836 0.98862 0.0
C5098 C 0.72719 0.86014 0.00814 0.0
C5099 C 0.67978 0.88818 0.97581 0.0
C5100 C 0.78925 0.86308 0.05267 0.0
C5101 C 0.77578 0.86312 0.03994 0.0
C5102 C 0.74169 0.8915 0.02082 0.0
C5103 C 0.70697 0.87628 0.98766 0.0
C5104 C 0.721 0.87608 0.00145 0.0
C5105 C 0.76209 0.87528 0.04109 0.0
C5106 C 0.74792 0.87555 0.02746 0.0
H5107 H 0.69437 0.85475 0.94987 0.0
H5108 H 0.71782 0.85502 0.97217 0.0
H5109 H 0.72405 0.90424 0.0029 0.0
H5110 H 0.77515 0.89648 0.07894 0.0
H5111 H 0.75157 0.89658 0.05676 0.0
C5112 C 0.28338 0.6186 0.93153 0.0
C5113 C 0.2986 0.60977 0.93675 0.0
C5114 C 0.26883 0.6192 0.94279 0.0
C5115 C 0.24898 0.59848 0.98278 0.0
H5116 H 0.22516 0.64283 0.98708 0.0
C5117 C 0.20144 0.6137 0.04027 0.0
C5118 C 0.18583 0.62236 0.03598 0.0
C5119 C 0.21457 0.61164 0.02752 0.0
C5120 C 0.23153 0.6303 0.98587 0.0
H5121 H 0.31058 0.59427 0.95745 0.0
H5122 H 0.28526 0.59545 0.97737 0.0
H5123 H 0.24911 0.6398 0.96589 0.0
H5124 H 0.17164 0.63576 0.01514 0.0
H5125 H 0.19473 0.63234 0.99275 0.0
H5126 H 0.23157 0.58912 0.00305 0.0
C5127 C 0.28439 0.60174 0.9645 0.0
C5128 C 0.24525 0.62853 0.9737 0.0
C5129 C 0.29891 0.60109 0.95316 0.0
C5130 C 0.18364 0.62913 0.01876 0.0
C5131 C 0.19683 0.62716 0.006 0.0
C5132 C 0.23531 0.60028 0.99502 0.0
C5133 C 0.26925 0.61101 0.95955 0.0
C5134 C 0.25421 0.61263 0.97206 0.0
C5135 C 0.21242 0.61833 0.01023 0.0
C5136 C 0.22651 0.61624 0.99678 0.0
H5137 H 0.28283 0.6252 0.91879 0.0
H5138 H 0.25728 0.62614 0.9384 0.0
H5139 H 0.25539 0.58597 0.98167 0.0
H5140 H 0.20354 0.60861 0.05356 0.0
H5141 H 0.22654 0.60504 0.03128 0.0
C5142 C 0.11782 0.53717 0.69677 0.0
C5143 C 0.12902 0.55182 0.6977 0.0
C5144 C 0.1187 0.52419 0.70981 0.0
C5145 C 0.13226 0.51588 0.75592 0.0
H5146 H 0.13562 0.46766 0.74049 0.0
C5147 C 0.14513 0.46009 0.80593 0.0
C5148 C 0.13631 0.44415 0.80292 0.0
C5149 C 0.14475 0.47328 0.79307 0.0
C5150 C 0.13443 0.48102 0.74509 0.0
H5151 H 0.14952 0.56479 0.713 0.0
H5152 H 0.15091 0.54219 0.73602 0.0
H5153 H 0.13309 0.49074 0.71838 0.0
H5154 H 0.12063 0.42927 0.78398 0.0
H5155 H 0.11925 0.45242 0.76191 0.0
H5156 H 0.13315 0.50624 0.78262 0.0
C5157 C 0.14153 0.54068 0.72521 0.0
C5158 C 0.13303 0.49423 0.73238 0.0
C5159 C 0.14081 0.55353 0.71204 0.0
C5160 C 0.12732 0.44154 0.78675 0.0
C5161 C 0.12676 0.45476 0.77399 0.0
C5162 C 0.13343 0.50265 0.76866 0.0
C5163 C 0.13062 0.52579 0.72411 0.0
C5164 C 0.13193 0.51179 0.73766 0.0
C5165 C 0.13543 0.47084 0.77697 0.0
C5166 C 0.13452 0.48502 0.76342 0.0
H5167 H 0.10867 0.5356 0.68576 0.0
H5168 H 0.11003 0.51291 0.70873 0.0
H5169 H 0.13128 0.52932 0.76035 0.0
H5170 H 0.1521 0.46245 0.81833 0.0
H5171 H 0.15182 0.48536 0.79574 0.0
C5172 C 0.28809 0.38926 0.54309 0.0
C5173 C 0.28915 0.37611 0.55599 0.0
C5174 C 0.27339 0.39023 0.53194 0.0
C5175 C 0.23541 0.364 0.51553 0.0
H5176 H 0.21632 0.40929 0.50356 0.0
C5177 C 0.16921 0.37052 0.47956 0.0
C5178 C 0.16944 0.3812 0.4644 0.0
C5179 C 0.18324 0.37095 0.49158 0.0
C5180 C 0.22158 0.39658 0.50675 0.0
H5181 H 0.2759 0.35381 0.56768 0.0
H5182 H 0.25004 0.35559 0.54845 0.0
H5183 H 0.2424 0.40759 0.52258 0.0
H5184 H 0.1841 0.40107 0.45012 0.0
H5185 H 0.20856 0.4021 0.47137 0.0
H5186 H 0.21448 0.35301 0.49987 0.0
C5187 C 0.26066 0.36493 0.54657 0.0
C5188 C 0.23654 0.39559 0.51755 0.0
C5189 C 0.27541 0.3639 0.5576 0.0
C5190 C 0.18352 0.39291 0.46186 0.0
C5191 C 0.19751 0.39344 0.47397 0.0
C5192 C 0.22039 0.365 0.50489 0.0
C5193 C 0.25944 0.37813 0.53363 0.0
C5194 C 0.24363 0.37927 0.52205 0.0
C5195 C 0.19768 0.38216 0.4887 0.0
C5196 C 0.21334 0.38128 0.5004 0.0
H5197 H 0.29864 0.39877 0.54166 0.0
H5198 H 0.273 0.40038 0.52194 0.0
H5199 H 0.24071 0.35125 0.51843 0.0
H5200 H 0.15839 0.3615 0.48183 0.0
H5201 H 0.18295 0.3623 0.50297 0.0
C5202 C 0.37004 0.54791 0.29689 0.0
C5203 C 0.37823 0.56394 0.29295 0.0
C5204 C 0.37122 0.53383 0.28505 0.0
C5205 C 0.38209 0.52302 0.23805 0.0
H5206 H 0.38805 0.47628 0.25678 0.0
C5207 C 0.39994 0.46483 0.19303 0.0
C5208 C 0.38964 0.4497 0.19522 0.0
C5209 C 0.39905 0.47844 0.20544 0.0
C5210 C 0.38629 0.48925 0.25138 0.0
H5211 H 0.39375 0.57801 0.2735 0.0
H5212 H 0.39634 0.55336 0.25307 0.0
H5213 H 0.38506 0.50086 0.27731 0.0
H5214 H 0.37091 0.43644 0.21219 0.0
H5215 H 0.36942 0.46021 0.23408 0.0
H5216 H 0.3836 0.51139 0.21213 0.0
C5217 C 0.38874 0.55164 0.26512 0.0
C5218 C 0.38449 0.50334 0.26312 0.0
C5219 C 0.38744 0.56572 0.27689 0.0
C5220 C 0.37893 0.44806 0.21029 0.0
C5221 C 0.37814 0.4616 0.2228 0.0
C5222 C 0.38405 0.50897 0.22634 0.0
C5223 C 0.3807 0.53548 0.26906 0.0
C5224 C 0.38237 0.52041 0.2566 0.0
C5225 C 0.38797 0.47706 0.22033 0.0
C5226 C 0.38618 0.49194 0.23287 0.0
H5227 H 0.36296 0.54618 0.30926 0.0
H5228 H 0.36465 0.52167 0.28841 0.0
H5229 H 0.38015 0.53591 0.23253 0.0
H5230 H 0.40826 0.46633 0.18145 0.0
H5231 H 0.40693 0.49012 0.20331 0.0
loop_
_geom_bond_atom_site_label_1
_geom_bond_atom_site_label_2
_geom_bond_distance
_geom_bond_site_symmetry_2
_ccdc_geom_bond_type
Co0 O3 1.970 . S
Co0 N17 1.989 . S
Co0 O25 1.967 . S
Co0 O32 1.920 . S
Co1 O4 1.966 . S
Co1 N10 2.022 . S
Co1 N18 1.993 . S
Co1 O26 1.941 . S
C2 O3 1.258 . S
C2 O4 1.263 . S
O3 Co0 1.970 . S
O3 C2 1.258 . S
O4 Co1 1.966 . S
O4 C2 1.263 . S
C5 O6 1.235 . S
C5 O32 1.289 . S
O6 C5 1.235 . S
C7 C9 1.400 . S
C7 N10 1.351 . S
C7 C12 1.501 . S
C8 C9 1.387 . S
C8 N11 1.341 . S
C9 C7 1.400 . S
C9 C8 1.387 . S
N10 Co1 2.022 . S
N10 C7 1.351 . S
N10 N11 1.365 . S
N11 C8 1.341 . S
N11 N10 1.365 . S
N11 H31 0.862 . S
C12 C7 1.501 . S
C12 H13 0.961 . S
C12 H14 0.961 . S
C12 H15 0.960 . S
H13 C12 0.961 . S
H14 C12 0.961 . S
H15 C12 0.960 . S
C16 N17 1.342 . S
C16 C20 1.401 . S
C16 C21 1.499 . S
N17 Co0 1.989 . S
N17 C16 1.342 . S
N17 N18 1.388 . S
N18 Co1 1.993 . S
N18 N17 1.388 . S
N18 C19 1.346 . S
C19 N18 1.346 . S
C19 C20 1.396 . S
C19 C29 1.510 . S
C20 C16 1.401 . S
C20 C19 1.396 . S
C21 C16 1.499 . S
C21 H22 0.959 . S
C21 H23 0.960 . S
C21 H24 0.961 . S
H22 C21 0.959 . S
H23 C21 0.960 . S
H24 C21 0.961 . S
O25 Co0 1.967 . S
O25 C33 1.258 . S
O26 Co1 1.941 . S
O26 C33 1.266 . S
H27 C29 0.959 . S
H28 C29 0.961 . S
C29 C19 1.510 . S
C29 H27 0.959 . S
C29 H28 0.961 . S
C29 H30 0.960 . S
H30 C29 0.960 . S
H31 N11 0.862 . S
O32 Co0 1.920 . S
O32 C5 1.289 . S
C33 O25 1.258 . S
C33 O26 1.266 . S
Co34 O37 1.970 . S
Co34 N51 1.989 . S
Co34 O59 1.967 . S
Co34 O66 1.920 . S
Co35 O38 1.966 . S
Co35 N44 2.022 . S
Co35 N52 1.993 . S
Co35 O60 1.941 . S
C36 O37 1.258 . S
C36 O38 1.263 . S
O37 Co34 1.970 . S
O37 C36 1.258 . S
O38 Co35 1.966 . S
O38 C36 1.263 . S
C39 O40 1.235 . S
C39 O66 1.289 . S
O40 C39 1.235 . S
C41 C43 1.400 . S
C41 N44 1.351 . S
C41 C46 1.501 . S
C42 C43 1.387 . S
C42 N45 1.341 . S
C43 C41 1.400 . S
C43 C42 1.387 . S
N44 Co35 2.022 . S
N44 C41 1.351 . S
N44 N45 1.365 . S
N45 C42 1.341 . S
N45 N44 1.365 . S
N45 H65 0.862 . S
C46 C41 1.501 . S
C46 H47 0.961 . S
C46 H48 0.961 . S
C46 H49 0.960 . S
H47 C46 0.961 . S
H48 C46 0.961 . S
H49 C46 0.960 . S
C50 N51 1.342 . S
C50 C54 1.401 . S
C50 C55 1.499 . S
N51 Co34 1.989 . S
N51 C50 1.342 . S
N51 N52 1.388 . S
N52 Co35 1.993 . S
N52 N51 1.388 . S
N52 C53 1.346 . S
C53 N52 1.346 . S
C53 C54 1.396 . S
C53 C63 1.510 . S
C54 C50 1.401 . S
C54 C53 1.396 . S
C55 C50 1.499 . S
C55 H56 0.959 . S
C55 H57 0.960 . S
C55 H58 0.961 . S
H56 C55 0.959 . S
H57 C55 0.960 . S
H58 C55 0.961 . S
O59 Co34 1.967 . S
O59 C67 1.258 . S
O60 Co35 1.941 . S
O60 C67 1.266 . S
H61 C63 0.959 . S
H62 C63 0.961 . S
C63 C53 1.510 . S
C63 H61 0.959 . S
C63 H62 0.961 . S
C63 H64 0.960 . S
H64 C63 0.960 . S
H65 N45 0.862 . S
O66 Co34 1.920 . S
O66 C39 1.289 . S
C67 O59 1.258 . S
C67 O60 1.266 . S
Co68 O71 1.970 . S
Co68 N85 1.989 . S
Co68 O93 1.967 . S
Co68 O100 1.920 . S
Co69 O72 1.966 . S
Co69 N78 2.022 . S
Co69 N86 1.993 . S
Co69 O94 1.941 . S
C70 O71 1.258 . S
C70 O72 1.263 . S
O71 Co68 1.970 . S
O71 C70 1.258 . S
O72 Co69 1.966 . S
O72 C70 1.263 . S
C73 O74 1.235 . S
C73 O100 1.289 . S
O74 C73 1.235 . S
C75 C77 1.400 . S
C75 N78 1.351 . S
C75 C80 1.501 . S
C76 C77 1.387 . S
C76 N79 1.341 . S
C77 C75 1.400 . S
C77 C76 1.387 . S
N78 Co69 2.022 . S
N78 C75 1.351 . S
N78 N79 1.365 . S
N79 C76 1.341 . S
N79 N78 1.365 . S
N79 H99 0.862 . S
C80 C75 1.501 . S
C80 H81 0.961 . S
C80 H82 0.961 . S
C80 H83 0.960 . S
H81 C80 0.961 . S
H82 C80 0.961 . S
H83 C80 0.960 . S
C84 N85 1.342 . S
C84 C88 1.401 . S
C84 C89 1.499 . S
N85 Co68 1.989 . S
N85 C84 1.342 . S
N85 N86 1.388 . S
N86 Co69 1.993 . S
N86 N85 1.388 . S
N86 C87 1.346 . S
C87 N86 1.346 . S
C87 C88 1.396 . S
C87 C97 1.510 . S
C88 C84 1.401 . S
C88 C87 1.396 . S
C89 C84 1.499 . S
C89 H90 0.959 . S
C89 H91 0.960 . S
C89 H92 0.961 . S
H90 C89 0.959 . S
H91 C89 0.960 . S
H92 C89 0.961 . S
O93 Co68 1.967 . S
O93 C101 1.258 . S
O94 Co69 1.941 . S
O94 C101 1.266 . S
H95 C97 0.959 . S
H96 C97 0.961 . S
C97 C87 1.510 . S
C97 H95 0.959 . S
C97 H96 0.961 . S
C97 H98 0.960 . S
H98 C97 0.960 . S
H99 N79 0.862 . S
O100 Co68 1.920 . S
O100 C73 1.289 . S
C101 O93 1.258 . S
C101 O94 1.266 . S
Co102 O105 1.970 . S
Co102 N119 1.989 . S
Co102 O127 1.967 . S
Co102 O134 1.920 . S
Co103 O106 1.966 . S
Co103 N112 2.022 . S
Co103 N120 1.993 . S
Co103 O128 1.941 . S
C104 O105 1.258 . S
C104 O106 1.263 . S
O105 Co102 1.970 . S
O105 C104 1.258 . S
O106 Co103 1.966 . S
O106 C104 1.263 . S
C107 O108 1.235 . S
C107 O134 1.289 . S
O108 C107 1.235 . S
C109 C111 1.400 . S
C109 N112 1.351 . S
C109 C114 1.501 . S
C110 C111 1.387 . S
C110 N113 1.341 . S
C111 C109 1.400 . S
C111 C110 1.387 . S
N112 Co103 2.022 . S
N112 C109 1.351 . S
N112 N113 1.365 . S
N113 C110 1.341 . S
N113 N112 1.365 . S
N113 H133 0.862 . S
C114 C109 1.501 . S
C114 H115 0.961 . S
C114 H116 0.961 . S
C114 H117 0.960 . S
H115 C114 0.961 . S
H116 C114 0.961 . S
H117 C114 0.960 . S
C118 N119 1.342 . S
C118 C122 1.401 . S
C118 C123 1.499 . S
N119 Co102 1.989 . S
N119 C118 1.342 . S
N119 N120 1.388 . S
N120 Co103 1.993 . S
N120 N119 1.388 . S
N120 C121 1.346 . S
C121 N120 1.346 . S
C121 C122 1.396 . S
C121 C131 1.510 . S
C122 C118 1.401 . S
C122 C121 1.396 . S
C123 C118 1.499 . S
C123 H124 0.959 . S
C123 H125 0.960 . S
C123 H126 0.961 . S
H124 C123 0.959 . S
H125 C123 0.960 . S
H126 C123 0.961 . S
O127 Co102 1.967 . S
O127 C135 1.258 . S
O128 Co103 1.941 . S
O128 C135 1.266 . S
H129 C131 0.959 . S
H130 C131 0.961 . S
C131 C121 1.510 . S
C131 H129 0.959 . S
C131 H130 0.961 . S
C131 H132 0.960 . S
H132 C131 0.960 . S
H133 N113 0.862 . S
O134 Co102 1.920 . S
O134 C107 1.289 . S
C135 O127 1.258 . S
C135 O128 1.266 . S
Co136 O139 1.970 . S
Co136 N153 1.989 . S
Co136 O161 1.967 . S
Co136 O168 1.920 . S
Co137 O140 1.966 . S
Co137 N146 2.022 . S
Co137 N154 1.993 . S
Co137 O162 1.941 . S
C138 O139 1.258 . S
C138 O140 1.263 . S
O139 Co136 1.970 . S
O139 C138 1.258 . S
O140 Co137 1.966 . S
O140 C138 1.263 . S
C141 O142 1.235 . S
C141 O168 1.289 . S
O142 C141 1.235 . S
C143 C145 1.400 . S
C143 N146 1.351 . S
C143 C148 1.501 . S
C144 C145 1.387 . S
C144 N147 1.341 . S
C145 C143 1.400 . S
C145 C144 1.387 . S
N146 Co137 2.022 . S
N146 C143 1.351 . S
N146 N147 1.365 . S
N147 C144 1.341 . S
N147 N146 1.365 . S
N147 H167 0.862 . S
C148 C143 1.501 . S
C148 H149 0.961 . S
C148 H150 0.961 . S
C148 H151 0.960 . S
H149 C148 0.961 . S
H150 C148 0.961 . S
H151 C148 0.960 . S
C152 N153 1.342 . S
C152 C156 1.401 . S
C152 C157 1.499 . S
N153 Co136 1.989 . S
N153 C152 1.342 . S
N153 N154 1.388 . S
N154 Co137 1.993 . S
N154 N153 1.388 . S
N154 C155 1.346 . S
C155 N154 1.346 . S
C155 C156 1.396 . S
C155 C165 1.510 . S
C156 C152 1.401 . S
C156 C155 1.396 . S
C157 C152 1.499 . S
C157 H158 0.959 . S
C157 H159 0.960 . S
C157 H160 0.961 . S
H158 C157 0.959 . S
H159 C157 0.960 . S
H160 C157 0.961 . S
O161 Co136 1.967 . S
O161 C169 1.258 . S
O162 Co137 1.941 . S
O162 C169 1.266 . S
H163 C165 0.959 . S
H164 C165 0.961 . S
C165 C155 1.510 . S
C165 H163 0.959 . S
C165 H164 0.961 . S
C165 H166 0.960 . S
H166 C165 0.960 . S
H167 N147 0.862 . S
O168 Co136 1.920 . S
O168 C141 1.289 . S
C169 O161 1.258 . S
C169 O162 1.266 . S
Co170 O173 1.970 . S
Co170 N187 1.989 . S
Co170 O195 1.967 . S
Co170 O202 1.920 . S
Co171 O174 1.966 . S
Co171 N180 2.022 . S
Co171 N188 1.993 . S
Co171 O196 1.941 . S
C172 O173 1.258 . S
C172 O174 1.263 . S
O173 Co170 1.970 . S
O173 C172 1.258 . S
O174 Co171 1.966 . S
O174 C172 1.263 . S
C175 O176 1.235 . S
C175 O202 1.289 . S
O176 C175 1.235 . S
C177 C179 1.400 . S
C177 N180 1.351 . S
C177 C182 1.501 . S
C178 C179 1.387 . S
C178 N181 1.341 . S
C179 C177 1.400 . S
C179 C178 1.387 . S
N180 Co171 2.022 . S
N180 C177 1.351 . S
N180 N181 1.365 . S
N181 C178 1.341 . S
N181 N180 1.365 . S
N181 H201 0.862 . S
C182 C177 1.501 . S
C182 H183 0.961 . S
C182 H184 0.961 . S
C182 H185 0.960 . S
H183 C182 0.961 . S
H184 C182 0.961 . S
H185 C182 0.960 . S
C186 N187 1.342 . S
C186 C190 1.401 . S
C186 C191 1.499 . S
N187 Co170 1.989 . S
N187 C186 1.342 . S
N187 N188 1.388 . S
N188 Co171 1.993 . S
N188 N187 1.388 . S
N188 C189 1.346 . S
C189 N188 1.346 . S
C189 C190 1.396 . S
C189 C199 1.510 . S
C190 C186 1.401 . S
C190 C189 1.396 . S
C191 C186 1.499 . S
C191 H192 0.959 . S
C191 H193 0.960 . S
C191 H194 0.961 . S
H192 C191 0.959 . S
H193 C191 0.960 . S
H194 C191 0.961 . S
O195 Co170 1.967 . S
O195 C203 1.258 . S
O196 Co171 1.941 . S
O196 C203 1.266 . S
H197 C199 0.959 . S
H198 C199 0.961 . S
C199 C189 1.510 . S
C199 H197 0.959 . S
C199 H198 0.961 . S
C199 H200 0.960 . S
H200 C199 0.960 . S
H201 N181 0.862 . S
O202 Co170 1.920 . S
O202 C175 1.289 . S
C203 O195 1.258 . S
C203 O196 1.266 . S
Co204 O207 1.970 . S
Co204 N221 1.989 . S
Co204 O229 1.967 . S
Co204 O236 1.920 . S
Co205 O208 1.966 . S
Co205 N214 2.022 . S
Co205 N222 1.993 . S
Co205 O230 1.941 . S
C206 O207 1.258 . S
C206 O208 1.263 . S
O207 Co204 1.970 . S
O207 C206 1.258 . S
O208 Co205 1.966 . S
O208 C206 1.263 . S
C209 O210 1.235 . S
C209 O236 1.289 . S
O210 C209 1.235 . S
C211 C213 1.400 . S
C211 N214 1.351 . S
C211 C216 1.501 . S
C212 C213 1.387 . S
C212 N215 1.341 . S
C213 C211 1.400 . S
C213 C212 1.387 . S
N214 Co205 2.022 . S
N214 C211 1.351 . S
N214 N215 1.365 . S
N215 C212 1.341 . S
N215 N214 1.365 . S
N215 H235 0.862 . S
C216 C211 1.501 . S
C216 H217 0.961 . S
C216 H218 0.961 . S
C216 H219 0.960 . S
H217 C216 0.961 . S
H218 C216 0.961 . S
H219 C216 0.960 . S
C220 N221 1.342 . S
C220 C224 1.401 . S
C220 C225 1.499 . S
N221 Co204 1.989 . S
N221 C220 1.342 . S
N221 N222 1.388 . S
N222 Co205 1.993 . S
N222 N221 1.388 . S
N222 C223 1.346 . S
C223 N222 1.346 . S
C223 C224 1.396 . S
C223 C233 1.510 . S
C224 C220 1.401 . S
C224 C223 1.396 . S
C225 C220 1.499 . S
C225 H226 0.959 . S
C225 H227 0.960 . S
C225 H228 0.961 . S
H226 C225 0.959 . S
H227 C225 0.960 . S
H228 C225 0.961 . S
O229 Co204 1.967 . S
O229 C237 1.258 . S
O230 Co205 1.941 . S
O230 C237 1.266 . S
H231 C233 0.959 . S
H232 C233 0.961 . S
C233 C223 1.510 . S
C233 H231 0.959 . S
C233 H232 0.961 . S
C233 H234 0.960 . S
H234 C233 0.960 . S
H235 N215 0.862 . S
O236 Co204 1.920 . S
O236 C209 1.289 . S
C237 O229 1.258 . S
C237 O230 1.266 . S
Co238 O241 1.970 . S
Co238 N255 1.989 . S
Co238 O263 1.967 . S
Co238 O270 1.920 . S
Co239 O242 1.966 . S
Co239 N248 2.022 . S
Co239 N256 1.993 . S
Co239 O264 1.941 . S
C240 O241 1.258 . S
C240 O242 1.263 . S
O241 Co238 1.970 . S
O241 C240 1.258 . S
O242 Co239 1.966 . S
O242 C240 1.263 . S
C243 O244 1.235 . S
C243 O270 1.289 . S
O244 C243 1.235 . S
C245 C247 1.400 . S
C245 N248 1.351 . S
C245 C250 1.501 . S
C246 C247 1.387 . S
C246 N249 1.341 . S
C247 C245 1.400 . S
C247 C246 1.387 . S
N248 Co239 2.022 . S
N248 C245 1.351 . S
N248 N249 1.365 . S
N249 C246 1.341 . S
N249 N248 1.365 . S
N249 H269 0.862 . S
C250 C245 1.501 . S
C250 H251 0.961 . S
C250 H252 0.961 . S
C250 H253 0.960 . S
H251 C250 0.961 . S
H252 C250 0.961 . S
H253 C250 0.960 . S
C254 N255 1.342 . S
C254 C258 1.401 . S
C254 C259 1.499 . S
N255 Co238 1.989 . S
N255 C254 1.342 . S
N255 N256 1.388 . S
N256 Co239 1.993 . S
N256 N255 1.388 . S
N256 C257 1.346 . S
C257 N256 1.346 . S
C257 C258 1.396 . S
C257 C267 1.510 . S
C258 C254 1.401 . S
C258 C257 1.396 . S
C259 C254 1.499 . S
C259 H260 0.959 . S
C259 H261 0.960 . S
C259 H262 0.961 . S
H260 C259 0.959 . S
H261 C259 0.960 . S
H262 C259 0.961 . S
O263 Co238 1.967 . S
O263 C271 1.258 . S
O264 Co239 1.941 . S
O264 C271 1.266 . S
H265 C267 0.959 . S
H266 C267 0.961 . S
C267 C257 1.510 . S
C267 H265 0.959 . S
C267 H266 0.961 . S
C267 H268 0.960 . S
H268 C267 0.960 . S
H269 N249 0.862 . S
O270 Co238 1.920 . S
O270 C243 1.289 . S
C271 O263 1.258 . S
C271 O264 1.266 . S
Co272 O275 1.970 . S
Co272 N289 1.989 . S
Co272 O297 1.967 . S
Co272 O304 1.920 . S
Co273 O276 1.966 . S
Co273 N282 2.022 . S
Co273 N290 1.993 . S
Co273 O298 1.941 . S
C274 O275 1.258 . S
C274 O276 1.263 . S
O275 Co272 1.970 . S
O275 C274 1.258 . S
O276 Co273 1.966 . S
O276 C274 1.263 . S
C277 O278 1.235 . S
C277 O304 1.289 . S
O278 C277 1.235 . S
C279 C281 1.400 . S
C279 N282 1.351 . S
C279 C284 1.501 . S
C280 C281 1.387 . S
C280 N283 1.341 . S
C281 C279 1.400 . S
C281 C280 1.387 . S
N282 Co273 2.022 . S
N282 C279 1.351 . S
N282 N283 1.365 . S
N283 C280 1.341 . S
N283 N282 1.365 . S
N283 H303 0.862 . S
C284 C279 1.501 . S
C284 H285 0.961 . S
C284 H286 0.961 . S
C284 H287 0.960 . S
H285 C284 0.961 . S
H286 C284 0.961 . S
H287 C284 0.960 . S
C288 N289 1.342 . S
C288 C292 1.401 . S
C288 C293 1.499 . S
N289 Co272 1.989 . S
N289 C288 1.342 . S
N289 N290 1.388 . S
N290 Co273 1.993 . S
N290 N289 1.388 . S
N290 C291 1.346 . S
C291 N290 1.346 . S
C291 C292 1.396 . S
C291 C301 1.510 . S
C292 C288 1.401 . S
C292 C291 1.396 . S
C293 C288 1.499 . S
C293 H294 0.959 . S
C293 H295 0.960 . S
C293 H296 0.961 . S
H294 C293 0.959 . S
H295 C293 0.960 . S
H296 C293 0.961 . S
O297 Co272 1.967 . S
O297 C305 1.258 . S
O298 Co273 1.941 . S
O298 C305 1.266 . S
H299 C301 0.959 . S
H300 C301 0.961 . S
C301 C291 1.510 . S
C301 H299 0.959 . S
C301 H300 0.961 . S
C301 H302 0.960 . S
H302 C301 0.960 . S
H303 N283 0.862 . S
O304 Co272 1.920 . S
O304 C277 1.289 . S
C305 O297 1.258 . S
C305 O298 1.266 . S
Co306 O309 1.970 . S
Co306 N323 1.989 . S
Co306 O331 1.967 . S
Co306 O338 1.920 . S
Co307 O310 1.966 . S
Co307 N316 2.022 . S
Co307 N324 1.993 . S
Co307 O332 1.941 . S
C308 O309 1.258 . S
C308 O310 1.263 . S
O309 Co306 1.970 . S
O309 C308 1.258 . S
O310 Co307 1.966 . S
O310 C308 1.263 . S
C311 O312 1.235 . S
C311 O338 1.289 . S
O312 C311 1.235 . S
C313 C315 1.400 . S
C313 N316 1.351 . S
C313 C318 1.501 . S
C314 C315 1.387 . S
C314 N317 1.341 . S
C315 C313 1.400 . S
C315 C314 1.387 . S
N316 Co307 2.022 . S
N316 C313 1.351 . S
N316 N317 1.365 . S
N317 C314 1.341 . S
N317 N316 1.365 . S
N317 H337 0.862 . S
C318 C313 1.501 . S
C318 H319 0.961 . S
C318 H320 0.961 . S
C318 H321 0.960 . S
H319 C318 0.961 . S
H320 C318 0.961 . S
H321 C318 0.960 . S
C322 N323 1.342 . S
C322 C326 1.401 . S
C322 C327 1.499 . S
N323 Co306 1.989 . S
N323 C322 1.342 . S
N323 N324 1.388 . S
N324 Co307 1.993 . S
N324 N323 1.388 . S
N324 C325 1.346 . S
C325 N324 1.346 . S
C325 C326 1.396 . S
C325 C335 1.510 . S
C326 C322 1.401 . S
C326 C325 1.396 . S
C327 C322 1.499 . S
C327 H328 0.959 . S
C327 H329 0.960 . S
C327 H330 0.961 . S
H328 C327 0.959 . S
H329 C327 0.960 . S
H330 C327 0.961 . S
O331 Co306 1.967 . S
O331 C339 1.258 . S
O332 Co307 1.941 . S
O332 C339 1.266 . S
H333 C335 0.959 . S
H334 C335 0.961 . S
C335 C325 1.510 . S
C335 H333 0.959 . S
C335 H334 0.961 . S
C335 H336 0.960 . S
H336 C335 0.960 . S
H337 N317 0.862 . S
O338 Co306 1.920 . S
O338 C311 1.289 . S
C339 O331 1.258 . S
C339 O332 1.266 . S
Co340 O343 1.970 . S
Co340 N357 1.989 . S
Co340 O365 1.967 . S
Co340 O372 1.920 . S
Co341 O344 1.966 . S
Co341 N350 2.022 . S
Co341 N358 1.993 . S
Co341 O366 1.941 . S
C342 O343 1.258 . S
C342 O344 1.263 . S
O343 Co340 1.970 . S
O343 C342 1.258 . S
O344 Co341 1.966 . S
O344 C342 1.263 . S
C345 O346 1.235 . S
C345 O372 1.289 . S
O346 C345 1.235 . S
C347 C349 1.400 . S
C347 N350 1.351 . S
C347 C352 1.501 . S
C348 C349 1.387 . S
C348 N351 1.341 . S
C349 C347 1.400 . S
C349 C348 1.387 . S
N350 Co341 2.022 . S
N350 C347 1.351 . S
N350 N351 1.365 . S
N351 C348 1.341 . S
N351 N350 1.365 . S
N351 H371 0.862 . S
C352 C347 1.501 . S
C352 H353 0.961 . S
C352 H354 0.961 . S
C352 H355 0.960 . S
H353 C352 0.961 . S
H354 C352 0.961 . S
H355 C352 0.960 . S
C356 N357 1.342 . S
C356 C360 1.401 . S
C356 C361 1.499 . S
N357 Co340 1.989 . S
N357 C356 1.342 . S
N357 N358 1.388 . S
N358 Co341 1.993 . S
N358 N357 1.388 . S
N358 C359 1.346 . S
C359 N358 1.346 . S
C359 C360 1.396 . S
C359 C369 1.510 . S
C360 C356 1.401 . S
C360 C359 1.396 . S
C361 C356 1.499 . S
C361 H362 0.959 . S
C361 H363 0.960 . S
C361 H364 0.961 . S
H362 C361 0.959 . S
H363 C361 0.960 . S
H364 C361 0.961 . S
O365 Co340 1.967 . S
O365 C373 1.258 . S
O366 Co341 1.941 . S
O366 C373 1.266 . S
H367 C369 0.959 . S
H368 C369 0.961 . S
C369 C359 1.510 . S
C369 H367 0.959 . S
C369 H368 0.961 . S
C369 H370 0.960 . S
H370 C369 0.960 . S
H371 N351 0.862 . S
O372 Co340 1.920 . S
O372 C345 1.289 . S
C373 O365 1.258 . S
C373 O366 1.266 . S
Co374 O377 1.970 . S
Co374 N391 1.989 . S
Co374 O399 1.967 . S
Co374 O406 1.920 . S
Co375 O378 1.966 . S
Co375 N384 2.022 . S
Co375 N392 1.993 . S
Co375 O400 1.941 . S
C376 O377 1.258 . S
C376 O378 1.263 . S
O377 Co374 1.970 . S
O377 C376 1.258 . S
O378 Co375 1.966 . S
O378 C376 1.263 . S
C379 O380 1.235 . S
C379 O406 1.289 . S
O380 C379 1.235 . S
C381 C383 1.400 . S
C381 N384 1.351 . S
C381 C386 1.501 . S
C382 C383 1.387 . S
C382 N385 1.341 . S
C383 C381 1.400 . S
C383 C382 1.387 . S
N384 Co375 2.022 . S
N384 C381 1.351 . S
N384 N385 1.365 . S
N385 C382 1.341 . S
N385 N384 1.365 . S
N385 H405 0.862 . S
C386 C381 1.501 . S
C386 H387 0.961 . S
C386 H388 0.961 . S
C386 H389 0.960 . S
H387 C386 0.961 . S
H388 C386 0.961 . S
H389 C386 0.960 . S
C390 N391 1.342 . S
C390 C394 1.401 . S
C390 C395 1.499 . S
N391 Co374 1.989 . S
N391 C390 1.342 . S
N391 N392 1.388 . S
N392 Co375 1.993 . S
N392 N391 1.388 . S
N392 C393 1.346 . S
C393 N392 1.346 . S
C393 C394 1.396 . S
C393 C403 1.510 . S
C394 C390 1.401 . S
C394 C393 1.396 . S
C395 C390 1.499 . S
C395 H396 0.959 . S
C395 H397 0.960 . S
C395 H398 0.961 . S
H396 C395 0.959 . S
H397 C395 0.960 . S
H398 C395 0.961 . S
O399 Co374 1.967 . S
O399 C407 1.258 . S
O400 Co375 1.941 . S
O400 C407 1.266 . S
H401 C403 0.959 . S
H402 C403 0.961 . S
C403 C393 1.510 . S
C403 H401 0.959 . S
C403 H402 0.961 . S
C403 H404 0.960 . S
H404 C403 0.960 . S
H405 N385 0.862 . S
O406 Co374 1.920 . S
O406 C379 1.289 . S
C407 O399 1.258 . S
C407 O400 1.266 . S
Co408 O411 1.970 . S
Co408 N425 1.989 . S
Co408 O433 1.967 . S
Co408 O440 1.920 . S
Co409 O412 1.966 . S
Co409 N418 2.022 . S
Co409 N426 1.993 . S
Co409 O434 1.941 . S
C410 O411 1.258 . S
C410 O412 1.263 . S
O411 Co408 1.970 . S
O411 C410 1.258 . S
O412 Co409 1.966 . S
O412 C410 1.263 . S
C413 O414 1.235 . S
C413 O440 1.289 . S
O414 C413 1.235 . S
C415 C417 1.400 . S
C415 N418 1.351 . S
C415 C420 1.501 . S
C416 C417 1.387 . S
C416 N419 1.341 . S
C417 C415 1.400 . S
C417 C416 1.387 . S
N418 Co409 2.022 . S
N418 C415 1.351 . S
N418 N419 1.365 . S
N419 C416 1.341 . S
N419 N418 1.365 . S
N419 H439 0.862 . S
C420 C415 1.501 . S
C420 H421 0.961 . S
C420 H422 0.961 . S
C420 H423 0.960 . S
H421 C420 0.961 . S
H422 C420 0.961 . S
H423 C420 0.960 . S
C424 N425 1.342 . S
C424 C428 1.401 . S
C424 C429 1.499 . S
N425 Co408 1.989 . S
N425 C424 1.342 . S
N425 N426 1.388 . S
N426 Co409 1.993 . S
N426 N425 1.388 . S
N426 C427 1.346 . S
C427 N426 1.346 . S
C427 C428 1.396 . S
C427 C437 1.510 . S
C428 C424 1.401 . S
C428 C427 1.396 . S
C429 C424 1.499 . S
C429 H430 0.959 . S
C429 H431 0.960 . S
C429 H432 0.961 . S
H430 C429 0.959 . S
H431 C429 0.960 . S
H432 C429 0.961 . S
O433 Co408 1.967 . S
O433 C441 1.258 . S
O434 Co409 1.941 . S
O434 C441 1.266 . S
H435 C437 0.959 . S
H436 C437 0.961 . S
C437 C427 1.510 . S
C437 H435 0.959 . S
C437 H436 0.961 . S
C437 H438 0.960 . S
H438 C437 0.960 . S
H439 N419 0.862 . S
O440 Co408 1.920 . S
O440 C413 1.289 . S
C441 O433 1.258 . S
C441 O434 1.266 . S
Co442 O445 1.970 . S
Co442 N459 1.989 . S
Co442 O467 1.967 . S
Co442 O474 1.920 . S
Co443 O446 1.966 . S
Co443 N452 2.022 . S
Co443 N460 1.993 . S
Co443 O468 1.941 . S
C444 O445 1.258 . S
C444 O446 1.263 . S
O445 Co442 1.970 . S
O445 C444 1.258 . S
O446 Co443 1.966 . S
O446 C444 1.263 . S
C447 O448 1.235 . S
C447 O474 1.289 . S
O448 C447 1.235 . S
C449 C451 1.400 . S
C449 N452 1.351 . S
C449 C454 1.501 . S
C450 C451 1.387 . S
C450 N453 1.341 . S
C451 C449 1.400 . S
C451 C450 1.387 . S
N452 Co443 2.022 . S
N452 C449 1.351 . S
N452 N453 1.365 . S
N453 C450 1.341 . S
N453 N452 1.365 . S
N453 H473 0.862 . S
C454 C449 1.501 . S
C454 H455 0.961 . S
C454 H456 0.961 . S
C454 H457 0.960 . S
H455 C454 0.961 . S
H456 C454 0.961 . S
H457 C454 0.960 . S
C458 N459 1.342 . S
C458 C462 1.401 . S
C458 C463 1.499 . S
N459 Co442 1.989 . S
N459 C458 1.342 . S
N459 N460 1.388 . S
N460 Co443 1.993 . S
N460 N459 1.388 . S
N460 C461 1.346 . S
C461 N460 1.346 . S
C461 C462 1.396 . S
C461 C471 1.510 . S
C462 C458 1.401 . S
C462 C461 1.396 . S
C463 C458 1.499 . S
C463 H464 0.959 . S
C463 H465 0.960 . S
C463 H466 0.961 . S
H464 C463 0.959 . S
H465 C463 0.960 . S
H466 C463 0.961 . S
O467 Co442 1.967 . S
O467 C475 1.258 . S
O468 Co443 1.941 . S
O468 C475 1.266 . S
H469 C471 0.959 . S
H470 C471 0.961 . S
C471 C461 1.510 . S
C471 H469 0.959 . S
C471 H470 0.961 . S
C471 H472 0.960 . S
H472 C471 0.960 . S
H473 N453 0.862 . S
O474 Co442 1.920 . S
O474 C447 1.289 . S
C475 O467 1.258 . S
C475 O468 1.266 . S
Co476 O479 1.970 . S
Co476 N493 1.989 . S
Co476 O501 1.967 . S
Co476 O508 1.920 . S
Co477 O480 1.966 . S
Co477 N486 2.022 . S
Co477 N494 1.993 . S
Co477 O502 1.941 . S
C478 O479 1.258 . S
C478 O480 1.263 . S
O479 Co476 1.970 . S
O479 C478 1.258 . S
O480 Co477 1.966 . S
O480 C478 1.263 . S
C481 O482 1.235 . S
C481 O508 1.289 . S
O482 C481 1.235 . S
C483 C485 1.400 . S
C483 N486 1.351 . S
C483 C488 1.501 . S
C484 C485 1.387 . S
C484 N487 1.341 . S
C485 C483 1.400 . S
C485 C484 1.387 . S
N486 Co477 2.022 . S
N486 C483 1.351 . S
N486 N487 1.365 . S
N487 C484 1.341 . S
N487 N486 1.365 . S
N487 H507 0.862 . S
C488 C483 1.501 . S
C488 H489 0.961 . S
C488 H490 0.961 . S
C488 H491 0.960 . S
H489 C488 0.961 . S
H490 C488 0.961 . S
H491 C488 0.960 . S
C492 N493 1.342 . S
C492 C496 1.401 . S
C492 C497 1.499 . S
N493 Co476 1.989 . S
N493 C492 1.342 . S
N493 N494 1.388 . S
N494 Co477 1.993 . S
N494 N493 1.388 . S
N494 C495 1.346 . S
C495 N494 1.346 . S
C495 C496 1.396 . S
C495 C505 1.510 . S
C496 C492 1.401 . S
C496 C495 1.396 . S
C497 C492 1.499 . S
C497 H498 0.959 . S
C497 H499 0.960 . S
C497 H500 0.961 . S
H498 C497 0.959 . S
H499 C497 0.960 . S
H500 C497 0.961 . S
O501 Co476 1.967 . S
O501 C509 1.258 . S
O502 Co477 1.941 . S
O502 C509 1.266 . S
H503 C505 0.959 . S
H504 C505 0.961 . S
C505 C495 1.510 . S
C505 H503 0.959 . S
C505 H504 0.961 . S
C505 H506 0.960 . S
H506 C505 0.960 . S
H507 N487 0.862 . S
O508 Co476 1.920 . S
O508 C481 1.289 . S
C509 O501 1.258 . S
C509 O502 1.266 . S
Co510 O513 1.970 . S
Co510 N527 1.989 . S
Co510 O535 1.967 . S
Co510 O542 1.920 . S
Co511 O514 1.966 . S
Co511 N520 2.022 . S
Co511 N528 1.993 . S
Co511 O536 1.941 . S
C512 O513 1.258 . S
C512 O514 1.263 . S
O513 Co510 1.970 . S
O513 C512 1.258 . S
O514 Co511 1.966 . S
O514 C512 1.263 . S
C515 O516 1.235 . S
C515 O542 1.289 . S
O516 C515 1.235 . S
C517 C519 1.400 . S
C517 N520 1.351 . S
C517 C522 1.501 . S
C518 C519 1.387 . S
C518 N521 1.341 . S
C519 C517 1.400 . S
C519 C518 1.387 . S
N520 Co511 2.022 . S
N520 C517 1.351 . S
N520 N521 1.365 . S
N521 C518 1.341 . S
N521 N520 1.365 . S
N521 H541 0.862 . S
C522 C517 1.501 . S
C522 H523 0.961 . S
C522 H524 0.961 . S
C522 H525 0.960 . S
H523 C522 0.961 . S
H524 C522 0.961 . S
H525 C522 0.960 . S
C526 N527 1.342 . S
C526 C530 1.401 . S
C526 C531 1.499 . S
N527 Co510 1.989 . S
N527 C526 1.342 . S
N527 N528 1.388 . S
N528 Co511 1.993 . S
N528 N527 1.388 . S
N528 C529 1.346 . S
C529 N528 1.346 . S
C529 C530 1.396 . S
C529 C539 1.510 . S
C530 C526 1.401 . S
C530 C529 1.396 . S
C531 C526 1.499 . S
C531 H532 0.959 . S
C531 H533 0.960 . S
C531 H534 0.961 . S
H532 C531 0.959 . S
H533 C531 0.960 . S
H534 C531 0.961 . S
O535 Co510 1.967 . S
O535 C543 1.258 . S
O536 Co511 1.941 . S
O536 C543 1.266 . S
H537 C539 0.959 . S
H538 C539 0.961 . S
C539 C529 1.510 . S
C539 H537 0.959 . S
C539 H538 0.961 . S
C539 H540 0.960 . S
H540 C539 0.960 . S
H541 N521 0.862 . S
O542 Co510 1.920 . S
O542 C515 1.289 . S
C543 O535 1.258 . S
C543 O536 1.266 . S
Co544 O547 1.970 . S
Co544 N561 1.989 . S
Co544 O569 1.967 . S
Co544 O576 1.920 . S
Co545 O548 1.966 . S
Co545 N554 2.022 . S
Co545 N562 1.993 . S
Co545 O570 1.941 . S
C546 O547 1.258 . S
C546 O548 1.263 . S
O547 Co544 1.970 . S
O547 C546 1.258 . S
O548 Co545 1.966 . S
O548 C546 1.263 . S
C549 O550 1.235 . S
C549 O576 1.289 . S
O550 C549 1.235 . S
C551 C553 1.400 . S
C551 N554 1.351 . S
C551 C556 1.501 . S
C552 C553 1.387 . S
C552 N555 1.341 . S
C553 C551 1.400 . S
C553 C552 1.387 . S
N554 Co545 2.022 . S
N554 C551 1.351 . S
N554 N555 1.365 . S
N555 C552 1.341 . S
N555 N554 1.365 . S
N555 H575 0.862 . S
C556 C551 1.501 . S
C556 H557 0.961 . S
C556 H558 0.961 . S
C556 H559 0.960 . S
H557 C556 0.961 . S
H558 C556 0.961 . S
H559 C556 0.960 . S
C560 N561 1.342 . S
C560 C564 1.401 . S
C560 C565 1.499 . S
N561 Co544 1.989 . S
N561 C560 1.342 . S
N561 N562 1.388 . S
N562 Co545 1.993 . S
N562 N561 1.388 . S
N562 C563 1.346 . S
C563 N562 1.346 . S
C563 C564 1.396 . S
C563 C573 1.510 . S
C564 C560 1.401 . S
C564 C563 1.396 . S
C565 C560 1.499 . S
C565 H566 0.959 . S
C565 H567 0.960 . S
C565 H568 0.961 . S
H566 C565 0.959 . S
H567 C565 0.960 . S
H568 C565 0.961 . S
O569 Co544 1.967 . S
O569 C577 1.258 . S
O570 Co545 1.941 . S
O570 C577 1.266 . S
H571 C573 0.959 . S
H572 C573 0.961 . S
C573 C563 1.510 . S
C573 H571 0.959 . S
C573 H572 0.961 . S
C573 H574 0.960 . S
H574 C573 0.960 . S
H575 N555 0.862 . S
O576 Co544 1.920 . S
O576 C549 1.289 . S
C577 O569 1.258 . S
C577 O570 1.266 . S
Co578 O581 1.970 . S
Co578 N595 1.989 . S
Co578 O603 1.967 . S
Co578 O610 1.920 . S
Co579 O582 1.966 . S
Co579 N588 2.022 . S
Co579 N596 1.993 . S
Co579 O604 1.941 . S
C580 O581 1.258 . S
C580 O582 1.263 . S
O581 Co578 1.970 . S
O581 C580 1.258 . S
O582 Co579 1.966 . S
O582 C580 1.263 . S
C583 O584 1.235 . S
C583 O610 1.289 . S
O584 C583 1.235 . S
C585 C587 1.400 . S
C585 N588 1.351 . S
C585 C590 1.501 . S
C586 C587 1.387 . S
C586 N589 1.341 . S
C587 C585 1.400 . S
C587 C586 1.387 . S
N588 Co579 2.022 . S
N588 C585 1.351 . S
N588 N589 1.365 . S
N589 C586 1.341 . S
N589 N588 1.365 . S
N589 H609 0.862 . S
C590 C585 1.501 . S
C590 H591 0.961 . S
C590 H592 0.961 . S
C590 H593 0.960 . S
H591 C590 0.961 . S
H592 C590 0.961 . S
H593 C590 0.960 . S
C594 N595 1.342 . S
C594 C598 1.401 . S
C594 C599 1.499 . S
N595 Co578 1.989 . S
N595 C594 1.342 . S
N595 N596 1.388 . S
N596 Co579 1.993 . S
N596 N595 1.388 . S
N596 C597 1.346 . S
C597 N596 1.346 . S
C597 C598 1.396 . S
C597 C607 1.510 . S
C598 C594 1.401 . S
C598 C597 1.396 . S
C599 C594 1.499 . S
C599 H600 0.959 . S
C599 H601 0.960 . S
C599 H602 0.961 . S
H600 C599 0.959 . S
H601 C599 0.960 . S
H602 C599 0.961 . S
O603 Co578 1.967 . S
O603 C611 1.258 . S
O604 Co579 1.941 . S
O604 C611 1.266 . S
H605 C607 0.959 . S
H606 C607 0.961 . S
C607 C597 1.510 . S
C607 H605 0.959 . S
C607 H606 0.961 . S
C607 H608 0.960 . S
H608 C607 0.960 . S
H609 N589 0.862 . S
O610 Co578 1.920 . S
O610 C583 1.289 . S
C611 O603 1.258 . S
C611 O604 1.266 . S
Co612 O615 1.970 . S
Co612 N629 1.989 . S
Co612 O637 1.967 . S
Co612 O644 1.920 . S
Co613 O616 1.966 . S
Co613 N622 2.022 . S
Co613 N630 1.993 . S
Co613 O638 1.941 . S
C614 O615 1.258 . S
C614 O616 1.263 . S
O615 Co612 1.970 . S
O615 C614 1.258 . S
O616 Co613 1.966 . S
O616 C614 1.263 . S
C617 O618 1.235 . S
C617 O644 1.289 . S
O618 C617 1.235 . S
C619 C621 1.400 . S
C619 N622 1.351 . S
C619 C624 1.501 . S
C620 C621 1.387 . S
C620 N623 1.341 . S
C621 C619 1.400 . S
C621 C620 1.387 . S
N622 Co613 2.022 . S
N622 C619 1.351 . S
N622 N623 1.365 . S
N623 C620 1.341 . S
N623 N622 1.365 . S
N623 H643 0.862 . S
C624 C619 1.501 . S
C624 H625 0.961 . S
C624 H626 0.961 . S
C624 H627 0.960 . S
H625 C624 0.961 . S
H626 C624 0.961 . S
H627 C624 0.960 . S
C628 N629 1.342 . S
C628 C632 1.401 . S
C628 C633 1.499 . S
N629 Co612 1.989 . S
N629 C628 1.342 . S
N629 N630 1.388 . S
N630 Co613 1.993 . S
N630 N629 1.388 . S
N630 C631 1.346 . S
C631 N630 1.346 . S
C631 C632 1.396 . S
C631 C641 1.510 . S
C632 C628 1.401 . S
C632 C631 1.396 . S
C633 C628 1.499 . S
C633 H634 0.959 . S
C633 H635 0.960 . S
C633 H636 0.961 . S
H634 C633 0.959 . S
H635 C633 0.960 . S
H636 C633 0.961 . S
O637 Co612 1.967 . S
O637 C645 1.258 . S
O638 Co613 1.941 . S
O638 C645 1.266 . S
H639 C641 0.959 . S
H640 C641 0.961 . S
C641 C631 1.510 . S
C641 H639 0.959 . S
C641 H640 0.961 . S
C641 H642 0.960 . S
H642 C641 0.960 . S
H643 N623 0.862 . S
O644 Co612 1.920 . S
O644 C617 1.289 . S
C645 O637 1.258 . S
C645 O638 1.266 . S
Co646 O649 1.970 . S
Co646 N663 1.989 . S
Co646 O671 1.967 . S
Co646 O678 1.920 . S
Co647 O650 1.966 . S
Co647 N656 2.022 . S
Co647 N664 1.993 . S
Co647 O672 1.941 . S
C648 O649 1.258 . S
C648 O650 1.263 . S
O649 Co646 1.970 . S
O649 C648 1.258 . S
O650 Co647 1.966 . S
O650 C648 1.263 . S
C651 O652 1.235 . S
C651 O678 1.289 . S
O652 C651 1.235 . S
C653 C655 1.400 . S
C653 N656 1.351 . S
C653 C658 1.501 . S
C654 C655 1.387 . S
C654 N657 1.341 . S
C655 C653 1.400 . S
C655 C654 1.387 . S
N656 Co647 2.022 . S
N656 C653 1.351 . S
N656 N657 1.365 . S
N657 C654 1.341 . S
N657 N656 1.365 . S
N657 H677 0.862 . S
C658 C653 1.501 . S
C658 H659 0.961 . S
C658 H660 0.961 . S
C658 H661 0.960 . S
H659 C658 0.961 . S
H660 C658 0.961 . S
H661 C658 0.960 . S
C662 N663 1.342 . S
C662 C666 1.401 . S
C662 C667 1.499 . S
N663 Co646 1.989 . S
N663 C662 1.342 . S
N663 N664 1.388 . S
N664 Co647 1.993 . S
N664 N663 1.388 . S
N664 C665 1.346 . S
C665 N664 1.346 . S
C665 C666 1.396 . S
C665 C675 1.510 . S
C666 C662 1.401 . S
C666 C665 1.396 . S
C667 C662 1.499 . S
C667 H668 0.959 . S
C667 H669 0.960 . S
C667 H670 0.961 . S
H668 C667 0.959 . S
H669 C667 0.960 . S
H670 C667 0.961 . S
O671 Co646 1.967 . S
O671 C679 1.258 . S
O672 Co647 1.941 . S
O672 C679 1.266 . S
H673 C675 0.959 . S
H674 C675 0.961 . S
C675 C665 1.510 . S
C675 H673 0.959 . S
C675 H674 0.961 . S
C675 H676 0.960 . S
H676 C675 0.960 . S
H677 N657 0.862 . S
O678 Co646 1.920 . S
O678 C651 1.289 . S
C679 O671 1.258 . S
C679 O672 1.266 . S
Co680 O683 1.970 . S
Co680 N697 1.989 . S
Co680 O705 1.967 . S
Co680 O712 1.920 . S
Co681 O684 1.966 . S
Co681 N690 2.022 . S
Co681 N698 1.993 . S
Co681 O706 1.941 . S
C682 O683 1.258 . S
C682 O684 1.263 . S
O683 Co680 1.970 . S
O683 C682 1.258 . S
O684 Co681 1.966 . S
O684 C682 1.263 . S
C685 O686 1.235 . S
C685 O712 1.289 . S
O686 C685 1.235 . S
C687 C689 1.400 . S
C687 N690 1.351 . S
C687 C692 1.501 . S
C688 C689 1.387 . S
C688 N691 1.341 . S
C689 C687 1.400 . S
C689 C688 1.387 . S
N690 Co681 2.022 . S
N690 C687 1.351 . S
N690 N691 1.365 . S
N691 C688 1.341 . S
N691 N690 1.365 . S
N691 H711 0.862 . S
C692 C687 1.501 . S
C692 H693 0.961 . S
C692 H694 0.961 . S
C692 H695 0.960 . S
H693 C692 0.961 . S
H694 C692 0.961 . S
H695 C692 0.960 . S
C696 N697 1.342 . S
C696 C700 1.401 . S
C696 C701 1.499 . S
N697 Co680 1.989 . S
N697 C696 1.342 . S
N697 N698 1.388 . S
N698 Co681 1.993 . S
N698 N697 1.388 . S
N698 C699 1.346 . S
C699 N698 1.346 . S
C699 C700 1.396 . S
C699 C709 1.510 . S
C700 C696 1.401 . S
C700 C699 1.396 . S
C701 C696 1.499 . S
C701 H702 0.959 . S
C701 H703 0.960 . S
C701 H704 0.961 . S
H702 C701 0.959 . S
H703 C701 0.960 . S
H704 C701 0.961 . S
O705 Co680 1.967 . S
O705 C713 1.258 . S
O706 Co681 1.941 . S
O706 C713 1.266 . S
H707 C709 0.959 . S
H708 C709 0.961 . S
C709 C699 1.510 . S
C709 H707 0.959 . S
C709 H708 0.961 . S
C709 H710 0.960 . S
H710 C709 0.960 . S
H711 N691 0.862 . S
O712 Co680 1.920 . S
O712 C685 1.289 . S
C713 O705 1.258 . S
C713 O706 1.266 . S
Co714 O717 1.970 . S
Co714 N731 1.989 . S
Co714 O739 1.967 . S
Co714 O746 1.920 . S
Co715 O718 1.966 . S
Co715 N724 2.022 . S
Co715 N732 1.993 . S
Co715 O740 1.941 . S
C716 O717 1.258 . S
C716 O718 1.263 . S
O717 Co714 1.970 . S
O717 C716 1.258 . S
O718 Co715 1.966 . S
O718 C716 1.263 . S
C719 O720 1.235 . S
C719 O746 1.289 . S
O720 C719 1.235 . S
C721 C723 1.400 . S
C721 N724 1.351 . S
C721 C726 1.501 . S
C722 C723 1.387 . S
C722 N725 1.341 . S
C723 C721 1.400 . S
C723 C722 1.387 . S
N724 Co715 2.022 . S
N724 C721 1.351 . S
N724 N725 1.365 . S
N725 C722 1.341 . S
N725 N724 1.365 . S
N725 H745 0.862 . S
C726 C721 1.501 . S
C726 H727 0.961 . S
C726 H728 0.961 . S
C726 H729 0.960 . S
H727 C726 0.961 . S
H728 C726 0.961 . S
H729 C726 0.960 . S
C730 N731 1.342 . S
C730 C734 1.401 . S
C730 C735 1.499 . S
N731 Co714 1.989 . S
N731 C730 1.342 . S
N731 N732 1.388 . S
N732 Co715 1.993 . S
N732 N731 1.388 . S
N732 C733 1.346 . S
C733 N732 1.346 . S
C733 C734 1.396 . S
C733 C743 1.510 . S
C734 C730 1.401 . S
C734 C733 1.396 . S
C735 C730 1.499 . S
C735 H736 0.959 . S
C735 H737 0.960 . S
C735 H738 0.961 . S
H736 C735 0.959 . S
H737 C735 0.960 . S
H738 C735 0.961 . S
O739 Co714 1.967 . S
O739 C747 1.258 . S
O740 Co715 1.941 . S
O740 C747 1.266 . S
H741 C743 0.959 . S
H742 C743 0.961 . S
C743 C733 1.510 . S
C743 H741 0.959 . S
C743 H742 0.961 . S
C743 H744 0.960 . S
H744 C743 0.960 . S
H745 N725 0.862 . S
O746 Co714 1.920 . S
O746 C719 1.289 . S
C747 O739 1.258 . S
C747 O740 1.266 . S
Co748 O751 1.970 . S
Co748 N765 1.989 . S
Co748 O773 1.967 . S
Co748 O780 1.920 . S
Co749 O752 1.966 . S
Co749 N758 2.022 . S
Co749 N766 1.993 . S
Co749 O774 1.941 . S
C750 O751 1.258 . S
C750 O752 1.263 . S
O751 Co748 1.970 . S
O751 C750 1.258 . S
O752 Co749 1.966 . S
O752 C750 1.263 . S
C753 O754 1.235 . S
C753 O780 1.289 . S
O754 C753 1.235 . S
C755 C757 1.400 . S
C755 N758 1.351 . S
C755 C760 1.501 . S
C756 C757 1.387 . S
C756 N759 1.341 . S
C757 C755 1.400 . S
C757 C756 1.387 . S
N758 Co749 2.022 . S
N758 C755 1.351 . S
N758 N759 1.365 . S
N759 C756 1.341 . S
N759 N758 1.365 . S
N759 H779 0.862 . S
C760 C755 1.501 . S
C760 H761 0.961 . S
C760 H762 0.961 . S
C760 H763 0.960 . S
H761 C760 0.961 . S
H762 C760 0.961 . S
H763 C760 0.960 . S
C764 N765 1.342 . S
C764 C768 1.401 . S
C764 C769 1.499 . S
N765 Co748 1.989 . S
N765 C764 1.342 . S
N765 N766 1.388 . S
N766 Co749 1.993 . S
N766 N765 1.388 . S
N766 C767 1.346 . S
C767 N766 1.346 . S
C767 C768 1.396 . S
C767 C777 1.510 . S
C768 C764 1.401 . S
C768 C767 1.396 . S
C769 C764 1.499 . S
C769 H770 0.959 . S
C769 H771 0.960 . S
C769 H772 0.961 . S
H770 C769 0.959 . S
H771 C769 0.960 . S
H772 C769 0.961 . S
O773 Co748 1.967 . S
O773 C781 1.258 . S
O774 Co749 1.941 . S
O774 C781 1.266 . S
H775 C777 0.959 . S
H776 C777 0.961 . S
C777 C767 1.510 . S
C777 H775 0.959 . S
C777 H776 0.961 . S
C777 H778 0.960 . S
H778 C777 0.960 . S
H779 N759 0.862 . S
O780 Co748 1.920 . S
O780 C753 1.289 . S
C781 O773 1.258 . S
C781 O774 1.266 . S
Co782 O785 1.970 . S
Co782 N799 1.989 . S
Co782 O807 1.967 . S
Co782 O814 1.920 . S
Co783 O786 1.966 . S
Co783 N792 2.022 . S
Co783 N800 1.993 . S
Co783 O808 1.941 . S
C784 O785 1.258 . S
C784 O786 1.263 . S
O785 Co782 1.970 . S
O785 C784 1.258 . S
O786 Co783 1.966 . S
O786 C784 1.263 . S
C787 O788 1.235 . S
C787 O814 1.289 . S
O788 C787 1.235 . S
C789 C791 1.400 . S
C789 N792 1.351 . S
C789 C794 1.501 . S
C790 C791 1.387 . S
C790 N793 1.341 . S
C791 C789 1.400 . S
C791 C790 1.387 . S
N792 Co783 2.022 . S
N792 C789 1.351 . S
N792 N793 1.365 . S
N793 C790 1.341 . S
N793 N792 1.365 . S
N793 H813 0.862 . S
C794 C789 1.501 . S
C794 H795 0.961 . S
C794 H796 0.961 . S
C794 H797 0.960 . S
H795 C794 0.961 . S
H796 C794 0.961 . S
H797 C794 0.960 . S
C798 N799 1.342 . S
C798 C802 1.401 . S
C798 C803 1.499 . S
N799 Co782 1.989 . S
N799 C798 1.342 . S
N799 N800 1.388 . S
N800 Co783 1.993 . S
N800 N799 1.388 . S
N800 C801 1.346 . S
C801 N800 1.346 . S
C801 C802 1.396 . S
C801 C811 1.510 . S
C802 C798 1.401 . S
C802 C801 1.396 . S
C803 C798 1.499 . S
C803 H804 0.959 . S
C803 H805 0.960 . S
C803 H806 0.961 . S
H804 C803 0.959 . S
H805 C803 0.960 . S
H806 C803 0.961 . S
O807 Co782 1.967 . S
O807 C815 1.258 . S
O808 Co783 1.941 . S
O808 C815 1.266 . S
H809 C811 0.959 . S
H810 C811 0.961 . S
C811 C801 1.510 . S
C811 H809 0.959 . S
C811 H810 0.961 . S
C811 H812 0.960 . S
H812 C811 0.960 . S
H813 N793 0.862 . S
O814 Co782 1.920 . S
O814 C787 1.289 . S
C815 O807 1.258 . S
C815 O808 1.266 . S
Co816 O819 1.970 . S
Co816 N833 1.989 . S
Co816 O841 1.967 . S
Co816 O848 1.920 . S
Co817 O820 1.966 . S
Co817 N826 2.022 . S
Co817 N834 1.993 . S
Co817 O842 1.941 . S
C818 O819 1.258 . S
C818 O820 1.263 . S
O819 Co816 1.970 . S
O819 C818 1.258 . S
O820 Co817 1.966 . S
O820 C818 1.263 . S
C821 O822 1.235 . S
C821 O848 1.289 . S
O822 C821 1.235 . S
C823 C825 1.400 . S
C823 N826 1.351 . S
C823 C828 1.501 . S
C824 C825 1.387 . S
C824 N827 1.341 . S
C825 C823 1.400 . S
C825 C824 1.387 . S
N826 Co817 2.022 . S
N826 C823 1.351 . S
N826 N827 1.365 . S
N827 C824 1.341 . S
N827 N826 1.365 . S
N827 H847 0.862 . S
C828 C823 1.501 . S
C828 H829 0.961 . S
C828 H830 0.961 . S
C828 H831 0.960 . S
H829 C828 0.961 . S
H830 C828 0.961 . S
H831 C828 0.960 . S
C832 N833 1.342 . S
C832 C836 1.401 . S
C832 C837 1.499 . S
N833 Co816 1.989 . S
N833 C832 1.342 . S
N833 N834 1.388 . S
N834 Co817 1.993 . S
N834 N833 1.388 . S
N834 C835 1.346 . S
C835 N834 1.346 . S
C835 C836 1.396 . S
C835 C845 1.510 . S
C836 C832 1.401 . S
C836 C835 1.396 . S
C837 C832 1.499 . S
C837 H838 0.959 . S
C837 H839 0.960 . S
C837 H840 0.961 . S
H838 C837 0.959 . S
H839 C837 0.960 . S
H840 C837 0.961 . S
O841 Co816 1.967 . S
O841 C849 1.258 . S
O842 Co817 1.941 . S
O842 C849 1.266 . S
H843 C845 0.959 . S
H844 C845 0.961 . S
C845 C835 1.510 . S
C845 H843 0.959 . S
C845 H844 0.961 . S
C845 H846 0.960 . S
H846 C845 0.960 . S
H847 N827 0.862 . S
O848 Co816 1.920 . S
O848 C821 1.289 . S
C849 O841 1.258 . S
C849 O842 1.266 . S
Co850 O853 1.970 . S
Co850 N867 1.989 . S
Co850 O875 1.967 . S
Co850 O882 1.920 . S
Co851 O854 1.966 . S
Co851 N860 2.022 . S
Co851 N868 1.993 . S
Co851 O876 1.941 . S
C852 O853 1.258 . S
C852 O854 1.263 . S
O853 Co850 1.970 . S
O853 C852 1.258 . S
O854 Co851 1.966 . S
O854 C852 1.263 . S
C855 O856 1.235 . S
C855 O882 1.289 . S
O856 C855 1.235 . S
C857 C859 1.400 . S
C857 N860 1.351 . S
C857 C862 1.501 . S
C858 C859 1.387 . S
C858 N861 1.341 . S
C859 C857 1.400 . S
C859 C858 1.387 . S
N860 Co851 2.022 . S
N860 C857 1.351 . S
N860 N861 1.365 . S
N861 C858 1.341 . S
N861 N860 1.365 . S
N861 H881 0.862 . S
C862 C857 1.501 . S
C862 H863 0.961 . S
C862 H864 0.961 . S
C862 H865 0.960 . S
H863 C862 0.961 . S
H864 C862 0.961 . S
H865 C862 0.960 . S
C866 N867 1.342 . S
C866 C870 1.401 . S
C866 C871 1.499 . S
N867 Co850 1.989 . S
N867 C866 1.342 . S
N867 N868 1.388 . S
N868 Co851 1.993 . S
N868 N867 1.388 . S
N868 C869 1.346 . S
C869 N868 1.346 . S
C869 C870 1.396 . S
C869 C879 1.510 . S
C870 C866 1.401 . S
C870 C869 1.396 . S
C871 C866 1.499 . S
C871 H872 0.959 . S
C871 H873 0.960 . S
C871 H874 0.961 . S
H872 C871 0.959 . S
H873 C871 0.960 . S
H874 C871 0.961 . S
O875 Co850 1.967 . S
O875 C883 1.258 . S
O876 Co851 1.941 . S
O876 C883 1.266 . S
H877 C879 0.959 . S
H878 C879 0.961 . S
C879 C869 1.510 . S
C879 H877 0.959 . S
C879 H878 0.961 . S
C879 H880 0.960 . S
H880 C879 0.960 . S
H881 N861 0.862 . S
O882 Co850 1.920 . S
O882 C855 1.289 . S
C883 O875 1.258 . S
C883 O876 1.266 . S
Co884 O887 1.970 . S
Co884 N901 1.989 . S
Co884 O909 1.967 . S
Co884 O916 1.920 . S
Co885 O888 1.966 . S
Co885 N894 2.022 . S
Co885 N902 1.993 . S
Co885 O910 1.941 . S
C886 O887 1.258 . S
C886 O888 1.263 . S
O887 Co884 1.970 . S
O887 C886 1.258 . S
O888 Co885 1.966 . S
O888 C886 1.263 . S
C889 O890 1.235 . S
C889 O916 1.289 . S
O890 C889 1.235 . S
C891 C893 1.400 . S
C891 N894 1.351 . S
C891 C896 1.501 . S
C892 C893 1.387 . S
C892 N895 1.341 . S
C893 C891 1.400 . S
C893 C892 1.387 . S
N894 Co885 2.022 . S
N894 C891 1.351 . S
N894 N895 1.365 . S
N895 C892 1.341 . S
N895 N894 1.365 . S
N895 H915 0.862 . S
C896 C891 1.501 . S
C896 H897 0.961 . S
C896 H898 0.961 . S
C896 H899 0.960 . S
H897 C896 0.961 . S
H898 C896 0.961 . S
H899 C896 0.960 . S
C900 N901 1.342 . S
C900 C904 1.401 . S
C900 C905 1.499 . S
N901 Co884 1.989 . S
N901 C900 1.342 . S
N901 N902 1.388 . S
N902 Co885 1.993 . S
N902 N901 1.388 . S
N902 C903 1.346 . S
C903 N902 1.346 . S
C903 C904 1.396 . S
C903 C913 1.510 . S
C904 C900 1.401 . S
C904 C903 1.396 . S
C905 C900 1.499 . S
C905 H906 0.959 . S
C905 H907 0.960 . S
C905 H908 0.961 . S
H906 C905 0.959 . S
H907 C905 0.960 . S
H908 C905 0.961 . S
O909 Co884 1.967 . S
O909 C917 1.258 . S
O910 Co885 1.941 . S
O910 C917 1.266 . S
H911 C913 0.959 . S
H912 C913 0.961 . S
C913 C903 1.510 . S
C913 H911 0.959 . S
C913 H912 0.961 . S
C913 H914 0.960 . S
H914 C913 0.960 . S
H915 N895 0.862 . S
O916 Co884 1.920 . S
O916 C889 1.289 . S
C917 O909 1.258 . S
C917 O910 1.266 . S
Co918 O921 1.970 . S
Co918 N935 1.989 . S
Co918 O943 1.967 . S
Co918 O950 1.920 . S
Co919 O922 1.966 . S
Co919 N928 2.022 . S
Co919 N936 1.993 . S
Co919 O944 1.941 . S
C920 O921 1.258 . S
C920 O922 1.263 . S
O921 Co918 1.970 . S
O921 C920 1.258 . S
O922 Co919 1.966 . S
O922 C920 1.263 . S
C923 O924 1.235 . S
C923 O950 1.289 . S
O924 C923 1.235 . S
C925 C927 1.400 . S
C925 N928 1.351 . S
C925 C930 1.501 . S
C926 C927 1.387 . S
C926 N929 1.341 . S
C927 C925 1.400 . S
C927 C926 1.387 . S
N928 Co919 2.022 . S
N928 C925 1.351 . S
N928 N929 1.365 . S
N929 C926 1.341 . S
N929 N928 1.365 . S
N929 H949 0.862 . S
C930 C925 1.501 . S
C930 H931 0.961 . S
C930 H932 0.961 . S
C930 H933 0.960 . S
H931 C930 0.961 . S
H932 C930 0.961 . S
H933 C930 0.960 . S
C934 N935 1.342 . S
C934 C938 1.401 . S
C934 C939 1.499 . S
N935 Co918 1.989 . S
N935 C934 1.342 . S
N935 N936 1.388 . S
N936 Co919 1.993 . S
N936 N935 1.388 . S
N936 C937 1.346 . S
C937 N936 1.346 . S
C937 C938 1.396 . S
C937 C947 1.510 . S
C938 C934 1.401 . S
C938 C937 1.396 . S
C939 C934 1.499 . S
C939 H940 0.959 . S
C939 H941 0.960 . S
C939 H942 0.961 . S
H940 C939 0.959 . S
H941 C939 0.960 . S
H942 C939 0.961 . S
O943 Co918 1.967 . S
O943 C951 1.258 . S
O944 Co919 1.941 . S
O944 C951 1.266 . S
H945 C947 0.959 . S
H946 C947 0.961 . S
C947 C937 1.510 . S
C947 H945 0.959 . S
C947 H946 0.961 . S
C947 H948 0.960 . S
H948 C947 0.960 . S
H949 N929 0.862 . S
O950 Co918 1.920 . S
O950 C923 1.289 . S
C951 O943 1.258 . S
C951 O944 1.266 . S
Co952 O955 1.970 . S
Co952 N969 1.989 . S
Co952 O977 1.967 . S
Co952 O984 1.920 . S
Co953 O956 1.966 . S
Co953 N962 2.022 . S
Co953 N970 1.993 . S
Co953 O978 1.941 . S
C954 O955 1.258 . S
C954 O956 1.263 . S
O955 Co952 1.970 . S
O955 C954 1.258 . S
O956 Co953 1.966 . S
O956 C954 1.263 . S
C957 O958 1.235 . S
C957 O984 1.289 . S
O958 C957 1.235 . S
C959 C961 1.400 . S
C959 N962 1.351 . S
C959 C964 1.501 . S
C960 C961 1.387 . S
C960 N963 1.341 . S
C961 C959 1.400 . S
C961 C960 1.387 . S
N962 Co953 2.022 . S
N962 C959 1.351 . S
N962 N963 1.365 . S
N963 C960 1.341 . S
N963 N962 1.365 . S
N963 H983 0.862 . S
C964 C959 1.501 . S
C964 H965 0.961 . S
C964 H966 0.961 . S
C964 H967 0.960 . S
H965 C964 0.961 . S
H966 C964 0.961 . S
H967 C964 0.960 . S
C968 N969 1.342 . S
C968 C972 1.401 . S
C968 C973 1.499 . S
N969 Co952 1.989 . S
N969 C968 1.342 . S
N969 N970 1.388 . S
N970 Co953 1.993 . S
N970 N969 1.388 . S
N970 C971 1.346 . S
C971 N970 1.346 . S
C971 C972 1.396 . S
C971 C981 1.510 . S
C972 C968 1.401 . S
C972 C971 1.396 . S
C973 C968 1.499 . S
C973 H974 0.959 . S
C973 H975 0.960 . S
C973 H976 0.961 . S
H974 C973 0.959 . S
H975 C973 0.960 . S
H976 C973 0.961 . S
O977 Co952 1.967 . S
O977 C985 1.258 . S
O978 Co953 1.941 . S
O978 C985 1.266 . S
H979 C981 0.959 . S
H980 C981 0.961 . S
C981 C971 1.510 . S
C981 H979 0.959 . S
C981 H980 0.961 . S
C981 H982 0.960 . S
H982 C981 0.960 . S
H983 N963 0.862 . S
O984 Co952 1.920 . S
O984 C957 1.289 . S
C985 O977 1.258 . S
C985 O978 1.266 . S
Co986 O989 1.970 . S
Co986 N1003 1.989 . S
Co986 O1011 1.967 . S
Co986 O1018 1.920 . S
Co987 O990 1.966 . S
Co987 N996 2.022 . S
Co987 N1004 1.993 . S
Co987 O1012 1.941 . S
C988 O989 1.258 . S
C988 O990 1.263 . S
O989 Co986 1.970 . S
O989 C988 1.258 . S
O990 Co987 1.966 . S
O990 C988 1.263 . S
C991 O992 1.235 . S
C991 O1018 1.289 . S
O992 C991 1.235 . S
C993 C995 1.400 . S
C993 N996 1.351 . S
C993 C998 1.501 . S
C994 C995 1.387 . S
C994 N997 1.341 . S
C995 C993 1.400 . S
C995 C994 1.387 . S
N996 Co987 2.022 . S
N996 C993 1.351 . S
N996 N997 1.365 . S
N997 C994 1.341 . S
N997 N996 1.365 . S
N997 H1017 0.862 . S
C998 C993 1.501 . S
C998 H999 0.961 . S
C998 H1000 0.961 . S
C998 H1001 0.960 . S
H999 C998 0.961 . S
H1000 C998 0.961 . S
H1001 C998 0.960 . S
C1002 N1003 1.342 . S
C1002 C1006 1.401 . S
C1002 C1007 1.499 . S
N1003 Co986 1.989 . S
N1003 C1002 1.342 . S
N1003 N1004 1.388 . S
N1004 Co987 1.993 . S
N1004 N1003 1.388 . S
N1004 C1005 1.346 . S
C1005 N1004 1.346 . S
C1005 C1006 1.396 . S
C1005 C1015 1.510 . S
C1006 C1002 1.401 . S
C1006 C1005 1.396 . S
C1007 C1002 1.499 . S
C1007 H1008 0.959 . S
C1007 H1009 0.960 . S
C1007 H1010 0.961 . S
H1008 C1007 0.959 . S
H1009 C1007 0.960 . S
H1010 C1007 0.961 . S
O1011 Co986 1.967 . S
O1011 C1019 1.258 . S
O1012 Co987 1.941 . S
O1012 C1019 1.266 . S
H1013 C1015 0.959 . S
H1014 C1015 0.961 . S
C1015 C1005 1.510 . S
C1015 H1013 0.959 . S
C1015 H1014 0.961 . S
C1015 H1016 0.960 . S
H1016 C1015 0.960 . S
H1017 N997 0.862 . S
O1018 Co986 1.920 . S
O1018 C991 1.289 . S
C1019 O1011 1.258 . S
C1019 O1012 1.266 . S
Co1020 O1023 1.970 . S
Co1020 N1037 1.989 . S
Co1020 O1045 1.967 . S
Co1020 O1052 1.920 . S
Co1021 O1024 1.966 . S
Co1021 N1030 2.022 . S
Co1021 N1038 1.993 . S
Co1021 O1046 1.941 . S
C1022 O1023 1.258 . S
C1022 O1024 1.263 . S
O1023 Co1020 1.970 . S
O1023 C1022 1.258 . S
O1024 Co1021 1.966 . S
O1024 C1022 1.263 . S
C1025 O1026 1.235 . S
C1025 O1052 1.289 . S
O1026 C1025 1.235 . S
C1027 C1029 1.400 . S
C1027 N1030 1.351 . S
C1027 C1032 1.501 . S
C1028 C1029 1.387 . S
C1028 N1031 1.341 . S
C1029 C1027 1.400 . S
C1029 C1028 1.387 . S
N1030 Co1021 2.022 . S
N1030 C1027 1.351 . S
N1030 N1031 1.365 . S
N1031 C1028 1.341 . S
N1031 N1030 1.365 . S
N1031 H1051 0.862 . S
C1032 C1027 1.501 . S
C1032 H1033 0.961 . S
C1032 H1034 0.961 . S
C1032 H1035 0.960 . S
H1033 C1032 0.961 . S
H1034 C1032 0.961 . S
H1035 C1032 0.960 . S
C1036 N1037 1.342 . S
C1036 C1040 1.401 . S
C1036 C1041 1.499 . S
N1037 Co1020 1.989 . S
N1037 C1036 1.342 . S
N1037 N1038 1.388 . S
N1038 Co1021 1.993 . S
N1038 N1037 1.388 . S
N1038 C1039 1.346 . S
C1039 N1038 1.346 . S
C1039 C1040 1.396 . S
C1039 C1049 1.510 . S
C1040 C1036 1.401 . S
C1040 C1039 1.396 . S
C1041 C1036 1.499 . S
C1041 H1042 0.959 . S
C1041 H1043 0.960 . S
C1041 H1044 0.961 . S
H1042 C1041 0.959 . S
H1043 C1041 0.960 . S
H1044 C1041 0.961 . S
O1045 Co1020 1.967 . S
O1045 C1053 1.258 . S
O1046 Co1021 1.941 . S
O1046 C1053 1.266 . S
H1047 C1049 0.959 . S
H1048 C1049 0.961 . S
C1049 C1039 1.510 . S
C1049 H1047 0.959 . S
C1049 H1048 0.961 . S
C1049 H1050 0.960 . S
H1050 C1049 0.960 . S
H1051 N1031 0.862 . S
O1052 Co1020 1.920 . S
O1052 C1025 1.289 . S
C1053 O1045 1.258 . S
C1053 O1046 1.266 . S
Co1054 O1057 1.970 . S
Co1054 N1071 1.989 . S
Co1054 O1079 1.967 . S
Co1054 O1086 1.920 . S
Co1055 O1058 1.966 . S
Co1055 N1064 2.022 . S
Co1055 N1072 1.993 . S
Co1055 O1080 1.941 . S
C1056 O1057 1.258 . S
C1056 O1058 1.263 . S
O1057 Co1054 1.970 . S
O1057 C1056 1.258 . S
O1058 Co1055 1.966 . S
O1058 C1056 1.263 . S
C1059 O1060 1.235 . S
C1059 O1086 1.289 . S
O1060 C1059 1.235 . S
C1061 C1063 1.400 . S
C1061 N1064 1.351 . S
C1061 C1066 1.501 . S
C1062 C1063 1.387 . S
C1062 N1065 1.341 . S
C1063 C1061 1.400 . S
C1063 C1062 1.387 . S
N1064 Co1055 2.022 . S
N1064 C1061 1.351 . S
N1064 N1065 1.365 . S
N1065 C1062 1.341 . S
N1065 N1064 1.365 . S
N1065 H1085 0.862 . S
C1066 C1061 1.501 . S
C1066 H1067 0.961 . S
C1066 H1068 0.961 . S
C1066 H1069 0.960 . S
H1067 C1066 0.961 . S
H1068 C1066 0.961 . S
H1069 C1066 0.960 . S
C1070 N1071 1.342 . S
C1070 C1074 1.401 . S
C1070 C1075 1.499 . S
N1071 Co1054 1.989 . S
N1071 C1070 1.342 . S
N1071 N1072 1.388 . S
N1072 Co1055 1.993 . S
N1072 N1071 1.388 . S
N1072 C1073 1.346 . S
C1073 N1072 1.346 . S
C1073 C1074 1.396 . S
C1073 C1083 1.510 . S
C1074 C1070 1.401 . S
C1074 C1073 1.396 . S
C1075 C1070 1.499 . S
C1075 H1076 0.959 . S
C1075 H1077 0.960 . S
C1075 H1078 0.961 . S
H1076 C1075 0.959 . S
H1077 C1075 0.960 . S
H1078 C1075 0.961 . S
O1079 Co1054 1.967 . S
O1079 C1087 1.258 . S
O1080 Co1055 1.941 . S
O1080 C1087 1.266 . S
H1081 C1083 0.959 . S
H1082 C1083 0.961 . S
C1083 C1073 1.510 . S
C1083 H1081 0.959 . S
C1083 H1082 0.961 . S
C1083 H1084 0.960 . S
H1084 C1083 0.960 . S
H1085 N1065 0.862 . S
O1086 Co1054 1.920 . S
O1086 C1059 1.289 . S
C1087 O1079 1.258 . S
C1087 O1080 1.266 . S
Co1088 O1091 1.970 . S
Co1088 N1105 1.989 . S
Co1088 O1113 1.967 . S
Co1088 O1120 1.920 . S
Co1089 O1092 1.966 . S
Co1089 N1098 2.022 . S
Co1089 N1106 1.993 . S
Co1089 O1114 1.941 . S
C1090 O1091 1.258 . S
C1090 O1092 1.263 . S
O1091 Co1088 1.970 . S
O1091 C1090 1.258 . S
O1092 Co1089 1.966 . S
O1092 C1090 1.263 . S
C1093 O1094 1.235 . S
C1093 O1120 1.289 . S
O1094 C1093 1.235 . S
C1095 C1097 1.400 . S
C1095 N1098 1.351 . S
C1095 C1100 1.501 . S
C1096 C1097 1.387 . S
C1096 N1099 1.341 . S
C1097 C1095 1.400 . S
C1097 C1096 1.387 . S
N1098 Co1089 2.022 . S
N1098 C1095 1.351 . S
N1098 N1099 1.365 . S
N1099 C1096 1.341 . S
N1099 N1098 1.365 . S
N1099 H1119 0.862 . S
C1100 C1095 1.501 . S
C1100 H1101 0.961 . S
C1100 H1102 0.961 . S
C1100 H1103 0.960 . S
H1101 C1100 0.961 . S
H1102 C1100 0.961 . S
H1103 C1100 0.960 . S
C1104 N1105 1.342 . S
C1104 C1108 1.401 . S
C1104 C1109 1.499 . S
N1105 Co1088 1.989 . S
N1105 C1104 1.342 . S
N1105 N1106 1.388 . S
N1106 Co1089 1.993 . S
N1106 N1105 1.388 . S
N1106 C1107 1.346 . S
C1107 N1106 1.346 . S
C1107 C1108 1.396 . S
C1107 C1117 1.510 . S
C1108 C1104 1.401 . S
C1108 C1107 1.396 . S
C1109 C1104 1.499 . S
C1109 H1110 0.959 . S
C1109 H1111 0.960 . S
C1109 H1112 0.961 . S
H1110 C1109 0.959 . S
H1111 C1109 0.960 . S
H1112 C1109 0.961 . S
O1113 Co1088 1.967 . S
O1113 C1121 1.258 . S
O1114 Co1089 1.941 . S
O1114 C1121 1.266 . S
H1115 C1117 0.959 . S
H1116 C1117 0.961 . S
C1117 C1107 1.510 . S
C1117 H1115 0.959 . S
C1117 H1116 0.961 . S
C1117 H1118 0.960 . S
H1118 C1117 0.960 . S
H1119 N1099 0.862 . S
O1120 Co1088 1.920 . S
O1120 C1093 1.289 . S
C1121 O1113 1.258 . S
C1121 O1114 1.266 . S
Co1122 O1125 1.970 . S
Co1122 N1139 1.989 . S
Co1122 O1147 1.967 . S
Co1122 O1154 1.920 . S
Co1123 O1126 1.966 . S
Co1123 N1132 2.022 . S
Co1123 N1140 1.993 . S
Co1123 O1148 1.941 . S
C1124 O1125 1.258 . S
C1124 O1126 1.263 . S
O1125 Co1122 1.970 . S
O1125 C1124 1.258 . S
O1126 Co1123 1.966 . S
O1126 C1124 1.263 . S
C1127 O1128 1.235 . S
C1127 O1154 1.289 . S
O1128 C1127 1.235 . S
C1129 C1131 1.400 . S
C1129 N1132 1.351 . S
C1129 C1134 1.501 . S
C1130 C1131 1.387 . S
C1130 N1133 1.341 . S
C1131 C1129 1.400 . S
C1131 C1130 1.387 . S
N1132 Co1123 2.022 . S
N1132 C1129 1.351 . S
N1132 N1133 1.365 . S
N1133 C1130 1.341 . S
N1133 N1132 1.365 . S
N1133 H1153 0.862 . S
C1134 C1129 1.501 . S
C1134 H1135 0.961 . S
C1134 H1136 0.961 . S
C1134 H1137 0.960 . S
H1135 C1134 0.961 . S
H1136 C1134 0.961 . S
H1137 C1134 0.960 . S
C1138 N1139 1.342 . S
C1138 C1142 1.401 . S
C1138 C1143 1.499 . S
N1139 Co1122 1.989 . S
N1139 C1138 1.342 . S
N1139 N1140 1.388 . S
N1140 Co1123 1.993 . S
N1140 N1139 1.388 . S
N1140 C1141 1.346 . S
C1141 N1140 1.346 . S
C1141 C1142 1.396 . S
C1141 C1151 1.510 . S
C1142 C1138 1.401 . S
C1142 C1141 1.396 . S
C1143 C1138 1.499 . S
C1143 H1144 0.959 . S
C1143 H1145 0.960 . S
C1143 H1146 0.961 . S
H1144 C1143 0.959 . S
H1145 C1143 0.960 . S
H1146 C1143 0.961 . S
O1147 Co1122 1.967 . S
O1147 C1155 1.258 . S
O1148 Co1123 1.941 . S
O1148 C1155 1.266 . S
H1149 C1151 0.959 . S
H1150 C1151 0.961 . S
C1151 C1141 1.510 . S
C1151 H1149 0.959 . S
C1151 H1150 0.961 . S
C1151 H1152 0.960 . S
H1152 C1151 0.960 . S
H1153 N1133 0.862 . S
O1154 Co1122 1.920 . S
O1154 C1127 1.289 . S
C1155 O1147 1.258 . S
C1155 O1148 1.266 . S
Co1156 O1159 1.970 . S
Co1156 N1173 1.989 . S
Co1156 O1181 1.967 . S
Co1156 O1188 1.920 . S
Co1157 O1160 1.966 . S
Co1157 N1166 2.022 . S
Co1157 N1174 1.993 . S
Co1157 O1182 1.941 . S
C1158 O1159 1.258 . S
C1158 O1160 1.263 . S
O1159 Co1156 1.970 . S
O1159 C1158 1.258 . S
O1160 Co1157 1.966 . S
O1160 C1158 1.263 . S
C1161 O1162 1.235 . S
C1161 O1188 1.289 . S
O1162 C1161 1.235 . S
C1163 C1165 1.400 . S
C1163 N1166 1.351 . S
C1163 C1168 1.501 . S
C1164 C1165 1.387 . S
C1164 N1167 1.341 . S
C1165 C1163 1.400 . S
C1165 C1164 1.387 . S
N1166 Co1157 2.022 . S
N1166 C1163 1.351 . S
N1166 N1167 1.365 . S
N1167 C1164 1.341 . S
N1167 N1166 1.365 . S
N1167 H1187 0.862 . S
C1168 C1163 1.501 . S
C1168 H1169 0.961 . S
C1168 H1170 0.961 . S
C1168 H1171 0.960 . S
H1169 C1168 0.961 . S
H1170 C1168 0.961 . S
H1171 C1168 0.960 . S
C1172 N1173 1.342 . S
C1172 C1176 1.401 . S
C1172 C1177 1.499 . S
N1173 Co1156 1.989 . S
N1173 C1172 1.342 . S
N1173 N1174 1.388 . S
N1174 Co1157 1.993 . S
N1174 N1173 1.388 . S
N1174 C1175 1.346 . S
C1175 N1174 1.346 . S
C1175 C1176 1.396 . S
C1175 C1185 1.510 . S
C1176 C1172 1.401 . S
C1176 C1175 1.396 . S
C1177 C1172 1.499 . S
C1177 H1178 0.959 . S
C1177 H1179 0.960 . S
C1177 H1180 0.961 . S
H1178 C1177 0.959 . S
H1179 C1177 0.960 . S
H1180 C1177 0.961 . S
O1181 Co1156 1.967 . S
O1181 C1189 1.258 . S
O1182 Co1157 1.941 . S
O1182 C1189 1.266 . S
H1183 C1185 0.959 . S
H1184 C1185 0.961 . S
C1185 C1175 1.510 . S
C1185 H1183 0.959 . S
C1185 H1184 0.961 . S
C1185 H1186 0.960 . S
H1186 C1185 0.960 . S
H1187 N1167 0.862 . S
O1188 Co1156 1.920 . S
O1188 C1161 1.289 . S
C1189 O1181 1.258 . S
C1189 O1182 1.266 . S
Co1190 O1193 1.970 . S
Co1190 N1207 1.989 . S
Co1190 O1215 1.967 . S
Co1190 O1222 1.920 . S
Co1191 O1194 1.966 . S
Co1191 N1200 2.022 . S
Co1191 N1208 1.993 . S
Co1191 O1216 1.941 . S
C1192 O1193 1.258 . S
C1192 O1194 1.263 . S
O1193 Co1190 1.970 . S
O1193 C1192 1.258 . S
O1194 Co1191 1.966 . S
O1194 C1192 1.263 . S
C1195 O1196 1.235 . S
C1195 O1222 1.289 . S
O1196 C1195 1.235 . S
C1197 C1199 1.400 . S
C1197 N1200 1.351 . S
C1197 C1202 1.501 . S
C1198 C1199 1.387 . S
C1198 N1201 1.341 . S
C1199 C1197 1.400 . S
C1199 C1198 1.387 . S
N1200 Co1191 2.022 . S
N1200 C1197 1.351 . S
N1200 N1201 1.365 . S
N1201 C1198 1.341 . S
N1201 N1200 1.365 . S
N1201 H1221 0.862 . S
C1202 C1197 1.501 . S
C1202 H1203 0.961 . S
C1202 H1204 0.961 . S
C1202 H1205 0.960 . S
H1203 C1202 0.961 . S
H1204 C1202 0.961 . S
H1205 C1202 0.960 . S
C1206 N1207 1.342 . S
C1206 C1210 1.401 . S
C1206 C1211 1.499 . S
N1207 Co1190 1.989 . S
N1207 C1206 1.342 . S
N1207 N1208 1.388 . S
N1208 Co1191 1.993 . S
N1208 N1207 1.388 . S
N1208 C1209 1.346 . S
C1209 N1208 1.346 . S
C1209 C1210 1.396 . S
C1209 C1219 1.510 . S
C1210 C1206 1.401 . S
C1210 C1209 1.396 . S
C1211 C1206 1.499 . S
C1211 H1212 0.959 . S
C1211 H1213 0.960 . S
C1211 H1214 0.961 . S
H1212 C1211 0.959 . S
H1213 C1211 0.960 . S
H1214 C1211 0.961 . S
O1215 Co1190 1.967 . S
O1215 C1223 1.258 . S
O1216 Co1191 1.941 . S
O1216 C1223 1.266 . S
H1217 C1219 0.959 . S
H1218 C1219 0.961 . S
C1219 C1209 1.510 . S
C1219 H1217 0.959 . S
C1219 H1218 0.961 . S
C1219 H1220 0.960 . S
H1220 C1219 0.960 . S
H1221 N1201 0.862 . S
O1222 Co1190 1.920 . S
O1222 C1195 1.289 . S
C1223 O1215 1.258 . S
C1223 O1216 1.266 . S
Co1224 O1227 1.970 . S
Co1224 N1241 1.989 . S
Co1224 O1249 1.967 . S
Co1224 O1256 1.920 . S
Co1225 O1228 1.966 . S
Co1225 N1234 2.022 . S
Co1225 N1242 1.993 . S
Co1225 O1250 1.941 . S
C1226 O1227 1.258 . S
C1226 O1228 1.263 . S
O1227 Co1224 1.970 . S
O1227 C1226 1.258 . S
O1228 Co1225 1.966 . S
O1228 C1226 1.263 . S
C1229 O1230 1.235 . S
C1229 O1256 1.289 . S
O1230 C1229 1.235 . S
C1231 C1233 1.400 . S
C1231 N1234 1.351 . S
C1231 C1236 1.501 . S
C1232 C1233 1.387 . S
C1232 N1235 1.341 . S
C1233 C1231 1.400 . S
C1233 C1232 1.387 . S
N1234 Co1225 2.022 . S
N1234 C1231 1.351 . S
N1234 N1235 1.365 . S
N1235 C1232 1.341 . S
N1235 N1234 1.365 . S
N1235 H1255 0.862 . S
C1236 C1231 1.501 . S
C1236 H1237 0.961 . S
C1236 H1238 0.961 . S
C1236 H1239 0.960 . S
H1237 C1236 0.961 . S
H1238 C1236 0.961 . S
H1239 C1236 0.960 . S
C1240 N1241 1.342 . S
C1240 C1244 1.401 . S
C1240 C1245 1.499 . S
N1241 Co1224 1.989 . S
N1241 C1240 1.342 . S
N1241 N1242 1.388 . S
N1242 Co1225 1.993 . S
N1242 N1241 1.388 . S
N1242 C1243 1.346 . S
C1243 N1242 1.346 . S
C1243 C1244 1.396 . S
C1243 C1253 1.510 . S
C1244 C1240 1.401 . S
C1244 C1243 1.396 . S
C1245 C1240 1.499 . S
C1245 H1246 0.959 . S
C1245 H1247 0.960 . S
C1245 H1248 0.961 . S
H1246 C1245 0.959 . S
H1247 C1245 0.960 . S
H1248 C1245 0.961 . S
O1249 Co1224 1.967 . S
O1249 C1257 1.258 . S
O1250 Co1225 1.941 . S
O1250 C1257 1.266 . S
H1251 C1253 0.959 . S
H1252 C1253 0.961 . S
C1253 C1243 1.510 . S
C1253 H1251 0.959 . S
C1253 H1252 0.961 . S
C1253 H1254 0.960 . S
H1254 C1253 0.960 . S
H1255 N1235 0.862 . S
O1256 Co1224 1.920 . S
O1256 C1229 1.289 . S
C1257 O1249 1.258 . S
C1257 O1250 1.266 . S
Co1258 O1261 1.970 . S
Co1258 N1275 1.989 . S
Co1258 O1283 1.967 . S
Co1258 O1290 1.920 . S
Co1259 O1262 1.966 . S
Co1259 N1268 2.022 . S
Co1259 N1276 1.993 . S
Co1259 O1284 1.941 . S
C1260 O1261 1.258 . S
C1260 O1262 1.263 . S
O1261 Co1258 1.970 . S
O1261 C1260 1.258 . S
O1262 Co1259 1.966 . S
O1262 C1260 1.263 . S
C1263 O1264 1.235 . S
C1263 O1290 1.289 . S
O1264 C1263 1.235 . S
C1265 C1267 1.400 . S
C1265 N1268 1.351 . S
C1265 C1270 1.501 . S
C1266 C1267 1.387 . S
C1266 N1269 1.341 . S
C1267 C1265 1.400 . S
C1267 C1266 1.387 . S
N1268 Co1259 2.022 . S
N1268 C1265 1.351 . S
N1268 N1269 1.365 . S
N1269 C1266 1.341 . S
N1269 N1268 1.365 . S
N1269 H1289 0.862 . S
C1270 C1265 1.501 . S
C1270 H1271 0.961 . S
C1270 H1272 0.961 . S
C1270 H1273 0.960 . S
H1271 C1270 0.961 . S
H1272 C1270 0.961 . S
H1273 C1270 0.960 . S
C1274 N1275 1.342 . S
C1274 C1278 1.401 . S
C1274 C1279 1.499 . S
N1275 Co1258 1.989 . S
N1275 C1274 1.342 . S
N1275 N1276 1.388 . S
N1276 Co1259 1.993 . S
N1276 N1275 1.388 . S
N1276 C1277 1.346 . S
C1277 N1276 1.346 . S
C1277 C1278 1.396 . S
C1277 C1287 1.510 . S
C1278 C1274 1.401 . S
C1278 C1277 1.396 . S
C1279 C1274 1.499 . S
C1279 H1280 0.959 . S
C1279 H1281 0.960 . S
C1279 H1282 0.961 . S
H1280 C1279 0.959 . S
H1281 C1279 0.960 . S
H1282 C1279 0.961 . S
O1283 Co1258 1.967 . S
O1283 C1291 1.258 . S
O1284 Co1259 1.941 . S
O1284 C1291 1.266 . S
H1285 C1287 0.959 . S
H1286 C1287 0.961 . S
C1287 C1277 1.510 . S
C1287 H1285 0.959 . S
C1287 H1286 0.961 . S
C1287 H1288 0.960 . S
H1288 C1287 0.960 . S
H1289 N1269 0.862 . S
O1290 Co1258 1.920 . S
O1290 C1263 1.289 . S
C1291 O1283 1.258 . S
C1291 O1284 1.266 . S
Co1292 O1295 1.970 . S
Co1292 N1309 1.989 . S
Co1292 O1317 1.967 . S
Co1292 O1324 1.920 . S
Co1293 O1296 1.966 . S
Co1293 N1302 2.022 . S
Co1293 N1310 1.993 . S
Co1293 O1318 1.941 . S
C1294 O1295 1.258 . S
C1294 O1296 1.263 . S
O1295 Co1292 1.970 . S
O1295 C1294 1.258 . S
O1296 Co1293 1.966 . S
O1296 C1294 1.263 . S
C1297 O1298 1.235 . S
C1297 O1324 1.289 . S
O1298 C1297 1.235 . S
C1299 C1301 1.400 . S
C1299 N1302 1.351 . S
C1299 C1304 1.501 . S
C1300 C1301 1.387 . S
C1300 N1303 1.341 . S
C1301 C1299 1.400 . S
C1301 C1300 1.387 . S
N1302 Co1293 2.022 . S
N1302 C1299 1.351 . S
N1302 N1303 1.365 . S
N1303 C1300 1.341 . S
N1303 N1302 1.365 . S
N1303 H1323 0.862 . S
C1304 C1299 1.501 . S
C1304 H1305 0.961 . S
C1304 H1306 0.961 . S
C1304 H1307 0.960 . S
H1305 C1304 0.961 . S
H1306 C1304 0.961 . S
H1307 C1304 0.960 . S
C1308 N1309 1.342 . S
C1308 C1312 1.401 . S
C1308 C1313 1.499 . S
N1309 Co1292 1.989 . S
N1309 C1308 1.342 . S
N1309 N1310 1.388 . S
N1310 Co1293 1.993 . S
N1310 N1309 1.388 . S
N1310 C1311 1.346 . S
C1311 N1310 1.346 . S
C1311 C1312 1.396 . S
C1311 C1321 1.510 . S
C1312 C1308 1.401 . S
C1312 C1311 1.396 . S
C1313 C1308 1.499 . S
C1313 H1314 0.959 . S
C1313 H1315 0.960 . S
C1313 H1316 0.961 . S
H1314 C1313 0.959 . S
H1315 C1313 0.960 . S
H1316 C1313 0.961 . S
O1317 Co1292 1.967 . S
O1317 C1325 1.258 . S
O1318 Co1293 1.941 . S
O1318 C1325 1.266 . S
H1319 C1321 0.959 . S
H1320 C1321 0.961 . S
C1321 C1311 1.510 . S
C1321 H1319 0.959 . S
C1321 H1320 0.961 . S
C1321 H1322 0.960 . S
H1322 C1321 0.960 . S
H1323 N1303 0.862 . S
O1324 Co1292 1.920 . S
O1324 C1297 1.289 . S
C1325 O1317 1.258 . S
C1325 O1318 1.266 . S
Co1326 O1329 1.970 . S
Co1326 N1343 1.989 . S
Co1326 O1351 1.967 . S
Co1326 O1358 1.920 . S
Co1327 O1330 1.966 . S
Co1327 N1336 2.022 . S
Co1327 N1344 1.993 . S
Co1327 O1352 1.941 . S
C1328 O1329 1.258 . S
C1328 O1330 1.263 . S
O1329 Co1326 1.970 . S
O1329 C1328 1.258 . S
O1330 Co1327 1.966 . S
O1330 C1328 1.263 . S
C1331 O1332 1.235 . S
C1331 O1358 1.289 . S
O1332 C1331 1.235 . S
C1333 C1335 1.400 . S
C1333 N1336 1.351 . S
C1333 C1338 1.501 . S
C1334 C1335 1.387 . S
C1334 N1337 1.341 . S
C1335 C1333 1.400 . S
C1335 C1334 1.387 . S
N1336 Co1327 2.022 . S
N1336 C1333 1.351 . S
N1336 N1337 1.365 . S
N1337 C1334 1.341 . S
N1337 N1336 1.365 . S
N1337 H1357 0.862 . S
C1338 C1333 1.501 . S
C1338 H1339 0.961 . S
C1338 H1340 0.961 . S
C1338 H1341 0.960 . S
H1339 C1338 0.961 . S
H1340 C1338 0.961 . S
H1341 C1338 0.960 . S
C1342 N1343 1.342 . S
C1342 C1346 1.401 . S
C1342 C1347 1.499 . S
N1343 Co1326 1.989 . S
N1343 C1342 1.342 . S
N1343 N1344 1.388 . S
N1344 Co1327 1.993 . S
N1344 N1343 1.388 . S
N1344 C1345 1.346 . S
C1345 N1344 1.346 . S
C1345 C1346 1.396 . S
C1345 C1355 1.510 . S
C1346 C1342 1.401 . S
C1346 C1345 1.396 . S
C1347 C1342 1.499 . S
C1347 H1348 0.959 . S
C1347 H1349 0.960 . S
C1347 H1350 0.961 . S
H1348 C1347 0.959 . S
H1349 C1347 0.960 . S
H1350 C1347 0.961 . S
O1351 Co1326 1.967 . S
O1351 C1359 1.258 . S
O1352 Co1327 1.941 . S
O1352 C1359 1.266 . S
H1353 C1355 0.959 . S
H1354 C1355 0.961 . S
C1355 C1345 1.510 . S
C1355 H1353 0.959 . S
C1355 H1354 0.961 . S
C1355 H1356 0.960 . S
H1356 C1355 0.960 . S
H1357 N1337 0.862 . S
O1358 Co1326 1.920 . S
O1358 C1331 1.289 . S
C1359 O1351 1.258 . S
C1359 O1352 1.266 . S
Co1360 O1363 1.970 . S
Co1360 N1377 1.989 . S
Co1360 O1385 1.967 . S
Co1360 O1392 1.920 . S
Co1361 O1364 1.966 . S
Co1361 N1370 2.022 . S
Co1361 N1378 1.993 . S
Co1361 O1386 1.941 . S
C1362 O1363 1.258 . S
C1362 O1364 1.263 . S
O1363 Co1360 1.970 . S
O1363 C1362 1.258 . S
O1364 Co1361 1.966 . S
O1364 C1362 1.263 . S
C1365 O1366 1.235 . S
C1365 O1392 1.289 . S
O1366 C1365 1.235 . S
C1367 C1369 1.400 . S
C1367 N1370 1.351 . S
C1367 C1372 1.501 . S
C1368 C1369 1.387 . S
C1368 N1371 1.341 . S
C1369 C1367 1.400 . S
C1369 C1368 1.387 . S
N1370 Co1361 2.022 . S
N1370 C1367 1.351 . S
N1370 N1371 1.365 . S
N1371 C1368 1.341 . S
N1371 N1370 1.365 . S
N1371 H1391 0.862 . S
C1372 C1367 1.501 . S
C1372 H1373 0.961 . S
C1372 H1374 0.961 . S
C1372 H1375 0.960 . S
H1373 C1372 0.961 . S
H1374 C1372 0.961 . S
H1375 C1372 0.960 . S
C1376 N1377 1.342 . S
C1376 C1380 1.401 . S
C1376 C1381 1.499 . S
N1377 Co1360 1.989 . S
N1377 C1376 1.342 . S
N1377 N1378 1.388 . S
N1378 Co1361 1.993 . S
N1378 N1377 1.388 . S
N1378 C1379 1.346 . S
C1379 N1378 1.346 . S
C1379 C1380 1.396 . S
C1379 C1389 1.510 . S
C1380 C1376 1.401 . S
C1380 C1379 1.396 . S
C1381 C1376 1.499 . S
C1381 H1382 0.959 . S
C1381 H1383 0.960 . S
C1381 H1384 0.961 . S
H1382 C1381 0.959 . S
H1383 C1381 0.960 . S
H1384 C1381 0.961 . S
O1385 Co1360 1.967 . S
O1385 C1393 1.258 . S
O1386 Co1361 1.941 . S
O1386 C1393 1.266 . S
H1387 C1389 0.959 . S
H1388 C1389 0.961 . S
C1389 C1379 1.510 . S
C1389 H1387 0.959 . S
C1389 H1388 0.961 . S
C1389 H1390 0.960 . S
H1390 C1389 0.960 . S
H1391 N1371 0.862 . S
O1392 Co1360 1.920 . S
O1392 C1365 1.289 . S
C1393 O1385 1.258 . S
C1393 O1386 1.266 . S
Co1394 O1397 1.970 . S
Co1394 N1411 1.989 . S
Co1394 O1419 1.967 . S
Co1394 O1426 1.920 . S
Co1395 O1398 1.966 . S
Co1395 N1404 2.022 . S
Co1395 N1412 1.993 . S
Co1395 O1420 1.941 . S
C1396 O1397 1.258 . S
C1396 O1398 1.263 . S
O1397 Co1394 1.970 . S
O1397 C1396 1.258 . S
O1398 Co1395 1.966 . S
O1398 C1396 1.263 . S
C1399 O1400 1.235 . S
C1399 O1426 1.289 . S
O1400 C1399 1.235 . S
C1401 C1403 1.400 . S
C1401 N1404 1.351 . S
C1401 C1406 1.501 . S
C1402 C1403 1.387 . S
C1402 N1405 1.341 . S
C1403 C1401 1.400 . S
C1403 C1402 1.387 . S
N1404 Co1395 2.022 . S
N1404 C1401 1.351 . S
N1404 N1405 1.365 . S
N1405 C1402 1.341 . S
N1405 N1404 1.365 . S
N1405 H1425 0.862 . S
C1406 C1401 1.501 . S
C1406 H1407 0.961 . S
C1406 H1408 0.961 . S
C1406 H1409 0.960 . S
H1407 C1406 0.961 . S
H1408 C1406 0.961 . S
H1409 C1406 0.960 . S
C1410 N1411 1.342 . S
C1410 C1414 1.401 . S
C1410 C1415 1.499 . S
N1411 Co1394 1.989 . S
N1411 C1410 1.342 . S
N1411 N1412 1.388 . S
N1412 Co1395 1.993 . S
N1412 N1411 1.388 . S
N1412 C1413 1.346 . S
C1413 N1412 1.346 . S
C1413 C1414 1.396 . S
C1413 C1423 1.510 . S
C1414 C1410 1.401 . S
C1414 C1413 1.396 . S
C1415 C1410 1.499 . S
C1415 H1416 0.959 . S
C1415 H1417 0.960 . S
C1415 H1418 0.961 . S
H1416 C1415 0.959 . S
H1417 C1415 0.960 . S
H1418 C1415 0.961 . S
O1419 Co1394 1.967 . S
O1419 C1427 1.258 . S
O1420 Co1395 1.941 . S
O1420 C1427 1.266 . S
H1421 C1423 0.959 . S
H1422 C1423 0.961 . S
C1423 C1413 1.510 . S
C1423 H1421 0.959 . S
C1423 H1422 0.961 . S
C1423 H1424 0.960 . S
H1424 C1423 0.960 . S
H1425 N1405 0.862 . S
O1426 Co1394 1.920 . S
O1426 C1399 1.289 . S
C1427 O1419 1.258 . S
C1427 O1420 1.266 . S
Co1428 O1431 1.970 . S
Co1428 N1445 1.989 . S
Co1428 O1453 1.967 . S
Co1428 O1460 1.920 . S
Co1429 O1432 1.966 . S
Co1429 N1438 2.022 . S
Co1429 N1446 1.993 . S
Co1429 O1454 1.941 . S
C1430 O1431 1.258 . S
C1430 O1432 1.263 . S
O1431 Co1428 1.970 . S
O1431 C1430 1.258 . S
O1432 Co1429 1.966 . S
O1432 C1430 1.263 . S
C1433 O1434 1.235 . S
C1433 O1460 1.289 . S
O1434 C1433 1.235 . S
C1435 C1437 1.400 . S
C1435 N1438 1.351 . S
C1435 C1440 1.501 . S
C1436 C1437 1.387 . S
C1436 N1439 1.341 . S
C1437 C1435 1.400 . S
C1437 C1436 1.387 . S
N1438 Co1429 2.022 . S
N1438 C1435 1.351 . S
N1438 N1439 1.365 . S
N1439 C1436 1.341 . S
N1439 N1438 1.365 . S
N1439 H1459 0.862 . S
C1440 C1435 1.501 . S
C1440 H1441 0.961 . S
C1440 H1442 0.961 . S
C1440 H1443 0.960 . S
H1441 C1440 0.961 . S
H1442 C1440 0.961 . S
H1443 C1440 0.960 . S
C1444 N1445 1.342 . S
C1444 C1448 1.401 . S
C1444 C1449 1.499 . S
N1445 Co1428 1.989 . S
N1445 C1444 1.342 . S
N1445 N1446 1.388 . S
N1446 Co1429 1.993 . S
N1446 N1445 1.388 . S
N1446 C1447 1.346 . S
C1447 N1446 1.346 . S
C1447 C1448 1.396 . S
C1447 C1457 1.510 . S
C1448 C1444 1.401 . S
C1448 C1447 1.396 . S
C1449 C1444 1.499 . S
C1449 H1450 0.959 . S
C1449 H1451 0.960 . S
C1449 H1452 0.961 . S
H1450 C1449 0.959 . S
H1451 C1449 0.960 . S
H1452 C1449 0.961 . S
O1453 Co1428 1.967 . S
O1453 C1461 1.258 . S
O1454 Co1429 1.941 . S
O1454 C1461 1.266 . S
H1455 C1457 0.959 . S
H1456 C1457 0.961 . S
C1457 C1447 1.510 . S
C1457 H1455 0.959 . S
C1457 H1456 0.961 . S
C1457 H1458 0.960 . S
H1458 C1457 0.960 . S
H1459 N1439 0.862 . S
O1460 Co1428 1.920 . S
O1460 C1433 1.289 . S
C1461 O1453 1.258 . S
C1461 O1454 1.266 . S
Co1462 O1465 1.970 . S
Co1462 N1479 1.989 . S
Co1462 O1487 1.967 . S
Co1462 O1494 1.920 . S
Co1463 O1466 1.966 . S
Co1463 N1472 2.022 . S
Co1463 N1480 1.993 . S
Co1463 O1488 1.941 . S
C1464 O1465 1.258 . S
C1464 O1466 1.263 . S
O1465 Co1462 1.970 . S
O1465 C1464 1.258 . S
O1466 Co1463 1.966 . S
O1466 C1464 1.263 . S
C1467 O1468 1.235 . S
C1467 O1494 1.289 . S
O1468 C1467 1.235 . S
C1469 C1471 1.400 . S
C1469 N1472 1.351 . S
C1469 C1474 1.501 . S
C1470 C1471 1.387 . S
C1470 N1473 1.341 . S
C1471 C1469 1.400 . S
C1471 C1470 1.387 . S
N1472 Co1463 2.022 . S
N1472 C1469 1.351 . S
N1472 N1473 1.365 . S
N1473 C1470 1.341 . S
N1473 N1472 1.365 . S
N1473 H1493 0.862 . S
C1474 C1469 1.501 . S
C1474 H1475 0.961 . S
C1474 H1476 0.961 . S
C1474 H1477 0.960 . S
H1475 C1474 0.961 . S
H1476 C1474 0.961 . S
H1477 C1474 0.960 . S
C1478 N1479 1.342 . S
C1478 C1482 1.401 . S
C1478 C1483 1.499 . S
N1479 Co1462 1.989 . S
N1479 C1478 1.342 . S
N1479 N1480 1.388 . S
N1480 Co1463 1.993 . S
N1480 N1479 1.388 . S
N1480 C1481 1.346 . S
C1481 N1480 1.346 . S
C1481 C1482 1.396 . S
C1481 C1491 1.510 . S
C1482 C1478 1.401 . S
C1482 C1481 1.396 . S
C1483 C1478 1.499 . S
C1483 H1484 0.959 . S
C1483 H1485 0.960 . S
C1483 H1486 0.961 . S
H1484 C1483 0.959 . S
H1485 C1483 0.960 . S
H1486 C1483 0.961 . S
O1487 Co1462 1.967 . S
O1487 C1495 1.258 . S
O1488 Co1463 1.941 . S
O1488 C1495 1.266 . S
H1489 C1491 0.959 . S
H1490 C1491 0.961 . S
C1491 C1481 1.510 . S
C1491 H1489 0.959 . S
C1491 H1490 0.961 . S
C1491 H1492 0.960 . S
H1492 C1491 0.960 . S
H1493 N1473 0.862 . S
O1494 Co1462 1.920 . S
O1494 C1467 1.289 . S
C1495 O1487 1.258 . S
C1495 O1488 1.266 . S
Co1496 O1499 1.970 . S
Co1496 N1513 1.989 . S
Co1496 O1521 1.967 . S
Co1496 O1528 1.920 . S
Co1497 O1500 1.966 . S
Co1497 N1506 2.022 . S
Co1497 N1514 1.993 . S
Co1497 O1522 1.941 . S
C1498 O1499 1.258 . S
C1498 O1500 1.263 . S
O1499 Co1496 1.970 . S
O1499 C1498 1.258 . S
O1500 Co1497 1.966 . S
O1500 C1498 1.263 . S
C1501 O1502 1.235 . S
C1501 O1528 1.289 . S
O1502 C1501 1.235 . S
C1503 C1505 1.400 . S
C1503 N1506 1.351 . S
C1503 C1508 1.501 . S
C1504 C1505 1.387 . S
C1504 N1507 1.341 . S
C1505 C1503 1.400 . S
C1505 C1504 1.387 . S
N1506 Co1497 2.022 . S
N1506 C1503 1.351 . S
N1506 N1507 1.365 . S
N1507 C1504 1.341 . S
N1507 N1506 1.365 . S
N1507 H1527 0.862 . S
C1508 C1503 1.501 . S
C1508 H1509 0.961 . S
C1508 H1510 0.961 . S
C1508 H1511 0.960 . S
H1509 C1508 0.961 . S
H1510 C1508 0.961 . S
H1511 C1508 0.960 . S
C1512 N1513 1.342 . S
C1512 C1516 1.401 . S
C1512 C1517 1.499 . S
N1513 Co1496 1.989 . S
N1513 C1512 1.342 . S
N1513 N1514 1.388 . S
N1514 Co1497 1.993 . S
N1514 N1513 1.388 . S
N1514 C1515 1.346 . S
C1515 N1514 1.346 . S
C1515 C1516 1.396 . S
C1515 C1525 1.510 . S
C1516 C1512 1.401 . S
C1516 C1515 1.396 . S
C1517 C1512 1.499 . S
C1517 H1518 0.959 . S
C1517 H1519 0.960 . S
C1517 H1520 0.961 . S
H1518 C1517 0.959 . S
H1519 C1517 0.960 . S
H1520 C1517 0.961 . S
O1521 Co1496 1.967 . S
O1521 C1529 1.258 . S
O1522 Co1497 1.941 . S
O1522 C1529 1.266 . S
H1523 C1525 0.959 . S
H1524 C1525 0.961 . S
C1525 C1515 1.510 . S
C1525 H1523 0.959 . S
C1525 H1524 0.961 . S
C1525 H1526 0.960 . S
H1526 C1525 0.960 . S
H1527 N1507 0.862 . S
O1528 Co1496 1.920 . S
O1528 C1501 1.289 . S
C1529 O1521 1.258 . S
C1529 O1522 1.266 . S
Co1530 O1533 1.970 . S
Co1530 N1547 1.989 . S
Co1530 O1555 1.967 . S
Co1530 O1562 1.920 . S
Co1531 O1534 1.966 . S
Co1531 N1540 2.022 . S
Co1531 N1548 1.993 . S
Co1531 O1556 1.941 . S
C1532 O1533 1.258 . S
C1532 O1534 1.263 . S
O1533 Co1530 1.970 . S
O1533 C1532 1.258 . S
O1534 Co1531 1.966 . S
O1534 C1532 1.263 . S
C1535 O1536 1.235 . S
C1535 O1562 1.289 . S
O1536 C1535 1.235 . S
C1537 C1539 1.400 . S
C1537 N1540 1.351 . S
C1537 C1542 1.501 . S
C1538 C1539 1.387 . S
C1538 N1541 1.341 . S
C1539 C1537 1.400 . S
C1539 C1538 1.387 . S
N1540 Co1531 2.022 . S
N1540 C1537 1.351 . S
N1540 N1541 1.365 . S
N1541 C1538 1.341 . S
N1541 N1540 1.365 . S
N1541 H1561 0.862 . S
C1542 C1537 1.501 . S
C1542 H1543 0.961 . S
C1542 H1544 0.961 . S
C1542 H1545 0.960 . S
H1543 C1542 0.961 . S
H1544 C1542 0.961 . S
H1545 C1542 0.960 . S
C1546 N1547 1.342 . S
C1546 C1550 1.401 . S
C1546 C1551 1.499 . S
N1547 Co1530 1.989 . S
N1547 C1546 1.342 . S
N1547 N1548 1.388 . S
N1548 Co1531 1.993 . S
N1548 N1547 1.388 . S
N1548 C1549 1.346 . S
C1549 N1548 1.346 . S
C1549 C1550 1.396 . S
C1549 C1559 1.510 . S
C1550 C1546 1.401 . S
C1550 C1549 1.396 . S
C1551 C1546 1.499 . S
C1551 H1552 0.959 . S
C1551 H1553 0.960 . S
C1551 H1554 0.961 . S
H1552 C1551 0.959 . S
H1553 C1551 0.960 . S
H1554 C1551 0.961 . S
O1555 Co1530 1.967 . S
O1555 C1563 1.258 . S
O1556 Co1531 1.941 . S
O1556 C1563 1.266 . S
H1557 C1559 0.959 . S
H1558 C1559 0.961 . S
C1559 C1549 1.510 . S
C1559 H1557 0.959 . S
C1559 H1558 0.961 . S
C1559 H1560 0.960 . S
H1560 C1559 0.960 . S
H1561 N1541 0.862 . S
O1562 Co1530 1.920 . S
O1562 C1535 1.289 . S
C1563 O1555 1.258 . S
C1563 O1556 1.266 . S
Co1564 O1567 1.970 . S
Co1564 N1581 1.989 . S
Co1564 O1589 1.967 . S
Co1564 O1596 1.920 . S
Co1565 O1568 1.966 . S
Co1565 N1574 2.022 . S
Co1565 N1582 1.993 . S
Co1565 O1590 1.941 . S
C1566 O1567 1.258 . S
C1566 O1568 1.263 . S
O1567 Co1564 1.970 . S
O1567 C1566 1.258 . S
O1568 Co1565 1.966 . S
O1568 C1566 1.263 . S
C1569 O1570 1.235 . S
C1569 O1596 1.289 . S
O1570 C1569 1.235 . S
C1571 C1573 1.400 . S
C1571 N1574 1.351 . S
C1571 C1576 1.501 . S
C1572 C1573 1.387 . S
C1572 N1575 1.341 . S
C1573 C1571 1.400 . S
C1573 C1572 1.387 . S
N1574 Co1565 2.022 . S
N1574 C1571 1.351 . S
N1574 N1575 1.365 . S
N1575 C1572 1.341 . S
N1575 N1574 1.365 . S
N1575 H1595 0.862 . S
C1576 C1571 1.501 . S
C1576 H1577 0.961 . S
C1576 H1578 0.961 . S
C1576 H1579 0.960 . S
H1577 C1576 0.961 . S
H1578 C1576 0.961 . S
H1579 C1576 0.960 . S
C1580 N1581 1.342 . S
C1580 C1584 1.401 . S
C1580 C1585 1.499 . S
N1581 Co1564 1.989 . S
N1581 C1580 1.342 . S
N1581 N1582 1.388 . S
N1582 Co1565 1.993 . S
N1582 N1581 1.388 . S
N1582 C1583 1.346 . S
C1583 N1582 1.346 . S
C1583 C1584 1.396 . S
C1583 C1593 1.510 . S
C1584 C1580 1.401 . S
C1584 C1583 1.396 . S
C1585 C1580 1.499 . S
C1585 H1586 0.959 . S
C1585 H1587 0.960 . S
C1585 H1588 0.961 . S
H1586 C1585 0.959 . S
H1587 C1585 0.960 . S
H1588 C1585 0.961 . S
O1589 Co1564 1.967 . S
O1589 C1597 1.258 . S
O1590 Co1565 1.941 . S
O1590 C1597 1.266 . S
H1591 C1593 0.959 . S
H1592 C1593 0.961 . S
C1593 C1583 1.510 . S
C1593 H1591 0.959 . S
C1593 H1592 0.961 . S
C1593 H1594 0.960 . S
H1594 C1593 0.960 . S
H1595 N1575 0.862 . S
O1596 Co1564 1.920 . S
O1596 C1569 1.289 . S
C1597 O1589 1.258 . S
C1597 O1590 1.266 . S
Co1598 O1601 1.970 . S
Co1598 N1615 1.989 . S
Co1598 O1623 1.967 . S
Co1598 O1630 1.920 . S
Co1599 O1602 1.966 . S
Co1599 N1608 2.022 . S
Co1599 N1616 1.993 . S
Co1599 O1624 1.941 . S
C1600 O1601 1.258 . S
C1600 O1602 1.263 . S
O1601 Co1598 1.970 . S
O1601 C1600 1.258 . S
O1602 Co1599 1.966 . S
O1602 C1600 1.263 . S
C1603 O1604 1.235 . S
C1603 O1630 1.289 . S
O1604 C1603 1.235 . S
C1605 C1607 1.400 . S
C1605 N1608 1.351 . S
C1605 C1610 1.501 . S
C1606 C1607 1.387 . S
C1606 N1609 1.341 . S
C1607 C1605 1.400 . S
C1607 C1606 1.387 . S
N1608 Co1599 2.022 . S
N1608 C1605 1.351 . S
N1608 N1609 1.365 . S
N1609 C1606 1.341 . S
N1609 N1608 1.365 . S
N1609 H1629 0.862 . S
C1610 C1605 1.501 . S
C1610 H1611 0.961 . S
C1610 H1612 0.961 . S
C1610 H1613 0.960 . S
H1611 C1610 0.961 . S
H1612 C1610 0.961 . S
H1613 C1610 0.960 . S
C1614 N1615 1.342 . S
C1614 C1618 1.401 . S
C1614 C1619 1.499 . S
N1615 Co1598 1.989 . S
N1615 C1614 1.342 . S
N1615 N1616 1.388 . S
N1616 Co1599 1.993 . S
N1616 N1615 1.388 . S
N1616 C1617 1.346 . S
C1617 N1616 1.346 . S
C1617 C1618 1.396 . S
C1617 C1627 1.510 . S
C1618 C1614 1.401 . S
C1618 C1617 1.396 . S
C1619 C1614 1.499 . S
C1619 H1620 0.959 . S
C1619 H1621 0.960 . S
C1619 H1622 0.961 . S
H1620 C1619 0.959 . S
H1621 C1619 0.960 . S
H1622 C1619 0.961 . S
O1623 Co1598 1.967 . S
O1623 C1631 1.258 . S
O1624 Co1599 1.941 . S
O1624 C1631 1.266 . S
H1625 C1627 0.959 . S
H1626 C1627 0.961 . S
C1627 C1617 1.510 . S
C1627 H1625 0.959 . S
C1627 H1626 0.961 . S
C1627 H1628 0.960 . S
H1628 C1627 0.960 . S
H1629 N1609 0.862 . S
O1630 Co1598 1.920 . S
O1630 C1603 1.289 . S
C1631 O1623 1.258 . S
C1631 O1624 1.266 . S
C1632 C1633 1.349 . S
C1632 C1634 1.327 . S
C1632 H1657 0.950 . S
C1633 C1632 1.349 . S
C1633 C1649 1.349 . S
C1634 C1632 1.327 . S
C1634 C1653 1.429 . S
C1634 H1658 0.950 . S
C1635 C1652 1.574 . S
C1635 C1654 1.368 . S
C1635 H1659 0.949 . S
H1636 C1640 0.949 . S
C1637 C1638 1.349 . S
C1637 C1639 1.327 . S
C1637 H1660 0.950 . S
C1638 C1637 1.349 . S
C1638 C1650 1.349 . S
C1639 C1637 1.327 . S
C1639 C1655 1.429 . S
C1639 H1661 0.950 . S
C1640 H1636 0.949 . S
C1640 C1648 1.574 . S
C1640 C1656 1.368 . S
H1641 C1649 0.950 . S
H1642 C1647 0.950 . S
H1643 C1648 0.949 1_554 S
H1644 C1650 0.950 . S
H1645 C1651 0.950 . S
H1646 C1652 0.949 . S
C1647 H1642 0.950 . S
C1647 C1649 1.327 . S
C1647 C1653 1.429 . S
C1648 C1640 1.574 . S
C1648 H1643 0.949 1_556 S
C1648 C1654 1.368 . S
C1649 C1633 1.349 . S
C1649 H1641 0.950 . S
C1649 C1647 1.327 . S
C1650 C1638 1.349 . S
C1650 H1644 0.950 . S
C1650 C1651 1.327 . S
C1651 H1645 0.950 . S
C1651 C1650 1.327 . S
C1651 C1655 1.429 . S
C1652 C1635 1.574 . S
C1652 H1646 0.949 . S
C1652 C1656 1.368 . S
C1653 C1634 1.429 . S
C1653 C1647 1.429 . S
C1653 C1654 1.523 1_554 S
C1654 C1635 1.368 . S
C1654 C1648 1.368 . S
C1654 C1653 1.523 1_556 S
C1655 C1639 1.429 . S
C1655 C1651 1.429 . S
C1655 C1656 1.523 . S
C1656 C1640 1.368 . S
C1656 C1652 1.368 . S
C1656 C1655 1.523 . S
H1657 C1632 0.950 . S
H1658 C1634 0.950 . S
H1659 C1635 0.949 . S
H1660 C1637 0.950 . S
H1661 C1639 0.950 . S
C1662 C1663 1.349 . S
C1662 C1664 1.327 . S
C1662 H1687 0.950 . S
C1663 C1662 1.349 . S
C1663 C1679 1.349 . S
C1664 C1662 1.327 . S
C1664 C1683 1.429 . S
C1664 H1688 0.950 . S
C1665 C1682 1.574 . S
C1665 C1684 1.368 . S
C1665 H1689 0.949 . S
H1666 C1670 0.949 . S
C1667 C1668 1.349 . S
C1667 C1669 1.327 . S
C1667 H1690 0.950 . S
C1668 C1667 1.349 . S
C1668 C1680 1.349 . S
C1669 C1667 1.327 . S
C1669 C1685 1.429 . S
C1669 H1691 0.950 . S
C1670 H1666 0.949 . S
C1670 C1678 1.574 . S
C1670 C1686 1.368 . S
H1671 C1679 0.950 . S
H1672 C1677 0.950 . S
H1673 C1678 0.949 . S
H1674 C1680 0.950 . S
H1675 C1681 0.950 . S
H1676 C1682 0.949 . S
C1677 H1672 0.950 . S
C1677 C1679 1.327 . S
C1677 C1683 1.429 . S
C1678 C1670 1.574 . S
C1678 H1673 0.949 . S
C1678 C1684 1.368 . S
C1679 C1663 1.349 . S
C1679 H1671 0.950 . S
C1679 C1677 1.327 . S
C1680 C1668 1.349 . S
C1680 H1674 0.950 . S
C1680 C1681 1.327 . S
C1681 H1675 0.950 . S
C1681 C1680 1.327 . S
C1681 C1685 1.429 . S
C1682 C1665 1.574 . S
C1682 H1676 0.949 . S
C1682 C1686 1.368 . S
C1683 C1664 1.429 . S
C1683 C1677 1.429 . S
C1683 C1684 1.523 . S
C1684 C1665 1.368 . S
C1684 C1678 1.368 . S
C1684 C1683 1.523 . S
C1685 C1669 1.429 . S
C1685 C1681 1.429 . S
C1685 C1686 1.523 . S
C1686 C1670 1.368 . S
C1686 C1682 1.368 . S
C1686 C1685 1.523 . S
H1687 C1662 0.950 . S
H1688 C1664 0.950 . S
H1689 C1665 0.949 . S
H1690 C1667 0.950 . S
H1691 C1669 0.950 . S
C1692 C1693 1.349 . S
C1692 C1694 1.327 . S
C1692 H1717 0.950 . S
C1693 C1692 1.349 . S
C1693 C1709 1.349 . S
C1694 C1692 1.327 . S
C1694 C1713 1.429 . S
C1694 H1718 0.950 . S
C1695 C1712 1.574 . S
C1695 C1714 1.368 . S
C1695 H1719 0.949 . S
H1696 C1700 0.949 . S
C1697 C1698 1.349 . S
C1697 C1699 1.327 . S
C1697 H1720 0.950 . S
C1698 C1697 1.349 . S
C1698 C1710 1.349 . S
C1699 C1697 1.327 . S
C1699 C1715 1.429 . S
C1699 H1721 0.950 . S
C1700 H1696 0.949 . S
C1700 C1708 1.574 . S
C1700 C1716 1.368 . S
H1701 C1709 0.950 . S
H1702 C1707 0.950 . S
H1703 C1708 0.949 . S
H1704 C1710 0.950 . S
H1705 C1711 0.950 . S
H1706 C1712 0.949 . S
C1707 H1702 0.950 . S
C1707 C1709 1.327 . S
C1707 C1713 1.429 . S
C1708 C1700 1.574 . S
C1708 H1703 0.949 . S
C1708 C1714 1.368 . S
C1709 C1693 1.349 . S
C1709 H1701 0.950 . S
C1709 C1707 1.327 . S
C1710 C1698 1.349 . S
C1710 H1704 0.950 . S
C1710 C1711 1.327 . S
C1711 H1705 0.950 . S
C1711 C1710 1.327 . S
C1711 C1715 1.429 . S
C1712 C1695 1.574 . S
C1712 H1706 0.949 . S
C1712 C1716 1.368 . S
C1713 C1694 1.429 . S
C1713 C1707 1.429 . S
C1713 C1714 1.523 . S
C1714 C1695 1.368 . S
C1714 C1708 1.368 . S
C1714 C1713 1.523 . S
C1715 C1699 1.429 . S
C1715 C1711 1.429 . S
C1715 C1716 1.523 . S
C1716 C1700 1.368 . S
C1716 C1712 1.368 . S
C1716 C1715 1.523 . S
H1717 C1692 0.950 . S
H1718 C1694 0.950 . S
H1719 C1695 0.949 . S
H1720 C1697 0.950 . S
H1721 C1699 0.950 . S
C1722 C1723 1.349 . S
C1722 C1724 1.327 . S
C1722 H1747 0.950 . S
C1723 C1722 1.349 . S
C1723 C1739 1.349 . S
C1724 C1722 1.327 . S
C1724 C1743 1.429 . S
C1724 H1748 0.950 . S
C1725 C1742 1.574 . S
C1725 C1744 1.368 . S
C1725 H1749 0.949 . S
H1726 C1730 0.949 . S
C1727 C1728 1.349 . S
C1727 C1729 1.327 . S
C1727 H1750 0.950 . S
C1728 C1727 1.349 . S
C1728 C1740 1.349 . S
C1729 C1727 1.327 . S
C1729 C1745 1.429 . S
C1729 H1751 0.950 . S
C1730 H1726 0.949 . S
C1730 C1738 1.574 . S
C1730 C1746 1.368 . S
H1731 C1739 0.950 . S
H1732 C1737 0.950 . S
H1733 C1738 0.949 . S
H1734 C1740 0.950 . S
H1735 C1741 0.950 . S
H1736 C1742 0.949 . S
C1737 H1732 0.950 . S
C1737 C1739 1.327 . S
C1737 C1743 1.429 . S
C1738 C1730 1.574 . S
C1738 H1733 0.949 . S
C1738 C1744 1.368 . S
C1739 C1723 1.349 . S
C1739 H1731 0.950 . S
C1739 C1737 1.327 . S
C1740 C1728 1.349 . S
C1740 H1734 0.950 . S
C1740 C1741 1.327 . S
C1741 H1735 0.950 . S
C1741 C1740 1.327 . S
C1741 C1745 1.429 . S
C1742 C1725 1.574 . S
C1742 H1736 0.949 . S
C1742 C1746 1.368 . S
C1743 C1724 1.429 . S
C1743 C1737 1.429 . S
C1743 C1744 1.523 . S
C1744 C1725 1.368 . S
C1744 C1738 1.368 . S
C1744 C1743 1.523 . S
C1745 C1729 1.429 . S
C1745 C1741 1.429 . S
C1745 C1746 1.523 . S
C1746 C1730 1.368 . S
C1746 C1742 1.368 . S
C1746 C1745 1.523 . S
H1747 C1722 0.950 . S
H1748 C1724 0.950 . S
H1749 C1725 0.949 . S
H1750 C1727 0.950 . S
H1751 C1729 0.950 . S
C1752 C1753 1.349 . S
C1752 C1754 1.327 . S
C1752 H1777 0.950 . S
C1753 C1752 1.349 . S
C1753 C1769 1.349 . S
C1754 C1752 1.327 . S
C1754 C1773 1.429 . S
C1754 H1778 0.950 . S
C1755 C1772 1.574 . S
C1755 C1774 1.368 . S
C1755 H1779 0.949 . S
H1756 C1760 0.949 . S
C1757 C1758 1.349 . S
C1757 C1759 1.327 . S
C1757 H1780 0.950 . S
C1758 C1757 1.349 . S
C1758 C1770 1.349 . S
C1759 C1757 1.327 . S
C1759 C1775 1.429 . S
C1759 H1781 0.950 . S
C1760 H1756 0.949 . S
C1760 C1768 1.574 . S
C1760 C1776 1.368 . S
H1761 C1769 0.950 . S
H1762 C1767 0.950 . S
H1763 C1768 0.949 . S
H1764 C1770 0.950 . S
H1765 C1771 0.950 . S
H1766 C1772 0.949 . S
C1767 H1762 0.950 . S
C1767 C1769 1.327 . S
C1767 C1773 1.429 . S
C1768 C1760 1.574 . S
C1768 H1763 0.949 . S
C1768 C1774 1.368 . S
C1769 C1753 1.349 . S
C1769 H1761 0.950 . S
C1769 C1767 1.327 . S
C1770 C1758 1.349 . S
C1770 H1764 0.950 . S
C1770 C1771 1.327 . S
C1771 H1765 0.950 . S
C1771 C1770 1.327 . S
C1771 C1775 1.429 . S
C1772 C1755 1.574 . S
C1772 H1766 0.949 . S
C1772 C1776 1.368 . S
C1773 C1754 1.429 . S
C1773 C1767 1.429 . S
C1773 C1774 1.523 . S
C1774 C1755 1.368 . S
C1774 C1768 1.368 . S
C1774 C1773 1.523 . S
C1775 C1759 1.429 . S
C1775 C1771 1.429 . S
C1775 C1776 1.523 . S
C1776 C1760 1.368 . S
C1776 C1772 1.368 . S
C1776 C1775 1.523 . S
H1777 C1752 0.950 . S
H1778 C1754 0.950 . S
H1779 C1755 0.949 . S
H1780 C1757 0.950 . S
H1781 C1759 0.950 . S
C1782 C1783 1.349 . S
C1782 C1784 1.327 . S
C1782 H1807 0.950 . S
C1783 C1782 1.349 . S
C1783 C1799 1.349 . S
C1784 C1782 1.327 . S
C1784 C1803 1.429 . S
C1784 H1808 0.950 . S
C1785 C1802 1.574 . S
C1785 C1804 1.368 . S
C1785 H1809 0.949 . S
H1786 C1790 0.949 . S
C1787 C1788 1.349 . S
C1787 C1789 1.327 . S
C1787 H1810 0.950 . S
C1788 C1787 1.349 . S
C1788 C1800 1.349 . S
C1789 C1787 1.327 . S
C1789 C1805 1.429 . S
C1789 H1811 0.950 . S
C1790 H1786 0.949 . S
C1790 C1798 1.574 . S
C1790 C1806 1.368 . S
H1791 C1799 0.950 . S
H1792 C1797 0.950 . S
H1793 C1798 0.949 . S
H1794 C1800 0.950 . S
H1795 C1801 0.950 . S
H1796 C1802 0.949 . S
C1797 H1792 0.950 . S
C1797 C1799 1.327 . S
C1797 C1803 1.429 . S
C1798 C1790 1.574 . S
C1798 H1793 0.949 . S
C1798 C1804 1.368 . S
C1799 C1783 1.349 . S
C1799 H1791 0.950 . S
C1799 C1797 1.327 . S
C1800 C1788 1.349 . S
C1800 H1794 0.950 . S
C1800 C1801 1.327 . S
C1801 H1795 0.950 . S
C1801 C1800 1.327 . S
C1801 C1805 1.429 . S
C1802 C1785 1.574 . S
C1802 H1796 0.949 . S
C1802 C1806 1.368 . S
C1803 C1784 1.429 . S
C1803 C1797 1.429 . S
C1803 C1804 1.523 . S
C1804 C1785 1.368 . S
C1804 C1798 1.368 . S
C1804 C1803 1.523 . S
C1805 C1789 1.429 . S
C1805 C1801 1.429 . S
C1805 C1806 1.523 . S
C1806 C1790 1.368 . S
C1806 C1802 1.368 . S
C1806 C1805 1.523 . S
H1807 C1782 0.950 . S
H1808 C1784 0.950 . S
H1809 C1785 0.949 . S
H1810 C1787 0.950 . S
H1811 C1789 0.950 . S
C1812 C1813 1.349 . S
C1812 C1814 1.327 . S
C1812 H1837 0.950 . S
C1813 C1812 1.349 . S
C1813 C1829 1.349 . S
C1814 C1812 1.327 . S
C1814 C1833 1.429 . S
C1814 H1838 0.950 . S
C1815 C1832 1.574 1_556 S
C1815 C1834 1.368 . S
C1815 H1839 0.949 . S
H1816 C1820 0.949 . S
C1817 C1818 1.349 . S
C1817 C1819 1.327 . S
C1817 H1840 0.950 . S
C1818 C1817 1.349 . S
C1818 C1830 1.349 . S
C1819 C1817 1.327 . S
C1819 C1835 1.429 . S
C1819 H1841 0.950 . S
C1820 H1816 0.949 . S
C1820 C1828 1.574 . S
C1820 C1836 1.368 . S
H1821 C1829 0.950 . S
H1822 C1827 0.950 . S
H1823 C1828 0.949 . S
H1824 C1830 0.950 . S
H1825 C1831 0.950 . S
H1826 C1832 0.949 . S
C1827 H1822 0.950 . S
C1827 C1829 1.327 . S
C1827 C1833 1.429 . S
C1828 C1820 1.574 . S
C1828 H1823 0.949 . S
C1828 C1834 1.368 1_554 S
C1829 C1813 1.349 . S
C1829 H1821 0.950 . S
C1829 C1827 1.327 . S
C1830 C1818 1.349 . S
C1830 H1824 0.950 . S
C1830 C1831 1.327 . S
C1831 H1825 0.950 . S
C1831 C1830 1.327 . S
C1831 C1835 1.429 . S
C1832 C1815 1.574 1_554 S
C1832 H1826 0.949 . S
C1832 C1836 1.368 . S
C1833 C1814 1.429 . S
C1833 C1827 1.429 . S
C1833 C1834 1.523 . S
C1834 C1815 1.368 . S
C1834 C1828 1.368 1_556 S
C1834 C1833 1.523 . S
C1835 C1819 1.429 . S
C1835 C1831 1.429 . S
C1835 C1836 1.523 . S
C1836 C1820 1.368 . S
C1836 C1832 1.368 . S
C1836 C1835 1.523 . S
H1837 C1812 0.950 . S
H1838 C1814 0.950 . S
H1839 C1815 0.949 . S
H1840 C1817 0.950 . S
H1841 C1819 0.950 . S
C1842 C1843 1.349 . S
C1842 C1844 1.327 . S
C1842 H1867 0.950 . S
C1843 C1842 1.349 . S
C1843 C1859 1.349 . S
C1844 C1842 1.327 . S
C1844 C1863 1.429 . S
C1844 H1868 0.950 . S
C1845 C1862 1.574 . S
C1845 C1864 1.368 . S
C1845 H1869 0.949 . S
H1846 C1850 0.949 . S
C1847 C1848 1.349 . S
C1847 C1849 1.327 . S
C1847 H1870 0.950 . S
C1848 C1847 1.349 . S
C1848 C1860 1.349 . S
C1849 C1847 1.327 . S
C1849 C1865 1.429 . S
C1849 H1871 0.950 . S
C1850 H1846 0.949 . S
C1850 C1858 1.574 . S
C1850 C1866 1.368 . S
H1851 C1859 0.950 . S
H1852 C1857 0.950 . S
H1853 C1858 0.949 . S
H1854 C1860 0.950 . S
H1855 C1861 0.950 . S
H1856 C1862 0.949 . S
C1857 H1852 0.950 . S
C1857 C1859 1.327 . S
C1857 C1863 1.429 . S
C1858 C1850 1.574 . S
C1858 H1853 0.949 . S
C1858 C1864 1.368 . S
C1859 C1843 1.349 . S
C1859 H1851 0.950 . S
C1859 C1857 1.327 . S
C1860 C1848 1.349 . S
C1860 H1854 0.950 . S
C1860 C1861 1.327 . S
C1861 H1855 0.950 . S
C1861 C1860 1.327 . S
C1861 C1865 1.429 . S
C1862 C1845 1.574 . S
C1862 H1856 0.949 . S
C1862 C1866 1.368 . S
C1863 C1844 1.429 . S
C1863 C1857 1.429 . S
C1863 C1864 1.523 . S
C1864 C1845 1.368 . S
C1864 C1858 1.368 . S
C1864 C1863 1.523 . S
C1865 C1849 1.429 . S
C1865 C1861 1.429 . S
C1865 C1866 1.523 . S
C1866 C1850 1.368 . S
C1866 C1862 1.368 . S
C1866 C1865 1.523 . S
H1867 C1842 0.950 . S
H1868 C1844 0.950 . S
H1869 C1845 0.949 . S
H1870 C1847 0.950 . S
H1871 C1849 0.950 . S
C1872 C1873 1.349 . S
C1872 C1874 1.327 . S
C1872 H1897 0.950 . S
C1873 C1872 1.349 . S
C1873 C1889 1.349 . S
C1874 C1872 1.327 . S
C1874 C1893 1.429 . S
C1874 H1898 0.950 . S
C1875 C1892 1.574 . S
C1875 C1894 1.368 . S
C1875 H1899 0.949 . S
H1876 C1880 0.949 1_455 S
C1877 C1878 1.349 . S
C1877 C1879 1.327 . S
C1877 H1900 0.950 . S
C1878 C1877 1.349 . S
C1878 C1890 1.349 . S
C1879 C1877 1.327 . S
C1879 C1895 1.429 . S
C1879 H1901 0.950 . S
C1880 H1876 0.949 1_655 S
C1880 C1888 1.574 . S
C1880 C1896 1.368 . S
H1881 C1889 0.950 . S
H1882 C1887 0.950 . S
H1883 C1888 0.949 . S
H1884 C1890 0.950 . S
H1885 C1891 0.950 . S
H1886 C1892 0.949 . S
C1887 H1882 0.950 . S
C1887 C1889 1.327 . S
C1887 C1893 1.429 . S
C1888 C1880 1.574 . S
C1888 H1883 0.949 . S
C1888 C1894 1.368 . S
C1889 C1873 1.349 . S
C1889 H1881 0.950 . S
C1889 C1887 1.327 . S
C1890 C1878 1.349 . S
C1890 H1884 0.950 . S
C1890 C1891 1.327 . S
C1891 H1885 0.950 . S
C1891 C1890 1.327 . S
C1891 C1895 1.429 . S
C1892 C1875 1.574 . S
C1892 H1886 0.949 . S
C1892 C1896 1.368 . S
C1893 C1874 1.429 . S
C1893 C1887 1.429 . S
C1893 C1894 1.523 . S
C1894 C1875 1.368 . S
C1894 C1888 1.368 . S
C1894 C1893 1.523 . S
C1895 C1879 1.429 . S
C1895 C1891 1.429 . S
C1895 C1896 1.523 1_455 S
C1896 C1880 1.368 . S
C1896 C1892 1.368 . S
C1896 C1895 1.523 1_655 S
H1897 C1872 0.950 . S
H1898 C1874 0.950 . S
H1899 C1875 0.949 . S
H1900 C1877 0.950 . S
H1901 C1879 0.950 . S
C1902 C1903 1.349 . S
C1902 C1904 1.327 . S
C1902 H1927 0.950 . S
C1903 C1902 1.349 . S
C1903 C1919 1.349 . S
C1904 C1902 1.327 . S
C1904 C1923 1.429 . S
C1904 H1928 0.950 . S
C1905 C1922 1.574 . S
C1905 C1924 1.368 . S
C1905 H1929 0.949 . S
H1906 C1910 0.949 . S
C1907 C1908 1.349 . S
C1907 C1909 1.327 . S
C1907 H1930 0.950 . S
C1908 C1907 1.349 . S
C1908 C1920 1.349 . S
C1909 C1907 1.327 . S
C1909 C1925 1.429 . S
C1909 H1931 0.950 . S
C1910 H1906 0.949 . S
C1910 C1918 1.574 . S
C1910 C1926 1.368 . S
H1911 C1919 0.950 . S
H1912 C1917 0.950 . S
H1913 C1918 0.949 . S
H1914 C1920 0.950 . S
H1915 C1921 0.950 . S
H1916 C1922 0.949 . S
C1917 H1912 0.950 . S
C1917 C1919 1.327 . S
C1917 C1923 1.429 . S
C1918 C1910 1.574 . S
C1918 H1913 0.949 . S
C1918 C1924 1.368 . S
C1919 C1903 1.349 . S
C1919 H1911 0.950 . S
C1919 C1917 1.327 . S
C1920 C1908 1.349 . S
C1920 H1914 0.950 . S
C1920 C1921 1.327 . S
C1921 H1915 0.950 . S
C1921 C1920 1.327 . S
C1921 C1925 1.429 . S
C1922 C1905 1.574 . S
C1922 H1916 0.949 . S
C1922 C1926 1.368 . S
C1923 C1904 1.429 . S
C1923 C1917 1.429 . S
C1923 C1924 1.523 . S
C1924 C1905 1.368 . S
C1924 C1918 1.368 . S
C1924 C1923 1.523 . S
C1925 C1909 1.429 . S
C1925 C1921 1.429 . S
C1925 C1926 1.523 . S
C1926 C1910 1.368 . S
C1926 C1922 1.368 . S
C1926 C1925 1.523 . S
H1927 C1902 0.950 . S
H1928 C1904 0.950 . S
H1929 C1905 0.949 . S
H1930 C1907 0.950 . S
H1931 C1909 0.950 . S
C1932 C1933 1.349 . S
C1932 C1934 1.327 . S
C1932 H1957 0.950 . S
C1933 C1932 1.349 . S
C1933 C1949 1.349 . S
C1934 C1932 1.327 . S
C1934 C1953 1.429 . S
C1934 H1958 0.950 . S
C1935 C1952 1.574 . S
C1935 C1954 1.368 . S
C1935 H1959 0.949 . S
H1936 C1940 0.949 . S
C1937 C1938 1.349 . S
C1937 C1939 1.327 . S
C1937 H1960 0.950 . S
C1938 C1937 1.349 . S
C1938 C1950 1.349 . S
C1939 C1937 1.327 . S
C1939 C1955 1.429 . S
C1939 H1961 0.950 . S
C1940 H1936 0.949 . S
C1940 C1948 1.574 . S
C1940 C1956 1.368 . S
H1941 C1949 0.950 . S
H1942 C1947 0.950 . S
H1943 C1948 0.949 . S
H1944 C1950 0.950 . S
H1945 C1951 0.950 . S
H1946 C1952 0.949 . S
C1947 H1942 0.950 . S
C1947 C1949 1.327 . S
C1947 C1953 1.429 . S
C1948 C1940 1.574 . S
C1948 H1943 0.949 . S
C1948 C1954 1.368 . S
C1949 C1933 1.349 . S
C1949 H1941 0.950 . S
C1949 C1947 1.327 . S
C1950 C1938 1.349 . S
C1950 H1944 0.950 . S
C1950 C1951 1.327 . S
C1951 H1945 0.950 . S
C1951 C1950 1.327 . S
C1951 C1955 1.429 . S
C1952 C1935 1.574 . S
C1952 H1946 0.949 . S
C1952 C1956 1.368 . S
C1953 C1934 1.429 . S
C1953 C1947 1.429 . S
C1953 C1954 1.523 . S
C1954 C1935 1.368 . S
C1954 C1948 1.368 . S
C1954 C1953 1.523 . S
C1955 C1939 1.429 . S
C1955 C1951 1.429 . S
C1955 C1956 1.523 . S
C1956 C1940 1.368 . S
C1956 C1952 1.368 . S
C1956 C1955 1.523 . S
H1957 C1932 0.950 . S
H1958 C1934 0.950 . S
H1959 C1935 0.949 . S
H1960 C1937 0.950 . S
H1961 C1939 0.950 . S
C1962 C1963 1.349 . S
C1962 C1964 1.327 . S
C1962 H1987 0.950 . S
C1963 C1962 1.349 . S
C1963 C1979 1.349 . S
C1964 C1962 1.327 . S
C1964 C1983 1.429 . S
C1964 H1988 0.950 . S
C1965 C1982 1.574 . S
C1965 C1984 1.368 . S
C1965 H1989 0.949 . S
H1966 C1970 0.949 . S
C1967 C1968 1.349 . S
C1967 C1969 1.327 . S
C1967 H1990 0.950 . S
C1968 C1967 1.349 . S
C1968 C1980 1.349 . S
C1969 C1967 1.327 . S
C1969 C1985 1.429 . S
C1969 H1991 0.950 . S
C1970 H1966 0.949 . S
C1970 C1978 1.574 . S
C1970 C1986 1.368 . S
H1971 C1979 0.950 . S
H1972 C1977 0.950 . S
H1973 C1978 0.949 . S
H1974 C1980 0.950 . S
H1975 C1981 0.950 . S
H1976 C1982 0.949 . S
C1977 H1972 0.950 . S
C1977 C1979 1.327 . S
C1977 C1983 1.429 . S
C1978 C1970 1.574 . S
C1978 H1973 0.949 . S
C1978 C1984 1.368 . S
C1979 C1963 1.349 . S
C1979 H1971 0.950 . S
C1979 C1977 1.327 . S
C1980 C1968 1.349 . S
C1980 H1974 0.950 . S
C1980 C1981 1.327 . S
C1981 H1975 0.950 . S
C1981 C1980 1.327 . S
C1981 C1985 1.429 . S
C1982 C1965 1.574 . S
C1982 H1976 0.949 . S
C1982 C1986 1.368 . S
C1983 C1964 1.429 . S
C1983 C1977 1.429 . S
C1983 C1984 1.523 . S
C1984 C1965 1.368 . S
C1984 C1978 1.368 . S
C1984 C1983 1.523 . S
C1985 C1969 1.429 . S
C1985 C1981 1.429 . S
C1985 C1986 1.523 . S
C1986 C1970 1.368 . S
C1986 C1982 1.368 . S
C1986 C1985 1.523 . S
H1987 C1962 0.950 . S
H1988 C1964 0.950 . S
H1989 C1965 0.949 . S
H1990 C1967 0.950 . S
H1991 C1969 0.950 . S
C1992 C1993 1.349 . S
C1992 C1994 1.327 . S
C1992 H2017 0.950 . S
C1993 C1992 1.349 . S
C1993 C2009 1.349 . S
C1994 C1992 1.327 . S
C1994 C2013 1.429 . S
C1994 H2018 0.950 . S
C1995 C2012 1.574 . S
C1995 C2014 1.368 . S
C1995 H2019 0.949 . S
H1996 C2000 0.949 . S
C1997 C1998 1.349 . S
C1997 C1999 1.327 . S
C1997 H2020 0.950 . S
C1998 C1997 1.349 . S
C1998 C2010 1.349 . S
C1999 C1997 1.327 . S
C1999 C2015 1.429 . S
C1999 H2021 0.950 . S
C2000 H1996 0.949 . S
C2000 C2008 1.574 . S
C2000 C2016 1.368 . S
H2001 C2009 0.950 . S
H2002 C2007 0.950 . S
H2003 C2008 0.949 . S
H2004 C2010 0.950 . S
H2005 C2011 0.950 . S
H2006 C2012 0.949 . S
C2007 H2002 0.950 . S
C2007 C2009 1.327 . S
C2007 C2013 1.429 . S
C2008 C2000 1.574 . S
C2008 H2003 0.949 . S
C2008 C2014 1.368 . S
C2009 C1993 1.349 . S
C2009 H2001 0.950 . S
C2009 C2007 1.327 . S
C2010 C1998 1.349 . S
C2010 H2004 0.950 . S
C2010 C2011 1.327 . S
C2011 H2005 0.950 . S
C2011 C2010 1.327 . S
C2011 C2015 1.429 . S
C2012 C1995 1.574 . S
C2012 H2006 0.949 . S
C2012 C2016 1.368 . S
C2013 C1994 1.429 . S
C2013 C2007 1.429 . S
C2013 C2014 1.523 1_455 S
C2014 C1995 1.368 . S
C2014 C2008 1.368 . S
C2014 C2013 1.523 1_655 S
C2015 C1999 1.429 . S
C2015 C2011 1.429 . S
C2015 C2016 1.523 . S
C2016 C2000 1.368 . S
C2016 C2012 1.368 . S
C2016 C2015 1.523 . S
H2017 C1992 0.950 . S
H2018 C1994 0.950 . S
H2019 C1995 0.949 . S
H2020 C1997 0.950 . S
H2021 C1999 0.950 . S
C2022 C2023 1.349 . S
C2022 C2024 1.327 . S
C2022 H2047 0.950 . S
C2023 C2022 1.349 . S
C2023 C2039 1.349 . S
C2024 C2022 1.327 . S
C2024 C2043 1.429 . S
C2024 H2048 0.950 . S
C2025 C2042 1.574 . S
C2025 C2044 1.368 . S
C2025 H2049 0.949 . S
H2026 C2030 0.949 . S
C2027 C2028 1.349 . S
C2027 C2029 1.327 . S
C2027 H2050 0.950 . S
C2028 C2027 1.349 . S
C2028 C2040 1.349 . S
C2029 C2027 1.327 . S
C2029 C2045 1.429 . S
C2029 H2051 0.950 . S
C2030 H2026 0.949 . S
C2030 C2038 1.574 . S
C2030 C2046 1.368 . S
H2031 C2039 0.950 . S
H2032 C2037 0.950 . S
H2033 C2038 0.949 . S
H2034 C2040 0.950 . S
H2035 C2041 0.950 . S
H2036 C2042 0.949 . S
C2037 H2032 0.950 . S
C2037 C2039 1.327 . S
C2037 C2043 1.429 . S
C2038 C2030 1.574 . S
C2038 H2033 0.949 . S
C2038 C2044 1.368 . S
C2039 C2023 1.349 . S
C2039 H2031 0.950 . S
C2039 C2037 1.327 . S
C2040 C2028 1.349 . S
C2040 H2034 0.950 . S
C2040 C2041 1.327 . S
C2041 H2035 0.950 . S
C2041 C2040 1.327 . S
C2041 C2045 1.429 . S
C2042 C2025 1.574 . S
C2042 H2036 0.949 . S
C2042 C2046 1.368 . S
C2043 C2024 1.429 . S
C2043 C2037 1.429 . S
C2043 C2044 1.523 . S
C2044 C2025 1.368 . S
C2044 C2038 1.368 . S
C2044 C2043 1.523 . S
C2045 C2029 1.429 . S
C2045 C2041 1.429 . S
C2045 C2046 1.523 . S
C2046 C2030 1.368 . S
C2046 C2042 1.368 . S
C2046 C2045 1.523 . S
H2047 C2022 0.950 . S
H2048 C2024 0.950 . S
H2049 C2025 0.949 . S
H2050 C2027 0.950 . S
H2051 C2029 0.950 . S
C2052 C2053 1.349 . S
C2052 C2054 1.327 . S
C2052 H2077 0.950 . S
C2053 C2052 1.349 . S
C2053 C2069 1.349 . S
C2054 C2052 1.327 . S
C2054 C2073 1.429 . S
C2054 H2078 0.950 . S
C2055 C2072 1.574 . S
C2055 C2074 1.368 . S
C2055 H2079 0.949 . S
H2056 C2060 0.949 . S
C2057 C2058 1.349 . S
C2057 C2059 1.327 . S
C2057 H2080 0.950 . S
C2058 C2057 1.349 . S
C2058 C2070 1.349 . S
C2059 C2057 1.327 . S
C2059 C2075 1.429 . S
C2059 H2081 0.950 . S
C2060 H2056 0.949 . S
C2060 C2068 1.574 . S
C2060 C2076 1.368 . S
H2061 C2069 0.950 . S
H2062 C2067 0.950 . S
H2063 C2068 0.949 . S
H2064 C2070 0.950 . S
H2065 C2071 0.950 . S
H2066 C2072 0.949 . S
C2067 H2062 0.950 . S
C2067 C2069 1.327 . S
C2067 C2073 1.429 . S
C2068 C2060 1.574 . S
C2068 H2063 0.949 . S
C2068 C2074 1.368 . S
C2069 C2053 1.349 . S
C2069 H2061 0.950 . S
C2069 C2067 1.327 . S
C2070 C2058 1.349 . S
C2070 H2064 0.950 . S
C2070 C2071 1.327 . S
C2071 H2065 0.950 . S
C2071 C2070 1.327 . S
C2071 C2075 1.429 . S
C2072 C2055 1.574 . S
C2072 H2066 0.949 . S
C2072 C2076 1.368 . S
C2073 C2054 1.429 . S
C2073 C2067 1.429 . S
C2073 C2074 1.523 . S
C2074 C2055 1.368 . S
C2074 C2068 1.368 . S
C2074 C2073 1.523 . S
C2075 C2059 1.429 . S
C2075 C2071 1.429 . S
C2075 C2076 1.523 . S
C2076 C2060 1.368 . S
C2076 C2072 1.368 . S
C2076 C2075 1.523 . S
H2077 C2052 0.950 . S
H2078 C2054 0.950 . S
H2079 C2055 0.949 . S
H2080 C2057 0.950 . S
H2081 C2059 0.950 . S
C2082 C2083 1.349 . S
C2082 C2084 1.327 . S
C2082 H2107 0.950 . S
C2083 C2082 1.349 . S
C2083 C2099 1.349 . S
C2084 C2082 1.327 . S
C2084 C2103 1.429 . S
C2084 H2108 0.950 . S
C2085 C2102 1.574 . S
C2085 C2104 1.368 . S
C2085 H2109 0.949 . S
H2086 C2090 0.949 . S
C2087 C2088 1.349 . S
C2087 C2089 1.327 . S
C2087 H2110 0.950 . S
C2088 C2087 1.349 . S
C2088 C2100 1.349 . S
C2089 C2087 1.327 . S
C2089 C2105 1.429 . S
C2089 H2111 0.950 . S
C2090 H2086 0.949 . S
C2090 C2098 1.574 . S
C2090 C2106 1.368 . S
H2091 C2099 0.950 . S
H2092 C2097 0.950 . S
H2093 C2098 0.949 . S
H2094 C2100 0.950 . S
H2095 C2101 0.950 . S
H2096 C2102 0.949 . S
C2097 H2092 0.950 . S
C2097 C2099 1.327 . S
C2097 C2103 1.429 . S
C2098 C2090 1.574 . S
C2098 H2093 0.949 . S
C2098 C2104 1.368 . S
C2099 C2083 1.349 . S
C2099 H2091 0.950 . S
C2099 C2097 1.327 . S
C2100 C2088 1.349 . S
C2100 H2094 0.950 . S
C2100 C2101 1.327 . S
C2101 H2095 0.950 . S
C2101 C2100 1.327 . S
C2101 C2105 1.429 . S
C2102 C2085 1.574 . S
C2102 H2096 0.949 . S
C2102 C2106 1.368 . S
C2103 C2084 1.429 . S
C2103 C2097 1.429 . S
C2103 C2104 1.523 . S
C2104 C2085 1.368 . S
C2104 C2098 1.368 . S
C2104 C2103 1.523 . S
C2105 C2089 1.429 . S
C2105 C2101 1.429 . S
C2105 C2106 1.523 . S
C2106 C2090 1.368 . S
C2106 C2102 1.368 . S
C2106 C2105 1.523 . S
H2107 C2082 0.950 . S
H2108 C2084 0.950 . S
H2109 C2085 0.949 . S
H2110 C2087 0.950 . S
H2111 C2089 0.950 . S
C2112 C2113 1.349 . S
C2112 C2114 1.327 . S
C2112 H2137 0.950 . S
C2113 C2112 1.349 . S
C2113 C2129 1.349 . S
C2114 C2112 1.327 . S
C2114 C2133 1.429 . S
C2114 H2138 0.950 . S
C2115 C2132 1.574 . S
C2115 C2134 1.368 . S
C2115 H2139 0.949 . S
H2116 C2120 0.949 . S
C2117 C2118 1.349 . S
C2117 C2119 1.327 . S
C2117 H2140 0.950 . S
C2118 C2117 1.349 . S
C2118 C2130 1.349 . S
C2119 C2117 1.327 . S
C2119 C2135 1.429 . S
C2119 H2141 0.950 . S
C2120 H2116 0.949 . S
C2120 C2128 1.574 . S
C2120 C2136 1.368 . S
H2121 C2129 0.950 . S
H2122 C2127 0.950 . S
H2123 C2128 0.949 . S
H2124 C2130 0.950 . S
H2125 C2131 0.950 . S
H2126 C2132 0.949 . S
C2127 H2122 0.950 . S
C2127 C2129 1.327 . S
C2127 C2133 1.429 . S
C2128 C2120 1.574 . S
C2128 H2123 0.949 . S
C2128 C2134 1.368 . S
C2129 C2113 1.349 . S
C2129 H2121 0.950 . S
C2129 C2127 1.327 . S
C2130 C2118 1.349 . S
C2130 H2124 0.950 . S
C2130 C2131 1.327 . S
C2131 H2125 0.950 . S
C2131 C2130 1.327 . S
C2131 C2135 1.429 . S
C2132 C2115 1.574 . S
C2132 H2126 0.949 . S
C2132 C2136 1.368 . S
C2133 C2114 1.429 . S
C2133 C2127 1.429 . S
C2133 C2134 1.523 . S
C2134 C2115 1.368 . S
C2134 C2128 1.368 . S
C2134 C2133 1.523 . S
C2135 C2119 1.429 . S
C2135 C2131 1.429 . S
C2135 C2136 1.523 1_545 S
C2136 C2120 1.368 . S
C2136 C2132 1.368 . S
C2136 C2135 1.523 1_565 S
H2137 C2112 0.950 . S
H2138 C2114 0.950 . S
H2139 C2115 0.949 . S
H2140 C2117 0.950 . S
H2141 C2119 0.950 . S
C2142 C2143 1.349 . S
C2142 C2144 1.327 . S
C2142 H2167 0.950 . S
C2143 C2142 1.349 . S
C2143 C2159 1.349 . S
C2144 C2142 1.327 . S
C2144 C2163 1.429 . S
C2144 H2168 0.950 . S
C2145 C2162 1.574 . S
C2145 C2164 1.368 . S
C2145 H2169 0.949 . S
H2146 C2150 0.949 . S
C2147 C2148 1.349 . S
C2147 C2149 1.327 . S
C2147 H2170 0.950 . S
C2148 C2147 1.349 . S
C2148 C2160 1.349 . S
C2149 C2147 1.327 . S
C2149 C2165 1.429 . S
C2149 H2171 0.950 . S
C2150 H2146 0.949 . S
C2150 C2158 1.574 . S
C2150 C2166 1.368 . S
H2151 C2159 0.950 . S
H2152 C2157 0.950 . S
H2153 C2158 0.949 . S
H2154 C2160 0.950 . S
H2155 C2161 0.950 . S
H2156 C2162 0.949 . S
C2157 H2152 0.950 . S
C2157 C2159 1.327 . S
C2157 C2163 1.429 . S
C2158 C2150 1.574 . S
C2158 H2153 0.949 . S
C2158 C2164 1.368 . S
C2159 C2143 1.349 . S
C2159 H2151 0.950 . S
C2159 C2157 1.327 . S
C2160 C2148 1.349 . S
C2160 H2154 0.950 . S
C2160 C2161 1.327 . S
C2161 H2155 0.950 . S
C2161 C2160 1.327 . S
C2161 C2165 1.429 . S
C2162 C2145 1.574 . S
C2162 H2156 0.949 . S
C2162 C2166 1.368 . S
C2163 C2144 1.429 . S
C2163 C2157 1.429 . S
C2163 C2164 1.523 . S
C2164 C2145 1.368 . S
C2164 C2158 1.368 . S
C2164 C2163 1.523 . S
C2165 C2149 1.429 . S
C2165 C2161 1.429 . S
C2165 C2166 1.523 . S
C2166 C2150 1.368 . S
C2166 C2162 1.368 . S
C2166 C2165 1.523 . S
H2167 C2142 0.950 . S
H2168 C2144 0.950 . S
H2169 C2145 0.949 . S
H2170 C2147 0.950 . S
H2171 C2149 0.950 . S
C2172 C2173 1.349 . S
C2172 C2174 1.327 . S
C2172 H2197 0.950 . S
C2173 C2172 1.349 . S
C2173 C2189 1.349 . S
C2174 C2172 1.327 . S
C2174 C2193 1.429 . S
C2174 H2198 0.950 . S
C2175 C2192 1.574 . S
C2175 C2194 1.368 . S
C2175 H2199 0.949 . S
H2176 C2180 0.949 . S
C2177 C2178 1.349 . S
C2177 C2179 1.327 . S
C2177 H2200 0.950 . S
C2178 C2177 1.349 . S
C2178 C2190 1.349 . S
C2179 C2177 1.327 . S
C2179 C2195 1.429 . S
C2179 H2201 0.950 . S
C2180 H2176 0.949 . S
C2180 C2188 1.574 . S
C2180 C2196 1.368 . S
H2181 C2189 0.950 . S
H2182 C2187 0.950 . S
H2183 C2188 0.949 . S
H2184 C2190 0.950 . S
H2185 C2191 0.950 . S
H2186 C2192 0.949 . S
C2187 H2182 0.950 . S
C2187 C2189 1.327 . S
C2187 C2193 1.429 . S
C2188 C2180 1.574 . S
C2188 H2183 0.949 . S
C2188 C2194 1.368 . S
C2189 C2173 1.349 . S
C2189 H2181 0.950 . S
C2189 C2187 1.327 . S
C2190 C2178 1.349 . S
C2190 H2184 0.950 . S
C2190 C2191 1.327 . S
C2191 H2185 0.950 . S
C2191 C2190 1.327 . S
C2191 C2195 1.429 . S
C2192 C2175 1.574 . S
C2192 H2186 0.949 . S
C2192 C2196 1.368 . S
C2193 C2174 1.429 . S
C2193 C2187 1.429 . S
C2193 C2194 1.523 . S
C2194 C2175 1.368 . S
C2194 C2188 1.368 . S
C2194 C2193 1.523 . S
C2195 C2179 1.429 . S
C2195 C2191 1.429 . S
C2195 C2196 1.523 . S
C2196 C2180 1.368 . S
C2196 C2192 1.368 . S
C2196 C2195 1.523 . S
H2197 C2172 0.950 . S
H2198 C2174 0.950 . S
H2199 C2175 0.949 . S
H2200 C2177 0.950 . S
H2201 C2179 0.950 . S
C2202 C2203 1.349 . S
C2202 C2204 1.327 . S
C2202 H2227 0.950 . S
C2203 C2202 1.349 . S
C2203 C2219 1.349 . S
C2204 C2202 1.327 . S
C2204 C2223 1.429 . S
C2204 H2228 0.950 . S
C2205 C2222 1.574 . S
C2205 C2224 1.368 . S
C2205 H2229 0.949 . S
H2206 C2210 0.949 . S
C2207 C2208 1.349 . S
C2207 C2209 1.327 . S
C2207 H2230 0.950 . S
C2208 C2207 1.349 . S
C2208 C2220 1.349 . S
C2209 C2207 1.327 . S
C2209 C2225 1.429 . S
C2209 H2231 0.950 . S
C2210 H2206 0.949 . S
C2210 C2218 1.574 . S
C2210 C2226 1.368 . S
H2211 C2219 0.950 . S
H2212 C2217 0.950 . S
H2213 C2218 0.949 . S
H2214 C2220 0.950 . S
H2215 C2221 0.950 . S
H2216 C2222 0.949 . S
C2217 H2212 0.950 . S
C2217 C2219 1.327 . S
C2217 C2223 1.429 . S
C2218 C2210 1.574 . S
C2218 H2213 0.949 . S
C2218 C2224 1.368 . S
C2219 C2203 1.349 . S
C2219 H2211 0.950 . S
C2219 C2217 1.327 . S
C2220 C2208 1.349 . S
C2220 H2214 0.950 . S
C2220 C2221 1.327 . S
C2221 H2215 0.950 . S
C2221 C2220 1.327 . S
C2221 C2225 1.429 . S
C2222 C2205 1.574 . S
C2222 H2216 0.949 . S
C2222 C2226 1.368 . S
C2223 C2204 1.429 . S
C2223 C2217 1.429 . S
C2223 C2224 1.523 . S
C2224 C2205 1.368 . S
C2224 C2218 1.368 . S
C2224 C2223 1.523 . S
C2225 C2209 1.429 . S
C2225 C2221 1.429 . S
C2225 C2226 1.523 . S
C2226 C2210 1.368 . S
C2226 C2222 1.368 . S
C2226 C2225 1.523 . S
H2227 C2202 0.950 . S
H2228 C2204 0.950 . S
H2229 C2205 0.949 . S
H2230 C2207 0.950 . S
H2231 C2209 0.950 . S
C2232 C2233 1.349 . S
C2232 C2234 1.327 . S
C2232 H2257 0.950 . S
C2233 C2232 1.349 . S
C2233 C2249 1.349 . S
C2234 C2232 1.327 . S
C2234 C2253 1.429 . S
C2234 H2258 0.950 . S
C2235 C2252 1.574 . S
C2235 C2254 1.368 . S
C2235 H2259 0.949 . S
H2236 C2240 0.949 . S
C2237 C2238 1.349 . S
C2237 C2239 1.327 . S
C2237 H2260 0.950 . S
C2238 C2237 1.349 . S
C2238 C2250 1.349 . S
C2239 C2237 1.327 . S
C2239 C2255 1.429 . S
C2239 H2261 0.950 . S
C2240 H2236 0.949 . S
C2240 C2248 1.574 . S
C2240 C2256 1.368 . S
H2241 C2249 0.950 . S
H2242 C2247 0.950 . S
H2243 C2248 0.949 . S
H2244 C2250 0.950 . S
H2245 C2251 0.950 . S
H2246 C2252 0.949 . S
C2247 H2242 0.950 . S
C2247 C2249 1.327 . S
C2247 C2253 1.429 . S
C2248 C2240 1.574 . S
C2248 H2243 0.949 . S
C2248 C2254 1.368 . S
C2249 C2233 1.349 . S
C2249 H2241 0.950 . S
C2249 C2247 1.327 . S
C2250 C2238 1.349 . S
C2250 H2244 0.950 . S
C2250 C2251 1.327 . S
C2251 H2245 0.950 . S
C2251 C2250 1.327 . S
C2251 C2255 1.429 . S
C2252 C2235 1.574 . S
C2252 H2246 0.949 . S
C2252 C2256 1.368 . S
C2253 C2234 1.429 . S
C2253 C2247 1.429 . S
C2253 C2254 1.523 . S
C2254 C2235 1.368 . S
C2254 C2248 1.368 . S
C2254 C2253 1.523 . S
C2255 C2239 1.429 . S
C2255 C2251 1.429 . S
C2255 C2256 1.523 . S
C2256 C2240 1.368 . S
C2256 C2252 1.368 . S
C2256 C2255 1.523 . S
H2257 C2232 0.950 . S
H2258 C2234 0.950 . S
H2259 C2235 0.949 . S
H2260 C2237 0.950 . S
H2261 C2239 0.950 . S
C2262 C2263 1.349 . S
C2262 C2264 1.327 . S
C2262 H2287 0.950 . S
C2263 C2262 1.349 . S
C2263 C2279 1.349 . S
C2264 C2262 1.327 . S
C2264 C2283 1.429 . S
C2264 H2288 0.950 . S
C2265 C2282 1.574 . S
C2265 C2284 1.368 1_545 S
C2265 H2289 0.959 . S
H2266 C2270 0.949 . S
C2267 C2268 1.349 . S
C2267 C2269 1.327 . S
C2267 H2290 0.950 . S
C2268 C2267 1.349 . S
C2268 C2280 1.349 . S
C2269 C2267 1.327 . S
C2269 C2285 1.429 . S
C2269 H2291 0.950 . S
C2270 H2266 0.949 . S
C2270 C2278 1.574 . S
C2270 C2286 1.368 . S
H2271 C2279 0.950 . S
H2272 C2277 0.950 . S
H2273 C2278 0.934 1_565 S
H2274 C2280 0.950 . S
H2275 C2281 0.950 . S
H2276 C2282 0.949 . S
C2277 H2272 0.950 . S
C2277 C2279 1.327 . S
C2277 C2283 1.429 . S
C2278 C2270 1.574 . S
C2278 H2273 0.934 1_545 S
C2278 C2284 1.368 1_545 S
C2279 C2263 1.349 . S
C2279 H2271 0.950 . S
C2279 C2277 1.327 . S
C2280 C2268 1.349 . S
C2280 H2274 0.950 . S
C2280 C2281 1.327 . S
C2281 H2275 0.950 . S
C2281 C2280 1.327 . S
C2281 C2285 1.429 . S
C2282 C2265 1.574 . S
C2282 H2276 0.949 . S
C2282 C2286 1.368 . S
C2283 C2264 1.429 . S
C2283 C2277 1.429 . S
C2283 C2284 1.524 . S
C2284 C2265 1.368 1_565 S
C2284 C2278 1.368 1_565 S
C2284 C2283 1.524 . S
C2285 C2269 1.429 . S
C2285 C2281 1.429 . S
C2285 C2286 1.523 . S
C2286 C2270 1.368 . S
C2286 C2282 1.368 . S
C2286 C2285 1.523 . S
H2287 C2262 0.950 . S
H2288 C2264 0.950 . S
H2289 C2265 0.959 . S
H2290 C2267 0.950 . S
H2291 C2269 0.950 . S
C2292 C2293 1.349 . S
C2292 C2294 1.327 . S
C2292 H2317 0.950 . S
C2293 C2292 1.349 . S
C2293 C2309 1.349 . S
C2294 C2292 1.327 . S
C2294 C2313 1.429 . S
C2294 H2318 0.950 . S
C2295 C2312 1.574 . S
C2295 C2314 1.368 . S
C2295 H2319 0.949 . S
H2296 C2300 0.949 . S
C2297 C2298 1.349 . S
C2297 C2299 1.327 . S
C2297 H2320 0.950 . S
C2298 C2297 1.349 . S
C2298 C2310 1.349 . S
C2299 C2297 1.327 . S
C2299 C2315 1.429 . S
C2299 H2321 0.950 . S
C2300 H2296 0.949 . S
C2300 C2308 1.574 . S
C2300 C2316 1.368 . S
H2301 C2309 0.950 . S
H2302 C2307 0.950 . S
H2303 C2308 0.949 . S
H2304 C2310 0.950 . S
H2305 C2311 0.950 . S
H2306 C2312 0.949 . S
C2307 H2302 0.950 . S
C2307 C2309 1.327 . S
C2307 C2313 1.429 . S
C2308 C2300 1.574 . S
C2308 H2303 0.949 . S
C2308 C2314 1.368 . S
C2309 C2293 1.349 . S
C2309 H2301 0.950 . S
C2309 C2307 1.327 . S
C2310 C2298 1.349 . S
C2310 H2304 0.950 . S
C2310 C2311 1.327 . S
C2311 H2305 0.950 . S
C2311 C2310 1.327 . S
C2311 C2315 1.429 . S
C2312 C2295 1.574 . S
C2312 H2306 0.949 . S
C2312 C2316 1.368 . S
C2313 C2294 1.429 . S
C2313 C2307 1.429 . S
C2313 C2314 1.523 . S
C2314 C2295 1.368 . S
C2314 C2308 1.368 . S
C2314 C2313 1.523 . S
C2315 C2299 1.429 . S
C2315 C2311 1.429 . S
C2315 C2316 1.523 . S
C2316 C2300 1.368 . S
C2316 C2312 1.368 . S
C2316 C2315 1.523 . S
H2317 C2292 0.950 . S
H2318 C2294 0.950 . S
H2319 C2295 0.949 . S
H2320 C2297 0.950 . S
H2321 C2299 0.950 . S
C2322 C2323 1.349 . S
C2322 C2324 1.327 . S
C2322 H2347 0.950 . S
C2323 C2322 1.349 . S
C2323 C2339 1.349 . S
C2324 C2322 1.327 . S
C2324 C2343 1.429 . S
C2324 H2348 0.950 . S
C2325 C2342 1.574 . S
C2325 C2344 1.368 . S
C2325 H2349 0.949 . S
H2326 C2330 0.949 . S
C2327 C2328 1.349 . S
C2327 C2329 1.327 . S
C2327 H2350 0.950 . S
C2328 C2327 1.349 . S
C2328 C2340 1.349 . S
C2329 C2327 1.327 . S
C2329 C2345 1.429 . S
C2329 H2351 0.950 . S
C2330 H2326 0.949 . S
C2330 C2338 1.574 . S
C2330 C2346 1.368 . S
H2331 C2339 0.950 . S
H2332 C2337 0.950 . S
H2333 C2338 0.949 . S
H2334 C2340 0.950 . S
H2335 C2341 0.950 . S
H2336 C2342 0.949 . S
C2337 H2332 0.950 . S
C2337 C2339 1.327 . S
C2337 C2343 1.429 . S
C2338 C2330 1.574 . S
C2338 H2333 0.949 . S
C2338 C2344 1.368 . S
C2339 C2323 1.349 . S
C2339 H2331 0.950 . S
C2339 C2337 1.327 . S
C2340 C2328 1.349 . S
C2340 H2334 0.950 . S
C2340 C2341 1.327 . S
C2341 H2335 0.950 . S
C2341 C2340 1.327 . S
C2341 C2345 1.429 . S
C2342 C2325 1.574 . S
C2342 H2336 0.949 . S
C2342 C2346 1.368 . S
C2343 C2324 1.429 . S
C2343 C2337 1.429 . S
C2343 C2344 1.523 . S
C2344 C2325 1.368 . S
C2344 C2338 1.368 . S
C2344 C2343 1.523 . S
C2345 C2329 1.429 . S
C2345 C2341 1.429 . S
C2345 C2346 1.523 . S
C2346 C2330 1.368 . S
C2346 C2342 1.368 . S
C2346 C2345 1.523 . S
H2347 C2322 0.950 . S
H2348 C2324 0.950 . S
H2349 C2325 0.949 . S
H2350 C2327 0.950 . S
H2351 C2329 0.950 . S
C2352 C2353 1.349 . S
C2352 C2354 1.327 . S
C2352 H2377 0.950 . S
C2353 C2352 1.349 . S
C2353 C2369 1.349 . S
C2354 C2352 1.327 . S
C2354 C2373 1.429 . S
C2354 H2378 0.950 . S
C2355 C2372 1.574 . S
C2355 C2374 1.368 . S
C2355 H2379 0.949 . S
H2356 C2360 0.962 . S
C2357 C2358 1.349 . S
C2357 C2359 1.327 . S
C2357 H2380 0.950 . S
C2358 C2357 1.349 . S
C2358 C2370 1.349 . S
C2359 C2357 1.327 . S
C2359 C2375 1.429 . S
C2359 H2381 0.950 . S
C2360 H2356 0.962 . S
C2360 C2368 1.574 . S
C2360 C2376 1.368 . S
H2361 C2369 0.950 . S
H2362 C2367 0.950 . S
H2363 C2368 0.949 . S
H2364 C2370 0.950 . S
H2365 C2371 0.950 . S
H2366 C2372 0.949 . S
C2367 H2362 0.950 . S
C2367 C2369 1.327 . S
C2367 C2373 1.429 . S
C2368 C2360 1.574 . S
C2368 H2363 0.949 . S
C2368 C2374 1.368 . S
C2369 C2353 1.349 . S
C2369 H2361 0.950 . S
C2369 C2367 1.327 . S
C2370 C2358 1.349 . S
C2370 H2364 0.950 . S
C2370 C2371 1.327 . S
C2371 H2365 0.950 . S
C2371 C2370 1.327 . S
C2371 C2375 1.429 . S
C2372 C2355 1.574 . S
C2372 H2366 0.949 . S
C2372 C2376 1.368 . S
C2373 C2354 1.429 . S
C2373 C2367 1.429 . S
C2373 C2374 1.523 . S
C2374 C2355 1.368 . S
C2374 C2368 1.368 . S
C2374 C2373 1.523 . S
C2375 C2359 1.429 . S
C2375 C2371 1.429 . S
C2375 C2376 1.523 1_556 S
C2376 C2360 1.368 . S
C2376 C2372 1.368 . S
C2376 C2375 1.523 1_554 S
H2377 C2352 0.950 . S
H2378 C2354 0.950 . S
H2379 C2355 0.949 . S
H2380 C2357 0.950 . S
H2381 C2359 0.950 . S
C2382 C2383 1.349 . S
C2382 C2384 1.327 . S
C2382 H2407 0.950 . S
C2383 C2382 1.349 . S
C2383 C2399 1.349 . S
C2384 C2382 1.327 . S
C2384 C2403 1.429 . S
C2384 H2408 0.950 . S
C2385 C2402 1.574 . S
C2385 C2404 1.368 . S
C2385 H2409 0.949 . S
H2386 C2390 0.949 . S
C2387 C2388 1.349 . S
C2387 C2389 1.327 . S
C2387 H2410 0.950 . S
C2388 C2387 1.349 . S
C2388 C2400 1.349 . S
C2389 C2387 1.327 . S
C2389 C2405 1.429 . S
C2389 H2411 0.950 . S
C2390 H2386 0.949 . S
C2390 C2398 1.574 . S
C2390 C2406 1.368 . S
H2391 C2399 0.950 . S
H2392 C2397 0.950 . S
H2393 C2398 0.949 . S
H2394 C2400 0.950 . S
H2395 C2401 0.950 . S
H2396 C2402 0.949 . S
C2397 H2392 0.950 . S
C2397 C2399 1.327 . S
C2397 C2403 1.429 . S
C2398 C2390 1.574 . S
C2398 H2393 0.949 . S
C2398 C2404 1.368 . S
C2399 C2383 1.349 . S
C2399 H2391 0.950 . S
C2399 C2397 1.327 . S
C2400 C2388 1.349 . S
C2400 H2394 0.950 . S
C2400 C2401 1.327 . S
C2401 H2395 0.950 . S
C2401 C2400 1.327 . S
C2401 C2405 1.429 . S
C2402 C2385 1.574 . S
C2402 H2396 0.949 . S
C2402 C2406 1.368 . S
C2403 C2384 1.429 . S
C2403 C2397 1.429 . S
C2403 C2404 1.523 . S
C2404 C2385 1.368 . S
C2404 C2398 1.368 . S
C2404 C2403 1.523 . S
C2405 C2389 1.429 . S
C2405 C2401 1.429 . S
C2405 C2406 1.523 . S
C2406 C2390 1.368 . S
C2406 C2402 1.368 . S
C2406 C2405 1.523 . S
H2407 C2382 0.950 . S
H2408 C2384 0.950 . S
H2409 C2385 0.949 . S
H2410 C2387 0.950 . S
H2411 C2389 0.950 . S
C2412 C2413 1.349 . S
C2412 C2414 1.327 . S
C2412 H2437 0.950 . S
C2413 C2412 1.349 . S
C2413 C2429 1.349 . S
C2414 C2412 1.327 . S
C2414 C2433 1.429 . S
C2414 H2438 0.950 . S
C2415 C2432 1.574 . S
C2415 C2434 1.368 . S
C2415 H2439 0.949 . S
H2416 C2420 0.949 . S
C2417 C2418 1.349 . S
C2417 C2419 1.327 . S
C2417 H2440 0.950 . S
C2418 C2417 1.349 . S
C2418 C2430 1.349 . S
C2419 C2417 1.327 . S
C2419 C2435 1.429 . S
C2419 H2441 0.950 . S
C2420 H2416 0.949 . S
C2420 C2428 1.574 . S
C2420 C2436 1.368 . S
H2421 C2429 0.950 . S
H2422 C2427 0.950 . S
H2423 C2428 0.949 . S
H2424 C2430 0.950 . S
H2425 C2431 0.950 . S
H2426 C2432 0.949 . S
C2427 H2422 0.950 . S
C2427 C2429 1.327 . S
C2427 C2433 1.429 . S
C2428 C2420 1.574 . S
C2428 H2423 0.949 . S
C2428 C2434 1.368 . S
C2429 C2413 1.349 . S
C2429 H2421 0.950 . S
C2429 C2427 1.327 . S
C2430 C2418 1.349 . S
C2430 H2424 0.950 . S
C2430 C2431 1.327 . S
C2431 H2425 0.950 . S
C2431 C2430 1.327 . S
C2431 C2435 1.429 . S
C2432 C2415 1.574 . S
C2432 H2426 0.949 . S
C2432 C2436 1.368 . S
C2433 C2414 1.429 . S
C2433 C2427 1.429 . S
C2433 C2434 1.523 . S
C2434 C2415 1.368 . S
C2434 C2428 1.368 . S
C2434 C2433 1.523 . S
C2435 C2419 1.429 . S
C2435 C2431 1.429 . S
C2435 C2436 1.523 . S
C2436 C2420 1.368 . S
C2436 C2432 1.368 . S
C2436 C2435 1.523 . S
H2437 C2412 0.950 . S
H2438 C2414 0.950 . S
H2439 C2415 0.949 . S
H2440 C2417 0.950 . S
H2441 C2419 0.950 . S
C2442 C2443 1.349 . S
C2442 C2444 1.327 . S
C2442 H2467 0.950 . S
C2443 C2442 1.349 . S
C2443 C2459 1.349 . S
C2444 C2442 1.327 . S
C2444 C2463 1.429 . S
C2444 H2468 0.950 . S
C2445 C2462 1.574 . S
C2445 C2464 1.368 . S
C2445 H2469 0.949 . S
H2446 C2450 0.949 . S
C2447 C2448 1.349 . S
C2447 C2449 1.327 . S
C2447 H2470 0.950 . S
C2448 C2447 1.349 . S
C2448 C2460 1.349 . S
C2449 C2447 1.327 . S
C2449 C2465 1.429 . S
C2449 H2471 0.950 . S
C2450 H2446 0.949 . S
C2450 C2458 1.574 . S
C2450 C2466 1.368 . S
H2451 C2459 0.950 . S
H2452 C2457 0.950 . S
H2453 C2458 0.949 . S
H2454 C2460 0.950 . S
H2455 C2461 0.950 . S
H2456 C2462 0.949 . S
C2457 H2452 0.950 . S
C2457 C2459 1.327 . S
C2457 C2463 1.429 . S
C2458 C2450 1.574 . S
C2458 H2453 0.949 . S
C2458 C2464 1.368 . S
C2459 C2443 1.349 . S
C2459 H2451 0.950 . S
C2459 C2457 1.327 . S
C2460 C2448 1.349 . S
C2460 H2454 0.950 . S
C2460 C2461 1.327 . S
C2461 H2455 0.950 . S
C2461 C2460 1.327 . S
C2461 C2465 1.429 . S
C2462 C2445 1.574 . S
C2462 H2456 0.949 . S
C2462 C2466 1.368 . S
C2463 C2444 1.429 . S
C2463 C2457 1.429 . S
C2463 C2464 1.523 . S
C2464 C2445 1.368 . S
C2464 C2458 1.368 . S
C2464 C2463 1.523 . S
C2465 C2449 1.429 . S
C2465 C2461 1.429 . S
C2465 C2466 1.523 . S
C2466 C2450 1.368 . S
C2466 C2462 1.368 . S
C2466 C2465 1.523 . S
H2467 C2442 0.950 . S
H2468 C2444 0.950 . S
H2469 C2445 0.949 . S
H2470 C2447 0.950 . S
H2471 C2449 0.950 . S
C2472 C2473 1.349 . S
C2472 C2474 1.327 . S
C2472 H2497 0.950 . S
C2473 C2472 1.349 . S
C2473 C2489 1.349 . S
C2474 C2472 1.327 . S
C2474 C2493 1.429 . S
C2474 H2498 0.950 . S
C2475 C2492 1.574 . S
C2475 C2494 1.368 . S
C2475 H2499 0.949 . S
H2476 C2480 0.949 . S
C2477 C2478 1.349 . S
C2477 C2479 1.327 . S
C2477 H2500 0.950 . S
C2478 C2477 1.349 . S
C2478 C2490 1.349 . S
C2479 C2477 1.327 . S
C2479 C2495 1.429 . S
C2479 H2501 0.950 . S
C2480 H2476 0.949 . S
C2480 C2488 1.574 . S
C2480 C2496 1.368 . S
H2481 C2489 0.950 . S
H2482 C2487 0.950 . S
H2483 C2488 0.949 . S
H2484 C2490 0.950 . S
H2485 C2491 0.950 . S
H2486 C2492 0.949 . S
C2487 H2482 0.950 . S
C2487 C2489 1.327 . S
C2487 C2493 1.429 . S
C2488 C2480 1.574 . S
C2488 H2483 0.949 . S
C2488 C2494 1.368 . S
C2489 C2473 1.349 . S
C2489 H2481 0.950 . S
C2489 C2487 1.327 . S
C2490 C2478 1.349 . S
C2490 H2484 0.950 . S
C2490 C2491 1.327 . S
C2491 H2485 0.950 . S
C2491 C2490 1.327 . S
C2491 C2495 1.429 . S
C2492 C2475 1.574 . S
C2492 H2486 0.949 . S
C2492 C2496 1.368 . S
C2493 C2474 1.429 . S
C2493 C2487 1.429 . S
C2493 C2494 1.523 . S
C2494 C2475 1.368 . S
C2494 C2488 1.368 . S
C2494 C2493 1.523 . S
C2495 C2479 1.429 . S
C2495 C2491 1.429 . S
C2495 C2496 1.523 . S
C2496 C2480 1.368 . S
C2496 C2492 1.368 . S
C2496 C2495 1.523 . S
H2497 C2472 0.950 . S
H2498 C2474 0.950 . S
H2499 C2475 0.949 . S
H2500 C2477 0.950 . S
H2501 C2479 0.950 . S
C2502 C2503 1.349 . S
C2502 C2504 1.327 . S
C2502 H2527 0.950 . S
C2503 C2502 1.349 . S
C2503 C2519 1.349 . S
C2504 C2502 1.327 . S
C2504 C2523 1.429 . S
C2504 H2528 0.950 . S
C2505 C2522 1.574 . S
C2505 C2524 1.368 . S
C2505 H2529 0.949 . S
H2506 C2510 0.949 . S
C2507 C2508 1.349 . S
C2507 C2509 1.327 . S
C2507 H2530 0.950 . S
C2508 C2507 1.349 . S
C2508 C2520 1.349 . S
C2509 C2507 1.327 . S
C2509 C2525 1.429 . S
C2509 H2531 0.950 . S
C2510 H2506 0.949 . S
C2510 C2518 1.574 . S
C2510 C2526 1.368 . S
H2511 C2519 0.950 . S
H2512 C2517 0.950 . S
H2513 C2518 0.949 . S
H2514 C2520 0.950 . S
H2515 C2521 0.950 . S
H2516 C2522 0.949 . S
C2517 H2512 0.950 . S
C2517 C2519 1.327 . S
C2517 C2523 1.429 . S
C2518 C2510 1.574 . S
C2518 H2513 0.949 . S
C2518 C2524 1.368 . S
C2519 C2503 1.349 . S
C2519 H2511 0.950 . S
C2519 C2517 1.327 . S
C2520 C2508 1.349 . S
C2520 H2514 0.950 . S
C2520 C2521 1.327 . S
C2521 H2515 0.950 . S
C2521 C2520 1.327 . S
C2521 C2525 1.429 . S
C2522 C2505 1.574 . S
C2522 H2516 0.949 . S
C2522 C2526 1.368 . S
C2523 C2504 1.429 . S
C2523 C2517 1.429 . S
C2523 C2524 1.523 . S
C2524 C2505 1.368 . S
C2524 C2518 1.368 . S
C2524 C2523 1.523 . S
C2525 C2509 1.429 . S
C2525 C2521 1.429 . S
C2525 C2526 1.523 . S
C2526 C2510 1.368 . S
C2526 C2522 1.368 . S
C2526 C2525 1.523 . S
H2527 C2502 0.950 . S
H2528 C2504 0.950 . S
H2529 C2505 0.949 . S
H2530 C2507 0.950 . S
H2531 C2509 0.950 . S
C2532 C2533 1.349 . S
C2532 C2534 1.327 . S
C2532 H2557 0.950 . S
C2533 C2532 1.349 . S
C2533 C2549 1.349 . S
C2534 C2532 1.327 . S
C2534 C2553 1.429 . S
C2534 H2558 0.950 . S
C2535 C2552 1.574 1_556 S
C2535 C2554 1.368 . S
C2535 H2559 0.949 . S
H2536 C2540 0.949 . S
C2537 C2538 1.349 . S
C2537 C2539 1.327 . S
C2537 H2560 0.950 . S
C2538 C2537 1.349 . S
C2538 C2550 1.349 . S
C2539 C2537 1.327 . S
C2539 C2555 1.429 . S
C2539 H2561 0.950 . S
C2540 H2536 0.949 . S
C2540 C2548 1.574 . S
C2540 C2556 1.368 1_556 S
H2541 C2549 0.950 . S
H2542 C2547 0.950 . S
H2543 C2548 0.949 . S
H2544 C2550 0.950 . S
H2545 C2551 0.950 . S
H2546 C2552 0.949 . S
C2547 H2542 0.950 . S
C2547 C2549 1.327 . S
C2547 C2553 1.429 . S
C2548 C2540 1.574 . S
C2548 H2543 0.949 . S
C2548 C2554 1.368 . S
C2549 C2533 1.349 . S
C2549 H2541 0.950 . S
C2549 C2547 1.327 . S
C2550 C2538 1.349 . S
C2550 H2544 0.950 . S
C2550 C2551 1.327 . S
C2551 H2545 0.950 . S
C2551 C2550 1.327 . S
C2551 C2555 1.429 . S
C2552 C2535 1.574 1_554 S
C2552 H2546 0.949 . S
C2552 C2556 1.368 . S
C2553 C2534 1.429 . S
C2553 C2547 1.429 . S
C2553 C2554 1.523 . S
C2554 C2535 1.368 . S
C2554 C2548 1.368 . S
C2554 C2553 1.523 . S
C2555 C2539 1.429 . S
C2555 C2551 1.429 . S
C2555 C2556 1.523 . S
C2556 C2540 1.368 1_554 S
C2556 C2552 1.368 . S
C2556 C2555 1.523 . S
H2557 C2532 0.950 . S
H2558 C2534 0.950 . S
H2559 C2535 0.949 . S
H2560 C2537 0.950 . S
H2561 C2539 0.950 . S
C2562 C2563 1.349 . S
C2562 C2564 1.327 . S
C2562 H2587 0.950 . S
C2563 C2562 1.349 . S
C2563 C2579 1.349 . S
C2564 C2562 1.327 . S
C2564 C2583 1.429 . S
C2564 H2588 0.950 . S
C2565 C2582 1.574 . S
C2565 C2584 1.368 . S
C2565 H2589 0.949 . S
H2566 C2570 0.949 . S
C2567 C2568 1.349 . S
C2567 C2569 1.327 . S
C2567 H2590 0.950 . S
C2568 C2567 1.349 . S
C2568 C2580 1.349 . S
C2569 C2567 1.327 . S
C2569 C2585 1.429 . S
C2569 H2591 0.950 . S
C2570 H2566 0.949 . S
C2570 C2578 1.574 . S
C2570 C2586 1.368 . S
H2571 C2579 0.950 . S
H2572 C2577 0.950 . S
H2573 C2578 0.949 . S
H2574 C2580 0.950 . S
H2575 C2581 0.950 . S
H2576 C2582 0.949 . S
C2577 H2572 0.950 . S
C2577 C2579 1.327 . S
C2577 C2583 1.429 . S
C2578 C2570 1.574 . S
C2578 H2573 0.949 . S
C2578 C2584 1.368 . S
C2579 C2563 1.349 . S
C2579 H2571 0.950 . S
C2579 C2577 1.327 . S
C2580 C2568 1.349 . S
C2580 H2574 0.950 . S
C2580 C2581 1.327 . S
C2581 H2575 0.950 . S
C2581 C2580 1.327 . S
C2581 C2585 1.429 . S
C2582 C2565 1.574 . S
C2582 H2576 0.949 . S
C2582 C2586 1.368 . S
C2583 C2564 1.429 . S
C2583 C2577 1.429 . S
C2583 C2584 1.523 . S
C2584 C2565 1.368 . S
C2584 C2578 1.368 . S
C2584 C2583 1.523 . S
C2585 C2569 1.429 . S
C2585 C2581 1.429 . S
C2585 C2586 1.523 . S
C2586 C2570 1.368 . S
C2586 C2582 1.368 . S
C2586 C2585 1.523 . S
H2587 C2562 0.950 . S
H2588 C2564 0.950 . S
H2589 C2565 0.949 . S
H2590 C2567 0.950 . S
H2591 C2569 0.950 . S
C2592 C2593 1.349 . S
C2592 C2594 1.327 . S
C2592 H2617 0.950 . S
C2593 C2592 1.349 . S
C2593 C2609 1.349 . S
C2594 C2592 1.327 . S
C2594 C2613 1.429 . S
C2594 H2618 0.950 . S
C2595 C2612 1.574 . S
C2595 C2614 1.368 . S
C2595 H2619 0.949 . S
H2596 C2600 0.949 . S
C2597 C2598 1.349 . S
C2597 C2599 1.327 . S
C2597 H2620 0.950 . S
C2598 C2597 1.349 . S
C2598 C2610 1.349 . S
C2599 C2597 1.327 . S
C2599 C2615 1.429 . S
C2599 H2621 0.950 . S
C2600 H2596 0.949 . S
C2600 C2608 1.574 . S
C2600 C2616 1.368 . S
H2601 C2609 0.950 . S
H2602 C2607 0.950 . S
H2603 C2608 0.949 . S
H2604 C2610 0.950 . S
H2605 C2611 0.950 . S
H2606 C2612 0.949 . S
C2607 H2602 0.950 . S
C2607 C2609 1.327 . S
C2607 C2613 1.429 . S
C2608 C2600 1.574 . S
C2608 H2603 0.949 . S
C2608 C2614 1.368 . S
C2609 C2593 1.349 . S
C2609 H2601 0.950 . S
C2609 C2607 1.327 . S
C2610 C2598 1.349 . S
C2610 H2604 0.950 . S
C2610 C2611 1.327 . S
C2611 H2605 0.950 . S
C2611 C2610 1.327 . S
C2611 C2615 1.429 . S
C2612 C2595 1.574 . S
C2612 H2606 0.949 . S
C2612 C2616 1.368 . S
C2613 C2594 1.429 . S
C2613 C2607 1.429 . S
C2613 C2614 1.523 . S
C2614 C2595 1.368 . S
C2614 C2608 1.368 . S
C2614 C2613 1.523 . S
C2615 C2599 1.429 . S
C2615 C2611 1.429 . S
C2615 C2616 1.523 1_655 S
C2616 C2600 1.368 . S
C2616 C2612 1.368 . S
C2616 C2615 1.523 1_455 S
H2617 C2592 0.950 . S
H2618 C2594 0.950 . S
H2619 C2595 0.949 . S
H2620 C2597 0.950 . S
H2621 C2599 0.950 . S
C2622 C2623 1.349 . S
C2622 C2624 1.327 . S
C2622 H2647 0.950 . S
C2623 C2622 1.349 . S
C2623 C2639 1.349 . S
C2624 C2622 1.327 . S
C2624 C2643 1.429 . S
C2624 H2648 0.950 . S
C2625 C2642 1.574 . S
C2625 C2644 1.368 . S
C2625 H2649 0.949 . S
H2626 C2630 0.949 . S
C2627 C2628 1.349 . S
C2627 C2629 1.327 . S
C2627 H2650 0.950 . S
C2628 C2627 1.349 . S
C2628 C2640 1.349 . S
C2629 C2627 1.327 . S
C2629 C2645 1.429 . S
C2629 H2651 0.950 . S
C2630 H2626 0.949 . S
C2630 C2638 1.574 . S
C2630 C2646 1.368 . S
H2631 C2639 0.950 . S
H2632 C2637 0.950 . S
H2633 C2638 0.949 . S
H2634 C2640 0.950 . S
H2635 C2641 0.950 . S
H2636 C2642 0.949 . S
C2637 H2632 0.950 . S
C2637 C2639 1.327 . S
C2637 C2643 1.429 . S
C2638 C2630 1.574 . S
C2638 H2633 0.949 . S
C2638 C2644 1.368 . S
C2639 C2623 1.349 . S
C2639 H2631 0.950 . S
C2639 C2637 1.327 . S
C2640 C2628 1.349 . S
C2640 H2634 0.950 . S
C2640 C2641 1.327 . S
C2641 H2635 0.950 . S
C2641 C2640 1.327 . S
C2641 C2645 1.429 . S
C2642 C2625 1.574 . S
C2642 H2636 0.949 . S
C2642 C2646 1.368 . S
C2643 C2624 1.429 . S
C2643 C2637 1.429 . S
C2643 C2644 1.523 . S
C2644 C2625 1.368 . S
C2644 C2638 1.368 . S
C2644 C2643 1.523 . S
C2645 C2629 1.429 . S
C2645 C2641 1.429 . S
C2645 C2646 1.523 . S
C2646 C2630 1.368 . S
C2646 C2642 1.368 . S
C2646 C2645 1.523 . S
H2647 C2622 0.950 . S
H2648 C2624 0.950 . S
H2649 C2625 0.949 . S
H2650 C2627 0.950 . S
H2651 C2629 0.950 . S
C2652 C2653 1.349 . S
C2652 C2654 1.327 . S
C2652 H2677 0.950 . S
C2653 C2652 1.349 . S
C2653 C2669 1.349 . S
C2654 C2652 1.327 . S
C2654 C2673 1.429 . S
C2654 H2678 0.950 . S
C2655 C2672 1.574 . S
C2655 C2674 1.368 . S
C2655 H2679 0.949 . S
H2656 C2660 0.949 . S
C2657 C2658 1.349 . S
C2657 C2659 1.327 . S
C2657 H2680 0.950 . S
C2658 C2657 1.349 . S
C2658 C2670 1.349 . S
C2659 C2657 1.327 . S
C2659 C2675 1.429 . S
C2659 H2681 0.950 . S
C2660 H2656 0.949 . S
C2660 C2668 1.574 . S
C2660 C2676 1.368 . S
H2661 C2669 0.950 . S
H2662 C2667 0.950 . S
H2663 C2668 0.949 . S
H2664 C2670 0.950 . S
H2665 C2671 0.950 . S
H2666 C2672 0.949 . S
C2667 H2662 0.950 . S
C2667 C2669 1.327 . S
C2667 C2673 1.429 . S
C2668 C2660 1.574 . S
C2668 H2663 0.949 . S
C2668 C2674 1.368 . S
C2669 C2653 1.349 . S
C2669 H2661 0.950 . S
C2669 C2667 1.327 . S
C2670 C2658 1.349 . S
C2670 H2664 0.950 . S
C2670 C2671 1.327 . S
C2671 H2665 0.950 . S
C2671 C2670 1.327 . S
C2671 C2675 1.429 . S
C2672 C2655 1.574 . S
C2672 H2666 0.949 . S
C2672 C2676 1.368 . S
C2673 C2654 1.429 . S
C2673 C2667 1.429 . S
C2673 C2674 1.523 . S
C2674 C2655 1.368 . S
C2674 C2668 1.368 . S
C2674 C2673 1.523 . S
C2675 C2659 1.429 . S
C2675 C2671 1.429 . S
C2675 C2676 1.523 . S
C2676 C2660 1.368 . S
C2676 C2672 1.368 . S
C2676 C2675 1.523 . S
H2677 C2652 0.950 . S
H2678 C2654 0.950 . S
H2679 C2655 0.949 . S
H2680 C2657 0.950 . S
H2681 C2659 0.950 . S
C2682 C2683 1.349 . S
C2682 C2684 1.327 . S
C2682 H2707 0.950 . S
C2683 C2682 1.349 . S
C2683 C2699 1.349 . S
C2684 C2682 1.327 . S
C2684 C2703 1.429 . S
C2684 H2708 0.950 . S
C2685 C2702 1.574 . S
C2685 C2704 1.368 . S
C2685 H2709 0.949 . S
H2686 C2690 0.949 . S
C2687 C2688 1.349 . S
C2687 C2689 1.327 . S
C2687 H2710 0.950 . S
C2688 C2687 1.349 . S
C2688 C2700 1.349 . S
C2689 C2687 1.327 . S
C2689 C2705 1.429 . S
C2689 H2711 0.950 . S
C2690 H2686 0.949 . S
C2690 C2698 1.574 . S
C2690 C2706 1.368 . S
H2691 C2699 0.950 . S
H2692 C2697 0.950 . S
H2693 C2698 0.949 . S
H2694 C2700 0.950 . S
H2695 C2701 0.950 . S
H2696 C2702 0.949 . S
C2697 H2692 0.950 . S
C2697 C2699 1.327 . S
C2697 C2703 1.429 . S
C2698 C2690 1.574 . S
C2698 H2693 0.949 . S
C2698 C2704 1.368 . S
C2699 C2683 1.349 . S
C2699 H2691 0.950 . S
C2699 C2697 1.327 . S
C2700 C2688 1.349 . S
C2700 H2694 0.950 . S
C2700 C2701 1.327 . S
C2701 H2695 0.950 . S
C2701 C2700 1.327 . S
C2701 C2705 1.429 . S
C2702 C2685 1.574 . S
C2702 H2696 0.949 . S
C2702 C2706 1.368 . S
C2703 C2684 1.429 . S
C2703 C2697 1.429 . S
C2703 C2704 1.523 . S
C2704 C2685 1.368 . S
C2704 C2698 1.368 . S
C2704 C2703 1.523 . S
C2705 C2689 1.429 . S
C2705 C2701 1.429 . S
C2705 C2706 1.523 . S
C2706 C2690 1.368 . S
C2706 C2702 1.368 . S
C2706 C2705 1.523 . S
H2707 C2682 0.950 . S
H2708 C2684 0.950 . S
H2709 C2685 0.949 . S
H2710 C2687 0.950 . S
H2711 C2689 0.950 . S
C2712 C2713 1.349 . S
C2712 C2714 1.327 . S
C2712 H2737 0.950 . S
C2713 C2712 1.349 . S
C2713 C2729 1.349 . S
C2714 C2712 1.327 . S
C2714 C2733 1.429 1_655 S
C2714 H2738 0.950 . S
C2715 C2732 1.574 . S
C2715 C2734 1.368 . S
C2715 H2739 0.949 . S
H2716 C2720 0.949 . S
C2717 C2718 1.349 . S
C2717 C2719 1.327 . S
C2717 H2740 0.950 . S
C2718 C2717 1.349 . S
C2718 C2730 1.349 . S
C2719 C2717 1.327 . S
C2719 C2735 1.429 . S
C2719 H2741 0.950 . S
C2720 H2716 0.949 . S
C2720 C2728 1.574 . S
C2720 C2736 1.368 . S
H2721 C2729 0.950 . S
H2722 C2727 0.950 1_455 S
H2723 C2728 0.949 . S
H2724 C2730 0.950 . S
H2725 C2731 0.950 . S
H2726 C2732 0.949 . S
C2727 H2722 0.950 1_655 S
C2727 C2729 1.327 . S
C2727 C2733 1.429 1_655 S
C2728 C2720 1.574 . S
C2728 H2723 0.949 . S
C2728 C2734 1.368 . S
C2729 C2713 1.349 . S
C2729 H2721 0.950 . S
C2729 C2727 1.327 . S
C2730 C2718 1.349 . S
C2730 H2724 0.950 . S
C2730 C2731 1.327 . S
C2731 H2725 0.950 . S
C2731 C2730 1.327 . S
C2731 C2735 1.429 . S
C2732 C2715 1.574 . S
C2732 H2726 0.949 . S
C2732 C2736 1.368 . S
C2733 C2714 1.429 1_455 S
C2733 C2727 1.429 1_455 S
C2733 C2734 1.523 . S
C2734 C2715 1.368 . S
C2734 C2728 1.368 . S
C2734 C2733 1.523 . S
C2735 C2719 1.429 . S
C2735 C2731 1.429 . S
C2735 C2736 1.523 . S
C2736 C2720 1.368 . S
C2736 C2732 1.368 . S
C2736 C2735 1.523 . S
H2737 C2712 0.950 . S
H2738 C2714 0.950 . S
H2739 C2715 0.949 . S
H2740 C2717 0.950 . S
H2741 C2719 0.950 . S
C2742 C2743 1.349 . S
C2742 C2744 1.327 . S
C2742 H2767 0.950 . S
C2743 C2742 1.349 . S
C2743 C2759 1.349 . S
C2744 C2742 1.327 . S
C2744 C2763 1.429 . S
C2744 H2768 0.950 . S
C2745 C2762 1.574 . S
C2745 C2764 1.368 . S
C2745 H2769 0.949 . S
H2746 C2750 0.949 . S
C2747 C2748 1.349 . S
C2747 C2749 1.327 . S
C2747 H2770 0.950 . S
C2748 C2747 1.349 . S
C2748 C2760 1.349 . S
C2749 C2747 1.327 . S
C2749 C2765 1.429 . S
C2749 H2771 0.950 . S
C2750 H2746 0.949 . S
C2750 C2758 1.574 . S
C2750 C2766 1.368 . S
H2751 C2759 0.950 . S
H2752 C2757 0.950 . S
H2753 C2758 0.949 . S
H2754 C2760 0.950 . S
H2755 C2761 0.950 . S
H2756 C2762 0.949 . S
C2757 H2752 0.950 . S
C2757 C2759 1.327 . S
C2757 C2763 1.429 . S
C2758 C2750 1.574 . S
C2758 H2753 0.949 . S
C2758 C2764 1.368 . S
C2759 C2743 1.349 . S
C2759 H2751 0.950 . S
C2759 C2757 1.327 . S
C2760 C2748 1.349 . S
C2760 H2754 0.950 . S
C2760 C2761 1.327 . S
C2761 H2755 0.950 . S
C2761 C2760 1.327 . S
C2761 C2765 1.429 . S
C2762 C2745 1.574 . S
C2762 H2756 0.949 . S
C2762 C2766 1.368 . S
C2763 C2744 1.429 . S
C2763 C2757 1.429 . S
C2763 C2764 1.523 . S
C2764 C2745 1.368 . S
C2764 C2758 1.368 . S
C2764 C2763 1.523 . S
C2765 C2749 1.429 . S
C2765 C2761 1.429 . S
C2765 C2766 1.523 . S
C2766 C2750 1.368 . S
C2766 C2762 1.368 . S
C2766 C2765 1.523 . S
H2767 C2742 0.950 . S
H2768 C2744 0.950 . S
H2769 C2745 0.949 . S
H2770 C2747 0.950 . S
H2771 C2749 0.950 . S
C2772 C2773 1.349 . S
C2772 C2774 1.327 . S
C2772 H2797 0.950 . S
C2773 C2772 1.349 . S
C2773 C2789 1.349 . S
C2774 C2772 1.327 . S
C2774 C2793 1.429 . S
C2774 H2798 0.950 . S
C2775 C2792 1.574 . S
C2775 C2794 1.368 . S
C2775 H2799 0.949 . S
H2776 C2780 0.949 . S
C2777 C2778 1.349 . S
C2777 C2779 1.327 . S
C2777 H2800 0.950 . S
C2778 C2777 1.349 . S
C2778 C2790 1.349 . S
C2779 C2777 1.327 . S
C2779 C2795 1.429 . S
C2779 H2801 0.950 . S
C2780 H2776 0.949 . S
C2780 C2788 1.574 . S
C2780 C2796 1.368 . S
H2781 C2789 0.950 . S
H2782 C2787 0.950 . S
H2783 C2788 0.949 . S
H2784 C2790 0.950 . S
H2785 C2791 0.950 . S
H2786 C2792 0.949 . S
C2787 H2782 0.950 . S
C2787 C2789 1.327 . S
C2787 C2793 1.429 . S
C2788 C2780 1.574 . S
C2788 H2783 0.949 . S
C2788 C2794 1.368 . S
C2789 C2773 1.349 . S
C2789 H2781 0.950 . S
C2789 C2787 1.327 . S
C2790 C2778 1.349 . S
C2790 H2784 0.950 . S
C2790 C2791 1.327 . S
C2791 H2785 0.950 . S
C2791 C2790 1.327 . S
C2791 C2795 1.429 . S
C2792 C2775 1.574 . S
C2792 H2786 0.949 . S
C2792 C2796 1.368 . S
C2793 C2774 1.429 . S
C2793 C2787 1.429 . S
C2793 C2794 1.523 . S
C2794 C2775 1.368 . S
C2794 C2788 1.368 . S
C2794 C2793 1.523 . S
C2795 C2779 1.429 . S
C2795 C2791 1.429 . S
C2795 C2796 1.523 . S
C2796 C2780 1.368 . S
C2796 C2792 1.368 . S
C2796 C2795 1.523 . S
H2797 C2772 0.950 . S
H2798 C2774 0.950 . S
H2799 C2775 0.949 . S
H2800 C2777 0.950 . S
H2801 C2779 0.950 . S
C2802 C2803 1.349 . S
C2802 C2804 1.327 . S
C2802 H2827 0.950 . S
C2803 C2802 1.349 . S
C2803 C2819 1.349 . S
C2804 C2802 1.327 . S
C2804 C2823 1.429 . S
C2804 H2828 0.950 . S
C2805 C2822 1.574 . S
C2805 C2824 1.368 . S
C2805 H2829 0.949 . S
H2806 C2810 0.949 . S
C2807 C2808 1.349 . S
C2807 C2809 1.327 . S
C2807 H2830 0.950 . S
C2808 C2807 1.349 . S
C2808 C2820 1.349 . S
C2809 C2807 1.327 . S
C2809 C2825 1.429 . S
C2809 H2831 0.950 . S
C2810 H2806 0.949 . S
C2810 C2818 1.574 . S
C2810 C2826 1.368 . S
H2811 C2819 0.950 . S
H2812 C2817 0.950 . S
H2813 C2818 0.949 . S
H2814 C2820 0.950 . S
H2815 C2821 0.950 . S
H2816 C2822 0.949 . S
C2817 H2812 0.950 . S
C2817 C2819 1.327 . S
C2817 C2823 1.429 . S
C2818 C2810 1.574 . S
C2818 H2813 0.949 . S
C2818 C2824 1.368 . S
C2819 C2803 1.349 . S
C2819 H2811 0.950 . S
C2819 C2817 1.327 . S
C2820 C2808 1.349 . S
C2820 H2814 0.950 . S
C2820 C2821 1.327 . S
C2821 H2815 0.950 . S
C2821 C2820 1.327 . S
C2821 C2825 1.429 . S
C2822 C2805 1.574 . S
C2822 H2816 0.949 . S
C2822 C2826 1.368 . S
C2823 C2804 1.429 . S
C2823 C2817 1.429 . S
C2823 C2824 1.523 . S
C2824 C2805 1.368 . S
C2824 C2818 1.368 . S
C2824 C2823 1.523 . S
C2825 C2809 1.429 . S
C2825 C2821 1.429 . S
C2825 C2826 1.523 . S
C2826 C2810 1.368 . S
C2826 C2822 1.368 . S
C2826 C2825 1.523 . S
H2827 C2802 0.950 . S
H2828 C2804 0.950 . S
H2829 C2805 0.949 . S
H2830 C2807 0.950 . S
H2831 C2809 0.950 . S
C2832 C2833 1.349 . S
C2832 C2834 1.327 . S
C2832 H2857 0.950 . S
C2833 C2832 1.349 . S
C2833 C2849 1.349 . S
C2834 C2832 1.327 . S
C2834 C2853 1.429 . S
C2834 H2858 0.950 . S
C2835 C2852 1.574 . S
C2835 C2854 1.368 . S
C2835 H2859 0.949 . S
H2836 C2840 0.987 . S
C2837 C2838 1.349 . S
C2837 C2839 1.327 . S
C2837 H2860 0.950 . S
C2838 C2837 1.349 . S
C2838 C2850 1.349 . S
C2839 C2837 1.327 . S
C2839 C2855 1.429 . S
C2839 H2861 0.950 . S
C2840 H2836 0.987 . S
C2840 C2848 1.574 . S
C2840 C2856 1.368 . S
H2841 C2849 0.950 . S
H2842 C2847 0.950 . S
H2843 C2848 0.949 . S
H2844 C2850 0.950 . S
H2845 C2851 0.950 . S
H2846 C2852 0.949 . S
C2847 H2842 0.950 . S
C2847 C2849 1.327 . S
C2847 C2853 1.429 . S
C2848 C2840 1.574 . S
C2848 H2843 0.949 . S
C2848 C2854 1.368 . S
C2849 C2833 1.349 . S
C2849 H2841 0.950 . S
C2849 C2847 1.327 . S
C2850 C2838 1.349 . S
C2850 H2844 0.950 . S
C2850 C2851 1.327 . S
C2851 H2845 0.950 . S
C2851 C2850 1.327 . S
C2851 C2855 1.429 . S
C2852 C2835 1.574 . S
C2852 H2846 0.949 . S
C2852 C2856 1.368 . S
C2853 C2834 1.429 . S
C2853 C2847 1.429 . S
C2853 C2854 1.523 . S
C2854 C2835 1.368 . S
C2854 C2848 1.368 . S
C2854 C2853 1.523 . S
C2855 C2839 1.429 . S
C2855 C2851 1.429 . S
C2855 C2856 1.523 1_565 S
C2856 C2840 1.368 . S
C2856 C2852 1.368 . S
C2856 C2855 1.523 1_545 S
H2857 C2832 0.950 . S
H2858 C2834 0.950 . S
H2859 C2835 0.949 . S
H2860 C2837 0.950 . S
H2861 C2839 0.950 . S
C2862 C2863 1.349 . S
C2862 C2864 1.327 . S
C2862 H2887 0.950 . S
C2863 C2862 1.349 . S
C2863 C2879 1.349 . S
C2864 C2862 1.327 . S
C2864 C2883 1.429 . S
C2864 H2888 0.950 . S
C2865 C2882 1.574 . S
C2865 C2884 1.368 . S
C2865 H2889 0.949 . S
H2866 C2870 0.949 . S
C2867 C2868 1.349 . S
C2867 C2869 1.327 . S
C2867 H2890 0.950 . S
C2868 C2867 1.349 . S
C2868 C2880 1.349 . S
C2869 C2867 1.327 . S
C2869 C2885 1.429 . S
C2869 H2891 0.950 . S
C2870 H2866 0.949 . S
C2870 C2878 1.574 . S
C2870 C2886 1.368 . S
H2871 C2879 0.950 . S
H2872 C2877 0.950 . S
H2873 C2878 0.949 . S
H2874 C2880 0.950 . S
H2875 C2881 0.950 . S
H2876 C2882 0.949 . S
C2877 H2872 0.950 . S
C2877 C2879 1.327 . S
C2877 C2883 1.429 . S
C2878 C2870 1.574 . S
C2878 H2873 0.949 . S
C2878 C2884 1.368 . S
C2879 C2863 1.349 . S
C2879 H2871 0.950 . S
C2879 C2877 1.327 . S
C2880 C2868 1.349 . S
C2880 H2874 0.950 . S
C2880 C2881 1.327 . S
C2881 H2875 0.950 . S
C2881 C2880 1.327 . S
C2881 C2885 1.429 . S
C2882 C2865 1.574 . S
C2882 H2876 0.949 . S
C2882 C2886 1.368 . S
C2883 C2864 1.429 . S
C2883 C2877 1.429 . S
C2883 C2884 1.523 . S
C2884 C2865 1.368 . S
C2884 C2878 1.368 . S
C2884 C2883 1.523 . S
C2885 C2869 1.429 . S
C2885 C2881 1.429 . S
C2885 C2886 1.523 . S
C2886 C2870 1.368 . S
C2886 C2882 1.368 . S
C2886 C2885 1.523 . S
H2887 C2862 0.950 . S
H2888 C2864 0.950 . S
H2889 C2865 0.949 . S
H2890 C2867 0.950 . S
H2891 C2869 0.950 . S
C2892 C2893 1.349 . S
C2892 C2894 1.327 . S
C2892 H2917 0.950 . S
C2893 C2892 1.349 . S
C2893 C2909 1.349 . S
C2894 C2892 1.327 . S
C2894 C2913 1.429 . S
C2894 H2918 0.950 . S
C2895 C2912 1.574 . S
C2895 C2914 1.368 . S
C2895 H2919 0.949 . S
H2896 C2900 0.949 . S
C2897 C2898 1.349 . S
C2897 C2899 1.327 . S
C2897 H2920 0.950 . S
C2898 C2897 1.349 . S
C2898 C2910 1.349 . S
C2899 C2897 1.327 . S
C2899 C2915 1.429 . S
C2899 H2921 0.950 . S
C2900 H2896 0.949 . S
C2900 C2908 1.574 . S
C2900 C2916 1.368 . S
H2901 C2909 0.950 . S
H2902 C2907 0.950 . S
H2903 C2908 0.949 . S
H2904 C2910 0.950 . S
H2905 C2911 0.950 . S
H2906 C2912 0.949 . S
C2907 H2902 0.950 . S
C2907 C2909 1.327 . S
C2907 C2913 1.429 . S
C2908 C2900 1.574 . S
C2908 H2903 0.949 . S
C2908 C2914 1.368 . S
C2909 C2893 1.349 . S
C2909 H2901 0.950 . S
C2909 C2907 1.327 . S
C2910 C2898 1.349 . S
C2910 H2904 0.950 . S
C2910 C2911 1.327 . S
C2911 H2905 0.950 . S
C2911 C2910 1.327 . S
C2911 C2915 1.429 . S
C2912 C2895 1.574 . S
C2912 H2906 0.949 . S
C2912 C2916 1.368 . S
C2913 C2894 1.429 . S
C2913 C2907 1.429 . S
C2913 C2914 1.523 . S
C2914 C2895 1.368 . S
C2914 C2908 1.368 . S
C2914 C2913 1.523 . S
C2915 C2899 1.429 . S
C2915 C2911 1.429 . S
C2915 C2916 1.523 . S
C2916 C2900 1.368 . S
C2916 C2912 1.368 . S
C2916 C2915 1.523 . S
H2917 C2892 0.950 . S
H2918 C2894 0.950 . S
H2919 C2895 0.949 . S
H2920 C2897 0.950 . S
H2921 C2899 0.950 . S
C2922 C2923 1.349 . S
C2922 C2924 1.327 . S
C2922 H2947 0.950 . S
C2923 C2922 1.349 . S
C2923 C2939 1.349 . S
C2924 C2922 1.327 . S
C2924 C2943 1.429 . S
C2924 H2948 0.950 . S
C2925 C2942 1.574 . S
C2925 C2944 1.368 . S
C2925 H2949 0.949 . S
H2926 C2930 0.949 . S
C2927 C2928 1.349 . S
C2927 C2929 1.327 . S
C2927 H2950 0.950 . S
C2928 C2927 1.349 . S
C2928 C2940 1.349 . S
C2929 C2927 1.327 . S
C2929 C2945 1.429 . S
C2929 H2951 0.950 . S
C2930 H2926 0.949 . S
C2930 C2938 1.574 . S
C2930 C2946 1.368 . S
H2931 C2939 0.950 . S
H2932 C2937 0.950 . S
H2933 C2938 0.949 . S
H2934 C2940 0.950 . S
H2935 C2941 0.950 . S
H2936 C2942 0.949 . S
C2937 H2932 0.950 . S
C2937 C2939 1.327 . S
C2937 C2943 1.429 . S
C2938 C2930 1.574 . S
C2938 H2933 0.949 . S
C2938 C2944 1.368 . S
C2939 C2923 1.349 . S
C2939 H2931 0.950 . S
C2939 C2937 1.327 . S
C2940 C2928 1.349 . S
C2940 H2934 0.950 . S
C2940 C2941 1.327 . S
C2941 H2935 0.950 . S
C2941 C2940 1.327 . S
C2941 C2945 1.429 . S
C2942 C2925 1.574 . S
C2942 H2936 0.949 . S
C2942 C2946 1.368 . S
C2943 C2924 1.429 . S
C2943 C2937 1.429 . S
C2943 C2944 1.523 . S
C2944 C2925 1.368 . S
C2944 C2938 1.368 . S
C2944 C2943 1.523 . S
C2945 C2929 1.429 . S
C2945 C2941 1.429 . S
C2945 C2946 1.523 . S
C2946 C2930 1.368 . S
C2946 C2942 1.368 . S
C2946 C2945 1.523 . S
H2947 C2922 0.950 . S
H2948 C2924 0.950 . S
H2949 C2925 0.949 . S
H2950 C2927 0.950 . S
H2951 C2929 0.950 . S
C2952 C2953 1.349 . S
C2952 C2954 1.327 . S
C2952 H2977 0.950 . S
C2953 C2952 1.349 . S
C2953 C2969 1.349 . S
C2954 C2952 1.327 . S
C2954 C2973 1.429 . S
C2954 H2978 0.950 . S
C2955 C2972 1.574 . S
C2955 C2974 1.368 . S
C2955 H2979 0.949 . S
H2956 C2960 0.949 . S
C2957 C2958 1.349 . S
C2957 C2959 1.327 . S
C2957 H2980 0.950 . S
C2958 C2957 1.349 . S
C2958 C2970 1.349 . S
C2959 C2957 1.327 . S
C2959 C2975 1.429 . S
C2959 H2981 0.950 . S
C2960 H2956 0.949 . S
C2960 C2968 1.574 . S
C2960 C2976 1.368 . S
H2961 C2969 0.950 . S
H2962 C2967 0.950 . S
H2963 C2968 0.949 . S
H2964 C2970 0.950 . S
H2965 C2971 0.950 . S
H2966 C2972 0.949 . S
C2967 H2962 0.950 . S
C2967 C2969 1.327 . S
C2967 C2973 1.429 . S
C2968 C2960 1.574 . S
C2968 H2963 0.949 . S
C2968 C2974 1.368 . S
C2969 C2953 1.349 . S
C2969 H2961 0.950 . S
C2969 C2967 1.327 . S
C2970 C2958 1.349 . S
C2970 H2964 0.950 . S
C2970 C2971 1.327 . S
C2971 H2965 0.950 . S
C2971 C2970 1.327 . S
C2971 C2975 1.429 . S
C2972 C2955 1.574 . S
C2972 H2966 0.949 . S
C2972 C2976 1.368 . S
C2973 C2954 1.429 . S
C2973 C2967 1.429 . S
C2973 C2974 1.523 . S
C2974 C2955 1.368 . S
C2974 C2968 1.368 . S
C2974 C2973 1.523 . S
C2975 C2959 1.429 . S
C2975 C2971 1.429 . S
C2975 C2976 1.523 . S
C2976 C2960 1.368 . S
C2976 C2972 1.368 . S
C2976 C2975 1.523 . S
H2977 C2952 0.950 . S
H2978 C2954 0.950 . S
H2979 C2955 0.949 . S
H2980 C2957 0.950 . S
H2981 C2959 0.950 . S
C2982 C2983 1.349 . S
C2982 C2984 1.327 . S
C2982 H3007 0.950 . S
C2983 C2982 1.349 . S
C2983 C2999 1.349 . S
C2984 C2982 1.327 . S
C2984 C3003 1.429 . S
C2984 H3008 0.950 . S
C2985 C3002 1.574 . S
C2985 C3004 1.368 . S
C2985 H3009 0.949 . S
H2986 C2990 0.949 . S
C2987 C2988 1.349 . S
C2987 C2989 1.327 . S
C2987 H3010 0.950 . S
C2988 C2987 1.349 . S
C2988 C3000 1.349 . S
C2989 C2987 1.327 . S
C2989 C3005 1.429 . S
C2989 H3011 0.950 . S
C2990 H2986 0.949 . S
C2990 C2998 1.574 . S
C2990 C3006 1.368 . S
H2991 C2999 0.950 . S
H2992 C2997 0.950 . S
H2993 C2998 0.949 . S
H2994 C3000 0.950 . S
H2995 C3001 0.950 . S
H2996 C3002 0.921 1_545 S
C2997 H2992 0.950 . S
C2997 C2999 1.327 . S
C2997 C3003 1.429 . S
C2998 C2990 1.574 . S
C2998 H2993 0.949 . S
C2998 C3004 1.368 . S
C2999 C2983 1.349 . S
C2999 H2991 0.950 . S
C2999 C2997 1.327 . S
C3000 C2988 1.349 . S
C3000 H2994 0.950 . S
C3000 C3001 1.327 . S
C3001 H2995 0.950 . S
C3001 C3000 1.327 . S
C3001 C3005 1.429 . S
C3002 C2985 1.574 . S
C3002 H2996 0.921 1_565 S
C3002 C3006 1.368 . S
C3003 C2984 1.429 . S
C3003 C2997 1.429 . S
C3003 C3004 1.523 . S
C3004 C2985 1.368 . S
C3004 C2998 1.368 . S
C3004 C3003 1.523 . S
C3005 C2989 1.429 . S
C3005 C3001 1.429 . S
C3005 C3006 1.523 1_545 S
C3006 C2990 1.368 . S
C3006 C3002 1.368 . S
C3006 C3005 1.523 1_565 S
H3007 C2982 0.950 . S
H3008 C2984 0.950 . S
H3009 C2985 0.949 . S
H3010 C2987 0.950 . S
H3011 C2989 0.950 . S
C3012 C3013 1.349 . S
C3012 C3014 1.327 . S
C3012 H3037 0.950 . S
C3013 C3012 1.349 . S
C3013 C3029 1.349 . S
C3014 C3012 1.327 . S
C3014 C3033 1.429 . S
C3014 H3038 0.950 . S
C3015 C3032 1.574 . S
C3015 C3034 1.368 . S
C3015 H3039 0.949 . S
H3016 C3020 0.949 . S
C3017 C3018 1.349 . S
C3017 C3019 1.327 . S
C3017 H3040 0.950 . S
C3018 C3017 1.349 . S
C3018 C3030 1.349 . S
C3019 C3017 1.327 . S
C3019 C3035 1.429 . S
C3019 H3041 0.950 . S
C3020 H3016 0.949 . S
C3020 C3028 1.574 . S
C3020 C3036 1.368 . S
H3021 C3029 0.950 . S
H3022 C3027 0.950 . S
H3023 C3028 0.949 . S
H3024 C3030 0.950 . S
H3025 C3031 0.950 . S
H3026 C3032 0.949 . S
C3027 H3022 0.950 . S
C3027 C3029 1.327 . S
C3027 C3033 1.429 . S
C3028 C3020 1.574 . S
C3028 H3023 0.949 . S
C3028 C3034 1.368 . S
C3029 C3013 1.349 . S
C3029 H3021 0.950 . S
C3029 C3027 1.327 . S
C3030 C3018 1.349 . S
C3030 H3024 0.950 . S
C3030 C3031 1.327 . S
C3031 H3025 0.950 . S
C3031 C3030 1.327 . S
C3031 C3035 1.429 . S
C3032 C3015 1.574 . S
C3032 H3026 0.949 . S
C3032 C3036 1.368 . S
C3033 C3014 1.429 . S
C3033 C3027 1.429 . S
C3033 C3034 1.523 . S
C3034 C3015 1.368 . S
C3034 C3028 1.368 . S
C3034 C3033 1.523 . S
C3035 C3019 1.429 . S
C3035 C3031 1.429 . S
C3035 C3036 1.523 . S
C3036 C3020 1.368 . S
C3036 C3032 1.368 . S
C3036 C3035 1.523 . S
H3037 C3012 0.950 . S
H3038 C3014 0.950 . S
H3039 C3015 0.949 . S
H3040 C3017 0.950 . S
H3041 C3019 0.950 . S
C3042 C3043 1.349 . S
C3042 C3044 1.327 . S
C3042 H3067 0.950 . S
C3043 C3042 1.349 . S
C3043 C3059 1.349 . S
C3044 C3042 1.327 . S
C3044 C3063 1.429 . S
C3044 H3068 0.950 . S
C3045 C3062 1.574 . S
C3045 C3064 1.368 . S
C3045 H3069 0.949 . S
H3046 C3050 0.949 . S
C3047 C3048 1.349 . S
C3047 C3049 1.327 . S
C3047 H3070 0.950 . S
C3048 C3047 1.349 . S
C3048 C3060 1.349 . S
C3049 C3047 1.327 . S
C3049 C3065 1.429 . S
C3049 H3071 0.950 . S
C3050 H3046 0.949 . S
C3050 C3058 1.574 . S
C3050 C3066 1.368 . S
H3051 C3059 0.950 . S
H3052 C3057 0.950 . S
H3053 C3058 0.949 . S
H3054 C3060 0.950 . S
H3055 C3061 0.950 . S
H3056 C3062 0.949 . S
C3057 H3052 0.950 . S
C3057 C3059 1.327 . S
C3057 C3063 1.429 . S
C3058 C3050 1.574 . S
C3058 H3053 0.949 . S
C3058 C3064 1.368 . S
C3059 C3043 1.349 . S
C3059 H3051 0.950 . S
C3059 C3057 1.327 . S
C3060 C3048 1.349 . S
C3060 H3054 0.950 . S
C3060 C3061 1.327 . S
C3061 H3055 0.950 . S
C3061 C3060 1.327 . S
C3061 C3065 1.429 . S
C3062 C3045 1.574 . S
C3062 H3056 0.949 . S
C3062 C3066 1.368 . S
C3063 C3044 1.429 . S
C3063 C3057 1.429 . S
C3063 C3064 1.523 . S
C3064 C3045 1.368 . S
C3064 C3058 1.368 . S
C3064 C3063 1.523 . S
C3065 C3049 1.429 . S
C3065 C3061 1.429 . S
C3065 C3066 1.523 . S
C3066 C3050 1.368 . S
C3066 C3062 1.368 . S
C3066 C3065 1.523 . S
H3067 C3042 0.950 . S
H3068 C3044 0.950 . S
H3069 C3045 0.949 . S
H3070 C3047 0.950 . S
H3071 C3049 0.950 . S
C3072 C3073 1.349 . S
C3072 C3074 1.327 . S
C3072 H3097 0.950 . S
C3073 C3072 1.349 . S
C3073 C3089 1.349 . S
C3074 C3072 1.327 . S
C3074 C3093 1.429 . S
C3074 H3098 0.950 . S
C3075 C3092 1.574 . S
C3075 C3094 1.368 . S
C3075 H3099 0.949 . S
H3076 C3080 0.949 . S
C3077 C3078 1.349 . S
C3077 C3079 1.327 . S
C3077 H3100 0.950 . S
C3078 C3077 1.349 . S
C3078 C3090 1.349 . S
C3079 C3077 1.327 . S
C3079 C3095 1.429 . S
C3079 H3101 0.950 . S
C3080 H3076 0.949 . S
C3080 C3088 1.574 . S
C3080 C3096 1.368 . S
H3081 C3089 0.950 . S
H3082 C3087 0.950 . S
H3083 C3088 0.949 . S
H3084 C3090 0.950 . S
H3085 C3091 0.950 . S
H3086 C3092 0.949 . S
C3087 H3082 0.950 . S
C3087 C3089 1.327 . S
C3087 C3093 1.429 . S
C3088 C3080 1.574 . S
C3088 H3083 0.949 . S
C3088 C3094 1.368 . S
C3089 C3073 1.349 . S
C3089 H3081 0.950 . S
C3089 C3087 1.327 . S
C3090 C3078 1.349 . S
C3090 H3084 0.950 . S
C3090 C3091 1.327 . S
C3091 H3085 0.950 . S
C3091 C3090 1.327 . S
C3091 C3095 1.429 . S
C3092 C3075 1.574 . S
C3092 H3086 0.949 . S
C3092 C3096 1.368 . S
C3093 C3074 1.429 . S
C3093 C3087 1.429 . S
C3093 C3094 1.523 . S
C3094 C3075 1.368 . S
C3094 C3088 1.368 . S
C3094 C3093 1.523 . S
C3095 C3079 1.429 . S
C3095 C3091 1.429 . S
C3095 C3096 1.523 . S
C3096 C3080 1.368 . S
C3096 C3092 1.368 . S
C3096 C3095 1.523 . S
H3097 C3072 0.950 . S
H3098 C3074 0.950 . S
H3099 C3075 0.949 . S
H3100 C3077 0.950 . S
H3101 C3079 0.950 . S
C3102 C3103 1.349 . S
C3102 C3104 1.327 . S
C3102 H3127 0.950 . S
C3103 C3102 1.349 . S
C3103 C3119 1.349 . S
C3104 C3102 1.327 . S
C3104 C3123 1.429 . S
C3104 H3128 0.950 . S
C3105 C3122 1.574 . S
C3105 C3124 1.368 . S
C3105 H3129 0.949 . S
H3106 C3110 0.949 . S
C3107 C3108 1.349 . S
C3107 C3109 1.327 . S
C3107 H3130 0.950 . S
C3108 C3107 1.349 . S
C3108 C3120 1.349 . S
C3109 C3107 1.327 . S
C3109 C3125 1.429 . S
C3109 H3131 0.950 . S
C3110 H3106 0.949 . S
C3110 C3118 1.574 . S
C3110 C3126 1.368 . S
H3111 C3119 0.950 . S
H3112 C3117 0.950 . S
H3113 C3118 0.949 . S
H3114 C3120 0.950 . S
H3115 C3121 0.950 . S
H3116 C3122 0.949 . S
C3117 H3112 0.950 . S
C3117 C3119 1.327 . S
C3117 C3123 1.429 . S
C3118 C3110 1.574 . S
C3118 H3113 0.949 . S
C3118 C3124 1.368 . S
C3119 C3103 1.349 . S
C3119 H3111 0.950 . S
C3119 C3117 1.327 . S
C3120 C3108 1.349 . S
C3120 H3114 0.950 . S
C3120 C3121 1.327 . S
C3121 H3115 0.950 . S
C3121 C3120 1.327 . S
C3121 C3125 1.429 . S
C3122 C3105 1.574 . S
C3122 H3116 0.949 . S
C3122 C3126 1.368 . S
C3123 C3104 1.429 . S
C3123 C3117 1.429 . S
C3123 C3124 1.523 . S
C3124 C3105 1.368 . S
C3124 C3118 1.368 . S
C3124 C3123 1.523 . S
C3125 C3109 1.429 . S
C3125 C3121 1.429 . S
C3125 C3126 1.523 . S
C3126 C3110 1.368 . S
C3126 C3122 1.368 . S
C3126 C3125 1.523 . S
H3127 C3102 0.950 . S
H3128 C3104 0.950 . S
H3129 C3105 0.949 . S
H3130 C3107 0.950 . S
H3131 C3109 0.950 . S
C3132 C3133 1.349 . S
C3132 C3134 1.327 . S
C3132 H3157 0.950 . S
C3133 C3132 1.349 . S
C3133 C3149 1.349 . S
C3134 C3132 1.327 . S
C3134 C3153 1.429 . S
C3134 H3158 0.950 . S
C3135 C3152 1.574 . S
C3135 C3154 1.368 . S
C3135 H3159 0.949 . S
H3136 C3140 0.949 . S
C3137 C3138 1.349 . S
C3137 C3139 1.327 . S
C3137 H3160 0.950 . S
C3138 C3137 1.349 . S
C3138 C3150 1.349 . S
C3139 C3137 1.327 . S
C3139 C3155 1.429 . S
C3139 H3161 0.950 . S
C3140 H3136 0.949 . S
C3140 C3148 1.574 . S
C3140 C3156 1.368 . S
H3141 C3149 0.950 . S
H3142 C3147 0.950 . S
H3143 C3148 0.949 . S
H3144 C3150 0.950 . S
H3145 C3151 0.950 . S
H3146 C3152 0.949 . S
C3147 H3142 0.950 . S
C3147 C3149 1.327 . S
C3147 C3153 1.429 . S
C3148 C3140 1.574 . S
C3148 H3143 0.949 . S
C3148 C3154 1.368 . S
C3149 C3133 1.349 . S
C3149 H3141 0.950 . S
C3149 C3147 1.327 . S
C3150 C3138 1.349 . S
C3150 H3144 0.950 . S
C3150 C3151 1.327 . S
C3151 H3145 0.950 . S
C3151 C3150 1.327 . S
C3151 C3155 1.429 . S
C3152 C3135 1.574 . S
C3152 H3146 0.949 . S
C3152 C3156 1.368 . S
C3153 C3134 1.429 . S
C3153 C3147 1.429 . S
C3153 C3154 1.523 1_554 S
C3154 C3135 1.368 . S
C3154 C3148 1.368 . S
C3154 C3153 1.523 1_556 S
C3155 C3139 1.429 . S
C3155 C3151 1.429 . S
C3155 C3156 1.523 . S
C3156 C3140 1.368 . S
C3156 C3152 1.368 . S
C3156 C3155 1.523 . S
H3157 C3132 0.950 . S
H3158 C3134 0.950 . S
H3159 C3135 0.949 . S
H3160 C3137 0.950 . S
H3161 C3139 0.950 . S
C3162 C3163 1.349 . S
C3162 C3164 1.327 . S
C3162 H3187 0.950 . S
C3163 C3162 1.349 . S
C3163 C3179 1.349 . S
C3164 C3162 1.327 . S
C3164 C3183 1.429 . S
C3164 H3188 0.950 . S
C3165 C3182 1.574 . S
C3165 C3184 1.368 . S
C3165 H3189 0.949 . S
H3166 C3170 0.949 . S
C3167 C3168 1.349 . S
C3167 C3169 1.327 . S
C3167 H3190 0.950 . S
C3168 C3167 1.349 . S
C3168 C3180 1.349 . S
C3169 C3167 1.327 . S
C3169 C3185 1.429 . S
C3169 H3191 0.950 . S
C3170 H3166 0.949 . S
C3170 C3178 1.574 . S
C3170 C3186 1.368 . S
H3171 C3179 0.950 . S
H3172 C3177 0.950 . S
H3173 C3178 0.949 . S
H3174 C3180 0.950 . S
H3175 C3181 0.950 . S
H3176 C3182 0.949 . S
C3177 H3172 0.950 . S
C3177 C3179 1.327 . S
C3177 C3183 1.429 . S
C3178 C3170 1.574 . S
C3178 H3173 0.949 . S
C3178 C3184 1.368 . S
C3179 C3163 1.349 . S
C3179 H3171 0.950 . S
C3179 C3177 1.327 . S
C3180 C3168 1.349 . S
C3180 H3174 0.950 . S
C3180 C3181 1.327 . S
C3181 H3175 0.950 . S
C3181 C3180 1.327 . S
C3181 C3185 1.429 . S
C3182 C3165 1.574 . S
C3182 H3176 0.949 . S
C3182 C3186 1.368 . S
C3183 C3164 1.429 . S
C3183 C3177 1.429 . S
C3183 C3184 1.523 . S
C3184 C3165 1.368 . S
C3184 C3178 1.368 . S
C3184 C3183 1.523 . S
C3185 C3169 1.429 . S
C3185 C3181 1.429 . S
C3185 C3186 1.523 . S
C3186 C3170 1.368 . S
C3186 C3182 1.368 . S
C3186 C3185 1.523 . S
H3187 C3162 0.950 . S
H3188 C3164 0.950 . S
H3189 C3165 0.949 . S
H3190 C3167 0.950 . S
H3191 C3169 0.950 . S
C3192 C3193 1.349 . S
C3192 C3194 1.327 . S
C3192 H3217 0.950 . S
C3193 C3192 1.349 . S
C3193 C3209 1.349 . S
C3194 C3192 1.327 . S
C3194 C3213 1.429 . S
C3194 H3218 0.950 . S
C3195 C3212 1.574 . S
C3195 C3214 1.399 . S
C3195 H3219 0.949 . S
H3196 C3200 0.949 . S
C3197 C3198 1.349 . S
C3197 C3199 1.327 . S
C3197 H3220 0.950 . S
C3198 C3197 1.349 . S
C3198 C3210 1.349 . S
C3199 C3197 1.327 . S
C3199 C3215 1.429 . S
C3199 H3221 0.950 . S
C3200 H3196 0.949 . S
C3200 C3208 1.574 . S
C3200 C3216 1.368 . S
H3201 C3209 0.950 . S
H3202 C3207 0.950 . S
H3203 C3208 0.949 1_556 S
H3204 C3210 0.950 . S
H3205 C3211 0.950 . S
H3206 C3212 0.949 . S
C3207 H3202 0.950 . S
C3207 C3209 1.327 . S
C3207 C3213 1.429 . S
C3208 C3200 1.574 . S
C3208 H3203 0.949 1_554 S
C3208 C3214 1.376 . S
C3209 C3193 1.349 . S
C3209 H3201 0.950 . S
C3209 C3207 1.327 . S
C3210 C3198 1.349 . S
C3210 H3204 0.950 . S
C3210 C3211 1.327 . S
C3211 H3205 0.950 . S
C3211 C3210 1.327 . S
C3211 C3215 1.429 . S
C3212 C3195 1.574 . S
C3212 H3206 0.949 . S
C3212 C3216 1.368 . S
C3213 C3194 1.429 . S
C3213 C3207 1.429 . S
C3213 C3214 1.476 1_556 S
C3214 C3195 1.399 . S
C3214 C3208 1.376 . S
C3214 C3213 1.476 1_554 S
C3215 C3199 1.429 . S
C3215 C3211 1.429 . S
C3215 C3216 1.523 . S
C3216 C3200 1.368 . S
C3216 C3212 1.368 . S
C3216 C3215 1.523 . S
H3217 C3192 0.950 . S
H3218 C3194 0.950 . S
H3219 C3195 0.949 . S
H3220 C3197 0.950 . S
H3221 C3199 0.950 . S
C3222 C3223 1.349 . S
C3222 C3224 1.327 . S
C3222 H3247 0.950 . S
C3223 C3222 1.349 . S
C3223 C3239 1.349 . S
C3224 C3222 1.327 . S
C3224 C3243 1.429 . S
C3224 H3248 0.950 . S
C3225 C3242 1.574 . S
C3225 C3244 1.368 . S
C3225 H3249 0.949 . S
H3226 C3230 0.949 . S
C3227 C3228 1.349 . S
C3227 C3229 1.327 . S
C3227 H3250 0.950 . S
C3228 C3227 1.349 . S
C3228 C3240 1.349 . S
C3229 C3227 1.327 . S
C3229 C3245 1.429 . S
C3229 H3251 0.950 . S
C3230 H3226 0.949 . S
C3230 C3238 1.574 . S
C3230 C3246 1.368 . S
H3231 C3239 0.950 . S
H3232 C3237 0.950 . S
H3233 C3238 0.949 . S
H3234 C3240 0.950 . S
H3235 C3241 0.950 . S
H3236 C3242 0.949 . S
C3237 H3232 0.950 . S
C3237 C3239 1.327 . S
C3237 C3243 1.429 . S
C3238 C3230 1.574 . S
C3238 H3233 0.949 . S
C3238 C3244 1.368 . S
C3239 C3223 1.349 . S
C3239 H3231 0.950 . S
C3239 C3237 1.327 . S
C3240 C3228 1.349 . S
C3240 H3234 0.950 . S
C3240 C3241 1.327 . S
C3241 H3235 0.950 . S
C3241 C3240 1.327 . S
C3241 C3245 1.429 . S
C3242 C3225 1.574 . S
C3242 H3236 0.949 . S
C3242 C3246 1.368 . S
C3243 C3224 1.429 . S
C3243 C3237 1.429 . S
C3243 C3244 1.523 . S
C3244 C3225 1.368 . S
C3244 C3238 1.368 . S
C3244 C3243 1.523 . S
C3245 C3229 1.429 . S
C3245 C3241 1.429 . S
C3245 C3246 1.523 . S
C3246 C3230 1.368 . S
C3246 C3242 1.368 . S
C3246 C3245 1.523 . S
H3247 C3222 0.950 . S
H3248 C3224 0.950 . S
H3249 C3225 0.949 . S
H3250 C3227 0.950 . S
H3251 C3229 0.950 . S
C3252 C3253 1.349 . S
C3252 C3254 1.327 . S
C3252 H3277 0.950 . S
C3253 C3252 1.349 . S
C3253 C3269 1.349 . S
C3254 C3252 1.327 . S
C3254 C3273 1.429 . S
C3254 H3278 0.950 . S
C3255 C3272 1.574 . S
C3255 C3274 1.368 . S
C3255 H3279 0.949 . S
H3256 C3260 0.949 . S
C3257 C3258 1.349 . S
C3257 C3259 1.327 . S
C3257 H3280 0.950 . S
C3258 C3257 1.349 . S
C3258 C3270 1.349 . S
C3259 C3257 1.327 . S
C3259 C3275 1.429 . S
C3259 H3281 0.950 . S
C3260 H3256 0.949 . S
C3260 C3268 1.574 . S
C3260 C3276 1.368 . S
H3261 C3269 0.950 . S
H3262 C3267 0.950 . S
H3263 C3268 0.949 . S
H3264 C3270 0.950 . S
H3265 C3271 0.950 . S
H3266 C3272 0.949 . S
C3267 H3262 0.950 . S
C3267 C3269 1.327 . S
C3267 C3273 1.429 . S
C3268 C3260 1.574 . S
C3268 H3263 0.949 . S
C3268 C3274 1.368 . S
C3269 C3253 1.349 . S
C3269 H3261 0.950 . S
C3269 C3267 1.327 . S
C3270 C3258 1.349 . S
C3270 H3264 0.950 . S
C3270 C3271 1.327 . S
C3271 H3265 0.950 . S
C3271 C3270 1.327 . S
C3271 C3275 1.429 . S
C3272 C3255 1.574 . S
C3272 H3266 0.949 . S
C3272 C3276 1.368 . S
C3273 C3254 1.429 . S
C3273 C3267 1.429 . S
C3273 C3274 1.523 . S
C3274 C3255 1.368 . S
C3274 C3268 1.368 . S
C3274 C3273 1.523 . S
C3275 C3259 1.429 . S
C3275 C3271 1.429 . S
C3275 C3276 1.523 . S
C3276 C3260 1.368 . S
C3276 C3272 1.368 . S
C3276 C3275 1.523 . S
H3277 C3252 0.950 . S
H3278 C3254 0.950 . S
H3279 C3255 0.949 . S
H3280 C3257 0.950 . S
H3281 C3259 0.950 . S
C3282 C3283 1.349 . S
C3282 C3284 1.327 . S
C3282 H3307 0.950 . S
C3283 C3282 1.349 . S
C3283 C3299 1.349 . S
C3284 C3282 1.327 . S
C3284 C3303 1.429 . S
C3284 H3308 0.950 . S
C3285 C3302 1.574 . S
C3285 C3304 1.368 . S
C3285 H3309 0.949 . S
H3286 C3290 0.949 . S
C3287 C3288 1.349 . S
C3287 C3289 1.327 . S
C3287 H3310 0.950 . S
C3288 C3287 1.349 . S
C3288 C3300 1.349 . S
C3289 C3287 1.327 . S
C3289 C3305 1.429 . S
C3289 H3311 0.950 . S
C3290 H3286 0.949 . S
C3290 C3298 1.574 . S
C3290 C3306 1.368 . S
H3291 C3299 0.950 . S
H3292 C3297 0.950 . S
H3293 C3298 0.949 . S
H3294 C3300 0.950 . S
H3295 C3301 0.950 . S
H3296 C3302 0.949 . S
C3297 H3292 0.950 . S
C3297 C3299 1.327 . S
C3297 C3303 1.429 . S
C3298 C3290 1.574 . S
C3298 H3293 0.949 . S
C3298 C3304 1.368 . S
C3299 C3283 1.349 . S
C3299 H3291 0.950 . S
C3299 C3297 1.327 . S
C3300 C3288 1.349 . S
C3300 H3294 0.950 . S
C3300 C3301 1.327 . S
C3301 H3295 0.950 . S
C3301 C3300 1.327 . S
C3301 C3305 1.429 . S
C3302 C3285 1.574 . S
C3302 H3296 0.949 . S
C3302 C3306 1.368 . S
C3303 C3284 1.429 . S
C3303 C3297 1.429 . S
C3303 C3304 1.523 . S
C3304 C3285 1.368 . S
C3304 C3298 1.368 . S
C3304 C3303 1.523 . S
C3305 C3289 1.429 . S
C3305 C3301 1.429 . S
C3305 C3306 1.523 . S
C3306 C3290 1.368 . S
C3306 C3302 1.368 . S
C3306 C3305 1.523 . S
H3307 C3282 0.950 . S
H3308 C3284 0.950 . S
H3309 C3285 0.949 . S
H3310 C3287 0.950 . S
H3311 C3289 0.950 . S
C3312 C3313 1.349 . S
C3312 C3314 1.327 . S
C3312 H3337 0.950 . S
C3313 C3312 1.349 . S
C3313 C3329 1.349 . S
C3314 C3312 1.327 . S
C3314 C3333 1.429 . S
C3314 H3338 0.950 . S
C3315 C3332 1.574 . S
C3315 C3334 1.368 . S
C3315 H3339 0.949 . S
H3316 C3320 0.949 . S
C3317 C3318 1.349 . S
C3317 C3319 1.327 . S
C3317 H3340 0.950 . S
C3318 C3317 1.349 . S
C3318 C3330 1.349 . S
C3319 C3317 1.327 . S
C3319 C3335 1.429 . S
C3319 H3341 0.950 . S
C3320 H3316 0.949 . S
C3320 C3328 1.574 . S
C3320 C3336 1.368 . S
H3321 C3329 0.950 . S
H3322 C3327 0.950 . S
H3323 C3328 0.949 . S
H3324 C3330 0.950 . S
H3325 C3331 0.950 . S
H3326 C3332 0.949 . S
C3327 H3322 0.950 . S
C3327 C3329 1.327 . S
C3327 C3333 1.429 . S
C3328 C3320 1.574 . S
C3328 H3323 0.949 . S
C3328 C3334 1.368 . S
C3329 C3313 1.349 . S
C3329 H3321 0.950 . S
C3329 C3327 1.327 . S
C3330 C3318 1.349 . S
C3330 H3324 0.950 . S
C3330 C3331 1.327 . S
C3331 H3325 0.950 . S
C3331 C3330 1.327 . S
C3331 C3335 1.429 . S
C3332 C3315 1.574 . S
C3332 H3326 0.949 . S
C3332 C3336 1.368 . S
C3333 C3314 1.429 . S
C3333 C3327 1.429 . S
C3333 C3334 1.523 . S
C3334 C3315 1.368 . S
C3334 C3328 1.368 . S
C3334 C3333 1.523 . S
C3335 C3319 1.429 . S
C3335 C3331 1.429 . S
C3335 C3336 1.523 . S
C3336 C3320 1.368 . S
C3336 C3332 1.368 . S
C3336 C3335 1.523 . S
H3337 C3312 0.950 . S
H3338 C3314 0.950 . S
H3339 C3315 0.949 . S
H3340 C3317 0.950 . S
H3341 C3319 0.950 . S
C3342 C3343 1.349 . S
C3342 C3344 1.327 . S
C3342 H3367 0.950 . S
C3343 C3342 1.349 . S
C3343 C3359 1.349 . S
C3344 C3342 1.327 . S
C3344 C3363 1.429 . S
C3344 H3368 0.950 . S
C3345 C3362 1.574 . S
C3345 C3364 1.368 . S
C3345 H3369 0.949 . S
H3346 C3350 0.949 . S
C3347 C3348 1.349 . S
C3347 C3349 1.327 . S
C3347 H3370 0.950 . S
C3348 C3347 1.349 . S
C3348 C3360 1.349 . S
C3349 C3347 1.327 . S
C3349 C3365 1.429 . S
C3349 H3371 0.950 . S
C3350 H3346 0.949 . S
C3350 C3358 1.574 . S
C3350 C3366 1.368 . S
H3351 C3359 0.950 . S
H3352 C3357 0.950 . S
H3353 C3358 0.949 . S
H3354 C3360 0.950 . S
H3355 C3361 0.950 . S
H3356 C3362 0.949 . S
C3357 H3352 0.950 . S
C3357 C3359 1.327 . S
C3357 C3363 1.429 . S
C3358 C3350 1.574 . S
C3358 H3353 0.949 . S
C3358 C3364 1.368 . S
C3359 C3343 1.349 . S
C3359 H3351 0.950 . S
C3359 C3357 1.327 . S
C3360 C3348 1.349 . S
C3360 H3354 0.950 . S
C3360 C3361 1.327 . S
C3361 H3355 0.950 . S
C3361 C3360 1.327 . S
C3361 C3365 1.429 . S
C3362 C3345 1.574 . S
C3362 H3356 0.949 . S
C3362 C3366 1.368 . S
C3363 C3344 1.429 . S
C3363 C3357 1.429 . S
C3363 C3364 1.523 . S
C3364 C3345 1.368 . S
C3364 C3358 1.368 . S
C3364 C3363 1.523 . S
C3365 C3349 1.429 . S
C3365 C3361 1.429 . S
C3365 C3366 1.523 . S
C3366 C3350 1.368 . S
C3366 C3362 1.368 . S
C3366 C3365 1.523 . S
H3367 C3342 0.950 . S
H3368 C3344 0.950 . S
H3369 C3345 0.949 . S
H3370 C3347 0.950 . S
H3371 C3349 0.950 . S
C3372 C3373 1.349 . S
C3372 C3374 1.327 . S
C3372 H3397 0.950 . S
C3373 C3372 1.349 . S
C3373 C3389 1.349 . S
C3374 C3372 1.327 . S
C3374 C3393 1.429 . S
C3374 H3398 0.950 . S
C3375 C3392 1.574 1_655 S
C3375 C3394 1.368 . S
C3375 H3399 0.949 . S
H3376 C3380 0.949 . S
C3377 C3378 1.349 . S
C3377 C3379 1.327 . S
C3377 H3400 0.950 . S
C3378 C3377 1.349 . S
C3378 C3390 1.349 . S
C3379 C3377 1.327 . S
C3379 C3395 1.429 . S
C3379 H3401 0.950 . S
C3380 H3376 0.949 . S
C3380 C3388 1.574 . S
C3380 C3396 1.368 . S
H3381 C3389 0.950 . S
H3382 C3387 0.950 . S
H3383 C3388 0.949 1_655 S
H3384 C3390 0.950 . S
H3385 C3391 0.950 . S
H3386 C3392 0.949 . S
C3387 H3382 0.950 . S
C3387 C3389 1.327 . S
C3387 C3393 1.429 . S
C3388 C3380 1.574 . S
C3388 H3383 0.949 1_455 S
C3388 C3394 1.368 1_455 S
C3389 C3373 1.349 . S
C3389 H3381 0.950 . S
C3389 C3387 1.327 . S
C3390 C3378 1.349 . S
C3390 H3384 0.950 . S
C3390 C3391 1.327 . S
C3391 H3385 0.950 . S
C3391 C3390 1.327 . S
C3391 C3395 1.429 . S
C3392 C3375 1.574 1_455 S
C3392 H3386 0.949 . S
C3392 C3396 1.368 . S
C3393 C3374 1.429 . S
C3393 C3387 1.429 . S
C3393 C3394 1.523 . S
C3394 C3375 1.368 . S
C3394 C3388 1.368 1_655 S
C3394 C3393 1.523 . S
C3395 C3379 1.429 . S
C3395 C3391 1.429 . S
C3395 C3396 1.523 . S
C3396 C3380 1.368 . S
C3396 C3392 1.368 . S
C3396 C3395 1.523 . S
H3397 C3372 0.950 . S
H3398 C3374 0.950 . S
H3399 C3375 0.949 . S
H3400 C3377 0.950 . S
H3401 C3379 0.950 . S
C3402 C3403 1.349 . S
C3402 C3404 1.327 . S
C3402 H3427 0.950 . S
C3403 C3402 1.349 . S
C3403 C3419 1.349 . S
C3404 C3402 1.327 . S
C3404 C3423 1.429 . S
C3404 H3428 0.950 . S
C3405 C3422 1.574 . S
C3405 C3424 1.368 . S
C3405 H3429 0.949 . S
H3406 C3410 0.949 . S
C3407 C3408 1.349 . S
C3407 C3409 1.327 . S
C3407 H3430 0.950 . S
C3408 C3407 1.349 . S
C3408 C3420 1.349 . S
C3409 C3407 1.327 . S
C3409 C3425 1.429 . S
C3409 H3431 0.950 . S
C3410 H3406 0.949 . S
C3410 C3418 1.574 . S
C3410 C3426 1.368 . S
H3411 C3419 0.950 . S
H3412 C3417 0.950 . S
H3413 C3418 0.949 . S
H3414 C3420 0.950 . S
H3415 C3421 0.950 . S
H3416 C3422 0.949 . S
C3417 H3412 0.950 . S
C3417 C3419 1.327 . S
C3417 C3423 1.429 . S
C3418 C3410 1.574 . S
C3418 H3413 0.949 . S
C3418 C3424 1.368 . S
C3419 C3403 1.349 . S
C3419 H3411 0.950 . S
C3419 C3417 1.327 . S
C3420 C3408 1.349 . S
C3420 H3414 0.950 . S
C3420 C3421 1.327 . S
C3421 H3415 0.950 . S
C3421 C3420 1.327 . S
C3421 C3425 1.429 . S
C3422 C3405 1.574 . S
C3422 H3416 0.949 . S
C3422 C3426 1.368 . S
C3423 C3404 1.429 . S
C3423 C3417 1.429 . S
C3423 C3424 1.523 . S
C3424 C3405 1.368 . S
C3424 C3418 1.368 . S
C3424 C3423 1.523 . S
C3425 C3409 1.429 . S
C3425 C3421 1.429 . S
C3425 C3426 1.523 . S
C3426 C3410 1.368 . S
C3426 C3422 1.368 . S
C3426 C3425 1.523 . S
H3427 C3402 0.950 . S
H3428 C3404 0.950 . S
H3429 C3405 0.949 . S
H3430 C3407 0.950 . S
H3431 C3409 0.950 . S
C3432 C3433 1.349 . S
C3432 C3434 1.327 . S
C3432 H3457 0.950 . S
C3433 C3432 1.349 . S
C3433 C3449 1.349 . S
C3434 C3432 1.327 . S
C3434 C3453 1.429 . S
C3434 H3458 0.950 . S
C3435 C3452 1.574 . S
C3435 C3454 1.368 . S
C3435 H3459 0.949 . S
H3436 C3440 0.949 . S
C3437 C3438 1.349 . S
C3437 C3439 1.327 . S
C3437 H3460 0.950 . S
C3438 C3437 1.349 . S
C3438 C3450 1.349 . S
C3439 C3437 1.327 . S
C3439 C3455 1.429 . S
C3439 H3461 0.950 . S
C3440 H3436 0.949 . S
C3440 C3448 1.574 . S
C3440 C3456 1.368 . S
H3441 C3449 0.950 . S
H3442 C3447 0.950 . S
H3443 C3448 0.949 . S
H3444 C3450 0.950 . S
H3445 C3451 0.950 . S
H3446 C3452 0.949 . S
C3447 H3442 0.950 . S
C3447 C3449 1.327 . S
C3447 C3453 1.429 . S
C3448 C3440 1.574 . S
C3448 H3443 0.949 . S
C3448 C3454 1.368 . S
C3449 C3433 1.349 . S
C3449 H3441 0.950 . S
C3449 C3447 1.327 . S
C3450 C3438 1.349 . S
C3450 H3444 0.950 . S
C3450 C3451 1.327 . S
C3451 H3445 0.950 . S
C3451 C3450 1.327 . S
C3451 C3455 1.429 . S
C3452 C3435 1.574 . S
C3452 H3446 0.949 . S
C3452 C3456 1.368 . S
C3453 C3434 1.429 . S
C3453 C3447 1.429 . S
C3453 C3454 1.523 . S
C3454 C3435 1.368 . S
C3454 C3448 1.368 . S
C3454 C3453 1.523 . S
C3455 C3439 1.429 . S
C3455 C3451 1.429 . S
C3455 C3456 1.523 . S
C3456 C3440 1.368 . S
C3456 C3452 1.368 . S
C3456 C3455 1.523 . S
H3457 C3432 0.950 . S
H3458 C3434 0.950 . S
H3459 C3435 0.949 . S
H3460 C3437 0.950 . S
H3461 C3439 0.950 . S
C3462 C3463 1.349 . S
C3462 C3464 1.327 . S
C3462 H3487 0.950 . S
C3463 C3462 1.349 . S
C3463 C3479 1.349 . S
C3464 C3462 1.327 . S
C3464 C3483 1.429 . S
C3464 H3488 0.950 . S
C3465 C3482 1.574 . S
C3465 C3484 1.368 . S
C3465 H3489 0.949 . S
H3466 C3470 0.949 . S
C3467 C3468 1.349 . S
C3467 C3469 1.327 . S
C3467 H3490 0.950 . S
C3468 C3467 1.349 . S
C3468 C3480 1.349 . S
C3469 C3467 1.327 . S
C3469 C3485 1.429 . S
C3469 H3491 0.950 . S
C3470 H3466 0.949 . S
C3470 C3478 1.574 . S
C3470 C3486 1.368 . S
H3471 C3479 0.950 . S
H3472 C3477 0.950 . S
H3473 C3478 0.949 . S
H3474 C3480 0.950 . S
H3475 C3481 0.950 . S
H3476 C3482 0.949 . S
C3477 H3472 0.950 . S
C3477 C3479 1.327 . S
C3477 C3483 1.429 . S
C3478 C3470 1.574 . S
C3478 H3473 0.949 . S
C3478 C3484 1.368 . S
C3479 C3463 1.349 . S
C3479 H3471 0.950 . S
C3479 C3477 1.327 . S
C3480 C3468 1.349 . S
C3480 H3474 0.950 . S
C3480 C3481 1.327 . S
C3481 H3475 0.950 . S
C3481 C3480 1.327 . S
C3481 C3485 1.429 . S
C3482 C3465 1.574 . S
C3482 H3476 0.949 . S
C3482 C3486 1.368 . S
C3483 C3464 1.429 . S
C3483 C3477 1.429 . S
C3483 C3484 1.523 . S
C3484 C3465 1.368 . S
C3484 C3478 1.368 . S
C3484 C3483 1.523 . S
C3485 C3469 1.429 . S
C3485 C3481 1.429 . S
C3485 C3486 1.523 . S
C3486 C3470 1.368 . S
C3486 C3482 1.368 . S
C3486 C3485 1.523 . S
H3487 C3462 0.950 . S
H3488 C3464 0.950 . S
H3489 C3465 0.949 . S
H3490 C3467 0.950 . S
H3491 C3469 0.950 . S
C3492 C3493 1.349 . S
C3492 C3494 1.327 . S
C3492 H3517 0.950 . S
C3493 C3492 1.349 . S
C3493 C3509 1.349 . S
C3494 C3492 1.327 . S
C3494 C3513 1.429 . S
C3494 H3518 0.950 . S
C3495 C3512 1.574 . S
C3495 C3514 1.368 . S
C3495 H3519 0.949 . S
H3496 C3500 0.928 1_655 S
C3497 C3498 1.349 . S
C3497 C3499 1.327 . S
C3497 H3520 0.950 . S
C3498 C3497 1.349 . S
C3498 C3510 1.349 . S
C3499 C3497 1.327 . S
C3499 C3515 1.429 . S
C3499 H3521 0.950 . S
C3500 H3496 0.928 1_455 S
C3500 C3508 1.605 . S
C3500 C3516 1.361 1_455 S
H3501 C3509 0.950 . S
H3502 C3507 0.950 . S
H3503 C3508 0.949 . S
H3504 C3510 0.950 . S
H3505 C3511 0.950 . S
H3506 C3512 0.939 1_655 S
C3507 H3502 0.950 . S
C3507 C3509 1.327 . S
C3507 C3513 1.429 . S
C3508 C3500 1.605 . S
C3508 H3503 0.949 . S
C3508 C3514 1.368 . S
C3509 C3493 1.349 . S
C3509 H3501 0.950 . S
C3509 C3507 1.327 . S
C3510 C3498 1.349 . S
C3510 H3504 0.950 . S
C3510 C3511 1.327 . S
C3511 H3505 0.950 . S
C3511 C3510 1.327 . S
C3511 C3515 1.429 . S
C3512 C3495 1.574 . S
C3512 H3506 0.939 1_455 S
C3512 C3516 1.368 1_455 S
C3513 C3494 1.429 . S
C3513 C3507 1.429 . S
C3513 C3514 1.523 . S
C3514 C3495 1.368 . S
C3514 C3508 1.368 . S
C3514 C3513 1.523 . S
C3515 C3499 1.429 . S
C3515 C3511 1.429 . S
C3515 C3516 1.523 . S
C3516 C3500 1.361 1_655 S
C3516 C3512 1.368 1_655 S
C3516 C3515 1.523 . S
H3517 C3492 0.950 . S
H3518 C3494 0.950 . S
H3519 C3495 0.949 . S
H3520 C3497 0.950 . S
H3521 C3499 0.950 . S
C3522 C3523 1.349 . S
C3522 C3524 1.327 . S
C3522 H3547 0.950 . S
C3523 C3522 1.349 . S
C3523 C3539 1.349 . S
C3524 C3522 1.327 . S
C3524 C3543 1.429 . S
C3524 H3548 0.950 . S
C3525 C3542 1.574 . S
C3525 C3544 1.368 . S
C3525 H3549 0.949 . S
H3526 C3530 0.949 . S
C3527 C3528 1.349 . S
C3527 C3529 1.327 . S
C3527 H3550 0.950 . S
C3528 C3527 1.349 . S
C3528 C3540 1.349 . S
C3529 C3527 1.327 . S
C3529 C3545 1.429 . S
C3529 H3551 0.950 . S
C3530 H3526 0.949 . S
C3530 C3538 1.574 . S
C3530 C3546 1.368 . S
H3531 C3539 0.950 . S
H3532 C3537 0.950 . S
H3533 C3538 0.949 . S
H3534 C3540 0.950 . S
H3535 C3541 0.950 . S
H3536 C3542 0.949 . S
C3537 H3532 0.950 . S
C3537 C3539 1.327 . S
C3537 C3543 1.429 . S
C3538 C3530 1.574 . S
C3538 H3533 0.949 . S
C3538 C3544 1.368 . S
C3539 C3523 1.349 . S
C3539 H3531 0.950 . S
C3539 C3537 1.327 . S
C3540 C3528 1.349 . S
C3540 H3534 0.950 . S
C3540 C3541 1.327 . S
C3541 H3535 0.950 . S
C3541 C3540 1.327 . S
C3541 C3545 1.429 . S
C3542 C3525 1.574 . S
C3542 H3536 0.949 . S
C3542 C3546 1.368 . S
C3543 C3524 1.429 . S
C3543 C3537 1.429 . S
C3543 C3544 1.523 . S
C3544 C3525 1.368 . S
C3544 C3538 1.368 . S
C3544 C3543 1.523 . S
C3545 C3529 1.429 . S
C3545 C3541 1.429 . S
C3545 C3546 1.523 . S
C3546 C3530 1.368 . S
C3546 C3542 1.368 . S
C3546 C3545 1.523 . S
H3547 C3522 0.950 . S
H3548 C3524 0.950 . S
H3549 C3525 0.949 . S
H3550 C3527 0.950 . S
H3551 C3529 0.950 . S
C3552 C3553 1.349 . S
C3552 C3554 1.327 . S
C3552 H3577 0.950 . S
C3553 C3552 1.349 . S
C3553 C3569 1.349 . S
C3554 C3552 1.327 . S
C3554 C3573 1.429 . S
C3554 H3578 0.950 . S
C3555 C3572 1.574 . S
C3555 C3574 1.368 . S
C3555 H3579 0.949 . S
H3556 C3560 0.949 . S
C3557 C3558 1.349 . S
C3557 C3559 1.327 . S
C3557 H3580 0.950 . S
C3558 C3557 1.349 . S
C3558 C3570 1.349 . S
C3559 C3557 1.327 . S
C3559 C3575 1.429 . S
C3559 H3581 0.950 . S
C3560 H3556 0.949 . S
C3560 C3568 1.574 . S
C3560 C3576 1.368 . S
H3561 C3569 0.950 . S
H3562 C3567 0.950 . S
H3563 C3568 0.949 . S
H3564 C3570 0.950 . S
H3565 C3571 0.950 . S
H3566 C3572 0.949 . S
C3567 H3562 0.950 . S
C3567 C3569 1.327 . S
C3567 C3573 1.429 . S
C3568 C3560 1.574 . S
C3568 H3563 0.949 . S
C3568 C3574 1.368 . S
C3569 C3553 1.349 . S
C3569 H3561 0.950 . S
C3569 C3567 1.327 . S
C3570 C3558 1.349 . S
C3570 H3564 0.950 . S
C3570 C3571 1.327 . S
C3571 H3565 0.950 . S
C3571 C3570 1.327 . S
C3571 C3575 1.429 . S
C3572 C3555 1.574 . S
C3572 H3566 0.949 . S
C3572 C3576 1.368 . S
C3573 C3554 1.429 . S
C3573 C3567 1.429 . S
C3573 C3574 1.523 . S
C3574 C3555 1.368 . S
C3574 C3568 1.368 . S
C3574 C3573 1.523 . S
C3575 C3559 1.429 . S
C3575 C3571 1.429 . S
C3575 C3576 1.523 . S
C3576 C3560 1.368 . S
C3576 C3572 1.368 . S
C3576 C3575 1.523 . S
H3577 C3552 0.950 . S
H3578 C3554 0.950 . S
H3579 C3555 0.949 . S
H3580 C3557 0.950 . S
H3581 C3559 0.950 . S
C3582 C3583 1.349 . S
C3582 C3584 1.327 . S
C3582 H3607 0.950 . S
C3583 C3582 1.349 . S
C3583 C3599 1.349 . S
C3584 C3582 1.327 . S
C3584 C3603 1.429 . S
C3584 H3608 0.950 . S
C3585 C3602 1.574 . S
C3585 C3604 1.368 . S
C3585 H3609 0.949 . S
H3586 C3590 0.949 . S
C3587 C3588 1.349 . S
C3587 C3589 1.327 . S
C3587 H3610 0.950 . S
C3588 C3587 1.349 . S
C3588 C3600 1.349 . S
C3589 C3587 1.327 . S
C3589 C3605 1.429 . S
C3589 H3611 0.950 . S
C3590 H3586 0.949 . S
C3590 C3598 1.574 . S
C3590 C3606 1.368 . S
H3591 C3599 0.950 . S
H3592 C3597 0.950 . S
H3593 C3598 0.949 . S
H3594 C3600 0.950 . S
H3595 C3601 0.950 . S
H3596 C3602 0.949 . S
C3597 H3592 0.950 . S
C3597 C3599 1.327 . S
C3597 C3603 1.429 . S
C3598 C3590 1.574 . S
C3598 H3593 0.949 . S
C3598 C3604 1.368 . S
C3599 C3583 1.349 . S
C3599 H3591 0.950 . S
C3599 C3597 1.327 . S
C3600 C3588 1.349 . S
C3600 H3594 0.950 . S
C3600 C3601 1.327 . S
C3601 H3595 0.950 . S
C3601 C3600 1.327 . S
C3601 C3605 1.429 . S
C3602 C3585 1.574 . S
C3602 H3596 0.949 . S
C3602 C3606 1.368 . S
C3603 C3584 1.429 . S
C3603 C3597 1.429 . S
C3603 C3604 1.523 1_565 S
C3604 C3585 1.368 . S
C3604 C3598 1.368 . S
C3604 C3603 1.523 1_545 S
C3605 C3589 1.429 . S
C3605 C3601 1.429 . S
C3605 C3606 1.523 . S
C3606 C3590 1.368 . S
C3606 C3602 1.368 . S
C3606 C3605 1.523 . S
H3607 C3582 0.950 . S
H3608 C3584 0.950 . S
H3609 C3585 0.949 . S
H3610 C3587 0.950 . S
H3611 C3589 0.950 . S
C3612 C3613 1.349 . S
C3612 C3614 1.327 . S
C3612 H3637 0.950 . S
C3613 C3612 1.349 . S
C3613 C3629 1.349 . S
C3614 C3612 1.327 . S
C3614 C3633 1.429 . S
C3614 H3638 0.950 . S
C3615 C3632 1.574 . S
C3615 C3634 1.368 . S
C3615 H3639 0.949 . S
H3616 C3620 0.949 . S
C3617 C3618 1.349 . S
C3617 C3619 1.327 . S
C3617 H3640 0.950 . S
C3618 C3617 1.349 . S
C3618 C3630 1.349 . S
C3619 C3617 1.327 . S
C3619 C3635 1.429 . S
C3619 H3641 0.950 . S
C3620 H3616 0.949 . S
C3620 C3628 1.574 . S
C3620 C3636 1.368 . S
H3621 C3629 0.950 . S
H3622 C3627 0.950 . S
H3623 C3628 0.949 . S
H3624 C3630 0.950 . S
H3625 C3631 0.950 . S
H3626 C3632 0.949 . S
C3627 H3622 0.950 . S
C3627 C3629 1.327 . S
C3627 C3633 1.429 . S
C3628 C3620 1.574 . S
C3628 H3623 0.949 . S
C3628 C3634 1.368 . S
C3629 C3613 1.349 . S
C3629 H3621 0.950 . S
C3629 C3627 1.327 . S
C3630 C3618 1.349 . S
C3630 H3624 0.950 . S
C3630 C3631 1.327 . S
C3631 H3625 0.950 . S
C3631 C3630 1.327 . S
C3631 C3635 1.429 . S
C3632 C3615 1.574 . S
C3632 H3626 0.949 . S
C3632 C3636 1.368 . S
C3633 C3614 1.429 . S
C3633 C3627 1.429 . S
C3633 C3634 1.523 . S
C3634 C3615 1.368 . S
C3634 C3628 1.368 . S
C3634 C3633 1.523 . S
C3635 C3619 1.429 . S
C3635 C3631 1.429 . S
C3635 C3636 1.523 . S
C3636 C3620 1.368 . S
C3636 C3632 1.368 . S
C3636 C3635 1.523 . S
H3637 C3612 0.950 . S
H3638 C3614 0.950 . S
H3639 C3615 0.949 . S
H3640 C3617 0.950 . S
H3641 C3619 0.950 . S
C3642 C3643 1.349 . S
C3642 C3644 1.327 . S
C3642 H3667 0.950 . S
C3643 C3642 1.349 . S
C3643 C3659 1.349 . S
C3644 C3642 1.327 . S
C3644 C3663 1.429 . S
C3644 H3668 0.950 . S
C3645 C3662 1.574 . S
C3645 C3664 1.368 . S
C3645 H3669 0.949 . S
H3646 C3650 0.949 . S
C3647 C3648 1.349 . S
C3647 C3649 1.327 . S
C3647 H3670 0.950 . S
C3648 C3647 1.349 . S
C3648 C3660 1.349 . S
C3649 C3647 1.327 . S
C3649 C3665 1.429 . S
C3649 H3671 0.950 . S
C3650 H3646 0.949 . S
C3650 C3658 1.574 . S
C3650 C3666 1.368 . S
H3651 C3659 0.950 . S
H3652 C3657 0.950 . S
H3653 C3658 0.949 . S
H3654 C3660 0.950 . S
H3655 C3661 0.950 . S
H3656 C3662 0.949 . S
C3657 H3652 0.950 . S
C3657 C3659 1.327 . S
C3657 C3663 1.429 . S
C3658 C3650 1.574 . S
C3658 H3653 0.949 . S
C3658 C3664 1.368 . S
C3659 C3643 1.349 . S
C3659 H3651 0.950 . S
C3659 C3657 1.327 . S
C3660 C3648 1.349 . S
C3660 H3654 0.950 . S
C3660 C3661 1.327 . S
C3661 H3655 0.950 . S
C3661 C3660 1.327 . S
C3661 C3665 1.429 . S
C3662 C3645 1.574 . S
C3662 H3656 0.949 . S
C3662 C3666 1.368 . S
C3663 C3644 1.429 . S
C3663 C3657 1.429 . S
C3663 C3664 1.523 . S
C3664 C3645 1.368 . S
C3664 C3658 1.368 . S
C3664 C3663 1.523 . S
C3665 C3649 1.429 . S
C3665 C3661 1.429 . S
C3665 C3666 1.523 1_545 S
C3666 C3650 1.368 . S
C3666 C3662 1.368 . S
C3666 C3665 1.523 1_565 S
H3667 C3642 0.950 . S
H3668 C3644 0.950 . S
H3669 C3645 0.949 . S
H3670 C3647 0.950 . S
H3671 C3649 0.950 . S
C3672 C3673 1.349 . S
C3672 C3674 1.327 . S
C3672 H3697 0.950 . S
C3673 C3672 1.349 . S
C3673 C3689 1.349 . S
C3674 C3672 1.327 . S
C3674 C3693 1.429 . S
C3674 H3698 0.950 . S
C3675 C3692 1.574 . S
C3675 C3694 1.368 . S
C3675 H3699 0.949 . S
H3676 C3680 0.949 . S
C3677 C3678 1.349 . S
C3677 C3679 1.327 . S
C3677 H3700 0.950 . S
C3678 C3677 1.349 . S
C3678 C3690 1.349 . S
C3679 C3677 1.327 . S
C3679 C3695 1.429 . S
C3679 H3701 0.950 . S
C3680 H3676 0.949 . S
C3680 C3688 1.574 . S
C3680 C3696 1.368 . S
H3681 C3689 0.950 . S
H3682 C3687 0.950 . S
H3683 C3688 0.949 . S
H3684 C3690 0.950 . S
H3685 C3691 0.950 . S
H3686 C3692 0.949 . S
C3687 H3682 0.950 . S
C3687 C3689 1.327 . S
C3687 C3693 1.429 . S
C3688 C3680 1.574 . S
C3688 H3683 0.949 . S
C3688 C3694 1.368 . S
C3689 C3673 1.349 . S
C3689 H3681 0.950 . S
C3689 C3687 1.327 . S
C3690 C3678 1.349 . S
C3690 H3684 0.950 . S
C3690 C3691 1.327 . S
C3691 H3685 0.950 . S
C3691 C3690 1.327 . S
C3691 C3695 1.429 . S
C3692 C3675 1.574 . S
C3692 H3686 0.949 . S
C3692 C3696 1.368 . S
C3693 C3674 1.429 . S
C3693 C3687 1.429 . S
C3693 C3694 1.523 . S
C3694 C3675 1.368 . S
C3694 C3688 1.368 . S
C3694 C3693 1.523 . S
C3695 C3679 1.429 . S
C3695 C3691 1.429 . S
C3695 C3696 1.523 . S
C3696 C3680 1.368 . S
C3696 C3692 1.368 . S
C3696 C3695 1.523 . S
H3697 C3672 0.950 . S
H3698 C3674 0.950 . S
H3699 C3675 0.949 . S
H3700 C3677 0.950 . S
H3701 C3679 0.950 . S
C3702 C3703 1.349 . S
C3702 C3704 1.327 . S
C3702 H3727 0.950 . S
C3703 C3702 1.349 . S
C3703 C3719 1.349 . S
C3704 C3702 1.327 . S
C3704 C3723 1.429 . S
C3704 H3728 0.950 . S
C3705 C3722 1.574 . S
C3705 C3724 1.368 . S
C3705 H3729 0.949 . S
H3706 C3710 0.949 . S
C3707 C3708 1.349 . S
C3707 C3709 1.327 . S
C3707 H3730 0.950 . S
C3708 C3707 1.349 . S
C3708 C3720 1.349 . S
C3709 C3707 1.327 . S
C3709 C3725 1.429 . S
C3709 H3731 0.950 . S
C3710 H3706 0.949 . S
C3710 C3718 1.574 . S
C3710 C3726 1.368 . S
H3711 C3719 0.950 . S
H3712 C3717 0.950 . S
H3713 C3718 0.949 . S
H3714 C3720 0.950 . S
H3715 C3721 0.950 . S
H3716 C3722 0.949 . S
C3717 H3712 0.950 . S
C3717 C3719 1.327 . S
C3717 C3723 1.429 . S
C3718 C3710 1.574 . S
C3718 H3713 0.949 . S
C3718 C3724 1.368 . S
C3719 C3703 1.349 . S
C3719 H3711 0.950 . S
C3719 C3717 1.327 . S
C3720 C3708 1.349 . S
C3720 H3714 0.950 . S
C3720 C3721 1.327 . S
C3721 H3715 0.950 . S
C3721 C3720 1.327 . S
C3721 C3725 1.429 . S
C3722 C3705 1.574 . S
C3722 H3716 0.949 . S
C3722 C3726 1.368 . S
C3723 C3704 1.429 . S
C3723 C3717 1.429 . S
C3723 C3724 1.523 . S
C3724 C3705 1.368 . S
C3724 C3718 1.368 . S
C3724 C3723 1.523 . S
C3725 C3709 1.429 . S
C3725 C3721 1.429 . S
C3725 C3726 1.523 . S
C3726 C3710 1.368 . S
C3726 C3722 1.368 . S
C3726 C3725 1.523 . S
H3727 C3702 0.950 . S
H3728 C3704 0.950 . S
H3729 C3705 0.949 . S
H3730 C3707 0.950 . S
H3731 C3709 0.950 . S
C3732 C3733 1.349 . S
C3732 C3734 1.327 . S
C3732 H3757 0.950 . S
C3733 C3732 1.349 . S
C3733 C3749 1.349 . S
C3734 C3732 1.327 . S
C3734 C3753 1.429 . S
C3734 H3758 0.950 . S
C3735 C3752 1.574 . S
C3735 C3754 1.368 . S
C3735 H3759 0.949 . S
H3736 C3740 0.949 . S
C3737 C3738 1.349 . S
C3737 C3739 1.327 . S
C3737 H3760 0.950 . S
C3738 C3737 1.349 . S
C3738 C3750 1.349 . S
C3739 C3737 1.327 . S
C3739 C3755 1.429 . S
C3739 H3761 0.950 . S
C3740 H3736 0.949 . S
C3740 C3748 1.574 . S
C3740 C3756 1.368 . S
H3741 C3749 0.950 . S
H3742 C3747 0.950 . S
H3743 C3748 0.949 . S
H3744 C3750 0.950 . S
H3745 C3751 0.950 . S
H3746 C3752 0.949 . S
C3747 H3742 0.950 . S
C3747 C3749 1.327 . S
C3747 C3753 1.429 . S
C3748 C3740 1.574 . S
C3748 H3743 0.949 . S
C3748 C3754 1.368 . S
C3749 C3733 1.349 . S
C3749 H3741 0.950 . S
C3749 C3747 1.327 . S
C3750 C3738 1.349 . S
C3750 H3744 0.950 . S
C3750 C3751 1.327 . S
C3751 H3745 0.950 . S
C3751 C3750 1.327 . S
C3751 C3755 1.429 . S
C3752 C3735 1.574 . S
C3752 H3746 0.949 . S
C3752 C3756 1.368 . S
C3753 C3734 1.429 . S
C3753 C3747 1.429 . S
C3753 C3754 1.523 . S
C3754 C3735 1.368 . S
C3754 C3748 1.368 . S
C3754 C3753 1.523 . S
C3755 C3739 1.429 . S
C3755 C3751 1.429 . S
C3755 C3756 1.523 . S
C3756 C3740 1.368 . S
C3756 C3752 1.368 . S
C3756 C3755 1.523 . S
H3757 C3732 0.950 . S
H3758 C3734 0.950 . S
H3759 C3735 0.949 . S
H3760 C3737 0.950 . S
H3761 C3739 0.950 . S
C3762 C3763 1.349 . S
C3762 C3764 1.327 . S
C3762 H3787 0.950 . S
C3763 C3762 1.349 . S
C3763 C3779 1.349 . S
C3764 C3762 1.327 . S
C3764 C3783 1.429 . S
C3764 H3788 0.950 . S
C3765 C3782 1.574 . S
C3765 C3784 1.368 . S
C3765 H3789 0.949 . S
H3766 C3770 0.949 . S
C3767 C3768 1.349 . S
C3767 C3769 1.327 . S
C3767 H3790 0.950 . S
C3768 C3767 1.349 . S
C3768 C3780 1.349 . S
C3769 C3767 1.327 . S
C3769 C3785 1.429 . S
C3769 H3791 0.950 . S
C3770 H3766 0.949 . S
C3770 C3778 1.574 . S
C3770 C3786 1.368 . S
H3771 C3779 0.950 . S
H3772 C3777 0.950 . S
H3773 C3778 0.949 . S
H3774 C3780 0.950 . S
H3775 C3781 0.950 . S
H3776 C3782 0.949 . S
C3777 H3772 0.950 . S
C3777 C3779 1.327 . S
C3777 C3783 1.429 . S
C3778 C3770 1.574 . S
C3778 H3773 0.949 . S
C3778 C3784 1.368 . S
C3779 C3763 1.349 . S
C3779 H3771 0.950 . S
C3779 C3777 1.327 . S
C3780 C3768 1.349 . S
C3780 H3774 0.950 . S
C3780 C3781 1.327 . S
C3781 H3775 0.950 . S
C3781 C3780 1.327 . S
C3781 C3785 1.429 . S
C3782 C3765 1.574 . S
C3782 H3776 0.949 . S
C3782 C3786 1.368 . S
C3783 C3764 1.429 . S
C3783 C3777 1.429 . S
C3783 C3784 1.523 . S
C3784 C3765 1.368 . S
C3784 C3778 1.368 . S
C3784 C3783 1.523 . S
C3785 C3769 1.429 . S
C3785 C3781 1.429 . S
C3785 C3786 1.523 . S
C3786 C3770 1.368 . S
C3786 C3782 1.368 . S
C3786 C3785 1.523 . S
H3787 C3762 0.950 . S
H3788 C3764 0.950 . S
H3789 C3765 0.949 . S
H3790 C3767 0.950 . S
H3791 C3769 0.950 . S
C3792 C3793 1.349 . S
C3792 C3794 1.327 . S
C3792 H3817 0.950 . S
C3793 C3792 1.349 . S
C3793 C3809 1.349 . S
C3794 C3792 1.327 . S
C3794 C3813 1.429 . S
C3794 H3818 0.950 . S
C3795 C3812 1.574 . S
C3795 C3814 1.368 . S
C3795 H3819 0.949 . S
H3796 C3800 0.949 . S
C3797 C3798 1.349 . S
C3797 C3799 1.327 . S
C3797 H3820 0.950 . S
C3798 C3797 1.349 . S
C3798 C3810 1.349 . S
C3799 C3797 1.327 . S
C3799 C3815 1.429 . S
C3799 H3821 0.950 . S
C3800 H3796 0.949 . S
C3800 C3808 1.574 . S
C3800 C3816 1.368 . S
H3801 C3809 0.950 . S
H3802 C3807 0.950 . S
H3803 C3808 0.949 . S
H3804 C3810 0.950 . S
H3805 C3811 0.950 . S
H3806 C3812 0.949 . S
C3807 H3802 0.950 . S
C3807 C3809 1.327 . S
C3807 C3813 1.429 . S
C3808 C3800 1.574 . S
C3808 H3803 0.949 . S
C3808 C3814 1.368 . S
C3809 C3793 1.349 . S
C3809 H3801 0.950 . S
C3809 C3807 1.327 . S
C3810 C3798 1.349 . S
C3810 H3804 0.950 . S
C3810 C3811 1.327 . S
C3811 H3805 0.950 . S
C3811 C3810 1.327 . S
C3811 C3815 1.429 . S
C3812 C3795 1.574 . S
C3812 H3806 0.949 . S
C3812 C3816 1.368 . S
C3813 C3794 1.429 . S
C3813 C3807 1.429 . S
C3813 C3814 1.523 . S
C3814 C3795 1.368 . S
C3814 C3808 1.368 . S
C3814 C3813 1.523 . S
C3815 C3799 1.429 . S
C3815 C3811 1.429 . S
C3815 C3816 1.523 . S
C3816 C3800 1.368 . S
C3816 C3812 1.368 . S
C3816 C3815 1.523 . S
H3817 C3792 0.950 . S
H3818 C3794 0.950 . S
H3819 C3795 0.949 . S
H3820 C3797 0.950 . S
H3821 C3799 0.950 . S
C3822 C3823 1.349 . S
C3822 C3824 1.327 . S
C3822 H3847 0.950 . S
C3823 C3822 1.349 . S
C3823 C3839 1.349 . S
C3824 C3822 1.327 . S
C3824 C3843 1.429 . S
C3824 H3848 0.950 . S
C3825 C3842 1.574 . S
C3825 C3844 1.368 . S
C3825 H3849 0.949 . S
H3826 C3830 0.949 . S
C3827 C3828 1.349 . S
C3827 C3829 1.327 . S
C3827 H3850 0.950 . S
C3828 C3827 1.349 . S
C3828 C3840 1.349 . S
C3829 C3827 1.327 . S
C3829 C3845 1.429 . S
C3829 H3851 0.950 . S
C3830 H3826 0.949 . S
C3830 C3838 1.574 . S
C3830 C3846 1.368 . S
H3831 C3839 0.950 . S
H3832 C3837 0.950 . S
H3833 C3838 0.949 . S
H3834 C3840 0.950 . S
H3835 C3841 0.950 . S
H3836 C3842 0.949 . S
C3837 H3832 0.950 . S
C3837 C3839 1.327 . S
C3837 C3843 1.429 . S
C3838 C3830 1.574 . S
C3838 H3833 0.949 . S
C3838 C3844 1.368 . S
C3839 C3823 1.349 . S
C3839 H3831 0.950 . S
C3839 C3837 1.327 . S
C3840 C3828 1.349 . S
C3840 H3834 0.950 . S
C3840 C3841 1.327 . S
C3841 H3835 0.950 . S
C3841 C3840 1.327 . S
C3841 C3845 1.429 . S
C3842 C3825 1.574 . S
C3842 H3836 0.949 . S
C3842 C3846 1.368 . S
C3843 C3824 1.429 . S
C3843 C3837 1.429 . S
C3843 C3844 1.523 . S
C3844 C3825 1.368 . S
C3844 C3838 1.368 . S
C3844 C3843 1.523 . S
C3845 C3829 1.429 . S
C3845 C3841 1.429 . S
C3845 C3846 1.523 . S
C3846 C3830 1.368 . S
C3846 C3842 1.368 . S
C3846 C3845 1.523 . S
H3847 C3822 0.950 . S
H3848 C3824 0.950 . S
H3849 C3825 0.949 . S
H3850 C3827 0.950 . S
H3851 C3829 0.950 . S
C3852 C3853 1.349 . S
C3852 C3854 1.327 . S
C3852 H3877 0.950 . S
C3853 C3852 1.349 . S
C3853 C3869 1.349 . S
C3854 C3852 1.327 . S
C3854 C3873 1.429 . S
C3854 H3878 0.950 . S
C3855 C3872 1.574 . S
C3855 C3874 1.368 . S
C3855 H3879 0.949 . S
H3856 C3860 0.949 . S
C3857 C3858 1.349 . S
C3857 C3859 1.327 . S
C3857 H3880 0.950 . S
C3858 C3857 1.349 . S
C3858 C3870 1.349 . S
C3859 C3857 1.327 . S
C3859 C3875 1.429 . S
C3859 H3881 0.950 . S
C3860 H3856 0.949 . S
C3860 C3868 1.574 . S
C3860 C3876 1.368 . S
H3861 C3869 0.950 . S
H3862 C3867 0.950 . S
H3863 C3868 0.949 . S
H3864 C3870 0.950 . S
H3865 C3871 0.950 . S
H3866 C3872 0.949 . S
C3867 H3862 0.950 . S
C3867 C3869 1.327 . S
C3867 C3873 1.429 . S
C3868 C3860 1.574 . S
C3868 H3863 0.949 . S
C3868 C3874 1.368 . S
C3869 C3853 1.349 . S
C3869 H3861 0.950 . S
C3869 C3867 1.327 . S
C3870 C3858 1.349 . S
C3870 H3864 0.950 . S
C3870 C3871 1.327 . S
C3871 H3865 0.950 . S
C3871 C3870 1.327 . S
C3871 C3875 1.429 . S
C3872 C3855 1.574 . S
C3872 H3866 0.949 . S
C3872 C3876 1.368 . S
C3873 C3854 1.429 . S
C3873 C3867 1.429 . S
C3873 C3874 1.523 . S
C3874 C3855 1.368 . S
C3874 C3868 1.368 . S
C3874 C3873 1.523 . S
C3875 C3859 1.429 . S
C3875 C3871 1.429 . S
C3875 C3876 1.523 1_556 S
C3876 C3860 1.368 . S
C3876 C3872 1.368 . S
C3876 C3875 1.523 1_554 S
H3877 C3852 0.950 . S
H3878 C3854 0.950 . S
H3879 C3855 0.949 . S
H3880 C3857 0.950 . S
H3881 C3859 0.950 . S
C3882 C3883 1.349 . S
C3882 C3884 1.327 . S
C3882 H3907 0.950 . S
C3883 C3882 1.349 . S
C3883 C3899 1.349 . S
C3884 C3882 1.327 . S
C3884 C3903 1.429 . S
C3884 H3908 0.950 . S
C3885 C3902 1.574 . S
C3885 C3904 1.368 . S
C3885 H3909 0.949 . S
H3886 C3890 0.949 . S
C3887 C3888 1.349 . S
C3887 C3889 1.327 . S
C3887 H3910 0.950 . S
C3888 C3887 1.349 . S
C3888 C3900 1.349 . S
C3889 C3887 1.327 . S
C3889 C3905 1.429 . S
C3889 H3911 0.950 . S
C3890 H3886 0.949 . S
C3890 C3898 1.574 . S
C3890 C3906 1.368 . S
H3891 C3899 0.950 . S
H3892 C3897 0.950 . S
H3893 C3898 0.949 . S
H3894 C3900 0.950 . S
H3895 C3901 0.950 . S
H3896 C3902 0.949 . S
C3897 H3892 0.950 . S
C3897 C3899 1.327 . S
C3897 C3903 1.429 . S
C3898 C3890 1.574 . S
C3898 H3893 0.949 . S
C3898 C3904 1.368 . S
C3899 C3883 1.349 . S
C3899 H3891 0.950 . S
C3899 C3897 1.327 . S
C3900 C3888 1.349 . S
C3900 H3894 0.950 . S
C3900 C3901 1.327 . S
C3901 H3895 0.950 . S
C3901 C3900 1.327 . S
C3901 C3905 1.429 . S
C3902 C3885 1.574 . S
C3902 H3896 0.949 . S
C3902 C3906 1.368 . S
C3903 C3884 1.429 . S
C3903 C3897 1.429 . S
C3903 C3904 1.523 . S
C3904 C3885 1.368 . S
C3904 C3898 1.368 . S
C3904 C3903 1.523 . S
C3905 C3889 1.429 . S
C3905 C3901 1.429 . S
C3905 C3906 1.523 . S
C3906 C3890 1.368 . S
C3906 C3902 1.368 . S
C3906 C3905 1.523 . S
H3907 C3882 0.950 . S
H3908 C3884 0.950 . S
H3909 C3885 0.949 . S
H3910 C3887 0.950 . S
H3911 C3889 0.950 . S
C3912 C3913 1.349 . S
C3912 C3914 1.327 . S
C3912 H3937 0.950 . S
C3913 C3912 1.349 . S
C3913 C3929 1.349 . S
C3914 C3912 1.327 . S
C3914 C3933 1.429 . S
C3914 H3938 0.950 . S
C3915 C3932 1.574 . S
C3915 C3934 1.368 . S
C3915 H3939 0.949 . S
H3916 C3920 0.949 . S
C3917 C3918 1.349 . S
C3917 C3919 1.327 . S
C3917 H3940 0.950 . S
C3918 C3917 1.349 . S
C3918 C3930 1.349 . S
C3919 C3917 1.327 . S
C3919 C3935 1.429 . S
C3919 H3941 0.950 . S
C3920 H3916 0.949 . S
C3920 C3928 1.574 . S
C3920 C3936 1.368 . S
H3921 C3929 0.950 . S
H3922 C3927 0.950 . S
H3923 C3928 0.949 . S
H3924 C3930 0.950 . S
H3925 C3931 0.950 . S
H3926 C3932 0.949 . S
C3927 H3922 0.950 . S
C3927 C3929 1.327 . S
C3927 C3933 1.429 . S
C3928 C3920 1.574 . S
C3928 H3923 0.949 . S
C3928 C3934 1.368 . S
C3929 C3913 1.349 . S
C3929 H3921 0.950 . S
C3929 C3927 1.327 . S
C3930 C3918 1.349 . S
C3930 H3924 0.950 . S
C3930 C3931 1.327 . S
C3931 H3925 0.950 . S
C3931 C3930 1.327 . S
C3931 C3935 1.429 . S
C3932 C3915 1.574 . S
C3932 H3926 0.949 . S
C3932 C3936 1.368 . S
C3933 C3914 1.429 . S
C3933 C3927 1.429 . S
C3933 C3934 1.523 . S
C3934 C3915 1.368 . S
C3934 C3928 1.368 . S
C3934 C3933 1.523 . S
C3935 C3919 1.429 . S
C3935 C3931 1.429 . S
C3935 C3936 1.523 1_554 S
C3936 C3920 1.368 . S
C3936 C3932 1.368 . S
C3936 C3935 1.523 1_556 S
H3937 C3912 0.950 . S
H3938 C3914 0.950 . S
H3939 C3915 0.949 . S
H3940 C3917 0.950 . S
H3941 C3919 0.950 . S
C3942 C3943 1.349 . S
C3942 C3944 1.327 . S
C3942 H3967 0.950 . S
C3943 C3942 1.349 . S
C3943 C3959 1.349 . S
C3944 C3942 1.327 . S
C3944 C3963 1.429 . S
C3944 H3968 0.950 . S
C3945 C3962 1.574 . S
C3945 C3964 1.368 . S
C3945 H3969 0.949 . S
H3946 C3950 0.949 . S
C3947 C3948 1.349 . S
C3947 C3949 1.327 . S
C3947 H3970 0.950 . S
C3948 C3947 1.349 . S
C3948 C3960 1.349 . S
C3949 C3947 1.327 . S
C3949 C3965 1.429 . S
C3949 H3971 0.950 . S
C3950 H3946 0.949 . S
C3950 C3958 1.574 . S
C3950 C3966 1.368 . S
H3951 C3959 0.950 . S
H3952 C3957 0.950 . S
H3953 C3958 0.949 . S
H3954 C3960 0.950 . S
H3955 C3961 0.950 . S
H3956 C3962 0.949 . S
C3957 H3952 0.950 . S
C3957 C3959 1.327 . S
C3957 C3963 1.429 . S
C3958 C3950 1.574 . S
C3958 H3953 0.949 . S
C3958 C3964 1.368 . S
C3959 C3943 1.349 . S
C3959 H3951 0.950 . S
C3959 C3957 1.327 . S
C3960 C3948 1.349 . S
C3960 H3954 0.950 . S
C3960 C3961 1.327 . S
C3961 H3955 0.950 . S
C3961 C3960 1.327 . S
C3961 C3965 1.429 . S
C3962 C3945 1.574 . S
C3962 H3956 0.949 . S
C3962 C3966 1.368 . S
C3963 C3944 1.429 . S
C3963 C3957 1.429 . S
C3963 C3964 1.523 . S
C3964 C3945 1.368 . S
C3964 C3958 1.368 . S
C3964 C3963 1.523 . S
C3965 C3949 1.429 . S
C3965 C3961 1.429 . S
C3965 C3966 1.523 . S
C3966 C3950 1.368 . S
C3966 C3962 1.368 . S
C3966 C3965 1.523 . S
H3967 C3942 0.950 . S
H3968 C3944 0.950 . S
H3969 C3945 0.949 . S
H3970 C3947 0.950 . S
H3971 C3949 0.950 . S
C3972 C3973 1.349 . S
C3972 C3974 1.327 . S
C3972 H3997 0.950 . S
C3973 C3972 1.349 . S
C3973 C3989 1.349 . S
C3974 C3972 1.327 . S
C3974 C3993 1.429 . S
C3974 H3998 0.950 . S
C3975 C3992 1.574 . S
C3975 C3994 1.368 . S
C3975 H3999 0.949 . S
H3976 C3980 0.949 . S
C3977 C3978 1.349 . S
C3977 C3979 1.327 . S
C3977 H4000 0.950 . S
C3978 C3977 1.349 . S
C3978 C3990 1.349 . S
C3979 C3977 1.327 . S
C3979 C3995 1.429 . S
C3979 H4001 0.950 . S
C3980 H3976 0.949 . S
C3980 C3988 1.574 . S
C3980 C3996 1.368 . S
H3981 C3989 0.950 . S
H3982 C3987 0.950 . S
H3983 C3988 0.949 . S
H3984 C3990 0.950 . S
H3985 C3991 0.950 . S
H3986 C3992 0.949 . S
C3987 H3982 0.950 . S
C3987 C3989 1.327 . S
C3987 C3993 1.429 . S
C3988 C3980 1.574 . S
C3988 H3983 0.949 . S
C3988 C3994 1.368 . S
C3989 C3973 1.349 . S
C3989 H3981 0.950 . S
C3989 C3987 1.327 . S
C3990 C3978 1.349 . S
C3990 H3984 0.950 . S
C3990 C3991 1.327 . S
C3991 H3985 0.950 . S
C3991 C3990 1.327 . S
C3991 C3995 1.429 . S
C3992 C3975 1.574 . S
C3992 H3986 0.949 . S
C3992 C3996 1.368 . S
C3993 C3974 1.429 . S
C3993 C3987 1.429 . S
C3993 C3994 1.523 . S
C3994 C3975 1.368 . S
C3994 C3988 1.368 . S
C3994 C3993 1.523 . S
C3995 C3979 1.429 . S
C3995 C3991 1.429 . S
C3995 C3996 1.523 . S
C3996 C3980 1.368 . S
C3996 C3992 1.368 . S
C3996 C3995 1.523 . S
H3997 C3972 0.950 . S
H3998 C3974 0.950 . S
H3999 C3975 0.949 . S
H4000 C3977 0.950 . S
H4001 C3979 0.950 . S
C4002 C4003 1.349 . S
C4002 C4004 1.327 . S
C4002 H4027 0.950 . S
C4003 C4002 1.349 . S
C4003 C4019 1.349 . S
C4004 C4002 1.327 . S
C4004 C4023 1.429 . S
C4004 H4028 0.950 . S
C4005 C4022 1.574 . S
C4005 C4024 1.368 . S
C4005 H4029 0.949 . S
H4006 C4010 0.949 . S
C4007 C4008 1.349 . S
C4007 C4009 1.327 . S
C4007 H4030 0.950 . S
C4008 C4007 1.349 . S
C4008 C4020 1.349 . S
C4009 C4007 1.327 . S
C4009 C4025 1.429 . S
C4009 H4031 0.950 . S
C4010 H4006 0.949 . S
C4010 C4018 1.574 . S
C4010 C4026 1.368 . S
H4011 C4019 0.950 . S
H4012 C4017 0.950 . S
H4013 C4018 0.949 . S
H4014 C4020 0.950 . S
H4015 C4021 0.950 . S
H4016 C4022 0.949 . S
C4017 H4012 0.950 . S
C4017 C4019 1.327 . S
C4017 C4023 1.429 . S
C4018 C4010 1.574 . S
C4018 H4013 0.949 . S
C4018 C4024 1.368 . S
C4019 C4003 1.349 . S
C4019 H4011 0.950 . S
C4019 C4017 1.327 . S
C4020 C4008 1.349 . S
C4020 H4014 0.950 . S
C4020 C4021 1.327 . S
C4021 H4015 0.950 . S
C4021 C4020 1.327 . S
C4021 C4025 1.429 . S
C4022 C4005 1.574 . S
C4022 H4016 0.949 . S
C4022 C4026 1.368 . S
C4023 C4004 1.429 . S
C4023 C4017 1.429 . S
C4023 C4024 1.523 . S
C4024 C4005 1.368 . S
C4024 C4018 1.368 . S
C4024 C4023 1.523 . S
C4025 C4009 1.429 . S
C4025 C4021 1.429 . S
C4025 C4026 1.523 . S
C4026 C4010 1.368 . S
C4026 C4022 1.368 . S
C4026 C4025 1.523 . S
H4027 C4002 0.950 . S
H4028 C4004 0.950 . S
H4029 C4005 0.949 . S
H4030 C4007 0.950 . S
H4031 C4009 0.950 . S
C4032 C4033 1.349 . S
C4032 C4034 1.327 . S
C4032 H4057 0.950 . S
C4033 C4032 1.349 . S
C4033 C4049 1.349 . S
C4034 C4032 1.327 . S
C4034 C4053 1.429 . S
C4034 H4058 0.950 . S
C4035 C4052 1.574 . S
C4035 C4054 1.368 . S
C4035 H4059 0.949 . S
H4036 C4040 0.949 . S
C4037 C4038 1.349 . S
C4037 C4039 1.327 . S
C4037 H4060 0.950 . S
C4038 C4037 1.349 . S
C4038 C4050 1.349 . S
C4039 C4037 1.327 . S
C4039 C4055 1.429 . S
C4039 H4061 0.950 . S
C4040 H4036 0.949 . S
C4040 C4048 1.574 . S
C4040 C4056 1.368 . S
H4041 C4049 0.950 . S
H4042 C4047 0.950 . S
H4043 C4048 0.949 . S
H4044 C4050 0.950 . S
H4045 C4051 0.950 . S
H4046 C4052 0.949 . S
C4047 H4042 0.950 . S
C4047 C4049 1.327 . S
C4047 C4053 1.429 . S
C4048 C4040 1.574 . S
C4048 H4043 0.949 . S
C4048 C4054 1.368 . S
C4049 C4033 1.349 . S
C4049 H4041 0.950 . S
C4049 C4047 1.327 . S
C4050 C4038 1.349 . S
C4050 H4044 0.950 . S
C4050 C4051 1.327 . S
C4051 H4045 0.950 . S
C4051 C4050 1.327 . S
C4051 C4055 1.429 . S
C4052 C4035 1.574 . S
C4052 H4046 0.949 . S
C4052 C4056 1.368 . S
C4053 C4034 1.429 . S
C4053 C4047 1.429 . S
C4053 C4054 1.523 . S
C4054 C4035 1.368 . S
C4054 C4048 1.368 . S
C4054 C4053 1.523 . S
C4055 C4039 1.429 . S
C4055 C4051 1.429 . S
C4055 C4056 1.523 . S
C4056 C4040 1.368 . S
C4056 C4052 1.368 . S
C4056 C4055 1.523 . S
H4057 C4032 0.950 . S
H4058 C4034 0.950 . S
H4059 C4035 0.949 . S
H4060 C4037 0.950 . S
H4061 C4039 0.950 . S
C4062 C4063 1.349 . S
C4062 C4064 1.327 . S
C4062 H4087 0.950 . S
C4063 C4062 1.349 . S
C4063 C4079 1.349 . S
C4064 C4062 1.327 . S
C4064 C4083 1.429 . S
C4064 H4088 0.950 . S
C4065 C4082 1.574 . S
C4065 C4084 1.368 . S
C4065 H4089 0.949 . S
H4066 C4070 0.949 . S
C4067 C4068 1.349 . S
C4067 C4069 1.327 . S
C4067 H4090 0.950 . S
C4068 C4067 1.349 . S
C4068 C4080 1.349 . S
C4069 C4067 1.327 . S
C4069 C4085 1.429 . S
C4069 H4091 0.950 . S
C4070 H4066 0.949 . S
C4070 C4078 1.574 . S
C4070 C4086 1.368 . S
H4071 C4079 0.950 . S
H4072 C4077 0.950 . S
H4073 C4078 0.949 . S
H4074 C4080 0.950 . S
H4075 C4081 0.950 . S
H4076 C4082 0.949 . S
C4077 H4072 0.950 . S
C4077 C4079 1.327 . S
C4077 C4083 1.429 . S
C4078 C4070 1.574 . S
C4078 H4073 0.949 . S
C4078 C4084 1.368 . S
C4079 C4063 1.349 . S
C4079 H4071 0.950 . S
C4079 C4077 1.327 . S
C4080 C4068 1.349 . S
C4080 H4074 0.950 . S
C4080 C4081 1.327 . S
C4081 H4075 0.950 . S
C4081 C4080 1.327 . S
C4081 C4085 1.429 . S
C4082 C4065 1.574 . S
C4082 H4076 0.949 . S
C4082 C4086 1.368 . S
C4083 C4064 1.429 . S
C4083 C4077 1.429 . S
C4083 C4084 1.523 . S
C4084 C4065 1.368 . S
C4084 C4078 1.368 . S
C4084 C4083 1.523 . S
C4085 C4069 1.429 . S
C4085 C4081 1.429 . S
C4085 C4086 1.523 . S
C4086 C4070 1.368 . S
C4086 C4082 1.368 . S
C4086 C4085 1.523 . S
H4087 C4062 0.950 . S
H4088 C4064 0.950 . S
H4089 C4065 0.949 . S
H4090 C4067 0.950 . S
H4091 C4069 0.950 . S
C4092 C4093 1.349 . S
C4092 C4094 1.327 . S
C4092 H4117 0.950 . S
C4093 C4092 1.349 . S
C4093 C4109 1.349 . S
C4094 C4092 1.327 . S
C4094 C4113 1.429 . S
C4094 H4118 0.950 . S
C4095 C4112 1.574 1_655 S
C4095 C4114 1.368 . S
C4095 H4119 0.949 . S
H4096 C4100 0.949 . S
C4097 C4098 1.349 . S
C4097 C4099 1.327 . S
C4097 H4120 0.950 . S
C4098 C4097 1.349 . S
C4098 C4110 1.349 . S
C4099 C4097 1.327 . S
C4099 C4115 1.429 . S
C4099 H4121 0.950 . S
C4100 H4096 0.949 . S
C4100 C4108 1.574 1_455 S
C4100 C4116 1.368 . S
H4101 C4109 0.950 . S
H4102 C4107 0.950 . S
H4103 C4108 0.949 . S
H4104 C4110 0.950 . S
H4105 C4111 0.950 . S
H4106 C4112 0.949 . S
C4107 H4102 0.950 . S
C4107 C4109 1.327 . S
C4107 C4113 1.429 . S
C4108 C4100 1.574 1_655 S
C4108 H4103 0.949 . S
C4108 C4114 1.368 . S
C4109 C4093 1.349 . S
C4109 H4101 0.950 . S
C4109 C4107 1.327 . S
C4110 C4098 1.349 . S
C4110 H4104 0.950 . S
C4110 C4111 1.327 . S
C4111 H4105 0.950 . S
C4111 C4110 1.327 . S
C4111 C4115 1.429 . S
C4112 C4095 1.574 1_455 S
C4112 H4106 0.949 . S
C4112 C4116 1.368 . S
C4113 C4094 1.429 . S
C4113 C4107 1.429 . S
C4113 C4114 1.523 . S
C4114 C4095 1.368 . S
C4114 C4108 1.368 . S
C4114 C4113 1.523 . S
C4115 C4099 1.429 . S
C4115 C4111 1.429 . S
C4115 C4116 1.523 . S
C4116 C4100 1.368 . S
C4116 C4112 1.368 . S
C4116 C4115 1.523 . S
H4117 C4092 0.950 . S
H4118 C4094 0.950 . S
H4119 C4095 0.949 . S
H4120 C4097 0.950 . S
H4121 C4099 0.950 . S
C4122 C4123 1.349 . S
C4122 C4124 1.327 . S
C4122 H4147 0.950 . S
C4123 C4122 1.349 . S
C4123 C4139 1.349 . S
C4124 C4122 1.327 . S
C4124 C4143 1.429 . S
C4124 H4148 0.950 . S
C4125 C4142 1.574 . S
C4125 C4144 1.368 . S
C4125 H4149 0.949 . S
H4126 C4130 0.949 . S
C4127 C4128 1.349 . S
C4127 C4129 1.327 . S
C4127 H4150 0.950 . S
C4128 C4127 1.349 . S
C4128 C4140 1.349 . S
C4129 C4127 1.327 . S
C4129 C4145 1.429 . S
C4129 H4151 0.950 . S
C4130 H4126 0.949 . S
C4130 C4138 1.574 . S
C4130 C4146 1.368 . S
H4131 C4139 0.950 . S
H4132 C4137 0.950 . S
H4133 C4138 0.949 . S
H4134 C4140 0.950 . S
H4135 C4141 0.950 . S
H4136 C4142 0.949 . S
C4137 H4132 0.950 . S
C4137 C4139 1.327 . S
C4137 C4143 1.429 . S
C4138 C4130 1.574 . S
C4138 H4133 0.949 . S
C4138 C4144 1.368 . S
C4139 C4123 1.349 . S
C4139 H4131 0.950 . S
C4139 C4137 1.327 . S
C4140 C4128 1.349 . S
C4140 H4134 0.950 . S
C4140 C4141 1.327 . S
C4141 H4135 0.950 . S
C4141 C4140 1.327 . S
C4141 C4145 1.429 . S
C4142 C4125 1.574 . S
C4142 H4136 0.949 . S
C4142 C4146 1.368 . S
C4143 C4124 1.429 . S
C4143 C4137 1.429 . S
C4143 C4144 1.523 . S
C4144 C4125 1.368 . S
C4144 C4138 1.368 . S
C4144 C4143 1.523 . S
C4145 C4129 1.429 . S
C4145 C4141 1.429 . S
C4145 C4146 1.523 . S
C4146 C4130 1.368 . S
C4146 C4142 1.368 . S
C4146 C4145 1.523 . S
H4147 C4122 0.950 . S
H4148 C4124 0.950 . S
H4149 C4125 0.949 . S
H4150 C4127 0.950 . S
H4151 C4129 0.950 . S
C4152 C4153 1.349 . S
C4152 C4154 1.327 . S
C4152 H4177 0.950 . S
C4153 C4152 1.349 . S
C4153 C4169 1.349 . S
C4154 C4152 1.327 . S
C4154 C4173 1.429 . S
C4154 H4178 0.950 . S
C4155 C4172 1.574 . S
C4155 C4174 1.368 . S
C4155 H4179 0.949 . S
H4156 C4160 0.949 . S
C4157 C4158 1.349 . S
C4157 C4159 1.327 . S
C4157 H4180 0.950 . S
C4158 C4157 1.349 . S
C4158 C4170 1.349 . S
C4159 C4157 1.327 . S
C4159 C4175 1.429 . S
C4159 H4181 0.950 . S
C4160 H4156 0.949 . S
C4160 C4168 1.574 . S
C4160 C4176 1.368 . S
H4161 C4169 0.950 . S
H4162 C4167 0.950 . S
H4163 C4168 0.949 . S
H4164 C4170 0.950 . S
H4165 C4171 0.950 . S
H4166 C4172 0.949 . S
C4167 H4162 0.950 . S
C4167 C4169 1.327 . S
C4167 C4173 1.429 . S
C4168 C4160 1.574 . S
C4168 H4163 0.949 . S
C4168 C4174 1.368 . S
C4169 C4153 1.349 . S
C4169 H4161 0.950 . S
C4169 C4167 1.327 . S
C4170 C4158 1.349 . S
C4170 H4164 0.950 . S
C4170 C4171 1.327 . S
C4171 H4165 0.950 . S
C4171 C4170 1.327 . S
C4171 C4175 1.429 . S
C4172 C4155 1.574 . S
C4172 H4166 0.949 . S
C4172 C4176 1.368 . S
C4173 C4154 1.429 . S
C4173 C4167 1.429 . S
C4173 C4174 1.523 . S
C4174 C4155 1.368 . S
C4174 C4168 1.368 . S
C4174 C4173 1.523 . S
C4175 C4159 1.429 . S
C4175 C4171 1.429 . S
C4175 C4176 1.523 . S
C4176 C4160 1.368 . S
C4176 C4172 1.368 . S
C4176 C4175 1.523 . S
H4177 C4152 0.950 . S
H4178 C4154 0.950 . S
H4179 C4155 0.949 . S
H4180 C4157 0.950 . S
H4181 C4159 0.950 . S
C4182 C4183 1.349 . S
C4182 C4184 1.327 . S
C4182 H4207 0.950 . S
C4183 C4182 1.349 . S
C4183 C4199 1.349 . S
C4184 C4182 1.327 . S
C4184 C4203 1.429 . S
C4184 H4208 0.950 . S
C4185 C4202 1.574 . S
C4185 C4204 1.368 . S
C4185 H4209 0.949 . S
H4186 C4190 0.949 . S
C4187 C4188 1.349 . S
C4187 C4189 1.327 . S
C4187 H4210 0.950 . S
C4188 C4187 1.349 . S
C4188 C4200 1.349 . S
C4189 C4187 1.327 . S
C4189 C4205 1.429 . S
C4189 H4211 0.950 . S
C4190 H4186 0.949 . S
C4190 C4198 1.574 . S
C4190 C4206 1.368 . S
H4191 C4199 0.950 . S
H4192 C4197 0.950 . S
H4193 C4198 0.949 . S
H4194 C4200 0.950 . S
H4195 C4201 0.950 . S
H4196 C4202 0.949 . S
C4197 H4192 0.950 . S
C4197 C4199 1.327 . S
C4197 C4203 1.429 . S
C4198 C4190 1.574 . S
C4198 H4193 0.949 . S
C4198 C4204 1.368 . S
C4199 C4183 1.349 . S
C4199 H4191 0.950 . S
C4199 C4197 1.327 . S
C4200 C4188 1.349 . S
C4200 H4194 0.950 . S
C4200 C4201 1.327 . S
C4201 H4195 0.950 . S
C4201 C4200 1.327 . S
C4201 C4205 1.429 . S
C4202 C4185 1.574 . S
C4202 H4196 0.949 . S
C4202 C4206 1.368 . S
C4203 C4184 1.429 . S
C4203 C4197 1.429 . S
C4203 C4204 1.523 . S
C4204 C4185 1.368 . S
C4204 C4198 1.368 . S
C4204 C4203 1.523 . S
C4205 C4189 1.429 . S
C4205 C4201 1.429 . S
C4205 C4206 1.523 . S
C4206 C4190 1.368 . S
C4206 C4202 1.368 . S
C4206 C4205 1.523 . S
H4207 C4182 0.950 . S
H4208 C4184 0.950 . S
H4209 C4185 0.949 . S
H4210 C4187 0.950 . S
H4211 C4189 0.950 . S
C4212 C4213 1.349 . S
C4212 C4214 1.327 . S
C4212 H4237 0.950 . S
C4213 C4212 1.349 . S
C4213 C4229 1.349 . S
C4214 C4212 1.327 . S
C4214 C4233 1.429 . S
C4214 H4238 0.950 . S
C4215 C4232 1.574 . S
C4215 C4234 1.368 . S
C4215 H4239 0.949 . S
H4216 C4220 0.949 . S
C4217 C4218 1.349 . S
C4217 C4219 1.327 . S
C4217 H4240 0.950 . S
C4218 C4217 1.349 . S
C4218 C4230 1.349 . S
C4219 C4217 1.327 . S
C4219 C4235 1.429 . S
C4219 H4241 0.950 . S
C4220 H4216 0.949 . S
C4220 C4228 1.574 . S
C4220 C4236 1.368 . S
H4221 C4229 0.950 . S
H4222 C4227 0.950 . S
H4223 C4228 0.949 . S
H4224 C4230 0.950 . S
H4225 C4231 0.950 . S
H4226 C4232 0.949 . S
C4227 H4222 0.950 . S
C4227 C4229 1.327 . S
C4227 C4233 1.429 . S
C4228 C4220 1.574 . S
C4228 H4223 0.949 . S
C4228 C4234 1.368 . S
C4229 C4213 1.349 . S
C4229 H4221 0.950 . S
C4229 C4227 1.327 . S
C4230 C4218 1.349 . S
C4230 H4224 0.950 . S
C4230 C4231 1.327 . S
C4231 H4225 0.950 . S
C4231 C4230 1.327 . S
C4231 C4235 1.429 . S
C4232 C4215 1.574 . S
C4232 H4226 0.949 . S
C4232 C4236 1.368 . S
C4233 C4214 1.429 . S
C4233 C4227 1.429 . S
C4233 C4234 1.523 1_455 S
C4234 C4215 1.368 . S
C4234 C4228 1.368 . S
C4234 C4233 1.523 1_655 S
C4235 C4219 1.429 . S
C4235 C4231 1.429 . S
C4235 C4236 1.523 . S
C4236 C4220 1.368 . S
C4236 C4232 1.368 . S
C4236 C4235 1.523 . S
H4237 C4212 0.950 . S
H4238 C4214 0.950 . S
H4239 C4215 0.949 . S
H4240 C4217 0.950 . S
H4241 C4219 0.950 . S
C4242 C4243 1.349 . S
C4242 C4244 1.327 . S
C4242 H4267 0.950 . S
C4243 C4242 1.349 . S
C4243 C4259 1.349 . S
C4244 C4242 1.327 . S
C4244 C4263 1.429 . S
C4244 H4268 0.950 . S
C4245 C4262 1.574 . S
C4245 C4264 1.368 . S
C4245 H4269 0.949 . S
H4246 C4250 0.949 . S
C4247 C4248 1.349 . S
C4247 C4249 1.327 . S
C4247 H4270 0.950 . S
C4248 C4247 1.349 . S
C4248 C4260 1.349 . S
C4249 C4247 1.327 . S
C4249 C4265 1.429 . S
C4249 H4271 0.950 . S
C4250 H4246 0.949 . S
C4250 C4258 1.574 . S
C4250 C4266 1.368 . S
H4251 C4259 0.950 . S
H4252 C4257 0.950 . S
H4253 C4258 0.949 . S
H4254 C4260 0.950 . S
H4255 C4261 0.950 . S
H4256 C4262 0.949 . S
C4257 H4252 0.950 . S
C4257 C4259 1.327 . S
C4257 C4263 1.429 . S
C4258 C4250 1.574 . S
C4258 H4253 0.949 . S
C4258 C4264 1.368 . S
C4259 C4243 1.349 . S
C4259 H4251 0.950 . S
C4259 C4257 1.327 . S
C4260 C4248 1.349 . S
C4260 H4254 0.950 . S
C4260 C4261 1.327 . S
C4261 H4255 0.950 . S
C4261 C4260 1.327 . S
C4261 C4265 1.429 . S
C4262 C4245 1.574 . S
C4262 H4256 0.949 . S
C4262 C4266 1.368 . S
C4263 C4244 1.429 . S
C4263 C4257 1.429 . S
C4263 C4264 1.523 . S
C4264 C4245 1.368 . S
C4264 C4258 1.368 . S
C4264 C4263 1.523 . S
C4265 C4249 1.429 . S
C4265 C4261 1.429 . S
C4265 C4266 1.523 . S
C4266 C4250 1.368 . S
C4266 C4262 1.368 . S
C4266 C4265 1.523 . S
H4267 C4242 0.950 . S
H4268 C4244 0.950 . S
H4269 C4245 0.949 . S
H4270 C4247 0.950 . S
H4271 C4249 0.950 . S
C4272 C4273 1.349 . S
C4272 C4274 1.327 . S
C4272 H4297 0.950 . S
C4273 C4272 1.349 . S
C4273 C4289 1.349 . S
C4274 C4272 1.327 . S
C4274 C4293 1.429 . S
C4274 H4298 0.950 . S
C4275 C4292 1.574 . S
C4275 C4294 1.368 . S
C4275 H4299 0.949 . S
H4276 C4280 0.949 . S
C4277 C4278 1.349 . S
C4277 C4279 1.327 . S
C4277 H4300 0.950 . S
C4278 C4277 1.349 . S
C4278 C4290 1.349 . S
C4279 C4277 1.327 . S
C4279 C4295 1.429 . S
C4279 H4301 0.950 . S
C4280 H4276 0.949 . S
C4280 C4288 1.574 . S
C4280 C4296 1.368 . S
H4281 C4289 0.950 . S
H4282 C4287 0.950 . S
H4283 C4288 0.949 . S
H4284 C4290 0.950 . S
H4285 C4291 0.950 . S
H4286 C4292 0.949 . S
C4287 H4282 0.950 . S
C4287 C4289 1.327 . S
C4287 C4293 1.429 . S
C4288 C4280 1.574 . S
C4288 H4283 0.949 . S
C4288 C4294 1.368 . S
C4289 C4273 1.349 . S
C4289 H4281 0.950 . S
C4289 C4287 1.327 . S
C4290 C4278 1.349 . S
C4290 H4284 0.950 . S
C4290 C4291 1.327 . S
C4291 H4285 0.950 . S
C4291 C4290 1.327 . S
C4291 C4295 1.429 . S
C4292 C4275 1.574 . S
C4292 H4286 0.949 . S
C4292 C4296 1.368 . S
C4293 C4274 1.429 . S
C4293 C4287 1.429 . S
C4293 C4294 1.523 . S
C4294 C4275 1.368 . S
C4294 C4288 1.368 . S
C4294 C4293 1.523 . S
C4295 C4279 1.429 . S
C4295 C4291 1.429 . S
C4295 C4296 1.523 . S
C4296 C4280 1.368 . S
C4296 C4292 1.368 . S
C4296 C4295 1.523 . S
H4297 C4272 0.950 . S
H4298 C4274 0.950 . S
H4299 C4275 0.949 . S
H4300 C4277 0.950 . S
H4301 C4279 0.950 . S
C4302 C4303 1.349 . S
C4302 C4304 1.327 . S
C4302 H4327 0.950 . S
C4303 C4302 1.349 . S
C4303 C4319 1.349 . S
C4304 C4302 1.327 . S
C4304 C4323 1.429 . S
C4304 H4328 0.950 . S
C4305 C4322 1.574 . S
C4305 C4324 1.368 . S
C4305 H4329 0.949 . S
H4306 C4310 0.949 . S
C4307 C4308 1.349 . S
C4307 C4309 1.327 . S
C4307 H4330 0.950 . S
C4308 C4307 1.349 . S
C4308 C4320 1.349 . S
C4309 C4307 1.327 . S
C4309 C4325 1.429 . S
C4309 H4331 0.950 . S
C4310 H4306 0.949 . S
C4310 C4318 1.574 . S
C4310 C4326 1.368 . S
H4311 C4319 0.950 . S
H4312 C4317 0.950 . S
H4313 C4318 0.949 . S
H4314 C4320 0.950 . S
H4315 C4321 0.950 . S
H4316 C4322 0.949 . S
C4317 H4312 0.950 . S
C4317 C4319 1.327 . S
C4317 C4323 1.429 . S
C4318 C4310 1.574 . S
C4318 H4313 0.949 . S
C4318 C4324 1.368 . S
C4319 C4303 1.349 . S
C4319 H4311 0.950 . S
C4319 C4317 1.327 . S
C4320 C4308 1.349 . S
C4320 H4314 0.950 . S
C4320 C4321 1.327 . S
C4321 H4315 0.950 . S
C4321 C4320 1.327 . S
C4321 C4325 1.429 . S
C4322 C4305 1.574 . S
C4322 H4316 0.949 . S
C4322 C4326 1.368 . S
C4323 C4304 1.429 . S
C4323 C4317 1.429 . S
C4323 C4324 1.523 . S
C4324 C4305 1.368 . S
C4324 C4318 1.368 . S
C4324 C4323 1.523 . S
C4325 C4309 1.429 . S
C4325 C4321 1.429 . S
C4325 C4326 1.523 1_545 S
C4326 C4310 1.368 . S
C4326 C4322 1.368 . S
C4326 C4325 1.523 1_565 S
H4327 C4302 0.950 . S
H4328 C4304 0.950 . S
H4329 C4305 0.949 . S
H4330 C4307 0.950 . S
H4331 C4309 0.950 . S
C4332 C4333 1.349 . S
C4332 C4334 1.327 . S
C4332 H4357 0.950 . S
C4333 C4332 1.349 . S
C4333 C4349 1.349 . S
C4334 C4332 1.327 . S
C4334 C4353 1.429 . S
C4334 H4358 0.950 . S
C4335 C4352 1.574 . S
C4335 C4354 1.368 . S
C4335 H4359 0.949 . S
H4336 C4340 0.949 . S
C4337 C4338 1.349 . S
C4337 C4339 1.327 . S
C4337 H4360 0.950 . S
C4338 C4337 1.349 . S
C4338 C4350 1.349 . S
C4339 C4337 1.327 . S
C4339 C4355 1.429 . S
C4339 H4361 0.950 . S
C4340 H4336 0.949 . S
C4340 C4348 1.574 . S
C4340 C4356 1.368 . S
H4341 C4349 0.950 . S
H4342 C4347 0.950 . S
H4343 C4348 0.949 . S
H4344 C4350 0.950 . S
H4345 C4351 0.950 . S
H4346 C4352 0.949 . S
C4347 H4342 0.950 . S
C4347 C4349 1.327 . S
C4347 C4353 1.429 . S
C4348 C4340 1.574 . S
C4348 H4343 0.949 . S
C4348 C4354 1.368 . S
C4349 C4333 1.349 . S
C4349 H4341 0.950 . S
C4349 C4347 1.327 . S
C4350 C4338 1.349 . S
C4350 H4344 0.950 . S
C4350 C4351 1.327 . S
C4351 H4345 0.950 . S
C4351 C4350 1.327 . S
C4351 C4355 1.429 . S
C4352 C4335 1.574 . S
C4352 H4346 0.949 . S
C4352 C4356 1.368 . S
C4353 C4334 1.429 . S
C4353 C4347 1.429 . S
C4353 C4354 1.523 . S
C4354 C4335 1.368 . S
C4354 C4348 1.368 . S
C4354 C4353 1.523 . S
C4355 C4339 1.429 . S
C4355 C4351 1.429 . S
C4355 C4356 1.523 . S
C4356 C4340 1.368 . S
C4356 C4352 1.368 . S
C4356 C4355 1.523 . S
H4357 C4332 0.950 . S
H4358 C4334 0.950 . S
H4359 C4335 0.949 . S
H4360 C4337 0.950 . S
H4361 C4339 0.950 . S
C4362 C4363 1.349 . S
C4362 C4364 1.327 . S
C4362 H4387 0.950 . S
C4363 C4362 1.349 . S
C4363 C4379 1.349 . S
C4364 C4362 1.327 . S
C4364 C4383 1.429 . S
C4364 H4388 0.950 . S
C4365 C4382 1.574 . S
C4365 C4384 1.368 . S
C4365 H4389 0.949 . S
H4366 C4370 0.949 . S
C4367 C4368 1.349 . S
C4367 C4369 1.327 . S
C4367 H4390 0.950 . S
C4368 C4367 1.349 . S
C4368 C4380 1.349 . S
C4369 C4367 1.327 . S
C4369 C4385 1.429 . S
C4369 H4391 0.950 . S
C4370 H4366 0.949 . S
C4370 C4378 1.574 . S
C4370 C4386 1.368 . S
H4371 C4379 0.950 . S
H4372 C4377 0.967 . S
H4373 C4378 0.949 . S
H4374 C4380 0.950 . S
H4375 C4381 0.950 . S
H4376 C4382 0.949 . S
C4377 H4372 0.967 . S
C4377 C4379 1.327 . S
C4377 C4383 1.429 . S
C4378 C4370 1.574 . S
C4378 H4373 0.949 . S
C4378 C4384 1.368 . S
C4379 C4363 1.349 . S
C4379 H4371 0.950 . S
C4379 C4377 1.327 . S
C4380 C4368 1.349 . S
C4380 H4374 0.950 . S
C4380 C4381 1.327 . S
C4381 H4375 0.950 . S
C4381 C4380 1.327 . S
C4381 C4385 1.429 . S
C4382 C4365 1.574 . S
C4382 H4376 0.949 . S
C4382 C4386 1.368 . S
C4383 C4364 1.429 . S
C4383 C4377 1.429 . S
C4383 C4384 1.523 1_565 S
C4384 C4365 1.368 . S
C4384 C4378 1.368 . S
C4384 C4383 1.523 1_545 S
C4385 C4369 1.429 . S
C4385 C4381 1.429 . S
C4385 C4386 1.523 . S
C4386 C4370 1.368 . S
C4386 C4382 1.368 . S
C4386 C4385 1.523 . S
H4387 C4362 0.950 . S
H4388 C4364 0.950 . S
H4389 C4365 0.949 . S
H4390 C4367 0.950 . S
H4391 C4369 0.950 . S
C4392 C4393 1.349 . S
C4392 C4394 1.327 . S
C4392 H4417 0.950 . S
C4393 C4392 1.349 . S
C4393 C4409 1.349 . S
C4394 C4392 1.327 . S
C4394 C4413 1.429 . S
C4394 H4418 0.950 . S
C4395 C4412 1.574 . S
C4395 C4414 1.368 . S
C4395 H4419 0.949 . S
H4396 C4400 0.949 . S
C4397 C4398 1.349 . S
C4397 C4399 1.327 . S
C4397 H4420 0.950 . S
C4398 C4397 1.349 . S
C4398 C4410 1.349 . S
C4399 C4397 1.327 . S
C4399 C4415 1.429 . S
C4399 H4421 0.950 . S
C4400 H4396 0.949 . S
C4400 C4408 1.574 . S
C4400 C4416 1.368 . S
H4401 C4409 0.950 . S
H4402 C4407 0.950 . S
H4403 C4408 0.949 . S
H4404 C4410 0.950 . S
H4405 C4411 0.950 . S
H4406 C4412 0.949 . S
C4407 H4402 0.950 . S
C4407 C4409 1.327 . S
C4407 C4413 1.429 . S
C4408 C4400 1.574 . S
C4408 H4403 0.949 . S
C4408 C4414 1.368 . S
C4409 C4393 1.349 . S
C4409 H4401 0.950 . S
C4409 C4407 1.327 . S
C4410 C4398 1.349 . S
C4410 H4404 0.950 . S
C4410 C4411 1.327 . S
C4411 H4405 0.950 . S
C4411 C4410 1.327 . S
C4411 C4415 1.429 . S
C4412 C4395 1.574 . S
C4412 H4406 0.949 . S
C4412 C4416 1.368 . S
C4413 C4394 1.429 . S
C4413 C4407 1.429 . S
C4413 C4414 1.523 . S
C4414 C4395 1.368 . S
C4414 C4408 1.368 . S
C4414 C4413 1.523 . S
C4415 C4399 1.429 . S
C4415 C4411 1.429 . S
C4415 C4416 1.523 . S
C4416 C4400 1.368 . S
C4416 C4412 1.368 . S
C4416 C4415 1.523 . S
H4417 C4392 0.950 . S
H4418 C4394 0.950 . S
H4419 C4395 0.949 . S
H4420 C4397 0.950 . S
H4421 C4399 0.950 . S
C4422 C4423 1.349 . S
C4422 C4424 1.327 . S
C4422 H4447 0.950 . S
C4423 C4422 1.349 . S
C4423 C4439 1.349 . S
C4424 C4422 1.327 . S
C4424 C4443 1.429 . S
C4424 H4448 0.950 . S
C4425 C4442 1.574 . S
C4425 C4444 1.368 . S
C4425 H4449 0.949 . S
H4426 C4430 0.949 . S
C4427 C4428 1.349 . S
C4427 C4429 1.327 . S
C4427 H4450 0.950 . S
C4428 C4427 1.349 . S
C4428 C4440 1.349 . S
C4429 C4427 1.327 . S
C4429 C4445 1.429 . S
C4429 H4451 0.950 . S
C4430 H4426 0.949 . S
C4430 C4438 1.574 . S
C4430 C4446 1.368 . S
H4431 C4439 0.950 . S
H4432 C4437 0.950 . S
H4433 C4438 0.949 . S
H4434 C4440 0.950 . S
H4435 C4441 0.950 . S
H4436 C4442 0.949 . S
C4437 H4432 0.950 . S
C4437 C4439 1.327 . S
C4437 C4443 1.429 . S
C4438 C4430 1.574 . S
C4438 H4433 0.949 . S
C4438 C4444 1.368 . S
C4439 C4423 1.349 . S
C4439 H4431 0.950 . S
C4439 C4437 1.327 . S
C4440 C4428 1.349 . S
C4440 H4434 0.950 . S
C4440 C4441 1.327 . S
C4441 H4435 0.950 . S
C4441 C4440 1.327 . S
C4441 C4445 1.429 . S
C4442 C4425 1.574 . S
C4442 H4436 0.949 . S
C4442 C4446 1.368 . S
C4443 C4424 1.429 . S
C4443 C4437 1.429 . S
C4443 C4444 1.523 . S
C4444 C4425 1.368 . S
C4444 C4438 1.368 . S
C4444 C4443 1.523 . S
C4445 C4429 1.429 . S
C4445 C4441 1.429 . S
C4445 C4446 1.523 . S
C4446 C4430 1.368 . S
C4446 C4442 1.368 . S
C4446 C4445 1.523 . S
H4447 C4422 0.950 . S
H4448 C4424 0.950 . S
H4449 C4425 0.949 . S
H4450 C4427 0.950 . S
H4451 C4429 0.950 . S
C4452 C4453 1.349 . S
C4452 C4454 1.327 . S
C4452 H4477 0.950 . S
C4453 C4452 1.349 . S
C4453 C4469 1.349 . S
C4454 C4452 1.327 . S
C4454 C4473 1.429 . S
C4454 H4478 0.950 . S
C4455 C4472 1.574 . S
C4455 C4474 1.368 . S
C4455 H4479 0.949 . S
H4456 C4460 0.949 . S
C4457 C4458 1.349 . S
C4457 C4459 1.327 . S
C4457 H4480 0.950 . S
C4458 C4457 1.349 . S
C4458 C4470 1.349 . S
C4459 C4457 1.327 . S
C4459 C4475 1.429 . S
C4459 H4481 0.950 . S
C4460 H4456 0.949 . S
C4460 C4468 1.574 . S
C4460 C4476 1.368 . S
H4461 C4469 0.950 . S
H4462 C4467 0.950 . S
H4463 C4468 0.949 . S
H4464 C4470 0.950 . S
H4465 C4471 0.950 . S
H4466 C4472 0.949 . S
C4467 H4462 0.950 . S
C4467 C4469 1.327 . S
C4467 C4473 1.429 . S
C4468 C4460 1.574 . S
C4468 H4463 0.949 . S
C4468 C4474 1.368 . S
C4469 C4453 1.349 . S
C4469 H4461 0.950 . S
C4469 C4467 1.327 . S
C4470 C4458 1.349 . S
C4470 H4464 0.950 . S
C4470 C4471 1.327 . S
C4471 H4465 0.950 . S
C4471 C4470 1.327 . S
C4471 C4475 1.429 . S
C4472 C4455 1.574 . S
C4472 H4466 0.949 . S
C4472 C4476 1.368 . S
C4473 C4454 1.429 . S
C4473 C4467 1.429 . S
C4473 C4474 1.523 . S
C4474 C4455 1.368 . S
C4474 C4468 1.368 . S
C4474 C4473 1.523 . S
C4475 C4459 1.429 . S
C4475 C4471 1.429 . S
C4475 C4476 1.523 . S
C4476 C4460 1.368 . S
C4476 C4472 1.368 . S
C4476 C4475 1.523 . S
H4477 C4452 0.950 . S
H4478 C4454 0.950 . S
H4479 C4455 0.949 . S
H4480 C4457 0.950 . S
H4481 C4459 0.950 . S
C4482 C4483 1.349 . S
C4482 C4484 1.327 . S
C4482 H4507 0.950 . S
C4483 C4482 1.349 . S
C4483 C4499 1.349 . S
C4484 C4482 1.327 . S
C4484 C4503 1.429 . S
C4484 H4508 0.950 . S
C4485 C4502 1.574 . S
C4485 C4504 1.368 . S
C4485 H4509 0.949 . S
H4486 C4490 0.949 . S
C4487 C4488 1.349 . S
C4487 C4489 1.327 . S
C4487 H4510 0.950 . S
C4488 C4487 1.349 . S
C4488 C4500 1.349 . S
C4489 C4487 1.327 . S
C4489 C4505 1.429 . S
C4489 H4511 0.950 . S
C4490 H4486 0.949 . S
C4490 C4498 1.574 . S
C4490 C4506 1.368 . S
H4491 C4499 0.950 . S
H4492 C4497 0.950 . S
H4493 C4498 0.949 . S
H4494 C4500 0.950 . S
H4495 C4501 0.950 . S
H4496 C4502 0.949 . S
C4497 H4492 0.950 . S
C4497 C4499 1.327 . S
C4497 C4503 1.429 . S
C4498 C4490 1.574 . S
C4498 H4493 0.949 . S
C4498 C4504 1.368 . S
C4499 C4483 1.349 . S
C4499 H4491 0.950 . S
C4499 C4497 1.327 . S
C4500 C4488 1.349 . S
C4500 H4494 0.950 . S
C4500 C4501 1.327 . S
C4501 H4495 0.950 . S
C4501 C4500 1.327 . S
C4501 C4505 1.429 . S
C4502 C4485 1.574 . S
C4502 H4496 0.949 . S
C4502 C4506 1.368 . S
C4503 C4484 1.429 . S
C4503 C4497 1.429 . S
C4503 C4504 1.523 . S
C4504 C4485 1.368 . S
C4504 C4498 1.368 . S
C4504 C4503 1.523 . S
C4505 C4489 1.429 . S
C4505 C4501 1.429 . S
C4505 C4506 1.523 . S
C4506 C4490 1.368 . S
C4506 C4502 1.368 . S
C4506 C4505 1.523 . S
H4507 C4482 0.950 . S
H4508 C4484 0.950 . S
H4509 C4485 0.949 . S
H4510 C4487 0.950 . S
H4511 C4489 0.950 . S
C4512 C4513 1.349 . S
C4512 C4514 1.327 . S
C4512 H4537 0.950 . S
C4513 C4512 1.349 . S
C4513 C4529 1.349 . S
C4514 C4512 1.327 . S
C4514 C4533 1.429 . S
C4514 H4538 0.950 . S
C4515 C4532 1.574 . S
C4515 C4534 1.368 . S
C4515 H4539 0.949 . S
H4516 C4520 0.949 . S
C4517 C4518 1.349 . S
C4517 C4519 1.327 . S
C4517 H4540 0.950 . S
C4518 C4517 1.349 . S
C4518 C4530 1.349 . S
C4519 C4517 1.327 . S
C4519 C4535 1.429 . S
C4519 H4541 0.950 . S
C4520 H4516 0.949 . S
C4520 C4528 1.574 1_455 S
C4520 C4536 1.368 . S
H4521 C4529 0.950 . S
H4522 C4527 0.950 . S
H4523 C4528 0.949 . S
H4524 C4530 0.950 . S
H4525 C4531 0.950 . S
H4526 C4532 0.951 . S
C4527 H4522 0.950 . S
C4527 C4529 1.327 . S
C4527 C4533 1.429 . S
C4528 C4520 1.574 1_655 S
C4528 H4523 0.949 . S
C4528 C4534 1.368 . S
C4529 C4513 1.349 . S
C4529 H4521 0.950 . S
C4529 C4527 1.327 . S
C4530 C4518 1.349 . S
C4530 H4524 0.950 . S
C4530 C4531 1.327 . S
C4531 H4525 0.950 . S
C4531 C4530 1.327 . S
C4531 C4535 1.429 . S
C4532 C4515 1.574 . S
C4532 H4526 0.951 . S
C4532 C4536 1.368 1_655 S
C4533 C4514 1.429 . S
C4533 C4527 1.429 . S
C4533 C4534 1.523 . S
C4534 C4515 1.368 . S
C4534 C4528 1.368 . S
C4534 C4533 1.523 . S
C4535 C4519 1.429 . S
C4535 C4531 1.429 . S
C4535 C4536 1.523 . S
C4536 C4520 1.368 . S
C4536 C4532 1.368 1_455 S
C4536 C4535 1.523 . S
H4537 C4512 0.950 . S
H4538 C4514 0.950 . S
H4539 C4515 0.949 . S
H4540 C4517 0.950 . S
H4541 C4519 0.950 . S
C4542 C4543 1.349 . S
C4542 C4544 1.327 . S
C4542 H4567 0.950 . S
C4543 C4542 1.349 . S
C4543 C4559 1.349 . S
C4544 C4542 1.327 . S
C4544 C4563 1.429 . S
C4544 H4568 0.950 . S
C4545 C4562 1.574 1_455 S
C4545 C4564 1.368 . S
C4545 H4569 0.949 . S
H4546 C4550 0.949 . S
C4547 C4548 1.349 . S
C4547 C4549 1.327 . S
C4547 H4570 0.950 . S
C4548 C4547 1.349 . S
C4548 C4560 1.349 . S
C4549 C4547 1.327 . S
C4549 C4565 1.429 . S
C4549 H4571 0.950 . S
C4550 H4546 0.949 . S
C4550 C4558 1.574 . S
C4550 C4566 1.368 . S
H4551 C4559 0.950 . S
H4552 C4557 0.950 . S
H4553 C4558 0.949 . S
H4554 C4560 0.950 . S
H4555 C4561 0.950 . S
H4556 C4562 0.949 . S
C4557 H4552 0.950 . S
C4557 C4559 1.327 . S
C4557 C4563 1.429 . S
C4558 C4550 1.574 . S
C4558 H4553 0.949 . S
C4558 C4564 1.368 1_655 S
C4559 C4543 1.349 . S
C4559 H4551 0.950 . S
C4559 C4557 1.327 . S
C4560 C4548 1.349 . S
C4560 H4554 0.950 . S
C4560 C4561 1.327 . S
C4561 H4555 0.950 . S
C4561 C4560 1.327 . S
C4561 C4565 1.429 . S
C4562 C4545 1.574 1_655 S
C4562 H4556 0.949 . S
C4562 C4566 1.368 . S
C4563 C4544 1.429 . S
C4563 C4557 1.429 . S
C4563 C4564 1.523 . S
C4564 C4545 1.368 . S
C4564 C4558 1.368 1_455 S
C4564 C4563 1.523 . S
C4565 C4549 1.429 . S
C4565 C4561 1.429 . S
C4565 C4566 1.523 . S
C4566 C4550 1.368 . S
C4566 C4562 1.368 . S
C4566 C4565 1.523 . S
H4567 C4542 0.950 . S
H4568 C4544 0.950 . S
H4569 C4545 0.949 . S
H4570 C4547 0.950 . S
H4571 C4549 0.950 . S
C4572 C4573 1.349 . S
C4572 C4574 1.327 . S
C4572 H4597 0.950 . S
C4573 C4572 1.349 . S
C4573 C4589 1.349 . S
C4574 C4572 1.327 . S
C4574 C4593 1.429 . S
C4574 H4598 0.950 . S
C4575 C4592 1.574 . S
C4575 C4594 1.368 . S
C4575 H4599 0.949 . S
H4576 C4580 0.949 . S
C4577 C4578 1.349 . S
C4577 C4579 1.327 . S
C4577 H4600 0.950 . S
C4578 C4577 1.349 . S
C4578 C4590 1.349 . S
C4579 C4577 1.327 . S
C4579 C4595 1.429 . S
C4579 H4601 0.950 . S
C4580 H4576 0.949 . S
C4580 C4588 1.574 . S
C4580 C4596 1.368 . S
H4581 C4589 0.950 . S
H4582 C4587 0.950 . S
H4583 C4588 0.949 . S
H4584 C4590 0.950 . S
H4585 C4591 0.950 . S
H4586 C4592 0.949 . S
C4587 H4582 0.950 . S
C4587 C4589 1.327 . S
C4587 C4593 1.429 . S
C4588 C4580 1.574 . S
C4588 H4583 0.949 . S
C4588 C4594 1.368 . S
C4589 C4573 1.349 . S
C4589 H4581 0.950 . S
C4589 C4587 1.327 . S
C4590 C4578 1.349 . S
C4590 H4584 0.950 . S
C4590 C4591 1.327 . S
C4591 H4585 0.950 . S
C4591 C4590 1.327 . S
C4591 C4595 1.429 . S
C4592 C4575 1.574 . S
C4592 H4586 0.949 . S
C4592 C4596 1.368 . S
C4593 C4574 1.429 . S
C4593 C4587 1.429 . S
C4593 C4594 1.523 . S
C4594 C4575 1.368 . S
C4594 C4588 1.368 . S
C4594 C4593 1.523 . S
C4595 C4579 1.429 . S
C4595 C4591 1.429 . S
C4595 C4596 1.523 . S
C4596 C4580 1.368 . S
C4596 C4592 1.368 . S
C4596 C4595 1.523 . S
H4597 C4572 0.950 . S
H4598 C4574 0.950 . S
H4599 C4575 0.949 . S
H4600 C4577 0.950 . S
H4601 C4579 0.950 . S
C4602 C4603 1.349 . S
C4602 C4604 1.327 . S
C4602 H4627 0.950 . S
C4603 C4602 1.349 . S
C4603 C4619 1.349 . S
C4604 C4602 1.327 . S
C4604 C4623 1.429 . S
C4604 H4628 0.950 . S
C4605 C4622 1.574 . S
C4605 C4624 1.368 . S
C4605 H4629 0.949 . S
H4606 C4610 0.949 . S
C4607 C4608 1.349 . S
C4607 C4609 1.327 . S
C4607 H4630 0.950 . S
C4608 C4607 1.349 . S
C4608 C4620 1.349 . S
C4609 C4607 1.327 . S
C4609 C4625 1.429 . S
C4609 H4631 0.950 . S
C4610 H4606 0.949 . S
C4610 C4618 1.574 . S
C4610 C4626 1.368 . S
H4611 C4619 0.950 . S
H4612 C4617 0.950 . S
H4613 C4618 0.949 . S
H4614 C4620 0.950 . S
H4615 C4621 0.950 . S
H4616 C4622 0.949 . S
C4617 H4612 0.950 . S
C4617 C4619 1.327 . S
C4617 C4623 1.429 . S
C4618 C4610 1.574 . S
C4618 H4613 0.949 . S
C4618 C4624 1.368 . S
C4619 C4603 1.349 . S
C4619 H4611 0.950 . S
C4619 C4617 1.327 . S
C4620 C4608 1.349 . S
C4620 H4614 0.950 . S
C4620 C4621 1.327 . S
C4621 H4615 0.950 . S
C4621 C4620 1.327 . S
C4621 C4625 1.429 . S
C4622 C4605 1.574 . S
C4622 H4616 0.949 . S
C4622 C4626 1.368 . S
C4623 C4604 1.429 . S
C4623 C4617 1.429 . S
C4623 C4624 1.523 . S
C4624 C4605 1.368 . S
C4624 C4618 1.368 . S
C4624 C4623 1.523 . S
C4625 C4609 1.429 . S
C4625 C4621 1.429 . S
C4625 C4626 1.523 . S
C4626 C4610 1.368 . S
C4626 C4622 1.368 . S
C4626 C4625 1.523 . S
H4627 C4602 0.950 . S
H4628 C4604 0.950 . S
H4629 C4605 0.949 . S
H4630 C4607 0.950 . S
H4631 C4609 0.950 . S
C4632 C4633 1.349 . S
C4632 C4634 1.327 . S
C4632 H4657 0.950 . S
C4633 C4632 1.349 . S
C4633 C4649 1.349 . S
C4634 C4632 1.327 . S
C4634 C4653 1.429 . S
C4634 H4658 0.950 . S
C4635 C4652 1.574 . S
C4635 C4654 1.368 . S
C4635 H4659 0.949 . S
H4636 C4640 0.949 . S
C4637 C4638 1.349 . S
C4637 C4639 1.327 . S
C4637 H4660 0.950 . S
C4638 C4637 1.349 . S
C4638 C4650 1.349 . S
C4639 C4637 1.327 . S
C4639 C4655 1.429 . S
C4639 H4661 0.950 . S
C4640 H4636 0.949 . S
C4640 C4648 1.574 . S
C4640 C4656 1.368 . S
H4641 C4649 0.950 . S
H4642 C4647 0.950 . S
H4643 C4648 0.949 . S
H4644 C4650 0.950 . S
H4645 C4651 0.950 . S
H4646 C4652 0.959 . S
C4647 H4642 0.950 . S
C4647 C4649 1.327 . S
C4647 C4653 1.429 . S
C4648 C4640 1.574 . S
C4648 H4643 0.949 . S
C4648 C4654 1.368 . S
C4649 C4633 1.349 . S
C4649 H4641 0.950 . S
C4649 C4647 1.327 . S
C4650 C4638 1.349 . S
C4650 H4644 0.950 . S
C4650 C4651 1.327 . S
C4651 H4645 0.950 . S
C4651 C4650 1.327 . S
C4651 C4655 1.429 . S
C4652 C4635 1.574 . S
C4652 H4646 0.959 . S
C4652 C4656 1.368 . S
C4653 C4634 1.429 . S
C4653 C4647 1.429 . S
C4653 C4654 1.523 . S
C4654 C4635 1.368 . S
C4654 C4648 1.368 . S
C4654 C4653 1.523 . S
C4655 C4639 1.429 . S
C4655 C4651 1.429 . S
C4655 C4656 1.523 1_545 S
C4656 C4640 1.368 . S
C4656 C4652 1.368 . S
C4656 C4655 1.523 1_565 S
H4657 C4632 0.950 . S
H4658 C4634 0.950 . S
H4659 C4635 0.949 . S
H4660 C4637 0.950 . S
H4661 C4639 0.950 . S
C4662 C4663 1.349 . S
C4662 C4664 1.327 . S
C4662 H4687 0.950 . S
C4663 C4662 1.349 . S
C4663 C4679 1.349 . S
C4664 C4662 1.327 . S
C4664 C4683 1.429 . S
C4664 H4688 0.950 . S
C4665 C4682 1.574 . S
C4665 C4684 1.368 . S
C4665 H4689 0.949 . S
H4666 C4670 0.949 . S
C4667 C4668 1.349 . S
C4667 C4669 1.327 . S
C4667 H4690 0.950 . S
C4668 C4667 1.349 . S
C4668 C4680 1.349 . S
C4669 C4667 1.327 . S
C4669 C4685 1.429 . S
C4669 H4691 0.950 . S
C4670 H4666 0.949 . S
C4670 C4678 1.574 . S
C4670 C4686 1.368 . S
H4671 C4679 0.950 . S
H4672 C4677 0.950 . S
H4673 C4678 0.949 . S
H4674 C4680 0.950 . S
H4675 C4681 0.950 . S
H4676 C4682 0.949 . S
C4677 H4672 0.950 . S
C4677 C4679 1.327 . S
C4677 C4683 1.429 . S
C4678 C4670 1.574 . S
C4678 H4673 0.949 . S
C4678 C4684 1.368 . S
C4679 C4663 1.349 . S
C4679 H4671 0.950 . S
C4679 C4677 1.327 . S
C4680 C4668 1.349 . S
C4680 H4674 0.950 . S
C4680 C4681 1.327 . S
C4681 H4675 0.950 . S
C4681 C4680 1.327 . S
C4681 C4685 1.429 . S
C4682 C4665 1.574 . S
C4682 H4676 0.949 . S
C4682 C4686 1.368 . S
C4683 C4664 1.429 . S
C4683 C4677 1.429 . S
C4683 C4684 1.523 . S
C4684 C4665 1.368 . S
C4684 C4678 1.368 . S
C4684 C4683 1.523 . S
C4685 C4669 1.429 . S
C4685 C4681 1.429 . S
C4685 C4686 1.523 . S
C4686 C4670 1.368 . S
C4686 C4682 1.368 . S
C4686 C4685 1.523 . S
H4687 C4662 0.950 . S
H4688 C4664 0.950 . S
H4689 C4665 0.949 . S
H4690 C4667 0.950 . S
H4691 C4669 0.950 . S
C4692 C4693 1.349 . S
C4692 C4694 1.327 . S
C4692 H4717 0.950 . S
C4693 C4692 1.349 . S
C4693 C4709 1.349 . S
C4694 C4692 1.327 . S
C4694 C4713 1.429 . S
C4694 H4718 0.950 . S
C4695 C4712 1.574 1_545 S
C4695 C4714 1.368 . S
C4695 H4719 0.949 . S
H4696 C4700 0.949 . S
C4697 C4698 1.349 . S
C4697 C4699 1.327 . S
C4697 H4720 0.950 . S
C4698 C4697 1.349 . S
C4698 C4710 1.349 . S
C4699 C4697 1.327 . S
C4699 C4715 1.429 . S
C4699 H4721 0.950 . S
C4700 H4696 0.949 . S
C4700 C4708 1.574 . S
C4700 C4716 1.368 1_545 S
H4701 C4709 0.950 . S
H4702 C4707 0.950 . S
H4703 C4708 0.949 . S
H4704 C4710 0.950 . S
H4705 C4711 0.950 . S
H4706 C4712 0.949 . S
C4707 H4702 0.950 . S
C4707 C4709 1.327 . S
C4707 C4713 1.429 . S
C4708 C4700 1.574 . S
C4708 H4703 0.949 . S
C4708 C4714 1.368 . S
C4709 C4693 1.349 . S
C4709 H4701 0.950 . S
C4709 C4707 1.327 . S
C4710 C4698 1.349 . S
C4710 H4704 0.950 . S
C4710 C4711 1.327 . S
C4711 H4705 0.950 . S
C4711 C4710 1.327 . S
C4711 C4715 1.429 . S
C4712 C4695 1.574 1_565 S
C4712 H4706 0.949 . S
C4712 C4716 1.368 . S
C4713 C4694 1.429 . S
C4713 C4707 1.429 . S
C4713 C4714 1.523 . S
C4714 C4695 1.368 . S
C4714 C4708 1.368 . S
C4714 C4713 1.523 . S
C4715 C4699 1.429 . S
C4715 C4711 1.429 . S
C4715 C4716 1.523 . S
C4716 C4700 1.368 1_565 S
C4716 C4712 1.368 . S
C4716 C4715 1.523 . S
H4717 C4692 0.950 . S
H4718 C4694 0.950 . S
H4719 C4695 0.949 . S
H4720 C4697 0.950 . S
H4721 C4699 0.950 . S
C4722 C4723 1.349 . S
C4722 C4724 1.327 . S
C4722 H4747 0.950 . S
C4723 C4722 1.349 . S
C4723 C4739 1.349 . S
C4724 C4722 1.327 . S
C4724 C4743 1.429 . S
C4724 H4748 0.950 . S
C4725 C4742 1.574 . S
C4725 C4744 1.368 . S
C4725 H4749 0.949 . S
H4726 C4730 0.949 . S
C4727 C4728 1.349 . S
C4727 C4729 1.327 . S
C4727 H4750 0.950 . S
C4728 C4727 1.349 . S
C4728 C4740 1.349 . S
C4729 C4727 1.327 . S
C4729 C4745 1.429 . S
C4729 H4751 0.950 . S
C4730 H4726 0.949 . S
C4730 C4738 1.574 1_554 S
C4730 C4746 1.368 . S
H4731 C4739 0.950 . S
H4732 C4737 0.950 . S
H4733 C4738 0.949 . S
H4734 C4740 0.950 . S
H4735 C4741 0.950 . S
H4736 C4742 0.949 . S
C4737 H4732 0.950 . S
C4737 C4739 1.327 . S
C4737 C4743 1.429 . S
C4738 C4730 1.574 1_556 S
C4738 H4733 0.949 . S
C4738 C4744 1.368 . S
C4739 C4723 1.349 . S
C4739 H4731 0.950 . S
C4739 C4737 1.327 . S
C4740 C4728 1.349 . S
C4740 H4734 0.950 . S
C4740 C4741 1.327 . S
C4741 H4735 0.950 . S
C4741 C4740 1.327 . S
C4741 C4745 1.429 . S
C4742 C4725 1.574 . S
C4742 H4736 0.949 . S
C4742 C4746 1.368 1_556 S
C4743 C4724 1.429 . S
C4743 C4737 1.429 . S
C4743 C4744 1.523 . S
C4744 C4725 1.368 . S
C4744 C4738 1.368 . S
C4744 C4743 1.523 . S
C4745 C4729 1.429 . S
C4745 C4741 1.429 . S
C4745 C4746 1.523 . S
C4746 C4730 1.368 . S
C4746 C4742 1.368 1_554 S
C4746 C4745 1.523 . S
H4747 C4722 0.950 . S
H4748 C4724 0.950 . S
H4749 C4725 0.949 . S
H4750 C4727 0.950 . S
H4751 C4729 0.950 . S
C4752 C4753 1.349 . S
C4752 C4754 1.327 . S
C4752 H4777 0.950 . S
C4753 C4752 1.349 . S
C4753 C4769 1.349 . S
C4754 C4752 1.327 . S
C4754 C4773 1.429 . S
C4754 H4778 0.950 . S
C4755 C4772 1.574 1_554 S
C4755 C4774 1.368 . S
C4755 H4779 0.949 . S
H4756 C4760 0.949 . S
C4757 C4758 1.349 . S
C4757 C4759 1.327 . S
C4757 H4780 0.950 . S
C4758 C4757 1.349 . S
C4758 C4770 1.349 . S
C4759 C4757 1.327 . S
C4759 C4775 1.429 . S
C4759 H4781 0.950 . S
C4760 H4756 0.949 . S
C4760 C4768 1.574 . S
C4760 C4776 1.368 . S
H4761 C4769 0.950 . S
H4762 C4767 0.950 . S
H4763 C4768 0.949 . S
H4764 C4770 0.950 . S
H4765 C4771 0.950 . S
H4766 C4772 0.949 . S
C4767 H4762 0.950 . S
C4767 C4769 1.327 . S
C4767 C4773 1.429 . S
C4768 C4760 1.574 . S
C4768 H4763 0.949 . S
C4768 C4774 1.368 1_556 S
C4769 C4753 1.349 . S
C4769 H4761 0.950 . S
C4769 C4767 1.327 . S
C4770 C4758 1.349 . S
C4770 H4764 0.950 . S
C4770 C4771 1.327 . S
C4771 H4765 0.950 . S
C4771 C4770 1.327 . S
C4771 C4775 1.429 . S
C4772 C4755 1.574 1_556 S
C4772 H4766 0.949 . S
C4772 C4776 1.368 . S
C4773 C4754 1.429 . S
C4773 C4767 1.429 . S
C4773 C4774 1.523 . S
C4774 C4755 1.368 . S
C4774 C4768 1.368 1_554 S
C4774 C4773 1.523 . S
C4775 C4759 1.429 . S
C4775 C4771 1.429 . S
C4775 C4776 1.523 . S
C4776 C4760 1.368 . S
C4776 C4772 1.368 . S
C4776 C4775 1.523 . S
H4777 C4752 0.950 . S
H4778 C4754 0.950 . S
H4779 C4755 0.949 . S
H4780 C4757 0.950 . S
H4781 C4759 0.950 . S
C4782 C4783 1.349 . S
C4782 C4784 1.327 . S
C4782 H4807 0.950 . S
C4783 C4782 1.349 . S
C4783 C4799 1.349 . S
C4784 C4782 1.327 . S
C4784 C4803 1.429 . S
C4784 H4808 0.950 . S
C4785 C4802 1.574 . S
C4785 C4804 1.368 . S
C4785 H4809 0.949 . S
H4786 C4790 0.949 . S
C4787 C4788 1.349 . S
C4787 C4789 1.327 . S
C4787 H4810 0.950 . S
C4788 C4787 1.349 . S
C4788 C4800 1.349 . S
C4789 C4787 1.327 . S
C4789 C4805 1.429 . S
C4789 H4811 0.950 . S
C4790 H4786 0.949 . S
C4790 C4798 1.574 . S
C4790 C4806 1.368 . S
H4791 C4799 0.950 . S
H4792 C4797 0.950 . S
H4793 C4798 0.949 . S
H4794 C4800 0.950 . S
H4795 C4801 0.950 . S
H4796 C4802 0.949 . S
C4797 H4792 0.950 . S
C4797 C4799 1.327 . S
C4797 C4803 1.429 . S
C4798 C4790 1.574 . S
C4798 H4793 0.949 . S
C4798 C4804 1.368 . S
C4799 C4783 1.349 . S
C4799 H4791 0.950 . S
C4799 C4797 1.327 . S
C4800 C4788 1.349 . S
C4800 H4794 0.950 . S
C4800 C4801 1.327 . S
C4801 H4795 0.950 . S
C4801 C4800 1.327 . S
C4801 C4805 1.429 . S
C4802 C4785 1.574 . S
C4802 H4796 0.949 . S
C4802 C4806 1.368 . S
C4803 C4784 1.429 . S
C4803 C4797 1.429 . S
C4803 C4804 1.523 . S
C4804 C4785 1.368 . S
C4804 C4798 1.368 . S
C4804 C4803 1.523 . S
C4805 C4789 1.429 . S
C4805 C4801 1.429 . S
C4805 C4806 1.523 . S
C4806 C4790 1.368 . S
C4806 C4802 1.368 . S
C4806 C4805 1.523 . S
H4807 C4782 0.950 . S
H4808 C4784 0.950 . S
H4809 C4785 0.949 . S
H4810 C4787 0.950 . S
H4811 C4789 0.950 . S
C4812 C4813 1.349 . S
C4812 C4814 1.327 . S
C4812 H4837 0.950 . S
C4813 C4812 1.349 . S
C4813 C4829 1.349 . S
C4814 C4812 1.327 . S
C4814 C4833 1.429 . S
C4814 H4838 0.950 . S
C4815 C4832 1.574 . S
C4815 C4834 1.368 . S
C4815 H4839 0.949 . S
H4816 C4820 0.949 . S
C4817 C4818 1.349 . S
C4817 C4819 1.327 . S
C4817 H4840 0.950 . S
C4818 C4817 1.349 . S
C4818 C4830 1.349 . S
C4819 C4817 1.327 . S
C4819 C4835 1.429 . S
C4819 H4841 0.950 . S
C4820 H4816 0.949 . S
C4820 C4828 1.574 . S
C4820 C4836 1.368 . S
H4821 C4829 0.950 . S
H4822 C4827 0.950 . S
H4823 C4828 0.949 . S
H4824 C4830 0.950 . S
H4825 C4831 0.950 . S
H4826 C4832 0.949 . S
C4827 H4822 0.950 . S
C4827 C4829 1.327 . S
C4827 C4833 1.429 . S
C4828 C4820 1.574 . S
C4828 H4823 0.949 . S
C4828 C4834 1.368 . S
C4829 C4813 1.349 . S
C4829 H4821 0.950 . S
C4829 C4827 1.327 . S
C4830 C4818 1.349 . S
C4830 H4824 0.950 . S
C4830 C4831 1.327 . S
C4831 H4825 0.950 . S
C4831 C4830 1.327 . S
C4831 C4835 1.429 . S
C4832 C4815 1.574 . S
C4832 H4826 0.949 . S
C4832 C4836 1.368 . S
C4833 C4814 1.429 . S
C4833 C4827 1.429 . S
C4833 C4834 1.523 . S
C4834 C4815 1.368 . S
C4834 C4828 1.368 . S
C4834 C4833 1.523 . S
C4835 C4819 1.429 . S
C4835 C4831 1.429 . S
C4835 C4836 1.523 . S
C4836 C4820 1.368 . S
C4836 C4832 1.368 . S
C4836 C4835 1.523 . S
H4837 C4812 0.950 . S
H4838 C4814 0.950 . S
H4839 C4815 0.949 . S
H4840 C4817 0.950 . S
H4841 C4819 0.950 . S
C4842 C4843 1.349 . S
C4842 C4844 1.327 . S
C4842 H4867 0.950 . S
C4843 C4842 1.349 . S
C4843 C4859 1.349 . S
C4844 C4842 1.327 . S
C4844 C4863 1.429 . S
C4844 H4868 0.950 . S
C4845 C4862 1.574 . S
C4845 C4864 1.368 . S
C4845 H4869 0.949 . S
H4846 C4850 0.949 . S
C4847 C4848 1.349 . S
C4847 C4849 1.327 . S
C4847 H4870 0.950 . S
C4848 C4847 1.349 . S
C4848 C4860 1.349 . S
C4849 C4847 1.327 . S
C4849 C4865 1.429 . S
C4849 H4871 0.950 . S
C4850 H4846 0.949 . S
C4850 C4858 1.574 . S
C4850 C4866 1.368 . S
H4851 C4859 0.950 . S
H4852 C4857 0.950 . S
H4853 C4858 0.949 . S
H4854 C4860 0.950 . S
H4855 C4861 0.950 . S
H4856 C4862 0.949 . S
C4857 H4852 0.950 . S
C4857 C4859 1.327 . S
C4857 C4863 1.429 . S
C4858 C4850 1.574 . S
C4858 H4853 0.949 . S
C4858 C4864 1.368 . S
C4859 C4843 1.349 . S
C4859 H4851 0.950 . S
C4859 C4857 1.327 . S
C4860 C4848 1.349 . S
C4860 H4854 0.950 . S
C4860 C4861 1.327 . S
C4861 H4855 0.950 . S
C4861 C4860 1.327 . S
C4861 C4865 1.429 . S
C4862 C4845 1.574 . S
C4862 H4856 0.949 . S
C4862 C4866 1.368 . S
C4863 C4844 1.429 . S
C4863 C4857 1.429 . S
C4863 C4864 1.523 . S
C4864 C4845 1.368 . S
C4864 C4858 1.368 . S
C4864 C4863 1.523 . S
C4865 C4849 1.429 . S
C4865 C4861 1.429 . S
C4865 C4866 1.523 . S
C4866 C4850 1.368 . S
C4866 C4862 1.368 . S
C4866 C4865 1.523 . S
H4867 C4842 0.950 . S
H4868 C4844 0.950 . S
H4869 C4845 0.949 . S
H4870 C4847 0.950 . S
H4871 C4849 0.950 . S
C4872 C4873 1.349 . S
C4872 C4874 1.327 . S
C4872 H4897 0.950 . S
C4873 C4872 1.349 . S
C4873 C4889 1.349 . S
C4874 C4872 1.327 . S
C4874 C4893 1.429 . S
C4874 H4898 0.950 . S
C4875 C4892 1.574 . S
C4875 C4894 1.368 1_455 S
C4875 H4899 0.949 . S
H4876 C4880 0.949 . S
C4877 C4878 1.349 . S
C4877 C4879 1.327 . S
C4877 H4900 0.950 . S
C4878 C4877 1.349 . S
C4878 C4890 1.349 . S
C4879 C4877 1.327 . S
C4879 C4895 1.429 . S
C4879 H4901 0.950 . S
C4880 H4876 0.949 . S
C4880 C4888 1.574 1_455 S
C4880 C4896 1.368 . S
H4881 C4889 0.950 . S
H4882 C4887 0.950 . S
H4883 C4888 0.949 . S
H4884 C4890 0.950 . S
H4885 C4891 0.950 . S
H4886 C4892 0.949 . S
C4887 H4882 0.950 . S
C4887 C4889 1.327 . S
C4887 C4893 1.429 . S
C4888 C4880 1.574 1_655 S
C4888 H4883 0.949 . S
C4888 C4894 1.368 . S
C4889 C4873 1.349 . S
C4889 H4881 0.950 . S
C4889 C4887 1.327 . S
C4890 C4878 1.349 . S
C4890 H4884 0.950 . S
C4890 C4891 1.327 . S
C4891 H4885 0.950 . S
C4891 C4890 1.327 . S
C4891 C4895 1.429 . S
C4892 C4875 1.574 . S
C4892 H4886 0.949 . S
C4892 C4896 1.368 . S
C4893 C4874 1.429 . S
C4893 C4887 1.429 . S
C4893 C4894 1.523 . S
C4894 C4875 1.368 1_655 S
C4894 C4888 1.368 . S
C4894 C4893 1.523 . S
C4895 C4879 1.429 . S
C4895 C4891 1.429 . S
C4895 C4896 1.523 . S
C4896 C4880 1.368 . S
C4896 C4892 1.368 . S
C4896 C4895 1.523 . S
H4897 C4872 0.950 . S
H4898 C4874 0.950 . S
H4899 C4875 0.949 . S
H4900 C4877 0.950 . S
H4901 C4879 0.950 . S
C4902 C4903 1.349 . S
C4902 C4904 1.327 . S
C4902 H4927 0.950 . S
C4903 C4902 1.349 . S
C4903 C4919 1.349 . S
C4904 C4902 1.327 . S
C4904 C4923 1.429 . S
C4904 H4928 0.950 . S
C4905 C4922 1.574 . S
C4905 C4924 1.368 . S
C4905 H4929 0.949 . S
H4906 C4910 0.949 . S
C4907 C4908 1.349 . S
C4907 C4909 1.327 . S
C4907 H4930 0.950 . S
C4908 C4907 1.349 . S
C4908 C4920 1.349 . S
C4909 C4907 1.327 . S
C4909 C4925 1.429 . S
C4909 H4931 0.950 . S
C4910 H4906 0.949 . S
C4910 C4918 1.574 1_455 S
C4910 C4926 1.368 . S
H4911 C4919 0.950 . S
H4912 C4917 0.950 . S
H4913 C4918 0.949 . S
H4914 C4920 0.950 . S
H4915 C4921 0.950 . S
H4916 C4922 0.949 . S
C4917 H4912 0.950 . S
C4917 C4919 1.327 . S
C4917 C4923 1.429 . S
C4918 C4910 1.574 1_655 S
C4918 H4913 0.949 . S
C4918 C4924 1.368 . S
C4919 C4903 1.349 . S
C4919 H4911 0.950 . S
C4919 C4917 1.327 . S
C4920 C4908 1.349 . S
C4920 H4914 0.950 . S
C4920 C4921 1.327 . S
C4921 H4915 0.950 . S
C4921 C4920 1.327 . S
C4921 C4925 1.429 . S
C4922 C4905 1.574 . S
C4922 H4916 0.949 . S
C4922 C4926 1.368 1_655 S
C4923 C4904 1.429 . S
C4923 C4917 1.429 . S
C4923 C4924 1.523 . S
C4924 C4905 1.368 . S
C4924 C4918 1.368 . S
C4924 C4923 1.523 . S
C4925 C4909 1.429 . S
C4925 C4921 1.429 . S
C4925 C4926 1.523 . S
C4926 C4910 1.368 . S
C4926 C4922 1.368 1_455 S
C4926 C4925 1.523 . S
H4927 C4902 0.950 . S
H4928 C4904 0.950 . S
H4929 C4905 0.949 . S
H4930 C4907 0.950 . S
H4931 C4909 0.950 . S
C4932 C4933 1.349 . S
C4932 C4934 1.327 . S
C4932 H4957 0.950 . S
C4933 C4932 1.349 . S
C4933 C4949 1.349 . S
C4934 C4932 1.327 . S
C4934 C4953 1.429 . S
C4934 H4958 0.950 . S
C4935 C4952 1.574 . S
C4935 C4954 1.368 . S
C4935 H4959 0.949 . S
H4936 C4940 0.949 . S
C4937 C4938 1.349 . S
C4937 C4939 1.327 . S
C4937 H4960 0.950 . S
C4938 C4937 1.349 . S
C4938 C4950 1.349 . S
C4939 C4937 1.327 . S
C4939 C4955 1.429 . S
C4939 H4961 0.950 . S
C4940 H4936 0.949 . S
C4940 C4948 1.574 . S
C4940 C4956 1.368 . S
H4941 C4949 0.950 . S
H4942 C4947 0.950 . S
H4943 C4948 0.949 . S
H4944 C4950 0.950 . S
H4945 C4951 0.950 . S
H4946 C4952 0.949 . S
C4947 H4942 0.950 . S
C4947 C4949 1.327 . S
C4947 C4953 1.429 . S
C4948 C4940 1.574 . S
C4948 H4943 0.949 . S
C4948 C4954 1.368 . S
C4949 C4933 1.349 . S
C4949 H4941 0.950 . S
C4949 C4947 1.327 . S
C4950 C4938 1.349 . S
C4950 H4944 0.950 . S
C4950 C4951 1.327 . S
C4951 H4945 0.950 . S
C4951 C4950 1.327 . S
C4951 C4955 1.429 . S
C4952 C4935 1.574 . S
C4952 H4946 0.949 . S
C4952 C4956 1.368 . S
C4953 C4934 1.429 . S
C4953 C4947 1.429 . S
C4953 C4954 1.523 . S
C4954 C4935 1.368 . S
C4954 C4948 1.368 . S
C4954 C4953 1.523 . S
C4955 C4939 1.429 . S
C4955 C4951 1.429 . S
C4955 C4956 1.523 . S
C4956 C4940 1.368 . S
C4956 C4952 1.368 . S
C4956 C4955 1.523 . S
H4957 C4932 0.950 . S
H4958 C4934 0.950 . S
H4959 C4935 0.949 . S
H4960 C4937 0.950 . S
H4961 C4939 0.950 . S
C4962 C4963 1.349 . S
C4962 C4964 1.327 . S
C4962 H4987 0.950 . S
C4963 C4962 1.349 . S
C4963 C4979 1.349 . S
C4964 C4962 1.327 . S
C4964 C4983 1.429 . S
C4964 H4988 0.950 . S
C4965 C4982 1.574 . S
C4965 C4984 1.368 . S
C4965 H4989 0.949 . S
H4966 C4970 0.949 . S
C4967 C4968 1.349 . S
C4967 C4969 1.327 . S
C4967 H4990 0.950 . S
C4968 C4967 1.349 . S
C4968 C4980 1.349 . S
C4969 C4967 1.327 . S
C4969 C4985 1.429 . S
C4969 H4991 0.950 . S
C4970 H4966 0.949 . S
C4970 C4978 1.574 . S
C4970 C4986 1.368 . S
H4971 C4979 0.950 . S
H4972 C4977 0.950 . S
H4973 C4978 0.949 . S
H4974 C4980 0.950 . S
H4975 C4981 0.950 . S
H4976 C4982 0.949 . S
C4977 H4972 0.950 . S
C4977 C4979 1.327 . S
C4977 C4983 1.429 . S
C4978 C4970 1.574 . S
C4978 H4973 0.949 . S
C4978 C4984 1.368 . S
C4979 C4963 1.349 . S
C4979 H4971 0.950 . S
C4979 C4977 1.327 . S
C4980 C4968 1.349 . S
C4980 H4974 0.950 . S
C4980 C4981 1.327 . S
C4981 H4975 0.950 . S
C4981 C4980 1.327 . S
C4981 C4985 1.429 . S
C4982 C4965 1.574 . S
C4982 H4976 0.949 . S
C4982 C4986 1.368 . S
C4983 C4964 1.429 . S
C4983 C4977 1.429 . S
C4983 C4984 1.523 . S
C4984 C4965 1.368 . S
C4984 C4978 1.368 . S
C4984 C4983 1.523 . S
C4985 C4969 1.429 . S
C4985 C4981 1.429 . S
C4985 C4986 1.523 . S
C4986 C4970 1.368 . S
C4986 C4982 1.368 . S
C4986 C4985 1.523 . S
H4987 C4962 0.950 . S
H4988 C4964 0.950 . S
H4989 C4965 0.949 . S
H4990 C4967 0.950 . S
H4991 C4969 0.950 . S
C4992 C4993 1.349 . S
C4992 C4994 1.327 . S
C4992 H5017 0.950 . S
C4993 C4992 1.349 . S
C4993 C5009 1.349 . S
C4994 C4992 1.327 . S
C4994 C5013 1.429 . S
C4994 H5018 0.950 . S
C4995 C5012 1.574 . S
C4995 C5014 1.368 . S
C4995 H5019 0.949 . S
H4996 C5000 0.949 . S
C4997 C4998 1.349 . S
C4997 C4999 1.327 . S
C4997 H5020 0.950 . S
C4998 C4997 1.349 . S
C4998 C5010 1.349 . S
C4999 C4997 1.327 . S
C4999 C5015 1.429 . S
C4999 H5021 0.950 1_565 S
C5000 H4996 0.949 . S
C5000 C5008 1.574 1_565 S
C5000 C5016 1.368 1_565 S
H5001 C5009 0.950 . S
H5002 C5007 0.950 . S
H5003 C5008 0.949 . S
H5004 C5010 0.950 . S
H5005 C5011 0.950 . S
H5006 C5012 0.949 . S
C5007 H5002 0.950 . S
C5007 C5009 1.327 . S
C5007 C5013 1.429 . S
C5008 C5000 1.574 1_545 S
C5008 H5003 0.949 . S
C5008 C5014 1.368 . S
C5009 C4993 1.349 . S
C5009 H5001 0.950 . S
C5009 C5007 1.327 . S
C5010 C4998 1.349 . S
C5010 H5004 0.950 . S
C5010 C5011 1.327 . S
C5011 H5005 0.950 . S
C5011 C5010 1.327 . S
C5011 C5015 1.429 . S
C5012 C4995 1.574 . S
C5012 H5006 0.949 . S
C5012 C5016 1.368 . S
C5013 C4994 1.429 . S
C5013 C5007 1.429 . S
C5013 C5014 1.523 . S
C5014 C4995 1.368 . S
C5014 C5008 1.368 . S
C5014 C5013 1.523 . S
C5015 C4999 1.429 . S
C5015 C5011 1.429 . S
C5015 C5016 1.523 1_565 S
C5016 C5000 1.368 1_545 S
C5016 C5012 1.368 . S
C5016 C5015 1.523 1_545 S
H5017 C4992 0.950 . S
H5018 C4994 0.950 . S
H5019 C4995 0.949 . S
H5020 C4997 0.950 . S
H5021 C4999 0.950 1_545 S
C5022 C5023 1.349 . S
C5022 C5024 1.327 . S
C5022 H5047 0.950 . S
C5023 C5022 1.349 . S
C5023 C5039 1.349 . S
C5024 C5022 1.327 . S
C5024 C5043 1.429 . S
C5024 H5048 0.950 . S
C5025 C5042 1.574 . S
C5025 C5044 1.368 . S
C5025 H5049 0.949 . S
H5026 C5030 0.949 . S
C5027 C5028 1.349 . S
C5027 C5029 1.327 . S
C5027 H5050 0.950 . S
C5028 C5027 1.349 . S
C5028 C5040 1.349 . S
C5029 C5027 1.327 . S
C5029 C5045 1.429 . S
C5029 H5051 0.950 . S
C5030 H5026 0.949 . S
C5030 C5038 1.574 . S
C5030 C5046 1.368 . S
H5031 C5039 0.950 . S
H5032 C5037 0.950 . S
H5033 C5038 0.949 . S
H5034 C5040 0.950 . S
H5035 C5041 0.950 . S
H5036 C5042 0.949 . S
C5037 H5032 0.950 . S
C5037 C5039 1.327 . S
C5037 C5043 1.429 . S
C5038 C5030 1.574 . S
C5038 H5033 0.949 . S
C5038 C5044 1.368 . S
C5039 C5023 1.349 . S
C5039 H5031 0.950 . S
C5039 C5037 1.327 . S
C5040 C5028 1.349 . S
C5040 H5034 0.950 . S
C5040 C5041 1.327 . S
C5041 H5035 0.950 . S
C5041 C5040 1.327 . S
C5041 C5045 1.429 . S
C5042 C5025 1.574 . S
C5042 H5036 0.949 . S
C5042 C5046 1.368 . S
C5043 C5024 1.429 . S
C5043 C5037 1.429 . S
C5043 C5044 1.523 . S
C5044 C5025 1.368 . S
C5044 C5038 1.368 . S
C5044 C5043 1.523 . S
C5045 C5029 1.429 . S
C5045 C5041 1.429 . S
C5045 C5046 1.523 . S
C5046 C5030 1.368 . S
C5046 C5042 1.368 . S
C5046 C5045 1.523 . S
H5047 C5022 0.950 . S
H5048 C5024 0.950 . S
H5049 C5025 0.949 . S
H5050 C5027 0.950 . S
H5051 C5029 0.950 . S
C5052 C5053 1.349 . S
C5052 C5054 1.327 . S
C5052 H5077 0.950 . S
C5053 C5052 1.349 . S
C5053 C5069 1.349 . S
C5054 C5052 1.327 . S
C5054 C5073 1.429 . S
C5054 H5078 0.950 . S
C5055 C5072 1.574 1_545 S
C5055 C5074 1.368 . S
C5055 H5079 0.949 . S
H5056 C5060 0.949 . S
C5057 C5058 1.349 . S
C5057 C5059 1.327 . S
C5057 H5080 0.950 . S
C5058 C5057 1.349 . S
C5058 C5070 1.349 . S
C5059 C5057 1.327 . S
C5059 C5075 1.429 . S
C5059 H5081 0.950 . S
C5060 H5056 0.949 . S
C5060 C5068 1.574 . S
C5060 C5076 1.368 . S
H5061 C5069 0.950 . S
H5062 C5067 0.950 . S
H5063 C5068 0.949 . S
H5064 C5070 0.950 . S
H5065 C5071 0.950 . S
H5066 C5072 0.949 . S
C5067 H5062 0.950 . S
C5067 C5069 1.327 . S
C5067 C5073 1.429 . S
C5068 C5060 1.574 . S
C5068 H5063 0.949 . S
C5068 C5074 1.368 1_565 S
C5069 C5053 1.349 . S
C5069 H5061 0.950 . S
C5069 C5067 1.327 . S
C5070 C5058 1.349 . S
C5070 H5064 0.950 . S
C5070 C5071 1.327 . S
C5071 H5065 0.950 . S
C5071 C5070 1.327 . S
C5071 C5075 1.429 . S
C5072 C5055 1.574 1_565 S
C5072 H5066 0.949 . S
C5072 C5076 1.368 . S
C5073 C5054 1.429 . S
C5073 C5067 1.429 . S
C5073 C5074 1.523 . S
C5074 C5055 1.368 . S
C5074 C5068 1.368 1_545 S
C5074 C5073 1.523 . S
C5075 C5059 1.429 . S
C5075 C5071 1.429 . S
C5075 C5076 1.523 . S
C5076 C5060 1.368 . S
C5076 C5072 1.368 . S
C5076 C5075 1.523 . S
H5077 C5052 0.950 . S
H5078 C5054 0.950 . S
H5079 C5055 0.949 . S
H5080 C5057 0.950 . S
H5081 C5059 0.950 . S
C5082 C5083 1.349 . S
C5082 C5084 1.327 . S
C5082 H5107 0.950 . S
C5083 C5082 1.349 . S
C5083 C5099 1.349 . S
C5084 C5082 1.327 . S
C5084 C5103 1.429 . S
C5084 H5108 0.950 . S
C5085 C5102 1.574 . S
C5085 C5104 1.368 . S
C5085 H5109 0.949 . S
H5086 C5090 0.949 . S
C5087 C5088 1.349 . S
C5087 C5089 1.327 . S
C5087 H5110 0.950 . S
C5088 C5087 1.349 . S
C5088 C5100 1.349 . S
C5089 C5087 1.327 . S
C5089 C5105 1.429 . S
C5089 H5111 0.950 . S
C5090 H5086 0.949 . S
C5090 C5098 1.574 . S
C5090 C5106 1.368 . S
H5091 C5099 0.950 . S
H5092 C5097 0.950 1_554 S
H5093 C5098 0.949 1_556 S
H5094 C5100 0.950 . S
H5095 C5101 0.950 . S
H5096 C5102 0.949 . S
C5097 H5092 0.950 1_556 S
C5097 C5099 1.327 . S
C5097 C5103 1.429 . S
C5098 C5090 1.574 . S
C5098 H5093 0.949 1_554 S
C5098 C5104 1.368 . S
C5099 C5083 1.349 . S
C5099 H5091 0.950 . S
C5099 C5097 1.327 . S
C5100 C5088 1.349 . S
C5100 H5094 0.950 . S
C5100 C5101 1.327 . S
C5101 H5095 0.950 . S
C5101 C5100 1.327 . S
C5101 C5105 1.429 . S
C5102 C5085 1.574 . S
C5102 H5096 0.949 . S
C5102 C5106 1.368 . S
C5103 C5084 1.429 . S
C5103 C5097 1.429 . S
C5103 C5104 1.523 1_556 S
C5104 C5085 1.368 . S
C5104 C5098 1.368 . S
C5104 C5103 1.523 1_554 S
C5105 C5089 1.429 . S
C5105 C5101 1.429 . S
C5105 C5106 1.523 . S
C5106 C5090 1.368 . S
C5106 C5102 1.368 . S
C5106 C5105 1.523 . S
H5107 C5082 0.950 . S
H5108 C5084 0.950 . S
H5109 C5085 0.949 . S
H5110 C5087 0.950 . S
H5111 C5089 0.950 . S
C5112 C5113 1.349 . S
C5112 C5114 1.327 . S
C5112 H5137 0.950 . S
C5113 C5112 1.349 . S
C5113 C5129 1.349 . S
C5114 C5112 1.327 . S
C5114 C5133 1.429 . S
C5114 H5138 0.950 . S
C5115 C5132 1.574 . S
C5115 C5134 1.368 1_554 S
C5115 H5139 0.949 . S
H5116 C5120 0.949 . S
C5117 C5118 1.349 . S
C5117 C5119 1.327 . S
C5117 H5140 0.950 . S
C5118 C5117 1.349 . S
C5118 C5130 1.349 . S
C5119 C5117 1.327 . S
C5119 C5135 1.429 . S
C5119 H5141 0.950 . S
C5120 H5116 0.949 . S
C5120 C5128 1.574 1_554 S
C5120 C5136 1.368 . S
H5121 C5129 0.950 . S
H5122 C5127 0.950 . S
H5123 C5128 0.949 . S
H5124 C5130 0.950 . S
H5125 C5131 0.950 . S
H5126 C5132 0.949 . S
C5127 H5122 0.950 . S
C5127 C5129 1.327 . S
C5127 C5133 1.429 . S
C5128 C5120 1.574 1_556 S
C5128 H5123 0.949 . S
C5128 C5134 1.368 . S
C5129 C5113 1.349 . S
C5129 H5121 0.950 . S
C5129 C5127 1.327 . S
C5130 C5118 1.349 . S
C5130 H5124 0.950 . S
C5130 C5131 1.327 . S
C5131 H5125 0.950 . S
C5131 C5130 1.327 . S
C5131 C5135 1.429 . S
C5132 C5115 1.574 . S
C5132 H5126 0.949 . S
C5132 C5136 1.368 . S
C5133 C5114 1.429 . S
C5133 C5127 1.429 . S
C5133 C5134 1.523 . S
C5134 C5115 1.368 1_556 S
C5134 C5128 1.368 . S
C5134 C5133 1.523 . S
C5135 C5119 1.429 . S
C5135 C5131 1.429 . S
C5135 C5136 1.523 . S
C5136 C5120 1.368 . S
C5136 C5132 1.368 . S
C5136 C5135 1.523 . S
H5137 C5112 0.950 . S
H5138 C5114 0.950 . S
H5139 C5115 0.949 . S
H5140 C5117 0.950 . S
H5141 C5119 0.950 . S
C5142 C5143 1.349 . S
C5142 C5144 1.327 . S
C5142 H5167 0.950 . S
C5143 C5142 1.349 . S
C5143 C5159 1.349 . S
C5144 C5142 1.327 . S
C5144 C5163 1.429 . S
C5144 H5168 0.950 . S
C5145 C5162 1.574 . S
C5145 C5164 1.368 . S
C5145 H5169 0.949 . S
H5146 C5150 0.949 . S
C5147 C5148 1.349 . S
C5147 C5149 1.327 . S
C5147 H5170 0.950 . S
C5148 C5147 1.349 . S
C5148 C5160 1.349 . S
C5149 C5147 1.327 . S
C5149 C5165 1.429 . S
C5149 H5171 0.950 . S
C5150 H5146 0.949 . S
C5150 C5158 1.574 . S
C5150 C5166 1.368 . S
H5151 C5159 0.950 . S
H5152 C5157 0.950 . S
H5153 C5158 0.949 . S
H5154 C5160 0.950 . S
H5155 C5161 0.950 . S
H5156 C5162 0.949 . S
C5157 H5152 0.950 . S
C5157 C5159 1.327 . S
C5157 C5163 1.429 . S
C5158 C5150 1.574 . S
C5158 H5153 0.949 . S
C5158 C5164 1.368 . S
C5159 C5143 1.349 . S
C5159 H5151 0.950 . S
C5159 C5157 1.327 . S
C5160 C5148 1.349 . S
C5160 H5154 0.950 . S
C5160 C5161 1.327 . S
C5161 H5155 0.950 . S
C5161 C5160 1.327 . S
C5161 C5165 1.429 . S
C5162 C5145 1.574 . S
C5162 H5156 0.949 . S
C5162 C5166 1.368 . S
C5163 C5144 1.429 . S
C5163 C5157 1.429 . S
C5163 C5164 1.523 . S
C5164 C5145 1.368 . S
C5164 C5158 1.368 . S
C5164 C5163 1.523 . S
C5165 C5149 1.429 . S
C5165 C5161 1.429 . S
C5165 C5166 1.523 . S
C5166 C5150 1.368 . S
C5166 C5162 1.368 . S
C5166 C5165 1.523 . S
H5167 C5142 0.950 . S
H5168 C5144 0.950 . S
H5169 C5145 0.949 . S
H5170 C5147 0.950 . S
H5171 C5149 0.950 . S
C5172 C5173 1.349 . S
C5172 C5174 1.327 . S
C5172 H5197 0.950 . S
C5173 C5172 1.349 . S
C5173 C5189 1.349 . S
C5174 C5172 1.327 . S
C5174 C5193 1.429 . S
C5174 H5198 0.950 . S
C5175 C5192 1.574 . S
C5175 C5194 1.368 . S
C5175 H5199 0.949 . S
H5176 C5180 0.949 . S
C5177 C5178 1.349 . S
C5177 C5179 1.327 . S
C5177 H5200 0.950 . S
C5178 C5177 1.349 . S
C5178 C5190 1.349 . S
C5179 C5177 1.327 . S
C5179 C5195 1.429 . S
C5179 H5201 0.950 . S
C5180 H5176 0.949 . S
C5180 C5188 1.574 . S
C5180 C5196 1.368 . S
H5181 C5189 0.950 . S
H5182 C5187 0.950 . S
H5183 C5188 0.949 . S
H5184 C5190 0.950 . S
H5185 C5191 0.950 . S
H5186 C5192 0.949 . S
C5187 H5182 0.950 . S
C5187 C5189 1.327 . S
C5187 C5193 1.429 . S
C5188 C5180 1.574 . S
C5188 H5183 0.949 . S
C5188 C5194 1.368 . S
C5189 C5173 1.349 . S
C5189 H5181 0.950 . S
C5189 C5187 1.327 . S
C5190 C5178 1.349 . S
C5190 H5184 0.950 . S
C5190 C5191 1.327 . S
C5191 H5185 0.950 . S
C5191 C5190 1.327 . S
C5191 C5195 1.429 . S
C5192 C5175 1.574 . S
C5192 H5186 0.949 . S
C5192 C5196 1.368 . S
C5193 C5174 1.429 . S
C5193 C5187 1.429 . S
C5193 C5194 1.523 . S
C5194 C5175 1.368 . S
C5194 C5188 1.368 . S
C5194 C5193 1.523 . S
C5195 C5179 1.429 . S
C5195 C5191 1.429 . S
C5195 C5196 1.523 . S
C5196 C5180 1.368 . S
C5196 C5192 1.368 . S
C5196 C5195 1.523 . S
H5197 C5172 0.950 . S
H5198 C5174 0.950 . S
H5199 C5175 0.949 . S
H5200 C5177 0.950 . S
H5201 C5179 0.950 . S
C5202 C5203 1.349 . S
C5202 C5204 1.327 . S
C5202 H5227 0.950 . S
C5203 C5202 1.349 . S
C5203 C5219 1.349 . S
C5204 C5202 1.327 . S
C5204 C5223 1.429 . S
C5204 H5228 0.950 . S
C5205 C5222 1.574 . S
C5205 C5224 1.368 . S
C5205 H5229 0.949 . S
H5206 C5210 0.949 . S
C5207 C5208 1.349 . S
C5207 C5209 1.327 . S
C5207 H5230 0.950 . S
C5208 C5207 1.349 . S
C5208 C5220 1.349 . S
C5209 C5207 1.327 . S
C5209 C5225 1.429 . S
C5209 H5231 0.950 . S
C5210 H5206 0.949 . S
C5210 C5218 1.574 . S
C5210 C5226 1.368 . S
H5211 C5219 0.950 . S
H5212 C5217 0.950 . S
H5213 C5218 0.949 . S
H5214 C5220 0.950 . S
H5215 C5221 0.950 . S
H5216 C5222 0.949 . S
C5217 H5212 0.950 . S
C5217 C5219 1.327 . S
C5217 C5223 1.429 . S
C5218 C5210 1.574 . S
C5218 H5213 0.949 . S
C5218 C5224 1.368 . S
C5219 C5203 1.349 . S
C5219 H5211 0.950 . S
C5219 C5217 1.327 . S
C5220 C5208 1.349 . S
C5220 H5214 0.950 . S
C5220 C5221 1.327 . S
C5221 H5215 0.950 . S
C5221 C5220 1.327 . S
C5221 C5225 1.429 . S
C5222 C5205 1.574 . S
C5222 H5216 0.949 . S
C5222 C5226 1.368 . S
C5223 C5204 1.429 . S
C5223 C5217 1.429 . S
C5223 C5224 1.523 . S
C5224 C5205 1.368 . S
C5224 C5218 1.368 . S
C5224 C5223 1.523 . S
C5225 C5209 1.429 . S
C5225 C5221 1.429 . S
C5225 C5226 1.523 . S
C5226 C5210 1.368 . S
C5226 C5222 1.368 . S
C5226 C5225 1.523 . S
H5227 C5202 0.950 . S
H5228 C5204 0.950 . S
H5229 C5205 0.949 . S
H5230 C5207 0.950 . S
H5231 C5209 0.950 . S
C1633 C5 1.135 . S
C1638 C1294 1.135 . S
C1663 C39 0.765 . S
C1668 C1257 0.764 . S
C1693 C77 0.823 . S
C1698 C1600 0.850 . S
C1723 C1189 0.556 . S
C1728 C111 0.613 . S
C1753 C141 1.021 . S
C1758 C1393 1.007 . S
C1783 C1090 0.953 . S
C1788 C179 0.906 . S
C1813 C209 0.695 . S
C1818 C1427 0.702 . S
C1843 C243 1.082 . S
C1848 C1022 1.081 . S
C1873 C1053 0.872 . S
C1878 C277 0.879 . S
C1903 C315 0.684 . S
C1908 C1362 0.658 . S
C1933 C345 0.967 . S
C1938 C1121 0.948 . S
C1963 C1396 1.224 . S
C1968 C379 1.231 . S
C1993 C417 0.778 . S
C1998 C1226 0.785 . S
C2023 C447 1.157 . S
C2028 C1631 1.138 . S
C2053 C1158 1.294 . S
C2058 C481 1.303 . S
C2083 C515 1.037 . S
C2088 C1325 1.023 . S
C2113 C818 0.991 . S
C2118 C383 0.928 . S
C2143 C747 0.556 . S
C2148 C553 0.603 . S
C2173 C587 0.739 . S
C2178 C951 0.735 . S
C2203 C784 0.838 . S
C2208 C621 0.816 . S
C2233 C849 1.198 . S
C2238 C413 1.205 . S
C2263 C311 0.996 . S
C2268 C750 0.992 . S
C2293 C815 0.647 . S
C2298 C655 0.682 . S
C2323 C716 0.890 . S
C2328 C689 0.866 . S
C2353 C611 1.245 . S
C2358 C719 1.258 . S
C2383 C543 0.774 . S
C2388 C753 0.777 . S
C2413 C1498 0.901 . S
C2418 C791 0.865 . S
C2443 C821 0.956 . S
C2448 C475 0.941 . S
C2473 C679 0.637 . S
C2478 C859 0.667 . S
C2503 C893 0.773 . S
C2508 C407 0.780 . S
C2533 C713 0.501 . S
C2538 C927 0.599 . S
C2563 C308 1.147 . S
C2568 C957 1.149 . S
C2593 C339 0.749 . S
C2598 C991 0.749 . S
C2623 C648 0.675 . S
C2628 C1029 0.695 . S
C2653 C1059 1.235 . S
C2658 C376 1.233 . S
C2683 C1097 1.019 . S
C2688 C682 1.072 . S
C2713 C1131 0.652 . S
C2718 C512 0.617 . S
C2743 C1161 0.784 . S
C2748 C1529 0.780 . S
C2773 C1199 0.879 . S
C2778 C444 0.907 . S
C2803 C1229 0.949 . S
C2808 C580 0.947 . S
C2833 C135 1.265 . S
C2838 C1093 1.274 . S
C2863 C33 0.721 . S
C2868 C1267 0.730 . S
C2893 C206 0.961 . S
C2898 C1297 0.964 . S
C2923 C70 0.848 . S
C2928 C1335 0.824 . S
C2953 C1127 1.268 . S
C2958 C104 1.269 . S
C2983 C36 1.204 . S
C2988 C1025 1.206 . S
C3013 C101 0.453 . S
C3018 C1369 0.570 . S
C3043 C1403 0.873 . S
C3048 C2 0.905 . S
C3073 C1192 1.361 . S
C3078 C175 1.361 . S
C3103 C1359 0.509 . S
C3108 C213 0.596 . S
C3133 C247 0.778 . S
C3138 C1124 0.790 . S
C3163 C1291 0.530 . S
C3168 C145 0.587 . S
C3193 C107 1.010 . S
C3198 C1087 0.996 . S
C3223 C9 0.859 . S
C3228 C1566 0.896 . S
C3253 C1019 0.407 . S
C3258 C43 0.513 . S
C3283 C73 1.298 . S
C3288 C1532 1.299 . S
C3313 C685 0.742 . S
C3318 C1563 0.743 . S
C3343 C1437 0.665 . S
C3348 C1056 0.632 . S
C3373 C651 0.965 . S
C3378 C1597 0.945 . S
C3403 C988 1.223 . S
C3408 C1467 1.230 . S
C3433 C1505 0.783 . S
C3438 C1328 0.791 . S
C3463 C549 1.154 . S
C3468 C1155 1.134 . S
C3493 C1260 1.282 . S
C3498 C583 1.294 . S
C3523 C617 0.911 . S
C3528 C1223 0.899 . S
C3553 C852 1.000 . S
C3558 C1471 0.936 . S
C3583 C451 0.602 . S
C3588 C917 0.551 . S
C3613 C485 0.745 . S
C3618 C781 0.744 . S
C3643 C954 0.877 . S
C3648 C519 0.847 . S
C3673 C883 1.206 . S
C3678 C1501 1.213 . S
C3703 C920 0.972 . S
C3708 C1433 0.975 . S
C3733 C349 0.683 . S
C3738 C985 0.646 . S
C3763 C886 0.937 . S
C3768 C281 0.906 . S
C3793 C509 1.231 . S
C3798 C889 1.246 . S
C3823 C645 0.754 . S
C3828 C923 0.755 . S
C3853 C410 0.919 . S
C3858 C961 0.879 . S
C3883 C855 0.998 . S
C3888 C577 0.982 . S
C3913 C373 0.592 . S
C3918 C825 0.635 . S
C3943 C723 0.761 . S
C3948 C1495 0.765 . S
C3973 C305 0.504 . S
C3978 C757 0.598 . S
C4003 C1430 1.159 . S
C4008 C787 1.161 . S
C4033 C1461 0.814 . S
C4038 C1399 0.817 . S
C4063 C1539 0.780 . S
C4068 C342 0.787 . S
C4093 C1464 1.207 . S
C4098 C1365 1.210 . S
C4123 C1573 0.951 . S
C4128 C274 0.994 . S
C4153 C614 0.700 . S
C4158 C1607 0.712 . S
C4183 C441 0.797 . S
C4188 C1263 0.803 . S
C4213 C1301 0.788 . S
C4218 C546 0.800 . S
C4243 C478 0.877 . S
C4248 C1331 0.879 . S
C4273 C1569 1.158 . S
C4278 C169 1.147 . S
C4303 C203 0.750 . S
C4308 C1165 0.750 . S
C4333 C67 0.845 . S
C4338 C1195 0.851 . S
C4363 C1233 0.726 . S
C4368 C240 0.718 . S
C4393 C1603 1.382 . S
C4398 C138 1.385 . S
C4423 C1535 1.096 . S
C4428 C237 1.082 . S
C4453 C1063 0.568 . S
C4458 C271 0.440 . S
C4483 C172 1.029 . S
C4488 C995 0.972 . S
C4513 C258 2.237 . S
C4518 C20 2.234 . S
C4543 C156 2.893 . S
C4548 C54 2.896 . S
C4573 C190 2.343 . S
C4578 C88 2.346 . S
C4603 C224 2.894 . S
C4608 C122 2.895 . S
C4633 C428 2.472 . S
C4638 C292 2.484 . S
C4663 C462 2.748 . S
C4668 C326 2.754 . S
C4693 C496 2.635 . S
C4698 C360 2.636 . S
C4723 C530 2.517 . S
C4728 C394 2.525 . S
C4753 C1448 2.742 . S
C4758 C564 2.735 . S
C4783 C598 2.622 . S
C4788 C666 2.624 . S
C4813 C632 2.592 . S
C4818 C1482 2.600 . S
C4843 C700 2.557 . S
C4848 C1516 2.546 . S
C4873 C734 2.303 . S
C4878 C972 2.300 . S
C4903 C870 2.730 . S
C4908 C768 2.737 . S
C4933 C904 2.304 . S
C4938 C802 2.301 . S
C4963 C938 2.749 . S
C4968 C836 2.741 . S
C4993 C1142 2.576 . S
C4998 C1006 2.586 . S
C5023 C1040 2.708 . S
C5028 C1176 2.715 . S
C5053 C1074 2.762 . S
C5058 C1210 2.747 . S
C5083 C1108 2.568 . S
C5088 C1244 2.582 . S
C5113 C1550 2.770 . S
C5118 C1278 2.785 . S
C5143 C1380 2.703 . S
C5148 C1312 2.696 . S
C5173 C1346 2.515 . S
C5178 C1584 2.492 . S
C5203 C1618 2.649 . S
C5208 C1414 2.652 . S
