# Generated by pormake.
# Topology lhb, (8)-cn, num edge types: 1
# Building blocks:
#     Node 0, Type 0, BuildingBlock: EBIMEJ_clean_sbu_0, # of connection points: 8
#     Node 1, Type 0, BuildingBlock: EBIMEJ_clean_sbu_0, # of connection points: 8
#     Node 2, Type 0, BuildingBlock: EBIMEJ_clean_sbu_0, # of connection points: 8
#     Node 3, Type 0, BuildingBlock: EBIMEJ_clean_sbu_0, # of connection points: 8
#     Node 4, Type 0, BuildingBlock: EBIMEJ_clean_sbu_0, # of connection points: 8
#     Node 5, Type 0, BuildingBlock: EBIMEJ_clean_sbu_0, # of connection points: 8
#     Node 6, Type 0, BuildingBlock: EBIMEJ_clean_sbu_0, # of connection points: 8
#     Node 7, Type 0, BuildingBlock: EBIMEJ_clean_sbu_0, # of connection points: 8
#     Edge 8, Type (0, 0), BuildingBlock: XUDNAN_clean_linker_2, # of connection points: 2
#     Edge 9, Type (0, 0), BuildingBlock: XUDNAN_clean_linker_2, # of connection points: 2
#     Edge 10, Type (0, 0), BuildingBlock: XUDNAN_clean_linker_2, # of connection points: 2
#     Edge 11, Type (0, 0), BuildingBlock: XUDNAN_clean_linker_2, # of connection points: 2
#     Edge 12, Type (0, 0), BuildingBlock: XUDNAN_clean_linker_2, # of connection points: 2
#     Edge 13, Type (0, 0), BuildingBlock: XUDNAN_clean_linker_2, # of connection points: 2
#     Edge 14, Type (0, 0), BuildingBlock: XUDNAN_clean_linker_2, # of connection points: 2
#     Edge 15, Type (0, 0), BuildingBlock: XUDNAN_clean_linker_2, # of connection points: 2
#     Edge 16, Type (0, 0), BuildingBlock: XUDNAN_clean_linker_2, # of connection points: 2
#     Edge 17, Type (0, 0), BuildingBlock: XUDNAN_clean_linker_2, # of connection points: 2
#     Edge 18, Type (0, 0), BuildingBlock: XUDNAN_clean_linker_2, # of connection points: 2
#     Edge 19, Type (0, 0), BuildingBlock: XUDNAN_clean_linker_2, # of connection points: 2
#     Edge 20, Type (0, 0), BuildingBlock: XUDNAN_clean_linker_2, # of connection points: 2
#     Edge 21, Type (0, 0), BuildingBlock: XUDNAN_clean_linker_2, # of connection points: 2
#     Edge 22, Type (0, 0), BuildingBlock: XUDNAN_clean_linker_2, # of connection points: 2
#     Edge 23, Type (0, 0), BuildingBlock: XUDNAN_clean_linker_2, # of connection points: 2
#     Edge 24, Type (0, 0), BuildingBlock: XUDNAN_clean_linker_2, # of connection points: 2
#     Edge 25, Type (0, 0), BuildingBlock: XUDNAN_clean_linker_2, # of connection points: 2
#     Edge 26, Type (0, 0), BuildingBlock: XUDNAN_clean_linker_2, # of connection points: 2
#     Edge 27, Type (0, 0), BuildingBlock: XUDNAN_clean_linker_2, # of connection points: 2
#     Edge 28, Type (0, 0), BuildingBlock: XUDNAN_clean_linker_2, # of connection points: 2
#     Edge 29, Type (0, 0), BuildingBlock: XUDNAN_clean_linker_2, # of connection points: 2
#     Edge 30, Type (0, 0), BuildingBlock: XUDNAN_clean_linker_2, # of connection points: 2
#     Edge 31, Type (0, 0), BuildingBlock: XUDNAN_clean_linker_2, # of connection points: 2
#     Edge 32, Type (0, 0), BuildingBlock: XUDNAN_clean_linker_2, # of connection points: 2
#     Edge 33, Type (0, 0), BuildingBlock: XUDNAN_clean_linker_2, # of connection points: 2
#     Edge 34, Type (0, 0), BuildingBlock: XUDNAN_clean_linker_2, # of connection points: 2
#     Edge 35, Type (0, 0), BuildingBlock: XUDNAN_clean_linker_2, # of connection points: 2
#     Edge 36, Type (0, 0), BuildingBlock: XUDNAN_clean_linker_2, # of connection points: 2
#     Edge 37, Type (0, 0), BuildingBlock: XUDNAN_clean_linker_2, # of connection points: 2
#     Edge 38, Type (0, 0), BuildingBlock: XUDNAN_clean_linker_2, # of connection points: 2
#     Edge 39, Type (0, 0), BuildingBlock: XUDNAN_clean_linker_2, # of connection points: 2
# Relax obj value: 0.072
# Max RMSD: 0.174
# Mean RMSD: 0.174
data_MOF--net-lhb--node1-EBIMEJ_clean_sbu_0--edge1-XUDNAN_clean_linker_2
_symmetry_space_group_name_H-M    P1
_symmetry_Int_Tables_number       1
_symmetry_cell_setting            triclinic
loop_
_symmetry_equiv_pos_as_xyz
'x, y, z'
_cell_length_a     31.267875
_cell_length_b     15.620782
_cell_length_c     67.356766
_cell_angle_alpha  81.319177
_cell_angle_beta   90.151545
_cell_angle_gamma 90.110642
loop_
_atom_site_label
_atom_site_type_symbol
_atom_site_fract_x
_atom_site_fract_y
_atom_site_fract_z
_atom_type_partial_charge
Co0 Co 0.99155 0.93547 0.98732 0.0
Co1 Co 0.0725 -0.01269 1.01418 0.0
Co2 Co 0.99026 0.92901 0.0345 0.0
H3 H 0.99773 0.9534 1.01132 0.0
O4 O 0.01107 0.00152 1.00811 0.0
H5 H 0.06257 -0.01658 0.03785 0.0
O6 O 0.05103 0.93405 0.04201 0.0
Co7 Co 0.06488 0.01697 0.061 0.0
O8 O 0.12615 0.04675 0.05002 0.0
O9 O 0.13286 -0.01915 0.0227 0.0
O10 O 0.02102 0.94586 0.08046 0.0
O11 O 0.97569 0.87736 0.06191 0.0
O12 O 0.9727 0.93231 0.95795 0.0
O13 O 0.95004 0.02795 0.97341 0.0
O14 O 0.04354 0.12753 0.04503 0.0
O15 O 0.07324 0.1144 1.01556 0.0
C16 C 0.91418 0.88066 1.0118 0.0
C17 C 0.07943 0.96966 0.97041 0.0
C18 C 0.08465 0.06949 0.0935 0.0
C19 C 0.02553 0.78742 1.01393 0.0
C20 C 0.14861 0.0244 0.03565 0.0
C21 C 0.98929 0.8944 0.07878 0.0
C22 C 0.94951 -0.00186 0.9571 0.0
C23 C 0.05666 0.16022 0.02769 0.0
O24 O 0.93713 0.8746 0.99652 0.0
O25 O 0.92833 0.9154 0.02661 0.0
O26 O 0.09111 0.01193 0.98463 0.0
O27 O 0.04476 0.92637 0.97134 0.0
O28 O 0.05696 0.10344 0.08125 0.0
O29 O 0.10083 0.0044 0.08748 0.0
O30 O 0.03028 0.83756 0.99747 0.0
O31 O 1.00394 0.80973 0.0284 0.0
Co32 Co 0.21698 0.27356 0.31073 0.0
Co33 Co 0.29267 0.18822 0.28506 0.0
Co34 Co 0.21192 0.24269 0.26325 0.0
H35 H 0.21998 0.24011 0.28731 0.0
O36 O 0.23148 0.19107 0.29159 0.0
H37 H 0.28641 0.20206 0.26164 0.0
O38 O 0.27357 0.24984 0.25741 0.0
Co39 Co 0.29557 0.17396 0.23869 0.0
O40 O 0.35024 0.11525 0.25054 0.0
O41 O 0.35434 0.17794 0.27816 0.0
O42 O 0.24053 0.16664 0.22302 0.0
O43 O 0.19608 0.26401 0.23354 0.0
O44 O 0.23372 0.31924 0.33717 0.0
O45 O 0.17021 0.29831 0.33155 0.0
O46 O 0.2689 0.06021 0.24936 0.0
O47 O 0.28133 0.065 0.28181 0.0
C48 C 0.13551 0.29015 0.28361 0.0
C49 C 0.2922 0.15849 0.32994 0.0
C50 C 0.33499 0.24022 0.20791 0.0
C51 C 0.23814 0.40153 0.27749 0.0
C52 C 0.37048 0.13094 0.2661 0.0
C53 C 0.20694 0.21383 0.22075 0.0
C54 C 0.19634 0.32333 0.3437 0.0
C55 C 0.26888 0.02517 0.26762 0.0
O56 O 0.15749 0.31044 0.29844 0.0
O57 O 0.15094 0.24463 0.27097 0.0
O58 O 0.30718 0.1455 0.31307 0.0
O59 O 0.25891 0.20538 0.33159 0.0
O60 O 0.32154 0.16365 0.21083 0.0
O61 O 0.32631 0.27863 0.22249 0.0
O62 O 0.25504 0.35167 0.29196 0.0
O63 O 0.21493 0.36989 0.26482 0.0
Co64 Co 0.72432 0.78256 0.31006 0.0
Co65 Co 0.79596 0.69357 0.28365 0.0
Co66 Co 0.71317 0.75477 0.26272 0.0
H67 H 0.72374 0.74931 0.28658 0.0
O68 O 0.73485 0.69967 0.29075 0.0
H69 H 0.7869 0.70662 0.26044 0.0
O70 O 0.77485 0.75529 0.25613 0.0
Co71 Co 0.79111 0.67594 0.23744 0.0
O72 O 0.84731 0.6234 0.24748 0.0
O73 O 0.8577 0.67811 0.27591 0.0
O74 O 0.73693 0.68262 0.22108 0.0
O75 O 0.69501 0.77998 0.23314 0.0
O76 O 0.70948 0.88507 0.32531 0.0
O77 O 0.70247 0.7604 0.33984 0.0
O78 O 0.76116 0.56748 0.24982 0.0
O79 O 0.78369 0.57096 0.28107 0.0
C80 C 0.63866 0.79782 0.28629 0.0
C81 C 0.79913 0.66848 0.32864 0.0
C82 C 0.82841 0.71112 0.20445 0.0
C83 C 0.74785 0.90646 0.27676 0.0
C84 C 0.87119 0.63719 0.26202 0.0
C85 C 0.7049 0.73366 0.21938 0.0
C86 C 0.69893 0.83917 0.34147 0.0
C87 C 0.76608 0.53196 0.2679 0.0
O88 O 0.66313 0.81095 0.30084 0.0
O89 O 0.65201 0.7646 0.2711 0.0
O90 O 0.81217 0.65155 0.3117 0.0
O91 O 0.76715 0.71818 0.33047 0.0
O92 O 0.80064 0.65313 0.2086 0.0
O93 O 0.83539 0.75 0.21917 0.0
O94 O 0.76431 0.85218 0.29055 0.0
O95 O 0.72082 0.8804 0.2648 0.0
Co96 Co 0.98797 0.43875 0.48937 0.0
Co97 Co 0.06993 0.4963 0.51435 0.0
Co98 Co 0.98828 0.4411 0.53668 0.0
H99 H 0.99454 0.461 0.51318 0.0
O100 O 1.00774 0.50888 0.50933 0.0
H101 H 0.06195 0.49447 0.53797 0.0
O102 O 0.05017 0.44593 0.54277 0.0
Co103 Co 0.06727 0.53125 0.56059 0.0
O104 O 0.12748 0.56018 0.5488 0.0
O105 O 0.13125 0.49194 0.52174 0.0
O106 O 0.02935 0.45287 0.58083 0.0
O107 O 0.97496 0.39452 0.56512 0.0
O108 O 0.97666 0.4128 0.46093 0.0
O109 O 0.94456 0.51426 0.47083 0.0
O110 O 0.04202 0.63778 0.54459 0.0
O111 O 0.07061 0.62441 0.51495 0.0
C112 C 0.90928 0.39873 0.51491 0.0
C113 C 0.07444 0.47492 0.47044 0.0
C114 C 0.0868 0.58265 0.59334 0.0
C115 C 0.02294 0.29749 0.51739 0.0
C116 C 0.14856 0.53557 0.53431 0.0
C117 C 0.99512 0.40702 0.58101 0.0
C118 C 0.95032 0.47302 0.45642 0.0
C119 C 0.05381 0.67023 0.52704 0.0
O120 O 0.93068 0.39232 0.49916 0.0
O121 O 0.92562 0.42866 0.52996 0.0
O122 O 0.08687 0.51755 0.48449 0.0
O123 O 0.0395 0.43235 0.47174 0.0
O124 O 0.05113 0.59358 0.5847 0.0
O125 O 0.1115 0.54182 0.58344 0.0
O126 O 0.02984 0.34899 0.50133 0.0
O127 O 0.99961 0.31962 0.53132 0.0
Co128 Co 0.2206 0.7876 0.8098 0.0
Co129 Co 0.29771 0.69403 0.78652 0.0
Co130 Co 0.21617 0.75066 0.76383 0.0
H131 H 0.22452 0.74897 0.78737 0.0
O132 O 0.23588 0.70038 0.79237 0.0
H133 H 0.29101 0.71118 0.76286 0.0
O134 O 0.27839 0.75956 0.75879 0.0
Co135 Co 0.29712 0.68676 0.73915 0.0
O136 O 0.35416 0.64189 0.7491 0.0
O137 O 0.36009 0.67902 0.77982 0.0
O138 O 0.24381 0.67857 0.72264 0.0
O139 O 0.19938 0.77235 0.73407 0.0
O140 O 0.23636 0.85054 0.83386 0.0
O141 O 0.17556 0.80084 0.83201 0.0
O142 O 0.26754 0.57678 0.75025 0.0
O143 O 0.28489 0.57203 0.78262 0.0
C144 C 0.13799 0.78955 0.78454 0.0
C145 C 0.29251 0.66742 0.83117 0.0
C146 C 0.33305 0.72566 0.70586 0.0
C147 C 0.23842 0.91697 0.77674 0.0
C148 C 0.37589 0.64878 0.76475 0.0
C149 C 0.21022 0.72512 0.7207 0.0
C150 C 0.20035 0.841 0.8421 0.0
C151 C 0.26952 0.53746 0.76813 0.0
O152 O 0.15974 0.81385 0.7989 0.0
O153 O 0.15477 0.74896 0.77128 0.0
O154 O 0.31143 0.64974 0.8154 0.0
O155 O 0.25938 0.71603 0.83043 0.0
O156 O 0.30578 0.66684 0.71008 0.0
O157 O 0.34029 0.7638 0.72068 0.0
O158 O 0.25606 0.87388 0.79197 0.0
O159 O 0.21629 0.8786 0.76486 0.0
Co160 Co 0.71751 0.28854 0.80852 0.0
Co161 Co 0.79341 0.18513 0.78567 0.0
Co162 Co 0.7129 0.24715 0.76275 0.0
H163 H 0.72119 0.24769 0.78626 0.0
O164 O 0.73185 0.19885 0.79154 0.0
H165 H 0.78723 0.20307 0.76195 0.0
O166 O 0.7752 0.25205 0.75785 0.0
Co167 Co 0.79391 0.17961 0.73815 0.0
O168 O 0.84313 0.10846 0.75016 0.0
O169 O 0.85503 0.15816 0.77904 0.0
O170 O 0.74231 0.18054 0.72022 0.0
O171 O 0.69612 0.26768 0.733 0.0
O172 O 0.73123 0.35284 0.83261 0.0
O173 O 0.6719 0.29704 0.83096 0.0
O174 O 0.7606 0.07329 0.7491 0.0
O175 O 0.77583 0.06563 0.78186 0.0
C176 C 0.63564 0.29443 0.78258 0.0
C177 C 0.79252 0.17592 0.82981 0.0
C178 C 0.84102 0.22811 0.70838 0.0
C179 C 0.73674 0.4139 0.77491 0.0
C180 C 0.86623 0.11258 0.76556 0.0
C181 C 0.70784 0.22444 0.71903 0.0
C182 C 0.69553 0.33978 0.84101 0.0
C183 C 0.76016 0.03366 0.76704 0.0
O184 O 0.65749 0.31826 0.79697 0.0
O185 O 0.65159 0.2494 0.76999 0.0
O186 O 0.80648 0.1428 0.81473 0.0
O187 O 0.76166 0.23036 0.82843 0.0
O188 O 0.85387 0.19496 0.72543 0.0
O189 O 0.8011 0.23587 0.70817 0.0
O190 O 0.75416 0.37069 0.79018 0.0
O191 O 0.71448 0.37542 0.76311 0.0
Co192 Co 0.49475 0.92303 0.48698 0.0
Co193 Co 0.57036 0.00027 0.5125 0.0
Co194 Co 0.48896 0.93696 0.53344 0.0
H195 H 0.4976 0.95233 0.51015 0.0
O196 O 0.50893 0.00198 0.50608 0.0
H197 H 0.56071 -0.00354 0.5363 0.0
O198 O 0.54984 0.94677 0.54063 0.0
Co199 Co 0.56211 0.03067 0.55961 0.0
O200 O 0.6217 0.07152 0.54822 0.0
O201 O 0.63079 0.00584 0.52093 0.0
O202 O 0.51921 0.96278 0.57982 0.0
O203 O 0.47383 0.89354 0.56149 0.0
O204 O 0.48728 0.91175 0.45726 0.0
O205 O 0.44902 -0.00231 0.46972 0.0
O206 O 0.52384 0.10711 0.54058 0.0
O207 O 0.56535 0.12696 0.51408 0.0
C208 C 0.41537 0.87513 0.51142 0.0
C209 C 0.58173 0.97008 0.47045 0.0
C210 C 0.58292 0.07898 0.59258 0.0
C211 C 0.52297 0.78011 0.51709 0.0
C212 C 0.6448 0.0523 0.53371 0.0
C213 C 0.48731 0.91184 0.57829 0.0
C214 C 0.45778 0.96644 0.4541 0.0
C215 C 0.54116 0.1578 0.52641 0.0
O216 O 0.43969 0.86558 0.49678 0.0
O217 O 0.42763 0.91629 0.52556 0.0
O218 O 0.58805 0.0244 0.4829 0.0
O219 O 0.55128 0.91513 0.47289 0.0
O220 O 0.5454 0.07407 0.58619 0.0
O221 O 0.60904 0.05569 0.58029 0.0
O222 O 0.52701 0.81753 0.49912 0.0
O223 O 0.50405 0.81549 0.53049 0.0
Co224 Co 0.48968 0.41947 0.9893 0.0
Co225 Co 0.56941 0.49364 1.01323 0.0
Co226 Co 0.48928 0.43258 0.03626 0.0
H227 H 0.49576 0.44712 1.01267 0.0
O228 O 0.50734 0.49625 1.00827 0.0
H229 H 0.56167 0.49376 0.03689 0.0
O230 O 0.55106 0.44474 0.04211 0.0
Co231 Co 0.56515 0.53495 0.05922 0.0
O232 O 0.62513 0.56717 0.04738 0.0
O233 O 0.6306 0.49812 1.02041 0.0
O234 O 0.51907 0.48296 0.07918 0.0
O235 O 0.4759 0.39226 0.06527 0.0
O236 O 0.47999 0.43557 0.95837 0.0
O237 O 0.43672 0.48535 0.97678 0.0
O238 O 0.52512 0.60559 0.04007 0.0
O239 O 0.56627 0.62187 1.0137 0.0
C240 C 0.41346 0.37003 1.01558 0.0
C241 C 0.5749 0.46509 0.97016 0.0
C242 C 0.58618 0.58743 0.09183 0.0
C243 C 0.52056 0.27562 1.01902 0.0
C244 C 0.64673 0.54386 0.03287 0.0
C245 C 0.48844 0.42759 0.08028 0.0
C246 C 0.44567 0.47642 0.95906 0.0
C247 C 0.5423 0.65503 0.02571 0.0
O248 O 0.43646 0.35907 1.00058 0.0
O249 O 0.42726 0.41087 0.02951 0.0
O250 O 0.58513 0.51412 0.98332 0.0
O251 O 0.54252 0.41488 0.97249 0.0
O252 O 0.61238 0.56384 0.07959 0.0
O253 O 0.54876 0.58054 0.08555 0.0
O254 O 0.52182 0.31295 1.00092 0.0
O255 O 0.50435 0.31103 0.03316 0.0
H256 H 0.14444 0.00481 0.12248 0.0
H257 H 0.05199 0.21114 0.10756 0.0
H258 H 0.0711 0.26947 0.13856 0.0
H259 H 0.12669 0.97271 0.17643 0.0
H260 H 0.18222 0.95235 0.18261 0.0
H261 H 0.16085 0.92587 0.15943 0.0
H262 H 0.21893 0.02073 0.13945 0.0
H263 H 0.24057 0.0471 0.16258 0.0
H264 H 0.22475 0.13244 0.14287 0.0
H265 H 0.10106 0.30637 0.17198 0.0
H266 H 0.1407 0.31924 0.20344 0.0
H267 H 0.21354 0.08989 0.19604 0.0
C268 C 0.12811 0.06209 0.12577 0.0
C269 C 0.09647 0.10306 0.1125 0.0
C270 C 0.07613 0.17818 0.11743 0.0
C271 C 0.0868 0.21192 0.13507 0.0
C272 C 0.11802 0.17012 0.14784 0.0
C273 C 0.13843 0.09679 0.14337 0.0
C274 C 0.17123 0.06468 0.15946 0.0
C275 C 0.15954 0.97352 0.17011 0.0
C276 C 0.21654 0.06639 0.15055 0.0
C277 C 0.16638 0.13172 0.1735 0.0
C278 C 0.13537 0.19179 0.1667 0.0
C279 C 0.12547 0.25954 0.17739 0.0
C280 C 0.14809 0.26641 0.19531 0.0
C281 C 0.1806 0.20634 0.20237 0.0
C282 C 0.18924 0.13788 0.19119 0.0
H283 H 0.99203 0.93022 0.1184 0.0
H284 H 0.92967 0.76688 0.08001 0.0
H285 H 0.88334 0.70656 0.10771 0.0
H286 H 0.9886 0.76892 0.16424 0.0
H287 H 0.97771 0.84745 0.18062 0.0
H288 H 1.00767 0.87858 0.15784 0.0
H289 H 0.95364 0.00168 0.14662 0.0
H290 H 0.92343 0.97073 0.16932 0.0
H291 H 0.89753 0.97635 0.14522 0.0
H292 H 0.84203 0.66493 0.13824 0.0
H293 H 0.80881 0.63915 0.17158 0.0
H294 H 0.89542 0.82525 0.19215 0.0
C295 C 0.96905 0.8809 0.11595 0.0
C296 C 0.96488 0.85377 0.09683 0.0
C297 C 0.93391 0.7895 0.09432 0.0
C298 C 0.90717 0.75444 0.11003 0.0
C299 C 0.91158 0.78322 0.12843 0.0
C300 C 0.94177 0.84435 0.13168 0.0
C301 C 0.93889 0.86312 0.15321 0.0
C302 C 0.98071 0.83801 0.16465 0.0
C303 C 0.92769 0.95865 0.15361 0.0
C304 C 0.9022 0.80335 0.16129 0.0
C305 C 0.8872 0.75821 0.14658 0.0
C306 C 0.85359 0.69938 0.14997 0.0
C307 C 0.83486 0.68524 0.169 0.0
C308 C 0.84944 0.72987 0.18452 0.0
C309 C 0.88357 0.79015 0.18058 0.0
H310 H 0.04772 0.42339 0.43514 0.0
H311 H 0.16132 0.50828 0.4638 0.0
H312 H 0.20446 0.47974 0.43454 0.0
H313 H 0.09569 0.24988 0.41483 0.0
H314 H 0.06475 0.26628 0.39196 0.0
H315 H 0.0431 0.29717 0.41458 0.0
H316 H 0.03116 0.45322 0.3963 0.0
H317 H 0.05239 0.42253 0.37357 0.0
H318 H 0.07538 0.51252 0.38377 0.0
H319 H 0.2357 0.43328 0.4023 0.0
H320 H 0.2515 0.38309 0.37002 0.0
H321 H 0.11683 0.33007 0.36224 0.0
C322 C 0.08163 0.43712 0.43532 0.0
C323 C 0.10089 0.46877 0.452 0.0
C324 C 0.14549 0.48523 0.4513 0.0
C325 C 0.17029 0.46852 0.43473 0.0
C326 C 0.15018 0.43582 0.41879 0.0
C327 C 0.10666 0.42117 0.41893 0.0
C328 C 0.09248 0.38504 0.40017 0.0
C329 C 0.07285 0.29421 0.40572 0.0
C330 C 0.06099 0.44703 0.38771 0.0
C331 C 0.13486 0.38119 0.38929 0.0
C332 C 0.1678 0.41042 0.40034 0.0
C333 C 0.20997 0.41115 0.39356 0.0
C334 C 0.21866 0.38232 0.37512 0.0
C335 C 0.18553 0.35298 0.36334 0.0
C336 C 0.14298 0.35248 0.3707 0.0
H337 H 0.79568 0.70425 0.36804 0.0
H338 H 0.85871 0.54109 0.33006 0.0
H339 H 0.90257 0.4767 0.35849 0.0
H340 H 0.88988 0.74404 0.39647 0.0
H341 H 0.86231 0.73978 0.42007 0.0
H342 H 0.83421 0.77359 0.39683 0.0
H343 H 0.77726 0.65467 0.40681 0.0
H344 H 0.80513 0.62053 0.4301 0.0
H345 H 0.79389 0.54351 0.41336 0.0
H346 H 0.94003 0.42891 0.38996 0.0
H347 H 0.97023 0.39915 0.42394 0.0
H348 H 0.88611 0.5919 0.44313 0.0
C349 C 0.81844 0.65446 0.36579 0.0
C350 C 0.82345 0.62803 0.34667 0.0
C351 C 0.85399 0.56305 0.3444 0.0
C352 C 0.87922 0.52569 0.36051 0.0
C353 C 0.87382 0.55343 0.37898 0.0
C354 C 0.84433 0.6161 0.38186 0.0
C355 C 0.84601 0.63396 0.40347 0.0
C356 C 0.85888 0.72845 0.40425 0.0
C357 C 0.80302 0.61182 0.41406 0.0
C358 C 0.88101 0.57131 0.41211 0.0
C359 C 0.89631 0.52576 0.39757 0.0
C360 C 0.92835 0.46391 0.40153 0.0
C361 C 0.94531 0.44747 0.42093 0.0
C362 C 0.93059 0.49301 0.43622 0.0
C363 C 0.898 0.5561 0.43173 0.0
H364 H 0.1631 0.56485 0.61471 0.0
H365 H 0.03492 0.66856 0.61645 0.0
H366 H 0.05177 0.71959 0.64863 0.0
H367 H 0.17324 0.49041 0.66805 0.0
H368 H 0.22895 0.51939 0.669 0.0
H369 H 0.20652 0.49109 0.64621 0.0
H370 H 0.23238 0.63741 0.62665 0.0
H371 H 0.25475 0.66616 0.64937 0.0
H372 H 0.21676 0.73701 0.63508 0.0
H373 H 0.08372 0.76045 0.68153 0.0
H374 H 0.12688 0.78226 0.71145 0.0
H375 H 0.23354 0.65249 0.68763 0.0
C376 C 0.13855 0.59827 0.62185 0.0
C377 C 0.0976 0.61273 0.6129 0.0
C378 C 0.06653 0.65674 0.62288 0.0
C379 C 0.07584 0.68606 0.64123 0.0
C380 C 0.11652 0.67122 0.64963 0.0
C381 C 0.14733 0.62802 0.64023 0.0
C382 C 0.18858 0.62021 0.65232 0.0
C383 C 0.19997 0.52461 0.65931 0.0
C384 C 0.22527 0.66807 0.64012 0.0
C385 C 0.17621 0.66537 0.66996 0.0
C386 C 0.13459 0.69466 0.66822 0.0
C387 C 0.11643 0.7378 0.68296 0.0
C388 C 0.14124 0.7504 0.69992 0.0
C389 C 0.18388 0.71975 0.70214 0.0
C390 C 0.2012 0.67728 0.68668 0.0
H391 H 0.82069 0.30109 0.66917 0.0
H392 H 0.92658 0.20239 0.70776 0.0
H393 H 0.97595 0.23267 0.67917 0.0
H394 H 0.85554 0.21852 0.62473 0.0
H395 H 0.84039 0.31262 0.60723 0.0
H396 H 0.81182 0.28569 0.63049 0.0
H397 H 0.82702 0.43647 0.63997 0.0
H398 H 0.85469 0.46586 0.6165 0.0
H399 H 0.8813 0.47564 0.63982 0.0
H400 H 0.0148 0.27725 0.64732 0.0
H401 H 0.04101 0.33254 0.61324 0.0
H402 H 0.91118 0.39829 0.59391 0.0
C403 C 0.85429 0.28608 0.67155 0.0
C404 C 0.86979 0.24956 0.69079 0.0
C405 C 0.91395 0.23073 0.69326 0.0
C406 C 0.9423 0.24751 0.67708 0.0
C407 C 0.92622 0.28328 0.65838 0.0
C408 C 0.88333 0.3026 0.65543 0.0
C409 C 0.87505 0.34219 0.63367 0.0
C410 C 0.84387 0.28632 0.62343 0.0
C411 C 0.85854 0.43557 0.63242 0.0
C412 C 0.91985 0.34053 0.62494 0.0
C413 C 0.94881 0.30707 0.63959 0.0
C414 C 0.99242 0.30282 0.63564 0.0
C415 C 1.00703 0.3343 0.61626 0.0
C416 C 0.97814 0.36828 0.60089 0.0
C417 C 0.93386 0.37066 0.60527 0.0
H418 H 0.12572 0.81433 0.86429 0.0
H419 H 0.25081 0.93448 0.86423 0.0
H420 H 0.23438 -0.01645 0.89662 0.0
H421 H 0.06727 0.97674 0.88585 0.0
H422 H 0.03321 0.8996 0.90091 0.0
H423 H 0.05476 0.87483 0.87768 0.0
H424 H 0.08755 0.73336 0.89661 0.0
H425 H 0.0661 0.75789 0.91988 0.0
H426 H 0.12256 0.73842 0.91771 0.0
H427 H 0.20335 0.02002 0.92999 0.0
H428 H 0.16118 0.03622 0.9605 0.0
H429 H 0.05744 0.89192 0.93803 0.0
C430 C 0.14959 0.85128 0.87104 0.0
C431 C 0.18956 0.87085 0.86158 0.0
C432 C 0.21994 0.9188 0.87109 0.0
C433 C 0.21088 0.94704 0.88954 0.0
C434 C 0.17121 0.92685 0.8985 0.0
C435 C 0.1411 0.87975 0.88954 0.0
C436 C 0.10118 0.86517 0.90237 0.0
C437 C 0.0618 0.90658 0.89102 0.0
C438 C 0.09395 0.76796 0.90957 0.0
C439 C 0.11333 0.91216 0.91975 0.0
C440 C 0.1538 0.94727 0.91741 0.0
C441 C 0.17153 -0.00725 0.9319 0.0
C442 C 0.14733 0.00198 0.94921 0.0
C443 C 0.10579 0.96588 0.95192 0.0
C444 C 0.08899 0.92091 0.93673 0.0
H445 H 0.85284 0.04773 0.84449 0.0
H446 H 0.78077 0.26416 0.86113 0.0
H447 H 0.81394 0.24211 0.89415 0.0
H448 H 0.84556 0.9145 0.89352 0.0
H449 H 0.89901 0.8717 0.89321 0.0
H450 H 0.87065 0.90373 0.86996 0.0
H451 H 0.93279 0.00631 0.85694 0.0
H452 H 0.96142 0.97453 0.88012 0.0
H453 H 0.95045 0.08733 0.87157 0.0
H454 H 0.85306 0.20071 0.92537 0.0
H455 H 0.89669 0.13683 0.95428 0.0
H456 H 0.94475 0.94429 0.91974 0.0
C457 C 0.8441 0.09027 0.8551 0.0
C458 C 0.81368 0.15744 0.84993 0.0
C459 C 0.80336 0.21157 0.86442 0.0
C460 C 0.82226 0.20001 0.88339 0.0
C461 C 0.85165 0.13369 0.88803 0.0
C462 C 0.86266 0.07923 0.87448 0.0
C463 C 0.89485 0.01197 0.88399 0.0
C464 C 0.87641 0.92002 0.88524 0.0
C465 C 0.93741 0.0206 0.87247 0.0
C466 C 0.89983 0.03794 0.90482 0.0
C467 C 0.87456 0.10863 0.90662 0.0
C468 C 0.87306 0.14521 0.92422 0.0
C469 C 0.89797 0.10847 0.94058 0.0
C470 C 0.92405 0.03565 0.93931 0.0
C471 C 0.92505 -1e-05 0.92114 0.0
H472 H 0.7339 0.17631 0.68344 0.0
H473 H 0.62111 0.25853 0.71284 0.0
H474 H 0.5771 0.23142 0.68364 0.0
H475 H 0.70501 0.26771 0.63245 0.0
H476 H 0.72766 0.17851 0.62191 0.0
H477 H 0.74932 0.2078 0.64478 0.0
H478 H 0.73775 0.05126 0.66262 0.0
H479 H 0.71552 0.02151 0.63993 0.0
H480 H 0.68512 0.00379 0.66289 0.0
H481 H 0.54492 0.18537 0.65159 0.0
H482 H 0.52818 0.13611 0.61925 0.0
H483 H 0.66273 0.08637 0.61063 0.0
C484 C 0.69997 0.18983 0.68377 0.0
C485 C 0.68112 0.22022 0.70061 0.0
C486 C 0.63655 0.23651 0.70016 0.0
C487 C 0.61127 0.22055 0.68365 0.0
C488 C 0.63095 0.18884 0.66756 0.0
C489 C 0.67446 0.17457 0.66747 0.0
C490 C 0.68811 0.13949 0.64857 0.0
C491 C 0.71936 0.20215 0.63617 0.0
C492 C 0.70777 0.04863 0.65383 0.0
C493 C 0.64545 0.13598 0.63787 0.0
C494 C 0.6128 0.16414 0.64915 0.0
C495 C 0.5704 0.16424 0.64263 0.0
C496 C 0.56118 0.13595 0.62419 0.0
C497 C 0.59406 0.10793 0.61219 0.0
C498 C 0.63681 0.10795 0.61928 0.0
H499 H 0.49116 0.94953 0.61773 0.0
H500 H 0.42716 0.78505 0.58011 0.0
H501 H 0.38247 0.724 0.6084 0.0
H502 H 0.49064 0.78943 0.66357 0.0
H503 H 0.48022 0.86771 0.68007 0.0
H504 H 0.50878 0.89963 0.65691 0.0
H505 H 0.45361 0.02104 0.64634 0.0
H506 H 0.42478 -0.01052 0.66942 0.0
H507 H 0.39756 -0.0058 0.64565 0.0
H508 H 0.34416 0.6793 0.63962 0.0
H509 H 0.31335 0.65166 0.67343 0.0
H510 H 0.39855 0.84324 0.6927 0.0
C511 C 0.46807 0.90002 0.61554 0.0
C512 C 0.46305 0.87245 0.5965 0.0
C513 C 0.43202 0.80792 0.59435 0.0
C514 C 0.40625 0.77243 0.6104 0.0
C515 C 0.4116 0.80131 0.62876 0.0
C516 C 0.44166 0.86327 0.6316 0.0
C517 C 0.43985 0.88213 0.65316 0.0
C518 C 0.48241 0.85829 0.66408 0.0
C519 C 0.42825 0.97738 0.65366 0.0
C520 C 0.40393 0.82135 0.66175 0.0
C521 C 0.38849 0.77552 0.64724 0.0
C522 C 0.35586 0.71475 0.65114 0.0
C523 C 0.33844 0.69969 0.67043 0.0
C524 C 0.35315 0.74554 0.68571 0.0
C525 C 0.38645 0.80749 0.6813 0.0
H526 H 0.55277 0.38473 0.93802 0.0
H527 H 0.65465 0.53786 0.95907 0.0
H528 H 0.69615 0.52346 0.9283 0.0
H529 H 0.61912 0.23541 0.91731 0.0
H530 H 0.58385 0.22755 0.89645 0.0
H531 H 0.56247 0.25217 0.91973 0.0
H532 H 0.52764 0.39136 0.90085 0.0
H533 H 0.54881 0.36723 0.87748 0.0
H534 H 0.56035 0.46997 0.88543 0.0
H535 H 0.72737 0.4867 0.89509 0.0
H536 H 0.74435 0.43708 0.86287 0.0
H537 H 0.62108 0.30913 0.86363 0.0
C538 C 0.58374 0.41605 0.9363 0.0
C539 C 0.60023 0.46288 0.95124 0.0
C540 C 0.641 0.5022 0.94799 0.0
C541 C 0.66485 0.49397 0.93053 0.0
C542 C 0.64757 0.44653 0.91631 0.0
C543 C 0.60773 0.40866 0.91904 0.0
C544 C 0.59605 0.36043 0.90175 0.0
C545 C 0.59003 0.26314 0.90926 0.0
C546 C 0.55585 0.39961 0.89072 0.0
C547 C 0.6356 0.37688 0.88865 0.0
C548 C 0.66503 0.42638 0.89735 0.0
C549 C 0.70434 0.44846 0.8882 0.0
C550 C 0.71373 0.41983 0.86983 0.0
C551 C 0.68408 0.36948 0.86051 0.0
C552 C 0.64442 0.34791 0.87019 0.0
H553 H 0.46282 0.48436 0.91824 0.0
H554 H 0.36464 0.53565 0.96037 0.0
H555 H 0.31568 0.58319 0.93226 0.0
H556 H 0.43825 0.6701 0.88051 0.0
H557 H 0.44821 0.61461 0.85938 0.0
H558 H 0.47604 0.58209 0.88275 0.0
H559 H 0.44858 0.42547 0.88353 0.0
H560 H 0.42055 0.45776 0.8602 0.0
H561 H 0.39192 0.4058 0.88195 0.0
H562 H 0.27707 0.62425 0.90068 0.0
H563 H 0.25049 0.6658 0.86645 0.0
H564 H 0.37237 0.59372 0.84275 0.0
C565 C 0.43096 0.50552 0.92146 0.0
C566 C 0.4175 0.50614 0.94158 0.0
C567 C 0.37573 0.53478 0.94518 0.0
C568 C 0.34759 0.56166 0.92929 0.0
C569 C 0.36158 0.56018 0.90974 0.0
C570 C 0.40228 0.53361 0.90561 0.0
C571 C 0.40893 0.54129 0.88296 0.0
C572 C 0.44499 0.60589 0.876 0.0
C573 C 0.41802 0.45226 0.8768 0.0
C574 C 0.3655 0.57602 0.87515 0.0
C575 C 0.33893 0.58571 0.89103 0.0
C576 C 0.29751 0.61708 0.8881 0.0
C577 C 0.28272 0.6406 0.86846 0.0
C578 C 0.30914 0.63335 0.85167 0.0
C579 C 0.35114 0.5995 0.85515 0.0
H580 H 0.66547 0.59712 0.11051 0.0
H581 H 0.53048 0.64724 0.11764 0.0
H582 H 0.54549 0.69781 0.14996 0.0
H583 H 0.68573 0.51728 0.16282 0.0
H584 H 0.73818 0.5651 0.163 0.0
H585 H 0.71706 0.53499 0.14014 0.0
H586 H 0.72905 0.69108 0.12199 0.0
H587 H 0.75001 0.72224 0.14479 0.0
H588 H 0.70569 0.78068 0.13211 0.0
H589 H 0.57578 0.74328 0.18254 0.0
H590 H 0.61825 0.76953 0.21235 0.0
H591 H 0.73273 0.69082 0.18369 0.0
C592 C 0.63912 0.61917 0.11882 0.0
C593 C 0.59671 0.61838 0.11133 0.0
C594 C 0.56323 0.64719 0.1229 0.0
C595 C 0.57146 0.67636 0.14134 0.0
C596 C 0.6135 0.67673 0.14829 0.0
C597 C 0.64679 0.6484 0.13739 0.0
C598 C 0.68892 0.65296 0.14849 0.0
C599 C 0.70861 0.56221 0.15394 0.0
C600 C 0.72026 0.71547 0.1361 0.0
C601 C 0.67416 0.68852 0.16717 0.0
C602 C 0.63061 0.70215 0.16685 0.0
C603 C 0.61002 0.73317 0.18284 0.0
C604 C 0.63441 0.74878 0.19969 0.0
C605 C 0.679 0.73295 0.20055 0.0
C606 C 0.69876 0.70391 0.18374 0.0
H607 H 0.35704 0.16827 0.17406 0.0
H608 H 0.36464 0.40532 0.20027 0.0
H609 H 0.40266 0.47669 0.17029 0.0
H610 H 0.46159 0.18705 0.15078 0.0
H611 H 0.445 0.1451 0.12847 0.0
H612 H 0.41768 0.11153 0.15188 0.0
H613 H 0.34561 0.16157 0.13498 0.0
H614 H 0.3728 0.19544 0.11154 0.0
H615 H 0.3402 0.27135 0.12238 0.0
H616 H 0.44057 0.52255 0.13852 0.0
H617 H 0.47667 0.54266 0.10594 0.0
H618 H 0.44569 0.27817 0.09851 0.0
C619 C 0.36669 0.23523 0.17342 0.0
C620 C 0.35786 0.28128 0.18958 0.0
C621 C 0.37103 0.3687 0.18817 0.0
C622 C 0.39264 0.40989 0.17116 0.0
C623 C 0.4009 0.36303 0.15557 0.0
C624 C 0.3884 0.27775 0.15641 0.0
C625 C 0.40197 0.24292 0.13741 0.0
C626 C 0.43343 0.16716 0.14244 0.0
C627 C 0.36281 0.21626 0.1259 0.0
C628 C 0.42404 0.32212 0.12585 0.0
C629 C 0.42294 0.39021 0.13679 0.0
C630 C 0.44171 0.46972 0.12983 0.0
C631 C 0.46252 0.48021 0.11129 0.0
C632 C 0.46466 0.41184 0.09965 0.0
C633 C 0.44457 0.33177 0.10698 0.0
H634 H 0.60018 0.82943 0.45226 0.0
H635 H 0.62157 0.10644 0.44606 0.0
H636 H 0.65461 0.10272 0.41265 0.0
H637 H 0.69988 0.77702 0.42765 0.0
H638 H 0.67484 0.69247 0.41624 0.0
H639 H 0.65542 0.7173 0.43988 0.0
H640 H 0.57956 0.74092 0.42469 0.0
H641 H 0.59869 0.71724 0.40093 0.0
H642 H 0.57175 0.81816 0.40224 0.0
H643 H 0.67976 0.06878 0.37821 0.0
H644 H 0.70094 0.00781 0.34789 0.0
H645 H 0.66556 0.75114 0.37715 0.0
C646 C 0.61249 0.88938 0.44406 0.0
C647 C 0.60835 0.96852 0.45196 0.0
C648 C 0.62481 0.04505 0.4406 0.0
C649 C 0.64332 0.04342 0.42149 0.0
C650 C 0.64582 0.96453 0.414 0.0
C651 C 0.63149 0.8886 0.42517 0.0
C652 C 0.6375 0.81215 0.41382 0.0
C653 C 0.66877 0.74583 0.42507 0.0
C654 C 0.59431 0.76966 0.41021 0.0
C655 C 0.65677 0.85681 0.39424 0.0
C656 C 0.66117 0.94479 0.39462 0.0
C657 C 0.67688 -9e-05 0.37797 0.0
C658 C 0.68877 0.96456 0.36072 0.0
C659 C 0.68531 0.87447 0.36003 0.0
C660 C 0.669 0.82013 0.37715 0.0
H661 H 0.39014 0.08096 0.44296 0.0
H662 H 0.47627 0.89995 0.42046 0.0
H663 H 0.44115 0.92785 0.38755 0.0
H664 H 0.29577 0.02731 0.4154 0.0
H665 H 0.27658 0.13703 0.4097 0.0
H666 H 0.30772 0.10416 0.4321 0.0
H667 H 0.36156 0.22794 0.42101 0.0
H668 H 0.33053 0.26124 0.39861 0.0
H669 H 0.38647 0.23608 0.39668 0.0
H670 H 0.39789 0.96896 0.35786 0.0
H671 H 0.35037 0.02989 0.33072 0.0
H672 H 0.29066 0.19238 0.36988 0.0
C673 C 0.4015 0.04751 0.43105 0.0
C674 C 0.43597 -0.01221 0.43436 0.0
C675 C 0.44996 0.94551 0.41839 0.0
C676 C 0.43015 0.96083 0.3996 0.0
C677 C 0.39626 0.01895 0.39683 0.0
C678 C 0.38197 0.06245 0.41191 0.0
C679 C 0.34501 0.12258 0.4043 0.0
C680 C 0.30383 0.09617 0.41608 0.0
C681 C 0.35661 0.2176 0.4052 0.0
C682 C 0.34117 0.10565 0.38264 0.0
C683 C 0.37107 0.04496 0.37897 0.0
C684 C 0.37442 0.01684 0.36047 0.0
C685 C 0.34705 0.05239 0.34508 0.0
C686 C 0.31662 0.11692 0.34792 0.0
C687 C 0.3133 0.14309 0.36717 0.0
H688 H 1.00755 0.64654 0.04238 0.0
H689 H 0.07867 0.72642 0.98731 0.0
H690 H 0.09628 0.57463 0.98558 0.0
H691 H 0.08019 0.46353 0.06217 0.0
H692 H 0.03624 0.39714 0.07275 0.0
H693 H 0.03335 0.51328 0.07099 0.0
H694 H 0.96223 0.51247 0.05121 0.0
H695 H 0.96519 0.39675 0.0525 0.0
H696 H 0.96075 0.46472 0.02846 0.0
H697 H 0.09932 0.41528 0.98744 0.0
H698 H 0.09376 0.25629 0.99484 0.0
H699 H 0.02163 0.27928 0.04888 0.0
C700 C 0.02772 0.63226 0.03026 0.0
C701 C 0.04146 0.69822 1.01494 0.0
C702 C 0.0675 0.67688 0.99918 0.0
C703 C 0.07778 0.59085 0.99804 0.0
C704 C 0.06226 0.52707 1.0129 0.0
C705 C 0.03849 0.54654 0.02892 0.0
C706 C 0.02428 0.46512 0.04236 0.0
C707 C 0.04475 0.45944 0.06331 0.0
C708 C 0.9752 0.45948 0.04369 0.0
C709 C 0.04237 0.39724 0.03093 0.0
C710 C 0.0644 0.4344 1.01407 0.0
C711 C 0.08265 0.3851 1.00075 0.0
C712 C 0.07899 0.29492 1.005 0.0
C713 C 0.05721 0.25528 0.02242 0.0
C714 C 0.03852 0.30749 0.03545 0.0
H715 H 0.23639 0.54078 0.24712 0.0
H716 H 0.23339 0.46969 0.31193 0.0
H717 H 0.23161 0.62304 0.31597 0.0
H718 H 0.30791 0.71158 0.2469 0.0
H719 H 0.2839 0.78229 0.22626 0.0
H720 H 0.27792 0.66688 0.22797 0.0
H721 H 0.19545 0.68377 0.22669 0.0
H722 H 0.20123 0.79954 0.22494 0.0
H723 H 0.16912 0.7405 0.24461 0.0
H724 H 0.23821 0.77994 0.31366 0.0
H725 H 0.25446 0.93511 0.30496 0.0
H726 H 0.25474 0.90857 0.24163 0.0
C727 C 0.23458 0.558 0.26208 0.0
C728 C 0.23528 0.49386 0.2792 0.0
C729 C 0.23343 0.51807 0.29861 0.0
C730 C 0.23195 0.60496 0.30109 0.0
C731 C 0.2324 0.66693 0.28399 0.0
C732 C 0.23368 0.64509 0.26484 0.0
C733 C 0.23833 0.72508 0.2492 0.0
C734 C 0.27946 0.72119 0.23687 0.0
C735 C 0.19866 0.73796 0.23556 0.0
C736 C 0.24113 0.79426 0.26269 0.0
C737 C 0.2368 0.75921 0.28265 0.0
C738 C 0.24104 0.80872 0.29807 0.0
C739 C 0.25052 0.89667 0.29297 0.0
C740 C 0.25587 0.93389 0.27262 0.0
C741 C 0.25039 0.88213 0.2573 0.0
H742 H 0.7281 0.04759 0.24852 0.0
H743 H 0.77447 0.97384 0.3096 0.0
H744 H 0.77172 0.125 0.315 0.0
H745 H 0.79489 0.23342 0.23945 0.0
H746 H 0.7572 0.29889 0.22355 0.0
H747 H 0.75602 0.1829 0.22513 0.0
H748 H 0.67615 0.18211 0.23539 0.0
H749 H 0.67728 0.29823 0.23406 0.0
H750 H 0.66051 0.231 0.25685 0.0
H751 H 0.76636 0.28033 0.31416 0.0
H752 H 0.77231 0.4378 0.30522 0.0
H753 H 0.73691 0.41737 0.2436 0.0
C754 C 0.73732 0.06353 0.26303 0.0
C755 C 0.75026 -0.00133 0.2788 0.0
C756 C 0.76345 0.022 0.29741 0.0
C757 C 0.76178 0.10773 0.30072 0.0
C758 C 0.74814 0.16986 0.28507 0.0
C759 C 0.7373 0.14972 0.26642 0.0
C760 C 0.72968 0.23102 0.25149 0.0
C761 C 0.76134 0.2369 0.23387 0.0
C762 C 0.68313 0.23583 0.24401 0.0
C763 C 0.73876 0.29939 0.26469 0.0
C764 C 0.74807 0.26213 0.28413 0.0
C765 C 0.75914 0.31073 0.29901 0.0
C766 C 0.76248 0.40018 0.29374 0.0
C767 C 0.75548 0.43982 0.27365 0.0
C768 C 0.74228 0.38892 0.25908 0.0
H769 H 0.00909 0.78546 0.54566 0.0
H770 H 0.0979 0.76974 0.49685 0.0
H771 H 0.10303 0.92929 0.49069 0.0
H772 H 0.95318 0.97598 0.52191 0.0
H773 H 0.9463 0.01851 0.54513 0.0
H774 H 0.94962 0.90332 0.54534 0.0
H775 H 0.01239 0.89613 0.57081 0.0
H776 H 0.00979 0.01164 0.57034 0.0
H777 H 0.05926 0.96193 0.56451 0.0
H778 H 0.10016 0.08875 0.49053 0.0
H779 H 0.08326 0.23988 0.49355 0.0
H780 H 0.99552 0.15198 0.54234 0.0
C781 C 0.02937 0.8155 0.53356 0.0
C782 C 0.0531 0.76525 0.52173 0.0
C783 C 0.07917 0.80701 0.506 0.0
C784 C 0.08258 0.89746 0.5025 0.0
C785 C 0.05956 0.9448 0.5148 0.0
C786 C 0.03298 0.90546 0.5298 0.0
C787 C 0.01098 0.97133 0.54059 0.0
C788 C 0.96213 0.96703 0.53808 0.0
C789 C 0.02389 0.95953 0.56289 0.0
C790 C 0.02924 0.05415 0.52924 0.0
C791 C 0.05753 0.03716 0.51458 0.0
C792 C 0.078 0.10294 0.5019 0.0
C793 C 0.0682 0.18856 0.5038 0.0
C794 C 0.03794 0.20765 0.51817 0.0
C795 C 0.01905 0.13943 0.53137 0.0
H796 H 0.2501 0.05364 0.7464 0.0
H797 H 0.21077 -0.01324 0.80847 0.0
H798 H 0.20609 0.14099 0.81177 0.0
H799 H 0.31773 0.21946 0.7538 0.0
H800 H 0.30539 0.29099 0.73093 0.0
H801 H 0.29862 0.17603 0.73208 0.0
H802 H 0.2193 0.19836 0.72131 0.0
H803 H 0.22593 0.31379 0.71993 0.0
H804 H 0.18439 0.25847 0.73539 0.0
H805 H 0.21698 0.29728 0.81033 0.0
H806 H 0.23843 0.45105 0.80331 0.0
H807 H 0.26872 0.42044 0.74192 0.0
C808 C 0.2395 0.07212 0.76045 0.0
C809 C 0.23138 0.00918 0.77728 0.0
C810 C 0.21798 0.03462 0.79557 0.0
C811 C 0.21476 0.12192 0.79752 0.0
C812 C 0.2247 0.1829 0.78096 0.0
C813 C 0.23628 0.15962 0.76268 0.0
C814 C 0.24905 0.23833 0.74791 0.0
C815 C 0.29545 0.23071 0.74077 0.0
C816 C 0.21779 0.2531 0.73008 0.0
C817 C 0.24469 0.30827 0.76109 0.0
C818 C 0.23015 0.2749 0.78002 0.0
C819 C 0.22742 0.32495 0.79543 0.0
C820 C 0.23998 0.41179 0.79138 0.0
C821 C 0.25479 0.44728 0.77207 0.0
C822 C 0.25662 0.39513 0.7567 0.0
H823 H 0.7469 0.5516 0.74473 0.0
H824 H 0.70779 0.48165 0.80673 0.0
H825 H 0.69987 0.63523 0.81003 0.0
H826 H 0.81087 0.72305 0.7522 0.0
H827 H 0.79746 0.79315 0.72927 0.0
H828 H 0.79314 0.6777 0.7305 0.0
H829 H 0.71359 0.69352 0.71959 0.0
H830 H 0.71778 0.80941 0.71822 0.0
H831 H 0.67716 0.75059 0.73363 0.0
H832 H 0.70735 0.79218 0.80857 0.0
H833 H 0.7272 0.94682 0.80177 0.0
H834 H 0.75922 0.91869 0.74042 0.0
C835 C 0.73578 0.5692 0.75878 0.0
C836 C 0.7287 0.50565 0.7756 0.0
C837 C 0.71443 0.52998 0.79387 0.0
C838 C 0.70926 0.61691 0.7958 0.0
C839 C 0.71804 0.67863 0.77923 0.0
C840 C 0.73058 0.6563 0.76098 0.0
C841 C 0.74195 0.73594 0.74622 0.0
C842 C 0.78862 0.7322 0.73915 0.0
C843 C 0.71074 0.74806 0.72836 0.0
C844 C 0.7358 0.80545 0.75937 0.0
C845 C 0.72141 0.771 0.77826 0.0
C846 C 0.71755 0.82066 0.79369 0.0
C847 C 0.72912 0.90806 0.78975 0.0
C848 C 0.74415 0.9444 0.77055 0.0
C849 C 0.74674 0.89282 0.7551 0.0
H850 H 0.5424 0.66572 0.49138 0.0
H851 H 0.5339 0.69023 0.55465 0.0
H852 H 0.5468 0.53394 0.56363 0.0
H853 H 0.48507 0.4802 0.49396 0.0
H854 H 0.51589 0.43024 0.47625 0.0
H855 H 0.51483 0.54622 0.47444 0.0
H856 H 0.59749 0.55062 0.47669 0.0
H857 H 0.59899 0.43443 0.47816 0.0
H858 H 0.62443 0.48562 0.49736 0.0
H859 H 0.54714 0.37679 0.56577 0.0
H860 H 0.54038 0.22454 0.56124 0.0
H861 H 0.55062 0.29751 0.49664 0.0
C862 C 0.54467 0.63862 0.50713 0.0
C863 C 0.53711 0.68985 0.52234 0.0
C864 C 0.53945 0.65198 0.54277 0.0
C865 C 0.547 0.56341 0.54802 0.0
C866 C 0.55251 0.51405 0.53267 0.0
C867 C 0.55208 0.5501 0.51264 0.0
C868 C 0.5544 0.48096 0.49913 0.0
C869 C 0.51521 0.48467 0.48513 0.0
C870 C 0.59633 0.48835 0.48713 0.0
C871 C 0.55383 0.40036 0.51473 0.0
C872 C 0.55329 0.42139 0.53395 0.0
C873 C 0.54849 0.35921 0.55085 0.0
C874 C 0.54413 0.27299 0.54808 0.0
C875 C 0.54482 0.24962 0.52857 0.0
C876 C 0.55039 0.31394 0.51169 0.0
H877 H 0.54905 0.79632 0.99599 0.0
H878 H 0.54743 0.71991 0.06063 0.0
H879 H 0.55416 0.87132 0.06552 0.0
H880 H 0.62168 -0.01005 0.99542 0.0
H881 H 0.59148 0.05336 0.97563 0.0
H882 H 0.5949 0.93748 0.97679 0.0
H883 H 0.51211 0.92713 0.97694 0.0
H884 H 0.50855 0.04263 0.97575 0.0
H885 H 0.48237 0.97234 0.99578 0.0
H886 H 0.5513 0.02768 0.06405 0.0
H887 H 0.5357 0.18335 0.05606 0.0
H888 H 0.53725 0.1636 0.99239 0.0
C889 C 0.551 0.81186 1.0111 0.0
C890 C 0.5477 0.74657 0.02793 0.0
C891 C 0.54962 0.76887 0.04753 0.0
C892 C 0.55392 0.85477 0.05049 0.0
C893 C 0.55608 0.91799 0.03368 0.0
C894 C 0.55459 0.89816 1.01434 0.0
C895 C 0.55208 -0.02024 0.99906 0.0
C896 C 0.59245 -0.00924 0.98595 0.0
C897 C 0.51135 -0.01952 0.98614 0.0
C898 C 0.55023 0.04749 1.01295 0.0
C899 C 0.5537 0.01034 0.03282 0.0
C900 C 0.54932 0.05813 0.04854 0.0
C901 C 0.54021 0.14635 0.04386 0.0
C902 C 0.53531 0.18546 0.02363 0.0
C903 C 0.54146 0.1357 1.00799 0.0
H904 H 0.35926 0.3146 0.04834 0.0
H905 H 0.36889 0.33641 0.98335 0.0
H906 H 0.30515 0.24665 0.98257 0.0
H907 H 0.32282 0.09818 0.05814 0.0
H908 H 0.28362 0.11336 0.07687 0.0
H909 H 0.32958 0.18366 0.07313 0.0
H910 H 0.28029 0.31785 0.06689 0.0
H911 H 0.23416 0.24809 0.07095 0.0
H912 H 0.23902 0.3234 0.048 0.0
H913 H 0.24832 0.14058 0.98826 0.0
H914 H 0.18704 0.04862 0.99921 0.0
H915 H 0.20428 0.10226 0.06028 0.0
C916 C 0.34724 0.30213 0.03396 0.0
C917 C 0.36987 0.33142 1.01595 0.0
C918 C 0.35296 0.31353 0.99743 0.0
C919 C 0.31664 0.26231 0.99676 0.0
C920 C 0.2965 0.23061 1.01469 0.0
C921 C 0.3099 0.25178 0.03291 0.0
C922 C 0.28057 0.20963 0.04968 0.0
C923 C 0.30566 0.14753 0.06538 0.0
C924 C 0.25711 0.27888 0.05946 0.0
C925 C 0.24968 0.16028 0.03793 0.0
C926 C 0.2604 0.17274 1.01784 0.0
C927 C 0.23892 0.13141 1.00389 0.0
C928 C 0.20427 0.07825 1.01039 0.0
C929 C 0.19046 0.0678 0.03066 0.0
C930 C 0.21394 0.10884 0.04469 0.0
H931 H 0.85844 0.83146 0.04419 0.0
H932 H 0.87188 0.83724 0.97971 0.0
H933 H 0.80791 0.7479 0.97931 0.0
H934 H 0.82046 0.61562 0.0561 0.0
H935 H 0.78065 0.63683 0.07404 0.0
H936 H 0.82739 0.70481 0.06997 0.0
H937 H 0.77942 0.84034 0.06168 0.0
H938 H 0.73255 0.7728 0.06599 0.0
H939 H 0.73905 0.84334 0.04242 0.0
H940 H 0.74928 0.64596 0.98548 0.0
H941 H 0.68638 0.55912 0.99673 0.0
H942 H 0.70208 0.6253 0.05681 0.0
C943 C 0.84732 0.81539 0.02997 0.0
C944 C 0.87094 0.84053 1.01204 0.0
C945 C 0.85514 0.81792 0.99374 0.0
C946 C 0.8187 0.76684 0.9933 0.0
C947 C 0.79741 0.73984 1.01119 0.0
C948 C 0.80997 0.76506 0.02912 0.0
C949 C 0.77958 0.72761 0.0459 0.0
C950 C 0.80346 0.66766 0.06248 0.0
C951 C 0.75626 0.80037 0.0545 0.0
C952 C 0.74888 0.67655 0.03448 0.0
C953 C 0.76063 0.68392 1.01457 0.0
C954 C 0.73917 0.64057 1.00097 0.0
C955 C 0.70357 0.59048 1.00763 0.0
C956 C 0.68895 0.58505 0.02769 0.0
C957 C 0.71236 0.62808 0.04139 0.0
H958 H 0.07977 0.36988 0.3077 0.0
H959 H 0.09857 0.31721 0.24672 0.0
H960 H 0.03761 0.40962 0.23533 0.0
H961 H 0.96198 0.36579 0.30474 0.0
H962 H 0.95483 0.45079 0.31979 0.0
H963 H 1.00093 0.38117 0.32368 0.0
H964 H 0.05034 0.51549 0.31817 0.0
H965 H 1.00441 0.58554 0.31399 0.0
H966 H 0.04588 0.59146 0.29528 0.0
H967 H 0.97979 0.51406 0.22936 0.0
H968 H 0.91562 0.60289 0.22989 0.0
H969 H 0.92551 0.58296 0.29483 0.0
C970 C 0.07061 0.37698 0.29202 0.0
C971 C 0.09432 0.33576 0.27816 0.0
C972 C 0.08111 0.34689 0.25777 0.0
C973 C 0.04664 0.40027 0.25103 0.0
C974 C 0.02478 0.44141 0.26484 0.0
C975 C 0.03513 0.42883 0.28501 0.0
C976 C 1.004 0.47806 0.29657 0.0
C977 C 0.97894 0.4152 0.31211 0.0
C978 C 0.02758 0.54672 0.3066 0.0
C979 C 0.97494 0.52018 0.27963 0.0
C980 C 0.98856 0.49904 0.26149 0.0
C981 C 0.96829 0.53008 0.24348 0.0
C982 C 0.93178 0.58085 0.24398 0.0
C983 C 0.91496 0.59942 0.2624 0.0
C984 C 0.93762 0.57051 0.28049 0.0
H985 H 0.35575 0.83906 0.54291 0.0
H986 H 0.37914 0.80695 0.48078 0.0
H987 H 0.31751 0.71094 0.48154 0.0
H988 H 0.31916 0.62409 0.56054 0.0
H989 H 0.27622 0.65464 0.57583 0.0
H990 H 0.32268 0.72311 0.57117 0.0
H991 H 0.27451 0.85281 0.55707 0.0
H992 H 0.22791 0.78488 0.56194 0.0
H993 H 0.23743 0.84207 0.53704 0.0
H994 H 0.25906 0.60874 0.48891 0.0
H995 H 0.19453 0.52737 0.50037 0.0
H996 H 0.20044 0.63058 0.55682 0.0
C997 C 0.3474 0.81299 0.5294 0.0
C998 C 0.3732 0.82997 0.51191 0.0
C999 C 0.36081 0.79442 0.49454 0.0
C1000 C 0.32571 0.73923 0.49476 0.0
C1001 C 0.3022 0.72088 0.51231 0.0
C1002 C 0.31137 0.7583 0.52916 0.0
C1003 C 0.27873 0.72915 0.5456 0.0
C1004 C 0.30052 0.67982 0.5644 0.0
C1005 C 0.25312 0.80686 0.55071 0.0
C1006 C 0.25063 0.66901 0.53527 0.0
C1007 C 0.26561 0.66458 0.51621 0.0
C1008 C 0.2465 0.61236 0.50372 0.0
C1009 C 0.20987 0.56569 0.51049 0.0
C1010 C 0.19193 0.57241 0.5295 0.0
C1011 C 0.21323 0.62378 0.54221 0.0
H1012 H 0.85817 0.33192 0.54782 0.0
H1013 H 0.85998 0.38528 0.48257 0.0
H1014 H 0.79421 0.30147 0.48119 0.0
H1015 H 0.8203 0.11807 0.55269 0.0
H1016 H 0.78416 0.12339 0.57328 0.0
H1017 H 0.8303 0.19329 0.57003 0.0
H1018 H 0.78194 0.32779 0.56914 0.0
H1019 H 0.73563 0.25831 0.57272 0.0
H1020 H 0.73806 0.34387 0.55155 0.0
H1021 H 0.73614 0.19697 0.48581 0.0
H1022 H 0.67633 0.09966 0.49637 0.0
H1023 H 0.70327 0.11994 0.55886 0.0
C1024 C 0.84393 0.32805 0.53331 0.0
C1025 C 0.86475 0.36466 0.51529 0.0
C1026 C 0.84519 0.35721 0.4966 0.0
C1027 C 0.80773 0.30945 0.4956 0.0
C1028 C 0.78927 0.27057 0.51343 0.0
C1029 C 0.80557 0.2812 0.53199 0.0
C1030 C 0.77829 0.23162 0.54867 0.0
C1031 C 0.80487 0.1625 0.56195 0.0
C1032 C 0.75722 0.29414 0.56127 0.0
C1033 C 0.74513 0.19017 0.53643 0.0
C1034 C 0.7529 0.21307 0.51615 0.0
C1035 C 0.72908 0.17974 0.50163 0.0
C1036 C 0.69537 0.12345 0.50786 0.0
C1037 C 0.68493 0.10169 0.52847 0.0
C1038 C 0.71038 0.13545 0.543 0.0
H1039 H 0.93392 0.09718 0.79397 0.0
H1040 H 0.88844 0.00197 0.74009 0.0
H1041 H 0.94888 0.9049 0.74137 0.0
H1042 H 0.04649 0.09327 0.7804 0.0
H1043 H 0.06529 0.05742 0.8056 0.0
H1044 H 0.01685 0.11996 0.80156 0.0
H1045 H 0.97571 -0.00071 0.82434 0.0
H1046 H 0.02397 0.93601 0.82834 0.0
H1047 H 0.97672 0.89012 0.8187 0.0
H1048 H 0.01193 0.81625 0.74735 0.0
H1049 H 0.08184 0.75041 0.75617 0.0
H1050 H 0.09268 0.90003 0.80546 0.0
C1051 C 0.93678 0.05589 0.7825 0.0
C1052 C 0.90564 0.05797 0.76705 0.0
C1053 C 0.91113 0.00279 0.75223 0.0
C1054 C 0.94553 0.9463 0.75278 0.0
C1055 C 0.97506 0.94487 0.76814 0.0
C1056 C 0.97183 -0.00143 0.78262 0.0
C1057 C 0.01015 -0.01508 0.79678 0.0
C1058 C 0.03624 0.06889 0.79603 0.0
C1059 C 0.99577 0.95052 0.81832 0.0
C1060 C 0.03492 0.9162 0.7877 0.0
C1061 C 0.0134 0.89367 0.77137 0.0
C1062 C 0.02932 0.83306 0.76013 0.0
C1063 C 0.06913 0.79574 0.76532 0.0
C1064 C 0.09303 0.81957 0.78152 0.0
C1065 C 0.07515 0.87963 0.7931 0.0
H1066 H 0.57805 0.35976 0.80779 0.0
H1067 H 0.60089 0.33219 0.74544 0.0
H1068 H 0.54136 0.43076 0.73499 0.0
H1069 H 0.46006 0.36302 0.80269 0.0
H1070 H 0.45305 0.43972 0.81991 0.0
H1071 H 0.4978 0.3664 0.82285 0.0
H1072 H 0.54933 0.49692 0.82152 0.0
H1073 H 0.50475 0.57068 0.81818 0.0
H1074 H 0.54774 0.58183 0.80019 0.0
H1075 H 0.48681 0.54311 0.73055 0.0
H1076 H 0.42389 0.63426 0.73223 0.0
H1077 H 0.42711 0.58031 0.79748 0.0
C1078 C 0.56983 0.37319 0.792 0.0
C1079 C 0.59424 0.33808 0.77743 0.0
C1080 C 0.58257 0.35725 0.75691 0.0
C1081 C 0.54911 0.41425 0.75077 0.0
C1082 C 0.52686 0.45023 0.76534 0.0
C1083 C 0.5354 0.42837 0.78558 0.0
C1084 C 0.50425 0.47338 0.79796 0.0
C1085 C 0.47717 0.40665 0.81166 0.0
C1086 C 0.52795 0.53431 0.81018 0.0
C1087 C 0.47728 0.52426 0.78139 0.0
C1088 C 0.49209 0.51122 0.76276 0.0
C1089 C 0.47421 0.55246 0.74501 0.0
C1090 C 0.43848 0.60454 0.74619 0.0
C1091 C 0.41992 0.61341 0.76499 0.0
C1092 C 0.44053 0.57507 0.78291 0.0
H1093 H 0.58251 0.84873 0.2545 0.0
H1094 H 0.59508 0.82827 0.31931 0.0
H1095 H 0.5289 0.91129 0.3206 0.0
H1096 H 0.54397 0.06276 0.24581 0.0
H1097 H 0.50565 0.04685 0.22666 0.0
H1098 H 0.55253 -0.02055 0.23041 0.0
H1099 H 0.50509 0.84199 0.23564 0.0
H1100 H 0.45802 0.90886 0.2316 0.0
H1101 H 0.46338 0.83201 0.25429 0.0
H1102 H 0.46719 0.00984 0.31506 0.0
H1103 H 0.40523 0.10036 0.30354 0.0
H1104 H 0.42714 0.05334 0.24242 0.0
C1105 C 0.5706 0.8595 0.26899 0.0
C1106 C 0.59426 0.83173 0.2868 0.0
C1107 C 0.57784 0.8488 0.30543 0.0
C1108 C 0.54023 0.89629 0.30635 0.0
C1109 C 0.51875 0.92586 0.28855 0.0
C1110 C 0.53256 0.90674 0.27024 0.0
C1111 C 0.50318 0.94821 0.25344 0.0
C1112 C 0.52782 0.01316 0.23818 0.0
C1113 C 0.4811 0.87861 0.24314 0.0
C1114 C 0.47131 -0.00572 0.26522 0.0
C1115 C 0.48145 -0.01902 0.28541 0.0
C1116 C 0.45848 0.01975 0.29932 0.0
C1117 C 0.42344 0.07183 0.29256 0.0
C1118 C 0.41103 0.0841 0.27206 0.0
C1119 C 0.43562 0.04499 0.25819 0.0
loop_
_geom_bond_atom_site_label_1
_geom_bond_atom_site_label_2
_geom_bond_distance
_geom_bond_site_symmetry_2
_ccdc_geom_bond_type
Co0 H3 2.400 1_565 S
Co0 O4 2.009 1_565 S
Co0 O12 2.115 . S
Co0 O13 2.315 1_565 S
Co0 O24 2.053 . S
Co0 O27 2.094 1_655 S
Co0 O30 2.132 . S
Co1 O4 2.126 1_455 S
Co1 H5 2.388 1_546 S
Co1 O6 2.053 1_546 S
Co1 O9 2.047 . S
Co1 O15 2.113 . S
Co1 O26 2.063 . S
Co2 H3 2.388 1_564 S
Co2 O4 2.053 1_564 S
Co2 O6 2.126 1_655 S
Co2 O11 2.063 . S
Co2 O25 2.047 . S
Co2 O31 2.113 . S
H3 Co0 2.400 1_545 S
H3 Co2 2.388 1_546 S
H3 O4 0.760 . S
O4 Co0 2.009 1_545 S
O4 Co1 2.126 1_655 S
O4 Co2 2.053 1_546 S
O4 H3 0.760 . S
H5 Co1 2.388 1_564 S
H5 O6 0.760 . S
H5 Co7 2.400 1_565 S
O6 Co1 2.053 1_564 S
O6 Co2 2.126 1_455 S
O6 H5 0.760 . S
O6 Co7 2.009 1_565 S
Co7 H5 2.400 1_545 S
Co7 O6 2.009 1_545 S
Co7 O8 2.053 . S
Co7 O10 2.094 1_455 S
Co7 O14 2.122 . S
Co7 O28 2.115 . S
Co7 O29 2.315 1_545 S
O8 Co7 2.053 . S
O8 C20 1.259 . S
O9 Co1 2.047 . S
O9 C20 1.257 1_556 S
O10 Co7 2.094 1_655 S
O10 C21 1.253 1_545 S
O11 Co2 2.063 . S
O11 C21 1.268 . S
O12 Co0 2.115 . S
O12 C22 1.281 . S
O13 Co0 2.315 1_545 S
O13 C22 1.252 1_545 S
O14 Co7 2.122 . S
O14 C23 1.272 . S
O15 Co1 2.113 . S
O15 C23 1.245 1_556 S
C16 O24 1.259 . S
C16 O25 1.257 1_556 S
C17 O26 1.268 . S
C17 O27 1.253 1_545 S
C18 O28 1.281 . S
C18 O29 1.252 1_545 S
C19 O30 1.317 . S
C19 O31 1.210 1_556 S
C20 O8 1.259 . S
C20 O9 1.257 1_554 S
C21 O10 1.253 1_565 S
C21 O11 1.268 . S
C22 O12 1.281 . S
C22 O13 1.252 1_565 S
C23 O14 1.272 . S
C23 O15 1.245 1_554 S
O24 Co0 2.053 . S
O24 C16 1.259 . S
O25 Co2 2.047 . S
O25 C16 1.257 1_554 S
O26 Co1 2.063 . S
O26 C17 1.268 . S
O27 Co0 2.094 1_455 S
O27 C17 1.253 1_565 S
O28 Co7 2.115 . S
O28 C18 1.281 . S
O29 Co7 2.315 1_565 S
O29 C18 1.252 1_565 S
O30 Co0 2.132 . S
O30 C19 1.317 . S
O31 Co2 2.113 . S
O31 C19 1.210 1_554 S
Co32 H35 2.400 . S
Co32 O36 2.009 . S
Co32 O44 2.115 . S
Co32 O45 2.315 . S
Co32 O56 2.053 . S
Co32 O59 2.094 . S
Co32 O62 2.122 . S
Co33 O36 2.126 . S
Co33 H37 2.388 . S
Co33 O38 2.053 . S
Co33 O41 2.047 . S
Co33 O47 2.113 . S
Co33 O58 2.063 . S
Co34 H35 2.388 . S
Co34 O36 2.053 . S
Co34 O38 2.126 . S
Co34 O43 2.063 . S
Co34 O57 2.047 . S
Co34 O63 2.113 . S
H35 Co32 2.400 . S
H35 Co34 2.388 . S
H35 O36 0.760 . S
O36 Co32 2.009 . S
O36 Co33 2.126 . S
O36 Co34 2.053 . S
O36 H35 0.760 . S
H37 Co33 2.388 . S
H37 O38 0.760 . S
H37 Co39 2.400 . S
O38 Co33 2.053 . S
O38 Co34 2.126 . S
O38 H37 0.760 . S
O38 Co39 2.009 . S
Co39 H37 2.400 . S
Co39 O38 2.009 . S
Co39 O40 2.053 . S
Co39 O42 2.094 . S
Co39 O46 2.122 . S
Co39 O60 2.115 . S
Co39 O61 2.315 . S
O40 Co39 2.053 . S
O40 C52 1.259 . S
O41 Co33 2.047 . S
O41 C52 1.257 . S
O42 Co39 2.094 . S
O42 C53 1.253 . S
O43 Co34 2.063 . S
O43 C53 1.268 . S
O44 Co32 2.115 . S
O44 C54 1.281 . S
O45 Co32 2.315 . S
O45 C54 1.252 . S
O46 Co39 2.122 . S
O46 C55 1.272 . S
O47 Co33 2.113 . S
O47 C55 1.245 . S
C48 O56 1.259 . S
C48 O57 1.257 . S
C49 O58 1.268 . S
C49 O59 1.253 . S
C50 O60 1.281 . S
C50 O61 1.252 . S
C51 O62 1.272 . S
C51 O63 1.245 . S
C52 O40 1.259 . S
C52 O41 1.257 . S
C53 O42 1.253 . S
C53 O43 1.268 . S
C54 O44 1.281 . S
C54 O45 1.252 . S
C55 O46 1.272 . S
C55 O47 1.245 . S
O56 Co32 2.053 . S
O56 C48 1.259 . S
O57 Co34 2.047 . S
O57 C48 1.257 . S
O58 Co33 2.063 . S
O58 C49 1.268 . S
O59 Co32 2.094 . S
O59 C49 1.253 . S
O60 Co39 2.115 . S
O60 C50 1.281 . S
O61 Co39 2.315 . S
O61 C50 1.252 . S
O62 Co32 2.122 . S
O62 C51 1.272 . S
O63 Co34 2.113 . S
O63 C51 1.245 . S
Co64 H67 2.400 . S
Co64 O68 2.009 . S
Co64 O76 2.115 . S
Co64 O77 2.315 . S
Co64 O88 2.053 . S
Co64 O91 2.094 . S
Co64 O94 2.122 . S
Co65 O68 2.126 . S
Co65 H69 2.388 . S
Co65 O70 2.053 . S
Co65 O73 2.047 . S
Co65 O79 2.113 . S
Co65 O90 2.063 . S
Co66 H67 2.388 . S
Co66 O68 2.053 . S
Co66 O70 2.126 . S
Co66 O75 2.063 . S
Co66 O89 2.047 . S
Co66 O95 2.113 . S
H67 Co64 2.400 . S
H67 Co66 2.388 . S
H67 O68 0.760 . S
O68 Co64 2.009 . S
O68 Co65 2.126 . S
O68 Co66 2.053 . S
O68 H67 0.760 . S
H69 Co65 2.388 . S
H69 O70 0.760 . S
H69 Co71 2.400 . S
O70 Co65 2.053 . S
O70 Co66 2.126 . S
O70 H69 0.760 . S
O70 Co71 2.009 . S
Co71 H69 2.400 . S
Co71 O70 2.009 . S
Co71 O72 2.053 . S
Co71 O74 2.094 . S
Co71 O78 2.122 . S
Co71 O92 2.115 . S
Co71 O93 2.315 . S
O72 Co71 2.053 . S
O72 C84 1.259 . S
O73 Co65 2.047 . S
O73 C84 1.257 . S
O74 Co71 2.094 . S
O74 C85 1.253 . S
O75 Co66 2.063 . S
O75 C85 1.268 . S
O76 Co64 2.115 . S
O76 C86 1.281 . S
O77 Co64 2.315 . S
O77 C86 1.252 . S
O78 Co71 2.122 . S
O78 C87 1.272 . S
O79 Co65 2.113 . S
O79 C87 1.245 . S
C80 O88 1.259 . S
C80 O89 1.257 . S
C81 O90 1.268 . S
C81 O91 1.253 . S
C82 O92 1.281 . S
C82 O93 1.252 . S
C83 O94 1.272 . S
C83 O95 1.245 . S
C84 O72 1.259 . S
C84 O73 1.257 . S
C85 O74 1.253 . S
C85 O75 1.268 . S
C86 O76 1.281 . S
C86 O77 1.252 . S
C87 O78 1.272 . S
C87 O79 1.245 . S
O88 Co64 2.053 . S
O88 C80 1.259 . S
O89 Co66 2.047 . S
O89 C80 1.257 . S
O90 Co65 2.063 . S
O90 C81 1.268 . S
O91 Co64 2.094 . S
O91 C81 1.253 . S
O92 Co71 2.115 . S
O92 C82 1.281 . S
O93 Co71 2.315 . S
O93 C82 1.252 . S
O94 Co64 2.122 . S
O94 C83 1.272 . S
O95 Co66 2.113 . S
O95 C83 1.245 . S
Co96 H99 2.400 . S
Co96 O100 2.009 . S
Co96 O108 2.115 . S
Co96 O109 2.315 . S
Co96 O120 2.053 . S
Co96 O123 2.094 1_655 S
Co96 O126 2.132 . S
Co97 O100 2.126 1_455 S
Co97 H101 2.388 . S
Co97 O102 2.053 . S
Co97 O105 2.047 . S
Co97 O111 2.113 . S
Co97 O122 2.063 . S
Co98 H99 2.388 . S
Co98 O100 2.053 . S
Co98 O102 2.126 1_655 S
Co98 O107 2.063 . S
Co98 O121 2.047 . S
Co98 O127 2.113 . S
H99 Co96 2.400 . S
H99 Co98 2.388 . S
H99 O100 0.760 . S
O100 Co96 2.009 . S
O100 Co97 2.126 1_655 S
O100 Co98 2.053 . S
O100 H99 0.760 . S
H101 Co97 2.388 . S
H101 O102 0.760 . S
H101 Co103 2.400 . S
O102 Co97 2.053 . S
O102 Co98 2.126 1_455 S
O102 H101 0.760 . S
O102 Co103 2.009 . S
Co103 H101 2.400 . S
Co103 O102 2.009 . S
Co103 O104 2.053 . S
Co103 O106 2.094 1_455 S
Co103 O110 2.122 . S
Co103 O124 2.115 . S
Co103 O125 2.315 . S
O104 Co103 2.053 . S
O104 C116 1.259 . S
O105 Co97 2.047 . S
O105 C116 1.257 . S
O106 Co103 2.094 1_655 S
O106 C117 1.253 . S
O107 Co98 2.063 . S
O107 C117 1.268 . S
O108 Co96 2.115 . S
O108 C118 1.281 . S
O109 Co96 2.315 . S
O109 C118 1.252 . S
O110 Co103 2.122 . S
O110 C119 1.272 . S
O111 Co97 2.113 . S
O111 C119 1.245 . S
C112 O120 1.259 . S
C112 O121 1.257 . S
C113 O122 1.268 . S
C113 O123 1.253 . S
C114 O124 1.281 . S
C114 O125 1.252 . S
C115 O126 1.273 . S
C115 O127 1.245 . S
C116 O104 1.259 . S
C116 O105 1.257 . S
C117 O106 1.253 . S
C117 O107 1.268 . S
C118 O108 1.281 . S
C118 O109 1.252 . S
C119 O110 1.272 . S
C119 O111 1.245 . S
O120 Co96 2.053 . S
O120 C112 1.259 . S
O121 Co98 2.047 . S
O121 C112 1.257 . S
O122 Co97 2.063 . S
O122 C113 1.268 . S
O123 Co96 2.094 1_455 S
O123 C113 1.253 . S
O124 Co103 2.115 . S
O124 C114 1.281 . S
O125 Co103 2.315 . S
O125 C114 1.252 . S
O126 Co96 2.132 . S
O126 C115 1.273 . S
O127 Co98 2.113 . S
O127 C115 1.245 . S
Co128 H131 2.400 . S
Co128 O132 2.009 . S
Co128 O140 2.115 . S
Co128 O141 2.315 . S
Co128 O152 2.053 . S
Co128 O155 2.094 . S
Co128 O158 2.122 . S
Co129 O132 2.126 . S
Co129 H133 2.388 . S
Co129 O134 2.053 . S
Co129 O137 2.047 . S
Co129 O143 2.113 . S
Co129 O154 2.063 . S
Co130 H131 2.388 . S
Co130 O132 2.053 . S
Co130 O134 2.126 . S
Co130 O139 2.063 . S
Co130 O153 2.047 . S
Co130 O159 2.113 . S
H131 Co128 2.400 . S
H131 Co130 2.388 . S
H131 O132 0.760 . S
O132 Co128 2.009 . S
O132 Co129 2.126 . S
O132 Co130 2.053 . S
O132 H131 0.760 . S
H133 Co129 2.388 . S
H133 O134 0.760 . S
H133 Co135 2.400 . S
O134 Co129 2.053 . S
O134 Co130 2.126 . S
O134 H133 0.760 . S
O134 Co135 2.009 . S
Co135 H133 2.400 . S
Co135 O134 2.009 . S
Co135 O136 2.053 . S
Co135 O138 2.094 . S
Co135 O142 2.122 . S
Co135 O156 2.115 . S
Co135 O157 2.315 . S
O136 Co135 2.053 . S
O136 C148 1.259 . S
O137 Co129 2.047 . S
O137 C148 1.257 . S
O138 Co135 2.094 . S
O138 C149 1.253 . S
O139 Co130 2.063 . S
O139 C149 1.268 . S
O140 Co128 2.115 . S
O140 C150 1.281 . S
O141 Co128 2.315 . S
O141 C150 1.252 . S
O142 Co135 2.122 . S
O142 C151 1.272 . S
O143 Co129 2.113 . S
O143 C151 1.245 . S
C144 O152 1.259 . S
C144 O153 1.257 . S
C145 O154 1.268 . S
C145 O155 1.253 . S
C146 O156 1.281 . S
C146 O157 1.252 . S
C147 O158 1.272 . S
C147 O159 1.245 . S
C148 O136 1.259 . S
C148 O137 1.257 . S
C149 O138 1.253 . S
C149 O139 1.268 . S
C150 O140 1.281 . S
C150 O141 1.252 . S
C151 O142 1.272 . S
C151 O143 1.245 . S
O152 Co128 2.053 . S
O152 C144 1.259 . S
O153 Co130 2.047 . S
O153 C144 1.257 . S
O154 Co129 2.063 . S
O154 C145 1.268 . S
O155 Co128 2.094 . S
O155 C145 1.253 . S
O156 Co135 2.115 . S
O156 C146 1.281 . S
O157 Co135 2.315 . S
O157 C146 1.252 . S
O158 Co128 2.122 . S
O158 C147 1.272 . S
O159 Co130 2.113 . S
O159 C147 1.245 . S
Co160 H163 2.400 . S
Co160 O164 2.009 . S
Co160 O172 2.115 . S
Co160 O173 2.315 . S
Co160 O184 2.053 . S
Co160 O187 2.094 . S
Co160 O190 2.122 . S
Co161 O164 2.126 . S
Co161 H165 2.388 . S
Co161 O166 2.053 . S
Co161 O169 2.047 . S
Co161 O175 2.113 . S
Co161 O186 2.063 . S
Co162 H163 2.388 . S
Co162 O164 2.053 . S
Co162 O166 2.126 . S
Co162 O171 2.063 . S
Co162 O185 2.047 . S
Co162 O191 2.113 . S
H163 Co160 2.400 . S
H163 Co162 2.388 . S
H163 O164 0.760 . S
O164 Co160 2.009 . S
O164 Co161 2.126 . S
O164 Co162 2.053 . S
O164 H163 0.760 . S
H165 Co161 2.388 . S
H165 O166 0.760 . S
H165 Co167 2.400 . S
O166 Co161 2.053 . S
O166 Co162 2.126 . S
O166 H165 0.760 . S
O166 Co167 2.009 . S
Co167 H165 2.400 . S
Co167 O166 2.009 . S
Co167 O168 2.053 . S
Co167 O170 2.094 . S
Co167 O174 2.122 . S
Co167 O188 2.115 . S
Co167 O189 2.315 . S
O168 Co167 2.053 . S
O168 C180 1.259 . S
O169 Co161 2.047 . S
O169 C180 1.257 . S
O170 Co167 2.094 . S
O170 C181 1.253 . S
O171 Co162 2.063 . S
O171 C181 1.268 . S
O172 Co160 2.115 . S
O172 C182 1.281 . S
O173 Co160 2.315 . S
O173 C182 1.252 . S
O174 Co167 2.122 . S
O174 C183 1.272 . S
O175 Co161 2.113 . S
O175 C183 1.245 . S
C176 O184 1.259 . S
C176 O185 1.257 . S
C177 O186 1.268 . S
C177 O187 1.253 . S
C178 O188 1.281 . S
C178 O189 1.252 . S
C179 O190 1.272 . S
C179 O191 1.245 . S
C180 O168 1.259 . S
C180 O169 1.257 . S
C181 O170 1.253 . S
C181 O171 1.268 . S
C182 O172 1.281 . S
C182 O173 1.252 . S
C183 O174 1.272 . S
C183 O175 1.245 . S
O184 Co160 2.053 . S
O184 C176 1.259 . S
O185 Co162 2.047 . S
O185 C176 1.257 . S
O186 Co161 2.063 . S
O186 C177 1.268 . S
O187 Co160 2.094 . S
O187 C177 1.253 . S
O188 Co167 2.115 . S
O188 C178 1.281 . S
O189 Co167 2.315 . S
O189 C178 1.252 . S
O190 Co160 2.122 . S
O190 C179 1.272 . S
O191 Co162 2.113 . S
O191 C179 1.245 . S
Co192 H195 2.400 1_565 S
Co192 O196 2.009 1_565 S
Co192 O204 2.115 . S
Co192 O205 2.315 1_565 S
Co192 O216 2.053 . S
Co192 O219 2.094 . S
Co192 O222 2.122 . S
Co193 O196 2.126 . S
Co193 H197 2.388 1_545 S
Co193 O198 2.053 1_545 S
Co193 O201 2.047 . S
Co193 O207 2.113 . S
Co193 O218 2.063 . S
Co194 H195 2.388 1_565 S
Co194 O196 2.053 1_565 S
Co194 O198 2.126 . S
Co194 O203 2.063 . S
Co194 O217 2.047 . S
Co194 O223 2.113 . S
H195 Co192 2.400 1_545 S
H195 Co194 2.388 1_545 S
H195 O196 0.760 . S
O196 Co192 2.009 1_545 S
O196 Co193 2.126 . S
O196 Co194 2.053 1_545 S
O196 H195 0.760 . S
H197 Co193 2.388 1_565 S
H197 O198 0.760 . S
H197 Co199 2.400 1_565 S
O198 Co193 2.053 1_565 S
O198 Co194 2.126 . S
O198 H197 0.760 . S
O198 Co199 2.009 1_565 S
Co199 H197 2.400 1_545 S
Co199 O198 2.009 1_545 S
Co199 O200 2.053 . S
Co199 O202 2.094 . S
Co199 O206 2.122 . S
Co199 O220 2.115 . S
Co199 O221 2.315 1_545 S
O200 Co199 2.053 . S
O200 C212 1.259 . S
O201 Co193 2.047 . S
O201 C212 1.257 . S
O202 Co199 2.094 . S
O202 C213 1.253 1_545 S
O203 Co194 2.063 . S
O203 C213 1.268 . S
O204 Co192 2.115 . S
O204 C214 1.281 . S
O205 Co192 2.315 1_545 S
O205 C214 1.252 1_545 S
O206 Co199 2.122 . S
O206 C215 1.272 . S
O207 Co193 2.113 . S
O207 C215 1.245 . S
C208 O216 1.259 . S
C208 O217 1.257 . S
C209 O218 1.268 . S
C209 O219 1.253 1_545 S
C210 O220 1.281 . S
C210 O221 1.252 1_545 S
C211 O222 1.272 . S
C211 O223 1.245 . S
C212 O200 1.259 . S
C212 O201 1.257 . S
C213 O202 1.253 1_565 S
C213 O203 1.268 . S
C214 O204 1.281 . S
C214 O205 1.252 1_565 S
C215 O206 1.272 . S
C215 O207 1.245 . S
O216 Co192 2.053 . S
O216 C208 1.259 . S
O217 Co194 2.047 . S
O217 C208 1.257 . S
O218 Co193 2.063 . S
O218 C209 1.268 . S
O219 Co192 2.094 . S
O219 C209 1.253 1_565 S
O220 Co199 2.115 . S
O220 C210 1.281 . S
O221 Co199 2.315 1_565 S
O221 C210 1.252 1_565 S
O222 Co192 2.122 . S
O222 C211 1.272 . S
O223 Co194 2.113 . S
O223 C211 1.245 . S
Co224 H227 2.400 . S
Co224 O228 2.009 . S
Co224 O236 2.115 . S
Co224 O237 2.315 . S
Co224 O248 2.053 . S
Co224 O251 2.094 . S
Co224 O254 2.122 . S
Co225 O228 2.126 . S
Co225 H229 2.388 1_556 S
Co225 O230 2.053 1_556 S
Co225 O233 2.047 . S
Co225 O239 2.113 . S
Co225 O250 2.063 . S
Co226 H227 2.388 1_554 S
Co226 O228 2.053 1_554 S
Co226 O230 2.126 . S
Co226 O235 2.063 . S
Co226 O249 2.047 . S
Co226 O255 2.113 . S
H227 Co224 2.400 . S
H227 Co226 2.388 1_556 S
H227 O228 0.760 . S
O228 Co224 2.009 . S
O228 Co225 2.126 . S
O228 Co226 2.053 1_556 S
O228 H227 0.760 . S
H229 Co225 2.388 1_554 S
H229 O230 0.760 . S
H229 Co231 2.400 . S
O230 Co225 2.053 1_554 S
O230 Co226 2.126 . S
O230 H229 0.760 . S
O230 Co231 2.009 . S
Co231 H229 2.400 . S
Co231 O230 2.009 . S
Co231 O232 2.053 . S
Co231 O234 2.094 . S
Co231 O238 2.122 . S
Co231 O252 2.115 . S
Co231 O253 2.315 . S
O232 Co231 2.053 . S
O232 C244 1.259 . S
O233 Co225 2.047 . S
O233 C244 1.257 1_556 S
O234 Co231 2.094 . S
O234 C245 1.253 . S
O235 Co226 2.063 . S
O235 C245 1.268 . S
O236 Co224 2.115 . S
O236 C246 1.281 . S
O237 Co224 2.315 . S
O237 C246 1.252 . S
O238 Co231 2.122 . S
O238 C247 1.272 . S
O239 Co225 2.113 . S
O239 C247 1.245 1_556 S
C240 O248 1.259 . S
C240 O249 1.257 1_556 S
C241 O250 1.268 . S
C241 O251 1.253 . S
C242 O252 1.281 . S
C242 O253 1.252 . S
C243 O254 1.316 . S
C243 O255 1.209 1_556 S
C244 O232 1.259 . S
C244 O233 1.257 1_554 S
C245 O234 1.253 . S
C245 O235 1.268 . S
C246 O236 1.281 . S
C246 O237 1.252 . S
C247 O238 1.272 . S
C247 O239 1.245 1_554 S
O248 Co224 2.053 . S
O248 C240 1.259 . S
O249 Co226 2.047 . S
O249 C240 1.257 1_554 S
O250 Co225 2.063 . S
O250 C241 1.268 . S
O251 Co224 2.094 . S
O251 C241 1.253 . S
O252 Co231 2.115 . S
O252 C242 1.281 . S
O253 Co231 2.315 . S
O253 C242 1.252 . S
O254 Co224 2.122 . S
O254 C243 1.316 . S
O255 Co226 2.113 . S
O255 C243 1.209 1_554 S
H256 C268 0.930 . S
H257 C270 0.930 . S
H258 C271 0.930 . S
H259 C275 0.959 . S
H260 C275 0.959 . S
H261 C275 0.961 . S
H262 C276 0.960 . S
H263 C276 0.961 . S
H264 C276 0.959 . S
H265 C279 0.929 . S
H266 C280 0.931 . S
H267 C282 0.930 . S
C268 H256 0.930 . S
C268 C269 1.399 . S
C268 C273 1.399 . S
C269 C268 1.399 . S
C269 C270 1.376 . S
C270 H257 0.930 . S
C270 C269 1.376 . S
C270 C271 1.388 . S
C271 H258 0.930 . S
C271 C270 1.388 . S
C271 C272 1.390 . S
C272 C271 1.390 . S
C272 C273 1.394 . S
C272 C278 1.465 . S
C273 C268 1.399 . S
C273 C272 1.394 . S
C273 C274 1.516 . S
C274 C273 1.516 . S
C274 C275 1.502 . S
C274 C276 1.561 1_545 S
C274 C277 1.526 . S
C275 H259 0.959 . S
C275 H260 0.959 . S
C275 H261 0.961 . S
C275 C274 1.502 . S
C276 H262 0.960 . S
C276 H263 0.961 . S
C276 H264 0.959 . S
C276 C274 1.561 1_565 S
C277 C274 1.526 . S
C277 C278 1.396 . S
C277 C282 1.390 . S
C278 C272 1.465 . S
C278 C277 1.396 . S
C278 C279 1.399 . S
C279 H265 0.929 . S
C279 C278 1.399 . S
C279 C280 1.385 . S
C280 H266 0.931 . S
C280 C279 1.385 . S
C280 C281 1.389 . S
C281 C280 1.389 . S
C281 C282 1.387 . S
C282 H267 0.930 . S
C282 C277 1.390 . S
C282 C281 1.387 . S
H283 C295 0.930 . S
H284 C297 0.930 . S
H285 C298 0.930 . S
H286 C302 0.959 . S
H287 C302 0.959 . S
H288 C302 0.961 . S
H289 C303 0.960 1_545 S
H290 C303 0.961 . S
H291 C303 0.959 . S
H292 C306 0.929 . S
H293 C307 0.931 . S
H294 C309 0.930 . S
C295 H283 0.930 . S
C295 C296 1.399 . S
C295 C300 1.399 . S
C296 C295 1.399 . S
C296 C297 1.376 . S
C297 H284 0.930 . S
C297 C296 1.376 . S
C297 C298 1.388 . S
C298 H285 0.930 . S
C298 C297 1.388 . S
C298 C299 1.390 . S
C299 C298 1.390 . S
C299 C300 1.394 . S
C299 C305 1.465 . S
C300 C295 1.399 . S
C300 C299 1.394 . S
C300 C301 1.516 . S
C301 C300 1.516 . S
C301 C302 1.502 . S
C301 C303 1.561 . S
C301 C304 1.526 . S
C302 H286 0.959 . S
C302 H287 0.959 . S
C302 H288 0.961 . S
C302 C301 1.502 . S
C303 H289 0.960 1_565 S
C303 H290 0.961 . S
C303 H291 0.959 . S
C303 C301 1.561 . S
C304 C301 1.526 . S
C304 C305 1.396 . S
C304 C309 1.390 . S
C305 C299 1.465 . S
C305 C304 1.396 . S
C305 C306 1.399 . S
C306 H292 0.929 . S
C306 C305 1.399 . S
C306 C307 1.385 . S
C307 H293 0.931 . S
C307 C306 1.385 . S
C307 C308 1.389 . S
C308 C307 1.389 . S
C308 C309 1.387 . S
C309 H294 0.930 . S
C309 C304 1.390 . S
C309 C308 1.387 . S
H310 C322 0.930 . S
H311 C324 0.930 . S
H312 C325 0.930 . S
H313 C329 0.959 . S
H314 C329 0.959 . S
H315 C329 0.961 . S
H316 C330 0.960 . S
H317 C330 0.961 . S
H318 C330 0.959 . S
H319 C333 0.929 . S
H320 C334 0.931 . S
H321 C336 0.930 . S
C322 H310 0.930 . S
C322 C323 1.399 . S
C322 C327 1.399 . S
C323 C322 1.399 . S
C323 C324 1.376 . S
C324 H311 0.930 . S
C324 C323 1.376 . S
C324 C325 1.388 . S
C325 H312 0.930 . S
C325 C324 1.388 . S
C325 C326 1.390 . S
C326 C325 1.390 . S
C326 C327 1.394 . S
C326 C332 1.465 . S
C327 C322 1.399 . S
C327 C326 1.394 . S
C327 C328 1.516 . S
C328 C327 1.516 . S
C328 C329 1.502 . S
C328 C330 1.561 . S
C328 C331 1.526 . S
C329 H313 0.959 . S
C329 H314 0.959 . S
C329 H315 0.961 . S
C329 C328 1.502 . S
C330 H316 0.960 . S
C330 H317 0.961 . S
C330 H318 0.959 . S
C330 C328 1.561 . S
C331 C328 1.526 . S
C331 C332 1.396 . S
C331 C336 1.390 . S
C332 C326 1.465 . S
C332 C331 1.396 . S
C332 C333 1.399 . S
C333 H319 0.929 . S
C333 C332 1.399 . S
C333 C334 1.385 . S
C334 H320 0.931 . S
C334 C333 1.385 . S
C334 C335 1.389 . S
C335 C334 1.389 . S
C335 C336 1.387 . S
C336 H321 0.930 . S
C336 C331 1.390 . S
C336 C335 1.387 . S
H337 C349 0.930 . S
H338 C351 0.930 . S
H339 C352 0.930 . S
H340 C356 0.959 . S
H341 C356 0.959 . S
H342 C356 0.961 . S
H343 C357 0.960 . S
H344 C357 0.961 . S
H345 C357 0.959 . S
H346 C360 0.929 . S
H347 C361 0.931 . S
H348 C363 0.930 . S
C349 H337 0.930 . S
C349 C350 1.399 . S
C349 C354 1.399 . S
C350 C349 1.399 . S
C350 C351 1.376 . S
C351 H338 0.930 . S
C351 C350 1.376 . S
C351 C352 1.388 . S
C352 H339 0.930 . S
C352 C351 1.388 . S
C352 C353 1.390 . S
C353 C352 1.390 . S
C353 C354 1.394 . S
C353 C359 1.465 . S
C354 C349 1.399 . S
C354 C353 1.394 . S
C354 C355 1.516 . S
C355 C354 1.516 . S
C355 C356 1.502 . S
C355 C357 1.561 . S
C355 C358 1.526 . S
C356 H340 0.959 . S
C356 H341 0.959 . S
C356 H342 0.961 . S
C356 C355 1.502 . S
C357 H343 0.960 . S
C357 H344 0.961 . S
C357 H345 0.959 . S
C357 C355 1.561 . S
C358 C355 1.526 . S
C358 C359 1.396 . S
C358 C363 1.390 . S
C359 C353 1.465 . S
C359 C358 1.396 . S
C359 C360 1.399 . S
C360 H346 0.929 . S
C360 C359 1.399 . S
C360 C361 1.385 . S
C361 H347 0.931 . S
C361 C360 1.385 . S
C361 C362 1.389 . S
C362 C361 1.389 . S
C362 C363 1.387 . S
C363 H348 0.930 . S
C363 C358 1.390 . S
C363 C362 1.387 . S
H364 C376 0.930 . S
H365 C378 0.930 . S
H366 C379 0.930 . S
H367 C383 0.959 . S
H368 C383 0.959 . S
H369 C383 0.961 . S
H370 C384 0.960 . S
H371 C384 0.961 . S
H372 C384 0.959 . S
H373 C387 0.929 . S
H374 C388 0.931 . S
H375 C390 0.930 . S
C376 H364 0.930 . S
C376 C377 1.399 . S
C376 C381 1.399 . S
C377 C376 1.399 . S
C377 C378 1.376 . S
C378 H365 0.930 . S
C378 C377 1.376 . S
C378 C379 1.388 . S
C379 H366 0.930 . S
C379 C378 1.388 . S
C379 C380 1.390 . S
C380 C379 1.390 . S
C380 C381 1.394 . S
C380 C386 1.465 . S
C381 C376 1.399 . S
C381 C380 1.394 . S
C381 C382 1.516 . S
C382 C381 1.516 . S
C382 C383 1.502 . S
C382 C384 1.561 . S
C382 C385 1.526 . S
C383 H367 0.959 . S
C383 H368 0.959 . S
C383 H369 0.961 . S
C383 C382 1.502 . S
C384 H370 0.960 . S
C384 H371 0.961 . S
C384 H372 0.959 . S
C384 C382 1.561 . S
C385 C382 1.526 . S
C385 C386 1.396 . S
C385 C390 1.390 . S
C386 C380 1.465 . S
C386 C385 1.396 . S
C386 C387 1.399 . S
C387 H373 0.929 . S
C387 C386 1.399 . S
C387 C388 1.385 . S
C388 H374 0.931 . S
C388 C387 1.385 . S
C388 C389 1.389 . S
C389 C388 1.389 . S
C389 C390 1.387 . S
C390 H375 0.930 . S
C390 C385 1.390 . S
C390 C389 1.387 . S
H391 C403 0.930 . S
H392 C405 0.930 . S
H393 C406 0.930 . S
H394 C410 0.959 . S
H395 C410 0.959 . S
H396 C410 0.961 . S
H397 C411 0.960 . S
H398 C411 0.961 . S
H399 C411 0.959 . S
H400 C414 0.929 . S
H401 C415 0.931 . S
H402 C417 0.930 . S
C403 H391 0.930 . S
C403 C404 1.399 . S
C403 C408 1.399 . S
C404 C403 1.399 . S
C404 C405 1.376 . S
C405 H392 0.930 . S
C405 C404 1.376 . S
C405 C406 1.388 . S
C406 H393 0.930 . S
C406 C405 1.388 . S
C406 C407 1.390 . S
C407 C406 1.390 . S
C407 C408 1.394 . S
C407 C413 1.465 . S
C408 C403 1.399 . S
C408 C407 1.394 . S
C408 C409 1.516 . S
C409 C408 1.516 . S
C409 C410 1.502 . S
C409 C411 1.561 . S
C409 C412 1.526 . S
C410 H394 0.959 . S
C410 H395 0.959 . S
C410 H396 0.961 . S
C410 C409 1.502 . S
C411 H397 0.960 . S
C411 H398 0.961 . S
C411 H399 0.959 . S
C411 C409 1.561 . S
C412 C409 1.526 . S
C412 C413 1.396 . S
C412 C417 1.390 . S
C413 C407 1.465 . S
C413 C412 1.396 . S
C413 C414 1.399 . S
C414 H400 0.929 . S
C414 C413 1.399 . S
C414 C415 1.385 . S
C415 H401 0.931 . S
C415 C414 1.385 . S
C415 C416 1.389 . S
C416 C415 1.389 . S
C416 C417 1.387 . S
C417 H402 0.930 . S
C417 C412 1.390 . S
C417 C416 1.387 . S
H418 C430 0.930 . S
H419 C432 0.930 . S
H420 C433 0.930 1_545 S
H421 C437 0.959 . S
H422 C437 0.959 . S
H423 C437 0.961 . S
H424 C438 0.960 . S
H425 C438 0.961 . S
H426 C438 0.959 . S
H427 C441 0.929 . S
H428 C442 0.931 . S
H429 C444 0.930 . S
C430 H418 0.930 . S
C430 C431 1.399 . S
C430 C435 1.399 . S
C431 C430 1.399 . S
C431 C432 1.376 . S
C432 H419 0.930 . S
C432 C431 1.376 . S
C432 C433 1.388 . S
C433 H420 0.930 1_565 S
C433 C432 1.388 . S
C433 C434 1.390 . S
C434 C433 1.390 . S
C434 C435 1.394 . S
C434 C440 1.465 . S
C435 C430 1.399 . S
C435 C434 1.394 . S
C435 C436 1.516 . S
C436 C435 1.516 . S
C436 C437 1.502 . S
C436 C438 1.561 . S
C436 C439 1.526 . S
C437 H421 0.959 . S
C437 H422 0.959 . S
C437 H423 0.961 . S
C437 C436 1.502 . S
C438 H424 0.960 . S
C438 H425 0.961 . S
C438 H426 0.959 . S
C438 C436 1.561 . S
C439 C436 1.526 . S
C439 C440 1.396 . S
C439 C444 1.390 . S
C440 C434 1.465 . S
C440 C439 1.396 . S
C440 C441 1.399 1_565 S
C441 H427 0.929 . S
C441 C440 1.399 1_545 S
C441 C442 1.385 . S
C442 H428 0.931 . S
C442 C441 1.385 . S
C442 C443 1.389 . S
C443 C442 1.389 . S
C443 C444 1.387 1_545 S
C444 H429 0.930 . S
C444 C439 1.390 . S
C444 C443 1.387 1_565 S
H445 C457 0.930 . S
H446 C459 0.930 . S
H447 C460 0.930 . S
H448 C464 0.959 . S
H449 C464 0.959 . S
H450 C464 0.961 . S
H451 C465 0.960 . S
H452 C465 0.961 . S
H453 C465 0.959 . S
H454 C468 0.929 . S
H455 C469 0.931 . S
H456 C471 0.930 . S
C457 H445 0.930 . S
C457 C458 1.399 . S
C457 C462 1.399 . S
C458 C457 1.399 . S
C458 C459 1.376 . S
C459 H446 0.930 . S
C459 C458 1.376 . S
C459 C460 1.388 . S
C460 H447 0.930 . S
C460 C459 1.388 . S
C460 C461 1.390 . S
C461 C460 1.390 . S
C461 C462 1.394 . S
C461 C467 1.465 . S
C462 C457 1.399 . S
C462 C461 1.394 . S
C462 C463 1.516 1_545 S
C463 C462 1.516 1_565 S
C463 C464 1.502 . S
C463 C465 1.561 . S
C463 C466 1.526 1_565 S
C464 H448 0.959 . S
C464 H449 0.959 . S
C464 H450 0.961 . S
C464 C463 1.502 . S
C465 H451 0.960 . S
C465 H452 0.961 . S
C465 H453 0.959 . S
C465 C463 1.561 . S
C466 C463 1.526 1_545 S
C466 C467 1.396 . S
C466 C471 1.390 1_545 S
C467 C461 1.465 . S
C467 C466 1.396 . S
C467 C468 1.399 . S
C468 H454 0.929 . S
C468 C467 1.399 . S
C468 C469 1.385 . S
C469 H455 0.931 . S
C469 C468 1.385 . S
C469 C470 1.389 1_545 S
C470 C469 1.389 1_565 S
C470 C471 1.387 . S
C471 H456 0.930 . S
C471 C466 1.390 1_565 S
C471 C470 1.387 . S
H472 C484 0.930 . S
H473 C486 0.930 . S
H474 C487 0.930 . S
H475 C491 0.959 . S
H476 C491 0.959 . S
H477 C491 0.961 . S
H478 C492 0.960 . S
H479 C492 0.961 . S
H480 C492 0.959 . S
H481 C495 0.929 . S
H482 C496 0.931 . S
H483 C498 0.930 . S
C484 H472 0.930 . S
C484 C485 1.399 . S
C484 C489 1.399 . S
C485 C484 1.399 . S
C485 C486 1.376 . S
C486 H473 0.930 . S
C486 C485 1.376 . S
C486 C487 1.388 . S
C487 H474 0.930 . S
C487 C486 1.388 . S
C487 C488 1.390 . S
C488 C487 1.390 . S
C488 C489 1.394 . S
C488 C494 1.465 . S
C489 C484 1.399 . S
C489 C488 1.394 . S
C489 C490 1.516 . S
C490 C489 1.516 . S
C490 C491 1.502 . S
C490 C492 1.561 . S
C490 C493 1.526 . S
C491 H475 0.959 . S
C491 H476 0.959 . S
C491 H477 0.961 . S
C491 C490 1.502 . S
C492 H478 0.960 . S
C492 H479 0.961 . S
C492 H480 0.959 . S
C492 C490 1.561 . S
C493 C490 1.526 . S
C493 C494 1.396 . S
C493 C498 1.390 . S
C494 C488 1.465 . S
C494 C493 1.396 . S
C494 C495 1.399 . S
C495 H481 0.929 . S
C495 C494 1.399 . S
C495 C496 1.385 . S
C496 H482 0.931 . S
C496 C495 1.385 . S
C496 C497 1.389 . S
C497 C496 1.389 . S
C497 C498 1.387 . S
C498 H483 0.930 . S
C498 C493 1.390 . S
C498 C497 1.387 . S
H499 C511 0.930 . S
H500 C513 0.930 . S
H501 C514 0.930 . S
H502 C518 0.959 . S
H503 C518 0.959 . S
H504 C518 0.961 . S
H505 C519 0.960 1_545 S
H506 C519 0.961 . S
H507 C519 0.959 1_545 S
H508 C522 0.929 . S
H509 C523 0.931 . S
H510 C525 0.930 . S
C511 H499 0.930 . S
C511 C512 1.399 . S
C511 C516 1.399 . S
C512 C511 1.399 . S
C512 C513 1.376 . S
C513 H500 0.930 . S
C513 C512 1.376 . S
C513 C514 1.388 . S
C514 H501 0.930 . S
C514 C513 1.388 . S
C514 C515 1.390 . S
C515 C514 1.390 . S
C515 C516 1.394 . S
C515 C521 1.465 . S
C516 C511 1.399 . S
C516 C515 1.394 . S
C516 C517 1.516 . S
C517 C516 1.516 . S
C517 C518 1.502 . S
C517 C519 1.561 . S
C517 C520 1.526 . S
C518 H502 0.959 . S
C518 H503 0.959 . S
C518 H504 0.961 . S
C518 C517 1.502 . S
C519 H505 0.960 1_565 S
C519 H506 0.961 . S
C519 H507 0.959 1_565 S
C519 C517 1.561 . S
C520 C517 1.526 . S
C520 C521 1.396 . S
C520 C525 1.390 . S
C521 C515 1.465 . S
C521 C520 1.396 . S
C521 C522 1.399 . S
C522 H508 0.929 . S
C522 C521 1.399 . S
C522 C523 1.385 . S
C523 H509 0.931 . S
C523 C522 1.385 . S
C523 C524 1.389 . S
C524 C523 1.389 . S
C524 C525 1.387 . S
C525 H510 0.930 . S
C525 C520 1.390 . S
C525 C524 1.387 . S
H526 C538 0.930 . S
H527 C540 0.930 . S
H528 C541 0.930 . S
H529 C545 0.959 . S
H530 C545 0.959 . S
H531 C545 0.961 . S
H532 C546 0.960 . S
H533 C546 0.961 . S
H534 C546 0.959 . S
H535 C549 0.929 . S
H536 C550 0.931 . S
H537 C552 0.930 . S
C538 H526 0.930 . S
C538 C539 1.399 . S
C538 C543 1.399 . S
C539 C538 1.399 . S
C539 C540 1.376 . S
C540 H527 0.930 . S
C540 C539 1.376 . S
C540 C541 1.388 . S
C541 H528 0.930 . S
C541 C540 1.388 . S
C541 C542 1.390 . S
C542 C541 1.390 . S
C542 C543 1.394 . S
C542 C548 1.465 . S
C543 C538 1.399 . S
C543 C542 1.394 . S
C543 C544 1.516 . S
C544 C543 1.516 . S
C544 C545 1.502 . S
C544 C546 1.561 . S
C544 C547 1.526 . S
C545 H529 0.959 . S
C545 H530 0.959 . S
C545 H531 0.961 . S
C545 C544 1.502 . S
C546 H532 0.960 . S
C546 H533 0.961 . S
C546 H534 0.959 . S
C546 C544 1.561 . S
C547 C544 1.526 . S
C547 C548 1.396 . S
C547 C552 1.390 . S
C548 C542 1.465 . S
C548 C547 1.396 . S
C548 C549 1.399 . S
C549 H535 0.929 . S
C549 C548 1.399 . S
C549 C550 1.385 . S
C550 H536 0.931 . S
C550 C549 1.385 . S
C550 C551 1.389 . S
C551 C550 1.389 . S
C551 C552 1.387 . S
C552 H537 0.930 . S
C552 C547 1.390 . S
C552 C551 1.387 . S
H553 C565 0.930 . S
H554 C567 0.930 . S
H555 C568 0.930 . S
H556 C572 0.959 . S
H557 C572 0.959 . S
H558 C572 0.961 . S
H559 C573 0.960 . S
H560 C573 0.961 . S
H561 C573 0.959 . S
H562 C576 0.929 . S
H563 C577 0.931 . S
H564 C579 0.930 . S
C565 H553 0.930 . S
C565 C566 1.399 . S
C565 C570 1.399 . S
C566 C565 1.399 . S
C566 C567 1.376 . S
C567 H554 0.930 . S
C567 C566 1.376 . S
C567 C568 1.388 . S
C568 H555 0.930 . S
C568 C567 1.388 . S
C568 C569 1.390 . S
C569 C568 1.390 . S
C569 C570 1.394 . S
C569 C575 1.465 . S
C570 C565 1.399 . S
C570 C569 1.394 . S
C570 C571 1.516 . S
C571 C570 1.516 . S
C571 C572 1.502 . S
C571 C573 1.561 . S
C571 C574 1.526 . S
C572 H556 0.959 . S
C572 H557 0.959 . S
C572 H558 0.961 . S
C572 C571 1.502 . S
C573 H559 0.960 . S
C573 H560 0.961 . S
C573 H561 0.959 . S
C573 C571 1.561 . S
C574 C571 1.526 . S
C574 C575 1.396 . S
C574 C579 1.390 . S
C575 C569 1.465 . S
C575 C574 1.396 . S
C575 C576 1.399 . S
C576 H562 0.929 . S
C576 C575 1.399 . S
C576 C577 1.385 . S
C577 H563 0.931 . S
C577 C576 1.385 . S
C577 C578 1.389 . S
C578 C577 1.389 . S
C578 C579 1.387 . S
C579 H564 0.930 . S
C579 C574 1.390 . S
C579 C578 1.387 . S
H580 C592 0.930 . S
H581 C594 0.930 . S
H582 C595 0.930 . S
H583 C599 0.959 . S
H584 C599 0.959 . S
H585 C599 0.961 . S
H586 C600 0.960 . S
H587 C600 0.961 . S
H588 C600 0.959 . S
H589 C603 0.929 . S
H590 C604 0.931 . S
H591 C606 0.930 . S
C592 H580 0.930 . S
C592 C593 1.399 . S
C592 C597 1.399 . S
C593 C592 1.399 . S
C593 C594 1.376 . S
C594 H581 0.930 . S
C594 C593 1.376 . S
C594 C595 1.388 . S
C595 H582 0.930 . S
C595 C594 1.388 . S
C595 C596 1.390 . S
C596 C595 1.390 . S
C596 C597 1.394 . S
C596 C602 1.465 . S
C597 C592 1.399 . S
C597 C596 1.394 . S
C597 C598 1.516 . S
C598 C597 1.516 . S
C598 C599 1.502 . S
C598 C600 1.561 . S
C598 C601 1.526 . S
C599 H583 0.959 . S
C599 H584 0.959 . S
C599 H585 0.961 . S
C599 C598 1.502 . S
C600 H586 0.960 . S
C600 H587 0.961 . S
C600 H588 0.959 . S
C600 C598 1.561 . S
C601 C598 1.526 . S
C601 C602 1.396 . S
C601 C606 1.390 . S
C602 C596 1.465 . S
C602 C601 1.396 . S
C602 C603 1.399 . S
C603 H589 0.929 . S
C603 C602 1.399 . S
C603 C604 1.385 . S
C604 H590 0.931 . S
C604 C603 1.385 . S
C604 C605 1.389 . S
C605 C604 1.389 . S
C605 C606 1.387 . S
C606 H591 0.930 . S
C606 C601 1.390 . S
C606 C605 1.387 . S
H607 C619 0.930 . S
H608 C621 0.930 . S
H609 C622 0.930 . S
H610 C626 0.959 . S
H611 C626 0.959 . S
H612 C626 0.961 . S
H613 C627 0.960 . S
H614 C627 0.961 . S
H615 C627 0.959 . S
H616 C630 0.929 . S
H617 C631 0.931 . S
H618 C633 0.930 . S
C619 H607 0.930 . S
C619 C620 1.399 . S
C619 C624 1.399 . S
C620 C619 1.399 . S
C620 C621 1.376 . S
C621 H608 0.930 . S
C621 C620 1.376 . S
C621 C622 1.388 . S
C622 H609 0.930 . S
C622 C621 1.388 . S
C622 C623 1.390 . S
C623 C622 1.390 . S
C623 C624 1.394 . S
C623 C629 1.465 . S
C624 C619 1.399 . S
C624 C623 1.394 . S
C624 C625 1.516 . S
C625 C624 1.516 . S
C625 C626 1.502 . S
C625 C627 1.561 . S
C625 C628 1.526 . S
C626 H610 0.959 . S
C626 H611 0.959 . S
C626 H612 0.961 . S
C626 C625 1.502 . S
C627 H613 0.960 . S
C627 H614 0.961 . S
C627 H615 0.959 . S
C627 C625 1.561 . S
C628 C625 1.526 . S
C628 C629 1.396 . S
C628 C633 1.390 . S
C629 C623 1.465 . S
C629 C628 1.396 . S
C629 C630 1.399 . S
C630 H616 0.929 . S
C630 C629 1.399 . S
C630 C631 1.385 . S
C631 H617 0.931 . S
C631 C630 1.385 . S
C631 C632 1.389 . S
C632 C631 1.389 . S
C632 C633 1.387 . S
C633 H618 0.930 . S
C633 C628 1.390 . S
C633 C632 1.387 . S
H634 C646 0.930 . S
H635 C648 0.930 . S
H636 C649 0.928 1_545 S
H637 C653 0.959 . S
H638 C653 0.959 . S
H639 C653 0.961 . S
H640 C654 0.960 . S
H641 C654 0.961 . S
H642 C654 0.959 . S
H643 C657 0.929 . S
H644 C658 0.931 . S
H645 C660 0.930 . S
C646 H634 0.930 . S
C646 C647 1.399 1_565 S
C646 C651 1.399 . S
C647 C646 1.399 1_545 S
C647 C648 1.376 . S
C648 H635 0.930 . S
C648 C647 1.376 . S
C648 C649 1.384 1_545 S
C649 H636 0.928 1_565 S
C649 C648 1.384 1_565 S
C649 C650 1.396 . S
C650 C649 1.396 . S
C650 C651 1.394 . S
C650 C656 1.465 . S
C651 C646 1.399 . S
C651 C650 1.394 . S
C651 C652 1.516 . S
C652 C651 1.516 . S
C652 C653 1.502 . S
C652 C654 1.561 . S
C652 C655 1.526 . S
C653 H637 0.959 . S
C653 H638 0.959 . S
C653 H639 0.961 . S
C653 C652 1.502 . S
C654 H640 0.960 . S
C654 H641 0.961 . S
C654 H642 0.959 . S
C654 C652 1.561 . S
C655 C652 1.526 . S
C655 C656 1.396 . S
C655 C660 1.390 . S
C656 C650 1.465 . S
C656 C655 1.396 . S
C656 C657 1.399 . S
C657 H643 0.929 . S
C657 C656 1.399 . S
C657 C658 1.385 . S
C658 H644 0.931 . S
C658 C657 1.385 . S
C658 C659 1.389 . S
C659 C658 1.389 . S
C659 C660 1.387 . S
C660 H645 0.930 . S
C660 C655 1.390 . S
C660 C659 1.387 . S
H661 C673 0.930 . S
H662 C675 0.930 . S
H663 C676 0.930 . S
H664 C680 0.959 . S
H665 C680 0.959 . S
H666 C680 0.961 . S
H667 C681 0.960 . S
H668 C681 0.961 . S
H669 C681 0.959 . S
H670 C684 0.929 . S
H671 C685 0.931 . S
H672 C687 0.930 . S
C673 H661 0.930 . S
C673 C674 1.399 1_545 S
C673 C678 1.399 . S
C674 C673 1.399 1_565 S
C674 C675 1.376 . S
C675 H662 0.930 . S
C675 C674 1.376 . S
C675 C676 1.388 . S
C676 H663 0.930 . S
C676 C675 1.388 . S
C676 C677 1.390 1_565 S
C677 C676 1.390 1_545 S
C677 C678 1.394 . S
C677 C683 1.465 . S
C678 C673 1.399 . S
C678 C677 1.394 . S
C678 C679 1.516 . S
C679 C678 1.516 . S
C679 C680 1.502 . S
C679 C681 1.561 . S
C679 C682 1.526 . S
C680 H664 0.959 . S
C680 H665 0.959 . S
C680 H666 0.961 . S
C680 C679 1.502 . S
C681 H667 0.960 . S
C681 H668 0.961 . S
C681 H669 0.959 . S
C681 C679 1.561 . S
C682 C679 1.526 . S
C682 C683 1.396 . S
C682 C687 1.390 . S
C683 C677 1.465 . S
C683 C682 1.396 . S
C683 C684 1.399 . S
C684 H670 0.929 . S
C684 C683 1.399 . S
C684 C685 1.385 . S
C685 H671 0.931 . S
C685 C684 1.385 . S
C685 C686 1.389 . S
C686 C685 1.389 . S
C686 C687 1.387 . S
C687 H672 0.930 . S
C687 C682 1.390 . S
C687 C686 1.387 . S
H688 C700 0.930 . S
H689 C702 0.930 . S
H690 C703 0.930 . S
H691 C707 0.959 . S
H692 C707 0.959 . S
H693 C707 0.961 . S
H694 C708 0.960 . S
H695 C708 0.961 . S
H696 C708 0.959 1_655 S
H697 C711 0.929 . S
H698 C712 0.931 . S
H699 C714 0.930 . S
C700 H688 0.930 . S
C700 C701 1.392 1_455 S
C700 C705 1.399 . S
C701 C700 1.392 1_655 S
C701 C702 1.385 1_554 S
C702 H689 0.930 . S
C702 C701 1.385 1_556 S
C702 C703 1.388 . S
C703 H690 0.930 . S
C703 C702 1.388 . S
C703 C704 1.390 . S
C704 C703 1.390 . S
C704 C705 1.394 1_656 S
C704 C710 1.465 . S
C705 C700 1.399 . S
C705 C704 1.394 1_454 S
C705 C706 1.516 . S
C706 C705 1.516 . S
C706 C707 1.502 . S
C706 C708 1.561 . S
C706 C709 1.526 . S
C707 H691 0.959 . S
C707 H692 0.959 . S
C707 H693 0.961 . S
C707 C706 1.502 . S
C708 H694 0.960 . S
C708 H695 0.961 . S
C708 H696 0.959 1_455 S
C708 C706 1.561 . S
C709 C706 1.526 . S
C709 C710 1.396 1_454 S
C709 C714 1.390 . S
C710 C704 1.465 . S
C710 C709 1.396 1_656 S
C710 C711 1.399 . S
C711 H697 0.929 . S
C711 C710 1.399 . S
C711 C712 1.385 . S
C712 H698 0.931 . S
C712 C711 1.385 . S
C712 C713 1.389 1_655 S
C713 C712 1.389 1_455 S
C713 C714 1.387 1_556 S
C714 H699 0.930 . S
C714 C709 1.390 . S
C714 C713 1.387 1_554 S
H715 C727 0.930 . S
H716 C729 0.930 . S
H717 C730 0.930 . S
H718 C734 0.959 . S
H719 C734 0.959 . S
H720 C734 0.961 . S
H721 C735 0.960 . S
H722 C735 0.961 . S
H723 C735 0.959 . S
H724 C738 0.929 . S
H725 C739 0.931 . S
H726 C741 0.930 . S
C727 H715 0.930 . S
C727 C728 1.399 . S
C727 C732 1.399 . S
C728 C727 1.399 . S
C728 C729 1.376 . S
C729 H716 0.930 . S
C729 C728 1.376 . S
C729 C730 1.388 . S
C730 H717 0.930 . S
C730 C729 1.388 . S
C730 C731 1.390 . S
C731 C730 1.390 . S
C731 C732 1.394 . S
C731 C737 1.465 . S
C732 C727 1.399 . S
C732 C731 1.394 . S
C732 C733 1.516 . S
C733 C732 1.516 . S
C733 C734 1.502 . S
C733 C735 1.561 . S
C733 C736 1.526 . S
C734 H718 0.959 . S
C734 H719 0.959 . S
C734 H720 0.961 . S
C734 C733 1.502 . S
C735 H721 0.960 . S
C735 H722 0.961 . S
C735 H723 0.959 . S
C735 C733 1.561 . S
C736 C733 1.526 . S
C736 C737 1.396 . S
C736 C741 1.390 . S
C737 C731 1.465 . S
C737 C736 1.396 . S
C737 C738 1.399 . S
C738 H724 0.929 . S
C738 C737 1.399 . S
C738 C739 1.385 . S
C739 H725 0.931 . S
C739 C738 1.385 . S
C739 C740 1.389 . S
C740 C739 1.389 . S
C740 C741 1.387 . S
C741 H726 0.930 . S
C741 C736 1.390 . S
C741 C740 1.387 . S
H742 C754 0.930 . S
H743 C756 0.930 1_565 S
H744 C757 0.930 . S
H745 C761 0.959 . S
H746 C761 0.959 . S
H747 C761 0.961 . S
H748 C762 0.960 . S
H749 C762 0.961 . S
H750 C762 0.959 . S
H751 C765 0.929 . S
H752 C766 0.931 . S
H753 C768 0.930 . S
C754 H742 0.930 . S
C754 C755 1.399 . S
C754 C759 1.399 . S
C755 C754 1.399 . S
C755 C756 1.376 . S
C756 H743 0.930 1_545 S
C756 C755 1.376 . S
C756 C757 1.388 . S
C757 H744 0.930 . S
C757 C756 1.388 . S
C757 C758 1.390 . S
C758 C757 1.390 . S
C758 C759 1.394 . S
C758 C764 1.465 . S
C759 C754 1.399 . S
C759 C758 1.394 . S
C759 C760 1.516 . S
C760 C759 1.516 . S
C760 C761 1.502 . S
C760 C762 1.561 . S
C760 C763 1.526 . S
C761 H745 0.959 . S
C761 H746 0.959 . S
C761 H747 0.961 . S
C761 C760 1.502 . S
C762 H748 0.960 . S
C762 H749 0.961 . S
C762 H750 0.959 . S
C762 C760 1.561 . S
C763 C760 1.526 . S
C763 C764 1.396 . S
C763 C768 1.390 . S
C764 C758 1.465 . S
C764 C763 1.396 . S
C764 C765 1.399 . S
C765 H751 0.929 . S
C765 C764 1.399 . S
C765 C766 1.385 . S
C766 H752 0.931 . S
C766 C765 1.385 . S
C766 C767 1.389 . S
C767 C766 1.389 . S
C767 C768 1.387 . S
C768 H753 0.930 . S
C768 C763 1.390 . S
C768 C767 1.387 . S
H769 C781 0.930 . S
H770 C783 0.930 . S
H771 C784 0.930 . S
H772 C788 0.959 1_545 S
H773 C788 0.959 1_545 S
H774 C788 0.961 . S
H775 C789 0.960 . S
H776 C789 0.961 1_545 S
H777 C789 0.959 . S
H778 C792 0.929 . S
H779 C793 0.931 . S
H780 C795 0.930 . S
C781 H769 0.930 . S
C781 C782 1.399 1_655 S
C781 C786 1.399 . S
C782 C781 1.399 1_455 S
C782 C783 1.376 . S
C783 H770 0.930 . S
C783 C782 1.376 . S
C783 C784 1.388 . S
C784 H771 0.930 . S
C784 C783 1.388 . S
C784 C785 1.390 . S
C785 C784 1.390 . S
C785 C786 1.394 1_455 S
C785 C791 1.465 1_565 S
C786 C781 1.399 . S
C786 C785 1.394 1_655 S
C786 C787 1.516 . S
C787 C786 1.516 . S
C787 C788 1.502 . S
C787 C789 1.561 . S
C787 C790 1.526 1_565 S
C788 H772 0.959 1_565 S
C788 H773 0.959 1_565 S
C788 H774 0.961 . S
C788 C787 1.502 . S
C789 H775 0.960 . S
C789 H776 0.961 1_565 S
C789 H777 0.959 . S
C789 C787 1.561 . S
C790 C787 1.526 1_545 S
C790 C791 1.396 1_655 S
C790 C795 1.390 . S
C791 C785 1.465 1_545 S
C791 C790 1.396 1_455 S
C791 C792 1.399 . S
C792 H778 0.929 . S
C792 C791 1.399 . S
C792 C793 1.385 . S
C793 H779 0.931 . S
C793 C792 1.385 . S
C793 C794 1.389 . S
C794 C793 1.389 . S
C794 C795 1.387 1_455 S
C795 H780 0.930 . S
C795 C790 1.390 . S
C795 C794 1.387 1_655 S
H796 C808 0.930 . S
H797 C810 0.930 1_565 S
H798 C811 0.930 . S
H799 C815 0.959 . S
H800 C815 0.959 . S
H801 C815 0.961 . S
H802 C816 0.960 . S
H803 C816 0.961 . S
H804 C816 0.959 . S
H805 C819 0.929 . S
H806 C820 0.931 . S
H807 C822 0.930 . S
C808 H796 0.930 . S
C808 C809 1.399 . S
C808 C813 1.399 . S
C809 C808 1.399 . S
C809 C810 1.376 . S
C810 H797 0.930 1_545 S
C810 C809 1.376 . S
C810 C811 1.388 . S
C811 H798 0.930 . S
C811 C810 1.388 . S
C811 C812 1.390 . S
C812 C811 1.390 . S
C812 C813 1.394 . S
C812 C818 1.465 . S
C813 C808 1.399 . S
C813 C812 1.394 . S
C813 C814 1.516 . S
C814 C813 1.516 . S
C814 C815 1.502 . S
C814 C816 1.561 . S
C814 C817 1.526 . S
C815 H799 0.959 . S
C815 H800 0.959 . S
C815 H801 0.961 . S
C815 C814 1.502 . S
C816 H802 0.960 . S
C816 H803 0.961 . S
C816 H804 0.959 . S
C816 C814 1.561 . S
C817 C814 1.526 . S
C817 C818 1.396 . S
C817 C822 1.390 . S
C818 C812 1.465 . S
C818 C817 1.396 . S
C818 C819 1.399 . S
C819 H805 0.929 . S
C819 C818 1.399 . S
C819 C820 1.385 . S
C820 H806 0.931 . S
C820 C819 1.385 . S
C820 C821 1.389 . S
C821 C820 1.389 . S
C821 C822 1.387 . S
C822 H807 0.930 . S
C822 C817 1.390 . S
C822 C821 1.387 . S
H823 C835 0.930 . S
H824 C837 0.930 . S
H825 C838 0.930 . S
H826 C842 0.959 . S
H827 C842 0.959 . S
H828 C842 0.961 . S
H829 C843 0.960 . S
H830 C843 0.961 . S
H831 C843 0.959 . S
H832 C846 0.929 . S
H833 C847 0.931 . S
H834 C849 0.930 . S
C835 H823 0.930 . S
C835 C836 1.399 . S
C835 C840 1.399 . S
C836 C835 1.399 . S
C836 C837 1.376 . S
C837 H824 0.930 . S
C837 C836 1.376 . S
C837 C838 1.388 . S
C838 H825 0.930 . S
C838 C837 1.388 . S
C838 C839 1.390 . S
C839 C838 1.390 . S
C839 C840 1.394 . S
C839 C845 1.465 . S
C840 C835 1.399 . S
C840 C839 1.394 . S
C840 C841 1.516 . S
C841 C840 1.516 . S
C841 C842 1.502 . S
C841 C843 1.561 . S
C841 C844 1.526 . S
C842 H826 0.959 . S
C842 H827 0.959 . S
C842 H828 0.961 . S
C842 C841 1.502 . S
C843 H829 0.960 . S
C843 H830 0.961 . S
C843 H831 0.959 . S
C843 C841 1.561 . S
C844 C841 1.526 . S
C844 C845 1.396 . S
C844 C849 1.390 . S
C845 C839 1.465 . S
C845 C844 1.396 . S
C845 C846 1.399 . S
C846 H832 0.929 . S
C846 C845 1.399 . S
C846 C847 1.385 . S
C847 H833 0.931 . S
C847 C846 1.385 . S
C847 C848 1.389 . S
C848 C847 1.389 . S
C848 C849 1.387 . S
C849 H834 0.930 . S
C849 C844 1.390 . S
C849 C848 1.387 . S
H850 C862 0.930 . S
H851 C864 0.930 . S
H852 C865 0.930 . S
H853 C869 0.959 . S
H854 C869 0.959 . S
H855 C869 0.961 . S
H856 C870 0.960 . S
H857 C870 0.961 . S
H858 C870 0.959 . S
H859 C873 0.929 . S
H860 C874 0.931 . S
H861 C876 0.930 . S
C862 H850 0.930 . S
C862 C863 1.399 . S
C862 C867 1.399 . S
C863 C862 1.399 . S
C863 C864 1.376 . S
C864 H851 0.930 . S
C864 C863 1.376 . S
C864 C865 1.388 . S
C865 H852 0.930 . S
C865 C864 1.388 . S
C865 C866 1.390 . S
C866 C865 1.390 . S
C866 C867 1.394 . S
C866 C872 1.465 . S
C867 C862 1.399 . S
C867 C866 1.394 . S
C867 C868 1.516 . S
C868 C867 1.516 . S
C868 C869 1.502 . S
C868 C870 1.561 . S
C868 C871 1.526 . S
C869 H853 0.959 . S
C869 H854 0.959 . S
C869 H855 0.961 . S
C869 C868 1.502 . S
C870 H856 0.960 . S
C870 H857 0.961 . S
C870 H858 0.959 . S
C870 C868 1.561 . S
C871 C868 1.526 . S
C871 C872 1.396 . S
C871 C876 1.390 . S
C872 C866 1.465 . S
C872 C871 1.396 . S
C872 C873 1.399 . S
C873 H859 0.929 . S
C873 C872 1.399 . S
C873 C874 1.385 . S
C874 H860 0.931 . S
C874 C873 1.385 . S
C874 C875 1.389 . S
C875 C874 1.389 . S
C875 C876 1.387 . S
C876 H861 0.930 . S
C876 C871 1.390 . S
C876 C875 1.387 . S
H877 C889 0.930 . S
H878 C891 0.930 . S
H879 C892 0.930 . S
H880 C896 0.959 . S
H881 C896 0.959 . S
H882 C896 0.961 1_565 S
H883 C897 0.960 1_565 S
H884 C897 0.961 . S
H885 C897 0.959 . S
H886 C900 0.929 . S
H887 C901 0.931 . S
H888 C903 0.930 . S
C889 H877 0.930 . S
C889 C890 1.369 1_556 S
C889 C894 1.399 . S
C890 C889 1.369 1_554 S
C890 C891 1.427 . S
C891 H878 0.930 . S
C891 C890 1.427 . S
C891 C892 1.388 . S
C892 H879 0.930 . S
C892 C891 1.388 . S
C892 C893 1.390 . S
C893 C892 1.390 . S
C893 C894 1.394 1_554 S
C893 C899 1.465 1_565 S
C894 C889 1.399 . S
C894 C893 1.394 1_556 S
C894 C895 1.516 1_565 S
C895 C894 1.516 1_545 S
C895 C896 1.502 . S
C895 C897 1.561 . S
C895 C898 1.526 . S
C896 H880 0.959 . S
C896 H881 0.959 . S
C896 H882 0.961 1_545 S
C896 C895 1.502 . S
C897 H883 0.960 1_545 S
C897 H884 0.961 . S
C897 H885 0.959 . S
C897 C895 1.561 . S
C898 C895 1.526 . S
C898 C899 1.396 1_556 S
C898 C903 1.390 . S
C899 C893 1.465 1_545 S
C899 C898 1.396 1_554 S
C899 C900 1.399 . S
C900 H886 0.929 . S
C900 C899 1.399 . S
C900 C901 1.385 . S
C901 H887 0.931 . S
C901 C900 1.385 . S
C901 C902 1.389 . S
C902 C901 1.389 . S
C902 C903 1.387 1_554 S
C903 H888 0.930 . S
C903 C898 1.390 . S
C903 C902 1.387 1_556 S
H904 C916 0.930 . S
H905 C918 0.930 . S
H906 C919 0.930 . S
H907 C923 0.959 . S
H908 C923 0.959 . S
H909 C923 0.961 . S
H910 C924 0.960 . S
H911 C924 0.961 . S
H912 C924 0.959 . S
H913 C927 0.929 . S
H914 C928 0.931 . S
H915 C930 0.930 . S
C916 H904 0.930 . S
C916 C917 1.399 1_554 S
C916 C921 1.399 . S
C917 C916 1.399 1_556 S
C917 C918 1.376 . S
C918 H905 0.930 . S
C918 C917 1.376 . S
C918 C919 1.388 . S
C919 H906 0.930 . S
C919 C918 1.388 . S
C919 C920 1.390 . S
C920 C919 1.390 . S
C920 C921 1.394 1_556 S
C920 C926 1.465 . S
C921 C916 1.399 . S
C921 C920 1.394 1_554 S
C921 C922 1.516 . S
C922 C921 1.516 . S
C922 C923 1.502 . S
C922 C924 1.561 . S
C922 C925 1.526 . S
C923 H907 0.959 . S
C923 H908 0.959 . S
C923 H909 0.961 . S
C923 C922 1.502 . S
C924 H910 0.960 . S
C924 H911 0.961 . S
C924 H912 0.959 . S
C924 C922 1.561 . S
C925 C922 1.526 . S
C925 C926 1.396 1_554 S
C925 C930 1.390 . S
C926 C920 1.465 . S
C926 C925 1.396 1_556 S
C926 C927 1.399 . S
C927 H913 0.929 . S
C927 C926 1.399 . S
C927 C928 1.385 . S
C928 H914 0.931 . S
C928 C927 1.385 . S
C928 C929 1.389 1_556 S
C929 C928 1.389 1_554 S
C929 C930 1.387 . S
C930 H915 0.930 . S
C930 C925 1.390 . S
C930 C929 1.387 . S
H931 C943 0.930 . S
H932 C945 0.930 . S
H933 C946 0.930 . S
H934 C950 0.959 . S
H935 C950 0.959 . S
H936 C950 0.961 . S
H937 C951 0.960 . S
H938 C951 0.961 . S
H939 C951 0.959 . S
H940 C954 0.929 . S
H941 C955 0.931 . S
H942 C957 0.930 . S
C943 H931 0.930 . S
C943 C944 1.399 1_554 S
C943 C948 1.399 . S
C944 C943 1.399 1_556 S
C944 C945 1.376 . S
C945 H932 0.930 . S
C945 C944 1.376 . S
C945 C946 1.388 . S
C946 H933 0.930 . S
C946 C945 1.388 . S
C946 C947 1.390 . S
C947 C946 1.390 . S
C947 C948 1.394 1_556 S
C947 C953 1.465 . S
C948 C943 1.399 . S
C948 C947 1.394 1_554 S
C948 C949 1.516 . S
C949 C948 1.516 . S
C949 C950 1.502 . S
C949 C951 1.561 . S
C949 C952 1.526 . S
C950 H934 0.959 . S
C950 H935 0.959 . S
C950 H936 0.961 . S
C950 C949 1.502 . S
C951 H937 0.960 . S
C951 H938 0.961 . S
C951 H939 0.959 . S
C951 C949 1.561 . S
C952 C949 1.526 . S
C952 C953 1.396 1_554 S
C952 C957 1.390 . S
C953 C947 1.465 . S
C953 C952 1.396 1_556 S
C953 C954 1.399 . S
C954 H940 0.929 . S
C954 C953 1.399 . S
C954 C955 1.385 . S
C955 H941 0.931 . S
C955 C954 1.385 . S
C955 C956 1.389 1_556 S
C956 C955 1.389 1_554 S
C956 C957 1.387 . S
C957 H942 0.930 . S
C957 C952 1.390 . S
C957 C956 1.387 . S
H958 C970 0.930 . S
H959 C972 0.930 . S
H960 C973 0.930 . S
H961 C977 0.959 . S
H962 C977 0.959 . S
H963 C977 0.961 1_455 S
H964 C978 0.960 . S
H965 C978 0.961 1_655 S
H966 C978 0.959 . S
H967 C981 0.929 . S
H968 C982 0.931 . S
H969 C984 0.930 . S
C970 H958 0.930 . S
C970 C971 1.399 . S
C970 C975 1.399 . S
C971 C970 1.399 . S
C971 C972 1.376 . S
C972 H959 0.930 . S
C972 C971 1.376 . S
C972 C973 1.388 . S
C973 H960 0.930 . S
C973 C972 1.388 . S
C973 C974 1.390 . S
C974 C973 1.390 . S
C974 C975 1.394 . S
C974 C980 1.465 1_455 S
C975 C970 1.399 . S
C975 C974 1.394 . S
C975 C976 1.521 . S
C976 C975 1.521 . S
C976 C977 1.499 1_455 S
C976 C978 1.563 . S
C976 C979 1.522 1_455 S
C977 H961 0.959 . S
C977 H962 0.959 . S
C977 H963 0.961 1_655 S
C977 C976 1.499 1_655 S
C978 H964 0.960 . S
C978 H965 0.961 1_455 S
C978 H966 0.959 . S
C978 C976 1.563 . S
C979 C976 1.522 1_655 S
C979 C980 1.396 . S
C979 C984 1.390 . S
C980 C974 1.465 1_655 S
C980 C979 1.396 . S
C980 C981 1.399 . S
C981 H967 0.929 . S
C981 C980 1.399 . S
C981 C982 1.385 . S
C982 H968 0.931 . S
C982 C981 1.385 . S
C982 C983 1.389 . S
C983 C982 1.389 . S
C983 C984 1.387 . S
C984 H969 0.930 . S
C984 C979 1.390 . S
C984 C983 1.387 . S
H985 C997 0.930 . S
H986 C999 0.930 . S
H987 C1000 0.930 . S
H988 C1004 0.959 . S
H989 C1004 0.959 . S
H990 C1004 0.961 . S
H991 C1005 0.960 . S
H992 C1005 0.961 . S
H993 C1005 0.959 . S
H994 C1008 0.929 . S
H995 C1009 0.931 . S
H996 C1011 0.930 . S
C997 H985 0.930 . S
C997 C998 1.399 . S
C997 C1002 1.399 . S
C998 C997 1.399 . S
C998 C999 1.376 . S
C999 H986 0.930 . S
C999 C998 1.376 . S
C999 C1000 1.388 . S
C1000 H987 0.930 . S
C1000 C999 1.388 . S
C1000 C1001 1.390 . S
C1001 C1000 1.390 . S
C1001 C1002 1.394 . S
C1001 C1007 1.465 . S
C1002 C997 1.399 . S
C1002 C1001 1.394 . S
C1002 C1003 1.516 . S
C1003 C1002 1.516 . S
C1003 C1004 1.502 . S
C1003 C1005 1.561 . S
C1003 C1006 1.526 . S
C1004 H988 0.959 . S
C1004 H989 0.959 . S
C1004 H990 0.961 . S
C1004 C1003 1.502 . S
C1005 H991 0.960 . S
C1005 H992 0.961 . S
C1005 H993 0.959 . S
C1005 C1003 1.561 . S
C1006 C1003 1.526 . S
C1006 C1007 1.396 . S
C1006 C1011 1.390 . S
C1007 C1001 1.465 . S
C1007 C1006 1.396 . S
C1007 C1008 1.399 . S
C1008 H994 0.929 . S
C1008 C1007 1.399 . S
C1008 C1009 1.385 . S
C1009 H995 0.931 . S
C1009 C1008 1.385 . S
C1009 C1010 1.389 . S
C1010 C1009 1.389 . S
C1010 C1011 1.387 . S
C1011 H996 0.930 . S
C1011 C1006 1.390 . S
C1011 C1010 1.387 . S
H1012 C1024 0.930 . S
H1013 C1026 0.930 . S
H1014 C1027 0.930 . S
H1015 C1031 0.959 . S
H1016 C1031 0.959 . S
H1017 C1031 0.961 . S
H1018 C1032 0.960 . S
H1019 C1032 0.961 . S
H1020 C1032 0.959 . S
H1021 C1035 0.929 . S
H1022 C1036 0.931 . S
H1023 C1038 0.930 . S
C1024 H1012 0.930 . S
C1024 C1025 1.399 . S
C1024 C1029 1.399 . S
C1025 C1024 1.399 . S
C1025 C1026 1.376 . S
C1026 H1013 0.930 . S
C1026 C1025 1.376 . S
C1026 C1027 1.388 . S
C1027 H1014 0.930 . S
C1027 C1026 1.388 . S
C1027 C1028 1.390 . S
C1028 C1027 1.390 . S
C1028 C1029 1.394 . S
C1028 C1034 1.465 . S
C1029 C1024 1.399 . S
C1029 C1028 1.394 . S
C1029 C1030 1.516 . S
C1030 C1029 1.516 . S
C1030 C1031 1.502 . S
C1030 C1032 1.561 . S
C1030 C1033 1.526 . S
C1031 H1015 0.959 . S
C1031 H1016 0.959 . S
C1031 H1017 0.961 . S
C1031 C1030 1.502 . S
C1032 H1018 0.960 . S
C1032 H1019 0.961 . S
C1032 H1020 0.959 . S
C1032 C1030 1.561 . S
C1033 C1030 1.526 . S
C1033 C1034 1.396 . S
C1033 C1038 1.390 . S
C1034 C1028 1.465 . S
C1034 C1033 1.396 . S
C1034 C1035 1.399 . S
C1035 H1021 0.929 . S
C1035 C1034 1.399 . S
C1035 C1036 1.385 . S
C1036 H1022 0.931 . S
C1036 C1035 1.385 . S
C1036 C1037 1.389 . S
C1037 C1036 1.389 . S
C1037 C1038 1.387 . S
C1038 H1023 0.930 . S
C1038 C1033 1.390 . S
C1038 C1037 1.387 . S
H1039 C1051 0.930 . S
H1040 C1053 0.930 . S
H1041 C1054 0.930 1_565 S
H1042 C1058 0.959 . S
H1043 C1058 0.959 . S
H1044 C1058 0.961 . S
H1045 C1059 0.960 . S
H1046 C1059 0.961 1_455 S
H1047 C1059 0.959 . S
H1048 C1062 0.929 . S
H1049 C1063 0.931 . S
H1050 C1065 0.930 . S
C1051 H1039 0.930 . S
C1051 C1052 1.399 . S
C1051 C1056 1.399 . S
C1052 C1051 1.399 . S
C1052 C1053 1.376 . S
C1053 H1040 0.930 . S
C1053 C1052 1.376 . S
C1053 C1054 1.388 . S
C1054 H1041 0.930 1_545 S
C1054 C1053 1.388 . S
C1054 C1055 1.390 . S
C1055 C1054 1.390 . S
C1055 C1056 1.394 . S
C1055 C1061 1.465 1_645 S
C1056 C1051 1.399 . S
C1056 C1055 1.394 . S
C1056 C1057 1.516 1_655 S
C1057 C1056 1.516 1_455 S
C1057 C1058 1.502 . S
C1057 C1059 1.561 1_445 S
C1057 C1060 1.526 1_545 S
C1058 H1042 0.959 . S
C1058 H1043 0.959 . S
C1058 H1044 0.961 . S
C1058 C1057 1.502 . S
C1059 H1045 0.960 . S
C1059 H1046 0.961 1_655 S
C1059 H1047 0.959 . S
C1059 C1057 1.561 1_665 S
C1060 C1057 1.526 1_565 S
C1060 C1061 1.396 . S
C1060 C1065 1.390 . S
C1061 C1055 1.465 1_465 S
C1061 C1060 1.396 . S
C1061 C1062 1.399 . S
C1062 H1048 0.929 . S
C1062 C1061 1.399 . S
C1062 C1063 1.385 . S
C1063 H1049 0.931 . S
C1063 C1062 1.385 . S
C1063 C1064 1.389 . S
C1064 C1063 1.389 . S
C1064 C1065 1.387 . S
C1065 H1050 0.930 . S
C1065 C1060 1.390 . S
C1065 C1064 1.387 . S
H1066 C1078 0.930 . S
H1067 C1080 0.930 . S
H1068 C1081 0.930 . S
H1069 C1085 0.959 . S
H1070 C1085 0.959 . S
H1071 C1085 0.961 . S
H1072 C1086 0.960 . S
H1073 C1086 0.961 . S
H1074 C1086 0.959 . S
H1075 C1089 0.929 . S
H1076 C1090 0.931 . S
H1077 C1092 0.930 . S
C1078 H1066 0.930 . S
C1078 C1079 1.399 . S
C1078 C1083 1.399 . S
C1079 C1078 1.399 . S
C1079 C1080 1.376 . S
C1080 H1067 0.930 . S
C1080 C1079 1.376 . S
C1080 C1081 1.388 . S
C1081 H1068 0.930 . S
C1081 C1080 1.388 . S
C1081 C1082 1.390 . S
C1082 C1081 1.390 . S
C1082 C1083 1.394 . S
C1082 C1088 1.465 . S
C1083 C1078 1.399 . S
C1083 C1082 1.394 . S
C1083 C1084 1.516 . S
C1084 C1083 1.516 . S
C1084 C1085 1.502 . S
C1084 C1086 1.561 . S
C1084 C1087 1.526 . S
C1085 H1069 0.959 . S
C1085 H1070 0.959 . S
C1085 H1071 0.961 . S
C1085 C1084 1.502 . S
C1086 H1072 0.960 . S
C1086 H1073 0.961 . S
C1086 H1074 0.959 . S
C1086 C1084 1.561 . S
C1087 C1084 1.526 . S
C1087 C1088 1.396 . S
C1087 C1092 1.390 . S
C1088 C1082 1.465 . S
C1088 C1087 1.396 . S
C1088 C1089 1.399 . S
C1089 H1075 0.929 . S
C1089 C1088 1.399 . S
C1089 C1090 1.385 . S
C1090 H1076 0.931 . S
C1090 C1089 1.385 . S
C1090 C1091 1.389 . S
C1091 C1090 1.389 . S
C1091 C1092 1.387 . S
C1092 H1077 0.930 . S
C1092 C1087 1.390 . S
C1092 C1091 1.387 . S
H1093 C1105 0.930 . S
H1094 C1107 0.930 . S
H1095 C1108 0.930 . S
H1096 C1112 0.959 . S
H1097 C1112 0.959 . S
H1098 C1112 0.961 . S
H1099 C1113 0.960 . S
H1100 C1113 0.961 . S
H1101 C1113 0.959 . S
H1102 C1116 0.929 . S
H1103 C1117 0.931 . S
H1104 C1119 0.930 . S
C1105 H1093 0.930 . S
C1105 C1106 1.399 . S
C1105 C1110 1.399 . S
C1106 C1105 1.399 . S
C1106 C1107 1.376 . S
C1107 H1094 0.930 . S
C1107 C1106 1.376 . S
C1107 C1108 1.388 . S
C1108 H1095 0.930 . S
C1108 C1107 1.388 . S
C1108 C1109 1.390 . S
C1109 C1108 1.390 . S
C1109 C1110 1.394 . S
C1109 C1115 1.465 1_565 S
C1110 C1105 1.399 . S
C1110 C1109 1.394 . S
C1110 C1111 1.516 1_565 S
C1111 C1110 1.516 1_545 S
C1111 C1112 1.502 . S
C1111 C1113 1.561 1_545 S
C1111 C1114 1.526 . S
C1112 H1096 0.959 . S
C1112 H1097 0.959 . S
C1112 H1098 0.961 . S
C1112 C1111 1.502 . S
C1113 H1099 0.960 . S
C1113 H1100 0.961 . S
C1113 H1101 0.959 . S
C1113 C1111 1.561 1_565 S
C1114 C1111 1.526 . S
C1114 C1115 1.396 . S
C1114 C1119 1.390 . S
C1115 C1109 1.465 1_545 S
C1115 C1114 1.396 . S
C1115 C1116 1.399 . S
C1116 H1102 0.929 . S
C1116 C1115 1.399 . S
C1116 C1117 1.385 . S
C1117 H1103 0.931 . S
C1117 C1116 1.385 . S
C1117 C1118 1.389 . S
C1118 C1117 1.389 . S
C1118 C1119 1.387 . S
C1119 H1104 0.930 . S
C1119 C1114 1.390 . S
C1119 C1118 1.387 . S
C269 C18 2.138 . S
C281 C53 2.148 . S
C296 C21 1.823 . S
C308 C82 1.816 . S
C323 C113 2.158 . S
C335 C54 2.141 . S
C350 C81 1.821 . S
C362 C118 1.811 . S
C377 C114 2.138 . S
C389 C149 2.153 . S
C404 C178 1.785 . S
C416 C117 1.825 . S
C431 C150 2.136 . S
C443 C17 2.158 . S
C458 C177 1.837 . S
C470 C22 1.777 . S
C485 C181 2.118 . S
C497 C210 2.169 . S
C512 C213 1.820 . S
C524 C146 1.818 . S
C539 C241 2.150 . S
C551 C182 2.132 . S
C566 C246 1.780 . S
C578 C145 1.836 . S
C593 C242 2.167 . S
C605 C85 2.120 . S
C620 C50 1.794 . S
C632 C245 1.837 . S
C647 C209 2.131 . S
C659 C86 2.138 . S
C674 C214 1.817 . S
C686 C49 1.818 . S
C701 C19 0.911 1_554 S
C713 C23 1.001 1_556 S
C728 C51 0.905 . S
C740 C55 1.003 1_565 S
C755 C83 0.903 1_545 S
C767 C87 1.003 . S
C782 C119 0.930 . S
C794 C115 0.963 1_455 S
C809 C147 0.907 1_545 S
C821 C151 1.002 . S
C836 C179 0.913 . S
C848 C183 1.000 1_565 S
C863 C211 1.004 . S
C875 C215 0.904 . S
C890 C247 0.931 . S
C902 C243 0.980 1_554 S
C917 C240 1.368 . S
C929 C20 1.363 . S
C944 C16 1.366 . S
C956 C244 1.365 . S
C971 C48 1.363 . S
C983 C84 1.365 . S
C998 C208 1.362 . S
C1010 C116 1.369 . S
C1025 C112 1.368 . S
C1037 C212 1.363 . S
C1052 C180 1.359 . S
C1064 C144 1.370 . S
C1079 C176 1.362 . S
C1091 C148 1.366 . S
C1106 C80 1.366 . S
C1118 C52 1.366 . S
