# Generated by pormake.
# Topology fny, (5)-cn, num edge types: 1
# Building blocks:
#     Node 0, Type 0, BuildingBlock: XOMCOT_clean_sbu_0, # of connection points: 5
#     Node 1, Type 0, BuildingBlock: XOMCOT_clean_sbu_0, # of connection points: 5
#     Node 2, Type 0, BuildingBlock: XOMCOT_clean_sbu_0, # of connection points: 5
#     Node 3, Type 0, BuildingBlock: XOMCOT_clean_sbu_0, # of connection points: 5
#     Node 4, Type 0, BuildingBlock: XOMCOT_clean_sbu_0, # of connection points: 5
#     Node 5, Type 0, BuildingBlock: XOMCOT_clean_sbu_0, # of connection points: 5
#     Node 6, Type 0, BuildingBlock: XOMCOT_clean_sbu_0, # of connection points: 5
#     Node 7, Type 0, BuildingBlock: XOMCOT_clean_sbu_0, # of connection points: 5
#     Node 8, Type 0, BuildingBlock: XOMCOT_clean_sbu_0, # of connection points: 5
#     Node 9, Type 0, BuildingBlock: XOMCOT_clean_sbu_0, # of connection points: 5
#     Node 10, Type 0, BuildingBlock: XOMCOT_clean_sbu_0, # of connection points: 5
#     Node 11, Type 0, BuildingBlock: XOMCOT_clean_sbu_0, # of connection points: 5
#     Edge 12, Type (0, 0), BuildingBlock: CIFDUS_clean_linker_0, # of connection points: 2
#     Edge 13, Type (0, 0), BuildingBlock: CIFDUS_clean_linker_0, # of connection points: 2
#     Edge 14, Type (0, 0), BuildingBlock: CIFDUS_clean_linker_0, # of connection points: 2
#     Edge 15, Type (0, 0), BuildingBlock: CIFDUS_clean_linker_0, # of connection points: 2
#     Edge 16, Type (0, 0), BuildingBlock: CIFDUS_clean_linker_0, # of connection points: 2
#     Edge 17, Type (0, 0), BuildingBlock: CIFDUS_clean_linker_0, # of connection points: 2
#     Edge 18, Type (0, 0), BuildingBlock: CIFDUS_clean_linker_0, # of connection points: 2
#     Edge 19, Type (0, 0), BuildingBlock: CIFDUS_clean_linker_0, # of connection points: 2
#     Edge 20, Type (0, 0), BuildingBlock: CIFDUS_clean_linker_0, # of connection points: 2
#     Edge 21, Type (0, 0), BuildingBlock: CIFDUS_clean_linker_0, # of connection points: 2
#     Edge 22, Type (0, 0), BuildingBlock: CIFDUS_clean_linker_0, # of connection points: 2
#     Edge 23, Type (0, 0), BuildingBlock: CIFDUS_clean_linker_0, # of connection points: 2
#     Edge 24, Type (0, 0), BuildingBlock: CIFDUS_clean_linker_0, # of connection points: 2
#     Edge 25, Type (0, 0), BuildingBlock: CIFDUS_clean_linker_0, # of connection points: 2
#     Edge 26, Type (0, 0), BuildingBlock: CIFDUS_clean_linker_0, # of connection points: 2
#     Edge 27, Type (0, 0), BuildingBlock: CIFDUS_clean_linker_0, # of connection points: 2
#     Edge 28, Type (0, 0), BuildingBlock: CIFDUS_clean_linker_0, # of connection points: 2
#     Edge 29, Type (0, 0), BuildingBlock: CIFDUS_clean_linker_0, # of connection points: 2
#     Edge 30, Type (0, 0), BuildingBlock: CIFDUS_clean_linker_0, # of connection points: 2
#     Edge 31, Type (0, 0), BuildingBlock: CIFDUS_clean_linker_0, # of connection points: 2
#     Edge 32, Type (0, 0), BuildingBlock: CIFDUS_clean_linker_0, # of connection points: 2
#     Edge 33, Type (0, 0), BuildingBlock: CIFDUS_clean_linker_0, # of connection points: 2
#     Edge 34, Type (0, 0), BuildingBlock: CIFDUS_clean_linker_0, # of connection points: 2
#     Edge 35, Type (0, 0), BuildingBlock: CIFDUS_clean_linker_0, # of connection points: 2
#     Edge 36, Type (0, 0), BuildingBlock: CIFDUS_clean_linker_0, # of connection points: 2
#     Edge 37, Type (0, 0), BuildingBlock: CIFDUS_clean_linker_0, # of connection points: 2
#     Edge 38, Type (0, 0), BuildingBlock: CIFDUS_clean_linker_0, # of connection points: 2
#     Edge 39, Type (0, 0), BuildingBlock: CIFDUS_clean_linker_0, # of connection points: 2
#     Edge 40, Type (0, 0), BuildingBlock: CIFDUS_clean_linker_0, # of connection points: 2
#     Edge 41, Type (0, 0), BuildingBlock: CIFDUS_clean_linker_0, # of connection points: 2
# Relax obj value: 0.286
# Max RMSD: 0.233
# Mean RMSD: 0.233
data_MOF--net-fny--node1-XOMCOT_clean_sbu_0--edge1-CIFDUS_clean_linker_0
_symmetry_space_group_name_H-M    P1
_symmetry_Int_Tables_number       1
_symmetry_cell_setting            triclinic
loop_
_symmetry_equiv_pos_as_xyz
'x, y, z'
_cell_length_a     53.68507
_cell_length_b     53.653206
_cell_length_c     21.510963
_cell_angle_alpha  90.26853
_cell_angle_beta   89.782427
_cell_angle_gamma 120.1092
loop_
_atom_site_label
_atom_site_type_symbol
_atom_site_fract_x
_atom_site_fract_y
_atom_site_fract_z
_atom_type_partial_charge
Co0 Co 0.37416 0.54569 0.28854 0.0
C1 C 0.40771 0.54586 0.39115 0.0
C2 C 0.43201 0.58518 0.34018 0.0
C3 C 0.44904 0.58417 0.3868 0.0
N4 N 0.40603 0.5612 0.344 0.0
N5 N 0.43361 0.55924 0.41843 0.0
H6 H 0.39019 0.52508 0.40512 0.0
H7 H 0.43824 0.60213 0.3064 0.0
C8 C 0.40793 0.59688 0.19831 0.0
O9 O 0.40128 0.61354 0.23072 0.0
N10 N 0.34203 0.52892 0.23339 0.0
C11 C 0.32204 0.50084 0.22684 0.0
C12 C 0.30549 0.49796 0.17579 0.0
C13 C 0.33681 0.54283 0.18828 0.0
N14 N 0.3149 0.52442 0.15226 0.0
C15 C 0.37128 0.49041 0.29763 0.0
C16 C 0.42014 0.50486 0.22871 0.0
C17 C 0.40771 0.4791 0.26254 0.0
C18 C 0.3824 0.47163 0.29599 0.0
C19 C 0.40856 0.5231 0.23195 0.0
N20 N 0.38453 0.51619 0.26682 0.0
H21 H 0.35301 0.48493 0.32734 0.0
H22 H 0.42054 0.54353 0.20908 0.0
H23 H 0.32026 0.48348 0.25513 0.0
H24 H 0.3499 0.56563 0.17917 0.0
O25 O 0.34789 0.52652 0.3579 0.0
O26 O 0.35953 0.56982 0.3263 0.0
O27 O 0.39933 0.57105 0.21673 0.0
C28 C 0.34466 0.54875 0.36495 0.0
H29 H 0.47061 0.60111 0.39828 0.0
H30 H 0.28889 0.478 0.15553 0.0
H31 H 0.43941 0.51152 0.20127 0.0
H32 H 0.37205 0.4522 0.32363 0.0
Co33 Co 0.84728 0.35019 0.77343 0.0
C34 C 0.8789 0.38386 0.87776 0.0
C35 C 0.86138 0.4064 0.82882 0.0
C36 C 0.87835 0.42351 0.87695 0.0
N37 N 0.86173 0.38153 0.83038 0.0
N38 N 0.88935 0.40915 0.90715 0.0
H39 H 0.88368 0.36722 0.89058 0.0
H40 H 0.8497 0.41172 0.79573 0.0
C41 C 0.83065 0.38298 0.68071 0.0
O42 O 0.80536 0.37309 0.7072 0.0
N43 N 0.83421 0.31841 0.7163 0.0
C44 C 0.82552 0.29055 0.72875 0.0
C45 C 0.82085 0.27588 0.67347 0.0
C46 C 0.83524 0.32035 0.65405 0.0
N47 N 0.82695 0.29479 0.62697 0.0
C48 C 0.89781 0.34432 0.77672 0.0
C49 C 0.93561 0.39892 0.73224 0.0
C50 C 0.94695 0.38256 0.75663 0.0
C51 C 0.9276 0.35467 0.77814 0.0
C52 C 0.90592 0.38811 0.73292 0.0
N53 N 0.8873 0.36125 0.75578 0.0
H54 H 0.88325 0.32328 0.79567 0.0
H55 H 0.89839 0.40247 0.71903 0.0
H56 H 0.82298 0.28135 0.77448 0.0
H57 H 0.84245 0.34006 0.62843 0.0
O58 O 0.83935 0.32409 0.84314 0.0
O59 O 0.80778 0.33488 0.80654 0.0
O60 O 0.84864 0.3762 0.70265 0.0
C61 C 0.81367 0.32064 0.8473 0.0
H62 H 0.88116 0.44421 0.8906 0.0
H63 H 0.81298 0.25306 0.66784 0.0
H64 H 0.9497 0.42074 0.71629 0.0
H65 H 0.93545 0.34126 0.79729 0.0
Co66 Co 0.51559 0.84206 0.30037 0.0
C67 C 0.50802 0.88936 0.34709 0.0
C68 C 0.46737 0.85056 0.33655 0.0
C69 C 0.46274 0.87193 0.35949 0.0
N70 N 0.4959 0.86165 0.3291 0.0
N71 N 0.48847 0.89637 0.36629 0.0
H72 H 0.53073 0.90397 0.34965 0.0
H73 H 0.45123 0.82836 0.3276 0.0
C74 C 0.48236 0.84676 0.18984 0.0
O75 O 0.48839 0.87219 0.21081 0.0
N76 N 0.53601 0.82303 0.2723 0.0
C77 C 0.54933 0.81219 0.307 0.0
C78 C 0.56506 0.8048 0.26865 0.0
C79 C 0.5442 0.82241 0.21352 0.0
N80 N 0.562 0.81155 0.21019 0.0
C81 C 0.56952 0.89537 0.31147 0.0
C82 C 0.56656 0.91901 0.20023 0.0
C83 C 0.5844 0.93754 0.24723 0.0
C84 C 0.58748 0.925 0.30157 0.0
C85 C 0.54924 0.88949 0.21205 0.0
N86 N 0.54811 0.87878 0.27017 0.0
H87 H 0.57068 0.88676 0.35585 0.0
H88 H 0.53614 0.87586 0.17483 0.0
H89 H 0.54887 0.81057 0.35695 0.0
H90 H 0.53759 0.8301 0.17405 0.0
O91 O 0.52891 0.84254 0.38541 0.0
O92 O 0.48857 0.80738 0.34758 0.0
O93 O 0.49275 0.83254 0.21729 0.0
C94 C 0.50618 0.81751 0.39459 0.0
H95 H 0.4422 0.86891 0.37501 0.0
H96 H 0.57837 0.79595 0.28276 0.0
H97 H 0.56502 0.92742 0.15562 0.0
H98 H 0.60166 0.9382 0.33857 0.0
Co99 Co 0.6938 0.50333 0.81321 0.0
C100 C 0.64099 0.49325 0.87183 0.0
C101 C 0.63483 0.4548 0.82729 0.0
C102 C 0.60843 0.45058 0.84605 0.0
N103 N 0.65508 0.48165 0.84342 0.0
N104 N 0.61226 0.47503 0.87349 0.0
H105 H 0.65184 0.51504 0.88955 0.0
H106 H 0.63889 0.43955 0.80287 0.0
C107 C 0.68181 0.48636 0.67324 0.0
O108 O 0.69797 0.51327 0.65559 0.0
N109 N 0.73299 0.52565 0.78367 0.0
C110 C 0.75411 0.55059 0.80826 0.0
C111 C 0.77883 0.55976 0.77433 0.0
C112 C 0.74578 0.51912 0.73765 0.0
N113 N 0.77345 0.53984 0.73047 0.0
C114 C 0.69732 0.55888 0.81439 0.0
C115 C 0.65101 0.54425 0.73724 0.0
C116 C 0.66358 0.57102 0.76786 0.0
C117 C 0.68748 0.57836 0.80586 0.0
C118 C 0.66172 0.5255 0.74654 0.0
N119 N 0.68476 0.53278 0.78473 0.0
H120 H 0.71364 0.56415 0.84885 0.0
H121 H 0.64963 0.50409 0.72725 0.0
H122 H 0.75223 0.56148 0.84866 0.0
H123 H 0.73509 0.50014 0.7086 0.0
O124 O 0.70793 0.51791 0.89726 0.0
O125 O 0.70458 0.47839 0.85816 0.0
O126 O 0.67947 0.48004 0.73146 0.0
C127 C 0.71244 0.49643 0.90462 0.0
H128 H 0.58819 0.43061 0.84164 0.0
H129 H 0.79898 0.57976 0.78023 0.0
H130 H 0.6319 0.53694 0.70909 0.0
H131 H 0.69805 0.59866 0.83075 0.0
Co132 Co 0.22161 0.6739 0.30889 0.0
C133 C 0.18676 0.6112 0.32904 0.0
C134 C 0.22817 0.62819 0.37126 0.0
C135 C 0.21204 0.59915 0.38393 0.0
N136 N 0.21186 0.63593 0.3383 0.0
N137 N 0.18577 0.58861 0.358 0.0
H138 H 0.16821 0.60969 0.30621 0.0
H139 H 0.24966 0.64268 0.38813 0.0
C140 C 0.20955 0.64055 0.18386 0.0
O141 O 0.18224 0.62468 0.19815 0.0
N142 N 0.23125 0.71106 0.27827 0.0
C143 C 0.22039 0.72777 0.29655 0.0
C144 C 0.22888 0.74983 0.25429 0.0
C145 C 0.24658 0.72325 0.22691 0.0
N146 N 0.24529 0.74675 0.21075 0.0
C147 C 0.16319 0.65208 0.34815 0.0
C148 C 0.1408 0.65632 0.23598 0.0
C149 C 0.12183 0.64366 0.28651 0.0
C150 C 0.13371 0.64237 0.3436 0.0
C151 C 0.17025 0.66575 0.24261 0.0
N152 N 0.18077 0.66174 0.29711 0.0
H153 H 0.17177 0.65046 0.39238 0.0
H154 H 0.1845 0.67568 0.20345 0.0
H155 H 0.20578 0.7231 0.33522 0.0
H156 H 0.25653 0.71378 0.19904 0.0
O157 O 0.22553 0.68912 0.39372 0.0
O158 O 0.26132 0.69062 0.3409 0.0
O159 O 0.227 0.66076 0.22104 0.0
C160 C 0.25283 0.69765 0.39166 0.0
H161 H 0.21803 0.58749 0.41583 0.0
H162 H 0.22233 0.7659 0.25378 0.0
H163 H 0.133 0.65893 0.19154 0.0
H164 H 0.12025 0.63306 0.38422 0.0
Co165 Co 0.57361 0.21153 0.80268 0.0
C166 C 0.58538 0.17254 0.87057 0.0
C167 C 0.62176 0.20087 0.81513 0.0
C168 C 0.62491 0.178 0.83336 0.0
N169 N 0.59663 0.197 0.83769 0.0
N170 N 0.60154 0.15977 0.86705 0.0
H171 H 0.5648 0.16365 0.89367 0.0
H172 H 0.63591 0.21805 0.78428 0.0
C173 C 0.58688 0.21154 0.66225 0.0
O174 O 0.55963 0.20136 0.64849 0.0
N175 N 0.55046 0.22599 0.76744 0.0
C176 C 0.52299 0.21844 0.78074 0.0
C177 C 0.51437 0.23243 0.74046 0.0
C178 C 0.55868 0.24578 0.72235 0.0
N179 N 0.53674 0.24918 0.70302 0.0
C180 C 0.51972 0.15772 0.81763 0.0
C181 C 0.53117 0.12545 0.73428 0.0
C182 C 0.50564 0.11148 0.76902 0.0
C183 C 0.50015 0.12808 0.81141 0.0
C184 C 0.55038 0.15497 0.7427 0.0
N185 N 0.54426 0.17127 0.78236 0.0
H186 H 0.51585 0.16928 0.85388 0.0
H187 H 0.57103 0.16397 0.72014 0.0
H188 H 0.50968 0.20345 0.81603 0.0
H189 H 0.57999 0.25646 0.70198 0.0
O190 O 0.56015 0.21525 0.88561 0.0
O191 O 0.5987 0.24968 0.83996 0.0
O192 O 0.5951 0.21669 0.71941 0.0
C193 C 0.58146 0.24166 0.88784 0.0
H194 H 0.64272 0.17486 0.82128 0.0
H195 H 0.49277 0.22897 0.73629 0.0
H196 H 0.53703 0.11334 0.70299 0.0
H197 H 0.48108 0.11817 0.84045 0.0
Co198 Co 0.52975 0.70956 0.77191 0.0
C199 C 0.50875 0.65183 0.71893 0.0
C200 C 0.47419 0.66014 0.73543 0.0
C201 C 0.46289 0.63235 0.71372 0.0
N202 N 0.503 0.67227 0.73844 0.0
N203 N 0.4848 0.62719 0.70386 0.0
H204 H 0.52983 0.65442 0.71618 0.0
H205 H 0.46225 0.67068 0.74846 0.0
C206 C 0.49762 0.66999 0.88155 0.0
O207 O 0.49954 0.6497 0.85141 0.0
N208 N 0.55687 0.74683 0.80429 0.0
C209 C 0.58134 0.76708 0.77657 0.0
C210 C 0.59621 0.78952 0.81762 0.0
C211 C 0.5573 0.75687 0.8616 0.0
N212 N 0.581 0.78267 0.8707 0.0
C213 C 0.57583 0.69898 0.74013 0.0
C214 C 0.57954 0.67628 0.85211 0.0
C215 C 0.59428 0.67364 0.80054 0.0
C216 C 0.59336 0.68668 0.74489 0.0
C217 C 0.56252 0.68919 0.8454 0.0
N218 N 0.55849 0.69772 0.78832 0.0
H219 H 0.57467 0.70752 0.69568 0.0
H220 H 0.55242 0.69178 0.88628 0.0
H221 H 0.58857 0.76521 0.73075 0.0
H222 H 0.54119 0.74534 0.8969 0.0
O223 O 0.5417 0.72462 0.68786 0.0
O224 O 0.50641 0.7255 0.73748 0.0
O225 O 0.50979 0.69569 0.85838 0.0
C226 C 0.5223 0.73224 0.68755 0.0
H227 H 0.44045 0.61766 0.70335 0.0
H228 H 0.61705 0.80854 0.81038 0.0
H229 H 0.58032 0.66771 0.89703 0.0
H230 H 0.60555 0.68684 0.70453 0.0
Co231 Co 0.84803 0.51565 0.27113 0.0
C232 C 0.88056 0.49126 0.21064 0.0
C233 C 0.83653 0.45931 0.22727 0.0
C234 C 0.85069 0.44596 0.20353 0.0
N235 N 0.85534 0.48778 0.23137 0.0
N236 N 0.87847 0.4662 0.19362 0.0
H237 H 0.90039 0.51133 0.20883 0.0
H238 H 0.81421 0.44893 0.24152 0.0
C239 C 0.85413 0.48026 0.37479 0.0
O240 O 0.87611 0.48209 0.34384 0.0
N241 N 0.84063 0.5431 0.31122 0.0
C242 C 0.85476 0.57188 0.30284 0.0
C243 C 0.84926 0.58438 0.35324 0.0
C244 C 0.8262 0.53836 0.36463 0.0
N245 N 0.83176 0.56314 0.39234 0.0
C246 C 0.90656 0.55813 0.24005 0.0
C247 C 0.93121 0.56175 0.35445 0.0
C248 C 0.94948 0.57579 0.30368 0.0
C249 C 0.9365 0.57468 0.24649 0.0
C250 C 0.90124 0.54543 0.34588 0.0
N251 N 0.88942 0.54165 0.28793 0.0
H252 H 0.89744 0.557 0.19481 0.0
H253 H 0.8878 0.53578 0.38608 0.0
H254 H 0.86997 0.58309 0.26584 0.0
H255 H 0.81354 0.51723 0.38508 0.0
O256 O 0.84548 0.53102 0.19068 0.0
O257 O 0.80837 0.49543 0.2376 0.0
O258 O 0.84118 0.49326 0.35381 0.0
C259 C 0.81805 0.5126 0.18983 0.0
H260 H 0.84095 0.4233 0.19219 0.0
H261 H 0.85937 0.60722 0.36299 0.0
H262 H 0.93992 0.5627 0.40027 0.0
H263 H 0.94936 0.58622 0.20647 0.0
Co264 Co 0.37275 0.83839 0.75325 0.0
C265 C 0.41249 0.87484 0.66221 0.0
C266 C 0.43361 0.85998 0.72316 0.0
C267 C 0.45421 0.8836 0.69109 0.0
N268 N 0.40742 0.85475 0.70511 0.0
N269 N 0.44076 0.89335 0.65374 0.0
H270 H 0.39548 0.87704 0.64128 0.0
H271 H 0.43767 0.84899 0.76022 0.0
C272 C 0.39178 0.83582 0.88684 0.0
O273 O 0.37421 0.84442 0.90714 0.0
N274 N 0.33764 0.82298 0.80029 0.0
C275 C 0.31953 0.83341 0.80408 0.0
C276 C 0.29993 0.81905 0.85031 0.0
C277 C 0.32766 0.80116 0.84099 0.0
N278 N 0.30552 0.79924 0.87481 0.0
C279 C 0.37388 0.8931 0.74784 0.0
C280 C 0.42121 0.92365 0.82354 0.0
C281 C 0.41011 0.9388 0.79254 0.0
C282 C 0.3861 0.92313 0.75411 0.0
C283 C 0.40895 0.89393 0.81468 0.0
N284 N 0.38491 0.87847 0.77865 0.0
H285 H 0.35662 0.88199 0.71487 0.0
H286 H 0.42065 0.8843 0.83329 0.0
H287 H 0.32106 0.85114 0.7778 0.0
H288 H 0.33814 0.78875 0.84907 0.0
O289 O 0.35016 0.83462 0.67847 0.0
O290 O 0.35804 0.80059 0.71148 0.0
O291 O 0.39402 0.83283 0.8278 0.0
C292 C 0.34585 0.80871 0.6703 0.0
H293 H 0.47723 0.89312 0.69644 0.0
H294 H 0.28458 0.82478 0.86801 0.0
H295 H 0.44046 0.93499 0.85164 0.0
H296 H 0.37717 0.93404 0.72809 0.0
Co297 Co 0.56978 0.36753 0.24815 0.0
C298 C 0.57903 0.41466 0.17029 0.0
C299 C 0.61769 0.4251 0.21934 0.0
C300 C 0.62041 0.45005 0.19492 0.0
N301 N 0.59151 0.40307 0.20435 0.0
N302 N 0.59568 0.44348 0.16525 0.0
H303 H 0.55723 0.40214 0.15353 0.0
H304 H 0.63303 0.42353 0.24905 0.0
C305 C 0.58943 0.38562 0.38349 0.0
O306 O 0.56276 0.36891 0.40216 0.0
N307 N 0.54775 0.33176 0.29188 0.0
C308 C 0.51922 0.3128 0.28884 0.0
C309 C 0.51254 0.2913 0.33121 0.0
C310 C 0.55823 0.32063 0.33305 0.0
N311 N 0.5371 0.29644 0.35887 0.0
C312 C 0.51694 0.3698 0.24225 0.0
C313 C 0.53582 0.41923 0.31225 0.0
C314 C 0.50957 0.4084 0.28052 0.0
C315 C 0.49995 0.38288 0.24627 0.0
C316 C 0.55224 0.4057 0.30656 0.0
N317 N 0.54282 0.38095 0.27243 0.0
H318 H 0.51034 0.35224 0.20985 0.0
H319 H 0.5737 0.41701 0.32524 0.0
H320 H 0.50394 0.31438 0.25939 0.0
H321 H 0.58053 0.33121 0.34753 0.0
O322 O 0.55153 0.34729 0.17083 0.0
O323 O 0.5916 0.35133 0.20678 0.0
O324 O 0.59552 0.38681 0.32513 0.0
C325 C 0.57175 0.3409 0.16394 0.0
H326 H 0.63911 0.4713 0.19945 0.0
H327 H 0.49117 0.27412 0.34334 0.0
H328 H 0.54446 0.43895 0.33911 0.0
H329 H 0.48039 0.3741 0.21907 0.0
Co330 Co 0.21659 0.55 0.72699 0.0
C331 C 0.17548 0.55218 0.64655 0.0
C332 C 0.18785 0.58446 0.71687 0.0
C333 C 0.16331 0.58088 0.68803 0.0
N334 N 0.19535 0.56629 0.69056 0.0
N335 N 0.1552 0.56 0.64459 0.0
H336 H 0.17539 0.5355 0.61813 0.0
H337 H 0.19833 0.59823 0.75641 0.0
C338 C 0.22091 0.56652 0.86668 0.0
O339 O 0.22016 0.54258 0.88268 0.0
N340 N 0.2371 0.53274 0.76217 0.0
C341 C 0.23176 0.50557 0.75429 0.0
C342 C 0.25222 0.50255 0.78574 0.0
C343 C 0.2615 0.54624 0.79539 0.0
N344 N 0.27066 0.52803 0.81241 0.0
C345 C 0.16754 0.49361 0.71039 0.0
C346 C 0.13151 0.49913 0.79418 0.0
C347 C 0.11956 0.47643 0.75116 0.0
C348 C 0.13813 0.47337 0.71021 0.0
C349 C 0.16112 0.51931 0.79221 0.0
N350 N 0.17894 0.5168 0.7499 0.0
H351 H 0.18053 0.49181 0.67432 0.0
H352 H 0.1687 0.53814 0.82104 0.0
H353 H 0.2141 0.48873 0.72872 0.0
H354 H 0.2714 0.56857 0.80968 0.0
O355 O 0.22183 0.53671 0.64538 0.0
O356 O 0.25268 0.5786 0.6855 0.0
O357 O 0.21947 0.57188 0.80881 0.0
C358 C 0.24641 0.56028 0.63988 0.0
H359 H 0.15219 0.5925 0.6989 0.0
H360 H 0.25211 0.48252 0.79258 0.0
H361 H 0.11776 0.50263 0.82567 0.0
H362 H 0.12972 0.45631 0.6757 0.0
Co363 Co 0.68522 0.20492 0.2164 0.0
C364 C 0.63614 0.15879 0.1546 0.0
C365 C 0.62288 0.18391 0.20778 0.0
C366 C 0.59867 0.15915 0.18781 0.0
N367 N 0.64629 0.18344 0.18686 0.0
N368 N 0.60707 0.14304 0.15501 0.0
H369 H 0.65023 0.15235 0.13295 0.0
H370 H 0.62326 0.20049 0.23708 0.0
C371 C 0.67342 0.20891 0.35539 0.0
O372 O 0.69148 0.20009 0.37009 0.0
N373 N 0.72473 0.22636 0.24472 0.0
C374 C 0.74774 0.2266 0.2181 0.0
C375 C 0.7722 0.24567 0.2493 0.0
C376 C 0.73594 0.24674 0.28926 0.0
N377 N 0.76465 0.25823 0.29386 0.0
C378 C 0.6965 0.15764 0.22238 0.0
C379 C 0.64852 0.12149 0.29205 0.0
C380 C 0.66459 0.11028 0.26492 0.0
C381 C 0.68935 0.12896 0.23132 0.0
C382 C 0.65683 0.15051 0.28335 0.0
N383 N 0.68039 0.16833 0.24795 0.0
H384 H 0.71359 0.17028 0.19043 0.0
H385 H 0.64264 0.15777 0.3006 0.0
H386 H 0.74731 0.2144 0.17772 0.0
H387 H 0.72352 0.25275 0.31888 0.0
O388 O 0.6998 0.20467 0.13297 0.0
O389 O 0.69236 0.23894 0.1683 0.0
O390 O 0.66971 0.21267 0.29783 0.0
C391 C 0.70197 0.2296 0.12336 0.0
H392 H 0.57667 0.15377 0.1963 0.0
H393 H 0.79377 0.24956 0.24104 0.0
H394 H 0.629 0.10765 0.31772 0.0
H395 H 0.70195 0.12096 0.2083 0.0
H396 H 0.43522 0.65196 0.14645 0.0
H397 H 0.41775 0.56525 0.11224 0.0
H398 H 0.44369 0.58037 1.01431 0.0
H399 H 0.47094 0.61738 0.93713 0.0
H400 H 0.48932 0.70455 0.96676 0.0
H401 H 0.46356 0.69008 0.0668 0.0
C402 C 0.43712 0.63636 0.11767 0.0
C403 C 0.42449 0.60733 0.13803 0.0
C404 C 0.45227 0.64528 0.06008 0.0
C405 C 0.42732 0.58767 0.09926 0.0
C406 C 0.44215 0.59631 0.04263 0.0
C407 C 0.46951 0.63347 0.96515 0.0
C408 C 0.48229 0.66221 0.94356 0.0
C409 C 0.4547 0.62497 1.0225 0.0
C410 C 0.47984 0.68234 0.98147 0.0
C411 C 0.46504 0.674 0.03893 0.0
H412 H 0.80253 0.40919 0.62685 0.0
H413 H 0.8768 0.39878 0.60431 0.0
H414 H 0.89022 0.42766 0.51025 0.0
H415 H 0.88115 0.45533 0.43287 0.0
H416 H 0.80809 0.46766 0.45331 0.0
H417 H 0.79424 0.43896 0.54915 0.0
C418 C 0.82168 0.41326 0.60143 0.0
C419 C 0.83852 0.40152 0.62343 0.0
C420 C 0.8296 0.43033 0.54662 0.0
C421 C 0.86333 0.40735 0.58942 0.0
C422 C 0.87108 0.42393 0.53518 0.0
C423 C 0.86214 0.45188 0.45802 0.0
C424 C 0.84565 0.4637 0.43495 0.0
C425 C 0.85439 0.43545 0.51317 0.0
C426 C 0.82124 0.4589 0.46925 0.0
C427 C 0.81328 0.44238 0.52424 0.0
H428 H 0.4937 0.85199 0.06408 0.0
H429 H 0.4245 0.81768 0.19751 0.0
H430 H 0.38992 0.80971 0.11513 0.0
H431 H 0.38002 0.81752 1.0071 0.0
H432 H 0.44841 0.85015 0.87165 0.0
H433 H 0.48234 0.8535 0.95183 0.0
C434 C 0.4709 0.84177 0.07458 0.0
C435 C 0.46163 0.83477 0.13696 0.0
C436 C 0.45098 0.83743 0.0265 0.0
C437 C 0.43212 0.82251 0.14994 0.0
C438 C 0.41235 0.8183 0.10281 0.0
C439 C 0.40224 0.82487 0.99477 0.0
C440 C 0.41153 0.83363 0.93303 0.0
C441 C 0.42161 0.82642 0.04121 0.0
C442 C 0.44046 0.84303 0.91828 0.0
C443 C 0.45999 0.84513 0.96445 0.0
H444 H 0.58855 0.38135 0.51065 0.0
H445 H 0.63964 0.43654 0.3606 0.0
H446 H 0.67278 0.47202 0.43566 0.0
H447 H 0.6863 0.4887 0.54493 0.0
H448 H 0.63596 0.43225 0.69423 0.0
H449 H 0.60397 0.39638 0.61916 0.0
C450 C 0.60705 0.40103 0.49419 0.0
C451 C 0.61134 0.40606 0.42948 0.0
C452 C 0.62628 0.4214 0.53791 0.0
C453 C 0.63568 0.43176 0.40966 0.0
C454 C 0.65465 0.45224 0.45282 0.0
C455 C 0.66844 0.46849 0.56119 0.0
C456 C 0.6637 0.46357 0.62596 0.0
C457 C 0.65004 0.44751 0.51721 0.0
C458 C 0.64043 0.43697 0.64533 0.0
C459 C 0.62193 0.41631 0.60212 0.0
H460 H 0.18647 0.63149 0.06742 0.0
H461 H 0.25423 0.62995 0.17067 0.0
H462 H 0.26423 0.60733 0.0818 0.0
H463 H 0.25087 0.58421 0.97678 0.0
H464 H 0.18599 0.58995 0.87087 0.0
H465 H 0.17788 0.61472 0.95768 0.0
C466 C 0.20389 0.62682 0.06995 0.0
C467 C 0.21967 0.63261 0.12589 0.0
C468 C 0.20984 0.61424 1.01802 0.0
C469 C 0.24204 0.62621 0.12822 0.0
C470 C 0.24756 0.61297 0.07743 0.0
C471 C 0.23527 0.59128 0.97243 0.0
C472 C 0.219 0.58504 0.917 0.0
C473 C 0.23121 0.60631 1.02242 0.0
C474 C 0.19899 0.59457 0.91232 0.0
C475 C 0.19421 0.60863 0.96232 0.0
H476 H 0.68075 0.2102 0.48214 0.0
H477 H 0.62599 0.21546 0.34289 0.0
H478 H 0.59505 0.21729 0.42422 0.0
H479 H 0.58206 0.21538 0.53569 0.0
H480 H 0.63803 0.21212 0.67465 0.0
H481 H 0.66968 0.21173 0.59337 0.0
C482 C 0.66213 0.21189 0.46936 0.0
C483 C 0.65577 0.21237 0.40572 0.0
C484 C 0.64443 0.21325 0.51678 0.0
C485 C 0.63158 0.21487 0.39089 0.0
C486 C 0.61374 0.21589 0.43766 0.0
C487 C 0.60127 0.21475 0.54831 0.0
C488 C 0.6074 0.21369 0.61189 0.0
C489 C 0.61971 0.21475 0.50086 0.0
C490 C 0.63263 0.21313 0.62671 0.0
C491 C 0.65078 0.21275 0.57995 0.0
H492 H 0.54862 0.42847 0.09279 0.0
H493 H 0.62711 0.50243 0.15725 0.0
H494 H 0.62956 0.52804 0.06255 0.0
H495 H 0.6224 0.51968 0.95127 0.0
H496 H 0.55354 0.43892 0.88298 0.0
H497 H 0.53269 0.42691 0.98664 0.0
C498 C 0.56614 0.45031 0.08716 0.0
C499 C 0.58955 0.46226 0.12876 0.0
C500 C 0.56902 0.46368 0.03005 0.0
C501 C 0.61013 0.4917 0.12335 0.0
C502 C 0.61147 0.50647 0.06913 0.0
C503 C 0.60259 0.49956 0.95859 0.0
C504 C 0.59192 0.47812 0.91213 0.0
C505 C 0.59326 0.49116 1.01952 0.0
C506 C 0.564 0.45444 0.91997 0.0
C507 C 0.55214 0.44746 0.97952 0.0
H508 H 0.14137 0.59226 0.40295 0.0
H509 H 0.17258 0.53325 0.37435 0.0
H510 H 0.14529 0.50542 0.46482 0.0
H511 H 0.13346 0.51263 0.57022 0.0
H512 H 0.1251 0.58673 0.61023 0.0
H513 H 0.11851 0.59193 0.50039 0.0
C514 C 0.141 0.57247 0.41471 0.0
C515 C 0.15996 0.56546 0.38433 0.0
C516 C 0.12918 0.55959 0.47166 0.0
C517 C 0.15875 0.5394 0.39855 0.0
C518 C 0.14341 0.52378 0.45074 0.0
C519 C 0.12992 0.52979 0.55475 0.0
C520 C 0.13362 0.55156 0.59685 0.0
C521 C 0.13182 0.53593 0.49135 0.0
C522 C 0.12484 0.57103 0.57812 0.0
C523 C 0.1215 0.57428 0.51488 0.0
H524 H 0.62405 0.1111 0.08648 0.0
H525 H 0.54843 0.1155 0.13351 0.0
H526 H 0.53204 0.10454 0.02654 0.0
H527 H 0.55171 0.11996 0.92234 0.0
H528 H 0.63822 0.13858 0.88325 0.0
H529 H 0.63814 0.11414 0.97793 0.0
C530 C 0.60385 0.10952 0.07343 0.0
C531 C 0.58973 0.11862 0.11518 0.0
C532 C 0.59738 0.10853 1.01038 0.0
C533 C 0.56144 0.11172 0.10055 0.0
C534 C 0.55215 0.10569 0.03892 0.0
C535 C 0.57058 0.11864 0.93422 0.0
C536 C 0.5962 0.13413 0.89977 0.0
C537 C 0.57205 0.10858 0.99299 0.0
C538 C 0.61893 0.12886 0.91141 0.0
C539 C 0.61893 0.1149 0.96598 0.0
H540 H 0.43933 0.5737 0.6904 0.0
H541 H 0.52886 0.62663 0.64013 0.0
H542 H 0.52122 0.59881 0.5467 0.0
H543 H 0.48601 0.57496 0.46347 0.0
H544 H 0.39564 0.52701 0.50932 0.0
H545 H 0.40663 0.53603 0.6187 0.0
C546 C 0.4573 0.57854 0.65989 0.0
C547 C 0.48381 0.60371 0.66929 0.0
C548 C 0.45243 0.56355 0.60388 0.0
C549 C 0.50759 0.60842 0.63247 0.0
C550 C 0.50329 0.5925 0.57836 0.0
C551 C 0.46889 0.56563 0.49774 0.0
C552 C 0.44019 0.5524 0.47832 0.0
C553 C 0.47522 0.57246 0.56053 0.0
C554 C 0.41806 0.53858 0.52272 0.0
C555 C 0.42427 0.54389 0.58571 0.0
H556 H 0.88186 0.41816 0.18006 0.0
H557 H 0.92378 0.50773 0.12748 0.0
H558 H 0.94162 0.49749 0.03349 0.0
H559 H 0.9273 0.46117 0.95118 0.0
H560 H 0.8801 0.37116 0.99913 0.0
H561 H 0.88309 0.3832 0.10864 0.0
C562 C 0.89568 0.43551 0.1489 0.0
C563 C 0.89938 0.46302 0.15802 0.0
C564 C 0.9044 0.42919 0.09268 0.0
C565 C 0.91913 0.48587 0.12019 0.0
C566 C 0.92933 0.48006 0.06578 0.0
C567 C 0.91883 0.44435 0.98608 0.0
C568 C 0.90212 0.41561 0.96756 0.0
C569 C 0.91922 0.45143 0.04867 0.0
C570 C 0.89231 0.39364 1.01241 0.0
C571 C 0.89379 0.40049 0.07522 0.0
H572 H 0.45418 0.91857 0.39107 0.0
H573 H 0.53734 0.92941 0.43506 0.0
H574 H 0.53343 0.94241 0.54043 0.0
H575 H 0.49727 0.92705 0.62299 0.0
H576 H 0.41319 0.91435 0.58092 0.0
H577 H 0.42696 0.92686 0.47338 0.0
C578 C 0.472 0.92514 0.423 0.0
C579 C 0.49437 0.91993 0.40747 0.0
C580 C 0.46899 0.9312 0.48494 0.0
C581 C 0.51858 0.93094 0.44694 0.0
C582 C 0.51639 0.93834 0.50795 0.0
C583 C 0.48218 0.92792 0.59112 0.0
C584 C 0.45307 0.9158 0.60756 0.0
C585 C 0.49006 0.93459 0.52879 0.0
C586 C 0.43488 0.92026 0.5676 0.0
C587 C 0.44281 0.92781 0.50585 0.0
H588 H 0.27984 0.56203 0.91182 0.0
H589 H 0.30064 0.50076 0.83188 0.0
H590 H 0.31756 0.49478 0.933 0.0
H591 H 0.31964 0.50193 0.04619 0.0
H592 H 0.29891 0.56303 0.12557 0.0
H593 H 0.28839 0.57428 1.02181 0.0
C594 C 0.28892 0.54807 0.91579 0.0
C595 C 0.2884 0.53131 0.86489 0.0
C596 C 0.29769 0.54415 0.97405 0.0
C597 C 0.30035 0.5134 0.87096 0.0
C598 C 0.30978 0.50983 0.92866 0.0
C599 C 0.31267 0.51757 0.04017 0.0
C600 C 0.30891 0.53102 0.09226 0.0
C601 C 0.30718 0.52404 0.98089 0.0
C602 C 0.30109 0.5521 0.08525 0.0
C603 C 0.29533 0.55858 0.02631 0.0
H604 H 0.80802 0.31932 0.54706 0.0
H605 H 0.83516 0.25638 0.56205 0.0
H606 H 0.82259 0.24283 0.45285 0.0
H607 H 0.79843 0.24507 0.35858 0.0
H608 H 0.76695 0.30459 0.34772 0.0
H609 H 0.78754 0.32431 0.4501 0.0
C610 C 0.81179 0.30312 0.52593 0.0
C611 C 0.82233 0.2887 0.56198 0.0
C612 C 0.8038 0.29504 0.4643 0.0
C613 C 0.82668 0.26738 0.53485 0.0
C614 C 0.81964 0.25979 0.47268 0.0
C615 C 0.79696 0.26297 0.37804 0.0
C616 C 0.78152 0.27366 0.34641 0.0
C617 C 0.80746 0.27295 0.43764 0.0
C618 C 0.77891 0.29631 0.37196 0.0
C619 C 0.79046 0.30734 0.43027 0.0
H620 H 0.57908 0.84493 0.1089 0.0
H621 H 0.57241 0.76818 0.18845 0.0
H622 H 0.58469 0.75553 0.08844 0.0
H623 H 0.58773 0.7616 0.97558 0.0
H624 H 0.59101 0.83612 0.89386 0.0
H625 H 0.59015 0.85501 0.99766 0.0
C626 C 0.58066 0.82564 0.10421 0.0
C627 C 0.57416 0.80706 0.15502 0.0
C628 C 0.58701 0.81823 0.0464 0.0
C629 C 0.57716 0.78263 0.14958 0.0
C630 C 0.58402 0.77534 0.09247 0.0
C631 C 0.5892 0.7824 0.9812 0.0
C632 C 0.58908 0.7975 0.92855 0.0
C633 C 0.58765 0.79229 0.04021 0.0
C634 C 0.59114 0.82444 0.93467 0.0
C635 C 0.59031 0.83494 0.99366 0.0
H636 H 0.79248 0.58342 0.65169 0.0
H637 H 0.79037 0.50365 0.68866 0.0
H638 H 0.8123 0.50596 0.58696 0.0
H639 H 0.82726 0.5283 0.48562 0.0
H640 H 0.8237 0.60489 0.44245 0.0
H641 H 0.80946 0.60702 0.54998 0.0
C642 C 0.79761 0.56707 0.63759 0.0
C643 C 0.79038 0.54357 0.67665 0.0
C644 C 0.80875 0.56794 0.57841 0.0
C645 C 0.79618 0.52191 0.65861 0.0
C646 C 0.80846 0.52321 0.60078 0.0
C647 C 0.823 0.54527 0.49931 0.0
C648 C 0.82559 0.56594 0.45594 0.0
C649 C 0.81393 0.54565 0.55977 0.0
C650 C 0.82148 0.58863 0.47517 0.0
C651 C 0.81329 0.58976 0.53633 0.0
H652 H 0.29216 0.75649 0.14855 0.0
H653 H 0.21793 0.76726 0.14013 0.0
H654 H 0.22905 0.78281 0.03178 0.0
H655 H 0.25842 0.7905 0.93869 0.0
H656 H 0.33284 0.77953 0.9494 0.0
H657 H 0.32184 0.76493 0.05663 0.0
C658 C 0.27854 0.7624 0.12292 0.0
C659 C 0.25431 0.7607 0.15177 0.0
C660 C 0.2845 0.77029 0.06069 0.0
C661 C 0.23695 0.76879 0.11888 0.0
C662 C 0.24304 0.7772 0.0568 0.0
C663 C 0.27236 0.78507 0.96434 0.0
C664 C 0.29655 0.78644 0.93536 0.0
C665 C 0.26648 0.7775 0.02701 0.0
C666 C 0.31388 0.77853 0.96939 0.0
C667 C 0.30788 0.77051 0.03139 0.0
H668 H 0.56739 0.25423 0.60002 0.0
H669 H 0.50171 0.27002 0.67423 0.0
H670 H 0.4946 0.28445 0.57113 0.0
H671 H 0.5068 0.2918 0.46017 0.0
H672 H 0.57381 0.27812 0.38757 0.0
H673 H 0.58083 0.26328 0.49081 0.0
C674 C 0.55194 0.26138 0.59425 0.0
C675 C 0.5351 0.26113 0.64475 0.0
C676 C 0.54795 0.26944 0.53524 0.0
C677 C 0.51475 0.2699 0.63586 0.0
C678 C 0.51066 0.27806 0.57708 0.0
C679 C 0.52253 0.28504 0.46717 0.0
C680 C 0.53936 0.28521 0.41707 0.0
C681 C 0.52687 0.2775 0.52644 0.0
C682 C 0.56045 0.27753 0.42603 0.0
C683 C 0.56453 0.26933 0.48475 0.0
H684 H 0.75433 0.54012 0.9742 0.0
H685 H 0.70663 0.44759 0.95934 0.0
H686 H 0.73324 0.44385 0.04802 0.0
H687 H 0.77153 0.46718 0.12946 0.0
H688 H 0.82239 0.55986 0.13496 0.0
H689 H 0.79345 0.56321 0.05157 0.0
C690 C 0.74955 0.5191 0.9907 0.0
C691 C 0.72808 0.49415 0.96031 0.0
C692 C 0.76578 0.51715 0.04046 0.0
C693 C 0.72282 0.46717 0.98175 0.0
C694 C 0.73812 0.46503 0.03263 0.0
C695 C 0.77612 0.48808 0.11259 0.0
C696 C 0.79913 0.51329 0.13922 0.0
C697 C 0.75984 0.48988 0.06238 0.0
C698 C 0.80496 0.54012 0.11569 0.0
C699 C 0.78832 0.54207 0.06783 0.0
H700 H 0.24933 0.73731 0.46635 0.0
H701 H 0.30253 0.69967 0.43211 0.0
H702 H 0.33515 0.72907 0.5161 0.0
H703 H 0.34902 0.76632 0.60043 0.0
H704 H 0.298 0.80714 0.62508 0.0
H705 H 0.26456 0.7761 0.54492 0.0
C706 C 0.26801 0.73542 0.47735 0.0
C707 C 0.2731 0.71584 0.44292 0.0
C708 C 0.28731 0.75323 0.52452 0.0
C709 C 0.29786 0.71433 0.4575 0.0
C710 C 0.31657 0.73122 0.50582 0.0
C711 C 0.33056 0.76838 0.5883 0.0
C712 C 0.32612 0.78916 0.61972 0.0
C713 C 0.31162 0.75086 0.53988 0.0
C714 C 0.30218 0.79158 0.60219 0.0
C715 C 0.2829 0.77369 0.55616 0.0
H716 H 0.61578 0.33818 0.09984 0.0
H717 H 0.52335 0.29688 0.11364 0.0
H718 H 0.51808 0.26212 0.03374 0.0
H719 H 0.53929 0.24308 0.95798 0.0
H720 H 0.63136 0.28687 0.93491 0.0
H721 H 0.63713 0.32046 1.01903 0.0
C722 C 0.5945 0.32155 0.0854 0.0
C723 C 0.56997 0.32031 0.11357 0.0
C724 C 0.59151 0.30182 0.03722 0.0
C725 C 0.54264 0.29866 0.09316 0.0
C726 C 0.53957 0.27859 0.0473 0.0
C727 C 0.56066 0.25986 0.97156 0.0
C728 C 0.58488 0.26202 0.9402 0.0
C729 C 0.56378 0.27988 1.01878 0.0
C730 C 0.6123 0.28444 0.958 0.0
C731 C 0.61561 0.30374 1.00634 0.0
H732 H 0.3454 0.59376 0.43389 0.0
H733 H 0.29584 0.50194 0.40365 0.0
H734 H 0.26103 0.49774 0.48179 0.0
H735 H 0.24472 0.5192 0.56169 0.0
H736 H 0.29499 0.61014 0.60028 0.0
H737 H 0.32892 0.61554 0.51714 0.0
C738 C 0.32687 0.5729 0.44411 0.0
C739 C 0.32343 0.54818 0.41205 0.0
C740 C 0.30689 0.57039 0.49126 0.0
C741 C 0.29933 0.52135 0.42711 0.0
C742 C 0.27925 0.51888 0.47205 0.0
C743 C 0.26296 0.54032 0.5518 0.0
C744 C 0.26692 0.56425 0.58746 0.0
C745 C 0.28283 0.54312 0.50486 0.0
C746 C 0.29112 0.59128 0.57392 0.0
C747 C 0.31063 0.59437 0.52615 0.0
H748 H 0.74135 0.22527 0.05037 0.0
H749 H 0.70026 0.27606 0.07359 0.0
H750 H 0.72932 0.30764 0.98815 0.0
H751 H 0.76847 0.32225 0.90833 0.0
H752 H 0.81168 0.27299 0.89397 0.0
H753 H 0.78005 0.2398 0.9732 0.0
C754 C 0.73843 0.24303 0.03637 0.0
C755 C 0.71822 0.24791 0.06834 0.0
C756 C 0.75594 0.26169 0.98841 0.0
C757 C 0.7154 0.27153 0.04992 0.0
C758 C 0.73215 0.2897 1.00094 0.0
C759 C 0.77075 0.3041 0.92219 0.0
C760 C 0.79253 0.3002 0.89437 0.0
C761 C 0.75277 0.28523 0.96998 0.0
C762 C 0.7953 0.27672 0.91408 0.0
C763 C 0.77712 0.2576 0.95964 0.0
H764 H 0.54841 0.82369 0.47413 0.0
H765 H 0.45718 0.77102 0.44284 0.0
H766 H 0.45314 0.74107 0.53273 0.0
H767 H 0.47629 0.72853 0.61939 0.0
H768 H 0.56845 0.779 0.64035 0.0
H769 H 0.57131 0.81072 0.55655 0.0
C770 C 0.52753 0.80582 0.48715 0.0
C771 C 0.50308 0.79996 0.45164 0.0
C772 C 0.52557 0.78801 0.53752 0.0
C773 C 0.47638 0.77627 0.46912 0.0
C774 C 0.47408 0.75904 0.52067 0.0
C775 C 0.49691 0.74662 0.60583 0.0
C776 C 0.52215 0.75142 0.637 0.0
C777 C 0.4986 0.76449 0.55518 0.0
C778 C 0.5487 0.77471 0.6177 0.0
C779 C 0.55038 0.79296 0.56954 0.0
H780 H 0.4654 0.49797 0.26712 0.0
H781 H 0.38263 0.41988 0.26637 0.0
H782 H 0.40639 0.39121 0.27327 0.0
H783 H 0.451 0.38825 0.27899 0.0
H784 H 0.53338 0.46694 0.27447 0.0
H785 H 0.50941 0.49509 0.26994 0.0
C786 C 0.45242 0.47466 0.26746 0.0
C787 C 0.42211 0.46128 0.26574 0.0
C788 C 0.46623 0.45826 0.27091 0.0
C789 C 0.40592 0.43097 0.26809 0.0
C790 C 0.41954 0.41449 0.27174 0.0
C791 C 0.46374 0.41154 0.27673 0.0
C792 C 0.49413 0.42525 0.27813 0.0
C793 C 0.44973 0.42788 0.27314 0.0
C794 C 0.51007 0.45557 0.27534 0.0
C795 C 0.49635 0.47182 0.27208 0.0
H796 H 0.07835 0.44276 0.83674 0.0
H797 H 0.08969 0.47059 0.64591 0.0
H798 H 1.03765 0.44322 0.62968 0.0
H799 H 0.98865 0.4125 0.67033 0.0
H800 H 0.97674 0.3829 0.85985 0.0
H801 H 1.02896 0.4092 0.87573 0.0
C802 C 0.06932 0.44266 0.79167 0.0
C803 C 0.08782 0.45865 0.74258 0.0
C804 C 0.03924 0.4264 0.78232 0.0
C805 C 0.0759 0.45826 0.68425 0.0
C806 C 0.04614 0.44267 0.67497 0.0
C807 C 0.99751 0.41165 0.71497 0.0
C808 C 0.97877 0.39577 0.76382 0.0
C809 C 1.02757 0.42678 0.7237 0.0
C810 C 0.99064 0.39469 0.82125 0.0
C811 C 1.02053 0.40995 0.83052 0.0
H812 H 0.61243 0.06688 0.22849 0.0
H813 H 0.69378 0.08335 0.30243 0.0
H814 H 0.67675 0.03148 0.30246 0.0
H815 H 0.63824 0.98117 0.282 0.0
H816 H 0.55769 0.96564 0.20414 0.0
H817 H 0.57498 1.01718 0.20419 0.0
C818 C 0.62631 0.05903 0.24506 0.0
C819 C 0.65414 0.07882 0.26634 0.0
C820 C 0.6166 0.02931 0.24355 0.0
C821 C 0.67219 0.06847 0.28625 0.0
C822 C 0.66246 0.03884 0.28615 0.0
C823 C 0.62454 0.98909 0.26484 0.0
C824 C 0.59672 0.9694 0.24271 0.0
C825 C 0.63466 1.019 0.26492 0.0
C826 C 0.57936 0.98018 0.22034 0.0
C827 C 0.58912 1.00971 0.22092 0.0
H828 H 0.59956 0.64063 0.70948 0.0
H829 H 0.62402 0.66845 0.8994 0.0
H830 H 0.64716 0.63935 0.90595 0.0
H831 H 0.6597 0.6052 0.85874 0.0
H832 H 0.63805 0.5801 0.66661 0.0
H833 H 0.6148 0.60907 0.66029 0.0
C834 C 0.61038 0.64088 0.75211 0.0
C835 C 0.60982 0.65692 0.80389 0.0
C836 C 0.62413 0.6244 0.75537 0.0
C837 C 0.62351 0.65612 0.85897 0.0
C838 C 0.63699 0.63957 0.86268 0.0
C839 C 0.65041 0.60639 0.81499 0.0
C840 C 0.65072 0.59019 0.76327 0.0
C841 C 0.63734 0.62352 0.81127 0.0
C842 C 0.63786 0.59178 0.70762 0.0
C843 C 0.62465 0.60855 0.70378 0.0
H844 H 0.08302 0.64425 0.36994 0.0
H845 H 0.08827 0.61378 0.18694 0.0
H846 H 1.03618 0.591 0.17582 0.0
H847 H 0.98878 0.57794 0.21911 0.0
H848 H 0.98313 0.6082 0.402 0.0
H849 H 1.03542 0.63199 0.41249 0.0
C850 C 0.07283 0.63254 0.32766 0.0
C851 C 0.08989 0.63094 0.27932 0.0
C852 C 0.0426 0.61911 0.32168 0.0
C853 C 0.07603 0.61592 0.22463 0.0
C854 C 0.04609 0.60261 0.21837 0.0
C855 C 0.99891 0.59006 0.26103 0.0
C856 C 0.9817 0.59112 0.30966 0.0
C857 C 1.02913 0.60392 0.26667 0.0
C858 C 0.99551 0.60654 0.36402 0.0
C859 C 1.02555 0.62036 0.36994 0.0
H860 H 0.429 0.9787 0.69911 0.0
H861 H 0.42532 0.97098 0.8987 0.0
H862 H 0.45314 1.02347 0.90934 0.0
H863 H 0.48066 0.0717 0.86202 0.0
H864 H 0.48645 0.07943 0.66239 0.0
H865 H 0.45593 0.02716 0.65167 0.0
C866 C 0.43394 0.98857 0.74488 0.0
C867 C 0.42489 0.97089 0.79807 0.0
C868 C 0.45061 1.01888 0.75066 0.0
C869 C 0.43199 0.98405 0.85705 0.0
C870 C 0.44794 1.01409 0.86316 0.0
C871 C 0.47493 0.06198 0.81616 0.0
C872 C 0.48583 0.07961 0.76308 0.0
C873 C 0.45768 0.03176 0.81033 0.0
C874 C 0.47856 0.06647 0.70405 0.0
C875 C 0.46101 0.03653 0.69787 0.0
loop_
_geom_bond_atom_site_label_1
_geom_bond_atom_site_label_2
_geom_bond_distance
_geom_bond_site_symmetry_2
_ccdc_geom_bond_type
Co0 N4 2.148 . S
Co0 N10 2.128 . S
Co0 N20 2.194 . S
Co0 O25 2.351 . S
Co0 O26 2.155 . S
Co0 O27 2.096 . S
C1 N4 1.301 . S
C1 N5 1.328 . S
C1 H6 0.930 . S
C2 C3 1.333 . S
C2 N4 1.317 . S
C2 H7 0.930 . S
C3 C2 1.333 . S
C3 N5 1.350 . S
C3 H29 0.931 . S
N4 Co0 2.148 . S
N4 C1 1.301 . S
N4 C2 1.317 . S
N5 C1 1.328 . S
N5 C3 1.350 . S
H6 C1 0.930 . S
H7 C2 0.930 . S
C8 O9 1.224 . S
C8 O27 1.247 . S
O9 C8 1.224 . S
N10 Co0 2.128 . S
N10 C11 1.355 . S
N10 C13 1.311 . S
C11 N10 1.355 . S
C11 C12 1.363 . S
C11 H23 0.929 . S
C12 C11 1.363 . S
C12 N14 1.375 . S
C12 H30 0.931 . S
C13 N10 1.311 . S
C13 N14 1.347 . S
C13 H24 0.929 . S
N14 C12 1.375 . S
N14 C13 1.347 . S
C15 C18 1.365 . S
C15 N20 1.328 . S
C15 H21 0.929 . S
C16 C17 1.362 . S
C16 C19 1.378 . S
C16 H31 0.929 . S
C17 C16 1.362 . S
C17 C18 1.366 . S
C18 C15 1.365 . S
C18 C17 1.366 . S
C18 H32 0.930 . S
C19 C16 1.378 . S
C19 N20 1.315 . S
C19 H22 0.930 . S
N20 Co0 2.194 . S
N20 C15 1.328 . S
N20 C19 1.315 . S
H21 C15 0.929 . S
H22 C19 0.930 . S
H23 C11 0.929 . S
H24 C13 0.929 . S
O25 Co0 2.351 . S
O25 C28 1.244 . S
O26 Co0 2.155 . S
O26 C28 1.240 . S
O27 Co0 2.096 . S
O27 C8 1.247 . S
C28 O25 1.244 . S
C28 O26 1.240 . S
H29 C3 0.931 . S
H30 C12 0.931 . S
H31 C16 0.929 . S
H32 C18 0.930 . S
Co33 N37 2.148 . S
Co33 N43 2.128 . S
Co33 N53 2.194 . S
Co33 O58 2.351 . S
Co33 O59 2.155 . S
Co33 O60 2.096 . S
C34 N37 1.301 . S
C34 N38 1.328 . S
C34 H39 0.930 . S
C35 C36 1.333 . S
C35 N37 1.317 . S
C35 H40 0.930 . S
C36 C35 1.333 . S
C36 N38 1.350 . S
C36 H62 0.931 . S
N37 Co33 2.148 . S
N37 C34 1.301 . S
N37 C35 1.317 . S
N38 C34 1.328 . S
N38 C36 1.350 . S
H39 C34 0.930 . S
H40 C35 0.930 . S
C41 O42 1.224 . S
C41 O60 1.247 . S
O42 C41 1.224 . S
N43 Co33 2.128 . S
N43 C44 1.355 . S
N43 C46 1.311 . S
C44 N43 1.355 . S
C44 C45 1.363 . S
C44 H56 0.929 . S
C45 C44 1.363 . S
C45 N47 1.375 . S
C45 H63 0.931 . S
C46 N43 1.311 . S
C46 N47 1.347 . S
C46 H57 0.929 . S
N47 C45 1.375 . S
N47 C46 1.347 . S
C48 C51 1.365 . S
C48 N53 1.328 . S
C48 H54 0.929 . S
C49 C50 1.362 . S
C49 C52 1.378 . S
C49 H64 0.929 . S
C50 C49 1.362 . S
C50 C51 1.366 . S
C51 C48 1.365 . S
C51 C50 1.366 . S
C51 H65 0.930 . S
C52 C49 1.378 . S
C52 N53 1.315 . S
C52 H55 0.930 . S
N53 Co33 2.194 . S
N53 C48 1.328 . S
N53 C52 1.315 . S
H54 C48 0.929 . S
H55 C52 0.930 . S
H56 C44 0.929 . S
H57 C46 0.929 . S
O58 Co33 2.351 . S
O58 C61 1.244 . S
O59 Co33 2.155 . S
O59 C61 1.240 . S
O60 Co33 2.096 . S
O60 C41 1.247 . S
C61 O58 1.244 . S
C61 O59 1.240 . S
H62 C36 0.931 . S
H63 C45 0.931 . S
H64 C49 0.929 . S
H65 C51 0.930 . S
Co66 N70 2.148 . S
Co66 N76 2.128 . S
Co66 N86 2.194 . S
Co66 O91 2.351 . S
Co66 O92 2.155 . S
Co66 O93 2.096 . S
C67 N70 1.301 . S
C67 N71 1.328 . S
C67 H72 0.930 . S
C68 C69 1.333 . S
C68 N70 1.317 . S
C68 H73 0.930 . S
C69 C68 1.333 . S
C69 N71 1.350 . S
C69 H95 0.931 . S
N70 Co66 2.148 . S
N70 C67 1.301 . S
N70 C68 1.317 . S
N71 C67 1.328 . S
N71 C69 1.350 . S
H72 C67 0.930 . S
H73 C68 0.930 . S
C74 O75 1.224 . S
C74 O93 1.247 . S
O75 C74 1.224 . S
N76 Co66 2.128 . S
N76 C77 1.355 . S
N76 C79 1.311 . S
C77 N76 1.355 . S
C77 C78 1.363 . S
C77 H89 0.929 . S
C78 C77 1.363 . S
C78 N80 1.375 . S
C78 H96 0.931 . S
C79 N76 1.311 . S
C79 N80 1.347 . S
C79 H90 0.929 . S
N80 C78 1.375 . S
N80 C79 1.347 . S
C81 C84 1.365 . S
C81 N86 1.328 . S
C81 H87 0.929 . S
C82 C83 1.362 . S
C82 C85 1.378 . S
C82 H97 0.929 . S
C83 C82 1.362 . S
C83 C84 1.366 . S
C84 C81 1.365 . S
C84 C83 1.366 . S
C84 H98 0.930 . S
C85 C82 1.378 . S
C85 N86 1.315 . S
C85 H88 0.930 . S
N86 Co66 2.194 . S
N86 C81 1.328 . S
N86 C85 1.315 . S
H87 C81 0.929 . S
H88 C85 0.930 . S
H89 C77 0.929 . S
H90 C79 0.929 . S
O91 Co66 2.351 . S
O91 C94 1.244 . S
O92 Co66 2.155 . S
O92 C94 1.240 . S
O93 Co66 2.096 . S
O93 C74 1.247 . S
C94 O91 1.244 . S
C94 O92 1.240 . S
H95 C69 0.931 . S
H96 C78 0.931 . S
H97 C82 0.929 . S
H98 C84 0.930 . S
Co99 N103 2.148 . S
Co99 N109 2.128 . S
Co99 N119 2.194 . S
Co99 O124 2.351 . S
Co99 O125 2.155 . S
Co99 O126 2.096 . S
C100 N103 1.301 . S
C100 N104 1.328 . S
C100 H105 0.930 . S
C101 C102 1.333 . S
C101 N103 1.317 . S
C101 H106 0.930 . S
C102 C101 1.333 . S
C102 N104 1.350 . S
C102 H128 0.931 . S
N103 Co99 2.148 . S
N103 C100 1.301 . S
N103 C101 1.317 . S
N104 C100 1.328 . S
N104 C102 1.350 . S
H105 C100 0.930 . S
H106 C101 0.930 . S
C107 O108 1.224 . S
C107 O126 1.247 . S
O108 C107 1.224 . S
N109 Co99 2.128 . S
N109 C110 1.355 . S
N109 C112 1.311 . S
C110 N109 1.355 . S
C110 C111 1.363 . S
C110 H122 0.929 . S
C111 C110 1.363 . S
C111 N113 1.375 . S
C111 H129 0.931 . S
C112 N109 1.311 . S
C112 N113 1.347 . S
C112 H123 0.929 . S
N113 C111 1.375 . S
N113 C112 1.347 . S
C114 C117 1.365 . S
C114 N119 1.328 . S
C114 H120 0.929 . S
C115 C116 1.362 . S
C115 C118 1.378 . S
C115 H130 0.929 . S
C116 C115 1.362 . S
C116 C117 1.366 . S
C117 C114 1.365 . S
C117 C116 1.366 . S
C117 H131 0.930 . S
C118 C115 1.378 . S
C118 N119 1.315 . S
C118 H121 0.930 . S
N119 Co99 2.194 . S
N119 C114 1.328 . S
N119 C118 1.315 . S
H120 C114 0.929 . S
H121 C118 0.930 . S
H122 C110 0.929 . S
H123 C112 0.929 . S
O124 Co99 2.351 . S
O124 C127 1.244 . S
O125 Co99 2.155 . S
O125 C127 1.240 . S
O126 Co99 2.096 . S
O126 C107 1.247 . S
C127 O124 1.244 . S
C127 O125 1.240 . S
H128 C102 0.931 . S
H129 C111 0.931 . S
H130 C115 0.929 . S
H131 C117 0.930 . S
Co132 N136 2.148 . S
Co132 N142 2.128 . S
Co132 N152 2.194 . S
Co132 O157 2.351 . S
Co132 O158 2.155 . S
Co132 O159 2.096 . S
C133 N136 1.301 . S
C133 N137 1.328 . S
C133 H138 0.930 . S
C134 C135 1.333 . S
C134 N136 1.317 . S
C134 H139 0.930 . S
C135 C134 1.333 . S
C135 N137 1.350 . S
C135 H161 0.931 . S
N136 Co132 2.148 . S
N136 C133 1.301 . S
N136 C134 1.317 . S
N137 C133 1.328 . S
N137 C135 1.350 . S
H138 C133 0.930 . S
H139 C134 0.930 . S
C140 O141 1.224 . S
C140 O159 1.247 . S
O141 C140 1.224 . S
N142 Co132 2.128 . S
N142 C143 1.355 . S
N142 C145 1.311 . S
C143 N142 1.355 . S
C143 C144 1.363 . S
C143 H155 0.929 . S
C144 C143 1.363 . S
C144 N146 1.375 . S
C144 H162 0.931 . S
C145 N142 1.311 . S
C145 N146 1.347 . S
C145 H156 0.929 . S
N146 C144 1.375 . S
N146 C145 1.347 . S
C147 C150 1.365 . S
C147 N152 1.328 . S
C147 H153 0.929 . S
C148 C149 1.362 . S
C148 C151 1.378 . S
C148 H163 0.929 . S
C149 C148 1.362 . S
C149 C150 1.366 . S
C150 C147 1.365 . S
C150 C149 1.366 . S
C150 H164 0.930 . S
C151 C148 1.378 . S
C151 N152 1.315 . S
C151 H154 0.930 . S
N152 Co132 2.194 . S
N152 C147 1.328 . S
N152 C151 1.315 . S
H153 C147 0.929 . S
H154 C151 0.930 . S
H155 C143 0.929 . S
H156 C145 0.929 . S
O157 Co132 2.351 . S
O157 C160 1.244 . S
O158 Co132 2.155 . S
O158 C160 1.240 . S
O159 Co132 2.096 . S
O159 C140 1.247 . S
C160 O157 1.244 . S
C160 O158 1.240 . S
H161 C135 0.931 . S
H162 C144 0.931 . S
H163 C148 0.929 . S
H164 C150 0.930 . S
Co165 N169 2.148 . S
Co165 N175 2.128 . S
Co165 N185 2.194 . S
Co165 O190 2.351 . S
Co165 O191 2.155 . S
Co165 O192 2.096 . S
C166 N169 1.301 . S
C166 N170 1.328 . S
C166 H171 0.930 . S
C167 C168 1.333 . S
C167 N169 1.317 . S
C167 H172 0.930 . S
C168 C167 1.333 . S
C168 N170 1.350 . S
C168 H194 0.931 . S
N169 Co165 2.148 . S
N169 C166 1.301 . S
N169 C167 1.317 . S
N170 C166 1.328 . S
N170 C168 1.350 . S
H171 C166 0.930 . S
H172 C167 0.930 . S
C173 O174 1.224 . S
C173 O192 1.247 . S
O174 C173 1.224 . S
N175 Co165 2.128 . S
N175 C176 1.355 . S
N175 C178 1.311 . S
C176 N175 1.355 . S
C176 C177 1.363 . S
C176 H188 0.929 . S
C177 C176 1.363 . S
C177 N179 1.375 . S
C177 H195 0.931 . S
C178 N175 1.311 . S
C178 N179 1.347 . S
C178 H189 0.929 . S
N179 C177 1.375 . S
N179 C178 1.347 . S
C180 C183 1.365 . S
C180 N185 1.328 . S
C180 H186 0.929 . S
C181 C182 1.362 . S
C181 C184 1.378 . S
C181 H196 0.929 . S
C182 C181 1.362 . S
C182 C183 1.366 . S
C183 C180 1.365 . S
C183 C182 1.366 . S
C183 H197 0.930 . S
C184 C181 1.378 . S
C184 N185 1.315 . S
C184 H187 0.930 . S
N185 Co165 2.194 . S
N185 C180 1.328 . S
N185 C184 1.315 . S
H186 C180 0.929 . S
H187 C184 0.930 . S
H188 C176 0.929 . S
H189 C178 0.929 . S
O190 Co165 2.351 . S
O190 C193 1.244 . S
O191 Co165 2.155 . S
O191 C193 1.240 . S
O192 Co165 2.096 . S
O192 C173 1.247 . S
C193 O190 1.244 . S
C193 O191 1.240 . S
H194 C168 0.931 . S
H195 C177 0.931 . S
H196 C181 0.929 . S
H197 C183 0.930 . S
Co198 N202 2.148 . S
Co198 N208 2.128 . S
Co198 N218 2.194 . S
Co198 O223 2.351 . S
Co198 O224 2.155 . S
Co198 O225 2.096 . S
C199 N202 1.301 . S
C199 N203 1.328 . S
C199 H204 0.930 . S
C200 C201 1.333 . S
C200 N202 1.317 . S
C200 H205 0.930 . S
C201 C200 1.333 . S
C201 N203 1.350 . S
C201 H227 0.931 . S
N202 Co198 2.148 . S
N202 C199 1.301 . S
N202 C200 1.317 . S
N203 C199 1.328 . S
N203 C201 1.350 . S
H204 C199 0.930 . S
H205 C200 0.930 . S
C206 O207 1.224 . S
C206 O225 1.247 . S
O207 C206 1.224 . S
N208 Co198 2.128 . S
N208 C209 1.355 . S
N208 C211 1.311 . S
C209 N208 1.355 . S
C209 C210 1.363 . S
C209 H221 0.929 . S
C210 C209 1.363 . S
C210 N212 1.375 . S
C210 H228 0.931 . S
C211 N208 1.311 . S
C211 N212 1.347 . S
C211 H222 0.929 . S
N212 C210 1.375 . S
N212 C211 1.347 . S
C213 C216 1.365 . S
C213 N218 1.328 . S
C213 H219 0.929 . S
C214 C215 1.362 . S
C214 C217 1.378 . S
C214 H229 0.929 . S
C215 C214 1.362 . S
C215 C216 1.366 . S
C216 C213 1.365 . S
C216 C215 1.366 . S
C216 H230 0.930 . S
C217 C214 1.378 . S
C217 N218 1.315 . S
C217 H220 0.930 . S
N218 Co198 2.194 . S
N218 C213 1.328 . S
N218 C217 1.315 . S
H219 C213 0.929 . S
H220 C217 0.930 . S
H221 C209 0.929 . S
H222 C211 0.929 . S
O223 Co198 2.351 . S
O223 C226 1.244 . S
O224 Co198 2.155 . S
O224 C226 1.240 . S
O225 Co198 2.096 . S
O225 C206 1.247 . S
C226 O223 1.244 . S
C226 O224 1.240 . S
H227 C201 0.931 . S
H228 C210 0.931 . S
H229 C214 0.929 . S
H230 C216 0.930 . S
Co231 N235 2.148 . S
Co231 N241 2.128 . S
Co231 N251 2.194 . S
Co231 O256 2.351 . S
Co231 O257 2.155 . S
Co231 O258 2.096 . S
C232 N235 1.301 . S
C232 N236 1.328 . S
C232 H237 0.930 . S
C233 C234 1.333 . S
C233 N235 1.317 . S
C233 H238 0.930 . S
C234 C233 1.333 . S
C234 N236 1.350 . S
C234 H260 0.931 . S
N235 Co231 2.148 . S
N235 C232 1.301 . S
N235 C233 1.317 . S
N236 C232 1.328 . S
N236 C234 1.350 . S
H237 C232 0.930 . S
H238 C233 0.930 . S
C239 O240 1.224 . S
C239 O258 1.247 . S
O240 C239 1.224 . S
N241 Co231 2.128 . S
N241 C242 1.355 . S
N241 C244 1.311 . S
C242 N241 1.355 . S
C242 C243 1.363 . S
C242 H254 0.929 . S
C243 C242 1.363 . S
C243 N245 1.375 . S
C243 H261 0.931 . S
C244 N241 1.311 . S
C244 N245 1.347 . S
C244 H255 0.929 . S
N245 C243 1.375 . S
N245 C244 1.347 . S
C246 C249 1.365 . S
C246 N251 1.328 . S
C246 H252 0.929 . S
C247 C248 1.362 . S
C247 C250 1.378 . S
C247 H262 0.929 . S
C248 C247 1.362 . S
C248 C249 1.366 . S
C249 C246 1.365 . S
C249 C248 1.366 . S
C249 H263 0.930 . S
C250 C247 1.378 . S
C250 N251 1.315 . S
C250 H253 0.930 . S
N251 Co231 2.194 . S
N251 C246 1.328 . S
N251 C250 1.315 . S
H252 C246 0.929 . S
H253 C250 0.930 . S
H254 C242 0.929 . S
H255 C244 0.929 . S
O256 Co231 2.351 . S
O256 C259 1.244 . S
O257 Co231 2.155 . S
O257 C259 1.240 . S
O258 Co231 2.096 . S
O258 C239 1.247 . S
C259 O256 1.244 . S
C259 O257 1.240 . S
H260 C234 0.931 . S
H261 C243 0.931 . S
H262 C247 0.929 . S
H263 C249 0.930 . S
Co264 N268 2.148 . S
Co264 N274 2.128 . S
Co264 N284 2.194 . S
Co264 O289 2.351 . S
Co264 O290 2.155 . S
Co264 O291 2.096 . S
C265 N268 1.301 . S
C265 N269 1.328 . S
C265 H270 0.930 . S
C266 C267 1.333 . S
C266 N268 1.317 . S
C266 H271 0.930 . S
C267 C266 1.333 . S
C267 N269 1.350 . S
C267 H293 0.931 . S
N268 Co264 2.148 . S
N268 C265 1.301 . S
N268 C266 1.317 . S
N269 C265 1.328 . S
N269 C267 1.350 . S
H270 C265 0.930 . S
H271 C266 0.930 . S
C272 O273 1.224 . S
C272 O291 1.247 . S
O273 C272 1.224 . S
N274 Co264 2.128 . S
N274 C275 1.355 . S
N274 C277 1.311 . S
C275 N274 1.355 . S
C275 C276 1.363 . S
C275 H287 0.929 . S
C276 C275 1.363 . S
C276 N278 1.375 . S
C276 H294 0.931 . S
C277 N274 1.311 . S
C277 N278 1.347 . S
C277 H288 0.929 . S
N278 C276 1.375 . S
N278 C277 1.347 . S
C279 C282 1.365 . S
C279 N284 1.328 . S
C279 H285 0.929 . S
C280 C281 1.362 . S
C280 C283 1.378 . S
C280 H295 0.929 . S
C281 C280 1.362 . S
C281 C282 1.366 . S
C282 C279 1.365 . S
C282 C281 1.366 . S
C282 H296 0.930 . S
C283 C280 1.378 . S
C283 N284 1.315 . S
C283 H286 0.930 . S
N284 Co264 2.194 . S
N284 C279 1.328 . S
N284 C283 1.315 . S
H285 C279 0.929 . S
H286 C283 0.930 . S
H287 C275 0.929 . S
H288 C277 0.929 . S
O289 Co264 2.351 . S
O289 C292 1.244 . S
O290 Co264 2.155 . S
O290 C292 1.240 . S
O291 Co264 2.096 . S
O291 C272 1.247 . S
C292 O289 1.244 . S
C292 O290 1.240 . S
H293 C267 0.931 . S
H294 C276 0.931 . S
H295 C280 0.929 . S
H296 C282 0.930 . S
Co297 N301 2.148 . S
Co297 N307 2.128 . S
Co297 N317 2.194 . S
Co297 O322 2.351 . S
Co297 O323 2.155 . S
Co297 O324 2.096 . S
C298 N301 1.301 . S
C298 N302 1.328 . S
C298 H303 0.930 . S
C299 C300 1.333 . S
C299 N301 1.317 . S
C299 H304 0.930 . S
C300 C299 1.333 . S
C300 N302 1.350 . S
C300 H326 0.931 . S
N301 Co297 2.148 . S
N301 C298 1.301 . S
N301 C299 1.317 . S
N302 C298 1.328 . S
N302 C300 1.350 . S
H303 C298 0.930 . S
H304 C299 0.930 . S
C305 O306 1.224 . S
C305 O324 1.247 . S
O306 C305 1.224 . S
N307 Co297 2.128 . S
N307 C308 1.355 . S
N307 C310 1.311 . S
C308 N307 1.355 . S
C308 C309 1.363 . S
C308 H320 0.929 . S
C309 C308 1.363 . S
C309 N311 1.375 . S
C309 H327 0.931 . S
C310 N307 1.311 . S
C310 N311 1.347 . S
C310 H321 0.929 . S
N311 C309 1.375 . S
N311 C310 1.347 . S
C312 C315 1.365 . S
C312 N317 1.328 . S
C312 H318 0.929 . S
C313 C314 1.362 . S
C313 C316 1.378 . S
C313 H328 0.929 . S
C314 C313 1.362 . S
C314 C315 1.366 . S
C315 C312 1.365 . S
C315 C314 1.366 . S
C315 H329 0.930 . S
C316 C313 1.378 . S
C316 N317 1.315 . S
C316 H319 0.930 . S
N317 Co297 2.194 . S
N317 C312 1.328 . S
N317 C316 1.315 . S
H318 C312 0.929 . S
H319 C316 0.930 . S
H320 C308 0.929 . S
H321 C310 0.929 . S
O322 Co297 2.351 . S
O322 C325 1.244 . S
O323 Co297 2.155 . S
O323 C325 1.240 . S
O324 Co297 2.096 . S
O324 C305 1.247 . S
C325 O322 1.244 . S
C325 O323 1.240 . S
H326 C300 0.931 . S
H327 C309 0.931 . S
H328 C313 0.929 . S
H329 C315 0.930 . S
Co330 N334 2.148 . S
Co330 N340 2.128 . S
Co330 N350 2.194 . S
Co330 O355 2.351 . S
Co330 O356 2.155 . S
Co330 O357 2.096 . S
C331 N334 1.301 . S
C331 N335 1.328 . S
C331 H336 0.930 . S
C332 C333 1.333 . S
C332 N334 1.317 . S
C332 H337 0.930 . S
C333 C332 1.333 . S
C333 N335 1.350 . S
C333 H359 0.931 . S
N334 Co330 2.148 . S
N334 C331 1.301 . S
N334 C332 1.317 . S
N335 C331 1.328 . S
N335 C333 1.350 . S
H336 C331 0.930 . S
H337 C332 0.930 . S
C338 O339 1.224 . S
C338 O357 1.247 . S
O339 C338 1.224 . S
N340 Co330 2.128 . S
N340 C341 1.355 . S
N340 C343 1.311 . S
C341 N340 1.355 . S
C341 C342 1.363 . S
C341 H353 0.929 . S
C342 C341 1.363 . S
C342 N344 1.375 . S
C342 H360 0.931 . S
C343 N340 1.311 . S
C343 N344 1.347 . S
C343 H354 0.929 . S
N344 C342 1.375 . S
N344 C343 1.347 . S
C345 C348 1.365 . S
C345 N350 1.328 . S
C345 H351 0.929 . S
C346 C347 1.362 . S
C346 C349 1.378 . S
C346 H361 0.929 . S
C347 C346 1.362 . S
C347 C348 1.366 . S
C348 C345 1.365 . S
C348 C347 1.366 . S
C348 H362 0.930 . S
C349 C346 1.378 . S
C349 N350 1.315 . S
C349 H352 0.930 . S
N350 Co330 2.194 . S
N350 C345 1.328 . S
N350 C349 1.315 . S
H351 C345 0.929 . S
H352 C349 0.930 . S
H353 C341 0.929 . S
H354 C343 0.929 . S
O355 Co330 2.351 . S
O355 C358 1.244 . S
O356 Co330 2.155 . S
O356 C358 1.240 . S
O357 Co330 2.096 . S
O357 C338 1.247 . S
C358 O355 1.244 . S
C358 O356 1.240 . S
H359 C333 0.931 . S
H360 C342 0.931 . S
H361 C346 0.929 . S
H362 C348 0.930 . S
Co363 N367 2.148 . S
Co363 N373 2.128 . S
Co363 N383 2.194 . S
Co363 O388 2.351 . S
Co363 O389 2.155 . S
Co363 O390 2.096 . S
C364 N367 1.301 . S
C364 N368 1.328 . S
C364 H369 0.930 . S
C365 C366 1.333 . S
C365 N367 1.317 . S
C365 H370 0.930 . S
C366 C365 1.333 . S
C366 N368 1.350 . S
C366 H392 0.931 . S
N367 Co363 2.148 . S
N367 C364 1.301 . S
N367 C365 1.317 . S
N368 C364 1.328 . S
N368 C366 1.350 . S
H369 C364 0.930 . S
H370 C365 0.930 . S
C371 O372 1.224 . S
C371 O390 1.247 . S
O372 C371 1.224 . S
N373 Co363 2.128 . S
N373 C374 1.355 . S
N373 C376 1.311 . S
C374 N373 1.355 . S
C374 C375 1.363 . S
C374 H386 0.929 . S
C375 C374 1.363 . S
C375 N377 1.375 . S
C375 H393 0.931 . S
C376 N373 1.311 . S
C376 N377 1.347 . S
C376 H387 0.929 . S
N377 C375 1.375 . S
N377 C376 1.347 . S
C378 C381 1.365 . S
C378 N383 1.328 . S
C378 H384 0.929 . S
C379 C380 1.362 . S
C379 C382 1.378 . S
C379 H394 0.929 . S
C380 C379 1.362 . S
C380 C381 1.366 . S
C381 C378 1.365 . S
C381 C380 1.366 . S
C381 H395 0.930 . S
C382 C379 1.378 . S
C382 N383 1.315 . S
C382 H385 0.930 . S
N383 Co363 2.194 . S
N383 C378 1.328 . S
N383 C382 1.315 . S
H384 C378 0.929 . S
H385 C382 0.930 . S
H386 C374 0.929 . S
H387 C376 0.929 . S
O388 Co363 2.351 . S
O388 C391 1.244 . S
O389 Co363 2.155 . S
O389 C391 1.240 . S
O390 Co363 2.096 . S
O390 C371 1.247 . S
C391 O388 1.244 . S
C391 O389 1.240 . S
H392 C366 0.931 . S
H393 C375 0.931 . S
H394 C379 0.929 . S
H395 C381 0.930 . S
H396 C402 0.930 . S
H397 C405 0.930 . S
H398 C406 0.930 . S
H399 C407 0.930 . S
H400 C410 0.930 . S
H401 C411 0.930 . S
C402 H396 0.930 . S
C402 C403 1.355 . S
C402 C404 1.415 . S
C403 C402 1.355 . S
C403 C405 1.419 . S
C404 C402 1.415 . S
C404 C409 1.425 1_554 S
C404 C411 1.409 . S
C405 H397 0.930 . S
C405 C403 1.419 . S
C405 C406 1.362 1_554 S
C406 H398 0.930 . S
C406 C405 1.362 1_556 S
C406 C409 1.409 . S
C407 H399 0.930 . S
C407 C408 1.355 . S
C407 C409 1.415 . S
C408 C407 1.355 . S
C408 C410 1.419 . S
C409 C404 1.425 1_556 S
C409 C406 1.409 . S
C409 C407 1.415 . S
C410 H400 0.930 . S
C410 C408 1.419 . S
C410 C411 1.362 1_556 S
C411 H401 0.930 . S
C411 C404 1.409 . S
C411 C410 1.362 1_554 S
H412 C418 0.930 . S
H413 C421 0.930 . S
H414 C422 0.930 . S
H415 C423 0.930 . S
H416 C426 0.930 . S
H417 C427 0.930 . S
C418 H412 0.930 . S
C418 C419 1.355 . S
C418 C420 1.415 . S
C419 C418 1.355 . S
C419 C421 1.419 . S
C420 C418 1.415 . S
C420 C425 1.425 . S
C420 C427 1.409 . S
C421 H413 0.930 . S
C421 C419 1.419 . S
C421 C422 1.362 . S
C422 H414 0.930 . S
C422 C421 1.362 . S
C422 C425 1.409 . S
C423 H415 0.930 . S
C423 C424 1.355 . S
C423 C425 1.415 . S
C424 C423 1.355 . S
C424 C426 1.419 . S
C425 C420 1.425 . S
C425 C422 1.409 . S
C425 C423 1.415 . S
C426 H416 0.930 . S
C426 C424 1.419 . S
C426 C427 1.362 . S
C427 H417 0.930 . S
C427 C420 1.409 . S
C427 C426 1.362 . S
H428 C434 0.930 . S
H429 C437 0.930 . S
H430 C438 0.930 . S
H431 C439 0.930 . S
H432 C442 0.930 . S
H433 C443 0.930 . S
C434 H428 0.930 . S
C434 C435 1.355 . S
C434 C436 1.415 . S
C435 C434 1.355 . S
C435 C437 1.419 . S
C436 C434 1.415 . S
C436 C441 1.425 1_554 S
C436 C443 1.409 1_554 S
C437 H429 0.930 . S
C437 C435 1.419 . S
C437 C438 1.362 . S
C438 H430 0.930 . S
C438 C437 1.362 . S
C438 C441 1.409 1_554 S
C439 H431 0.930 . S
C439 C440 1.355 . S
C439 C441 1.415 . S
C440 C439 1.355 . S
C440 C442 1.419 . S
C441 C436 1.425 1_556 S
C441 C438 1.409 1_556 S
C441 C439 1.415 . S
C442 H432 0.930 . S
C442 C440 1.419 . S
C442 C443 1.362 . S
C443 H433 0.930 . S
C443 C436 1.409 1_556 S
C443 C442 1.362 . S
H444 C450 0.930 . S
H445 C453 0.930 . S
H446 C454 0.930 . S
H447 C455 0.930 . S
H448 C458 0.930 . S
H449 C459 0.930 . S
C450 H444 0.930 . S
C450 C451 1.355 . S
C450 C452 1.415 . S
C451 C450 1.355 . S
C451 C453 1.419 . S
C452 C450 1.415 . S
C452 C457 1.425 . S
C452 C459 1.409 . S
C453 H445 0.930 . S
C453 C451 1.419 . S
C453 C454 1.362 . S
C454 H446 0.930 . S
C454 C453 1.362 . S
C454 C457 1.409 . S
C455 H447 0.930 . S
C455 C456 1.355 . S
C455 C457 1.415 . S
C456 C455 1.355 . S
C456 C458 1.419 . S
C457 C452 1.425 . S
C457 C454 1.409 . S
C457 C455 1.415 . S
C458 H448 0.930 . S
C458 C456 1.419 . S
C458 C459 1.362 . S
C459 H449 0.930 . S
C459 C452 1.409 . S
C459 C458 1.362 . S
H460 C466 0.930 . S
H461 C469 0.930 . S
H462 C470 0.930 . S
H463 C471 0.930 . S
H464 C474 0.930 . S
H465 C475 0.930 . S
C466 H460 0.930 . S
C466 C467 1.355 . S
C466 C468 1.415 1_554 S
C467 C466 1.355 . S
C467 C469 1.419 . S
C468 C466 1.415 1_556 S
C468 C473 1.425 1_556 S
C468 C475 1.409 . S
C469 H461 0.930 . S
C469 C467 1.419 . S
C469 C470 1.362 . S
C470 H462 0.930 . S
C470 C469 1.362 . S
C470 C473 1.409 . S
C471 H463 0.930 . S
C471 C472 1.355 . S
C471 C473 1.415 1_556 S
C472 C471 1.355 . S
C472 C474 1.419 . S
C473 C468 1.425 1_554 S
C473 C470 1.409 . S
C473 C471 1.415 1_554 S
C474 H464 0.930 . S
C474 C472 1.419 . S
C474 C475 1.362 . S
C475 H465 0.930 . S
C475 C468 1.409 . S
C475 C474 1.362 . S
H476 C482 0.930 . S
H477 C485 0.930 . S
H478 C486 0.930 . S
H479 C487 0.930 . S
H480 C490 0.930 . S
H481 C491 0.930 . S
C482 H476 0.930 . S
C482 C483 1.355 . S
C482 C484 1.415 . S
C483 C482 1.355 . S
C483 C485 1.419 . S
C484 C482 1.415 . S
C484 C489 1.425 . S
C484 C491 1.409 . S
C485 H477 0.930 . S
C485 C483 1.419 . S
C485 C486 1.362 . S
C486 H478 0.930 . S
C486 C485 1.362 . S
C486 C489 1.409 . S
C487 H479 0.930 . S
C487 C488 1.355 . S
C487 C489 1.415 . S
C488 C487 1.355 . S
C488 C490 1.419 . S
C489 C484 1.425 . S
C489 C486 1.409 . S
C489 C487 1.415 . S
C490 H480 0.930 . S
C490 C488 1.419 . S
C490 C491 1.362 . S
C491 H481 0.930 . S
C491 C484 1.409 . S
C491 C490 1.362 . S
H492 C498 0.930 . S
H493 C501 0.930 . S
H494 C502 0.930 . S
H495 C503 0.930 . S
H496 C506 0.930 . S
H497 C507 0.930 . S
C498 H492 0.930 . S
C498 C499 1.355 . S
C498 C500 1.415 1_554 S
C499 C498 1.355 . S
C499 C501 1.419 . S
C500 C498 1.415 1_556 S
C500 C505 1.425 1_556 S
C500 C507 1.409 . S
C501 H493 0.930 . S
C501 C499 1.419 . S
C501 C502 1.362 . S
C502 H494 0.930 . S
C502 C501 1.362 . S
C502 C505 1.409 . S
C503 H495 0.930 . S
C503 C504 1.355 . S
C503 C505 1.415 1_556 S
C504 C503 1.355 . S
C504 C506 1.419 . S
C505 C500 1.425 1_554 S
C505 C502 1.409 . S
C505 C503 1.415 1_554 S
C506 H496 0.930 . S
C506 C504 1.419 . S
C506 C507 1.362 . S
C507 H497 0.930 . S
C507 C500 1.409 . S
C507 C506 1.362 . S
H508 C514 0.930 . S
H509 C517 0.930 . S
H510 C518 0.930 . S
H511 C519 0.930 . S
H512 C522 0.930 . S
H513 C523 0.930 . S
C514 H508 0.930 . S
C514 C515 1.355 . S
C514 C516 1.415 . S
C515 C514 1.355 . S
C515 C517 1.419 . S
C516 C514 1.415 . S
C516 C521 1.425 . S
C516 C523 1.409 . S
C517 H509 0.930 . S
C517 C515 1.419 . S
C517 C518 1.362 . S
C518 H510 0.930 . S
C518 C517 1.362 . S
C518 C521 1.409 . S
C519 H511 0.930 . S
C519 C520 1.355 . S
C519 C521 1.415 . S
C520 C519 1.355 . S
C520 C522 1.419 . S
C521 C516 1.425 . S
C521 C518 1.409 . S
C521 C519 1.415 . S
C522 H512 0.930 . S
C522 C520 1.419 . S
C522 C523 1.362 . S
C523 H513 0.930 . S
C523 C516 1.409 . S
C523 C522 1.362 . S
H524 C530 0.930 1_556 S
H525 C533 0.930 . S
H526 C534 0.930 . S
H527 C535 0.930 1_554 S
H528 C538 0.930 . S
H529 C539 0.930 . S
C530 H524 0.930 1_554 S
C530 C531 1.355 . S
C530 C532 1.415 1_554 S
C531 C530 1.355 . S
C531 C533 1.419 . S
C532 C530 1.415 1_556 S
C532 C537 1.425 1_556 S
C532 C539 1.409 . S
C533 H525 0.930 . S
C533 C531 1.419 . S
C533 C534 1.362 . S
C534 H526 0.930 . S
C534 C533 1.362 . S
C534 C537 1.409 . S
C535 H527 0.930 1_556 S
C535 C536 1.355 . S
C535 C537 1.415 1_556 S
C536 C535 1.355 . S
C536 C538 1.419 . S
C537 C532 1.425 1_554 S
C537 C534 1.409 . S
C537 C535 1.415 1_554 S
C538 H528 0.930 . S
C538 C536 1.419 . S
C538 C539 1.362 . S
C539 H529 0.930 . S
C539 C532 1.409 . S
C539 C538 1.362 . S
H540 C546 0.930 . S
H541 C549 0.930 . S
H542 C550 0.930 . S
H543 C551 0.930 . S
H544 C554 0.930 . S
H545 C555 0.930 . S
C546 H540 0.930 . S
C546 C547 1.355 . S
C546 C548 1.415 . S
C547 C546 1.355 . S
C547 C549 1.419 . S
C548 C546 1.415 . S
C548 C553 1.425 . S
C548 C555 1.409 . S
C549 H541 0.930 . S
C549 C547 1.419 . S
C549 C550 1.362 . S
C550 H542 0.930 . S
C550 C549 1.362 . S
C550 C553 1.409 . S
C551 H543 0.930 . S
C551 C552 1.355 . S
C551 C553 1.415 . S
C552 C551 1.355 . S
C552 C554 1.419 . S
C553 C548 1.425 . S
C553 C550 1.409 . S
C553 C551 1.415 . S
C554 H544 0.930 . S
C554 C552 1.419 . S
C554 C555 1.362 . S
C555 H545 0.930 . S
C555 C548 1.409 . S
C555 C554 1.362 . S
H556 C562 0.930 . S
H557 C565 0.930 . S
H558 C566 0.930 . S
H559 C567 0.930 . S
H560 C570 0.930 . S
H561 C571 0.930 . S
C562 H556 0.930 . S
C562 C563 1.355 . S
C562 C564 1.415 . S
C563 C562 1.355 . S
C563 C565 1.419 . S
C564 C562 1.415 . S
C564 C569 1.425 1_554 S
C564 C571 1.409 1_554 S
C565 H557 0.930 . S
C565 C563 1.419 . S
C565 C566 1.362 . S
C566 H558 0.930 . S
C566 C565 1.362 . S
C566 C569 1.409 1_554 S
C567 H559 0.930 . S
C567 C568 1.355 . S
C567 C569 1.415 . S
C568 C567 1.355 . S
C568 C570 1.419 . S
C569 C564 1.425 1_556 S
C569 C566 1.409 1_556 S
C569 C567 1.415 . S
C570 H560 0.930 . S
C570 C568 1.419 . S
C570 C571 1.362 . S
C571 H561 0.930 . S
C571 C564 1.409 1_556 S
C571 C570 1.362 . S
H572 C578 0.930 . S
H573 C581 0.930 . S
H574 C582 0.930 . S
H575 C583 0.930 . S
H576 C586 0.930 . S
H577 C587 0.930 . S
C578 H572 0.930 . S
C578 C579 1.355 . S
C578 C580 1.415 . S
C579 C578 1.355 . S
C579 C581 1.419 . S
C580 C578 1.415 . S
C580 C585 1.425 . S
C580 C587 1.409 . S
C581 H573 0.930 . S
C581 C579 1.419 . S
C581 C582 1.362 . S
C582 H574 0.930 . S
C582 C581 1.362 . S
C582 C585 1.409 . S
C583 H575 0.930 . S
C583 C584 1.355 . S
C583 C585 1.415 . S
C584 C583 1.355 . S
C584 C586 1.419 . S
C585 C580 1.425 . S
C585 C582 1.409 . S
C585 C583 1.415 . S
C586 H576 0.930 . S
C586 C584 1.419 . S
C586 C587 1.362 . S
C587 H577 0.930 . S
C587 C580 1.409 . S
C587 C586 1.362 . S
H588 C594 0.930 . S
H589 C597 0.930 . S
H590 C598 0.930 . S
H591 C599 0.930 . S
H592 C602 0.930 . S
H593 C603 0.930 . S
C594 H588 0.930 . S
C594 C595 1.355 . S
C594 C596 1.415 1_556 S
C595 C594 1.355 . S
C595 C597 1.419 . S
C596 C594 1.415 1_554 S
C596 C601 1.425 1_554 S
C596 C603 1.409 . S
C597 H589 0.930 . S
C597 C595 1.419 . S
C597 C598 1.362 . S
C598 H590 0.930 . S
C598 C597 1.362 . S
C598 C601 1.409 . S
C599 H591 0.930 . S
C599 C600 1.355 . S
C599 C601 1.415 1_554 S
C600 C599 1.355 . S
C600 C602 1.419 . S
C601 C596 1.425 1_556 S
C601 C598 1.409 . S
C601 C599 1.415 1_556 S
C602 H592 0.930 . S
C602 C600 1.419 . S
C602 C603 1.362 . S
C603 H593 0.930 . S
C603 C596 1.409 . S
C603 C602 1.362 . S
H604 C610 0.930 . S
H605 C613 0.930 . S
H606 C614 0.930 . S
H607 C615 0.930 . S
H608 C618 0.930 . S
H609 C619 0.930 . S
C610 H604 0.930 . S
C610 C611 1.355 . S
C610 C612 1.415 . S
C611 C610 1.355 . S
C611 C613 1.419 . S
C612 C610 1.415 . S
C612 C617 1.425 . S
C612 C619 1.409 . S
C613 H605 0.930 . S
C613 C611 1.419 . S
C613 C614 1.362 . S
C614 H606 0.930 . S
C614 C613 1.362 . S
C614 C617 1.409 . S
C615 H607 0.930 . S
C615 C616 1.355 . S
C615 C617 1.415 . S
C616 C615 1.355 . S
C616 C618 1.419 . S
C617 C612 1.425 . S
C617 C614 1.409 . S
C617 C615 1.415 . S
C618 H608 0.930 . S
C618 C616 1.419 . S
C618 C619 1.362 . S
C619 H609 0.930 . S
C619 C612 1.409 . S
C619 C618 1.362 . S
H620 C626 0.930 . S
H621 C629 0.930 . S
H622 C630 0.930 . S
H623 C631 0.930 . S
H624 C634 0.930 . S
H625 C635 0.930 . S
C626 H620 0.930 . S
C626 C627 1.355 . S
C626 C628 1.415 1_554 S
C627 C626 1.355 . S
C627 C629 1.419 . S
C628 C626 1.415 1_556 S
C628 C633 1.425 1_556 S
C628 C635 1.409 . S
C629 H621 0.930 . S
C629 C627 1.419 . S
C629 C630 1.362 . S
C630 H622 0.930 . S
C630 C629 1.362 . S
C630 C633 1.409 . S
C631 H623 0.930 . S
C631 C632 1.355 . S
C631 C633 1.415 1_556 S
C632 C631 1.355 . S
C632 C634 1.419 . S
C633 C628 1.425 1_554 S
C633 C630 1.409 . S
C633 C631 1.415 1_554 S
C634 H624 0.930 . S
C634 C632 1.419 . S
C634 C635 1.362 . S
C635 H625 0.930 . S
C635 C628 1.409 . S
C635 C634 1.362 . S
H636 C642 0.930 . S
H637 C645 0.930 . S
H638 C646 0.930 . S
H639 C647 0.930 . S
H640 C650 0.930 . S
H641 C651 0.930 . S
C642 H636 0.930 . S
C642 C643 1.355 . S
C642 C644 1.415 . S
C643 C642 1.355 . S
C643 C645 1.419 . S
C644 C642 1.415 . S
C644 C649 1.425 . S
C644 C651 1.409 . S
C645 H637 0.930 . S
C645 C643 1.419 . S
C645 C646 1.362 . S
C646 H638 0.930 . S
C646 C645 1.362 . S
C646 C649 1.409 . S
C647 H639 0.930 . S
C647 C648 1.355 . S
C647 C649 1.415 . S
C648 C647 1.355 . S
C648 C650 1.419 . S
C649 C644 1.425 . S
C649 C646 1.409 . S
C649 C647 1.415 . S
C650 H640 0.930 . S
C650 C648 1.419 . S
C650 C651 1.362 . S
C651 H641 0.930 . S
C651 C644 1.409 . S
C651 C650 1.362 . S
H652 C658 0.930 . S
H653 C661 0.930 . S
H654 C662 0.930 . S
H655 C663 0.930 . S
H656 C666 0.930 . S
H657 C667 0.930 . S
C658 H652 0.930 . S
C658 C659 1.355 . S
C658 C660 1.415 . S
C659 C658 1.355 . S
C659 C661 1.419 . S
C660 C658 1.415 . S
C660 C665 1.425 1_554 S
C660 C667 1.409 . S
C661 H653 0.930 . S
C661 C659 1.419 . S
C661 C662 1.362 1_554 S
C662 H654 0.930 . S
C662 C661 1.362 1_556 S
C662 C665 1.409 . S
C663 H655 0.930 . S
C663 C664 1.355 . S
C663 C665 1.415 . S
C664 C663 1.355 . S
C664 C666 1.419 . S
C665 C660 1.425 1_556 S
C665 C662 1.409 . S
C665 C663 1.415 . S
C666 H656 0.930 . S
C666 C664 1.419 . S
C666 C667 1.362 1_556 S
C667 H657 0.930 . S
C667 C660 1.409 . S
C667 C666 1.362 1_554 S
H668 C674 0.930 . S
H669 C677 0.930 . S
H670 C678 0.930 . S
H671 C679 0.930 . S
H672 C682 0.930 . S
H673 C683 0.930 . S
C674 H668 0.930 . S
C674 C675 1.355 . S
C674 C676 1.415 . S
C675 C674 1.355 . S
C675 C677 1.419 . S
C676 C674 1.415 . S
C676 C681 1.425 . S
C676 C683 1.409 . S
C677 H669 0.930 . S
C677 C675 1.419 . S
C677 C678 1.362 . S
C678 H670 0.930 . S
C678 C677 1.362 . S
C678 C681 1.409 . S
C679 H671 0.930 . S
C679 C680 1.355 . S
C679 C681 1.415 . S
C680 C679 1.355 . S
C680 C682 1.419 . S
C681 C676 1.425 . S
C681 C678 1.409 . S
C681 C679 1.415 . S
C682 H672 0.930 . S
C682 C680 1.419 . S
C682 C683 1.362 . S
C683 H673 0.930 . S
C683 C676 1.409 . S
C683 C682 1.362 . S
H684 C690 0.930 . S
H685 C693 0.930 . S
H686 C694 0.930 . S
H687 C695 0.930 . S
H688 C698 0.930 . S
H689 C699 0.930 . S
C690 H684 0.930 . S
C690 C691 1.355 . S
C690 C692 1.415 . S
C691 C690 1.355 . S
C691 C693 1.419 . S
C692 C690 1.415 . S
C692 C697 1.425 1_556 S
C692 C699 1.409 . S
C693 H685 0.930 . S
C693 C691 1.419 . S
C693 C694 1.362 1_556 S
C694 H686 0.930 . S
C694 C693 1.362 1_554 S
C694 C697 1.409 . S
C695 H687 0.930 . S
C695 C696 1.355 . S
C695 C697 1.415 . S
C696 C695 1.355 . S
C696 C698 1.419 . S
C697 C692 1.425 1_554 S
C697 C694 1.409 . S
C697 C695 1.415 . S
C698 H688 0.930 . S
C698 C696 1.419 . S
C698 C699 1.362 1_554 S
C699 H689 0.930 . S
C699 C692 1.409 . S
C699 C698 1.362 1_556 S
H700 C706 0.930 . S
H701 C709 0.930 . S
H702 C710 0.930 . S
H703 C711 0.930 . S
H704 C714 0.930 . S
H705 C715 0.930 . S
C706 H700 0.930 . S
C706 C707 1.355 . S
C706 C708 1.415 . S
C707 C706 1.355 . S
C707 C709 1.419 . S
C708 C706 1.415 . S
C708 C713 1.425 . S
C708 C715 1.409 . S
C709 H701 0.930 . S
C709 C707 1.419 . S
C709 C710 1.362 . S
C710 H702 0.930 . S
C710 C709 1.362 . S
C710 C713 1.409 . S
C711 H703 0.930 . S
C711 C712 1.355 . S
C711 C713 1.415 . S
C712 C711 1.355 . S
C712 C714 1.419 . S
C713 C708 1.425 . S
C713 C710 1.409 . S
C713 C711 1.415 . S
C714 H704 0.930 . S
C714 C712 1.419 . S
C714 C715 1.362 . S
C715 H705 0.930 . S
C715 C708 1.409 . S
C715 C714 1.362 . S
H716 C722 0.930 . S
H717 C725 0.930 . S
H718 C726 0.930 . S
H719 C727 0.930 . S
H720 C730 0.930 . S
H721 C731 0.930 . S
C722 H716 0.930 . S
C722 C723 1.355 . S
C722 C724 1.403 1_554 S
C723 C722 1.355 . S
C723 C725 1.419 . S
C724 C722 1.403 1_556 S
C724 C729 1.425 1_556 S
C724 C731 1.421 . S
C725 H717 0.930 . S
C725 C723 1.419 . S
C725 C726 1.362 . S
C726 H718 0.930 . S
C726 C725 1.362 . S
C726 C729 1.421 . S
C727 H719 0.930 . S
C727 C728 1.355 . S
C727 C729 1.403 1_556 S
C728 C727 1.355 . S
C728 C730 1.419 . S
C729 C724 1.425 1_554 S
C729 C726 1.421 . S
C729 C727 1.403 1_554 S
C730 H720 0.930 . S
C730 C728 1.419 . S
C730 C731 1.362 . S
C731 H721 0.930 . S
C731 C724 1.421 . S
C731 C730 1.362 . S
H732 C738 0.930 . S
H733 C741 0.930 . S
H734 C742 0.930 . S
H735 C743 0.930 . S
H736 C746 0.930 . S
H737 C747 0.930 . S
C738 H732 0.930 . S
C738 C739 1.355 . S
C738 C740 1.415 . S
C739 C738 1.355 . S
C739 C741 1.419 . S
C740 C738 1.415 . S
C740 C745 1.425 . S
C740 C747 1.409 . S
C741 H733 0.930 . S
C741 C739 1.419 . S
C741 C742 1.362 . S
C742 H734 0.930 . S
C742 C741 1.362 . S
C742 C745 1.409 . S
C743 H735 0.930 . S
C743 C744 1.355 . S
C743 C745 1.415 . S
C744 C743 1.355 . S
C744 C746 1.419 . S
C745 C740 1.425 . S
C745 C742 1.409 . S
C745 C743 1.415 . S
C746 H736 0.930 . S
C746 C744 1.419 . S
C746 C747 1.362 . S
C747 H737 0.930 . S
C747 C740 1.409 . S
C747 C746 1.362 . S
H748 C754 0.930 . S
H749 C757 0.930 . S
H750 C758 0.930 . S
H751 C759 0.930 . S
H752 C762 0.930 . S
H753 C763 0.930 . S
C754 H748 0.930 . S
C754 C755 1.355 . S
C754 C756 1.415 . S
C755 C754 1.355 . S
C755 C757 1.419 . S
C756 C754 1.415 . S
C756 C761 1.425 1_554 S
C756 C763 1.409 1_554 S
C757 H749 0.930 . S
C757 C755 1.419 . S
C757 C758 1.362 . S
C758 H750 0.930 . S
C758 C757 1.362 . S
C758 C761 1.409 1_554 S
C759 H751 0.930 . S
C759 C760 1.355 . S
C759 C761 1.415 . S
C760 C759 1.355 . S
C760 C762 1.419 . S
C761 C756 1.425 1_556 S
C761 C758 1.409 1_556 S
C761 C759 1.415 . S
C762 H752 0.930 . S
C762 C760 1.419 . S
C762 C763 1.362 . S
C763 H753 0.930 . S
C763 C756 1.409 1_556 S
C763 C762 1.362 . S
H764 C770 0.930 . S
H765 C773 0.930 . S
H766 C774 0.930 . S
H767 C775 0.930 . S
H768 C778 0.930 . S
H769 C779 0.930 . S
C770 H764 0.930 . S
C770 C771 1.355 . S
C770 C772 1.415 . S
C771 C770 1.355 . S
C771 C773 1.419 . S
C772 C770 1.415 . S
C772 C777 1.425 . S
C772 C779 1.409 . S
C773 H765 0.930 . S
C773 C771 1.419 . S
C773 C774 1.362 . S
C774 H766 0.930 . S
C774 C773 1.362 . S
C774 C777 1.409 . S
C775 H767 0.930 . S
C775 C776 1.355 . S
C775 C777 1.415 . S
C776 C775 1.355 . S
C776 C778 1.419 . S
C777 C772 1.425 . S
C777 C774 1.409 . S
C777 C775 1.415 . S
C778 H768 0.930 . S
C778 C776 1.419 . S
C778 C779 1.362 . S
C779 H769 0.930 . S
C779 C772 1.409 . S
C779 C778 1.362 . S
H780 C786 0.930 . S
H781 C789 0.930 . S
H782 C790 0.930 . S
H783 C791 0.930 . S
H784 C794 0.930 . S
H785 C795 0.930 . S
C786 H780 0.930 . S
C786 C787 1.355 . S
C786 C788 1.415 . S
C787 C786 1.355 . S
C787 C789 1.419 . S
C788 C786 1.415 . S
C788 C793 1.425 . S
C788 C795 1.409 . S
C789 H781 0.930 . S
C789 C787 1.419 . S
C789 C790 1.362 . S
C790 H782 0.930 . S
C790 C789 1.362 . S
C790 C793 1.409 . S
C791 H783 0.930 . S
C791 C792 1.355 . S
C791 C793 1.415 . S
C792 C791 1.355 . S
C792 C794 1.419 . S
C793 C788 1.425 . S
C793 C790 1.409 . S
C793 C791 1.415 . S
C794 H784 0.930 . S
C794 C792 1.419 . S
C794 C795 1.362 . S
C795 H785 0.930 . S
C795 C788 1.409 . S
C795 C794 1.362 . S
H796 C802 0.930 . S
H797 C805 0.930 . S
H798 C806 0.930 . S
H799 C807 0.930 . S
H800 C810 0.930 . S
H801 C811 0.930 . S
C802 H796 0.930 . S
C802 C803 1.355 . S
C802 C804 1.415 . S
C803 C802 1.355 . S
C803 C805 1.419 . S
C804 C802 1.415 . S
C804 C809 1.425 1_455 S
C804 C811 1.409 1_455 S
C805 H797 0.930 . S
C805 C803 1.419 . S
C805 C806 1.362 . S
C806 H798 0.930 . S
C806 C805 1.362 . S
C806 C809 1.409 1_455 S
C807 H799 0.930 . S
C807 C808 1.355 . S
C807 C809 1.415 . S
C808 C807 1.355 . S
C808 C810 1.419 . S
C809 C804 1.425 1_655 S
C809 C806 1.409 1_655 S
C809 C807 1.415 . S
C810 H800 0.930 . S
C810 C808 1.419 . S
C810 C811 1.362 . S
C811 H801 0.930 . S
C811 C804 1.409 1_655 S
C811 C810 1.362 . S
H812 C818 0.930 . S
H813 C821 0.930 . S
H814 C822 0.930 . S
H815 C823 0.930 . S
H816 C826 0.930 . S
H817 C827 0.930 . S
C818 H812 0.930 . S
C818 C819 1.355 . S
C818 C820 1.415 . S
C819 C818 1.355 . S
C819 C821 1.419 . S
C820 C818 1.415 . S
C820 C825 1.425 1_545 S
C820 C827 1.409 1_545 S
C821 H813 0.930 . S
C821 C819 1.419 . S
C821 C822 1.362 . S
C822 H814 0.930 . S
C822 C821 1.362 . S
C822 C825 1.409 1_545 S
C823 H815 0.930 . S
C823 C824 1.355 . S
C823 C825 1.415 . S
C824 C823 1.355 . S
C824 C826 1.419 . S
C825 C820 1.425 1_565 S
C825 C822 1.409 1_565 S
C825 C823 1.415 . S
C826 H816 0.930 . S
C826 C824 1.419 . S
C826 C827 1.362 . S
C827 H817 0.930 . S
C827 C820 1.409 1_565 S
C827 C826 1.362 . S
H828 C834 0.930 . S
H829 C837 0.930 . S
H830 C838 0.930 . S
H831 C839 0.930 . S
H832 C842 0.930 . S
H833 C843 0.930 . S
C834 H828 0.930 . S
C834 C835 1.355 . S
C834 C836 1.415 . S
C835 C834 1.355 . S
C835 C837 1.419 . S
C836 C834 1.415 . S
C836 C841 1.425 . S
C836 C843 1.409 . S
C837 H829 0.930 . S
C837 C835 1.419 . S
C837 C838 1.362 . S
C838 H830 0.930 . S
C838 C837 1.362 . S
C838 C841 1.409 . S
C839 H831 0.930 . S
C839 C840 1.355 . S
C839 C841 1.415 . S
C840 C839 1.355 . S
C840 C842 1.419 . S
C841 C836 1.425 . S
C841 C838 1.409 . S
C841 C839 1.415 . S
C842 H832 0.930 . S
C842 C840 1.419 . S
C842 C843 1.362 . S
C843 H833 0.930 . S
C843 C836 1.409 . S
C843 C842 1.362 . S
H844 C850 0.930 . S
H845 C853 0.930 . S
H846 C854 0.930 . S
H847 C855 0.930 . S
H848 C858 0.930 . S
H849 C859 0.930 . S
C850 H844 0.930 . S
C850 C851 1.355 . S
C850 C852 1.415 . S
C851 C850 1.355 . S
C851 C853 1.419 . S
C852 C850 1.415 . S
C852 C857 1.425 1_455 S
C852 C859 1.409 1_455 S
C853 H845 0.930 . S
C853 C851 1.419 . S
C853 C854 1.362 . S
C854 H846 0.930 . S
C854 C853 1.362 . S
C854 C857 1.409 1_455 S
C855 H847 0.930 . S
C855 C856 1.355 . S
C855 C857 1.415 . S
C856 C855 1.355 . S
C856 C858 1.419 . S
C857 C852 1.425 1_655 S
C857 C854 1.409 1_655 S
C857 C855 1.415 . S
C858 H848 0.930 . S
C858 C856 1.419 . S
C858 C859 1.362 . S
C859 H849 0.930 . S
C859 C852 1.409 1_655 S
C859 C858 1.362 . S
H860 C866 0.930 . S
H861 C869 0.930 . S
H862 C870 0.930 . S
H863 C871 0.930 . S
H864 C874 0.930 . S
H865 C875 0.930 . S
C866 H860 0.930 . S
C866 C867 1.355 . S
C866 C868 1.415 . S
C867 C866 1.355 . S
C867 C869 1.419 . S
C868 C866 1.415 . S
C868 C873 1.425 1_565 S
C868 C875 1.409 1_565 S
C869 H861 0.930 . S
C869 C867 1.419 . S
C869 C870 1.362 . S
C870 H862 0.930 . S
C870 C869 1.362 . S
C870 C873 1.409 1_565 S
C871 H863 0.930 . S
C871 C872 1.355 . S
C871 C873 1.415 . S
C872 C871 1.355 . S
C872 C874 1.419 . S
C873 C868 1.425 1_545 S
C873 C870 1.409 1_545 S
C873 C871 1.415 . S
C874 H864 0.930 . S
C874 C872 1.419 . S
C874 C875 1.362 . S
C875 H865 0.930 . S
C875 C868 1.409 1_545 S
C875 C874 1.362 . S
C403 C8 2.326 . S
C408 C206 2.324 . S
C419 C41 2.331 . S
C424 C239 2.320 . S
C435 C74 2.344 . S
C440 C272 2.316 . S
C451 C305 2.315 . S
C456 C107 2.344 . S
C467 C140 2.340 . S
C472 C338 2.325 . S
C483 C371 2.339 . S
C488 C173 2.326 . S
C499 N302 0.815 . S
C504 N104 0.799 . S
C515 N137 0.825 . S
C520 N335 0.885 . S
C531 N368 0.801 . S
C536 N170 0.810 . S
C547 N203 0.924 . S
C552 N5 0.870 . S
C563 N236 0.882 . S
C568 N38 0.823 . S
C579 N71 0.931 . S
C584 N269 0.937 . S
C595 N344 0.828 . S
C600 N14 0.827 . S
C611 N47 0.860 . S
C616 N377 0.855 . S
C627 N80 0.842 . S
C632 N212 0.838 . S
C643 N113 0.834 . S
C648 N245 0.838 . S
C659 N146 0.923 . S
C664 N278 0.920 . S
C675 N179 0.872 . S
C680 N311 0.866 . S
C691 C127 1.879 . S
C696 C259 1.881 . S
C707 C160 1.881 . S
C712 C292 1.883 . S
C723 C325 1.895 . S
C728 C193 1.893 . S
C739 C28 1.876 . S
C744 C358 1.877 . S
C755 C391 1.894 . S
C760 C61 1.896 . S
C771 C94 1.887 . S
C776 C226 1.889 . S
C787 C17 1.364 . S
C792 C314 1.316 . S
C803 C347 1.351 . S
C808 C50 1.316 . S
C819 C380 1.365 . S
C824 C83 1.311 . S
C835 C215 1.349 . S
C840 C116 1.336 . S
C851 C149 1.312 . S
C856 C248 1.365 . S
C867 C281 1.353 . S
C872 C182 1.333 . S
