# Generated by pormake.
# Topology wgu, (5)-cn, num edge types: 1
# Building blocks:
#     Node 0, Type 0, BuildingBlock: BEQFEK_clean_sbu_0, # of connection points: 5
#     Node 1, Type 0, BuildingBlock: BEQFEK_clean_sbu_0, # of connection points: 5
#     Node 2, Type 0, BuildingBlock: BEQFEK_clean_sbu_0, # of connection points: 5
#     Node 3, Type 0, BuildingBlock: BEQFEK_clean_sbu_0, # of connection points: 5
#     Node 4, Type 0, BuildingBlock: BEQFEK_clean_sbu_0, # of connection points: 5
#     Node 5, Type 0, BuildingBlock: BEQFEK_clean_sbu_0, # of connection points: 5
#     Node 6, Type 0, BuildingBlock: BEQFEK_clean_sbu_0, # of connection points: 5
#     Node 7, Type 0, BuildingBlock: BEQFEK_clean_sbu_0, # of connection points: 5
#     Edge 8, Type (0, 0), BuildingBlock: XUDNAN_clean_linker_2, # of connection points: 2
#     Edge 9, Type (0, 0), BuildingBlock: XUDNAN_clean_linker_2, # of connection points: 2
#     Edge 10, Type (0, 0), BuildingBlock: XUDNAN_clean_linker_2, # of connection points: 2
#     Edge 11, Type (0, 0), BuildingBlock: XUDNAN_clean_linker_2, # of connection points: 2
#     Edge 12, Type (0, 0), BuildingBlock: XUDNAN_clean_linker_2, # of connection points: 2
#     Edge 13, Type (0, 0), BuildingBlock: XUDNAN_clean_linker_2, # of connection points: 2
#     Edge 14, Type (0, 0), BuildingBlock: XUDNAN_clean_linker_2, # of connection points: 2
#     Edge 15, Type (0, 0), BuildingBlock: XUDNAN_clean_linker_2, # of connection points: 2
#     Edge 16, Type (0, 0), BuildingBlock: XUDNAN_clean_linker_2, # of connection points: 2
#     Edge 17, Type (0, 0), BuildingBlock: XUDNAN_clean_linker_2, # of connection points: 2
#     Edge 18, Type (0, 0), BuildingBlock: XUDNAN_clean_linker_2, # of connection points: 2
#     Edge 19, Type (0, 0), BuildingBlock: XUDNAN_clean_linker_2, # of connection points: 2
#     Edge 20, Type (0, 0), BuildingBlock: XUDNAN_clean_linker_2, # of connection points: 2
#     Edge 21, Type (0, 0), BuildingBlock: XUDNAN_clean_linker_2, # of connection points: 2
#     Edge 22, Type (0, 0), BuildingBlock: XUDNAN_clean_linker_2, # of connection points: 2
#     Edge 23, Type (0, 0), BuildingBlock: XUDNAN_clean_linker_2, # of connection points: 2
#     Edge 24, Type (0, 0), BuildingBlock: XUDNAN_clean_linker_2, # of connection points: 2
#     Edge 25, Type (0, 0), BuildingBlock: XUDNAN_clean_linker_2, # of connection points: 2
#     Edge 26, Type (0, 0), BuildingBlock: XUDNAN_clean_linker_2, # of connection points: 2
#     Edge 27, Type (0, 0), BuildingBlock: XUDNAN_clean_linker_2, # of connection points: 2
# Relax obj value: 0.463
# Max RMSD: 0.226
# Mean RMSD: 0.226
data_MOF--net-wgu--node1-BEQFEK_clean_sbu_0--edge1-XUDNAN_clean_linker_2
_symmetry_space_group_name_H-M    P1
_symmetry_Int_Tables_number       1
_symmetry_cell_setting            triclinic
loop_
_symmetry_equiv_pos_as_xyz
'x, y, z'
_cell_length_a     32.764669
_cell_length_b     32.822375
_cell_length_c     27.822883
_cell_angle_alpha  89.772272
_cell_angle_beta   90.170677
_cell_angle_gamma 89.944159
loop_
_atom_site_label
_atom_site_type_symbol
_atom_site_fract_x
_atom_site_fract_y
_atom_site_fract_z
_atom_type_partial_charge
Co0 Co 0.28916 0.39914 1.03343 0.0
Co1 Co 0.35833 0.33466 0.04529 0.0
C2 C 0.30194 0.33859 0.95736 0.0
O3 O 0.27973 0.36718 0.97363 0.0
O4 O 0.33267 0.3257 0.98112 0.0
C5 C 0.20965 0.44033 1.02721 0.0
O6 O 0.19309 0.40502 1.01675 0.0
C7 C 0.37961 0.24936 0.04938 0.0
C8 C 0.43957 0.24805 0.08591 0.0
C9 C 0.40897 0.22318 0.06799 0.0
N10 N 0.39167 0.28784 0.05706 0.0
N11 N 0.42788 0.28699 0.07818 0.0
C12 C 0.34081 0.23858 1.02365 0.0
H13 H 0.34298 0.24924 0.98596 0.0
H14 H 0.3147 0.25459 1.0405 0.0
H15 H 0.33501 0.2054 1.02253 0.0
C16 C 0.26123 0.36068 0.12608 0.0
N17 N 0.28771 0.36494 0.08919 0.0
N18 N 0.31734 0.33807 0.09431 0.0
C19 C 0.31042 0.31596 0.13452 0.0
C20 C 0.27463 0.32927 0.15576 0.0
C21 C 0.2226 0.38447 0.13139 0.0
H22 H 0.22863 0.41724 0.12474 0.0
H23 H 0.20011 0.37371 0.10445 0.0
H24 H 0.20934 0.38054 0.16776 0.0
O25 O 0.34243 0.42901 1.03063 0.0
O26 O 0.39254 0.38481 0.04354 0.0
H27 H 0.33123 0.27594 0.19137 0.0
H28 H 0.33119 0.25433 0.13215 0.0
C29 C 0.33731 0.28243 0.15286 0.0
H30 H 0.36979 0.29097 0.14865 0.0
H31 H 0.44389 0.3129 0.08889 0.0
O32 O 0.24764 0.44271 1.03603 0.0
C33 C 0.38034 0.42115 1.0359 0.0
Co34 Co 0.6228 0.28714 0.53856 0.0
Co35 Co 0.69084 0.35345 0.52726 0.0
C36 C 0.67819 0.28598 0.45421 0.0
O37 O 0.64938 0.27041 0.47857 0.0
O38 O 0.69594 0.31837 0.46823 0.0
C39 C 0.58304 0.20925 0.53873 0.0
O40 O 0.61479 0.19797 0.51332 0.0
C41 C 0.77706 0.37133 0.52287 0.0
C42 C 0.78198 0.43388 0.55115 0.0
C43 C 0.80508 0.40048 0.53745 0.0
N44 N 0.73925 0.38613 0.52929 0.0
N45 N 0.74231 0.42396 0.54506 0.0
C46 C 0.78561 0.32945 0.50405 0.0
H47 H 0.77136 0.30637 0.52793 0.0
H48 H 0.81867 0.32325 0.50019 0.0
H49 H 0.7717 0.32646 0.46796 0.0
C50 C 0.66508 0.27302 0.63136 0.0
N51 N 0.6615 0.29196 0.58846 0.0
N52 N 0.68931 0.32073 0.58502 0.0
C53 C 0.71097 0.32146 0.62646 0.0
C54 C 0.69658 0.29106 0.65692 0.0
C55 C 0.63668 0.24051 0.64873 0.0
H56 H 0.60485 0.25202 0.64723 0.0
H57 H 0.63873 0.21386 0.62445 0.0
H58 H 0.64395 0.23079 0.68602 0.0
O59 O 0.59378 0.33975 0.52934 0.0
O60 O 0.64047 0.38858 0.52327 0.0
H61 H 0.73408 0.38242 0.62856 0.0
H62 H 0.75406 0.34977 0.6755 0.0
C63 C 0.74438 0.3511 0.63733 0.0
H64 H 0.77123 0.3437 0.61501 0.0
H65 H 0.71741 0.44211 0.55438 0.0
O66 O 0.58106 0.24556 0.55434 0.0
C67 C 0.60318 0.37724 0.52433 0.0
Co68 Co 0.70221 0.61854 0.05257 0.0
Co69 Co 0.6506 0.69806 0.0474 0.0
C70 C 0.71131 0.67841 0.97075 0.0
O71 O 0.71969 0.64487 0.99157 0.0
O72 O 0.6851 0.70256 0.98851 0.0
C73 C 0.77718 0.5757 0.04773 0.0
O74 O 0.78842 0.60933 1.02577 0.0
C75 C 0.64302 0.785 0.04723 0.0
C76 C 0.57723 0.79633 0.05818 0.0
C77 C 0.61428 0.81593 0.05108 0.0
N78 N 0.62384 0.74913 0.05134 0.0
N79 N 0.58446 0.75589 0.05757 0.0
C80 C 0.6885 0.78868 0.04345 0.0
H81 H 0.70361 0.76032 0.05606 0.0
H82 H 0.69981 0.81477 0.06494 0.0
H83 H 0.69699 0.79348 1.00527 0.0
C84 C 0.72583 0.65396 0.14723 0.0
N85 N 0.7056 0.6557 0.10497 0.0
N86 N 0.68269 0.68863 0.10401 0.0
C87 C 0.68684 0.70839 0.14631 0.0
C88 C 0.71455 0.68724 0.17514 0.0
C89 C 0.75653 0.6217 0.1595 0.0
H90 H 0.77977 0.62039 0.13073 0.0
H91 H 0.77248 0.62782 0.19388 0.0
H92 H 0.74114 0.59163 0.16131 0.0
O93 O 0.64505 0.59675 0.04631 0.0
O94 O 0.60926 0.65414 1.04041 0.0
H95 H 0.65952 0.74673 0.20046 0.0
H96 H 0.67657 0.77267 0.1471 0.0
C97 C 0.66188 0.74452 0.16078 0.0
H98 H 0.63077 0.74237 0.14531 0.0
H99 H 0.56267 0.73299 0.0618 0.0
O100 O 0.74085 0.57262 0.06344 0.0
C101 C 0.61098 0.61529 1.04128 0.0
Co102 Co 0.40527 0.69799 0.54042 0.0
Co103 Co 0.32503 0.64722 0.5341 0.0
C104 C 0.34595 0.70759 0.45757 0.0
O105 O 0.37895 0.71594 0.47963 0.0
O106 O 0.32141 0.68105 0.4742 0.0
C107 C 0.44633 0.7742 0.5427 0.0
O108 O 0.41017 0.78804 0.53018 0.0
C109 C 0.23775 0.63145 0.52885 0.0
C110 C 0.23096 0.57523 0.57197 0.0
C111 C 0.20891 0.60541 0.54855 0.0
N112 N 0.27502 0.61808 0.54132 0.0
N113 N 0.27087 0.58386 0.56606 0.0
C114 C 0.23038 0.66857 0.49848 0.0
H115 H 0.24389 0.69567 0.51612 0.0
H116 H 0.19752 0.67376 0.49113 0.0
H117 H 0.24584 0.66447 0.4635 0.0
C118 C 0.36714 0.72463 0.63252 0.0
N119 N 0.3676 0.7018 0.59229 0.0
N120 N 0.33328 0.68108 0.58951 0.0
C121 C 0.3099 0.69036 0.62801 0.0
C122 C 0.33056 0.71835 0.65641 0.0
C123 C 0.40094 0.75225 0.64809 0.0
H124 H 0.43091 0.73849 0.63938 0.0
H125 H 0.39805 0.78178 0.62888 0.0
H126 H 0.39939 0.75817 0.6873 0.0
O127 O 0.42746 0.6415 0.53451 0.0
O128 O 0.36988 0.60627 0.5287 0.0
H129 H 0.26721 0.64171 0.6368 0.0
H130 H 0.25389 0.68724 0.66932 0.0
C131 C 0.26726 0.67544 0.63555 0.0
H132 H 0.24789 0.68552 0.60508 0.0
H133 H 0.29517 0.56763 0.58116 0.0
O134 O 0.45117 0.73619 0.54992 0.0
C135 C 0.4088 0.60768 0.5297 0.0
Co136 Co 0.82216 0.11848 0.08089 0.0
Co137 Co 0.87487 0.19664 0.09322 0.0
C138 C 0.81196 0.17406 0.16603 0.0
O139 O 0.80343 0.1419 0.14282 0.0
O140 O 0.83922 0.19839 0.15094 0.0
C141 C 0.74582 0.07917 0.07941 0.0
O142 O 0.73482 0.1136 0.09949 0.0
C143 C 0.88322 0.2836 0.09902 0.0
C144 C 0.94855 0.29479 0.08487 0.0
C145 C 0.91184 0.31451 0.09385 0.0
N146 N 0.90212 0.24768 0.09334 0.0
N147 N 0.94129 0.25437 0.08559 0.0
C148 C 0.83782 0.28749 0.10416 0.0
H149 H 0.82233 0.25918 0.09248 0.0
H150 H 0.826 0.31344 0.08255 0.0
H151 H 0.83025 0.2927 0.1425 0.0
C152 C 0.7983 0.1616 0.98998 0.0
N153 N 0.82022 0.15854 1.03107 0.0
N154 N 0.84358 0.19094 1.03539 0.0
C155 C 0.83792 0.21511 0.99654 0.0
C156 C 0.80857 0.1978 0.96691 0.0
C157 C 0.76586 0.132 0.97541 0.0
H158 H 0.77815 0.10054 0.97718 0.0
H159 H 0.74004 0.13422 1.00091 0.0
H160 H 0.7541 0.13815 0.93873 0.0
O161 O 0.87878 0.09526 0.0879 0.0
O162 O 0.91521 0.15161 0.09875 0.0
H163 H 0.8625 0.25924 0.94684 0.0
H164 H 0.84646 0.27944 1.0035 0.0
C165 C 0.86153 0.25315 0.9861 0.0
H166 H 0.89316 0.25033 0.99984 0.0
H167 H 0.96275 0.23149 0.07935 0.0
O168 O 0.78281 0.07425 0.06677 0.0
C169 C 0.91293 0.11289 0.09549 0.0
Co170 Co 0.8971 0.8009 0.5989 0.0
Co171 Co 0.82548 0.86335 0.60548 0.0
C172 C 0.83884 0.79688 0.68049 0.0
O173 O 0.86897 0.78274 0.65726 0.0
O174 O 0.82007 0.82863 0.6657 0.0
C175 C 0.9377 0.72318 0.594 0.0
O176 O 0.90228 0.70785 0.60664 0.0
C177 C 0.73947 0.88368 0.61439 0.0
C178 C 0.7322 0.93559 0.56455 0.0
C179 C 0.71032 0.90765 0.59162 0.0
N180 N 0.77667 0.89548 0.59978 0.0
N181 N 0.77223 0.92756 0.57132 0.0
C182 C 0.73212 0.849 0.64841 0.0
H183 H 0.74318 0.82019 0.63224 0.0
H184 H 0.69948 0.84608 0.65823 0.0
H185 H 0.74951 0.85459 0.68189 0.0
C186 C 0.85673 0.78046 0.50657 0.0
N187 N 0.86021 0.80318 0.54664 0.0
N188 N 0.82928 0.82876 0.54902 0.0
C189 C 0.80497 0.82257 0.51018 0.0
C190 C 0.82156 0.79174 0.48218 0.0
C191 C 0.88618 0.74794 0.49201 0.0
H192 H 0.91789 0.758 0.49921 0.0
H193 H 0.88005 0.71994 0.51318 0.0
H194 H 0.88295 0.74063 0.45326 0.0
O195 O 0.92338 0.8542 0.60923 0.0
O196 O 0.87444 0.90093 0.6106 0.0
H197 H 0.76925 0.87602 0.49786 0.0
H198 H 0.74899 0.83108 0.46952 0.0
C199 C 0.76463 0.84279 0.50205 0.0
H200 H 0.74484 0.83718 0.53351 0.0
H201 H 0.79625 0.94183 0.55339 0.0
O202 O 0.9413 0.76139 0.58771 0.0
C203 C 0.91218 0.89124 0.61261 0.0
Co204 Co 0.23354 0.90061 0.08589 0.0
Co205 Co 0.16857 0.83131 0.08973 0.0
C206 C 0.23509 0.84051 0.16561 0.0
O207 O 0.25029 0.87082 0.14355 0.0
O208 O 0.20303 0.823 0.14978 0.0
C209 C 0.31127 0.94323 0.08562 0.0
O210 O 0.32775 0.90846 0.09895 0.0
C211 C 0.14915 0.74514 0.0845 0.0
C212 C 0.08429 0.74458 0.06251 0.0
C213 C 0.11762 0.71944 0.07076 0.0
N214 N 0.13551 0.78371 0.08298 0.0
N215 N 0.09651 0.7832 0.0706 0.0
C216 C 0.19163 0.7336 0.09957 0.0
H217 H 0.19978 0.74954 0.13318 0.0
H218 H 0.21356 0.74329 0.07146 0.0
H219 H 0.19471 0.70044 0.10631 0.0
C220 C 0.25058 0.86422 0.99061 0.0
N221 N 0.23031 0.8652 1.03263 0.0
N222 N 0.20218 0.83658 1.03296 0.0
C223 C 0.20327 0.81694 0.99026 0.0
C224 C 0.23413 0.83363 0.96208 0.0
C225 C 0.28602 0.89128 0.97917 0.0
H226 H 0.30884 0.88895 1.00847 0.0
H227 H 0.30112 0.88281 0.94505 0.0
H228 H 0.27547 0.92338 0.97719 0.0
O229 O 0.18041 0.92792 0.0961 0.0
O230 O 0.13221 0.88054 0.09644 0.0
H231 H 0.17152 0.78322 0.93495 0.0
H232 H 0.18221 0.75535 0.98933 0.0
C233 C 0.17301 0.78546 0.9747 0.0
H234 H 0.14229 0.79318 0.98843 0.0
H235 H 0.07867 0.80928 0.06591 0.0
O236 O 0.27326 0.94517 0.07653 0.0
C237 C 0.14297 0.91784 0.099 0.0
Co238 Co 0.11876 0.21039 0.59422 0.0
Co239 Co 0.19227 0.15101 0.58326 0.0
C240 C 0.18803 0.21226 0.66413 0.0
O241 O 0.15382 0.22708 0.65084 0.0
O242 O 0.20437 0.18339 0.64079 0.0
C243 C 0.07731 0.2881 0.59271 0.0
O244 O 0.11411 0.30362 0.59663 0.0
C245 C 0.27871 0.13686 0.57369 0.0
C246 C 0.28357 0.071 0.55871 0.0
C247 C 0.30676 0.10584 0.56584 0.0
N248 N 0.241 0.12103 0.57179 0.0
N249 N 0.24397 0.08161 0.56304 0.0
C250 C 0.28679 0.18155 0.57908 0.0
H251 H 0.25917 0.19954 0.5698 0.0
H252 H 0.31248 0.19117 0.55574 0.0
H253 H 0.29492 0.18818 0.61693 0.0
C254 C 0.14486 0.23207 0.49279 0.0
N255 N 0.149 0.21135 0.53472 0.0
N256 N 0.17922 0.18515 0.53022 0.0
C257 C 0.19477 0.18793 0.4855 0.0
C258 C 0.17387 0.21806 0.46041 0.0
C259 C 0.11197 0.26252 0.48243 0.0
H260 H 0.08251 0.25155 0.49705 0.0
H261 H 0.11979 0.29172 0.50009 0.0
H262 H 0.10872 0.26811 0.44324 0.0
O263 O 0.09364 0.15445 0.60444 0.0
O264 O 0.14701 0.1132 0.59668 0.0
H265 H 0.22398 0.12979 0.47798 0.0
H266 H 0.23178 0.16369 0.4275 0.0
C267 C 0.22889 0.16193 0.4671 0.0
H268 H 0.25806 0.17247 0.48292 0.0
H269 H 0.21905 0.06199 0.56005 0.0
O270 O 0.07292 0.24964 0.59083 0.0
C271 C 0.10907 0.11867 0.60431 0.0
H272 H 0.28479 0.01961 0.10465 0.0
H273 H 0.39274 0.9514 0.06457 0.0
H274 H 0.4323 0.01586 0.0606 0.0
H275 H 0.29995 0.10496 1.03093 0.0
H276 H 0.2817 0.14118 0.07439 0.0
H277 H 0.26308 0.08964 0.07545 0.0
H278 H 0.28572 0.08236 0.1645 0.0
H279 H 0.30441 0.13396 0.16367 0.0
H280 H 0.33795 0.09281 0.18083 0.0
H281 H 0.45783 0.08971 0.05467 0.0
H282 H 0.46697 0.16484 0.05013 0.0
H283 H 0.34363 0.18156 0.10219 0.0
C284 C 0.3168 0.01821 0.09511 0.0
C285 C 0.33576 0.98081 0.08437 0.0
C286 C 0.37778 0.97997 0.07282 0.0
C287 C 0.4004 0.01633 0.07053 0.0
C288 C 0.3806 0.05289 0.08108 0.0
C289 C 0.33984 0.05385 0.09382 0.0
C290 C 0.32534 0.09669 0.10344 0.0
C291 C 0.29047 0.10881 0.06899 0.0
C292 C 0.31262 0.10174 0.15625 0.0
C293 C 0.36389 0.12002 0.09262 0.0
C294 C 0.39557 0.09449 0.07974 0.0
C295 C 0.43332 0.10989 0.06518 0.0
C296 C 0.43829 0.15244 0.06274 0.0
C297 C 0.4056 0.17869 0.07455 0.0
C298 C 0.36871 0.16212 0.09151 0.0
H299 H 0.998 0.26814 0.60939 0.0
H300 H 0.07527 0.36801 0.56316 0.0
H301 H 0.01385 0.41043 0.54832 0.0
H302 H 0.92039 0.28146 0.52461 0.0
H303 H 0.87935 0.26893 0.56502 0.0
H304 H 0.92938 0.24786 0.57497 0.0
H305 H 0.93029 0.27749 0.66125 0.0
H306 H 0.88007 0.29844 0.65166 0.0
H307 H 0.9214 0.33118 0.66989 0.0
H308 H 0.94246 0.43953 0.53194 0.0
H309 H 0.86852 0.45265 0.51847 0.0
H310 H 0.84039 0.3349 0.58105 0.0
C311 C 1.00207 0.29908 0.59661 0.0
C312 C 0.04129 0.31481 0.58728 0.0
C313 C 0.0454 0.35548 0.57076 0.0
C314 C 0.01072 0.37974 0.56218 0.0
C315 C 0.97235 0.36302 0.57112 0.0
C316 C 0.968 0.32375 0.58861 0.0
C317 C 0.92364 0.31234 0.59436 0.0
C318 C 0.91257 0.27548 0.56286 0.0
C319 C 0.91325 0.30441 0.64745 0.0
C320 C 0.90358 0.35084 0.5761 0.0
C321 C 0.93193 0.37988 0.56285 0.0
C322 C 0.92004 0.41707 0.54257 0.0
C323 C 0.87813 0.42429 0.53502 0.0
C324 C 0.84899 0.39429 0.54739 0.0
C325 C 0.86202 0.35786 0.56966 0.0
H326 H 0.75208 0.01168 1.02238 0.0
H327 H 0.67214 0.07182 0.12406 0.0
H328 H 0.62452 0.01372 0.12011 0.0
H329 H 0.66902 0.96397 0.94986 0.0
H330 H 0.69861 0.91842 0.9402 0.0
H331 H 0.7239 0.96682 0.94685 0.0
H332 H 0.7675 0.93694 1.01653 0.0
H333 H 0.74219 0.88867 1.01025 0.0
H334 H 0.74229 0.91416 0.0675 0.0
H335 H 0.59079 0.94533 0.11373 0.0
H336 H 0.57303 0.87267 0.10349 0.0
H337 H 0.67118 0.86003 1.00028 0.0
C338 C 0.72421 0.0129 0.04317 0.0
C339 C 0.71581 0.04611 0.0736 0.0
C340 C 0.67908 0.04668 0.10032 0.0
C341 C 0.6518 0.01388 0.09827 0.0
C342 C 0.66134 0.9812 0.06859 0.0
C343 C 0.69637 0.98073 1.04096 0.0
C344 C 0.70066 0.94101 1.01408 0.0
C345 C 0.69786 0.94799 0.95951 0.0
C346 C 0.74051 0.91891 1.02795 0.0
C347 C 0.66363 0.91855 1.03268 0.0
C348 C 0.64113 0.94227 0.06379 0.0
C349 C 0.60774 0.92668 0.08876 0.0
C350 C 0.59785 0.88543 0.08269 0.0
C351 C 0.62143 0.86039 0.05213 0.0
C352 C 0.65349 0.87782 1.02529 0.0
H353 H 0.01724 0.74603 0.59655 0.0
H354 H 0.93914 0.64066 0.57728 0.0
H355 H 1.00033 0.59743 0.56477 0.0
H356 H 0.09107 0.72171 0.50894 0.0
H357 H 0.13355 0.74001 0.54401 0.0
H358 H 0.08366 0.76191 0.55204 0.0
H359 H 0.0868 0.74503 0.64316 0.0
H360 H 0.13682 0.72325 0.63544 0.0
H361 H 0.09669 0.69339 0.66227 0.0
H362 H 0.07147 0.56662 0.55152 0.0
H363 H 0.1453 0.55148 0.54079 0.0
H364 H 0.17405 0.67717 0.57371 0.0
C365 C 0.0129 0.71386 0.58965 0.0
C366 C 0.97356 0.69665 0.58752 0.0
C367 C 0.96916 0.65436 0.57906 0.0
C368 C 1.00367 0.62965 0.57187 0.0
C369 C 0.04214 0.64775 0.57398 0.0
C370 C 0.04678 0.68887 0.58314 0.0
C371 C 0.09111 0.70121 0.58413 0.0
C372 C 0.10037 0.73308 0.54494 0.0
C373 C 0.10358 0.71661 0.63423 0.0
C374 C 0.11083 0.66082 0.57307 0.0
C375 C 0.08235 0.63019 0.5673 0.0
C376 C 0.09398 0.59043 0.55597 0.0
C377 C 0.13578 0.58209 0.54993 0.0
C378 C 0.16501 0.61349 0.55486 0.0
C379 C 0.15225 0.65293 0.56779 0.0
H380 H 0.77168 0.51031 0.10903 0.0
H381 H 0.84922 0.56522 1.00043 0.0
H382 H 0.89719 0.50752 1.00771 0.0
H383 H 0.85587 0.46767 0.18308 0.0
H384 H 0.82734 0.42234 0.19754 0.0
H385 H 0.80099 0.46977 0.18689 0.0
H386 H 0.75712 0.43522 0.12089 0.0
H387 H 0.78335 0.38783 0.13137 0.0
H388 H 0.78215 0.40967 0.07185 0.0
H389 H 0.93229 0.44039 1.0199 0.0
H390 H 0.95167 0.36896 1.03647 0.0
H391 H 0.85518 0.36073 0.14255 0.0
C392 C 0.79899 0.51039 0.0872 0.0
C393 C 0.80671 0.54213 0.05409 0.0
C394 C 0.84279 0.54125 1.02617 0.0
C395 C 0.87028 0.50867 1.03012 0.0
C396 C 0.8616 0.47764 0.06277 0.0
C397 C 0.82706 0.47842 0.09119 0.0
C398 C 0.82389 0.44035 0.12181 0.0
C399 C 0.82724 0.45066 0.17552 0.0
C400 C 0.78429 0.4169 0.11079 0.0
C401 C 0.86111 0.41736 0.10467 0.0
C402 C 0.88263 0.43945 0.07087 0.0
C403 C 0.91608 0.42302 0.0469 0.0
C404 C 0.92694 0.38247 0.05665 0.0
C405 C 0.90428 0.35888 0.08989 0.0
C406 C 0.87225 0.37735 0.11573 0.0
H407 H 0.52687 0.75451 0.55077 0.0
H408 H 0.44397 0.85769 0.5489 0.0
H409 H 0.50246 0.90442 0.56053 0.0
H410 H 0.59455 0.79141 0.6408 0.0
H411 H 0.6396 0.7714 0.6123 0.0
H412 H 0.59115 0.74659 0.60377 0.0
H413 H 0.59886 0.75361 0.51131 0.0
H414 H 0.64741 0.77829 0.51957 0.0
H415 H 0.60778 0.80319 0.48528 0.0
H416 H 0.57153 0.93968 0.57427 0.0
H417 H 0.6441 0.95918 0.58744 0.0
H418 H 0.6791 0.83225 0.57519 0.0
C419 C 0.5209 0.78692 0.55287 0.0
C420 C 0.48091 0.80248 0.54916 0.0
C421 C 0.47447 0.84513 0.55164 0.0
C422 C 0.50746 0.87189 0.55829 0.0
C423 C 0.5466 0.85544 0.5619 0.0
C424 C 0.55333 0.81391 0.55893 0.0
C425 C 0.59806 0.80362 0.5633 0.0
C426 C 0.6063 0.77667 0.60768 0.0
C427 C 0.61395 0.78351 0.51711 0.0
C428 C 0.61552 0.84576 0.56968 0.0
C429 C 0.58563 0.87543 0.56899 0.0
C430 C 0.59514 0.9166 0.575 0.0
C431 C 0.63626 0.92743 0.58244 0.0
C432 C 0.66694 0.8971 0.58408 0.0
C433 C 0.65626 0.85604 0.57629 0.0
H434 H 0.23427 0.51673 1.00492 0.0
H435 H 0.12958 0.44805 0.05471 0.0
H436 H 0.09112 0.51261 0.06544 0.0
H437 H 0.22724 0.59719 0.08408 0.0
H438 H 0.24206 0.63599 0.04158 0.0
H439 H 0.25945 0.58445 1.03387 0.0
H440 H 0.22847 0.58313 0.948 0.0
H441 H 0.21127 0.63489 0.9553 0.0
H442 H 0.17534 0.5956 0.9394 0.0
H443 H 0.06774 0.5861 0.07944 0.0
H444 H 0.06078 0.66074 0.09144 0.0
H445 H 0.17907 0.67901 1.02553 0.0
C446 C 0.20302 0.51525 1.01744 0.0
C447 C 0.18479 0.47767 1.02924 0.0
C448 C 0.14387 0.47672 0.04528 0.0
C449 C 0.12191 0.51316 0.0515 0.0
C450 C 0.14116 0.54993 1.04037 0.0
C451 C 0.1806 0.55103 1.02282 0.0
C452 C 0.19511 0.59417 1.01482 0.0
C453 C 0.2332 0.60347 0.04542 0.0
C454 C 0.20299 0.60243 0.96119 0.0
C455 C 0.15833 0.61738 1.03238 0.0
C456 C 0.12737 0.59158 0.04689 0.0
C457 C 0.09161 0.60653 0.06759 0.0
C458 C 0.08791 0.64884 0.0743 0.0
C459 C 0.11992 0.67535 0.0607 0.0
C460 C 0.15471 0.65936 1.03786 0.0
H461 H 0.35782 0.15556 0.61795 0.0
H462 H 0.35783 0.06208 0.50821 0.0
H463 H 0.43209 0.07195 0.49723 0.0
H464 H 0.41964 0.2229 0.55532 0.0
H465 H 0.4456 0.24228 0.60766 0.0
H466 H 0.39466 0.2225 0.61296 0.0
H467 H 0.41925 0.1719 0.67874 0.0
H468 H 0.47044 0.19149 0.67354 0.0
H469 H 0.461 0.13778 0.66616 0.0
H470 H 0.50449 0.09766 0.49192 0.0
H471 H 0.56776 0.13849 0.49008 0.0
H472 H 0.51812 0.2184 0.59926 0.0
C473 C 0.37316 0.13733 0.59129 0.0
C474 C 0.35178 0.10883 0.56296 0.0
C475 C 0.37363 0.08425 0.53016 0.0
C476 C 0.41578 0.08963 0.52373 0.0
C477 C 0.43555 0.11945 0.55071 0.0
C478 C 0.41489 0.14282 0.58392 0.0
C479 C 0.44193 0.1756 0.60489 0.0
C480 C 0.42442 0.21833 0.59456 0.0
C481 C 0.44854 0.16876 0.65905 0.0
C482 C 0.48073 0.16803 0.57705 0.0
C483 C 0.47681 0.13492 0.5468 0.0
C484 C 0.50806 0.12333 0.51585 0.0
C485 C 0.54389 0.14671 0.51508 0.0
C486 C 0.5478 0.18164 0.54448 0.0
C487 C 0.51606 0.1918 0.57647 0.0
H488 H 0.59927 0.53178 0.04964 0.0
H489 H 0.5346 0.64543 1.02351 0.0
H490 H 0.46986 0.60788 1.01808 0.0
H491 H 0.53792 0.46946 0.96926 0.0
H492 H 0.53869 0.42548 1.00826 0.0
H493 H 0.58063 0.46094 1.00907 0.0
H494 H 0.57126 0.47062 0.10071 0.0
H495 H 0.52928 0.43524 0.10016 0.0
H496 H 0.52216 0.48586 0.12359 0.0
H497 H 0.41188 0.55908 1.0167 0.0
H498 H 0.36379 0.50168 1.01965 0.0
H499 H 0.46457 0.41849 0.04704 0.0
C500 C 0.57154 0.54876 0.04251 0.0
C501 C 0.57229 0.59173 1.03695 0.0
C502 C 0.53511 0.61264 1.02794 0.0
C503 C 0.49804 0.59156 1.02473 0.0
C504 C 0.49835 0.54942 1.03062 0.0
C505 C 0.53403 0.52813 1.03929 0.0
C506 C 0.52543 0.48285 0.04496 0.0
C507 C 0.54695 0.45823 1.00553 0.0
C508 C 0.53776 0.46777 0.09536 0.0
C509 C 0.47937 0.48219 1.03835 0.0
C510 C 0.46454 0.521 1.02999 0.0
C511 C 0.42311 0.52851 1.02312 0.0
C512 C 0.39599 0.49557 1.0249 0.0
C513 C 0.41018 0.45534 1.03356 0.0
C514 C 0.45261 0.44874 1.04027 0.0
H515 H 0.60671 0.46178 0.53079 0.0
H516 H 0.52259 0.36112 0.50952 0.0
H517 H 0.46517 0.40917 0.50667 0.0
H518 H 0.54161 0.51959 0.60802 0.0
H519 H 0.55596 0.56855 0.5839 0.0
H520 H 0.59149 0.52668 0.58212 0.0
H521 H 0.59836 0.53545 0.48996 0.0
H522 H 0.56293 0.57745 0.49149 0.0
H523 H 0.55319 0.53459 0.45283 0.0
H524 H 0.41627 0.46671 0.50869 0.0
H525 H 0.37844 0.53121 0.51486 0.0
H526 H 0.49265 0.59627 0.53503 0.0
C527 C 0.57627 0.44993 0.52504 0.0
C528 C 0.56939 0.40748 0.52037 0.0
C529 C 0.5289 0.39333 0.51336 0.0
C530 C 0.49592 0.42043 0.51158 0.0
C531 C 0.50362 0.46183 0.51685 0.0
C532 C 0.54268 0.47671 0.52334 0.0
C533 C 0.54194 0.52275 0.52927 0.0
C534 C 0.55874 0.5351 0.57877 0.0
C535 C 0.5655 0.5438 0.48845 0.0
C536 C 0.49638 0.53114 0.52543 0.0
C537 C 0.47501 0.49546 0.51813 0.0
C538 C 0.43264 0.49493 0.5142 0.0
C539 C 0.4114 0.53185 0.51783 0.0
C540 C 0.43239 0.56905 0.52537 0.0
C541 C 0.47559 0.5685 0.52908 0.0
H542 H 0.05861 0.9148 0.08621 0.0
H543 H 0.1579 0.9964 0.12416 0.0
H544 H 0.10957 0.05332 0.12944 0.0
H545 H 1.00462 0.98588 1.01191 0.0
H546 H 0.9544 0.97003 1.03046 0.0
H547 H 0.99614 0.9343 1.03202 0.0
H548 H 0.98255 0.92027 0.1222 0.0
H549 H 0.94065 0.95588 0.12087 0.0
H550 H 0.98146 0.96226 0.16376 0.0
H551 H 0.05246 0.10224 0.12754 0.0
H552 H 0.98858 0.14092 0.11969 0.0
H553 H 0.9241 0.02957 0.08295 0.0
C554 C 0.07003 0.94454 0.09621 0.0
C555 C 0.11224 0.95092 0.10477 0.0
C556 C 0.1259 0.99051 0.11724 0.0
C557 C 0.09863 0.02319 0.12046 0.0
C558 C 0.05754 0.0161 0.11117 0.0
C559 C 0.04305 0.97787 0.09945 0.0
C560 C 0.99731 0.97938 0.08989 0.0
C561 C 0.98756 0.96664 1.03798 0.0
C562 C 0.97413 0.95287 0.12636 0.0
C563 C 0.9887 0.02445 0.09765 0.0
C564 C 0.02402 0.04483 0.11004 0.0
C565 C 0.02449 0.08664 0.11812 0.0
C566 C 0.98792 0.10838 0.11344 0.0
C567 C 0.95105 0.08847 0.10075 0.0
C568 C 0.9516 0.04576 0.09293 0.0
H569 H 0.9091 0.97529 0.59597 0.0
H570 H 0.98935 0.87781 0.6443 0.0
H571 H 0.0458 0.92633 0.65147 0.0
H572 H 0.98319 0.02638 0.52421 0.0
H573 H 0.96679 0.07727 0.53882 0.0
H574 H 0.93083 0.03583 0.54054 0.0
H575 H 0.91335 0.05315 0.6288 0.0
H576 H 0.94925 0.09473 0.62732 0.0
H577 H 0.95374 0.05574 0.67284 0.0
H578 H 0.09492 0.98251 0.64869 0.0
H579 H 0.13482 0.04507 0.63715 0.0
H580 H 0.02521 0.10917 0.59152 0.0
C581 C 0.9384 0.96439 0.60875 0.0
C582 C 0.94458 0.92253 0.61953 0.0
C583 C 0.98364 0.9095 0.63553 0.0
C584 C 0.01604 0.9369 0.63994 0.0
C585 C 0.00926 0.97757 0.62833 0.0
C586 C 0.97154 0.99157 0.61322 0.0
C587 C 0.97368 0.03686 0.60116 0.0
C588 C 0.96299 0.04452 0.54802 0.0
C589 C 0.94585 0.06158 0.63453 0.0
C590 C 0.01855 0.04564 0.61123 0.0
C591 C 0.0382 0.01081 0.62703 0.0
C592 C 0.07987 0.01014 0.63678 0.0
C593 C 0.10232 0.0459 0.62991 0.0
C594 C 0.08326 0.0822 0.61359 0.0
C595 C 0.04059 0.0821 0.60464 0.0
H596 H 0.2583 0.35799 0.24649 0.0
H597 H 0.2424 0.25351 0.15374 0.0
H598 H 0.20907 0.21586 0.22008 0.0
H599 H 0.28479 0.30143 0.3505 0.0
H600 H 0.259 0.33433 0.39235 0.0
H601 H 0.27764 0.35463 0.33638 0.0
H602 H 0.20519 0.38117 0.31566 0.0
H603 H 0.1863 0.36089 0.37164 0.0
H604 H 0.16279 0.3462 0.31568 0.0
H605 H 0.18129 0.18819 0.2971 0.0
H606 H 0.16375 0.171 0.38123 0.0
H607 H 0.19872 0.29237 0.42581 0.0
C608 C 0.24697 0.32749 0.24016 0.0
C609 C 0.2522 0.30865 0.19504 0.0
C610 C 0.23814 0.2684 0.18805 0.0
C611 C 0.21916 0.2469 0.22544 0.0
C612 C 0.21465 0.26606 0.26974 0.0
C613 C 0.22823 0.3054 0.27742 0.0
C614 C 0.22224 0.31767 0.32952 0.0
C615 C 0.26337 0.32759 0.35359 0.0
C616 C 0.19234 0.35362 0.33333 0.0
C617 C 0.2038 0.27891 0.35 0.0
C618 C 0.1993 0.24972 0.31468 0.0
C619 C 0.18442 0.21088 0.32498 0.0
C620 C 0.17458 0.20135 0.37274 0.0
C621 C 0.17997 0.23035 0.40964 0.0
C622 C 0.19401 0.26985 0.398 0.0
H623 H 0.79796 0.16722 0.87549 0.0
H624 H 0.77413 0.2729 0.96408 0.0
H625 H 0.74157 0.30758 0.89492 0.0
H626 H 0.82142 0.22169 0.76734 0.0
H627 H 0.79683 0.18576 0.72795 0.0
H628 H 0.81761 0.16883 0.78461 0.0
H629 H 0.74717 0.1392 0.80833 0.0
H630 H 0.72618 0.15604 0.75169 0.0
H631 H 0.70284 0.17178 0.80719 0.0
H632 H 0.71291 0.33136 0.81625 0.0
H633 H 0.69009 0.34283 0.73234 0.0
H634 H 0.73085 0.2216 0.69432 0.0
C635 C 0.78539 0.19745 0.8803 0.0
C636 C 0.78833 0.21743 0.92506 0.0
C637 C 0.77231 0.25725 0.92994 0.0
C638 C 0.75363 0.27708 0.89097 0.0
C639 C 0.75113 0.25663 0.84729 0.0
C640 C 0.76648 0.21769 0.84165 0.0
C641 C 0.76031 0.20292 0.79051 0.0
C642 C 0.8015 0.1943 0.76618 0.0
C643 C 0.73246 0.16525 0.78938 0.0
C644 C 0.73935 0.23972 0.76831 0.0
C645 C 0.73434 0.27032 0.80179 0.0
C646 C 0.71655 0.3076 0.78976 0.0
C647 C 0.70377 0.31389 0.74216 0.0
C648 C 0.7089 0.28313 0.70728 0.0
C649 C 0.72653 0.24546 0.7206 0.0
H650 H 0.80144 0.82223 0.39287 0.0
H651 H 0.79928 0.71227 0.47948 0.0
H652 H 0.76905 0.67437 0.41145 0.0
H653 H 0.70626 0.80373 0.32736 0.0
H654 H 0.72539 0.82376 0.27139 0.0
H655 H 0.74479 0.84291 0.32762 0.0
H656 H 0.81847 0.8252 0.30134 0.0
H657 H 0.79931 0.80606 0.24506 0.0
H658 H 0.83031 0.77388 0.2831 0.0
H659 H 0.73943 0.64836 0.33433 0.0
H660 H 0.71579 0.63483 0.25152 0.0
H661 H 0.74029 0.76046 0.21255 0.0
C662 C 0.79416 0.79027 0.39739 0.0
C663 C 0.80239 0.77004 0.44129 0.0
C664 C 0.79311 0.72815 0.44602 0.0
C665 C 0.77584 0.70648 0.40769 0.0
C666 C 0.76824 0.72712 0.36471 0.0
C667 C 0.77723 0.76803 0.35917 0.0
C668 C 0.76756 0.78236 0.30842 0.0
C669 C 0.734 0.81514 0.30873 0.0
C670 C 0.80622 0.79777 0.28299 0.0
C671 C 0.75219 0.74304 0.28624 0.0
C672 C 0.75241 0.71172 0.31957 0.0
C673 C 0.73942 0.67258 0.30783 0.0
C674 C 0.72632 0.6651 0.26064 0.0
C675 C 0.72691 0.69636 0.22545 0.0
C676 C 0.73958 0.73596 0.23871 0.0
H677 H 0.24997 0.75781 0.92436 0.0
H678 H 0.24293 0.88588 0.88649 0.0
H679 H 0.26578 0.86997 0.80412 0.0
H680 H 0.33873 0.73392 0.85706 0.0
H681 H 0.32127 0.68453 0.83778 0.0
H682 H 0.30316 0.70557 0.89347 0.0
H683 H 0.22848 0.6974 0.86454 0.0
H684 H 0.24629 0.67613 0.80878 0.0
H685 H 0.21295 0.71983 0.80811 0.0
H686 H 0.29322 0.84103 0.72771 0.0
H687 H 0.31946 0.80009 0.65999 0.0
H688 H 0.30597 0.69005 0.74499 0.0
C689 C 0.25282 0.78235 0.89846 0.0
C690 C 0.2453 0.8232 0.91187 0.0
C691 C 0.24936 0.85453 0.87714 0.0
C692 C 0.2621 0.84575 0.83024 0.0
C693 C 0.2701 0.80533 0.81836 0.0
C694 C 0.2652 0.77402 0.85121 0.0
C695 C 0.2761 0.73325 0.829 0.0
C696 C 0.31195 0.71315 0.85594 0.0
C697 C 0.23872 0.70499 0.82752 0.0
C698 C 0.28849 0.74666 0.77882 0.0
C699 C 0.28483 0.78841 0.77359 0.0
C700 C 0.29584 0.80828 0.73121 0.0
C701 C 0.31083 0.78489 0.69306 0.0
C702 C 0.31445 0.7421 0.69739 0.0
C703 C 0.30304 0.72273 0.74077 0.0
H704 H 0.70396 0.74871 0.91563 0.0
H705 H 0.76985 0.63393 0.92489 0.0
H706 H 0.80925 0.65266 0.8531 0.0
H707 H 0.69792 0.75208 0.78516 0.0
H708 H 0.70513 0.80643 0.78139 0.0
H709 H 0.68142 0.78433 0.8337 0.0
H710 H 0.73539 0.81872 0.88822 0.0
H711 H 0.75929 0.84091 0.8361 0.0
H712 H 0.78885 0.80997 0.87705 0.0
H713 H 0.84248 0.68331 0.78182 0.0
H714 H 0.86625 0.72317 0.71257 0.0
H715 H 0.77958 0.81891 0.74723 0.0
C716 C 0.72653 0.72743 0.90243 0.0
C717 C 0.73368 0.68975 0.92617 0.0
C718 C 0.76365 0.66291 0.90761 0.0
C719 C 0.7863 0.67329 0.86677 0.0
C720 C 0.77873 0.71061 0.84453 0.0
C721 C 0.74949 0.73726 0.86137 0.0
C722 C 0.74763 0.77543 0.83024 0.0
C723 C 0.70552 0.77981 0.8062 0.0
C724 C 0.75844 0.81351 0.85967 0.0
C725 C 0.78049 0.76596 0.79346 0.0
C726 C 0.79796 0.7284 0.80266 0.0
C727 C 0.82899 0.71274 0.77414 0.0
C728 C 0.84236 0.73581 0.73483 0.0
C729 C 0.82476 0.7743 0.72395 0.0
C730 C 0.79349 0.78956 0.75407 0.0
H731 H 0.27989 0.6974 0.39583 0.0
H732 H 0.3885 0.77089 0.41846 0.0
H733 H 0.3712 0.81192 0.34725 0.0
H734 H 0.28464 0.69742 0.26531 0.0
H735 H 0.23013 0.70091 0.25733 0.0
H736 H 0.25091 0.67641 0.31007 0.0
H737 H 0.2093 0.72504 0.36424 0.0
H738 H 0.18844 0.74974 0.31167 0.0
H739 H 0.21463 0.77935 0.35662 0.0
H740 H 0.34244 0.84616 0.27575 0.0
H741 H 0.30488 0.8708 0.20506 0.0
H742 H 0.2141 0.77583 0.22581 0.0
C743 C 0.30007 0.72204 0.38579 0.0
C744 C 0.33561 0.7308 0.4131 0.0
C745 C 0.3612 0.76333 0.39837 0.0
C746 C 0.3516 0.78697 0.35791 0.0
C747 C 0.31634 0.7778 0.33219 0.0
C748 C 0.29099 0.74606 0.34518 0.0
C749 C 0.25493 0.74302 0.3108 0.0
C750 C 0.25518 0.702 0.28431 0.0
C751 C 0.21443 0.74969 0.33743 0.0
C752 C 0.26404 0.77815 0.2767 0.0
C753 C 0.29963 0.79768 0.29004 0.0
C754 C 0.31459 0.83108 0.2648 0.0
C755 C 0.29285 0.84487 0.22459 0.0
C756 C 0.25637 0.82535 0.20954 0.0
C757 C 0.2418 0.79148 0.23623 0.0
H758 H 0.1643 0.27207 0.72974 0.0
H759 H 0.26312 0.18866 0.6955 0.0
H760 H 0.30265 0.21439 0.76355 0.0
H761 H 0.22821 0.35618 0.76985 0.0
H762 H 0.19523 0.3703 0.81879 0.0
H763 H 0.17411 0.34675 0.76587 0.0
H764 H 0.14187 0.29017 0.81856 0.0
H765 H 0.16277 0.31363 0.87162 0.0
H766 H 0.1739 0.26101 0.85875 0.0
H767 H 0.33229 0.24776 0.83417 0.0
H768 H 0.34928 0.28514 0.90772 0.0
H769 H 0.23172 0.34647 0.90152 0.0
C770 C 0.19429 0.25938 0.73651 0.0
C771 C 0.21057 0.22853 0.70653 0.0
C772 C 0.24986 0.21253 0.71717 0.0
C773 C 0.27275 0.22693 0.75596 0.0
C774 C 0.25606 0.25727 0.7845 0.0
C775 C 0.2177 0.27324 0.77578 0.0
C776 C 0.20696 0.30479 0.81367 0.0
C777 C 0.20076 0.34701 0.79066 0.0
C778 C 0.16913 0.2916 0.84235 0.0
C779 C 0.24525 0.30374 0.8448 0.0
C780 C 0.27312 0.27621 0.82682 0.0
C781 C 0.31069 0.26933 0.84881 0.0
C782 C 0.31999 0.29072 0.8908 0.0
C783 C 0.2918 0.3186 0.91092 0.0
C784 C 0.25401 0.32546 0.88712 0.0
H785 H 0.81887 0.24187 0.22417 0.0
H786 H 0.75085 0.12922 0.20703 0.0
H787 H 0.70903 0.14668 0.27735 0.0
H788 H 0.82007 0.24113 0.35443 0.0
H789 H 0.814 0.29552 0.35954 0.0
H790 H 0.83908 0.2743 0.30781 0.0
H791 H 0.78794 0.31168 0.25178 0.0
H792 H 0.76261 0.33293 0.30333 0.0
H793 H 0.73393 0.30395 0.25994 0.0
H794 H 0.67383 0.17612 0.34825 0.0
H795 H 0.64898 0.21444 0.418 0.0
H796 H 0.73933 0.30853 0.39064 0.0
C797 C 0.79535 0.22074 0.23535 0.0
C798 C 0.78829 0.18407 0.20991 0.0
C799 C 0.75702 0.15742 0.22577 0.0
C800 C 0.73298 0.16709 0.26569 0.0
C801 C 0.7405 0.20352 0.2896 0.0
C802 C 0.77101 0.22988 0.27531 0.0
C803 C 0.77261 0.26703 0.30766 0.0
C804 C 0.81389 0.26963 0.33391 0.0
C805 C 0.76374 0.30621 0.27896 0.0
C806 C 0.73823 0.25731 0.34232 0.0
C807 C 0.72012 0.22057 0.331 0.0
C808 C 0.68781 0.20489 0.35757 0.0
C809 C 0.67387 0.22703 0.39719 0.0
C810 C 0.69223 0.26455 0.41023 0.0
C811 C 0.72468 0.27994 0.38194 0.0
loop_
_geom_bond_atom_site_label_1
_geom_bond_atom_site_label_2
_geom_bond_distance
_geom_bond_site_symmetry_2
_ccdc_geom_bond_type
Co0 O3 1.970 1_554 S
Co0 N17 1.989 . S
Co0 O25 1.967 1_554 S
Co0 O32 1.920 . S
Co1 O4 1.966 1_554 S
Co1 N10 2.022 . S
Co1 N18 1.993 . S
Co1 O26 1.941 . S
C2 O3 1.258 . S
C2 O4 1.263 . S
O3 Co0 1.970 1_556 S
O3 C2 1.258 . S
O4 Co1 1.966 1_556 S
O4 C2 1.263 . S
C5 O6 1.235 . S
C5 O32 1.289 . S
O6 C5 1.235 . S
C7 C9 1.400 1_556 S
C7 N10 1.351 1_556 S
C7 C12 1.501 . S
C8 C9 1.387 . S
C8 N11 1.341 . S
C9 C7 1.400 1_554 S
C9 C8 1.387 . S
N10 Co1 2.022 . S
N10 C7 1.351 1_554 S
N10 N11 1.365 . S
N11 C8 1.341 . S
N11 N10 1.365 . S
N11 H31 0.862 . S
C12 C7 1.501 . S
C12 H13 0.961 . S
C12 H14 0.961 . S
C12 H15 0.960 . S
H13 C12 0.961 . S
H14 C12 0.961 . S
H15 C12 0.960 . S
C16 N17 1.342 . S
C16 C20 1.401 . S
C16 C21 1.499 . S
N17 Co0 1.989 . S
N17 C16 1.342 . S
N17 N18 1.388 . S
N18 Co1 1.993 . S
N18 N17 1.388 . S
N18 C19 1.346 . S
C19 N18 1.346 . S
C19 C20 1.396 . S
C19 C29 1.510 . S
C20 C16 1.401 . S
C20 C19 1.396 . S
C21 C16 1.499 . S
C21 H22 0.959 . S
C21 H23 0.960 . S
C21 H24 0.961 . S
H22 C21 0.959 . S
H23 C21 0.960 . S
H24 C21 0.961 . S
O25 Co0 1.967 1_556 S
O25 C33 1.258 . S
O26 Co1 1.941 . S
O26 C33 1.266 1_554 S
H27 C29 0.959 . S
H28 C29 0.961 . S
C29 C19 1.510 . S
C29 H27 0.959 . S
C29 H28 0.961 . S
C29 H30 0.960 . S
H30 C29 0.960 . S
H31 N11 0.862 . S
O32 Co0 1.920 . S
O32 C5 1.289 . S
C33 O25 1.258 . S
C33 O26 1.266 1_556 S
Co34 O37 1.970 . S
Co34 N51 1.989 . S
Co34 O59 1.967 . S
Co34 O66 1.920 . S
Co35 O38 1.966 . S
Co35 N44 2.022 . S
Co35 N52 1.993 . S
Co35 O60 1.941 . S
C36 O37 1.258 . S
C36 O38 1.263 . S
O37 Co34 1.970 . S
O37 C36 1.258 . S
O38 Co35 1.966 . S
O38 C36 1.263 . S
C39 O40 1.235 . S
C39 O66 1.289 . S
O40 C39 1.235 . S
C41 C43 1.400 . S
C41 N44 1.351 . S
C41 C46 1.501 . S
C42 C43 1.387 . S
C42 N45 1.341 . S
C43 C41 1.400 . S
C43 C42 1.387 . S
N44 Co35 2.022 . S
N44 C41 1.351 . S
N44 N45 1.365 . S
N45 C42 1.341 . S
N45 N44 1.365 . S
N45 H65 0.862 . S
C46 C41 1.501 . S
C46 H47 0.961 . S
C46 H48 0.961 . S
C46 H49 0.960 . S
H47 C46 0.961 . S
H48 C46 0.961 . S
H49 C46 0.960 . S
C50 N51 1.342 . S
C50 C54 1.401 . S
C50 C55 1.499 . S
N51 Co34 1.989 . S
N51 C50 1.342 . S
N51 N52 1.388 . S
N52 Co35 1.993 . S
N52 N51 1.388 . S
N52 C53 1.346 . S
C53 N52 1.346 . S
C53 C54 1.396 . S
C53 C63 1.510 . S
C54 C50 1.401 . S
C54 C53 1.396 . S
C55 C50 1.499 . S
C55 H56 0.959 . S
C55 H57 0.960 . S
C55 H58 0.961 . S
H56 C55 0.959 . S
H57 C55 0.960 . S
H58 C55 0.961 . S
O59 Co34 1.967 . S
O59 C67 1.258 . S
O60 Co35 1.941 . S
O60 C67 1.266 . S
H61 C63 0.959 . S
H62 C63 0.961 . S
C63 C53 1.510 . S
C63 H61 0.959 . S
C63 H62 0.961 . S
C63 H64 0.960 . S
H64 C63 0.960 . S
H65 N45 0.862 . S
O66 Co34 1.920 . S
O66 C39 1.289 . S
C67 O59 1.258 . S
C67 O60 1.266 . S
Co68 O71 1.970 1_554 S
Co68 N85 1.989 . S
Co68 O93 1.967 1_554 S
Co68 O100 1.920 . S
Co69 O72 1.966 1_554 S
Co69 N78 2.022 . S
Co69 N86 1.993 . S
Co69 O94 1.941 . S
C70 O71 1.258 . S
C70 O72 1.263 . S
O71 Co68 1.970 1_556 S
O71 C70 1.258 . S
O72 Co69 1.966 1_556 S
O72 C70 1.263 . S
C73 O74 1.235 . S
C73 O100 1.289 . S
O74 C73 1.235 . S
C75 C77 1.400 1_556 S
C75 N78 1.351 1_556 S
C75 C80 1.501 . S
C76 C77 1.387 . S
C76 N79 1.341 . S
C77 C75 1.400 1_554 S
C77 C76 1.387 . S
N78 Co69 2.022 . S
N78 C75 1.351 1_554 S
N78 N79 1.365 . S
N79 C76 1.341 . S
N79 N78 1.365 . S
N79 H99 0.862 . S
C80 C75 1.501 . S
C80 H81 0.961 . S
C80 H82 0.961 . S
C80 H83 0.960 . S
H81 C80 0.961 . S
H82 C80 0.961 . S
H83 C80 0.960 . S
C84 N85 1.342 . S
C84 C88 1.401 . S
C84 C89 1.499 . S
N85 Co68 1.989 . S
N85 C84 1.342 . S
N85 N86 1.388 . S
N86 Co69 1.993 . S
N86 N85 1.388 . S
N86 C87 1.346 . S
C87 N86 1.346 . S
C87 C88 1.396 . S
C87 C97 1.510 . S
C88 C84 1.401 . S
C88 C87 1.396 . S
C89 C84 1.499 . S
C89 H90 0.959 . S
C89 H91 0.960 . S
C89 H92 0.961 . S
H90 C89 0.959 . S
H91 C89 0.960 . S
H92 C89 0.961 . S
O93 Co68 1.967 1_556 S
O93 C101 1.258 . S
O94 Co69 1.941 . S
O94 C101 1.266 1_554 S
H95 C97 0.959 . S
H96 C97 0.961 . S
C97 C87 1.510 . S
C97 H95 0.959 . S
C97 H96 0.961 . S
C97 H98 0.960 . S
H98 C97 0.960 . S
H99 N79 0.862 . S
O100 Co68 1.920 . S
O100 C73 1.289 . S
C101 O93 1.258 . S
C101 O94 1.266 1_556 S
Co102 O105 1.970 . S
Co102 N119 1.989 . S
Co102 O127 1.967 . S
Co102 O134 1.920 . S
Co103 O106 1.966 . S
Co103 N112 2.022 . S
Co103 N120 1.993 . S
Co103 O128 1.941 . S
C104 O105 1.258 . S
C104 O106 1.263 . S
O105 Co102 1.970 . S
O105 C104 1.258 . S
O106 Co103 1.966 . S
O106 C104 1.263 . S
C107 O108 1.235 . S
C107 O134 1.289 . S
O108 C107 1.235 . S
C109 C111 1.400 . S
C109 N112 1.351 . S
C109 C114 1.501 . S
C110 C111 1.387 . S
C110 N113 1.341 . S
C111 C109 1.400 . S
C111 C110 1.387 . S
N112 Co103 2.022 . S
N112 C109 1.351 . S
N112 N113 1.365 . S
N113 C110 1.341 . S
N113 N112 1.365 . S
N113 H133 0.862 . S
C114 C109 1.501 . S
C114 H115 0.961 . S
C114 H116 0.961 . S
C114 H117 0.960 . S
H115 C114 0.961 . S
H116 C114 0.961 . S
H117 C114 0.960 . S
C118 N119 1.342 . S
C118 C122 1.401 . S
C118 C123 1.499 . S
N119 Co102 1.989 . S
N119 C118 1.342 . S
N119 N120 1.388 . S
N120 Co103 1.993 . S
N120 N119 1.388 . S
N120 C121 1.346 . S
C121 N120 1.346 . S
C121 C122 1.396 . S
C121 C131 1.510 . S
C122 C118 1.401 . S
C122 C121 1.396 . S
C123 C118 1.499 . S
C123 H124 0.959 . S
C123 H125 0.960 . S
C123 H126 0.961 . S
H124 C123 0.959 . S
H125 C123 0.960 . S
H126 C123 0.961 . S
O127 Co102 1.967 . S
O127 C135 1.258 . S
O128 Co103 1.941 . S
O128 C135 1.266 . S
H129 C131 0.959 . S
H130 C131 0.961 . S
C131 C121 1.510 . S
C131 H129 0.959 . S
C131 H130 0.961 . S
C131 H132 0.960 . S
H132 C131 0.960 . S
H133 N113 0.862 . S
O134 Co102 1.920 . S
O134 C107 1.289 . S
C135 O127 1.258 . S
C135 O128 1.266 . S
Co136 O139 1.970 . S
Co136 N153 1.989 1_554 S
Co136 O161 1.967 . S
Co136 O168 1.920 . S
Co137 O140 1.966 . S
Co137 N146 2.022 . S
Co137 N154 1.993 1_554 S
Co137 O162 1.941 . S
C138 O139 1.258 . S
C138 O140 1.263 . S
O139 Co136 1.970 . S
O139 C138 1.258 . S
O140 Co137 1.966 . S
O140 C138 1.263 . S
C141 O142 1.235 1_565 S
C141 O168 1.289 1_565 S
O142 C141 1.235 1_545 S
C143 C145 1.400 . S
C143 N146 1.351 . S
C143 C148 1.501 . S
C144 C145 1.387 . S
C144 N147 1.341 . S
C145 C143 1.400 . S
C145 C144 1.387 . S
N146 Co137 2.022 . S
N146 C143 1.351 . S
N146 N147 1.365 . S
N147 C144 1.341 . S
N147 N146 1.365 . S
N147 H167 0.862 1_554 S
C148 C143 1.501 . S
C148 H149 0.961 . S
C148 H150 0.961 . S
C148 H151 0.960 . S
H149 C148 0.961 . S
H150 C148 0.961 . S
H151 C148 0.960 . S
C152 N153 1.342 . S
C152 C156 1.401 . S
C152 C157 1.499 . S
N153 Co136 1.989 1_556 S
N153 C152 1.342 . S
N153 N154 1.388 . S
N154 Co137 1.993 1_556 S
N154 N153 1.388 . S
N154 C155 1.346 . S
C155 N154 1.346 . S
C155 C156 1.396 . S
C155 C165 1.510 . S
C156 C152 1.401 . S
C156 C155 1.396 . S
C157 C152 1.499 . S
C157 H158 0.959 . S
C157 H159 0.960 . S
C157 H160 0.961 . S
H158 C157 0.959 . S
H159 C157 0.960 . S
H160 C157 0.961 . S
O161 Co136 1.967 . S
O161 C169 1.258 . S
O162 Co137 1.941 . S
O162 C169 1.266 . S
H163 C165 0.959 . S
H164 C165 0.961 . S
C165 C155 1.510 . S
C165 H163 0.959 . S
C165 H164 0.961 . S
C165 H166 0.960 . S
H166 C165 0.960 . S
H167 N147 0.862 1_556 S
O168 Co136 1.920 . S
O168 C141 1.289 1_545 S
C169 O161 1.258 . S
C169 O162 1.266 . S
Co170 O173 1.970 . S
Co170 N187 1.989 . S
Co170 O195 1.967 . S
Co170 O202 1.920 . S
Co171 O174 1.966 . S
Co171 N180 2.022 . S
Co171 N188 1.993 . S
Co171 O196 1.941 . S
C172 O173 1.258 . S
C172 O174 1.263 . S
O173 Co170 1.970 . S
O173 C172 1.258 . S
O174 Co171 1.966 . S
O174 C172 1.263 . S
C175 O176 1.235 1_455 S
C175 O202 1.289 1_455 S
O176 C175 1.235 1_655 S
C177 C179 1.400 . S
C177 N180 1.351 . S
C177 C182 1.501 . S
C178 C179 1.387 . S
C178 N181 1.341 . S
C179 C177 1.400 . S
C179 C178 1.387 . S
N180 Co171 2.022 . S
N180 C177 1.351 . S
N180 N181 1.365 . S
N181 C178 1.341 . S
N181 N180 1.365 . S
N181 H201 0.862 . S
C182 C177 1.501 . S
C182 H183 0.961 . S
C182 H184 0.961 . S
C182 H185 0.960 . S
H183 C182 0.961 . S
H184 C182 0.961 . S
H185 C182 0.960 . S
C186 N187 1.342 . S
C186 C190 1.401 . S
C186 C191 1.499 . S
N187 Co170 1.989 . S
N187 C186 1.342 . S
N187 N188 1.388 . S
N188 Co171 1.993 . S
N188 N187 1.388 . S
N188 C189 1.346 . S
C189 N188 1.346 . S
C189 C190 1.396 . S
C189 C199 1.510 . S
C190 C186 1.401 . S
C190 C189 1.396 . S
C191 C186 1.499 . S
C191 H192 0.959 . S
C191 H193 0.960 . S
C191 H194 0.961 . S
H192 C191 0.959 . S
H193 C191 0.960 . S
H194 C191 0.961 . S
O195 Co170 1.967 . S
O195 C203 1.258 . S
O196 Co171 1.941 . S
O196 C203 1.266 . S
H197 C199 0.959 . S
H198 C199 0.961 . S
C199 C189 1.510 . S
C199 H197 0.959 . S
C199 H198 0.961 . S
C199 H200 0.960 . S
H200 C199 0.960 . S
H201 N181 0.862 . S
O202 Co170 1.920 . S
O202 C175 1.289 1_655 S
C203 O195 1.258 . S
C203 O196 1.266 . S
Co204 O207 1.970 . S
Co204 N221 1.989 1_554 S
Co204 O229 1.967 . S
Co204 O236 1.920 . S
Co205 O208 1.966 . S
Co205 N214 2.022 . S
Co205 N222 1.993 1_554 S
Co205 O230 1.941 . S
C206 O207 1.258 . S
C206 O208 1.263 . S
O207 Co204 1.970 . S
O207 C206 1.258 . S
O208 Co205 1.966 . S
O208 C206 1.263 . S
C209 O210 1.235 1_545 S
C209 O236 1.289 1_545 S
O210 C209 1.235 1_565 S
C211 C213 1.400 . S
C211 N214 1.351 . S
C211 C216 1.501 . S
C212 C213 1.387 . S
C212 N215 1.341 . S
C213 C211 1.400 . S
C213 C212 1.387 . S
N214 Co205 2.022 . S
N214 C211 1.351 . S
N214 N215 1.365 . S
N215 C212 1.341 . S
N215 N214 1.365 . S
N215 H235 0.862 1_554 S
C216 C211 1.501 . S
C216 H217 0.961 . S
C216 H218 0.961 . S
C216 H219 0.960 . S
H217 C216 0.961 . S
H218 C216 0.961 . S
H219 C216 0.960 . S
C220 N221 1.342 . S
C220 C224 1.401 . S
C220 C225 1.499 . S
N221 Co204 1.989 1_556 S
N221 C220 1.342 . S
N221 N222 1.388 . S
N222 Co205 1.993 1_556 S
N222 N221 1.388 . S
N222 C223 1.346 . S
C223 N222 1.346 . S
C223 C224 1.396 . S
C223 C233 1.510 . S
C224 C220 1.401 . S
C224 C223 1.396 . S
C225 C220 1.499 . S
C225 H226 0.959 . S
C225 H227 0.960 . S
C225 H228 0.961 . S
H226 C225 0.959 . S
H227 C225 0.960 . S
H228 C225 0.961 . S
O229 Co204 1.967 . S
O229 C237 1.258 . S
O230 Co205 1.941 . S
O230 C237 1.266 . S
H231 C233 0.959 . S
H232 C233 0.961 . S
C233 C223 1.510 . S
C233 H231 0.959 . S
C233 H232 0.961 . S
C233 H234 0.960 . S
H234 C233 0.960 . S
H235 N215 0.862 1_556 S
O236 Co204 1.920 . S
O236 C209 1.289 1_565 S
C237 O229 1.258 . S
C237 O230 1.266 . S
Co238 O241 1.970 . S
Co238 N255 1.989 . S
Co238 O263 1.967 . S
Co238 O270 1.920 . S
Co239 O242 1.966 . S
Co239 N248 2.022 . S
Co239 N256 1.993 . S
Co239 O264 1.941 . S
C240 O241 1.258 . S
C240 O242 1.263 . S
O241 Co238 1.970 . S
O241 C240 1.258 . S
O242 Co239 1.966 . S
O242 C240 1.263 . S
C243 O244 1.235 1_655 S
C243 O270 1.289 1_655 S
O244 C243 1.235 1_455 S
C245 C247 1.400 . S
C245 N248 1.351 . S
C245 C250 1.501 . S
C246 C247 1.387 . S
C246 N249 1.341 . S
C247 C245 1.400 . S
C247 C246 1.387 . S
N248 Co239 2.022 . S
N248 C245 1.351 . S
N248 N249 1.365 . S
N249 C246 1.341 . S
N249 N248 1.365 . S
N249 H269 0.862 . S
C250 C245 1.501 . S
C250 H251 0.961 . S
C250 H252 0.961 . S
C250 H253 0.960 . S
H251 C250 0.961 . S
H252 C250 0.961 . S
H253 C250 0.960 . S
C254 N255 1.342 . S
C254 C258 1.401 . S
C254 C259 1.499 . S
N255 Co238 1.989 . S
N255 C254 1.342 . S
N255 N256 1.388 . S
N256 Co239 1.993 . S
N256 N255 1.388 . S
N256 C257 1.346 . S
C257 N256 1.346 . S
C257 C258 1.396 . S
C257 C267 1.510 . S
C258 C254 1.401 . S
C258 C257 1.396 . S
C259 C254 1.499 . S
C259 H260 0.959 . S
C259 H261 0.960 . S
C259 H262 0.961 . S
H260 C259 0.959 . S
H261 C259 0.960 . S
H262 C259 0.961 . S
O263 Co238 1.967 . S
O263 C271 1.258 . S
O264 Co239 1.941 . S
O264 C271 1.266 . S
H265 C267 0.959 . S
H266 C267 0.961 . S
C267 C257 1.510 . S
C267 H265 0.959 . S
C267 H266 0.961 . S
C267 H268 0.960 . S
H268 C267 0.960 . S
H269 N249 0.862 . S
O270 Co238 1.920 . S
O270 C243 1.289 1_455 S
C271 O263 1.258 . S
C271 O264 1.266 . S
H272 C284 0.930 . S
H273 C286 0.930 . S
H274 C287 0.930 . S
H275 C291 0.959 . S
H276 C291 0.959 . S
H277 C291 0.961 . S
H278 C292 0.960 . S
H279 C292 0.961 . S
H280 C292 0.959 . S
H281 C295 0.929 . S
H282 C296 0.931 . S
H283 C298 0.930 . S
C284 H272 0.930 . S
C284 C285 1.399 . S
C284 C289 1.399 . S
C285 C284 1.399 . S
C285 C286 1.376 1_554 S
C286 H273 0.930 . S
C286 C285 1.376 1_556 S
C286 C287 1.388 . S
C287 H274 0.930 . S
C287 C286 1.388 . S
C287 C288 1.390 1_556 S
C288 C287 1.390 1_554 S
C288 C289 1.394 . S
C288 C294 1.465 . S
C289 C284 1.399 . S
C289 C288 1.394 . S
C289 C290 1.516 . S
C290 C289 1.516 . S
C290 C291 1.502 . S
C290 C292 1.561 . S
C290 C293 1.526 . S
C291 H275 0.959 . S
C291 H276 0.959 . S
C291 H277 0.961 . S
C291 C290 1.502 . S
C292 H278 0.960 . S
C292 H279 0.961 . S
C292 H280 0.959 . S
C292 C290 1.561 . S
C293 C290 1.526 . S
C293 C294 1.396 . S
C293 C298 1.390 . S
C294 C288 1.465 . S
C294 C293 1.396 . S
C294 C295 1.399 1_554 S
C295 H281 0.929 . S
C295 C294 1.399 1_556 S
C295 C296 1.385 . S
C296 H282 0.931 . S
C296 C295 1.385 . S
C296 C297 1.389 1_556 S
C297 C296 1.389 1_554 S
C297 C298 1.387 . S
C298 H283 0.930 . S
C298 C293 1.390 . S
C298 C297 1.387 . S
H299 C311 0.930 . S
H300 C313 0.930 . S
H301 C314 0.930 . S
H302 C318 0.959 . S
H303 C318 0.959 . S
H304 C318 0.961 . S
H305 C319 0.960 . S
H306 C319 0.961 . S
H307 C319 0.959 . S
H308 C322 0.929 . S
H309 C323 0.931 . S
H310 C325 0.930 . S
C311 H299 0.930 . S
C311 C312 1.399 . S
C311 C316 1.399 . S
C312 C311 1.399 . S
C312 C313 1.376 . S
C313 H300 0.930 . S
C313 C312 1.376 . S
C313 C314 1.388 . S
C314 H301 0.930 . S
C314 C313 1.388 . S
C314 C315 1.390 . S
C315 C314 1.390 . S
C315 C316 1.394 . S
C315 C321 1.465 . S
C316 C311 1.399 . S
C316 C315 1.394 . S
C316 C317 1.516 . S
C317 C316 1.516 . S
C317 C318 1.502 . S
C317 C319 1.561 . S
C317 C320 1.526 . S
C318 H302 0.959 . S
C318 H303 0.959 . S
C318 H304 0.961 . S
C318 C317 1.502 . S
C319 H305 0.960 . S
C319 H306 0.961 . S
C319 H307 0.959 . S
C319 C317 1.561 . S
C320 C317 1.526 . S
C320 C321 1.396 . S
C320 C325 1.390 . S
C321 C315 1.465 . S
C321 C320 1.396 . S
C321 C322 1.399 . S
C322 H308 0.929 . S
C322 C321 1.399 . S
C322 C323 1.385 . S
C323 H309 0.931 . S
C323 C322 1.385 . S
C323 C324 1.389 . S
C324 C323 1.389 . S
C324 C325 1.387 . S
C325 H310 0.930 . S
C325 C320 1.390 . S
C325 C324 1.387 . S
H326 C338 0.930 1_556 S
H327 C340 0.930 . S
H328 C341 0.930 . S
H329 C345 0.959 . S
H330 C345 0.959 . S
H331 C345 0.961 . S
H332 C346 0.960 . S
H333 C346 0.961 . S
H334 C346 0.959 . S
H335 C349 0.929 . S
H336 C350 0.931 . S
H337 C352 0.930 . S
C338 H326 0.930 1_554 S
C338 C339 1.399 . S
C338 C343 1.399 . S
C339 C338 1.399 . S
C339 C340 1.376 . S
C340 H327 0.930 . S
C340 C339 1.376 . S
C340 C341 1.388 . S
C341 H328 0.930 . S
C341 C340 1.388 . S
C341 C342 1.390 . S
C342 C341 1.390 . S
C342 C343 1.394 . S
C342 C348 1.465 . S
C343 C338 1.399 . S
C343 C342 1.394 . S
C343 C344 1.516 1_554 S
C344 C343 1.516 1_556 S
C344 C345 1.502 . S
C344 C346 1.561 . S
C344 C347 1.526 . S
C345 H329 0.959 . S
C345 H330 0.959 . S
C345 H331 0.961 . S
C345 C344 1.502 . S
C346 H332 0.960 . S
C346 H333 0.961 . S
C346 H334 0.959 . S
C346 C344 1.561 . S
C347 C344 1.526 . S
C347 C348 1.396 1_556 S
C347 C352 1.390 . S
C348 C342 1.465 . S
C348 C347 1.396 1_554 S
C348 C349 1.399 . S
C349 H335 0.929 . S
C349 C348 1.399 . S
C349 C350 1.385 . S
C350 H336 0.931 . S
C350 C349 1.385 . S
C350 C351 1.389 . S
C351 C350 1.389 . S
C351 C352 1.387 1_554 S
C352 H337 0.930 . S
C352 C347 1.390 . S
C352 C351 1.387 1_556 S
H353 C365 0.930 . S
H354 C367 0.930 . S
H355 C368 0.930 . S
H356 C372 0.959 . S
H357 C372 0.959 . S
H358 C372 0.961 . S
H359 C373 0.960 . S
H360 C373 0.961 . S
H361 C373 0.959 . S
H362 C376 0.929 . S
H363 C377 0.931 . S
H364 C379 0.930 . S
C365 H353 0.930 . S
C365 C366 1.399 . S
C365 C370 1.399 . S
C366 C365 1.399 . S
C366 C367 1.376 . S
C367 H354 0.930 . S
C367 C366 1.376 . S
C367 C368 1.388 . S
C368 H355 0.930 . S
C368 C367 1.388 . S
C368 C369 1.390 . S
C369 C368 1.390 . S
C369 C370 1.394 . S
C369 C375 1.465 . S
C370 C365 1.399 . S
C370 C369 1.394 . S
C370 C371 1.516 . S
C371 C370 1.516 . S
C371 C372 1.502 . S
C371 C373 1.561 . S
C371 C374 1.526 . S
C372 H356 0.959 . S
C372 H357 0.959 . S
C372 H358 0.961 . S
C372 C371 1.502 . S
C373 H359 0.960 . S
C373 H360 0.961 . S
C373 H361 0.959 . S
C373 C371 1.561 . S
C374 C371 1.526 . S
C374 C375 1.396 . S
C374 C379 1.390 . S
C375 C369 1.465 . S
C375 C374 1.396 . S
C375 C376 1.399 . S
C376 H362 0.929 . S
C376 C375 1.399 . S
C376 C377 1.385 . S
C377 H363 0.931 . S
C377 C376 1.385 . S
C377 C378 1.389 . S
C378 C377 1.389 . S
C378 C379 1.387 . S
C379 H364 0.930 . S
C379 C374 1.390 . S
C379 C378 1.387 . S
H380 C392 0.930 . S
H381 C394 0.930 . S
H382 C395 0.930 . S
H383 C399 0.959 . S
H384 C399 0.959 . S
H385 C399 0.961 . S
H386 C400 0.960 . S
H387 C400 0.961 . S
H388 C400 0.959 . S
H389 C403 0.929 . S
H390 C404 0.931 . S
H391 C406 0.930 . S
C392 H380 0.930 . S
C392 C393 1.399 . S
C392 C397 1.399 . S
C393 C392 1.399 . S
C393 C394 1.376 1_554 S
C394 H381 0.930 . S
C394 C393 1.376 1_556 S
C394 C395 1.388 . S
C395 H382 0.930 . S
C395 C394 1.388 . S
C395 C396 1.390 1_556 S
C396 C395 1.390 1_554 S
C396 C397 1.394 . S
C396 C402 1.465 . S
C397 C392 1.399 . S
C397 C396 1.394 . S
C397 C398 1.516 . S
C398 C397 1.516 . S
C398 C399 1.502 . S
C398 C400 1.561 . S
C398 C401 1.526 . S
C399 H383 0.959 . S
C399 H384 0.959 . S
C399 H385 0.961 . S
C399 C398 1.502 . S
C400 H386 0.960 . S
C400 H387 0.961 . S
C400 H388 0.959 . S
C400 C398 1.561 . S
C401 C398 1.526 . S
C401 C402 1.396 . S
C401 C406 1.390 . S
C402 C396 1.465 . S
C402 C401 1.396 . S
C402 C403 1.399 1_554 S
C403 H389 0.929 . S
C403 C402 1.399 1_556 S
C403 C404 1.385 . S
C404 H390 0.931 . S
C404 C403 1.385 . S
C404 C405 1.389 1_556 S
C405 C404 1.389 1_554 S
C405 C406 1.387 . S
C406 H391 0.930 . S
C406 C401 1.390 . S
C406 C405 1.387 . S
H407 C419 0.930 . S
H408 C421 0.930 . S
H409 C422 0.930 . S
H410 C426 0.959 . S
H411 C426 0.959 . S
H412 C426 0.961 . S
H413 C427 0.960 . S
H414 C427 0.961 . S
H415 C427 0.959 . S
H416 C430 0.929 . S
H417 C431 0.931 . S
H418 C433 0.930 . S
C419 H407 0.930 . S
C419 C420 1.399 . S
C419 C424 1.399 . S
C420 C419 1.399 . S
C420 C421 1.376 . S
C421 H408 0.930 . S
C421 C420 1.376 . S
C421 C422 1.388 . S
C422 H409 0.930 . S
C422 C421 1.388 . S
C422 C423 1.390 . S
C423 C422 1.390 . S
C423 C424 1.394 . S
C423 C429 1.465 . S
C424 C419 1.399 . S
C424 C423 1.394 . S
C424 C425 1.516 . S
C425 C424 1.516 . S
C425 C426 1.502 . S
C425 C427 1.561 . S
C425 C428 1.526 . S
C426 H410 0.959 . S
C426 H411 0.959 . S
C426 H412 0.961 . S
C426 C425 1.502 . S
C427 H413 0.960 . S
C427 H414 0.961 . S
C427 H415 0.959 . S
C427 C425 1.561 . S
C428 C425 1.526 . S
C428 C429 1.396 . S
C428 C433 1.390 . S
C429 C423 1.465 . S
C429 C428 1.396 . S
C429 C430 1.399 . S
C430 H416 0.929 . S
C430 C429 1.399 . S
C430 C431 1.385 . S
C431 H417 0.931 . S
C431 C430 1.385 . S
C431 C432 1.389 . S
C432 C431 1.389 . S
C432 C433 1.387 . S
C433 H418 0.930 . S
C433 C428 1.390 . S
C433 C432 1.387 . S
H434 C446 0.930 . S
H435 C448 0.930 . S
H436 C449 0.930 . S
H437 C453 0.959 . S
H438 C453 0.959 . S
H439 C453 0.961 . S
H440 C454 0.960 . S
H441 C454 0.961 . S
H442 C454 0.959 . S
H443 C457 0.929 . S
H444 C458 0.931 . S
H445 C460 0.930 1_556 S
C446 H434 0.930 . S
C446 C447 1.399 1_556 S
C446 C451 1.399 . S
C447 C446 1.399 1_554 S
C447 C448 1.376 . S
C448 H435 0.930 . S
C448 C447 1.376 . S
C448 C449 1.388 . S
C449 H436 0.930 . S
C449 C448 1.388 . S
C449 C450 1.390 . S
C450 C449 1.390 . S
C450 C451 1.394 1_554 S
C450 C456 1.465 . S
C451 C446 1.399 . S
C451 C450 1.394 1_556 S
C451 C452 1.516 . S
C452 C451 1.516 . S
C452 C453 1.502 . S
C452 C454 1.561 . S
C452 C455 1.526 1_556 S
C453 H437 0.959 . S
C453 H438 0.959 . S
C453 H439 0.961 . S
C453 C452 1.502 . S
C454 H440 0.960 . S
C454 H441 0.961 . S
C454 H442 0.959 . S
C454 C452 1.561 . S
C455 C452 1.526 1_554 S
C455 C456 1.396 . S
C455 C460 1.390 . S
C456 C450 1.465 . S
C456 C455 1.396 . S
C456 C457 1.399 . S
C457 H443 0.929 . S
C457 C456 1.399 . S
C457 C458 1.385 . S
C458 H444 0.931 . S
C458 C457 1.385 . S
C458 C459 1.389 . S
C459 C458 1.389 . S
C459 C460 1.387 . S
C460 H445 0.930 1_554 S
C460 C455 1.390 . S
C460 C459 1.387 . S
H461 C473 0.930 . S
H462 C475 0.930 . S
H463 C476 0.930 . S
H464 C480 0.959 . S
H465 C480 0.959 . S
H466 C480 0.961 . S
H467 C481 0.960 . S
H468 C481 0.961 . S
H469 C481 0.959 . S
H470 C484 0.929 . S
H471 C485 0.931 . S
H472 C487 0.930 . S
C473 H461 0.930 . S
C473 C474 1.399 . S
C473 C478 1.399 . S
C474 C473 1.399 . S
C474 C475 1.376 . S
C475 H462 0.930 . S
C475 C474 1.376 . S
C475 C476 1.388 . S
C476 H463 0.930 . S
C476 C475 1.388 . S
C476 C477 1.390 . S
C477 C476 1.390 . S
C477 C478 1.394 . S
C477 C483 1.465 . S
C478 C473 1.399 . S
C478 C477 1.394 . S
C478 C479 1.516 . S
C479 C478 1.516 . S
C479 C480 1.502 . S
C479 C481 1.561 . S
C479 C482 1.526 . S
C480 H464 0.959 . S
C480 H465 0.959 . S
C480 H466 0.961 . S
C480 C479 1.502 . S
C481 H467 0.960 . S
C481 H468 0.961 . S
C481 H469 0.959 . S
C481 C479 1.561 . S
C482 C479 1.526 . S
C482 C483 1.396 . S
C482 C487 1.390 . S
C483 C477 1.465 . S
C483 C482 1.396 . S
C483 C484 1.399 . S
C484 H470 0.929 . S
C484 C483 1.399 . S
C484 C485 1.385 . S
C485 H471 0.931 . S
C485 C484 1.385 . S
C485 C486 1.389 . S
C486 C485 1.389 . S
C486 C487 1.387 . S
C487 H472 0.930 . S
C487 C482 1.390 . S
C487 C486 1.387 . S
H488 C500 0.930 . S
H489 C502 0.930 . S
H490 C503 0.930 . S
H491 C507 0.959 . S
H492 C507 0.959 . S
H493 C507 0.961 . S
H494 C508 0.960 . S
H495 C508 0.961 . S
H496 C508 0.959 . S
H497 C511 0.929 . S
H498 C512 0.931 . S
H499 C514 0.930 . S
C500 H488 0.930 . S
C500 C501 1.399 . S
C500 C505 1.399 . S
C501 C500 1.399 . S
C501 C502 1.376 1_556 S
C502 H489 0.930 . S
C502 C501 1.376 1_554 S
C502 C503 1.388 . S
C503 H490 0.930 . S
C503 C502 1.388 . S
C503 C504 1.390 . S
C504 C503 1.390 . S
C504 C505 1.394 1_554 S
C504 C510 1.465 . S
C505 C500 1.399 . S
C505 C504 1.394 1_556 S
C505 C506 1.516 . S
C506 C505 1.516 . S
C506 C507 1.502 . S
C506 C508 1.561 . S
C506 C509 1.526 . S
C507 H491 0.959 . S
C507 H492 0.959 . S
C507 H493 0.961 . S
C507 C506 1.502 . S
C508 H494 0.960 . S
C508 H495 0.961 . S
C508 H496 0.959 . S
C508 C506 1.561 . S
C509 C506 1.526 . S
C509 C510 1.396 1_556 S
C509 C514 1.390 . S
C510 C504 1.465 . S
C510 C509 1.396 1_554 S
C510 C511 1.399 . S
C511 H497 0.929 . S
C511 C510 1.399 . S
C511 C512 1.385 . S
C512 H498 0.931 . S
C512 C511 1.385 . S
C512 C513 1.389 1_554 S
C513 C512 1.389 1_556 S
C513 C514 1.387 . S
C514 H499 0.930 . S
C514 C509 1.390 . S
C514 C513 1.387 . S
H515 C527 0.930 . S
H516 C529 0.930 . S
H517 C530 0.930 . S
H518 C534 0.959 . S
H519 C534 0.959 . S
H520 C534 0.961 . S
H521 C535 0.960 . S
H522 C535 0.961 . S
H523 C535 0.959 . S
H524 C538 0.929 . S
H525 C539 0.931 . S
H526 C541 0.930 . S
C527 H515 0.930 . S
C527 C528 1.399 . S
C527 C532 1.399 . S
C528 C527 1.399 . S
C528 C529 1.376 . S
C529 H516 0.930 . S
C529 C528 1.376 . S
C529 C530 1.388 . S
C530 H517 0.930 . S
C530 C529 1.388 . S
C530 C531 1.390 . S
C531 C530 1.390 . S
C531 C532 1.394 . S
C531 C537 1.465 . S
C532 C527 1.399 . S
C532 C531 1.394 . S
C532 C533 1.516 . S
C533 C532 1.516 . S
C533 C534 1.502 . S
C533 C535 1.561 . S
C533 C536 1.526 . S
C534 H518 0.959 . S
C534 H519 0.959 . S
C534 H520 0.961 . S
C534 C533 1.502 . S
C535 H521 0.960 . S
C535 H522 0.961 . S
C535 H523 0.959 . S
C535 C533 1.561 . S
C536 C533 1.526 . S
C536 C537 1.396 . S
C536 C541 1.390 . S
C537 C531 1.465 . S
C537 C536 1.396 . S
C537 C538 1.399 . S
C538 H524 0.929 . S
C538 C537 1.399 . S
C538 C539 1.385 . S
C539 H525 0.931 . S
C539 C538 1.385 . S
C539 C540 1.389 . S
C540 C539 1.389 . S
C540 C541 1.387 . S
C541 H526 0.930 . S
C541 C536 1.390 . S
C541 C540 1.387 . S
H542 C554 0.930 . S
H543 C556 0.930 1_556 S
H544 C557 0.930 1_546 S
H545 C561 0.959 . S
H546 C561 0.959 . S
H547 C561 0.961 . S
H548 C562 0.960 . S
H549 C562 0.961 1_655 S
H550 C562 0.959 . S
H551 C565 0.929 1_556 S
H552 C566 0.931 1_556 S
H553 C568 0.930 . S
C554 H542 0.930 . S
C554 C555 1.399 . S
C554 C559 1.399 . S
C555 C554 1.399 . S
C555 C556 1.376 . S
C556 H543 0.930 1_554 S
C556 C555 1.376 . S
C556 C557 1.388 . S
C557 H544 0.930 1_564 S
C557 C556 1.388 . S
C557 C558 1.390 . S
C558 C557 1.390 . S
C558 C559 1.394 . S
C558 C564 1.465 1_465 S
C559 C554 1.399 . S
C559 C558 1.394 . S
C559 C560 1.516 1_455 S
C560 C559 1.516 1_655 S
C560 C561 1.502 . S
C560 C562 1.561 1_665 S
C560 C563 1.526 1_565 S
C561 H545 0.959 . S
C561 H546 0.959 . S
C561 H547 0.961 . S
C561 C560 1.502 . S
C562 H548 0.960 . S
C562 H549 0.961 1_455 S
C562 H550 0.959 . S
C562 C560 1.561 1_445 S
C563 C560 1.526 1_545 S
C563 C564 1.396 . S
C563 C568 1.390 . S
C564 C558 1.465 1_645 S
C564 C563 1.396 . S
C564 C565 1.399 . S
C565 H551 0.929 1_554 S
C565 C564 1.399 . S
C565 C566 1.385 . S
C566 H552 0.931 1_554 S
C566 C565 1.385 . S
C566 C567 1.389 . S
C567 C566 1.389 . S
C567 C568 1.387 . S
C568 H553 0.930 . S
C568 C563 1.390 . S
C568 C567 1.387 . S
H569 C581 0.930 . S
H570 C583 0.930 . S
H571 C584 0.930 1_455 S
H572 C588 0.959 . S
H573 C588 0.959 . S
H574 C588 0.961 . S
H575 C589 0.960 . S
H576 C589 0.961 1_545 S
H577 C589 0.959 . S
H578 C592 0.929 . S
H579 C593 0.931 . S
H580 C595 0.930 . S
C581 H569 0.930 . S
C581 C582 1.399 . S
C581 C586 1.399 . S
C582 C581 1.399 . S
C582 C583 1.376 . S
C583 H570 0.930 . S
C583 C582 1.376 . S
C583 C584 1.388 . S
C584 H571 0.930 1_655 S
C584 C583 1.388 . S
C584 C585 1.390 . S
C585 C584 1.390 . S
C585 C586 1.394 . S
C585 C591 1.465 1_665 S
C586 C581 1.399 . S
C586 C585 1.394 . S
C586 C587 1.516 1_565 S
C587 C586 1.516 1_545 S
C587 C588 1.502 . S
C587 C589 1.561 1_645 S
C587 C590 1.526 1_655 S
C588 H572 0.959 . S
C588 H573 0.959 . S
C588 H574 0.961 . S
C588 C587 1.502 . S
C589 H575 0.960 . S
C589 H576 0.961 1_565 S
C589 H577 0.959 . S
C589 C587 1.561 1_465 S
C590 C587 1.526 1_455 S
C590 C591 1.396 . S
C590 C595 1.390 . S
C591 C585 1.465 1_445 S
C591 C590 1.396 . S
C591 C592 1.399 . S
C592 H578 0.929 . S
C592 C591 1.399 . S
C592 C593 1.385 . S
C593 H579 0.931 . S
C593 C592 1.385 . S
C593 C594 1.389 . S
C594 C593 1.389 . S
C594 C595 1.387 . S
C595 H580 0.930 . S
C595 C590 1.390 . S
C595 C594 1.387 . S
H596 C608 0.930 . S
H597 C610 0.930 . S
H598 C611 0.930 . S
H599 C615 0.959 . S
H600 C615 0.959 . S
H601 C615 0.961 . S
H602 C616 0.960 . S
H603 C616 0.961 . S
H604 C616 0.959 . S
H605 C619 0.929 . S
H606 C620 0.931 . S
H607 C622 0.930 . S
C608 H596 0.930 . S
C608 C609 1.399 . S
C608 C613 1.399 . S
C609 C608 1.399 . S
C609 C610 1.376 . S
C610 H597 0.930 . S
C610 C609 1.376 . S
C610 C611 1.388 . S
C611 H598 0.930 . S
C611 C610 1.388 . S
C611 C612 1.390 . S
C612 C611 1.390 . S
C612 C613 1.394 . S
C612 C618 1.465 . S
C613 C608 1.399 . S
C613 C612 1.394 . S
C613 C614 1.516 . S
C614 C613 1.516 . S
C614 C615 1.502 . S
C614 C616 1.561 . S
C614 C617 1.526 . S
C615 H599 0.959 . S
C615 H600 0.959 . S
C615 H601 0.961 . S
C615 C614 1.502 . S
C616 H602 0.960 . S
C616 H603 0.961 . S
C616 H604 0.959 . S
C616 C614 1.561 . S
C617 C614 1.526 . S
C617 C618 1.396 . S
C617 C622 1.390 . S
C618 C612 1.465 . S
C618 C617 1.396 . S
C618 C619 1.399 . S
C619 H605 0.929 . S
C619 C618 1.399 . S
C619 C620 1.385 . S
C620 H606 0.931 . S
C620 C619 1.385 . S
C620 C621 1.389 . S
C621 C620 1.389 . S
C621 C622 1.387 . S
C622 H607 0.930 . S
C622 C617 1.390 . S
C622 C621 1.387 . S
H623 C635 0.930 . S
H624 C637 0.930 . S
H625 C638 0.930 . S
H626 C642 0.959 . S
H627 C642 0.959 . S
H628 C642 0.961 . S
H629 C643 0.960 . S
H630 C643 0.961 . S
H631 C643 0.959 . S
H632 C646 0.929 . S
H633 C647 0.931 . S
H634 C649 0.930 . S
C635 H623 0.930 . S
C635 C636 1.399 . S
C635 C640 1.399 . S
C636 C635 1.399 . S
C636 C637 1.376 . S
C637 H624 0.930 . S
C637 C636 1.376 . S
C637 C638 1.388 . S
C638 H625 0.930 . S
C638 C637 1.388 . S
C638 C639 1.390 . S
C639 C638 1.390 . S
C639 C640 1.394 . S
C639 C645 1.465 . S
C640 C635 1.399 . S
C640 C639 1.394 . S
C640 C641 1.516 . S
C641 C640 1.516 . S
C641 C642 1.502 . S
C641 C643 1.561 . S
C641 C644 1.526 . S
C642 H626 0.959 . S
C642 H627 0.959 . S
C642 H628 0.961 . S
C642 C641 1.502 . S
C643 H629 0.960 . S
C643 H630 0.961 . S
C643 H631 0.959 . S
C643 C641 1.561 . S
C644 C641 1.526 . S
C644 C645 1.396 . S
C644 C649 1.390 . S
C645 C639 1.465 . S
C645 C644 1.396 . S
C645 C646 1.399 . S
C646 H632 0.929 . S
C646 C645 1.399 . S
C646 C647 1.385 . S
C647 H633 0.931 . S
C647 C646 1.385 . S
C647 C648 1.389 . S
C648 C647 1.389 . S
C648 C649 1.387 . S
C649 H634 0.930 . S
C649 C644 1.390 . S
C649 C648 1.387 . S
H650 C662 0.930 . S
H651 C664 0.930 . S
H652 C665 0.930 . S
H653 C669 0.959 . S
H654 C669 0.959 . S
H655 C669 0.961 . S
H656 C670 0.960 . S
H657 C670 0.961 . S
H658 C670 0.959 . S
H659 C673 0.929 . S
H660 C674 0.931 . S
H661 C676 0.930 . S
C662 H650 0.930 . S
C662 C663 1.399 . S
C662 C667 1.399 . S
C663 C662 1.399 . S
C663 C664 1.376 . S
C664 H651 0.930 . S
C664 C663 1.376 . S
C664 C665 1.388 . S
C665 H652 0.930 . S
C665 C664 1.388 . S
C665 C666 1.390 . S
C666 C665 1.390 . S
C666 C667 1.394 . S
C666 C672 1.465 . S
C667 C662 1.399 . S
C667 C666 1.394 . S
C667 C668 1.516 . S
C668 C667 1.516 . S
C668 C669 1.502 . S
C668 C670 1.561 . S
C668 C671 1.526 . S
C669 H653 0.959 . S
C669 H654 0.959 . S
C669 H655 0.961 . S
C669 C668 1.502 . S
C670 H656 0.960 . S
C670 H657 0.961 . S
C670 H658 0.959 . S
C670 C668 1.561 . S
C671 C668 1.526 . S
C671 C672 1.396 . S
C671 C676 1.390 . S
C672 C666 1.465 . S
C672 C671 1.396 . S
C672 C673 1.399 . S
C673 H659 0.929 . S
C673 C672 1.399 . S
C673 C674 1.385 . S
C674 H660 0.931 . S
C674 C673 1.385 . S
C674 C675 1.389 . S
C675 C674 1.389 . S
C675 C676 1.387 . S
C676 H661 0.930 . S
C676 C671 1.390 . S
C676 C675 1.387 . S
H677 C689 0.930 . S
H678 C691 0.930 . S
H679 C692 0.930 . S
H680 C696 0.959 . S
H681 C696 0.959 . S
H682 C696 0.961 . S
H683 C697 0.960 . S
H684 C697 0.961 . S
H685 C697 0.959 . S
H686 C700 0.929 . S
H687 C701 0.931 . S
H688 C703 0.930 . S
C689 H677 0.930 . S
C689 C690 1.399 . S
C689 C694 1.399 . S
C690 C689 1.399 . S
C690 C691 1.376 . S
C691 H678 0.930 . S
C691 C690 1.376 . S
C691 C692 1.388 . S
C692 H679 0.930 . S
C692 C691 1.388 . S
C692 C693 1.390 . S
C693 C692 1.390 . S
C693 C694 1.394 . S
C693 C699 1.465 . S
C694 C689 1.399 . S
C694 C693 1.394 . S
C694 C695 1.516 . S
C695 C694 1.516 . S
C695 C696 1.502 . S
C695 C697 1.561 . S
C695 C698 1.526 . S
C696 H680 0.959 . S
C696 H681 0.959 . S
C696 H682 0.961 . S
C696 C695 1.502 . S
C697 H683 0.960 . S
C697 H684 0.961 . S
C697 H685 0.959 . S
C697 C695 1.561 . S
C698 C695 1.526 . S
C698 C699 1.396 . S
C698 C703 1.390 . S
C699 C693 1.465 . S
C699 C698 1.396 . S
C699 C700 1.399 . S
C700 H686 0.929 . S
C700 C699 1.399 . S
C700 C701 1.385 . S
C701 H687 0.931 . S
C701 C700 1.385 . S
C701 C702 1.389 . S
C702 C701 1.389 . S
C702 C703 1.387 . S
C703 H688 0.930 . S
C703 C698 1.390 . S
C703 C702 1.387 . S
H704 C716 0.930 . S
H705 C718 0.930 . S
H706 C719 0.930 . S
H707 C723 0.959 . S
H708 C723 0.959 . S
H709 C723 0.961 . S
H710 C724 0.960 . S
H711 C724 0.961 . S
H712 C724 0.959 . S
H713 C727 0.929 . S
H714 C728 0.931 . S
H715 C730 0.930 . S
C716 H704 0.930 . S
C716 C717 1.399 . S
C716 C721 1.399 . S
C717 C716 1.399 . S
C717 C718 1.376 . S
C718 H705 0.930 . S
C718 C717 1.376 . S
C718 C719 1.388 . S
C719 H706 0.930 . S
C719 C718 1.388 . S
C719 C720 1.390 . S
C720 C719 1.390 . S
C720 C721 1.394 . S
C720 C726 1.465 . S
C721 C716 1.399 . S
C721 C720 1.394 . S
C721 C722 1.516 . S
C722 C721 1.516 . S
C722 C723 1.502 . S
C722 C724 1.561 . S
C722 C725 1.526 . S
C723 H707 0.959 . S
C723 H708 0.959 . S
C723 H709 0.961 . S
C723 C722 1.502 . S
C724 H710 0.960 . S
C724 H711 0.961 . S
C724 H712 0.959 . S
C724 C722 1.561 . S
C725 C722 1.526 . S
C725 C726 1.396 . S
C725 C730 1.390 . S
C726 C720 1.465 . S
C726 C725 1.396 . S
C726 C727 1.399 . S
C727 H713 0.929 . S
C727 C726 1.399 . S
C727 C728 1.385 . S
C728 H714 0.931 . S
C728 C727 1.385 . S
C728 C729 1.389 . S
C729 C728 1.389 . S
C729 C730 1.387 . S
C730 H715 0.930 . S
C730 C725 1.390 . S
C730 C729 1.387 . S
H731 C743 0.930 . S
H732 C745 0.930 . S
H733 C746 0.930 . S
H734 C750 0.959 . S
H735 C750 0.959 . S
H736 C750 0.961 . S
H737 C751 0.960 . S
H738 C751 0.961 . S
H739 C751 0.959 . S
H740 C754 0.929 . S
H741 C755 0.931 . S
H742 C757 0.930 . S
C743 H731 0.930 . S
C743 C744 1.399 . S
C743 C748 1.399 . S
C744 C743 1.399 . S
C744 C745 1.376 . S
C745 H732 0.930 . S
C745 C744 1.376 . S
C745 C746 1.388 . S
C746 H733 0.930 . S
C746 C745 1.388 . S
C746 C747 1.390 . S
C747 C746 1.390 . S
C747 C748 1.394 . S
C747 C753 1.465 . S
C748 C743 1.399 . S
C748 C747 1.394 . S
C748 C749 1.516 . S
C749 C748 1.516 . S
C749 C750 1.502 . S
C749 C751 1.561 . S
C749 C752 1.526 . S
C750 H734 0.959 . S
C750 H735 0.959 . S
C750 H736 0.961 . S
C750 C749 1.502 . S
C751 H737 0.960 . S
C751 H738 0.961 . S
C751 H739 0.959 . S
C751 C749 1.561 . S
C752 C749 1.526 . S
C752 C753 1.396 . S
C752 C757 1.390 . S
C753 C747 1.465 . S
C753 C752 1.396 . S
C753 C754 1.399 . S
C754 H740 0.929 . S
C754 C753 1.399 . S
C754 C755 1.385 . S
C755 H741 0.931 . S
C755 C754 1.385 . S
C755 C756 1.389 . S
C756 C755 1.389 . S
C756 C757 1.387 . S
C757 H742 0.930 . S
C757 C752 1.390 . S
C757 C756 1.387 . S
H758 C770 0.930 . S
H759 C772 0.930 . S
H760 C773 0.930 . S
H761 C777 0.959 . S
H762 C777 0.959 . S
H763 C777 0.961 . S
H764 C778 0.960 . S
H765 C778 0.961 . S
H766 C778 0.959 . S
H767 C781 0.929 . S
H768 C782 0.931 . S
H769 C784 0.930 . S
C770 H758 0.930 . S
C770 C771 1.399 . S
C770 C775 1.399 . S
C771 C770 1.399 . S
C771 C772 1.376 . S
C772 H759 0.930 . S
C772 C771 1.376 . S
C772 C773 1.388 . S
C773 H760 0.930 . S
C773 C772 1.388 . S
C773 C774 1.390 . S
C774 C773 1.390 . S
C774 C775 1.394 . S
C774 C780 1.465 . S
C775 C770 1.399 . S
C775 C774 1.394 . S
C775 C776 1.516 . S
C776 C775 1.516 . S
C776 C777 1.502 . S
C776 C778 1.561 . S
C776 C779 1.526 . S
C777 H761 0.959 . S
C777 H762 0.959 . S
C777 H763 0.961 . S
C777 C776 1.502 . S
C778 H764 0.960 . S
C778 H765 0.961 . S
C778 H766 0.959 . S
C778 C776 1.561 . S
C779 C776 1.526 . S
C779 C780 1.396 . S
C779 C784 1.390 . S
C780 C774 1.465 . S
C780 C779 1.396 . S
C780 C781 1.399 . S
C781 H767 0.929 . S
C781 C780 1.399 . S
C781 C782 1.385 . S
C782 H768 0.931 . S
C782 C781 1.385 . S
C782 C783 1.389 . S
C783 C782 1.389 . S
C783 C784 1.387 . S
C784 H769 0.930 . S
C784 C779 1.390 . S
C784 C783 1.387 . S
H785 C797 0.930 . S
H786 C799 0.930 . S
H787 C800 0.930 . S
H788 C804 0.959 . S
H789 C804 0.959 . S
H790 C804 0.961 . S
H791 C805 0.960 . S
H792 C805 0.961 . S
H793 C805 0.959 . S
H794 C808 0.929 . S
H795 C809 0.931 . S
H796 C811 0.930 . S
C797 H785 0.930 . S
C797 C798 1.399 . S
C797 C802 1.399 . S
C798 C797 1.399 . S
C798 C799 1.376 . S
C799 H786 0.930 . S
C799 C798 1.376 . S
C799 C800 1.388 . S
C800 H787 0.930 . S
C800 C799 1.388 . S
C800 C801 1.390 . S
C801 C800 1.390 . S
C801 C802 1.394 . S
C801 C807 1.465 . S
C802 C797 1.399 . S
C802 C801 1.394 . S
C802 C803 1.516 . S
C803 C802 1.516 . S
C803 C804 1.502 . S
C803 C805 1.561 . S
C803 C806 1.526 . S
C804 H788 0.959 . S
C804 H789 0.959 . S
C804 H790 0.961 . S
C804 C803 1.502 . S
C805 H791 0.960 . S
C805 H792 0.961 . S
C805 H793 0.959 . S
C805 C803 1.561 . S
C806 C803 1.526 . S
C806 C807 1.396 . S
C806 C811 1.390 . S
C807 C801 1.465 . S
C807 C806 1.396 . S
C807 C808 1.399 . S
C808 H794 0.929 . S
C808 C807 1.399 . S
C808 C809 1.385 . S
C809 H795 0.931 . S
C809 C808 1.385 . S
C809 C810 1.389 . S
C810 C809 1.389 . S
C810 C811 1.387 . S
C811 H796 0.930 . S
C811 C806 1.390 . S
C811 C810 1.387 . S
C285 C209 0.319 . S
C297 C9 0.523 . S
C312 C243 0.355 . S
C324 C43 0.414 . S
C339 C141 0.272 . S
C351 C77 0.490 . S
C366 C175 0.355 . S
C378 C111 0.418 . S
C393 C73 0.237 . S
C405 C145 0.540 . S
C420 C107 0.345 . S
C432 C179 0.458 . S
C447 C5 0.310 . S
C459 C213 0.541 . S
C474 C247 0.579 . S
C486 C39 0.210 . S
C501 C101 2.786 . S
C513 C33 2.791 . S
C528 C67 2.786 . S
C540 C135 2.800 . S
C555 C237 2.785 . S
C567 C169 2.793 . S
C582 C203 2.785 . S
C594 C271 2.793 . S
C609 C20 1.705 . S
C621 C258 1.732 . S
C636 C156 1.705 . S
C648 C54 1.731 . S
C663 C190 1.726 . S
C675 C88 1.730 . S
C690 C224 1.735 . S
C702 C122 1.713 . S
C717 C70 2.106 . S
C729 C172 2.086 . S
C744 C104 2.074 . S
C756 C206 2.112 . S
C771 C240 2.110 . S
C783 C2 2.075 . S
C798 C138 2.105 . S
C810 C36 2.087 . S
