# Generated by pormake.
# Topology lhb, (8)-cn, num edge types: 1
# Building blocks:
#     Node 0, Type 0, BuildingBlock: LIZSOE_clean_sbu_0, # of connection points: 8
#     Node 1, Type 0, BuildingBlock: LIZSOE_clean_sbu_0, # of connection points: 8
#     Node 2, Type 0, BuildingBlock: LIZSOE_clean_sbu_0, # of connection points: 8
#     Node 3, Type 0, BuildingBlock: LIZSOE_clean_sbu_0, # of connection points: 8
#     Node 4, Type 0, BuildingBlock: LIZSOE_clean_sbu_0, # of connection points: 8
#     Node 5, Type 0, BuildingBlock: LIZSOE_clean_sbu_0, # of connection points: 8
#     Node 6, Type 0, BuildingBlock: LIZSOE_clean_sbu_0, # of connection points: 8
#     Node 7, Type 0, BuildingBlock: LIZSOE_clean_sbu_0, # of connection points: 8
#     Edge 8, Type (0, 0), BuildingBlock: XUDNAN_clean_linker_2, # of connection points: 2
#     Edge 9, Type (0, 0), BuildingBlock: XUDNAN_clean_linker_2, # of connection points: 2
#     Edge 10, Type (0, 0), BuildingBlock: XUDNAN_clean_linker_2, # of connection points: 2
#     Edge 11, Type (0, 0), BuildingBlock: XUDNAN_clean_linker_2, # of connection points: 2
#     Edge 12, Type (0, 0), BuildingBlock: XUDNAN_clean_linker_2, # of connection points: 2
#     Edge 13, Type (0, 0), BuildingBlock: XUDNAN_clean_linker_2, # of connection points: 2
#     Edge 14, Type (0, 0), BuildingBlock: XUDNAN_clean_linker_2, # of connection points: 2
#     Edge 15, Type (0, 0), BuildingBlock: XUDNAN_clean_linker_2, # of connection points: 2
#     Edge 16, Type (0, 0), BuildingBlock: XUDNAN_clean_linker_2, # of connection points: 2
#     Edge 17, Type (0, 0), BuildingBlock: XUDNAN_clean_linker_2, # of connection points: 2
#     Edge 18, Type (0, 0), BuildingBlock: XUDNAN_clean_linker_2, # of connection points: 2
#     Edge 19, Type (0, 0), BuildingBlock: XUDNAN_clean_linker_2, # of connection points: 2
#     Edge 20, Type (0, 0), BuildingBlock: XUDNAN_clean_linker_2, # of connection points: 2
#     Edge 21, Type (0, 0), BuildingBlock: XUDNAN_clean_linker_2, # of connection points: 2
#     Edge 22, Type (0, 0), BuildingBlock: XUDNAN_clean_linker_2, # of connection points: 2
#     Edge 23, Type (0, 0), BuildingBlock: XUDNAN_clean_linker_2, # of connection points: 2
#     Edge 24, Type (0, 0), BuildingBlock: XUDNAN_clean_linker_2, # of connection points: 2
#     Edge 25, Type (0, 0), BuildingBlock: XUDNAN_clean_linker_2, # of connection points: 2
#     Edge 26, Type (0, 0), BuildingBlock: XUDNAN_clean_linker_2, # of connection points: 2
#     Edge 27, Type (0, 0), BuildingBlock: XUDNAN_clean_linker_2, # of connection points: 2
#     Edge 28, Type (0, 0), BuildingBlock: XUDNAN_clean_linker_2, # of connection points: 2
#     Edge 29, Type (0, 0), BuildingBlock: XUDNAN_clean_linker_2, # of connection points: 2
#     Edge 30, Type (0, 0), BuildingBlock: XUDNAN_clean_linker_2, # of connection points: 2
#     Edge 31, Type (0, 0), BuildingBlock: XUDNAN_clean_linker_2, # of connection points: 2
#     Edge 32, Type (0, 0), BuildingBlock: XUDNAN_clean_linker_2, # of connection points: 2
#     Edge 33, Type (0, 0), BuildingBlock: XUDNAN_clean_linker_2, # of connection points: 2
#     Edge 34, Type (0, 0), BuildingBlock: XUDNAN_clean_linker_2, # of connection points: 2
#     Edge 35, Type (0, 0), BuildingBlock: XUDNAN_clean_linker_2, # of connection points: 2
#     Edge 36, Type (0, 0), BuildingBlock: XUDNAN_clean_linker_2, # of connection points: 2
#     Edge 37, Type (0, 0), BuildingBlock: XUDNAN_clean_linker_2, # of connection points: 2
#     Edge 38, Type (0, 0), BuildingBlock: XUDNAN_clean_linker_2, # of connection points: 2
#     Edge 39, Type (0, 0), BuildingBlock: XUDNAN_clean_linker_2, # of connection points: 2
# Relax obj value: 0.117
# Max RMSD: 0.213
# Mean RMSD: 0.213
data_MOF--net-lhb--node1-LIZSOE_clean_sbu_0--edge1-XUDNAN_clean_linker_2
_symmetry_space_group_name_H-M    P1
_symmetry_Int_Tables_number       1
_symmetry_cell_setting            triclinic
loop_
_symmetry_equiv_pos_as_xyz
'x, y, z'
_cell_length_a     43.261835
_cell_length_b     15.442056
_cell_length_c     43.182012
_cell_angle_alpha  90.284799
_cell_angle_beta   89.841444
_cell_angle_gamma 89.575562
loop_
_atom_site_label
_atom_site_type_symbol
_atom_site_fract_x
_atom_site_fract_y
_atom_site_fract_z
_atom_type_partial_charge
Co0 Co 0.06308 0.21025 1.01874 0.0
N1 N 0.10057 0.2553 1.00788 0.0
C2 C 0.11373 0.25204 0.97952 0.0
N3 N 0.14723 0.31584 1.01016 0.0
C4 C 0.12103 0.29724 1.02575 0.0
C5 C 0.14256 0.2879 0.98102 0.0
Co6 Co 0.95926 0.91733 1.01222 0.0
N7 N 0.91874 0.89531 1.00435 0.0
N8 N 0.87515 0.82949 0.99073 0.0
C9 C 0.87012 0.91552 0.99037 0.0
C10 C 0.89689 0.9558 0.99856 0.0
C11 C 0.90475 0.81879 0.99965 0.0
Co12 Co 1.01312 0.05583 1.02615 0.0
C13 C 0.99112 0.86777 0.04149 0.0
H14 H 0.9001 1.02498 1.0004 0.0
O15 O 0.02565 0.18132 0.02821 0.0
O16 O 0.98417 0.06972 0.06381 0.0
O17 O 0.04938 1.03206 0.05812 0.0
O18 O 0.03986 1.02121 0.9889 0.0
O19 O 0.07672 0.11256 0.99566 0.0
O20 O 0.94546 1.01204 0.03832 0.0
O21 O 0.99967 0.9288 1.02187 0.0
O22 O 0.95895 0.98602 0.97574 0.0
O23 O 0.07848 0.15447 0.05355 0.0
O24 O 0.04412 0.25274 0.98611 0.0
O25 O 0.97972 0.10175 0.99616 0.0
O26 O 0.96179 0.8546 0.0458 0.0
C27 C 0.07198 0.0834 0.06733 0.0
C28 C 0.92009 0.73306 1.00495 0.0
H29 H 0.91693 0.71461 0.02955 0.0
H30 H 0.90962 0.68229 0.99011 0.0
H31 H 0.94522 0.73764 1.00017 0.0
C32 C 0.95641 0.03993 0.06371 0.0
C33 C 0.06728 0.04422 0.98327 0.0
H34 H 0.10366 0.22138 0.95939 0.0
H35 H 0.13124 0.3747 0.06623 0.0
H36 H 0.11417 0.27067 0.07395 0.0
H37 H 0.0905 0.35546 0.05905 0.0
C38 C 0.11407 0.32661 0.05814 0.0
C39 C 0.02395 0.24667 1.00843 0.0
C40 C 0.96264 0.06708 0.97546 0.0
H41 H 0.15994 0.28592 0.96292 0.0
H42 H 0.84795 0.9466 0.9865 0.0
Co43 Co 0.20977 0.42619 0.2762 0.0
N44 N 0.16984 0.46466 0.27586 0.0
C45 C 0.15637 0.48824 0.24905 0.0
N46 N 0.12195 0.51196 0.28562 0.0
C47 C 0.14839 0.48132 0.29792 0.0
C48 C 0.12686 0.51683 0.25493 0.0
Co49 Co 0.32471 0.1385 0.26843 0.0
N50 N 0.36535 0.10822 0.26353 0.0
N51 N 0.41538 0.10767 0.25078 0.0
C52 C 0.40333 1.03158 0.24191 0.0
C53 C 0.37259 1.03209 0.24984 0.0
C54 C 0.39211 0.15331 0.26399 0.0
Co55 Co 0.26669 0.27933 0.27896 0.0
C56 C 0.28831 0.08451 0.2913 0.0
H57 H 0.35601 0.98218 0.24441 0.0
O58 O 0.2498 0.40331 0.27757 0.0
O59 O 0.29858 0.30842 0.31336 0.0
O60 O 0.23623 0.24582 0.31455 0.0
O61 O 0.23567 0.23923 0.24593 0.0
O62 O 0.19812 0.33778 0.24766 0.0
O63 O 0.33471 0.20944 0.30164 0.0
O64 O 0.28402 0.15494 0.27427 0.0
O65 O 0.33156 0.22568 0.23898 0.0
O66 O 0.20157 0.35307 0.30906 0.0
O67 O 0.2224 0.50335 0.30331 0.0
O68 O 0.29524 0.32533 0.24461 0.0
O69 O 0.31662 0.05997 0.29625 0.0
C70 C 0.21161 0.28793 0.32363 0.0
C71 C 0.39541 0.24482 0.27561 0.0
H72 H 0.3987 0.24334 0.30106 0.0
H73 H 0.37475 0.28469 0.27057 0.0
H74 H 0.41574 0.27685 0.26511 0.0
C75 C 0.32459 0.26931 0.31903 0.0
C76 C 0.20913 0.26723 0.2371 0.0
H77 H 0.16738 0.48396 0.22656 0.0
H78 H 0.13819 0.51682 0.34502 0.0
H79 H 0.1474 0.40495 0.33851 0.0
H80 H 0.17779 0.48397 0.33835 0.0
C81 C 0.15349 0.47171 0.33194 0.0
C82 C 0.24931 0.47438 0.29486 0.0
C83 C 0.32002 0.29783 0.2314 0.0
H84 H 0.10992 0.53685 0.23794 0.0
H85 H 0.41582 0.98023 0.23001 0.0
Co86 Co 0.70305 0.90032 0.26823 0.0
N87 N 0.66225 0.9282 0.27063 0.0
C88 C 0.63855 0.88262 0.28249 0.0
N89 N 0.61923 1.00738 0.26704 0.0
C90 C 0.64976 1.00345 0.26103 0.0
C91 C 0.61205 0.93155 0.28042 0.0
Co92 Co 0.82173 0.62225 0.26394 0.0
N93 N 0.86237 0.58916 0.26236 0.0
N94 N 0.91131 0.55171 0.27157 0.0
C95 C 0.90767 0.55736 0.24077 0.0
C96 C 0.87739 0.57883 0.23516 0.0
C97 C 0.88363 0.57048 0.28428 0.0
Co98 Co 0.76302 0.76309 0.27086 0.0
C99 C 0.78322 0.56816 0.28311 0.0
H100 H 0.86712 0.58909 0.21265 0.0
O101 O 0.74417 0.88595 0.26812 0.0
O102 O 0.79427 0.79698 0.30552 0.0
O103 O 0.73377 0.72727 0.30705 0.0
O104 O 0.73268 0.71888 0.23786 0.0
O105 O 0.69258 0.80912 0.23999 0.0
O106 O 0.82945 0.69215 0.2982 0.0
O107 O 0.78125 0.64049 0.26681 0.0
O108 O 0.83139 0.71517 0.23652 0.0
O109 O 0.69823 0.8305 0.30179 0.0
O110 O 0.71468 0.98052 0.29458 0.0
O111 O 0.79219 0.80854 0.2367 0.0
O112 O 0.81074 0.54015 0.28956 0.0
C113 C 0.70927 0.76806 0.31671 0.0
C114 C 0.87823 0.57583 0.31855 0.0
H115 H 0.85378 0.56542 0.3248 0.0
H116 H 0.88558 0.64045 0.32683 0.0
H117 H 0.89245 0.52696 0.33074 0.0
C118 C 0.81904 0.75524 0.31388 0.0
C119 C 0.7053 0.74081 0.22924 0.0
H120 H 0.64036 0.81805 0.29195 0.0
H121 H 0.65598 0.10502 0.22748 0.0
H122 H 0.67196 0.12595 0.265 0.0
H123 H 0.69126 0.05038 0.23928 0.0
C124 C 0.66837 0.07501 0.24717 0.0
C125 C 0.74206 0.95714 0.28536 0.0
C126 C 0.81894 0.78432 0.22669 0.0
H127 H 0.58906 0.91234 0.28748 0.0
H128 H 0.92589 0.54955 0.22373 0.0
Co129 Co 0.06819 0.6908 0.50431 0.0
N130 N 0.10612 0.72687 0.4906 0.0
C131 C 0.11299 0.72088 0.46012 0.0
N132 N 0.15342 0.77936 0.48213 0.0
C133 C 0.13082 0.76611 0.50325 0.0
C134 C 0.14213 0.75107 0.45499 0.0
Co135 Co 0.95745 0.39998 0.52124 0.0
N136 N 0.91781 0.36231 0.51852 0.0
N137 N 0.86985 0.31513 0.52575 0.0
C138 C 0.87658 0.3066 0.49552 0.0
C139 C 0.90623 0.3349 0.4912 0.0
C140 C 0.89525 0.34736 0.53937 0.0
Co141 Co 1.01402 0.54621 0.52462 0.0
C142 C 0.99516 0.35442 0.54509 0.0
H143 H 0.91861 0.33624 0.46941 0.0
O144 O 0.0294 0.6707 0.5178 0.0
O145 O 0.98444 0.57906 0.56098 0.0
O146 O 0.04973 0.52986 0.55706 0.0
O147 O 0.0408 0.49272 0.49002 0.0
O148 O 0.07617 0.58943 0.48199 0.0
O149 O 0.94627 0.48415 0.55191 0.0
O150 O 0.99848 0.42006 0.52553 0.0
O151 O 0.94781 0.47893 0.48874 0.0
O152 O 0.08341 0.63339 0.54103 0.0
O153 O 0.06073 0.78369 0.52564 0.0
O154 O 0.98205 0.58285 0.49225 0.0
O155 O 0.96731 0.3307 0.5514 0.0
C156 C 0.07509 0.57545 0.5607 0.0
C157 C 0.89789 0.36206 0.57354 0.0
H158 H 0.92192 0.35853 0.58195 0.0
H159 H 0.8886 0.42724 0.57842 0.0
H160 H 0.88372 0.31462 0.58645 0.0
C161 C 0.95788 0.54478 0.56816 0.0
C162 C 0.06581 0.5153 0.47687 0.0
H163 H 0.09788 0.69401 0.44268 0.0
H164 H 0.13228 0.86787 0.53672 0.0
H165 H 0.15434 0.77306 0.54636 0.0
H166 H 0.11241 0.774 0.54989 0.0
C167 C 0.13235 0.79608 0.5361 0.0
C168 C 0.03413 0.74868 0.53029 0.0
C169 C 0.9577 0.55158 0.47998 0.0
H170 H 0.15473 0.74865 0.43329 0.0
H171 H 0.86078 0.28449 0.47781 0.0
Co172 Co 0.20539 0.92938 0.77275 0.0
N173 N 0.16561 0.96272 0.76399 0.0
C174 C 0.14222 0.91812 0.75092 0.0
N175 N 0.12377 0.04776 0.76197 0.0
C176 C 0.1535 0.04111 0.77092 0.0
C177 C 0.11655 0.97039 0.74966 0.0
Co178 Co 0.32148 0.64682 0.77635 0.0
N179 N 0.3626 0.61985 0.77745 0.0
N180 N 0.4075 0.55277 0.76836 0.0
C181 C 0.41342 0.62984 0.78164 0.0
C182 C 0.38583 0.67102 0.78722 0.0
C183 C 0.3765 0.54816 0.76599 0.0
Co184 Co 0.26225 0.7875 0.78121 0.0
C185 C 0.2829 0.59313 0.79563 0.0
H186 H 0.38307 0.7358 0.7965 0.0
O187 O 0.24453 0.91117 0.78122 0.0
O188 O 0.29135 0.82036 0.81768 0.0
O189 O 0.22878 0.75861 0.81486 0.0
O190 O 0.2353 0.74057 0.74636 0.0
O191 O 0.19906 0.83853 0.74379 0.0
O192 O 0.32724 0.71891 0.80982 0.0
O193 O 0.28016 0.66269 0.77785 0.0
O194 O 0.33128 0.73549 0.74764 0.0
O195 O 0.192 0.86087 0.80535 0.0
O196 O 0.22233 0.99035 0.74311 0.0
O197 O 0.29332 0.83254 0.749 0.0
O198 O 0.31058 0.56737 0.80276 0.0
C199 C 0.20274 0.79889 0.82168 0.0
C200 C 0.35947 0.47629 0.75032 0.0
H201 H 0.33467 0.49329 0.74748 0.0
H202 H 0.36153 0.41676 0.76448 0.0
H203 H 0.37006 0.46233 0.72738 0.0
C204 C 0.31662 0.78095 0.82562 0.0
C205 C 0.21034 0.76796 0.73448 0.0
H206 H 0.14313 0.85097 0.74376 0.0
H207 H 0.18639 0.14331 0.77115 0.0
H208 H 0.15526 0.15845 0.79856 0.0
H209 H 0.18584 0.07976 0.80578 0.0
C210 C 0.17103 0.10987 0.7878 0.0
C211 C 0.24527 0.97858 0.76218 0.0
C212 C 0.31954 0.80624 0.73854 0.0
H213 H 0.09373 0.95157 0.74203 0.0
H214 H 0.43624 0.65588 0.78572 0.0
Co215 Co 0.82511 0.14046 0.77148 0.0
N216 N 0.86663 0.11689 0.77508 0.0
C217 C 0.87841 0.03748 0.7691 0.0
N218 N 0.91803 0.12122 0.77917 0.0
C219 C 0.89153 0.167 0.78129 0.0
C220 C 0.91005 0.03986 0.77169 0.0
Co221 Co 0.70558 0.41289 0.75477 0.0
N222 N 0.66543 0.43758 0.74462 0.0
N223 N 0.61512 0.43211 0.73282 0.0
C224 C 0.63071 0.45948 0.70777 0.0
C225 C 0.66137 0.46301 0.71512 0.0
C226 C 0.63665 0.42096 0.75529 0.0
Co227 Co 0.76541 0.2797 0.77036 0.0
C228 C 0.73945 0.47719 0.77851 0.0
H229 H 0.68004 0.47748 0.69929 0.0
O230 O 0.78382 0.15357 0.77054 0.0
O231 O 0.73119 0.25172 0.80295 0.0
O232 O 0.79235 0.31937 0.80808 0.0
O233 O 0.7982 0.32353 0.73847 0.0
O234 O 0.83523 0.22618 0.74293 0.0
O235 O 0.69484 0.35222 0.79127 0.0
O236 O 0.7461 0.40195 0.76456 0.0
O237 O 0.70022 0.31278 0.7313 0.0
O238 O 0.82765 0.21477 0.80408 0.0
O239 O 0.81389 0.0623 0.79789 0.0
O240 O 0.74008 0.22565 0.73468 0.0
O241 O 0.71118 0.5053 0.777 0.0
C242 C 0.81647 0.27851 0.81857 0.0
C243 C 0.62954 0.39863 0.78829 0.0
H244 H 0.63157 0.32755 0.7912 0.0
H245 H 0.60577 0.41926 0.79475 0.0
H246 H 0.64599 0.43102 0.80415 0.0
C247 C 0.70549 0.29347 0.80904 0.0
C248 C 0.8253 0.29551 0.73099 0.0
H249 H 0.86477 0.98187 0.76261 0.0
H250 H 0.88836 0.26229 0.81701 0.0
H251 H 0.91168 0.29533 0.78528 0.0
H252 H 0.87057 0.29597 0.78132 0.0
C253 C 0.8903 0.26043 0.79144 0.0
C254 C 0.78638 0.08532 0.78924 0.0
C255 C 0.71335 0.24318 0.72364 0.0
H256 H 0.92607 0.98692 0.76741 0.0
H257 H 0.62071 0.47262 0.6853 0.0
Co258 Co 0.57106 0.14933 0.52149 0.0
N259 N 0.61043 0.18897 0.51932 0.0
C260 C 0.62213 0.21521 0.49194 0.0
N261 N 0.65796 0.23845 0.52653 0.0
C262 C 0.63283 0.20514 0.54018 0.0
C263 C 0.65164 0.2444 0.49623 0.0
Co264 Co 0.46167 0.85537 0.50858 0.0
N265 N 0.42308 0.81659 0.49774 0.0
N266 N 0.3746 0.76938 0.49349 0.0
C267 C 0.38453 0.7909 0.46513 0.0
C268 C 0.41443 0.81766 0.46768 0.0
C269 C 0.39868 0.78244 0.51269 0.0
Co270 Co 0.51566 1.00159 0.5253 0.0
C271 C 0.49715 0.8038 0.53402 0.0
H272 H 0.4287 0.83974 0.44874 0.0
O273 O 0.5311 0.12634 0.52489 0.0
O274 O 0.48112 1.02254 0.55875 0.0
O275 O 0.54607 0.96852 0.5609 0.0
O276 O 0.5472 0.96438 0.4925 0.0
O277 O 0.58188 0.06784 0.48936 0.0
O278 O 0.44675 0.9216 0.5434 0.0
O279 O 0.50067 0.87752 0.51888 0.0
O280 O 0.45408 0.95008 0.482 0.0
O281 O 0.58185 0.06999 0.55217 0.0
O282 O 0.55962 0.21968 0.55182 0.0
O283 O 0.48794 0.05133 0.49125 0.0
O284 O 0.46968 0.77127 0.5343 0.0
C285 C 0.57187 1.00696 0.56788 0.0
C286 C 0.40006 0.74451 0.54438 0.0
H287 H 0.41889 0.77218 0.55839 0.0
H288 H 0.37743 0.75259 0.55609 0.0
H289 H 0.40443 0.67385 0.54213 0.0
C290 C 0.45528 0.98019 0.56267 0.0
C291 C 0.57184 0.99493 0.48051 0.0
H292 H 0.60993 0.2123 0.47013 0.0
H293 H 0.63829 0.11785 0.57751 0.0
H294 H 0.60708 0.19478 0.58283 0.0
H295 H 0.64673 0.22765 0.58743 0.0
C296 C 0.63089 0.18579 0.57401 0.0
C297 C 0.53241 0.19543 0.5431 0.0
C298 C 0.46417 1.0248 0.47674 0.0
H299 H 0.66747 0.2667 0.47857 0.0
H300 H 0.37038 0.79346 0.44449 0.0
Co301 Co 0.57473 0.65044 1.02646 0.0
N302 N 0.61577 0.67121 0.0333 0.0
C303 C 0.62929 0.66607 0.06135 0.0
N304 N 0.66677 0.68464 0.02777 0.0
C305 C 0.63907 0.68585 1.01326 0.0
C306 C 0.66042 0.67242 0.05797 0.0
Co307 Co 0.455 0.38291 1.01471 0.0
N308 N 0.41422 0.35529 1.01062 0.0
N309 N 0.36364 0.33218 1.01482 0.0
C310 C 0.37084 0.33322 0.98457 0.0
C311 C 0.40203 0.34591 0.98209 0.0
C312 C 0.39025 0.3444 0.03033 0.0
Co313 Co 0.51428 0.51727 1.02475 0.0
C314 C 0.49196 0.32357 0.03504 0.0
H315 H 0.41498 0.35147 0.96073 0.0
O316 O 0.53376 0.63974 1.02361 0.0
O317 O 0.48246 0.55042 0.05908 0.0
O318 O 0.5417 0.47225 0.06098 0.0
O319 O 0.54536 0.47578 0.99161 0.0
O320 O 0.58592 0.56308 0.99583 0.0
O321 O 0.44647 0.45052 0.04965 0.0
O322 O 0.4954 0.39642 1.01927 0.0
O323 O 0.44747 0.4784 0.98863 0.0
O324 O 0.57679 0.57329 0.0575 0.0
O325 O 0.56171 0.72684 0.05413 0.0
O326 O 0.48657 0.56934 0.99071 0.0
O327 O 0.46393 0.29714 0.0396 0.0
C328 C 0.56609 0.50966 0.07137 0.0
C329 C 0.39245 0.34967 0.06493 0.0
H330 H 0.41556 0.32857 0.07301 0.0
H331 H 0.38815 0.41754 0.07227 0.0
H332 H 0.37472 0.30904 0.07618 0.0
C333 C 0.45705 0.51104 0.06628 0.0
C334 C 0.57284 0.49779 0.98336 0.0
H335 H 0.61738 0.65616 0.083 0.0
H336 H 0.63853 0.66019 0.96428 0.0
H337 H 0.64968 0.76777 0.97463 0.0
H338 H 0.60946 0.73545 0.97736 0.0
C339 C 0.63381 0.71412 0.98053 0.0
C340 C 0.53513 0.70885 0.04191 0.0
C341 C 0.45994 0.54821 0.98013 0.0
H342 H 0.67723 0.66669 0.0764 0.0
H343 H 0.35452 0.32736 0.96572 0.0
H344 H 0.13337 0.11991 0.07549 0.0
H345 H 0.05376 1.02777 0.12611 0.0
H346 H 0.08205 0.05166 0.17551 0.0
H347 H 0.19559 0.04082 0.1271 0.0
H348 H 0.21777 0.13772 0.12109 0.0
H349 H 0.1921 0.09912 0.09128 0.0
H350 H 0.15009 0.29367 0.12913 0.0
H351 H 0.16381 0.25295 0.0928 0.0
H352 H 0.19109 0.28555 0.12163 0.0
H353 H 0.11758 0.11153 0.22052 0.0
H354 H 0.15623 0.18428 0.25388 0.0
H355 H 0.21306 0.2347 0.17356 0.0
C356 C 0.12213 0.10172 0.0969 0.0
C357 C 0.09121 0.0697 0.09638 0.0
C358 C 0.0775 0.04936 0.1253 0.0
C359 C 0.09341 0.06429 0.15366 0.0
C360 C 0.12328 0.09981 0.15314 0.0
C361 C 0.13751 0.11736 0.12526 0.0
C362 C 0.16864 0.16112 0.13056 0.0
C363 C 0.19512 0.10652 0.11668 0.0
C364 C 0.16845 0.25378 0.11779 0.0
C365 C 0.1704 0.16435 0.16564 0.0
C366 C 0.14375 0.13026 0.17844 0.0
C367 C 0.13867 0.13606 0.21041 0.0
C368 C 0.16088 0.17772 0.22931 0.0
C369 C 0.18838 0.21309 0.21669 0.0
C370 C 0.19307 0.20542 0.18429 0.0
H371 H 0.90262 0.94515 0.06914 0.0
H372 H 0.96753 0.0886 0.12552 0.0
H373 H 0.93797 0.04645 0.17258 0.0
H374 H 0.83324 0.99139 0.11439 0.0
H375 H 0.81767 0.88487 0.10837 0.0
H376 H 0.84296 0.93186 0.07971 0.0
H377 H 0.87902 0.79765 0.08313 0.0
H378 H 0.85425 0.75049 0.112 0.0
H379 H 0.89457 0.76689 0.12017 0.0
H380 H 0.90019 0.98216 0.21471 0.0
H381 H 0.86189 0.901 0.24579 0.0
H382 H 0.82303 0.79436 0.16176 0.0
C383 C 0.91062 0.96939 0.09124 0.0
C384 C 0.93757 1.02234 0.093 0.0
C385 C 0.94699 0.0496 0.12296 0.0
C386 C 0.93023 1.02541 0.14998 0.0
C387 C 0.90399 0.97269 0.14718 0.0
C388 C 0.89447 0.94483 0.11837 0.0
C389 C 0.86648 0.88559 0.12126 0.0
C390 C 0.8384 0.92574 0.10493 0.0
C391 C 0.87401 0.7948 0.10836 0.0
C392 C 0.86145 0.88344 0.15624 0.0
C393 C 0.88317 0.93487 0.17085 0.0
C394 C 0.88317 0.94251 0.20317 0.0
C395 C 0.86104 0.8964 0.22077 0.0
C396 C 0.83867 0.84251 0.20652 0.0
C397 C 0.83913 0.83636 0.17359 0.0
H398 H 0.12835 0.52199 0.46359 0.0
H399 H 0.04686 0.37118 0.44272 0.0
H400 H 0.07822 0.27922 0.40694 0.0
H401 H 0.1606 0.53196 0.39326 0.0
H402 H 0.20077 0.51296 0.40225 0.0
H403 H 0.17513 0.55964 0.43071 0.0
H404 H 0.1855 0.44416 0.47056 0.0
H405 H 0.21392 0.39691 0.44482 0.0
H406 H 0.18324 0.33122 0.46016 0.0
H407 H 0.11895 0.2106 0.36908 0.0
H408 H 0.1617 0.18244 0.33202 0.0
H409 H 0.21722 0.37373 0.37894 0.0
C410 C 0.11698 0.46917 0.45173 0.0
C411 C 0.08469 0.45493 0.4561 0.0
C412 C 0.07129 0.38417 0.44007 0.0
C413 C 0.08911 0.33122 0.41966 0.0
C414 C 0.12079 0.34751 0.41585 0.0
C415 C 0.13461 0.41451 0.43187 0.0
C416 C 0.16885 0.42032 0.42341 0.0
C417 C 0.17684 0.51137 0.41161 0.0
C418 C 0.18906 0.39673 0.45141 0.0
C419 C 0.17174 0.35071 0.3982 0.0
C420 C 0.14405 0.30728 0.39494 0.0
C421 C 0.14083 0.24305 0.37212 0.0
C422 C 0.16564 0.22588 0.35136 0.0
C423 C 0.19383 0.27208 0.35312 0.0
C424 C 0.19687 0.33344 0.37776 0.0
H425 H 0.81314 0.65879 0.3665 0.0
H426 H 0.86715 0.86503 0.32686 0.0
H427 H 0.90756 0.84077 0.36658 0.0
H428 H 0.83767 0.69652 0.45005 0.0
H429 H 0.83802 0.58215 0.45815 0.0
H430 H 0.81124 0.62569 0.43023 0.0
H431 H 0.83271 0.51928 0.38771 0.0
H432 H 0.8574 0.475 0.41724 0.0
H433 H 0.87398 0.51344 0.38181 0.0
H434 H 0.94591 0.77969 0.40781 0.0
H435 H 0.97558 0.69623 0.44673 0.0
H436 H 0.89757 0.52469 0.45848 0.0
C437 C 0.83258 0.70253 0.36737 0.0
C438 C 0.83582 0.76754 0.34419 0.0
C439 C 0.86296 0.81847 0.34504 0.0
C440 C 0.88645 0.8037 0.36734 0.0
C441 C 0.88301 0.73682 0.38894 0.0
C442 C 0.85638 0.68785 0.38938 0.0
C443 C 0.85904 0.61634 0.4137 0.0
C444 C 0.83507 0.63106 0.43957 0.0
C445 C 0.85553 0.5258 0.39918 0.0
C446 C 0.89182 0.62971 0.42581 0.0
C447 C 0.90512 0.70045 0.41165 0.0
C448 C 0.9354 0.72465 0.419 0.0
C449 C 0.95227 0.67633 0.44123 0.0
C450 C 0.93942 0.6027 0.45594 0.0
C451 C 0.90855 0.57985 0.4478 0.0
H452 H 0.13165 0.65161 0.57089 0.0
H453 H 0.064 0.49651 0.61877 0.0
H454 H 0.09376 0.51678 0.66765 0.0
H455 H 0.19995 0.60857 0.61082 0.0
H456 H 0.21273 0.7193 0.61276 0.0
H457 H 0.18809 0.68477 0.5816 0.0
H458 H 0.14711 0.80617 0.59682 0.0
H459 H 0.17356 0.84054 0.62618 0.0
H460 H 0.13438 0.81304 0.63617 0.0
H461 H 0.13186 0.56598 0.71353 0.0
H462 H 0.16911 0.63965 0.74841 0.0
H463 H 0.20658 0.77852 0.67038 0.0
C464 C 0.12234 0.62335 0.59156 0.0
C465 C 0.09473 0.57322 0.59024 0.0
C466 C 0.08499 0.53424 0.61834 0.0
C467 C 0.10177 0.54643 0.64647 0.0
C468 C 0.12802 0.59999 0.6468 0.0
C469 C 0.13766 0.6392 0.61987 0.0
C470 C 0.16437 0.70099 0.62619 0.0
C471 C 0.19297 0.67696 0.60668 0.0
C472 C 0.1543 0.7956 0.62098 0.0
C473 C 0.17003 0.68672 0.66046 0.0
C474 C 0.14866 0.62907 0.67229 0.0
C475 C 0.14856 0.61048 0.70403 0.0
C476 C 0.17003 0.65248 0.72379 0.0
C477 C 0.19157 0.7135 0.71224 0.0
C478 C 0.19128 0.73037 0.67999 0.0
H479 H 0.81813 0.43645 0.68692 0.0
H480 H 0.88692 0.26361 0.7266 0.0
H481 H 0.92736 0.33429 0.69742 0.0
H482 H 0.84723 0.42388 0.61387 0.0
H483 H 0.84414 0.53455 0.6004 0.0
H484 H 0.81827 0.49492 0.62972 0.0
H485 H 0.83249 0.6085 0.66923 0.0
H486 H 0.85651 0.65911 0.64039 0.0
H487 H 0.87249 0.63031 0.67747 0.0
H488 H 0.96237 0.41994 0.66418 0.0
H489 H 0.98691 0.48566 0.61867 0.0
H490 H 0.89821 0.5912 0.59084 0.0
C491 C 0.84174 0.41458 0.68995 0.0
C492 C 0.84859 0.34484 0.71074 0.0
C493 C 0.88014 0.31775 0.71239 0.0
C494 C 0.90384 0.35799 0.69565 0.0
C495 C 0.89657 0.42585 0.67594 0.0
C496 C 0.86628 0.45327 0.6723 0.0
C497 C 0.86521 0.52036 0.64608 0.0
C498 C 0.84243 0.49183 0.62093 0.0
C499 C 0.85612 0.60987 0.65907 0.0
C500 C 0.89909 0.5209 0.6345 0.0
C501 C 0.91681 0.46953 0.65362 0.0
C502 C 0.94868 0.46024 0.64896 0.0
C503 C 0.96271 0.49962 0.62314 0.0
C504 C 0.94513 0.54578 0.60096 0.0
C505 C 0.91281 0.55887 0.60757 0.0
H506 H 0.14001 0.79804 0.8334 0.0
H507 H 0.22848 0.80177 0.87987 0.0
H508 H 0.20257 0.85434 0.92772 0.0
H509 H 0.11135 0.98482 0.86293 0.0
H510 H 0.07184 0.95275 0.86876 0.0
H511 H 0.09511 0.89928 0.83958 0.0
H512 H 0.08501 0.75034 0.86381 0.0
H513 H 0.0602 0.80196 0.89212 0.0
H514 H 0.09196 0.73455 0.90455 0.0
H515 H 0.1679 0.93653 0.96712 0.0
H516 H 0.1278 1.01616 0.99666 0.0
H517 H 0.0599 0.95117 0.92691 0.0
C518 C 0.15376 0.80473 0.85419 0.0
C519 C 0.18653 0.79244 0.8527 0.0
C520 C 0.2035 0.80679 0.88028 0.0
C521 C 0.18886 0.83838 0.90759 0.0
C522 C 0.15685 0.854 0.90762 0.0
C523 C 0.13935 0.83463 0.88187 0.0
C524 C 0.10565 0.86184 0.88721 0.0
C525 C 0.09541 0.92865 0.86312 0.0
C526 C 0.08445 0.78244 0.8869 0.0
C527 C 0.10686 0.90272 0.91944 0.0
C528 C 0.13675 0.89776 0.93074 0.0
C529 C 0.14439 0.9383 0.95864 0.0
C530 C 0.12128 0.98408 0.9753 0.0
C531 C 0.09021 0.9894 0.96474 0.0
C532 C 0.08303 0.94691 0.93632 0.0
H533 H 0.82044 0.15009 0.8596 0.0
H534 H 0.84943 0.41476 0.84679 0.0
H535 H 0.88934 0.39392 0.88775 0.0
H536 H 0.83902 0.1135 0.94179 0.0
H537 H 0.8535 1.00655 0.93265 0.0
H538 H 0.82341 0.05394 0.90945 0.0
H539 H 0.85797 1.02569 0.86103 0.0
H540 H 0.8886 0.98327 0.88479 0.0
H541 H 0.89589 0.07294 0.85928 0.0
H542 H 0.93053 0.3326 0.9297 0.0
H543 H 0.96536 0.24448 0.96297 0.0
H544 H 0.91371 1.01486 0.93852 0.0
C545 C 0.834 0.20563 0.86652 0.0
C546 C 0.83038 0.2857 0.85058 0.0
C547 C 0.85022 0.35435 0.85938 0.0
C548 C 0.87358 0.34199 0.8823 0.0
C549 C 0.87768 0.25977 0.89579 0.0
C550 C 0.85822 0.19288 0.88778 0.0
C551 C 0.86946 0.10726 0.90112 0.0
C552 C 0.84488 0.06809 0.92255 0.0
C553 C 0.87851 0.04358 0.87501 0.0
C554 C 0.89775 0.13565 0.91918 0.0
C555 C 0.90224 0.22391 0.91625 0.0
C556 C 0.92692 0.26358 0.93174 0.0
C557 C 0.94683 0.21265 0.95065 0.0
C558 C 0.94277 0.12173 0.95376 0.0
C559 C 0.91791 0.08371 0.93711 0.0
H560 H 0.65129 0.24917 0.70808 0.0
H561 H 0.73447 0.09913 0.6896 0.0
H562 H 0.70478 1.00645 0.65315 0.0
H563 H 0.59753 0.06169 0.70398 0.0
H564 H 0.5672 0.1269 0.68725 0.0
H565 H 0.59472 0.1754 0.71324 0.0
H566 H 0.60626 0.28781 0.67242 0.0
H567 H 0.58137 0.23933 0.64401 0.0
H568 H 0.6217 0.25619 0.63545 0.0
H569 H 0.66509 0.93536 0.61465 0.0
H570 H 0.62308 0.90422 0.57739 0.0
H571 H 0.56543 0.09709 0.62237 0.0
C572 C 0.66347 0.19656 0.69658 0.0
C573 C 0.69574 0.18274 0.70195 0.0
C574 C 0.71008 0.11211 0.68622 0.0
C575 C 0.6932 0.05869 0.66542 0.0
C576 C 0.66153 0.07467 0.66068 0.0
C577 C 0.64686 0.14191 0.67617 0.0
C578 C 0.61287 0.14766 0.66678 0.0
C579 C 0.59184 0.12665 0.69446 0.0
C580 C 0.60508 0.2379 0.65382 0.0
C581 C 0.6109 0.07649 0.64208 0.0
C582 C 0.63897 1.03341 0.63946 0.0
C583 C 0.64296 0.9678 0.61718 0.0
C584 C 0.61856 0.94891 0.5963 0.0
C585 C 0.58992 0.99436 0.59749 0.0
C586 C 0.58613 0.05727 0.62161 0.0
H587 H 0.40026 0.89801 0.57475 0.0
H588 H 0.46422 0.07315 0.61897 0.0
H589 H 0.43381 0.06023 0.66797 0.0
H590 H 0.33103 0.93529 0.61161 0.0
H591 H 0.32085 0.82344 0.61729 0.0
H592 H 0.34565 0.85291 0.5857 0.0
H593 H 0.39074 0.7471 0.60618 0.0
H594 H 0.36242 0.71424 0.63409 0.0
H595 H 0.39977 0.75203 0.64635 0.0
H596 H 0.3946 1.01676 0.71479 0.0
H597 H 0.35751 0.94538 0.75057 0.0
H598 H 0.32614 0.78234 0.67559 0.0
C599 C 0.40883 0.93204 0.59469 0.0
C600 C 0.43549 0.98568 0.59225 0.0
C601 C 0.44401 1.03224 0.61937 0.0
C602 C 0.42685 1.02438 0.64759 0.0
C603 C 0.40162 0.96718 0.64911 0.0
C604 C 0.39347 0.9201 0.62322 0.0
C605 C 0.36821 0.85508 0.63088 0.0
C606 C 0.33974 0.86747 0.61014 0.0
C607 C 0.38094 0.76175 0.62919 0.0
C608 C 0.36101 0.87748 0.66428 0.0
C609 C 0.38077 0.94118 0.67496 0.0
C610 C 0.37923 0.96739 0.70609 0.0
C611 C 0.35783 0.92668 0.72636 0.0
C612 C 0.33807 0.85953 0.71588 0.0
C613 C 0.33999 0.83524 0.68429 0.0
H614 H 0.63347 0.51707 0.96131 0.0
H615 H 0.55224 0.35907 0.94797 0.0
H616 H 0.57964 0.27754 0.90656 0.0
H617 H 0.65215 0.53647 0.88007 0.0
H618 H 0.69335 0.53467 0.88618 0.0
H619 H 0.66799 0.5753 0.9161 0.0
H620 H 0.6916 0.46515 0.95474 0.0
H621 H 0.71688 0.42479 0.92465 0.0
H622 H 0.69184 0.35157 0.94504 0.0
H623 H 0.61653 0.21514 0.86362 0.0
H624 H 0.65579 0.18976 0.82248 0.0
H625 H 0.71202 0.39298 0.8615 0.0
C626 C 0.62112 0.46637 0.94951 0.0
C627 C 0.59011 0.44645 0.95821 0.0
C628 C 0.57572 0.37685 0.94224 0.0
C629 C 0.59127 0.32972 0.91849 0.0
C630 C 0.62156 0.35207 0.91033 0.0
C631 C 0.6362 0.41954 0.92531 0.0
C632 C 0.66821 0.43391 0.9112 0.0
C633 C 0.67055 0.52551 0.89758 0.0
C634 C 0.69364 0.41793 0.93535 0.0
C635 C 0.66931 0.36477 0.88574 0.0
C636 C 0.64236 0.31719 0.88587 0.0
C637 C 0.6378 0.25157 0.86381 0.0
C638 C 0.66059 0.23631 0.84065 0.0
C639 C 0.68801 0.28597 0.83926 0.0
C640 C 0.69224 0.3505 0.86259 0.0
H641 H 0.40057 0.52421 0.9581 0.0
H642 H 0.47655 0.70503 0.95254 0.0
H643 H 0.44505 0.79786 0.91766 0.0
H644 H 0.37667 0.54047 0.87918 0.0
H645 H 0.33621 0.5298 0.88831 0.0
H646 H 0.36483 0.4816 0.91312 0.0
H647 H 0.34149 0.56526 0.95979 0.0
H648 H 0.31321 0.6153 0.93494 0.0
H649 H 0.33824 0.68164 0.95828 0.0
H650 H 0.40443 0.86672 0.87896 0.0
H651 H 0.36262 0.89606 0.84107 0.0
H652 H 0.31286 0.67411 0.87488 0.0
C653 C 0.41087 0.58325 0.94969 0.0
C654 C 0.44156 0.60614 0.95834 0.0
C655 C 0.45341 0.68492 0.9465 0.0
C656 C 0.43547 0.73849 0.92664 0.0
C657 C 0.40532 0.71368 0.91876 0.0
C658 C 0.39326 0.63744 0.93008 0.0
C659 C 0.36076 0.62278 0.9177 0.0
C660 C 0.35956 0.53871 0.89843 0.0
C661 C 0.33703 0.62117 0.94427 0.0
C662 C 0.35617 0.70228 0.89741 0.0
C663 C 0.38205 0.75432 0.89818 0.0
C664 C 0.38388 0.8272 0.87899 0.0
C665 C 0.35956 0.84486 0.85783 0.0
C666 C 0.33318 0.79104 0.85597 0.0
C667 C 0.33152 0.7202 0.87689 0.0
H668 H 0.55858 0.60675 0.12344 0.0
H669 H 0.61355 0.39718 0.08531 0.0
H670 H 0.65474 0.42847 0.12345 0.0
H671 H 0.61869 0.75056 0.13043 0.0
H672 H 0.60513 0.80208 0.16546 0.0
H673 H 0.57802 0.75132 0.13972 0.0
H674 H 0.55834 0.65674 0.18516 0.0
H675 H 0.58561 0.70809 0.21072 0.0
H676 H 0.58554 0.59185 0.20669 0.0
H677 H 0.694 0.49908 0.16204 0.0
H678 H 0.72407 0.59177 0.19779 0.0
H679 H 0.64432 0.76075 0.20907 0.0
C680 C 0.57827 0.56315 0.1246 0.0
C681 C 0.58157 0.49551 0.10214 0.0
C682 C 0.60923 0.44555 0.10308 0.0
C683 C 0.63322 0.46457 0.12439 0.0
C684 C 0.6298 0.53482 0.14487 0.0
C685 C 0.60265 0.58256 0.14538 0.0
C686 C 0.6057 0.66027 0.16723 0.0
C687 C 0.60163 0.74605 0.14964 0.0
C688 C 0.58241 0.65384 0.19405 0.0
C689 C 0.63882 0.64973 0.1788 0.0
C690 C 0.65239 0.57676 0.16578 0.0
C691 C 0.68323 0.55565 0.17244 0.0
C692 C 0.70032 0.60919 0.19289 0.0
C693 C 0.68703 0.68446 0.20673 0.0
C694 C 0.65563 0.70416 0.19922 0.0
H695 H 0.37826 0.26724 0.20641 0.0
H696 H 0.30243 0.45191 0.20251 0.0
H697 H 0.33209 0.53865 0.16448 0.0
H698 H 0.44074 0.42685 0.20017 0.0
H699 H 0.4646 0.35363 0.1777 0.0
H700 H 0.43734 0.31171 0.20538 0.0
H701 H 0.41356 0.21846 0.16181 0.0
H702 H 0.43979 0.2626 0.1337 0.0
H703 H 0.39862 0.27 0.12768 0.0
H704 H 0.37058 0.60148 0.12296 0.0
H705 H 0.41059 0.62611 0.08265 0.0
H706 H 0.46185 0.40428 0.11592 0.0
C707 C 0.36771 0.32609 0.19778 0.0
C708 C 0.33755 0.35188 0.20784 0.0
C709 C 0.32523 0.42991 0.19554 0.0
C710 C 0.3421 0.47997 0.17385 0.0
C711 C 0.37176 0.45261 0.16465 0.0
C712 C 0.38438 0.37726 0.17647 0.0
C713 C 0.41634 0.36013 0.16266 0.0
C714 C 0.44123 0.36326 0.18798 0.0
C715 C 0.41714 0.2727 0.14541 0.0
C716 C 0.4196 0.4361 0.14046 0.0
C717 C 0.39383 0.48952 0.14207 0.0
C718 C 0.39104 0.5608 0.1222 0.0
C719 C 0.41429 0.57563 0.09959 0.0
C720 C 0.44052 0.52041 0.09687 0.0
C721 C 0.44317 0.45094 0.11832 0.0
H722 H 0.62947 1.02963 0.45364 0.0
H723 H 0.55672 0.83818 0.45339 0.0
H724 H 0.5873 0.74759 0.41698 0.0
H725 H 0.64871 1.00877 0.37225 0.0
H726 H 0.68946 1.02502 0.3783 0.0
H727 H 0.6618 0.07234 0.40473 0.0
H728 H 0.6895 0.99591 0.45026 0.0
H729 H 0.71677 0.94676 0.42375 0.0
H730 H 0.69442 0.87988 0.44941 0.0
H731 H 0.62603 0.67956 0.37685 0.0
H732 H 0.66575 0.65009 0.33646 0.0
H733 H 0.71425 0.8811 0.36446 0.0
C734 C 0.61983 0.96868 0.44599 0.0
C735 C 0.5903 0.94172 0.45694 0.0
C736 C 0.57908 0.861 0.4459 0.0
C737 C 0.59646 0.80865 0.42507 0.0
C738 C 0.62552 0.83666 0.41508 0.0
C739 C 0.63699 0.91534 0.42513 0.0
C740 C 0.66836 0.93229 0.41019 0.0
C741 C 0.66699 1.01445 0.39018 0.0
C742 C 0.69376 0.93911 0.43488 0.0
C743 C 0.67284 0.85124 0.39018 0.0
C744 C 0.6479 0.79658 0.39323 0.0
C745 C 0.64593 0.72127 0.37499 0.0
C746 C 0.66908 0.7036 0.35237 0.0
C747 C 0.69448 0.75988 0.34813 0.0
C748 C 0.69639 0.83341 0.36818 0.0
H749 H 0.40659 0.99686 0.4504 0.0
H750 H 0.48008 0.1859 0.45262 0.0
H751 H 0.44971 0.27991 0.41725 0.0
H752 H 0.38709 1.02141 0.37009 0.0
H753 H 0.34633 1.00609 0.37659 0.0
H754 H 0.37403 0.95692 0.40221 0.0
H755 H 0.34712 1.0321 0.44879 0.0
H756 H 0.31974 0.08306 0.42318 0.0
H757 H 0.34257 0.14827 0.44908 0.0
H758 H 0.41057 0.35065 0.37742 0.0
H759 H 0.37005 0.38314 0.33834 0.0
H760 H 0.32167 0.15114 0.36486 0.0
C761 C 0.41659 0.05774 0.44347 0.0
C762 C 0.44625 0.08277 0.45455 0.0
C763 C 0.45769 0.16423 0.44476 0.0
C764 C 0.44042 0.21842 0.42458 0.0
C765 C 0.41126 0.19157 0.41426 0.0
C766 C 0.39958 0.11268 0.42352 0.0
C767 C 0.36805 0.09694 0.40896 0.0
C768 C 0.36894 1.01555 0.38823 0.0
C769 C 0.34289 0.08967 0.434 0.0
C770 C 0.36367 0.17881 0.38983 0.0
C771 C 0.38877 0.23301 0.39303 0.0
C772 C 0.39059 0.30922 0.37551 0.0
C773 C 0.36704 0.32849 0.35364 0.0
C774 C 0.34142 0.27287 0.34948 0.0
C775 C 0.3398 0.19808 0.36857 0.0
H776 H 1.00972 0.76304 0.99377 0.0
H777 H 1.0053 0.77796 0.09372 0.0
H778 H 1.01155 0.61872 0.09673 0.0
H779 H 0.96401 0.58091 0.98639 0.0
H780 H 0.98476 0.53377 0.9542 0.0
H781 H 0.98527 0.64918 0.96023 0.0
H782 H 0.04535 0.64561 0.96146 0.0
H783 H 0.04459 0.53031 0.95495 0.0
H784 H 0.06479 0.57369 0.98793 0.0
H785 H 1.01188 0.45284 0.08814 0.0
H786 H 1.01399 0.30131 0.06907 0.0
H787 H 0.01504 0.39511 0.97456 0.0
C788 C 1.01207 0.7334 1.01633 0.0
C789 C 1.00845 0.78416 0.04362 0.0
C790 C 1.00943 0.74145 0.0726 0.0
C791 C 1.01235 0.6505 0.07447 0.0
C792 C 1.01397 0.60202 0.04708 0.0
C793 C 0.01446 0.64236 1.01854 0.0
C794 C 1.01428 0.57558 0.99251 0.0
C795 C 0.98537 0.58557 0.97214 0.0
C796 C 0.04402 0.58165 0.97307 0.0
C797 C 1.0133 0.4916 1.01074 0.0
C798 C 1.01311 0.50786 0.04221 0.0
C799 C 1.01218 0.43979 0.06349 0.0
C800 C 1.01288 0.3534 0.05241 0.0
C801 C 0.01441 0.33499 1.02021 0.0
C802 C 1.01365 0.40602 0.99932 0.0
H803 H 0.27121 0.59258 0.33652 0.0
H804 H 0.26617 0.53668 0.2384 0.0
H805 H 0.26838 0.69327 0.22724 0.0
H806 H 0.22298 0.76779 0.33756 0.0
H807 H 0.24371 0.83259 0.36532 0.0
H808 H 0.24737 0.71642 0.36595 0.0
H809 H 0.30677 0.72564 0.36037 0.0
H810 H 0.30347 0.84192 0.36138 0.0
H811 H 0.32316 0.78915 0.32956 0.0
H812 H 0.26172 0.86002 0.22756 0.0
H813 H 0.26449 1.01736 0.23799 0.0
H814 H 0.2745 0.96548 0.33587 0.0
C815 C 0.27278 0.6128 0.31259 0.0
C816 C 0.26922 0.55085 0.28834 0.0
C817 C 0.26994 0.58136 0.2574 0.0
C818 C 0.27023 0.67101 0.25089 0.0
C819 C 0.2705 0.73026 0.27551 0.0
C820 C 0.27319 0.70217 0.30573 0.0
C821 C 0.27263 0.77883 0.32812 0.0
C822 C 0.24503 0.77352 0.35055 0.0
C823 C 0.30333 0.78424 0.34589 0.0
C824 C 0.26876 0.85445 0.30588 0.0
C825 C 0.26706 0.8251 0.27566 0.0
C826 C 0.26337 0.88328 0.25118 0.0
C827 C 0.26405 0.97325 0.25742 0.0
C828 C 0.26901 1.00517 0.28786 0.0
C829 C 0.26964 0.94411 0.31246 0.0
H830 H 0.75997 0.07975 0.32718 0.0
H831 H 0.75954 1.02179 0.22906 0.0
H832 H 0.76209 0.17855 0.21765 0.0
H833 H 0.71141 0.25664 0.32494 0.0
H834 H 0.73079 0.32086 0.35385 0.0
H835 H 0.73379 0.20452 0.35477 0.0
H836 H 0.79357 0.21108 0.35261 0.0
H837 H 0.79078 0.32745 0.35351 0.0
H838 H 0.81198 0.274 0.32283 0.0
H839 H 0.75763 0.34713 0.21746 0.0
H840 H 0.76202 0.50401 0.22818 0.0
H841 H 0.7645 0.45161 0.32643 0.0
C842 C 0.76242 0.09959 0.30327 0.0
C843 C 0.76041 0.037 0.27906 0.0
C844 C 0.76218 0.06704 0.2481 0.0
C845 C 0.76274 0.15671 0.24141 0.0
C846 C 0.76195 0.21655 0.26589 0.0
C847 C 0.763 0.18881 0.29624 0.0
C848 C 0.76159 0.2656 0.31849 0.0
C849 C 0.73268 0.2616 0.33924 0.0
C850 C 0.79124 0.26981 0.338 0.0
C851 C 0.75943 0.34118 0.29606 0.0
C852 C 0.7592 0.31174 0.26579 0.0
C853 C 0.75789 0.37027 0.24116 0.0
C854 C 0.75943 0.46019 0.24749 0.0
C855 C 0.76271 0.49179 0.27823 0.0
C856 C 0.76085 0.43073 0.30274 0.0
H857 H 1.00328 0.86201 0.49303 0.0
H858 H 0.0203 0.80015 0.589 0.0
H859 H 0.01977 0.95605 0.60199 0.0
H860 H 0.05217 1.03282 0.48813 0.0
H861 H 0.02901 0.1018 0.46374 0.0
H862 H 0.02413 0.98613 0.46226 0.0
H863 H 0.96589 1.00108 0.47507 0.0
H864 H 0.97016 0.11705 0.4748 0.0
H865 H 0.9539 0.06453 0.50821 0.0
H866 H 0.02656 0.12318 0.60279 0.0
H867 H 0.02402 0.28129 0.59438 0.0
H868 H 1.00355 0.23702 0.49765 0.0
C869 C 1.00445 0.88062 0.51722 0.0
C870 C 1.01118 0.81641 0.54003 0.0
C871 C 1.01411 0.84595 0.57109 0.0
C872 C 0.01489 0.93542 0.57853 0.0
C873 C 1.0119 0.99647 0.55483 0.0
C874 C 1.00545 0.97016 0.52494 0.0
C875 C 1.0041 0.04865 0.50346 0.0
C876 C 0.02882 0.04187 0.47788 0.0
C877 C 0.97158 0.05843 0.48956 0.0
C878 C 1.01125 0.12308 0.52574 0.0
C879 C 0.016 0.09145 0.55524 0.0
C880 C 0.02271 0.14798 0.57971 0.0
C881 C 0.02216 0.2385 0.57452 0.0
C882 C 0.01478 0.27372 0.54509 0.0
C883 C 1.01077 0.21376 0.52014 0.0
H884 H 0.26147 0.12158 0.72782 0.0
H885 H 0.2508 0.03575 0.82261 0.0
H886 H 0.25122 0.18839 0.84035 0.0
H887 H 0.31319 0.30671 0.74585 0.0
H888 H 0.29647 0.37247 0.71578 0.0
H889 H 0.29747 0.25639 0.71164 0.0
H890 H 0.23824 0.25853 0.70308 0.0
H891 H 0.23685 0.37425 0.70858 0.0
H892 H 0.21334 0.30516 0.73237 0.0
H893 H 0.24846 0.35483 0.8473 0.0
H894 H 0.25585 0.51312 0.84432 0.0
H895 H 0.26893 0.49219 0.74525 0.0
C896 C 0.26044 0.13456 0.75247 0.0
C897 C 0.25664 0.06511 0.77376 0.0
C898 C 0.25457 0.08626 0.80573 0.0
C899 C 0.25414 0.17349 0.816 0.0
C900 C 0.25613 0.24008 0.79419 0.0
C901 C 0.26027 0.22135 0.76314 0.0
C902 C 0.26253 0.30463 0.7444 0.0
C903 C 0.2943 0.31041 0.72848 0.0
C904 C 0.23617 0.31097 0.7207 0.0
C905 C 0.25885 0.37348 0.76962 0.0
C906 C 0.2547 0.33485 0.79814 0.0
C907 C 0.25161 0.38518 0.82499 0.0
C908 C 0.25504 0.47595 0.82299 0.0
C909 C 0.26175 0.51703 0.79443 0.0
C910 C 0.26227 0.46447 0.76725 0.0
H911 H 0.76707 0.59151 0.7385 0.0
H912 H 0.75334 0.53742 0.83571 0.0
H913 H 0.75634 0.6937 0.84747 0.0
H914 H 0.82145 0.78307 0.75118 0.0
H915 H 0.80576 0.83866 0.71809 0.0
H916 H 0.80711 0.72202 0.71862 0.0
H917 H 0.74838 0.72061 0.70767 0.0
H918 H 0.74652 0.83717 0.70876 0.0
H919 H 0.72225 0.77478 0.73411 0.0
H920 H 0.75159 0.86034 0.84749 0.0
H921 H 0.75684 1.01738 0.83864 0.0
H922 H 0.77621 0.96777 0.74182 0.0
C923 C 0.76702 0.6117 0.76255 0.0
C924 C 0.76099 0.54972 0.78627 0.0
C925 C 0.75924 0.58142 0.81717 0.0
C926 C 0.75997 0.67115 0.82397 0.0
C927 C 0.76317 0.73034 0.79975 0.0
C928 C 0.7681 0.70169 0.76978 0.0
C929 C 0.77091 0.77927 0.74798 0.0
C930 C 0.80323 0.78087 0.73309 0.0
C931 C 0.74551 0.77779 0.72316 0.0
C932 C 0.76618 0.85584 0.77021 0.0
C933 C 0.76116 0.82586 0.79988 0.0
C934 C 0.75578 0.88392 0.82431 0.0
C935 C 0.75791 0.97398 0.81887 0.0
C936 C 0.76582 1.00727 0.7893 0.0
C937 C 0.76872 0.94625 0.76444 0.0
H938 H 0.51264 0.6935 0.58082 0.0
H939 H 0.52599 0.73921 0.48301 0.0
H940 H 0.52926 0.58172 0.47374 0.0
H941 H 0.56369 0.48772 0.58422 0.0
H942 H 0.53817 0.44412 0.61319 0.0
H943 H 0.54392 0.5594 0.61079 0.0
H944 H 0.48398 0.57569 0.60692 0.0
H945 H 0.479 0.46004 0.60644 0.0
H946 H 0.46409 0.52474 0.57514 0.0
H947 H 0.52049 0.41629 0.47405 0.0
H948 H 0.51944 0.26009 0.48594 0.0
H949 H 0.51215 0.32065 0.58368 0.0
C950 C 0.51863 0.67074 0.55779 0.0
C951 C 0.51963 0.7303 0.53274 0.0
C952 C 0.52622 0.69647 0.5028 0.0
C953 C 0.52701 0.60624 0.49716 0.0
C954 C 0.52222 0.54966 0.52187 0.0
C955 C 0.5197 0.58064 0.55185 0.0
C956 C 0.5144 0.50641 0.57433 0.0
C957 C 0.54165 0.49889 0.59698 0.0
C958 C 0.48354 0.51744 0.59173 0.0
C959 C 0.5134 0.42908 0.55232 0.0
C960 C 0.51758 0.45544 0.52208 0.0
C961 C 0.51754 0.39532 0.49774 0.0
C962 C 0.51593 0.30608 0.50465 0.0
C963 C 0.51491 0.27663 0.53574 0.0
C964 C 0.51183 0.34012 0.55962 0.0
H965 H 0.51538 0.83516 0.08232 0.0
H966 H 0.52333 0.77623 0.98451 0.0
H967 H 0.52096 0.93287 0.97274 0.0
H968 H 0.46206 1.0274 0.07338 0.0
H969 H 0.47997 0.08248 0.10549 0.0
H970 H 0.47855 0.96599 0.10475 0.0
H971 H 0.53801 0.96219 0.11167 0.0
H972 H 0.53968 0.07864 0.11076 0.0
H973 H 0.56226 1.01525 0.08366 0.0
H974 H 0.52476 0.10109 0.97253 0.0
H975 H 0.51841 0.2582 0.98235 0.0
H976 H 0.50716 0.20761 0.08016 0.0
C977 C 0.51483 0.85484 0.05829 0.0
C978 C 0.5187 0.79196 0.03433 0.0
C979 C 0.51926 0.82172 1.00329 0.0
C980 C 0.51874 0.91129 0.99644 0.0
C981 C 0.51727 0.9714 1.0208 0.0
C982 C 0.51409 0.94403 0.05106 0.0
C983 C 0.51273 1.02134 0.07313 0.0
C984 C 0.48147 1.02452 0.09018 0.0
C985 C 0.53978 1.01916 0.09616 0.0
C986 C 0.51596 0.09665 0.05071 0.0
C987 C 0.51909 0.06665 1.02065 0.0
C988 C 0.52213 0.1247 0.99603 0.0
C989 C 0.51939 0.21471 1.00194 0.0
C990 C 0.51309 0.24683 0.03217 0.0
C991 C 0.51308 0.1863 0.05694 0.0
H992 H 0.31962 0.45074 1.00537 0.0
H993 H 0.33933 0.20595 0.04943 0.0
H994 H 0.2841 0.19117 0.06335 0.0
H995 H 0.25216 0.51908 0.05877 0.0
H996 H 0.2317 0.5655 1.02647 0.0
H997 H 0.27336 0.56792 0.02747 0.0
H998 H 0.2754 0.49217 0.97386 0.0
H999 H 0.23397 0.48849 0.97276 0.0
H1000 H 0.2562 0.38987 0.96867 0.0
H1001 H 0.22851 0.18365 0.05905 0.0
H1002 H 0.17414 0.18994 0.04209 0.0
H1003 H 0.18856 0.44366 1.00341 0.0
C1004 C 0.31213 0.39613 1.01905 0.0
C1005 C 0.3331 0.33006 0.02702 0.0
C1006 C 0.32322 0.25761 0.04396 0.0
C1007 C 0.29209 0.2491 0.05193 0.0
C1008 C 0.27156 0.3142 0.04288 0.0
C1009 C 0.28117 0.38717 0.02721 0.0
C1010 C 0.25405 0.44109 1.01619 0.0
C1011 C 0.25274 0.52859 0.03326 0.0
C1012 C 0.25498 0.45352 0.98079 0.0
C1013 C 0.22771 0.38354 1.02595 0.0
C1014 C 0.23839 0.31154 0.04182 0.0
C1015 C 0.21944 0.24176 0.04843 0.0
C1016 C 0.18877 0.24573 0.03876 0.0
C1017 C 0.17723 0.31964 1.02348 0.0
C1018 C 0.1968 0.38929 1.01688 0.0
H1019 H 0.84021 0.81219 0.0398 0.0
H1020 H 0.85376 0.72266 0.94602 0.0
H1021 H 0.80126 0.65765 0.94632 0.0
H1022 H 0.78536 0.64615 0.0698 0.0
H1023 H 0.76335 0.72974 0.08932 0.0
H1024 H 0.80443 0.74134 0.08426 0.0
H1025 H 0.79454 0.89087 0.05649 0.0
H1026 H 0.75385 0.8765 0.06226 0.0
H1027 H 0.76897 0.89364 1.02384 0.0
H1028 H 0.74392 0.62215 0.95568 0.0
H1029 H 0.68921 0.61981 0.97284 0.0
H1030 H 0.71398 0.76147 0.05587 0.0
C1031 C 0.83261 0.77406 1.02018 0.0
C1032 C 0.85071 0.76907 0.99338 0.0
C1033 C 0.84007 0.72392 0.96705 0.0
C1034 C 0.81036 0.68773 0.96704 0.0
C1035 C 0.79196 0.69946 0.99337 0.0
C1036 C 0.80288 0.74186 1.01944 0.0
C1037 C 0.77754 0.76311 0.04215 0.0
C1038 C 0.78298 0.71732 0.07322 0.0
C1039 C 0.77351 0.86176 0.04644 0.0
C1040 C 0.7506 0.7258 1.0251 0.0
C1041 C 0.75903 0.68811 0.99724 0.0
C1042 C 0.73716 0.65165 0.97748 0.0
C1043 C 0.70607 0.65233 0.98704 0.0
C1044 C 0.6974 0.6918 1.01549 0.0
C1045 C 0.72001 0.73006 0.03419 0.0
H1046 H 0.08437 0.648 0.27896 0.0
H1047 H 0.09353 0.39926 0.32346 0.0
H1048 H 0.03866 0.4041 0.33828 0.0
H1049 H 0.01529 0.73501 0.33112 0.0
H1050 H 0.99865 0.78531 0.29741 0.0
H1051 H 0.04008 0.78038 0.30186 0.0
H1052 H 0.04451 0.70614 0.2481 0.0
H1053 H 1.00342 0.70881 0.24374 0.0
H1054 H 0.02388 0.60689 0.24105 0.0
H1055 H 0.98295 0.40983 0.33198 0.0
H1056 H 0.93087 0.42328 0.30873 0.0
H1057 H 0.95614 0.66788 0.26822 0.0
C1058 C 0.07486 0.59732 0.29327 0.0
C1059 C 0.09281 0.52436 0.30063 0.0
C1060 C 0.08012 0.45694 0.3185 0.0
C1061 C 0.04897 0.45925 0.32697 0.0
C1062 C 0.03109 0.52964 0.31749 0.0
C1063 C 0.04375 0.59881 0.30162 0.0
C1064 C 0.01899 0.65745 0.28852 0.0
C1065 C 0.01821 0.7447 0.30577 0.0
C1066 C 0.02295 0.67038 0.25329 0.0
C1067 C 0.99078 0.6047 0.29602 0.0
C1068 C 0.99801 0.53308 0.31383 0.0
C1069 C 0.97668 0.46747 0.31924 0.0
C1070 C 0.94741 0.47489 0.30581 0.0
C1071 C 0.94013 0.54698 0.28726 0.0
C1072 C 0.96163 0.61327 0.2829 0.0
H1073 H 0.33074 0.66334 0.4719 0.0
H1074 H 0.34732 0.88478 0.53106 0.0
H1075 H 0.2911 0.90751 0.53749 0.0
H1076 H 0.27101 0.75421 0.43102 0.0
H1077 H 0.24805 0.65783 0.42732 0.0
H1078 H 0.28928 0.64893 0.43158 0.0
H1079 H 0.2824 0.55084 0.47976 0.0
H1080 H 0.24109 0.5578 0.47504 0.0
H1081 H 0.25839 0.58765 0.51145 0.0
H1082 H 0.23435 0.92042 0.5302 0.0
H1083 H 0.17929 0.9103 0.51526 0.0
H1084 H 0.19976 0.67757 0.46237 0.0
C1085 C 0.32224 0.71407 0.48716 0.0
C1086 C 0.3428 0.77045 0.502 0.0
C1087 C 0.33149 0.83897 0.52078 0.0
C1088 C 0.29977 0.85288 0.52419 0.0
C1089 C 0.27993 0.7976 0.50852 0.0
C1090 C 0.29064 0.72858 0.4908 0.0
C1091 C 0.26456 0.68299 0.47447 0.0
C1092 C 0.26848 0.68627 0.43902 0.0
C1093 C 0.26142 0.58927 0.48588 0.0
C1094 C 0.23777 0.73867 0.48515 0.0
C1095 C 0.24704 0.80451 0.50468 0.0
C1096 C 0.22656 0.86764 0.51568 0.0
C1097 C 0.19547 0.86146 0.50718 0.0
C1098 C 0.18547 0.79206 0.48836 0.0
C1099 C 0.20697 0.73097 0.47691 0.0
H1100 H 0.83412 0.17482 0.52299 0.0
H1101 H 0.83795 0.43949 0.55506 0.0
H1102 H 0.78413 0.43129 0.5735 0.0
H1103 H 0.76793 0.19609 0.48755 0.0
H1104 H 0.75196 0.09089 0.49537 0.0
H1105 H 0.793 0.10507 0.49548 0.0
H1106 H 0.79589 0.04499 0.55139 0.0
H1107 H 0.75457 1.03021 0.55138 0.0
H1108 H 0.77246 0.0934 0.58151 0.0
H1109 H 0.72893 0.40932 0.57591 0.0
H1110 H 0.67543 0.37745 0.55915 0.0
H1111 H 0.70552 0.12968 0.52301 0.0
C1112 C 0.82368 0.22908 0.53518 0.0
C1113 C 0.84 0.30633 0.53919 0.0
C1114 C 0.82589 0.37853 0.55362 0.0
C1115 C 0.79544 0.37426 0.56404 0.0
C1116 C 0.77946 0.29747 0.55931 0.0
C1117 C 0.79308 0.22587 0.54518 0.0
C1118 C 0.76942 0.15865 0.53658 0.0
C1119 C 0.77065 0.13655 0.50169 0.0
C1120 C 0.77332 0.07699 0.55641 0.0
C1121 C 0.74027 0.20732 0.54522 0.0
C1122 C 0.74656 0.28555 0.5596 0.0
C1123 C 0.72356 0.34719 0.56564 0.0
C1124 C 0.69351 0.32936 0.55591 0.0
C1125 C 0.6873 0.25146 0.54017 0.0
C1126 C 0.71043 0.18878 0.5356 0.0
H1127 H 0.96092 0.07323 0.81988 0.0
H1128 H 0.94406 0.23557 0.74067 0.0
H1129 H 0.99933 0.27456 0.73871 0.0
H1130 H 0.03059 0.19671 0.85363 0.0
H1131 H 0.04979 0.0962 0.8626 0.0
H1132 H 1.00823 0.10409 0.86502 0.0
H1133 H 1.00266 0.97447 0.82822 0.0
H1134 H 0.04348 0.96275 0.82344 0.0
H1135 H 0.01962 0.97828 0.79004 0.0
H1136 H 0.05543 0.26074 0.7356 0.0
H1137 H 0.10639 0.18846 0.72992 0.0
H1138 H 0.0888 0.03866 0.81172 0.0
C1139 C 0.969 0.12007 0.80319 0.0
C1140 C 0.94879 0.15333 0.7809 0.0
C1141 C 0.95956 0.21166 0.75833 0.0
C1142 C 0.99076 0.23444 0.75728 0.0
C1143 C 1.01071 0.19823 0.77907 0.0
C1144 C 1.00013 0.14266 0.80184 0.0
C1145 C 0.02645 0.09653 0.81773 0.0
C1146 C 0.0289 0.12505 0.85176 0.0
C1147 C 0.02285 0.99735 0.81469 0.0
C1148 C 0.05334 0.12965 0.7989 0.0
C1149 C 0.04399 0.19043 0.77731 0.0
C1150 C 0.06342 0.21637 0.75322 0.0
C1151 C 0.09231 0.17557 0.75013 0.0
C1152 C 0.10123 0.11055 0.77109 0.0
C1153 C 0.08247 0.09133 0.79662 0.0
H1154 H 0.57198 0.53249 0.70674 0.0
H1155 H 0.58457 0.29807 0.75989 0.0
H1156 H 0.52782 0.28416 0.76494 0.0
H1157 H 0.51604 0.62217 0.74847 0.0
H1158 H 0.49424 0.6675 0.71684 0.0
H1159 H 0.53478 0.64708 0.71226 0.0
H1160 H 0.52348 0.55274 0.6641 0.0
H1161 H 0.48252 0.57091 0.66875 0.0
H1162 H 0.49771 0.46194 0.66701 0.0
H1163 H 0.4715 0.31525 0.77372 0.0
H1164 H 0.42191 0.39007 0.78581 0.0
H1165 H 0.44594 0.59628 0.72339 0.0
C1166 C 0.56269 0.47686 0.71863 0.0
C1167 C 0.58239 0.41797 0.73374 0.0
C1168 C 0.56969 0.3459 0.74922 0.0
C1169 C 0.53755 0.33651 0.7516 0.0
C1170 C 0.51864 0.39809 0.7374 0.0
C1171 C 0.53087 0.46613 0.72074 0.0
C1172 C 0.50624 0.52979 0.71092 0.0
C1173 C 0.51324 0.62194 0.72287 0.0
C1174 C 0.50223 0.52867 0.67559 0.0
C1175 C 0.47858 0.49121 0.7269 0.0
C1176 C 0.48583 0.41378 0.74133 0.0
C1177 C 0.46519 0.37393 0.76161 0.0
C1178 C 0.43713 0.41636 0.76833 0.0
C1179 C 0.43048 0.49748 0.75496 0.0
C1180 C 0.45062 0.53289 0.73298 0.0
H1181 H 0.58185 0.09328 0.30537 0.0
H1182 H 0.60554 0.05632 0.20915 0.0
H1183 H 0.55672 0.12645 0.19362 0.0
H1184 H 0.51485 1.02199 0.30246 0.0
H1185 H 0.49427 0.09437 0.32828 0.0
H1186 H 0.53511 0.08075 0.33229 0.0
H1187 H 0.54337 0.24546 0.32615 0.0
H1188 H 0.50211 0.26038 0.32282 0.0
H1189 H 0.52747 0.30106 0.29315 0.0
H1190 H 0.50126 0.14237 0.18917 0.0
H1191 H 0.44527 0.11826 0.19636 0.0
H1192 H 0.45532 0.14973 0.29515 0.0
C1193 C 0.57731 0.10592 0.28116 0.0
C1194 C 0.59725 0.07206 0.25837 0.0
C1195 C 0.59076 0.08494 0.22676 0.0
C1196 C 0.56303 0.12446 0.21784 0.0
C1197 C 0.54237 0.15113 0.24092 0.0
C1198 C 0.54958 0.14485 0.27212 0.0
C1199 C 0.52139 0.16009 0.29231 0.0
C1200 C 0.51612 0.08478 0.3151 0.0
C1201 C 0.52373 0.24695 0.30962 0.0
C1202 C 0.49668 0.16399 0.26772 0.0
C1203 C 0.5093 0.16212 0.23818 0.0
C1204 C 0.49109 0.14795 0.21202 0.0
C1205 C 0.4595 0.13333 0.21622 0.0
C1206 C 0.44659 0.13393 0.24622 0.0
C1207 C 0.46505 0.15221 0.27206 0.0
loop_
_geom_bond_atom_site_label_1
_geom_bond_atom_site_label_2
_geom_bond_distance
_geom_bond_site_symmetry_2
_ccdc_geom_bond_type
Co0 N1 2.034 . S
Co0 O15 2.262 . S
Co0 O19 1.958 . S
Co0 O23 1.950 1_556 S
Co0 O24 2.057 . S
N1 Co0 2.034 . S
N1 C2 1.366 . S
N1 C4 1.332 1_556 S
C2 N1 1.366 . S
C2 C5 1.377 . S
C2 H34 0.931 . S
N3 C4 1.346 . S
N3 C5 1.337 1_554 S
C4 N1 1.332 1_554 S
C4 N3 1.346 . S
C4 C38 1.361 . S
C5 C2 1.377 . S
C5 N3 1.337 1_556 S
C5 H41 0.930 . S
Co6 N7 2.034 . S
Co6 O20 1.950 1_556 S
Co6 O21 2.262 . S
Co6 O22 1.958 . S
Co6 O26 2.057 . S
N7 Co6 2.034 . S
N7 C10 1.366 . S
N7 C11 1.332 1_556 S
N8 C9 1.337 1_554 S
N8 C11 1.346 . S
C9 N8 1.337 1_556 S
C9 C10 1.377 . S
C9 H42 0.930 . S
C10 N7 1.366 . S
C10 C9 1.377 . S
C10 H14 0.931 . S
C11 N7 1.332 1_554 S
C11 N8 1.346 . S
C11 C28 1.361 . S
Co12 O15 2.097 . S
Co12 O16 2.065 1_456 S
Co12 O17 2.065 1_546 S
Co12 O18 2.042 1_545 S
Co12 O21 2.097 1_445 S
Co12 O25 2.042 1_455 S
C13 O21 1.253 . S
C13 O26 1.263 . S
H14 C10 0.931 . S
O15 Co0 2.262 . S
O15 Co12 2.097 . S
O15 C39 1.253 . S
O16 Co12 2.065 1_654 S
O16 C32 1.224 . S
O17 Co12 2.065 1_564 S
O17 C27 1.222 . S
O18 Co12 2.042 1_565 S
O18 C33 1.237 . S
O19 Co0 1.958 . S
O19 C33 1.278 1_545 S
O20 Co6 1.950 1_554 S
O20 C32 1.271 1_565 S
O21 Co6 2.262 . S
O21 Co12 2.097 1_665 S
O21 C13 1.253 . S
O22 Co6 1.958 . S
O22 C40 1.278 1_565 S
O23 Co0 1.950 1_554 S
O23 C27 1.274 1_545 S
O24 Co0 2.057 . S
O24 C39 1.263 . S
O25 Co12 2.042 1_655 S
O25 C40 1.237 . S
O26 Co6 2.057 . S
O26 C13 1.263 . S
C27 O17 1.222 . S
C27 O23 1.274 1_565 S
C28 C11 1.361 . S
C28 H29 0.960 . S
C28 H30 0.961 . S
C28 H31 0.961 . S
H29 C28 0.960 . S
H30 C28 0.961 . S
H31 C28 0.961 . S
C32 O16 1.224 . S
C32 O20 1.271 1_545 S
C33 O18 1.237 . S
C33 O19 1.278 1_565 S
H34 C2 0.931 . S
H35 C38 0.961 . S
H36 C38 0.961 . S
H37 C38 0.960 . S
C38 C4 1.361 . S
C38 H35 0.961 . S
C38 H36 0.961 . S
C38 H37 0.960 . S
C39 O15 1.253 . S
C39 O24 1.263 . S
C40 O22 1.278 1_545 S
C40 O25 1.237 . S
H41 C5 0.930 . S
H42 C9 0.930 . S
Co43 N44 2.034 . S
Co43 O58 2.262 . S
Co43 O62 1.958 . S
Co43 O66 1.950 . S
Co43 O67 2.057 . S
N44 Co43 2.034 . S
N44 C45 1.366 . S
N44 C47 1.332 . S
C45 N44 1.366 . S
C45 C48 1.377 . S
C45 H77 0.931 . S
N46 C47 1.346 . S
N46 C48 1.337 . S
C47 N44 1.332 . S
C47 N46 1.346 . S
C47 C81 1.361 . S
C48 C45 1.377 . S
C48 N46 1.337 . S
C48 H84 0.930 . S
Co49 N50 2.034 . S
Co49 O63 1.950 . S
Co49 O64 2.262 . S
Co49 O65 1.958 . S
Co49 O69 2.057 . S
N50 Co49 2.034 . S
N50 C53 1.366 . S
N50 C54 1.332 . S
N51 C52 1.337 . S
N51 C54 1.346 . S
C52 N51 1.337 . S
C52 C53 1.377 . S
C52 H85 0.930 . S
C53 N50 1.366 . S
C53 C52 1.377 . S
C53 H57 0.931 . S
C54 N50 1.332 . S
C54 N51 1.346 . S
C54 C71 1.361 . S
Co55 O58 2.097 . S
Co55 O59 2.065 . S
Co55 O60 2.065 . S
Co55 O61 2.042 . S
Co55 O64 2.097 . S
Co55 O68 2.042 . S
C56 O64 1.253 . S
C56 O69 1.263 . S
H57 C53 0.931 . S
O58 Co43 2.262 . S
O58 Co55 2.097 . S
O58 C82 1.253 . S
O59 Co55 2.065 . S
O59 C75 1.221 . S
O60 Co55 2.065 . S
O60 C70 1.221 . S
O61 Co55 2.042 . S
O61 C76 1.237 . S
O62 Co43 1.958 . S
O62 C76 1.278 . S
O63 Co49 1.950 . S
O63 C75 1.277 . S
O64 Co49 2.262 . S
O64 Co55 2.097 . S
O64 C56 1.253 . S
O65 Co49 1.958 . S
O65 C83 1.278 . S
O66 Co43 1.950 . S
O66 C70 1.277 . S
O67 Co43 2.057 . S
O67 C82 1.263 . S
O68 Co55 2.042 . S
O68 C83 1.237 . S
O69 Co49 2.057 . S
O69 C56 1.263 . S
C70 O60 1.221 . S
C70 O66 1.277 . S
C71 C54 1.361 . S
C71 H72 0.960 . S
C71 H73 0.961 . S
C71 H74 0.961 1_545 S
H72 C71 0.960 . S
H73 C71 0.961 . S
H74 C71 0.961 1_565 S
C75 O59 1.221 . S
C75 O63 1.277 . S
C76 O61 1.237 . S
C76 O62 1.278 . S
H77 C45 0.931 . S
H78 C81 0.961 . S
H79 C81 0.961 . S
H80 C81 0.960 . S
C81 C47 1.361 . S
C81 H78 0.961 . S
C81 H79 0.961 . S
C81 H80 0.960 . S
C82 O58 1.253 . S
C82 O67 1.263 . S
C83 O65 1.278 . S
C83 O68 1.237 . S
H84 C48 0.930 . S
H85 C52 0.930 . S
Co86 N87 2.034 . S
Co86 O101 2.262 . S
Co86 O105 1.958 . S
Co86 O109 1.950 . S
Co86 O110 2.057 . S
N87 Co86 2.034 . S
N87 C88 1.366 . S
N87 C90 1.332 . S
C88 N87 1.366 . S
C88 C91 1.377 . S
C88 H120 0.931 . S
N89 C90 1.346 . S
N89 C91 1.337 . S
C90 N87 1.332 . S
C90 N89 1.346 . S
C90 C124 1.361 . S
C91 C88 1.377 . S
C91 N89 1.337 . S
C91 H127 0.930 . S
Co92 N93 2.034 . S
Co92 O106 1.950 . S
Co92 O107 2.262 . S
Co92 O108 1.958 . S
Co92 O112 2.057 . S
N93 Co92 2.034 . S
N93 C96 1.366 . S
N93 C97 1.332 . S
N94 C95 1.337 . S
N94 C97 1.346 . S
C95 N94 1.337 . S
C95 C96 1.377 . S
C95 H128 0.930 . S
C96 N93 1.366 . S
C96 C95 1.377 . S
C96 H100 0.931 . S
C97 N93 1.332 . S
C97 N94 1.346 . S
C97 C114 1.361 . S
Co98 O101 2.097 . S
Co98 O102 2.065 . S
Co98 O103 2.065 . S
Co98 O104 2.042 . S
Co98 O107 2.097 . S
Co98 O111 2.042 . S
C99 O107 1.253 . S
C99 O112 1.263 . S
H100 C96 0.931 . S
O101 Co86 2.262 . S
O101 Co98 2.097 . S
O101 C125 1.253 . S
O102 Co98 2.065 . S
O102 C118 1.221 . S
O103 Co98 2.065 . S
O103 C113 1.221 . S
O104 Co98 2.042 . S
O104 C119 1.237 . S
O105 Co86 1.958 . S
O105 C119 1.278 . S
O106 Co92 1.950 . S
O106 C118 1.277 . S
O107 Co92 2.262 . S
O107 Co98 2.097 . S
O107 C99 1.253 . S
O108 Co92 1.958 . S
O108 C126 1.278 . S
O109 Co86 1.950 . S
O109 C113 1.277 . S
O110 Co86 2.057 . S
O110 C125 1.263 . S
O111 Co98 2.042 . S
O111 C126 1.237 . S
O112 Co92 2.057 . S
O112 C99 1.263 . S
C113 O103 1.221 . S
C113 O109 1.277 . S
C114 C97 1.361 . S
C114 H115 0.960 . S
C114 H116 0.961 . S
C114 H117 0.961 . S
H115 C114 0.960 . S
H116 C114 0.961 . S
H117 C114 0.961 . S
C118 O102 1.221 . S
C118 O106 1.277 . S
C119 O104 1.237 . S
C119 O105 1.278 . S
H120 C88 0.931 . S
H121 C124 0.961 1_545 S
H122 C124 0.961 . S
H123 C124 0.960 . S
C124 C90 1.361 . S
C124 H121 0.961 1_565 S
C124 H122 0.961 . S
C124 H123 0.960 . S
C125 O101 1.253 . S
C125 O110 1.263 . S
C126 O108 1.278 . S
C126 O111 1.237 . S
H127 C91 0.930 . S
H128 C95 0.930 . S
Co129 N130 2.034 . S
Co129 O144 2.262 . S
Co129 O148 1.958 . S
Co129 O152 1.950 . S
Co129 O153 2.057 . S
N130 Co129 2.034 . S
N130 C131 1.366 . S
N130 C133 1.332 . S
C131 N130 1.366 . S
C131 C134 1.377 . S
C131 H163 0.931 . S
N132 C133 1.346 . S
N132 C134 1.337 . S
C133 N130 1.332 . S
C133 N132 1.346 . S
C133 C167 1.361 . S
C134 C131 1.377 . S
C134 N132 1.337 . S
C134 H170 0.930 . S
Co135 N136 2.034 . S
Co135 O149 1.950 . S
Co135 O150 2.262 . S
Co135 O151 1.958 . S
Co135 O155 2.057 . S
N136 Co135 2.034 . S
N136 C139 1.366 . S
N136 C140 1.332 . S
N137 C138 1.337 . S
N137 C140 1.346 . S
C138 N137 1.337 . S
C138 C139 1.377 . S
C138 H171 0.930 . S
C139 N136 1.366 . S
C139 C138 1.377 . S
C139 H143 0.931 . S
C140 N136 1.332 . S
C140 N137 1.346 . S
C140 C157 1.361 . S
Co141 O144 2.097 . S
Co141 O145 2.065 1_455 S
Co141 O146 2.066 . S
Co141 O147 2.042 . S
Co141 O150 2.097 1_455 S
Co141 O154 2.042 1_455 S
C142 O150 1.253 . S
C142 O155 1.263 . S
H143 C139 0.931 . S
O144 Co129 2.262 . S
O144 Co141 2.097 . S
O144 C168 1.253 . S
O145 Co141 2.065 1_655 S
O145 C161 1.221 . S
O146 Co141 2.066 . S
O146 C156 1.221 . S
O147 Co141 2.042 . S
O147 C162 1.237 . S
O148 Co129 1.958 . S
O148 C162 1.278 . S
O149 Co135 1.950 . S
O149 C161 1.277 . S
O150 Co135 2.262 . S
O150 Co141 2.097 1_655 S
O150 C142 1.253 . S
O151 Co135 1.958 . S
O151 C169 1.278 . S
O152 Co129 1.950 . S
O152 C156 1.277 . S
O153 Co129 2.057 . S
O153 C168 1.263 . S
O154 Co141 2.042 1_655 S
O154 C169 1.237 . S
O155 Co135 2.057 . S
O155 C142 1.263 . S
C156 O146 1.221 . S
C156 O152 1.277 . S
C157 C140 1.361 . S
C157 H158 0.960 . S
C157 H159 0.961 . S
C157 H160 0.961 . S
H158 C157 0.960 . S
H159 C157 0.961 . S
H160 C157 0.961 . S
C161 O145 1.221 . S
C161 O149 1.277 . S
C162 O147 1.237 . S
C162 O148 1.278 . S
H163 C131 0.931 . S
H164 C167 0.961 . S
H165 C167 0.961 . S
H166 C167 0.960 . S
C167 C133 1.361 . S
C167 H164 0.961 . S
C167 H165 0.961 . S
C167 H166 0.960 . S
C168 O144 1.253 . S
C168 O153 1.263 . S
C169 O151 1.278 . S
C169 O154 1.237 . S
H170 C134 0.930 . S
H171 C138 0.930 . S
Co172 N173 2.034 . S
Co172 O187 2.262 . S
Co172 O191 1.958 . S
Co172 O195 1.950 . S
Co172 O196 2.057 . S
N173 Co172 2.034 . S
N173 C174 1.366 . S
N173 C176 1.332 . S
C174 N173 1.366 . S
C174 C177 1.377 . S
C174 H206 0.931 . S
N175 C176 1.346 . S
N175 C177 1.337 . S
C176 N173 1.332 . S
C176 N175 1.346 . S
C176 C210 1.361 . S
C177 C174 1.377 . S
C177 N175 1.337 . S
C177 H213 0.930 . S
Co178 N179 2.034 . S
Co178 O192 1.950 . S
Co178 O193 2.262 . S
Co178 O194 1.958 . S
Co178 O198 2.057 . S
N179 Co178 2.034 . S
N179 C182 1.366 . S
N179 C183 1.332 . S
N180 C181 1.337 . S
N180 C183 1.346 . S
C181 N180 1.337 . S
C181 C182 1.377 . S
C181 H214 0.930 . S
C182 N179 1.366 . S
C182 C181 1.377 . S
C182 H186 0.931 . S
C183 N179 1.332 . S
C183 N180 1.346 . S
C183 C200 1.361 . S
Co184 O187 2.097 . S
Co184 O188 2.065 . S
Co184 O189 2.065 . S
Co184 O190 2.042 . S
Co184 O193 2.097 . S
Co184 O197 2.042 . S
C185 O193 1.253 . S
C185 O198 1.263 . S
H186 C182 0.931 . S
O187 Co172 2.262 . S
O187 Co184 2.097 . S
O187 C211 1.253 . S
O188 Co184 2.065 . S
O188 C204 1.221 . S
O189 Co184 2.065 . S
O189 C199 1.221 . S
O190 Co184 2.042 . S
O190 C205 1.237 . S
O191 Co172 1.958 . S
O191 C205 1.278 . S
O192 Co178 1.950 . S
O192 C204 1.277 . S
O193 Co178 2.262 . S
O193 Co184 2.097 . S
O193 C185 1.253 . S
O194 Co178 1.958 . S
O194 C212 1.278 . S
O195 Co172 1.950 . S
O195 C199 1.277 . S
O196 Co172 2.057 . S
O196 C211 1.263 . S
O197 Co184 2.042 . S
O197 C212 1.237 . S
O198 Co178 2.057 . S
O198 C185 1.263 . S
C199 O189 1.221 . S
C199 O195 1.277 . S
C200 C183 1.361 . S
C200 H201 0.960 . S
C200 H202 0.961 . S
C200 H203 0.961 . S
H201 C200 0.960 . S
H202 C200 0.961 . S
H203 C200 0.961 . S
C204 O188 1.221 . S
C204 O192 1.277 . S
C205 O190 1.237 . S
C205 O191 1.278 . S
H206 C174 0.931 . S
H207 C210 0.961 1_545 S
H208 C210 0.961 . S
H209 C210 0.960 . S
C210 C176 1.361 . S
C210 H207 0.961 1_565 S
C210 H208 0.961 . S
C210 H209 0.960 . S
C211 O187 1.253 . S
C211 O196 1.263 . S
C212 O194 1.278 . S
C212 O197 1.237 . S
H213 C177 0.930 . S
H214 C181 0.930 . S
Co215 N216 2.034 . S
Co215 O230 2.262 . S
Co215 O234 1.958 . S
Co215 O238 1.950 . S
Co215 O239 2.057 . S
N216 Co215 2.034 . S
N216 C217 1.366 . S
N216 C219 1.332 . S
C217 N216 1.366 . S
C217 C220 1.377 . S
C217 H249 0.931 . S
N218 C219 1.346 . S
N218 C220 1.337 . S
C219 N216 1.332 . S
C219 N218 1.346 . S
C219 C253 1.361 . S
C220 C217 1.377 . S
C220 N218 1.337 . S
C220 H256 0.930 . S
Co221 N222 2.034 . S
Co221 O235 1.950 . S
Co221 O236 2.262 . S
Co221 O237 1.958 . S
Co221 O241 2.057 . S
N222 Co221 2.034 . S
N222 C225 1.366 . S
N222 C226 1.332 . S
N223 C224 1.337 . S
N223 C226 1.346 . S
C224 N223 1.337 . S
C224 C225 1.377 . S
C224 H257 0.930 . S
C225 N222 1.366 . S
C225 C224 1.377 . S
C225 H229 0.931 . S
C226 N222 1.332 . S
C226 N223 1.346 . S
C226 C243 1.361 . S
Co227 O230 2.097 . S
Co227 O231 2.065 . S
Co227 O232 2.065 . S
Co227 O233 2.042 . S
Co227 O236 2.097 . S
Co227 O240 2.042 . S
C228 O236 1.253 . S
C228 O241 1.263 . S
H229 C225 0.931 . S
O230 Co215 2.262 . S
O230 Co227 2.097 . S
O230 C254 1.253 . S
O231 Co227 2.065 . S
O231 C247 1.221 . S
O232 Co227 2.065 . S
O232 C242 1.221 . S
O233 Co227 2.042 . S
O233 C248 1.237 . S
O234 Co215 1.958 . S
O234 C248 1.278 . S
O235 Co221 1.950 . S
O235 C247 1.277 . S
O236 Co221 2.262 . S
O236 Co227 2.097 . S
O236 C228 1.253 . S
O237 Co221 1.958 . S
O237 C255 1.278 . S
O238 Co215 1.950 . S
O238 C242 1.277 . S
O239 Co215 2.057 . S
O239 C254 1.263 . S
O240 Co227 2.042 . S
O240 C255 1.237 . S
O241 Co221 2.057 . S
O241 C228 1.263 . S
C242 O232 1.221 . S
C242 O238 1.277 . S
C243 C226 1.361 . S
C243 H244 0.960 . S
C243 H245 0.961 . S
C243 H246 0.961 . S
H244 C243 0.960 . S
H245 C243 0.961 . S
H246 C243 0.961 . S
C247 O231 1.221 . S
C247 O235 1.277 . S
C248 O233 1.237 . S
C248 O234 1.278 . S
H249 C217 0.931 . S
H250 C253 0.961 1_565 S
H251 C253 0.961 . S
H252 C253 0.960 . S
C253 C219 1.361 . S
C253 H250 0.961 1_545 S
C253 H251 0.961 . S
C253 H252 0.960 . S
C254 O230 1.253 . S
C254 O239 1.263 . S
C255 O237 1.278 . S
C255 O240 1.237 . S
H256 C220 0.930 . S
H257 C224 0.930 . S
Co258 N259 2.034 . S
Co258 O273 2.262 . S
Co258 O277 1.958 . S
Co258 O281 1.950 . S
Co258 O282 2.057 . S
N259 Co258 2.034 . S
N259 C260 1.366 . S
N259 C262 1.332 . S
C260 N259 1.366 . S
C260 C263 1.377 . S
C260 H292 0.931 . S
N261 C262 1.346 . S
N261 C263 1.337 . S
C262 N259 1.332 . S
C262 N261 1.346 . S
C262 C296 1.361 . S
C263 C260 1.377 . S
C263 N261 1.337 . S
C263 H299 0.930 . S
Co264 N265 2.034 . S
Co264 O278 1.950 . S
Co264 O279 2.262 . S
Co264 O280 1.958 . S
Co264 O284 2.057 . S
N265 Co264 2.034 . S
N265 C268 1.366 . S
N265 C269 1.332 . S
N266 C267 1.337 . S
N266 C269 1.346 . S
C267 N266 1.337 . S
C267 C268 1.377 . S
C267 H300 0.930 . S
C268 N265 1.366 . S
C268 C267 1.377 . S
C268 H272 0.931 . S
C269 N265 1.332 . S
C269 N266 1.346 . S
C269 C286 1.361 . S
Co270 O273 2.097 . S
Co270 O274 2.065 . S
Co270 O275 2.065 1_545 S
Co270 O276 2.042 1_545 S
Co270 O279 2.097 1_545 S
Co270 O283 2.042 . S
C271 O279 1.253 . S
C271 O284 1.263 . S
H272 C268 0.931 . S
O273 Co258 2.262 . S
O273 Co270 2.097 . S
O273 C297 1.253 . S
O274 Co270 2.065 . S
O274 C290 1.224 . S
O275 Co270 2.065 1_565 S
O275 C285 1.222 . S
O276 Co270 2.042 1_565 S
O276 C291 1.237 . S
O277 Co258 1.958 . S
O277 C291 1.278 1_545 S
O278 Co264 1.950 . S
O278 C290 1.271 1_565 S
O279 Co264 2.262 . S
O279 Co270 2.097 1_565 S
O279 C271 1.253 . S
O280 Co264 1.958 . S
O280 C298 1.278 1_565 S
O281 Co258 1.950 . S
O281 C285 1.274 1_545 S
O282 Co258 2.057 . S
O282 C297 1.263 . S
O283 Co270 2.042 . S
O283 C298 1.237 . S
O284 Co264 2.057 . S
O284 C271 1.263 . S
C285 O275 1.222 . S
C285 O281 1.274 1_565 S
C286 C269 1.361 . S
C286 H287 0.960 . S
C286 H288 0.961 . S
C286 H289 0.961 . S
H287 C286 0.960 . S
H288 C286 0.961 . S
H289 C286 0.961 . S
C290 O274 1.224 . S
C290 O278 1.271 1_545 S
C291 O276 1.237 . S
C291 O277 1.278 1_565 S
H292 C260 0.931 . S
H293 C296 0.961 . S
H294 C296 0.961 . S
H295 C296 0.960 . S
C296 C262 1.361 . S
C296 H293 0.961 . S
C296 H294 0.961 . S
C296 H295 0.960 . S
C297 O273 1.253 . S
C297 O282 1.263 . S
C298 O280 1.278 1_545 S
C298 O283 1.237 . S
H299 C263 0.930 . S
H300 C267 0.930 . S
Co301 N302 2.034 . S
Co301 O316 2.262 . S
Co301 O320 1.958 . S
Co301 O324 1.950 1_556 S
Co301 O325 2.057 . S
N302 Co301 2.034 . S
N302 C303 1.366 . S
N302 C305 1.332 1_556 S
C303 N302 1.366 . S
C303 C306 1.377 . S
C303 H335 0.931 . S
N304 C305 1.346 . S
N304 C306 1.337 1_554 S
C305 N302 1.332 1_554 S
C305 N304 1.346 . S
C305 C339 1.361 . S
C306 C303 1.377 . S
C306 N304 1.337 1_556 S
C306 H342 0.930 . S
Co307 N308 2.034 . S
Co307 O321 1.950 1_556 S
Co307 O322 2.262 . S
Co307 O323 1.958 . S
Co307 O327 2.057 . S
N308 Co307 2.034 . S
N308 C311 1.366 . S
N308 C312 1.332 1_556 S
N309 C310 1.337 1_554 S
N309 C312 1.346 . S
C310 N309 1.337 1_556 S
C310 C311 1.377 . S
C310 H343 0.930 . S
C311 N308 1.366 . S
C311 C310 1.377 . S
C311 H315 0.931 . S
C312 N308 1.332 1_554 S
C312 N309 1.346 . S
C312 C329 1.361 . S
Co313 O316 2.097 . S
Co313 O317 2.065 1_556 S
Co313 O318 2.065 1_556 S
Co313 O319 2.042 . S
Co313 O322 2.097 . S
Co313 O326 2.042 . S
C314 O322 1.253 . S
C314 O327 1.263 . S
H315 C311 0.931 . S
O316 Co301 2.262 . S
O316 Co313 2.097 . S
O316 C340 1.253 . S
O317 Co313 2.065 1_554 S
O317 C333 1.221 . S
O318 Co313 2.065 1_554 S
O318 C328 1.221 . S
O319 Co313 2.042 . S
O319 C334 1.237 . S
O320 Co301 1.958 . S
O320 C334 1.278 . S
O321 Co307 1.950 1_554 S
O321 C333 1.277 . S
O322 Co307 2.262 . S
O322 Co313 2.097 . S
O322 C314 1.253 . S
O323 Co307 1.958 . S
O323 C341 1.278 . S
O324 Co301 1.950 1_554 S
O324 C328 1.277 . S
O325 Co301 2.057 . S
O325 C340 1.263 . S
O326 Co313 2.042 . S
O326 C341 1.237 . S
O327 Co307 2.057 . S
O327 C314 1.263 . S
C328 O318 1.221 . S
C328 O324 1.277 . S
C329 C312 1.361 . S
C329 H330 0.960 . S
C329 H331 0.961 . S
C329 H332 0.961 . S
H330 C329 0.960 . S
H331 C329 0.961 . S
H332 C329 0.961 . S
C333 O317 1.221 . S
C333 O321 1.277 . S
C334 O319 1.237 . S
C334 O320 1.278 . S
H335 C303 0.931 . S
H336 C339 0.961 . S
H337 C339 0.961 . S
H338 C339 0.960 . S
C339 C305 1.361 . S
C339 H336 0.961 . S
C339 H337 0.961 . S
C339 H338 0.960 . S
C340 O316 1.253 . S
C340 O325 1.263 . S
C341 O323 1.278 . S
C341 O326 1.237 . S
H342 C306 0.930 . S
H343 C310 0.930 . S
H344 C356 0.930 . S
H345 C358 0.930 1_565 S
H346 C359 0.930 . S
H347 C363 0.959 . S
H348 C363 0.959 . S
H349 C363 0.961 . S
H350 C364 0.960 . S
H351 C364 0.961 . S
H352 C364 0.959 . S
H353 C367 0.929 . S
H354 C368 0.931 . S
H355 C370 0.930 . S
C356 H344 0.930 . S
C356 C357 1.399 . S
C356 C361 1.399 . S
C357 C356 1.399 . S
C357 C358 1.376 . S
C358 H345 0.930 1_545 S
C358 C357 1.376 . S
C358 C359 1.388 . S
C359 H346 0.930 . S
C359 C358 1.388 . S
C359 C360 1.390 . S
C360 C359 1.390 . S
C360 C361 1.394 . S
C360 C366 1.465 . S
C361 C356 1.399 . S
C361 C360 1.394 . S
C361 C362 1.516 . S
C362 C361 1.516 . S
C362 C363 1.502 . S
C362 C364 1.561 . S
C362 C365 1.526 . S
C363 H347 0.959 . S
C363 H348 0.959 . S
C363 H349 0.961 . S
C363 C362 1.502 . S
C364 H350 0.960 . S
C364 H351 0.961 . S
C364 H352 0.959 . S
C364 C362 1.561 . S
C365 C362 1.526 . S
C365 C366 1.396 . S
C365 C370 1.390 . S
C366 C360 1.465 . S
C366 C365 1.396 . S
C366 C367 1.399 . S
C367 H353 0.929 . S
C367 C366 1.399 . S
C367 C368 1.385 . S
C368 H354 0.931 . S
C368 C367 1.385 . S
C368 C369 1.389 . S
C369 C368 1.389 . S
C369 C370 1.387 . S
C370 H355 0.930 . S
C370 C365 1.390 . S
C370 C369 1.387 . S
H371 C383 0.930 . S
H372 C385 0.930 . S
H373 C386 0.930 . S
H374 C390 0.959 1_565 S
H375 C390 0.959 . S
H376 C390 0.961 . S
H377 C391 0.960 . S
H378 C391 0.961 . S
H379 C391 0.959 . S
H380 C394 0.929 . S
H381 C395 0.931 . S
H382 C397 0.930 . S
C383 H371 0.930 . S
C383 C384 1.399 1_545 S
C383 C388 1.399 1_545 S
C384 C383 1.399 1_565 S
C384 C385 1.376 . S
C385 H372 0.930 . S
C385 C384 1.376 . S
C385 C386 1.388 . S
C386 H373 0.930 . S
C386 C385 1.388 . S
C386 C387 1.390 . S
C387 C386 1.390 . S
C387 C388 1.394 . S
C387 C393 1.465 . S
C388 C383 1.399 1_565 S
C388 C387 1.394 . S
C388 C389 1.516 . S
C389 C388 1.516 . S
C389 C390 1.502 1_565 S
C389 C391 1.561 1_565 S
C389 C392 1.526 . S
C390 H374 0.959 1_545 S
C390 H375 0.959 . S
C390 H376 0.961 . S
C390 C389 1.502 1_545 S
C391 H377 0.960 . S
C391 H378 0.961 . S
C391 H379 0.959 . S
C391 C389 1.561 1_545 S
C392 C389 1.526 . S
C392 C393 1.396 . S
C392 C397 1.390 . S
C393 C387 1.465 . S
C393 C392 1.396 . S
C393 C394 1.399 . S
C394 H380 0.929 . S
C394 C393 1.399 . S
C394 C395 1.385 . S
C395 H381 0.931 . S
C395 C394 1.385 . S
C395 C396 1.389 . S
C396 C395 1.389 . S
C396 C397 1.387 . S
C397 H382 0.930 . S
C397 C392 1.390 . S
C397 C396 1.387 . S
H398 C410 0.930 . S
H399 C412 0.930 . S
H400 C413 0.930 . S
H401 C417 0.959 . S
H402 C417 0.959 . S
H403 C417 0.961 . S
H404 C418 0.960 . S
H405 C418 0.961 . S
H406 C418 0.959 . S
H407 C421 0.929 . S
H408 C422 0.931 . S
H409 C424 0.930 . S
C410 H398 0.930 . S
C410 C411 1.399 . S
C410 C415 1.399 . S
C411 C410 1.399 . S
C411 C412 1.376 . S
C412 H399 0.930 . S
C412 C411 1.376 . S
C412 C413 1.388 . S
C413 H400 0.930 . S
C413 C412 1.388 . S
C413 C414 1.390 . S
C414 C413 1.390 . S
C414 C415 1.394 . S
C414 C420 1.465 . S
C415 C410 1.399 . S
C415 C414 1.394 . S
C415 C416 1.516 . S
C416 C415 1.516 . S
C416 C417 1.502 . S
C416 C418 1.561 . S
C416 C419 1.526 . S
C417 H401 0.959 . S
C417 H402 0.959 . S
C417 H403 0.961 . S
C417 C416 1.502 . S
C418 H404 0.960 . S
C418 H405 0.961 . S
C418 H406 0.959 . S
C418 C416 1.561 . S
C419 C416 1.526 . S
C419 C420 1.396 . S
C419 C424 1.390 . S
C420 C414 1.465 . S
C420 C419 1.396 . S
C420 C421 1.399 . S
C421 H407 0.929 . S
C421 C420 1.399 . S
C421 C422 1.385 . S
C422 H408 0.931 . S
C422 C421 1.385 . S
C422 C423 1.389 . S
C423 C422 1.389 . S
C423 C424 1.387 . S
C424 H409 0.930 . S
C424 C419 1.390 . S
C424 C423 1.387 . S
H425 C437 0.930 . S
H426 C439 0.930 . S
H427 C440 0.930 . S
H428 C444 0.959 . S
H429 C444 0.959 . S
H430 C444 0.961 . S
H431 C445 0.960 . S
H432 C445 0.961 . S
H433 C445 0.959 . S
H434 C448 0.929 . S
H435 C449 0.931 . S
H436 C451 0.930 . S
C437 H425 0.930 . S
C437 C438 1.399 . S
C437 C442 1.399 . S
C438 C437 1.399 . S
C438 C439 1.376 . S
C439 H426 0.930 . S
C439 C438 1.376 . S
C439 C440 1.388 . S
C440 H427 0.930 . S
C440 C439 1.388 . S
C440 C441 1.390 . S
C441 C440 1.390 . S
C441 C442 1.394 . S
C441 C447 1.465 . S
C442 C437 1.399 . S
C442 C441 1.394 . S
C442 C443 1.516 . S
C443 C442 1.516 . S
C443 C444 1.502 . S
C443 C445 1.561 . S
C443 C446 1.526 . S
C444 H428 0.959 . S
C444 H429 0.959 . S
C444 H430 0.961 . S
C444 C443 1.502 . S
C445 H431 0.960 . S
C445 H432 0.961 . S
C445 H433 0.959 . S
C445 C443 1.561 . S
C446 C443 1.526 . S
C446 C447 1.396 . S
C446 C451 1.390 . S
C447 C441 1.465 . S
C447 C446 1.396 . S
C447 C448 1.399 . S
C448 H434 0.929 . S
C448 C447 1.399 . S
C448 C449 1.385 . S
C449 H435 0.931 . S
C449 C448 1.385 . S
C449 C450 1.389 . S
C450 C449 1.389 . S
C450 C451 1.387 . S
C451 H436 0.930 . S
C451 C446 1.390 . S
C451 C450 1.387 . S
H452 C464 0.930 . S
H453 C466 0.930 . S
H454 C467 0.930 . S
H455 C471 0.959 . S
H456 C471 0.959 . S
H457 C471 0.961 . S
H458 C472 0.960 . S
H459 C472 0.961 . S
H460 C472 0.959 . S
H461 C475 0.929 . S
H462 C476 0.931 . S
H463 C478 0.930 . S
C464 H452 0.930 . S
C464 C465 1.399 . S
C464 C469 1.399 . S
C465 C464 1.399 . S
C465 C466 1.376 . S
C466 H453 0.930 . S
C466 C465 1.376 . S
C466 C467 1.388 . S
C467 H454 0.930 . S
C467 C466 1.388 . S
C467 C468 1.390 . S
C468 C467 1.390 . S
C468 C469 1.394 . S
C468 C474 1.465 . S
C469 C464 1.399 . S
C469 C468 1.394 . S
C469 C470 1.516 . S
C470 C469 1.516 . S
C470 C471 1.502 . S
C470 C472 1.561 . S
C470 C473 1.526 . S
C471 H455 0.959 . S
C471 H456 0.959 . S
C471 H457 0.961 . S
C471 C470 1.502 . S
C472 H458 0.960 . S
C472 H459 0.961 . S
C472 H460 0.959 . S
C472 C470 1.561 . S
C473 C470 1.526 . S
C473 C474 1.396 . S
C473 C478 1.390 . S
C474 C468 1.465 . S
C474 C473 1.396 . S
C474 C475 1.399 . S
C475 H461 0.929 . S
C475 C474 1.399 . S
C475 C476 1.385 . S
C476 H462 0.931 . S
C476 C475 1.385 . S
C476 C477 1.389 . S
C477 C476 1.389 . S
C477 C478 1.387 . S
C478 H463 0.930 . S
C478 C473 1.390 . S
C478 C477 1.387 . S
H479 C491 0.930 . S
H480 C493 0.930 . S
H481 C494 0.930 . S
H482 C498 0.959 . S
H483 C498 0.959 . S
H484 C498 0.961 . S
H485 C499 0.960 . S
H486 C499 0.961 . S
H487 C499 0.959 . S
H488 C502 0.929 . S
H489 C503 0.931 . S
H490 C505 0.930 . S
C491 H479 0.930 . S
C491 C492 1.399 . S
C491 C496 1.399 . S
C492 C491 1.399 . S
C492 C493 1.376 . S
C493 H480 0.930 . S
C493 C492 1.376 . S
C493 C494 1.388 . S
C494 H481 0.930 . S
C494 C493 1.388 . S
C494 C495 1.390 . S
C495 C494 1.390 . S
C495 C496 1.394 . S
C495 C501 1.465 . S
C496 C491 1.399 . S
C496 C495 1.394 . S
C496 C497 1.516 . S
C497 C496 1.516 . S
C497 C498 1.502 . S
C497 C499 1.561 . S
C497 C500 1.526 . S
C498 H482 0.959 . S
C498 H483 0.959 . S
C498 H484 0.961 . S
C498 C497 1.502 . S
C499 H485 0.960 . S
C499 H486 0.961 . S
C499 H487 0.959 . S
C499 C497 1.561 . S
C500 C497 1.526 . S
C500 C501 1.396 . S
C500 C505 1.390 . S
C501 C495 1.465 . S
C501 C500 1.396 . S
C501 C502 1.399 . S
C502 H488 0.929 . S
C502 C501 1.399 . S
C502 C503 1.385 . S
C503 H489 0.931 . S
C503 C502 1.385 . S
C503 C504 1.389 . S
C504 C503 1.389 . S
C504 C505 1.387 . S
C505 H490 0.930 . S
C505 C500 1.390 . S
C505 C504 1.387 . S
H506 C518 0.930 . S
H507 C520 0.930 . S
H508 C521 0.930 . S
H509 C525 0.959 . S
H510 C525 0.959 . S
H511 C525 0.961 . S
H512 C526 0.960 . S
H513 C526 0.961 . S
H514 C526 0.959 . S
H515 C529 0.929 1_545 S
H516 C530 0.931 1_545 S
H517 C532 0.930 . S
C518 H506 0.930 . S
C518 C519 1.399 . S
C518 C523 1.399 . S
C519 C518 1.399 . S
C519 C520 1.376 . S
C520 H507 0.930 . S
C520 C519 1.376 . S
C520 C521 1.388 . S
C521 H508 0.930 . S
C521 C520 1.388 . S
C521 C522 1.390 . S
C522 C521 1.390 . S
C522 C523 1.394 . S
C522 C528 1.465 . S
C523 C518 1.399 . S
C523 C522 1.394 . S
C523 C524 1.516 . S
C524 C523 1.516 . S
C524 C525 1.502 . S
C524 C526 1.561 . S
C524 C527 1.526 . S
C525 H509 0.959 . S
C525 H510 0.959 . S
C525 H511 0.961 . S
C525 C524 1.502 . S
C526 H512 0.960 . S
C526 H513 0.961 . S
C526 H514 0.959 . S
C526 C524 1.561 . S
C527 C524 1.526 . S
C527 C528 1.396 . S
C527 C532 1.390 . S
C528 C522 1.465 . S
C528 C527 1.396 . S
C528 C529 1.399 . S
C529 H515 0.929 1_565 S
C529 C528 1.399 . S
C529 C530 1.385 . S
C530 H516 0.931 1_565 S
C530 C529 1.385 . S
C530 C531 1.389 . S
C531 C530 1.389 . S
C531 C532 1.387 . S
C532 H517 0.930 . S
C532 C527 1.390 . S
C532 C531 1.387 . S
H533 C545 0.930 . S
H534 C547 0.930 . S
H535 C548 0.930 . S
H536 C552 0.959 1_545 S
H537 C552 0.959 . S
H538 C552 0.961 . S
H539 C553 0.960 . S
H540 C553 0.961 1_565 S
H541 C553 0.959 . S
H542 C556 0.929 . S
H543 C557 0.931 . S
H544 C559 0.930 1_565 S
C545 H533 0.930 . S
C545 C546 1.399 . S
C545 C550 1.399 . S
C546 C545 1.399 . S
C546 C547 1.376 . S
C547 H534 0.930 . S
C547 C546 1.376 . S
C547 C548 1.388 . S
C548 H535 0.930 . S
C548 C547 1.388 . S
C548 C549 1.390 . S
C549 C548 1.390 . S
C549 C550 1.394 . S
C549 C555 1.465 . S
C550 C545 1.399 . S
C550 C549 1.394 . S
C550 C551 1.516 . S
C551 C550 1.516 . S
C551 C552 1.502 1_545 S
C551 C553 1.561 . S
C551 C554 1.526 . S
C552 H536 0.959 1_565 S
C552 H537 0.959 . S
C552 H538 0.961 . S
C552 C551 1.502 1_565 S
C553 H539 0.960 . S
C553 H540 0.961 1_545 S
C553 H541 0.959 . S
C553 C551 1.561 . S
C554 C551 1.526 . S
C554 C555 1.396 . S
C554 C559 1.390 . S
C555 C549 1.465 . S
C555 C554 1.396 . S
C555 C556 1.399 . S
C556 H542 0.929 . S
C556 C555 1.399 . S
C556 C557 1.385 . S
C557 H543 0.931 . S
C557 C556 1.385 . S
C557 C558 1.389 . S
C558 C557 1.389 . S
C558 C559 1.387 . S
C559 H544 0.930 1_545 S
C559 C554 1.390 . S
C559 C558 1.387 . S
H560 C572 0.930 . S
H561 C574 0.930 . S
H562 C575 0.930 1_565 S
H563 C579 0.959 . S
H564 C579 0.959 . S
H565 C579 0.961 . S
H566 C580 0.960 . S
H567 C580 0.961 . S
H568 C580 0.959 . S
H569 C583 0.929 . S
H570 C584 0.931 . S
H571 C586 0.930 . S
C572 H560 0.930 . S
C572 C573 1.399 . S
C572 C577 1.399 . S
C573 C572 1.399 . S
C573 C574 1.376 . S
C574 H561 0.930 . S
C574 C573 1.376 . S
C574 C575 1.388 . S
C575 H562 0.930 1_545 S
C575 C574 1.388 . S
C575 C576 1.390 . S
C576 C575 1.390 . S
C576 C577 1.394 . S
C576 C582 1.465 . S
C577 C572 1.399 . S
C577 C576 1.394 . S
C577 C578 1.516 . S
C578 C577 1.516 . S
C578 C579 1.502 . S
C578 C580 1.561 . S
C578 C581 1.526 . S
C579 H563 0.959 . S
C579 H564 0.959 . S
C579 H565 0.961 . S
C579 C578 1.502 . S
C580 H566 0.960 . S
C580 H567 0.961 . S
C580 H568 0.959 . S
C580 C578 1.561 . S
C581 C578 1.526 . S
C581 C582 1.396 . S
C581 C586 1.390 . S
C582 C576 1.465 . S
C582 C581 1.396 . S
C582 C583 1.399 1_545 S
C583 H569 0.929 . S
C583 C582 1.399 1_565 S
C583 C584 1.385 . S
C584 H570 0.931 . S
C584 C583 1.385 . S
C584 C585 1.389 1_565 S
C585 C584 1.389 1_545 S
C585 C586 1.387 . S
C586 H571 0.930 . S
C586 C581 1.390 . S
C586 C585 1.387 . S
H587 C599 0.930 . S
H588 C601 0.930 . S
H589 C602 0.930 . S
H590 C606 0.959 . S
H591 C606 0.959 . S
H592 C606 0.961 . S
H593 C607 0.960 . S
H594 C607 0.961 . S
H595 C607 0.959 . S
H596 C610 0.929 . S
H597 C611 0.931 . S
H598 C613 0.930 . S
C599 H587 0.930 . S
C599 C600 1.399 . S
C599 C604 1.399 . S
C600 C599 1.399 . S
C600 C601 1.376 1_565 S
C601 H588 0.930 . S
C601 C600 1.376 1_545 S
C601 C602 1.388 . S
C602 H589 0.930 . S
C602 C601 1.388 . S
C602 C603 1.390 1_545 S
C603 C602 1.390 1_565 S
C603 C604 1.394 . S
C603 C609 1.465 . S
C604 C599 1.399 . S
C604 C603 1.394 . S
C604 C605 1.516 . S
C605 C604 1.516 . S
C605 C606 1.502 . S
C605 C607 1.561 . S
C605 C608 1.526 . S
C606 H590 0.959 . S
C606 H591 0.959 . S
C606 H592 0.961 . S
C606 C605 1.502 . S
C607 H593 0.960 . S
C607 H594 0.961 . S
C607 H595 0.959 . S
C607 C605 1.561 . S
C608 C605 1.526 . S
C608 C609 1.396 . S
C608 C613 1.390 . S
C609 C603 1.465 . S
C609 C608 1.396 . S
C609 C610 1.399 . S
C610 H596 0.929 . S
C610 C609 1.399 . S
C610 C611 1.385 . S
C611 H597 0.931 . S
C611 C610 1.385 . S
C611 C612 1.389 . S
C612 C611 1.389 . S
C612 C613 1.387 . S
C613 H598 0.930 . S
C613 C608 1.390 . S
C613 C612 1.387 . S
H614 C626 0.930 . S
H615 C628 0.930 . S
H616 C629 0.930 . S
H617 C633 0.959 . S
H618 C633 0.959 . S
H619 C633 0.961 . S
H620 C634 0.960 . S
H621 C634 0.961 . S
H622 C634 0.959 . S
H623 C637 0.929 . S
H624 C638 0.931 . S
H625 C640 0.930 . S
C626 H614 0.930 . S
C626 C627 1.399 . S
C626 C631 1.399 . S
C627 C626 1.399 . S
C627 C628 1.376 . S
C628 H615 0.930 . S
C628 C627 1.376 . S
C628 C629 1.388 . S
C629 H616 0.930 . S
C629 C628 1.388 . S
C629 C630 1.390 . S
C630 C629 1.390 . S
C630 C631 1.394 . S
C630 C636 1.465 . S
C631 C626 1.399 . S
C631 C630 1.394 . S
C631 C632 1.516 . S
C632 C631 1.516 . S
C632 C633 1.502 . S
C632 C634 1.561 . S
C632 C635 1.526 . S
C633 H617 0.959 . S
C633 H618 0.959 . S
C633 H619 0.961 . S
C633 C632 1.502 . S
C634 H620 0.960 . S
C634 H621 0.961 . S
C634 H622 0.959 . S
C634 C632 1.561 . S
C635 C632 1.526 . S
C635 C636 1.396 . S
C635 C640 1.390 . S
C636 C630 1.465 . S
C636 C635 1.396 . S
C636 C637 1.399 . S
C637 H623 0.929 . S
C637 C636 1.399 . S
C637 C638 1.385 . S
C638 H624 0.931 . S
C638 C637 1.385 . S
C638 C639 1.389 . S
C639 C638 1.389 . S
C639 C640 1.387 . S
C640 H625 0.930 . S
C640 C635 1.390 . S
C640 C639 1.387 . S
H641 C653 0.930 . S
H642 C655 0.930 . S
H643 C656 0.930 . S
H644 C660 0.959 . S
H645 C660 0.959 . S
H646 C660 0.961 . S
H647 C661 0.960 . S
H648 C661 0.961 . S
H649 C661 0.959 . S
H650 C664 0.929 . S
H651 C665 0.931 . S
H652 C667 0.930 . S
C653 H641 0.930 . S
C653 C654 1.399 . S
C653 C658 1.399 . S
C654 C653 1.399 . S
C654 C655 1.376 . S
C655 H642 0.930 . S
C655 C654 1.376 . S
C655 C656 1.388 . S
C656 H643 0.930 . S
C656 C655 1.388 . S
C656 C657 1.390 . S
C657 C656 1.390 . S
C657 C658 1.394 . S
C657 C663 1.465 . S
C658 C653 1.399 . S
C658 C657 1.394 . S
C658 C659 1.516 . S
C659 C658 1.516 . S
C659 C660 1.502 . S
C659 C661 1.561 . S
C659 C662 1.526 . S
C660 H644 0.959 . S
C660 H645 0.959 . S
C660 H646 0.961 . S
C660 C659 1.502 . S
C661 H647 0.960 . S
C661 H648 0.961 . S
C661 H649 0.959 . S
C661 C659 1.561 . S
C662 C659 1.526 . S
C662 C663 1.396 . S
C662 C667 1.390 . S
C663 C657 1.465 . S
C663 C662 1.396 . S
C663 C664 1.399 . S
C664 H650 0.929 . S
C664 C663 1.399 . S
C664 C665 1.385 . S
C665 H651 0.931 . S
C665 C664 1.385 . S
C665 C666 1.389 . S
C666 C665 1.389 . S
C666 C667 1.387 . S
C667 H652 0.930 . S
C667 C662 1.390 . S
C667 C666 1.387 . S
H668 C680 0.930 . S
H669 C682 0.930 . S
H670 C683 0.930 . S
H671 C687 0.959 . S
H672 C687 0.959 . S
H673 C687 0.961 . S
H674 C688 0.960 . S
H675 C688 0.961 . S
H676 C688 0.959 . S
H677 C691 0.929 . S
H678 C692 0.931 . S
H679 C694 0.930 . S
C680 H668 0.930 . S
C680 C681 1.399 . S
C680 C685 1.399 . S
C681 C680 1.399 . S
C681 C682 1.376 . S
C682 H669 0.930 . S
C682 C681 1.376 . S
C682 C683 1.388 . S
C683 H670 0.930 . S
C683 C682 1.388 . S
C683 C684 1.390 . S
C684 C683 1.390 . S
C684 C685 1.394 . S
C684 C690 1.465 . S
C685 C680 1.399 . S
C685 C684 1.394 . S
C685 C686 1.516 . S
C686 C685 1.516 . S
C686 C687 1.502 . S
C686 C688 1.561 . S
C686 C689 1.526 . S
C687 H671 0.959 . S
C687 H672 0.959 . S
C687 H673 0.961 . S
C687 C686 1.502 . S
C688 H674 0.960 . S
C688 H675 0.961 . S
C688 H676 0.959 . S
C688 C686 1.561 . S
C689 C686 1.526 . S
C689 C690 1.396 . S
C689 C694 1.390 . S
C690 C684 1.465 . S
C690 C689 1.396 . S
C690 C691 1.399 . S
C691 H677 0.929 . S
C691 C690 1.399 . S
C691 C692 1.385 . S
C692 H678 0.931 . S
C692 C691 1.385 . S
C692 C693 1.389 . S
C693 C692 1.389 . S
C693 C694 1.387 . S
C694 H679 0.930 . S
C694 C689 1.390 . S
C694 C693 1.387 . S
H695 C707 0.930 . S
H696 C709 0.930 . S
H697 C710 0.930 . S
H698 C714 0.959 . S
H699 C714 0.959 . S
H700 C714 0.961 . S
H701 C715 0.960 . S
H702 C715 0.961 . S
H703 C715 0.959 . S
H704 C718 0.929 . S
H705 C719 0.931 . S
H706 C721 0.930 . S
C707 H695 0.930 . S
C707 C708 1.399 . S
C707 C712 1.399 . S
C708 C707 1.399 . S
C708 C709 1.376 . S
C709 H696 0.930 . S
C709 C708 1.376 . S
C709 C710 1.388 . S
C710 H697 0.930 . S
C710 C709 1.388 . S
C710 C711 1.390 . S
C711 C710 1.390 . S
C711 C712 1.394 . S
C711 C717 1.465 . S
C712 C707 1.399 . S
C712 C711 1.394 . S
C712 C713 1.516 . S
C713 C712 1.516 . S
C713 C714 1.502 . S
C713 C715 1.561 . S
C713 C716 1.526 . S
C714 H698 0.959 . S
C714 H699 0.959 . S
C714 H700 0.961 . S
C714 C713 1.502 . S
C715 H701 0.960 . S
C715 H702 0.961 . S
C715 H703 0.959 . S
C715 C713 1.561 . S
C716 C713 1.526 . S
C716 C717 1.396 . S
C716 C721 1.390 . S
C717 C711 1.465 . S
C717 C716 1.396 . S
C717 C718 1.399 . S
C718 H704 0.929 . S
C718 C717 1.399 . S
C718 C719 1.385 . S
C719 H705 0.931 . S
C719 C718 1.385 . S
C719 C720 1.389 . S
C720 C719 1.389 . S
C720 C721 1.387 . S
C721 H706 0.930 . S
C721 C716 1.390 . S
C721 C720 1.387 . S
H722 C734 0.930 1_545 S
H723 C736 0.930 . S
H724 C737 0.930 . S
H725 C741 0.959 . S
H726 C741 0.959 . S
H727 C741 0.961 1_545 S
H728 C742 0.960 . S
H729 C742 0.961 . S
H730 C742 0.959 1_565 S
H731 C745 0.929 . S
H732 C746 0.931 . S
H733 C748 0.930 . S
C734 H722 0.930 1_565 S
C734 C735 1.399 . S
C734 C739 1.399 . S
C735 C734 1.399 . S
C735 C736 1.376 . S
C736 H723 0.930 . S
C736 C735 1.376 . S
C736 C737 1.388 . S
C737 H724 0.930 . S
C737 C736 1.388 . S
C737 C738 1.390 . S
C738 C737 1.390 . S
C738 C739 1.394 . S
C738 C744 1.465 . S
C739 C734 1.399 . S
C739 C738 1.394 . S
C739 C740 1.516 . S
C740 C739 1.516 . S
C740 C741 1.502 . S
C740 C742 1.561 1_565 S
C740 C743 1.526 . S
C741 H725 0.959 . S
C741 H726 0.959 . S
C741 H727 0.961 1_565 S
C741 C740 1.502 . S
C742 H728 0.960 . S
C742 H729 0.961 . S
C742 H730 0.959 1_545 S
C742 C740 1.561 1_545 S
C743 C740 1.526 . S
C743 C744 1.396 . S
C743 C748 1.390 . S
C744 C738 1.465 . S
C744 C743 1.396 . S
C744 C745 1.399 . S
C745 H731 0.929 . S
C745 C744 1.399 . S
C745 C746 1.385 . S
C746 H732 0.931 . S
C746 C745 1.385 . S
C746 C747 1.389 . S
C747 C746 1.389 . S
C747 C748 1.387 . S
C748 H733 0.930 . S
C748 C743 1.390 . S
C748 C747 1.387 . S
H749 C761 0.930 1_565 S
H750 C763 0.930 . S
H751 C764 0.930 . S
H752 C768 0.959 . S
H753 C768 0.959 . S
H754 C768 0.961 1_565 S
H755 C769 0.960 . S
H756 C769 0.961 . S
H757 C769 0.959 1_545 S
H758 C772 0.929 . S
H759 C773 0.931 . S
H760 C775 0.930 . S
C761 H749 0.930 1_545 S
C761 C762 1.399 . S
C761 C766 1.399 . S
C762 C761 1.399 . S
C762 C763 1.376 . S
C763 H750 0.930 . S
C763 C762 1.376 . S
C763 C764 1.388 . S
C764 H751 0.930 . S
C764 C763 1.388 . S
C764 C765 1.390 . S
C765 C764 1.390 . S
C765 C766 1.394 . S
C765 C771 1.465 . S
C766 C761 1.399 . S
C766 C765 1.394 . S
C766 C767 1.516 . S
C767 C766 1.516 . S
C767 C768 1.502 . S
C767 C769 1.561 1_545 S
C767 C770 1.526 . S
C768 H752 0.959 . S
C768 H753 0.959 . S
C768 H754 0.961 1_545 S
C768 C767 1.502 . S
C769 H755 0.960 . S
C769 H756 0.961 . S
C769 H757 0.959 1_565 S
C769 C767 1.561 1_565 S
C770 C767 1.526 . S
C770 C771 1.396 . S
C770 C775 1.390 . S
C771 C765 1.465 . S
C771 C770 1.396 . S
C771 C772 1.399 . S
C772 H758 0.929 . S
C772 C771 1.399 . S
C772 C773 1.385 . S
C773 H759 0.931 . S
C773 C772 1.385 . S
C773 C774 1.389 . S
C774 C773 1.389 . S
C774 C775 1.387 . S
C775 H760 0.930 . S
C775 C770 1.390 . S
C775 C774 1.387 . S
H776 C788 0.930 . S
H777 C790 0.930 . S
H778 C791 0.930 . S
H779 C795 0.959 1_554 S
H780 C795 0.959 . S
H781 C795 0.961 . S
H782 C796 0.960 . S
H783 C796 0.961 . S
H784 C796 0.959 . S
H785 C799 0.929 . S
H786 C800 0.931 . S
H787 C802 0.930 . S
C788 H776 0.930 . S
C788 C789 1.417 . S
C788 C793 1.399 . S
C789 C788 1.417 . S
C789 C790 1.352 1_656 S
C790 H777 0.930 . S
C790 C789 1.352 1_454 S
C790 C791 1.388 . S
C791 H778 0.930 . S
C791 C790 1.388 . S
C791 C792 1.399 . S
C792 C791 1.399 . S
C792 C793 1.384 1_454 S
C792 C798 1.466 . S
C793 C788 1.399 . S
C793 C792 1.384 1_656 S
C793 C794 1.516 . S
C794 C793 1.516 . S
C794 C795 1.502 . S
C794 C796 1.561 . S
C794 C797 1.526 . S
C795 H779 0.959 1_556 S
C795 H780 0.959 . S
C795 H781 0.961 . S
C795 C794 1.502 . S
C796 H782 0.960 . S
C796 H783 0.961 . S
C796 H784 0.959 . S
C796 C794 1.561 . S
C797 C794 1.526 . S
C797 C798 1.396 1_656 S
C797 C802 1.390 . S
C798 C792 1.466 . S
C798 C797 1.396 1_454 S
C798 C799 1.399 . S
C799 H785 0.929 . S
C799 C798 1.399 . S
C799 C800 1.385 . S
C800 H786 0.931 . S
C800 C799 1.385 . S
C800 C801 1.386 1_554 S
C801 C800 1.386 1_556 S
C801 C802 1.390 1_455 S
C802 H787 0.930 . S
C802 C797 1.390 . S
C802 C801 1.390 1_655 S
H803 C815 0.930 . S
H804 C817 0.930 . S
H805 C818 0.930 . S
H806 C822 0.959 . S
H807 C822 0.959 . S
H808 C822 0.961 . S
H809 C823 0.960 . S
H810 C823 0.961 . S
H811 C823 0.959 . S
H812 C826 0.929 . S
H813 C827 0.931 . S
H814 C829 0.930 . S
C815 H803 0.930 . S
C815 C816 1.399 . S
C815 C820 1.399 . S
C816 C815 1.399 . S
C816 C817 1.376 . S
C817 H804 0.930 . S
C817 C816 1.376 . S
C817 C818 1.388 . S
C818 H805 0.930 . S
C818 C817 1.388 . S
C818 C819 1.390 . S
C819 C818 1.390 . S
C819 C820 1.394 . S
C819 C825 1.465 . S
C820 C815 1.399 . S
C820 C819 1.394 . S
C820 C821 1.516 . S
C821 C820 1.516 . S
C821 C822 1.502 . S
C821 C823 1.561 . S
C821 C824 1.526 . S
C822 H806 0.959 . S
C822 H807 0.959 . S
C822 H808 0.961 . S
C822 C821 1.502 . S
C823 H809 0.960 . S
C823 H810 0.961 . S
C823 H811 0.959 . S
C823 C821 1.561 . S
C824 C821 1.526 . S
C824 C825 1.396 . S
C824 C829 1.390 . S
C825 C819 1.465 . S
C825 C824 1.396 . S
C825 C826 1.399 . S
C826 H812 0.929 . S
C826 C825 1.399 . S
C826 C827 1.385 . S
C827 H813 0.931 . S
C827 C826 1.385 . S
C827 C828 1.389 . S
C828 C827 1.389 . S
C828 C829 1.387 . S
C829 H814 0.930 . S
C829 C824 1.390 . S
C829 C828 1.387 . S
H830 C842 0.930 . S
H831 C844 0.930 . S
H832 C845 0.930 . S
H833 C849 0.959 . S
H834 C849 0.959 . S
H835 C849 0.961 . S
H836 C850 0.960 . S
H837 C850 0.961 . S
H838 C850 0.959 . S
H839 C853 0.929 . S
H840 C854 0.931 . S
H841 C856 0.930 . S
C842 H830 0.930 . S
C842 C843 1.399 . S
C842 C847 1.399 . S
C843 C842 1.399 . S
C843 C844 1.376 . S
C844 H831 0.930 . S
C844 C843 1.376 . S
C844 C845 1.388 . S
C845 H832 0.930 . S
C845 C844 1.388 . S
C845 C846 1.390 . S
C846 C845 1.390 . S
C846 C847 1.394 . S
C846 C852 1.465 . S
C847 C842 1.399 . S
C847 C846 1.394 . S
C847 C848 1.516 . S
C848 C847 1.516 . S
C848 C849 1.502 . S
C848 C850 1.561 . S
C848 C851 1.526 . S
C849 H833 0.959 . S
C849 H834 0.959 . S
C849 H835 0.961 . S
C849 C848 1.502 . S
C850 H836 0.960 . S
C850 H837 0.961 . S
C850 H838 0.959 . S
C850 C848 1.561 . S
C851 C848 1.526 . S
C851 C852 1.396 . S
C851 C856 1.390 . S
C852 C846 1.465 . S
C852 C851 1.396 . S
C852 C853 1.399 . S
C853 H839 0.929 . S
C853 C852 1.399 . S
C853 C854 1.385 . S
C854 H840 0.931 . S
C854 C853 1.385 . S
C854 C855 1.389 . S
C855 C854 1.389 . S
C855 C856 1.387 . S
C856 H841 0.930 . S
C856 C851 1.390 . S
C856 C855 1.387 . S
H857 C869 0.930 . S
H858 C871 0.930 . S
H859 C872 0.930 . S
H860 C876 0.959 . S
H861 C876 0.959 . S
H862 C876 0.961 1_565 S
H863 C877 0.960 . S
H864 C877 0.961 1_545 S
H865 C877 0.959 1_545 S
H866 C880 0.929 . S
H867 C881 0.931 . S
H868 C883 0.930 . S
C869 H857 0.930 . S
C869 C870 1.399 . S
C869 C874 1.399 . S
C870 C869 1.399 . S
C870 C871 1.376 1_455 S
C871 H858 0.930 . S
C871 C870 1.376 1_655 S
C871 C872 1.388 . S
C872 H859 0.930 . S
C872 C871 1.388 . S
C872 C873 1.390 . S
C873 C872 1.390 . S
C873 C874 1.394 1_655 S
C873 C879 1.465 1_565 S
C874 C869 1.399 . S
C874 C873 1.394 1_455 S
C874 C875 1.516 1_565 S
C875 C874 1.516 1_545 S
C875 C876 1.502 . S
C875 C877 1.561 1_445 S
C875 C878 1.526 . S
C876 H860 0.959 . S
C876 H861 0.959 . S
C876 H862 0.961 1_545 S
C876 C875 1.502 . S
C877 H863 0.960 . S
C877 H864 0.961 1_565 S
C877 H865 0.959 1_565 S
C877 C875 1.561 1_665 S
C878 C875 1.526 . S
C878 C879 1.396 1_455 S
C878 C883 1.390 . S
C879 C873 1.465 1_545 S
C879 C878 1.396 1_655 S
C879 C880 1.399 . S
C880 H866 0.929 . S
C880 C879 1.399 . S
C880 C881 1.385 . S
C881 H867 0.931 . S
C881 C880 1.385 . S
C881 C882 1.389 . S
C882 C881 1.389 . S
C882 C883 1.387 1_655 S
C883 H868 0.930 . S
C883 C878 1.390 . S
C883 C882 1.387 1_455 S
H884 C896 0.930 . S
H885 C898 0.930 . S
H886 C899 0.930 . S
H887 C903 0.959 . S
H888 C903 0.959 . S
H889 C903 0.961 . S
H890 C904 0.960 . S
H891 C904 0.961 . S
H892 C904 0.959 . S
H893 C907 0.929 . S
H894 C908 0.931 . S
H895 C910 0.930 . S
C896 H884 0.930 . S
C896 C897 1.399 . S
C896 C901 1.399 . S
C897 C896 1.399 . S
C897 C898 1.376 . S
C898 H885 0.930 . S
C898 C897 1.376 . S
C898 C899 1.388 . S
C899 H886 0.930 . S
C899 C898 1.388 . S
C899 C900 1.390 . S
C900 C899 1.390 . S
C900 C901 1.394 . S
C900 C906 1.465 . S
C901 C896 1.399 . S
C901 C900 1.394 . S
C901 C902 1.516 . S
C902 C901 1.516 . S
C902 C903 1.502 . S
C902 C904 1.561 . S
C902 C905 1.526 . S
C903 H887 0.959 . S
C903 H888 0.959 . S
C903 H889 0.961 . S
C903 C902 1.502 . S
C904 H890 0.960 . S
C904 H891 0.961 . S
C904 H892 0.959 . S
C904 C902 1.561 . S
C905 C902 1.526 . S
C905 C906 1.396 . S
C905 C910 1.390 . S
C906 C900 1.465 . S
C906 C905 1.396 . S
C906 C907 1.399 . S
C907 H893 0.929 . S
C907 C906 1.399 . S
C907 C908 1.385 . S
C908 H894 0.931 . S
C908 C907 1.385 . S
C908 C909 1.389 . S
C909 C908 1.389 . S
C909 C910 1.387 . S
C910 H895 0.930 . S
C910 C905 1.390 . S
C910 C909 1.387 . S
H911 C923 0.930 . S
H912 C925 0.930 . S
H913 C926 0.930 . S
H914 C930 0.959 . S
H915 C930 0.959 . S
H916 C930 0.961 . S
H917 C931 0.960 . S
H918 C931 0.961 . S
H919 C931 0.959 . S
H920 C934 0.929 . S
H921 C935 0.931 . S
H922 C937 0.930 . S
C923 H911 0.930 . S
C923 C924 1.399 . S
C923 C928 1.399 . S
C924 C923 1.399 . S
C924 C925 1.376 . S
C925 H912 0.930 . S
C925 C924 1.376 . S
C925 C926 1.388 . S
C926 H913 0.930 . S
C926 C925 1.388 . S
C926 C927 1.390 . S
C927 C926 1.390 . S
C927 C928 1.394 . S
C927 C933 1.465 . S
C928 C923 1.399 . S
C928 C927 1.394 . S
C928 C929 1.516 . S
C929 C928 1.516 . S
C929 C930 1.502 . S
C929 C931 1.561 . S
C929 C932 1.526 . S
C930 H914 0.959 . S
C930 H915 0.959 . S
C930 H916 0.961 . S
C930 C929 1.502 . S
C931 H917 0.960 . S
C931 H918 0.961 . S
C931 H919 0.959 . S
C931 C929 1.561 . S
C932 C929 1.526 . S
C932 C933 1.396 . S
C932 C937 1.390 . S
C933 C927 1.465 . S
C933 C932 1.396 . S
C933 C934 1.399 . S
C934 H920 0.929 . S
C934 C933 1.399 . S
C934 C935 1.385 . S
C935 H921 0.931 . S
C935 C934 1.385 . S
C935 C936 1.389 . S
C936 C935 1.389 . S
C936 C937 1.387 . S
C937 H922 0.930 . S
C937 C932 1.390 . S
C937 C936 1.387 . S
H938 C950 0.930 . S
H939 C952 0.930 . S
H940 C953 0.930 . S
H941 C957 0.959 . S
H942 C957 0.959 . S
H943 C957 0.961 . S
H944 C958 0.960 . S
H945 C958 0.961 . S
H946 C958 0.959 . S
H947 C961 0.929 . S
H948 C962 0.931 . S
H949 C964 0.930 . S
C950 H938 0.930 . S
C950 C951 1.399 . S
C950 C955 1.399 . S
C951 C950 1.399 . S
C951 C952 1.376 . S
C952 H939 0.930 . S
C952 C951 1.376 . S
C952 C953 1.388 . S
C953 H940 0.930 . S
C953 C952 1.388 . S
C953 C954 1.390 . S
C954 C953 1.390 . S
C954 C955 1.394 . S
C954 C960 1.465 . S
C955 C950 1.399 . S
C955 C954 1.394 . S
C955 C956 1.516 . S
C956 C955 1.516 . S
C956 C957 1.502 . S
C956 C958 1.561 . S
C956 C959 1.526 . S
C957 H941 0.959 . S
C957 H942 0.959 . S
C957 H943 0.961 . S
C957 C956 1.502 . S
C958 H944 0.960 . S
C958 H945 0.961 . S
C958 H946 0.959 . S
C958 C956 1.561 . S
C959 C956 1.526 . S
C959 C960 1.396 . S
C959 C964 1.390 . S
C960 C954 1.465 . S
C960 C959 1.396 . S
C960 C961 1.399 . S
C961 H947 0.929 . S
C961 C960 1.399 . S
C961 C962 1.385 . S
C962 H948 0.931 . S
C962 C961 1.385 . S
C962 C963 1.389 . S
C963 C962 1.389 . S
C963 C964 1.387 . S
C964 H949 0.930 . S
C964 C959 1.390 . S
C964 C963 1.387 . S
H965 C977 0.930 . S
H966 C979 0.930 . S
H967 C980 0.930 . S
H968 C984 0.959 . S
H969 C984 0.959 1_545 S
H970 C984 0.961 . S
H971 C985 0.960 1_565 S
H972 C985 0.961 . S
H973 C985 0.959 . S
H974 C988 0.929 . S
H975 C989 0.931 . S
H976 C991 0.930 . S
C977 H965 0.930 . S
C977 C978 1.399 1_554 S
C977 C982 1.399 . S
C978 C977 1.399 1_556 S
C978 C979 1.376 . S
C979 H966 0.930 . S
C979 C978 1.376 . S
C979 C980 1.388 . S
C980 H967 0.930 . S
C980 C979 1.388 . S
C980 C981 1.390 . S
C981 C980 1.390 . S
C981 C982 1.394 1_556 S
C981 C987 1.465 1_565 S
C982 C977 1.399 . S
C982 C981 1.394 1_554 S
C982 C983 1.516 . S
C983 C982 1.516 . S
C983 C984 1.502 . S
C983 C985 1.561 1_565 S
C983 C986 1.526 1_565 S
C984 H968 0.959 . S
C984 H969 0.959 1_565 S
C984 H970 0.961 . S
C984 C983 1.502 . S
C985 H971 0.960 1_545 S
C985 H972 0.961 . S
C985 H973 0.959 . S
C985 C983 1.561 1_545 S
C986 C983 1.526 1_545 S
C986 C987 1.396 1_554 S
C986 C991 1.390 . S
C987 C981 1.465 1_545 S
C987 C986 1.396 1_556 S
C987 C988 1.399 . S
C988 H974 0.929 . S
C988 C987 1.399 . S
C988 C989 1.385 . S
C989 H975 0.931 . S
C989 C988 1.385 . S
C989 C990 1.389 . S
C990 C989 1.389 . S
C990 C991 1.387 1_556 S
C991 H976 0.930 . S
C991 C986 1.390 . S
C991 C990 1.387 1_554 S
H992 C1004 0.930 . S
H993 C1006 0.930 . S
H994 C1007 0.930 . S
H995 C1011 0.959 1_554 S
H996 C1011 0.959 . S
H997 C1011 0.961 . S
H998 C1012 0.960 . S
H999 C1012 0.961 . S
H1000 C1012 0.959 . S
H1001 C1015 0.929 . S
H1002 C1016 0.931 . S
H1003 C1018 0.930 . S
C1004 H992 0.930 . S
C1004 C1005 1.399 1_556 S
C1004 C1009 1.401 . S
C1005 C1004 1.399 1_554 S
C1005 C1006 1.376 . S
C1006 H993 0.930 . S
C1006 C1005 1.376 . S
C1006 C1007 1.388 . S
C1007 H994 0.930 . S
C1007 C1006 1.388 . S
C1007 C1008 1.390 . S
C1008 C1007 1.390 . S
C1008 C1009 1.381 1_554 S
C1008 C1014 1.465 . S
C1009 C1004 1.401 . S
C1009 C1008 1.381 1_556 S
C1009 C1010 1.527 . S
C1010 C1009 1.527 . S
C1010 C1011 1.502 . S
C1010 C1012 1.561 . S
C1010 C1013 1.534 . S
C1011 H995 0.959 1_556 S
C1011 H996 0.959 . S
C1011 H997 0.961 . S
C1011 C1010 1.502 . S
C1012 H998 0.960 . S
C1012 H999 0.961 . S
C1012 H1000 0.959 . S
C1012 C1010 1.561 . S
C1013 C1010 1.534 . S
C1013 C1014 1.386 1_556 S
C1013 C1018 1.391 . S
C1014 C1008 1.465 . S
C1014 C1013 1.386 1_554 S
C1014 C1015 1.399 . S
C1015 H1001 0.929 . S
C1015 C1014 1.399 . S
C1015 C1016 1.385 . S
C1016 H1002 0.931 . S
C1016 C1015 1.385 . S
C1016 C1017 1.389 . S
C1017 C1016 1.389 . S
C1017 C1018 1.387 1_554 S
C1018 H1003 0.930 . S
C1018 C1013 1.391 . S
C1018 C1017 1.387 1_556 S
H1019 C1031 0.930 . S
H1020 C1033 0.930 . S
H1021 C1034 0.930 . S
H1022 C1038 0.959 . S
H1023 C1038 0.959 . S
H1024 C1038 0.961 . S
H1025 C1039 0.960 . S
H1026 C1039 0.961 . S
H1027 C1039 0.959 . S
H1028 C1042 0.929 . S
H1029 C1043 0.931 . S
H1030 C1045 0.930 . S
C1031 H1019 0.930 . S
C1031 C1032 1.399 . S
C1031 C1036 1.399 . S
C1032 C1031 1.399 . S
C1032 C1033 1.376 1_554 S
C1033 H1020 0.930 . S
C1033 C1032 1.376 1_556 S
C1033 C1034 1.388 . S
C1034 H1021 0.930 . S
C1034 C1033 1.388 . S
C1034 C1035 1.390 . S
C1035 C1034 1.390 . S
C1035 C1036 1.394 1_556 S
C1035 C1041 1.465 . S
C1036 C1031 1.399 . S
C1036 C1035 1.394 1_554 S
C1036 C1037 1.516 . S
C1037 C1036 1.516 . S
C1037 C1038 1.502 . S
C1037 C1039 1.561 . S
C1037 C1040 1.526 . S
C1038 H1022 0.959 . S
C1038 H1023 0.959 . S
C1038 H1024 0.961 . S
C1038 C1037 1.502 . S
C1039 H1025 0.960 . S
C1039 H1026 0.961 . S
C1039 H1027 0.959 . S
C1039 C1037 1.561 . S
C1040 C1037 1.526 . S
C1040 C1041 1.396 1_554 S
C1040 C1045 1.390 . S
C1041 C1035 1.465 . S
C1041 C1040 1.396 1_556 S
C1041 C1042 1.399 . S
C1042 H1028 0.929 . S
C1042 C1041 1.399 . S
C1042 C1043 1.385 . S
C1043 H1029 0.931 . S
C1043 C1042 1.385 . S
C1043 C1044 1.389 1_556 S
C1044 C1043 1.389 1_554 S
C1044 C1045 1.387 . S
C1045 H1030 0.930 . S
C1045 C1040 1.390 . S
C1045 C1044 1.387 . S
H1046 C1058 0.930 . S
H1047 C1060 0.930 . S
H1048 C1061 0.930 . S
H1049 C1065 0.959 . S
H1050 C1065 0.959 . S
H1051 C1065 0.961 1_455 S
H1052 C1066 0.952 1_455 S
H1053 C1066 0.969 . S
H1054 C1066 0.959 . S
H1055 C1069 0.929 . S
H1056 C1070 0.931 . S
H1057 C1072 0.930 . S
C1058 H1046 0.930 . S
C1058 C1059 1.399 . S
C1058 C1063 1.399 . S
C1059 C1058 1.399 . S
C1059 C1060 1.376 . S
C1060 H1047 0.930 . S
C1060 C1059 1.376 . S
C1060 C1061 1.388 . S
C1061 H1048 0.930 . S
C1061 C1060 1.388 . S
C1061 C1062 1.390 . S
C1062 C1061 1.390 . S
C1062 C1063 1.394 . S
C1062 C1068 1.465 1_455 S
C1063 C1058 1.399 . S
C1063 C1062 1.394 . S
C1063 C1064 1.516 1_455 S
C1064 C1063 1.516 1_655 S
C1064 C1065 1.502 . S
C1064 C1066 1.562 . S
C1064 C1067 1.526 . S
C1065 H1049 0.959 . S
C1065 H1050 0.959 . S
C1065 H1051 0.961 1_655 S
C1065 C1064 1.502 . S
C1066 H1052 0.952 1_655 S
C1066 H1053 0.969 . S
C1066 H1054 0.959 . S
C1066 C1064 1.562 . S
C1067 C1064 1.526 . S
C1067 C1068 1.396 . S
C1067 C1072 1.390 . S
C1068 C1062 1.465 1_655 S
C1068 C1067 1.396 . S
C1068 C1069 1.399 . S
C1069 H1055 0.929 . S
C1069 C1068 1.399 . S
C1069 C1070 1.385 . S
C1070 H1056 0.931 . S
C1070 C1069 1.385 . S
C1070 C1071 1.389 . S
C1071 C1070 1.389 . S
C1071 C1072 1.387 . S
C1072 H1057 0.930 . S
C1072 C1067 1.390 . S
C1072 C1071 1.387 . S
H1073 C1085 0.930 . S
H1074 C1087 0.930 . S
H1075 C1088 0.930 . S
H1076 C1092 0.959 . S
H1077 C1092 0.959 . S
H1078 C1092 0.961 . S
H1079 C1093 0.960 . S
H1080 C1093 0.961 . S
H1081 C1093 0.959 . S
H1082 C1096 0.929 . S
H1083 C1097 0.931 . S
H1084 C1099 0.930 . S
C1085 H1073 0.930 . S
C1085 C1086 1.399 . S
C1085 C1090 1.399 . S
C1086 C1085 1.399 . S
C1086 C1087 1.376 . S
C1087 H1074 0.930 . S
C1087 C1086 1.376 . S
C1087 C1088 1.388 . S
C1088 H1075 0.930 . S
C1088 C1087 1.388 . S
C1088 C1089 1.390 . S
C1089 C1088 1.390 . S
C1089 C1090 1.394 . S
C1089 C1095 1.465 . S
C1090 C1085 1.399 . S
C1090 C1089 1.394 . S
C1090 C1091 1.516 . S
C1091 C1090 1.516 . S
C1091 C1092 1.502 . S
C1091 C1093 1.561 . S
C1091 C1094 1.526 . S
C1092 H1076 0.959 . S
C1092 H1077 0.959 . S
C1092 H1078 0.961 . S
C1092 C1091 1.502 . S
C1093 H1079 0.960 . S
C1093 H1080 0.961 . S
C1093 H1081 0.959 . S
C1093 C1091 1.561 . S
C1094 C1091 1.526 . S
C1094 C1095 1.396 . S
C1094 C1099 1.390 . S
C1095 C1089 1.465 . S
C1095 C1094 1.396 . S
C1095 C1096 1.399 . S
C1096 H1082 0.929 . S
C1096 C1095 1.399 . S
C1096 C1097 1.385 . S
C1097 H1083 0.931 . S
C1097 C1096 1.385 . S
C1097 C1098 1.389 . S
C1098 C1097 1.389 . S
C1098 C1099 1.387 . S
C1099 H1084 0.930 . S
C1099 C1094 1.390 . S
C1099 C1098 1.387 . S
H1100 C1112 0.930 . S
H1101 C1114 0.930 . S
H1102 C1115 0.930 . S
H1103 C1119 0.959 . S
H1104 C1119 0.959 . S
H1105 C1119 0.961 . S
H1106 C1120 0.960 . S
H1107 C1120 0.961 . S
H1108 C1120 0.959 . S
H1109 C1123 0.929 . S
H1110 C1124 0.931 . S
H1111 C1126 0.930 . S
C1112 H1100 0.930 . S
C1112 C1113 1.399 . S
C1112 C1117 1.399 . S
C1113 C1112 1.399 . S
C1113 C1114 1.376 . S
C1114 H1101 0.930 . S
C1114 C1113 1.376 . S
C1114 C1115 1.388 . S
C1115 H1102 0.930 . S
C1115 C1114 1.388 . S
C1115 C1116 1.390 . S
C1116 C1115 1.390 . S
C1116 C1117 1.394 . S
C1116 C1122 1.465 . S
C1117 C1112 1.399 . S
C1117 C1116 1.394 . S
C1117 C1118 1.516 . S
C1118 C1117 1.516 . S
C1118 C1119 1.502 . S
C1118 C1120 1.561 . S
C1118 C1121 1.526 . S
C1119 H1103 0.959 . S
C1119 H1104 0.959 . S
C1119 H1105 0.961 . S
C1119 C1118 1.502 . S
C1120 H1106 0.960 . S
C1120 H1107 0.961 . S
C1120 H1108 0.959 . S
C1120 C1118 1.561 . S
C1121 C1118 1.526 . S
C1121 C1122 1.396 . S
C1121 C1126 1.390 . S
C1122 C1116 1.465 . S
C1122 C1121 1.396 . S
C1122 C1123 1.399 . S
C1123 H1109 0.929 . S
C1123 C1122 1.399 . S
C1123 C1124 1.385 . S
C1124 H1110 0.931 . S
C1124 C1123 1.385 . S
C1124 C1125 1.389 . S
C1125 C1124 1.389 . S
C1125 C1126 1.387 . S
C1126 H1111 0.930 . S
C1126 C1121 1.390 . S
C1126 C1125 1.387 . S
H1127 C1139 0.930 1_545 S
H1128 C1141 0.930 . S
H1129 C1142 0.930 . S
H1130 C1146 0.959 . S
H1131 C1146 0.959 1_455 S
H1132 C1146 0.961 . S
H1133 C1147 0.960 1_655 S
H1134 C1147 0.961 . S
H1135 C1147 0.959 . S
H1136 C1150 0.929 . S
H1137 C1151 0.931 . S
H1138 C1153 0.930 . S
C1139 H1127 0.930 1_565 S
C1139 C1140 1.399 . S
C1139 C1144 1.399 . S
C1140 C1139 1.399 . S
C1140 C1141 1.376 . S
C1141 H1128 0.930 . S
C1141 C1140 1.376 . S
C1141 C1142 1.388 . S
C1142 H1129 0.930 . S
C1142 C1141 1.388 . S
C1142 C1143 1.390 . S
C1143 C1142 1.390 . S
C1143 C1144 1.394 . S
C1143 C1149 1.465 1_655 S
C1144 C1139 1.399 . S
C1144 C1143 1.394 . S
C1144 C1145 1.519 1_665 S
C1145 C1144 1.519 1_445 S
C1145 C1146 1.502 1_455 S
C1145 C1147 1.561 1_545 S
C1145 C1148 1.523 . S
C1146 H1130 0.959 . S
C1146 H1131 0.959 1_655 S
C1146 H1132 0.961 . S
C1146 C1145 1.502 1_655 S
C1147 H1133 0.960 1_455 S
C1147 H1134 0.961 . S
C1147 H1135 0.959 . S
C1147 C1145 1.561 1_565 S
C1148 C1145 1.523 . S
C1148 C1149 1.396 1_545 S
C1148 C1153 1.390 . S
C1149 C1143 1.465 1_455 S
C1149 C1148 1.396 1_565 S
C1149 C1150 1.399 . S
C1150 H1136 0.929 . S
C1150 C1149 1.399 . S
C1150 C1151 1.385 . S
C1151 H1137 0.931 . S
C1151 C1150 1.385 . S
C1151 C1152 1.389 1_565 S
C1152 C1151 1.389 1_545 S
C1152 C1153 1.387 . S
C1153 H1138 0.930 . S
C1153 C1148 1.390 . S
C1153 C1152 1.387 . S
H1154 C1166 0.930 . S
H1155 C1168 0.930 . S
H1156 C1169 0.930 . S
H1157 C1173 0.959 . S
H1158 C1173 0.959 . S
H1159 C1173 0.961 . S
H1160 C1174 0.960 . S
H1161 C1174 0.961 . S
H1162 C1174 0.959 . S
H1163 C1177 0.929 . S
H1164 C1178 0.931 . S
H1165 C1180 0.930 . S
C1166 H1154 0.930 . S
C1166 C1167 1.399 . S
C1166 C1171 1.399 . S
C1167 C1166 1.399 . S
C1167 C1168 1.376 . S
C1168 H1155 0.930 . S
C1168 C1167 1.376 . S
C1168 C1169 1.388 . S
C1169 H1156 0.930 . S
C1169 C1168 1.388 . S
C1169 C1170 1.390 . S
C1170 C1169 1.390 . S
C1170 C1171 1.394 . S
C1170 C1176 1.465 . S
C1171 C1166 1.399 . S
C1171 C1170 1.394 . S
C1171 C1172 1.516 . S
C1172 C1171 1.516 . S
C1172 C1173 1.502 . S
C1172 C1174 1.561 . S
C1172 C1175 1.526 . S
C1173 H1157 0.959 . S
C1173 H1158 0.959 . S
C1173 H1159 0.961 . S
C1173 C1172 1.502 . S
C1174 H1160 0.960 . S
C1174 H1161 0.961 . S
C1174 H1162 0.959 . S
C1174 C1172 1.561 . S
C1175 C1172 1.526 . S
C1175 C1176 1.396 . S
C1175 C1180 1.390 . S
C1176 C1170 1.465 . S
C1176 C1175 1.396 . S
C1176 C1177 1.399 . S
C1177 H1163 0.929 . S
C1177 C1176 1.399 . S
C1177 C1178 1.385 . S
C1178 H1164 0.931 . S
C1178 C1177 1.385 . S
C1178 C1179 1.389 . S
C1179 C1178 1.389 . S
C1179 C1180 1.387 . S
C1180 H1165 0.930 . S
C1180 C1175 1.390 . S
C1180 C1179 1.387 . S
H1181 C1193 0.930 . S
H1182 C1195 0.930 . S
H1183 C1196 0.930 . S
H1184 C1200 0.959 . S
H1185 C1200 0.959 . S
H1186 C1200 0.961 . S
H1187 C1201 0.960 . S
H1188 C1201 0.961 . S
H1189 C1201 0.959 . S
H1190 C1204 0.929 . S
H1191 C1205 0.931 . S
H1192 C1207 0.930 . S
C1193 H1181 0.930 . S
C1193 C1194 1.399 1_565 S
C1193 C1198 1.399 . S
C1194 C1193 1.399 1_545 S
C1194 C1195 1.376 . S
C1195 H1182 0.930 . S
C1195 C1194 1.376 . S
C1195 C1196 1.388 . S
C1196 H1183 0.930 . S
C1196 C1195 1.388 . S
C1196 C1197 1.390 . S
C1197 C1196 1.390 . S
C1197 C1198 1.394 1_545 S
C1197 C1203 1.465 . S
C1198 C1193 1.399 . S
C1198 C1197 1.394 1_565 S
C1198 C1199 1.516 . S
C1199 C1198 1.516 . S
C1199 C1200 1.502 . S
C1199 C1201 1.561 . S
C1199 C1202 1.526 . S
C1200 H1184 0.959 . S
C1200 H1185 0.959 . S
C1200 H1186 0.961 . S
C1200 C1199 1.502 . S
C1201 H1187 0.960 . S
C1201 H1188 0.961 . S
C1201 H1189 0.959 . S
C1201 C1199 1.561 . S
C1202 C1199 1.526 . S
C1202 C1203 1.396 1_565 S
C1202 C1207 1.390 . S
C1203 C1197 1.465 . S
C1203 C1202 1.396 1_545 S
C1203 C1204 1.399 . S
C1204 H1190 0.929 . S
C1204 C1203 1.399 . S
C1204 C1205 1.385 . S
C1205 H1191 0.931 . S
C1205 C1204 1.385 . S
C1205 C1206 1.389 1_545 S
C1206 C1205 1.389 1_565 S
C1206 C1207 1.387 . S
C1207 H1192 0.930 . S
C1207 C1202 1.390 . S
C1207 C1206 1.387 . S
C357 C27 1.813 1_545 S
C369 C76 1.934 . S
C384 C32 1.730 1_565 S
C396 C126 1.959 . S
C411 C162 1.947 . S
C423 C70 1.832 . S
C438 C118 1.795 . S
C450 C169 1.972 . S
C465 C156 1.828 . S
C477 C205 1.944 . S
C492 C248 1.933 . S
C504 C161 1.799 . S
C519 C199 1.737 . S
C531 C33 1.967 . S
C546 C242 1.811 . S
C558 C40 1.966 . S
C573 C255 1.968 . S
C585 C285 1.825 1_545 S
C600 C290 1.829 1_565 S
C612 C212 1.946 . S
C627 C334 1.981 . S
C639 C247 1.748 . S
C654 C341 1.938 . S
C666 C204 1.836 . S
C681 C328 1.810 . S
C693 C119 1.934 . S
C708 C83 1.974 . S
C720 C333 1.813 . S
C735 C291 1.942 . S
C747 C113 1.834 . S
C762 C298 1.945 . S
C774 C75 1.833 . S
C789 C13 1.794 . S
C801 C39 1.688 . S
C816 C82 1.765 . S
C828 C56 1.710 1_565 S
C843 C125 1.779 1_545 S
C855 C99 1.686 . S
C870 C168 1.770 . S
C882 C142 1.715 . S
C897 C211 1.702 1_545 S
C909 C185 1.758 . S
C924 C228 1.703 . S
C936 C254 1.757 1_565 S
C951 C271 1.696 . S
C963 C297 1.753 . S
C978 C340 1.694 . S
C990 C314 1.757 . S
C1005 N309 1.261 . S
C1017 N3 1.116 . S
C1032 N8 1.114 . S
C1044 N304 1.194 . S
C1059 N46 1.123 . S
C1071 N94 1.251 . S
C1086 N266 1.150 . S
C1098 N132 1.259 . S
C1113 N137 1.099 . S
C1125 N261 1.239 . S
C1140 N218 1.211 1_565 S
C1152 N175 1.140 1_545 S
C1167 N223 1.137 . S
C1179 N180 1.241 . S
C1194 N89 1.263 1_545 S
C1206 N51 1.103 1_565 S
