# Generated by pormake.
# Topology lvt, (4)-cn, num edge types: 1
# Building blocks:
#     Node 0, Type 0, BuildingBlock: ESEHIV_clean_sbu_0, # of connection points: 4
#     Node 1, Type 0, BuildingBlock: ESEHIV_clean_sbu_0, # of connection points: 4
#     Node 2, Type 0, BuildingBlock: ESEHIV_clean_sbu_0, # of connection points: 4
#     Node 3, Type 0, BuildingBlock: ESEHIV_clean_sbu_0, # of connection points: 4
#     Node 4, Type 0, BuildingBlock: ESEHIV_clean_sbu_0, # of connection points: 4
#     Node 5, Type 0, BuildingBlock: ESEHIV_clean_sbu_0, # of connection points: 4
#     Node 6, Type 0, BuildingBlock: ESEHIV_clean_sbu_0, # of connection points: 4
#     Node 7, Type 0, BuildingBlock: ESEHIV_clean_sbu_0, # of connection points: 4
#     Edge 8, Type (0, 0), BuildingBlock: XUDNAN_clean_linker_2, # of connection points: 2
#     Edge 9, Type (0, 0), BuildingBlock: XUDNAN_clean_linker_2, # of connection points: 2
#     Edge 10, Type (0, 0), BuildingBlock: XUDNAN_clean_linker_2, # of connection points: 2
#     Edge 11, Type (0, 0), BuildingBlock: XUDNAN_clean_linker_2, # of connection points: 2
#     Edge 12, Type (0, 0), BuildingBlock: XUDNAN_clean_linker_2, # of connection points: 2
#     Edge 13, Type (0, 0), BuildingBlock: XUDNAN_clean_linker_2, # of connection points: 2
#     Edge 14, Type (0, 0), BuildingBlock: XUDNAN_clean_linker_2, # of connection points: 2
#     Edge 15, Type (0, 0), BuildingBlock: XUDNAN_clean_linker_2, # of connection points: 2
#     Edge 16, Type (0, 0), BuildingBlock: XUDNAN_clean_linker_2, # of connection points: 2
#     Edge 17, Type (0, 0), BuildingBlock: XUDNAN_clean_linker_2, # of connection points: 2
#     Edge 18, Type (0, 0), BuildingBlock: XUDNAN_clean_linker_2, # of connection points: 2
#     Edge 19, Type (0, 0), BuildingBlock: XUDNAN_clean_linker_2, # of connection points: 2
#     Edge 20, Type (0, 0), BuildingBlock: XUDNAN_clean_linker_2, # of connection points: 2
#     Edge 21, Type (0, 0), BuildingBlock: XUDNAN_clean_linker_2, # of connection points: 2
#     Edge 22, Type (0, 0), BuildingBlock: XUDNAN_clean_linker_2, # of connection points: 2
#     Edge 23, Type (0, 0), BuildingBlock: XUDNAN_clean_linker_2, # of connection points: 2
# Relax obj value: 0.002
# Max RMSD: 0.100
# Mean RMSD: 0.095
data_MOF--net-lvt--node1-ESEHIV_clean_sbu_0--edge1-XUDNAN_clean_linker_2
_symmetry_space_group_name_H-M    P1
_symmetry_Int_Tables_number       1
_symmetry_cell_setting            triclinic
loop_
_symmetry_equiv_pos_as_xyz
'x, y, z'
_cell_length_a     38.655473
_cell_length_b     38.56294
_cell_length_c     32.408998
_cell_angle_alpha  97.592629
_cell_angle_beta   90.348993
_cell_angle_gamma 96.092991
loop_
_atom_site_label
_atom_site_type_symbol
_atom_site_fract_x
_atom_site_fract_y
_atom_site_fract_z
_atom_type_partial_charge
Cu0 Cu 0.0422 1.02066 0.51786 0.0
N1 N 0.07052 0.98484 0.52333 0.0
N2 N 0.09791 0.94951 0.55913 0.0
C3 C 0.08394 0.98027 0.56043 0.0
C4 C 0.09375 0.9344 0.51908 0.0
C5 C 0.07667 0.95618 0.4971 0.0
O6 O 1.01608 1.02419 0.56956 0.0
C7 C 0.08562 0.06014 0.47132 0.0
O8 O 0.08073 0.02975 0.44725 0.0
H9 H 0.08193 0.99869 0.58831 0.0
H10 H 0.0677 0.9506 0.46499 0.0
N11 N 1.0099 1.01049 0.47339 0.0
N12 N 0.97149 1.02131 0.42603 0.0
C13 C 0.99592 0.03533 0.45512 0.0
C14 C 0.99392 0.97954 0.45503 0.0
C15 C 0.97002 0.98616 0.42591 0.0
C16 C 1.00082 0.99455 0.57648 0.0
O17 O 1.00187 0.9671 0.54804 0.0
H18 H 1.00269 0.06329 0.46414 0.0
H19 H 0.99871 0.95403 0.46284 0.0
O20 O 0.07163 0.06279 0.50704 0.0
H21 H 0.1007 0.90858 0.50702 0.0
H22 H 0.95276 0.96668 0.40641 0.0
Cu23 Cu 0.30052 0.78148 0.76719 0.0
N24 N 0.25936 0.80226 0.77692 0.0
N25 N 0.21461 0.83069 0.76063 0.0
C26 C 0.24498 0.81886 0.7482 0.0
C27 C 0.20981 0.82125 0.79909 0.0
C28 C 0.23744 0.80356 0.80902 0.0
O29 O 0.29476 0.76254 0.70811 0.0
C30 C 0.34218 0.83215 0.81954 0.0
O31 O 0.3183 0.82241 0.8456 0.0
H32 H 0.25694 0.82235 0.71873 0.0
H33 H 0.24108 0.79224 0.83733 0.0
N34 N 0.3064 0.74565 0.79968 0.0
N35 N 0.33451 0.70767 0.83035 0.0
C36 C 0.33744 0.73477 0.80764 0.0
C37 C 0.2828 0.7248 0.81807 0.0
C38 C 0.30007 0.70125 0.83693 0.0
C39 C 0.28446 0.73018 0.69628 0.0
O40 O 0.28705 0.70726 0.72239 0.0
H41 H 0.36165 0.74613 0.79601 0.0
H42 H 0.25502 0.72627 0.8173 0.0
O43 O 0.33956 0.81787 0.78159 0.0
H44 H 0.18768 0.82618 0.81845 0.0
H45 H 0.2882 0.68116 0.85431 0.0
Cu46 Cu 0.55557 0.06424 1.01341 0.0
N47 N 0.5864 0.0596 0.96874 0.0
N48 N 0.6199 0.03089 0.92271 0.0
C49 C 0.59441 0.02799 0.95063 0.0
C50 C 0.62844 0.06577 0.92309 0.0
C51 C 0.60751 0.08347 0.95128 0.0
O52 O 0.52126 1.02282 1.00043 0.0
C53 C 0.60598 0.09645 0.06915 0.0
O54 O 0.60711 0.11778 0.04075 0.0
H55 H 0.58288 1.00322 0.95931 0.0
H56 H 0.60859 0.11167 0.95937 0.0
N57 N 0.53231 0.10492 0.01877 0.0
N58 N 0.50407 0.14802 0.05172 0.0
C59 C 0.513 0.11511 0.05186 0.0
C60 C 0.53546 0.13224 0.99665 0.0
C61 C 0.51815 0.15891 0.01699 0.0
C62 C 0.50627 1.02197 0.96499 0.0
O63 O 0.51256 0.0493 0.94484 0.0
H64 H 0.50742 0.09947 0.07689 0.0
H65 H 0.55051 0.13333 0.96877 0.0
O66 O 0.58416 0.06882 0.06451 0.0
H67 H 0.64873 0.07757 0.90488 0.0
H68 H 0.51667 0.18458 1.00745 0.0
Cu69 Cu 0.29584 0.29646 0.28292 0.0
N70 N 0.25844 0.26121 0.28258 0.0
N71 N 0.21836 0.22478 0.30957 0.0
C72 C 0.24647 0.24877 0.31733 0.0
C73 C 0.21247 0.2219 0.26805 0.0
C74 C 0.23711 0.24463 0.2515 0.0
O75 O 0.29018 0.32778 0.33473 0.0
C76 C 0.34145 0.24659 0.25301 0.0
O77 O 0.31221 0.22689 0.24205 0.0
H78 H 0.2583 0.25731 0.34783 0.0
H79 H 0.23913 0.24898 0.21927 0.0
N80 N 0.29478 0.32348 0.23904 0.0
N81 N 0.31568 0.36277 0.19802 0.0
C82 C 0.3232 0.34286 0.22737 0.0
C83 C 0.26828 0.33101 0.21575 0.0
C84 C 0.28111 0.35557 0.1906 0.0
C85 C 0.26173 0.34191 0.3351 0.0
O86 O 0.24146 0.33525 0.30172 0.0
H87 H 0.34878 0.34332 0.24136 0.0
H88 H 0.24144 0.32022 0.21767 0.0
O89 O 0.34027 0.27625 0.27549 0.0
H90 H 0.19143 0.2052 0.25099 0.0
H91 H 0.26623 0.3673 0.16876 0.0
Cu92 Cu 0.79995 0.26871 0.27803 0.0
N93 N 0.78143 0.27842 0.22772 0.0
N94 N 0.74906 0.30251 0.18377 0.0
C95 C 0.75773 0.3011 0.22401 0.0
C96 C 0.76824 0.27968 0.16139 0.0
C97 C 0.78814 0.2649 0.18855 0.0
O98 O 0.76204 0.25401 0.31359 0.0
C99 C 0.84585 0.33249 0.28813 0.0
O100 O 0.84772 0.32608 0.24742 0.0
H101 H 0.74746 0.31655 0.25052 0.0
H102 H 0.80602 0.24546 0.18035 0.0
N103 N 0.83138 0.23462 0.2711 0.0
N104 N 0.86099 0.1904 0.28446 0.0
C105 C 0.83185 0.20655 0.29185 0.0
C106 C 0.8612 0.23623 0.24989 0.0
C107 C 0.87956 0.20902 0.25813 0.0
C108 C 0.73331 0.23399 0.30832 0.0
O109 O 0.71324 0.2323 0.34073 0.0
H110 H 0.81204 0.19915 0.31348 0.0
H111 H 0.86964 0.2566 0.23109 0.0
O112 O 0.82601 0.31152 0.30714 0.0
H113 H 0.76763 0.27359 0.12782 0.0
H114 H 0.90485 0.20368 0.24627 0.0
Cu115 Cu 0.8155 0.79926 0.81274 0.0
N116 N 0.80943 0.77736 0.86094 0.0
N117 N 0.78174 0.74601 0.9067 0.0
C118 C 0.77862 0.76808 0.87807 0.0
C119 C 0.81583 0.7414 0.90774 0.0
C120 C 0.83278 0.76065 0.8795 0.0
O121 O 0.77573 0.82607 0.80786 0.0
C122 C 0.83249 0.76764 0.73171 0.0
O123 O 0.83413 0.79982 0.72215 0.0
H124 H 0.75403 0.7751 0.86738 0.0
H125 H 0.85975 0.76039 0.87109 0.0
N126 N 0.8563 0.83063 0.8145 0.0
N127 N 0.89439 0.8725 0.79385 0.0
C128 C 0.86065 0.85933 0.79455 0.0
C129 C 0.88846 0.8256 0.82696 0.0
C130 C 0.91199 0.85135 0.81424 0.0
C131 C 0.77593 0.85419 0.8336 0.0
O132 O 0.80211 0.86275 0.86032 0.0
H133 H 0.83986 0.8686 0.77788 0.0
H134 H 0.89477 0.80346 0.84165 0.0
O135 O 0.82171 0.76173 0.76744 0.0
H136 H 0.82742 0.72406 0.92621 0.0
H137 H 0.94002 0.85333 0.81788 0.0
Cu138 Cu 0.55256 0.52445 0.01486 0.0
N139 N 0.52618 0.52597 0.96674 0.0
N140 N 0.49246 0.55065 0.92498 0.0
C141 C 0.5178 0.55619 0.95471 0.0
C142 C 0.48464 0.51537 0.91787 0.0
C143 C 0.50549 0.5002 0.94372 0.0
O144 O 0.58386 0.56842 0.02238 0.0
C145 C 0.50425 0.48714 0.05963 0.0
O146 O 0.5134 0.46158 0.03239 0.0
H147 H 0.52826 0.58192 0.96984 0.0
H148 H 0.50414 0.4726 0.94728 0.0
N149 N 0.57946 0.48632 1.01172 0.0
N150 N 0.61002 0.44606 0.03436 0.0
C151 C 0.59355 0.47505 0.045 0.0
C152 C 0.58737 0.46378 0.97866 0.0
C153 C 0.6064 0.439 0.99252 0.0
C154 C 0.6108 0.56943 0.99976 0.0
O155 O 0.61689 0.54083 0.97536 0.0
H156 H 0.5913 0.48778 0.07655 0.0
H157 H 0.57937 0.46493 0.94687 0.0
O158 O 0.51862 0.51843 0.05875 0.0
H159 H 0.4645 0.50161 0.89661 0.0
H160 H 0.61583 0.4169 0.97344 0.0
Cu161 Cu 0.04813 0.54353 0.53174 0.0
N162 N 1.02009 0.56001 0.57573 0.0
N163 N 0.98127 0.59202 0.60989 0.0
C164 C 0.99323 0.57922 0.57232 0.0
C165 C 1.00134 0.57991 0.63795 0.0
C166 C 1.02528 0.56042 0.61686 0.0
O167 O 0.08597 0.58028 0.52603 0.0
C168 C 0.99555 0.50089 0.48616 0.0
O169 O 0.9922 0.48993 0.52279 0.0
H170 H 0.98367 0.58474 0.5427 0.0
H171 H 0.04617 0.54899 0.63063 0.0
N172 N 0.072 0.50568 0.542 0.0
N173 N 0.11142 0.46706 0.53002 0.0
C174 C 0.09703 0.49412 0.51672 0.0
C175 C 0.07028 0.48524 0.57269 0.0
C176 C 0.09471 0.46141 0.56542 0.0
C177 C 0.08476 0.61338 0.53361 0.0
O178 O 0.05451 0.62576 0.53887 0.0
H179 H 0.10482 0.50588 0.48923 0.0
H180 H 0.05255 0.48734 0.59835 0.0
O181 O 1.01879 0.52633 0.48223 0.0
H182 H 1.00024 0.58631 0.67141 0.0
H183 H 0.09933 0.44117 0.58433 0.0
H184 H 0.10596 0.06402 0.39146 0.0
H185 H 0.10977 0.12507 0.5142 0.0
H186 H 0.14333 0.17478 0.48578 0.0
H187 H 0.19119 0.09281 0.36072 0.0
H188 H 0.17856 0.09384 0.3073 0.0
H189 H 0.15462 0.06375 0.33744 0.0
H190 H 0.09751 0.08949 0.32136 0.0
H191 H 0.12127 0.11974 0.2912 0.0
H192 H 0.095 0.13611 0.33369 0.0
H193 H 0.17832 0.21709 0.44342 0.0
H194 H 0.2101 0.24871 0.3913 0.0
H195 H 0.18209 0.15962 0.29642 0.0
C196 C 0.11383 0.08779 0.41256 0.0
C197 C 0.1054 0.09054 0.45523 0.0
C198 C 0.11596 0.12231 0.48147 0.0
C199 C 0.13502 0.15065 0.46556 0.0
C200 C 0.14298 0.14689 0.4233 0.0
C201 C 0.13248 0.11626 0.39718 0.0
C202 C 0.14412 0.11867 0.35298 0.0
C203 C 0.16858 0.0906 0.3388 0.0
C204 C 0.1126 0.11584 0.32305 0.0
C205 C 0.16336 0.15531 0.35823 0.0
C206 C 0.16242 0.17121 0.39899 0.0
C207 C 0.17911 0.20484 0.41146 0.0
C208 C 0.19731 0.22252 0.38163 0.0
C209 C 0.19872 0.20667 0.33967 0.0
C210 C 0.1812 0.17267 0.32801 0.0
H211 H 0.14348 0.89975 0.55807 0.0
H212 H 0.08098 0.96475 0.64056 0.0
H213 H 0.10325 0.9405 0.70061 0.0
H214 H 0.13152 0.82302 0.61331 0.0
H215 H 0.17528 0.81205 0.6046 0.0
H216 H 0.15413 0.83419 0.56758 0.0
H217 H 0.20527 0.88397 0.57525 0.0
H218 H 0.22651 0.86192 0.61228 0.0
H219 H 0.21756 0.90686 0.62623 0.0
H220 H 0.13263 0.90961 0.75245 0.0
H221 H 0.16845 0.87548 0.79195 0.0
H222 H 0.21056 0.82914 0.67614 0.0
C223 C 0.13422 0.90866 0.58867 0.0
C224 C 0.11065 0.93455 0.59427 0.0
C225 C 0.09952 0.94561 0.63513 0.0
C226 C 0.11178 0.9317 0.6696 0.0
C227 C 0.13504 0.90644 0.66299 0.0
C228 C 0.14615 0.89496 0.62356 0.0
C229 C 0.17176 0.86793 0.62522 0.0
C230 C 0.15729 0.83218 0.60126 0.0
C231 C 0.20739 0.88096 0.60877 0.0
C232 C 0.17355 0.86638 0.67173 0.0
C233 C 0.152 0.88862 0.69292 0.0
C234 C 0.14952 0.89198 0.73616 0.0
C235 C 0.16986 0.87231 0.75836 0.0
C236 C 0.19255 0.84962 0.73741 0.0
C237 C 0.19398 0.84654 0.69337 0.0
H238 H 0.44811 0.97939 0.98526 0.0
H239 H 0.52508 0.9919 0.8902 0.0
H240 H 0.49318 0.94295 0.84368 0.0
H241 H 0.42935 0.88187 0.96217 0.0
H242 H 0.38347 0.88288 0.97117 0.0
H243 H 0.41449 0.91617 0.9989 0.0
H244 H 0.38221 0.96453 0.97194 0.0
H245 H 0.35139 0.93141 0.94375 0.0
H246 H 0.37563 0.9637 0.91668 0.0
H247 H 0.45039 0.89639 0.8048 0.0
H248 H 0.40083 0.85327 0.77774 0.0
H249 H 0.35081 0.87082 0.89715 0.0
C250 C 0.45866 0.97099 0.95515 0.0
C251 C 0.48932 0.98899 0.94145 0.0
C252 C 0.5018 0.97814 0.90133 0.0
C253 C 0.48384 0.95042 0.87466 0.0
C254 C 0.45315 0.93378 0.88837 0.0
C255 C 0.44071 0.94339 0.92777 0.0
C256 C 0.40591 0.9225 0.93358 0.0
C257 C 0.40847 0.89948 0.96853 0.0
C258 C 0.37709 0.947 0.94198 0.0
C259 C 0.40066 0.90017 0.89126 0.0
C260 C 0.42826 0.90701 0.8657 0.0
C261 C 0.42876 0.89053 0.82469 0.0
C262 C 0.40041 0.86617 0.80948 0.0
C263 C 0.3719 0.85848 0.83519 0.0
C264 C 0.37224 0.87586 0.87664 0.0
H265 H 0.3559 0.18163 0.21685 0.0
H266 H 0.39916 0.2911 0.23835 0.0
H267 H 0.44738 0.27726 0.19119 0.0
H268 H 0.44052 0.14377 0.20953 0.0
H269 H 0.42399 0.10881 0.16958 0.0
H270 H 0.39514 0.12693 0.20818 0.0
H271 H 0.35472 0.14012 0.14946 0.0
H272 H 0.38363 0.12254 0.11072 0.0
H273 H 0.37229 0.16674 0.1112 0.0
H274 H 0.48672 0.25248 0.13448 0.0
H275 H 0.51737 0.21778 0.07919 0.0
H276 H 0.44978 0.12412 0.09691 0.0
C277 C 0.37601 0.20254 0.21253 0.0
C278 C 0.37385 0.23743 0.23162 0.0
C279 C 0.4005 0.26409 0.22469 0.0
C280 C 0.42788 0.2565 0.19766 0.0
C281 C 0.42859 0.222 0.17831 0.0
C282 C 0.40369 0.19532 0.18611 0.0
C283 C 0.40959 0.16069 0.16038 0.0
C284 C 0.41781 0.13344 0.18861 0.0
C285 C 0.37819 0.14672 0.13122 0.0
C286 C 0.44117 0.17214 0.13603 0.0
C287 C 0.4517 0.20763 0.14669 0.0
C288 C 0.47899 0.22459 0.12643 0.0
C289 C 0.49607 0.20475 0.09483 0.0
C290 C 0.48607 0.16824 0.0839 0.0
C291 C 0.45833 0.15185 0.10506 0.0
H292 H 1.01406 0.94247 0.61978 0.0
H293 H 0.95409 0.03145 0.62345 0.0
H294 H 0.92255 1.01248 0.68478 0.0
H295 H 0.94801 0.88129 0.64138 0.0
H296 H 0.97378 0.85843 0.67322 0.0
H297 H 0.9942 0.88163 0.63369 0.0
H298 H 0.03696 0.91769 0.68853 0.0
H299 H 1.01698 0.89483 0.72872 0.0
H300 H 1.02057 0.94222 0.73412 0.0
H301 H 0.8916 0.9774 0.73857 0.0
H302 H 0.86869 0.93375 0.78426 0.0
H303 H 0.95183 0.87024 0.74678 0.0
C304 C 0.99493 0.95851 0.63428 0.0
C305 C 0.98649 0.98848 0.6173 0.0
C306 C 0.96117 1.0087 0.63656 0.0
C307 C 0.94308 0.99796 0.67118 0.0
C308 C 0.95129 0.96745 0.68639 0.0
C309 C 0.97724 0.94852 0.66898 0.0
C310 C 0.98024 0.91582 0.68936 0.0
C311 C 0.97365 0.88234 0.65751 0.0
C312 C 1.0158 0.91779 0.71154 0.0
C313 C 0.95118 0.91849 0.72022 0.0
C314 C 0.93464 0.94834 0.71813 0.0
C315 C 0.90495 0.95446 0.74112 0.0
C316 C 0.892 0.92952 0.76679 0.0
C317 C 0.9089 0.89905 0.76958 0.0
C318 C 0.93904 0.89382 0.74623 0.0
H319 H 0.99053 0.0827 0.39553 0.0
H320 H 0.90364 1.00321 0.40356 0.0
H321 H 0.86575 0.03752 0.36674 0.0
H322 H 0.94328 0.15754 0.41198 0.0
H323 H 0.96746 0.18124 0.37521 0.0
H324 H 0.98779 0.15003 0.40127 0.0
H325 H 1.00268 0.11665 0.33005 0.0
H326 H 0.98245 0.1478 0.3037 0.0
H327 H 0.96841 0.10143 0.29191 0.0
H328 H 0.83642 0.08288 0.33344 0.0
H329 H 0.81918 0.13323 0.30078 0.0
H330 H 0.92583 0.18155 0.31119 0.0
C331 C 0.96354 0.07253 0.38943 0.0
C332 C 0.94995 0.04033 0.40249 0.0
C333 C 0.91461 0.02764 0.39352 0.0
C334 C 0.89289 0.04705 0.37283 0.0
C335 C 0.90702 0.07889 0.36075 0.0
C336 C 0.94166 0.09131 0.36824 0.0
C337 C 0.95049 0.12612 0.35172 0.0
C338 C 0.96298 0.15546 0.38716 0.0
C339 C 0.97761 0.12278 0.31729 0.0
C340 C 0.91529 0.13161 0.33429 0.0
C341 C 0.89049 0.10421 0.34008 0.0
C342 C 0.85572 0.10426 0.32831 0.0
C343 C 0.84611 0.13297 0.31 0.0
C344 C 0.8712 0.16102 0.30313 0.0
C345 C 0.90624 0.16013 0.31536 0.0
H346 H 0.66642 0.21007 0.28414 0.0
H347 H 0.77238 0.20773 0.24216 0.0
H348 H 0.75147 0.16752 0.17939 0.0
H349 H 0.63705 0.11939 0.24998 0.0
H350 H 0.59441 0.12794 0.23385 0.0
H351 H 0.61774 0.15691 0.27537 0.0
H352 H 0.61221 0.21034 0.23587 0.0
H353 H 0.58825 0.18166 0.19469 0.0
H354 H 0.62683 0.20889 0.18302 0.0
H355 H 0.71835 0.12742 0.12068 0.0
H356 H 0.67566 0.0959 0.06781 0.0
H357 H 0.59122 0.12299 0.14873 0.0
C358 C 0.68533 0.20125 0.26171 0.0
C359 C 0.72131 0.21249 0.26816 0.0
C360 C 0.7449 0.20022 0.23788 0.0
C361 C 0.73316 0.17694 0.20223 0.0
C362 C 0.69761 0.16593 0.19736 0.0
C363 C 0.674 0.17805 0.22608 0.0
C364 C 0.63704 0.16313 0.21306 0.0
C365 C 0.6206 0.1405 0.24497 0.0
C366 C 0.61478 0.19277 0.20624 0.0
C367 C 0.64345 0.14067 0.17237 0.0
C368 C 0.67863 0.14246 0.16404 0.0
C369 C 0.69084 0.12546 0.12721 0.0
C370 C 0.66647 0.10729 0.09756 0.0
C371 C 0.63035 0.10591 0.10499 0.0
C372 C 0.61876 0.12231 0.14318 0.0
H373 H 0.68911 0.02851 0.9119 0.0
H374 H 0.58857 0.96829 0.88595 0.0
H375 H 0.61742 0.91747 0.85302 0.0
H376 H 0.73393 0.99173 0.81848 0.0
H377 H 0.77401 0.99115 0.84696 0.0
H378 H 0.74521 1.02393 0.86339 0.0
H379 H 0.74314 1.00453 0.93701 0.0
H380 H 0.77189 0.97179 0.92082 0.0
H381 H 0.73032 0.95903 0.94238 0.0
H382 H 0.65817 0.87205 0.8256 0.0
H383 H 0.70672 0.83497 0.81254 0.0
H384 H 0.78005 0.92432 0.86069 0.0
C385 C 0.67324 1.0049 0.8983 0.0
C386 C 0.63663 1.00241 0.9008 0.0
C387 C 0.61665 0.97069 0.88403 0.0
C388 C 0.63282 0.94181 0.86515 0.0
C389 C 0.66907 0.94493 0.86365 0.0
C390 C 0.68901 0.97565 0.8801 0.0
C391 C 0.72746 0.97125 0.87828 0.0
C392 C 0.74626 0.99599 0.85009 0.0
C393 C 0.74417 0.97698 0.92223 0.0
C394 C 0.72609 0.93315 0.8589 0.0
C395 C 0.69228 0.91852 0.84984 0.0
C396 C 0.68475 0.88334 0.83243 0.0
C397 C 0.71244 0.86249 0.82494 0.0
C398 C 0.74708 0.87675 0.83564 0.0
C399 C 0.75381 0.91266 0.85223 0.0
H400 H 0.6783 0.57548 0.97622 0.0
H401 H 0.59423 0.63776 0.01452 0.0
H402 H 0.63017 0.69132 0.99818 0.0
H403 H 0.75015 0.64257 0.01591 0.0
H404 H 0.77739 0.62982 0.97281 0.0
H405 H 0.74598 0.59763 0.99104 0.0
H406 H 0.71898 0.58248 0.91662 0.0
H407 H 0.75002 0.6148 0.89825 0.0
H408 H 0.70409 0.61701 0.89089 0.0
H409 H 0.67359 0.73675 0.96893 0.0
H410 H 0.72212 0.77035 0.93654 0.0
H411 H 0.77782 0.67796 0.92079 0.0
C412 C 0.66765 0.6005 0.98199 0.0
C413 C 0.6335 0.6025 0.99677 0.0
C414 C 0.62048 0.6357 1.00371 0.0
C415 C 0.64066 0.6662 0.99427 0.0
C416 C 0.67397 0.66307 0.97859 0.0
C417 C 0.68753 0.63106 0.97329 0.0
C418 C 0.72347 0.63417 0.95491 0.0
C419 C 0.75087 0.62554 0.9855 0.0
C420 C 0.72415 0.61073 0.91267 0.0
C421 C 0.72789 0.67279 0.94971 0.0
C422 C 0.69909 0.68912 0.96335 0.0
C423 C 0.69648 0.72429 0.95891 0.0
C424 C 0.72402 0.74314 0.94031 0.0
C425 C 0.75393 0.72694 0.92675 0.0
C426 C 0.75574 0.69134 0.93182 0.0
H427 H 0.74575 0.32238 0.10583 0.0
H428 H 0.69602 0.33128 0.22603 0.0
H429 H 0.6552 0.3688 0.20051 0.0
H430 H 0.73901 0.41026 0.08544 0.0
H431 H 0.72973 0.39809 0.03055 0.0
H432 H 0.75517 0.37164 0.05805 0.0
H433 H 0.71204 0.31657 0.03347 0.0
H434 H 0.68649 0.34284 1.00582 0.0
H435 H 0.66637 0.31755 0.04391 0.0
H436 H 0.6201 0.40619 0.16252 0.0
H437 H 0.59256 0.43984 0.11425 0.0
H438 H 0.66391 0.40615 0.01796 0.0
C439 C 0.72612 0.33185 0.12676 0.0
C440 C 0.72451 0.32384 0.16823 0.0
C441 C 0.69845 0.33734 0.19448 0.0
C442 C 0.67488 0.35857 0.18015 0.0
C443 C 0.67741 0.36607 0.13933 0.0
C444 C 0.70225 0.35302 0.11291 0.0
C445 C 0.69934 0.36518 0.07044 0.0
C446 C 0.7328 0.38763 0.06056 0.0
C447 C 0.69053 0.33365 0.0364 0.0
C448 C 0.6691 0.38724 0.07722 0.0
C449 C 0.65689 0.3874 0.11722 0.0
C450 C 0.62946 0.40627 0.13113 0.0
C451 C 0.61412 0.42555 0.10351 0.0
C452 C 0.62611 0.42588 0.06228 0.0
C453 C 0.65392 0.40623 0.04909 0.0
H454 H 0.85739 0.34812 0.37312 0.0
H455 H 0.88543 0.38532 0.25587 0.0
H456 H 0.9248 0.434 0.29349 0.0
H457 H 0.85953 0.43448 0.4353 0.0
H458 H 0.87798 0.42011 0.48052 0.0
H459 H 0.85059 0.38932 0.44448 0.0
H460 H 0.89962 0.34821 0.43524 0.0
H461 H 0.92713 0.37887 0.47119 0.0
H462 H 0.94207 0.36524 0.4196 0.0
H463 H 0.96334 0.47789 0.3443 0.0
H464 H 0.99765 0.51221 0.40375 0.0
H465 H 0.94456 0.44597 0.48723 0.0
C466 C 0.87148 0.36672 0.35536 0.0
C467 C 0.86809 0.36283 0.31143 0.0
C468 C 0.88743 0.38763 0.28948 0.0
C469 C 0.9099 0.41547 0.31061 0.0
C470 C 0.9129 0.41834 0.35383 0.0
C471 C 0.89417 0.39462 0.37596 0.0
C472 C 0.90303 0.40279 0.4221 0.0
C473 C 0.87087 0.41224 0.44706 0.0
C474 C 0.91891 0.37194 0.43794 0.0
C475 C 0.92983 0.43457 0.42244 0.0
C476 C 0.9351 0.44331 0.38283 0.0
C477 C 0.95925 0.47135 0.37549 0.0
C478 C 0.97863 0.49075 0.40945 0.0
C479 C 0.97386 0.48198 0.45027 0.0
C480 C 0.94887 0.4536 0.45655 0.0
H481 H 0.85629 0.70705 0.75212 0.0
H482 H 0.8469 0.76699 0.64911 0.0
H483 H 0.88039 0.72572 0.60513 0.0
H484 H 0.94292 0.69158 0.73503 0.0
H485 H 0.93844 0.64769 0.74918 0.0
H486 H 0.91008 0.67909 0.77114 0.0
H487 H 0.85621 0.63619 0.74404 0.0
H488 H 0.88443 0.60447 0.72226 0.0
H489 H 0.85243 0.61889 0.68955 0.0
H490 H 0.91898 0.68087 0.57405 0.0
H491 H 0.95978 0.63637 0.55828 0.0
H492 H 0.94488 0.60532 0.68152 0.0
C493 C 0.86045 0.71095 0.71997 0.0
C494 C 0.84853 0.74011 0.70393 0.0
C495 C 0.85547 0.74477 0.66203 0.0
C496 C 0.8745 0.72143 0.63678 0.0
C497 C 0.88658 0.69349 0.65382 0.0
C498 C 0.87974 0.68806 0.69442 0.0
C499 C 0.89785 0.65751 0.70602 0.0
C500 C 0.92386 0.66971 0.7425 0.0
C501 C 0.87113 0.62748 0.71605 0.0
C502 C 0.91645 0.64706 0.6659 0.0
C503 C 0.9093 0.66791 0.63607 0.0
C504 C 0.9244 0.66409 0.59702 0.0
C505 C 0.94754 0.63847 0.58827 0.0
C506 C 0.9557 0.61688 0.61844 0.0
C507 C 0.93951 0.62128 0.65768 0.0
H508 H 0.49265 0.42785 0.09615 0.0
H509 H 0.4511 0.52639 0.08555 0.0
H510 H 0.39807 0.50602 0.12229 0.0
H511 H 0.4161 0.37254 0.07743 0.0
H512 H 0.42456 0.34355 0.11475 0.0
H513 H 0.46026 0.36717 0.09138 0.0
H514 H 0.48504 0.39433 0.16436 0.0
H515 H 0.44967 0.37027 0.18798 0.0
H516 H 0.45756 0.4174 0.20077 0.0
H517 H 0.34627 0.47072 0.15177 0.0
H518 H 0.30401 0.42743 0.18036 0.0
H519 H 0.38163 0.35394 0.17504 0.0
C520 C 0.47272 0.44548 0.10247 0.0
C521 C 0.47588 0.47872 0.08823 0.0
C522 C 0.4493 0.50103 0.09677 0.0
C523 C 0.41904 0.48953 0.1173 0.0
C524 C 0.41624 0.45601 0.12976 0.0
C525 C 0.44284 0.4347 0.12353 0.0
C526 C 0.43346 0.39962 0.13909 0.0
C527 C 0.4336 0.36893 0.10353 0.0
C528 C 0.45788 0.39516 0.1752 0.0
C529 C 0.39697 0.40395 0.15397 0.0
C530 C 0.38731 0.43653 0.14816 0.0
C531 C 0.35385 0.44544 0.15713 0.0
C532 C 0.32993 0.42065 0.17299 0.0
C533 C 0.33972 0.38756 0.18016 0.0
C534 C 0.3737 0.37929 0.1705 0.0
H535 H 0.33089 0.63965 0.84709 0.0
H536 H 0.40189 0.73448 0.84519 0.0
H537 H 0.45021 0.70368 0.86684 0.0
H538 H 0.36898 0.61238 0.93804 0.0
H539 H 0.36249 0.56616 0.91839 0.0
H540 H 0.33339 0.59556 0.90225 0.0
H541 H 0.34632 0.57502 0.82507 0.0
H542 H 0.37564 0.54572 0.84099 0.0
H543 H 0.3907 0.5781 0.80797 0.0
H544 H 0.49085 0.66316 0.88969 0.0
H545 H 0.52096 0.61561 0.91299 0.0
H546 H 0.42415 0.5467 0.90056 0.0
C547 C 0.35653 0.65402 0.85149 0.0
C548 C 0.36249 0.68955 0.84411 0.0
C549 C 0.39663 0.70718 0.8499 0.0
C550 C 0.42428 0.68993 0.86242 0.0
C551 C 0.41757 0.65492 0.86904 0.0
C552 C 0.38456 0.63711 0.86387 0.0
C553 C 0.38449 0.59956 0.8733 0.0
C554 C 0.36094 0.59304 0.91019 0.0
C555 C 0.37365 0.57303 0.83452 0.0
C556 C 0.42259 0.59913 0.88471 0.0
C557 C 0.44115 0.63138 0.88204 0.0
C558 C 0.47659 0.63777 0.89185 0.0
C559 C 0.49346 0.61064 0.90519 0.0
C560 C 0.47502 0.57739 0.90857 0.0
C561 C 0.43912 0.57159 0.89772 0.0
H562 H 0.26339 0.66356 0.65822 0.0
H563 H 0.2509 0.77321 0.65189 0.0
H564 H 0.20218 0.755 0.60136 0.0
H565 H 0.2381 0.63029 0.5461 0.0
H566 H 0.21614 0.5901 0.56031 0.0
H567 H 0.25363 0.61187 0.59014 0.0
H568 H 0.21747 0.61361 0.65728 0.0
H569 H 0.17989 0.59223 0.62773 0.0
H570 H 0.1775 0.63394 0.65946 0.0
H571 H 0.14777 0.72471 0.56242 0.0
H572 H 0.09625 0.68494 0.53371 0.0
H573 H 0.14609 0.5952 0.56235 0.0
C574 C 0.25124 0.68379 0.64509 0.0
C575 C 0.26121 0.71984 0.65894 0.0
C576 C 0.24417 0.74544 0.64146 0.0
C577 C 0.21628 0.73532 0.61281 0.0
C578 C 0.20612 0.69951 0.60124 0.0
C579 C 0.22363 0.67413 0.61619 0.0
C580 C 0.20605 0.63748 0.60155 0.0
C581 C 0.2299 0.61618 0.57281 0.0
C582 C 0.19455 0.61822 0.63872 0.0
C583 C 0.17503 0.64619 0.5776 0.0
C584 C 0.17555 0.68209 0.57754 0.0
C585 C 0.14763 0.69651 0.56125 0.0
C586 C 0.11841 0.67375 0.54507 0.0
C587 C 0.11737 0.63691 0.54497 0.0
C588 C 0.14647 0.62311 0.56074 0.0
H589 H 0.21518 0.38951 0.33567 0.0
H590 H 0.27766 0.34072 0.41842 0.0
H591 H 0.24743 0.36948 0.47911 0.0
H592 H 0.21075 0.47283 0.40355 0.0
H593 H 0.16661 0.47562 0.38714 0.0
H594 H 0.1958 0.45396 0.35182 0.0
H595 H 0.15172 0.39781 0.342 0.0
H596 H 0.12261 0.41908 0.37763 0.0
H597 H 0.13712 0.37785 0.38698 0.0
H598 H 0.20496 0.39995 0.53018 0.0
H599 H 0.15874 0.43176 0.56589 0.0
H600 H 0.12512 0.45886 0.44747 0.0
C601 C 0.22307 0.38533 0.3666 0.0
C602 C 0.24887 0.36297 0.37238 0.0
C603 C 0.25828 0.35812 0.41334 0.0
C604 C 0.24106 0.37417 0.44791 0.0
C605 C 0.21483 0.39521 0.44084 0.0
C606 C 0.20636 0.4011 0.40105 0.0
C607 C 0.17647 0.42341 0.40092 0.0
C608 C 0.18812 0.45854 0.38492 0.0
C609 C 0.14514 0.40333 0.37538 0.0
C610 C 0.16881 0.42884 0.44681 0.0
C611 C 0.19108 0.41251 0.46958 0.0
C612 C 0.1877 0.41307 0.51254 0.0
C613 C 0.16118 0.43098 0.53255 0.0
C614 C 0.13837 0.44816 0.50965 0.0
C615 C 0.14246 0.44678 0.46619 0.0
loop_
_geom_bond_atom_site_label_1
_geom_bond_atom_site_label_2
_geom_bond_distance
_geom_bond_site_symmetry_2
_ccdc_geom_bond_type
Cu0 N1 1.999 1_545 S
Cu0 O6 1.974 1_445 S
Cu0 N11 1.985 1_455 S
Cu0 O20 1.959 . S
N1 Cu0 1.999 1_565 S
N1 C3 1.263 . S
N1 C5 1.389 1_565 S
N2 C3 1.358 . S
N2 C4 1.400 . S
C3 N1 1.263 . S
C3 N2 1.358 . S
C3 H9 0.930 . S
C4 N2 1.400 . S
C4 C5 1.351 1_565 S
C4 H21 0.930 . S
C5 N1 1.389 1_545 S
C5 C4 1.351 1_545 S
C5 H10 0.930 . S
O6 Cu0 1.974 1_665 S
O6 C16 1.282 . S
C7 O8 1.261 . S
C7 O20 1.251 . S
O8 C7 1.261 . S
H9 C3 0.930 . S
H10 C5 0.930 . S
N11 Cu0 1.985 1_655 S
N11 C13 1.335 . S
N11 C14 1.390 . S
N12 C13 1.345 . S
N12 C15 1.336 . S
C13 N11 1.335 . S
C13 N12 1.345 . S
C13 H18 0.930 1_655 S
C14 N11 1.390 . S
C14 C15 1.346 . S
C14 H19 0.930 1_545 S
C15 N12 1.336 . S
C15 C14 1.346 . S
C15 H22 0.929 . S
C16 O6 1.282 . S
C16 O17 1.216 . S
O17 C16 1.216 . S
H18 C13 0.930 1_455 S
H19 C14 0.930 1_565 S
O20 Cu0 1.959 . S
O20 C7 1.251 . S
H21 C4 0.930 . S
H22 C15 0.929 . S
Cu23 N24 1.999 . S
Cu23 O29 1.974 . S
Cu23 N34 1.985 . S
Cu23 O43 1.959 . S
N24 Cu23 1.999 . S
N24 C26 1.263 . S
N24 C28 1.389 . S
N25 C26 1.358 . S
N25 C27 1.400 . S
C26 N24 1.263 . S
C26 N25 1.358 . S
C26 H32 0.930 . S
C27 N25 1.400 . S
C27 C28 1.351 . S
C27 H44 0.930 . S
C28 N24 1.389 . S
C28 C27 1.351 . S
C28 H33 0.930 . S
O29 Cu23 1.974 . S
O29 C39 1.282 . S
C30 O31 1.261 . S
C30 O43 1.251 . S
O31 C30 1.261 . S
H32 C26 0.930 . S
H33 C28 0.930 . S
N34 Cu23 1.985 . S
N34 C36 1.335 . S
N34 C37 1.390 . S
N35 C36 1.345 . S
N35 C38 1.336 . S
C36 N34 1.335 . S
C36 N35 1.345 . S
C36 H41 0.930 . S
C37 N34 1.390 . S
C37 C38 1.346 . S
C37 H42 0.930 . S
C38 N35 1.336 . S
C38 C37 1.346 . S
C38 H45 0.929 . S
C39 O29 1.282 . S
C39 O40 1.216 . S
O40 C39 1.216 . S
H41 C36 0.930 . S
H42 C37 0.930 . S
O43 Cu23 1.959 . S
O43 C30 1.251 . S
H44 C27 0.930 . S
H45 C38 0.929 . S
Cu46 N47 1.999 1_544 S
Cu46 O52 1.974 1_544 S
Cu46 N57 1.985 . S
Cu46 O66 1.959 . S
N47 Cu46 1.999 1_566 S
N47 C49 1.263 . S
N47 C51 1.389 1_556 S
N48 C49 1.358 . S
N48 C50 1.400 . S
C49 N47 1.263 . S
C49 N48 1.358 . S
C49 H55 0.930 . S
C50 N48 1.400 . S
C50 C51 1.351 1_556 S
C50 H67 0.930 . S
C51 N47 1.389 1_554 S
C51 C50 1.351 1_554 S
C51 H56 0.930 . S
O52 Cu46 1.974 1_566 S
O52 C62 1.282 . S
C53 O54 1.261 1_554 S
C53 O66 1.251 . S
O54 C53 1.261 1_556 S
H55 C49 0.930 . S
H56 C51 0.930 . S
N57 Cu46 1.985 . S
N57 C59 1.335 . S
N57 C60 1.390 . S
N58 C59 1.345 . S
N58 C61 1.336 . S
C59 N57 1.335 . S
C59 N58 1.345 . S
C59 H64 0.930 . S
C60 N57 1.390 . S
C60 C61 1.346 . S
C60 H65 0.930 1_554 S
C61 N58 1.336 . S
C61 C60 1.346 . S
C61 H68 0.929 . S
C62 O52 1.282 . S
C62 O63 1.242 . S
O63 C62 1.242 . S
H64 C59 0.930 . S
H65 C60 0.930 1_556 S
O66 Cu46 1.959 . S
O66 C53 1.251 . S
H67 C50 0.930 . S
H68 C61 0.929 . S
Cu69 N70 1.999 . S
Cu69 O75 1.974 . S
Cu69 N80 1.985 . S
Cu69 O89 1.959 . S
N70 Cu69 1.999 . S
N70 C72 1.263 . S
N70 C74 1.389 . S
N71 C72 1.358 . S
N71 C73 1.400 . S
C72 N70 1.263 . S
C72 N71 1.358 . S
C72 H78 0.930 . S
C73 N71 1.400 . S
C73 C74 1.351 . S
C73 H90 0.930 . S
C74 N70 1.389 . S
C74 C73 1.351 . S
C74 H79 0.930 . S
O75 Cu69 1.974 . S
O75 C85 1.282 . S
C76 O77 1.261 . S
C76 O89 1.251 . S
O77 C76 1.261 . S
H78 C72 0.930 . S
H79 C74 0.930 . S
N80 Cu69 1.985 . S
N80 C82 1.335 . S
N80 C83 1.390 . S
N81 C82 1.345 . S
N81 C84 1.336 . S
C82 N80 1.335 . S
C82 N81 1.345 . S
C82 H87 0.930 . S
C83 N80 1.390 . S
C83 C84 1.346 . S
C83 H88 0.930 . S
C84 N81 1.336 . S
C84 C83 1.346 . S
C84 H91 0.929 . S
C85 O75 1.282 . S
C85 O86 1.216 . S
O86 C85 1.216 . S
H87 C82 0.930 . S
H88 C83 0.930 . S
O89 Cu69 1.959 . S
O89 C76 1.251 . S
H90 C73 0.930 . S
H91 C84 0.929 . S
Cu92 N93 1.999 . S
Cu92 O98 1.974 . S
Cu92 N103 1.985 . S
Cu92 O112 1.959 . S
N93 Cu92 1.999 . S
N93 C95 1.263 . S
N93 C97 1.389 . S
N94 C95 1.358 . S
N94 C96 1.400 . S
C95 N93 1.263 . S
C95 N94 1.358 . S
C95 H101 0.930 . S
C96 N94 1.400 . S
C96 C97 1.351 . S
C96 H113 0.930 . S
C97 N93 1.389 . S
C97 C96 1.351 . S
C97 H102 0.930 . S
O98 Cu92 1.974 . S
O98 C108 1.282 . S
C99 O100 1.261 . S
C99 O112 1.251 . S
O100 C99 1.261 . S
H101 C95 0.930 . S
H102 C97 0.930 . S
N103 Cu92 1.985 . S
N103 C105 1.335 . S
N103 C106 1.390 . S
N104 C105 1.345 . S
N104 C107 1.336 . S
C105 N103 1.335 . S
C105 N104 1.345 . S
C105 H110 0.930 . S
C106 N103 1.390 . S
C106 C107 1.346 . S
C106 H111 0.930 . S
C107 N104 1.336 . S
C107 C106 1.346 . S
C107 H114 0.929 . S
C108 O98 1.282 . S
C108 O109 1.216 . S
O109 C108 1.216 . S
H110 C105 0.930 . S
H111 C106 0.930 . S
O112 Cu92 1.959 . S
O112 C99 1.251 . S
H113 C96 0.930 . S
H114 C107 0.929 . S
Cu115 N116 1.999 . S
Cu115 O121 1.974 . S
Cu115 N126 1.985 . S
Cu115 O135 1.959 . S
N116 Cu115 1.999 . S
N116 C118 1.263 . S
N116 C120 1.389 . S
N117 C118 1.358 . S
N117 C119 1.400 . S
C118 N116 1.263 . S
C118 N117 1.358 . S
C118 H124 0.930 . S
C119 N117 1.400 . S
C119 C120 1.351 . S
C119 H136 0.930 . S
C120 N116 1.389 . S
C120 C119 1.351 . S
C120 H125 0.930 . S
O121 Cu115 1.974 . S
O121 C131 1.282 . S
C122 O123 1.261 . S
C122 O135 1.251 . S
O123 C122 1.261 . S
H124 C118 0.930 . S
H125 C120 0.930 . S
N126 Cu115 1.985 . S
N126 C128 1.335 . S
N126 C129 1.390 . S
N127 C128 1.345 . S
N127 C130 1.336 . S
C128 N126 1.335 . S
C128 N127 1.345 . S
C128 H133 0.930 . S
C129 N126 1.390 . S
C129 C130 1.346 . S
C129 H134 0.930 . S
C130 N127 1.336 . S
C130 C129 1.346 . S
C130 H137 0.929 . S
C131 O121 1.282 . S
C131 O132 1.216 . S
O132 C131 1.216 . S
H133 C128 0.930 . S
H134 C129 0.930 . S
O135 Cu115 1.959 . S
O135 C122 1.251 . S
H136 C119 0.930 . S
H137 C130 0.929 . S
Cu138 N139 1.999 . S
Cu138 O144 1.974 . S
Cu138 N149 1.985 . S
Cu138 O158 1.959 . S
N139 Cu138 1.999 . S
N139 C141 1.263 1_554 S
N139 C143 1.389 . S
N140 C141 1.358 . S
N140 C142 1.400 1_556 S
C141 N139 1.263 1_556 S
C141 N140 1.358 . S
C141 H147 0.930 . S
C142 N140 1.400 1_554 S
C142 C143 1.351 . S
C142 H159 0.930 . S
C143 N139 1.389 . S
C143 C142 1.351 . S
C143 H148 0.930 . S
O144 Cu138 1.974 . S
O144 C154 1.282 1_554 S
C145 O146 1.261 . S
C145 O158 1.251 . S
O146 C145 1.261 . S
H147 C141 0.930 . S
H148 C143 0.930 . S
N149 Cu138 1.985 . S
N149 C151 1.335 . S
N149 C152 1.390 . S
N150 C151 1.345 . S
N150 C153 1.336 . S
C151 N149 1.335 . S
C151 N150 1.345 . S
C151 H156 0.930 . S
C152 N149 1.390 . S
C152 C153 1.346 . S
C152 H157 0.930 . S
C153 N150 1.336 . S
C153 C152 1.346 . S
C153 H160 0.929 . S
C154 O144 1.282 1_556 S
C154 O155 1.216 . S
O155 C154 1.216 . S
H156 C151 0.930 . S
H157 C152 0.930 . S
O158 Cu138 1.959 . S
O158 C145 1.251 . S
H159 C142 0.930 . S
H160 C153 0.929 . S
Cu161 N162 1.999 1_455 S
Cu161 O167 1.974 . S
Cu161 N172 1.985 . S
Cu161 O181 1.959 1_455 S
N162 Cu161 1.999 1_655 S
N162 C164 1.263 . S
N162 C166 1.389 . S
N163 C164 1.358 . S
N163 C165 1.400 . S
C164 N162 1.263 . S
C164 N163 1.358 . S
C164 H170 0.948 . S
C165 N163 1.400 . S
C165 C166 1.351 . S
C165 H182 0.930 . S
C166 N162 1.389 . S
C166 C165 1.351 . S
C166 H171 0.930 . S
O167 Cu161 1.974 . S
O167 C177 1.282 . S
C168 O169 1.261 . S
C168 O181 1.251 . S
O169 C168 1.261 . S
H170 C164 0.948 . S
H171 C166 0.930 . S
N172 Cu161 1.985 . S
N172 C174 1.335 . S
N172 C175 1.390 . S
N173 C174 1.345 . S
N173 C176 1.336 . S
C174 N172 1.335 . S
C174 N173 1.345 . S
C174 H179 0.930 . S
C175 N172 1.390 . S
C175 C176 1.346 . S
C175 H180 0.930 . S
C176 N173 1.336 . S
C176 C175 1.346 . S
C176 H183 0.929 . S
C177 O167 1.282 . S
C177 O178 1.216 . S
O178 C177 1.216 . S
H179 C174 0.930 . S
H180 C175 0.930 . S
O181 Cu161 1.959 1_655 S
O181 C168 1.251 . S
H182 C165 0.930 . S
H183 C176 0.929 . S
H184 C196 0.930 . S
H185 C198 0.930 . S
H186 C199 0.930 . S
H187 C203 0.959 . S
H188 C203 0.959 . S
H189 C203 0.961 . S
H190 C204 0.960 . S
H191 C204 0.961 . S
H192 C204 0.959 . S
H193 C207 0.929 . S
H194 C208 0.931 . S
H195 C210 0.930 . S
C196 H184 0.930 . S
C196 C197 1.399 . S
C196 C201 1.399 . S
C197 C196 1.399 . S
C197 C198 1.376 . S
C198 H185 0.930 . S
C198 C197 1.376 . S
C198 C199 1.388 . S
C199 H186 0.930 . S
C199 C198 1.388 . S
C199 C200 1.390 . S
C200 C199 1.390 . S
C200 C201 1.394 . S
C200 C206 1.465 . S
C201 C196 1.399 . S
C201 C200 1.394 . S
C201 C202 1.516 . S
C202 C201 1.516 . S
C202 C203 1.502 . S
C202 C204 1.561 . S
C202 C205 1.526 . S
C203 H187 0.959 . S
C203 H188 0.959 . S
C203 H189 0.961 . S
C203 C202 1.502 . S
C204 H190 0.960 . S
C204 H191 0.961 . S
C204 H192 0.959 . S
C204 C202 1.561 . S
C205 C202 1.526 . S
C205 C206 1.396 . S
C205 C210 1.390 . S
C206 C200 1.465 . S
C206 C205 1.396 . S
C206 C207 1.399 . S
C207 H193 0.929 . S
C207 C206 1.399 . S
C207 C208 1.385 . S
C208 H194 0.931 . S
C208 C207 1.385 . S
C208 C209 1.389 . S
C209 C208 1.389 . S
C209 C210 1.387 . S
C210 H195 0.930 . S
C210 C205 1.390 . S
C210 C209 1.387 . S
H211 C223 0.930 . S
H212 C225 0.930 . S
H213 C226 0.930 . S
H214 C230 0.959 . S
H215 C230 0.959 . S
H216 C230 0.961 . S
H217 C231 0.960 . S
H218 C231 0.961 . S
H219 C231 0.959 . S
H220 C234 0.929 . S
H221 C235 0.931 . S
H222 C237 0.930 . S
C223 H211 0.930 . S
C223 C224 1.399 . S
C223 C228 1.399 . S
C224 C223 1.399 . S
C224 C225 1.376 . S
C225 H212 0.930 . S
C225 C224 1.376 . S
C225 C226 1.388 . S
C226 H213 0.930 . S
C226 C225 1.388 . S
C226 C227 1.390 . S
C227 C226 1.390 . S
C227 C228 1.394 . S
C227 C233 1.465 . S
C228 C223 1.399 . S
C228 C227 1.394 . S
C228 C229 1.516 . S
C229 C228 1.516 . S
C229 C230 1.502 . S
C229 C231 1.561 . S
C229 C232 1.526 . S
C230 H214 0.959 . S
C230 H215 0.959 . S
C230 H216 0.961 . S
C230 C229 1.502 . S
C231 H217 0.960 . S
C231 H218 0.961 . S
C231 H219 0.959 . S
C231 C229 1.561 . S
C232 C229 1.526 . S
C232 C233 1.396 . S
C232 C237 1.390 . S
C233 C227 1.465 . S
C233 C232 1.396 . S
C233 C234 1.399 . S
C234 H220 0.929 . S
C234 C233 1.399 . S
C234 C235 1.385 . S
C235 H221 0.931 . S
C235 C234 1.385 . S
C235 C236 1.389 . S
C236 C235 1.389 . S
C236 C237 1.387 . S
C237 H222 0.930 . S
C237 C232 1.390 . S
C237 C236 1.387 . S
H238 C250 0.930 . S
H239 C252 0.930 . S
H240 C253 0.930 . S
H241 C257 0.959 . S
H242 C257 0.959 . S
H243 C257 0.961 . S
H244 C258 0.960 . S
H245 C258 0.961 . S
H246 C258 0.959 . S
H247 C261 0.929 . S
H248 C262 0.931 . S
H249 C264 0.930 . S
C250 H238 0.930 . S
C250 C251 1.399 . S
C250 C255 1.399 . S
C251 C250 1.399 . S
C251 C252 1.376 . S
C252 H239 0.930 . S
C252 C251 1.376 . S
C252 C253 1.388 . S
C253 H240 0.930 . S
C253 C252 1.388 . S
C253 C254 1.390 . S
C254 C253 1.390 . S
C254 C255 1.394 . S
C254 C260 1.465 . S
C255 C250 1.399 . S
C255 C254 1.394 . S
C255 C256 1.516 . S
C256 C255 1.516 . S
C256 C257 1.502 . S
C256 C258 1.561 . S
C256 C259 1.526 . S
C257 H241 0.959 . S
C257 H242 0.959 . S
C257 H243 0.961 . S
C257 C256 1.502 . S
C258 H244 0.960 . S
C258 H245 0.961 . S
C258 H246 0.959 . S
C258 C256 1.561 . S
C259 C256 1.526 . S
C259 C260 1.396 . S
C259 C264 1.390 . S
C260 C254 1.465 . S
C260 C259 1.396 . S
C260 C261 1.399 . S
C261 H247 0.929 . S
C261 C260 1.399 . S
C261 C262 1.385 . S
C262 H248 0.931 . S
C262 C261 1.385 . S
C262 C263 1.389 . S
C263 C262 1.389 . S
C263 C264 1.387 . S
C264 H249 0.930 . S
C264 C259 1.390 . S
C264 C263 1.387 . S
H265 C277 0.930 . S
H266 C279 0.930 . S
H267 C280 0.930 . S
H268 C284 0.959 . S
H269 C284 0.959 . S
H270 C284 0.961 . S
H271 C285 0.960 . S
H272 C285 0.961 . S
H273 C285 0.959 . S
H274 C288 0.929 . S
H275 C289 0.931 . S
H276 C291 0.930 . S
C277 H265 0.930 . S
C277 C278 1.399 . S
C277 C282 1.399 . S
C278 C277 1.399 . S
C278 C279 1.376 . S
C279 H266 0.930 . S
C279 C278 1.376 . S
C279 C280 1.388 . S
C280 H267 0.930 . S
C280 C279 1.388 . S
C280 C281 1.390 . S
C281 C280 1.390 . S
C281 C282 1.394 . S
C281 C287 1.465 . S
C282 C277 1.399 . S
C282 C281 1.394 . S
C282 C283 1.516 . S
C283 C282 1.516 . S
C283 C284 1.502 . S
C283 C285 1.561 . S
C283 C286 1.526 . S
C284 H268 0.959 . S
C284 H269 0.959 . S
C284 H270 0.961 . S
C284 C283 1.502 . S
C285 H271 0.960 . S
C285 H272 0.961 . S
C285 H273 0.959 . S
C285 C283 1.561 . S
C286 C283 1.526 . S
C286 C287 1.396 . S
C286 C291 1.390 . S
C287 C281 1.465 . S
C287 C286 1.396 . S
C287 C288 1.399 . S
C288 H274 0.929 . S
C288 C287 1.399 . S
C288 C289 1.385 . S
C289 H275 0.931 . S
C289 C288 1.385 . S
C289 C290 1.389 . S
C290 C289 1.389 . S
C290 C291 1.387 . S
C291 H276 0.930 . S
C291 C286 1.390 . S
C291 C290 1.387 . S
H292 C304 0.930 . S
H293 C306 0.930 . S
H294 C307 0.930 . S
H295 C311 0.959 . S
H296 C311 0.959 . S
H297 C311 0.961 . S
H298 C312 0.960 . S
H299 C312 0.961 . S
H300 C312 0.959 . S
H301 C315 0.929 . S
H302 C316 0.931 . S
H303 C318 0.930 . S
C304 H292 0.930 . S
C304 C305 1.399 . S
C304 C309 1.399 . S
C305 C304 1.399 . S
C305 C306 1.376 . S
C306 H293 0.930 . S
C306 C305 1.376 . S
C306 C307 1.388 . S
C307 H294 0.930 . S
C307 C306 1.388 . S
C307 C308 1.390 . S
C308 C307 1.390 . S
C308 C309 1.394 . S
C308 C314 1.465 . S
C309 C304 1.399 . S
C309 C308 1.394 . S
C309 C310 1.516 . S
C310 C309 1.516 . S
C310 C311 1.502 . S
C310 C312 1.561 . S
C310 C313 1.526 . S
C311 H295 0.959 . S
C311 H296 0.959 . S
C311 H297 0.961 . S
C311 C310 1.502 . S
C312 H298 0.960 . S
C312 H299 0.961 . S
C312 H300 0.959 . S
C312 C310 1.561 . S
C313 C310 1.526 . S
C313 C314 1.396 . S
C313 C318 1.390 . S
C314 C308 1.465 . S
C314 C313 1.396 . S
C314 C315 1.399 . S
C315 H301 0.929 . S
C315 C314 1.399 . S
C315 C316 1.385 . S
C316 H302 0.931 . S
C316 C315 1.385 . S
C316 C317 1.389 . S
C317 C316 1.389 . S
C317 C318 1.387 . S
C318 H303 0.930 . S
C318 C313 1.390 . S
C318 C317 1.387 . S
H319 C331 0.930 . S
H320 C333 0.930 . S
H321 C334 0.930 . S
H322 C338 0.959 . S
H323 C338 0.959 . S
H324 C338 0.961 . S
H325 C339 0.960 . S
H326 C339 0.961 . S
H327 C339 0.959 . S
H328 C342 0.929 . S
H329 C343 0.931 . S
H330 C345 0.930 . S
C331 H319 0.930 . S
C331 C332 1.399 . S
C331 C336 1.399 . S
C332 C331 1.399 . S
C332 C333 1.376 . S
C333 H320 0.930 . S
C333 C332 1.376 . S
C333 C334 1.388 . S
C334 H321 0.930 . S
C334 C333 1.388 . S
C334 C335 1.390 . S
C335 C334 1.390 . S
C335 C336 1.394 . S
C335 C341 1.465 . S
C336 C331 1.399 . S
C336 C335 1.394 . S
C336 C337 1.516 . S
C337 C336 1.516 . S
C337 C338 1.502 . S
C337 C339 1.561 . S
C337 C340 1.526 . S
C338 H322 0.959 . S
C338 H323 0.959 . S
C338 H324 0.961 . S
C338 C337 1.502 . S
C339 H325 0.960 . S
C339 H326 0.961 . S
C339 H327 0.959 . S
C339 C337 1.561 . S
C340 C337 1.526 . S
C340 C341 1.396 . S
C340 C345 1.390 . S
C341 C335 1.465 . S
C341 C340 1.396 . S
C341 C342 1.399 . S
C342 H328 0.929 . S
C342 C341 1.399 . S
C342 C343 1.385 . S
C343 H329 0.931 . S
C343 C342 1.385 . S
C343 C344 1.389 . S
C344 C343 1.389 . S
C344 C345 1.387 . S
C345 H330 0.930 . S
C345 C340 1.390 . S
C345 C344 1.387 . S
H346 C358 0.930 . S
H347 C360 0.930 . S
H348 C361 0.930 . S
H349 C365 0.959 . S
H350 C365 0.959 . S
H351 C365 0.961 . S
H352 C366 0.960 . S
H353 C366 0.961 . S
H354 C366 0.959 . S
H355 C369 0.929 . S
H356 C370 0.931 . S
H357 C372 0.930 . S
C358 H346 0.930 . S
C358 C359 1.399 . S
C358 C363 1.399 . S
C359 C358 1.399 . S
C359 C360 1.376 . S
C360 H347 0.930 . S
C360 C359 1.376 . S
C360 C361 1.388 . S
C361 H348 0.930 . S
C361 C360 1.388 . S
C361 C362 1.390 . S
C362 C361 1.390 . S
C362 C363 1.394 . S
C362 C368 1.465 . S
C363 C358 1.399 . S
C363 C362 1.394 . S
C363 C364 1.516 . S
C364 C363 1.516 . S
C364 C365 1.502 . S
C364 C366 1.561 . S
C364 C367 1.526 . S
C365 H349 0.959 . S
C365 H350 0.959 . S
C365 H351 0.961 . S
C365 C364 1.502 . S
C366 H352 0.960 . S
C366 H353 0.961 . S
C366 H354 0.959 . S
C366 C364 1.561 . S
C367 C364 1.526 . S
C367 C368 1.396 . S
C367 C372 1.390 . S
C368 C362 1.465 . S
C368 C367 1.396 . S
C368 C369 1.399 . S
C369 H355 0.929 . S
C369 C368 1.399 . S
C369 C370 1.385 . S
C370 H356 0.931 . S
C370 C369 1.385 . S
C370 C371 1.389 . S
C371 C370 1.389 . S
C371 C372 1.387 . S
C372 H357 0.930 . S
C372 C367 1.390 . S
C372 C371 1.387 . S
H373 C385 0.930 . S
H374 C387 0.930 . S
H375 C388 0.930 . S
H376 C392 0.959 . S
H377 C392 0.959 . S
H378 C392 0.961 . S
H379 C393 0.960 . S
H380 C393 0.961 . S
H381 C393 0.959 . S
H382 C396 0.929 . S
H383 C397 0.931 . S
H384 C399 0.930 . S
C385 H373 0.930 . S
C385 C386 1.399 . S
C385 C390 1.399 . S
C386 C385 1.399 . S
C386 C387 1.376 . S
C387 H374 0.930 . S
C387 C386 1.376 . S
C387 C388 1.388 . S
C388 H375 0.930 . S
C388 C387 1.388 . S
C388 C389 1.390 . S
C389 C388 1.390 . S
C389 C390 1.394 . S
C389 C395 1.465 . S
C390 C385 1.399 . S
C390 C389 1.394 . S
C390 C391 1.516 . S
C391 C390 1.516 . S
C391 C392 1.502 . S
C391 C393 1.561 . S
C391 C394 1.526 . S
C392 H376 0.959 . S
C392 H377 0.959 . S
C392 H378 0.961 . S
C392 C391 1.502 . S
C393 H379 0.960 . S
C393 H380 0.961 . S
C393 H381 0.959 . S
C393 C391 1.561 . S
C394 C391 1.526 . S
C394 C395 1.396 . S
C394 C399 1.390 . S
C395 C389 1.465 . S
C395 C394 1.396 . S
C395 C396 1.399 . S
C396 H382 0.929 . S
C396 C395 1.399 . S
C396 C397 1.385 . S
C397 H383 0.931 . S
C397 C396 1.385 . S
C397 C398 1.389 . S
C398 C397 1.389 . S
C398 C399 1.387 . S
C399 H384 0.930 . S
C399 C394 1.390 . S
C399 C398 1.387 . S
H400 C412 0.930 . S
H401 C414 0.930 . S
H402 C415 0.930 . S
H403 C419 0.959 . S
H404 C419 0.959 . S
H405 C419 0.961 . S
H406 C420 0.960 . S
H407 C420 0.961 . S
H408 C420 0.959 . S
H409 C423 0.929 . S
H410 C424 0.931 . S
H411 C426 0.930 . S
C412 H400 0.930 . S
C412 C413 1.399 . S
C412 C417 1.399 . S
C413 C412 1.399 . S
C413 C414 1.376 . S
C414 H401 0.930 . S
C414 C413 1.376 . S
C414 C415 1.388 . S
C415 H402 0.930 . S
C415 C414 1.388 . S
C415 C416 1.390 . S
C416 C415 1.390 . S
C416 C417 1.394 . S
C416 C422 1.465 . S
C417 C412 1.399 . S
C417 C416 1.394 . S
C417 C418 1.516 . S
C418 C417 1.516 . S
C418 C419 1.502 . S
C418 C420 1.561 . S
C418 C421 1.526 . S
C419 H403 0.959 . S
C419 H404 0.959 . S
C419 H405 0.961 . S
C419 C418 1.502 . S
C420 H406 0.960 . S
C420 H407 0.961 . S
C420 H408 0.959 . S
C420 C418 1.561 . S
C421 C418 1.526 . S
C421 C422 1.396 . S
C421 C426 1.390 . S
C422 C416 1.465 . S
C422 C421 1.396 . S
C422 C423 1.399 . S
C423 H409 0.929 . S
C423 C422 1.399 . S
C423 C424 1.385 . S
C424 H410 0.931 . S
C424 C423 1.385 . S
C424 C425 1.389 . S
C425 C424 1.389 . S
C425 C426 1.387 . S
C426 H411 0.930 . S
C426 C421 1.390 . S
C426 C425 1.387 . S
H427 C439 0.930 . S
H428 C441 0.930 . S
H429 C442 0.930 . S
H430 C446 0.959 . S
H431 C446 0.959 . S
H432 C446 0.961 . S
H433 C447 0.960 . S
H434 C447 0.961 . S
H435 C447 0.959 . S
H436 C450 0.929 . S
H437 C451 0.931 . S
H438 C453 0.930 . S
C439 H427 0.930 . S
C439 C440 1.399 . S
C439 C444 1.399 . S
C440 C439 1.399 . S
C440 C441 1.376 . S
C441 H428 0.930 . S
C441 C440 1.376 . S
C441 C442 1.388 . S
C442 H429 0.930 . S
C442 C441 1.388 . S
C442 C443 1.390 . S
C443 C442 1.390 . S
C443 C444 1.394 . S
C443 C449 1.465 . S
C444 C439 1.399 . S
C444 C443 1.394 . S
C444 C445 1.516 . S
C445 C444 1.516 . S
C445 C446 1.502 . S
C445 C447 1.561 . S
C445 C448 1.526 . S
C446 H430 0.959 . S
C446 H431 0.959 . S
C446 H432 0.961 . S
C446 C445 1.502 . S
C447 H433 0.960 . S
C447 H434 0.961 . S
C447 H435 0.959 . S
C447 C445 1.561 . S
C448 C445 1.526 . S
C448 C449 1.396 . S
C448 C453 1.390 . S
C449 C443 1.465 . S
C449 C448 1.396 . S
C449 C450 1.399 . S
C450 H436 0.929 . S
C450 C449 1.399 . S
C450 C451 1.385 . S
C451 H437 0.931 . S
C451 C450 1.385 . S
C451 C452 1.389 . S
C452 C451 1.389 . S
C452 C453 1.387 . S
C453 H438 0.930 . S
C453 C448 1.390 . S
C453 C452 1.387 . S
H454 C466 0.930 . S
H455 C468 0.930 . S
H456 C469 0.930 . S
H457 C473 0.959 . S
H458 C473 0.959 . S
H459 C473 0.961 . S
H460 C474 0.960 . S
H461 C474 0.961 . S
H462 C474 0.959 . S
H463 C477 0.929 . S
H464 C478 0.931 . S
H465 C480 0.930 . S
C466 H454 0.930 . S
C466 C467 1.399 . S
C466 C471 1.399 . S
C467 C466 1.399 . S
C467 C468 1.376 . S
C468 H455 0.930 . S
C468 C467 1.376 . S
C468 C469 1.388 . S
C469 H456 0.930 . S
C469 C468 1.388 . S
C469 C470 1.390 . S
C470 C469 1.390 . S
C470 C471 1.394 . S
C470 C476 1.465 . S
C471 C466 1.399 . S
C471 C470 1.394 . S
C471 C472 1.516 . S
C472 C471 1.516 . S
C472 C473 1.502 . S
C472 C474 1.561 . S
C472 C475 1.526 . S
C473 H457 0.959 . S
C473 H458 0.959 . S
C473 H459 0.961 . S
C473 C472 1.502 . S
C474 H460 0.960 . S
C474 H461 0.961 . S
C474 H462 0.959 . S
C474 C472 1.561 . S
C475 C472 1.526 . S
C475 C476 1.396 . S
C475 C480 1.390 . S
C476 C470 1.465 . S
C476 C475 1.396 . S
C476 C477 1.399 . S
C477 H463 0.929 . S
C477 C476 1.399 . S
C477 C478 1.385 . S
C478 H464 0.931 . S
C478 C477 1.385 . S
C478 C479 1.389 . S
C479 C478 1.389 . S
C479 C480 1.387 . S
C480 H465 0.930 . S
C480 C475 1.390 . S
C480 C479 1.387 . S
H481 C493 0.930 . S
H482 C495 0.930 . S
H483 C496 0.930 . S
H484 C500 0.959 . S
H485 C500 0.959 . S
H486 C500 0.961 . S
H487 C501 0.960 . S
H488 C501 0.961 . S
H489 C501 0.959 . S
H490 C504 0.929 . S
H491 C505 0.931 . S
H492 C507 0.930 . S
C493 H481 0.930 . S
C493 C494 1.399 . S
C493 C498 1.399 . S
C494 C493 1.399 . S
C494 C495 1.376 . S
C495 H482 0.930 . S
C495 C494 1.376 . S
C495 C496 1.388 . S
C496 H483 0.930 . S
C496 C495 1.388 . S
C496 C497 1.390 . S
C497 C496 1.390 . S
C497 C498 1.394 . S
C497 C503 1.465 . S
C498 C493 1.399 . S
C498 C497 1.394 . S
C498 C499 1.516 . S
C499 C498 1.516 . S
C499 C500 1.502 . S
C499 C501 1.561 . S
C499 C502 1.526 . S
C500 H484 0.959 . S
C500 H485 0.959 . S
C500 H486 0.961 . S
C500 C499 1.502 . S
C501 H487 0.960 . S
C501 H488 0.961 . S
C501 H489 0.959 . S
C501 C499 1.561 . S
C502 C499 1.526 . S
C502 C503 1.396 . S
C502 C507 1.390 . S
C503 C497 1.465 . S
C503 C502 1.396 . S
C503 C504 1.399 . S
C504 H490 0.929 . S
C504 C503 1.399 . S
C504 C505 1.385 . S
C505 H491 0.931 . S
C505 C504 1.385 . S
C505 C506 1.389 . S
C506 C505 1.389 . S
C506 C507 1.387 . S
C507 H492 0.930 . S
C507 C502 1.390 . S
C507 C506 1.387 . S
H508 C520 0.930 . S
H509 C522 0.930 . S
H510 C523 0.930 . S
H511 C527 0.959 . S
H512 C527 0.959 . S
H513 C527 0.961 . S
H514 C528 0.960 . S
H515 C528 0.961 . S
H516 C528 0.959 . S
H517 C531 0.929 . S
H518 C532 0.931 . S
H519 C534 0.930 . S
C520 H508 0.930 . S
C520 C521 1.399 . S
C520 C525 1.399 . S
C521 C520 1.399 . S
C521 C522 1.376 . S
C522 H509 0.930 . S
C522 C521 1.376 . S
C522 C523 1.388 . S
C523 H510 0.930 . S
C523 C522 1.388 . S
C523 C524 1.390 . S
C524 C523 1.390 . S
C524 C525 1.394 . S
C524 C530 1.465 . S
C525 C520 1.399 . S
C525 C524 1.394 . S
C525 C526 1.516 . S
C526 C525 1.516 . S
C526 C527 1.502 . S
C526 C528 1.561 . S
C526 C529 1.526 . S
C527 H511 0.959 . S
C527 H512 0.959 . S
C527 H513 0.961 . S
C527 C526 1.502 . S
C528 H514 0.960 . S
C528 H515 0.961 . S
C528 H516 0.959 . S
C528 C526 1.561 . S
C529 C526 1.526 . S
C529 C530 1.396 . S
C529 C534 1.390 . S
C530 C524 1.465 . S
C530 C529 1.396 . S
C530 C531 1.399 . S
C531 H517 0.929 . S
C531 C530 1.399 . S
C531 C532 1.385 . S
C532 H518 0.931 . S
C532 C531 1.385 . S
C532 C533 1.389 . S
C533 C532 1.389 . S
C533 C534 1.387 . S
C534 H519 0.930 . S
C534 C529 1.390 . S
C534 C533 1.387 . S
H535 C547 0.930 . S
H536 C549 0.930 . S
H537 C550 0.930 . S
H538 C554 0.959 . S
H539 C554 0.959 . S
H540 C554 0.961 . S
H541 C555 0.960 . S
H542 C555 0.961 . S
H543 C555 0.959 . S
H544 C558 0.929 . S
H545 C559 0.931 . S
H546 C561 0.930 . S
C547 H535 0.930 . S
C547 C548 1.399 . S
C547 C552 1.399 . S
C548 C547 1.399 . S
C548 C549 1.376 . S
C549 H536 0.930 . S
C549 C548 1.376 . S
C549 C550 1.388 . S
C550 H537 0.930 . S
C550 C549 1.388 . S
C550 C551 1.390 . S
C551 C550 1.390 . S
C551 C552 1.394 . S
C551 C557 1.465 . S
C552 C547 1.399 . S
C552 C551 1.394 . S
C552 C553 1.516 . S
C553 C552 1.516 . S
C553 C554 1.502 . S
C553 C555 1.561 . S
C553 C556 1.526 . S
C554 H538 0.959 . S
C554 H539 0.959 . S
C554 H540 0.961 . S
C554 C553 1.502 . S
C555 H541 0.960 . S
C555 H542 0.961 . S
C555 H543 0.959 . S
C555 C553 1.561 . S
C556 C553 1.526 . S
C556 C557 1.396 . S
C556 C561 1.390 . S
C557 C551 1.465 . S
C557 C556 1.396 . S
C557 C558 1.399 . S
C558 H544 0.929 . S
C558 C557 1.399 . S
C558 C559 1.385 . S
C559 H545 0.931 . S
C559 C558 1.385 . S
C559 C560 1.389 . S
C560 C559 1.389 . S
C560 C561 1.387 . S
C561 H546 0.930 . S
C561 C556 1.390 . S
C561 C560 1.387 . S
H562 C574 0.930 . S
H563 C576 0.930 . S
H564 C577 0.930 . S
H565 C581 0.959 . S
H566 C581 0.959 . S
H567 C581 0.961 . S
H568 C582 0.960 . S
H569 C582 0.961 . S
H570 C582 0.959 . S
H571 C585 0.929 . S
H572 C586 0.931 . S
H573 C588 0.930 . S
C574 H562 0.930 . S
C574 C575 1.399 . S
C574 C579 1.399 . S
C575 C574 1.399 . S
C575 C576 1.376 . S
C576 H563 0.930 . S
C576 C575 1.376 . S
C576 C577 1.388 . S
C577 H564 0.930 . S
C577 C576 1.388 . S
C577 C578 1.390 . S
C578 C577 1.390 . S
C578 C579 1.394 . S
C578 C584 1.465 . S
C579 C574 1.399 . S
C579 C578 1.394 . S
C579 C580 1.516 . S
C580 C579 1.516 . S
C580 C581 1.502 . S
C580 C582 1.561 . S
C580 C583 1.526 . S
C581 H565 0.959 . S
C581 H566 0.959 . S
C581 H567 0.961 . S
C581 C580 1.502 . S
C582 H568 0.960 . S
C582 H569 0.961 . S
C582 H570 0.959 . S
C582 C580 1.561 . S
C583 C580 1.526 . S
C583 C584 1.396 . S
C583 C588 1.390 . S
C584 C578 1.465 . S
C584 C583 1.396 . S
C584 C585 1.399 . S
C585 H571 0.929 . S
C585 C584 1.399 . S
C585 C586 1.385 . S
C586 H572 0.931 . S
C586 C585 1.385 . S
C586 C587 1.389 . S
C587 C586 1.389 . S
C587 C588 1.387 . S
C588 H573 0.930 . S
C588 C583 1.390 . S
C588 C587 1.387 . S
H589 C601 0.930 . S
H590 C603 0.930 . S
H591 C604 0.930 . S
H592 C608 0.959 . S
H593 C608 0.959 . S
H594 C608 0.961 . S
H595 C609 0.960 . S
H596 C609 0.961 . S
H597 C609 0.959 . S
H598 C612 0.929 . S
H599 C613 0.931 . S
H600 C615 0.930 . S
C601 H589 0.930 . S
C601 C602 1.399 . S
C601 C606 1.399 . S
C602 C601 1.399 . S
C602 C603 1.376 . S
C603 H590 0.930 . S
C603 C602 1.376 . S
C603 C604 1.388 . S
C604 H591 0.930 . S
C604 C603 1.388 . S
C604 C605 1.390 . S
C605 C604 1.390 . S
C605 C606 1.394 . S
C605 C611 1.465 . S
C606 C601 1.399 . S
C606 C605 1.394 . S
C606 C607 1.516 . S
C607 C606 1.516 . S
C607 C608 1.502 . S
C607 C609 1.561 . S
C607 C610 1.526 . S
C608 H592 0.959 . S
C608 H593 0.959 . S
C608 H594 0.961 . S
C608 C607 1.502 . S
C609 H595 0.960 . S
C609 H596 0.961 . S
C609 H597 0.959 . S
C609 C607 1.561 . S
C610 C607 1.526 . S
C610 C611 1.396 . S
C610 C615 1.390 . S
C611 C605 1.465 . S
C611 C610 1.396 . S
C611 C612 1.399 . S
C612 H598 0.929 . S
C612 C611 1.399 . S
C612 C613 1.385 . S
C613 H599 0.931 . S
C613 C612 1.385 . S
C613 C614 1.389 . S
C614 C613 1.389 . S
C614 C615 1.387 . S
C615 H600 0.930 . S
C615 C610 1.390 . S
C615 C614 1.387 . S
C197 C7 1.466 . S
C209 N71 1.448 . S
C224 N2 1.378 . S
C236 N25 1.393 . S
C251 C62 1.540 . S
C263 C30 1.549 . S
C278 C76 1.547 . S
C290 N58 1.462 . S
C305 C16 1.420 . S
C317 N127 1.364 . S
C332 N12 1.360 . S
C344 N104 1.353 . S
C359 C108 1.589 . S
C371 C53 1.583 . S
C386 N48 1.511 . S
C398 C131 1.582 . S
C413 C154 1.413 . S
C425 N117 1.395 . S
C440 N94 1.411 . S
C452 N150 1.417 . S
C467 C99 1.573 . S
C479 C168 1.562 . S
C494 C122 1.592 . S
C506 N163 1.538 . S
C521 C145 1.451 . S
C533 N81 1.384 . S
C548 N35 1.429 . S
C560 N140 1.461 . S
C575 C39 1.535 . S
C587 C177 1.548 . S
C602 C85 1.553 . S
C614 N173 1.537 . S
