# Generated by pormake.
# Topology wme, (6)-cn, num edge types: 1
# Building blocks:
#     Node 0, Type 0, BuildingBlock: KUMJIN_clean_sbu_0, # of connection points: 6
#     Node 1, Type 0, BuildingBlock: KUMJIN_clean_sbu_0, # of connection points: 6
#     Node 2, Type 0, BuildingBlock: KUMJIN_clean_sbu_0, # of connection points: 6
#     Node 3, Type 0, BuildingBlock: KUMJIN_clean_sbu_0, # of connection points: 6
#     Node 4, Type 0, BuildingBlock: KUMJIN_clean_sbu_0, # of connection points: 6
#     Node 5, Type 0, BuildingBlock: KUMJIN_clean_sbu_0, # of connection points: 6
#     Node 6, Type 0, BuildingBlock: KUMJIN_clean_sbu_0, # of connection points: 6
#     Node 7, Type 0, BuildingBlock: KUMJIN_clean_sbu_0, # of connection points: 6
#     Node 8, Type 0, BuildingBlock: KUMJIN_clean_sbu_0, # of connection points: 6
#     Node 9, Type 0, BuildingBlock: KUMJIN_clean_sbu_0, # of connection points: 6
#     Node 10, Type 0, BuildingBlock: KUMJIN_clean_sbu_0, # of connection points: 6
#     Node 11, Type 0, BuildingBlock: KUMJIN_clean_sbu_0, # of connection points: 6
#     Edge 12, Type (0, 0), BuildingBlock: XIVTED_clean_linker_0, # of connection points: 2
#     Edge 13, Type (0, 0), BuildingBlock: XIVTED_clean_linker_0, # of connection points: 2
#     Edge 14, Type (0, 0), BuildingBlock: XIVTED_clean_linker_0, # of connection points: 2
#     Edge 15, Type (0, 0), BuildingBlock: XIVTED_clean_linker_0, # of connection points: 2
#     Edge 16, Type (0, 0), BuildingBlock: XIVTED_clean_linker_0, # of connection points: 2
#     Edge 17, Type (0, 0), BuildingBlock: XIVTED_clean_linker_0, # of connection points: 2
#     Edge 18, Type (0, 0), BuildingBlock: XIVTED_clean_linker_0, # of connection points: 2
#     Edge 19, Type (0, 0), BuildingBlock: XIVTED_clean_linker_0, # of connection points: 2
#     Edge 20, Type (0, 0), BuildingBlock: XIVTED_clean_linker_0, # of connection points: 2
#     Edge 21, Type (0, 0), BuildingBlock: XIVTED_clean_linker_0, # of connection points: 2
#     Edge 22, Type (0, 0), BuildingBlock: XIVTED_clean_linker_0, # of connection points: 2
#     Edge 23, Type (0, 0), BuildingBlock: XIVTED_clean_linker_0, # of connection points: 2
#     Edge 24, Type (0, 0), BuildingBlock: XIVTED_clean_linker_0, # of connection points: 2
#     Edge 25, Type (0, 0), BuildingBlock: XIVTED_clean_linker_0, # of connection points: 2
#     Edge 26, Type (0, 0), BuildingBlock: XIVTED_clean_linker_0, # of connection points: 2
#     Edge 27, Type (0, 0), BuildingBlock: XIVTED_clean_linker_0, # of connection points: 2
#     Edge 28, Type (0, 0), BuildingBlock: XIVTED_clean_linker_0, # of connection points: 2
#     Edge 29, Type (0, 0), BuildingBlock: XIVTED_clean_linker_0, # of connection points: 2
#     Edge 30, Type (0, 0), BuildingBlock: XIVTED_clean_linker_0, # of connection points: 2
#     Edge 31, Type (0, 0), BuildingBlock: XIVTED_clean_linker_0, # of connection points: 2
#     Edge 32, Type (0, 0), BuildingBlock: XIVTED_clean_linker_0, # of connection points: 2
#     Edge 33, Type (0, 0), BuildingBlock: XIVTED_clean_linker_0, # of connection points: 2
#     Edge 34, Type (0, 0), BuildingBlock: XIVTED_clean_linker_0, # of connection points: 2
#     Edge 35, Type (0, 0), BuildingBlock: XIVTED_clean_linker_0, # of connection points: 2
#     Edge 36, Type (0, 0), BuildingBlock: XIVTED_clean_linker_0, # of connection points: 2
#     Edge 37, Type (0, 0), BuildingBlock: XIVTED_clean_linker_0, # of connection points: 2
#     Edge 38, Type (0, 0), BuildingBlock: XIVTED_clean_linker_0, # of connection points: 2
#     Edge 39, Type (0, 0), BuildingBlock: XIVTED_clean_linker_0, # of connection points: 2
#     Edge 40, Type (0, 0), BuildingBlock: XIVTED_clean_linker_0, # of connection points: 2
#     Edge 41, Type (0, 0), BuildingBlock: XIVTED_clean_linker_0, # of connection points: 2
#     Edge 42, Type (0, 0), BuildingBlock: XIVTED_clean_linker_0, # of connection points: 2
#     Edge 43, Type (0, 0), BuildingBlock: XIVTED_clean_linker_0, # of connection points: 2
#     Edge 44, Type (0, 0), BuildingBlock: XIVTED_clean_linker_0, # of connection points: 2
#     Edge 45, Type (0, 0), BuildingBlock: XIVTED_clean_linker_0, # of connection points: 2
#     Edge 46, Type (0, 0), BuildingBlock: XIVTED_clean_linker_0, # of connection points: 2
#     Edge 47, Type (0, 0), BuildingBlock: XIVTED_clean_linker_0, # of connection points: 2
# Relax obj value: 0.094
# Max RMSD: 0.208
# Mean RMSD: 0.208
data_MOF--net-wme--node1-KUMJIN_clean_sbu_0--edge1-XIVTED_clean_linker_0
_symmetry_space_group_name_H-M    P1
_symmetry_Int_Tables_number       1
_symmetry_cell_setting            triclinic
loop_
_symmetry_equiv_pos_as_xyz
'x, y, z'
_cell_length_a     38.628797
_cell_length_b     38.677936
_cell_length_c     55.116172
_cell_angle_alpha  89.980821
_cell_angle_beta   89.949193
_cell_angle_gamma 119.95342
loop_
_atom_site_label
_atom_site_type_symbol
_atom_site_fract_x
_atom_site_fract_y
_atom_site_fract_z
_atom_type_partial_charge
Eu0 Eu 0.20716 0.36825 0.10175 0.0
C1 C 0.31808 0.34508 0.17705 0.0
C2 C 0.38513 0.38296 0.16087 0.0
C3 C 0.37506 0.37308 0.2044 0.0
C4 C 0.34338 0.36128 0.15743 0.0
C5 C 0.33361 0.35032 0.20077 0.0
C6 C 0.40079 0.38936 0.18448 0.0
C7 C 0.26628 0.30838 0.21541 0.0
N8 N 0.27826 0.32307 0.17286 0.0
C9 C 0.25234 0.30393 0.19157 0.0
C10 C 0.30708 0.33196 0.22007 0.0
Eu11 Eu 0.2566 0.3185 0.1321 0.0
N12 N 0.32727 0.35417 0.13487 0.0
C13 C 0.35138 0.36556 0.11489 0.0
C14 C 0.40992 0.3966 0.14044 0.0
C15 C 0.39295 0.38736 0.11734 0.0
H16 H 0.22072 0.2858 0.18835 0.0
H17 H 0.41185 0.39706 0.10139 0.0
H18 H 0.43276 0.40617 0.18749 0.0
H19 H 0.24553 0.2937 0.23017 0.0
H20 H 0.33881 0.35861 0.09691 0.0
H21 H 0.05387 0.30312 0.13469 0.0
H22 H 0.44213 0.4134 0.14229 0.0
H23 H 0.2405 0.39291 0.04448 0.0
H24 H 0.12741 0.33848 0.13787 0.0
H25 H 0.21366 0.37893 0.00274 0.0
H26 H 0.38755 0.37764 0.2225 0.0
H27 H 1.0214 0.27906 0.09477 0.0
H28 H 0.02851 0.27573 0.04965 0.0
H29 H 0.31781 0.33531 0.23856 0.0
H30 H 0.07208 0.2962 0.01367 0.0
N31 N 0.13649 0.33345 0.10028 0.0
C32 C 0.11359 0.32812 0.12035 0.0
C33 C 0.05369 0.29453 0.09607 0.0
C34 C 0.07743 0.3022 0.07535 0.0
C35 C 0.07191 0.30816 0.11862 0.0
C36 C 0.11935 0.32243 0.07805 0.0
H37 H 0.1411 0.33537 0.996 0.0
N38 N 0.1839 0.35624 0.0611 0.0
C39 C 0.19371 0.36586 0.01806 0.0
C40 C 0.14381 0.33398 0.05782 0.0
C41 C 0.2088 0.37373 0.0417 0.0
C42 C 0.15275 0.34115 0.01433 0.0
C43 C 0.12713 0.32555 0.03433 0.0
O44 O 0.23014 0.43026 0.09054 0.0
O45 O 0.26358 0.37635 0.11818 0.0
O46 O 0.25674 0.3628 0.15832 0.0
O47 O 0.2021 0.36709 0.14389 0.0
O48 O 0.26948 0.40814 0.08688 0.0
O49 O 0.18472 0.40515 0.11815 0.0
O50 O 0.22947 0.25457 0.13976 0.0
O51 O 0.19975 0.31158 0.1168 0.0
O52 O 0.21179 0.32469 0.07512 0.0
O53 O 0.26736 0.32547 0.09167 0.0
O54 O 0.1948 0.2804 0.14825 0.0
O55 O 0.27643 0.28182 0.11307 0.0
C56 C 0.28887 0.40151 0.1035 0.0
C57 C 0.18319 0.45275 0.09158 0.0
C58 C 0.15745 0.49956 0.08976 0.0
C59 C 0.17869 0.48371 0.10215 0.0
C60 C 0.14167 0.48419 0.06665 0.0
C61 C 0.16654 0.43817 0.06867 0.0
C62 C 0.14603 0.45376 0.05635 0.0
C63 C 0.22756 0.37082 0.16149 0.0
C64 C 0.2054 0.43565 0.10398 0.0
C65 C 0.08545 0.30334 0.03157 0.0
C66 C 0.06063 0.2917 0.05206 0.0
C67 C 0.17518 0.28753 0.13213 0.0
C68 C 0.26944 0.22496 0.13386 0.0
C69 C 0.24906 0.18319 0.13029 0.0
C70 C 0.26455 0.15979 0.13987 0.0
C71 C 0.30104 0.17909 0.15253 0.0
C72 C 0.30554 0.24324 0.14672 0.0
C73 C 0.3213 0.22039 0.15585 0.0
C74 C 0.24186 0.31723 0.07372 0.0
C75 C 0.25238 0.24914 0.12477 0.0
H76 H 0.19133 0.49508 0.11988 0.0
H77 H 0.12639 0.49619 0.05615 0.0
H78 H 0.16981 0.41502 0.06002 0.0
H79 H 0.13373 0.44241 0.03856 0.0
H80 H 0.22083 0.16891 0.12067 0.0
H81 H 0.31405 0.16216 0.15988 0.0
H82 H 0.32148 0.27517 0.14974 0.0
H83 H 0.34926 0.23472 0.1657 0.0
Eu84 Eu 0.84442 0.19771 0.60152 0.0
C85 C 0.97902 0.32386 0.67015 0.0
C86 C 1.00198 0.38836 0.65135 0.0
C87 C 1.00466 0.38341 0.69519 0.0
C88 C 0.98514 0.34663 0.64952 0.0
C89 C 0.98932 0.34209 0.69319 0.0
C90 C 1.01098 0.4065 0.67431 0.0
C91 C 0.97108 0.2778 0.71044 0.0
N92 N 0.96435 0.28403 0.66759 0.0
C93 C 0.96148 0.26109 0.68723 0.0
C94 C 0.98467 0.3184 0.71349 0.0
Eu95 Eu 0.94664 0.25798 0.62769 0.0
N96 N 0.97648 0.32829 0.62759 0.0
C97 C 0.98662 0.35022 0.60671 0.0
C98 C 1.01025 0.41074 0.63 0.0
C99 C 1.00305 0.39162 0.60758 0.0
H100 H 0.95094 0.22967 0.68528 0.0
H101 H 1.0101 0.40873 0.59095 0.0
H102 H 1.02363 0.43847 0.67607 0.0
H103 H 0.96792 0.25931 0.72598 0.0
H104 H 0.98135 0.33587 0.58925 0.0
H105 H 0.76862 0.05234 0.64633 0.0
H106 H 1.02309 0.44284 0.63063 0.0
H107 H 0.84202 0.21649 0.54239 0.0
H108 H 0.8013 0.12555 0.6435 0.0
H109 H 0.82784 0.18113 0.50309 0.0
H110 H 1.01248 0.39791 0.71275 0.0
H111 H 0.76091 1.01233 0.60963 0.0
H112 H 0.76798 1.01013 0.5644 0.0
H113 H 0.99217 0.33127 0.7315 0.0
H114 H 0.78416 0.04536 0.5252 0.0
N115 N 0.81346 0.12742 0.60572 0.0
C116 C 0.79836 0.1086 0.62735 0.0
C117 C 0.77545 0.04454 0.60828 0.0
C118 C 0.78856 0.06381 0.58589 0.0
C119 C 0.77964 0.06701 0.62902 0.0
C120 C 0.80727 0.10582 0.58515 0.0
H121 H 0.8056 0.10903 0.50214 0.0
N122 N 0.82953 0.16528 0.56327 0.0
C123 C 0.82452 0.16514 0.51985 0.0
C124 C 0.81576 0.12547 0.56317 0.0
C125 C 0.83238 0.18502 0.5421 0.0
C126 C 0.81215 0.12449 0.51938 0.0
C127 C 0.80672 0.10392 0.54123 0.0
O128 O 0.79779 0.2089 0.58733 0.0
O129 O 0.89201 0.25825 0.61353 0.0
O130 O 0.90321 0.25732 0.65507 0.0
O131 O 0.84588 0.19823 0.64373 0.0
O132 O 0.85983 0.25575 0.58292 0.0
O133 O 0.79044 0.1824 0.62261 0.0
O134 O 0.98353 0.22991 0.63112 0.0
O135 O 0.89855 0.198 0.61518 0.0
O136 O 0.89204 0.20362 0.57382 0.0
O137 O 0.94636 0.26341 0.58693 0.0
O138 O 0.92854 0.19916 0.64657 0.0
O139 O 1.00752 0.28612 0.61264 0.0
C140 C 0.88751 0.27932 0.59759 0.0
C141 C 0.73164 0.16233 0.59961 0.0
C142 C 0.66 0.14021 0.59698 0.0
C143 C 0.69945 0.16949 0.60353 0.0
C144 C 0.65336 0.10378 0.58729 0.0
C145 C 0.72369 0.12586 0.58948 0.0
C146 C 0.68493 0.09673 0.58361 0.0
C147 C 0.86777 0.22638 0.65999 0.0
C148 C 0.77359 0.19238 0.60563 0.0
C149 C 0.79091 0.06241 0.54186 0.0
C150 C 0.78174 0.04235 0.56417 0.0
C151 C 0.90132 0.17643 0.63138 0.0
C152 C 0.05287 0.27149 0.63337 0.0
C153 C 0.07758 0.25547 0.62708 0.0
C154 C 0.11223 0.26493 0.64084 0.0
C155 C 0.12078 0.29021 0.66113 0.0
C156 C 0.06304 0.29727 0.65325 0.0
C157 C 0.09671 0.30643 0.66703 0.0
C158 C 0.92795 0.23551 0.57037 0.0
C159 C 1.01473 0.25857 0.62061 0.0
H160 H 0.70513 0.19778 0.61097 0.0
H161 H 0.62351 0.0807 0.58231 0.0
H162 H 0.74751 0.11988 0.58594 0.0
H163 H 0.67938 0.06867 0.57591 0.0
H164 H 0.06964 0.23571 0.61161 0.0
H165 H 0.14579 0.29712 0.67291 0.0
H166 H 0.04449 0.3097 0.65842 0.0
H167 H 0.1039 0.32579 0.68265 0.0
Eu168 Eu 0.67562 0.83728 0.10032 0.0
C169 C 0.69235 0.97743 0.16768 0.0
C170 C 0.65247 1.00129 0.14769 0.0
C171 C 0.66163 1.00799 0.19141 0.0
C172 C 0.67587 0.98265 0.14675 0.0
C173 C 0.686 0.99063 0.19022 0.0
C174 C 0.64486 1.01328 0.17018 0.0
C175 C 0.7302 0.97073 0.20848 0.0
N176 N 0.71581 0.96069 0.16587 0.0
C177 C 0.73563 0.95816 0.18572 0.0
C178 C 0.70496 0.98669 0.2108 0.0
Eu179 Eu 0.72273 0.93897 0.12694 0.0
N180 N 0.68414 0.97108 0.12531 0.0
C181 C 0.67207 0.97964 0.10397 0.0
C182 C 0.63822 1.00817 0.12596 0.0
C183 C 0.64848 0.99772 0.10398 0.0
H184 H 0.75507 0.94572 0.18419 0.0
H185 H 0.63821 1.00355 0.08702 0.0
H186 H 0.62672 0.02738 0.17129 0.0
H187 H 0.74541 0.968 0.22422 0.0
H188 H 0.67969 0.97176 0.08682 0.0
H189 H 0.74043 0.7549 0.14257 0.0
H190 H 0.62005 0.02229 0.12591 0.0
H191 H 0.65217 0.83685 0.04167 0.0
H192 H 0.70425 0.79236 0.14126 0.0
H193 H 0.66877 0.81986 0.00173 0.0
H194 H 0.65616 0.01807 0.20858 0.0
H195 H 0.76715 0.74269 0.10475 0.0
H196 H 0.77296 0.74804 0.05934 0.0
H197 H 0.70084 0.99645 0.22844 0.0
H198 H 0.75376 0.76617 0.02088 0.0
N199 N 0.71123 0.80226 0.10316 0.0
C200 C 0.71571 0.78723 0.12461 0.0
C201 C 0.75126 0.75915 0.10406 0.0
C202 C 0.74451 0.77258 0.08195 0.0
C203 C 0.73614 0.76589 0.12543 0.0
C204 C 0.72366 0.7939 0.08206 0.0
H205 H 0.71428 0.79228 0.99921 0.0
N206 N 0.6899 0.82143 0.06134 0.0
C207 C 0.68173 0.81563 0.01807 0.0
C208 C 0.71292 0.80408 0.06046 0.0
C209 C 0.67248 0.82532 0.04069 0.0
C210 C 0.70751 0.80018 0.01673 0.0
C211 C 0.72267 0.79327 0.03811 0.0
O212 O 0.61386 0.79746 0.08874 0.0
O213 O 0.66551 0.88605 0.11397 0.0
O214 O 0.67969 0.89747 0.15472 0.0
O215 O 0.67512 0.83734 0.14262 0.0
O216 O 0.63729 0.85843 0.08207 0.0
O217 O 0.63789 0.77902 0.11786 0.0
O218 O 0.78601 0.97783 0.13562 0.0
O219 O 0.73152 0.88874 0.11448 0.0
O220 O 0.71861 0.88279 0.07215 0.0
O221 O 0.7204 0.94057 0.08604 0.0
O222 O 0.76137 0.91805 0.14569 0.0
O223 O 0.75885 0.99482 0.10728 0.0
C224 C 0.64121 0.88454 0.09799 0.0
C225 C 0.59088 0.7281 0.09187 0.0
C226 C 0.54351 0.65561 0.09108 0.0
C227 C 0.55888 0.69338 0.10256 0.0
C228 C 0.56016 0.6538 0.06868 0.0
C229 C 0.60675 0.72449 0.06975 0.0
C230 C 0.59149 0.68779 0.05827 0.0
C231 C 0.67144 0.86057 0.15922 0.0
C232 C 0.6078 0.76826 0.1032 0.0
C233 C 0.74558 0.77429 0.03787 0.0
C234 C 0.75648 0.76394 0.05977 0.0
C235 C 0.75543 0.89022 0.13064 0.0
C236 C 0.81312 0.04673 0.12865 0.0
C237 C 0.85509 0.06931 0.1263 0.0
C238 C 0.87645 0.10859 0.13545 0.0
C239 C 0.85498 0.12497 0.14649 0.0
C240 C 0.79258 0.06374 0.13986 0.0
C241 C 0.81345 0.10271 0.14861 0.0
C242 C 0.72784 0.92068 0.0694 0.0
C243 C 0.7911 1.00519 0.11996 0.0
H244 H 0.54642 0.6957 0.11969 0.0
H245 H 0.5486 0.62594 0.05887 0.0
H246 H 0.63073 0.75014 0.06105 0.0
H247 H 0.60388 0.68573 0.04106 0.0
H248 H 0.87107 0.056 0.11795 0.0
H249 H 0.87037 0.15518 0.15346 0.0
H250 H 0.76042 0.04686 0.14188 0.0
H251 H 0.79739 0.11569 0.1572 0.0
Eu252 Eu 0.84701 0.66307 0.60605 0.0
C253 C 0.7173 0.67182 0.65726 0.0
C254 C 0.66218 0.63276 0.62993 0.0
C255 C 0.65053 0.62858 0.6734 0.0
C256 C 0.70321 0.65979 0.63385 0.0
C257 C 0.6907 0.65749 0.67716 0.0
C258 C 0.63631 0.6162 0.64984 0.0
C259 C 0.74386 0.70546 0.70261 0.0
N260 N 0.75617 0.7001 0.6604 0.0
C261 C 0.76894 0.7189 0.68235 0.0
C262 C 0.70478 0.67398 0.70011 0.0
Eu263 Eu 0.79741 0.71803 0.6253 0.0
N264 N 0.72889 0.67639 0.61486 0.0
C265 C 0.71446 0.67018 0.59165 0.0
C266 C 0.64798 0.62426 0.60612 0.0
C267 C 0.67406 0.6438 0.58695 0.0
H268 H 0.79919 0.74308 0.68444 0.0
H269 H 0.66313 0.63845 0.56847 0.0
H270 H 0.60491 0.59492 0.64714 0.0
H271 H 0.75468 0.7194 0.7201 0.0
H272 H 0.73345 0.68513 0.57647 0.0
H273 H 0.92808 0.61723 0.66755 0.0
H274 H 0.61672 0.60372 0.60239 0.0
H275 H 0.88473 0.73107 0.56031 0.0
H276 H 0.86902 0.61294 0.64746 0.0
H277 H 0.9494 0.78009 0.54361 0.0
H278 H 0.62987 0.61675 0.68851 0.0
H279 H 0.99577 0.67137 0.65664 0.0
H280 H 0.039 0.72927 0.6297 0.0
H281 H 0.68527 0.66376 0.71581 0.0
H282 H 0.04478 0.77245 0.59539 0.0
N283 N 0.9026 0.6662 0.62685 0.0
C284 C 0.89843 0.6373 0.64293 0.0
C285 C 0.96989 0.66998 0.64803 0.0
C286 C 0.97424 0.69719 0.62991 0.0
C287 C 0.93178 0.63942 0.65425 0.0
C288 C 0.93957 0.69414 0.61927 0.0
H289 H 1.01172 0.79072 0.56284 0.0
N290 N 0.9088 0.71343 0.58944 0.0
C291 C 0.94803 0.76302 0.55951 0.0
C292 C 0.94278 0.71817 0.59984 0.0
C293 C 0.91106 0.73501 0.56924 0.0
C294 C 0.9831 0.7689 0.57038 0.0
C295 C 0.98084 0.74626 0.59071 0.0
O296 O 0.85477 0.6375 0.5724 0.0
O297 O 0.78698 0.65962 0.60975 0.0
O298 O 0.80914 0.69181 0.65886 0.0
O299 O 0.85142 0.66757 0.64752 0.0
O300 O 0.79413 0.61515 0.62613 0.0
O301 O 0.8335 0.60079 0.60424 0.0
O302 O 0.82462 0.77877 0.61041 0.0
O303 O 0.85576 0.72344 0.614 0.0
O304 O 0.8208 0.67658 0.57185 0.0
O305 O 0.80188 0.72237 0.58497 0.0
O306 O 0.85544 0.75289 0.64576 0.0
O307 O 0.77352 0.75769 0.63337 0.0
C308 C 0.76902 0.62691 0.6214 0.0
C309 C 0.88026 0.59362 0.58025 0.0
C310 C 0.90401 0.54551 0.58381 0.0
C311 C 0.87279 0.55454 0.58545 0.0
C312 C 0.94256 0.57594 0.57755 0.0
C313 C 0.91921 0.62313 0.57374 0.0
C314 C 0.95006 0.6144 0.57267 0.0
C315 C 0.83193 0.6763 0.66395 0.0
C316 C 0.84842 0.60443 0.58268 0.0
C317 C 1.01538 0.75065 0.60196 0.0
C318 C 1.0121 0.7262 0.62155 0.0
C319 C 0.8773 0.74634 0.63089 0.0
C320 C 0.82232 0.82578 0.6366 0.0
C321 C 0.82225 0.86066 0.62909 0.0
C322 C 0.84102 0.89545 0.64352 0.0
C323 C 0.86083 0.89525 0.66486 0.0
C324 C 0.84181 0.82649 0.65824 0.0
C325 C 0.86123 0.86103 0.6721 0.0
C326 C 0.80905 0.70318 0.5678 0.0
C327 C 0.80181 0.7885 0.62233 0.0
H328 H 0.84293 0.53131 0.59032 0.0
H329 H 0.96693 0.56974 0.57619 0.0
H330 H 0.92607 0.6532 0.56953 0.0
H331 H 0.97992 0.63753 0.5678 0.0
H332 H 0.80691 0.86043 0.61259 0.0
H333 H 0.87597 0.92172 0.67606 0.0
H334 H 0.8419 0.80033 0.6647 0.0
H335 H 0.87631 0.86115 0.68868 0.0
Eu336 Eu 0.20151 0.83535 0.10429 0.0
C337 C 0.06853 0.71866 0.17864 0.0
C338 C 0.03991 0.65149 0.1629 0.0
C339 C 0.04185 0.66222 0.20642 0.0
C340 C 0.05902 0.69311 0.15914 0.0
C341 C 0.05981 0.70351 0.20253 0.0
C342 C 0.03186 0.63624 0.18663 0.0
C343 C 0.0858 0.77091 0.21694 0.0
N344 N 0.0857 0.75835 0.17422 0.0
C345 C 0.09362 0.78448 0.19296 0.0
C346 C 0.06903 0.73027 0.22177 0.0
Eu347 Eu 0.10062 0.77935 0.13309 0.0
N348 N 0.06706 0.70881 0.13645 0.0
C349 C 0.05444 0.6843 0.11668 0.0
C350 C 0.02871 0.62639 0.14266 0.0
C351 C 0.0356 0.64289 0.11944 0.0
H352 H 0.10698 0.81604 0.18972 0.0
H353 H 0.0264 0.62374 0.10364 0.0
H354 H 1.01742 0.60439 0.18987 0.0
H355 H 0.09291 0.79187 0.23168 0.0
H356 H 0.05913 0.69638 0.0986 0.0
H357 H 0.28218 0.98203 0.14705 0.0
H358 H 1.01401 0.59428 0.14476 0.0
H359 H 0.20211 0.8144 0.04543 0.0
H360 H 0.24744 0.90876 0.14525 0.0
H361 H 0.21605 0.84855 0.00564 0.0
H362 H 0.03507 0.65003 0.22463 0.0
H363 H 0.29002 0.02118 0.1099 0.0
H364 H 0.28163 0.02213 0.06476 0.0
H365 H 0.06297 0.71983 0.24038 0.0
H366 H 0.26336 0.98558 0.02606 0.0
N367 N 0.23369 0.90582 0.10762 0.0
C368 C 0.25008 0.92521 0.12891 0.0
C369 C 0.27445 0.98889 0.10901 0.0
C370 C 0.26012 0.96898 0.08692 0.0
C371 C 0.27014 0.9669 0.13 0.0
C372 C 0.24014 0.92688 0.08676 0.0
H373 H 0.23974 0.92092 0.00379 0.0
N374 N 0.2157 0.8665 0.06562 0.0
C375 C 0.21998 0.86517 0.02219 0.0
C376 C 0.23053 0.90646 0.06504 0.0
C377 C 0.21219 0.84598 0.04469 0.0
C378 C 0.23319 0.90597 0.02122 0.0
C379 C 0.23961 0.92736 0.04283 0.0
O380 O 0.24969 0.8277 0.08869 0.0
O381 O 0.15371 0.77712 0.11844 0.0
O382 O 0.14563 0.7784 0.15836 0.0
O383 O 0.20153 0.83797 0.14643 0.0
O384 O 0.18529 0.77441 0.08903 0.0
O385 O 0.25334 0.84563 0.12593 0.0
O386 O 0.06132 0.80368 0.14063 0.0
O387 O 0.14873 0.83828 0.11809 0.0
O388 O 0.15209 0.82266 0.07608 0.0
O389 O 0.09731 0.7669 0.09305 0.0
O390 O 0.12024 0.8401 0.14942 0.0
O391 O 0.04438 0.75796 0.11335 0.0
C392 C 0.15734 0.75336 0.10432 0.0
C393 C 0.31461 0.87004 0.10489 0.0
C394 C 0.38606 0.89157 0.10745 0.0
C395 C 0.34549 0.86108 0.10895 0.0
C396 C 0.39516 0.93061 0.10184 0.0
C397 C 0.32495 0.90913 0.0985 0.0
C398 C 0.36481 0.93919 0.09719 0.0
C399 C 0.18098 0.80964 0.16288 0.0
C400 C 0.27183 0.83949 0.10813 0.0
C401 C 0.25658 0.96904 0.04293 0.0
C402 C 0.26694 0.98984 0.06496 0.0
C403 C 0.14665 0.86143 0.13351 0.0
C404 C 0.99238 0.76278 0.13333 0.0
C405 C 0.97092 0.78314 0.12982 0.0
C406 C 0.93157 0.76704 0.13877 0.0
C407 C 0.91399 0.72996 0.15078 0.0
C408 C 0.9742 0.72607 0.14551 0.0
C409 C 0.93512 0.7097 0.15404 0.0
C410 C 0.11574 0.79064 0.07456 0.0
C411 C 0.03415 0.78084 0.12506 0.0
H412 H 0.33809 0.83087 0.11347 0.0
H413 H 0.42595 0.95439 0.1004 0.0
H414 H 0.30229 0.91662 0.09455 0.0
H415 H 0.3722 0.96927 0.09244 0.0
H416 H 0.98519 0.81186 0.12076 0.0
H417 H 0.8837 0.71649 0.15763 0.0
H418 H 0.99031 0.71019 0.14853 0.0
H419 H 0.9212 0.68129 0.16339 0.0
Eu420 Eu 0.37212 0.19882 0.59848 0.0
C421 C 0.35893 0.06555 0.67007 0.0
C422 C 0.39688 0.03872 0.65088 0.0
C423 C 0.39093 0.03745 0.69482 0.0
C424 C 0.37382 0.05767 0.6493 0.0
C425 C 0.36677 0.05498 0.69306 0.0
C426 C 0.40598 0.02935 0.67377 0.0
C427 C 0.32436 0.07769 0.71073 0.0
N428 N 0.33556 0.08232 0.66772 0.0
C429 C 0.3174 0.08758 0.68754 0.0
C430 C 0.34946 0.06166 0.71354 0.0
Eu431 Eu 0.32603 0.09936 0.62799 0.0
N432 N 0.36399 0.06658 0.62748 0.0
C433 C 0.37385 0.05475 0.60651 0.0
C434 C 0.40913 0.02872 0.6294 0.0
C435 C 0.39709 0.0363 0.60712 0.0
H436 H 0.29814 0.10016 0.6856 0.0
H437 H 0.40569 0.02794 0.59039 0.0
H438 H 0.42389 1.01506 0.67535 0.0
H439 H 0.31047 0.08257 0.72642 0.0
H440 H 0.36475 0.06031 0.58914 0.0
H441 H 0.31094 0.28489 0.64012 0.0
H442 H 0.42697 1.01425 0.62983 0.0
H443 H 0.39465 0.19939 0.53975 0.0
H444 H 0.34717 0.24757 0.63878 0.0
H445 H 0.3751 0.21327 0.49979 0.0
H446 H 0.39752 0.02936 0.71234 0.0
H447 H 0.28005 0.29299 0.60284 0.0
H448 H 0.26956 0.28297 0.55784 0.0
H449 H 0.35477 0.05399 0.73153 0.0
H450 H 0.28666 0.26278 0.51936 0.0
N451 N 0.33609 0.23351 0.60126 0.0
C452 C 0.33382 0.25074 0.62238 0.0
C453 C 0.29582 0.27641 0.60216 0.0
C454 C 0.30032 0.26077 0.58028 0.0
C455 C 0.31334 0.27203 0.62321 0.0
C456 C 0.32139 0.23968 0.58037 0.0
H457 H 0.32691 0.23765 0.49747 0.0
N458 N 0.35603 0.21337 0.55963 0.0
C459 C 0.36229 0.21747 0.51623 0.0
C460 C 0.33132 0.22876 0.55879 0.0
C461 C 0.3733 0.20966 0.53885 0.0
C462 C 0.33493 0.23102 0.51499 0.0
C463 C 0.31998 0.23797 0.53646 0.0
O464 O 0.43158 0.2406 0.58397 0.0
O465 O 0.38238 0.15057 0.61279 0.0
O466 O 0.37242 0.14311 0.65336 0.0
O467 O 0.37368 0.20128 0.64074 0.0
O468 O 0.41021 0.17695 0.5805 0.0
O469 O 0.41256 0.25459 0.61736 0.0
O470 O 0.26398 0.0604 0.63928 0.0
O471 O 0.31641 0.14817 0.61363 0.0
O472 O 0.33014 0.15133 0.57098 0.0
O473 O 0.32576 0.0935 0.58727 0.0
O474 O 0.28819 0.12224 0.6459 0.0
O475 O 0.28872 0.04231 0.60996 0.0
C476 C 0.40578 0.15088 0.59658 0.0
C477 C 0.45438 0.30885 0.5919 0.0
C478 C 0.50539 0.37989 0.58942 0.0
C479 C 0.49241 0.34092 0.59837 0.0
C480 C 0.47939 0.38613 0.57456 0.0
C481 C 0.42963 0.31632 0.57684 0.0
C482 C 0.44191 0.35461 0.56837 0.0
C483 C 0.37972 0.17976 0.65743 0.0
C484 C 0.44001 0.2676 0.60061 0.0
C485 C 0.29611 0.25593 0.53632 0.0
C486 C 0.28638 0.26743 0.55823 0.0
C487 C 0.29321 0.14832 0.62973 0.0
C488 C 0.23711 0.99122 0.63334 0.0
C489 C 0.19527 0.9676 0.63131 0.0
C490 C 0.175 0.92814 0.64033 0.0
C491 C 0.1976 0.91289 0.65121 0.0
C492 C 0.25878 0.97539 0.64445 0.0
C493 C 0.23906 0.93639 0.65327 0.0
C494 C 0.31999 0.11301 0.56956 0.0
C495 C 0.25778 0.03231 0.62389 0.0
H496 H 0.51192 0.33546 0.60986 0.0
H497 H 0.48796 0.41564 0.56779 0.0
H498 H 0.40073 0.2925 0.57155 0.0
H499 H 0.42229 0.35988 0.55688 0.0
H500 H 0.17859 0.9802 0.62302 0.0
H501 H 0.18332 0.88252 0.65791 0.0
H502 H 0.29092 0.99309 0.64619 0.0
H503 H 0.256 0.92424 0.66168 0.0
Eu504 Eu 0.66862 0.83426 0.39683 0.0
C505 C 0.69093 0.71775 0.32519 0.0
C506 C 0.64924 0.65125 0.34132 0.0
C507 C 0.66348 0.6605 0.29811 0.0
C508 C 0.67218 0.69292 0.34469 0.0
C509 C 0.68725 0.70181 0.3017 0.0
C510 C 0.64449 0.63526 0.31788 0.0
C511 C 0.73236 0.76848 0.28723 0.0
N512 N 0.71368 0.75749 0.3293 0.0
C513 C 0.73512 0.78285 0.31084 0.0
C514 C 0.70805 0.72782 0.28259 0.0
Eu515 Eu 0.71578 0.77995 0.36962 0.0
N516 N 0.67765 0.70933 0.3671 0.0
C517 C 0.66302 0.68545 0.38711 0.0
C518 C 0.6325 0.62684 0.36167 0.0
C519 C 0.63982 0.64402 0.38469 0.0
H520 H 0.75387 0.81437 0.31406 0.0
H521 H 0.62759 0.62538 0.40061 0.0
H522 H 0.62678 0.60336 0.31493 0.0
H523 H 0.7489 0.78881 0.27263 0.0
H524 H 0.66834 0.69806 0.40504 0.0
H525 H 0.73913 0.98345 0.35711 0.0
H526 H 0.6146 0.59472 0.35985 0.0
H527 H 0.64474 0.8076 0.45512 0.0
H528 H 0.7029 0.90992 0.35701 0.0
H529 H 0.65922 0.83907 0.49566 0.0
H530 H 0.66009 0.64771 0.28018 0.0
H531 H 0.76106 0.02022 0.39592 0.0
H532 H 0.76279 0.01821 0.44141 0.0
H533 H 0.70598 0.71675 0.26428 0.0
H534 H 0.74181 0.97888 0.47913 0.0
N535 N 0.70514 0.90485 0.39534 0.0
C536 C 0.71236 0.92552 0.37408 0.0
C537 C 0.74517 0.98788 0.39599 0.0
C538 C 0.73623 0.96654 0.41779 0.0
C539 C 0.73282 0.96725 0.37405 0.0
C540 C 0.71556 0.92445 0.41687 0.0
H541 H 0.70285 0.91216 0.49952 0.0
N542 N 0.68175 0.86205 0.43643 0.0
C543 C 0.6723 0.8572 0.47964 0.0
C544 C 0.70398 0.90236 0.43807 0.0
C545 C 0.66421 0.83949 0.45669 0.0
C546 C 0.697 0.89844 0.48174 0.0
C547 C 0.71247 0.92168 0.46079 0.0
O548 O 0.60679 0.8132 0.40788 0.0
O549 O 0.6582 0.7762 0.3817 0.0
O550 O 0.67453 0.7809 0.34156 0.0
O551 O 0.67076 0.83653 0.35447 0.0
O552 O 0.62687 0.77393 0.41284 0.0
O553 O 0.63249 0.85669 0.37929 0.0
O554 O 0.77996 0.80474 0.36396 0.0
O555 O 0.72478 0.8379 0.38416 0.0
O556 O 0.7084 0.82633 0.42512 0.0
O557 O 0.70544 0.76891 0.40977 0.0
O558 O 0.75726 0.84146 0.35369 0.0
O559 O 0.749 0.7577 0.39027 0.0
C560 C 0.63201 0.75277 0.39671 0.0
C561 C 0.58513 0.86059 0.40508 0.0
C562 C 0.53808 0.88609 0.40599 0.0
C563 C 0.55339 0.86372 0.3944 0.0
C564 C 0.55464 0.90433 0.42842 0.0
C565 C 0.60073 0.87949 0.42734 0.0
C566 C 0.58566 0.90113 0.43887 0.0
C567 C 0.66734 0.81035 0.33742 0.0
C568 C 0.60182 0.83726 0.3936 0.0
C569 C 0.73467 0.96353 0.46183 0.0
C570 C 0.74652 0.98592 0.44036 0.0
C571 C 0.7505 0.86194 0.36939 0.0
C572 C 0.80636 0.76244 0.37125 0.0
C573 C 0.84799 0.7822 0.37523 0.0
C574 C 0.87105 0.76561 0.36674 0.0
C575 C 0.85147 0.72866 0.35461 0.0
C576 C 0.78776 0.72589 0.35892 0.0
C577 C 0.81025 0.70907 0.35077 0.0
C578 C 0.71213 0.79408 0.42763 0.0
C579 C 0.78289 0.78081 0.37936 0.0
H580 H 0.54101 0.84918 0.37723 0.0
H581 H 0.54311 0.92068 0.43825 0.0
H582 H 0.62427 0.87713 0.43614 0.0
H583 H 0.59788 0.91523 0.45616 0.0
H584 H 0.86244 0.81082 0.38438 0.0
H585 H 0.86804 0.71468 0.34816 0.0
H586 H 0.75589 0.71043 0.35556 0.0
H587 H 0.79568 0.68075 0.34134 0.0
Eu588 Eu 0.84248 0.65294 0.90072 0.0
C589 C 0.972 0.66963 0.84767 0.0
C590 C 1.00134 0.64149 0.87443 0.0
C591 C 0.9951 0.62606 0.83144 0.0
C592 C 0.98333 0.66514 0.87074 0.0
C593 C 0.97916 0.65124 0.82764 0.0
C594 C 1.00614 0.62117 0.85479 0.0
C595 C 0.96006 0.68849 0.80122 0.0
N596 N 0.9567 0.69421 0.84453 0.0
C597 C 0.95393 0.70628 0.82158 0.0
C598 C 0.97173 0.66002 0.80428 0.0
Eu599 Eu 0.94329 0.71986 0.88061 0.0
N600 N 0.9777 0.6846 0.88951 0.0
C601 C 0.99314 0.68478 0.91185 0.0
C602 C 1.01455 0.6394 0.8977 0.0
C603 C 1.0111 0.66176 0.91638 0.0
H604 H 0.94717 0.7299 0.81873 0.0
H605 H 1.02253 0.66154 0.93426 0.0
H606 H 1.01932 0.60242 0.85738 0.0
H607 H 0.95636 0.69725 0.78318 0.0
H608 H 0.9926 0.70311 0.9263 0.0
H609 H 0.74463 0.68279 0.8427 0.0
H610 H 0.02844 0.62154 0.90126 0.0
H611 H 0.84453 0.65783 0.96321 0.0
H612 H 0.7835 0.65136 0.85389 0.0
H613 H 0.83427 0.69546 0.99515 0.0
H614 H 1.00019 0.61124 0.81632 0.0
H615 H 0.73538 0.72586 0.87194 0.0
H616 H 0.74688 0.75533 0.91347 0.0
H617 H 0.97686 0.64655 0.78846 0.0
H618 H 0.77281 0.76018 0.95475 0.0
N619 N 0.80086 0.6794 0.8887 0.0
C620 C 0.78196 0.67155 0.86669 0.0
C621 C 0.75343 0.7127 0.87691 0.0
C622 C 0.77025 0.71837 0.90002 0.0
C623 C 0.75877 0.68863 0.86033 0.0
C624 C 0.79358 0.70056 0.90562 0.0
H625 H 0.80544 0.73815 0.98533 0.0
N626 N 0.8285 0.68393 0.93412 0.0
C627 C 0.82781 0.69892 0.97649 0.0
C628 C 0.8084 0.70349 0.92884 0.0
C629 C 0.8348 0.67849 0.95797 0.0
C630 C 0.81137 0.72278 0.9709 0.0
C631 C 0.8 0.72409 0.94702 0.0
O632 O 0.8175 0.60153 0.92522 0.0
O633 O 0.90226 0.65694 0.89447 0.0
O634 O 0.89949 0.71004 0.85036 0.0
O635 O 0.84205 0.65008 0.85926 0.0
O636 O 0.85238 0.61171 0.87694 0.0
O637 O 0.78032 0.60394 0.89621 0.0
O638 O 0.97367 0.77433 0.85896 0.0
O639 O 0.88321 0.71439 0.88676 0.0
O640 O 0.88813 0.6675 0.93213 0.0
O641 O 0.9461 0.7254 0.92072 0.0
O642 O 0.93169 0.76314 0.90203 0.0
O643 O 1.00489 0.76573 0.88877 0.0
C644 C 0.88975 0.62557 0.88154 0.0
C645 C 0.7495 0.54472 0.92251 0.0
C646 C 0.67963 0.49056 0.92095 0.0
C647 C 0.71076 0.52744 0.91217 0.0
C648 C 0.6878 0.47104 0.93966 0.0
C649 C 0.75656 0.5242 0.94115 0.0
C650 C 0.72596 0.48765 0.94956 0.0
C651 C 0.86598 0.67792 0.84375 0.0
C652 C 0.78288 0.58394 0.9144 0.0
C653 C 0.77892 0.74377 0.9411 0.0
C654 C 0.76401 0.74085 0.91764 0.0
C655 C 0.89379 0.74637 0.89834 0.0
C656 C 0.0444 0.81099 0.85781 0.0
C657 C 0.0712 0.85118 0.86357 0.0
C658 C 0.10622 0.87402 0.84972 0.0
C659 C 0.11362 0.85518 0.83006 0.0
C660 C 0.05314 0.79285 0.83866 0.0
C661 C 0.08759 0.81494 0.82486 0.0
C662 C 0.92288 0.70001 0.93723 0.0
C663 C 1.00672 0.78936 0.87138 0.0
H664 H 0.70464 0.54283 0.89784 0.0
H665 H 0.66443 0.44274 0.94667 0.0
H666 H 0.78584 0.53644 0.94933 0.0
H667 H 0.73181 0.47221 0.96396 0.0
H668 H 0.06444 0.86437 0.87887 0.0
H669 H 0.13914 0.87147 0.81828 0.0
H670 H 0.03318 0.76187 0.8342 0.0
H671 H 0.0939 0.80098 0.80979 0.0
Eu672 Eu 0.20077 0.837 0.40142 0.0
C673 C 0.31072 0.96833 0.32457 0.0
C674 C 0.37784 0.99133 0.33896 0.0
C675 C 0.36574 0.99273 0.29581 0.0
C676 C 0.33657 0.9746 0.34342 0.0
C677 C 0.32506 0.97826 0.30058 0.0
C678 C 0.39212 0.99927 0.31499 0.0
C679 C 0.25895 0.96318 0.28837 0.0
N680 N 0.27188 0.95507 0.32996 0.0
C681 C 0.24636 0.95415 0.3125 0.0
C682 C 0.29836 0.97469 0.2823 0.0
Eu683 Eu 0.25133 0.93639 0.37072 0.0
N684 N 0.32176 0.9673 0.36632 0.0
C685 C 0.34712 0.97956 0.3857 0.0
C686 C 0.40365 1.00115 0.35879 0.0
C687 C 0.38828 0.996 0.38227 0.0
H688 H 0.21605 0.94591 0.31704 0.0
H689 H 0.40808 1.00455 0.39775 0.0
H690 H 0.42366 1.0117 0.31117 0.0
H691 H 0.2383 0.96143 0.27451 0.0
H692 H 0.33575 0.97576 0.40395 0.0
H693 H 0.04553 0.75028 0.37183 0.0
H694 H 0.43555 1.014 0.35617 0.0
H695 H 0.23729 0.84754 0.45794 0.0
H696 H 0.1188 0.78753 0.36698 0.0
H697 H 0.21284 0.8367 0.50024 0.0
H698 H 0.3773 1.00014 0.27747 0.0
H699 H 1.01547 0.74307 0.41249 0.0
H700 H 0.02522 0.75467 0.45741 0.0
H701 H 0.30815 0.98198 0.26363 0.0
H702 H 0.07082 0.77852 0.49239 0.0
N703 N 0.13022 0.80222 0.40441 0.0
C704 C 0.10608 0.78461 0.38483 0.0
C705 C 0.04768 0.75946 0.41047 0.0
C706 C 0.07263 0.77575 0.43064 0.0
C707 C 0.06452 0.76339 0.3875 0.0
C708 C 0.11438 0.79683 0.42701 0.0
H709 H 0.14074 0.80852 0.50855 0.0
N710 N 0.17984 0.8274 0.44254 0.0
C711 C 0.19206 0.82934 0.48536 0.0
C712 C 0.13998 0.8101 0.44669 0.0
C713 C 0.20579 0.83538 0.4614 0.0
C714 C 0.15136 0.81354 0.48997 0.0
C715 C 0.12464 0.80291 0.47054 0.0
O716 O 0.22371 0.79752 0.41184 0.0
O717 O 0.25679 0.88379 0.38346 0.0
O718 O 0.24294 0.89175 0.34211 0.0
O719 O 0.19236 0.8322 0.35953 0.0
O720 O 0.26339 0.85788 0.41478 0.0
O721 O 0.17632 0.77698 0.38563 0.0
O722 O 0.2236 0.97361 0.36686 0.0
O723 O 0.19486 0.8873 0.38674 0.0
O724 O 0.2074 0.8865 0.42787 0.0
O725 O 0.26423 0.93859 0.41079 0.0
O726 O 0.18878 0.91541 0.35646 0.0
O727 O 0.27638 0.99439 0.38875 0.0
C728 C 0.28224 0.88284 0.39757 0.0
C729 C 0.17656 0.72817 0.41188 0.0
C730 C 0.15216 0.65586 0.41477 0.0
C731 C 0.17234 0.69247 0.40173 0.0
C732 C 0.1374 0.65631 0.43811 0.0
C733 C 0.16073 0.72678 0.43499 0.0
C734 C 0.14146 0.69125 0.44797 0.0
C735 C 0.21416 0.85406 0.3407 0.0
C736 C 0.19791 0.76719 0.39901 0.0
C737 C 0.08316 0.78396 0.47421 0.0
C738 C 0.05719 0.77036 0.45429 0.0
C739 C 0.16968 0.88821 0.3725 0.0
C740 C 0.266 0.04314 0.36918 0.0
C741 C 0.24558 0.06449 0.37293 0.0
C742 C 0.25922 0.10205 0.36183 0.0
C743 C 0.29401 0.11806 0.34748 0.0
C744 C 0.30034 0.05971 0.35459 0.0
C745 C 0.31434 0.09708 0.34396 0.0
C746 C 0.23852 0.92347 0.42882 0.0
C747 C 0.25042 1.00296 0.37965 0.0
H748 H 0.18432 0.69317 0.38385 0.0
H749 H 0.12304 0.62955 0.44912 0.0
H750 H 0.16376 0.75335 0.4433 0.0
H751 H 0.12986 0.69087 0.46591 0.0
H752 H 0.21861 0.05143 0.38384 0.0
H753 H 0.30561 0.147 0.33894 0.0
H754 H 0.3162 0.04365 0.35132 0.0
H755 H 0.34093 0.10973 0.33277 0.0
Eu756 Eu 0.37395 0.19312 0.89367 0.0
C757 C 0.35895 0.31874 0.82723 0.0
C758 C 0.39763 0.38212 0.84768 0.0
C759 C 0.38976 0.38036 0.80388 0.0
C760 C 0.37476 0.34009 0.84834 0.0
C761 C 0.36569 0.33864 0.80478 0.0
C762 C 0.40572 0.40206 0.8253 0.0
C763 C 0.32219 0.27492 0.78604 0.0
N764 N 0.33559 0.27853 0.82878 0.0
C765 C 0.31633 0.25656 0.80871 0.0
C766 C 0.34731 0.31611 0.78401 0.0
Eu767 Eu 0.32802 0.24944 0.86768 0.0
N768 N 0.36587 0.31995 0.86967 0.0
C769 C 0.37632 0.34019 0.89115 0.0
C770 C 0.41061 0.40289 0.86961 0.0
C771 C 0.39939 0.38183 0.89146 0.0
H772 H 0.29692 0.22472 0.80995 0.0
H773 H 0.40846 0.39764 0.90856 0.0
H774 H 0.42348 0.43431 0.82441 0.0
H775 H 0.30741 0.25727 0.77015 0.0
H776 H 0.36768 0.32434 0.90818 0.0
H777 H 0.31269 0.05079 0.84595 0.0
H778 H 0.4283 0.43517 0.8699 0.0
H779 H 0.39592 0.20755 0.95281 0.0
H780 H 0.35016 0.1239 0.85037 0.0
H781 H 0.37482 0.16968 0.99134 0.0
H782 H 0.39552 0.39617 0.78679 0.0
H783 H 0.27906 1.00798 0.88151 0.0
H784 H 0.26682 1.00257 0.9265 0.0
H785 H 0.35174 0.33027 0.76643 0.0
H786 H 0.28365 0.03529 0.96647 0.0
N787 N 0.33703 0.12292 0.88794 0.0
C788 C 0.33563 0.10572 0.86606 0.0
C789 C 0.29538 0.04013 0.88356 0.0
C790 C 0.29924 0.05781 0.90627 0.0
C791 C 0.31448 0.06419 0.86347 0.0
C792 C 0.32104 0.09982 0.90794 0.0
H793 H 0.32495 0.09757 0.99088 0.0
N794 N 0.35669 0.1579 0.93108 0.0
C795 C 0.36202 0.15481 0.97433 0.0
C796 C 0.33101 0.11805 0.93034 0.0
C797 C 0.37393 0.17613 0.95252 0.0
C798 C 0.33369 0.11418 0.97401 0.0
C799 C 0.31871 0.09502 0.95177 0.0
O800 O 0.43225 0.20692 0.90843 0.0
O801 O 0.38422 0.25284 0.88189 0.0
O802 O 0.37315 0.25323 0.84064 0.0
O803 O 0.376 0.19629 0.85149 0.0
O804 O 0.41215 0.25125 0.91344 0.0
O805 O 0.41525 0.18121 0.87286 0.0
O806 O 0.26454 0.22376 0.85924 0.0
O807 O 0.31857 0.18997 0.87957 0.0
O808 O 0.33222 0.19653 0.9223 0.0
O809 O 0.32861 0.25179 0.9086 0.0
O810 O 0.29075 0.19096 0.84774 0.0
O811 O 0.29156 0.26956 0.88665 0.0
C812 C 0.40753 0.27432 0.89859 0.0
C813 C 0.45415 0.16222 0.89632 0.0
C814 C 0.50452 0.14144 0.89852 0.0
C815 C 0.49357 0.17009 0.89203 0.0
C816 C 0.47557 0.10491 0.90859 0.0
C817 C 0.42633 0.12568 0.90674 0.0
C818 C 0.4368 0.09713 0.91261 0.0
C819 C 0.381 0.22448 0.83553 0.0
C820 C 0.44145 0.19154 0.89021 0.0
C821 C 0.29386 0.05346 0.95021 0.0
C822 C 0.28424 0.03483 0.92746 0.0
C823 C 0.29578 0.16846 0.86279 0.0
C824 C 0.23587 0.26431 0.86535 0.0
C825 C 0.1941 0.24416 0.86863 0.0
C826 C 0.17112 0.26005 0.85909 0.0
C827 C 0.19079 0.2967 0.84661 0.0
C828 C 0.25472 0.30064 0.85276 0.0
C829 C 0.23222 0.31678 0.84354 0.0
C830 C 0.32238 0.22472 0.92521 0.0
C831 C 0.25918 0.24643 0.87442 0.0
H832 H 0.51563 0.19845 0.88435 0.0
H833 H 0.48319 0.08243 0.91362 0.0
H834 H 0.39646 0.11919 0.9105 0.0
H835 H 0.41485 0.06902 0.92057 0.0
H836 H 0.1795 0.21575 0.87805 0.0
H837 H 0.17412 0.31 0.8393 0.0
H838 H 0.28675 0.31641 0.84998 0.0
H839 H 0.24693 0.34489 0.83387 0.0
Eu840 Eu 0.19712 0.36303 0.39683 0.0
C841 C 0.05323 0.34425 0.33117 0.0
C842 C 0.02944 0.38482 0.35023 0.0
C843 C 1.02176 0.37328 0.30674 0.0
C844 C 0.04847 0.36181 0.3517 0.0
C845 C 0.03937 0.34921 0.30848 0.0
C846 C 1.01682 0.39109 0.32758 0.0
C847 C 0.05913 0.3043 0.29122 0.0
N848 N 0.07013 0.32104 0.33354 0.0
C849 C 0.07238 0.30031 0.31409 0.0
C850 C 0.04289 0.32918 0.28833 0.0
Eu851 Eu 0.09375 0.31693 0.37255 0.0
N852 N 0.06057 0.35472 0.37329 0.0
C853 C 0.05188 0.36746 0.39435 0.0
C854 C 1.02265 0.3999 0.37165 0.0
C855 C 0.0334 0.39067 0.39383 0.0
H856 H 0.08513 0.28122 0.31595 0.0
H857 H 0.02748 0.40141 0.41057 0.0
H858 H 1.00243 0.40891 0.32608 0.0
H859 H 0.06161 0.28831 0.27581 0.0
H860 H 0.05965 0.36056 0.41172 0.0
H861 H 0.27334 0.29362 0.3523 0.0
H862 H 1.0082 0.41777 0.3713 0.0
H863 H 0.20249 0.3882 0.45544 0.0
H864 H 0.23844 0.33214 0.35477 0.0
H865 H 0.22048 0.37091 0.4949 0.0
H866 H 1.01118 0.37769 0.28945 0.0
H867 H 0.2851 0.26523 0.38951 0.0
H868 H 0.28136 0.25936 0.43495 0.0
H869 H 0.03262 0.33221 0.2706 0.0
H870 H 0.2669 0.2805 0.47395 0.0
N871 N 0.22888 0.32443 0.39288 0.0
C872 C 0.24304 0.31975 0.37114 0.0
C873 C 0.26957 0.282 0.3907 0.0
C874 C 0.25744 0.28924 0.41314 0.0
C875 C 0.26306 0.29806 0.36967 0.0
C876 C 0.23742 0.31136 0.41368 0.0
H877 H 0.24508 0.32288 0.49647 0.0
N878 N 0.21506 0.34895 0.43519 0.0
C879 C 0.22311 0.35729 0.47837 0.0
C880 C 0.23008 0.3239 0.43556 0.0
C881 C 0.21308 0.36709 0.45605 0.0
C882 C 0.23682 0.33004 0.47919 0.0
C883 C 0.24135 0.31368 0.45758 0.0
O884 O 0.24597 0.42005 0.41047 0.0
O885 O 0.14837 0.37384 0.38421 0.0
O886 O 0.13487 0.35828 0.34381 0.0
O887 O 0.19441 0.36053 0.35479 0.0
O888 O 0.18077 0.40649 0.41384 0.0
O889 O 0.24792 0.4021 0.37377 0.0
O890 O 0.05197 0.25386 0.36454 0.0
O891 O 0.14363 0.30696 0.38467 0.0
O892 O 0.15179 0.32379 0.42616 0.0
O893 O 0.09595 0.32636 0.413 0.0
O894 O 0.11236 0.27621 0.35421 0.0
O895 O 0.0431 0.28109 0.3964 0.0
C896 C 0.15243 0.40052 0.39913 0.0
C897 C 0.31 0.44038 0.39341 0.0
C898 C 0.38116 0.48981 0.38929 0.0
C899 C 0.34061 0.47988 0.38855 0.0
C900 C 0.39059 0.4601 0.395 0.0
C901 C 0.32063 0.41184 0.39984 0.0
C902 C 0.3605 0.42149 0.40044 0.0
C903 C 0.1711 0.36488 0.33863 0.0
C904 C 0.26722 0.42827 0.39069 0.0
C905 C 0.25841 0.28901 0.45722 0.0
C906 C 0.26658 0.27692 0.43501 0.0
C907 C 0.14045 0.28181 0.36891 0.0
C908 C 0.98595 0.22439 0.38021 0.0
C909 C 0.96739 0.18237 0.38058 0.0
C910 C 0.92544 0.15862 0.37973 0.0
C911 C 0.90238 0.17737 0.37814 0.0
C912 C 0.96235 0.24244 0.37816 0.0
C913 C 0.92077 0.21896 0.37712 0.0
C914 C 0.11582 0.31939 0.42986 0.0
C915 C 0.0296 0.24873 0.3834 0.0
H916 H 0.333 0.50253 0.38397 0.0
H917 H 0.42144 0.4671 0.39591 0.0
H918 H 0.2982 0.38195 0.4043 0.0
H919 H 0.3681 0.39895 0.40524 0.0
H920 H 0.98547 0.16823 0.38213 0.0
H921 H 0.87008 0.15975 0.37734 0.0
H922 H 0.97602 0.27465 0.37768 0.0
H923 H 0.9027 0.23306 0.37569 0.0
Eu924 Eu 0.8513 0.194 0.89877 0.0
C925 C 0.72903 0.0649 0.82622 0.0
C926 C 0.66445 0.04969 0.84207 0.0
C927 C 0.67293 0.04478 0.79875 0.0
C928 C 0.70527 0.06253 0.84563 0.0
C929 C 0.71281 0.05484 0.80265 0.0
C930 C 0.64877 0.04219 0.81844 0.0
C931 C 0.7747 0.05986 0.78924 0.0
N932 N 0.76713 0.07382 0.83072 0.0
C933 C 0.78922 0.0692 0.81297 0.0
C934 C 0.7366 0.05344 0.78394 0.0
Eu935 Eu 0.79059 0.09283 0.87097 0.0
N936 N 0.72115 0.06918 0.86824 0.0
C937 C 0.69696 0.05923 0.88816 0.0
C938 C 0.6402 0.04284 0.86244 0.0
C939 C 0.65635 0.04672 0.8856 0.0
H940 H 0.8183 0.07317 0.81695 0.0
H941 H 0.6376 0.04018 0.90148 0.0
H942 H 0.61762 0.03282 0.81531 0.0
H943 H 0.79279 0.05737 0.7751 0.0
H944 H 0.70908 0.06197 0.90614 0.0
H945 H 1.00174 0.27404 0.86055 0.0
H946 H 0.60871 0.03297 0.86049 0.0
H947 H 0.82505 0.19025 0.95709 0.0
H948 H 0.92821 0.23994 0.86003 0.0
H949 H 0.85569 0.20131 0.99778 0.0
H950 H 0.66008 0.03744 0.78073 0.0
H951 H 0.03739 0.27952 0.89887 0.0
H952 H 0.0342 0.26856 0.94393 0.0
H953 H 0.72525 0.04583 0.76559 0.0
H954 H 0.99425 0.2484 0.98144 0.0
N955 N 0.92192 0.22517 0.89758 0.0
C956 C 0.94327 0.24198 0.87689 0.0
C957 C 1.00504 0.26443 0.89876 0.0
C958 C 0.98311 0.24914 0.92017 0.0
C959 C 0.98503 0.2615 0.87711 0.0
C960 C 0.94103 0.22987 0.91903 0.0
H961 H 0.92774 0.2241 0.00174 0.0
N962 N 0.87881 0.20481 0.93836 0.0
C963 C 0.87372 0.20619 0.98172 0.0
C964 C 0.91867 0.21902 0.94011 0.0
C965 C 0.8565 0.20006 0.95868 0.0
C966 C 0.91435 0.21886 0.98388 0.0
C967 C 0.93758 0.2264 0.96293 0.0
O968 O 0.83708 0.23861 0.91274 0.0
O969 O 0.79138 0.14893 0.88379 0.0
O970 O 0.80353 0.13601 0.84044 0.0
O971 O 0.85504 0.19644 0.85658 0.0
O972 O 0.79209 0.17914 0.91516 0.0
O973 O 0.87199 0.25123 0.88013 0.0
O974 O 0.81702 0.0545 0.87601 0.0
O975 O 0.8503 0.14026 0.88386 0.0
O976 O 0.84319 0.14386 0.9254 0.0
O977 O 0.78195 0.09502 0.91121 0.0
O978 O 0.85011 0.1069 0.85432 0.0
O979 O 0.75447 0.03035 0.88241 0.0
C980 C 0.76957 0.15393 0.89901 0.0
C981 C 0.88572 0.30629 0.90548 0.0
C982 C 0.90707 0.37763 0.90978 0.0
C983 C 0.88035 0.33924 0.90021 0.0
C984 C 0.93938 0.38231 0.92401 0.0
C985 C 0.91799 0.31233 0.92001 0.0
C986 C 0.94469 0.34999 0.92904 0.0
C987 C 0.83263 0.17352 0.83824 0.0
C988 C 0.85783 0.26545 0.89637 0.0
C989 C 0.97921 0.24287 0.96409 0.0
C990 C 1.00196 0.25433 0.94273 0.0
C991 C 0.87249 0.13551 0.86893 0.0
C992 C 0.77555 0.98653 0.86701 0.0
C993 C 0.78998 0.96149 0.87532 0.0
C994 C 0.78431 0.92826 0.86139 0.0
C995 C 0.76478 0.92155 0.83882 0.0
C996 C 0.75497 0.97793 0.84492 0.0
C997 C 0.74998 0.94589 0.83085 0.0
C998 C 0.81029 0.10826 0.9277 0.0
C999 C 0.78347 0.02252 0.88079 0.0
H1000 H 0.85526 0.33487 0.8892 0.0
H1001 H 0.96092 0.41126 0.93119 0.0
H1002 H 0.92255 0.28784 0.92449 0.0
H1003 H 0.96963 0.35413 0.9401 0.0
H1004 H 0.80521 0.96781 0.89263 0.0
H1005 H 0.76112 0.8976 0.82701 0.0
H1006 H 0.74298 0.99616 0.83839 0.0
H1007 H 0.73473 0.94 0.81359 0.0
H1008 H 0.17297 0.91065 0.1718 0.0
H1009 H 0.22935 0.11254 0.09938 0.0
H1010 H 0.15639 0.91114 0.09458 0.0
H1011 H 0.25031 0.10552 0.17557 0.0
H1012 H 0.19894 0.03936 0.09657 0.0
H1013 H 0.19777 0.98215 0.17293 0.0
C1014 C 0.17506 0.92609 0.15498 0.0
C1015 C 0.16428 0.90532 0.13294 0.0
C1016 C 0.21005 0.05392 0.11389 0.0
C1017 C 0.19166 0.98762 0.13408 0.0
C1018 C 0.2272 0.09562 0.11553 0.0
C1019 C 0.24278 0.11531 0.13771 0.0
C1020 C 0.2081 0.03179 0.13464 0.0
C1021 C 0.23934 0.09186 0.15801 0.0
C1022 C 0.18905 0.96698 0.15562 0.0
C1023 C 0.166 0.92648 0.1118 0.0
N1024 N 0.22256 0.05166 0.15596 0.0
N1025 N 0.17974 0.96662 0.11284 0.0
H1026 H 0.25093 0.15221 0.59044 0.0
H1027 H 0.19356 0.30013 0.648 0.0
H1028 H 0.27297 0.18108 0.66641 0.0
H1029 H 0.09386 0.19207 0.61962 0.0
H1030 H 0.23551 0.27002 0.64395 0.0
H1031 H 0.20428 0.17873 0.59031 0.0
C1032 C 0.24622 0.16446 0.60697 0.0
C1033 C 0.26663 0.16563 0.62833 0.0
C1034 C 0.20451 0.25316 0.6384 0.0
C1035 C 0.21373 0.19551 0.62828 0.0
C1036 C 0.18017 0.27007 0.64096 0.0
C1037 C 0.13927 0.24836 0.63495 0.0
C1038 C 0.18869 0.21469 0.6289 0.0
C1039 C 0.12494 0.21017 0.62464 0.0
C1040 C 0.21939 0.17908 0.60693 0.0
C1041 C 0.25847 0.18047 0.64947 0.0
N1042 N 0.14959 0.19449 0.62198 0.0
N1043 N 0.23337 0.19559 0.64881 0.0
H1044 H 0.92723 0.15179 0.17191 0.0
H1045 H 0.1282 0.24988 0.09206 0.0
H1046 H 0.92723 0.12015 0.0969 0.0
H1047 H 0.12307 0.26647 0.16899 0.0
H1048 H 0.05519 0.20377 0.09208 0.0
H1049 H 0.99934 0.19498 0.17006 0.0
C1050 C 0.94247 0.15398 0.15498 0.0
C1051 C 0.92099 0.13255 0.13448 0.0
C1052 C 0.07009 0.21765 0.10891 0.0
C1053 C 1.00436 0.18233 0.13216 0.0
C1054 C 0.11156 0.24422 0.10883 0.0
C1055 C 0.13127 0.26283 0.13045 0.0
C1056 C 0.04851 0.20965 0.13079 0.0
C1057 C 0.1088 0.2534 0.15186 0.0
C1058 C 0.98381 0.17863 0.15393 0.0
C1059 C 0.94261 0.13608 0.11316 0.0
N1060 N 0.06877 0.22784 0.15145 0.0
N1061 N 0.98311 0.16075 0.11248 0.0
H1062 H 0.86387 0.93962 0.60118 0.0
H1063 H 0.87578 0.12662 0.66953 0.0
H1064 H 0.81629 0.93529 0.67258 0.0
H1065 H 0.89502 0.12903 0.59241 0.0
H1066 H 0.85461 0.05577 0.67012 0.0
H1067 H 0.87388 1.00739 0.59587 0.0
C1068 C 0.85473 0.95259 0.61547 0.0
C1069 C 0.83975 0.93219 0.63748 0.0
C1070 C 0.86294 0.07145 0.65294 0.0
C1071 C 0.85176 1.00939 0.63181 0.0
C1072 C 0.87504 0.11189 0.65265 0.0
C1073 C 0.88578 0.13311 0.6308 0.0
C1074 C 0.86271 0.05212 0.63129 0.0
C1075 C 0.88564 0.11314 0.60949 0.0
C1076 C 0.86068 0.99127 0.61252 0.0
C1077 C 0.82851 0.95028 0.65548 0.0
N1078 N 0.87432 0.07361 0.61025 0.0
N1079 N 0.83519 0.98789 0.65237 0.0
H1080 H 0.92221 0.80475 0.09863 0.0
H1081 H 0.77777 0.86446 0.16965 0.0
H1082 H 0.8889 0.77893 0.17395 0.0
H1083 H 0.79382 0.87741 0.09218 0.0
H1084 H 0.82314 0.83779 0.17131 0.0
H1085 H 0.8803 0.83613 0.09558 0.0
C1086 C 0.9064 0.80598 0.11455 0.0
C1087 C 0.90883 0.78883 0.13655 0.0
C1088 C 0.81674 0.84617 0.15385 0.0
C1089 C 0.86098 0.82467 0.1332 0.0
C1090 C 0.79072 0.86131 0.15292 0.0
C1091 C 0.781 0.87179 0.13067 0.0
C1092 C 0.83409 0.84211 0.13239 0.0
C1093 C 0.79956 0.86832 0.1096 0.0
C1094 C 0.88232 0.82367 0.11276 0.0
C1095 C 0.88752 0.79114 0.15654 0.0
N1096 N 0.82514 0.85359 0.11094 0.0
N1097 N 0.86464 0.80859 0.15437 0.0
H1098 H 0.92783 0.74616 0.66499 0.0
H1099 H 0.12526 0.92255 0.60266 0.0
H1100 H 0.92516 0.80476 0.59921 0.0
H1101 H 0.12302 0.87539 0.67401 0.0
H1102 H 0.05276 0.87824 0.59992 0.0
H1103 H 1.00031 0.79116 0.66738 0.0
C1104 C 0.94278 0.76827 0.65089 0.0
C1105 C 0.92113 0.77082 0.63131 0.0
C1106 C 0.06819 0.8777 0.61619 0.0
C1107 C 1.00357 0.82337 0.63429 0.0
C1108 C 0.1096 0.90318 0.61783 0.0
C1109 C 0.13057 0.90268 0.63856 0.0
C1110 C 0.04747 0.85146 0.63539 0.0
C1111 C 0.10848 0.87642 0.65747 0.0
C1112 C 0.98403 0.79411 0.6523 0.0
C1113 C 0.94135 0.80089 0.614 0.0
N1114 N 0.06835 0.85191 0.6554 0.0
N1115 N 0.98152 0.8259 0.61579 0.0
H1116 H 0.12454 0.87844 0.41345 0.0
H1117 H 0.91629 0.8058 0.40689 0.0
H1118 H 0.11595 0.85727 0.33643 0.0
H1119 H 0.92725 0.77378 0.3335 0.0
H1120 H 0.9888 0.83705 0.41156 0.0
H1121 H 0.05194 0.85125 0.41508 0.0
C1122 C 0.10713 0.86757 0.39697 0.0
C1123 C 0.12586 0.86879 0.3749 0.0
C1124 C 0.97552 0.82293 0.39449 0.0
C1125 C 0.04305 0.83919 0.37622 0.0
C1126 C 0.93396 0.8054 0.39174 0.0
C1127 C 0.91541 0.78663 0.36985 0.0
C1128 C 0.99879 0.82184 0.37512 0.0
C1129 C 0.93992 0.78707 0.35088 0.0
C1130 C 0.06567 0.85259 0.39777 0.0
C1131 C 0.10244 0.85591 0.35389 0.0
N1132 N 0.98004 0.80426 0.35398 0.0
N1133 N 0.06241 0.84138 0.35511 0.0
H1134 H 0.09005 0.92988 0.8709 0.0
H1135 H 0.27591 0.119 0.82444 0.0
H1136 H 0.18764 0.91844 0.84124 0.0
H1137 H 0.25208 0.11994 0.90076 0.0
H1138 H 0.22922 0.04669 0.82359 0.0
H1139 H 0.1364 1.00115 0.87705 0.0
C1140 C 0.12103 0.94178 0.86588 0.0
C1141 C 0.13436 0.91738 0.85512 0.0
C1142 C 0.23432 0.06283 0.84049 0.0
C1143 C 0.18691 0.99953 0.86134 0.0
C1144 C 0.26085 0.10384 0.84101 0.0
C1145 C 0.26882 0.12489 0.86289 0.0
C1146 C 0.21433 0.0431 0.86176 0.0
C1147 C 0.24765 0.10428 0.88375 0.0
C1148 C 0.14733 0.98264 0.86932 0.0
C1149 C 0.17509 0.93562 0.84871 0.0
N1150 N 0.22109 0.0643 0.8827 0.0
N1151 N 0.1996 0.97558 0.85148 0.0
H1152 H 0.16256 0.25562 0.33003 0.0
H1153 H 0.22835 0.11779 0.40309 0.0
H1154 H 0.15294 0.24391 0.4078 0.0
H1155 H 0.23979 0.13756 0.32579 0.0
H1156 H 0.19715 0.15988 0.40596 0.0
H1157 H 0.18719 0.20862 0.32877 0.0
C1158 C 0.16598 0.24324 0.3469 0.0
C1159 C 0.15724 0.2548 0.3691 0.0
C1160 C 0.20632 0.15476 0.38839 0.0
C1161 C 0.18465 0.19988 0.36789 0.0
C1162 C 0.22394 0.1306 0.38672 0.0
C1163 C 0.23711 0.12444 0.36418 0.0
C1164 C 0.20148 0.17248 0.36731 0.0
C1165 C 0.23078 0.14195 0.3436 0.0
C1166 C 0.17994 0.21626 0.34621 0.0
C1167 C 0.16087 0.23686 0.39039 0.0
N1168 N 0.21362 0.16508 0.34569 0.0
N1169 N 0.17461 0.21045 0.38931 0.0
H1170 H 0.12449 0.22273 0.89933 0.0
H1171 H 0.91991 0.16426 0.8297 0.0
H1172 H 0.11642 0.24799 0.82398 0.0
H1173 H 0.92372 0.14582 0.90647 0.0
H1174 H 0.99197 0.19113 0.82738 0.0
H1175 H 0.0513 0.19066 0.90253 0.0
C1176 C 0.10734 0.22125 0.88343 0.0
C1177 C 0.1267 0.23842 0.86139 0.0
C1178 C 0.97733 0.18149 0.84482 0.0
C1179 C 0.04312 0.20177 0.86491 0.0
C1180 C 0.93621 0.16636 0.84614 0.0
C1181 C 0.91635 0.1545 0.86845 0.0
C1182 C 0.99887 0.18405 0.86594 0.0
C1183 C 0.93842 0.15625 0.8891 0.0
C1184 C 0.06562 0.20312 0.8853 0.0
C1185 C 0.10296 0.23581 0.84143 0.0
N1186 N 0.97866 0.17103 0.88739 0.0
N1187 N 0.06264 0.21797 0.84369 0.0
H1188 H 0.93272 0.10927 0.34722 0.0
H1189 H 0.77909 0.90398 0.41205 0.0
H1190 H 0.87155 0.10751 0.41301 0.0
H1191 H 0.78837 0.9172 0.33432 0.0
H1192 H 0.82608 0.97623 0.41617 0.0
H1193 H 0.89311 0.03593 0.34581 0.0
C1194 C 0.91143 0.09334 0.36156 0.0
C1195 C 0.90522 0.11432 0.38021 0.0
C1196 C 0.81775 0.96318 0.39825 0.0
C1197 C 0.86029 0.03076 0.37888 0.0
C1198 C 0.79076 0.92218 0.3959 0.0
C1199 C 0.77853 0.90512 0.3728 0.0
C1200 C 0.83353 0.98683 0.37734 0.0
C1201 C 0.79614 0.92951 0.35244 0.0
C1202 C 0.88874 0.05164 0.36069 0.0
C1203 C 0.87704 0.09233 0.39829 0.0
N1204 N 0.82255 0.96913 0.35516 0.0
N1205 N 0.85565 0.05172 0.39723 0.0
H1206 H 0.8967 0.80289 0.92918 0.0
H1207 H 0.74988 0.84746 0.85323 0.0
H1208 H 0.85347 0.7508 0.85878 0.0
H1209 H 0.85098 0.94473 0.88921 0.0
H1210 H 0.77665 0.80397 0.86292 0.0
H1211 H 0.87004 0.84824 0.92212 0.0
C1212 C 0.88121 0.80075 0.91239 0.0
C1213 C 0.87594 0.77214 0.8949 0.0
C1214 C 0.79286 0.83484 0.86871 0.0
C1215 C 0.84586 0.82374 0.88671 0.0
C1216 C 0.77782 0.85998 0.86304 0.0
C1217 C 0.7986 0.90053 0.86976 0.0
C1218 C 0.82848 0.84968 0.88181 0.0
C1219 C 0.83374 0.91391 0.88355 0.0
C1220 C 0.86627 0.82666 0.90835 0.0
C1221 C 0.85679 0.77134 0.87312 0.0
N1222 N 0.84759 0.88856 0.88911 0.0
N1223 N 0.84198 0.79636 0.86977 0.0
H1224 H 0.11871 0.69237 0.07294 0.0
H1225 H 0.21085 0.567 0.11569 0.0
H1226 H 0.17295 0.72003 0.14369 0.0
H1227 H 0.09113 0.50793 0.08667 0.0
H1228 H 0.20388 0.62565 0.12486 0.0
H1229 H 0.11334 0.62663 0.07508 0.0
C1230 C 0.12828 0.684 0.08927 0.0
C1231 C 0.14484 0.71098 0.10853 0.0
C1232 C 0.17901 0.59945 0.11686 0.0
C1233 C 0.14177 0.63704 0.11033 0.0
C1234 C 0.18289 0.56591 0.11167 0.0
C1235 C 0.15192 0.53259 0.0998 0.0
C1236 C 0.14424 0.59985 0.10977 0.0
C1237 C 0.11643 0.53326 0.09501 0.0
C1238 C 0.12559 0.64668 0.0904 0.0
C1239 C 0.15866 0.69941 0.12884 0.0
N1240 N 0.11395 0.56651 0.09946 0.0
N1241 N 0.15765 0.66357 0.12902 0.0
H1242 H 0.62876 0.15863 0.63712 0.0
H1243 H 0.43779 0.12823 0.56124 0.0
H1244 H 0.61072 0.13466 0.56047 0.0
H1245 H 0.44876 0.15396 0.63777 0.0
H1246 H 0.5 0.12683 0.56233 0.0
H1247 H 0.56405 0.15721 0.63918 0.0
C1248 C 0.61158 0.15383 0.62069 0.0
C1249 C 0.62513 0.14677 0.59857 0.0
C1250 C 0.48889 0.13239 0.57905 0.0
C1251 C 0.55097 0.14413 0.60084 0.0
C1252 C 0.45304 0.13276 0.57844 0.0
C1253 C 0.43788 0.14081 0.59944 0.0
C1254 C 0.51067 0.14092 0.60079 0.0
C1255 C 0.45916 0.14703 0.62123 0.0
C1256 C 0.57448 0.15253 0.62192 0.0
C1257 C 0.60142 0.14013 0.57791 0.0
N1258 N 0.49477 0.14735 0.62132 0.0
N1259 N 0.56572 0.13882 0.57959 0.0
H1260 H 0.53714 0.58189 0.09179 0.0
H1261 H 0.31722 0.45008 0.1436 0.0
H1262 H 0.47301 0.6416 0.11357 0.0
H1263 H 0.35313 0.42706 0.07428 0.0
H1264 H 0.38188 0.51325 0.14623 0.0
H1265 H 0.4774 0.51767 0.09967 0.0
C1266 C 0.51068 0.58166 0.09854 0.0
C1267 C 0.51 0.61751 0.10131 0.0
C1268 C 0.3758 0.49372 0.1308 0.0
C1269 C 0.44166 0.54346 0.11123 0.0
C1270 C 0.33934 0.45751 0.12945 0.0
C1271 C 0.33039 0.43284 0.10897 0.0
C1272 C 0.40366 0.50455 0.11182 0.0
C1273 C 0.35927 0.44475 0.09061 0.0
C1274 C 0.47668 0.54488 0.10314 0.0
C1275 C 0.475 0.61491 0.11097 0.0
N1276 N 0.39466 0.47943 0.09256 0.0
N1277 N 0.44199 0.57846 0.11534 0.0
H1278 H 0.90813 0.49902 0.54875 0.0
H1279 H 0.89173 0.32568 0.63713 0.0
H1280 H 0.88796 0.50006 0.62551 0.0
H1281 H 0.90636 0.32862 0.55954 0.0
H1282 H 0.89476 0.39102 0.63494 0.0
H1283 H 0.90897 0.43679 0.55353 0.0
C1284 C 0.90315 0.4856 0.5666 0.0
C1285 C 0.89741 0.50437 0.58667 0.0
C1286 C 0.89787 0.37756 0.61847 0.0
C1287 C 0.8995 0.43322 0.59261 0.0
C1288 C 0.89671 0.34061 0.61978 0.0
C1289 C 0.89928 0.32205 0.59848 0.0
C1290 C 0.90136 0.39569 0.5957 0.0
C1291 C 0.90461 0.34207 0.5764 0.0
C1292 C 0.90401 0.4502 0.56943 0.0
C1293 C 0.89181 0.48609 0.60952 0.0
N1294 N 0.90531 0.37748 0.57559 0.0
N1295 N 0.89315 0.45155 0.61191 0.0
H1296 H 0.6112 0.89734 0.141 0.0
H1297 H 0.40501 0.84656 0.07825 0.0
H1298 H 0.59158 0.88449 0.06373 0.0
H1299 H 0.44532 0.92141 0.1417 0.0
H1300 H 0.46857 0.84652 0.07742 0.0
H1301 H 0.54733 0.89672 0.14573 0.0
C1302 C 0.59398 0.89523 0.12503 0.0
C1303 C 0.60705 0.89149 0.10187 0.0
C1304 C 0.46326 0.86247 0.09176 0.0
C1305 C 0.53316 0.88836 0.10731 0.0
C1306 C 0.4268 0.862 0.09241 0.0
C1307 C 0.41985 0.88373 0.11016 0.0
C1308 C 0.49285 0.88442 0.10917 0.0
C1309 C 0.44953 0.90405 0.12781 0.0
C1310 C 0.55735 0.89439 0.12777 0.0
C1311 C 0.58282 0.88766 0.0819 0.0
N1312 N 0.48477 0.90394 0.1269 0.0
N1313 N 0.54701 0.88569 0.08509 0.0
H1314 H 0.72878 0.60375 0.57857 0.0
H1315 H 0.54448 0.40347 0.63353 0.0
H1316 H 0.71632 0.57603 0.65484 0.0
H1317 H 0.55788 0.43619 0.55788 0.0
H1318 H 0.60718 0.46566 0.64217 0.0
H1319 H 0.66469 0.54323 0.57115 0.0
C1320 C 0.71184 0.58544 0.59384 0.0
C1321 C 0.72707 0.59552 0.61744 0.0
C1322 C 0.59638 0.45913 0.62368 0.0
C1323 C 0.65456 0.5249 0.60904 0.0
C1324 C 0.5608 0.42344 0.61872 0.0
C1325 C 0.54566 0.41468 0.59497 0.0
C1326 C 0.61705 0.48614 0.60473 0.0
C1327 C 0.56801 0.4419 0.57652 0.0
C1328 C 0.67551 0.55054 0.5896 0.0
C1329 C 0.70496 0.56971 0.63645 0.0
N1330 N 0.60229 0.47625 0.58179 0.0
N1331 N 0.66984 0.53557 0.63187 0.0
H1332 H 0.31174 0.86863 0.35543 0.0
H1333 H 0.53134 0.95322 0.40517 0.0
H1334 H 0.3452 0.91587 0.42775 0.0
H1335 H 0.46762 0.82927 0.38405 0.0
H1336 H 0.471 0.95711 0.39788 0.0
H1337 H 0.3769 0.87113 0.35123 0.0
C1338 C 0.33333 0.88083 0.37002 0.0
C1339 C 0.32362 0.89291 0.3918 0.0
C1340 C 0.47059 0.92935 0.39433 0.0
C1341 C 0.39729 0.89577 0.38713 0.0
C1342 C 0.50489 0.92691 0.39861 0.0
C1343 C 0.50444 0.8905 0.39589 0.0
C1344 C 0.43556 0.89551 0.38665 0.0
C1345 C 0.46941 0.85787 0.38656 0.0
C1346 C 0.37007 0.88172 0.36773 0.0
C1347 C 0.35189 0.90696 0.41055 0.0
N1348 N 0.4361 0.86096 0.38257 0.0
N1349 N 0.38751 0.90839 0.40771 0.0
H1350 H 0.64957 0.45477 0.87679 0.0
H1351 H 0.43372 0.32903 0.93418 0.0
H1352 H 0.61462 0.48125 0.94536 0.0
H1353 H 0.45669 0.31355 0.85968 0.0
H1354 H 0.49753 0.39108 0.93579 0.0
H1355 H 0.57852 0.40948 0.86716 0.0
C1356 C 0.62685 0.45204 0.88943 0.0
C1357 C 0.63786 0.47182 0.91187 0.0
C1358 C 0.48854 0.37481 0.91884 0.0
C1359 C 0.55682 0.41954 0.90132 0.0
C1360 C 0.45186 0.33947 0.9179 0.0
C1361 C 0.4397 0.31647 0.89671 0.0
C1362 C 0.51437 0.3867 0.89871 0.0
C1363 C 0.46471 0.33086 0.87626 0.0
C1364 C 0.58633 0.42601 0.88403 0.0
C1365 C 0.60736 0.46665 0.92784 0.0
N1366 N 0.50131 0.36467 0.8779 0.0
N1367 N 0.56846 0.44078 0.9224 0.0
H1368 H 0.08629 0.58134 0.41973 0.0
H1369 H 0.16239 0.44598 0.35843 0.0
H1370 H 0.2042 0.6403 0.38793 0.0
H1371 H 0.12261 0.42946 0.43271 0.0
H1372 H 0.16021 0.50892 0.35722 0.0
H1373 H 0.08144 0.51694 0.41202 0.0
C1374 C 0.11115 0.58093 0.41091 0.0
C1375 C 0.14632 0.6168 0.40521 0.0
C1376 C 0.15115 0.4909 0.37354 0.0
C1377 C 0.13985 0.54227 0.3954 0.0
C1378 C 0.15178 0.4548 0.37414 0.0
C1379 C 0.14171 0.43203 0.39556 0.0
C1380 C 0.13933 0.50351 0.39429 0.0
C1381 C 0.12982 0.44569 0.41573 0.0
C1382 C 0.10809 0.54399 0.4064 0.0
C1383 C 0.17664 0.6137 0.39286 0.0
N1384 N 0.12854 0.48018 0.41454 0.0
N1385 N 0.1729 0.57709 0.38857 0.0
H1386 H 0.71672 0.13535 0.93486 0.0
H1387 H 0.55169 0.15599 0.85771 0.0
H1388 H 0.72936 0.15589 0.85771 0.0
H1389 H 0.55083 0.14198 0.93528 0.0
H1390 H 0.6157 0.156 0.85577 0.0
H1391 H 0.65332 0.13415 0.9337 0.0
C1392 C 0.7056 0.13892 0.91753 0.0
C1393 C 0.72796 0.14519 0.89635 0.0
C1394 C 0.6016 0.15331 0.87319 0.0
C1395 C 0.65555 0.14543 0.89485 0.0
C1396 C 0.56541 0.15376 0.87432 0.0
C1397 C 0.54614 0.14909 0.89672 0.0
C1398 C 0.61828 0.14808 0.89463 0.0
C1399 C 0.56471 0.14565 0.91767 0.0
C1400 C 0.66949 0.13861 0.91686 0.0
C1401 C 0.71254 0.15028 0.87439 0.0
N1402 N 0.59942 0.14504 0.91608 0.0
N1403 N 0.67725 0.15054 0.8742 0.0
H1404 H 0.39948 0.55476 0.41714 0.0
H1405 H 0.6032 0.71083 0.35348 0.0
H1406 H 0.44003 0.51776 0.35475 0.0
H1407 H 0.58586 0.70122 0.43101 0.0
H1408 H 0.54006 0.64678 0.34885 0.0
H1409 H 0.4627 0.61848 0.41706 0.0
C1410 C 0.42125 0.56059 0.40301 0.0
C1411 C 0.41459 0.53121 0.38588 0.0
C1412 C 0.55052 0.6587 0.36683 0.0
C1413 C 0.48702 0.60355 0.38582 0.0
C1414 C 0.58668 0.69487 0.36948 0.0
C1415 C 0.59989 0.71111 0.3927 0.0
C1416 C 0.52714 0.63976 0.38745 0.0
C1417 C 0.57679 0.68971 0.4128 0.0
C1418 C 0.45747 0.59663 0.40314 0.0
C1419 C 0.44414 0.53989 0.3682 0.0
N1420 N 0.5414 0.65559 0.40971 0.0
N1421 N 0.47919 0.57532 0.3686 0.0
H1422 H 0.88822 0.57508 0.84702 0.0
H1423 H 0.91411 0.43349 0.94291 0.0
H1424 H 0.91524 0.60432 0.92255 0.0
H1425 H 0.89027 0.40417 0.86703 0.0
H1426 H 0.91541 0.49629 0.93544 0.0
H1427 H 0.89235 0.51442 0.85324 0.0
C1428 C 0.89607 0.56917 0.8648 0.0
C1429 C 0.90221 0.59516 0.88418 0.0
C1430 C 0.90985 0.47624 0.92037 0.0
C1431 C 0.90535 0.52482 0.89174 0.0
C1432 C 0.90902 0.44019 0.92462 0.0
C1433 C 0.90244 0.41343 0.90553 0.0
C1434 C 0.904 0.48606 0.89679 0.0
C1435 C 0.89531 0.42367 0.88233 0.0
C1436 C 0.89801 0.53432 0.8684 0.0
C1437 C 0.91128 0.58563 0.90699 0.0
N1438 N 0.89649 0.45919 0.8786 0.0
N1439 N 0.9123 0.55116 0.91016 0.0
H1440 H 0.23663 0.36792 0.31651 0.0
H1441 H 0.15986 0.3652 0.18237 0.0
H1442 H 0.1353 0.38322 0.30183 0.0
H1443 H 0.28135 0.39628 0.19855 0.0
H1444 H 0.14864 0.36977 0.22588 0.0
H1445 H 0.25245 0.37591 0.27312 0.0
C1446 C 0.21784 0.37319 0.30427 0.0
C1447 C 0.18411 0.37407 0.3129 0.0
C1448 C 0.17787 0.37602 0.21979 0.0
C1449 C 0.20179 0.38282 0.26312 0.0
C1450 C 0.18432 0.37362 0.19495 0.0
C1451 C 0.22141 0.37984 0.18678 0.0
C1452 C 0.20861 0.38429 0.2365 0.0
C1453 C 0.252 0.3905 0.20399 0.0
C1454 C 0.22687 0.37773 0.27947 0.0
C1455 C 0.16103 0.38126 0.29604 0.0
N1456 N 0.24476 0.3918 0.22798 0.0
N1457 N 0.16995 0.3848 0.27198 0.0
H1458 H 0.88266 0.28327 0.69421 0.0
H1459 H 0.85599 0.14082 0.80341 0.0
H1460 H 0.82979 0.15607 0.6852 0.0
H1461 H 0.83362 0.23787 0.81548 0.0
H1462 H 0.85963 0.15327 0.7598 0.0
H1463 H 0.87536 0.27377 0.73841 0.0
C1464 C 0.86868 0.25326 0.70151 0.0
C1465 C 0.85638 0.2203 0.68598 0.0
C1466 C 0.85398 0.17193 0.77193 0.0
C1467 C 0.84939 0.20957 0.73643 0.0
C1468 C 0.85181 0.16479 0.7968 0.0
C1469 C 0.84341 0.18761 0.81295 0.0
C1470 C 0.84875 0.20294 0.76303 0.0
C1471 C 0.84009 0.21956 0.80357 0.0
C1472 C 0.86472 0.24797 0.7267 0.0
C1473 C 0.8391 0.1822 0.69642 0.0
N1474 N 0.84275 0.22636 0.7791 0.0
N1475 N 0.83673 0.17795 0.721 0.0
H1476 H 0.67167 0.79696 0.18192 0.0
H1477 H 0.67049 0.87602 0.31509 0.0
H1478 H 0.64943 0.89413 0.19536 0.0
H1479 H 0.64502 0.75579 0.30085 0.0
H1480 H 0.66546 0.88507 0.27133 0.0
H1481 H 0.66464 0.78242 0.22559 0.0
C1482 C 0.66487 0.81493 0.19393 0.0
C1483 C 0.66178 0.84719 0.18489 0.0
C1484 C 0.66066 0.85661 0.2779 0.0
C1485 C 0.65442 0.83124 0.23492 0.0
C1486 C 0.66337 0.85141 0.3029 0.0
C1487 C 0.6588 0.81534 0.31173 0.0
C1488 C 0.65374 0.82567 0.26168 0.0
C1489 C 0.64964 0.78448 0.29494 0.0
C1490 C 0.661 0.80674 0.21888 0.0
C1491 C 0.65297 0.86948 0.20146 0.0
N1492 N 0.64799 0.79053 0.2708 0.0
N1493 N 0.65017 0.86148 0.22562 0.0
H1494 H 0.85843 0.73771 0.69489 0.0
H1495 H 0.83045 0.61045 0.81542 0.0
H1496 H 0.82382 0.61326 0.69183 0.0
H1497 H 0.8795 0.73791 0.81302 0.0
H1498 H 0.82346 0.60829 0.77087 0.0
H1499 H 0.86388 0.73639 0.73869 0.0
C1500 C 0.8522 0.71005 0.70357 0.0
C1501 C 0.84044 0.6755 0.68988 0.0
C1502 C 0.83546 0.63661 0.78018 0.0
C1503 C 0.84635 0.67347 0.74031 0.0
C1504 C 0.83897 0.63778 0.80555 0.0
C1505 C 0.85544 0.67441 0.81781 0.0
C1506 C 0.84825 0.67232 0.76722 0.0
C1507 C 0.86671 0.70907 0.80425 0.0
C1508 C 0.85529 0.70925 0.72862 0.0
C1509 C 0.83317 0.64054 0.7019 0.0
N1510 N 0.86298 0.70715 0.77978 0.0
N1511 N 0.83593 0.64027 0.7266 0.0
H1512 H 0.17403 0.75317 0.19505 0.0
H1513 H 0.17683 0.87628 0.30846 0.0
H1514 H 0.21259 0.87843 0.18932 0.0
H1515 H 0.22723 0.79962 0.31623 0.0
H1516 H 0.17375 0.8664 0.26446 0.0
H1517 H 0.18075 0.7601 0.2394 0.0
C1518 C 0.1849 0.78233 0.20313 0.0
C1519 C 0.19337 0.81547 0.18855 0.0
C1520 C 0.18508 0.8514 0.27582 0.0
C1521 C 0.19923 0.82299 0.23903 0.0
C1522 C 0.18661 0.85679 0.30085 0.0
C1523 C 0.20252 0.83893 0.31582 0.0
C1524 C 0.19872 0.82715 0.2657 0.0
C1525 C 0.21438 0.81354 0.30522 0.0
C1526 C 0.18846 0.78613 0.22835 0.0
C1527 C 0.20645 0.85237 0.19988 0.0
N1528 N 0.21218 0.80826 0.28066 0.0
N1529 N 0.20826 0.85499 0.22452 0.0
H1530 H 0.38111 0.16149 0.81199 0.0
H1531 H 0.37459 0.24055 0.68047 0.0
H1532 H 0.40342 0.28124 0.80006 0.0
H1533 H 0.40854 0.15119 0.69256 0.0
H1534 H 0.38186 0.25491 0.7242 0.0
H1535 H 0.38779 0.15508 0.76819 0.0
C1536 C 0.38785 0.18657 0.80029 0.0
C1537 C 0.39093 0.22166 0.80979 0.0
C1538 C 0.3881 0.23246 0.71715 0.0
C1539 C 0.39787 0.21427 0.75961 0.0
C1540 C 0.38415 0.22441 0.69217 0.0
C1541 C 0.39033 0.1942 0.6828 0.0
C1542 C 0.39782 0.2098 0.73281 0.0
C1543 C 0.4026 0.17418 0.69896 0.0
C1544 C 0.39154 0.18287 0.77526 0.0
C1545 C 0.39978 0.25321 0.79359 0.0
N1546 N 0.40527 0.18183 0.72314 0.0
N1547 N 0.40228 0.24855 0.76933 0.0
H1548 H 0.34619 0.22402 0.97227 0.0
H1549 H 0.19904 0.29315 0.03038 0.0
H1550 H 0.25905 0.23629 0.93016 0.0
H1551 H 0.3023 0.30131 0.06619 0.0
H1552 H 0.21439 0.26481 0.99466 0.0
H1553 H 0.32281 0.24246 0.00872 0.0
C1554 C 0.32143 0.22946 0.97079 0.0
C1555 C 0.30445 0.22837 0.94818 0.0
C1556 C 0.2335 0.27279 0.01046 0.0
C1557 C 0.27813 0.25075 0.98967 0.0
C1558 C 0.22486 0.2892 0.03079 0.0
C1559 C 0.24945 0.30012 0.05141 0.0
C1560 C 0.26662 0.26677 0.01091 0.0
C1561 C 0.28226 0.2936 0.0509 0.0
C1562 C 0.3084 0.24062 0.99154 0.0
C1563 C 0.27314 0.23702 0.94726 0.0
N1564 N 0.28973 0.27744 0.03115 0.0
N1565 N 0.26112 0.24801 0.96762 0.0
H1566 H 0.09196 0.25067 0.45633 0.0
H1567 H 0.95797 0.30284 0.544 0.0
H1568 H 0.09122 0.3616 0.45617 0.0
H1569 H 0.94906 0.18733 0.54484 0.0
H1570 H 1.00681 0.32354 0.51137 0.0
H1571 H 0.04268 0.22673 0.48977 0.0
C1572 C 0.08246 0.27043 0.46392 0.0
C1573 C 0.09613 0.30842 0.45384 0.0
C1574 C 0.99402 0.29344 0.51834 0.0
C1575 C 0.0389 0.28091 0.49119 0.0
C1576 C 0.96571 0.28147 0.53682 0.0
C1577 C 0.9491 0.24319 0.54689 0.0
C1578 C 1.00659 0.26719 0.5099 0.0
C1579 C 0.96067 0.21689 0.53721 0.0
C1580 C 0.05385 0.25655 0.48266 0.0
C1581 C 0.08187 0.33235 0.46368 0.0
N1582 N 0.98906 0.22949 0.51936 0.0
N1583 N 0.05406 0.31819 0.48163 0.0
H1584 H 0.70138 0.90182 0.02221 0.0
H1585 H 0.85476 0.12116 0.97021 0.0
H1586 H 0.79523 0.9929 0.06559 0.0
H1587 H 0.7491 0.03212 0.93324 0.0
H1588 H 0.83924 0.0734 0.00387 0.0
H1589 H 0.7255 0.94693 0.98727 0.0
C1590 C 0.72783 0.93075 0.02421 0.0
C1591 C 0.74656 0.94331 0.0468 0.0
C1592 C 0.81965 0.06449 0.98826 0.0
C1593 C 0.77365 0.99614 0.00706 0.0
C1594 C 0.82845 0.09184 0.9691 0.0
C1595 C 0.80314 0.08112 0.94881 0.0
C1596 C 0.78562 0.02603 0.98696 0.0
C1597 C 0.7696 0.04231 0.94839 0.0
C1598 C 0.74129 0.95693 0.00434 0.0
C1599 C 0.7799 0.98202 0.04847 0.0
N1600 N 0.76197 0.01649 0.96701 0.0
N1601 N 0.79223 1.0071 0.02899 0.0
H1602 H 0.75364 0.65459 0.53421 0.0
H1603 H 0.77177 0.84251 0.45971 0.0
H1604 H 0.84562 0.77601 0.54714 0.0
H1605 H 0.68009 0.72058 0.44751 0.0
H1606 H 0.79932 0.81936 0.49214 0.0
H1607 H 0.72858 0.67787 0.50061 0.0
C1608 C 0.76955 0.68589 0.52928 0.0
C1609 C 0.80222 0.71332 0.54308 0.0
C1610 C 0.77294 0.79772 0.48248 0.0
C1611 C 0.77269 0.74063 0.50557 0.0
C1612 C 0.7569 0.81108 0.46427 0.0
C1613 C 0.72367 0.78345 0.45092 0.0
C1614 C 0.75554 0.7565 0.48729 0.0
C1615 C 0.70597 0.74288 0.45725 0.0
C1616 C 0.75479 0.69939 0.51046 0.0
C1617 C 0.82072 0.75386 0.53662 0.0
N1618 N 0.72218 0.73066 0.47478 0.0
N1619 N 0.80558 0.76633 0.51853 0.0
H1620 H 0.95085 0.76864 0.96204 0.0
H1621 H 0.07724 0.71669 0.05511 0.0
H1622 H 0.93992 0.65244 0.96627 0.0
H1623 H 0.09951 0.83609 0.043 0.0
H1624 H 0.02582 0.69203 0.02377 0.0
H1625 H 1.00062 0.79203 0.99444 0.0
C1626 C 0.95797 0.74762 0.97047 0.0
C1627 C 0.94077 0.70836 0.96174 0.0
C1628 C 0.04218 0.72369 0.02765 0.0
C1629 C 0.99922 0.73546 0.99823 0.0
C1630 C 0.07191 0.73791 0.04539 0.0
C1631 C 0.09301 0.7786 0.05152 0.0
C1632 C 0.03279 0.75023 0.01606 0.0
C1633 C 0.08447 0.80463 0.03857 0.0
C1634 C 0.98694 0.76122 0.98866 0.0
C1635 C 0.9517 0.68263 0.97288 0.0
N1636 N 0.0547 0.78994 0.02162 0.0
N1637 N 0.98056 0.69675 0.99038 0.0
H1638 H 0.19472 0.91044 0.4716 0.0
H1639 H 0.34607 0.13119 0.52223 0.0
H1640 H 0.30184 0.9984 0.43511 0.0
H1641 H 0.25436 0.03937 0.56656 0.0
H1642 H 0.32297 0.08499 0.48778 0.0
H1643 H 0.21036 0.95832 0.50516 0.0
C1644 C 0.2214 0.93953 0.47058 0.0
C1645 C 0.24681 0.95008 0.45032 0.0
C1646 C 0.30748 0.07505 0.50497 0.0
C1647 C 0.26445 1.00526 0.48833 0.0
C1648 C 0.32036 0.10178 0.52454 0.0
C1649 C 0.30198 0.0893 0.54725 0.0
C1650 C 0.27596 0.0355 0.50811 0.0
C1651 C 0.26947 0.05016 0.54934 0.0
C1652 C 0.23023 0.96694 0.48967 0.0
C1653 C 0.28095 0.9885 0.45008 0.0
N1654 N 0.25763 0.02463 0.53014 0.0
N1655 N 0.28855 1.01443 0.46859 0.0
loop_
_geom_bond_atom_site_label_1
_geom_bond_atom_site_label_2
_geom_bond_distance
_geom_bond_site_symmetry_2
_ccdc_geom_bond_type
Eu0 N31 2.657 . S
Eu0 N38 2.609 . S
Eu0 O44 2.558 . S
Eu0 O45 2.612 . S
Eu0 O47 2.339 . S
Eu0 O48 2.563 . S
Eu0 O49 2.419 . S
Eu0 O51 2.380 . S
Eu0 O52 2.432 . S
Eu0 C64 2.848 . S
C1 C4 1.429 . S
C1 C5 1.411 . S
C1 N8 1.377 . S
C2 C4 1.420 . S
C2 C6 1.423 . S
C2 C14 1.392 . S
C3 C5 1.420 . S
C3 C6 1.351 . S
C3 H26 0.931 . S
C4 C1 1.429 . S
C4 C2 1.420 . S
C4 N12 1.362 . S
C5 C1 1.411 . S
C5 C3 1.420 . S
C5 C10 1.395 . S
C6 C2 1.423 . S
C6 C3 1.351 . S
C6 H18 0.930 . S
C7 C9 1.400 . S
C7 C10 1.386 . S
C7 H19 0.930 . S
N8 C1 1.377 . S
N8 C9 1.321 . S
N8 Eu11 2.609 . S
C9 C7 1.400 . S
C9 N8 1.321 . S
C9 H16 0.930 . S
C10 C5 1.395 . S
C10 C7 1.386 . S
C10 H29 0.930 . S
Eu11 N8 2.609 . S
Eu11 N12 2.657 . S
Eu11 O45 2.380 . S
Eu11 O46 2.432 . S
Eu11 O50 2.558 . S
Eu11 O51 2.612 . S
Eu11 O53 2.339 . S
Eu11 O54 2.563 . S
Eu11 O55 2.419 . S
Eu11 C75 2.848 . S
N12 C4 1.362 . S
N12 Eu11 2.657 . S
N12 C13 1.334 . S
C13 N12 1.334 . S
C13 C15 1.413 . S
C13 H20 0.929 . S
C14 C2 1.392 . S
C14 C15 1.367 . S
C14 H22 0.930 . S
C15 C13 1.413 . S
C15 C14 1.367 . S
C15 H17 0.930 . S
H16 C9 0.930 . S
H17 C15 0.930 . S
H18 C6 0.930 . S
H19 C7 0.930 . S
H20 C13 0.929 . S
H21 C35 0.930 . S
H22 C14 0.930 . S
H23 C41 0.930 . S
H24 C32 0.929 . S
H25 C39 0.964 . S
H26 C3 0.931 . S
H27 C33 0.930 1_655 S
H28 C66 0.930 . S
H29 C10 0.930 . S
H30 C65 0.931 1_655 S
N31 Eu0 2.657 . S
N31 C32 1.334 . S
N31 C36 1.362 . S
C32 H24 0.929 . S
C32 N31 1.334 . S
C32 C35 1.413 . S
C33 H27 0.930 1_455 S
C33 C34 1.392 . S
C33 C35 1.367 . S
C34 C33 1.392 . S
C34 C36 1.420 . S
C34 C66 1.423 1_455 S
C35 H21 0.930 . S
C35 C32 1.413 . S
C35 C33 1.367 . S
C36 N31 1.362 . S
C36 C34 1.420 . S
C36 C40 1.429 . S
H37 C42 0.930 . S
N38 Eu0 2.609 . S
N38 C40 1.377 . S
N38 C41 1.321 . S
C39 H25 0.964 . S
C39 C41 1.400 . S
C39 C42 1.386 . S
C40 C36 1.429 . S
C40 N38 1.377 . S
C40 C43 1.411 . S
C41 H23 0.930 . S
C41 N38 1.321 . S
C41 C39 1.400 . S
C42 H37 0.930 . S
C42 C39 1.386 . S
C42 C43 1.395 . S
C43 C40 1.411 . S
C43 C42 1.395 . S
C43 C65 1.420 . S
O44 Eu0 2.558 . S
O44 C64 1.257 . S
O45 Eu0 2.612 . S
O45 Eu11 2.380 . S
O45 C56 1.276 . S
O46 Eu11 2.432 . S
O46 C63 1.264 . S
O47 Eu0 2.339 . S
O47 C63 1.254 . S
O48 Eu0 2.563 . S
O48 C56 1.235 . S
O49 Eu0 2.419 . S
O49 C64 1.249 . S
O50 Eu11 2.558 . S
O50 C75 1.257 . S
O51 Eu0 2.380 . S
O51 Eu11 2.612 . S
O51 C67 1.276 . S
O52 Eu0 2.432 . S
O52 C74 1.264 . S
O53 Eu11 2.339 . S
O53 C74 1.254 . S
O54 Eu11 2.563 . S
O54 C67 1.235 . S
O55 Eu11 2.419 . S
O55 C75 1.249 . S
C56 O45 1.276 . S
C56 O48 1.235 . S
C57 C59 1.393 . S
C57 C61 1.395 . S
C57 C64 1.492 . S
C58 C59 1.392 . S
C58 C60 1.386 . S
C59 C57 1.393 . S
C59 C58 1.392 . S
C59 H76 0.930 . S
C60 C58 1.386 . S
C60 C62 1.395 . S
C60 H77 0.930 . S
C61 C57 1.395 . S
C61 C62 1.379 . S
C61 H78 0.930 . S
C62 C60 1.395 . S
C62 C61 1.379 . S
C62 H79 0.930 . S
C63 O46 1.264 . S
C63 O47 1.254 . S
C64 Eu0 2.848 . S
C64 O44 1.257 . S
C64 O49 1.249 . S
C64 C57 1.492 . S
C65 H30 0.931 1_455 S
C65 C43 1.420 . S
C65 C66 1.351 1_455 S
C66 H28 0.930 . S
C66 C34 1.423 1_655 S
C66 C65 1.351 1_655 S
C67 O51 1.276 . S
C67 O54 1.235 . S
C68 C69 1.393 . S
C68 C72 1.395 . S
C68 C75 1.492 . S
C69 C68 1.393 . S
C69 C70 1.392 . S
C69 H80 0.930 . S
C70 C69 1.392 . S
C70 C71 1.386 . S
C71 C70 1.386 . S
C71 C73 1.395 . S
C71 H81 0.930 . S
C72 C68 1.395 . S
C72 C73 1.379 . S
C72 H82 0.930 . S
C73 C71 1.395 . S
C73 C72 1.379 . S
C73 H83 0.930 . S
C74 O52 1.264 . S
C74 O53 1.254 . S
C75 Eu11 2.848 . S
C75 O50 1.257 . S
C75 O55 1.249 . S
C75 C68 1.492 . S
H76 C59 0.930 . S
H77 C60 0.930 . S
H78 C61 0.930 . S
H79 C62 0.930 . S
H80 C69 0.930 . S
H81 C71 0.930 . S
H82 C72 0.930 . S
H83 C73 0.930 . S
Eu84 N115 2.657 . S
Eu84 N122 2.609 . S
Eu84 O128 2.558 . S
Eu84 O129 2.612 . S
Eu84 O131 2.339 . S
Eu84 O132 2.563 . S
Eu84 O133 2.419 . S
Eu84 O135 2.380 . S
Eu84 O136 2.432 . S
Eu84 C148 2.848 . S
C85 C88 1.429 . S
C85 C89 1.411 . S
C85 N92 1.377 . S
C86 C88 1.420 . S
C86 C90 1.423 . S
C86 C98 1.392 . S
C87 C89 1.420 . S
C87 C90 1.351 . S
C87 H110 0.931 1_655 S
C88 C85 1.429 . S
C88 C86 1.420 . S
C88 N96 1.362 . S
C89 C85 1.411 . S
C89 C87 1.420 . S
C89 C94 1.395 . S
C90 C86 1.423 . S
C90 C87 1.351 . S
C90 H102 0.930 1_655 S
C91 C93 1.400 . S
C91 C94 1.386 . S
C91 H103 0.930 . S
N92 C85 1.377 . S
N92 C93 1.321 . S
N92 Eu95 2.609 . S
C93 C91 1.400 . S
C93 N92 1.321 . S
C93 H100 0.930 . S
C94 C89 1.395 . S
C94 C91 1.386 . S
C94 H113 0.930 . S
Eu95 N92 2.609 . S
Eu95 N96 2.657 . S
Eu95 O129 2.380 . S
Eu95 O130 2.432 . S
Eu95 O134 2.558 . S
Eu95 O135 2.612 . S
Eu95 O137 2.339 . S
Eu95 O138 2.563 . S
Eu95 O139 2.419 . S
Eu95 C159 2.848 . S
N96 C88 1.362 . S
N96 Eu95 2.657 . S
N96 C97 1.334 . S
C97 N96 1.334 . S
C97 C99 1.413 . S
C97 H104 0.929 . S
C98 C86 1.392 . S
C98 C99 1.367 . S
C98 H106 0.930 . S
C99 C97 1.413 . S
C99 C98 1.367 . S
C99 H101 0.930 . S
H100 C93 0.930 . S
H101 C99 0.930 . S
H102 C90 0.930 1_455 S
H103 C91 0.930 . S
H104 C97 0.929 . S
H105 C119 0.930 . S
H106 C98 0.930 . S
H107 C125 0.930 . S
H108 C116 0.929 . S
H109 C123 0.930 . S
H110 C87 0.931 1_455 S
H111 C117 0.930 1_565 S
H112 C150 0.930 . S
H113 C94 0.930 . S
H114 C149 0.931 1_565 S
N115 Eu84 2.657 . S
N115 C116 1.334 . S
N115 C120 1.362 . S
C116 H108 0.929 . S
C116 N115 1.334 . S
C116 C119 1.413 . S
C117 H111 0.930 1_545 S
C117 C118 1.392 . S
C117 C119 1.367 . S
C118 C117 1.392 . S
C118 C120 1.420 . S
C118 C150 1.423 1_545 S
C119 H105 0.930 . S
C119 C116 1.413 . S
C119 C117 1.367 . S
C120 N115 1.362 . S
C120 C118 1.420 . S
C120 C124 1.429 . S
H121 C126 0.930 . S
N122 Eu84 2.609 . S
N122 C124 1.377 . S
N122 C125 1.321 . S
C123 H109 0.930 . S
C123 C125 1.400 . S
C123 C126 1.386 . S
C124 C120 1.429 . S
C124 N122 1.377 . S
C124 C127 1.411 . S
C125 H107 0.930 . S
C125 N122 1.321 . S
C125 C123 1.400 . S
C126 H121 0.930 . S
C126 C123 1.386 . S
C126 C127 1.395 . S
C127 C124 1.411 . S
C127 C126 1.395 . S
C127 C149 1.420 . S
O128 Eu84 2.558 . S
O128 C148 1.257 . S
O129 Eu84 2.612 . S
O129 Eu95 2.380 . S
O129 C140 1.276 . S
O130 Eu95 2.432 . S
O130 C147 1.264 . S
O131 Eu84 2.339 . S
O131 C147 1.254 . S
O132 Eu84 2.563 . S
O132 C140 1.235 . S
O133 Eu84 2.419 . S
O133 C148 1.249 . S
O134 Eu95 2.558 . S
O134 C159 1.257 . S
O135 Eu84 2.380 . S
O135 Eu95 2.612 . S
O135 C151 1.276 . S
O136 Eu84 2.432 . S
O136 C158 1.264 . S
O137 Eu95 2.339 . S
O137 C158 1.254 . S
O138 Eu95 2.563 . S
O138 C151 1.235 . S
O139 Eu95 2.419 . S
O139 C159 1.249 . S
C140 O129 1.276 . S
C140 O132 1.235 . S
C141 C143 1.393 . S
C141 C145 1.395 . S
C141 C148 1.492 . S
C142 C143 1.392 . S
C142 C144 1.386 . S
C143 C141 1.393 . S
C143 C142 1.392 . S
C143 H160 0.930 . S
C144 C142 1.386 . S
C144 C146 1.395 . S
C144 H161 0.930 . S
C145 C141 1.395 . S
C145 C146 1.379 . S
C145 H162 0.930 . S
C146 C144 1.395 . S
C146 C145 1.379 . S
C146 H163 0.930 . S
C147 O130 1.264 . S
C147 O131 1.254 . S
C148 Eu84 2.848 . S
C148 O128 1.257 . S
C148 O133 1.249 . S
C148 C141 1.492 . S
C149 H114 0.931 1_545 S
C149 C127 1.420 . S
C149 C150 1.351 1_545 S
C150 H112 0.930 . S
C150 C118 1.423 1_565 S
C150 C149 1.351 1_565 S
C151 O135 1.276 . S
C151 O138 1.235 . S
C152 C153 1.393 . S
C152 C156 1.395 . S
C152 C159 1.492 1_455 S
C153 C152 1.393 . S
C153 C154 1.392 . S
C153 H164 0.930 . S
C154 C153 1.392 . S
C154 C155 1.386 . S
C155 C154 1.386 . S
C155 C157 1.395 . S
C155 H165 0.930 . S
C156 C152 1.395 . S
C156 C157 1.379 . S
C156 H166 0.930 . S
C157 C155 1.395 . S
C157 C156 1.379 . S
C157 H167 0.930 . S
C158 O136 1.264 . S
C158 O137 1.254 . S
C159 Eu95 2.848 . S
C159 O134 1.257 . S
C159 O139 1.249 . S
C159 C152 1.492 1_655 S
H160 C143 0.930 . S
H161 C144 0.930 . S
H162 C145 0.930 . S
H163 C146 0.930 . S
H164 C153 0.930 . S
H165 C155 0.930 . S
H166 C156 0.930 . S
H167 C157 0.930 . S
Eu168 N199 2.657 . S
Eu168 N206 2.609 . S
Eu168 O212 2.558 . S
Eu168 O213 2.612 . S
Eu168 O215 2.339 . S
Eu168 O216 2.563 . S
Eu168 O217 2.419 . S
Eu168 O219 2.380 . S
Eu168 O220 2.432 . S
Eu168 C232 2.848 . S
C169 C172 1.429 . S
C169 C173 1.411 . S
C169 N176 1.377 . S
C170 C172 1.420 . S
C170 C174 1.423 . S
C170 C182 1.392 . S
C171 C173 1.420 . S
C171 C174 1.351 . S
C171 H194 0.931 1_565 S
C172 C169 1.429 . S
C172 C170 1.420 . S
C172 N180 1.362 . S
C173 C169 1.411 . S
C173 C171 1.420 . S
C173 C178 1.395 . S
C174 C170 1.423 . S
C174 C171 1.351 . S
C174 H186 0.930 1_565 S
C175 C177 1.400 . S
C175 C178 1.386 . S
C175 H187 0.930 . S
N176 C169 1.377 . S
N176 C177 1.321 . S
N176 Eu179 2.609 . S
C177 C175 1.400 . S
C177 N176 1.321 . S
C177 H184 0.930 . S
C178 C173 1.395 . S
C178 C175 1.386 . S
C178 H197 0.930 . S
Eu179 N176 2.609 . S
Eu179 N180 2.657 . S
Eu179 O213 2.380 . S
Eu179 O214 2.432 . S
Eu179 O218 2.558 . S
Eu179 O219 2.612 . S
Eu179 O221 2.339 . S
Eu179 O222 2.563 . S
Eu179 O223 2.419 . S
Eu179 C243 2.848 . S
N180 C172 1.362 . S
N180 Eu179 2.657 . S
N180 C181 1.334 . S
C181 N180 1.334 . S
C181 C183 1.413 . S
C181 H188 0.929 . S
C182 C170 1.392 . S
C182 C183 1.367 . S
C182 H190 0.930 . S
C183 C181 1.413 . S
C183 C182 1.367 . S
C183 H185 0.930 . S
H184 C177 0.930 . S
H185 C183 0.930 . S
H186 C174 0.930 1_545 S
H187 C175 0.930 . S
H188 C181 0.929 . S
H189 C203 0.930 . S
H190 C182 0.930 . S
H191 C209 0.930 . S
H192 C200 0.929 . S
H193 C207 0.964 . S
H194 C171 0.931 1_545 S
H195 C201 0.930 . S
H196 C234 0.930 . S
H197 C178 0.930 . S
H198 C233 0.931 . S
N199 Eu168 2.657 . S
N199 C200 1.334 . S
N199 C204 1.362 . S
C200 H192 0.929 . S
C200 N199 1.334 . S
C200 C203 1.413 . S
C201 H195 0.930 . S
C201 C202 1.392 . S
C201 C203 1.367 . S
C202 C201 1.392 . S
C202 C204 1.420 . S
C202 C234 1.423 . S
C203 H189 0.930 . S
C203 C200 1.413 . S
C203 C201 1.367 . S
C204 N199 1.362 . S
C204 C202 1.420 . S
C204 C208 1.429 . S
H205 C210 0.930 . S
N206 Eu168 2.609 . S
N206 C208 1.377 . S
N206 C209 1.321 . S
C207 H193 0.964 . S
C207 C209 1.400 . S
C207 C210 1.386 . S
C208 C204 1.429 . S
C208 N206 1.377 . S
C208 C211 1.411 . S
C209 H191 0.930 . S
C209 N206 1.321 . S
C209 C207 1.400 . S
C210 H205 0.930 . S
C210 C207 1.386 . S
C210 C211 1.395 . S
C211 C208 1.411 . S
C211 C210 1.395 . S
C211 C233 1.420 . S
O212 Eu168 2.558 . S
O212 C232 1.257 . S
O213 Eu168 2.612 . S
O213 Eu179 2.380 . S
O213 C224 1.276 . S
O214 Eu179 2.432 . S
O214 C231 1.264 . S
O215 Eu168 2.339 . S
O215 C231 1.254 . S
O216 Eu168 2.563 . S
O216 C224 1.235 . S
O217 Eu168 2.419 . S
O217 C232 1.249 . S
O218 Eu179 2.558 . S
O218 C243 1.257 . S
O219 Eu168 2.380 . S
O219 Eu179 2.612 . S
O219 C235 1.276 . S
O220 Eu168 2.432 . S
O220 C242 1.264 . S
O221 Eu179 2.339 . S
O221 C242 1.254 . S
O222 Eu179 2.563 . S
O222 C235 1.235 . S
O223 Eu179 2.419 . S
O223 C243 1.249 . S
C224 O213 1.276 . S
C224 O216 1.235 . S
C225 C227 1.393 . S
C225 C229 1.395 . S
C225 C232 1.492 . S
C226 C227 1.392 . S
C226 C228 1.386 . S
C227 C225 1.393 . S
C227 C226 1.392 . S
C227 H244 0.930 . S
C228 C226 1.386 . S
C228 C230 1.395 . S
C228 H245 0.930 . S
C229 C225 1.395 . S
C229 C230 1.379 . S
C229 H246 0.930 . S
C230 C228 1.395 . S
C230 C229 1.379 . S
C230 H247 0.930 . S
C231 O214 1.264 . S
C231 O215 1.254 . S
C232 Eu168 2.848 . S
C232 O212 1.257 . S
C232 O217 1.249 . S
C232 C225 1.492 . S
C233 H198 0.931 . S
C233 C211 1.420 . S
C233 C234 1.351 . S
C234 H196 0.930 . S
C234 C202 1.423 . S
C234 C233 1.351 . S
C235 O219 1.276 . S
C235 O222 1.235 . S
C236 C237 1.393 . S
C236 C240 1.395 . S
C236 C243 1.492 1_545 S
C237 C236 1.393 . S
C237 C238 1.392 . S
C237 H248 0.930 . S
C238 C237 1.392 . S
C238 C239 1.386 . S
C239 C238 1.386 . S
C239 C241 1.395 . S
C239 H249 0.930 . S
C240 C236 1.395 . S
C240 C241 1.379 . S
C240 H250 0.930 . S
C241 C239 1.395 . S
C241 C240 1.379 . S
C241 H251 0.930 . S
C242 O220 1.264 . S
C242 O221 1.254 . S
C243 Eu179 2.848 . S
C243 O218 1.257 . S
C243 O223 1.249 . S
C243 C236 1.492 1_565 S
H244 C227 0.930 . S
H245 C228 0.930 . S
H246 C229 0.930 . S
H247 C230 0.930 . S
H248 C237 0.930 . S
H249 C239 0.930 . S
H250 C240 0.930 . S
H251 C241 0.930 . S
Eu252 N283 2.657 . S
Eu252 N290 2.609 . S
Eu252 O296 2.558 . S
Eu252 O297 2.612 . S
Eu252 O299 2.339 . S
Eu252 O300 2.563 . S
Eu252 O301 2.419 . S
Eu252 O303 2.380 . S
Eu252 O304 2.432 . S
Eu252 C316 2.848 . S
C253 C256 1.429 . S
C253 C257 1.411 . S
C253 N260 1.377 . S
C254 C256 1.420 . S
C254 C258 1.423 . S
C254 C266 1.392 . S
C255 C257 1.420 . S
C255 C258 1.351 . S
C255 H278 0.931 . S
C256 C253 1.429 . S
C256 C254 1.420 . S
C256 N264 1.362 . S
C257 C253 1.411 . S
C257 C255 1.420 . S
C257 C262 1.395 . S
C258 C254 1.423 . S
C258 C255 1.351 . S
C258 H270 0.930 . S
C259 C261 1.400 . S
C259 C262 1.386 . S
C259 H271 0.930 . S
N260 C253 1.377 . S
N260 C261 1.321 . S
N260 Eu263 2.609 . S
C261 C259 1.400 . S
C261 N260 1.321 . S
C261 H268 0.930 . S
C262 C257 1.395 . S
C262 C259 1.386 . S
C262 H281 0.930 . S
Eu263 N260 2.609 . S
Eu263 N264 2.657 . S
Eu263 O297 2.380 . S
Eu263 O298 2.432 . S
Eu263 O302 2.558 . S
Eu263 O303 2.612 . S
Eu263 O305 2.339 . S
Eu263 O306 2.563 . S
Eu263 O307 2.419 . S
Eu263 C327 2.848 . S
N264 C256 1.362 . S
N264 Eu263 2.657 . S
N264 C265 1.334 . S
C265 N264 1.334 . S
C265 C267 1.413 . S
C265 H272 0.929 . S
C266 C254 1.392 . S
C266 C267 1.367 . S
C266 H274 0.930 . S
C267 C265 1.413 . S
C267 C266 1.367 . S
C267 H269 0.930 . S
H268 C261 0.930 . S
H269 C267 0.930 . S
H270 C258 0.930 . S
H271 C259 0.930 . S
H272 C265 0.929 . S
H273 C287 0.930 . S
H274 C266 0.930 . S
H275 C293 0.930 . S
H276 C284 0.929 . S
H277 C291 0.930 . S
H278 C255 0.931 . S
H279 C285 0.930 1_455 S
H280 C318 0.930 . S
H281 C262 0.930 . S
H282 C317 0.931 1_455 S
N283 Eu252 2.657 . S
N283 C284 1.334 . S
N283 C288 1.362 . S
C284 H276 0.929 . S
C284 N283 1.334 . S
C284 C287 1.413 . S
C285 H279 0.930 1_655 S
C285 C286 1.392 . S
C285 C287 1.367 . S
C286 C285 1.392 . S
C286 C288 1.420 . S
C286 C318 1.423 1_655 S
C287 H273 0.930 . S
C287 C284 1.413 . S
C287 C285 1.367 . S
C288 N283 1.362 . S
C288 C286 1.420 . S
C288 C292 1.429 . S
H289 C294 0.930 . S
N290 Eu252 2.609 . S
N290 C292 1.377 . S
N290 C293 1.321 . S
C291 H277 0.930 . S
C291 C293 1.400 . S
C291 C294 1.386 . S
C292 C288 1.429 . S
C292 N290 1.377 . S
C292 C295 1.411 . S
C293 H275 0.930 . S
C293 N290 1.321 . S
C293 C291 1.400 . S
C294 H289 0.930 . S
C294 C291 1.386 . S
C294 C295 1.395 . S
C295 C292 1.411 . S
C295 C294 1.395 . S
C295 C317 1.420 . S
O296 Eu252 2.558 . S
O296 C316 1.257 . S
O297 Eu252 2.612 . S
O297 Eu263 2.380 . S
O297 C308 1.276 . S
O298 Eu263 2.432 . S
O298 C315 1.264 . S
O299 Eu252 2.339 . S
O299 C315 1.254 . S
O300 Eu252 2.563 . S
O300 C308 1.235 . S
O301 Eu252 2.419 . S
O301 C316 1.249 . S
O302 Eu263 2.558 . S
O302 C327 1.257 . S
O303 Eu252 2.380 . S
O303 Eu263 2.612 . S
O303 C319 1.276 . S
O304 Eu252 2.432 . S
O304 C326 1.264 . S
O305 Eu263 2.339 . S
O305 C326 1.254 . S
O306 Eu263 2.563 . S
O306 C319 1.235 . S
O307 Eu263 2.419 . S
O307 C327 1.249 . S
C308 O297 1.276 . S
C308 O300 1.235 . S
C309 C311 1.393 . S
C309 C313 1.395 . S
C309 C316 1.492 . S
C310 C311 1.392 . S
C310 C312 1.386 . S
C311 C309 1.393 . S
C311 C310 1.392 . S
C311 H328 0.930 . S
C312 C310 1.386 . S
C312 C314 1.395 . S
C312 H329 0.930 . S
C313 C309 1.395 . S
C313 C314 1.379 . S
C313 H330 0.930 . S
C314 C312 1.395 . S
C314 C313 1.379 . S
C314 H331 0.930 . S
C315 O298 1.264 . S
C315 O299 1.254 . S
C316 Eu252 2.848 . S
C316 O296 1.257 . S
C316 O301 1.249 . S
C316 C309 1.492 . S
C317 H282 0.931 1_655 S
C317 C295 1.420 . S
C317 C318 1.351 1_655 S
C318 H280 0.930 . S
C318 C286 1.423 1_455 S
C318 C317 1.351 1_455 S
C319 O303 1.276 . S
C319 O306 1.235 . S
C320 C321 1.393 . S
C320 C324 1.395 . S
C320 C327 1.492 . S
C321 C320 1.393 . S
C321 C322 1.392 . S
C321 H332 0.930 . S
C322 C321 1.392 . S
C322 C323 1.386 . S
C323 C322 1.386 . S
C323 C325 1.395 . S
C323 H333 0.930 . S
C324 C320 1.395 . S
C324 C325 1.379 . S
C324 H334 0.930 . S
C325 C323 1.395 . S
C325 C324 1.379 . S
C325 H335 0.930 . S
C326 O304 1.264 . S
C326 O305 1.254 . S
C327 Eu263 2.848 . S
C327 O302 1.257 . S
C327 O307 1.249 . S
C327 C320 1.492 . S
H328 C311 0.930 . S
H329 C312 0.930 . S
H330 C313 0.930 . S
H331 C314 0.930 . S
H332 C321 0.930 . S
H333 C323 0.930 . S
H334 C324 0.930 . S
H335 C325 0.930 . S
Eu336 N367 2.657 . S
Eu336 N374 2.609 . S
Eu336 O380 2.558 . S
Eu336 O381 2.612 . S
Eu336 O383 2.339 . S
Eu336 O384 2.563 . S
Eu336 O385 2.419 . S
Eu336 O387 2.380 . S
Eu336 O388 2.432 . S
Eu336 C400 2.848 . S
C337 C340 1.429 . S
C337 C341 1.411 . S
C337 N344 1.377 . S
C338 C340 1.420 . S
C338 C342 1.423 . S
C338 C350 1.392 . S
C339 C341 1.420 . S
C339 C342 1.351 . S
C339 H362 0.931 1_455 S
C340 C337 1.429 . S
C340 C338 1.420 . S
C340 N348 1.362 . S
C341 C337 1.411 . S
C341 C339 1.420 . S
C341 C346 1.395 . S
C342 C338 1.423 . S
C342 C339 1.351 . S
C342 H354 0.930 1_455 S
C343 C345 1.400 . S
C343 C346 1.386 . S
C343 H355 0.930 . S
N344 C337 1.377 . S
N344 C345 1.321 . S
N344 Eu347 2.609 . S
C345 C343 1.400 . S
C345 N344 1.321 . S
C345 H352 0.930 . S
C346 C341 1.395 . S
C346 C343 1.386 . S
C346 H365 0.930 . S
Eu347 N344 2.609 . S
Eu347 N348 2.657 . S
Eu347 O381 2.380 . S
Eu347 O382 2.432 . S
Eu347 O386 2.558 . S
Eu347 O387 2.612 . S
Eu347 O389 2.339 . S
Eu347 O390 2.563 . S
Eu347 O391 2.419 . S
Eu347 C411 2.848 . S
N348 C340 1.362 . S
N348 Eu347 2.657 . S
N348 C349 1.334 . S
C349 N348 1.334 . S
C349 C351 1.413 . S
C349 H356 0.929 . S
C350 C338 1.392 . S
C350 C351 1.367 . S
C350 H358 0.930 . S
C351 C349 1.413 . S
C351 C350 1.367 . S
C351 H353 0.930 . S
H352 C345 0.930 . S
H353 C351 0.930 . S
H354 C342 0.930 1_655 S
H355 C343 0.930 . S
H356 C349 0.929 . S
H357 C371 0.930 . S
H358 C350 0.930 . S
H359 C377 0.930 . S
H360 C368 0.929 . S
H361 C375 0.964 . S
H362 C339 0.931 1_655 S
H363 C369 0.930 1_545 S
H364 C402 0.930 . S
H365 C346 0.930 . S
H366 C401 0.931 1_545 S
N367 Eu336 2.657 . S
N367 C368 1.334 . S
N367 C372 1.362 . S
C368 H360 0.929 . S
C368 N367 1.334 . S
C368 C371 1.413 . S
C369 H363 0.930 1_565 S
C369 C370 1.392 . S
C369 C371 1.367 . S
C370 C369 1.392 . S
C370 C372 1.420 . S
C370 C402 1.423 1_565 S
C371 H357 0.930 . S
C371 C368 1.413 . S
C371 C369 1.367 . S
C372 N367 1.362 . S
C372 C370 1.420 . S
C372 C376 1.429 . S
H373 C378 0.930 . S
N374 Eu336 2.609 . S
N374 C376 1.377 . S
N374 C377 1.321 . S
C375 H361 0.964 . S
C375 C377 1.400 . S
C375 C378 1.386 . S
C376 C372 1.429 . S
C376 N374 1.377 . S
C376 C379 1.411 . S
C377 H359 0.930 . S
C377 N374 1.321 . S
C377 C375 1.400 . S
C378 H373 0.930 . S
C378 C375 1.386 . S
C378 C379 1.395 . S
C379 C376 1.411 . S
C379 C378 1.395 . S
C379 C401 1.420 . S
O380 Eu336 2.558 . S
O380 C400 1.257 . S
O381 Eu336 2.612 . S
O381 Eu347 2.380 . S
O381 C392 1.276 . S
O382 Eu347 2.432 . S
O382 C399 1.264 . S
O383 Eu336 2.339 . S
O383 C399 1.254 . S
O384 Eu336 2.563 . S
O384 C392 1.235 . S
O385 Eu336 2.419 . S
O385 C400 1.249 . S
O386 Eu347 2.558 . S
O386 C411 1.257 . S
O387 Eu336 2.380 . S
O387 Eu347 2.612 . S
O387 C403 1.276 . S
O388 Eu336 2.432 . S
O388 C410 1.264 . S
O389 Eu347 2.339 . S
O389 C410 1.254 . S
O390 Eu347 2.563 . S
O390 C403 1.235 . S
O391 Eu347 2.419 . S
O391 C411 1.249 . S
C392 O381 1.276 . S
C392 O384 1.235 . S
C393 C395 1.393 . S
C393 C397 1.395 . S
C393 C400 1.492 . S
C394 C395 1.392 . S
C394 C396 1.386 . S
C395 C393 1.393 . S
C395 C394 1.392 . S
C395 H412 0.930 . S
C396 C394 1.386 . S
C396 C398 1.395 . S
C396 H413 0.930 . S
C397 C393 1.395 . S
C397 C398 1.379 . S
C397 H414 0.930 . S
C398 C396 1.395 . S
C398 C397 1.379 . S
C398 H415 0.930 . S
C399 O382 1.264 . S
C399 O383 1.254 . S
C400 Eu336 2.848 . S
C400 O380 1.257 . S
C400 O385 1.249 . S
C400 C393 1.492 . S
C401 H366 0.931 1_565 S
C401 C379 1.420 . S
C401 C402 1.351 1_565 S
C402 H364 0.930 . S
C402 C370 1.423 1_545 S
C402 C401 1.351 1_545 S
C403 O387 1.276 . S
C403 O390 1.235 . S
C404 C405 1.393 . S
C404 C408 1.395 . S
C404 C411 1.492 1_655 S
C405 C404 1.393 . S
C405 C406 1.392 . S
C405 H416 0.930 . S
C406 C405 1.392 . S
C406 C407 1.386 . S
C407 C406 1.386 . S
C407 C409 1.395 . S
C407 H417 0.930 . S
C408 C404 1.395 . S
C408 C409 1.379 . S
C408 H418 0.930 . S
C409 C407 1.395 . S
C409 C408 1.379 . S
C409 H419 0.930 . S
C410 O388 1.264 . S
C410 O389 1.254 . S
C411 Eu347 2.848 . S
C411 O386 1.257 . S
C411 O391 1.249 . S
C411 C404 1.492 1_455 S
H412 C395 0.930 . S
H413 C396 0.930 . S
H414 C397 0.930 . S
H415 C398 0.930 . S
H416 C405 0.930 . S
H417 C407 0.930 . S
H418 C408 0.930 . S
H419 C409 0.930 . S
Eu420 N451 2.657 . S
Eu420 N458 2.609 . S
Eu420 O464 2.558 . S
Eu420 O465 2.612 . S
Eu420 O467 2.339 . S
Eu420 O468 2.563 . S
Eu420 O469 2.419 . S
Eu420 O471 2.380 . S
Eu420 O472 2.432 . S
Eu420 C484 2.848 . S
C421 C424 1.429 . S
C421 C425 1.411 . S
C421 N428 1.377 . S
C422 C424 1.420 . S
C422 C426 1.423 . S
C422 C434 1.392 . S
C423 C425 1.420 . S
C423 C426 1.351 . S
C423 H446 0.931 1_545 S
C424 C421 1.429 . S
C424 C422 1.420 . S
C424 N432 1.362 . S
C425 C421 1.411 . S
C425 C423 1.420 . S
C425 C430 1.395 . S
C426 C422 1.423 . S
C426 C423 1.351 . S
C426 H438 0.930 1_545 S
C427 C429 1.400 . S
C427 C430 1.386 . S
C427 H439 0.930 . S
N428 C421 1.377 . S
N428 C429 1.321 . S
N428 Eu431 2.609 . S
C429 C427 1.400 . S
C429 N428 1.321 . S
C429 H436 0.930 . S
C430 C425 1.395 . S
C430 C427 1.386 . S
C430 H449 0.930 . S
Eu431 N428 2.609 . S
Eu431 N432 2.657 . S
Eu431 O465 2.380 . S
Eu431 O466 2.432 . S
Eu431 O470 2.558 . S
Eu431 O471 2.612 . S
Eu431 O473 2.339 . S
Eu431 O474 2.563 . S
Eu431 O475 2.419 . S
Eu431 C495 2.848 . S
N432 C424 1.362 . S
N432 Eu431 2.657 . S
N432 C433 1.334 . S
C433 N432 1.334 . S
C433 C435 1.413 . S
C433 H440 0.929 . S
C434 C422 1.392 . S
C434 C435 1.367 . S
C434 H442 0.930 . S
C435 C433 1.413 . S
C435 C434 1.367 . S
C435 H437 0.930 . S
H436 C429 0.930 . S
H437 C435 0.930 . S
H438 C426 0.930 1_565 S
H439 C427 0.930 . S
H440 C433 0.929 . S
H441 C455 0.930 . S
H442 C434 0.930 . S
H443 C461 0.930 . S
H444 C452 0.929 . S
H445 C459 0.930 . S
H446 C423 0.931 1_565 S
H447 C453 0.930 . S
H448 C486 0.930 . S
H449 C430 0.930 . S
H450 C485 0.931 . S
N451 Eu420 2.657 . S
N451 C452 1.334 . S
N451 C456 1.362 . S
C452 H444 0.929 . S
C452 N451 1.334 . S
C452 C455 1.413 . S
C453 H447 0.930 . S
C453 C454 1.392 . S
C453 C455 1.367 . S
C454 C453 1.392 . S
C454 C456 1.420 . S
C454 C486 1.423 . S
C455 H441 0.930 . S
C455 C452 1.413 . S
C455 C453 1.367 . S
C456 N451 1.362 . S
C456 C454 1.420 . S
C456 C460 1.429 . S
H457 C462 0.930 . S
N458 Eu420 2.609 . S
N458 C460 1.377 . S
N458 C461 1.321 . S
C459 H445 0.930 . S
C459 C461 1.400 . S
C459 C462 1.386 . S
C460 C456 1.429 . S
C460 N458 1.377 . S
C460 C463 1.411 . S
C461 H443 0.930 . S
C461 N458 1.321 . S
C461 C459 1.400 . S
C462 H457 0.930 . S
C462 C459 1.386 . S
C462 C463 1.395 . S
C463 C460 1.411 . S
C463 C462 1.395 . S
C463 C485 1.420 . S
O464 Eu420 2.558 . S
O464 C484 1.257 . S
O465 Eu420 2.612 . S
O465 Eu431 2.380 . S
O465 C476 1.276 . S
O466 Eu431 2.432 . S
O466 C483 1.264 . S
O467 Eu420 2.339 . S
O467 C483 1.254 . S
O468 Eu420 2.563 . S
O468 C476 1.235 . S
O469 Eu420 2.419 . S
O469 C484 1.249 . S
O470 Eu431 2.558 . S
O470 C495 1.257 . S
O471 Eu420 2.380 . S
O471 Eu431 2.612 . S
O471 C487 1.276 . S
O472 Eu420 2.432 . S
O472 C494 1.264 . S
O473 Eu431 2.339 . S
O473 C494 1.254 . S
O474 Eu431 2.563 . S
O474 C487 1.235 . S
O475 Eu431 2.419 . S
O475 C495 1.249 . S
C476 O465 1.276 . S
C476 O468 1.235 . S
C477 C479 1.393 . S
C477 C481 1.395 . S
C477 C484 1.492 . S
C478 C479 1.392 . S
C478 C480 1.386 . S
C479 C477 1.393 . S
C479 C478 1.392 . S
C479 H496 0.930 . S
C480 C478 1.386 . S
C480 C482 1.395 . S
C480 H497 0.930 . S
C481 C477 1.395 . S
C481 C482 1.379 . S
C481 H498 0.930 . S
C482 C480 1.395 . S
C482 C481 1.379 . S
C482 H499 0.930 . S
C483 O466 1.264 . S
C483 O467 1.254 . S
C484 Eu420 2.848 . S
C484 O464 1.257 . S
C484 O469 1.249 . S
C484 C477 1.492 . S
C485 H450 0.931 . S
C485 C463 1.420 . S
C485 C486 1.351 . S
C486 H448 0.930 . S
C486 C454 1.423 . S
C486 C485 1.351 . S
C487 O471 1.276 . S
C487 O474 1.235 . S
C488 C489 1.393 . S
C488 C492 1.395 . S
C488 C495 1.492 1_565 S
C489 C488 1.393 . S
C489 C490 1.392 . S
C489 H500 0.930 . S
C490 C489 1.392 . S
C490 C491 1.386 . S
C491 C490 1.386 . S
C491 C493 1.395 . S
C491 H501 0.930 . S
C492 C488 1.395 . S
C492 C493 1.379 . S
C492 H502 0.930 . S
C493 C491 1.395 . S
C493 C492 1.379 . S
C493 H503 0.930 . S
C494 O472 1.264 . S
C494 O473 1.254 . S
C495 Eu431 2.848 . S
C495 O470 1.257 . S
C495 O475 1.249 . S
C495 C488 1.492 1_545 S
H496 C479 0.930 . S
H497 C480 0.930 . S
H498 C481 0.930 . S
H499 C482 0.930 . S
H500 C489 0.930 . S
H501 C491 0.930 . S
H502 C492 0.930 . S
H503 C493 0.930 . S
Eu504 N535 2.657 . S
Eu504 N542 2.609 . S
Eu504 O548 2.558 . S
Eu504 O549 2.612 . S
Eu504 O551 2.339 . S
Eu504 O552 2.563 . S
Eu504 O553 2.419 . S
Eu504 O555 2.380 . S
Eu504 O556 2.432 . S
Eu504 C568 2.848 . S
C505 C508 1.429 . S
C505 C509 1.411 . S
C505 N512 1.377 . S
C506 C508 1.420 . S
C506 C510 1.423 . S
C506 C518 1.392 . S
C507 C509 1.420 . S
C507 C510 1.351 . S
C507 H530 0.931 . S
C508 C505 1.429 . S
C508 C506 1.420 . S
C508 N516 1.362 . S
C509 C505 1.411 . S
C509 C507 1.420 . S
C509 C514 1.395 . S
C510 C506 1.423 . S
C510 C507 1.351 . S
C510 H522 0.930 . S
C511 C513 1.400 . S
C511 C514 1.386 . S
C511 H523 0.930 . S
N512 C505 1.377 . S
N512 C513 1.321 . S
N512 Eu515 2.609 . S
C513 C511 1.400 . S
C513 N512 1.321 . S
C513 H520 0.930 . S
C514 C509 1.395 . S
C514 C511 1.386 . S
C514 H533 0.930 . S
Eu515 N512 2.609 . S
Eu515 N516 2.657 . S
Eu515 O549 2.380 . S
Eu515 O550 2.432 . S
Eu515 O554 2.558 . S
Eu515 O555 2.612 . S
Eu515 O557 2.339 . S
Eu515 O558 2.563 . S
Eu515 O559 2.419 . S
Eu515 C579 2.848 . S
N516 C508 1.362 . S
N516 Eu515 2.657 . S
N516 C517 1.334 . S
C517 N516 1.334 . S
C517 C519 1.413 . S
C517 H524 0.929 . S
C518 C506 1.392 . S
C518 C519 1.367 . S
C518 H526 0.930 . S
C519 C517 1.413 . S
C519 C518 1.367 . S
C519 H521 0.930 . S
H520 C513 0.930 . S
H521 C519 0.930 . S
H522 C510 0.930 . S
H523 C511 0.930 . S
H524 C517 0.929 . S
H525 C539 0.930 . S
H526 C518 0.930 . S
H527 C545 0.930 . S
H528 C536 0.929 . S
H529 C543 0.930 . S
H530 C507 0.931 . S
H531 C537 0.930 1_545 S
H532 C570 0.930 . S
H533 C514 0.930 . S
H534 C569 0.931 1_545 S
N535 Eu504 2.657 . S
N535 C536 1.334 . S
N535 C540 1.362 . S
C536 H528 0.929 . S
C536 N535 1.334 . S
C536 C539 1.413 . S
C537 H531 0.930 1_565 S
C537 C538 1.392 . S
C537 C539 1.367 . S
C538 C537 1.392 . S
C538 C540 1.420 . S
C538 C570 1.423 1_565 S
C539 H525 0.930 . S
C539 C536 1.413 . S
C539 C537 1.367 . S
C540 N535 1.362 . S
C540 C538 1.420 . S
C540 C544 1.429 . S
H541 C546 0.930 . S
N542 Eu504 2.609 . S
N542 C544 1.377 . S
N542 C545 1.321 . S
C543 H529 0.930 . S
C543 C545 1.400 . S
C543 C546 1.386 . S
C544 C540 1.429 . S
C544 N542 1.377 . S
C544 C547 1.411 . S
C545 H527 0.930 . S
C545 N542 1.321 . S
C545 C543 1.400 . S
C546 H541 0.930 . S
C546 C543 1.386 . S
C546 C547 1.395 . S
C547 C544 1.411 . S
C547 C546 1.395 . S
C547 C569 1.420 . S
O548 Eu504 2.558 . S
O548 C568 1.257 . S
O549 Eu504 2.612 . S
O549 Eu515 2.380 . S
O549 C560 1.276 . S
O550 Eu515 2.432 . S
O550 C567 1.264 . S
O551 Eu504 2.339 . S
O551 C567 1.254 . S
O552 Eu504 2.563 . S
O552 C560 1.235 . S
O553 Eu504 2.419 . S
O553 C568 1.249 . S
O554 Eu515 2.558 . S
O554 C579 1.257 . S
O555 Eu504 2.380 . S
O555 Eu515 2.612 . S
O555 C571 1.276 . S
O556 Eu504 2.432 . S
O556 C578 1.264 . S
O557 Eu515 2.339 . S
O557 C578 1.254 . S
O558 Eu515 2.563 . S
O558 C571 1.235 . S
O559 Eu515 2.419 . S
O559 C579 1.249 . S
C560 O549 1.276 . S
C560 O552 1.235 . S
C561 C563 1.393 . S
C561 C565 1.395 . S
C561 C568 1.492 . S
C562 C563 1.392 . S
C562 C564 1.386 . S
C563 C561 1.393 . S
C563 C562 1.392 . S
C563 H580 0.930 . S
C564 C562 1.386 . S
C564 C566 1.395 . S
C564 H581 0.930 . S
C565 C561 1.395 . S
C565 C566 1.379 . S
C565 H582 0.930 . S
C566 C564 1.395 . S
C566 C565 1.379 . S
C566 H583 0.930 . S
C567 O550 1.264 . S
C567 O551 1.254 . S
C568 Eu504 2.848 . S
C568 O548 1.257 . S
C568 O553 1.249 . S
C568 C561 1.492 . S
C569 H534 0.931 1_565 S
C569 C547 1.420 . S
C569 C570 1.351 1_565 S
C570 H532 0.930 . S
C570 C538 1.423 1_545 S
C570 C569 1.351 1_545 S
C571 O555 1.276 . S
C571 O558 1.235 . S
C572 C573 1.393 . S
C572 C576 1.395 . S
C572 C579 1.492 . S
C573 C572 1.393 . S
C573 C574 1.392 . S
C573 H584 0.930 . S
C574 C573 1.392 . S
C574 C575 1.386 . S
C575 C574 1.386 . S
C575 C577 1.395 . S
C575 H585 0.930 . S
C576 C572 1.395 . S
C576 C577 1.379 . S
C576 H586 0.930 . S
C577 C575 1.395 . S
C577 C576 1.379 . S
C577 H587 0.930 . S
C578 O556 1.264 . S
C578 O557 1.254 . S
C579 Eu515 2.848 . S
C579 O554 1.257 . S
C579 O559 1.249 . S
C579 C572 1.492 . S
H580 C563 0.930 . S
H581 C564 0.930 . S
H582 C565 0.930 . S
H583 C566 0.930 . S
H584 C573 0.930 . S
H585 C575 0.930 . S
H586 C576 0.930 . S
H587 C577 0.930 . S
Eu588 N619 2.657 . S
Eu588 N626 2.609 . S
Eu588 O632 2.558 . S
Eu588 O633 2.612 . S
Eu588 O635 2.339 . S
Eu588 O636 2.563 . S
Eu588 O637 2.419 . S
Eu588 O639 2.380 . S
Eu588 O640 2.432 . S
Eu588 C652 2.848 . S
C589 C592 1.429 . S
C589 C593 1.411 . S
C589 N596 1.377 . S
C590 C592 1.420 . S
C590 C594 1.423 . S
C590 C602 1.392 . S
C591 C593 1.420 . S
C591 C594 1.351 . S
C591 H614 0.931 1_655 S
C592 C589 1.429 . S
C592 C590 1.420 . S
C592 N600 1.362 . S
C593 C589 1.411 . S
C593 C591 1.420 . S
C593 C598 1.395 . S
C594 C590 1.423 . S
C594 C591 1.351 . S
C594 H606 0.930 1_655 S
C595 C597 1.400 . S
C595 C598 1.386 . S
C595 H607 0.930 . S
N596 C589 1.377 . S
N596 C597 1.321 . S
N596 Eu599 2.609 . S
C597 C595 1.400 . S
C597 N596 1.321 . S
C597 H604 0.930 . S
C598 C593 1.395 . S
C598 C595 1.386 . S
C598 H617 0.930 . S
Eu599 N596 2.609 . S
Eu599 N600 2.657 . S
Eu599 O633 2.380 . S
Eu599 O634 2.432 . S
Eu599 O638 2.558 . S
Eu599 O639 2.612 . S
Eu599 O641 2.339 . S
Eu599 O642 2.563 . S
Eu599 O643 2.419 . S
Eu599 C663 2.848 . S
N600 C592 1.362 . S
N600 Eu599 2.657 . S
N600 C601 1.334 . S
C601 N600 1.334 . S
C601 C603 1.413 . S
C601 H608 0.929 . S
C602 C590 1.392 . S
C602 C603 1.367 . S
C602 H610 0.930 . S
C603 C601 1.413 . S
C603 C602 1.367 . S
C603 H605 0.930 . S
H604 C597 0.930 . S
H605 C603 0.930 . S
H606 C594 0.930 1_455 S
H607 C595 0.930 . S
H608 C601 0.929 . S
H609 C623 0.930 . S
H610 C602 0.930 . S
H611 C629 0.930 . S
H612 C620 0.929 . S
H613 C627 0.964 . S
H614 C591 0.931 1_455 S
H615 C621 0.930 . S
H616 C654 0.930 . S
H617 C598 0.930 . S
H618 C653 0.931 . S
N619 Eu588 2.657 . S
N619 C620 1.334 . S
N619 C624 1.362 . S
C620 H612 0.929 . S
C620 N619 1.334 . S
C620 C623 1.413 . S
C621 H615 0.930 . S
C621 C622 1.392 . S
C621 C623 1.367 . S
C622 C621 1.392 . S
C622 C624 1.420 . S
C622 C654 1.423 . S
C623 H609 0.930 . S
C623 C620 1.413 . S
C623 C621 1.367 . S
C624 N619 1.362 . S
C624 C622 1.420 . S
C624 C628 1.429 . S
H625 C630 0.930 . S
N626 Eu588 2.609 . S
N626 C628 1.377 . S
N626 C629 1.321 . S
C627 H613 0.964 . S
C627 C629 1.400 . S
C627 C630 1.386 . S
C628 C624 1.429 . S
C628 N626 1.377 . S
C628 C631 1.411 . S
C629 H611 0.930 . S
C629 N626 1.321 . S
C629 C627 1.400 . S
C630 H625 0.930 . S
C630 C627 1.386 . S
C630 C631 1.395 . S
C631 C628 1.411 . S
C631 C630 1.395 . S
C631 C653 1.420 . S
O632 Eu588 2.558 . S
O632 C652 1.257 . S
O633 Eu588 2.612 . S
O633 Eu599 2.380 . S
O633 C644 1.276 . S
O634 Eu599 2.432 . S
O634 C651 1.264 . S
O635 Eu588 2.339 . S
O635 C651 1.254 . S
O636 Eu588 2.563 . S
O636 C644 1.235 . S
O637 Eu588 2.419 . S
O637 C652 1.249 . S
O638 Eu599 2.558 . S
O638 C663 1.257 . S
O639 Eu588 2.380 . S
O639 Eu599 2.612 . S
O639 C655 1.276 . S
O640 Eu588 2.432 . S
O640 C662 1.264 . S
O641 Eu599 2.339 . S
O641 C662 1.254 . S
O642 Eu599 2.563 . S
O642 C655 1.235 . S
O643 Eu599 2.419 . S
O643 C663 1.249 . S
C644 O633 1.276 . S
C644 O636 1.235 . S
C645 C647 1.393 . S
C645 C649 1.395 . S
C645 C652 1.492 . S
C646 C647 1.392 . S
C646 C648 1.386 . S
C647 C645 1.393 . S
C647 C646 1.392 . S
C647 H664 0.930 . S
C648 C646 1.386 . S
C648 C650 1.395 . S
C648 H665 0.930 . S
C649 C645 1.395 . S
C649 C650 1.379 . S
C649 H666 0.930 . S
C650 C648 1.395 . S
C650 C649 1.379 . S
C650 H667 0.930 . S
C651 O634 1.264 . S
C651 O635 1.254 . S
C652 Eu588 2.848 . S
C652 O632 1.257 . S
C652 O637 1.249 . S
C652 C645 1.492 . S
C653 H618 0.931 . S
C653 C631 1.420 . S
C653 C654 1.351 . S
C654 H616 0.930 . S
C654 C622 1.423 . S
C654 C653 1.351 . S
C655 O639 1.276 . S
C655 O642 1.235 . S
C656 C657 1.393 . S
C656 C660 1.395 . S
C656 C663 1.492 1_455 S
C657 C656 1.393 . S
C657 C658 1.392 . S
C657 H668 0.930 . S
C658 C657 1.392 . S
C658 C659 1.386 . S
C659 C658 1.386 . S
C659 C661 1.395 . S
C659 H669 0.930 . S
C660 C656 1.395 . S
C660 C661 1.379 . S
C660 H670 0.930 . S
C661 C659 1.395 . S
C661 C660 1.379 . S
C661 H671 0.930 . S
C662 O640 1.264 . S
C662 O641 1.254 . S
C663 Eu599 2.848 . S
C663 O638 1.257 . S
C663 O643 1.249 . S
C663 C656 1.492 1_655 S
H664 C647 0.930 . S
H665 C648 0.930 . S
H666 C649 0.930 . S
H667 C650 0.930 . S
H668 C657 0.930 . S
H669 C659 0.930 . S
H670 C660 0.930 . S
H671 C661 0.930 . S
Eu672 N703 2.657 . S
Eu672 N710 2.609 . S
Eu672 O716 2.558 . S
Eu672 O717 2.612 . S
Eu672 O719 2.339 . S
Eu672 O720 2.563 . S
Eu672 O721 2.419 . S
Eu672 O723 2.380 . S
Eu672 O724 2.432 . S
Eu672 C736 2.848 . S
C673 C676 1.429 . S
C673 C677 1.411 . S
C673 N680 1.377 . S
C674 C676 1.420 . S
C674 C678 1.423 . S
C674 C686 1.392 . S
C675 C677 1.420 . S
C675 C678 1.351 . S
C675 H698 0.931 1_565 S
C676 C673 1.429 . S
C676 C674 1.420 . S
C676 N684 1.362 . S
C677 C673 1.411 . S
C677 C675 1.420 . S
C677 C682 1.395 . S
C678 C674 1.423 . S
C678 C675 1.351 . S
C678 H690 0.930 1_565 S
C679 C681 1.400 . S
C679 C682 1.386 . S
C679 H691 0.930 . S
N680 C673 1.377 . S
N680 C681 1.321 . S
N680 Eu683 2.609 . S
C681 C679 1.400 . S
C681 N680 1.321 . S
C681 H688 0.930 . S
C682 C677 1.395 . S
C682 C679 1.386 . S
C682 H701 0.930 . S
Eu683 N680 2.609 . S
Eu683 N684 2.657 . S
Eu683 O717 2.380 . S
Eu683 O718 2.432 . S
Eu683 O722 2.558 . S
Eu683 O723 2.612 . S
Eu683 O725 2.339 . S
Eu683 O726 2.563 . S
Eu683 O727 2.419 . S
Eu683 C747 2.848 . S
N684 C676 1.362 . S
N684 Eu683 2.657 . S
N684 C685 1.334 . S
C685 N684 1.334 . S
C685 C687 1.413 . S
C685 H692 0.929 . S
C686 C674 1.392 . S
C686 C687 1.367 . S
C686 H694 0.930 . S
C687 C685 1.413 . S
C687 C686 1.367 . S
C687 H689 0.930 . S
H688 C681 0.930 . S
H689 C687 0.930 . S
H690 C678 0.930 1_545 S
H691 C679 0.930 . S
H692 C685 0.929 . S
H693 C707 0.930 . S
H694 C686 0.930 . S
H695 C713 0.930 . S
H696 C704 0.929 . S
H697 C711 0.930 . S
H698 C675 0.931 1_545 S
H699 C705 0.930 1_655 S
H700 C738 0.930 . S
H701 C682 0.930 . S
H702 C737 0.931 1_655 S
N703 Eu672 2.657 . S
N703 C704 1.334 . S
N703 C708 1.362 . S
C704 H696 0.929 . S
C704 N703 1.334 . S
C704 C707 1.413 . S
C705 H699 0.930 1_455 S
C705 C706 1.392 . S
C705 C707 1.367 . S
C706 C705 1.392 . S
C706 C708 1.420 . S
C706 C738 1.423 1_455 S
C707 H693 0.930 . S
C707 C704 1.413 . S
C707 C705 1.367 . S
C708 N703 1.362 . S
C708 C706 1.420 . S
C708 C712 1.429 . S
H709 C714 0.930 . S
N710 Eu672 2.609 . S
N710 C712 1.377 . S
N710 C713 1.321 . S
C711 H697 0.930 . S
C711 C713 1.400 . S
C711 C714 1.386 . S
C712 C708 1.429 . S
C712 N710 1.377 . S
C712 C715 1.411 . S
C713 H695 0.930 . S
C713 N710 1.321 . S
C713 C711 1.400 . S
C714 H709 0.930 . S
C714 C711 1.386 . S
C714 C715 1.395 . S
C715 C712 1.411 . S
C715 C714 1.395 . S
C715 C737 1.420 . S
O716 Eu672 2.558 . S
O716 C736 1.257 . S
O717 Eu672 2.612 . S
O717 Eu683 2.380 . S
O717 C728 1.276 . S
O718 Eu683 2.432 . S
O718 C735 1.264 . S
O719 Eu672 2.339 . S
O719 C735 1.254 . S
O720 Eu672 2.563 . S
O720 C728 1.235 . S
O721 Eu672 2.419 . S
O721 C736 1.249 . S
O722 Eu683 2.558 . S
O722 C747 1.257 . S
O723 Eu672 2.380 . S
O723 Eu683 2.612 . S
O723 C739 1.276 . S
O724 Eu672 2.432 . S
O724 C746 1.264 . S
O725 Eu683 2.339 . S
O725 C746 1.254 . S
O726 Eu683 2.563 . S
O726 C739 1.235 . S
O727 Eu683 2.419 . S
O727 C747 1.249 . S
C728 O717 1.276 . S
C728 O720 1.235 . S
C729 C731 1.393 . S
C729 C733 1.395 . S
C729 C736 1.492 . S
C730 C731 1.392 . S
C730 C732 1.386 . S
C731 C729 1.393 . S
C731 C730 1.392 . S
C731 H748 0.930 . S
C732 C730 1.386 . S
C732 C734 1.395 . S
C732 H749 0.930 . S
C733 C729 1.395 . S
C733 C734 1.379 . S
C733 H750 0.930 . S
C734 C732 1.395 . S
C734 C733 1.379 . S
C734 H751 0.930 . S
C735 O718 1.264 . S
C735 O719 1.254 . S
C736 Eu672 2.848 . S
C736 O716 1.257 . S
C736 O721 1.249 . S
C736 C729 1.492 . S
C737 H702 0.931 1_455 S
C737 C715 1.420 . S
C737 C738 1.351 1_455 S
C738 H700 0.930 . S
C738 C706 1.423 1_655 S
C738 C737 1.351 1_655 S
C739 O723 1.276 . S
C739 O726 1.235 . S
C740 C741 1.393 . S
C740 C744 1.395 . S
C740 C747 1.492 1_545 S
C741 C740 1.393 . S
C741 C742 1.392 . S
C741 H752 0.930 . S
C742 C741 1.392 . S
C742 C743 1.386 . S
C743 C742 1.386 . S
C743 C745 1.395 . S
C743 H753 0.930 . S
C744 C740 1.395 . S
C744 C745 1.379 . S
C744 H754 0.930 . S
C745 C743 1.395 . S
C745 C744 1.379 . S
C745 H755 0.930 . S
C746 O724 1.264 . S
C746 O725 1.254 . S
C747 Eu683 2.848 . S
C747 O722 1.257 . S
C747 O727 1.249 . S
C747 C740 1.492 1_565 S
H748 C731 0.930 . S
H749 C732 0.930 . S
H750 C733 0.930 . S
H751 C734 0.930 . S
H752 C741 0.930 . S
H753 C743 0.930 . S
H754 C744 0.930 . S
H755 C745 0.930 . S
Eu756 N787 2.657 . S
Eu756 N794 2.609 . S
Eu756 O800 2.558 . S
Eu756 O801 2.612 . S
Eu756 O803 2.339 . S
Eu756 O804 2.563 . S
Eu756 O805 2.419 . S
Eu756 O807 2.380 . S
Eu756 O808 2.432 . S
Eu756 C820 2.848 . S
C757 C760 1.429 . S
C757 C761 1.411 . S
C757 N764 1.377 . S
C758 C760 1.420 . S
C758 C762 1.423 . S
C758 C770 1.392 . S
C759 C761 1.420 . S
C759 C762 1.351 . S
C759 H782 0.931 . S
C760 C757 1.429 . S
C760 C758 1.420 . S
C760 N768 1.362 . S
C761 C757 1.411 . S
C761 C759 1.420 . S
C761 C766 1.395 . S
C762 C758 1.423 . S
C762 C759 1.351 . S
C762 H774 0.930 . S
C763 C765 1.400 . S
C763 C766 1.386 . S
C763 H775 0.930 . S
N764 C757 1.377 . S
N764 C765 1.321 . S
N764 Eu767 2.609 . S
C765 C763 1.400 . S
C765 N764 1.321 . S
C765 H772 0.930 . S
C766 C761 1.395 . S
C766 C763 1.386 . S
C766 H785 0.930 . S
Eu767 N764 2.609 . S
Eu767 N768 2.657 . S
Eu767 O801 2.380 . S
Eu767 O802 2.432 . S
Eu767 O806 2.558 . S
Eu767 O807 2.612 . S
Eu767 O809 2.339 . S
Eu767 O810 2.563 . S
Eu767 O811 2.419 . S
Eu767 C831 2.848 . S
N768 C760 1.362 . S
N768 Eu767 2.657 . S
N768 C769 1.334 . S
C769 N768 1.334 . S
C769 C771 1.413 . S
C769 H776 0.929 . S
C770 C758 1.392 . S
C770 C771 1.367 . S
C770 H778 0.930 . S
C771 C769 1.413 . S
C771 C770 1.367 . S
C771 H773 0.930 . S
H772 C765 0.930 . S
H773 C771 0.930 . S
H774 C762 0.930 . S
H775 C763 0.930 . S
H776 C769 0.929 . S
H777 C791 0.930 . S
H778 C770 0.930 . S
H779 C797 0.930 . S
H780 C788 0.929 . S
H781 C795 0.964 . S
H782 C759 0.931 . S
H783 C789 0.930 1_565 S
H784 C822 0.930 . S
H785 C766 0.930 . S
H786 C821 0.931 1_565 S
N787 Eu756 2.657 . S
N787 C788 1.334 . S
N787 C792 1.362 . S
C788 H780 0.929 . S
C788 N787 1.334 . S
C788 C791 1.413 . S
C789 H783 0.930 1_545 S
C789 C790 1.392 . S
C789 C791 1.367 . S
C790 C789 1.392 . S
C790 C792 1.420 . S
C790 C822 1.423 1_545 S
C791 H777 0.930 . S
C791 C788 1.413 . S
C791 C789 1.367 . S
C792 N787 1.362 . S
C792 C790 1.420 . S
C792 C796 1.429 . S
H793 C798 0.930 . S
N794 Eu756 2.609 . S
N794 C796 1.377 . S
N794 C797 1.321 . S
C795 H781 0.964 . S
C795 C797 1.400 . S
C795 C798 1.386 . S
C796 C792 1.429 . S
C796 N794 1.377 . S
C796 C799 1.411 . S
C797 H779 0.930 . S
C797 N794 1.321 . S
C797 C795 1.400 . S
C798 H793 0.930 . S
C798 C795 1.386 . S
C798 C799 1.395 . S
C799 C796 1.411 . S
C799 C798 1.395 . S
C799 C821 1.420 . S
O800 Eu756 2.558 . S
O800 C820 1.257 . S
O801 Eu756 2.612 . S
O801 Eu767 2.380 . S
O801 C812 1.276 . S
O802 Eu767 2.432 . S
O802 C819 1.264 . S
O803 Eu756 2.339 . S
O803 C819 1.254 . S
O804 Eu756 2.563 . S
O804 C812 1.235 . S
O805 Eu756 2.419 . S
O805 C820 1.249 . S
O806 Eu767 2.558 . S
O806 C831 1.257 . S
O807 Eu756 2.380 . S
O807 Eu767 2.612 . S
O807 C823 1.276 . S
O808 Eu756 2.432 . S
O808 C830 1.264 . S
O809 Eu767 2.339 . S
O809 C830 1.254 . S
O810 Eu767 2.563 . S
O810 C823 1.235 . S
O811 Eu767 2.419 . S
O811 C831 1.249 . S
C812 O801 1.276 . S
C812 O804 1.235 . S
C813 C815 1.393 . S
C813 C817 1.395 . S
C813 C820 1.492 . S
C814 C815 1.392 . S
C814 C816 1.386 . S
C815 C813 1.393 . S
C815 C814 1.392 . S
C815 H832 0.930 . S
C816 C814 1.386 . S
C816 C818 1.395 . S
C816 H833 0.930 . S
C817 C813 1.395 . S
C817 C818 1.379 . S
C817 H834 0.930 . S
C818 C816 1.395 . S
C818 C817 1.379 . S
C818 H835 0.930 . S
C819 O802 1.264 . S
C819 O803 1.254 . S
C820 Eu756 2.848 . S
C820 O800 1.257 . S
C820 O805 1.249 . S
C820 C813 1.492 . S
C821 H786 0.931 1_545 S
C821 C799 1.420 . S
C821 C822 1.351 1_545 S
C822 H784 0.930 . S
C822 C790 1.423 1_565 S
C822 C821 1.351 1_565 S
C823 O807 1.276 . S
C823 O810 1.235 . S
C824 C825 1.393 . S
C824 C828 1.395 . S
C824 C831 1.492 . S
C825 C824 1.393 . S
C825 C826 1.392 . S
C825 H836 0.930 . S
C826 C825 1.392 . S
C826 C827 1.386 . S
C827 C826 1.386 . S
C827 C829 1.395 . S
C827 H837 0.930 . S
C828 C824 1.395 . S
C828 C829 1.379 . S
C828 H838 0.930 . S
C829 C827 1.395 . S
C829 C828 1.379 . S
C829 H839 0.930 . S
C830 O808 1.264 . S
C830 O809 1.254 . S
C831 Eu767 2.848 . S
C831 O806 1.257 . S
C831 O811 1.249 . S
C831 C824 1.492 . S
H832 C815 0.930 . S
H833 C816 0.930 . S
H834 C817 0.930 . S
H835 C818 0.930 . S
H836 C825 0.930 . S
H837 C827 0.930 . S
H838 C828 0.930 . S
H839 C829 0.930 . S
Eu840 N871 2.657 . S
Eu840 N878 2.609 . S
Eu840 O884 2.558 . S
Eu840 O885 2.612 . S
Eu840 O887 2.339 . S
Eu840 O888 2.563 . S
Eu840 O889 2.419 . S
Eu840 O891 2.380 . S
Eu840 O892 2.432 . S
Eu840 C904 2.848 . S
C841 C844 1.429 . S
C841 C845 1.411 . S
C841 N848 1.377 . S
C842 C844 1.420 . S
C842 C846 1.423 . S
C842 C854 1.392 . S
C843 C845 1.420 . S
C843 C846 1.351 . S
C843 H866 0.931 1_455 S
C844 C841 1.429 . S
C844 C842 1.420 . S
C844 N852 1.362 . S
C845 C841 1.411 . S
C845 C843 1.420 . S
C845 C850 1.395 . S
C846 C842 1.423 . S
C846 C843 1.351 . S
C846 H858 0.930 1_455 S
C847 C849 1.400 . S
C847 C850 1.386 . S
C847 H859 0.930 . S
N848 C841 1.377 . S
N848 C849 1.321 . S
N848 Eu851 2.609 . S
C849 C847 1.400 . S
C849 N848 1.321 . S
C849 H856 0.930 . S
C850 C845 1.395 . S
C850 C847 1.386 . S
C850 H869 0.930 . S
Eu851 N848 2.609 . S
Eu851 N852 2.657 . S
Eu851 O885 2.380 . S
Eu851 O886 2.432 . S
Eu851 O890 2.558 . S
Eu851 O891 2.612 . S
Eu851 O893 2.339 . S
Eu851 O894 2.563 . S
Eu851 O895 2.419 . S
Eu851 C915 2.848 . S
N852 C844 1.362 . S
N852 Eu851 2.657 . S
N852 C853 1.334 . S
C853 N852 1.334 . S
C853 C855 1.413 . S
C853 H860 0.929 . S
C854 C842 1.392 . S
C854 C855 1.367 . S
C854 H862 0.930 . S
C855 C853 1.413 . S
C855 C854 1.367 . S
C855 H857 0.930 . S
H856 C849 0.930 . S
H857 C855 0.930 . S
H858 C846 0.930 1_655 S
H859 C847 0.930 . S
H860 C853 0.929 . S
H861 C875 0.930 . S
H862 C854 0.930 . S
H863 C881 0.930 . S
H864 C872 0.929 . S
H865 C879 0.930 . S
H866 C843 0.931 1_655 S
H867 C873 0.930 . S
H868 C906 0.930 . S
H869 C850 0.930 . S
H870 C905 0.931 . S
N871 Eu840 2.657 . S
N871 C872 1.334 . S
N871 C876 1.362 . S
C872 H864 0.929 . S
C872 N871 1.334 . S
C872 C875 1.413 . S
C873 H867 0.930 . S
C873 C874 1.392 . S
C873 C875 1.367 . S
C874 C873 1.392 . S
C874 C876 1.420 . S
C874 C906 1.423 . S
C875 H861 0.930 . S
C875 C872 1.413 . S
C875 C873 1.367 . S
C876 N871 1.362 . S
C876 C874 1.420 . S
C876 C880 1.429 . S
H877 C882 0.930 . S
N878 Eu840 2.609 . S
N878 C880 1.377 . S
N878 C881 1.321 . S
C879 H865 0.930 . S
C879 C881 1.400 . S
C879 C882 1.386 . S
C880 C876 1.429 . S
C880 N878 1.377 . S
C880 C883 1.411 . S
C881 H863 0.930 . S
C881 N878 1.321 . S
C881 C879 1.400 . S
C882 H877 0.930 . S
C882 C879 1.386 . S
C882 C883 1.395 . S
C883 C880 1.411 . S
C883 C882 1.395 . S
C883 C905 1.420 . S
O884 Eu840 2.558 . S
O884 C904 1.257 . S
O885 Eu840 2.612 . S
O885 Eu851 2.380 . S
O885 C896 1.276 . S
O886 Eu851 2.432 . S
O886 C903 1.264 . S
O887 Eu840 2.339 . S
O887 C903 1.254 . S
O888 Eu840 2.563 . S
O888 C896 1.235 . S
O889 Eu840 2.419 . S
O889 C904 1.249 . S
O890 Eu851 2.558 . S
O890 C915 1.257 . S
O891 Eu840 2.380 . S
O891 Eu851 2.612 . S
O891 C907 1.276 . S
O892 Eu840 2.432 . S
O892 C914 1.264 . S
O893 Eu851 2.339 . S
O893 C914 1.254 . S
O894 Eu851 2.563 . S
O894 C907 1.235 . S
O895 Eu851 2.419 . S
O895 C915 1.249 . S
C896 O885 1.276 . S
C896 O888 1.235 . S
C897 C899 1.393 . S
C897 C901 1.395 . S
C897 C904 1.492 . S
C898 C899 1.392 . S
C898 C900 1.386 . S
C899 C897 1.393 . S
C899 C898 1.392 . S
C899 H916 0.930 . S
C900 C898 1.386 . S
C900 C902 1.395 . S
C900 H917 0.930 . S
C901 C897 1.395 . S
C901 C902 1.379 . S
C901 H918 0.930 . S
C902 C900 1.395 . S
C902 C901 1.379 . S
C902 H919 0.930 . S
C903 O886 1.264 . S
C903 O887 1.254 . S
C904 Eu840 2.848 . S
C904 O884 1.257 . S
C904 O889 1.249 . S
C904 C897 1.492 . S
C905 H870 0.931 . S
C905 C883 1.420 . S
C905 C906 1.351 . S
C906 H868 0.930 . S
C906 C874 1.423 . S
C906 C905 1.351 . S
C907 O891 1.276 . S
C907 O894 1.235 . S
C908 C909 1.393 . S
C908 C912 1.395 . S
C908 C915 1.492 1_655 S
C909 C908 1.393 . S
C909 C910 1.392 . S
C909 H920 0.930 . S
C910 C909 1.392 . S
C910 C911 1.386 . S
C911 C910 1.386 . S
C911 C913 1.395 . S
C911 H921 0.930 . S
C912 C908 1.395 . S
C912 C913 1.379 . S
C912 H922 0.930 . S
C913 C911 1.395 . S
C913 C912 1.379 . S
C913 H923 0.930 . S
C914 O892 1.264 . S
C914 O893 1.254 . S
C915 Eu851 2.848 . S
C915 O890 1.257 . S
C915 O895 1.249 . S
C915 C908 1.492 1_455 S
H916 C899 0.930 . S
H917 C900 0.930 . S
H918 C901 0.930 . S
H919 C902 0.930 . S
H920 C909 0.930 . S
H921 C911 0.930 . S
H922 C912 0.930 . S
H923 C913 0.930 . S
Eu924 N955 2.657 . S
Eu924 N962 2.609 . S
Eu924 O968 2.558 . S
Eu924 O969 2.612 . S
Eu924 O971 2.339 . S
Eu924 O972 2.563 . S
Eu924 O973 2.419 . S
Eu924 O975 2.380 . S
Eu924 O976 2.432 . S
Eu924 C988 2.848 . S
C925 C928 1.429 . S
C925 C929 1.411 . S
C925 N932 1.377 . S
C926 C928 1.420 . S
C926 C930 1.423 . S
C926 C938 1.392 . S
C927 C929 1.420 . S
C927 C930 1.351 . S
C927 H950 0.931 1_545 S
C928 C925 1.429 . S
C928 C926 1.420 . S
C928 N936 1.362 . S
C929 C925 1.411 . S
C929 C927 1.420 . S
C929 C934 1.395 . S
C930 C926 1.423 . S
C930 C927 1.351 . S
C930 H942 0.930 1_545 S
C931 C933 1.400 . S
C931 C934 1.386 . S
C931 H943 0.930 . S
N932 C925 1.377 . S
N932 C933 1.321 . S
N932 Eu935 2.609 . S
C933 C931 1.400 . S
C933 N932 1.321 . S
C933 H940 0.930 . S
C934 C929 1.395 . S
C934 C931 1.386 . S
C934 H953 0.930 . S
Eu935 N932 2.609 . S
Eu935 N936 2.657 . S
Eu935 O969 2.380 . S
Eu935 O970 2.432 . S
Eu935 O974 2.558 . S
Eu935 O975 2.612 . S
Eu935 O977 2.339 . S
Eu935 O978 2.563 . S
Eu935 O979 2.419 . S
Eu935 C999 2.848 . S
N936 C928 1.362 . S
N936 Eu935 2.657 . S
N936 C937 1.334 . S
C937 N936 1.334 . S
C937 C939 1.413 . S
C937 H944 0.929 . S
C938 C926 1.392 . S
C938 C939 1.367 . S
C938 H946 0.930 . S
C939 C937 1.413 . S
C939 C938 1.367 . S
C939 H941 0.930 . S
H940 C933 0.930 . S
H941 C939 0.930 . S
H942 C930 0.930 1_565 S
H943 C931 0.930 . S
H944 C937 0.929 . S
H945 C959 0.930 . S
H946 C938 0.930 . S
H947 C965 0.930 . S
H948 C956 0.929 . S
H949 C963 0.964 . S
H950 C927 0.931 1_565 S
H951 C957 0.930 1_455 S
H952 C990 0.930 . S
H953 C934 0.930 . S
H954 C989 0.931 1_455 S
N955 Eu924 2.657 . S
N955 C956 1.334 . S
N955 C960 1.362 . S
C956 H948 0.929 . S
C956 N955 1.334 . S
C956 C959 1.413 . S
C957 H951 0.930 1_655 S
C957 C958 1.392 . S
C957 C959 1.367 . S
C958 C957 1.392 . S
C958 C960 1.420 . S
C958 C990 1.423 1_655 S
C959 H945 0.930 . S
C959 C956 1.413 . S
C959 C957 1.367 . S
C960 N955 1.362 . S
C960 C958 1.420 . S
C960 C964 1.429 . S
H961 C966 0.930 . S
N962 Eu924 2.609 . S
N962 C964 1.377 . S
N962 C965 1.321 . S
C963 H949 0.964 . S
C963 C965 1.400 . S
C963 C966 1.386 . S
C964 C960 1.429 . S
C964 N962 1.377 . S
C964 C967 1.411 . S
C965 H947 0.930 . S
C965 N962 1.321 . S
C965 C963 1.400 . S
C966 H961 0.930 . S
C966 C963 1.386 . S
C966 C967 1.395 . S
C967 C964 1.411 . S
C967 C966 1.395 . S
C967 C989 1.420 . S
O968 Eu924 2.558 . S
O968 C988 1.257 . S
O969 Eu924 2.612 . S
O969 Eu935 2.380 . S
O969 C980 1.276 . S
O970 Eu935 2.432 . S
O970 C987 1.264 . S
O971 Eu924 2.339 . S
O971 C987 1.254 . S
O972 Eu924 2.563 . S
O972 C980 1.235 . S
O973 Eu924 2.419 . S
O973 C988 1.249 . S
O974 Eu935 2.558 . S
O974 C999 1.257 . S
O975 Eu924 2.380 . S
O975 Eu935 2.612 . S
O975 C991 1.276 . S
O976 Eu924 2.432 . S
O976 C998 1.264 . S
O977 Eu935 2.339 . S
O977 C998 1.254 . S
O978 Eu935 2.563 . S
O978 C991 1.235 . S
O979 Eu935 2.419 . S
O979 C999 1.249 . S
C980 O969 1.276 . S
C980 O972 1.235 . S
C981 C983 1.393 . S
C981 C985 1.395 . S
C981 C988 1.492 . S
C982 C983 1.392 . S
C982 C984 1.386 . S
C983 C981 1.393 . S
C983 C982 1.392 . S
C983 H1000 0.930 . S
C984 C982 1.386 . S
C984 C986 1.395 . S
C984 H1001 0.930 . S
C985 C981 1.395 . S
C985 C986 1.379 . S
C985 H1002 0.930 . S
C986 C984 1.395 . S
C986 C985 1.379 . S
C986 H1003 0.930 . S
C987 O970 1.264 . S
C987 O971 1.254 . S
C988 Eu924 2.848 . S
C988 O968 1.257 . S
C988 O973 1.249 . S
C988 C981 1.492 . S
C989 H954 0.931 1_655 S
C989 C967 1.420 . S
C989 C990 1.351 1_655 S
C990 H952 0.930 . S
C990 C958 1.423 1_455 S
C990 C989 1.351 1_455 S
C991 O975 1.276 . S
C991 O978 1.235 . S
C992 C993 1.393 . S
C992 C996 1.395 . S
C992 C999 1.492 1_565 S
C993 C992 1.393 . S
C993 C994 1.392 . S
C993 H1004 0.930 . S
C994 C993 1.392 . S
C994 C995 1.386 . S
C995 C994 1.386 . S
C995 C997 1.395 . S
C995 H1005 0.930 . S
C996 C992 1.395 . S
C996 C997 1.379 . S
C996 H1006 0.930 . S
C997 C995 1.395 . S
C997 C996 1.379 . S
C997 H1007 0.930 . S
C998 O976 1.264 . S
C998 O977 1.254 . S
C999 Eu935 2.848 . S
C999 O974 1.257 . S
C999 O979 1.249 . S
C999 C992 1.492 1_545 S
H1000 C983 0.930 . S
H1001 C984 0.930 . S
H1002 C985 0.930 . S
H1003 C986 0.930 . S
H1004 C993 0.930 . S
H1005 C995 0.930 . S
H1006 C996 0.930 . S
H1007 C997 0.930 . S
H1008 C1014 0.930 . S
H1009 C1018 0.930 . S
H1010 C1023 0.929 . S
H1011 C1021 0.929 . S
H1012 C1016 0.929 . S
H1013 C1022 0.929 . S
C1014 H1008 0.930 . S
C1014 C1015 1.367 . S
C1014 C1022 1.378 . S
C1015 C1014 1.367 . S
C1015 C1023 1.433 . S
C1016 H1012 0.929 . S
C1016 C1018 1.378 . S
C1016 C1020 1.350 . S
C1017 C1020 1.463 1_565 S
C1017 C1022 1.350 . S
C1017 N1025 1.427 . S
C1018 H1009 0.930 . S
C1018 C1016 1.378 . S
C1018 C1019 1.367 . S
C1019 C1018 1.367 . S
C1019 C1021 1.433 . S
C1020 C1016 1.350 . S
C1020 C1017 1.463 1_545 S
C1020 N1024 1.427 . S
C1021 H1011 0.929 . S
C1021 C1019 1.433 . S
C1021 N1024 1.384 . S
C1022 H1013 0.929 . S
C1022 C1014 1.378 . S
C1022 C1017 1.350 . S
C1023 H1010 0.929 . S
C1023 C1015 1.433 . S
C1023 N1025 1.384 . S
N1024 C1020 1.427 . S
N1024 C1021 1.384 . S
N1025 C1017 1.427 . S
N1025 C1023 1.384 . S
H1026 C1032 0.930 . S
H1027 C1036 0.930 . S
H1028 C1041 0.929 . S
H1029 C1039 0.929 . S
H1030 C1034 0.929 . S
H1031 C1040 0.929 . S
C1032 H1026 0.930 . S
C1032 C1033 1.367 . S
C1032 C1040 1.378 . S
C1033 C1032 1.367 . S
C1033 C1041 1.433 . S
C1034 H1030 0.929 . S
C1034 C1036 1.378 . S
C1034 C1038 1.350 . S
C1035 C1038 1.463 . S
C1035 C1040 1.350 . S
C1035 N1043 1.427 . S
C1036 H1027 0.930 . S
C1036 C1034 1.378 . S
C1036 C1037 1.367 . S
C1037 C1036 1.367 . S
C1037 C1039 1.433 . S
C1038 C1034 1.350 . S
C1038 C1035 1.463 . S
C1038 N1042 1.427 . S
C1039 H1029 0.929 . S
C1039 C1037 1.433 . S
C1039 N1042 1.384 . S
C1040 H1031 0.929 . S
C1040 C1032 1.378 . S
C1040 C1035 1.350 . S
C1041 H1028 0.929 . S
C1041 C1033 1.433 . S
C1041 N1043 1.384 . S
N1042 C1038 1.427 . S
N1042 C1039 1.384 . S
N1043 C1035 1.427 . S
N1043 C1041 1.384 . S
H1044 C1050 0.930 . S
H1045 C1054 0.930 . S
H1046 C1059 0.929 . S
H1047 C1057 0.929 . S
H1048 C1052 0.929 . S
H1049 C1058 0.929 . S
C1050 H1044 0.930 . S
C1050 C1051 1.367 . S
C1050 C1058 1.378 . S
C1051 C1050 1.367 . S
C1051 C1059 1.433 . S
C1052 H1048 0.929 . S
C1052 C1054 1.378 . S
C1052 C1056 1.350 . S
C1053 C1056 1.463 1_655 S
C1053 C1058 1.350 . S
C1053 N1061 1.427 . S
C1054 H1045 0.930 . S
C1054 C1052 1.378 . S
C1054 C1055 1.367 . S
C1055 C1054 1.367 . S
C1055 C1057 1.433 . S
C1056 C1052 1.350 . S
C1056 C1053 1.463 1_455 S
C1056 N1060 1.427 . S
C1057 H1047 0.929 . S
C1057 C1055 1.433 . S
C1057 N1060 1.384 . S
C1058 H1049 0.929 . S
C1058 C1050 1.378 . S
C1058 C1053 1.350 . S
C1059 H1046 0.929 . S
C1059 C1051 1.433 . S
C1059 N1061 1.384 . S
N1060 C1056 1.427 . S
N1060 C1057 1.384 . S
N1061 C1053 1.427 . S
N1061 C1059 1.384 . S
H1062 C1068 0.930 . S
H1063 C1072 0.930 . S
H1064 C1077 0.929 . S
H1065 C1075 0.929 . S
H1066 C1070 0.929 . S
H1067 C1076 0.929 . S
C1068 H1062 0.930 . S
C1068 C1069 1.367 . S
C1068 C1076 1.378 . S
C1069 C1068 1.367 . S
C1069 C1077 1.433 . S
C1070 H1066 0.929 . S
C1070 C1072 1.378 . S
C1070 C1074 1.350 . S
C1071 C1074 1.463 1_565 S
C1071 C1076 1.350 . S
C1071 N1079 1.427 . S
C1072 H1063 0.930 . S
C1072 C1070 1.378 . S
C1072 C1073 1.367 . S
C1073 C1072 1.367 . S
C1073 C1075 1.433 . S
C1074 C1070 1.350 . S
C1074 C1071 1.463 1_545 S
C1074 N1078 1.427 . S
C1075 H1065 0.929 . S
C1075 C1073 1.433 . S
C1075 N1078 1.384 . S
C1076 H1067 0.929 . S
C1076 C1068 1.378 . S
C1076 C1071 1.350 . S
C1077 H1064 0.929 . S
C1077 C1069 1.433 . S
C1077 N1079 1.384 . S
N1078 C1074 1.427 . S
N1078 C1075 1.384 . S
N1079 C1071 1.427 . S
N1079 C1077 1.384 . S
H1080 C1086 0.930 . S
H1081 C1090 0.930 . S
H1082 C1095 0.929 . S
H1083 C1093 0.929 . S
H1084 C1088 0.929 . S
H1085 C1094 0.929 . S
C1086 H1080 0.930 . S
C1086 C1087 1.367 . S
C1086 C1094 1.378 . S
C1087 C1086 1.367 . S
C1087 C1095 1.433 . S
C1088 H1084 0.929 . S
C1088 C1090 1.378 . S
C1088 C1092 1.350 . S
C1089 C1092 1.463 . S
C1089 C1094 1.350 . S
C1089 N1097 1.427 . S
C1090 H1081 0.930 . S
C1090 C1088 1.378 . S
C1090 C1091 1.367 . S
C1091 C1090 1.367 . S
C1091 C1093 1.433 . S
C1092 C1088 1.350 . S
C1092 C1089 1.463 . S
C1092 N1096 1.427 . S
C1093 H1083 0.929 . S
C1093 C1091 1.433 . S
C1093 N1096 1.384 . S
C1094 H1085 0.929 . S
C1094 C1086 1.378 . S
C1094 C1089 1.350 . S
C1095 H1082 0.929 . S
C1095 C1087 1.433 . S
C1095 N1097 1.384 . S
N1096 C1092 1.427 . S
N1096 C1093 1.384 . S
N1097 C1089 1.427 . S
N1097 C1095 1.384 . S
H1098 C1104 0.930 . S
H1099 C1108 0.930 . S
H1100 C1113 0.929 . S
H1101 C1111 0.929 . S
H1102 C1106 0.929 . S
H1103 C1112 0.929 . S
C1104 H1098 0.930 . S
C1104 C1105 1.367 . S
C1104 C1112 1.378 . S
C1105 C1104 1.367 . S
C1105 C1113 1.433 . S
C1106 H1102 0.929 . S
C1106 C1108 1.378 . S
C1106 C1110 1.350 . S
C1107 C1110 1.463 1_655 S
C1107 C1112 1.350 . S
C1107 N1115 1.427 . S
C1108 H1099 0.930 . S
C1108 C1106 1.378 . S
C1108 C1109 1.367 . S
C1109 C1108 1.367 . S
C1109 C1111 1.433 . S
C1110 C1106 1.350 . S
C1110 C1107 1.463 1_455 S
C1110 N1114 1.427 . S
C1111 H1101 0.929 . S
C1111 C1109 1.433 . S
C1111 N1114 1.384 . S
C1112 H1103 0.929 . S
C1112 C1104 1.378 . S
C1112 C1107 1.350 . S
C1113 H1100 0.929 . S
C1113 C1105 1.433 . S
C1113 N1115 1.384 . S
N1114 C1110 1.427 . S
N1114 C1111 1.384 . S
N1115 C1107 1.427 . S
N1115 C1113 1.384 . S
H1116 C1122 0.930 . S
H1117 C1126 0.930 . S
H1118 C1131 0.929 . S
H1119 C1129 0.929 . S
H1120 C1124 0.929 . S
H1121 C1130 0.929 . S
C1122 H1116 0.930 . S
C1122 C1123 1.367 . S
C1122 C1130 1.378 . S
C1123 C1122 1.367 . S
C1123 C1131 1.433 . S
C1124 H1120 0.929 . S
C1124 C1126 1.378 . S
C1124 C1128 1.350 . S
C1125 C1128 1.463 1_455 S
C1125 C1130 1.350 . S
C1125 N1133 1.427 . S
C1126 H1117 0.930 . S
C1126 C1124 1.378 . S
C1126 C1127 1.367 . S
C1127 C1126 1.367 . S
C1127 C1129 1.433 . S
C1128 C1124 1.350 . S
C1128 C1125 1.463 1_655 S
C1128 N1132 1.427 . S
C1129 H1119 0.929 . S
C1129 C1127 1.433 . S
C1129 N1132 1.384 . S
C1130 H1121 0.929 . S
C1130 C1122 1.378 . S
C1130 C1125 1.350 . S
C1131 H1118 0.929 . S
C1131 C1123 1.433 . S
C1131 N1133 1.384 . S
N1132 C1128 1.427 . S
N1132 C1129 1.384 . S
N1133 C1125 1.427 . S
N1133 C1131 1.384 . S
H1134 C1140 0.930 . S
H1135 C1144 0.930 . S
H1136 C1149 0.929 . S
H1137 C1147 0.929 . S
H1138 C1142 0.923 1_565 S
H1139 C1148 0.929 . S
C1140 H1134 0.930 . S
C1140 C1141 1.367 . S
C1140 C1148 1.378 . S
C1141 C1140 1.367 . S
C1141 C1149 1.433 . S
C1142 H1138 0.923 1_545 S
C1142 C1144 1.378 . S
C1142 C1146 1.350 . S
C1143 C1146 1.463 1_565 S
C1143 C1148 1.350 . S
C1143 N1151 1.427 . S
C1144 H1135 0.930 . S
C1144 C1142 1.378 . S
C1144 C1145 1.367 . S
C1145 C1144 1.367 . S
C1145 C1147 1.433 . S
C1146 C1142 1.350 . S
C1146 C1143 1.463 1_545 S
C1146 N1150 1.427 . S
C1147 H1137 0.929 . S
C1147 C1145 1.433 . S
C1147 N1150 1.384 . S
C1148 H1139 0.929 . S
C1148 C1140 1.378 . S
C1148 C1143 1.350 . S
C1149 H1136 0.929 . S
C1149 C1141 1.433 . S
C1149 N1151 1.384 . S
N1150 C1146 1.427 . S
N1150 C1147 1.384 . S
N1151 C1143 1.427 . S
N1151 C1149 1.384 . S
H1152 C1158 0.930 . S
H1153 C1162 0.930 . S
H1154 C1167 0.929 . S
H1155 C1165 0.929 . S
H1156 C1160 0.929 . S
H1157 C1166 0.929 . S
C1158 H1152 0.930 . S
C1158 C1159 1.367 . S
C1158 C1166 1.378 . S
C1159 C1158 1.367 . S
C1159 C1167 1.433 . S
C1160 H1156 0.929 . S
C1160 C1162 1.378 . S
C1160 C1164 1.350 . S
C1161 C1164 1.463 . S
C1161 C1166 1.350 . S
C1161 N1169 1.427 . S
C1162 H1153 0.930 . S
C1162 C1160 1.378 . S
C1162 C1163 1.367 . S
C1163 C1162 1.367 . S
C1163 C1165 1.433 . S
C1164 C1160 1.350 . S
C1164 C1161 1.463 . S
C1164 N1168 1.427 . S
C1165 H1155 0.929 . S
C1165 C1163 1.433 . S
C1165 N1168 1.384 . S
C1166 H1157 0.929 . S
C1166 C1158 1.378 . S
C1166 C1161 1.350 . S
C1167 H1154 0.929 . S
C1167 C1159 1.433 . S
C1167 N1169 1.384 . S
N1168 C1164 1.427 . S
N1168 C1165 1.384 . S
N1169 C1161 1.427 . S
N1169 C1167 1.384 . S
H1170 C1176 0.930 . S
H1171 C1180 0.930 . S
H1172 C1185 0.929 . S
H1173 C1183 0.929 . S
H1174 C1178 0.929 . S
H1175 C1184 0.929 . S
C1176 H1170 0.930 . S
C1176 C1177 1.367 . S
C1176 C1184 1.378 . S
C1177 C1176 1.367 . S
C1177 C1185 1.433 . S
C1178 H1174 0.929 . S
C1178 C1180 1.378 . S
C1178 C1182 1.350 . S
C1179 C1182 1.463 1_455 S
C1179 C1184 1.350 . S
C1179 N1187 1.427 . S
C1180 H1171 0.930 . S
C1180 C1178 1.378 . S
C1180 C1181 1.367 . S
C1181 C1180 1.367 . S
C1181 C1183 1.433 . S
C1182 C1178 1.350 . S
C1182 C1179 1.463 1_655 S
C1182 N1186 1.427 . S
C1183 H1173 0.929 . S
C1183 C1181 1.433 . S
C1183 N1186 1.384 . S
C1184 H1175 0.929 . S
C1184 C1176 1.378 . S
C1184 C1179 1.350 . S
C1185 H1172 0.929 . S
C1185 C1177 1.433 . S
C1185 N1187 1.384 . S
N1186 C1182 1.427 . S
N1186 C1183 1.384 . S
N1187 C1179 1.427 . S
N1187 C1185 1.384 . S
H1188 C1194 0.930 . S
H1189 C1198 0.930 . S
H1190 C1203 0.929 . S
H1191 C1201 0.929 . S
H1192 C1196 0.914 1_545 S
H1193 C1202 0.929 . S
C1194 H1188 0.930 . S
C1194 C1195 1.367 . S
C1194 C1202 1.378 . S
C1195 C1194 1.367 . S
C1195 C1203 1.433 . S
C1196 H1192 0.914 1_565 S
C1196 C1198 1.378 . S
C1196 C1200 1.350 . S
C1197 C1200 1.463 1_545 S
C1197 C1202 1.350 . S
C1197 N1205 1.427 . S
C1198 H1189 0.930 . S
C1198 C1196 1.378 . S
C1198 C1199 1.367 . S
C1199 C1198 1.367 . S
C1199 C1201 1.433 . S
C1200 C1196 1.350 . S
C1200 C1197 1.463 1_565 S
C1200 N1204 1.427 . S
C1201 H1191 0.929 . S
C1201 C1199 1.433 . S
C1201 N1204 1.384 . S
C1202 H1193 0.929 . S
C1202 C1194 1.378 . S
C1202 C1197 1.350 . S
C1203 H1190 0.929 . S
C1203 C1195 1.433 . S
C1203 N1205 1.384 . S
N1204 C1200 1.427 . S
N1204 C1201 1.384 . S
N1205 C1197 1.427 . S
N1205 C1203 1.384 . S
H1206 C1212 0.930 . S
H1207 C1216 0.930 . S
H1208 C1221 0.929 . S
H1209 C1219 0.929 . S
H1210 C1214 0.929 . S
H1211 C1220 0.929 . S
C1212 H1206 0.930 . S
C1212 C1213 1.367 . S
C1212 C1220 1.378 . S
C1213 C1212 1.367 . S
C1213 C1221 1.433 . S
C1214 H1210 0.929 . S
C1214 C1216 1.378 . S
C1214 C1218 1.350 . S
C1215 C1218 1.463 . S
C1215 C1220 1.350 . S
C1215 N1223 1.427 . S
C1216 H1207 0.930 . S
C1216 C1214 1.378 . S
C1216 C1217 1.367 . S
C1217 C1216 1.367 . S
C1217 C1219 1.433 . S
C1218 C1214 1.350 . S
C1218 C1215 1.463 . S
C1218 N1222 1.427 . S
C1219 H1209 0.929 . S
C1219 C1217 1.433 . S
C1219 N1222 1.384 . S
C1220 H1211 0.929 . S
C1220 C1212 1.378 . S
C1220 C1215 1.350 . S
C1221 H1208 0.929 . S
C1221 C1213 1.433 . S
C1221 N1223 1.384 . S
N1222 C1218 1.427 . S
N1222 C1219 1.384 . S
N1223 C1215 1.427 . S
N1223 C1221 1.384 . S
H1224 C1230 0.930 . S
H1225 C1234 0.930 . S
H1226 C1239 0.929 . S
H1227 C1237 0.929 . S
H1228 C1232 0.929 . S
H1229 C1238 0.929 . S
C1230 H1224 0.930 . S
C1230 C1231 1.367 . S
C1230 C1238 1.378 . S
C1231 C1230 1.367 . S
C1231 C1239 1.433 . S
C1232 H1228 0.929 . S
C1232 C1234 1.378 . S
C1232 C1236 1.350 . S
C1233 C1236 1.463 . S
C1233 C1238 1.350 . S
C1233 N1241 1.427 . S
C1234 H1225 0.930 . S
C1234 C1232 1.378 . S
C1234 C1235 1.367 . S
C1235 C1234 1.367 . S
C1235 C1237 1.433 . S
C1236 C1232 1.350 . S
C1236 C1233 1.463 . S
C1236 N1240 1.427 . S
C1237 H1227 0.929 . S
C1237 C1235 1.433 . S
C1237 N1240 1.384 . S
C1238 H1229 0.929 . S
C1238 C1230 1.378 . S
C1238 C1233 1.350 . S
C1239 H1226 0.929 . S
C1239 C1231 1.433 . S
C1239 N1241 1.384 . S
N1240 C1236 1.427 . S
N1240 C1237 1.384 . S
N1241 C1233 1.427 . S
N1241 C1239 1.384 . S
H1242 C1248 0.930 . S
H1243 C1252 0.930 . S
H1244 C1257 0.929 . S
H1245 C1255 0.929 . S
H1246 C1250 0.929 . S
H1247 C1256 0.929 . S
C1248 H1242 0.930 . S
C1248 C1249 1.367 . S
C1248 C1256 1.378 . S
C1249 C1248 1.367 . S
C1249 C1257 1.433 . S
C1250 H1246 0.929 . S
C1250 C1252 1.378 . S
C1250 C1254 1.350 . S
C1251 C1254 1.463 . S
C1251 C1256 1.350 . S
C1251 N1259 1.427 . S
C1252 H1243 0.930 . S
C1252 C1250 1.378 . S
C1252 C1253 1.367 . S
C1253 C1252 1.367 . S
C1253 C1255 1.433 . S
C1254 C1250 1.350 . S
C1254 C1251 1.463 . S
C1254 N1258 1.427 . S
C1255 H1245 0.929 . S
C1255 C1253 1.433 . S
C1255 N1258 1.384 . S
C1256 H1247 0.929 . S
C1256 C1248 1.378 . S
C1256 C1251 1.350 . S
C1257 H1244 0.929 . S
C1257 C1249 1.433 . S
C1257 N1259 1.384 . S
N1258 C1254 1.427 . S
N1258 C1255 1.384 . S
N1259 C1251 1.427 . S
N1259 C1257 1.384 . S
H1260 C1266 0.930 . S
H1261 C1270 0.930 . S
H1262 C1275 0.929 . S
H1263 C1273 0.929 . S
H1264 C1268 0.929 . S
H1265 C1274 0.929 . S
C1266 H1260 0.930 . S
C1266 C1267 1.367 . S
C1266 C1274 1.378 . S
C1267 C1266 1.367 . S
C1267 C1275 1.433 . S
C1268 H1264 0.929 . S
C1268 C1270 1.378 . S
C1268 C1272 1.350 . S
C1269 C1272 1.463 . S
C1269 C1274 1.350 . S
C1269 N1277 1.427 . S
C1270 H1261 0.930 . S
C1270 C1268 1.378 . S
C1270 C1271 1.367 . S
C1271 C1270 1.367 . S
C1271 C1273 1.433 . S
C1272 C1268 1.350 . S
C1272 C1269 1.463 . S
C1272 N1276 1.427 . S
C1273 H1263 0.929 . S
C1273 C1271 1.433 . S
C1273 N1276 1.384 . S
C1274 H1265 0.929 . S
C1274 C1266 1.378 . S
C1274 C1269 1.350 . S
C1275 H1262 0.929 . S
C1275 C1267 1.433 . S
C1275 N1277 1.384 . S
N1276 C1272 1.427 . S
N1276 C1273 1.384 . S
N1277 C1269 1.427 . S
N1277 C1275 1.384 . S
H1278 C1284 0.930 . S
H1279 C1288 0.930 . S
H1280 C1293 0.929 . S
H1281 C1291 0.929 . S
H1282 C1286 0.929 . S
H1283 C1292 0.929 . S
C1284 H1278 0.930 . S
C1284 C1285 1.367 . S
C1284 C1292 1.378 . S
C1285 C1284 1.367 . S
C1285 C1293 1.433 . S
C1286 H1282 0.929 . S
C1286 C1288 1.378 . S
C1286 C1290 1.350 . S
C1287 C1290 1.463 . S
C1287 C1292 1.350 . S
C1287 N1295 1.427 . S
C1288 H1279 0.930 . S
C1288 C1286 1.378 . S
C1288 C1289 1.367 . S
C1289 C1288 1.367 . S
C1289 C1291 1.433 . S
C1290 C1286 1.350 . S
C1290 C1287 1.463 . S
C1290 N1294 1.427 . S
C1291 H1281 0.929 . S
C1291 C1289 1.433 . S
C1291 N1294 1.384 . S
C1292 H1283 0.929 . S
C1292 C1284 1.378 . S
C1292 C1287 1.350 . S
C1293 H1280 0.929 . S
C1293 C1285 1.433 . S
C1293 N1295 1.384 . S
N1294 C1290 1.427 . S
N1294 C1291 1.384 . S
N1295 C1287 1.427 . S
N1295 C1293 1.384 . S
H1296 C1302 0.930 . S
H1297 C1306 0.930 . S
H1298 C1311 0.929 . S
H1299 C1309 0.929 . S
H1300 C1304 0.929 . S
H1301 C1310 0.929 . S
C1302 H1296 0.930 . S
C1302 C1303 1.367 . S
C1302 C1310 1.378 . S
C1303 C1302 1.367 . S
C1303 C1311 1.433 . S
C1304 H1300 0.929 . S
C1304 C1306 1.378 . S
C1304 C1308 1.350 . S
C1305 C1308 1.463 . S
C1305 C1310 1.350 . S
C1305 N1313 1.427 . S
C1306 H1297 0.930 . S
C1306 C1304 1.378 . S
C1306 C1307 1.367 . S
C1307 C1306 1.367 . S
C1307 C1309 1.433 . S
C1308 C1304 1.350 . S
C1308 C1305 1.463 . S
C1308 N1312 1.427 . S
C1309 H1299 0.929 . S
C1309 C1307 1.433 . S
C1309 N1312 1.384 . S
C1310 H1301 0.929 . S
C1310 C1302 1.378 . S
C1310 C1305 1.350 . S
C1311 H1298 0.929 . S
C1311 C1303 1.433 . S
C1311 N1313 1.384 . S
N1312 C1308 1.427 . S
N1312 C1309 1.384 . S
N1313 C1305 1.427 . S
N1313 C1311 1.384 . S
H1314 C1320 0.930 . S
H1315 C1324 0.930 . S
H1316 C1329 0.929 . S
H1317 C1327 0.929 . S
H1318 C1322 0.929 . S
H1319 C1328 0.929 . S
C1320 H1314 0.930 . S
C1320 C1321 1.367 . S
C1320 C1328 1.378 . S
C1321 C1320 1.367 . S
C1321 C1329 1.433 . S
C1322 H1318 0.929 . S
C1322 C1324 1.378 . S
C1322 C1326 1.350 . S
C1323 C1326 1.463 . S
C1323 C1328 1.350 . S
C1323 N1331 1.427 . S
C1324 H1315 0.930 . S
C1324 C1322 1.378 . S
C1324 C1325 1.367 . S
C1325 C1324 1.367 . S
C1325 C1327 1.433 . S
C1326 C1322 1.350 . S
C1326 C1323 1.463 . S
C1326 N1330 1.427 . S
C1327 H1317 0.929 . S
C1327 C1325 1.433 . S
C1327 N1330 1.384 . S
C1328 H1319 0.929 . S
C1328 C1320 1.378 . S
C1328 C1323 1.350 . S
C1329 H1316 0.929 . S
C1329 C1321 1.433 . S
C1329 N1331 1.384 . S
N1330 C1326 1.427 . S
N1330 C1327 1.384 . S
N1331 C1323 1.427 . S
N1331 C1329 1.384 . S
H1332 C1338 0.930 . S
H1333 C1342 0.930 . S
H1334 C1347 0.929 . S
H1335 C1345 0.929 . S
H1336 C1340 0.929 . S
H1337 C1346 0.929 . S
C1338 H1332 0.930 . S
C1338 C1339 1.367 . S
C1338 C1346 1.378 . S
C1339 C1338 1.367 . S
C1339 C1347 1.433 . S
C1340 H1336 0.929 . S
C1340 C1342 1.378 . S
C1340 C1344 1.350 . S
C1341 C1344 1.463 . S
C1341 C1346 1.350 . S
C1341 N1349 1.427 . S
C1342 H1333 0.930 . S
C1342 C1340 1.378 . S
C1342 C1343 1.367 . S
C1343 C1342 1.367 . S
C1343 C1345 1.433 . S
C1344 C1340 1.350 . S
C1344 C1341 1.463 . S
C1344 N1348 1.427 . S
C1345 H1335 0.929 . S
C1345 C1343 1.433 . S
C1345 N1348 1.384 . S
C1346 H1337 0.929 . S
C1346 C1338 1.378 . S
C1346 C1341 1.350 . S
C1347 H1334 0.929 . S
C1347 C1339 1.433 . S
C1347 N1349 1.384 . S
N1348 C1344 1.427 . S
N1348 C1345 1.384 . S
N1349 C1341 1.427 . S
N1349 C1347 1.384 . S
H1350 C1356 0.930 . S
H1351 C1360 0.930 . S
H1352 C1365 0.929 . S
H1353 C1363 0.929 . S
H1354 C1358 0.929 . S
H1355 C1364 0.929 . S
C1356 H1350 0.930 . S
C1356 C1357 1.367 . S
C1356 C1364 1.378 . S
C1357 C1356 1.367 . S
C1357 C1365 1.433 . S
C1358 H1354 0.929 . S
C1358 C1360 1.378 . S
C1358 C1362 1.350 . S
C1359 C1362 1.463 . S
C1359 C1364 1.350 . S
C1359 N1367 1.427 . S
C1360 H1351 0.930 . S
C1360 C1358 1.378 . S
C1360 C1361 1.367 . S
C1361 C1360 1.367 . S
C1361 C1363 1.433 . S
C1362 C1358 1.350 . S
C1362 C1359 1.463 . S
C1362 N1366 1.427 . S
C1363 H1353 0.929 . S
C1363 C1361 1.433 . S
C1363 N1366 1.384 . S
C1364 H1355 0.929 . S
C1364 C1356 1.378 . S
C1364 C1359 1.350 . S
C1365 H1352 0.929 . S
C1365 C1357 1.433 . S
C1365 N1367 1.384 . S
N1366 C1362 1.427 . S
N1366 C1363 1.384 . S
N1367 C1359 1.427 . S
N1367 C1365 1.384 . S
H1368 C1374 0.930 . S
H1369 C1378 0.930 . S
H1370 C1383 0.929 . S
H1371 C1381 0.929 . S
H1372 C1376 0.929 . S
H1373 C1382 0.929 . S
C1374 H1368 0.930 . S
C1374 C1375 1.367 . S
C1374 C1382 1.378 . S
C1375 C1374 1.367 . S
C1375 C1383 1.433 . S
C1376 H1372 0.929 . S
C1376 C1378 1.378 . S
C1376 C1380 1.350 . S
C1377 C1380 1.463 . S
C1377 C1382 1.350 . S
C1377 N1385 1.427 . S
C1378 H1369 0.930 . S
C1378 C1376 1.378 . S
C1378 C1379 1.367 . S
C1379 C1378 1.367 . S
C1379 C1381 1.433 . S
C1380 C1376 1.350 . S
C1380 C1377 1.463 . S
C1380 N1384 1.427 . S
C1381 H1371 0.929 . S
C1381 C1379 1.433 . S
C1381 N1384 1.384 . S
C1382 H1373 0.929 . S
C1382 C1374 1.378 . S
C1382 C1377 1.350 . S
C1383 H1370 0.929 . S
C1383 C1375 1.433 . S
C1383 N1385 1.384 . S
N1384 C1380 1.427 . S
N1384 C1381 1.384 . S
N1385 C1377 1.427 . S
N1385 C1383 1.384 . S
H1386 C1392 0.930 . S
H1387 C1396 0.930 . S
H1388 C1401 0.929 . S
H1389 C1399 0.929 . S
H1390 C1394 0.929 . S
H1391 C1400 0.929 . S
C1392 H1386 0.930 . S
C1392 C1393 1.367 . S
C1392 C1400 1.378 . S
C1393 C1392 1.367 . S
C1393 C1401 1.433 . S
C1394 H1390 0.929 . S
C1394 C1396 1.378 . S
C1394 C1398 1.350 . S
C1395 C1398 1.463 . S
C1395 C1400 1.350 . S
C1395 N1403 1.427 . S
C1396 H1387 0.930 . S
C1396 C1394 1.378 . S
C1396 C1397 1.367 . S
C1397 C1396 1.367 . S
C1397 C1399 1.433 . S
C1398 C1394 1.350 . S
C1398 C1395 1.463 . S
C1398 N1402 1.427 . S
C1399 H1389 0.929 . S
C1399 C1397 1.433 . S
C1399 N1402 1.384 . S
C1400 H1391 0.929 . S
C1400 C1392 1.378 . S
C1400 C1395 1.350 . S
C1401 H1388 0.929 . S
C1401 C1393 1.433 . S
C1401 N1403 1.384 . S
N1402 C1398 1.427 . S
N1402 C1399 1.384 . S
N1403 C1395 1.427 . S
N1403 C1401 1.384 . S
H1404 C1410 0.930 . S
H1405 C1414 0.930 . S
H1406 C1419 0.929 . S
H1407 C1417 0.929 . S
H1408 C1412 0.929 . S
H1409 C1418 0.929 . S
C1410 H1404 0.930 . S
C1410 C1411 1.367 . S
C1410 C1418 1.378 . S
C1411 C1410 1.367 . S
C1411 C1419 1.433 . S
C1412 H1408 0.929 . S
C1412 C1414 1.378 . S
C1412 C1416 1.350 . S
C1413 C1416 1.463 . S
C1413 C1418 1.350 . S
C1413 N1421 1.427 . S
C1414 H1405 0.930 . S
C1414 C1412 1.378 . S
C1414 C1415 1.367 . S
C1415 C1414 1.367 . S
C1415 C1417 1.433 . S
C1416 C1412 1.350 . S
C1416 C1413 1.463 . S
C1416 N1420 1.427 . S
C1417 H1407 0.929 . S
C1417 C1415 1.433 . S
C1417 N1420 1.384 . S
C1418 H1409 0.929 . S
C1418 C1410 1.378 . S
C1418 C1413 1.350 . S
C1419 H1406 0.929 . S
C1419 C1411 1.433 . S
C1419 N1421 1.384 . S
N1420 C1416 1.427 . S
N1420 C1417 1.384 . S
N1421 C1413 1.427 . S
N1421 C1419 1.384 . S
H1422 C1428 0.930 . S
H1423 C1432 0.930 . S
H1424 C1437 0.929 . S
H1425 C1435 0.929 . S
H1426 C1430 0.929 . S
H1427 C1436 0.929 . S
C1428 H1422 0.930 . S
C1428 C1429 1.367 . S
C1428 C1436 1.378 . S
C1429 C1428 1.367 . S
C1429 C1437 1.433 . S
C1430 H1426 0.929 . S
C1430 C1432 1.378 . S
C1430 C1434 1.350 . S
C1431 C1434 1.463 . S
C1431 C1436 1.350 . S
C1431 N1439 1.427 . S
C1432 H1423 0.930 . S
C1432 C1430 1.378 . S
C1432 C1433 1.367 . S
C1433 C1432 1.367 . S
C1433 C1435 1.433 . S
C1434 C1430 1.350 . S
C1434 C1431 1.463 . S
C1434 N1438 1.427 . S
C1435 H1425 0.929 . S
C1435 C1433 1.433 . S
C1435 N1438 1.384 . S
C1436 H1427 0.929 . S
C1436 C1428 1.378 . S
C1436 C1431 1.350 . S
C1437 H1424 0.929 . S
C1437 C1429 1.433 . S
C1437 N1439 1.384 . S
N1438 C1434 1.427 . S
N1438 C1435 1.384 . S
N1439 C1431 1.427 . S
N1439 C1437 1.384 . S
H1440 C1446 0.930 . S
H1441 C1450 0.930 . S
H1442 C1455 0.929 . S
H1443 C1453 0.929 . S
H1444 C1448 0.929 . S
H1445 C1454 0.929 . S
C1446 H1440 0.930 . S
C1446 C1447 1.367 . S
C1446 C1454 1.378 . S
C1447 C1446 1.367 . S
C1447 C1455 1.433 . S
C1448 H1444 0.929 . S
C1448 C1450 1.378 . S
C1448 C1452 1.350 . S
C1449 C1452 1.463 . S
C1449 C1454 1.350 . S
C1449 N1457 1.427 . S
C1450 H1441 0.930 . S
C1450 C1448 1.378 . S
C1450 C1451 1.367 . S
C1451 C1450 1.367 . S
C1451 C1453 1.433 . S
C1452 C1448 1.350 . S
C1452 C1449 1.463 . S
C1452 N1456 1.427 . S
C1453 H1443 0.929 . S
C1453 C1451 1.433 . S
C1453 N1456 1.384 . S
C1454 H1445 0.929 . S
C1454 C1446 1.378 . S
C1454 C1449 1.350 . S
C1455 H1442 0.929 . S
C1455 C1447 1.433 . S
C1455 N1457 1.384 . S
N1456 C1452 1.427 . S
N1456 C1453 1.384 . S
N1457 C1449 1.427 . S
N1457 C1455 1.384 . S
H1458 C1464 0.930 . S
H1459 C1468 0.930 . S
H1460 C1473 0.929 . S
H1461 C1471 0.929 . S
H1462 C1466 0.929 . S
H1463 C1472 0.929 . S
C1464 H1458 0.930 . S
C1464 C1465 1.367 . S
C1464 C1472 1.378 . S
C1465 C1464 1.367 . S
C1465 C1473 1.433 . S
C1466 H1462 0.929 . S
C1466 C1468 1.378 . S
C1466 C1470 1.350 . S
C1467 C1470 1.463 . S
C1467 C1472 1.350 . S
C1467 N1475 1.427 . S
C1468 H1459 0.930 . S
C1468 C1466 1.378 . S
C1468 C1469 1.367 . S
C1469 C1468 1.367 . S
C1469 C1471 1.433 . S
C1470 C1466 1.350 . S
C1470 C1467 1.463 . S
C1470 N1474 1.427 . S
C1471 H1461 0.929 . S
C1471 C1469 1.433 . S
C1471 N1474 1.384 . S
C1472 H1463 0.929 . S
C1472 C1464 1.378 . S
C1472 C1467 1.350 . S
C1473 H1460 0.929 . S
C1473 C1465 1.433 . S
C1473 N1475 1.384 . S
N1474 C1470 1.427 . S
N1474 C1471 1.384 . S
N1475 C1467 1.427 . S
N1475 C1473 1.384 . S
H1476 C1482 0.930 . S
H1477 C1486 0.930 . S
H1478 C1491 0.929 . S
H1479 C1489 0.929 . S
H1480 C1484 0.929 . S
H1481 C1490 0.929 . S
C1482 H1476 0.930 . S
C1482 C1483 1.367 . S
C1482 C1490 1.378 . S
C1483 C1482 1.367 . S
C1483 C1491 1.433 . S
C1484 H1480 0.929 . S
C1484 C1486 1.378 . S
C1484 C1488 1.350 . S
C1485 C1488 1.463 . S
C1485 C1490 1.350 . S
C1485 N1493 1.427 . S
C1486 H1477 0.930 . S
C1486 C1484 1.378 . S
C1486 C1487 1.367 . S
C1487 C1486 1.367 . S
C1487 C1489 1.433 . S
C1488 C1484 1.350 . S
C1488 C1485 1.463 . S
C1488 N1492 1.427 . S
C1489 H1479 0.929 . S
C1489 C1487 1.433 . S
C1489 N1492 1.384 . S
C1490 H1481 0.929 . S
C1490 C1482 1.378 . S
C1490 C1485 1.350 . S
C1491 H1478 0.929 . S
C1491 C1483 1.433 . S
C1491 N1493 1.384 . S
N1492 C1488 1.427 . S
N1492 C1489 1.384 . S
N1493 C1485 1.427 . S
N1493 C1491 1.384 . S
H1494 C1500 0.930 . S
H1495 C1504 0.930 . S
H1496 C1509 0.929 . S
H1497 C1507 0.929 . S
H1498 C1502 0.929 . S
H1499 C1508 0.929 . S
C1500 H1494 0.930 . S
C1500 C1501 1.367 . S
C1500 C1508 1.378 . S
C1501 C1500 1.367 . S
C1501 C1509 1.433 . S
C1502 H1498 0.929 . S
C1502 C1504 1.378 . S
C1502 C1506 1.350 . S
C1503 C1506 1.463 . S
C1503 C1508 1.350 . S
C1503 N1511 1.427 . S
C1504 H1495 0.930 . S
C1504 C1502 1.378 . S
C1504 C1505 1.367 . S
C1505 C1504 1.367 . S
C1505 C1507 1.433 . S
C1506 C1502 1.350 . S
C1506 C1503 1.463 . S
C1506 N1510 1.427 . S
C1507 H1497 0.929 . S
C1507 C1505 1.433 . S
C1507 N1510 1.384 . S
C1508 H1499 0.929 . S
C1508 C1500 1.378 . S
C1508 C1503 1.350 . S
C1509 H1496 0.929 . S
C1509 C1501 1.433 . S
C1509 N1511 1.384 . S
N1510 C1506 1.427 . S
N1510 C1507 1.384 . S
N1511 C1503 1.427 . S
N1511 C1509 1.384 . S
H1512 C1518 0.930 . S
H1513 C1522 0.930 . S
H1514 C1527 0.929 . S
H1515 C1525 0.929 . S
H1516 C1520 0.929 . S
H1517 C1526 0.929 . S
C1518 H1512 0.930 . S
C1518 C1519 1.367 . S
C1518 C1526 1.378 . S
C1519 C1518 1.367 . S
C1519 C1527 1.433 . S
C1520 H1516 0.929 . S
C1520 C1522 1.378 . S
C1520 C1524 1.350 . S
C1521 C1524 1.463 . S
C1521 C1526 1.350 . S
C1521 N1529 1.427 . S
C1522 H1513 0.930 . S
C1522 C1520 1.378 . S
C1522 C1523 1.367 . S
C1523 C1522 1.367 . S
C1523 C1525 1.433 . S
C1524 C1520 1.350 . S
C1524 C1521 1.463 . S
C1524 N1528 1.427 . S
C1525 H1515 0.929 . S
C1525 C1523 1.433 . S
C1525 N1528 1.384 . S
C1526 H1517 0.929 . S
C1526 C1518 1.378 . S
C1526 C1521 1.350 . S
C1527 H1514 0.929 . S
C1527 C1519 1.433 . S
C1527 N1529 1.384 . S
N1528 C1524 1.427 . S
N1528 C1525 1.384 . S
N1529 C1521 1.427 . S
N1529 C1527 1.384 . S
H1530 C1536 0.930 . S
H1531 C1540 0.930 . S
H1532 C1545 0.929 . S
H1533 C1543 0.929 . S
H1534 C1538 0.929 . S
H1535 C1544 0.929 . S
C1536 H1530 0.930 . S
C1536 C1537 1.367 . S
C1536 C1544 1.378 . S
C1537 C1536 1.367 . S
C1537 C1545 1.433 . S
C1538 H1534 0.929 . S
C1538 C1540 1.378 . S
C1538 C1542 1.350 . S
C1539 C1542 1.463 . S
C1539 C1544 1.350 . S
C1539 N1547 1.427 . S
C1540 H1531 0.930 . S
C1540 C1538 1.378 . S
C1540 C1541 1.367 . S
C1541 C1540 1.367 . S
C1541 C1543 1.433 . S
C1542 C1538 1.350 . S
C1542 C1539 1.463 . S
C1542 N1546 1.427 . S
C1543 H1533 0.929 . S
C1543 C1541 1.433 . S
C1543 N1546 1.384 . S
C1544 H1535 0.929 . S
C1544 C1536 1.378 . S
C1544 C1539 1.350 . S
C1545 H1532 0.929 . S
C1545 C1537 1.433 . S
C1545 N1547 1.384 . S
N1546 C1542 1.427 . S
N1546 C1543 1.384 . S
N1547 C1539 1.427 . S
N1547 C1545 1.384 . S
H1548 C1554 0.930 . S
H1549 C1558 0.930 . S
H1550 C1563 0.929 . S
H1551 C1561 0.929 . S
H1552 C1556 0.929 . S
H1553 C1562 0.929 . S
C1554 H1548 0.930 . S
C1554 C1555 1.367 . S
C1554 C1562 1.378 1_556 S
C1555 C1554 1.367 . S
C1555 C1563 1.433 . S
C1556 H1552 0.929 . S
C1556 C1558 1.378 1_556 S
C1556 C1560 1.350 1_556 S
C1557 C1560 1.463 1_556 S
C1557 C1562 1.350 1_556 S
C1557 N1565 1.427 . S
C1558 H1549 0.930 . S
C1558 C1556 1.378 1_554 S
C1558 C1559 1.367 . S
C1559 C1558 1.367 . S
C1559 C1561 1.433 . S
C1560 C1556 1.350 1_554 S
C1560 C1557 1.463 1_554 S
C1560 N1564 1.427 . S
C1561 H1551 0.929 . S
C1561 C1559 1.433 . S
C1561 N1564 1.384 . S
C1562 H1553 0.929 . S
C1562 C1554 1.378 1_554 S
C1562 C1557 1.350 1_554 S
C1563 H1550 0.929 . S
C1563 C1555 1.433 . S
C1563 N1565 1.384 . S
N1564 C1560 1.427 . S
N1564 C1561 1.384 . S
N1565 C1557 1.427 . S
N1565 C1563 1.384 . S
H1566 C1572 0.930 . S
H1567 C1576 0.930 . S
H1568 C1581 0.929 . S
H1569 C1579 0.929 . S
H1570 C1574 0.929 1_455 S
H1571 C1580 0.929 1_655 S
C1572 H1566 0.930 . S
C1572 C1573 1.367 . S
C1572 C1580 1.378 . S
C1573 C1572 1.367 . S
C1573 C1581 1.433 . S
C1574 H1570 0.929 1_655 S
C1574 C1576 1.378 . S
C1574 C1578 1.350 . S
C1575 C1578 1.463 1_455 S
C1575 C1580 1.350 . S
C1575 N1583 1.427 . S
C1576 H1567 0.930 . S
C1576 C1574 1.378 . S
C1576 C1577 1.367 . S
C1577 C1576 1.367 . S
C1577 C1579 1.433 . S
C1578 C1574 1.350 . S
C1578 C1575 1.463 1_655 S
C1578 N1582 1.427 . S
C1579 H1569 0.929 . S
C1579 C1577 1.433 . S
C1579 N1582 1.384 . S
C1580 H1571 0.929 1_455 S
C1580 C1572 1.378 . S
C1580 C1575 1.350 . S
C1581 H1568 0.929 . S
C1581 C1573 1.433 . S
C1581 N1583 1.384 . S
N1582 C1578 1.427 . S
N1582 C1579 1.384 . S
N1583 C1575 1.427 . S
N1583 C1581 1.384 . S
H1584 C1590 0.930 . S
H1585 C1594 0.930 . S
H1586 C1599 0.929 . S
H1587 C1597 0.929 . S
H1588 C1592 0.929 1_554 S
H1589 C1598 0.929 1_556 S
C1590 H1584 0.930 . S
C1590 C1591 1.367 . S
C1590 C1598 1.378 . S
C1591 C1590 1.367 . S
C1591 C1599 1.433 . S
C1592 H1588 0.929 1_556 S
C1592 C1594 1.378 . S
C1592 C1596 1.350 . S
C1593 C1596 1.463 1_564 S
C1593 C1598 1.350 . S
C1593 N1601 1.427 . S
C1594 H1585 0.930 . S
C1594 C1592 1.378 . S
C1594 C1595 1.367 . S
C1595 C1594 1.367 . S
C1595 C1597 1.433 . S
C1596 C1592 1.350 . S
C1596 C1593 1.463 1_546 S
C1596 N1600 1.427 . S
C1597 H1587 0.929 . S
C1597 C1595 1.433 . S
C1597 N1600 1.384 . S
C1598 H1589 0.929 1_554 S
C1598 C1590 1.378 . S
C1598 C1593 1.350 . S
C1599 H1586 0.929 . S
C1599 C1591 1.433 . S
C1599 N1601 1.384 . S
N1600 C1596 1.427 . S
N1600 C1597 1.384 . S
N1601 C1593 1.427 . S
N1601 C1599 1.384 . S
H1602 C1608 0.930 . S
H1603 C1612 0.930 . S
H1604 C1617 0.929 . S
H1605 C1615 0.929 . S
H1606 C1610 0.929 . S
H1607 C1616 0.929 . S
C1608 H1602 0.930 . S
C1608 C1609 1.367 . S
C1608 C1616 1.378 . S
C1609 C1608 1.367 . S
C1609 C1617 1.433 . S
C1610 H1606 0.929 . S
C1610 C1612 1.378 . S
C1610 C1614 1.350 . S
C1611 C1614 1.463 . S
C1611 C1616 1.350 . S
C1611 N1619 1.427 . S
C1612 H1603 0.930 . S
C1612 C1610 1.378 . S
C1612 C1613 1.367 . S
C1613 C1612 1.367 . S
C1613 C1615 1.433 . S
C1614 C1610 1.350 . S
C1614 C1611 1.463 . S
C1614 N1618 1.427 . S
C1615 H1605 0.929 . S
C1615 C1613 1.433 . S
C1615 N1618 1.384 . S
C1616 H1607 0.929 . S
C1616 C1608 1.378 . S
C1616 C1611 1.350 . S
C1617 H1604 0.929 . S
C1617 C1609 1.433 . S
C1617 N1619 1.384 . S
N1618 C1614 1.427 . S
N1618 C1615 1.384 . S
N1619 C1611 1.427 . S
N1619 C1617 1.384 . S
H1620 C1626 0.930 . S
H1621 C1630 0.930 . S
H1622 C1635 0.929 . S
H1623 C1633 0.929 . S
H1624 C1628 0.948 . S
H1625 C1634 0.948 . S
C1626 H1620 0.930 . S
C1626 C1627 1.367 . S
C1626 C1634 1.378 . S
C1627 C1626 1.367 . S
C1627 C1635 1.433 . S
C1628 H1624 0.948 . S
C1628 C1630 1.378 . S
C1628 C1632 1.350 . S
C1629 C1632 1.463 1_656 S
C1629 C1634 1.350 . S
C1629 N1637 1.427 . S
C1630 H1621 0.930 . S
C1630 C1628 1.378 . S
C1630 C1631 1.367 . S
C1631 C1630 1.367 . S
C1631 C1633 1.433 . S
C1632 C1628 1.350 . S
C1632 C1629 1.463 1_454 S
C1632 N1636 1.427 . S
C1633 H1623 0.929 . S
C1633 C1631 1.433 . S
C1633 N1636 1.384 . S
C1634 H1625 0.948 . S
C1634 C1626 1.378 . S
C1634 C1629 1.350 . S
C1635 H1622 0.929 . S
C1635 C1627 1.433 . S
C1635 N1637 1.384 . S
N1636 C1632 1.427 . S
N1636 C1633 1.384 . S
N1637 C1629 1.427 . S
N1637 C1635 1.384 . S
H1638 C1644 0.930 . S
H1639 C1648 0.930 . S
H1640 C1653 0.929 . S
H1641 C1651 0.929 . S
H1642 C1646 0.929 . S
H1643 C1652 0.929 . S
C1644 H1638 0.930 . S
C1644 C1645 1.367 . S
C1644 C1652 1.378 . S
C1645 C1644 1.367 . S
C1645 C1653 1.433 . S
C1646 H1642 0.929 . S
C1646 C1648 1.378 . S
C1646 C1650 1.350 . S
C1647 C1650 1.463 1_565 S
C1647 C1652 1.350 . S
C1647 N1655 1.427 . S
C1648 H1639 0.930 . S
C1648 C1646 1.378 . S
C1648 C1649 1.367 . S
C1649 C1648 1.367 . S
C1649 C1651 1.433 . S
C1650 C1646 1.350 . S
C1650 C1647 1.463 1_545 S
C1650 N1654 1.427 . S
C1651 H1641 0.929 . S
C1651 C1649 1.433 . S
C1651 N1654 1.384 . S
C1652 H1643 0.929 . S
C1652 C1644 1.378 . S
C1652 C1647 1.350 . S
C1653 H1640 0.929 . S
C1653 C1645 1.433 . S
C1653 N1655 1.384 . S
N1654 C1650 1.427 . S
N1654 C1651 1.384 . S
N1655 C1647 1.427 . S
N1655 C1653 1.384 . S
C1015 C403 1.339 . S
C1019 C70 1.274 . S
C1033 C487 1.348 . S
C1037 C154 1.250 . S
C1051 C238 1.251 . S
C1055 C67 1.354 . S
C1069 C322 1.272 . S
C1073 C151 1.344 . S
C1087 C406 1.272 . S
C1091 C235 1.337 . S
C1105 C319 1.338 . S
C1109 C490 1.267 . S
C1123 C739 1.344 . S
C1127 C574 1.255 . S
C1141 C658 1.270 . S
C1145 C823 1.346 . S
C1159 C907 1.339 . S
C1163 C742 1.275 . S
C1177 C826 1.271 . S
C1181 C991 1.337 . S
C1195 C910 1.255 . S
C1199 C571 1.354 . S
C1213 C655 1.351 . S
C1217 C994 1.248 . S
C1231 C392 1.404 . S
C1235 C58 1.342 . S
C1249 C142 1.340 . S
C1253 C476 1.400 . S
C1267 C226 1.315 . S
C1271 C56 1.409 . S
C1285 C310 1.317 . S
C1289 C140 1.415 . S
C1303 C224 1.413 . S
C1307 C394 1.316 . S
C1321 C308 1.398 . S
C1325 C478 1.338 . S
C1339 C728 1.406 . S
C1343 C562 1.316 . S
C1357 C646 1.341 . S
C1361 C812 1.401 . S
C1375 C730 1.315 . S
C1379 C896 1.412 . S
C1393 C980 1.401 . S
C1397 C814 1.321 . S
C1411 C898 1.328 . S
C1415 C560 1.416 . S
C1429 C644 1.416 . S
C1433 C982 1.319 . S
C1447 C903 1.894 . S
C1451 C63 1.881 . S
C1465 C147 1.893 . S
C1469 C987 1.880 . S
C1483 C231 1.891 . S
C1487 C567 1.885 . S
C1501 C315 1.881 . S
C1505 C651 1.891 . S
C1519 C399 1.893 . S
C1523 C735 1.880 . S
C1537 C819 1.881 . S
C1541 C483 1.894 . S
C1555 C830 2.033 . S
C1559 C74 2.037 . S
C1573 C914 2.032 . S
C1577 C158 2.024 . S
C1591 C242 2.031 . S
C1595 C998 2.037 . S
C1609 C326 2.029 . S
C1613 C578 2.038 . S
C1627 C662 2.037 . S
C1631 C410 2.027 . S
C1645 C746 2.033 . S
C1649 C494 2.024 . S
