# Generated by pormake.
# Topology yfl, (5)-cn, num edge types: 1
# Building blocks:
#     Node 0, Type 0, BuildingBlock: XOMCOT_clean_sbu_1, # of connection points: 5
#     Node 1, Type 0, BuildingBlock: XOMCOT_clean_sbu_1, # of connection points: 5
#     Node 2, Type 0, BuildingBlock: XOMCOT_clean_sbu_1, # of connection points: 5
#     Node 3, Type 0, BuildingBlock: XOMCOT_clean_sbu_1, # of connection points: 5
#     Node 4, Type 0, BuildingBlock: XOMCOT_clean_sbu_1, # of connection points: 5
#     Node 5, Type 0, BuildingBlock: XOMCOT_clean_sbu_1, # of connection points: 5
#     Node 6, Type 0, BuildingBlock: XOMCOT_clean_sbu_1, # of connection points: 5
#     Node 7, Type 0, BuildingBlock: XOMCOT_clean_sbu_1, # of connection points: 5
#     Node 8, Type 0, BuildingBlock: XOMCOT_clean_sbu_1, # of connection points: 5
#     Node 9, Type 0, BuildingBlock: XOMCOT_clean_sbu_1, # of connection points: 5
#     Node 10, Type 0, BuildingBlock: XOMCOT_clean_sbu_1, # of connection points: 5
#     Node 11, Type 0, BuildingBlock: XOMCOT_clean_sbu_1, # of connection points: 5
#     Node 12, Type 0, BuildingBlock: XOMCOT_clean_sbu_1, # of connection points: 5
#     Node 13, Type 0, BuildingBlock: XOMCOT_clean_sbu_1, # of connection points: 5
#     Node 14, Type 0, BuildingBlock: XOMCOT_clean_sbu_1, # of connection points: 5
#     Node 15, Type 0, BuildingBlock: XOMCOT_clean_sbu_1, # of connection points: 5
#     Edge 16, Type (0, 0), BuildingBlock: MIFKUJ_clean_linker_0, # of connection points: 2
#     Edge 17, Type (0, 0), BuildingBlock: MIFKUJ_clean_linker_0, # of connection points: 2
#     Edge 18, Type (0, 0), BuildingBlock: MIFKUJ_clean_linker_0, # of connection points: 2
#     Edge 19, Type (0, 0), BuildingBlock: MIFKUJ_clean_linker_0, # of connection points: 2
#     Edge 20, Type (0, 0), BuildingBlock: MIFKUJ_clean_linker_0, # of connection points: 2
#     Edge 21, Type (0, 0), BuildingBlock: MIFKUJ_clean_linker_0, # of connection points: 2
#     Edge 22, Type (0, 0), BuildingBlock: MIFKUJ_clean_linker_0, # of connection points: 2
#     Edge 23, Type (0, 0), BuildingBlock: MIFKUJ_clean_linker_0, # of connection points: 2
#     Edge 24, Type (0, 0), BuildingBlock: MIFKUJ_clean_linker_0, # of connection points: 2
#     Edge 25, Type (0, 0), BuildingBlock: MIFKUJ_clean_linker_0, # of connection points: 2
#     Edge 26, Type (0, 0), BuildingBlock: MIFKUJ_clean_linker_0, # of connection points: 2
#     Edge 27, Type (0, 0), BuildingBlock: MIFKUJ_clean_linker_0, # of connection points: 2
#     Edge 28, Type (0, 0), BuildingBlock: MIFKUJ_clean_linker_0, # of connection points: 2
#     Edge 29, Type (0, 0), BuildingBlock: MIFKUJ_clean_linker_0, # of connection points: 2
#     Edge 30, Type (0, 0), BuildingBlock: MIFKUJ_clean_linker_0, # of connection points: 2
#     Edge 31, Type (0, 0), BuildingBlock: MIFKUJ_clean_linker_0, # of connection points: 2
#     Edge 32, Type (0, 0), BuildingBlock: MIFKUJ_clean_linker_0, # of connection points: 2
#     Edge 33, Type (0, 0), BuildingBlock: MIFKUJ_clean_linker_0, # of connection points: 2
#     Edge 34, Type (0, 0), BuildingBlock: MIFKUJ_clean_linker_0, # of connection points: 2
#     Edge 35, Type (0, 0), BuildingBlock: MIFKUJ_clean_linker_0, # of connection points: 2
#     Edge 36, Type (0, 0), BuildingBlock: MIFKUJ_clean_linker_0, # of connection points: 2
#     Edge 37, Type (0, 0), BuildingBlock: MIFKUJ_clean_linker_0, # of connection points: 2
#     Edge 38, Type (0, 0), BuildingBlock: MIFKUJ_clean_linker_0, # of connection points: 2
#     Edge 39, Type (0, 0), BuildingBlock: MIFKUJ_clean_linker_0, # of connection points: 2
#     Edge 40, Type (0, 0), BuildingBlock: MIFKUJ_clean_linker_0, # of connection points: 2
#     Edge 41, Type (0, 0), BuildingBlock: MIFKUJ_clean_linker_0, # of connection points: 2
#     Edge 42, Type (0, 0), BuildingBlock: MIFKUJ_clean_linker_0, # of connection points: 2
#     Edge 43, Type (0, 0), BuildingBlock: MIFKUJ_clean_linker_0, # of connection points: 2
#     Edge 44, Type (0, 0), BuildingBlock: MIFKUJ_clean_linker_0, # of connection points: 2
#     Edge 45, Type (0, 0), BuildingBlock: MIFKUJ_clean_linker_0, # of connection points: 2
#     Edge 46, Type (0, 0), BuildingBlock: MIFKUJ_clean_linker_0, # of connection points: 2
#     Edge 47, Type (0, 0), BuildingBlock: MIFKUJ_clean_linker_0, # of connection points: 2
#     Edge 48, Type (0, 0), BuildingBlock: MIFKUJ_clean_linker_0, # of connection points: 2
#     Edge 49, Type (0, 0), BuildingBlock: MIFKUJ_clean_linker_0, # of connection points: 2
#     Edge 50, Type (0, 0), BuildingBlock: MIFKUJ_clean_linker_0, # of connection points: 2
#     Edge 51, Type (0, 0), BuildingBlock: MIFKUJ_clean_linker_0, # of connection points: 2
#     Edge 52, Type (0, 0), BuildingBlock: MIFKUJ_clean_linker_0, # of connection points: 2
#     Edge 53, Type (0, 0), BuildingBlock: MIFKUJ_clean_linker_0, # of connection points: 2
#     Edge 54, Type (0, 0), BuildingBlock: MIFKUJ_clean_linker_0, # of connection points: 2
#     Edge 55, Type (0, 0), BuildingBlock: MIFKUJ_clean_linker_0, # of connection points: 2
# Relax obj value: 0.500
# Max RMSD: 0.265
# Mean RMSD: 0.265
data_MOF--net-yfl--node1-XOMCOT_clean_sbu_1--edge1-MIFKUJ_clean_linker_0
_symmetry_space_group_name_H-M    P1
_symmetry_Int_Tables_number       1
_symmetry_cell_setting            triclinic
loop_
_symmetry_equiv_pos_as_xyz
'x, y, z'
_cell_length_a     36.342114
_cell_length_b     36.333961
_cell_length_c     130.77982
_cell_angle_alpha  89.923288
_cell_angle_beta   89.950518
_cell_angle_gamma 90.036207
loop_
_atom_site_label
_atom_site_type_symbol
_atom_site_fract_x
_atom_site_fract_y
_atom_site_fract_z
_atom_type_partial_charge
C0 C 0.04601 0.20944 0.29385 0.0
C1 C 0.02024 0.19204 0.28789 0.0
N2 N 0.98743 0.19441 0.29263 0.0
N3 N 0.02941 0.22351 0.3022 0.0
C4 C 0.99398 0.21274 0.30141 0.0
H5 H 0.07504 0.21191 0.29216 0.0
Co6 Co 0.05441 0.24527 0.31302 0.0
C7 C 0.98903 0.30076 0.31158 0.0
O8 O 0.97071 0.28549 0.30407 0.0
N9 N 0.08026 0.26555 0.32392 0.0
C10 C 0.1076 0.30441 0.3346 0.0
C11 C 0.08644 0.30148 0.32592 0.0
C12 C 0.09829 0.24727 0.33135 0.0
N13 N 0.115 0.27017 0.33796 0.0
O14 O 0.02931 0.21201 0.32215 0.0
H15 H 0.07714 0.32405 0.3212 0.0
H16 H 0.0994 0.21767 0.33193 0.0
O17 O 0.01826 0.28541 0.31498 0.0
C18 C 0.04736 0.18188 0.32174 0.0
O19 O 0.07749 0.18099 0.31617 0.0
N20 N 0.08082 0.27513 0.30383 0.0
C21 C 0.12275 0.31259 0.28932 0.0
C22 C 0.08435 0.31571 0.2894 0.0
C23 C 0.06389 0.29655 0.29666 0.0
C24 C 0.11821 0.27174 0.30388 0.0
C25 C 0.1398 0.29064 0.29676 0.0
H26 H 0.0344 0.2976 0.29614 0.0
H27 H 0.13131 0.25361 0.30934 0.0
H28 H 0.97321 0.21826 0.30714 0.0
H29 H 0.02487 0.18041 0.28038 0.0
H30 H 0.11775 0.32965 0.33796 0.0
H31 H 0.07012 0.33224 0.28375 0.0
H32 H 0.16937 0.28697 0.29682 0.0
C33 C 0.21525 0.96342 0.69622 0.0
C34 C 0.19782 0.991 0.70147 0.0
N35 N 0.20049 0.02244 0.69601 0.0
N36 N 0.22973 0.97736 0.68756 0.0
C37 C 0.21873 0.01279 0.6874 0.0
H38 H 0.21841 0.93524 0.69874 0.0
Co39 Co 0.25622 0.95022 0.67804 0.0
C40 C 0.30786 0.01947 0.67856 0.0
O41 O 0.29139 0.0395 0.68553 0.0
N42 N 0.2821 0.9222 0.6685 0.0
C43 C 0.32838 0.89152 0.66138 0.0
C44 C 0.31916 0.91921 0.66801 0.0
C45 C 0.26942 0.89624 0.66202 0.0
N46 N 0.29705 0.8772 0.65767 0.0
O47 O 0.22392 0.9689 0.66762 0.0
H48 H 0.33826 0.93424 0.67277 0.0
H49 H 0.24067 0.88944 0.66107 0.0
O50 O 0.2939 0.98865 0.67584 0.0
C51 C 0.19542 0.94829 0.66806 0.0
O52 O 0.19676 0.91919 0.67404 0.0
N53 N 0.28483 0.92981 0.68855 0.0
C54 C 0.32106 0.89513 0.70465 0.0
C55 C 0.32265 0.93344 0.70352 0.0
C56 C 0.30406 0.95028 0.69547 0.0
C57 C 0.2827 0.89253 0.68958 0.0
C58 C 0.30095 0.87455 0.69751 0.0
H59 H 0.30374 0.97982 0.69517 0.0
H60 H 0.26629 0.87668 0.68427 0.0
H61 H 0.22498 0.03141 0.68118 0.0
H62 H 0.18668 0.98846 0.70912 0.0
H63 H 0.3558 0.88146 0.65977 0.0
H64 H 0.33686 0.95047 0.70904 0.0
H65 H 0.299 0.84488 0.6981 0.0
C66 C 0.98682 0.81032 0.29091 0.0
C67 C 0.01634 0.81072 0.2843 0.0
N68 N 0.03249 0.77739 0.28461 0.0
N69 N 0.98454 0.77696 0.29539 0.0
C70 C 0.01309 0.75776 0.29151 0.0
H71 H 0.967 0.8322 0.29189 0.0
Co72 Co 0.94579 0.76007 0.30345 0.0
C73 C 0.98031 0.69668 0.31411 0.0
O74 O 0.97845 0.71387 0.32292 0.0
N75 N 0.90661 0.74226 0.3115 0.0
C76 C 0.86416 0.70374 0.31751 0.0
C77 C 0.89132 0.70859 0.31036 0.0
C78 C 0.88809 0.75734 0.31942 0.0
N79 N 0.86219 0.73443 0.32322 0.0
O80 O 0.96759 0.78432 0.31503 0.0
H81 H 0.89959 0.68853 0.30471 0.0
H82 H 0.89384 0.78414 0.32257 0.0
O83 O 0.97056 0.71331 0.30594 0.0
C84 C 0.95275 0.81621 0.31513 0.0
O85 O 0.92639 0.82315 0.30852 0.0
N86 N 0.92332 0.74122 0.2918 0.0
C87 C 0.88625 0.72295 0.27397 0.0
C88 C 0.91916 0.70511 0.27654 0.0
C89 C 0.9373 0.71453 0.28557 0.0
C90 C 0.8917 0.75921 0.2893 0.0
C91 C 0.87233 0.75009 0.28048 0.0
H92 H 0.96273 0.7008 0.28742 0.0
H93 H 0.88155 0.78088 0.29422 0.0
H94 H 0.01851 0.7292 0.29327 0.0
H95 H 0.0236 0.8328 0.27911 0.0
H96 H 0.84711 0.67951 0.31838 0.0
H97 H 0.93051 0.68388 0.27166 0.0
H98 H 0.84708 0.76452 0.27867 0.0
C99 C 0.80928 0.04565 0.70183 0.0
C100 C 0.81323 0.02233 0.71002 0.0
N101 N 0.78753 0.99572 0.7093 0.0
N102 N 0.7813 0.03381 0.69593 0.0
C103 C 0.76874 0.00313 0.70063 0.0
H104 H 0.82478 0.0706 0.70049 0.0
Co105 Co 0.76328 0.05995 0.6848 0.0
C106 C 0.70395 0.01198 0.67648 0.0
O107 O 0.72112 0.00982 0.66766 0.0
N108 N 0.74517 0.08689 0.67364 0.0
C109 C 0.70742 0.11683 0.66314 0.0
C110 C 0.70977 0.0968 0.67203 0.0
C111 C 0.76382 0.10196 0.66574 0.0
N112 N 0.7415 0.12006 0.65924 0.0
O113 O 0.79294 0.02973 0.67585 0.0
H114 H 0.6871 0.09031 0.67709 0.0
H115 H 0.79321 0.1 0.66469 0.0
O116 O 0.71964 0.0283 0.68395 0.0
C117 C 0.82396 0.0464 0.67554 0.0
O118 O 0.82718 0.07764 0.68052 0.0
N119 N 0.73871 0.09126 0.69373 0.0
C120 C 0.71317 0.14066 0.70834 0.0
C121 C 0.70055 0.10414 0.70822 0.0
C122 C 0.71392 0.07973 0.70089 0.0
C123 C 0.75107 0.12666 0.69367 0.0
C124 C 0.7384 0.15197 0.70085 0.0
H125 H 0.70559 0.05127 0.70127 0.0
H126 H 0.77174 0.13498 0.68817 0.0
H127 H 0.74487 0.98783 0.69812 0.0
H128 H 0.83278 0.02544 0.7162 0.0
H129 H 0.68283 0.12903 0.65995 0.0
H130 H 0.68096 0.09433 0.71384 0.0
H131 H 0.7493 0.17972 0.70078 0.0
C132 C 0.05154 0.30972 0.95366 0.0
C133 C 0.02248 0.32242 0.95937 0.0
N134 N 0.99116 0.30836 0.95547 0.0
N135 N 0.03876 0.2872 0.9463 0.0
C136 C 1.00185 0.28818 0.94732 0.0
H137 H 0.08032 0.31572 0.95495 0.0
Co138 Co 0.06829 0.26288 0.93688 0.0
C139 C 0.01161 0.19799 0.94013 0.0
O140 O 0.99232 0.20942 0.94799 0.0
N141 N 0.09825 0.23895 0.92743 0.0
C142 C 0.13 0.19474 0.91971 0.0
C143 C 0.10676 0.20274 0.92765 0.0
C144 C 0.11708 0.25247 0.91936 0.0
N145 N 0.13646 0.22608 0.91452 0.0
O146 O 0.04114 0.28658 0.92615 0.0
H147 H 0.09732 0.18341 0.93337 0.0
H148 H 0.11671 0.28099 0.91703 0.0
O149 O 0.03733 0.21816 0.93648 0.0
C150 C 0.05665 0.31775 0.92477 0.0
O151 O 0.08685 0.32511 0.9299 0.0
N152 N 0.09661 0.24338 0.94755 0.0
C153 C 0.14145 0.22446 0.96397 0.0
C154 C 0.1042 0.21442 0.96386 0.0
C155 C 0.08218 0.22434 0.9556 0.0
C156 C 0.13277 0.25348 0.94753 0.0
C157 C 0.15588 0.24385 0.95562 0.0
H158 H 0.05331 0.21822 0.95596 0.0
H159 H 0.14355 0.26988 0.9413 0.0
H160 H 0.98324 0.27341 0.94236 0.0
H161 H 0.02447 0.33969 0.96608 0.0
H162 H 0.14203 0.16816 0.91805 0.0
H163 H 0.09202 0.19943 0.97018 0.0
H164 H 0.18438 0.25256 0.9555 0.0
C165 C 0.25003 0.96591 0.04623 0.0
C166 C 0.26737 0.98891 0.03943 0.0
N167 N 0.26875 0.02291 0.04353 0.0
N168 N 0.23943 0.98541 0.05449 0.0
C169 C 0.25259 0.01962 0.05279 0.0
H170 H 0.24495 0.93685 0.04514 0.0
Co171 Co 0.21701 0.96628 0.0662 0.0
C172 C 0.16428 0.03246 0.06222 0.0
O173 O 0.18122 0.04709 0.05434 0.0
N174 N 0.19583 0.94659 0.07797 0.0
C175 C 0.15564 0.92677 0.08957 0.0
C176 C 0.15972 0.94477 0.08038 0.0
C177 C 0.21305 0.92911 0.0857 0.0
N178 N 0.18928 0.91689 0.09286 0.0
O179 O 0.25147 0.99407 0.07432 0.0
H180 H 0.13763 0.95443 0.07555 0.0
H181 H 0.2424 0.92465 0.08602 0.0
O182 O 0.17819 0.00445 0.06673 0.0
C183 C 0.28085 0.97469 0.07434 0.0
O184 O 0.27962 0.94206 0.07001 0.0
N185 N 0.1863 0.93678 0.05808 0.0
C186 C 0.15411 0.88916 0.04405 0.0
C187 C 0.14923 0.92724 0.04317 0.0
C188 C 0.16558 0.95061 0.05026 0.0
C189 C 0.19025 0.89968 0.05926 0.0
C190 C 0.17396 0.87525 0.05237 0.0
H191 H 0.16396 0.97974 0.04889 0.0
H192 H 0.2077 0.88902 0.06526 0.0
H193 H 0.24982 0.04187 0.05823 0.0
H194 H 0.27634 0.98147 0.03182 0.0
H195 H 0.12989 0.91978 0.09326 0.0
H196 H 0.13421 0.93894 0.03679 0.0
H197 H 0.17868 0.84597 0.0532 0.0
C198 C 0.96966 0.6947 0.94518 0.0
C199 C 0.98735 0.68746 0.95425 0.0
N200 N 0.0112 0.71507 0.9561 0.0
N201 N 0.98233 0.72666 0.9413 0.0
C202 C 0.00786 0.7382 0.94806 0.0
H203 H 0.94776 0.6785 0.94187 0.0
Co204 Co 0.96308 0.75057 0.92993 0.0
C205 C 0.01854 0.80598 0.92364 0.0
O206 O 0.01949 0.7918 0.91441 0.0
N207 N 0.94328 0.77509 0.91847 0.0
C208 C 0.92083 0.81978 0.90861 0.0
C209 C 0.93375 0.81108 0.91817 0.0
C210 C 0.93609 0.76269 0.90894 0.0
N211 N 0.92251 0.78929 0.90282 0.0
O212 O 0.99248 0.71889 0.92141 0.0
H213 H 0.93627 0.83003 0.9245 0.0
H214 H 0.93981 0.73461 0.90648 0.0
O215 O 1.00049 0.78937 0.93066 0.0
C216 C 0.97224 0.69082 0.91958 0.0
O217 O 0.93747 0.69209 0.92235 0.0
N218 N 0.93211 0.77719 0.93856 0.0
C219 C 0.88242 0.80489 0.9528 0.0
C220 C 0.91941 0.81583 0.95295 0.0
C221 C 0.9439 0.80143 0.94581 0.0
C222 C 0.89612 0.76685 0.93813 0.0
C223 C 0.87065 0.78057 0.94515 0.0
H224 H 0.97248 0.80866 0.94646 0.0
H225 H 0.88745 0.74688 0.93249 0.0
H226 H 0.02196 0.76431 0.94747 0.0
H227 H 0.98201 0.66432 0.95925 0.0
H228 H 0.91087 0.84638 0.90611 0.0
H229 H 0.92957 0.83484 0.95866 0.0
H230 H 0.84241 0.77111 0.94483 0.0
C231 C 0.65454 0.03871 0.03736 0.0
C232 C 0.6531 0.00953 0.03069 0.0
N233 N 0.68707 0.99492 0.02997 0.0
N234 N 0.68921 0.04243 0.04087 0.0
C235 C 0.70832 0.01527 0.03627 0.0
H236 H 0.63193 0.0568 0.03921 0.0
Co237 Co 0.70636 0.08011 0.04919 0.0
C238 C 0.76742 0.04573 0.06076 0.0
O239 O 0.74932 0.05207 0.06928 0.0
N240 N 0.72433 0.11842 0.05752 0.0
C241 C 0.764 0.15757 0.0646 0.0
C242 C 0.75814 0.13376 0.05664 0.0
C243 C 0.71012 0.13385 0.06606 0.0
N244 N 0.73373 0.15746 0.0705 0.0
O245 O 0.67947 0.05863 0.06049 0.0
H246 H 0.77822 0.12671 0.05087 0.0
H247 H 0.68401 0.12653 0.06941 0.0
O248 O 0.75209 0.05303 0.05219 0.0
C249 C 0.64831 0.075 0.06041 0.0
O250 O 0.64361 0.10233 0.05393 0.0
N251 N 0.72739 0.10259 0.0378 0.0
C252 C 0.75139 0.14393 0.02122 0.0
C253 C 0.77116 0.11284 0.02441 0.0
C254 C 0.75827 0.09202 0.03265 0.0
C255 C 0.70731 0.13205 0.0346 0.0
C256 C 0.71875 0.15312 0.02628 0.0
H257 H 0.77321 0.06777 0.03487 0.0
H258 H 0.68248 0.1395 0.03866 0.0
H259 H 0.7377 0.01174 0.03706 0.0
H260 H 0.62909 1.00051 0.0265 0.0
H261 H 0.789 0.17281 0.06612 0.0
H262 H 0.79625 0.10473 0.02054 0.0
H263 H 0.70285 0.17698 0.024 0.0
C264 C 0.52721 0.68532 0.79932 0.0
C265 C 0.50268 0.69047 0.79144 0.0
N266 N 0.4962 0.72679 0.79061 0.0
N267 N 0.53576 0.71826 0.80344 0.0
C268 C 0.5163 0.74298 0.79798 0.0
H269 H 0.53862 0.65928 0.80175 0.0
Co270 Co 0.56837 0.72525 0.81407 0.0
C271 C 0.55837 0.80248 0.82129 0.0
O272 O 0.5935 0.80214 0.82364 0.0
N273 N 0.60124 0.73055 0.82508 0.0
C274 C 0.62062 0.73408 0.84116 0.0
C275 C 0.59046 0.73517 0.83488 0.0
C276 C 0.63812 0.72608 0.82563 0.0
N277 N 0.65058 0.72821 0.83533 0.0
O278 O 0.53682 0.69565 0.82267 0.0
H279 H 0.56226 0.73893 0.83732 0.0
H280 H 0.65553 0.72 0.81918 0.0
O281 O 0.5433 0.7729 0.81784 0.0
C282 C 0.55245 0.66419 0.82334 0.0
O283 O 0.58473 0.65995 0.81895 0.0
N284 N 0.6006 0.74952 0.80491 0.0
C285 C 0.64855 0.77463 0.78979 0.0
C286 C 0.62052 0.79729 0.79348 0.0
C287 C 0.59613 0.78385 0.80079 0.0
C288 C 0.62674 0.72652 0.80099 0.0
C289 C 0.65127 0.73858 0.79345 0.0
H290 H 0.57286 0.80074 0.80259 0.0
H291 H 0.62819 0.69837 0.80366 0.0
H292 H 0.51693 0.77234 0.79929 0.0
H293 H 0.4917 0.66942 0.78644 0.0
H294 H 0.62046 0.73759 0.84938 0.0
H295 H 0.61647 0.8247 0.79039 0.0
H296 H 0.67194 0.71996 0.79049 0.0
C297 C 0.72913 0.4362 0.20674 0.0
C298 C 0.72047 0.46828 0.21175 0.0
N299 N 0.72591 0.49675 0.20529 0.0
N300 N 0.74091 0.44438 0.19724 0.0
C301 C 0.73688 0.48117 0.19643 0.0
H302 H 0.72819 0.40879 0.20997 0.0
Co303 Co 0.75718 0.41189 0.18716 0.0
C304 C 0.82303 0.46616 0.1882 0.0
O305 O 0.81197 0.48395 0.19637 0.0
N306 N 0.77259 0.3794 0.17702 0.0
C307 C 0.8071 0.34489 0.16685 0.0
C308 C 0.80745 0.36939 0.17483 0.0
C309 C 0.75158 0.36015 0.17043 0.0
N310 N 0.77184 0.33908 0.16408 0.0
O311 O 0.72846 0.43865 0.17726 0.0
H312 H 0.83162 0.37902 0.17883 0.0
H313 H 0.72191 0.36107 0.17041 0.0
O314 O 0.80299 0.44052 0.18441 0.0
C315 C 0.69643 0.42458 0.17837 0.0
O316 O 0.69216 0.39848 0.18526 0.0
N317 N 0.78099 0.3829 0.197 0.0
C318 C 0.80476 0.33468 0.21226 0.0
C319 C 0.81854 0.3708 0.21167 0.0
C320 C 0.80645 0.39441 0.20395 0.0
C321 C 0.76701 0.34813 0.19752 0.0
C322 C 0.77901 0.32339 0.20493 0.0
H323 H 0.81617 0.42228 0.20398 0.0
H324 H 0.74583 0.33964 0.19222 0.0
H325 H 0.74399 0.49641 0.18959 0.0
H326 H 0.71331 0.4705 0.21976 0.0
H327 H 0.83113 0.33284 0.1633 0.0
H328 H 0.83754 0.38137 0.21732 0.0
H329 H 0.76783 0.29578 0.20492 0.0
C330 C 0.43449 0.28152 0.78309 0.0
C331 C 0.46235 0.29538 0.77715 0.0
N332 N 0.49462 0.28777 0.78175 0.0
N333 N 0.44898 0.26443 0.7913 0.0
C334 C 0.48561 0.26991 0.79047 0.0
H335 H 0.4054 0.28309 0.7814 0.0
Co336 Co 0.42066 0.24262 0.80153 0.0
C337 C 0.48172 0.18178 0.80013 0.0
O338 O 0.50011 0.19367 0.79215 0.0
N339 N 0.39176 0.22156 0.81175 0.0
C340 C 0.36122 0.1803 0.82097 0.0
C341 C 0.38239 0.18569 0.81242 0.0
C342 C 0.3755 0.23751 0.81988 0.0
N343 N 0.35689 0.21299 0.82567 0.0
O344 O 0.44599 0.27257 0.81144 0.0
H345 H 0.39038 0.16472 0.807 0.0
H346 H 0.37672 0.26662 0.82148 0.0
O347 O 0.45402 0.20002 0.80344 0.0
C348 C 0.42843 0.30305 0.81113 0.0
O349 O 0.39929 0.30507 0.8052 0.0
N350 N 0.39353 0.21739 0.79161 0.0
C351 C 0.35052 0.1968 0.77502 0.0
C352 C 0.38729 0.18543 0.77571 0.0
C353 C 0.40842 0.19603 0.7841 0.0
C354 C 0.35747 0.22765 0.79121 0.0
C355 C 0.33527 0.21722 0.78303 0.0
H356 H 0.43721 0.18931 0.78412 0.0
H357 H 0.34638 0.24571 0.79701 0.0
H358 H 0.50535 0.2607 0.7961 0.0
H359 H 0.45913 0.30817 0.76972 0.0
H360 H 0.35036 0.15418 0.82357 0.0
H361 H 0.39994 0.16965 0.76962 0.0
H362 H 0.30711 0.2269 0.78268 0.0
C363 C 0.32624 0.51033 0.19135 0.0
C364 C 0.32749 0.49192 0.20056 0.0
N365 N 0.29277 0.48312 0.20324 0.0
N366 N 0.29092 0.51304 0.1883 0.0
C367 C 0.27122 0.4963 0.1957 0.0
H368 H 0.34947 0.52171 0.18726 0.0
Co369 Co 0.27364 0.53808 0.17697 0.0
C370 C 0.21575 0.47944 0.17206 0.0
O371 O 0.23461 0.46145 0.16511 0.0
N372 N 0.25635 0.56318 0.16555 0.0
C373 C 0.23902 0.57695 0.14972 0.0
C374 C 0.24727 0.54884 0.15637 0.0
C375 C 0.25338 0.59991 0.16432 0.0
N376 N 0.24279 0.60892 0.15479 0.0
O377 O 0.30271 0.50627 0.1684 0.0
H378 H 0.24791 0.51993 0.15449 0.0
H379 H 0.26028 0.61978 0.17017 0.0
O380 O 0.23003 0.50703 0.17658 0.0
C381 C 0.33085 0.52485 0.16559 0.0
O382 O 0.33205 0.55999 0.16795 0.0
N383 N 0.24931 0.57097 0.18558 0.0
C384 C 0.22204 0.61732 0.20075 0.0
C385 C 0.19799 0.59675 0.19456 0.0
C386 C 0.21219 0.5741 0.18688 0.0
C387 C 0.27288 0.59245 0.19102 0.0
C388 C 0.25987 0.61588 0.19862 0.0
H389 H 0.19337 0.55876 0.18215 0.0
H390 H 0.30216 0.59055 0.18962 0.0
H391 H 0.24147 0.49513 0.19576 0.0
H392 H 0.35195 0.48563 0.20494 0.0
H393 H 0.23131 0.5742 0.14177 0.0
H394 H 0.16855 0.59707 0.19582 0.0
H395 H 0.27946 0.63223 0.20289 0.0
C396 C 0.5143 0.82793 0.44311 0.0
C397 C 0.48454 0.82937 0.44962 0.0
N398 N 0.46926 0.7956 0.45003 0.0
N399 N 0.51779 0.79341 0.43947 0.0
C400 C 0.48975 0.7745 0.44374 0.0
H401 H 0.53332 0.85016 0.44161 0.0
Co402 Co 0.55733 0.77551 0.43196 0.0
C403 C 0.52785 0.71216 0.42048 0.0
O404 O 0.53931 0.72735 0.41193 0.0
N405 N 0.59784 0.75691 0.42446 0.0
C406 C 0.64124 0.71825 0.41906 0.0
C407 C 0.6145 0.72424 0.42626 0.0
C408 C 0.61517 0.77011 0.41605 0.0
N409 N 0.64154 0.74711 0.41261 0.0
O410 O 0.53849 0.801 0.42015 0.0
H411 H 0.60696 0.70513 0.43224 0.0
H412 H 0.60769 0.79518 0.41216 0.0
O413 O 0.53085 0.72997 0.42885 0.0
C414 C 0.55456 0.8323 0.42014 0.0
O415 O 0.58092 0.83812 0.42683 0.0
N416 N 0.57663 0.75532 0.44387 0.0
C417 C 0.61116 0.73396 0.46189 0.0
C418 C 0.58128 0.71378 0.45804 0.0
C419 C 0.56416 0.72506 0.44902 0.0
C420 C 0.60509 0.77561 0.44759 0.0
C421 C 0.6229 0.76537 0.45657 0.0
H422 H 0.54106 0.70942 0.44624 0.0
H423 H 0.61416 0.7998 0.44347 0.0
H424 H 0.48606 0.74513 0.44292 0.0
H425 H 0.47592 0.85296 0.45406 0.0
H426 H 0.65866 0.69418 0.41853 0.0
H427 H 0.57103 0.68969 0.46201 0.0
H428 H 0.64606 0.78152 0.45922 0.0
C429 C 0.81804 0.50116 0.54766 0.0
C430 C 0.81783 0.53225 0.54164 0.0
N431 N 0.78464 0.54844 0.54256 0.0
N432 N 0.78526 0.49794 0.55241 0.0
C433 C 0.76566 0.52726 0.5492 0.0
H434 H 0.83995 0.48112 0.54807 0.0
Co435 Co 0.76924 0.45773 0.55993 0.0
C436 C 0.70766 0.48729 0.57228 0.0
O437 O 0.72359 0.47556 0.58069 0.0
N438 N 0.75272 0.41667 0.56732 0.0
C439 C 0.71595 0.37248 0.57317 0.0
C440 C 0.71815 0.403 0.56703 0.0
C441 C 0.77112 0.39357 0.57359 0.0
N442 N 0.74936 0.36649 0.57729 0.0
O443 O 0.79573 0.47635 0.57153 0.0
H444 H 0.6957 0.41467 0.56268 0.0
H445 H 0.79999 0.3961 0.57535 0.0
O446 O 0.72417 0.48352 0.56373 0.0
C447 C 0.8283 0.46327 0.5712 0.0
O448 O 0.83629 0.43897 0.56411 0.0
N449 N 0.74742 0.43883 0.54824 0.0
C450 C 0.72507 0.40642 0.53004 0.0
C451 C 0.70382 0.43422 0.53458 0.0
C452 C 0.71568 0.45042 0.54368 0.0
C453 C 0.76838 0.41199 0.54393 0.0
C454 C 0.75773 0.39535 0.53482 0.0
H455 H 0.69951 0.47237 0.54694 0.0
H456 H 0.79367 0.40362 0.54761 0.0
H457 H 0.73734 0.53211 0.55131 0.0
H458 H 0.83946 0.54072 0.53646 0.0
H459 H 0.69138 0.35647 0.57461 0.0
H460 H 0.67864 0.44377 0.53104 0.0
H461 H 0.77469 0.37376 0.53161 0.0
C462 C 0.48609 0.21899 0.45323 0.0
C463 C 0.51859 0.2122 0.45819 0.0
N464 N 0.54651 0.2248 0.45236 0.0
N465 N 0.49314 0.23654 0.44436 0.0
C466 C 0.53022 0.23795 0.44381 0.0
H467 H 0.45904 0.21264 0.45616 0.0
Co468 Co 0.4582 0.25365 0.43506 0.0
C469 C 0.50929 0.32086 0.43652 0.0
O470 O 0.52062 0.31285 0.44579 0.0
N471 N 0.42295 0.26981 0.42585 0.0
C472 C 0.38276 0.3055 0.4178 0.0
C473 C 0.41191 0.30492 0.42444 0.0
C474 C 0.39992 0.24951 0.42007 0.0
N475 N 0.37524 0.27058 0.41509 0.0
O476 O 0.4829 0.22647 0.42445 0.0
H477 H 0.42319 0.32856 0.42833 0.0
H478 H 0.40005 0.21979 0.41984 0.0
O479 O 0.48653 0.29933 0.43201 0.0
C480 C 0.4695 0.19401 0.42511 0.0
O481 O 0.44465 0.18754 0.4322 0.0
N482 N 0.43102 0.27584 0.4456 0.0
C483 C 0.38087 0.2965 0.46066 0.0
C484 C 0.40836 0.32097 0.4574 0.0
C485 C 0.4331 0.31021 0.44979 0.0
C486 C 0.40385 0.25221 0.44854 0.0
C487 C 0.37875 0.26176 0.45612 0.0
H488 H 0.45274 0.33017 0.4472 0.0
H489 H 0.40173 0.22554 0.44494 0.0
H490 H 0.54487 0.25058 0.43751 0.0
H491 H 0.52105 0.20171 0.46591 0.0
H492 H 0.36799 0.3297 0.41527 0.0
H493 H 0.4107 0.34822 0.46068 0.0
H494 H 0.35744 0.24235 0.45825 0.0
C495 C 0.20351 0.53645 0.54549 0.0
C496 C 0.18912 0.51483 0.53785 0.0
N497 N 0.20656 0.48219 0.53807 0.0
N498 N 0.23022 0.51767 0.55038 0.0
C499 C 0.2312 0.48457 0.54575 0.0
H500 H 0.19626 0.56473 0.54708 0.0
Co501 Co 0.25973 0.53865 0.56033 0.0
C502 C 0.31546 0.46951 0.56034 0.0
O503 O 0.30226 0.43686 0.55811 0.0
N504 N 0.289 0.56082 0.57028 0.0
C505 C 0.3364 0.58888 0.57768 0.0
C506 C 0.32534 0.5682 0.56946 0.0
C507 C 0.27863 0.57732 0.57906 0.0
N508 N 0.3069 0.59461 0.58367 0.0
O509 O 0.22975 0.51506 0.57046 0.0
H510 H 0.34251 0.5603 0.56308 0.0
H511 H 0.25061 0.5787 0.58178 0.0
O512 O 0.29392 0.49731 0.56038 0.0
C513 C 0.20131 0.53403 0.57265 0.0
O514 O 0.1985 0.56753 0.56894 0.0
N515 N 0.28594 0.56292 0.5501 0.0
C516 C 0.31232 0.60389 0.53367 0.0
C517 C 0.31847 0.56578 0.53418 0.0
C518 C 0.30491 0.54566 0.54248 0.0
C519 C 0.28022 0.59994 0.54981 0.0
C520 C 0.29353 0.62106 0.54171 0.0
H521 H 0.30823 0.51613 0.54252 0.0
H522 H 0.2641 0.6129 0.55576 0.0
H523 H 0.25121 0.46351 0.54741 0.0
H524 H 0.16873 0.52301 0.53226 0.0
H525 H 0.36369 0.59975 0.57901 0.0
H526 H 0.33292 0.55154 0.52812 0.0
H527 H 0.2877 0.65029 0.54153 0.0
H528 H 0.18698 0.35167 0.29107 0.0
H529 H 0.22234 0.38079 0.27723 0.0
H530 H 0.14253 0.34238 0.25529 0.0
H531 H 0.1076 0.31294 0.26898 0.0
H532 H 0.21253 0.32957 0.24905 0.0
H533 H 0.14178 0.42992 0.26291 0.0
H534 H 0.1198 0.47258 0.27623 0.0
H535 H 0.23036 0.51009 0.28125 0.0
H536 H 0.25309 0.46722 0.26806 0.0
H537 H 0.2329 0.43977 0.20532 0.0
H538 H 0.21084 0.41034 0.22095 0.0
H539 H 0.303 0.4551 0.23758 0.0
H540 H 0.32499 0.48522 0.22192 0.0
H541 H 0.23552 0.46412 0.24764 0.0
H542 H 0.30448 0.36705 0.23208 0.0
H543 H 0.32381 0.32622 0.21803 0.0
H544 H 0.21391 0.28361 0.2157 0.0
H545 H 0.19378 0.32457 0.22965 0.0
C546 C 0.17717 0.34938 0.28328 0.0
C547 C 0.14445 0.33031 0.28109 0.0
C548 C 0.1972 0.36617 0.27541 0.0
C549 C 0.18486 0.36389 0.26526 0.0
C550 C 0.15247 0.34449 0.26307 0.0
C551 C 0.13239 0.32795 0.27091 0.0
C552 C 0.20558 0.38135 0.25681 0.0
C553 C 0.21744 0.35901 0.24872 0.0
C554 C 0.21275 0.41963 0.25654 0.0
C555 C 0.19921 0.44497 0.2646 0.0
C556 C 0.16147 0.44693 0.26694 0.0
C557 C 0.14886 0.47124 0.27445 0.0
C558 C 0.17368 0.49395 0.27961 0.0
C559 C 0.21118 0.49242 0.27727 0.0
C560 C 0.22394 0.46812 0.26978 0.0
C561 C 0.24841 0.44347 0.2123 0.0
C562 C 0.28067 0.46479 0.2124 0.0
C563 C 0.23594 0.42643 0.22121 0.0
C564 C 0.2555 0.43032 0.23038 0.0
C565 C 0.28765 0.45169 0.23055 0.0
C566 C 0.3003 0.4686 0.2216 0.0
C567 C 0.24172 0.4124 0.23979 0.0
C568 C 0.23121 0.43461 0.24807 0.0
C569 C 0.2355 0.37402 0.24021 0.0
C570 C 0.24758 0.34907 0.23188 0.0
C571 C 0.28437 0.34915 0.22853 0.0
C572 C 0.29548 0.32596 0.22059 0.0
C573 C 0.27009 0.30238 0.21596 0.0
C574 C 0.23355 0.30189 0.21929 0.0
C575 C 0.22228 0.32505 0.22723 0.0
H576 H 0.27874 0.28446 0.20981 0.0
H577 H 0.16385 0.51283 0.2854 0.0
H578 H 0.4312 0.70554 0.78266 0.0
H579 H 0.39799 0.73515 0.76855 0.0
H580 H 0.48392 0.8168 0.7662 0.0
H581 H 0.51584 0.78854 0.78065 0.0
H582 H 0.42082 0.84875 0.76395 0.0
H583 H 0.47802 0.74087 0.74985 0.0
H584 H 0.4922 0.67466 0.74858 0.0
H585 H 0.37778 0.65066 0.74383 0.0
H586 H 0.36286 0.71672 0.74521 0.0
H587 H 0.38844 0.9099 0.71301 0.0
H588 H 0.41567 0.88213 0.72828 0.0
H589 H 0.32062 0.81196 0.73165 0.0
H590 H 0.29293 0.83995 0.71651 0.0
H591 H 0.38556 0.77453 0.73368 0.0
H592 H 0.33067 0.88572 0.74647 0.0
H593 H 0.3195 0.95256 0.74728 0.0
H594 H 0.4336 0.9713 0.754 0.0
H595 H 0.44564 0.9046 0.75305 0.0
C596 C 0.44262 0.73003 0.77915 0.0
C597 C 0.47589 0.74488 0.78268 0.0
C598 C 0.42384 0.74681 0.77109 0.0
C599 C 0.43873 0.77799 0.76625 0.0
C600 C 0.47174 0.79307 0.76989 0.0
C601 C 0.48999 0.77687 0.77811 0.0
C602 C 0.42051 0.79461 0.75723 0.0
C603 C 0.41345 0.83259 0.75729 0.0
C604 C 0.41036 0.7734 0.74861 0.0
C605 C 0.41929 0.73368 0.74775 0.0
C606 C 0.45586 0.72144 0.74861 0.0
C607 C 0.46403 0.68395 0.74786 0.0
C608 C 0.43589 0.65846 0.74615 0.0
C609 C 0.39953 0.67043 0.74517 0.0
C610 C 0.39121 0.70789 0.74593 0.0
C611 C 0.37325 0.88871 0.71704 0.0
C612 C 0.33853 0.87712 0.71357 0.0
C613 C 0.38883 0.8729 0.72575 0.0
C614 C 0.36991 0.84534 0.73113 0.0
C615 C 0.33559 0.83324 0.72759 0.0
C616 C 0.31995 0.84908 0.7189 0.0
C617 C 0.38614 0.82862 0.74039 0.0
C618 C 0.3928 0.79063 0.74037 0.0
C619 C 0.39639 0.84995 0.74897 0.0
C620 C 0.38914 0.89013 0.74955 0.0
C621 C 0.35348 0.90409 0.74801 0.0
C622 C 0.34697 0.94197 0.74852 0.0
C623 C 0.37585 0.96618 0.75065 0.0
C624 C 0.41128 0.95254 0.75232 0.0
C625 C 0.41795 0.91469 0.7518 0.0
H626 H 0.37075 0.99549 0.75104 0.0
H627 H 0.44228 0.62945 0.74557 0.0
H628 H 0.69274 0.5317 0.22113 0.0
H629 H 0.71377 0.58889 0.22894 0.0
H630 H 0.789 0.60601 0.20386 0.0
H631 H 0.76892 0.54871 0.19615 0.0
H632 H 0.82373 0.59759 0.2218 0.0
H633 H 0.72598 0.67126 0.20932 0.0
H634 H 0.66189 0.68826 0.20538 0.0
H635 H 0.63546 0.68736 0.23739 0.0
H636 H 0.69925 0.6698 0.24152 0.0
H637 H 0.91181 0.72326 0.25441 0.0
H638 H 0.87926 0.70242 0.23905 0.0
H639 H 0.78352 0.67752 0.2574 0.0
H640 H 0.81541 0.70015 0.27261 0.0
H641 H 0.76188 0.70102 0.23954 0.0
H642 H 0.85209 0.61224 0.25144 0.0
H643 H 0.9144 0.59098 0.25601 0.0
H644 H 0.95226 0.61534 0.22563 0.0
H645 H 0.89025 0.63725 0.22092 0.0
C646 C 0.71309 0.54807 0.21715 0.0
C647 C 0.72994 0.53484 0.20819 0.0
C648 C 0.72477 0.58106 0.22155 0.0
C649 C 0.75323 0.60149 0.21702 0.0
C650 C 0.76708 0.59054 0.20749 0.0
C651 C 0.75543 0.5576 0.20308 0.0
C652 C 0.77358 0.62884 0.22319 0.0
C653 C 0.81047 0.62093 0.22544 0.0
C654 C 0.75595 0.65853 0.22816 0.0
C655 C 0.71745 0.66901 0.22572 0.0
C656 C 0.70646 0.67438 0.21552 0.0
C657 C 0.67017 0.68419 0.21325 0.0
C658 C 0.64461 0.68884 0.22113 0.0
C659 C 0.65529 0.68375 0.23129 0.0
C660 C 0.69154 0.67394 0.2336 0.0
C661 C 0.88365 0.71372 0.25508 0.0
C662 C 0.8661 0.71277 0.26463 0.0
C663 C 0.86509 0.70188 0.24634 0.0
C664 C 0.82919 0.68773 0.2471 0.0
C665 C 0.81117 0.68835 0.25661 0.0
C666 C 0.82942 0.701 0.2653 0.0
C667 C 0.81156 0.66896 0.23832 0.0
C668 C 0.77531 0.67836 0.23564 0.0
C669 C 0.82946 0.64004 0.23305 0.0
C670 C 0.86671 0.62685 0.23588 0.0
C671 C 0.87379 0.61331 0.24576 0.0
C672 C 0.90903 0.60113 0.24837 0.0
C673 C 0.93731 0.60194 0.24113 0.0
C674 C 0.93036 0.61484 0.23124 0.0
C675 C 0.89519 0.62716 0.2286 0.0
H676 H 0.96457 0.59247 0.24316 0.0
H677 H 0.61653 0.69644 0.21936 0.0
H678 H 0.55224 0.24147 0.78445 0.0
H679 H 0.60411 0.23457 0.77289 0.0
H680 H 0.57 0.3316 0.75638 0.0
H681 H 0.51758 0.33846 0.76796 0.0
H682 H 0.57053 0.27382 0.74438 0.0
H683 H 0.65666 0.32618 0.76728 0.0
H684 H 0.68792 0.33725 0.78371 0.0
H685 H 0.72322 0.22455 0.78463 0.0
H686 H 0.69173 0.2126 0.76828 0.0
H687 H 0.6939 0.21311 0.70627 0.0
H688 H 0.67068 0.25438 0.71957 0.0
H689 H 0.68122 0.16749 0.74188 0.0
H690 H 0.70551 0.1265 0.72873 0.0
H691 H 0.69981 0.23503 0.74994 0.0
H692 H 0.60063 0.18036 0.73023 0.0
H693 H 0.56771 0.16613 0.71423 0.0
H694 H 0.55571 0.28158 0.708 0.0
H695 H 0.58896 0.29646 0.72394 0.0
C696 C 0.55647 0.2622 0.77863 0.0
C697 C 0.53025 0.28999 0.77696 0.0
C698 C 0.58635 0.2583 0.77202 0.0
C699 C 0.59083 0.28244 0.76371 0.0
C700 C 0.56691 0.31252 0.7627 0.0
C701 C 0.53691 0.31631 0.76929 0.0
C702 C 0.61544 0.27197 0.75515 0.0
C703 C 0.59918 0.26653 0.74554 0.0
C704 C 0.65251 0.26146 0.75671 0.0
C705 C 0.67166 0.26847 0.76655 0.0
C706 C 0.67087 0.30367 0.77102 0.0
C707 C 0.68867 0.31012 0.78031 0.0
C708 C 0.70751 0.28162 0.78522 0.0
C709 C 0.70864 0.24662 0.78082 0.0
C710 C 0.69087 0.24001 0.77152 0.0
C711 C 0.69189 0.20303 0.71405 0.0
C712 C 0.70097 0.1664 0.71643 0.0
C713 C 0.6786 0.2266 0.72162 0.0
C714 C 0.67399 0.21385 0.73168 0.0
C715 C 0.68464 0.17786 0.73417 0.0
C716 C 0.69796 0.15432 0.72661 0.0
C717 C 0.65445 0.23635 0.73937 0.0
C718 C 0.67156 0.24368 0.74877 0.0
C719 C 0.61797 0.24836 0.7377 0.0
C720 C 0.59764 0.2395 0.72819 0.0
C721 C 0.59117 0.20269 0.72541 0.0
C722 C 0.57244 0.19451 0.71636 0.0
C723 C 0.55975 0.22293 0.71008 0.0
C724 C 0.56564 0.2596 0.71286 0.0
C725 C 0.5844 0.26792 0.7219 0.0
H726 H 0.54527 0.21655 0.70307 0.0
H727 H 0.72127 0.28667 0.79242 0.0
H728 H 0.24206 0.09127 0.04762 0.0
H729 H 0.23707 0.14074 0.03524 0.0
H730 H 0.30698 0.08128 0.0144 0.0
H731 H 0.31275 0.03148 0.02686 0.0
H732 H 0.30384 0.16555 0.01207 0.0
H733 H 0.2299 0.05345 0.01329 0.0
H734 H 0.19289 0.00714 0.0225 0.0
H735 H 0.11586 0.09088 0.03134 0.0
H736 H 0.15342 0.13791 0.02259 0.0
H737 H 0.21077 0.19515 0.96405 0.0
H738 H 0.24579 0.17401 0.97895 0.0
H739 H 0.15937 0.21264 -0.00113 0.0
H740 H 0.1243 0.23354 0.98405 0.0
H741 H 0.17421 0.14202 0.00201 0.0
H742 H 0.24391 0.2533 -0.0012 0.0
H743 H 0.28157 0.29975 0.98986 0.0
H744 H 0.36492 0.21869 0.98408 0.0
H745 H 0.32751 0.17158 0.99286 0.0
C746 C 0.25784 0.08916 0.04063 0.0
C747 C 0.27639 0.0565 0.03803 0.0
C748 C 0.25509 0.11776 0.03357 0.0
C749 C 0.27085 0.11407 0.02384 0.0
C750 C 0.29433 0.08438 0.02185 0.0
C751 C 0.29706 0.05565 0.02892 0.0
C752 C 0.25464 0.1345 0.0152 0.0
C753 C 0.2756 0.16045 0.0098 0.0
C754 C 0.21775 0.12773 0.01232 0.0
C755 C 0.19482 0.0993 0.01744 0.0
C756 C 0.20539 0.06206 0.01734 0.0
C757 C 0.18434 0.03567 0.02249 0.0
C758 C 0.15217 0.04606 0.02757 0.0
C759 C 0.14097 0.08286 0.02749 0.0
C760 C 0.1622 0.10943 0.02247 0.0
C761 C 0.19966 0.19975 0.97163 0.0
C762 C 0.16462 0.21542 0.97291 0.0
C763 C 0.21973 0.18783 0.98013 0.0
C764 C 0.20516 0.19181 0.99001 0.0
C765 C 0.17102 0.20919 0.99131 0.0
C766 C 0.15093 0.22088 0.98284 0.0
C767 C 0.22302 0.1739 -0.00112 0.0
C768 C 0.20235 0.14776 0.00429 0.0
C769 C 0.26009 0.18053 0.00166 0.0
C770 C 0.28273 0.20881 -0.00359 0.0
C771 C 0.27013 0.24529 -0.00446 0.0
C772 C 0.29146 0.27176 0.99052 0.0
C773 C 0.32558 0.26216 0.98638 0.0
C774 C 0.33847 0.22607 0.98728 0.0
C775 C 0.31723 0.19949 0.99229 0.0
H776 H 0.34206 0.28269 0.98249 0.0
H777 H 0.13585 0.02557 0.03153 0.0
H778 H 0.07185 0.75777 0.9584 0.0
H779 H 0.09961 0.77714 0.97447 0.0
H780 H 0.02448 0.70724 0.99112 0.0
H781 H 0.99541 0.68905 0.97511 0.0
H782 H 0.02415 0.77381 -0.00116 0.0
H783 H 0.11803 0.68811 0.98994 0.0
H784 H 0.16405 0.65796 0.97891 0.0
H785 H 0.22395 0.75947 0.97641 0.0
H786 H 0.17803 0.79039 0.98731 0.0
H787 H 0.11377 0.82577 0.04567 0.0
H788 H 0.09245 0.78622 0.0316 0.0
H789 H 0.14615 0.85762 0.00983 0.0
H790 H 0.16714 0.89716 0.02377 0.0
H791 H 0.15781 0.78139 0.00624 0.0
H792 H 0.05942 0.86811 0.01274 0.0
H793 H 0.01327 0.89951 0.02347 0.0
H794 H 0.96224 0.79572 0.03031 0.0
H795 H 0.00842 0.76365 0.01971 0.0
C796 C 0.06131 0.74634 0.96547 0.0
C797 C 0.03109 0.72215 0.96544 0.0
C798 C 0.07754 0.75709 0.97466 0.0
C799 C 0.06429 0.74345 0.98401 0.0
C800 C 0.03519 0.71806 0.98399 0.0
C801 C 0.01878 0.70745 0.9748 0.0
C802 C 0.07852 0.75837 0.99378 0.0
C803 C 0.05334 0.7746 0.00057 0.0
C804 C 0.11664 0.76013 -0.00405 0.0
C805 C 0.14442 0.74163 0.9894 0.0
C806 C 0.14087 0.70408 0.98698 0.0
C807 C 0.16697 0.68684 0.98076 0.0
C808 C 0.19687 0.7068 0.97695 0.0
C809 C 0.20077 0.74404 0.97937 0.0
C810 C 0.17474 0.76142 0.98558 0.0
C811 C 0.12105 0.83279 0.03787 0.0
C812 C 0.14165 0.86462 0.03575 0.0
C813 C 0.10892 0.81031 0.02988 0.0
C814 C 0.11775 0.81916 0.01971 0.0
C815 C 0.13917 0.85036 0.01763 0.0
C816 C 0.15081 0.87305 0.02558 0.0
C817 C 0.10346 0.79701 0.01113 0.0
C818 C 0.12861 0.77968 0.00458 0.0
C819 C 0.06535 0.79423 0.00916 0.0
C820 C 0.03764 0.81344 0.01555 0.0
C821 C 0.03858 0.85195 0.01662 0.0
C822 C 0.01237 0.86988 0.02265 0.0
C823 C 0.98491 0.84961 0.0276 0.0
C824 C 0.98357 0.81138 0.02649 0.0
C825 C 0.00974 0.79331 0.02047 0.0
H826 H 0.96463 0.86355 0.03226 0.0
H827 H 0.21704 0.6934 0.97213 0.0
H828 H 0.81103 0.82766 0.95055 0.0
H829 H 0.77006 0.85164 0.96384 0.0
H830 H 0.85525 0.83586 0.98638 0.0
H831 H 0.89579 0.81074 0.97324 0.0
H832 H 0.78868 0.81731 0.99398 0.0
H833 H 0.8424 0.9192 0.9756 0.0
H834 H 0.85761 0.9555 0.96022 0.0
H835 H 0.74259 0.96922 0.95377 0.0
H836 H 0.72671 0.93255 0.96905 0.0
H837 H 0.74705 0.95103 0.0318 0.0
H838 H 0.77259 0.9106 0.01872 0.0
H839 H 0.68066 0.93489 -0.00101 0.0
H840 H 0.65571 0.97644 0.01185 0.0
H841 H 0.74423 0.94534 0.98938 0.0
H842 H 0.69152 0.84894 0.00963 0.0
H843 H 0.67876 0.8139 0.02539 0.0
H844 H 0.79401 0.79121 0.02889 0.0
H845 H 0.80754 0.82653 0.01321 0.0
C846 C 0.82079 0.82881 0.95837 0.0
C847 C 0.85679 0.81784 0.96083 0.0
C848 C 0.79746 0.84266 0.96593 0.0
C849 C 0.80984 0.84594 0.97606 0.0
C850 C 0.84522 0.83365 0.97861 0.0
C851 C 0.86849 0.81976 0.97107 0.0
C852 C 0.78695 0.86422 0.98391 0.0
C853 C 0.77903 0.84535 0.99302 0.0
C854 C 0.77391 0.90056 0.98255 0.0
C855 C 0.78338 0.92279 0.9734 0.0
C856 C 0.82036 0.92973 0.97086 0.0
C857 C 0.8291 0.9504 0.96217 0.0
C858 C 0.80108 0.96456 0.956 0.0
C859 C 0.76426 0.95817 0.95854 0.0
C860 C 0.75537 0.93746 0.96722 0.0
C861 C 0.73215 0.94765 0.02471 0.0
C862 C 0.69951 0.96733 0.02286 0.0
C863 C 0.74655 0.92415 0.01728 0.0
C864 C 0.72839 0.91958 0.0079 0.0
C865 C 0.69505 0.93798 0.00619 0.0
C866 C 0.68068 0.96155 0.0136 0.0
C867 C 0.746 0.89856 -0.00047 0.0
C868 C 0.75318 0.91704 0.99031 0.0
C869 C 0.75861 0.86203 0.00086 0.0
C870 C 0.75056 0.84062 0.01027 0.0
C871 C 0.71418 0.83671 0.01379 0.0
C872 C 0.7068 0.81675 0.02271 0.0
C873 C 0.73556 0.8004 0.02815 0.0
C874 C 0.77176 0.8039 0.02467 0.0
C875 C 0.77929 0.82384 0.01576 0.0
H876 H 0.72979 0.78496 0.03505 0.0
H877 H 0.8079 0.98057 0.94927 0.0
H878 H 0.81814 0.17674 0.02037 0.0
H879 H 0.84191 0.2174 0.00694 0.0
H880 H 0.74074 0.20501 0.99007 0.0
H881 H 0.71634 0.16492 0.0037 0.0
H882 H 0.81557 0.19007 0.9796 0.0
H883 H 0.74657 0.28154 -0.00261 0.0
H884 H 0.72399 0.31397 0.0127 0.0
H885 H 0.83447 0.34569 0.02028 0.0
H886 H 0.85781 0.31294 0.0051 0.0
H887 H 0.9247 0.29699 0.94645 0.0
H888 H 0.86703 0.28214 0.95524 0.0
H889 H 0.91956 0.30135 0.98431 0.0
H890 H 0.97665 0.31628 0.97567 0.0
H891 H 0.84987 0.32049 0.98562 0.0
H892 H 0.91741 0.2119 0.97449 0.0
H893 H 0.9482 0.17256 0.96184 0.0
H894 H 0.84945 0.16909 0.94382 0.0
H895 H 0.81784 0.20819 0.95656 0.0
C896 C 0.80102 0.18277 0.0138 0.0
C897 C 0.7656 0.16773 0.01299 0.0
C898 C 0.81442 0.20613 0.0062 0.0
C899 C 0.79283 0.21437 -0.00238 0.0
C900 C 0.75754 0.19913 -0.00329 0.0
C901 C 0.74376 0.17631 0.00444 0.0
C902 C 0.8088 0.2371 0.98939 0.0
C903 C 0.82189 0.21901 0.98068 0.0
C904 C 0.81784 0.27444 0.99104 0.0
C905 C 0.80395 0.29466 0.00011 0.0
C906 C 0.76609 0.29523 0.00235 0.0
C907 C 0.75315 0.3137 0.01101 0.0
C908 C 0.77778 0.33186 0.01747 0.0
C909 C 0.81541 0.33164 0.01527 0.0
C910 C 0.82851 0.31318 0.00663 0.0
C911 C 0.92373 0.29867 0.9547 0.0
C912 C 0.95556 0.30721 0.96034 0.0
C913 C 0.89074 0.29027 0.95971 0.0
C914 C 0.88917 0.28996 0.97044 0.0
C915 C 0.92001 0.30146 0.97603 0.0
C916 C 0.95282 0.31004 0.97104 0.0
C917 C 0.85773 0.27309 0.97598 0.0
C918 C 0.84195 0.29215 0.98423 0.0
C919 C 0.84692 0.23626 0.97409 0.0
C920 C 0.86553 0.21323 0.96636 0.0
C921 C 0.90237 0.20287 0.96779 0.0
C922 C 0.91993 0.18055 0.96062 0.0
C923 C 0.90097 0.16852 0.95195 0.0
C924 C 0.86418 0.17855 0.95051 0.0
C925 C 0.84637 0.20067 0.95773 0.0
H926 H 0.9147 0.15131 0.94638 0.0
H927 H 0.76771 0.34613 0.02417 0.0
H928 H 0.69478 0.83283 0.79085 0.0
H929 H 0.72522 0.86382 0.77654 0.0
H930 H 0.68484 0.78033 0.75594 0.0
H931 H 0.65544 0.74851 0.7704 0.0
H932 H 0.75264 0.80589 0.74998 0.0
H933 H 0.63599 0.85657 0.75939 0.0
H934 H 0.5904 0.88076 0.77162 0.0
H935 H 0.66226 0.97102 0.77871 0.0
H936 H 0.70867 0.9469 0.76669 0.0
H937 H 0.75635 0.92874 0.7063 0.0
H938 H 0.73737 0.88472 0.71956 0.0
H939 H 0.77899 0.95766 0.74283 0.0
H940 H 0.79741 1.00171 0.72973 0.0
H941 H 0.70799 0.93441 0.74652 0.0
H942 H 0.82526 0.88142 0.73707 0.0
H943 H 0.87049 0.85513 0.72507 0.0
H944 H 0.79478 0.76864 0.71745 0.0
H945 H 0.74889 0.79472 0.72932 0.0
C946 C 0.6934 0.82061 0.78331 0.0
C947 C 0.6728 0.78855 0.78164 0.0
C948 C 0.7106 0.83832 0.77514 0.0
C949 C 0.7065 0.82481 0.76515 0.0
C950 C 0.68819 0.79124 0.76359 0.0
C951 C 0.67146 0.77313 0.77182 0.0
C952 C 0.71768 0.84789 0.75634 0.0
C953 C 0.74258 0.83384 0.74913 0.0
C954 C 0.70443 0.88434 0.75525 0.0
C955 C 0.67594 0.89975 0.76219 0.0
C956 C 0.64213 0.88151 0.76358 0.0
C957 C 0.61616 0.89519 0.77049 0.0
C958 C 0.62347 0.92738 0.77596 0.0
C959 C 0.65667 0.94607 0.77448 0.0
C960 C 0.68282 0.9324 0.76762 0.0
C961 C 0.76152 0.93526 0.71425 0.0
C962 C 0.77844 0.96867 0.71696 0.0
C963 C 0.75092 0.91002 0.72179 0.0
C964 C 0.75694 0.91794 0.73216 0.0
C965 C 0.77419 0.95103 0.73487 0.0
C966 C 0.78498 0.97605 0.72735 0.0
C967 C 0.74374 0.89281 0.74029 0.0
C968 C 0.71804 0.90644 0.74733 0.0
C969 C 0.75593 0.85594 0.74112 0.0
C970 C 0.7835 0.84026 0.734 0.0
C971 C 0.81813 0.85699 0.73277 0.0
C972 C 0.84391 0.84208 0.726 0.0
C973 C 0.83547 0.8103 0.72048 0.0
C974 C 0.80126 0.79329 0.72173 0.0
C975 C 0.77537 0.80811 0.72848 0.0
H976 H 0.85547 0.79879 0.71524 0.0
H977 H 0.60344 0.93786 0.78134 0.0
H978 H 0.76384 0.28085 0.2219 0.0
H979 H 0.78332 0.23961 0.23553 0.0
H980 H 0.88983 0.29227 0.23599 0.0
H981 H 0.87205 0.33079 0.22168 0.0
H982 H 0.90032 0.22523 0.23827 0.0
H983 H 0.81494 0.31112 0.25371 0.0
H984 H 0.75517 0.34229 0.25592 0.0
H985 H 0.70286 0.23819 0.26155 0.0
H986 H 0.76232 0.20638 0.25926 0.0
H987 H 0.92877 0.23953 0.29364 0.0
H988 H 0.88169 0.24416 0.28059 0.0
H989 H 0.91836 0.1415 0.2675 0.0
H990 H 0.96744 0.13818 0.28032 0.0
H991 H 0.82796 0.21761 0.27039 0.0
H992 H 0.93059 0.15164 0.24273 0.0
H993 H 0.9963 0.13449 0.24188 0.0
H994 H 0.02319 0.22206 0.26261 0.0
H995 H 0.95774 0.23984 0.26349 0.0
C996 C 0.79175 0.28314 0.2247 0.0
C997 C 0.81633 0.3094 0.22063 0.0
C998 C 0.80262 0.25984 0.23265 0.0
C999 C 0.83786 0.26309 0.23692 0.0
C1000 C 0.86246 0.28908 0.23283 0.0
C1001 C 0.85201 0.31164 0.22472 0.0
C1002 C 0.84954 0.24009 0.24572 0.0
C1003 C 0.88421 0.22326 0.24525 0.0
C1004 C 0.82864 0.23732 0.25485 0.0
C1005 C 0.79291 0.25636 0.25617 0.0
C1006 C 0.79062 0.29487 0.25534 0.0
C1007 C 0.75683 0.31265 0.25662 0.0
C1008 C 0.72521 0.29222 0.25883 0.0
C1009 C 0.72735 0.25397 0.2598 0.0
C1010 C 0.76108 0.23605 0.25851 0.0
C1011 C 0.92598 0.21721 0.28824 0.0
C1012 C 0.95249 0.1892 0.28774 0.0
C1013 C 0.89882 0.21977 0.28077 0.0
C1014 C 0.89745 0.19394 0.27281 0.0
C1015 C 0.91974 0.1624 0.27339 0.0
C1016 C 0.94767 0.16043 0.28071 0.0
C1017 C 0.87945 0.20464 0.26307 0.0
C1018 C 0.84348 0.2187 0.26331 0.0
C1019 C 0.89995 0.20691 0.25386 0.0
C1020 C 0.93934 0.19667 0.25327 0.0
C1021 C 0.95059 0.16721 0.24708 0.0
C1022 C 0.98776 0.15739 0.2466 0.0
C1023 C 0.01388 0.17707 0.25222 0.0
C1024 C 0.00293 0.20676 0.25828 0.0
C1025 C 0.96583 0.21672 0.25877 0.0
H1026 H 0.04262 0.16938 0.25185 0.0
H1027 H 0.69908 0.30604 0.25983 0.0
H1028 H 0.15826 0.04381 0.71215 0.0
H1029 H 0.17292 0.0958 0.72311 0.0
H1030 H 0.24741 0.13772 0.70022 0.0
H1031 H 0.23367 0.08562 0.68933 0.0
H1032 H 0.28206 0.11086 0.71706 0.0
H1033 H 0.18421 0.19394 0.71038 0.0
H1034 H 0.11997 0.21362 0.70788 0.0
H1035 H 0.0942 0.18285 0.73877 0.0
H1036 H 0.15814 0.16239 0.74142 0.0
H1037 H 0.3716 0.21049 0.75546 0.0
H1038 H 0.33686 0.19872 0.73981 0.0
H1039 H 0.24648 0.15626 0.75774 0.0
H1040 H 0.28089 0.16906 0.77346 0.0
H1041 H 0.22086 0.19438 0.74172 0.0
H1042 H 0.30978 0.09852 0.74714 0.0
H1043 H 0.37118 0.07161 0.75006 0.0
H1044 H 0.40987 0.11882 0.72192 0.0
H1045 H 0.34877 0.14641 0.7189 0.0
C1046 C 0.177 0.06458 0.7093 0.0
C1047 C 0.19667 0.05907 0.70015 0.0
C1048 C 0.1849 0.09472 0.71553 0.0
C1049 C 0.21209 0.12001 0.71259 0.0
C1050 C 0.22674 0.11811 0.70268 0.0
C1051 C 0.21891 0.08795 0.69647 0.0
C1052 C 0.23224 0.14045 0.7206 0.0
C1053 C 0.26897 0.13013 0.72225 0.0
C1054 C 0.2146 0.16411 0.72763 0.0
C1055 C 0.17604 0.17643 0.72608 0.0
C1056 C 0.16481 0.19106 0.71662 0.0
C1057 C 0.12843 0.20242 0.71518 0.0
C1058 C 0.10301 0.19945 0.72315 0.0
C1059 C 0.11393 0.18515 0.7326 0.0
C1060 C 0.15027 0.17372 0.73408 0.0
C1061 C 0.34432 0.19862 0.75604 0.0
C1062 C 0.32909 0.18999 0.76562 0.0
C1063 C 0.32444 0.19212 0.74712 0.0
C1064 C 0.2893 0.17614 0.74761 0.0
C1065 C 0.27352 0.16868 0.75719 0.0
C1066 C 0.29323 0.17571 0.76615 0.0
C1067 C 0.27038 0.16444 0.73813 0.0
C1068 C 0.23407 0.17604 0.73631 0.0
C1069 C 0.28796 0.14108 0.731 0.0
C1070 C 0.32488 0.12496 0.73287 0.0
C1071 C 0.33149 0.10347 0.74163 0.0
C1072 C 0.36621 0.08803 0.74329 0.0
C1073 C 0.39444 0.09362 0.7362 0.0
C1074 C 0.388 0.11461 0.72742 0.0
C1075 C 0.35334 0.13015 0.72573 0.0
H1076 H 0.42128 0.08159 0.73749 0.0
H1077 H 0.07486 0.20826 0.72202 0.0
H1078 H 0.15677 0.6553 0.20255 0.0
H1079 H 0.13271 0.68631 0.21765 0.0
H1080 H 0.23251 0.66092 0.23405 0.0
H1081 H 0.25549 0.62733 0.21932 0.0
H1082 H 0.17949 0.64811 0.24583 0.0
H1083 H 0.21125 0.75056 0.22525 0.0
H1084 H 0.21387 0.78909 0.20974 0.0
H1085 H 0.09647 0.80201 0.21051 0.0
H1086 H 0.09307 0.76311 0.22596 0.0
H1087 H 0.08903 0.81456 0.2759 0.0
H1088 H 0.1314 0.79141 0.26278 0.0
H1089 H 0.07706 0.68579 0.26378 0.0
H1090 H 0.03551 0.70848 0.27691 0.0
H1091 H 0.11879 0.77022 0.2444 0.0
H1092 H 0.13308 0.6165 0.25763 0.0
H1093 H 0.13982 0.58133 0.27367 0.0
H1094 H 0.18006 0.67793 0.28888 0.0
H1095 H 0.17418 0.71354 0.27291 0.0
C1096 C 0.17353 0.65601 0.20938 0.0
C1097 C 0.20816 0.63875 0.20965 0.0
C1098 C 0.15995 0.67431 0.21798 0.0
C1099 C 0.18102 0.67651 0.22697 0.0
C1100 C 0.21577 0.65977 0.22721 0.0
C1101 C 0.22908 0.64093 0.21869 0.0
C1102 C 0.16603 0.69455 0.23627 0.0
C1103 C 0.16639 0.6749 0.24552 0.0
C1104 C 0.15003 0.73006 0.23599 0.0
C1105 C 0.1519 0.7537 0.22673 0.0
C1106 C 0.18596 0.76142 0.22208 0.0
C1107 C 0.18759 0.78336 0.2133 0.0
C1108 C 0.15535 0.79794 0.20913 0.0
C1109 C 0.12142 0.79068 0.21375 0.0
C1110 C 0.11963 0.76874 0.22252 0.0
C1111 C 0.08656 0.7863 0.27338 0.0
C1112 C 0.05924 0.76326 0.2775 0.0
C1113 C 0.1107 0.77309 0.2659 0.0
C1114 C 0.10778 0.73668 0.26238 0.0
C1115 C 0.08061 0.71364 0.26655 0.0
C1116 C 0.05681 0.72668 0.27408 0.0
C1117 C 0.13121 0.72322 0.25386 0.0
C1118 C 0.13234 0.74366 0.24475 0.0
C1119 C 0.14975 0.689 0.25437 0.0
C1120 C 0.15291 0.66779 0.26406 0.0
C1121 C 0.14347 0.63023 0.26438 0.0
C1122 C 0.14713 0.61021 0.27347 0.0
C1123 C 0.16031 0.62741 0.28228 0.0
C1124 C 0.16976 0.66467 0.28205 0.0
C1125 C 0.16621 0.6848 0.27298 0.0
H1126 H 0.16334 0.61183 0.28929 0.0
H1127 H 0.15667 0.8149 0.20233 0.0
H1128 H 0.823 0.6034 0.53336 0.0
H1129 H 0.79886 0.64871 0.5212 0.0
H1130 H 0.68964 0.60458 0.52534 0.0
H1131 H 0.71329 0.55942 0.53729 0.0
H1132 H 0.76746 0.63353 0.50334 0.0
H1133 H 0.62561 0.66848 0.52194 0.0
H1134 H 0.60033 0.67933 0.53918 0.0
H1135 H 0.70733 0.71107 0.54992 0.0
H1136 H 0.73318 0.70093 0.53272 0.0
H1137 H 0.63076 0.66403 0.46713 0.0
H1138 H 0.66521 0.64422 0.48217 0.0
H1139 H 0.67125 0.75659 0.49266 0.0
H1140 H 0.63582 0.77658 0.47772 0.0
H1141 H 0.65508 0.70912 0.50816 0.0
H1142 H 0.74556 0.7199 0.4821 0.0
H1143 H 0.77231 0.71104 0.46495 0.0
H1144 H 0.77263 0.59399 0.46952 0.0
H1145 H 0.74536 0.6021 0.48664 0.0
C1146 C 0.79381 0.60364 0.53174 0.0
C1147 C 0.77016 0.57773 0.53631 0.0
C1148 C 0.78005 0.62962 0.52484 0.0
C1149 C 0.74241 0.63026 0.52246 0.0
C1150 C 0.71864 0.60518 0.52725 0.0
C1151 C 0.7323 0.57928 0.53411 0.0
C1152 C 0.72813 0.65428 0.51423 0.0
C1153 C 0.7432 0.65047 0.50442 0.0
C1154 C 0.6969 0.67693 0.51569 0.0
C1155 C 0.68137 0.68377 0.52603 0.0
C1156 C 0.64371 0.67804 0.52796 0.0
C1157 C 0.62929 0.68399 0.53773 0.0
C1158 C 0.65222 0.69582 0.54564 0.0
C1159 C 0.68961 0.70181 0.54379 0.0
C1160 C 0.70418 0.69592 0.53403 0.0
C1161 C 0.639 0.68448 0.4727 0.0
C1162 C 0.63071 0.72186 0.47123 0.0
C1163 C 0.659 0.67318 0.48123 0.0
C1164 C 0.67126 0.69906 0.48842 0.0
C1165 C 0.66225 0.73629 0.48714 0.0
C1166 C 0.64225 0.74764 0.47858 0.0
C1167 C 0.69347 0.68686 0.49726 0.0
C1168 C 0.67984 0.69287 0.50715 0.0
C1169 C 0.72637 0.66667 0.4959 0.0
C1170 C 0.74325 0.66163 0.48565 0.0
C1171 C 0.75115 0.69226 0.47943 0.0
C1172 C 0.76642 0.68737 0.46971 0.0
C1173 C 0.77413 0.65198 0.46614 0.0
C1174 C 0.76665 0.6214 0.4723 0.0
C1175 C 0.75134 0.62613 0.48202 0.0
H1176 H 0.78593 0.64825 0.45861 0.0
H1177 H 0.641 0.70037 0.5532 0.0
H1178 H 0.58445 0.19035 0.46742 0.0
H1179 H 0.63045 0.22018 0.47814 0.0
H1180 H 0.63771 0.30986 0.45661 0.0
H1181 H 0.59091 0.28106 0.44607 0.0
H1182 H 0.69747 0.25389 0.4792 0.0
H1183 H 0.62073 0.38867 0.47017 0.0
H1184 H 0.56218 0.40934 0.46251 0.0
H1185 H 0.51062 0.30784 0.4714 0.0
H1186 H 0.56857 0.287 0.47932 0.0
H1187 H 0.76685 0.39124 0.5132 0.0
H1188 H 0.74761 0.3594 0.4976 0.0
H1189 H 0.6376 0.34911 0.50975 0.0
H1190 H 0.65657 0.38137 0.52526 0.0
H1191 H 0.63455 0.36802 0.49055 0.0
H1192 H 0.69983 0.27712 0.51018 0.0
H1193 H 0.75284 0.25153 0.51955 0.0
H1194 H 0.81864 0.25705 0.4923 0.0
H1195 H 0.76611 0.28318 0.4828 0.0
C1196 C 0.59658 0.21591 0.46481 0.0
C1197 C 0.58254 0.23417 0.45617 0.0
C1198 C 0.6232 0.23276 0.4709 0.0
C1199 C 0.63638 0.26784 0.46834 0.0
C1200 C 0.62715 0.28311 0.45883 0.0
C1201 C 0.60029 0.26644 0.45278 0.0
C1202 C 0.65255 0.29117 0.47643 0.0
C1203 C 0.68416 0.27917 0.48159 0.0
C1204 C 0.63437 0.32353 0.47975 0.0
C1205 C 0.59913 0.33611 0.4752 0.0
C1206 C 0.59684 0.37087 0.47053 0.0
C1207 C 0.56374 0.38265 0.46617 0.0
C1208 C 0.53272 0.35991 0.46647 0.0
C1209 C 0.53466 0.32543 0.47118 0.0
C1210 C 0.56762 0.31364 0.47561 0.0
C1211 C 0.73857 0.38213 0.51252 0.0
C1212 C 0.71318 0.38862 0.52043 0.0
C1213 C 0.72765 0.36395 0.50362 0.0
C1214 C 0.69129 0.35151 0.50256 0.0
C1215 C 0.66578 0.35857 0.51039 0.0
C1216 C 0.6766 0.37703 0.51924 0.0
C1217 C 0.67959 0.33083 0.49337 0.0
C1218 C 0.6486 0.3433 0.48802 0.0
C1219 C 0.69765 0.29832 0.49012 0.0
C1220 C 0.72919 0.28251 0.49581 0.0
C1221 C 0.7257 0.27315 0.50621 0.0
C1222 C 0.75563 0.25851 0.51154 0.0
C1223 C 0.78912 0.25278 0.50653 0.0
C1224 C 0.7927 0.26158 0.49617 0.0
C1225 C 0.76286 0.2763 0.49081 0.0
H1226 H 0.81227 0.24143 0.51067 0.0
H1227 H 0.5072 0.36897 0.46302 0.0
H1228 H 0.20941 0.40881 0.54097 0.0
H1229 H 0.22185 0.36246 0.52778 0.0
H1230 H 0.21794 0.44725 0.50464 0.0
H1231 H 0.20377 0.4929 0.51773 0.0
H1232 H 0.19707 0.38423 0.49653 0.0
H1233 H 0.29799 0.42578 0.51812 0.0
H1234 H 0.32766 0.43465 0.53484 0.0
H1235 H 0.32627 0.31784 0.54003 0.0
H1236 H 0.29556 0.30847 0.5234 0.0
H1237 H 0.3438 0.36148 0.46226 0.0
H1238 H 0.30013 0.37965 0.47555 0.0
H1239 H 0.31297 0.27393 0.49017 0.0
H1240 H 0.35721 0.25574 0.47696 0.0
H1241 H 0.32069 0.33174 0.5034 0.0
H1242 H 0.23351 0.29214 0.47872 0.0
H1243 H 0.20589 0.28743 0.46156 0.0
H1244 H 0.18493 0.40371 0.46148 0.0
H1245 H 0.21293 0.40925 0.47858 0.0
C1246 C 0.21008 0.41709 0.53301 0.0
C1247 C 0.20611 0.45428 0.53033 0.0
C1248 C 0.21718 0.39074 0.5255 0.0
C1249 C 0.22181 0.40157 0.51526 0.0
C1250 C 0.21458 0.43821 0.51249 0.0
C1251 C 0.20658 0.46434 0.51997 0.0
C1252 C 0.23985 0.37692 0.50774 0.0
C1253 C 0.22401 0.37256 0.49803 0.0
C1254 C 0.27473 0.36104 0.50976 0.0
C1255 C 0.29416 0.36648 0.5196 0.0
C1256 C 0.30392 0.40202 0.52285 0.0
C1257 C 0.32089 0.40713 0.53232 0.0
C1258 C 0.32892 0.3768 0.53852 0.0
C1259 C 0.31999 0.3413 0.53524 0.0
C1260 C 0.30273 0.33608 0.5258 0.0
C1261 C 0.33736 0.34215 0.46832 0.0
C1262 C 0.35397 0.30728 0.46861 0.0
C1263 C 0.31207 0.35235 0.47582 0.0
C1264 C 0.30294 0.32788 0.48374 0.0
C1265 C 0.31941 0.29301 0.48405 0.0
C1266 C 0.34457 0.28269 0.47651 0.0
C1267 C 0.27847 0.34016 0.4921 0.0
C1268 C 0.29322 0.34225 0.50197 0.0
C1269 C 0.24292 0.35436 0.49016 0.0
C1270 C 0.22547 0.35112 0.47993 0.0
C1271 C 0.22319 0.31675 0.47503 0.0
C1272 C 0.20744 0.31393 0.46531 0.0
C1273 C 0.19369 0.34525 0.46043 0.0
C1274 C 0.19557 0.37946 0.46527 0.0
C1275 C 0.21131 0.38245 0.47499 0.0
H1276 H 0.18155 0.34302 0.4529 0.0
H1277 H 0.34206 0.38076 0.54585 0.0
H1278 H 0.30321 0.58526 0.51363 0.0
H1279 H 0.32083 0.62091 0.49853 0.0
H1280 H 0.36364 0.70679 0.51794 0.0
H1281 H 0.34569 0.67136 0.53309 0.0
H1282 H 0.32613 0.7354 0.5019 0.0
H1283 H 0.42046 0.64368 0.50693 0.0
H1284 H 0.44412 0.58059 0.50918 0.0
H1285 H 0.39993 0.54993 0.47996 0.0
H1286 H 0.37552 0.61274 0.47761 0.0
H1287 H 0.45666 0.82133 0.46916 0.0
H1288 H 0.41927 0.79199 0.48233 0.0
H1289 H 0.38406 0.70992 0.46061 0.0
H1290 H 0.42176 0.73917 0.44739 0.0
H1291 H 0.41184 0.67866 0.47696 0.0
H1292 H 0.32307 0.77269 0.47107 0.0
H1293 H 0.30001 0.83597 0.46881 0.0
H1294 H 0.33388 0.86304 0.49934 0.0
H1295 H 0.35766 0.80006 0.50173 0.0
C1296 C 0.31665 0.61161 0.51468 0.0
C1297 C 0.32351 0.62535 0.52453 0.0
C1298 C 0.32651 0.63203 0.50605 0.0
C1299 C 0.3439 0.66632 0.50711 0.0
C1300 C 0.35016 0.68043 0.51694 0.0
C1301 C 0.34004 0.66013 0.52559 0.0
C1302 C 0.35695 0.68679 0.49799 0.0
C1303 C 0.3451 0.72318 0.49647 0.0
C1304 C 0.38091 0.67046 0.49077 0.0
C1305 C 0.39582 0.63278 0.49215 0.0
C1306 C 0.41555 0.62341 0.50102 0.0
C1307 C 0.42913 0.58771 0.50231 0.0
C1308 C 0.42343 0.56124 0.49473 0.0
C1309 C 0.40425 0.57044 0.48584 0.0
C1310 C 0.39056 0.60608 0.48452 0.0
C1311 C 0.44011 0.79772 0.46709 0.0
C1312 C 0.44239 0.78236 0.45725 0.0
C1313 C 0.41869 0.78093 0.47465 0.0
C1314 C 0.39878 0.74876 0.47246 0.0
C1315 C 0.39931 0.73464 0.46248 0.0
C1316 C 0.4209 0.75129 0.45494 0.0
C1317 C 0.38126 0.7275 0.48085 0.0
C1318 C 0.39243 0.69089 0.48227 0.0
C1319 C 0.35676 0.74373 0.48795 0.0
C1320 C 0.34242 0.78167 0.48655 0.0
C1321 C 0.32588 0.7922 0.47728 0.0
C1322 C 0.31262 0.82802 0.47598 0.0
C1323 C 0.31554 0.85353 0.48392 0.0
C1324 C 0.33166 0.84325 0.49319 0.0
C1325 C 0.34499 0.80748 0.49453 0.0
H1326 H 0.30526 0.88124 0.4829 0.0
H1327 H 0.43397 0.53362 0.49575 0.0
H1328 H 0.09093 0.12875 0.32939 0.0
H1329 H 0.07393 0.06513 0.33296 0.0
H1330 H 0.95964 0.09186 0.32826 0.0
H1331 H 0.97669 0.15626 0.32461 0.0
H1332 H 0.97889 0.03311 0.34468 0.0
H1333 H 0.99436 0.06466 0.30898 0.0
H1334 H 0.02728 0.0941 0.29465 0.0
H1335 H 0.12195 0.02669 0.30057 0.0
H1336 H 0.08979 0.9974 0.3151 0.0
H1337 H 0.90935 0.86552 0.32458 0.0
H1338 H 0.92737 0.92631 0.33056 0.0
H1339 H 0.04161 0.89828 0.32603 0.0
H1340 H 0.02328 0.83705 0.31985 0.0
H1341 H 0.02446 0.95794 0.31564 0.0
H1342 H 0.00576 0.92065 0.35017 0.0
H1343 H 0.97385 0.89316 0.36497 0.0
H1344 H 0.88539 0.97043 0.36155 0.0
H1345 H 0.91649 0.99809 0.34663 0.0
C1346 C 0.06202 0.12141 0.32943 0.0
C1347 C 0.03512 0.14731 0.32664 0.0
C1348 C 0.05237 0.08504 0.33149 0.0
C1349 C 0.01563 0.07371 0.33076 0.0
C1350 C 0.98816 0.10017 0.3289 0.0
C1351 C 0.99788 0.13691 0.32684 0.0
C1352 C 0.00737 0.03374 0.33027 0.0
C1353 C 0.98835 0.01659 0.3383 0.0
C1354 C 0.02072 0.0122 0.32207 0.0
C1355 C 0.03982 0.02914 0.31319 0.0
C1356 C 0.02231 0.05634 0.30729 0.0
C1357 C 0.04081 0.07298 0.29912 0.0
C1358 C 0.07672 0.06233 0.29672 0.0
C1359 C 0.09415 0.03494 0.30246 0.0
C1360 C 0.0758 0.01832 0.31065 0.0
C1361 C 0.93841 0.87182 0.32524 0.0
C1362 C 0.96496 0.84664 0.32177 0.0
C1363 C 0.94872 0.90664 0.32869 0.0
C1364 C 0.98588 0.9171 0.32876 0.0
C1365 C 0.01274 0.89085 0.32606 0.0
C1366 C 1.00235 0.85573 0.32264 0.0
C1367 C 0.99576 0.95665 0.33008 0.0
C1368 C 0.0151 0.97403 0.32213 0.0
C1369 C 0.98248 0.97822 0.33834 0.0
C1370 C 0.96341 0.96133 0.34723 0.0
C1371 C 0.97935 0.93158 0.35251 0.0
C1372 C 0.96144 0.91602 0.36094 0.0
C1373 C 0.92765 0.93007 0.3642 0.0
C1374 C 0.9116 0.95962 0.35902 0.0
C1375 C 0.92939 0.97529 0.35058 0.0
H1376 H 0.91396 0.91816 0.37077 0.0
H1377 H 0.09102 0.07523 0.29039 0.0
H1378 H 0.17104 0.01703 0.66199 0.0
H1379 H 0.1067 0.03479 0.65897 0.0
H1380 H 0.07336 0.92142 0.66246 0.0
H1381 H 0.13708 0.90359 0.66493 0.0
H1382 H 0.02961 0.95067 0.64965 0.0
H1383 H 0.07544 0.98706 0.68289 0.0
H1384 H 0.11628 0.01994 0.69486 0.0
H1385 H 0.08321 0.1234 0.68191 0.0
H1386 H 0.04252 0.09108 0.66977 0.0
H1387 H 0.85011 0.97533 0.67369 0.0
H1388 H 0.91289 0.95813 0.66835 0.0
H1389 H 0.93463 0.07092 0.65998 0.0
H1390 H 0.87264 0.08796 0.66524 0.0
H1391 H 0.98392 0.04497 0.67389 0.0
H1392 H 0.9319 0.00622 0.64191 0.0
H1393 H 0.88967 0.97134 0.6308 0.0
H1394 H 0.9327 0.86965 0.64251 0.0
H1395 H 0.97486 0.90395 0.6538 0.0
C1396 C 0.15008 0.99585 0.66176 0.0
C1397 C 0.15911 0.95898 0.66382 0.0
C1398 C 0.11321 0.00602 0.66016 0.0
C1399 C 0.08482 0.97959 0.66079 0.0
C1400 C 0.09443 0.94248 0.66201 0.0
C1401 C 0.13105 0.93232 0.66347 0.0
C1402 C 0.04511 0.99027 0.66114 0.0
C1403 C 0.01966 0.97122 0.65499 0.0
C1404 C 0.03182 0.01724 0.66804 0.0
C1405 C 0.05629 0.03663 0.67535 0.0
C1406 C 0.07709 0.0168 0.68255 0.0
C1407 C 0.1002 0.03534 0.68937 0.0
C1408 C 0.10243 0.07373 0.68912 0.0
C1409 C 0.08152 0.09366 0.68207 0.0
C1410 C 0.05844 0.07526 0.67522 0.0
C1411 C 0.86791 0.99603 0.67035 0.0
C1412 C 0.85661 0.03297 0.66991 0.0
C1413 C 0.90383 0.9863 0.66736 0.0
C1414 C 0.92865 0.01338 0.66386 0.0
C1415 C 0.91621 0.04964 0.66273 0.0
C1416 C 0.88066 0.05928 0.6657 0.0
C1417 C 0.96853 0.0053 0.66244 0.0
C1418 C 0.99394 0.02474 0.66846 0.0
C1419 C 0.98161 0.97834 0.65556 0.0
C1420 C 0.95629 0.95767 0.64878 0.0
C1421 C 0.93213 0.97643 0.64219 0.0
C1422 C 0.90826 0.95676 0.63584 0.0
C1423 C 0.90843 0.9183 0.63597 0.0
C1424 C 0.93256 0.89944 0.64243 0.0
C1425 C 0.95648 0.91898 0.6488 0.0
H1426 H 0.88993 0.90312 0.63105 0.0
H1427 H 0.12021 0.0881 0.69441 0.0
H1428 H 0.03949 0.65897 0.92329 0.0
H1429 H 0.05492 0.59367 0.92076 0.0
H1430 H 0.95088 0.57679 0.9056 0.0
H1431 H 0.93588 0.64156 0.90793 0.0
H1432 H 0.01753 0.53739 0.92922 0.0
H1433 H 0.95338 0.50445 0.89006 0.0
H1434 H 0.94279 0.53522 0.87349 0.0
H1435 H 0.03848 0.60248 0.87817 0.0
H1436 H 0.04979 0.57193 0.89473 0.0
H1437 H 0.98868 0.34749 0.9276 0.0
H1438 H 0.97162 0.41088 0.92309 0.0
H1439 H 0.07109 0.42153 0.90534 0.0
H1440 H 0.08834 0.35859 0.90996 0.0
H1441 H 0.0094 0.46365 0.89737 0.0
H1442 H 0.07773 0.4414 0.92885 0.0
H1443 H 0.08554 0.40937 0.94535 0.0
H1444 H 0.98277 0.45352 0.95593 0.0
H1445 H 0.974 0.4852 0.93939 0.0
C1446 C 0.02069 0.64157 0.91906 0.0
C1447 C 0.98661 0.65534 0.91576 0.0
C1448 C 0.02926 0.60417 0.91773 0.0
C1449 C 0.00407 0.58016 0.91299 0.0
C1450 C 0.97104 0.59461 0.90915 0.0
C1451 C 0.96248 0.63174 0.9105 0.0
C1452 C 0.01043 0.53959 0.91286 0.0
C1453 C 0.01599 0.52144 0.92223 0.0
C1454 C 0.00796 0.51844 0.90378 0.0
C1455 C 1.00231 0.536 0.89366 0.0
C1456 C 0.97232 0.5256 0.88752 0.0
C1457 C 0.96613 0.54308 0.87814 0.0
C1458 C 0.98991 0.57083 0.87479 0.0
C1459 C 0.02002 0.58105 0.88079 0.0
C1460 C 0.02631 0.5637 0.89018 0.0
C1461 C 0.00582 0.36272 0.9223 0.0
C1462 C 0.03961 0.34817 0.91903 0.0
C1463 C 0.99628 0.39905 0.9198 0.0
C1464 C 0.02033 0.42107 0.91397 0.0
C1465 C 0.05209 0.40508 0.90981 0.0
C1466 C 0.06186 0.36906 0.91242 0.0
C1467 C 0.01608 0.46179 0.91371 0.0
C1468 C 0.01097 0.47982 0.90432 0.0
C1469 C 0.01895 0.48295 0.92276 0.0
C1470 C 0.02508 0.46541 0.93287 0.0
C1471 C 0.05675 0.44418 0.93469 0.0
C1472 C 0.06133 0.42605 0.94404 0.0
C1473 C 0.03463 0.42935 0.95168 0.0
C1474 C 0.0034 0.45095 0.95 0.0
C1475 C 0.99862 0.469 0.94064 0.0
H1476 H 0.03816 0.41521 0.9589 0.0
H1477 H 0.98501 0.58439 0.86755 0.0
H1478 H 0.60045 0.1217 0.06917 0.0
H1479 H 0.5393 0.10718 0.07571 0.0
H1480 H 0.56219 0.99129 0.07256 0.0
H1481 H 0.62403 0.00592 0.06595 0.0
H1482 H 0.48961 0.07247 0.06344 0.0
H1483 H 0.50244 0.94536 0.0897 0.0
H1484 H 0.54593 0.91893 0.10218 0.0
H1485 H 0.5876 0.02687 0.10884 0.0
H1486 H 0.54402 0.054 0.09652 0.0
H1487 H 0.34086 0.93407 0.0789 0.0
H1488 H 0.40404 0.95493 0.0804 0.0
H1489 H 0.36745 0.06782 0.07909 0.0
H1490 H 0.30354 0.04672 0.07709 0.0
H1491 H 0.44698 0.99252 0.09182 0.0
H1492 H 0.42932 0.11869 0.0655 0.0
H1493 H 0.38708 0.14183 0.0522 0.0
H1494 H 0.35756 0.03093 0.04436 0.0
H1495 H 0.4 0.00719 0.05751 0.0
C1496 C 0.59291 0.09305 0.07016 0.0
C1497 C 0.61691 0.0649 0.06703 0.0
C1498 C 0.55785 0.08482 0.07386 0.0
C1499 C 0.54593 0.04821 0.07453 0.0
C1500 C 0.57087 0.01977 0.07216 0.0
C1501 C 0.60627 0.02808 0.06845 0.0
C1502 C 0.5063 0.04048 0.07652 0.0
C1503 C 0.48025 0.05551 0.06976 0.0
C1504 C 0.49412 0.01758 0.08459 0.0
C1505 C 0.52018 1.00165 0.0921 0.0
C1506 C 0.52079 0.96347 0.09386 0.0
C1507 C 0.54547 0.94836 0.1009 0.0
C1508 C 0.5696 0.97119 0.10627 0.0
C1509 C 0.569 0.0092 0.10464 0.0
C1510 C 0.54436 0.02445 0.09761 0.0
C1511 C 0.34605 0.96343 0.07908 0.0
C1512 C 0.31719 0.98875 0.0777 0.0
C1513 C 0.38237 0.97534 0.08 0.0
C1514 C 0.39087 0.01295 0.07963 0.0
C1515 C 0.36175 0.03857 0.07917 0.0
C1516 C 0.32515 0.02655 0.07814 0.0
C1517 C 0.43022 0.02444 0.07872 0.0
C1518 C 0.45628 0.00995 0.0856 0.0
C1519 C 0.44262 0.04732 0.07063 0.0
C1520 C 0.41747 0.06123 0.06258 0.0
C1521 C 0.41388 0.09928 0.06092 0.0
C1522 C 0.38991 0.11249 0.0534 0.0
C1523 C 0.36953 0.08789 0.04747 0.0
C1524 C 0.37323 0.04999 0.04899 0.0
C1525 C 0.39725 0.03664 0.05647 0.0
H1526 H 0.35099 0.09823 0.04167 0.0
H1527 H 0.58869 0.95945 0.11172 0.0
H1528 H 0.49765 0.32354 0.81791 0.0
H1529 H 0.51566 0.38533 0.82392 0.0
H1530 H 0.40237 0.42013 0.82248 0.0
H1531 H 0.38438 0.35921 0.81666 0.0
H1532 H 0.44953 0.46396 0.81098 0.0
H1533 H 0.44144 0.41246 0.84491 0.0
H1534 H 0.45655 0.36831 0.8586 0.0
H1535 H 0.57032 0.39969 0.8569 0.0
H1536 H 0.55597 0.44367 0.84308 0.0
H1537 H 0.47832 0.64805 0.82422 0.0
H1538 H 0.45188 0.58622 0.8264 0.0
H1539 H 0.55992 0.54309 0.83299 0.0
H1540 H 0.58584 0.60444 0.83126 0.0
H1541 H 0.51242 0.50339 0.84278 0.0
H1542 H 0.52473 0.54794 0.80821 0.0
H1543 H 0.51377 0.59159 0.79408 0.0
H1544 H 0.39757 0.57126 0.79603 0.0
H1545 H 0.40781 0.52793 0.81031 0.0
C1546 C 0.47659 0.34413 0.81918 0.0
C1547 C 0.43969 0.33665 0.81672 0.0
C1548 C 0.48687 0.37942 0.82256 0.0
C1549 C 0.46032 0.40744 0.82354 0.0
C1550 C 0.42332 0.39911 0.82169 0.0
C1551 C 0.41312 0.36417 0.81837 0.0
C1552 C 0.47089 0.44632 0.82554 0.0
C1553 C 0.46279 0.47266 0.81801 0.0
C1554 C 0.48902 0.45751 0.83458 0.0
C1555 C 0.49768 0.43108 0.84288 0.0
C1556 C 0.46974 0.40969 0.84738 0.0
C1557 C 0.47815 0.38476 0.85519 0.0
C1558 C 0.51439 0.38113 0.8586 0.0
C1559 C 0.54228 0.40249 0.85424 0.0
C1560 C 0.53401 0.42745 0.84642 0.0
C1561 C 0.49604 0.6256 0.82655 0.0
C1562 C 0.53418 0.63091 0.82742 0.0
C1563 C 0.48105 0.59019 0.82768 0.0
C1564 C 0.50411 0.55969 0.82955 0.0
C1565 C 0.54153 0.5659 0.83146 0.0
C1566 C 0.55636 0.60109 0.83042 0.0
C1567 C 0.49086 0.52113 0.82823 0.0
C1568 C 0.49872 0.49477 0.83581 0.0
C1569 C 0.47313 0.50964 0.81913 0.0
C1570 C 0.46699 0.53503 0.8104 0.0
C1571 C 0.49683 0.55292 0.80566 0.0
C1572 C 0.49075 0.57762 0.79763 0.0
C1573 C 0.45499 0.58428 0.79418 0.0
C1574 C 0.42525 0.56614 0.79873 0.0
C1575 C 0.43116 0.54152 0.80679 0.0
H1576 H 0.45033 0.60345 0.78797 0.0
H1577 H 0.52085 0.36182 0.86465 0.0
H1578 H 0.6418 0.37987 0.17238 0.0
H1579 H 0.58156 0.39706 0.16601 0.0
H1580 H 0.61585 0.51069 0.16441 0.0
H1581 H 0.67681 0.49332 0.17115 0.0
H1582 H 0.5532 0.50527 0.1744 0.0
H1583 H 0.5944 0.45986 0.14255 0.0
H1584 H 0.62474 0.41673 0.13075 0.0
H1585 H 0.54472 0.3337 0.13802 0.0
H1586 H 0.51423 0.37617 0.15004 0.0
H1587 H 0.38343 0.55792 0.15426 0.0
H1588 H 0.44714 0.53818 0.15234 0.0
H1589 H 0.42073 0.43428 0.16649 0.0
H1590 H 0.35645 0.45426 0.16862 0.0
H1591 H 0.48021 0.43865 0.14819 0.0
H1592 H 0.44739 0.48338 0.18234 0.0
H1593 H 0.41768 0.52818 0.19384 0.0
H1594 H 0.48361 0.615 0.18109 0.0
H1595 H 0.51336 0.5707 0.16941 0.0
C1596 C 0.63688 0.40847 0.17046 0.0
C1597 C 0.66393 0.43531 0.17229 0.0
C1598 C 0.60236 0.41825 0.16674 0.0
C1599 C 0.59401 0.45516 0.16463 0.0
C1600 C 0.62167 0.48198 0.16595 0.0
C1601 C 0.65656 0.47208 0.1697 0.0
C1602 C 0.55529 0.46548 0.16219 0.0
C1603 C 0.53761 0.49119 0.16851 0.0
C1604 C 0.53445 0.44668 0.15464 0.0
C1605 C 0.55213 0.42119 0.14725 0.0
C1606 C 0.58336 0.43234 0.14168 0.0
C1607 C 0.6006 0.40798 0.13495 0.0
C1608 C 0.58671 0.37244 0.13364 0.0
C1609 C 0.55546 0.36124 0.13904 0.0
C1610 C 0.53814 0.38548 0.14581 0.0
C1611 C 0.39081 0.53035 0.15667 0.0
C1612 C 0.36502 0.50774 0.16168 0.0
C1613 C 0.42727 0.51914 0.15555 0.0
C1614 C 0.43867 0.48498 0.15935 0.0
C1615 C 0.41232 0.46073 0.16346 0.0
C1616 C 0.37561 0.47209 0.16464 0.0
C1617 C 0.4786 0.47769 0.16052 0.0
C1618 C 0.49623 0.45278 0.15398 0.0
C1619 C 0.49961 0.49734 0.1678 0.0
C1620 C 0.48226 0.52385 0.17493 0.0
C1621 C 0.4553 0.51208 0.18193 0.0
C1622 C 0.43849 0.53736 0.18849 0.0
C1623 C 0.44863 0.57445 0.18816 0.0
C1624 C 0.47573 0.58628 0.18132 0.0
C1625 C 0.4926 0.5611 0.17474 0.0
H1626 H 0.43557 0.59399 0.19324 0.0
H1627 H 0.60013 0.35358 0.12844 0.0
H1628 H 0.59969 0.8768 0.4095 0.0
H1629 H 0.58623 0.94013 0.4045 0.0
H1630 H 0.47186 0.92343 0.41197 0.0
H1631 H 0.48534 0.85953 0.41694 0.0
H1632 H 0.48705 0.97759 0.39518 0.0
H1633 H 0.5202 0.94888 0.43025 0.0
H1634 H 0.55964 0.91999 0.44332 0.0
H1635 H 0.65198 0.98345 0.4328 0.0
H1636 H 0.61317 0.01222 0.41953 0.0
H1637 H 0.42497 0.14176 0.41758 0.0
H1638 H 0.44263 0.08179 0.41105 0.0
H1639 H 0.55681 0.11451 0.41159 0.0
H1640 H 0.53888 0.17505 0.41843 0.0
H1641 H 0.54783 0.05338 0.42184 0.0
H1642 H 0.51078 0.09089 0.38867 0.0
H1643 H 0.47098 0.11906 0.37557 0.0
H1644 H 0.38599 0.04047 0.38225 0.0
H1645 H 0.42506 0.01212 0.39549 0.0
C1646 C 0.57135 0.88609 0.40959 0.0
C1647 C 0.54352 0.8634 0.41359 0.0
C1648 C 0.56373 0.92233 0.40677 0.0
C1649 C 0.5282 0.93666 0.40802 0.0
C1650 C 0.49947 0.91285 0.41092 0.0
C1651 C 0.50711 0.87629 0.4137 0.0
C1652 C 0.52288 0.9772 0.40825 0.0
C1653 C 0.50011 0.99428 0.40101 0.0
C1654 C 0.54076 0.99901 0.41571 0.0
C1655 C 0.56391 0.98237 0.42383 0.0
C1656 C 0.54898 0.95646 0.43067 0.0
C1657 C 0.57121 0.94012 0.43812 0.0
C1658 C 0.60833 0.94979 0.43887 0.0
C1659 C 0.62325 0.97593 0.4322 0.0
C1660 C 0.60115 0.99226 0.42471 0.0
C1661 C 0.45379 0.13662 0.416 0.0
C1662 C 0.48059 0.16299 0.41852 0.0
C1663 C 0.46388 0.10228 0.41219 0.0
C1664 C 0.50109 0.09342 0.41074 0.0
C1665 C 0.52789 0.1207 0.4126 0.0
C1666 C 0.51768 0.15539 0.41642 0.0
C1667 C 0.5116 0.05436 0.4088 0.0
C1668 C 0.53526 0.0372 0.41581 0.0
C1669 C 0.49443 0.03267 0.40113 0.0
C1670 C 0.47084 0.04947 0.39312 0.0
C1671 C 0.48352 0.07975 0.3874 0.0
C1672 C 0.46109 0.09573 0.37993 0.0
C1673 C 0.42596 0.0816 0.37809 0.0
C1674 C 0.41322 0.05138 0.38369 0.0
C1675 C 0.43553 0.0353 0.39116 0.0
H1676 H 0.40864 0.09403 0.37231 0.0
H1677 H 0.6255 0.93712 0.44464 0.0
H1678 H 0.16092 0.47908 0.56446 0.0
H1679 H 0.09633 0.46594 0.56828 0.0
H1680 H 0.1016 0.53861 0.59435 0.0
H1681 H 0.16547 0.55372 0.59001 0.0
H1682 H 0.05209 0.44071 0.58126 0.0
H1683 H 0.02431 0.58691 0.59708 0.0
H1684 H 0.05095 0.64933 0.59604 0.0
H1685 H 0.09775 0.62384 0.56673 0.0
H1686 H 0.07101 0.56149 0.56755 0.0
H1687 H 0.86185 0.43624 0.58816 0.0
H1688 H 0.92563 0.44923 0.59313 0.0
H1689 H 0.93065 0.53517 0.57033 0.0
H1690 H 0.86646 0.52372 0.56593 0.0
H1691 H 0.97511 0.55301 0.58401 0.0
H1692 H 0.95434 0.44072 0.56563 0.0
H1693 H 0.92727 0.37943 0.5626 0.0
H1694 H 0.97722 0.3389 0.59014 0.0
H1695 H 0.00418 0.40016 0.59341 0.0
C1696 C 0.14855 0.49118 0.57121 0.0
C1697 C 0.16803 0.51714 0.577 0.0
C1698 C 0.11153 0.48385 0.57337 0.0
C1699 C 0.09354 0.50204 0.58146 0.0
C1700 C 0.11436 0.52505 0.58789 0.0
C1701 C 0.15102 0.53326 0.58552 0.0
C1702 C 0.0526 0.49983 0.58244 0.0
C1703 C 0.03534 0.46528 0.58197 0.0
C1704 C 0.03033 0.53184 0.58308 0.0
C1705 C 0.04605 0.56944 0.58245 0.0
C1706 C 0.0402 0.59471 0.59041 0.0
C1707 C 0.05532 0.63005 0.58986 0.0
C1708 C 0.07615 0.6405 0.58134 0.0
C1709 C 0.08173 0.61568 0.57334 0.0
C1710 C 0.06661 0.58035 0.57384 0.0
C1711 C 0.87608 0.45924 0.58466 0.0
C1712 C 0.85921 0.47949 0.57682 0.0
C1713 C 0.91276 0.46621 0.58734 0.0
C1714 C 0.93356 0.4924 0.58188 0.0
C1715 C 0.91551 0.51474 0.57466 0.0
C1716 C 0.87864 0.5084 0.57219 0.0
C1717 C 0.97456 0.49392 0.58273 0.0
C1718 C 0.99186 0.52837 0.58353 0.0
C1719 C 0.9968 0.46198 0.58181 0.0
C1720 C 0.98087 0.42509 0.57983 0.0
C1721 C 0.95936 0.41878 0.57107 0.0
C1722 C 0.94405 0.38406 0.56931 0.0
C1723 C 0.95043 0.35532 0.57619 0.0
C1724 C 0.97223 0.36122 0.58483 0.0
C1725 C 0.98753 0.39592 0.58665 0.0
H1726 H 0.93855 0.32845 0.57481 0.0
H1727 H 0.08788 0.66784 0.58094 0.0
H1728 H 0.01325 0.65287 0.32858 0.0
H1729 H 0.01595 0.58529 0.32892 0.0
H1730 H 0.96092 0.58119 0.29977 0.0
H1731 H 0.95884 0.64832 0.29925 0.0
H1732 H 0.92821 0.53637 0.31562 0.0
H1733 H 0.04357 0.55876 0.29919 0.0
H1734 H 0.10506 0.58612 0.29698 0.0
H1735 H 0.14075 0.53643 0.32509 0.0
H1736 H 0.07913 0.50912 0.32753 0.0
H1737 H 0.94728 0.34968 0.3007 0.0
H1738 H 0.94593 0.41643 0.30234 0.0
H1739 H 0.01614 0.40972 0.32884 0.0
H1740 H 0.0174 0.34252 0.32728 0.0
H1741 H 0.04164 0.46049 0.31545 0.0
H1742 H 0.92528 0.43429 0.33103 0.0
H1743 H 0.86365 0.40626 0.3324 0.0
H1744 H 0.82952 0.46302 0.3052 0.0
H1745 H 0.89111 0.49102 0.30359 0.0
C1746 C 1.00228 0.63757 0.32217 0.0
C1747 C 0.98601 0.65613 0.31387 0.0
C1748 C 0.0038 0.59897 0.32238 0.0
C1749 C 0.9885 0.57819 0.31438 0.0
C1750 C 0.97284 0.59664 0.30602 0.0
C1751 C 0.97196 0.63513 0.30571 0.0
C1752 C 0.98735 0.53725 0.3149 0.0
C1753 C 0.95299 0.51973 0.3155 0.0
C1754 C 0.01968 0.5156 0.31496 0.0
C1755 C 0.05659 0.53234 0.31362 0.0
C1756 C 0.06438 0.55403 0.30497 0.0
C1757 C 0.09931 0.56943 0.30365 0.0
C1758 C 0.1268 0.56314 0.31091 0.0
C1759 C 0.1194 0.54136 0.31949 0.0
C1760 C 0.08448 0.52589 0.32084 0.0
C1761 C 0.96186 0.36217 0.30702 0.0
C1762 C 0.9829 0.34054 0.31378 0.0
C1763 C 0.9611 0.40054 0.30794 0.0
C1764 C 0.98099 0.41832 0.31571 0.0
C1765 C 1.00081 0.39675 0.32273 0.0
C1766 C 1.00153 0.35828 0.32182 0.0
C1767 C 0.98239 0.45939 0.31615 0.0
C1768 C 0.01682 0.47703 0.31571 0.0
C1769 C 0.95005 0.48118 0.31618 0.0
C1770 C 0.91292 0.46453 0.31715 0.0
C1771 C 0.90471 0.44059 0.3253 0.0
C1772 C 0.86977 0.42475 0.32613 0.0
C1773 C 0.84271 0.4328 0.31888 0.0
C1774 C 0.85051 0.45679 0.31081 0.0
C1775 C 0.88542 0.4727 0.30994 0.0
H1776 H 0.81568 0.4205 0.31953 0.0
H1777 H 0.15386 0.57505 0.30987 0.0
H1778 H 0.35005 0.99316 0.66275 0.0
H1779 H 0.41733 0.99163 0.66182 0.0
H1780 H 0.42381 0.05584 0.68947 0.0
H1781 H 0.35676 0.05789 0.69036 0.0
H1782 H 0.47748 0.0756 0.67746 0.0
H1783 H 0.43246 0.96156 0.6899 0.0
H1784 H 0.39344 0.90604 0.68989 0.0
H1785 H 0.44374 0.87023 0.6619 0.0
H1786 H 0.48273 0.9259 0.66166 0.0
H1787 H 0.65697 0.0241 0.69261 0.0
H1788 H 0.58991 0.02412 0.69239 0.0
H1789 H 0.59089 0.98448 0.66136 0.0
H1790 H 0.65838 0.98501 0.66143 0.0
H1791 H 0.53406 0.95158 0.675 0.0
H1792 H 0.58056 0.07129 0.66402 0.0
H1793 H 0.61915 0.12653 0.66623 0.0
H1794 H 0.56544 0.14992 0.69473 0.0
H1795 H 0.52663 0.09463 0.69273 0.0
C1796 C 0.36582 0.00743 0.66854 0.0
C1797 C 0.3479 0.02519 0.6767 0.0
C1798 C 0.40434 0.00639 0.66804 0.0
C1799 C 0.42587 0.02278 0.67573 0.0
C1800 C 0.40801 0.04274 0.68347 0.0
C1801 C 0.3695 0.044 0.68394 0.0
C1802 C 0.46671 0.01751 0.67602 0.0
C1803 C 0.48969 0.04842 0.67698 0.0
C1804 C 0.48302 0.98206 0.67549 0.0
C1805 C 0.46032 0.94807 0.67571 0.0
C1806 C 0.43511 0.94193 0.68371 0.0
C1807 C 0.413 0.91043 0.68376 0.0
C1808 C 0.41612 0.88463 0.6759 0.0
C1809 C 0.4414 0.89025 0.66799 0.0
C1810 C 0.46353 0.92176 0.66789 0.0
C1811 C 0.64319 0.01486 0.68577 0.0
C1812 C 0.66343 0.005 0.677 0.0
C1813 C 0.60465 0.01492 0.68566 0.0
C1814 C 0.58529 0.00476 0.67682 0.0
C1815 C 0.60522 0.99253 0.66827 0.0
C1816 C 0.64388 0.99284 0.66833 0.0
C1817 C 0.54455 0.00969 0.67629 0.0
C1818 C 0.52168 0.9787 0.67536 0.0
C1819 C 0.52824 0.04495 0.67717 0.0
C1820 C 0.55092 0.07868 0.67826 0.0
C1821 C 0.57712 0.08811 0.67078 0.0
C1822 C 0.59903 0.11942 0.672 0.0
C1823 C 0.59492 0.14161 0.68065 0.0
C1824 C 0.56867 0.13267 0.68806 0.0
C1825 C 0.54664 0.10139 0.68687 0.0
H1826 H 0.61198 0.1658 0.68158 0.0
H1827 H 0.39893 0.86029 0.67594 0.0
H1828 H 0.03289 0.16546 0.92208 0.0
H1829 H 0.03776 0.09928 0.91844 0.0
H1830 H 0.99517 0.07457 0.94845 0.0
H1831 H 0.99054 0.14016 0.95212 0.0
H1832 H 0.05895 0.03558 0.94389 0.0
H1833 H 0.94187 0.06253 0.92818 0.0
H1834 H 0.90033 0.09537 0.9164 0.0
H1835 H 0.96499 0.05955 0.89079 0.0
H1836 H 0.00726 0.02691 0.90244 0.0
H1837 H 0.01988 0.84535 0.94156 0.0
H1838 H 0.02146 0.91186 0.94348 0.0
H1839 H 0.0424 0.92382 0.91117 0.0
H1840 H 0.03798 0.8571 0.90909 0.0
H1841 H 0.99361 0.97085 0.91592 0.0
H1842 H 0.1094 0.94161 0.93105 0.0
H1843 H 0.15247 0.90932 0.94253 0.0
H1844 H 0.09397 0.95025 0.96869 0.0
H1845 H 0.05025 0.98241 0.95737 0.0
C1846 C 0.02409 0.14588 0.92784 0.0
C1847 C 0.01078 0.15824 0.93735 0.0
C1848 C 0.0269 0.10806 0.92575 0.0
C1849 C 0.01679 0.08184 0.93317 0.0
C1850 C 0.00311 0.09418 0.9426 0.0
C1851 C 0.99997 0.13184 0.94464 0.0
C1852 C 0.02137 0.04156 0.9313 0.0
C1853 C 0.04444 0.02132 0.93783 0.0
C1854 C 0.00342 0.02311 0.9232 0.0
C1855 C 0.97797 0.04263 0.91619 0.0
C1856 C 0.94743 0.06193 0.92004 0.0
C1857 C 0.92371 0.08046 0.91339 0.0
C1858 C 0.93008 0.07965 0.90285 0.0
C1859 C 0.96013 0.06021 0.89895 0.0
C1860 C 0.98396 0.04168 0.90558 0.0
C1861 C 0.02483 0.86198 0.93485 0.0
C1862 C 0.02808 0.8456 0.92515 0.0
C1863 C 0.02626 0.90028 0.93598 0.0
C1864 C 0.03229 0.92334 0.92749 0.0
C1865 C 0.0375 0.90691 0.91786 0.0
C1866 C 0.03539 0.86856 0.9167 0.0
C1867 C 0.03108 0.96444 0.92859 0.0
C1868 C 0.00857 0.98495 0.92193 0.0
C1869 C 0.04993 0.98326 0.93651 0.0
C1870 C 0.07638 0.96421 0.94335 0.0
C1871 C 0.10559 0.94356 0.93925 0.0
C1872 C 0.13014 0.92529 0.94573 0.0
C1873 C 0.12592 0.92767 0.95633 0.0
C1874 C 0.0972 0.94841 0.96047 0.0
C1875 C 0.07255 0.96671 0.95403 0.0
H1876 H 0.14493 0.91349 0.96133 0.0
H1877 H 0.91167 0.09399 0.89771 0.0
H1878 H 0.81778 0.04508 0.04501 0.0
H1879 H 0.88437 0.04116 0.04617 0.0
H1880 H 0.87603 0.02287 0.07869 0.0
H1881 H 0.80913 0.02875 0.07762 0.0
H1882 H 0.92719 0.06879 0.07602 0.0
H1883 H 0.9024 0.95381 0.06028 0.0
H1884 H 0.87756 0.90919 0.04789 0.0
H1885 H 0.93793 0.96168 0.02369 0.0
H1886 H 0.96262 0.00707 0.0359 0.0
H1887 H 0.12041 0.01791 0.07896 0.0
H1888 H 0.05286 0.01846 0.0796 0.0
H1889 H 0.04959 0.06227 0.04897 0.0
H1890 H 0.1167 0.06179 0.04831 0.0
H1891 H 0.00526 0.99946 0.05164 0.0
H1892 H 0.02767 0.11599 0.06844 0.0
H1893 H 0.0549 0.15564 0.08173 0.0
H1894 H 1.00044 0.0927 0.10508 0.0
H1895 H 0.97327 0.05234 0.09193 0.0
C1896 C 0.82986 0.03989 0.0524 0.0
C1897 C 0.8077 0.03747 0.06121 0.0
C1898 C 0.86827 0.03734 0.05306 0.0
C1899 C 0.88573 0.03133 0.06251 0.0
C1900 C 0.86356 0.02765 0.07129 0.0
C1901 C 0.82512 0.03076 0.07065 0.0
C1902 C 0.92696 0.03098 0.06331 0.0
C1903 C 0.94408 0.05303 0.07077 0.0
C1904 C 0.94956 0.01088 0.05643 0.0
C1905 C 0.93407 0.98413 0.04901 0.0
C1906 C 0.91006 0.95612 0.0523 0.0
C1907 C 0.89606 0.93063 0.04531 0.0
C1908 C 0.90607 0.93266 0.03501 0.0
C1909 C 0.93012 0.96019 0.03167 0.0
C1910 C 0.94413 0.98581 0.03862 0.0
C1911 C 0.10529 0.02804 0.07241 0.0
C1912 C 0.1241 0.0394 0.06353 0.0
C1913 C 0.06665 0.02842 0.07279 0.0
C1914 C 0.04603 0.04009 0.06429 0.0
C1915 C 0.0648 0.05289 0.0556 0.0
C1916 C 0.1033 0.0529 0.05527 0.0
C1917 C 0.00501 0.03755 0.06421 0.0
C1918 C 0.98808 0.01495 0.05688 0.0
C1919 C 0.98266 0.05648 0.07132 0.0
C1920 C 0.99875 0.08092 0.07921 0.0
C1921 C 0.02174 0.11042 0.07642 0.0
C1922 C 0.03711 0.13306 0.08392 0.0
C1923 C 0.02949 0.12664 0.09424 0.0
C1924 C 0.00637 0.09762 0.09708 0.0
C1925 C 0.99095 0.07487 0.08961 0.0
H1926 H 0.04142 0.14419 0.10004 0.0
H1927 H 0.89529 0.91283 0.02961 0.0
H1928 H 0.44625 0.1445 0.81569 0.0
H1929 H 0.44974 0.07894 0.81966 0.0
H1930 H 0.53619 0.06625 0.79731 0.0
H1931 H 0.53115 0.13122 0.79286 0.0
H1932 H 0.49073 0.01332 0.79489 0.0
H1933 H 0.54919 0.0652 0.82475 0.0
H1934 H 0.55322 0.10487 0.84 0.0
H1935 H 0.45884 0.05101 0.85297 0.0
H1936 H 0.45404 0.01126 0.83773 0.0
H1937 H 0.59345 0.86195 0.81376 0.0
H1938 H 0.56951 0.92326 0.81047 0.0
H1939 H 0.46239 0.88921 0.82102 0.0
H1940 H 0.48621 0.82622 0.82402 0.0
H1941 H 0.505 0.96227 0.82984 0.0
H1942 H 0.45544 0.90285 0.8002 0.0
H1943 H 0.45486 0.86453 0.78466 0.0
H1944 H 0.53706 0.93381 0.771 0.0
H1945 H 0.53911 0.97183 0.78658 0.0
C1946 C 0.46587 0.1278 0.81157 0.0
C1947 C 0.48782 0.14328 0.80379 0.0
C1948 C 0.46817 0.09019 0.81395 0.0
C1949 C 0.49325 0.06723 0.80881 0.0
C1950 C 0.51629 0.08303 0.80134 0.0
C1951 C 0.51359 0.12045 0.79886 0.0
C1952 C 0.49502 0.02667 0.81089 0.0
C1953 C 0.49409 1.00229 0.80255 0.0
C1954 C 0.49806 0.01179 0.82089 0.0
C1955 C 0.501 0.03557 0.83006 0.0
C1956 C 0.52915 0.062 0.83082 0.0
C1957 C 0.5316 0.08446 0.83947 0.0
C1958 C 0.50623 0.08054 0.84743 0.0
C1959 C 0.47843 0.05406 0.84678 0.0
C1960 C 0.47585 0.03154 0.83815 0.0
C1961 C 0.56471 0.86724 0.8154 0.0
C1962 C 0.54178 0.83921 0.81927 0.0
C1963 C 0.55106 0.90238 0.81345 0.0
C1964 C 0.51425 0.91086 0.81549 0.0
C1965 C 0.49095 0.88313 0.81937 0.0
C1966 C 0.50449 0.84726 0.82108 0.0
C1967 C 0.50163 0.94936 0.81382 0.0
C1968 C 0.50086 0.97338 0.82222 0.0
C1969 C 0.49761 0.96398 0.80385 0.0
C1970 C 0.4977 0.94003 0.79464 0.0
C1971 C 0.47395 0.90952 0.79398 0.0
C1972 C 0.47328 0.88789 0.78514 0.0
C1973 C 0.49599 0.8967 0.77686 0.0
C1974 C 0.51958 0.92696 0.77743 0.0
C1975 C 0.52055 0.94851 0.78627 0.0
H1976 H 0.49516 0.88029 0.76998 0.0
H1977 H 0.50817 0.09796 0.85412 0.0
H1978 H 0.87794 0.50302 0.19809 0.0
H1979 H 0.94328 0.50364 0.19418 0.0
H1980 H 0.92345 0.43892 0.16711 0.0
H1981 H 0.85752 0.43728 0.17117 0.0
H1982 H 0.98089 0.41238 0.17667 0.0
H1983 H 0.94699 0.53367 0.1662 0.0
H1984 H 0.91825 0.59485 0.16783 0.0
H1985 H 0.98727 0.61906 0.19359 0.0
H1986 H 0.01613 0.55784 0.1922 0.0
H1987 H 0.16759 0.44339 0.15928 0.0
H1988 H 0.10044 0.43941 0.16095 0.0
H1989 H 0.10632 0.49557 0.18993 0.0
H1990 H 0.17316 0.49922 0.18837 0.0
H1991 H 0.05538 0.52673 0.17764 0.0
H1992 H 0.08666 0.40396 0.18851 0.0
H1993 H 0.11535 0.3428 0.18679 0.0
H1994 H 0.05133 0.32195 0.15983 0.0
H1995 H 0.0226 0.38324 0.16132 0.0
C1996 C 0.88719 0.48928 0.19121 0.0
C1997 C 0.86221 0.47005 0.18495 0.0
C1998 C 0.92481 0.48976 0.18895 0.0
C1999 C 0.9386 0.47174 0.18026 0.0
C2000 C 0.91367 0.45306 0.17387 0.0
C2001 C 0.87589 0.45224 0.17618 0.0
C2002 C 0.97912 0.47143 0.17814 0.0
C2003 C 0.99702 0.43751 0.17668 0.0
C2004 C 1.0006 0.50403 0.17833 0.0
C2005 C 0.98355 0.54104 0.17913 0.0
C2006 C 0.9559 0.55196 0.17225 0.0
C2007 C 0.93961 0.58666 0.17313 0.0
C2008 C 0.95088 0.6108 0.18082 0.0
C2009 C 0.97856 0.60033 0.18764 0.0
C2010 C 0.99494 0.56565 0.1868 0.0
C2011 C 0.15464 0.45428 0.1661 0.0
C2012 C 0.17581 0.47206 0.17363 0.0
C2013 C 0.11618 0.45209 0.16703 0.0
C2014 C 0.09813 0.46741 0.17555 0.0
C2015 C 0.11943 0.48391 0.18324 0.0
C2016 C 0.15774 0.486 0.18232 0.0
C2017 C 0.05709 0.46771 0.17633 0.0
C2018 C 0.03914 0.50167 0.17753 0.0
C2019 C 0.03563 0.4352 0.17584 0.0
C2020 C 0.05279 0.39834 0.17496 0.0
C2021 C 0.07893 0.38646 0.18217 0.0
C2022 C 0.09515 0.35175 0.18125 0.0
C2023 C 0.08526 0.32855 0.17319 0.0
C2024 C 0.05902 0.33998 0.16606 0.0
C2025 C 0.04274 0.37469 0.16694 0.0
H2026 H 0.09784 0.30168 0.17249 0.0
H2027 H 0.93821 0.63764 0.18149 0.0
H2028 H 0.53873 0.66126 0.40535 0.0
H2029 H 0.53351 0.59435 0.40661 0.0
H2030 H 0.49491 0.60452 0.43767 0.0
H2031 H 0.4994 0.67156 0.4364 0.0
H2032 H 0.57055 0.54851 0.41898 0.0
H2033 H 0.43951 0.53146 0.44341 0.0
H2034 H 0.38059 0.56331 0.44647 0.0
H2035 H 0.38438 0.6092 0.41622 0.0
H2036 H 0.44309 0.5773 0.41293 0.0
H2037 H 0.55624 0.37324 0.44394 0.0
H2038 H 0.55793 0.43875 0.43968 0.0
H2039 H 0.47645 0.42136 0.41624 0.0
H2040 H 0.47512 0.3556 0.42033 0.0
H2041 H 0.4589 0.47997 0.42973 0.0
H2042 H 0.55993 0.43925 0.40894 0.0
H2043 H 0.61849 0.40725 0.40555 0.0
H2044 H 0.67335 0.47637 0.42736 0.0
H2045 H 0.61497 0.50847 0.43098 0.0
C2046 C 0.52846 0.6494 0.4124 0.0
C2047 C 0.51964 0.67197 0.42079 0.0
C2048 C 0.52578 0.61101 0.41313 0.0
C2049 C 0.51388 0.59419 0.42223 0.0
C2050 C 0.50391 0.6167 0.43052 0.0
C2051 C 0.50665 0.65513 0.4298 0.0
C2052 C 0.51338 0.55318 0.42317 0.0
C2053 C 0.54607 0.5336 0.42131 0.0
C2054 C 0.48148 0.53345 0.42615 0.0
C2055 C 0.44584 0.55222 0.42796 0.0
C2056 C 0.42767 0.5482 0.43739 0.0
C2057 C 0.39434 0.5663 0.43917 0.0
C2058 C 0.3788 0.58834 0.43155 0.0
C2059 C 0.39651 0.59223 0.42213 0.0
C2060 C 0.42984 0.57418 0.42031 0.0
C2061 C 0.53892 0.3832 0.43781 0.0
C2062 C 0.51491 0.3591 0.43266 0.0
C2063 C 0.53995 0.42074 0.43537 0.0
C2064 C 0.51698 0.43514 0.42772 0.0
C2065 C 0.49409 0.41098 0.42226 0.0
C2066 C 0.49342 0.37329 0.42461 0.0
C2067 C 0.51613 0.47552 0.42565 0.0
C2068 C 0.48329 0.49495 0.42735 0.0
C2069 C 0.54784 0.49513 0.4225 0.0
C2070 C 0.58302 0.47605 0.42029 0.0
C2071 C 0.58443 0.44744 0.41307 0.0
C2072 C 0.6176 0.42932 0.4111 0.0
C2073 C 0.6496 0.43971 0.41625 0.0
C2074 C 0.64852 0.46833 0.42338 0.0
C2075 C 0.61541 0.48653 0.42538 0.0
H2076 H 0.67526 0.42564 0.41472 0.0
H2077 H 0.35302 0.60236 0.43295 0.0
H2078 H 0.35057 0.50214 0.57646 0.0
H2079 H 0.41713 0.5105 0.5788 0.0
H2080 H 0.4372 0.45156 0.55074 0.0
H2081 H 0.37082 0.44434 0.54827 0.0
H2082 H 0.48337 0.42902 0.56584 0.0
H2083 H 0.44373 0.54318 0.55113 0.0
H2084 H 0.40496 0.59872 0.55006 0.0
H2085 H 0.44514 0.63473 0.57925 0.0
H2086 H 0.48363 0.579 0.58059 0.0
H2087 H 0.66764 0.52245 0.55741 0.0
H2088 H 0.60043 0.52555 0.55599 0.0
H2089 H 0.58973 0.47279 0.58538 0.0
H2090 H 0.65673 0.46992 0.58692 0.0
H2091 H 0.53951 0.55315 0.56893 0.0
H2092 H 0.52876 0.40114 0.58084 0.0
H2093 H 0.56826 0.34591 0.58127 0.0
H2094 H 0.62957 0.38651 0.55553 0.0
H2095 H 0.59 0.44155 0.55483 0.0
C2096 C 0.36923 0.49191 0.57067 0.0
C2097 C 0.35553 0.4739 0.56198 0.0
C2098 C 0.40725 0.49626 0.57207 0.0
C2099 C 0.43227 0.4821 0.56487 0.0
C2100 C 0.41853 0.46289 0.55637 0.0
C2101 C 0.38057 0.45882 0.55496 0.0
C2102 C 0.47272 0.48736 0.56613 0.0
C2103 C 0.49552 0.45618 0.56655 0.0
C2104 C 0.48885 0.5228 0.56689 0.0
C2105 C 0.46639 0.55677 0.56599 0.0
C2106 C 0.44417 0.56284 0.55735 0.0
C2107 C 0.42227 0.59437 0.55668 0.0
C2108 C 0.42266 0.62027 0.56457 0.0
C2109 C 0.44495 0.61468 0.57313 0.0
C2110 C 0.46682 0.58312 0.57385 0.0
C2111 C 0.65099 0.51226 0.56368 0.0
C2112 C 0.66762 0.49571 0.57225 0.0
C2113 C 0.61256 0.51422 0.56287 0.0
C2114 C 0.59006 0.49916 0.57054 0.0
C2115 C 0.60658 0.48453 0.57936 0.0
C2116 C 0.64494 0.48301 0.58024 0.0
C2117 C 0.54979 0.49481 0.56885 0.0
C2118 C 0.52716 0.52606 0.5683 0.0
C2119 C 0.53378 0.45948 0.56781 0.0
C2120 C 0.55664 0.42564 0.56786 0.0
C2121 C 0.55049 0.39813 0.57523 0.0
C2122 C 0.57292 0.36687 0.57552 0.0
C2123 C 0.60149 0.36277 0.56846 0.0
C2124 C 0.60752 0.38977 0.56102 0.0
C2125 C 0.58509 0.42099 0.56068 0.0
H2126 H 0.61891 0.33864 0.56873 0.0
H2127 H 0.4056 0.64461 0.56406 0.0
H2128 H 0.30938 0.30341 0.41246 0.0
H2129 H 0.26154 0.28584 0.40043 0.0
H2130 H 0.32587 0.19185 0.3911 0.0
H2131 H 0.37464 0.21009 0.40301 0.0
H2132 H 0.30363 0.23121 0.37506 0.0
H2133 H 0.24524 0.17818 0.40366 0.0
H2134 H 0.22303 0.17344 0.42143 0.0
H2135 H 0.15027 0.26476 0.41645 0.0
H2136 H 0.17241 0.27046 0.3987 0.0
H2137 H 0.15626 0.20851 0.33986 0.0
H2138 H 0.19627 0.19222 0.35416 0.0
H2139 H 0.16528 0.29227 0.36966 0.0
H2140 H 0.12454 0.30836 0.35546 0.0
H2141 H 0.16985 0.23076 0.38274 0.0
H2142 H 0.24114 0.29111 0.35578 0.0
H2143 H 0.26455 0.29671 0.33813 0.0
H2144 H 0.31373 0.18957 0.34042 0.0
H2145 H 0.29016 0.18318 0.35804 0.0
C2146 C 0.31335 0.27898 0.40787 0.0
C2147 C 0.34588 0.25835 0.40859 0.0
C2148 C 0.28573 0.26861 0.40111 0.0
C2149 C 0.28996 0.23724 0.39498 0.0
C2150 C 0.322 0.21596 0.39585 0.0
C2151 C 0.34972 0.22634 0.40265 0.0
C2152 C 0.2625 0.22955 0.38695 0.0
C2153 C 0.27441 0.22993 0.37675 0.0
C2154 C 0.22441 0.22825 0.38917 0.0
C2155 C 0.21061 0.2248 0.39983 0.0
C2156 C 0.22465 0.1974 0.40636 0.0
C2157 C 0.21205 0.19453 0.41644 0.0
C2158 C 0.18527 0.21879 0.42007 0.0
C2159 C 0.17098 0.24595 0.41363 0.0
C2160 C 0.1835 0.24897 0.40355 0.0
C2161 C 0.15743 0.22672 0.34639 0.0
C2162 C 0.13744 0.25987 0.34653 0.0
C2163 C 0.18038 0.21741 0.35452 0.0
C2164 C 0.18372 0.24113 0.36291 0.0
C2165 C 0.16289 0.27359 0.36324 0.0
C2166 C 0.14004 0.28297 0.35509 0.0
C2167 C 0.21114 0.23395 0.37096 0.0
C2168 C 0.19913 0.23077 0.38111 0.0
C2169 C 0.24917 0.23252 0.36872 0.0
C2170 C 0.2635 0.23648 0.35816 0.0
C2171 C 0.25669 0.26864 0.35248 0.0
C2172 C 0.27003 0.27197 0.34249 0.0
C2173 C 0.2905 0.24346 0.33814 0.0
C2174 C 0.29779 0.2116 0.34379 0.0
C2175 C 0.28446 0.20811 0.35377 0.0
H2176 H 0.30081 0.24609 0.33041 0.0
H2177 H 0.17557 0.21654 0.42787 0.0
H2178 H 0.25527 0.86775 0.64093 0.0
H2179 H 0.25321 0.81285 0.63004 0.0
H2180 H 0.32794 0.75748 0.65063 0.0
H2181 H 0.33155 0.81318 0.66107 0.0
H2182 H 0.35049 0.74625 0.63309 0.0
H2183 H 0.23267 0.73439 0.64814 0.0
H2184 H 0.17084 0.75336 0.65382 0.0
H2185 H 0.13904 0.77268 0.62266 0.0
H2186 H 0.20087 0.75436 0.61679 0.0
H2187 H 0.26547 0.585 0.60061 0.0
H2188 H 0.26106 0.6269 0.61528 0.0
H2189 H 0.33701 0.7013 0.60046 0.0
H2190 H 0.34242 0.65897 0.58609 0.0
H2191 H 0.23766 0.69355 0.61759 0.0
H2192 H 0.3899 0.74475 0.61658 0.0
H2193 H 0.4513 0.71985 0.61249 0.0
H2194 H 0.41331 0.61049 0.61915 0.0
H2195 H 0.35185 0.63476 0.62342 0.0
C2196 C 0.27095 0.84362 0.64308 0.0
C2197 C 0.29383 0.84443 0.65169 0.0
C2198 C 0.26957 0.81221 0.63695 0.0
C2199 C 0.29012 0.78077 0.63957 0.0
C2200 C 0.31201 0.78138 0.64841 0.0
C2201 C 0.31413 0.81308 0.65436 0.0
C2202 C 0.29117 0.74837 0.63268 0.0
C2203 C 0.32572 0.73457 0.62979 0.0
C2204 C 0.25891 0.73235 0.62855 0.0
C2205 C 0.22155 0.74322 0.63203 0.0
C2206 C 0.21259 0.74291 0.6425 0.0
C2207 C 0.17752 0.75353 0.64575 0.0
C2208 C 0.15105 0.76428 0.63861 0.0
C2209 C 0.15958 0.76436 0.62819 0.0
C2210 C 0.19462 0.75381 0.62489 0.0
C2211 C 0.28133 0.61023 0.60058 0.0
C2212 C 0.30469 0.61862 0.59234 0.0
C2213 C 0.27875 0.63413 0.60891 0.0
C2214 C 0.29922 0.66691 0.60905 0.0
C2215 C 0.32181 0.67565 0.60067 0.0
C2216 C 0.32491 0.6515 0.59246 0.0
C2217 C 0.29694 0.69243 0.61784 0.0
C2218 C 0.26226 0.70493 0.62105 0.0
C2219 C 0.329 0.70632 0.6226 0.0
C2220 C 0.36619 0.69159 0.62026 0.0
C2221 C 0.39471 0.71542 0.61724 0.0
C2222 C 0.42951 0.70141 0.61487 0.0
C2223 C 0.43617 0.66361 0.61554 0.0
C2224 C 0.40809 0.63975 0.61861 0.0
C2225 C 0.37326 0.65362 0.621 0.0
H2226 H 0.46311 0.65281 0.61369 0.0
H2227 H 0.12392 0.7725 0.64114 0.0
H2228 H 0.83781 0.80026 0.33035 0.0
H2229 H 0.79734 0.81043 0.34506 0.0
H2230 H 0.7919 0.69326 0.35022 0.0
H2231 H 0.83246 0.68292 0.33569 0.0
H2232 H 0.72425 0.72563 0.35104 0.0
H2233 H 0.84702 0.74737 0.36472 0.0
H2234 H 0.90709 0.779 0.36508 0.0
H2235 H 0.85278 0.88277 0.3694 0.0
H2236 H 0.79238 0.85175 0.36897 0.0
H2237 H 0.66991 0.69227 0.40105 0.0
H2238 H 0.70489 0.69856 0.38528 0.0
H2239 H 0.69602 0.81674 0.38716 0.0
H2240 H 0.66187 0.81071 0.40324 0.0
H2241 H 0.76525 0.79485 0.38168 0.0
H2242 H 0.64294 0.77208 0.37057 0.0
H2243 H 0.58268 0.74094 0.3701 0.0
H2244 H 0.63472 0.64066 0.36053 0.0
H2245 H 0.69539 0.67102 0.36109 0.0
C2246 C 0.82823 0.7767 0.33467 0.0
C2247 C 0.83832 0.74075 0.33183 0.0
C2248 C 0.80503 0.78256 0.34304 0.0
C2249 C 0.79175 0.75258 0.34872 0.0
C2250 C 0.80166 0.71674 0.34588 0.0
C2251 C 0.82477 0.71088 0.33754 0.0
C2252 C 0.76767 0.75802 0.3577 0.0
C2253 C 0.73323 0.74062 0.35776 0.0
C2254 C 0.77891 0.77878 0.36629 0.0
C2255 C 0.81522 0.79731 0.3667 0.0
C2256 C 0.84791 0.77696 0.36569 0.0
C2257 C 0.88201 0.79477 0.36592 0.0
C2258 C 0.88376 0.83288 0.36723 0.0
C2259 C 0.85141 0.85326 0.36837 0.0
C2260 C 0.81724 0.83558 0.36814 0.0
C2261 C 0.67575 0.71965 0.39822 0.0
C2262 C 0.66301 0.75099 0.40342 0.0
C2263 C 0.69541 0.72318 0.38913 0.0
C2264 C 0.70247 0.75809 0.38498 0.0
C2265 C 0.69057 0.78955 0.39022 0.0
C2266 C 0.67085 0.78603 0.39935 0.0
C2267 C 0.72241 0.76122 0.37516 0.0
C2268 C 0.75595 0.78037 0.3749 0.0
C2269 C 0.71027 0.74219 0.36635 0.0
C2270 C 0.67378 0.72381 0.36593 0.0
C2271 C 0.64158 0.74332 0.36843 0.0
C2272 C 0.60733 0.72581 0.36814 0.0
C2273 C 0.60488 0.68884 0.3653 0.0
C2274 C 0.63666 0.6693 0.36273 0.0
C2275 C 0.67099 0.68667 0.36302 0.0
H2276 H 0.57834 0.67533 0.36508 0.0
H2277 H 0.9102 0.84658 0.3674 0.0
H2278 H 0.70287 0.12651 0.64176 0.0
H2279 H 0.71902 0.16398 0.62684 0.0
H2280 H 0.81995 0.19697 0.64157 0.0
H2281 H 0.80389 0.15936 0.65651 0.0
H2282 H 0.77605 0.2556 0.63438 0.0
H2283 H 0.82832 0.14439 0.62197 0.0
H2284 H 0.83066 0.07819 0.61793 0.0
H2285 H 0.74057 0.09094 0.59701 0.0
H2286 H 0.73726 0.15713 0.60105 0.0
H2287 H 0.80645 0.36663 0.59076 0.0
H2288 H 0.81981 0.32012 0.60369 0.0
H2289 H 0.72717 0.25588 0.59335 0.0
H2290 H 0.71487 0.30108 0.58006 0.0
H2291 H 0.78186 0.21184 0.59849 0.0
H2292 H 0.72071 0.31749 0.61355 0.0
H2293 H 0.71417 0.3832 0.61791 0.0
H2294 H 0.81681 0.38004 0.63413 0.0
H2295 H 0.82416 0.31437 0.62975 0.0
C2296 C 0.72857 0.14158 0.64177 0.0
C2297 C 0.75208 0.14022 0.65026 0.0
C2298 C 0.73793 0.16264 0.63323 0.0
C2299 C 0.7708 0.18291 0.63311 0.0
C2300 C 0.79461 0.18124 0.64152 0.0
C2301 C 0.78548 0.15973 0.65001 0.0
C2302 C 0.77838 0.20822 0.62453 0.0
C2303 C 0.77831 0.24608 0.62654 0.0
C2304 C 0.78055 0.19559 0.61433 0.0
C2305 C 0.78241 0.15574 0.61187 0.0
C2306 C 0.80879 0.13304 0.61658 0.0
C2307 C 0.81033 0.09551 0.61427 0.0
C2308 C 0.78575 0.08036 0.60723 0.0
C2309 C 0.7596 0.10272 0.60246 0.0
C2310 C 0.75791 0.14026 0.60475 0.0
C2311 C 0.78937 0.34227 0.59106 0.0
C2312 C 0.75917 0.33794 0.58444 0.0
C2313 C 0.79692 0.31581 0.59853 0.0
C2314 C 0.77409 0.28488 0.5996 0.0
C2315 C 0.74507 0.27963 0.59269 0.0
C2316 C 0.73774 0.30581 0.58518 0.0
C2317 C 0.77834 0.25926 0.60832 0.0
C2318 C 0.78058 0.22136 0.60634 0.0
C2319 C 0.77764 0.2718 0.61856 0.0
C2320 C 0.77322 0.31121 0.62121 0.0
C2321 C 0.74201 0.3309 0.61798 0.0
C2322 C 0.73814 0.36811 0.62046 0.0
C2323 C 0.76513 0.38581 0.62626 0.0
C2324 C 0.79599 0.36631 0.62962 0.0
C2325 C 0.80002 0.32911 0.62713 0.0
H2326 H 0.76207 0.41462 0.62818 0.0
H2327 H 0.78699 0.0513 0.60545 0.0
H2328 H 0.17711 0.28592 0.90948 0.0
H2329 H 0.2195 0.29154 0.89498 0.0
H2330 H 0.1912 0.18145 0.88541 0.0
H2331 H 0.14916 0.17571 0.89987 0.0
H2332 H 0.26404 0.19132 0.88563 0.0
H2333 H 0.157 0.25782 0.87328 0.0
H2334 H 0.10978 0.30647 0.87404 0.0
H2335 H 0.19413 0.38928 0.87365 0.0
H2336 H 0.24189 0.34105 0.87301 0.0
H2337 H 0.30242 0.1714 0.83386 0.0
H2338 H 0.27062 0.18173 0.84998 0.0
H2339 H 0.3325 0.28155 0.85464 0.0
H2340 H 0.36568 0.27087 0.83865 0.0
H2341 H 0.2524 0.28572 0.85835 0.0
H2342 H 0.35897 0.21742 0.8682 0.0
H2343 H 0.40471 0.16758 0.86682 0.0
H2344 H 0.31983 0.0871 0.87161 0.0
H2345 H 0.27346 0.13645 0.87285 0.0
C2346 C 0.1797 0.26315 0.90421 0.0
C2347 C 0.16003 0.23031 0.9058 0.0
C2348 C 0.20393 0.26635 0.89596 0.0
C2349 C 0.20841 0.2369 0.88915 0.0
C2350 C 0.18834 0.20436 0.89065 0.0
C2351 C 0.16441 0.20108 0.8989 0.0
C2352 C 0.23434 0.23923 0.88049 0.0
C2353 C 0.26143 0.21192 0.87966 0.0
C2354 C 0.23169 0.26689 0.8729 0.0
C2355 C 0.203 0.29585 0.87323 0.0
C2356 C 0.16547 0.2864 0.87344 0.0
C2357 C 0.13862 0.31389 0.87383 0.0
C2358 C 0.14895 0.35094 0.87393 0.0
C2359 C 0.18617 0.36057 0.8736 0.0
C2360 C 0.21314 0.33317 0.87321 0.0
C2361 C 0.30968 0.19537 0.83832 0.0
C2362 C 0.33691 0.22009 0.83497 0.0
C2363 C 0.29126 0.20135 0.84749 0.0
C2364 C 0.29954 0.23222 0.85347 0.0
C2365 C 0.32585 0.2576 0.85008 0.0
C2366 C 0.34462 0.25146 0.84092 0.0
C2367 C 0.28092 0.237 0.86336 0.0
C2368 C 0.25542 0.26565 0.86445 0.0
C2369 C 0.28484 0.21047 0.87118 0.0
C2370 C 0.3127 0.18066 0.87056 0.0
C2371 C 0.35001 0.18909 0.86888 0.0
C2372 C 0.37606 0.16092 0.86814 0.0
C2373 C 0.36517 0.12419 0.86911 0.0
C2374 C 0.32822 0.11557 0.87085 0.0
C2375 C 0.30205 0.14363 0.8716 0.0
H2376 H 0.38538 0.10243 0.86852 0.0
H2377 H 0.12812 0.37219 0.87424 0.0
H2378 H 0.26444 0.63228 0.13622 0.0
H2379 H 0.25697 0.69426 0.12911 0.0
H2380 H 0.20378 0.72933 0.15694 0.0
H2381 H 0.212 0.66728 0.16418 0.0
H2382 H 0.16623 0.74291 0.13617 0.0
H2383 H 0.27661 0.76443 0.15524 0.0
H2384 H 0.33922 0.74981 0.16123 0.0
H2385 H 0.37947 0.75534 0.13039 0.0
H2386 H 0.31695 0.76938 0.12418 0.0
H2387 H 0.15423 0.91554 0.11109 0.0
H2388 H 0.1652 0.8723 0.12518 0.0
H2389 H 0.25338 0.82244 0.10794 0.0
H2390 H 0.24304 0.86591 0.09405 0.0
H2391 H 0.27139 0.82413 0.12727 0.0
H2392 H 0.16401 0.78813 0.10777 0.0
H2393 H 0.1022 0.79689 0.10038 0.0
H2394 H 0.05725 0.81276 0.13043 0.0
H2395 H 0.11896 0.80458 0.13798 0.0
C2396 C 0.25121 0.65326 0.1408 0.0
C2397 C 0.23865 0.64526 0.1507 0.0
C2398 C 0.24719 0.68856 0.13679 0.0
C2399 C 0.23006 0.71614 0.14256 0.0
C2400 C 0.21726 0.70827 0.15243 0.0
C2401 C 0.222 0.67308 0.15654 0.0
C2402 C 0.22427 0.75261 0.13794 0.0
C2403 C 0.18894 0.76134 0.13445 0.0
C2404 C 0.25425 0.77579 0.13554 0.0
C2405 C 0.292 0.76773 0.13924 0.0
C2406 C 0.29874 0.76223 0.14972 0.0
C2407 C 0.33423 0.7541 0.15316 0.0
C2408 C 0.36329 0.75159 0.1462 0.0
C2409 C 0.35693 0.75729 0.13578 0.0
C2410 C 0.32147 0.76538 0.1323 0.0
C2411 C 0.17613 0.89552 0.1104 0.0
C2412 C 0.19762 0.89385 0.10148 0.0
C2413 C 0.18243 0.87093 0.11843 0.0
C2414 C 0.20977 0.84382 0.11754 0.0
C2415 C 0.23223 0.84322 0.10881 0.0
C2416 C 0.22629 0.86806 0.10087 0.0
C2417 C 0.21338 0.81411 0.12522 0.0
C2418 C 0.24836 0.80648 0.12925 0.0
C2419 C 0.18319 0.79142 0.12795 0.0
C2420 C 0.14612 0.79626 0.12342 0.0
C2421 C 0.14098 0.79378 0.11279 0.0
C2422 C 0.10597 0.79859 0.10857 0.0
C2423 C 0.07584 0.80551 0.11493 0.0
C2424 C 0.08064 0.80751 0.12552 0.0
C2425 C 0.11561 0.80279 0.12977 0.0
H2426 H 0.04875 0.80922 0.11165 0.0
H2427 H 0.39075 0.74529 0.14887 0.0
H2428 H 0.86323 0.82256 0.89471 0.0
H2429 H 0.83395 0.80817 0.87849 0.0
H2430 H 0.9213 0.73174 0.87144 0.0
H2431 H 0.95009 0.74534 0.88798 0.0
H2432 H 0.8471 0.81049 0.85896 0.0
H2433 H 0.88328 0.65975 0.85859 0.0
H2434 H 0.90932 0.61185 0.86989 0.0
H2435 H 0.85867 0.66301 0.89592 0.0
H2436 H 0.83204 0.71092 0.88475 0.0
H2437 H 0.71265 0.7443 0.82462 0.0
H2438 H 0.77548 0.74618 0.83133 0.0
H2439 H 0.73586 0.70853 0.86065 0.0
H2440 H 0.67362 0.7051 0.8539 0.0
H2441 H 0.80327 0.68132 0.85696 0.0
H2442 H 0.74074 0.8017 0.85482 0.0
H2443 H 0.71078 0.85157 0.84506 0.0
H2444 H 0.80748 0.86337 0.82644 0.0
H2445 H 0.83783 0.81329 0.83605 0.0
C2446 C 0.8766 0.80328 0.88962 0.0
C2447 C 0.90857 0.78467 0.89264 0.0
C2448 C 0.85993 0.7951 0.88032 0.0
C2449 C 0.87513 0.76845 0.8738 0.0
C2450 C 0.90871 0.75187 0.87644 0.0
C2451 C 0.92506 0.75957 0.88587 0.0
C2452 C 0.85304 0.75557 0.86498 0.0
C2453 C 0.83818 0.78206 0.85835 0.0
C2454 C 0.84155 0.71843 0.86411 0.0
C2455 C 0.85605 0.68903 0.87086 0.0
C2456 C 0.87757 0.6606 0.86672 0.0
C2457 C 0.89245 0.6335 0.87309 0.0
C2458 C 0.88577 0.63446 0.88362 0.0
C2459 C 0.8639 0.66234 0.88777 0.0
C2460 C 0.84887 0.68944 0.88142 0.0
C2461 C 0.7175 0.73547 0.83241 0.0
C2462 C 0.68803 0.72528 0.8388 0.0
C2463 C 0.75341 0.73665 0.83623 0.0
C2464 C 0.76025 0.72797 0.84652 0.0
C2465 C 0.73124 0.71537 0.85268 0.0
C2466 C 0.69552 0.714 0.84886 0.0
C2467 C 0.79589 0.7367 0.85141 0.0
C2468 C 0.81344 0.70939 0.85723 0.0
C2469 C 0.80931 0.77325 0.85172 0.0
C2470 C 0.79134 0.80361 0.84605 0.0
C2471 C 0.75551 0.81489 0.84862 0.0
C2472 C 0.73847 0.84315 0.84312 0.0
C2473 C 0.75717 0.86055 0.83512 0.0
C2474 C 0.793 0.84981 0.83262 0.0
C2475 C 0.81013 0.82151 0.83809 0.0
H2476 H 0.74394 0.88241 0.83086 0.0
H2477 H 0.89749 0.61358 0.88855 0.0
H2478 H 0.7865 0.16711 0.0847 0.0
H2479 H 0.77893 0.19371 0.10172 0.0
H2480 H 0.66372 0.21212 0.09568 0.0
H2481 H 0.6712 0.18524 0.07856 0.0
H2482 H 0.70403 0.27404 0.10398 0.0
H2483 H 0.67954 0.14807 0.11118 0.0
H2484 H 0.68998 0.0811 0.1104 0.0
H2485 H 0.79388 0.09438 0.12556 0.0
H2486 H 0.78436 0.16151 0.12629 0.0
H2487 H 0.70464 0.34197 0.1548 0.0
H2488 H 0.68426 0.30596 0.1402 0.0
H2489 H 0.78897 0.25009 0.13951 0.0
H2490 H 0.80873 0.28407 0.15449 0.0
H2491 H 0.73673 0.20353 0.1352 0.0
H2492 H 0.76749 0.32853 0.12482 0.0
H2493 H 0.76071 0.39607 0.12468 0.0
H2494 H 0.64886 0.38513 0.11457 0.0
H2495 H 0.65463 0.3175 0.11495 0.0
C2496 C 0.75966 0.17713 0.08696 0.0
C2497 C 0.72945 0.17438 0.08033 0.0
C2498 C 0.75528 0.19191 0.0967 0.0
C2499 C 0.7207 0.20439 0.09994 0.0
C2500 C 0.69053 0.20231 0.0933 0.0
C2501 C 0.69481 0.187 0.08357 0.0
C2502 C 0.71696 0.22073 0.11018 0.0
C2503 C 0.7102 0.25857 0.11088 0.0
C2504 C 0.72552 0.20036 0.11907 0.0
C2505 C 0.73128 0.15991 0.11874 0.0
C2506 C 0.70474 0.13676 0.11428 0.0
C2507 C 0.71047 0.09875 0.11386 0.0
C2508 C 0.74259 0.0835 0.11792 0.0
C2509 C 0.76901 0.10623 0.12242 0.0
C2510 C 0.76342 0.14427 0.12286 0.0
C2511 C 0.72316 0.32151 0.15173 0.0
C2512 C 0.75868 0.31639 0.15581 0.0
C2513 C 0.71148 0.30114 0.14329 0.0
C2514 C 0.73533 0.27584 0.13865 0.0
C2515 C 0.77013 0.2696 0.14294 0.0
C2516 C 0.78162 0.28951 0.15145 0.0
C2517 C 0.72545 0.2573 0.12897 0.0
C2518 C 0.72955 0.21895 0.12838 0.0
C2519 C 0.71487 0.27731 0.12014 0.0
C2520 C 0.71131 0.31797 0.12007 0.0
C2521 C 0.7413 0.34053 0.12269 0.0
C2522 C 0.73763 0.37883 0.12258 0.0
C2523 C 0.70429 0.39489 0.11969 0.0
C2524 C 0.67458 0.37267 0.11689 0.0
C2525 C 0.678 0.33436 0.11708 0.0
H2526 H 0.70152 0.42454 0.11958 0.0
H2527 H 0.74699 0.05407 0.11758 0.0
loop_
_geom_bond_atom_site_label_1
_geom_bond_atom_site_label_2
_geom_bond_distance
_geom_bond_site_symmetry_2
_ccdc_geom_bond_type
C0 C1 1.351 . S
C0 N3 1.368 . S
C0 H5 0.931 . S
C1 C0 1.351 . S
C1 N2 1.373 . S
C1 H29 0.930 . S
N2 C1 1.373 . S
N2 C4 1.340 . S
N3 C0 1.368 . S
N3 C4 1.321 . S
N3 Co6 2.135 1_655 S
C4 N2 1.340 . S
C4 N3 1.321 . S
C4 H28 0.930 . S
H5 C0 0.931 . S
Co6 N3 2.135 1_455 S
Co6 N9 2.121 . S
Co6 O14 2.055 . S
Co6 O17 2.039 1_455 S
Co6 N20 2.140 . S
C7 O8 1.227 . S
C7 O17 1.265 1_455 S
O8 C7 1.227 . S
N9 Co6 2.121 . S
N9 C11 1.375 . S
N9 C12 1.313 . S
C10 C11 1.338 . S
C10 N13 1.377 . S
C10 H30 0.930 . S
C11 N9 1.375 . S
C11 C10 1.338 . S
C11 H15 0.931 . S
C12 N9 1.313 . S
C12 N13 1.344 . S
C12 H16 0.930 . S
N13 C10 1.377 . S
N13 C12 1.344 . S
O14 Co6 2.055 . S
O14 C18 1.253 . S
H15 C11 0.931 . S
H16 C12 0.930 . S
O17 Co6 2.039 1_655 S
O17 C7 1.265 1_655 S
C18 O14 1.253 . S
C18 O19 1.227 . S
O19 C18 1.227 . S
N20 Co6 2.140 . S
N20 C23 1.346 . S
N20 C24 1.345 . S
C21 C22 1.387 . S
C21 C25 1.391 . S
C22 C21 1.387 . S
C22 C23 1.369 . S
C22 H31 0.929 . S
C23 N20 1.346 . S
C23 C22 1.369 . S
C23 H26 0.928 . S
C24 N20 1.345 . S
C24 C25 1.371 . S
C24 H27 0.931 . S
C25 C21 1.391 . S
C25 C24 1.371 . S
C25 H32 0.930 . S
H26 C23 0.928 . S
H27 C24 0.931 . S
H28 C4 0.930 . S
H29 C1 0.930 . S
H30 C10 0.930 . S
H31 C22 0.929 . S
H32 C25 0.930 . S
C33 C34 1.351 . S
C33 N36 1.368 . S
C33 H38 0.931 . S
C34 C33 1.351 . S
C34 N35 1.373 . S
C34 H62 0.930 . S
N35 C34 1.373 . S
N35 C37 1.340 . S
N36 C33 1.368 . S
N36 C37 1.321 . S
N36 Co39 2.135 1_545 S
C37 N35 1.340 . S
C37 N36 1.321 . S
C37 H61 0.930 . S
H38 C33 0.931 . S
Co39 N36 2.135 1_565 S
Co39 N42 2.121 . S
Co39 O47 2.055 . S
Co39 O50 2.039 1_565 S
Co39 N53 2.140 . S
C40 O41 1.227 . S
C40 O50 1.265 1_565 S
O41 C40 1.227 . S
N42 Co39 2.121 . S
N42 C44 1.375 . S
N42 C45 1.313 . S
C43 C44 1.338 . S
C43 N46 1.377 . S
C43 H63 0.930 . S
C44 N42 1.375 . S
C44 C43 1.338 . S
C44 H48 0.931 . S
C45 N42 1.313 . S
C45 N46 1.344 . S
C45 H49 0.930 . S
N46 C43 1.377 . S
N46 C45 1.344 . S
O47 Co39 2.055 . S
O47 C51 1.253 . S
H48 C44 0.931 . S
H49 C45 0.930 . S
O50 Co39 2.039 1_545 S
O50 C40 1.265 1_545 S
C51 O47 1.253 . S
C51 O52 1.227 . S
O52 C51 1.227 . S
N53 Co39 2.140 . S
N53 C56 1.346 . S
N53 C57 1.345 . S
C54 C55 1.387 . S
C54 C58 1.391 . S
C55 C54 1.387 . S
C55 C56 1.369 . S
C55 H64 0.929 . S
C56 N53 1.346 . S
C56 C55 1.369 . S
C56 H59 0.928 . S
C57 N53 1.345 . S
C57 C58 1.371 . S
C57 H60 0.931 . S
C58 C54 1.391 . S
C58 C57 1.371 . S
C58 H65 0.930 . S
H59 C56 0.928 . S
H60 C57 0.931 . S
H61 C37 0.930 . S
H62 C34 0.930 . S
H63 C43 0.930 . S
H64 C55 0.929 . S
H65 C58 0.930 . S
C66 C67 1.351 . S
C66 N69 1.368 . S
C66 H71 0.931 . S
C67 C66 1.351 . S
C67 N68 1.373 . S
C67 H95 0.930 . S
N68 C67 1.373 . S
N68 C70 1.340 . S
N69 C66 1.368 . S
N69 C70 1.321 . S
N69 Co72 2.135 1_455 S
C70 N68 1.340 . S
C70 N69 1.321 . S
C70 H94 0.930 . S
H71 C66 0.931 . S
Co72 N69 2.135 1_655 S
Co72 N75 2.121 . S
Co72 O80 2.055 . S
Co72 O83 2.039 1_655 S
Co72 N86 2.140 . S
C73 O74 1.227 . S
C73 O83 1.265 1_655 S
O74 C73 1.227 . S
N75 Co72 2.121 . S
N75 C77 1.375 . S
N75 C78 1.313 . S
C76 C77 1.338 . S
C76 N79 1.377 . S
C76 H96 0.930 . S
C77 N75 1.375 . S
C77 C76 1.338 . S
C77 H81 0.931 . S
C78 N75 1.313 . S
C78 N79 1.344 . S
C78 H82 0.930 . S
N79 C76 1.377 . S
N79 C78 1.344 . S
O80 Co72 2.055 . S
O80 C84 1.253 . S
H81 C77 0.931 . S
H82 C78 0.930 . S
O83 Co72 2.039 1_455 S
O83 C73 1.265 1_455 S
C84 O80 1.253 . S
C84 O85 1.227 . S
O85 C84 1.227 . S
N86 Co72 2.140 . S
N86 C89 1.346 . S
N86 C90 1.345 . S
C87 C88 1.387 . S
C87 C91 1.391 . S
C88 C87 1.387 . S
C88 C89 1.369 . S
C88 H97 0.929 . S
C89 N86 1.346 . S
C89 C88 1.369 . S
C89 H92 0.928 . S
C90 N86 1.345 . S
C90 C91 1.371 . S
C90 H93 0.931 . S
C91 C87 1.391 . S
C91 C90 1.371 . S
C91 H98 0.930 . S
H92 C89 0.928 . S
H93 C90 0.931 . S
H94 C70 0.930 . S
H95 C67 0.930 . S
H96 C76 0.930 . S
H97 C88 0.929 . S
H98 C91 0.930 . S
C99 C100 1.351 . S
C99 N102 1.368 . S
C99 H104 0.931 . S
C100 C99 1.351 . S
C100 N101 1.373 . S
C100 H128 0.930 . S
N101 C100 1.373 . S
N101 C103 1.340 . S
N102 C99 1.368 . S
N102 C103 1.321 . S
N102 Co105 2.135 1_565 S
C103 N101 1.340 . S
C103 N102 1.321 . S
C103 H127 0.930 . S
H104 C99 0.931 . S
Co105 N102 2.135 1_545 S
Co105 N108 2.121 . S
Co105 O113 2.055 . S
Co105 O116 2.039 1_545 S
Co105 N119 2.140 . S
C106 O107 1.227 . S
C106 O116 1.265 1_545 S
O107 C106 1.227 . S
N108 Co105 2.121 . S
N108 C110 1.375 . S
N108 C111 1.313 . S
C109 C110 1.338 . S
C109 N112 1.377 . S
C109 H129 0.930 . S
C110 N108 1.375 . S
C110 C109 1.338 . S
C110 H114 0.931 . S
C111 N108 1.313 . S
C111 N112 1.344 . S
C111 H115 0.930 . S
N112 C109 1.377 . S
N112 C111 1.344 . S
O113 Co105 2.055 . S
O113 C117 1.253 . S
H114 C110 0.931 . S
H115 C111 0.930 . S
O116 Co105 2.039 1_565 S
O116 C106 1.265 1_565 S
C117 O113 1.253 . S
C117 O118 1.227 . S
O118 C117 1.227 . S
N119 Co105 2.140 . S
N119 C122 1.346 . S
N119 C123 1.345 . S
C120 C121 1.387 . S
C120 C124 1.391 . S
C121 C120 1.387 . S
C121 C122 1.369 . S
C121 H130 0.929 . S
C122 N119 1.346 . S
C122 C121 1.369 . S
C122 H125 0.928 . S
C123 N119 1.345 . S
C123 C124 1.371 . S
C123 H126 0.931 . S
C124 C120 1.391 . S
C124 C123 1.371 . S
C124 H131 0.930 . S
H125 C122 0.928 . S
H126 C123 0.931 . S
H127 C103 0.930 . S
H128 C100 0.930 . S
H129 C109 0.930 . S
H130 C121 0.929 . S
H131 C124 0.930 . S
C132 C133 1.351 . S
C132 N135 1.368 . S
C132 H137 0.931 . S
C133 C132 1.351 . S
C133 N134 1.373 . S
C133 H161 0.930 . S
N134 C133 1.373 . S
N134 C136 1.340 . S
N135 C132 1.368 . S
N135 C136 1.321 . S
N135 Co138 2.135 1_655 S
C136 N134 1.340 . S
C136 N135 1.321 . S
C136 H160 0.930 . S
H137 C132 0.931 . S
Co138 N135 2.135 1_455 S
Co138 N141 2.121 . S
Co138 O146 2.055 . S
Co138 O149 2.039 1_455 S
Co138 N152 2.140 . S
C139 O140 1.227 . S
C139 O149 1.265 1_455 S
O140 C139 1.227 . S
N141 Co138 2.121 . S
N141 C143 1.375 . S
N141 C144 1.313 . S
C142 C143 1.338 . S
C142 N145 1.377 . S
C142 H162 0.930 . S
C143 N141 1.375 . S
C143 C142 1.338 . S
C143 H147 0.931 . S
C144 N141 1.313 . S
C144 N145 1.344 . S
C144 H148 0.930 . S
N145 C142 1.377 . S
N145 C144 1.344 . S
O146 Co138 2.055 . S
O146 C150 1.253 . S
H147 C143 0.931 . S
H148 C144 0.930 . S
O149 Co138 2.039 1_655 S
O149 C139 1.265 1_655 S
C150 O146 1.253 . S
C150 O151 1.227 . S
O151 C150 1.227 . S
N152 Co138 2.140 . S
N152 C155 1.346 . S
N152 C156 1.345 . S
C153 C154 1.387 . S
C153 C157 1.391 . S
C154 C153 1.387 . S
C154 C155 1.369 . S
C154 H163 0.929 . S
C155 N152 1.346 . S
C155 C154 1.369 . S
C155 H158 0.928 . S
C156 N152 1.345 . S
C156 C157 1.371 . S
C156 H159 0.931 . S
C157 C153 1.391 . S
C157 C156 1.371 . S
C157 H164 0.930 . S
H158 C155 0.928 . S
H159 C156 0.931 . S
H160 C136 0.930 . S
H161 C133 0.930 . S
H162 C142 0.930 . S
H163 C154 0.929 . S
H164 C157 0.930 . S
C165 C166 1.351 . S
C165 N168 1.368 . S
C165 H170 0.931 . S
C166 C165 1.351 . S
C166 N167 1.373 . S
C166 H194 0.930 . S
N167 C166 1.373 . S
N167 C169 1.340 . S
N168 C165 1.368 . S
N168 C169 1.321 . S
N168 Co171 2.135 1_545 S
C169 N167 1.340 . S
C169 N168 1.321 . S
C169 H193 0.930 . S
H170 C165 0.931 . S
Co171 N168 2.135 1_565 S
Co171 N174 2.121 . S
Co171 O179 2.055 . S
Co171 O182 2.039 1_565 S
Co171 N185 2.140 . S
C172 O173 1.227 . S
C172 O182 1.265 1_565 S
O173 C172 1.227 . S
N174 Co171 2.121 . S
N174 C176 1.375 . S
N174 C177 1.313 . S
C175 C176 1.338 . S
C175 N178 1.377 . S
C175 H195 0.930 . S
C176 N174 1.375 . S
C176 C175 1.338 . S
C176 H180 0.931 . S
C177 N174 1.313 . S
C177 N178 1.344 . S
C177 H181 0.930 . S
N178 C175 1.377 . S
N178 C177 1.344 . S
O179 Co171 2.055 . S
O179 C183 1.253 . S
H180 C176 0.931 . S
H181 C177 0.930 . S
O182 Co171 2.039 1_545 S
O182 C172 1.265 1_545 S
C183 O179 1.253 . S
C183 O184 1.227 . S
O184 C183 1.227 . S
N185 Co171 2.140 . S
N185 C188 1.346 . S
N185 C189 1.345 . S
C186 C187 1.387 . S
C186 C190 1.391 . S
C187 C186 1.387 . S
C187 C188 1.369 . S
C187 H196 0.929 . S
C188 N185 1.346 . S
C188 C187 1.369 . S
C188 H191 0.928 . S
C189 N185 1.345 . S
C189 C190 1.371 . S
C189 H192 0.931 . S
C190 C186 1.391 . S
C190 C189 1.371 . S
C190 H197 0.930 . S
H191 C188 0.928 . S
H192 C189 0.931 . S
H193 C169 0.930 . S
H194 C166 0.930 . S
H195 C175 0.930 . S
H196 C187 0.929 . S
H197 C190 0.930 . S
C198 C199 1.351 . S
C198 N201 1.368 . S
C198 H203 0.931 . S
C199 C198 1.351 . S
C199 N200 1.373 . S
C199 H227 0.930 . S
N200 C199 1.373 . S
N200 C202 1.340 . S
N201 C198 1.368 . S
N201 C202 1.321 . S
N201 Co204 2.135 1_455 S
C202 N200 1.340 . S
C202 N201 1.321 . S
C202 H226 0.930 . S
H203 C198 0.931 . S
Co204 N201 2.135 1_655 S
Co204 N207 2.121 . S
Co204 O212 2.055 . S
Co204 O215 2.039 1_655 S
Co204 N218 2.140 . S
C205 O206 1.227 . S
C205 O215 1.265 1_655 S
O206 C205 1.227 . S
N207 Co204 2.121 . S
N207 C209 1.375 . S
N207 C210 1.313 . S
C208 C209 1.338 . S
C208 N211 1.377 . S
C208 H228 0.930 . S
C209 N207 1.375 . S
C209 C208 1.338 . S
C209 H213 0.931 . S
C210 N207 1.313 . S
C210 N211 1.344 . S
C210 H214 0.930 . S
N211 C208 1.377 . S
N211 C210 1.344 . S
O212 Co204 2.055 . S
O212 C216 1.253 . S
H213 C209 0.931 . S
H214 C210 0.930 . S
O215 Co204 2.039 1_455 S
O215 C205 1.265 1_455 S
C216 O212 1.253 . S
C216 O217 1.227 . S
O217 C216 1.227 . S
N218 Co204 2.140 . S
N218 C221 1.346 . S
N218 C222 1.345 . S
C219 C220 1.387 . S
C219 C223 1.391 . S
C220 C219 1.387 . S
C220 C221 1.369 . S
C220 H229 0.929 . S
C221 N218 1.346 . S
C221 C220 1.369 . S
C221 H224 0.928 . S
C222 N218 1.345 . S
C222 C223 1.371 . S
C222 H225 0.931 . S
C223 C219 1.391 . S
C223 C222 1.371 . S
C223 H230 0.930 . S
H224 C221 0.928 . S
H225 C222 0.931 . S
H226 C202 0.930 . S
H227 C199 0.930 . S
H228 C208 0.930 . S
H229 C220 0.929 . S
H230 C223 0.930 . S
C231 C232 1.351 . S
C231 N234 1.368 . S
C231 H236 0.931 . S
C232 C231 1.351 . S
C232 N233 1.373 . S
C232 H260 0.930 . S
N233 C232 1.373 . S
N233 C235 1.340 . S
N234 C231 1.368 . S
N234 C235 1.321 . S
N234 Co237 2.135 1_565 S
C235 N233 1.340 . S
C235 N234 1.321 . S
C235 H259 0.930 . S
H236 C231 0.931 . S
Co237 N234 2.135 1_545 S
Co237 N240 2.121 . S
Co237 O245 2.055 . S
Co237 O248 2.039 1_545 S
Co237 N251 2.140 . S
C238 O239 1.227 . S
C238 O248 1.265 1_545 S
O239 C238 1.227 . S
N240 Co237 2.121 . S
N240 C242 1.375 . S
N240 C243 1.313 . S
C241 C242 1.338 . S
C241 N244 1.377 . S
C241 H261 0.930 . S
C242 N240 1.375 . S
C242 C241 1.338 . S
C242 H246 0.931 . S
C243 N240 1.313 . S
C243 N244 1.344 . S
C243 H247 0.930 . S
N244 C241 1.377 . S
N244 C243 1.344 . S
O245 Co237 2.055 . S
O245 C249 1.253 . S
H246 C242 0.931 . S
H247 C243 0.930 . S
O248 Co237 2.039 1_565 S
O248 C238 1.265 1_565 S
C249 O245 1.253 . S
C249 O250 1.227 . S
O250 C249 1.227 . S
N251 Co237 2.140 . S
N251 C254 1.346 . S
N251 C255 1.345 . S
C252 C253 1.387 . S
C252 C256 1.391 . S
C253 C252 1.387 . S
C253 C254 1.369 . S
C253 H262 0.929 . S
C254 N251 1.346 . S
C254 C253 1.369 . S
C254 H257 0.928 . S
C255 N251 1.345 . S
C255 C256 1.371 . S
C255 H258 0.931 . S
C256 C252 1.391 . S
C256 C255 1.371 . S
C256 H263 0.930 . S
H257 C254 0.928 . S
H258 C255 0.931 . S
H259 C235 0.930 . S
H260 C232 0.930 . S
H261 C241 0.930 . S
H262 C253 0.929 . S
H263 C256 0.930 . S
C264 C265 1.351 . S
C264 N267 1.368 . S
C264 H269 0.931 . S
C265 C264 1.351 . S
C265 N266 1.373 . S
C265 H293 0.930 . S
N266 C265 1.373 . S
N266 C268 1.340 . S
N267 C264 1.368 . S
N267 C268 1.321 . S
N267 Co270 2.135 . S
C268 N266 1.340 . S
C268 N267 1.321 . S
C268 H292 0.930 . S
H269 C264 0.931 . S
Co270 N267 2.135 . S
Co270 N273 2.121 . S
Co270 O278 2.055 . S
Co270 O281 2.039 . S
Co270 N284 2.140 . S
C271 O272 1.227 . S
C271 O281 1.265 . S
O272 C271 1.227 . S
N273 Co270 2.121 . S
N273 C275 1.375 . S
N273 C276 1.313 . S
C274 C275 1.338 . S
C274 N277 1.377 . S
C274 H294 0.930 . S
C275 N273 1.375 . S
C275 C274 1.338 . S
C275 H279 0.931 . S
C276 N273 1.313 . S
C276 N277 1.344 . S
C276 H280 0.930 . S
N277 C274 1.377 . S
N277 C276 1.344 . S
O278 Co270 2.055 . S
O278 C282 1.253 . S
H279 C275 0.931 . S
H280 C276 0.930 . S
O281 Co270 2.039 . S
O281 C271 1.265 . S
C282 O278 1.253 . S
C282 O283 1.227 . S
O283 C282 1.227 . S
N284 Co270 2.140 . S
N284 C287 1.346 . S
N284 C288 1.345 . S
C285 C286 1.387 . S
C285 C289 1.391 . S
C286 C285 1.387 . S
C286 C287 1.369 . S
C286 H295 0.929 . S
C287 N284 1.346 . S
C287 C286 1.369 . S
C287 H290 0.928 . S
C288 N284 1.345 . S
C288 C289 1.371 . S
C288 H291 0.931 . S
C289 C285 1.391 . S
C289 C288 1.371 . S
C289 H296 0.930 . S
H290 C287 0.928 . S
H291 C288 0.931 . S
H292 C268 0.930 . S
H293 C265 0.930 . S
H294 C274 0.930 . S
H295 C286 0.929 . S
H296 C289 0.930 . S
C297 C298 1.351 . S
C297 N300 1.368 . S
C297 H302 0.931 . S
C298 C297 1.351 . S
C298 N299 1.373 . S
C298 H326 0.930 . S
N299 C298 1.373 . S
N299 C301 1.340 . S
N300 C297 1.368 . S
N300 C301 1.321 . S
N300 Co303 2.135 . S
C301 N299 1.340 . S
C301 N300 1.321 . S
C301 H325 0.930 . S
H302 C297 0.931 . S
Co303 N300 2.135 . S
Co303 N306 2.121 . S
Co303 O311 2.055 . S
Co303 O314 2.039 . S
Co303 N317 2.140 . S
C304 O305 1.227 . S
C304 O314 1.265 . S
O305 C304 1.227 . S
N306 Co303 2.121 . S
N306 C308 1.375 . S
N306 C309 1.313 . S
C307 C308 1.338 . S
C307 N310 1.377 . S
C307 H327 0.930 . S
C308 N306 1.375 . S
C308 C307 1.338 . S
C308 H312 0.931 . S
C309 N306 1.313 . S
C309 N310 1.344 . S
C309 H313 0.930 . S
N310 C307 1.377 . S
N310 C309 1.344 . S
O311 Co303 2.055 . S
O311 C315 1.253 . S
H312 C308 0.931 . S
H313 C309 0.930 . S
O314 Co303 2.039 . S
O314 C304 1.265 . S
C315 O311 1.253 . S
C315 O316 1.227 . S
O316 C315 1.227 . S
N317 Co303 2.140 . S
N317 C320 1.346 . S
N317 C321 1.345 . S
C318 C319 1.387 . S
C318 C322 1.391 . S
C319 C318 1.387 . S
C319 C320 1.369 . S
C319 H328 0.929 . S
C320 N317 1.346 . S
C320 C319 1.369 . S
C320 H323 0.928 . S
C321 N317 1.345 . S
C321 C322 1.371 . S
C321 H324 0.931 . S
C322 C318 1.391 . S
C322 C321 1.371 . S
C322 H329 0.930 . S
H323 C320 0.928 . S
H324 C321 0.931 . S
H325 C301 0.930 . S
H326 C298 0.930 . S
H327 C307 0.930 . S
H328 C319 0.929 . S
H329 C322 0.930 . S
C330 C331 1.351 . S
C330 N333 1.368 . S
C330 H335 0.931 . S
C331 C330 1.351 . S
C331 N332 1.373 . S
C331 H359 0.930 . S
N332 C331 1.373 . S
N332 C334 1.340 . S
N333 C330 1.368 . S
N333 C334 1.321 . S
N333 Co336 2.135 . S
C334 N332 1.340 . S
C334 N333 1.321 . S
C334 H358 0.930 . S
H335 C330 0.931 . S
Co336 N333 2.135 . S
Co336 N339 2.121 . S
Co336 O344 2.055 . S
Co336 O347 2.039 . S
Co336 N350 2.140 . S
C337 O338 1.227 . S
C337 O347 1.265 . S
O338 C337 1.227 . S
N339 Co336 2.121 . S
N339 C341 1.375 . S
N339 C342 1.313 . S
C340 C341 1.338 . S
C340 N343 1.377 . S
C340 H360 0.930 . S
C341 N339 1.375 . S
C341 C340 1.338 . S
C341 H345 0.931 . S
C342 N339 1.313 . S
C342 N343 1.344 . S
C342 H346 0.930 . S
N343 C340 1.377 . S
N343 C342 1.344 . S
O344 Co336 2.055 . S
O344 C348 1.253 . S
H345 C341 0.931 . S
H346 C342 0.930 . S
O347 Co336 2.039 . S
O347 C337 1.265 . S
C348 O344 1.253 . S
C348 O349 1.227 . S
O349 C348 1.227 . S
N350 Co336 2.140 . S
N350 C353 1.346 . S
N350 C354 1.345 . S
C351 C352 1.387 . S
C351 C355 1.391 . S
C352 C351 1.387 . S
C352 C353 1.369 . S
C352 H361 0.929 . S
C353 N350 1.346 . S
C353 C352 1.369 . S
C353 H356 0.928 . S
C354 N350 1.345 . S
C354 C355 1.371 . S
C354 H357 0.931 . S
C355 C351 1.391 . S
C355 C354 1.371 . S
C355 H362 0.930 . S
H356 C353 0.928 . S
H357 C354 0.931 . S
H358 C334 0.930 . S
H359 C331 0.930 . S
H360 C340 0.930 . S
H361 C352 0.929 . S
H362 C355 0.930 . S
C363 C364 1.351 . S
C363 N366 1.368 . S
C363 H368 0.931 . S
C364 C363 1.351 . S
C364 N365 1.373 . S
C364 H392 0.930 . S
N365 C364 1.373 . S
N365 C367 1.340 . S
N366 C363 1.368 . S
N366 C367 1.321 . S
N366 Co369 2.135 . S
C367 N365 1.340 . S
C367 N366 1.321 . S
C367 H391 0.930 . S
H368 C363 0.931 . S
Co369 N366 2.135 . S
Co369 N372 2.121 . S
Co369 O377 2.055 . S
Co369 O380 2.039 . S
Co369 N383 2.140 . S
C370 O371 1.227 . S
C370 O380 1.265 . S
O371 C370 1.227 . S
N372 Co369 2.121 . S
N372 C374 1.375 . S
N372 C375 1.313 . S
C373 C374 1.338 . S
C373 N376 1.377 . S
C373 H393 0.930 . S
C374 N372 1.375 . S
C374 C373 1.338 . S
C374 H378 0.931 . S
C375 N372 1.313 . S
C375 N376 1.344 . S
C375 H379 0.930 . S
N376 C373 1.377 . S
N376 C375 1.344 . S
O377 Co369 2.055 . S
O377 C381 1.253 . S
H378 C374 0.931 . S
H379 C375 0.930 . S
O380 Co369 2.039 . S
O380 C370 1.265 . S
C381 O377 1.253 . S
C381 O382 1.227 . S
O382 C381 1.227 . S
N383 Co369 2.140 . S
N383 C386 1.346 . S
N383 C387 1.345 . S
C384 C385 1.387 . S
C384 C388 1.391 . S
C385 C384 1.387 . S
C385 C386 1.369 . S
C385 H394 0.929 . S
C386 N383 1.346 . S
C386 C385 1.369 . S
C386 H389 0.928 . S
C387 N383 1.345 . S
C387 C388 1.371 . S
C387 H390 0.931 . S
C388 C384 1.391 . S
C388 C387 1.371 . S
C388 H395 0.930 . S
H389 C386 0.928 . S
H390 C387 0.931 . S
H391 C367 0.930 . S
H392 C364 0.930 . S
H393 C373 0.930 . S
H394 C385 0.929 . S
H395 C388 0.930 . S
C396 C397 1.351 . S
C396 N399 1.368 . S
C396 H401 0.931 . S
C397 C396 1.351 . S
C397 N398 1.373 . S
C397 H425 0.930 . S
N398 C397 1.373 . S
N398 C400 1.340 . S
N399 C396 1.368 . S
N399 C400 1.321 . S
N399 Co402 2.135 . S
C400 N398 1.340 . S
C400 N399 1.321 . S
C400 H424 0.930 . S
H401 C396 0.931 . S
Co402 N399 2.135 . S
Co402 N405 2.121 . S
Co402 O410 2.055 . S
Co402 O413 2.039 . S
Co402 N416 2.140 . S
C403 O404 1.227 . S
C403 O413 1.265 . S
O404 C403 1.227 . S
N405 Co402 2.121 . S
N405 C407 1.375 . S
N405 C408 1.313 . S
C406 C407 1.338 . S
C406 N409 1.377 . S
C406 H426 0.930 . S
C407 N405 1.375 . S
C407 C406 1.338 . S
C407 H411 0.931 . S
C408 N405 1.313 . S
C408 N409 1.344 . S
C408 H412 0.930 . S
N409 C406 1.377 . S
N409 C408 1.344 . S
O410 Co402 2.055 . S
O410 C414 1.253 . S
H411 C407 0.931 . S
H412 C408 0.930 . S
O413 Co402 2.039 . S
O413 C403 1.265 . S
C414 O410 1.253 . S
C414 O415 1.227 . S
O415 C414 1.227 . S
N416 Co402 2.140 . S
N416 C419 1.346 . S
N416 C420 1.345 . S
C417 C418 1.387 . S
C417 C421 1.391 . S
C418 C417 1.387 . S
C418 C419 1.369 . S
C418 H427 0.929 . S
C419 N416 1.346 . S
C419 C418 1.369 . S
C419 H422 0.928 . S
C420 N416 1.345 . S
C420 C421 1.371 . S
C420 H423 0.931 . S
C421 C417 1.391 . S
C421 C420 1.371 . S
C421 H428 0.930 . S
H422 C419 0.928 . S
H423 C420 0.931 . S
H424 C400 0.930 . S
H425 C397 0.930 . S
H426 C406 0.930 . S
H427 C418 0.929 . S
H428 C421 0.930 . S
C429 C430 1.351 . S
C429 N432 1.368 . S
C429 H434 0.931 . S
C430 C429 1.351 . S
C430 N431 1.373 . S
C430 H458 0.930 . S
N431 C430 1.373 . S
N431 C433 1.340 . S
N432 C429 1.368 . S
N432 C433 1.321 . S
N432 Co435 2.135 . S
C433 N431 1.340 . S
C433 N432 1.321 . S
C433 H457 0.930 . S
H434 C429 0.931 . S
Co435 N432 2.135 . S
Co435 N438 2.121 . S
Co435 O443 2.055 . S
Co435 O446 2.039 . S
Co435 N449 2.140 . S
C436 O437 1.227 . S
C436 O446 1.265 . S
O437 C436 1.227 . S
N438 Co435 2.121 . S
N438 C440 1.375 . S
N438 C441 1.313 . S
C439 C440 1.338 . S
C439 N442 1.377 . S
C439 H459 0.930 . S
C440 N438 1.375 . S
C440 C439 1.338 . S
C440 H444 0.931 . S
C441 N438 1.313 . S
C441 N442 1.344 . S
C441 H445 0.930 . S
N442 C439 1.377 . S
N442 C441 1.344 . S
O443 Co435 2.055 . S
O443 C447 1.253 . S
H444 C440 0.931 . S
H445 C441 0.930 . S
O446 Co435 2.039 . S
O446 C436 1.265 . S
C447 O443 1.253 . S
C447 O448 1.227 . S
O448 C447 1.227 . S
N449 Co435 2.140 . S
N449 C452 1.346 . S
N449 C453 1.345 . S
C450 C451 1.387 . S
C450 C454 1.391 . S
C451 C450 1.387 . S
C451 C452 1.369 . S
C451 H460 0.929 . S
C452 N449 1.346 . S
C452 C451 1.369 . S
C452 H455 0.928 . S
C453 N449 1.345 . S
C453 C454 1.371 . S
C453 H456 0.931 . S
C454 C450 1.391 . S
C454 C453 1.371 . S
C454 H461 0.930 . S
H455 C452 0.928 . S
H456 C453 0.931 . S
H457 C433 0.930 . S
H458 C430 0.930 . S
H459 C439 0.930 . S
H460 C451 0.929 . S
H461 C454 0.930 . S
C462 C463 1.351 . S
C462 N465 1.368 . S
C462 H467 0.931 . S
C463 C462 1.351 . S
C463 N464 1.373 . S
C463 H491 0.930 . S
N464 C463 1.373 . S
N464 C466 1.340 . S
N465 C462 1.368 . S
N465 C466 1.321 . S
N465 Co468 2.135 . S
C466 N464 1.340 . S
C466 N465 1.321 . S
C466 H490 0.930 . S
H467 C462 0.931 . S
Co468 N465 2.135 . S
Co468 N471 2.121 . S
Co468 O476 2.055 . S
Co468 O479 2.039 . S
Co468 N482 2.140 . S
C469 O470 1.227 . S
C469 O479 1.265 . S
O470 C469 1.227 . S
N471 Co468 2.121 . S
N471 C473 1.375 . S
N471 C474 1.313 . S
C472 C473 1.338 . S
C472 N475 1.377 . S
C472 H492 0.930 . S
C473 N471 1.375 . S
C473 C472 1.338 . S
C473 H477 0.931 . S
C474 N471 1.313 . S
C474 N475 1.344 . S
C474 H478 0.930 . S
N475 C472 1.377 . S
N475 C474 1.344 . S
O476 Co468 2.055 . S
O476 C480 1.253 . S
H477 C473 0.931 . S
H478 C474 0.930 . S
O479 Co468 2.039 . S
O479 C469 1.265 . S
C480 O476 1.253 . S
C480 O481 1.227 . S
O481 C480 1.227 . S
N482 Co468 2.140 . S
N482 C485 1.346 . S
N482 C486 1.345 . S
C483 C484 1.387 . S
C483 C487 1.391 . S
C484 C483 1.387 . S
C484 C485 1.369 . S
C484 H493 0.929 . S
C485 N482 1.346 . S
C485 C484 1.369 . S
C485 H488 0.928 . S
C486 N482 1.345 . S
C486 C487 1.371 . S
C486 H489 0.931 . S
C487 C483 1.391 . S
C487 C486 1.371 . S
C487 H494 0.930 . S
H488 C485 0.928 . S
H489 C486 0.931 . S
H490 C466 0.930 . S
H491 C463 0.930 . S
H492 C472 0.930 . S
H493 C484 0.929 . S
H494 C487 0.930 . S
C495 C496 1.351 . S
C495 N498 1.368 . S
C495 H500 0.931 . S
C496 C495 1.351 . S
C496 N497 1.373 . S
C496 H524 0.930 . S
N497 C496 1.373 . S
N497 C499 1.340 . S
N498 C495 1.368 . S
N498 C499 1.321 . S
N498 Co501 2.135 . S
C499 N497 1.340 . S
C499 N498 1.321 . S
C499 H523 0.930 . S
H500 C495 0.931 . S
Co501 N498 2.135 . S
Co501 N504 2.121 . S
Co501 O509 2.055 . S
Co501 O512 2.039 . S
Co501 N515 2.140 . S
C502 O503 1.227 . S
C502 O512 1.265 . S
O503 C502 1.227 . S
N504 Co501 2.121 . S
N504 C506 1.375 . S
N504 C507 1.313 . S
C505 C506 1.338 . S
C505 N508 1.377 . S
C505 H525 0.930 . S
C506 N504 1.375 . S
C506 C505 1.338 . S
C506 H510 0.931 . S
C507 N504 1.313 . S
C507 N508 1.344 . S
C507 H511 0.930 . S
N508 C505 1.377 . S
N508 C507 1.344 . S
O509 Co501 2.055 . S
O509 C513 1.253 . S
H510 C506 0.931 . S
H511 C507 0.930 . S
O512 Co501 2.039 . S
O512 C502 1.265 . S
C513 O509 1.253 . S
C513 O514 1.227 . S
O514 C513 1.227 . S
N515 Co501 2.140 . S
N515 C518 1.346 . S
N515 C519 1.345 . S
C516 C517 1.387 . S
C516 C520 1.391 . S
C517 C516 1.387 . S
C517 C518 1.369 . S
C517 H526 0.929 . S
C518 N515 1.346 . S
C518 C517 1.369 . S
C518 H521 0.928 . S
C519 N515 1.345 . S
C519 C520 1.371 . S
C519 H522 0.931 . S
C520 C516 1.391 . S
C520 C519 1.371 . S
C520 H527 0.930 . S
H521 C518 0.928 . S
H522 C519 0.931 . S
H523 C499 0.930 . S
H524 C496 0.930 . S
H525 C505 0.930 . S
H526 C517 0.929 . S
H527 C520 0.930 . S
H528 C546 0.951 . S
H529 C548 0.951 . S
H530 C550 0.950 . S
H531 C551 0.950 . S
H532 C553 0.950 . S
H533 C556 0.950 . S
H534 C557 0.950 . S
H535 C559 0.950 . S
H536 C560 0.950 . S
H537 C561 0.951 . S
H538 C563 0.951 . S
H539 C565 0.950 . S
H540 C566 0.950 . S
H541 C568 0.950 . S
H542 C571 0.950 . S
H543 C572 0.950 . S
H544 C574 0.950 . S
H545 C575 0.950 . S
C546 H528 0.951 . S
C546 C547 1.366 . S
C546 C548 1.388 . S
C547 C546 1.366 . S
C547 C551 1.385 . S
C548 H529 0.951 . S
C548 C546 1.388 . S
C548 C549 1.366 . S
C549 C548 1.366 . S
C549 C550 1.414 . S
C549 C552 1.499 . S
C550 H530 0.950 . S
C550 C549 1.414 . S
C550 C551 1.374 . S
C551 H531 0.950 . S
C551 C547 1.385 . S
C551 C550 1.374 . S
C552 C549 1.499 . S
C552 C553 1.373 . S
C552 C554 1.389 . S
C553 H532 0.950 . S
C553 C552 1.373 . S
C553 C569 1.377 . S
C554 C552 1.389 . S
C554 C555 1.524 . S
C554 C568 1.377 . S
C555 C554 1.524 . S
C555 C556 1.397 . S
C555 C560 1.363 . S
C556 H533 0.950 . S
C556 C555 1.397 . S
C556 C557 1.334 . S
C557 H534 0.950 . S
C557 C556 1.334 . S
C557 C558 1.287 . S
C558 C557 1.287 . S
C558 C559 1.524 . S
C558 H577 0.913 . S
C559 H535 0.950 . S
C559 C558 1.524 . S
C559 C560 1.415 . S
C560 H536 0.950 . S
C560 C555 1.363 . S
C560 C559 1.415 . S
C561 H537 0.951 . S
C561 C562 1.366 . S
C561 C563 1.388 . S
C562 C561 1.366 . S
C562 C566 1.385 . S
C563 H538 0.951 . S
C563 C561 1.388 . S
C563 C564 1.366 . S
C564 C563 1.366 . S
C564 C565 1.414 . S
C564 C567 1.499 . S
C565 H539 0.950 . S
C565 C564 1.414 . S
C565 C566 1.374 . S
C566 H540 0.950 . S
C566 C562 1.385 . S
C566 C565 1.374 . S
C567 C564 1.499 . S
C567 C568 1.373 . S
C567 C569 1.389 . S
C568 H541 0.950 . S
C568 C554 1.377 . S
C568 C567 1.373 . S
C569 C553 1.377 . S
C569 C567 1.389 . S
C569 C570 1.524 . S
C570 C569 1.524 . S
C570 C571 1.397 . S
C570 C575 1.363 . S
C571 H542 0.950 . S
C571 C570 1.397 . S
C571 C572 1.334 . S
C572 H543 0.950 . S
C572 C571 1.334 . S
C572 C573 1.287 . S
C573 C572 1.287 . S
C573 C574 1.524 . S
C573 H576 0.999 . S
C574 H544 0.950 . S
C574 C573 1.524 . S
C574 C575 1.415 . S
C575 H545 0.950 . S
C575 C570 1.363 . S
C575 C574 1.415 . S
H576 C573 0.999 . S
H577 C558 0.913 . S
H578 C596 0.951 . S
H579 C598 0.951 . S
H580 C600 0.950 . S
H581 C601 0.950 . S
H582 C603 0.950 . S
H583 C606 0.950 . S
H584 C607 0.950 . S
H585 C609 0.950 . S
H586 C610 0.950 . S
H587 C611 0.951 . S
H588 C613 0.951 . S
H589 C615 0.950 . S
H590 C616 0.950 . S
H591 C618 0.950 . S
H592 C621 0.950 . S
H593 C622 0.950 . S
H594 C624 0.950 . S
H595 C625 0.950 . S
C596 H578 0.951 . S
C596 C597 1.366 . S
C596 C598 1.388 . S
C597 C596 1.366 . S
C597 C601 1.385 . S
C598 H579 0.951 . S
C598 C596 1.388 . S
C598 C599 1.366 . S
C599 C598 1.366 . S
C599 C600 1.414 . S
C599 C602 1.499 . S
C600 H580 0.950 . S
C600 C599 1.414 . S
C600 C601 1.374 . S
C601 H581 0.950 . S
C601 C597 1.385 . S
C601 C600 1.374 . S
C602 C599 1.499 . S
C602 C603 1.373 . S
C602 C604 1.389 . S
C603 H582 0.950 . S
C603 C602 1.373 . S
C603 C619 1.377 . S
C604 C602 1.389 . S
C604 C605 1.524 . S
C604 C618 1.377 . S
C605 C604 1.524 . S
C605 C606 1.397 . S
C605 C610 1.363 . S
C606 H583 0.950 . S
C606 C605 1.397 . S
C606 C607 1.334 . S
C607 H584 0.950 . S
C607 C606 1.334 . S
C607 C608 1.287 . S
C608 C607 1.287 . S
C608 C609 1.524 . S
C608 H627 0.913 . S
C609 H585 0.950 . S
C609 C608 1.524 . S
C609 C610 1.415 . S
C610 H586 0.950 . S
C610 C605 1.363 . S
C610 C609 1.415 . S
C611 H587 0.951 . S
C611 C612 1.366 . S
C611 C613 1.388 . S
C612 C611 1.366 . S
C612 C616 1.385 . S
C613 H588 0.951 . S
C613 C611 1.388 . S
C613 C614 1.366 . S
C614 C613 1.366 . S
C614 C615 1.414 . S
C614 C617 1.499 . S
C615 H589 0.950 . S
C615 C614 1.414 . S
C615 C616 1.374 . S
C616 H590 0.950 . S
C616 C612 1.385 . S
C616 C615 1.374 . S
C617 C614 1.499 . S
C617 C618 1.373 . S
C617 C619 1.389 . S
C618 H591 0.950 . S
C618 C604 1.377 . S
C618 C617 1.373 . S
C619 C603 1.377 . S
C619 C617 1.389 . S
C619 C620 1.524 . S
C620 C619 1.524 . S
C620 C621 1.397 . S
C620 C625 1.363 . S
C621 H592 0.950 . S
C621 C620 1.397 . S
C621 C622 1.334 . S
C622 H593 0.950 . S
C622 C621 1.334 . S
C622 C623 1.287 . S
C623 C622 1.287 . S
C623 C624 1.524 . S
C623 H626 0.999 . S
C624 H594 0.950 . S
C624 C623 1.524 . S
C624 C625 1.415 . S
C625 H595 0.950 . S
C625 C620 1.363 . S
C625 C624 1.415 . S
H626 C623 0.999 . S
H627 C608 0.913 . S
H628 C646 0.951 . S
H629 C648 0.951 . S
H630 C650 0.950 . S
H631 C651 0.950 . S
H632 C653 0.950 . S
H633 C656 0.950 . S
H634 C657 0.950 . S
H635 C659 0.950 . S
H636 C660 0.950 . S
H637 C661 0.951 . S
H638 C663 0.951 . S
H639 C665 0.950 . S
H640 C666 0.950 . S
H641 C668 0.950 . S
H642 C671 0.950 . S
H643 C672 0.950 . S
H644 C674 0.950 . S
H645 C675 0.950 . S
C646 H628 0.951 . S
C646 C647 1.366 . S
C646 C648 1.388 . S
C647 C646 1.366 . S
C647 C651 1.385 . S
C648 H629 0.951 . S
C648 C646 1.388 . S
C648 C649 1.366 . S
C649 C648 1.366 . S
C649 C650 1.414 . S
C649 C652 1.499 . S
C650 H630 0.950 . S
C650 C649 1.414 . S
C650 C651 1.374 . S
C651 H631 0.950 . S
C651 C647 1.385 . S
C651 C650 1.374 . S
C652 C649 1.499 . S
C652 C653 1.373 . S
C652 C654 1.389 . S
C653 H632 0.950 . S
C653 C652 1.373 . S
C653 C669 1.377 . S
C654 C652 1.389 . S
C654 C655 1.524 . S
C654 C668 1.377 . S
C655 C654 1.524 . S
C655 C656 1.397 . S
C655 C660 1.363 . S
C656 H633 0.950 . S
C656 C655 1.397 . S
C656 C657 1.334 . S
C657 H634 0.950 . S
C657 C656 1.334 . S
C657 C658 1.287 . S
C658 C657 1.287 . S
C658 C659 1.524 . S
C658 H677 0.913 . S
C659 H635 0.950 . S
C659 C658 1.524 . S
C659 C660 1.415 . S
C660 H636 0.950 . S
C660 C655 1.363 . S
C660 C659 1.415 . S
C661 H637 0.951 . S
C661 C662 1.366 . S
C661 C663 1.388 . S
C662 C661 1.366 . S
C662 C666 1.385 . S
C663 H638 0.951 . S
C663 C661 1.388 . S
C663 C664 1.366 . S
C664 C663 1.366 . S
C664 C665 1.414 . S
C664 C667 1.499 . S
C665 H639 0.950 . S
C665 C664 1.414 . S
C665 C666 1.374 . S
C666 H640 0.950 . S
C666 C662 1.385 . S
C666 C665 1.374 . S
C667 C664 1.499 . S
C667 C668 1.373 . S
C667 C669 1.389 . S
C668 H641 0.950 . S
C668 C654 1.377 . S
C668 C667 1.373 . S
C669 C653 1.377 . S
C669 C667 1.389 . S
C669 C670 1.524 . S
C670 C669 1.524 . S
C670 C671 1.397 . S
C670 C675 1.363 . S
C671 H642 0.950 . S
C671 C670 1.397 . S
C671 C672 1.334 . S
C672 H643 0.950 . S
C672 C671 1.334 . S
C672 C673 1.287 . S
C673 C672 1.287 . S
C673 C674 1.524 . S
C673 H676 0.999 . S
C674 H644 0.950 . S
C674 C673 1.524 . S
C674 C675 1.415 . S
C675 H645 0.950 . S
C675 C670 1.363 . S
C675 C674 1.415 . S
H676 C673 0.999 . S
H677 C658 0.913 . S
H678 C696 0.951 . S
H679 C698 0.951 . S
H680 C700 0.950 . S
H681 C701 0.950 . S
H682 C703 0.950 . S
H683 C706 0.950 . S
H684 C707 0.950 . S
H685 C709 0.950 . S
H686 C710 0.950 . S
H687 C711 0.951 . S
H688 C713 0.951 . S
H689 C715 0.950 . S
H690 C716 0.950 . S
H691 C718 0.950 . S
H692 C721 0.950 . S
H693 C722 0.950 . S
H694 C724 0.950 . S
H695 C725 0.950 . S
C696 H678 0.951 . S
C696 C697 1.366 . S
C696 C698 1.388 . S
C697 C696 1.366 . S
C697 C701 1.385 . S
C698 H679 0.951 . S
C698 C696 1.388 . S
C698 C699 1.366 . S
C699 C698 1.366 . S
C699 C700 1.414 . S
C699 C702 1.499 . S
C700 H680 0.950 . S
C700 C699 1.414 . S
C700 C701 1.374 . S
C701 H681 0.950 . S
C701 C697 1.385 . S
C701 C700 1.374 . S
C702 C699 1.499 . S
C702 C703 1.373 . S
C702 C704 1.389 . S
C703 H682 0.950 . S
C703 C702 1.373 . S
C703 C719 1.377 . S
C704 C702 1.389 . S
C704 C705 1.524 . S
C704 C718 1.377 . S
C705 C704 1.524 . S
C705 C706 1.397 . S
C705 C710 1.363 . S
C706 H683 0.950 . S
C706 C705 1.397 . S
C706 C707 1.334 . S
C707 H684 0.950 . S
C707 C706 1.334 . S
C707 C708 1.287 . S
C708 C707 1.287 . S
C708 C709 1.524 . S
C708 H727 0.913 . S
C709 H685 0.950 . S
C709 C708 1.524 . S
C709 C710 1.415 . S
C710 H686 0.950 . S
C710 C705 1.363 . S
C710 C709 1.415 . S
C711 H687 0.951 . S
C711 C712 1.366 . S
C711 C713 1.388 . S
C712 C711 1.366 . S
C712 C716 1.385 . S
C713 H688 0.951 . S
C713 C711 1.388 . S
C713 C714 1.366 . S
C714 C713 1.366 . S
C714 C715 1.414 . S
C714 C717 1.499 . S
C715 H689 0.950 . S
C715 C714 1.414 . S
C715 C716 1.374 . S
C716 H690 0.950 . S
C716 C712 1.385 . S
C716 C715 1.374 . S
C717 C714 1.499 . S
C717 C718 1.373 . S
C717 C719 1.389 . S
C718 H691 0.950 . S
C718 C704 1.377 . S
C718 C717 1.373 . S
C719 C703 1.377 . S
C719 C717 1.389 . S
C719 C720 1.524 . S
C720 C719 1.524 . S
C720 C721 1.397 . S
C720 C725 1.363 . S
C721 H692 0.950 . S
C721 C720 1.397 . S
C721 C722 1.334 . S
C722 H693 0.950 . S
C722 C721 1.334 . S
C722 C723 1.287 . S
C723 C722 1.287 . S
C723 C724 1.524 . S
C723 H726 0.999 . S
C724 H694 0.950 . S
C724 C723 1.524 . S
C724 C725 1.415 . S
C725 H695 0.950 . S
C725 C720 1.363 . S
C725 C724 1.415 . S
H726 C723 0.999 . S
H727 C708 0.913 . S
H728 C746 0.951 . S
H729 C748 0.951 . S
H730 C750 0.950 . S
H731 C751 0.950 . S
H732 C753 0.950 . S
H733 C756 0.950 . S
H734 C757 0.950 1_565 S
H735 C759 0.950 . S
H736 C760 0.950 . S
H737 C761 0.951 . S
H738 C763 0.951 . S
H739 C765 0.950 . S
H740 C766 0.950 . S
H741 C768 0.950 . S
H742 C771 0.950 . S
H743 C772 0.950 . S
H744 C774 0.950 . S
H745 C775 0.950 . S
C746 H728 0.951 . S
C746 C747 1.366 . S
C746 C748 1.388 . S
C747 C746 1.366 . S
C747 C751 1.385 . S
C748 H729 0.951 . S
C748 C746 1.388 . S
C748 C749 1.366 . S
C749 C748 1.366 . S
C749 C750 1.414 . S
C749 C752 1.499 . S
C750 H730 0.950 . S
C750 C749 1.414 . S
C750 C751 1.374 . S
C751 H731 0.950 . S
C751 C747 1.385 . S
C751 C750 1.374 . S
C752 C749 1.499 . S
C752 C753 1.373 . S
C752 C754 1.389 . S
C753 H732 0.950 . S
C753 C752 1.373 . S
C753 C769 1.333 1_554 S
C754 C752 1.389 . S
C754 C755 1.524 . S
C754 C768 1.377 1_554 S
C755 C754 1.524 . S
C755 C756 1.397 . S
C755 C760 1.363 . S
C756 H733 0.950 . S
C756 C755 1.397 . S
C756 C757 1.334 . S
C757 H734 0.950 1_545 S
C757 C756 1.334 . S
C757 C758 1.285 1_545 S
C758 C757 1.285 1_565 S
C758 C759 1.515 1_565 S
C758 H777 0.925 . S
C759 H735 0.950 . S
C759 C758 1.515 1_545 S
C759 C760 1.415 . S
C760 H736 0.950 . S
C760 C755 1.363 . S
C760 C759 1.415 . S
C761 H737 0.951 . S
C761 C762 1.366 . S
C761 C763 1.388 . S
C762 C761 1.366 . S
C762 C766 1.385 . S
C763 H738 0.951 . S
C763 C761 1.388 . S
C763 C764 1.366 . S
C764 C763 1.366 . S
C764 C765 1.414 . S
C764 C767 1.499 . S
C765 H739 0.950 . S
C765 C764 1.414 . S
C765 C766 1.374 . S
C766 H740 0.950 . S
C766 C762 1.385 . S
C766 C765 1.374 . S
C767 C764 1.499 . S
C767 C768 1.373 . S
C767 C769 1.423 . S
C768 H741 0.950 . S
C768 C754 1.377 1_556 S
C768 C767 1.373 . S
C769 C753 1.333 1_556 S
C769 C767 1.423 . S
C769 C770 1.533 . S
C770 C769 1.533 . S
C770 C771 1.397 . S
C770 C775 1.363 . S
C771 H742 0.950 . S
C771 C770 1.397 . S
C771 C772 1.334 . S
C772 H743 0.950 . S
C772 C771 1.334 . S
C772 C773 1.287 . S
C773 C772 1.287 . S
C773 C774 1.524 . S
C773 H776 0.999 . S
C774 H744 0.950 . S
C774 C773 1.524 . S
C774 C775 1.415 . S
C775 H745 0.950 . S
C775 C770 1.363 . S
C775 C774 1.415 . S
H776 C773 0.999 . S
H777 C758 0.925 . S
H778 C796 0.951 . S
H779 C798 0.951 . S
H780 C800 0.950 . S
H781 C801 0.950 . S
H782 C803 0.950 . S
H783 C806 0.950 . S
H784 C807 0.950 . S
H785 C809 0.950 . S
H786 C810 0.950 . S
H787 C811 0.951 . S
H788 C813 0.951 . S
H789 C815 0.950 . S
H790 C816 0.950 . S
H791 C818 0.959 . S
H792 C821 0.950 . S
H793 C822 0.950 . S
H794 C824 0.950 . S
H795 C825 0.950 . S
C796 H778 0.951 . S
C796 C797 1.366 . S
C796 C798 1.388 . S
C797 C796 1.366 . S
C797 C801 1.385 . S
C798 H779 0.951 . S
C798 C796 1.388 . S
C798 C799 1.366 . S
C799 C798 1.366 . S
C799 C800 1.414 . S
C799 C802 1.499 . S
C800 H780 0.950 . S
C800 C799 1.414 . S
C800 C801 1.374 . S
C801 H781 0.950 . S
C801 C797 1.385 . S
C801 C800 1.374 . S
C802 C799 1.499 . S
C802 C803 1.373 . S
C802 C804 1.389 . S
C803 H782 0.950 . S
C803 C802 1.373 . S
C803 C819 1.377 1_556 S
C804 C802 1.389 . S
C804 C805 1.524 . S
C804 C818 1.377 . S
C805 C804 1.524 . S
C805 C806 1.397 . S
C805 C810 1.363 . S
C806 H783 0.950 . S
C806 C805 1.397 . S
C806 C807 1.334 . S
C807 H784 0.950 . S
C807 C806 1.334 . S
C807 C808 1.287 . S
C808 C807 1.287 . S
C808 C809 1.524 . S
C808 H827 0.913 . S
C809 H785 0.950 . S
C809 C808 1.524 . S
C809 C810 1.415 . S
C810 H786 0.950 . S
C810 C805 1.363 . S
C810 C809 1.415 . S
C811 H787 0.951 . S
C811 C812 1.366 . S
C811 C813 1.388 . S
C812 C811 1.366 . S
C812 C816 1.385 . S
C813 H788 0.951 . S
C813 C811 1.388 . S
C813 C814 1.366 . S
C814 C813 1.366 . S
C814 C815 1.414 . S
C814 C817 1.499 . S
C815 H789 0.950 . S
C815 C814 1.414 . S
C815 C816 1.374 . S
C816 H790 0.950 . S
C816 C812 1.385 . S
C816 C815 1.374 . S
C817 C814 1.499 . S
C817 C818 1.373 1_554 S
C817 C819 1.389 . S
C818 H791 0.959 . S
C818 C804 1.377 . S
C818 C817 1.373 1_556 S
C819 C803 1.377 1_554 S
C819 C817 1.389 . S
C819 C820 1.524 . S
C820 C819 1.524 . S
C820 C821 1.397 . S
C820 C825 1.363 . S
C821 H792 0.950 . S
C821 C820 1.397 . S
C821 C822 1.334 . S
C822 H793 0.950 . S
C822 C821 1.334 . S
C822 C823 1.287 . S
C823 C822 1.287 . S
C823 C824 1.524 . S
C823 H826 0.999 . S
C824 H794 0.950 . S
C824 C823 1.524 . S
C824 C825 1.415 . S
C825 H795 0.950 . S
C825 C820 1.363 . S
C825 C824 1.415 . S
H826 C823 0.999 . S
H827 C808 0.913 . S
H828 C846 0.951 . S
H829 C848 0.951 . S
H830 C850 0.950 . S
H831 C851 0.950 . S
H832 C853 0.950 . S
H833 C856 0.950 . S
H834 C857 0.950 . S
H835 C859 0.950 . S
H836 C860 0.950 . S
H837 C861 0.951 . S
H838 C863 0.951 . S
H839 C865 0.950 . S
H840 C866 0.950 . S
H841 C868 0.950 . S
H842 C871 0.950 . S
H843 C872 0.950 . S
H844 C874 0.950 . S
H845 C875 0.950 . S
C846 H828 0.951 . S
C846 C847 1.366 . S
C846 C848 1.388 . S
C847 C846 1.366 . S
C847 C851 1.385 . S
C848 H829 0.951 . S
C848 C846 1.388 . S
C848 C849 1.366 . S
C849 C848 1.366 . S
C849 C850 1.414 . S
C849 C852 1.499 . S
C850 H830 0.950 . S
C850 C849 1.414 . S
C850 C851 1.374 . S
C851 H831 0.950 . S
C851 C847 1.385 . S
C851 C850 1.374 . S
C852 C849 1.499 . S
C852 C853 1.373 1_556 S
C852 C854 1.389 . S
C853 H832 0.950 . S
C853 C852 1.373 1_554 S
C853 C869 1.377 . S
C854 C852 1.389 . S
C854 C855 1.524 . S
C854 C868 1.377 1_556 S
C855 C854 1.524 . S
C855 C856 1.397 . S
C855 C860 1.363 . S
C856 H833 0.950 . S
C856 C855 1.397 . S
C856 C857 1.334 . S
C857 H834 0.950 . S
C857 C856 1.334 . S
C857 C858 1.287 . S
C858 C857 1.287 . S
C858 C859 1.524 . S
C858 H877 0.913 . S
C859 H835 0.950 . S
C859 C858 1.524 . S
C859 C860 1.415 . S
C860 H836 0.950 . S
C860 C855 1.363 . S
C860 C859 1.415 . S
C861 H837 0.951 . S
C861 C862 1.366 . S
C861 C863 1.388 . S
C862 C861 1.366 . S
C862 C866 1.385 . S
C863 H838 0.951 . S
C863 C861 1.388 . S
C863 C864 1.366 . S
C864 C863 1.366 . S
C864 C865 1.414 . S
C864 C867 1.499 . S
C865 H839 0.950 . S
C865 C864 1.414 . S
C865 C866 1.374 . S
C866 H840 0.950 . S
C866 C862 1.385 . S
C866 C865 1.374 . S
C867 C864 1.499 . S
C867 C868 1.373 . S
C867 C869 1.389 . S
C868 H841 0.950 . S
C868 C854 1.377 1_554 S
C868 C867 1.373 . S
C869 C853 1.377 . S
C869 C867 1.389 . S
C869 C870 1.524 . S
C870 C869 1.524 . S
C870 C871 1.397 . S
C870 C875 1.363 . S
C871 H842 0.950 . S
C871 C870 1.397 . S
C871 C872 1.334 . S
C872 H843 0.950 . S
C872 C871 1.334 . S
C872 C873 1.287 . S
C873 C872 1.287 . S
C873 C874 1.524 . S
C873 H876 0.999 . S
C874 H844 0.950 . S
C874 C873 1.524 . S
C874 C875 1.415 . S
C875 H845 0.950 . S
C875 C870 1.363 . S
C875 C874 1.415 . S
H876 C873 0.999 . S
H877 C858 0.913 . S
H878 C896 0.951 . S
H879 C898 0.951 . S
H880 C900 0.950 . S
H881 C901 0.950 . S
H882 C903 0.950 . S
H883 C906 0.950 . S
H884 C907 0.950 . S
H885 C909 0.950 . S
H886 C910 0.950 . S
H887 C911 0.951 . S
H888 C913 0.951 . S
H889 C915 0.950 . S
H890 C916 0.950 . S
H891 C918 0.950 . S
H892 C921 0.950 . S
H893 C922 0.950 . S
H894 C924 0.950 . S
H895 C925 0.950 . S
C896 H878 0.951 . S
C896 C897 1.366 . S
C896 C898 1.388 . S
C897 C896 1.366 . S
C897 C901 1.385 . S
C898 H879 0.951 . S
C898 C896 1.388 . S
C898 C899 1.366 . S
C899 C898 1.366 . S
C899 C900 1.414 . S
C899 C902 1.499 . S
C900 H880 0.950 . S
C900 C899 1.414 . S
C900 C901 1.374 . S
C901 H881 0.950 . S
C901 C897 1.385 . S
C901 C900 1.374 . S
C902 C899 1.499 . S
C902 C903 1.373 1_554 S
C902 C904 1.389 . S
C903 H882 0.950 . S
C903 C902 1.373 1_556 S
C903 C919 1.377 . S
C904 C902 1.389 . S
C904 C905 1.524 . S
C904 C918 1.377 1_554 S
C905 C904 1.524 . S
C905 C906 1.397 . S
C905 C910 1.363 . S
C906 H883 0.950 . S
C906 C905 1.397 . S
C906 C907 1.334 . S
C907 H884 0.950 . S
C907 C906 1.334 . S
C907 C908 1.287 . S
C908 C907 1.287 . S
C908 C909 1.524 . S
C908 H927 0.913 . S
C909 H885 0.950 . S
C909 C908 1.524 . S
C909 C910 1.415 . S
C910 H886 0.950 . S
C910 C905 1.363 . S
C910 C909 1.415 . S
C911 H887 0.951 . S
C911 C912 1.366 . S
C911 C913 1.388 . S
C912 C911 1.366 . S
C912 C916 1.385 . S
C913 H888 0.951 . S
C913 C911 1.388 . S
C913 C914 1.366 . S
C914 C913 1.366 . S
C914 C915 1.414 . S
C914 C917 1.499 . S
C915 H889 0.950 . S
C915 C914 1.414 . S
C915 C916 1.374 . S
C916 H890 0.950 . S
C916 C912 1.385 . S
C916 C915 1.374 . S
C917 C914 1.499 . S
C917 C918 1.373 . S
C917 C919 1.389 . S
C918 H891 0.950 . S
C918 C904 1.377 1_556 S
C918 C917 1.373 . S
C919 C903 1.377 . S
C919 C917 1.389 . S
C919 C920 1.524 . S
C920 C919 1.524 . S
C920 C921 1.397 . S
C920 C925 1.363 . S
C921 H892 0.950 . S
C921 C920 1.397 . S
C921 C922 1.334 . S
C922 H893 0.950 . S
C922 C921 1.334 . S
C922 C923 1.287 . S
C923 C922 1.287 . S
C923 C924 1.524 . S
C923 H926 0.999 . S
C924 H894 0.950 . S
C924 C923 1.524 . S
C924 C925 1.415 . S
C925 H895 0.950 . S
C925 C920 1.363 . S
C925 C924 1.415 . S
H926 C923 0.999 . S
H927 C908 0.913 . S
H928 C946 0.951 . S
H929 C948 0.951 . S
H930 C950 0.950 . S
H931 C951 0.950 . S
H932 C953 0.950 . S
H933 C956 0.950 . S
H934 C957 0.950 . S
H935 C959 0.950 . S
H936 C960 0.950 . S
H937 C961 0.951 . S
H938 C963 0.951 . S
H939 C965 0.950 . S
H940 C966 0.950 . S
H941 C968 0.950 . S
H942 C971 0.950 . S
H943 C972 0.950 . S
H944 C974 0.950 . S
H945 C975 0.950 . S
C946 H928 0.951 . S
C946 C947 1.366 . S
C946 C948 1.388 . S
C947 C946 1.366 . S
C947 C951 1.385 . S
C948 H929 0.951 . S
C948 C946 1.388 . S
C948 C949 1.366 . S
C949 C948 1.366 . S
C949 C950 1.414 . S
C949 C952 1.499 . S
C950 H930 0.950 . S
C950 C949 1.414 . S
C950 C951 1.374 . S
C951 H931 0.950 . S
C951 C947 1.385 . S
C951 C950 1.374 . S
C952 C949 1.499 . S
C952 C953 1.373 . S
C952 C954 1.389 . S
C953 H932 0.950 . S
C953 C952 1.373 . S
C953 C969 1.377 . S
C954 C952 1.389 . S
C954 C955 1.524 . S
C954 C968 1.377 . S
C955 C954 1.524 . S
C955 C956 1.397 . S
C955 C960 1.363 . S
C956 H933 0.950 . S
C956 C955 1.397 . S
C956 C957 1.334 . S
C957 H934 0.950 . S
C957 C956 1.334 . S
C957 C958 1.287 . S
C958 C957 1.287 . S
C958 C959 1.524 . S
C958 H977 0.913 . S
C959 H935 0.950 . S
C959 C958 1.524 . S
C959 C960 1.415 . S
C960 H936 0.950 . S
C960 C955 1.363 . S
C960 C959 1.415 . S
C961 H937 0.951 . S
C961 C962 1.366 . S
C961 C963 1.388 . S
C962 C961 1.366 . S
C962 C966 1.385 . S
C963 H938 0.951 . S
C963 C961 1.388 . S
C963 C964 1.366 . S
C964 C963 1.366 . S
C964 C965 1.414 . S
C964 C967 1.499 . S
C965 H939 0.950 . S
C965 C964 1.414 . S
C965 C966 1.374 . S
C966 H940 0.950 . S
C966 C962 1.385 . S
C966 C965 1.374 . S
C967 C964 1.499 . S
C967 C968 1.373 . S
C967 C969 1.389 . S
C968 H941 0.950 . S
C968 C954 1.377 . S
C968 C967 1.373 . S
C969 C953 1.377 . S
C969 C967 1.389 . S
C969 C970 1.524 . S
C970 C969 1.524 . S
C970 C971 1.397 . S
C970 C975 1.363 . S
C971 H942 0.950 . S
C971 C970 1.397 . S
C971 C972 1.334 . S
C972 H943 0.950 . S
C972 C971 1.334 . S
C972 C973 1.287 . S
C973 C972 1.287 . S
C973 C974 1.524 . S
C973 H976 0.999 . S
C974 H944 0.950 . S
C974 C973 1.524 . S
C974 C975 1.415 . S
C975 H945 0.950 . S
C975 C970 1.363 . S
C975 C974 1.415 . S
H976 C973 0.999 . S
H977 C958 0.913 . S
H978 C996 0.951 . S
H979 C998 0.951 . S
H980 C1000 0.950 . S
H981 C1001 0.950 . S
H982 C1003 0.950 . S
H983 C1006 0.950 . S
H984 C1007 0.950 . S
H985 C1009 0.950 . S
H986 C1010 0.950 . S
H987 C1011 0.951 . S
H988 C1013 0.951 . S
H989 C1015 0.950 . S
H990 C1016 0.950 . S
H991 C1018 0.950 . S
H992 C1021 0.950 . S
H993 C1022 0.950 1_455 S
H994 C1024 0.950 1_455 S
H995 C1025 0.950 . S
C996 H978 0.951 . S
C996 C997 1.366 . S
C996 C998 1.388 . S
C997 C996 1.366 . S
C997 C1001 1.385 . S
C998 H979 0.951 . S
C998 C996 1.388 . S
C998 C999 1.366 . S
C999 C998 1.366 . S
C999 C1000 1.414 . S
C999 C1002 1.499 . S
C1000 H980 0.950 . S
C1000 C999 1.414 . S
C1000 C1001 1.374 . S
C1001 H981 0.950 . S
C1001 C997 1.385 . S
C1001 C1000 1.374 . S
C1002 C999 1.499 . S
C1002 C1003 1.373 . S
C1002 C1004 1.389 . S
C1003 H982 0.950 . S
C1003 C1002 1.373 . S
C1003 C1019 1.377 . S
C1004 C1002 1.389 . S
C1004 C1005 1.524 . S
C1004 C1018 1.377 . S
C1005 C1004 1.524 . S
C1005 C1006 1.397 . S
C1005 C1010 1.363 . S
C1006 H983 0.950 . S
C1006 C1005 1.397 . S
C1006 C1007 1.334 . S
C1007 H984 0.950 . S
C1007 C1006 1.334 . S
C1007 C1008 1.287 . S
C1008 C1007 1.287 . S
C1008 C1009 1.524 . S
C1008 H1027 0.913 . S
C1009 H985 0.950 . S
C1009 C1008 1.524 . S
C1009 C1010 1.415 . S
C1010 H986 0.950 . S
C1010 C1005 1.363 . S
C1010 C1009 1.415 . S
C1011 H987 0.951 . S
C1011 C1012 1.366 . S
C1011 C1013 1.388 . S
C1012 C1011 1.366 . S
C1012 C1016 1.385 . S
C1013 H988 0.951 . S
C1013 C1011 1.388 . S
C1013 C1014 1.366 . S
C1014 C1013 1.366 . S
C1014 C1015 1.414 . S
C1014 C1017 1.499 . S
C1015 H989 0.950 . S
C1015 C1014 1.414 . S
C1015 C1016 1.374 . S
C1016 H990 0.950 . S
C1016 C1012 1.385 . S
C1016 C1015 1.374 . S
C1017 C1014 1.499 . S
C1017 C1018 1.373 . S
C1017 C1019 1.389 . S
C1018 H991 0.950 . S
C1018 C1004 1.377 . S
C1018 C1017 1.373 . S
C1019 C1003 1.377 . S
C1019 C1017 1.389 . S
C1019 C1020 1.524 . S
C1020 C1019 1.524 . S
C1020 C1021 1.397 . S
C1020 C1025 1.363 . S
C1021 H992 0.950 . S
C1021 C1020 1.397 . S
C1021 C1022 1.334 . S
C1022 H993 0.950 1_655 S
C1022 C1021 1.334 . S
C1022 C1023 1.287 1_655 S
C1023 C1022 1.287 1_455 S
C1023 C1024 1.524 1_455 S
C1023 H1026 0.999 . S
C1024 H994 0.950 1_655 S
C1024 C1023 1.524 1_655 S
C1024 C1025 1.415 . S
C1025 H995 0.950 . S
C1025 C1020 1.363 . S
C1025 C1024 1.415 . S
H1026 C1023 0.999 . S
H1027 C1008 0.913 . S
H1028 C1046 0.951 . S
H1029 C1048 0.951 . S
H1030 C1050 0.950 . S
H1031 C1051 0.950 . S
H1032 C1053 0.950 . S
H1033 C1056 0.950 . S
H1034 C1057 0.950 . S
H1035 C1059 0.950 . S
H1036 C1060 0.950 . S
H1037 C1061 0.951 . S
H1038 C1063 0.951 . S
H1039 C1065 0.950 . S
H1040 C1066 0.950 . S
H1041 C1068 0.950 . S
H1042 C1071 0.950 . S
H1043 C1072 0.950 . S
H1044 C1074 0.950 . S
H1045 C1075 0.950 . S
C1046 H1028 0.951 . S
C1046 C1047 1.366 . S
C1046 C1048 1.388 . S
C1047 C1046 1.366 . S
C1047 C1051 1.385 . S
C1048 H1029 0.951 . S
C1048 C1046 1.388 . S
C1048 C1049 1.366 . S
C1049 C1048 1.366 . S
C1049 C1050 1.414 . S
C1049 C1052 1.499 . S
C1050 H1030 0.950 . S
C1050 C1049 1.414 . S
C1050 C1051 1.374 . S
C1051 H1031 0.950 . S
C1051 C1047 1.385 . S
C1051 C1050 1.374 . S
C1052 C1049 1.499 . S
C1052 C1053 1.373 . S
C1052 C1054 1.389 . S
C1053 H1032 0.950 . S
C1053 C1052 1.373 . S
C1053 C1069 1.377 . S
C1054 C1052 1.389 . S
C1054 C1055 1.524 . S
C1054 C1068 1.377 . S
C1055 C1054 1.524 . S
C1055 C1056 1.397 . S
C1055 C1060 1.363 . S
C1056 H1033 0.950 . S
C1056 C1055 1.397 . S
C1056 C1057 1.334 . S
C1057 H1034 0.950 . S
C1057 C1056 1.334 . S
C1057 C1058 1.287 . S
C1058 C1057 1.287 . S
C1058 C1059 1.524 . S
C1058 H1077 0.913 . S
C1059 H1035 0.950 . S
C1059 C1058 1.524 . S
C1059 C1060 1.415 . S
C1060 H1036 0.950 . S
C1060 C1055 1.363 . S
C1060 C1059 1.415 . S
C1061 H1037 0.951 . S
C1061 C1062 1.366 . S
C1061 C1063 1.388 . S
C1062 C1061 1.366 . S
C1062 C1066 1.385 . S
C1063 H1038 0.951 . S
C1063 C1061 1.388 . S
C1063 C1064 1.366 . S
C1064 C1063 1.366 . S
C1064 C1065 1.414 . S
C1064 C1067 1.499 . S
C1065 H1039 0.950 . S
C1065 C1064 1.414 . S
C1065 C1066 1.374 . S
C1066 H1040 0.950 . S
C1066 C1062 1.385 . S
C1066 C1065 1.374 . S
C1067 C1064 1.499 . S
C1067 C1068 1.373 . S
C1067 C1069 1.389 . S
C1068 H1041 0.950 . S
C1068 C1054 1.377 . S
C1068 C1067 1.373 . S
C1069 C1053 1.377 . S
C1069 C1067 1.389 . S
C1069 C1070 1.524 . S
C1070 C1069 1.524 . S
C1070 C1071 1.397 . S
C1070 C1075 1.363 . S
C1071 H1042 0.950 . S
C1071 C1070 1.397 . S
C1071 C1072 1.334 . S
C1072 H1043 0.950 . S
C1072 C1071 1.334 . S
C1072 C1073 1.287 . S
C1073 C1072 1.287 . S
C1073 C1074 1.524 . S
C1073 H1076 0.999 . S
C1074 H1044 0.950 . S
C1074 C1073 1.524 . S
C1074 C1075 1.415 . S
C1075 H1045 0.950 . S
C1075 C1070 1.363 . S
C1075 C1074 1.415 . S
H1076 C1073 0.999 . S
H1077 C1058 0.913 . S
H1078 C1096 0.951 . S
H1079 C1098 0.951 . S
H1080 C1100 0.950 . S
H1081 C1101 0.950 . S
H1082 C1103 0.950 . S
H1083 C1106 0.950 . S
H1084 C1107 0.950 . S
H1085 C1109 0.950 . S
H1086 C1110 0.950 . S
H1087 C1111 0.951 . S
H1088 C1113 0.951 . S
H1089 C1115 0.950 . S
H1090 C1116 0.950 . S
H1091 C1118 0.950 . S
H1092 C1121 0.950 . S
H1093 C1122 0.950 . S
H1094 C1124 0.950 . S
H1095 C1125 0.950 . S
C1096 H1078 0.951 . S
C1096 C1097 1.366 . S
C1096 C1098 1.388 . S
C1097 C1096 1.366 . S
C1097 C1101 1.385 . S
C1098 H1079 0.951 . S
C1098 C1096 1.388 . S
C1098 C1099 1.366 . S
C1099 C1098 1.366 . S
C1099 C1100 1.414 . S
C1099 C1102 1.499 . S
C1100 H1080 0.950 . S
C1100 C1099 1.414 . S
C1100 C1101 1.374 . S
C1101 H1081 0.950 . S
C1101 C1097 1.385 . S
C1101 C1100 1.374 . S
C1102 C1099 1.499 . S
C1102 C1103 1.373 . S
C1102 C1104 1.389 . S
C1103 H1082 0.950 . S
C1103 C1102 1.373 . S
C1103 C1119 1.377 . S
C1104 C1102 1.389 . S
C1104 C1105 1.524 . S
C1104 C1118 1.377 . S
C1105 C1104 1.524 . S
C1105 C1106 1.397 . S
C1105 C1110 1.363 . S
C1106 H1083 0.950 . S
C1106 C1105 1.397 . S
C1106 C1107 1.334 . S
C1107 H1084 0.950 . S
C1107 C1106 1.334 . S
C1107 C1108 1.287 . S
C1108 C1107 1.287 . S
C1108 C1109 1.524 . S
C1108 H1127 0.913 . S
C1109 H1085 0.950 . S
C1109 C1108 1.524 . S
C1109 C1110 1.415 . S
C1110 H1086 0.950 . S
C1110 C1105 1.363 . S
C1110 C1109 1.415 . S
C1111 H1087 0.951 . S
C1111 C1112 1.366 . S
C1111 C1113 1.388 . S
C1112 C1111 1.366 . S
C1112 C1116 1.385 . S
C1113 H1088 0.951 . S
C1113 C1111 1.388 . S
C1113 C1114 1.366 . S
C1114 C1113 1.366 . S
C1114 C1115 1.414 . S
C1114 C1117 1.499 . S
C1115 H1089 0.950 . S
C1115 C1114 1.414 . S
C1115 C1116 1.374 . S
C1116 H1090 0.950 . S
C1116 C1112 1.385 . S
C1116 C1115 1.374 . S
C1117 C1114 1.499 . S
C1117 C1118 1.373 . S
C1117 C1119 1.389 . S
C1118 H1091 0.950 . S
C1118 C1104 1.377 . S
C1118 C1117 1.373 . S
C1119 C1103 1.377 . S
C1119 C1117 1.389 . S
C1119 C1120 1.524 . S
C1120 C1119 1.524 . S
C1120 C1121 1.397 . S
C1120 C1125 1.363 . S
C1121 H1092 0.950 . S
C1121 C1120 1.397 . S
C1121 C1122 1.334 . S
C1122 H1093 0.950 . S
C1122 C1121 1.334 . S
C1122 C1123 1.287 . S
C1123 C1122 1.287 . S
C1123 C1124 1.524 . S
C1123 H1126 0.999 . S
C1124 H1094 0.950 . S
C1124 C1123 1.524 . S
C1124 C1125 1.415 . S
C1125 H1095 0.950 . S
C1125 C1120 1.363 . S
C1125 C1124 1.415 . S
H1126 C1123 0.999 . S
H1127 C1108 0.913 . S
H1128 C1146 0.951 . S
H1129 C1148 0.951 . S
H1130 C1150 0.950 . S
H1131 C1151 0.950 . S
H1132 C1153 0.950 . S
H1133 C1156 0.950 . S
H1134 C1157 0.950 . S
H1135 C1159 0.950 . S
H1136 C1160 0.950 . S
H1137 C1161 0.951 . S
H1138 C1163 0.951 . S
H1139 C1165 0.950 . S
H1140 C1166 0.950 . S
H1141 C1168 0.950 . S
H1142 C1171 0.950 . S
H1143 C1172 0.950 . S
H1144 C1174 0.950 . S
H1145 C1175 0.950 . S
C1146 H1128 0.951 . S
C1146 C1147 1.366 . S
C1146 C1148 1.388 . S
C1147 C1146 1.366 . S
C1147 C1151 1.385 . S
C1148 H1129 0.951 . S
C1148 C1146 1.388 . S
C1148 C1149 1.366 . S
C1149 C1148 1.366 . S
C1149 C1150 1.414 . S
C1149 C1152 1.499 . S
C1150 H1130 0.950 . S
C1150 C1149 1.414 . S
C1150 C1151 1.374 . S
C1151 H1131 0.950 . S
C1151 C1147 1.385 . S
C1151 C1150 1.374 . S
C1152 C1149 1.499 . S
C1152 C1153 1.373 . S
C1152 C1154 1.389 . S
C1153 H1132 0.950 . S
C1153 C1152 1.373 . S
C1153 C1169 1.377 . S
C1154 C1152 1.389 . S
C1154 C1155 1.524 . S
C1154 C1168 1.377 . S
C1155 C1154 1.524 . S
C1155 C1156 1.397 . S
C1155 C1160 1.363 . S
C1156 H1133 0.950 . S
C1156 C1155 1.397 . S
C1156 C1157 1.334 . S
C1157 H1134 0.950 . S
C1157 C1156 1.334 . S
C1157 C1158 1.287 . S
C1158 C1157 1.287 . S
C1158 C1159 1.524 . S
C1158 H1177 0.913 . S
C1159 H1135 0.950 . S
C1159 C1158 1.524 . S
C1159 C1160 1.415 . S
C1160 H1136 0.950 . S
C1160 C1155 1.363 . S
C1160 C1159 1.415 . S
C1161 H1137 0.951 . S
C1161 C1162 1.366 . S
C1161 C1163 1.388 . S
C1162 C1161 1.366 . S
C1162 C1166 1.385 . S
C1163 H1138 0.951 . S
C1163 C1161 1.388 . S
C1163 C1164 1.366 . S
C1164 C1163 1.366 . S
C1164 C1165 1.414 . S
C1164 C1167 1.499 . S
C1165 H1139 0.950 . S
C1165 C1164 1.414 . S
C1165 C1166 1.374 . S
C1166 H1140 0.950 . S
C1166 C1162 1.385 . S
C1166 C1165 1.374 . S
C1167 C1164 1.499 . S
C1167 C1168 1.373 . S
C1167 C1169 1.389 . S
C1168 H1141 0.950 . S
C1168 C1154 1.377 . S
C1168 C1167 1.373 . S
C1169 C1153 1.377 . S
C1169 C1167 1.389 . S
C1169 C1170 1.524 . S
C1170 C1169 1.524 . S
C1170 C1171 1.397 . S
C1170 C1175 1.363 . S
C1171 H1142 0.950 . S
C1171 C1170 1.397 . S
C1171 C1172 1.334 . S
C1172 H1143 0.950 . S
C1172 C1171 1.334 . S
C1172 C1173 1.287 . S
C1173 C1172 1.287 . S
C1173 C1174 1.524 . S
C1173 H1176 0.999 . S
C1174 H1144 0.950 . S
C1174 C1173 1.524 . S
C1174 C1175 1.415 . S
C1175 H1145 0.950 . S
C1175 C1170 1.363 . S
C1175 C1174 1.415 . S
H1176 C1173 0.999 . S
H1177 C1158 0.913 . S
H1178 C1196 0.951 . S
H1179 C1198 0.951 . S
H1180 C1200 0.950 . S
H1181 C1201 0.950 . S
H1182 C1203 0.950 . S
H1183 C1206 0.950 . S
H1184 C1207 0.950 . S
H1185 C1209 0.950 . S
H1186 C1210 0.950 . S
H1187 C1211 0.951 . S
H1188 C1213 0.951 . S
H1189 C1215 0.950 . S
H1190 C1216 0.950 . S
H1191 C1218 0.950 . S
H1192 C1221 0.950 . S
H1193 C1222 0.950 . S
H1194 C1224 0.950 . S
H1195 C1225 0.950 . S
C1196 H1178 0.951 . S
C1196 C1197 1.366 . S
C1196 C1198 1.388 . S
C1197 C1196 1.366 . S
C1197 C1201 1.385 . S
C1198 H1179 0.951 . S
C1198 C1196 1.388 . S
C1198 C1199 1.366 . S
C1199 C1198 1.366 . S
C1199 C1200 1.414 . S
C1199 C1202 1.499 . S
C1200 H1180 0.950 . S
C1200 C1199 1.414 . S
C1200 C1201 1.374 . S
C1201 H1181 0.950 . S
C1201 C1197 1.385 . S
C1201 C1200 1.374 . S
C1202 C1199 1.499 . S
C1202 C1203 1.373 . S
C1202 C1204 1.389 . S
C1203 H1182 0.950 . S
C1203 C1202 1.373 . S
C1203 C1219 1.377 . S
C1204 C1202 1.389 . S
C1204 C1205 1.524 . S
C1204 C1218 1.377 . S
C1205 C1204 1.524 . S
C1205 C1206 1.397 . S
C1205 C1210 1.363 . S
C1206 H1183 0.950 . S
C1206 C1205 1.397 . S
C1206 C1207 1.334 . S
C1207 H1184 0.950 . S
C1207 C1206 1.334 . S
C1207 C1208 1.287 . S
C1208 C1207 1.287 . S
C1208 C1209 1.524 . S
C1208 H1227 0.913 . S
C1209 H1185 0.950 . S
C1209 C1208 1.524 . S
C1209 C1210 1.415 . S
C1210 H1186 0.950 . S
C1210 C1205 1.363 . S
C1210 C1209 1.415 . S
C1211 H1187 0.951 . S
C1211 C1212 1.366 . S
C1211 C1213 1.388 . S
C1212 C1211 1.366 . S
C1212 C1216 1.385 . S
C1213 H1188 0.951 . S
C1213 C1211 1.388 . S
C1213 C1214 1.366 . S
C1214 C1213 1.366 . S
C1214 C1215 1.414 . S
C1214 C1217 1.499 . S
C1215 H1189 0.950 . S
C1215 C1214 1.414 . S
C1215 C1216 1.374 . S
C1216 H1190 0.950 . S
C1216 C1212 1.385 . S
C1216 C1215 1.374 . S
C1217 C1214 1.499 . S
C1217 C1218 1.373 . S
C1217 C1219 1.389 . S
C1218 H1191 0.950 . S
C1218 C1204 1.377 . S
C1218 C1217 1.373 . S
C1219 C1203 1.377 . S
C1219 C1217 1.389 . S
C1219 C1220 1.524 . S
C1220 C1219 1.524 . S
C1220 C1221 1.397 . S
C1220 C1225 1.363 . S
C1221 H1192 0.950 . S
C1221 C1220 1.397 . S
C1221 C1222 1.334 . S
C1222 H1193 0.950 . S
C1222 C1221 1.334 . S
C1222 C1223 1.287 . S
C1223 C1222 1.287 . S
C1223 C1224 1.524 . S
C1223 H1226 0.999 . S
C1224 H1194 0.950 . S
C1224 C1223 1.524 . S
C1224 C1225 1.415 . S
C1225 H1195 0.950 . S
C1225 C1220 1.363 . S
C1225 C1224 1.415 . S
H1226 C1223 0.999 . S
H1227 C1208 0.913 . S
H1228 C1246 0.951 . S
H1229 C1248 0.951 . S
H1230 C1250 0.950 . S
H1231 C1251 0.950 . S
H1232 C1253 0.950 . S
H1233 C1256 0.950 . S
H1234 C1257 0.950 . S
H1235 C1259 0.950 . S
H1236 C1260 0.950 . S
H1237 C1261 0.951 . S
H1238 C1263 0.951 . S
H1239 C1265 0.950 . S
H1240 C1266 0.950 . S
H1241 C1268 0.950 . S
H1242 C1271 0.950 . S
H1243 C1272 0.950 . S
H1244 C1274 0.950 . S
H1245 C1275 0.950 . S
C1246 H1228 0.951 . S
C1246 C1247 1.366 . S
C1246 C1248 1.388 . S
C1247 C1246 1.366 . S
C1247 C1251 1.385 . S
C1248 H1229 0.951 . S
C1248 C1246 1.388 . S
C1248 C1249 1.366 . S
C1249 C1248 1.366 . S
C1249 C1250 1.414 . S
C1249 C1252 1.499 . S
C1250 H1230 0.950 . S
C1250 C1249 1.414 . S
C1250 C1251 1.374 . S
C1251 H1231 0.950 . S
C1251 C1247 1.385 . S
C1251 C1250 1.374 . S
C1252 C1249 1.499 . S
C1252 C1253 1.373 . S
C1252 C1254 1.389 . S
C1253 H1232 0.950 . S
C1253 C1252 1.373 . S
C1253 C1269 1.377 . S
C1254 C1252 1.389 . S
C1254 C1255 1.524 . S
C1254 C1268 1.377 . S
C1255 C1254 1.524 . S
C1255 C1256 1.397 . S
C1255 C1260 1.363 . S
C1256 H1233 0.950 . S
C1256 C1255 1.397 . S
C1256 C1257 1.334 . S
C1257 H1234 0.950 . S
C1257 C1256 1.334 . S
C1257 C1258 1.287 . S
C1258 C1257 1.287 . S
C1258 C1259 1.524 . S
C1258 H1277 0.913 . S
C1259 H1235 0.950 . S
C1259 C1258 1.524 . S
C1259 C1260 1.415 . S
C1260 H1236 0.950 . S
C1260 C1255 1.363 . S
C1260 C1259 1.415 . S
C1261 H1237 0.951 . S
C1261 C1262 1.366 . S
C1261 C1263 1.388 . S
C1262 C1261 1.366 . S
C1262 C1266 1.385 . S
C1263 H1238 0.951 . S
C1263 C1261 1.388 . S
C1263 C1264 1.366 . S
C1264 C1263 1.366 . S
C1264 C1265 1.414 . S
C1264 C1267 1.499 . S
C1265 H1239 0.950 . S
C1265 C1264 1.414 . S
C1265 C1266 1.374 . S
C1266 H1240 0.950 . S
C1266 C1262 1.385 . S
C1266 C1265 1.374 . S
C1267 C1264 1.499 . S
C1267 C1268 1.373 . S
C1267 C1269 1.389 . S
C1268 H1241 0.950 . S
C1268 C1254 1.377 . S
C1268 C1267 1.373 . S
C1269 C1253 1.377 . S
C1269 C1267 1.389 . S
C1269 C1270 1.524 . S
C1270 C1269 1.524 . S
C1270 C1271 1.397 . S
C1270 C1275 1.363 . S
C1271 H1242 0.950 . S
C1271 C1270 1.397 . S
C1271 C1272 1.334 . S
C1272 H1243 0.950 . S
C1272 C1271 1.334 . S
C1272 C1273 1.287 . S
C1273 C1272 1.287 . S
C1273 C1274 1.524 . S
C1273 H1276 0.999 . S
C1274 H1244 0.950 . S
C1274 C1273 1.524 . S
C1274 C1275 1.415 . S
C1275 H1245 0.950 . S
C1275 C1270 1.363 . S
C1275 C1274 1.415 . S
H1276 C1273 0.999 . S
H1277 C1258 0.913 . S
H1278 C1296 0.951 . S
H1279 C1298 0.951 . S
H1280 C1300 0.950 . S
H1281 C1301 0.950 . S
H1282 C1303 0.950 . S
H1283 C1306 0.950 . S
H1284 C1307 0.950 . S
H1285 C1309 0.950 . S
H1286 C1310 0.950 . S
H1287 C1311 0.951 . S
H1288 C1313 0.951 . S
H1289 C1315 0.950 . S
H1290 C1316 0.950 . S
H1291 C1318 0.950 . S
H1292 C1321 0.950 . S
H1293 C1322 0.950 . S
H1294 C1324 0.950 . S
H1295 C1325 0.950 . S
C1296 H1278 0.951 . S
C1296 C1297 1.366 . S
C1296 C1298 1.388 . S
C1297 C1296 1.366 . S
C1297 C1301 1.385 . S
C1298 H1279 0.951 . S
C1298 C1296 1.388 . S
C1298 C1299 1.366 . S
C1299 C1298 1.366 . S
C1299 C1300 1.414 . S
C1299 C1302 1.499 . S
C1300 H1280 0.950 . S
C1300 C1299 1.414 . S
C1300 C1301 1.374 . S
C1301 H1281 0.950 . S
C1301 C1297 1.385 . S
C1301 C1300 1.374 . S
C1302 C1299 1.499 . S
C1302 C1303 1.373 . S
C1302 C1304 1.389 . S
C1303 H1282 0.950 . S
C1303 C1302 1.373 . S
C1303 C1319 1.377 . S
C1304 C1302 1.389 . S
C1304 C1305 1.524 . S
C1304 C1318 1.377 . S
C1305 C1304 1.524 . S
C1305 C1306 1.397 . S
C1305 C1310 1.363 . S
C1306 H1283 0.950 . S
C1306 C1305 1.397 . S
C1306 C1307 1.334 . S
C1307 H1284 0.950 . S
C1307 C1306 1.334 . S
C1307 C1308 1.287 . S
C1308 C1307 1.287 . S
C1308 C1309 1.524 . S
C1308 H1327 0.913 . S
C1309 H1285 0.950 . S
C1309 C1308 1.524 . S
C1309 C1310 1.415 . S
C1310 H1286 0.950 . S
C1310 C1305 1.363 . S
C1310 C1309 1.415 . S
C1311 H1287 0.951 . S
C1311 C1312 1.366 . S
C1311 C1313 1.388 . S
C1312 C1311 1.366 . S
C1312 C1316 1.385 . S
C1313 H1288 0.951 . S
C1313 C1311 1.388 . S
C1313 C1314 1.366 . S
C1314 C1313 1.366 . S
C1314 C1315 1.414 . S
C1314 C1317 1.499 . S
C1315 H1289 0.950 . S
C1315 C1314 1.414 . S
C1315 C1316 1.374 . S
C1316 H1290 0.950 . S
C1316 C1312 1.385 . S
C1316 C1315 1.374 . S
C1317 C1314 1.499 . S
C1317 C1318 1.373 . S
C1317 C1319 1.389 . S
C1318 H1291 0.950 . S
C1318 C1304 1.377 . S
C1318 C1317 1.373 . S
C1319 C1303 1.377 . S
C1319 C1317 1.389 . S
C1319 C1320 1.524 . S
C1320 C1319 1.524 . S
C1320 C1321 1.397 . S
C1320 C1325 1.363 . S
C1321 H1292 0.950 . S
C1321 C1320 1.397 . S
C1321 C1322 1.334 . S
C1322 H1293 0.950 . S
C1322 C1321 1.334 . S
C1322 C1323 1.287 . S
C1323 C1322 1.287 . S
C1323 C1324 1.524 . S
C1323 H1326 0.999 . S
C1324 H1294 0.950 . S
C1324 C1323 1.524 . S
C1324 C1325 1.415 . S
C1325 H1295 0.950 . S
C1325 C1320 1.363 . S
C1325 C1324 1.415 . S
H1326 C1323 0.999 . S
H1327 C1308 0.913 . S
H1328 C1346 0.951 . S
H1329 C1348 0.951 . S
H1330 C1350 0.950 . S
H1331 C1351 0.950 . S
H1332 C1353 0.950 . S
H1333 C1356 0.950 . S
H1334 C1357 0.950 . S
H1335 C1359 0.950 . S
H1336 C1360 0.939 1_565 S
H1337 C1361 0.951 . S
H1338 C1363 0.951 . S
H1339 C1365 0.950 . S
H1340 C1366 0.950 . S
H1341 C1368 0.950 . S
H1342 C1371 0.950 . S
H1343 C1372 0.950 . S
H1344 C1374 0.950 . S
H1345 C1375 0.939 1_545 S
C1346 H1328 0.951 . S
C1346 C1347 1.366 . S
C1346 C1348 1.388 . S
C1347 C1346 1.366 . S
C1347 C1351 1.385 1_455 S
C1348 H1329 0.951 . S
C1348 C1346 1.388 . S
C1348 C1349 1.366 . S
C1349 C1348 1.366 . S
C1349 C1350 1.414 1_455 S
C1349 C1352 1.499 . S
C1350 H1330 0.950 . S
C1350 C1349 1.414 1_655 S
C1350 C1351 1.374 . S
C1351 H1331 0.950 . S
C1351 C1347 1.385 1_655 S
C1351 C1350 1.374 . S
C1352 C1349 1.499 . S
C1352 C1353 1.373 1_455 S
C1352 C1354 1.389 . S
C1353 H1332 0.950 . S
C1353 C1352 1.373 1_655 S
C1353 C1369 1.377 1_545 S
C1354 C1352 1.389 . S
C1354 C1355 1.524 . S
C1354 C1368 1.377 1_545 S
C1355 C1354 1.524 . S
C1355 C1356 1.397 . S
C1355 C1360 1.363 . S
C1356 H1333 0.950 . S
C1356 C1355 1.397 . S
C1356 C1357 1.334 . S
C1357 H1334 0.950 . S
C1357 C1356 1.334 . S
C1357 C1358 1.287 . S
C1358 C1357 1.287 . S
C1358 C1359 1.524 . S
C1358 H1377 0.913 . S
C1359 H1335 0.950 . S
C1359 C1358 1.524 . S
C1359 C1360 1.415 . S
C1360 H1336 0.939 1_545 S
C1360 C1355 1.363 . S
C1360 C1359 1.415 . S
C1361 H1337 0.951 . S
C1361 C1362 1.366 . S
C1361 C1363 1.388 . S
C1362 C1361 1.366 . S
C1362 C1366 1.385 1_655 S
C1363 H1338 0.951 . S
C1363 C1361 1.388 . S
C1363 C1364 1.366 . S
C1364 C1363 1.366 . S
C1364 C1365 1.414 1_655 S
C1364 C1367 1.499 . S
C1365 H1339 0.950 . S
C1365 C1364 1.414 1_455 S
C1365 C1366 1.374 . S
C1366 H1340 0.950 . S
C1366 C1362 1.385 1_455 S
C1366 C1365 1.374 . S
C1367 C1364 1.499 . S
C1367 C1368 1.373 1_655 S
C1367 C1369 1.389 . S
C1368 H1341 0.950 . S
C1368 C1354 1.377 1_565 S
C1368 C1367 1.373 1_455 S
C1369 C1353 1.377 1_565 S
C1369 C1367 1.389 . S
C1369 C1370 1.524 . S
C1370 C1369 1.524 . S
C1370 C1371 1.397 . S
C1370 C1375 1.363 . S
C1371 H1342 0.950 . S
C1371 C1370 1.397 . S
C1371 C1372 1.334 . S
C1372 H1343 0.950 . S
C1372 C1371 1.334 . S
C1372 C1373 1.287 . S
C1373 C1372 1.287 . S
C1373 C1374 1.524 . S
C1373 H1376 0.999 . S
C1374 H1344 0.950 . S
C1374 C1373 1.524 . S
C1374 C1375 1.415 . S
C1375 H1345 0.939 1_565 S
C1375 C1370 1.363 . S
C1375 C1374 1.415 . S
H1376 C1373 0.999 . S
H1377 C1358 0.913 . S
H1378 C1396 0.951 . S
H1379 C1398 0.951 . S
H1380 C1400 0.950 . S
H1381 C1401 0.950 . S
H1382 C1403 0.950 . S
H1383 C1406 0.950 . S
H1384 C1407 0.950 . S
H1385 C1409 0.950 . S
H1386 C1410 0.950 . S
H1387 C1411 0.951 . S
H1388 C1413 0.951 . S
H1389 C1415 0.950 . S
H1390 C1416 0.950 . S
H1391 C1418 0.950 . S
H1392 C1421 0.950 . S
H1393 C1422 0.950 . S
H1394 C1424 0.950 . S
H1395 C1425 0.950 . S
C1396 H1378 0.951 . S
C1396 C1397 1.366 1_545 S
C1396 C1398 1.388 . S
C1397 C1396 1.366 1_565 S
C1397 C1401 1.385 . S
C1398 H1379 0.951 . S
C1398 C1396 1.388 . S
C1398 C1399 1.366 1_545 S
C1399 C1398 1.366 1_565 S
C1399 C1400 1.414 . S
C1399 C1402 1.499 . S
C1400 H1380 0.950 . S
C1400 C1399 1.414 . S
C1400 C1401 1.374 . S
C1401 H1381 0.950 . S
C1401 C1397 1.385 . S
C1401 C1400 1.374 . S
C1402 C1399 1.499 . S
C1402 C1403 1.373 . S
C1402 C1404 1.389 1_565 S
C1403 H1382 0.950 . S
C1403 C1402 1.373 . S
C1403 C1419 1.377 1_455 S
C1404 C1402 1.389 1_545 S
C1404 C1405 1.524 . S
C1404 C1418 1.377 1_455 S
C1405 C1404 1.524 . S
C1405 C1406 1.397 1_545 S
C1405 C1410 1.363 . S
C1406 H1383 0.950 . S
C1406 C1405 1.397 1_565 S
C1406 C1407 1.334 . S
C1407 H1384 0.950 . S
C1407 C1406 1.334 . S
C1407 C1408 1.287 1_565 S
C1408 C1407 1.287 1_545 S
C1408 C1409 1.524 . S
C1408 H1427 0.913 . S
C1409 H1385 0.950 . S
C1409 C1408 1.524 . S
C1409 C1410 1.415 . S
C1410 H1386 0.950 . S
C1410 C1405 1.363 . S
C1410 C1409 1.415 . S
C1411 H1387 0.951 . S
C1411 C1412 1.366 1_565 S
C1411 C1413 1.388 . S
C1412 C1411 1.366 1_545 S
C1412 C1416 1.385 . S
C1413 H1388 0.951 . S
C1413 C1411 1.388 . S
C1413 C1414 1.366 1_565 S
C1414 C1413 1.366 1_545 S
C1414 C1415 1.414 . S
C1414 C1417 1.499 . S
C1415 H1389 0.950 . S
C1415 C1414 1.414 . S
C1415 C1416 1.374 . S
C1416 H1390 0.950 . S
C1416 C1412 1.385 . S
C1416 C1415 1.374 . S
C1417 C1414 1.499 . S
C1417 C1418 1.373 . S
C1417 C1419 1.389 1_545 S
C1418 H1391 0.950 . S
C1418 C1404 1.377 1_655 S
C1418 C1417 1.373 . S
C1419 C1403 1.377 1_655 S
C1419 C1417 1.389 1_565 S
C1419 C1420 1.524 . S
C1420 C1419 1.524 . S
C1420 C1421 1.397 1_565 S
C1420 C1425 1.363 . S
C1421 H1392 0.950 . S
C1421 C1420 1.397 1_545 S
C1421 C1422 1.334 . S
C1422 H1393 0.950 . S
C1422 C1421 1.334 . S
C1422 C1423 1.287 1_545 S
C1423 C1422 1.287 1_565 S
C1423 C1424 1.524 . S
C1423 H1426 0.999 . S
C1424 H1394 0.950 . S
C1424 C1423 1.524 . S
C1424 C1425 1.415 . S
C1425 H1395 0.950 . S
C1425 C1420 1.363 . S
C1425 C1424 1.415 . S
H1426 C1423 0.999 . S
H1427 C1408 0.913 . S
H1428 C1446 0.951 . S
H1429 C1448 0.951 . S
H1430 C1450 0.950 . S
H1431 C1451 0.950 . S
H1432 C1453 0.950 . S
H1433 C1456 0.950 . S
H1434 C1457 0.950 . S
H1435 C1459 0.950 . S
H1436 C1460 0.950 . S
H1437 C1461 0.951 . S
H1438 C1463 0.951 . S
H1439 C1465 0.950 . S
H1440 C1466 0.950 . S
H1441 C1468 0.950 . S
H1442 C1471 0.950 . S
H1443 C1472 0.950 . S
H1444 C1474 0.950 . S
H1445 C1475 0.950 . S
C1446 H1428 0.951 . S
C1446 C1447 1.366 1_455 S
C1446 C1448 1.388 . S
C1447 C1446 1.366 1_655 S
C1447 C1451 1.385 . S
C1448 H1429 0.951 . S
C1448 C1446 1.388 . S
C1448 C1449 1.366 1_455 S
C1449 C1448 1.366 1_655 S
C1449 C1450 1.414 . S
C1449 C1452 1.499 . S
C1450 H1430 0.950 . S
C1450 C1449 1.414 . S
C1450 C1451 1.374 . S
C1451 H1431 0.950 . S
C1451 C1447 1.385 . S
C1451 C1450 1.374 . S
C1452 C1449 1.499 . S
C1452 C1453 1.373 . S
C1452 C1454 1.389 . S
C1453 H1432 0.950 . S
C1453 C1452 1.373 . S
C1453 C1469 1.377 1_655 S
C1454 C1452 1.389 . S
C1454 C1455 1.524 . S
C1454 C1468 1.377 1_655 S
C1455 C1454 1.524 . S
C1455 C1456 1.397 . S
C1455 C1460 1.363 1_655 S
C1456 H1433 0.950 . S
C1456 C1455 1.397 . S
C1456 C1457 1.334 . S
C1457 H1434 0.950 . S
C1457 C1456 1.334 . S
C1457 C1458 1.287 . S
C1458 C1457 1.287 . S
C1458 C1459 1.524 1_655 S
C1458 H1477 0.913 . S
C1459 H1435 0.950 . S
C1459 C1458 1.524 1_455 S
C1459 C1460 1.415 . S
C1460 H1436 0.950 . S
C1460 C1455 1.363 1_455 S
C1460 C1459 1.415 . S
C1461 H1437 0.951 . S
C1461 C1462 1.366 1_655 S
C1461 C1463 1.388 . S
C1462 C1461 1.366 1_455 S
C1462 C1466 1.385 . S
C1463 H1438 0.951 . S
C1463 C1461 1.388 . S
C1463 C1464 1.366 1_655 S
C1464 C1463 1.366 1_455 S
C1464 C1465 1.414 . S
C1464 C1467 1.499 . S
C1465 H1439 0.950 . S
C1465 C1464 1.414 . S
C1465 C1466 1.374 . S
C1466 H1440 0.950 . S
C1466 C1462 1.385 . S
C1466 C1465 1.374 . S
C1467 C1464 1.499 . S
C1467 C1468 1.373 . S
C1467 C1469 1.389 . S
C1468 H1441 0.950 . S
C1468 C1454 1.377 1_455 S
C1468 C1467 1.373 . S
C1469 C1453 1.377 1_455 S
C1469 C1467 1.389 . S
C1469 C1470 1.524 . S
C1470 C1469 1.524 . S
C1470 C1471 1.397 . S
C1470 C1475 1.363 1_455 S
C1471 H1442 0.950 . S
C1471 C1470 1.397 . S
C1471 C1472 1.334 . S
C1472 H1443 0.950 . S
C1472 C1471 1.334 . S
C1472 C1473 1.287 . S
C1473 C1472 1.287 . S
C1473 C1474 1.524 1_455 S
C1473 H1476 0.999 . S
C1474 H1444 0.950 . S
C1474 C1473 1.524 1_655 S
C1474 C1475 1.415 . S
C1475 H1445 0.950 . S
C1475 C1470 1.363 1_655 S
C1475 C1474 1.415 . S
H1476 C1473 0.999 . S
H1477 C1458 0.913 . S
H1478 C1496 0.951 . S
H1479 C1498 0.951 . S
H1480 C1500 0.957 . S
H1481 C1501 0.950 1_565 S
H1482 C1503 0.950 . S
H1483 C1506 0.950 . S
H1484 C1507 0.950 . S
H1485 C1509 0.950 . S
H1486 C1510 0.950 . S
H1487 C1511 0.951 . S
H1488 C1513 0.951 . S
H1489 C1515 0.957 . S
H1490 C1516 0.950 1_545 S
H1491 C1518 0.950 . S
H1492 C1521 0.950 . S
H1493 C1522 0.950 . S
H1494 C1524 0.950 . S
H1495 C1525 0.950 . S
C1496 H1478 0.951 . S
C1496 C1497 1.366 . S
C1496 C1498 1.388 . S
C1497 C1496 1.366 . S
C1497 C1501 1.385 . S
C1498 H1479 0.951 . S
C1498 C1496 1.388 . S
C1498 C1499 1.366 . S
C1499 C1498 1.366 . S
C1499 C1500 1.410 1_545 S
C1499 C1502 1.499 . S
C1500 H1480 0.957 . S
C1500 C1499 1.410 1_565 S
C1500 C1501 1.371 1_565 S
C1501 H1481 0.950 1_545 S
C1501 C1497 1.385 . S
C1501 C1500 1.371 1_545 S
C1502 C1499 1.499 . S
C1502 C1503 1.373 . S
C1502 C1504 1.389 1_545 S
C1503 H1482 0.950 . S
C1503 C1502 1.373 . S
C1503 C1519 1.377 . S
C1504 C1502 1.389 1_565 S
C1504 C1505 1.524 . S
C1504 C1518 1.377 . S
C1505 C1504 1.524 . S
C1505 C1506 1.397 . S
C1505 C1510 1.363 . S
C1506 H1483 0.950 . S
C1506 C1505 1.397 . S
C1506 C1507 1.334 . S
C1507 H1484 0.950 . S
C1507 C1506 1.334 . S
C1507 C1508 1.287 . S
C1508 C1507 1.287 . S
C1508 C1509 1.524 . S
C1508 H1527 0.913 . S
C1509 H1485 0.950 . S
C1509 C1508 1.524 . S
C1509 C1510 1.415 . S
C1510 H1486 0.950 . S
C1510 C1505 1.363 . S
C1510 C1509 1.415 . S
C1511 H1487 0.951 . S
C1511 C1512 1.366 . S
C1511 C1513 1.388 . S
C1512 C1511 1.366 . S
C1512 C1516 1.385 . S
C1513 H1488 0.951 . S
C1513 C1511 1.388 . S
C1513 C1514 1.366 . S
C1514 C1513 1.366 . S
C1514 C1515 1.410 1_565 S
C1514 C1517 1.499 . S
C1515 H1489 0.957 . S
C1515 C1514 1.410 1_545 S
C1515 C1516 1.371 1_545 S
C1516 H1490 0.950 1_565 S
C1516 C1512 1.385 . S
C1516 C1515 1.371 1_565 S
C1517 C1514 1.499 . S
C1517 C1518 1.373 . S
C1517 C1519 1.389 1_565 S
C1518 H1491 0.950 . S
C1518 C1504 1.377 . S
C1518 C1517 1.373 . S
C1519 C1503 1.377 . S
C1519 C1517 1.389 1_545 S
C1519 C1520 1.524 . S
C1520 C1519 1.524 . S
C1520 C1521 1.397 . S
C1520 C1525 1.363 . S
C1521 H1492 0.950 . S
C1521 C1520 1.397 . S
C1521 C1522 1.334 . S
C1522 H1493 0.950 . S
C1522 C1521 1.334 . S
C1522 C1523 1.287 . S
C1523 C1522 1.287 . S
C1523 C1524 1.524 . S
C1523 H1526 0.999 . S
C1524 H1494 0.950 . S
C1524 C1523 1.524 . S
C1524 C1525 1.415 . S
C1525 H1495 0.950 . S
C1525 C1520 1.363 . S
C1525 C1524 1.415 . S
H1526 C1523 0.999 . S
H1527 C1508 0.913 . S
H1528 C1546 0.951 . S
H1529 C1548 0.951 . S
H1530 C1550 0.950 . S
H1531 C1551 0.950 . S
H1532 C1553 0.950 . S
H1533 C1556 0.950 . S
H1534 C1557 0.950 . S
H1535 C1559 0.950 . S
H1536 C1560 0.950 . S
H1537 C1561 0.951 . S
H1538 C1563 0.951 . S
H1539 C1565 0.950 . S
H1540 C1566 0.950 . S
H1541 C1568 0.950 . S
H1542 C1571 0.950 . S
H1543 C1572 0.950 . S
H1544 C1574 0.950 . S
H1545 C1575 0.950 . S
C1546 H1528 0.951 . S
C1546 C1547 1.366 . S
C1546 C1548 1.388 . S
C1547 C1546 1.366 . S
C1547 C1551 1.385 . S
C1548 H1529 0.951 . S
C1548 C1546 1.388 . S
C1548 C1549 1.366 . S
C1549 C1548 1.366 . S
C1549 C1550 1.414 . S
C1549 C1552 1.499 . S
C1550 H1530 0.950 . S
C1550 C1549 1.414 . S
C1550 C1551 1.374 . S
C1551 H1531 0.950 . S
C1551 C1547 1.385 . S
C1551 C1550 1.374 . S
C1552 C1549 1.499 . S
C1552 C1553 1.373 . S
C1552 C1554 1.389 . S
C1553 H1532 0.950 . S
C1553 C1552 1.373 . S
C1553 C1569 1.377 . S
C1554 C1552 1.389 . S
C1554 C1555 1.524 . S
C1554 C1568 1.377 . S
C1555 C1554 1.524 . S
C1555 C1556 1.397 . S
C1555 C1560 1.363 . S
C1556 H1533 0.950 . S
C1556 C1555 1.397 . S
C1556 C1557 1.334 . S
C1557 H1534 0.950 . S
C1557 C1556 1.334 . S
C1557 C1558 1.287 . S
C1558 C1557 1.287 . S
C1558 C1559 1.524 . S
C1558 H1577 0.913 . S
C1559 H1535 0.950 . S
C1559 C1558 1.524 . S
C1559 C1560 1.415 . S
C1560 H1536 0.950 . S
C1560 C1555 1.363 . S
C1560 C1559 1.415 . S
C1561 H1537 0.951 . S
C1561 C1562 1.366 . S
C1561 C1563 1.388 . S
C1562 C1561 1.366 . S
C1562 C1566 1.385 . S
C1563 H1538 0.951 . S
C1563 C1561 1.388 . S
C1563 C1564 1.366 . S
C1564 C1563 1.366 . S
C1564 C1565 1.414 . S
C1564 C1567 1.499 . S
C1565 H1539 0.950 . S
C1565 C1564 1.414 . S
C1565 C1566 1.374 . S
C1566 H1540 0.950 . S
C1566 C1562 1.385 . S
C1566 C1565 1.374 . S
C1567 C1564 1.499 . S
C1567 C1568 1.373 . S
C1567 C1569 1.389 . S
C1568 H1541 0.950 . S
C1568 C1554 1.377 . S
C1568 C1567 1.373 . S
C1569 C1553 1.377 . S
C1569 C1567 1.389 . S
C1569 C1570 1.524 . S
C1570 C1569 1.524 . S
C1570 C1571 1.397 . S
C1570 C1575 1.363 . S
C1571 H1542 0.950 . S
C1571 C1570 1.397 . S
C1571 C1572 1.334 . S
C1572 H1543 0.950 . S
C1572 C1571 1.334 . S
C1572 C1573 1.287 . S
C1573 C1572 1.287 . S
C1573 C1574 1.524 . S
C1573 H1576 0.999 . S
C1574 H1544 0.950 . S
C1574 C1573 1.524 . S
C1574 C1575 1.415 . S
C1575 H1545 0.950 . S
C1575 C1570 1.363 . S
C1575 C1574 1.415 . S
H1576 C1573 0.999 . S
H1577 C1558 0.913 . S
H1578 C1596 0.951 . S
H1579 C1598 0.951 . S
H1580 C1600 0.950 . S
H1581 C1601 0.950 . S
H1582 C1603 0.950 . S
H1583 C1606 0.950 . S
H1584 C1607 0.950 . S
H1585 C1609 0.950 . S
H1586 C1610 0.950 . S
H1587 C1611 0.951 . S
H1588 C1613 0.951 . S
H1589 C1615 0.950 . S
H1590 C1616 0.950 . S
H1591 C1618 0.950 . S
H1592 C1621 0.950 . S
H1593 C1622 0.950 . S
H1594 C1624 0.950 . S
H1595 C1625 0.950 . S
C1596 H1578 0.951 . S
C1596 C1597 1.366 . S
C1596 C1598 1.388 . S
C1597 C1596 1.366 . S
C1597 C1601 1.385 . S
C1598 H1579 0.951 . S
C1598 C1596 1.388 . S
C1598 C1599 1.366 . S
C1599 C1598 1.366 . S
C1599 C1600 1.414 . S
C1599 C1602 1.499 . S
C1600 H1580 0.950 . S
C1600 C1599 1.414 . S
C1600 C1601 1.374 . S
C1601 H1581 0.950 . S
C1601 C1597 1.385 . S
C1601 C1600 1.374 . S
C1602 C1599 1.499 . S
C1602 C1603 1.373 . S
C1602 C1604 1.389 . S
C1603 H1582 0.950 . S
C1603 C1602 1.373 . S
C1603 C1619 1.377 . S
C1604 C1602 1.389 . S
C1604 C1605 1.524 . S
C1604 C1618 1.377 . S
C1605 C1604 1.524 . S
C1605 C1606 1.397 . S
C1605 C1610 1.363 . S
C1606 H1583 0.950 . S
C1606 C1605 1.397 . S
C1606 C1607 1.334 . S
C1607 H1584 0.950 . S
C1607 C1606 1.334 . S
C1607 C1608 1.287 . S
C1608 C1607 1.287 . S
C1608 C1609 1.524 . S
C1608 H1627 0.913 . S
C1609 H1585 0.950 . S
C1609 C1608 1.524 . S
C1609 C1610 1.415 . S
C1610 H1586 0.950 . S
C1610 C1605 1.363 . S
C1610 C1609 1.415 . S
C1611 H1587 0.951 . S
C1611 C1612 1.366 . S
C1611 C1613 1.388 . S
C1612 C1611 1.366 . S
C1612 C1616 1.385 . S
C1613 H1588 0.951 . S
C1613 C1611 1.388 . S
C1613 C1614 1.366 . S
C1614 C1613 1.366 . S
C1614 C1615 1.414 . S
C1614 C1617 1.499 . S
C1615 H1589 0.950 . S
C1615 C1614 1.414 . S
C1615 C1616 1.374 . S
C1616 H1590 0.950 . S
C1616 C1612 1.385 . S
C1616 C1615 1.374 . S
C1617 C1614 1.499 . S
C1617 C1618 1.373 . S
C1617 C1619 1.389 . S
C1618 H1591 0.950 . S
C1618 C1604 1.377 . S
C1618 C1617 1.373 . S
C1619 C1603 1.377 . S
C1619 C1617 1.389 . S
C1619 C1620 1.524 . S
C1620 C1619 1.524 . S
C1620 C1621 1.397 . S
C1620 C1625 1.363 . S
C1621 H1592 0.950 . S
C1621 C1620 1.397 . S
C1621 C1622 1.334 . S
C1622 H1593 0.950 . S
C1622 C1621 1.334 . S
C1622 C1623 1.287 . S
C1623 C1622 1.287 . S
C1623 C1624 1.524 . S
C1623 H1626 0.999 . S
C1624 H1594 0.950 . S
C1624 C1623 1.524 . S
C1624 C1625 1.415 . S
C1625 H1595 0.950 . S
C1625 C1620 1.363 . S
C1625 C1624 1.415 . S
H1626 C1623 0.999 . S
H1627 C1608 0.913 . S
H1628 C1646 0.951 . S
H1629 C1648 0.951 . S
H1630 C1650 0.950 . S
H1631 C1651 0.950 . S
H1632 C1653 0.950 . S
H1633 C1656 0.950 . S
H1634 C1657 0.950 . S
H1635 C1659 0.950 . S
H1636 C1660 0.964 . S
H1637 C1661 0.951 . S
H1638 C1663 0.951 . S
H1639 C1665 0.950 . S
H1640 C1666 0.950 . S
H1641 C1668 0.950 . S
H1642 C1671 0.950 . S
H1643 C1672 0.950 . S
H1644 C1674 0.950 . S
H1645 C1675 0.964 . S
C1646 H1628 0.951 . S
C1646 C1647 1.366 . S
C1646 C1648 1.388 . S
C1647 C1646 1.366 . S
C1647 C1651 1.385 . S
C1648 H1629 0.951 . S
C1648 C1646 1.388 . S
C1648 C1649 1.366 . S
C1649 C1648 1.366 . S
C1649 C1650 1.414 . S
C1649 C1652 1.499 . S
C1650 H1630 0.950 . S
C1650 C1649 1.414 . S
C1650 C1651 1.374 . S
C1651 H1631 0.950 . S
C1651 C1647 1.385 . S
C1651 C1650 1.374 . S
C1652 C1649 1.499 . S
C1652 C1653 1.373 . S
C1652 C1654 1.389 . S
C1653 H1632 0.950 . S
C1653 C1652 1.373 . S
C1653 C1669 1.377 1_565 S
C1654 C1652 1.389 . S
C1654 C1655 1.524 . S
C1654 C1668 1.377 1_565 S
C1655 C1654 1.524 . S
C1655 C1656 1.397 . S
C1655 C1660 1.363 . S
C1656 H1633 0.950 . S
C1656 C1655 1.397 . S
C1656 C1657 1.334 . S
C1657 H1634 0.950 . S
C1657 C1656 1.334 . S
C1657 C1658 1.287 . S
C1658 C1657 1.287 . S
C1658 C1659 1.524 . S
C1658 H1677 0.913 . S
C1659 H1635 0.950 . S
C1659 C1658 1.524 . S
C1659 C1660 1.415 . S
C1660 H1636 0.964 . S
C1660 C1655 1.363 . S
C1660 C1659 1.415 . S
C1661 H1637 0.951 . S
C1661 C1662 1.366 . S
C1661 C1663 1.388 . S
C1662 C1661 1.366 . S
C1662 C1666 1.385 . S
C1663 H1638 0.951 . S
C1663 C1661 1.388 . S
C1663 C1664 1.366 . S
C1664 C1663 1.366 . S
C1664 C1665 1.414 . S
C1664 C1667 1.499 . S
C1665 H1639 0.950 . S
C1665 C1664 1.414 . S
C1665 C1666 1.374 . S
C1666 H1640 0.950 . S
C1666 C1662 1.385 . S
C1666 C1665 1.374 . S
C1667 C1664 1.499 . S
C1667 C1668 1.373 . S
C1667 C1669 1.389 . S
C1668 H1641 0.950 . S
C1668 C1654 1.377 1_545 S
C1668 C1667 1.373 . S
C1669 C1653 1.377 1_545 S
C1669 C1667 1.389 . S
C1669 C1670 1.524 . S
C1670 C1669 1.524 . S
C1670 C1671 1.397 . S
C1670 C1675 1.363 . S
C1671 H1642 0.950 . S
C1671 C1670 1.397 . S
C1671 C1672 1.334 . S
C1672 H1643 0.950 . S
C1672 C1671 1.334 . S
C1672 C1673 1.287 . S
C1673 C1672 1.287 . S
C1673 C1674 1.524 . S
C1673 H1676 0.999 . S
C1674 H1644 0.950 . S
C1674 C1673 1.524 . S
C1674 C1675 1.415 . S
C1675 H1645 0.964 . S
C1675 C1670 1.363 . S
C1675 C1674 1.415 . S
H1676 C1673 0.999 . S
H1677 C1658 0.913 . S
H1678 C1696 0.951 . S
H1679 C1698 0.951 . S
H1680 C1700 0.950 . S
H1681 C1701 0.950 . S
H1682 C1703 0.950 . S
H1683 C1706 0.950 . S
H1684 C1707 0.950 . S
H1685 C1709 0.950 . S
H1686 C1710 0.950 . S
H1687 C1711 0.951 . S
H1688 C1713 0.951 . S
H1689 C1715 0.950 . S
H1690 C1716 0.950 . S
H1691 C1718 0.950 . S
H1692 C1721 0.950 . S
H1693 C1722 0.950 . S
H1694 C1724 0.950 . S
H1695 C1725 0.950 . S
C1696 H1678 0.951 . S
C1696 C1697 1.366 . S
C1696 C1698 1.388 . S
C1697 C1696 1.366 . S
C1697 C1701 1.385 . S
C1698 H1679 0.951 . S
C1698 C1696 1.388 . S
C1698 C1699 1.366 . S
C1699 C1698 1.366 . S
C1699 C1700 1.414 . S
C1699 C1702 1.499 . S
C1700 H1680 0.950 . S
C1700 C1699 1.414 . S
C1700 C1701 1.374 . S
C1701 H1681 0.950 . S
C1701 C1697 1.385 . S
C1701 C1700 1.374 . S
C1702 C1699 1.499 . S
C1702 C1703 1.373 . S
C1702 C1704 1.389 . S
C1703 H1682 0.950 . S
C1703 C1702 1.373 . S
C1703 C1719 1.377 1_455 S
C1704 C1702 1.389 . S
C1704 C1705 1.524 . S
C1704 C1718 1.377 1_455 S
C1705 C1704 1.524 . S
C1705 C1706 1.397 . S
C1705 C1710 1.363 . S
C1706 H1683 0.950 . S
C1706 C1705 1.397 . S
C1706 C1707 1.334 . S
C1707 H1684 0.950 . S
C1707 C1706 1.334 . S
C1707 C1708 1.287 . S
C1708 C1707 1.287 . S
C1708 C1709 1.524 . S
C1708 H1727 0.913 . S
C1709 H1685 0.950 . S
C1709 C1708 1.524 . S
C1709 C1710 1.415 . S
C1710 H1686 0.950 . S
C1710 C1705 1.363 . S
C1710 C1709 1.415 . S
C1711 H1687 0.951 . S
C1711 C1712 1.366 . S
C1711 C1713 1.388 . S
C1712 C1711 1.366 . S
C1712 C1716 1.385 . S
C1713 H1688 0.951 . S
C1713 C1711 1.388 . S
C1713 C1714 1.366 . S
C1714 C1713 1.366 . S
C1714 C1715 1.414 . S
C1714 C1717 1.499 . S
C1715 H1689 0.950 . S
C1715 C1714 1.414 . S
C1715 C1716 1.374 . S
C1716 H1690 0.950 . S
C1716 C1712 1.385 . S
C1716 C1715 1.374 . S
C1717 C1714 1.499 . S
C1717 C1718 1.373 . S
C1717 C1719 1.389 . S
C1718 H1691 0.950 . S
C1718 C1704 1.377 1_655 S
C1718 C1717 1.373 . S
C1719 C1703 1.377 1_655 S
C1719 C1717 1.389 . S
C1719 C1720 1.524 . S
C1720 C1719 1.524 . S
C1720 C1721 1.397 . S
C1720 C1725 1.363 . S
C1721 H1692 0.950 . S
C1721 C1720 1.397 . S
C1721 C1722 1.334 . S
C1722 H1693 0.950 . S
C1722 C1721 1.334 . S
C1722 C1723 1.287 . S
C1723 C1722 1.287 . S
C1723 C1724 1.524 . S
C1723 H1726 0.999 . S
C1724 H1694 0.950 . S
C1724 C1723 1.524 . S
C1724 C1725 1.415 . S
C1725 H1695 0.950 . S
C1725 C1720 1.363 . S
C1725 C1724 1.415 . S
H1726 C1723 0.999 . S
H1727 C1708 0.913 . S
H1728 C1746 0.951 . S
H1729 C1748 0.951 . S
H1730 C1750 0.950 . S
H1731 C1751 0.950 . S
H1732 C1753 0.950 . S
H1733 C1756 0.950 . S
H1734 C1757 0.950 . S
H1735 C1759 0.950 . S
H1736 C1760 0.950 . S
H1737 C1761 0.951 . S
H1738 C1763 0.951 . S
H1739 C1765 0.950 . S
H1740 C1766 0.950 . S
H1741 C1768 0.950 . S
H1742 C1771 0.950 . S
H1743 C1772 0.950 . S
H1744 C1774 0.950 . S
H1745 C1775 0.950 . S
C1746 H1728 0.951 . S
C1746 C1747 1.366 . S
C1746 C1748 1.388 . S
C1747 C1746 1.366 . S
C1747 C1751 1.385 1_455 S
C1748 H1729 0.951 . S
C1748 C1746 1.388 . S
C1748 C1749 1.366 . S
C1749 C1748 1.366 . S
C1749 C1750 1.414 1_455 S
C1749 C1752 1.499 . S
C1750 H1730 0.950 . S
C1750 C1749 1.414 1_655 S
C1750 C1751 1.374 . S
C1751 H1731 0.950 . S
C1751 C1747 1.385 1_655 S
C1751 C1750 1.374 . S
C1752 C1749 1.499 . S
C1752 C1753 1.373 1_455 S
C1752 C1754 1.389 . S
C1753 H1732 0.950 . S
C1753 C1752 1.373 1_655 S
C1753 C1769 1.377 . S
C1754 C1752 1.389 . S
C1754 C1755 1.524 . S
C1754 C1768 1.377 . S
C1755 C1754 1.524 . S
C1755 C1756 1.397 . S
C1755 C1760 1.363 . S
C1756 H1733 0.950 . S
C1756 C1755 1.397 . S
C1756 C1757 1.334 . S
C1757 H1734 0.950 . S
C1757 C1756 1.334 . S
C1757 C1758 1.287 . S
C1758 C1757 1.287 . S
C1758 C1759 1.524 . S
C1758 H1777 0.913 . S
C1759 H1735 0.950 . S
C1759 C1758 1.524 . S
C1759 C1760 1.415 . S
C1760 H1736 0.950 . S
C1760 C1755 1.363 . S
C1760 C1759 1.415 . S
C1761 H1737 0.951 . S
C1761 C1762 1.366 . S
C1761 C1763 1.388 . S
C1762 C1761 1.366 . S
C1762 C1766 1.385 1_655 S
C1763 H1738 0.951 . S
C1763 C1761 1.388 . S
C1763 C1764 1.366 . S
C1764 C1763 1.366 . S
C1764 C1765 1.414 1_655 S
C1764 C1767 1.499 . S
C1765 H1739 0.950 . S
C1765 C1764 1.414 1_455 S
C1765 C1766 1.374 . S
C1766 H1740 0.950 . S
C1766 C1762 1.385 1_455 S
C1766 C1765 1.374 . S
C1767 C1764 1.499 . S
C1767 C1768 1.373 1_655 S
C1767 C1769 1.389 . S
C1768 H1741 0.950 . S
C1768 C1754 1.377 . S
C1768 C1767 1.373 1_455 S
C1769 C1753 1.377 . S
C1769 C1767 1.389 . S
C1769 C1770 1.524 . S
C1770 C1769 1.524 . S
C1770 C1771 1.397 . S
C1770 C1775 1.363 . S
C1771 H1742 0.950 . S
C1771 C1770 1.397 . S
C1771 C1772 1.334 . S
C1772 H1743 0.950 . S
C1772 C1771 1.334 . S
C1772 C1773 1.287 . S
C1773 C1772 1.287 . S
C1773 C1774 1.524 . S
C1773 H1776 0.999 . S
C1774 H1744 0.950 . S
C1774 C1773 1.524 . S
C1774 C1775 1.415 . S
C1775 H1745 0.950 . S
C1775 C1770 1.363 . S
C1775 C1774 1.415 . S
H1776 C1773 0.999 . S
H1777 C1758 0.913 . S
H1778 C1796 0.951 . S
H1779 C1798 0.951 . S
H1780 C1800 0.950 . S
H1781 C1801 0.950 . S
H1782 C1803 0.950 . S
H1783 C1806 0.950 . S
H1784 C1807 0.950 . S
H1785 C1809 0.950 . S
H1786 C1810 0.950 . S
H1787 C1811 0.951 . S
H1788 C1813 0.951 . S
H1789 C1815 0.950 . S
H1790 C1816 0.950 . S
H1791 C1818 0.950 . S
H1792 C1821 0.950 . S
H1793 C1822 0.950 . S
H1794 C1824 0.950 . S
H1795 C1825 0.950 . S
C1796 H1778 0.951 . S
C1796 C1797 1.366 1_565 S
C1796 C1798 1.388 . S
C1797 C1796 1.366 1_545 S
C1797 C1801 1.385 . S
C1798 H1779 0.951 . S
C1798 C1796 1.388 . S
C1798 C1799 1.366 1_565 S
C1799 C1798 1.366 1_545 S
C1799 C1800 1.414 . S
C1799 C1802 1.499 . S
C1800 H1780 0.950 . S
C1800 C1799 1.414 . S
C1800 C1801 1.374 . S
C1801 H1781 0.950 . S
C1801 C1797 1.385 . S
C1801 C1800 1.374 . S
C1802 C1799 1.499 . S
C1802 C1803 1.373 . S
C1802 C1804 1.389 1_545 S
C1803 H1782 0.950 . S
C1803 C1802 1.373 . S
C1803 C1819 1.377 . S
C1804 C1802 1.389 1_565 S
C1804 C1805 1.524 . S
C1804 C1818 1.377 . S
C1805 C1804 1.524 . S
C1805 C1806 1.397 . S
C1805 C1810 1.363 . S
C1806 H1783 0.950 . S
C1806 C1805 1.397 . S
C1806 C1807 1.334 . S
C1807 H1784 0.950 . S
C1807 C1806 1.334 . S
C1807 C1808 1.287 . S
C1808 C1807 1.287 . S
C1808 C1809 1.524 . S
C1808 H1827 0.913 . S
C1809 H1785 0.950 . S
C1809 C1808 1.524 . S
C1809 C1810 1.415 . S
C1810 H1786 0.950 . S
C1810 C1805 1.363 . S
C1810 C1809 1.415 . S
C1811 H1787 0.951 . S
C1811 C1812 1.366 1_545 S
C1811 C1813 1.388 . S
C1812 C1811 1.366 1_565 S
C1812 C1816 1.385 . S
C1813 H1788 0.951 . S
C1813 C1811 1.388 . S
C1813 C1814 1.366 1_545 S
C1814 C1813 1.366 1_565 S
C1814 C1815 1.414 . S
C1814 C1817 1.499 . S
C1815 H1789 0.950 . S
C1815 C1814 1.414 . S
C1815 C1816 1.374 . S
C1816 H1790 0.950 . S
C1816 C1812 1.385 . S
C1816 C1815 1.374 . S
C1817 C1814 1.499 . S
C1817 C1818 1.373 . S
C1817 C1819 1.389 1_565 S
C1818 H1791 0.950 . S
C1818 C1804 1.377 . S
C1818 C1817 1.373 . S
C1819 C1803 1.377 . S
C1819 C1817 1.389 1_545 S
C1819 C1820 1.524 . S
C1820 C1819 1.524 . S
C1820 C1821 1.397 . S
C1820 C1825 1.363 . S
C1821 H1792 0.950 . S
C1821 C1820 1.397 . S
C1821 C1822 1.334 . S
C1822 H1793 0.950 . S
C1822 C1821 1.334 . S
C1822 C1823 1.287 . S
C1823 C1822 1.287 . S
C1823 C1824 1.524 . S
C1823 H1826 0.999 . S
C1824 H1794 0.950 . S
C1824 C1823 1.524 . S
C1824 C1825 1.415 . S
C1825 H1795 0.950 . S
C1825 C1820 1.363 . S
C1825 C1824 1.415 . S
H1826 C1823 0.999 . S
H1827 C1808 0.913 . S
H1828 C1846 0.951 . S
H1829 C1848 0.951 . S
H1830 C1850 0.950 . S
H1831 C1851 0.950 . S
H1832 C1853 0.950 . S
H1833 C1856 0.950 . S
H1834 C1857 0.950 . S
H1835 C1859 0.950 . S
H1836 C1860 0.950 . S
H1837 C1861 0.951 . S
H1838 C1863 0.951 . S
H1839 C1865 0.950 . S
H1840 C1866 0.950 . S
H1841 C1868 0.950 . S
H1842 C1871 0.950 . S
H1843 C1872 0.950 . S
H1844 C1874 0.950 . S
H1845 C1875 0.950 . S
C1846 H1828 0.951 . S
C1846 C1847 1.366 1_455 S
C1846 C1848 1.388 . S
C1847 C1846 1.366 1_655 S
C1847 C1851 1.385 . S
C1848 H1829 0.951 . S
C1848 C1846 1.388 . S
C1848 C1849 1.366 1_455 S
C1849 C1848 1.366 1_655 S
C1849 C1850 1.414 . S
C1849 C1852 1.499 . S
C1850 H1830 0.950 . S
C1850 C1849 1.414 . S
C1850 C1851 1.374 . S
C1851 H1831 0.950 . S
C1851 C1847 1.385 . S
C1851 C1850 1.374 . S
C1852 C1849 1.499 . S
C1852 C1853 1.373 . S
C1852 C1854 1.389 1_655 S
C1853 H1832 0.950 . S
C1853 C1852 1.373 . S
C1853 C1869 1.377 1_545 S
C1854 C1852 1.389 1_455 S
C1854 C1855 1.524 . S
C1854 C1868 1.377 1_545 S
C1855 C1854 1.524 . S
C1855 C1856 1.397 1_455 S
C1855 C1860 1.363 . S
C1856 H1833 0.950 . S
C1856 C1855 1.397 1_655 S
C1856 C1857 1.334 . S
C1857 H1834 0.950 . S
C1857 C1856 1.334 . S
C1857 C1858 1.280 1_655 S
C1858 C1857 1.280 1_455 S
C1858 C1859 1.531 . S
C1858 H1877 0.913 1_455 S
C1859 H1835 0.950 . S
C1859 C1858 1.531 . S
C1859 C1860 1.415 . S
C1860 H1836 0.950 . S
C1860 C1855 1.363 . S
C1860 C1859 1.415 . S
C1861 H1837 0.951 . S
C1861 C1862 1.366 1_655 S
C1861 C1863 1.388 . S
C1862 C1861 1.366 1_455 S
C1862 C1866 1.385 . S
C1863 H1838 0.951 . S
C1863 C1861 1.388 . S
C1863 C1864 1.366 1_655 S
C1864 C1863 1.366 1_455 S
C1864 C1865 1.414 . S
C1864 C1867 1.499 . S
C1865 H1839 0.950 . S
C1865 C1864 1.414 . S
C1865 C1866 1.374 . S
C1866 H1840 0.950 . S
C1866 C1862 1.385 . S
C1866 C1865 1.374 . S
C1867 C1864 1.499 . S
C1867 C1868 1.373 . S
C1867 C1869 1.389 1_455 S
C1868 H1841 0.950 . S
C1868 C1854 1.377 1_565 S
C1868 C1867 1.373 . S
C1869 C1853 1.377 1_565 S
C1869 C1867 1.389 1_655 S
C1869 C1870 1.524 . S
C1870 C1869 1.524 . S
C1870 C1871 1.397 1_655 S
C1870 C1875 1.363 . S
C1871 H1842 0.950 . S
C1871 C1870 1.397 1_455 S
C1871 C1872 1.334 . S
C1872 H1843 0.950 . S
C1872 C1871 1.334 . S
C1872 C1873 1.280 1_455 S
C1873 C1872 1.280 1_655 S
C1873 C1874 1.531 . S
C1873 H1876 0.999 . S
C1874 H1844 0.950 . S
C1874 C1873 1.531 . S
C1874 C1875 1.415 . S
C1875 H1845 0.950 . S
C1875 C1870 1.363 . S
C1875 C1874 1.415 . S
H1876 C1873 0.999 . S
H1877 C1858 0.913 1_655 S
H1878 C1896 0.951 . S
H1879 C1898 0.951 . S
H1880 C1900 0.950 . S
H1881 C1901 0.950 . S
H1882 C1903 0.950 . S
H1883 C1906 0.950 . S
H1884 C1907 0.950 . S
H1885 C1909 0.950 . S
H1886 C1910 0.950 . S
H1887 C1911 0.951 . S
H1888 C1913 0.951 . S
H1889 C1915 0.950 . S
H1890 C1916 0.950 . S
H1891 C1918 0.950 . S
H1892 C1921 0.950 . S
H1893 C1922 0.950 . S
H1894 C1924 0.950 . S
H1895 C1925 0.950 . S
C1896 H1878 0.951 . S
C1896 C1897 1.366 1_545 S
C1896 C1898 1.388 . S
C1897 C1896 1.366 1_565 S
C1897 C1901 1.385 . S
C1898 H1879 0.951 . S
C1898 C1896 1.388 . S
C1898 C1899 1.366 1_545 S
C1899 C1898 1.366 1_565 S
C1899 C1900 1.414 . S
C1899 C1902 1.499 . S
C1900 H1880 0.950 . S
C1900 C1899 1.414 . S
C1900 C1901 1.374 . S
C1901 H1881 0.950 . S
C1901 C1897 1.385 . S
C1901 C1900 1.374 . S
C1902 C1899 1.499 . S
C1902 C1903 1.373 . S
C1902 C1904 1.389 1_565 S
C1903 H1882 0.950 . S
C1903 C1902 1.373 . S
C1903 C1919 1.377 1_655 S
C1904 C1902 1.389 1_545 S
C1904 C1905 1.524 . S
C1904 C1918 1.377 1_655 S
C1905 C1904 1.524 . S
C1905 C1906 1.397 1_545 S
C1905 C1910 1.363 . S
C1906 H1883 0.950 . S
C1906 C1905 1.397 1_565 S
C1906 C1907 1.334 . S
C1907 H1884 0.950 . S
C1907 C1906 1.334 . S
C1907 C1908 1.292 . S
C1908 C1907 1.292 . S
C1908 C1909 1.519 1_565 S
C1908 H1927 0.913 . S
C1909 H1885 0.950 . S
C1909 C1908 1.519 1_545 S
C1909 C1910 1.415 . S
C1910 H1886 0.950 . S
C1910 C1905 1.363 . S
C1910 C1909 1.415 . S
C1911 H1887 0.951 . S
C1911 C1912 1.366 1_565 S
C1911 C1913 1.388 . S
C1912 C1911 1.366 1_545 S
C1912 C1916 1.385 . S
C1913 H1888 0.951 . S
C1913 C1911 1.388 . S
C1913 C1914 1.366 1_565 S
C1914 C1913 1.366 1_545 S
C1914 C1915 1.414 . S
C1914 C1917 1.499 . S
C1915 H1889 0.950 . S
C1915 C1914 1.414 . S
C1915 C1916 1.374 . S
C1916 H1890 0.950 . S
C1916 C1912 1.385 . S
C1916 C1915 1.374 . S
C1917 C1914 1.499 . S
C1917 C1918 1.373 . S
C1917 C1919 1.389 1_545 S
C1918 H1891 0.950 . S
C1918 C1904 1.377 1_455 S
C1918 C1917 1.373 . S
C1919 C1903 1.377 1_455 S
C1919 C1917 1.389 1_565 S
C1919 C1920 1.524 . S
C1920 C1919 1.524 . S
C1920 C1921 1.397 1_565 S
C1920 C1925 1.363 . S
C1921 H1892 0.950 . S
C1921 C1920 1.397 1_545 S
C1921 C1922 1.334 . S
C1922 H1893 0.950 . S
C1922 C1921 1.334 . S
C1922 C1923 1.292 . S
C1923 C1922 1.292 . S
C1923 C1924 1.519 1_545 S
C1923 H1926 0.999 1_545 S
C1924 H1894 0.950 . S
C1924 C1923 1.519 1_565 S
C1924 C1925 1.415 . S
C1925 H1895 0.950 . S
C1925 C1920 1.363 . S
C1925 C1924 1.415 . S
H1926 C1923 0.999 1_565 S
H1927 C1908 0.913 . S
H1928 C1946 0.951 . S
H1929 C1948 0.951 . S
H1930 C1950 0.950 . S
H1931 C1951 0.950 . S
H1932 C1953 0.950 . S
H1933 C1956 0.950 . S
H1934 C1957 0.950 . S
H1935 C1959 0.950 . S
H1936 C1960 0.950 . S
H1937 C1961 0.951 . S
H1938 C1963 0.951 . S
H1939 C1965 0.950 . S
H1940 C1966 0.950 . S
H1941 C1968 0.950 . S
H1942 C1971 0.950 . S
H1943 C1972 0.950 . S
H1944 C1974 0.950 . S
H1945 C1975 0.950 . S
C1946 H1928 0.951 . S
C1946 C1947 1.366 . S
C1946 C1948 1.388 . S
C1947 C1946 1.366 . S
C1947 C1951 1.385 . S
C1948 H1929 0.951 . S
C1948 C1946 1.388 . S
C1948 C1949 1.366 . S
C1949 C1948 1.366 . S
C1949 C1950 1.414 . S
C1949 C1952 1.499 . S
C1950 H1930 0.950 . S
C1950 C1949 1.414 . S
C1950 C1951 1.374 . S
C1951 H1931 0.950 . S
C1951 C1947 1.385 . S
C1951 C1950 1.374 . S
C1952 C1949 1.499 . S
C1952 C1953 1.373 . S
C1952 C1954 1.389 . S
C1953 H1932 0.950 . S
C1953 C1952 1.373 . S
C1953 C1969 1.377 1_545 S
C1954 C1952 1.389 . S
C1954 C1955 1.524 . S
C1954 C1968 1.377 1_545 S
C1955 C1954 1.524 . S
C1955 C1956 1.397 . S
C1955 C1960 1.363 . S
C1956 H1933 0.950 . S
C1956 C1955 1.397 . S
C1956 C1957 1.334 . S
C1957 H1934 0.950 . S
C1957 C1956 1.334 . S
C1957 C1958 1.287 . S
C1958 C1957 1.287 . S
C1958 C1959 1.524 . S
C1958 H1977 0.913 . S
C1959 H1935 0.950 . S
C1959 C1958 1.524 . S
C1959 C1960 1.415 . S
C1960 H1936 0.950 . S
C1960 C1955 1.363 . S
C1960 C1959 1.415 . S
C1961 H1937 0.951 . S
C1961 C1962 1.366 . S
C1961 C1963 1.388 . S
C1962 C1961 1.366 . S
C1962 C1966 1.385 . S
C1963 H1938 0.951 . S
C1963 C1961 1.388 . S
C1963 C1964 1.366 . S
C1964 C1963 1.366 . S
C1964 C1965 1.414 . S
C1964 C1967 1.499 . S
C1965 H1939 0.950 . S
C1965 C1964 1.414 . S
C1965 C1966 1.374 . S
C1966 H1940 0.950 . S
C1966 C1962 1.385 . S
C1966 C1965 1.374 . S
C1967 C1964 1.499 . S
C1967 C1968 1.373 . S
C1967 C1969 1.389 . S
C1968 H1941 0.950 . S
C1968 C1954 1.377 1_565 S
C1968 C1967 1.373 . S
C1969 C1953 1.377 1_565 S
C1969 C1967 1.389 . S
C1969 C1970 1.524 . S
C1970 C1969 1.524 . S
C1970 C1971 1.397 . S
C1970 C1975 1.363 . S
C1971 H1942 0.950 . S
C1971 C1970 1.397 . S
C1971 C1972 1.334 . S
C1972 H1943 0.950 . S
C1972 C1971 1.334 . S
C1972 C1973 1.287 . S
C1973 C1972 1.287 . S
C1973 C1974 1.524 . S
C1973 H1976 0.999 . S
C1974 H1944 0.950 . S
C1974 C1973 1.524 . S
C1974 C1975 1.415 . S
C1975 H1945 0.950 . S
C1975 C1970 1.363 . S
C1975 C1974 1.415 . S
H1976 C1973 0.999 . S
H1977 C1958 0.913 . S
H1978 C1996 0.951 . S
H1979 C1998 0.951 . S
H1980 C2000 0.950 . S
H1981 C2001 0.950 . S
H1982 C2003 0.950 . S
H1983 C2006 0.950 . S
H1984 C2007 0.950 . S
H1985 C2009 0.950 . S
H1986 C2010 0.950 . S
H1987 C2011 0.951 . S
H1988 C2013 0.951 . S
H1989 C2015 0.950 . S
H1990 C2016 0.950 . S
H1991 C2018 0.950 . S
H1992 C2021 0.950 . S
H1993 C2022 0.950 . S
H1994 C2024 0.950 . S
H1995 C2025 0.950 . S
C1996 H1978 0.951 . S
C1996 C1997 1.366 . S
C1996 C1998 1.388 . S
C1997 C1996 1.366 . S
C1997 C2001 1.385 . S
C1998 H1979 0.951 . S
C1998 C1996 1.388 . S
C1998 C1999 1.366 . S
C1999 C1998 1.366 . S
C1999 C2000 1.414 . S
C1999 C2002 1.499 . S
C2000 H1980 0.950 . S
C2000 C1999 1.414 . S
C2000 C2001 1.374 . S
C2001 H1981 0.950 . S
C2001 C1997 1.385 . S
C2001 C2000 1.374 . S
C2002 C1999 1.499 . S
C2002 C2003 1.373 . S
C2002 C2004 1.389 . S
C2003 H1982 0.950 . S
C2003 C2002 1.373 . S
C2003 C2019 1.377 1_655 S
C2004 C2002 1.389 . S
C2004 C2005 1.524 . S
C2004 C2018 1.377 1_655 S
C2005 C2004 1.524 . S
C2005 C2006 1.397 . S
C2005 C2010 1.363 . S
C2006 H1983 0.950 . S
C2006 C2005 1.397 . S
C2006 C2007 1.334 . S
C2007 H1984 0.950 . S
C2007 C2006 1.334 . S
C2007 C2008 1.287 . S
C2008 C2007 1.287 . S
C2008 C2009 1.524 . S
C2008 H2027 0.913 . S
C2009 H1985 0.950 . S
C2009 C2008 1.524 . S
C2009 C2010 1.415 . S
C2010 H1986 0.950 . S
C2010 C2005 1.363 . S
C2010 C2009 1.415 . S
C2011 H1987 0.951 . S
C2011 C2012 1.366 . S
C2011 C2013 1.388 . S
C2012 C2011 1.366 . S
C2012 C2016 1.385 . S
C2013 H1988 0.951 . S
C2013 C2011 1.388 . S
C2013 C2014 1.366 . S
C2014 C2013 1.366 . S
C2014 C2015 1.414 . S
C2014 C2017 1.499 . S
C2015 H1989 0.950 . S
C2015 C2014 1.414 . S
C2015 C2016 1.374 . S
C2016 H1990 0.950 . S
C2016 C2012 1.385 . S
C2016 C2015 1.374 . S
C2017 C2014 1.499 . S
C2017 C2018 1.373 . S
C2017 C2019 1.389 . S
C2018 H1991 0.950 . S
C2018 C2004 1.377 1_455 S
C2018 C2017 1.373 . S
C2019 C2003 1.377 1_455 S
C2019 C2017 1.389 . S
C2019 C2020 1.524 . S
C2020 C2019 1.524 . S
C2020 C2021 1.397 . S
C2020 C2025 1.363 . S
C2021 H1992 0.950 . S
C2021 C2020 1.397 . S
C2021 C2022 1.334 . S
C2022 H1993 0.950 . S
C2022 C2021 1.334 . S
C2022 C2023 1.287 . S
C2023 C2022 1.287 . S
C2023 C2024 1.524 . S
C2023 H2026 0.999 . S
C2024 H1994 0.950 . S
C2024 C2023 1.524 . S
C2024 C2025 1.415 . S
C2025 H1995 0.950 . S
C2025 C2020 1.363 . S
C2025 C2024 1.415 . S
H2026 C2023 0.999 . S
H2027 C2008 0.913 . S
H2028 C2046 0.951 . S
H2029 C2048 0.951 . S
H2030 C2050 0.950 . S
H2031 C2051 0.950 . S
H2032 C2053 0.950 . S
H2033 C2056 0.950 . S
H2034 C2057 0.950 . S
H2035 C2059 0.950 . S
H2036 C2060 0.950 . S
H2037 C2061 0.951 . S
H2038 C2063 0.951 . S
H2039 C2065 0.950 . S
H2040 C2066 0.950 . S
H2041 C2068 0.950 . S
H2042 C2071 0.950 . S
H2043 C2072 0.950 . S
H2044 C2074 0.950 . S
H2045 C2075 0.950 . S
C2046 H2028 0.951 . S
C2046 C2047 1.366 . S
C2046 C2048 1.388 . S
C2047 C2046 1.366 . S
C2047 C2051 1.385 . S
C2048 H2029 0.951 . S
C2048 C2046 1.388 . S
C2048 C2049 1.366 . S
C2049 C2048 1.366 . S
C2049 C2050 1.414 . S
C2049 C2052 1.499 . S
C2050 H2030 0.950 . S
C2050 C2049 1.414 . S
C2050 C2051 1.374 . S
C2051 H2031 0.950 . S
C2051 C2047 1.385 . S
C2051 C2050 1.374 . S
C2052 C2049 1.499 . S
C2052 C2053 1.373 . S
C2052 C2054 1.389 . S
C2053 H2032 0.950 . S
C2053 C2052 1.373 . S
C2053 C2069 1.377 . S
C2054 C2052 1.389 . S
C2054 C2055 1.524 . S
C2054 C2068 1.377 . S
C2055 C2054 1.524 . S
C2055 C2056 1.397 . S
C2055 C2060 1.363 . S
C2056 H2033 0.950 . S
C2056 C2055 1.397 . S
C2056 C2057 1.334 . S
C2057 H2034 0.950 . S
C2057 C2056 1.334 . S
C2057 C2058 1.287 . S
C2058 C2057 1.287 . S
C2058 C2059 1.524 . S
C2058 H2077 0.913 . S
C2059 H2035 0.950 . S
C2059 C2058 1.524 . S
C2059 C2060 1.415 . S
C2060 H2036 0.950 . S
C2060 C2055 1.363 . S
C2060 C2059 1.415 . S
C2061 H2037 0.951 . S
C2061 C2062 1.366 . S
C2061 C2063 1.388 . S
C2062 C2061 1.366 . S
C2062 C2066 1.385 . S
C2063 H2038 0.951 . S
C2063 C2061 1.388 . S
C2063 C2064 1.366 . S
C2064 C2063 1.366 . S
C2064 C2065 1.414 . S
C2064 C2067 1.499 . S
C2065 H2039 0.950 . S
C2065 C2064 1.414 . S
C2065 C2066 1.374 . S
C2066 H2040 0.950 . S
C2066 C2062 1.385 . S
C2066 C2065 1.374 . S
C2067 C2064 1.499 . S
C2067 C2068 1.373 . S
C2067 C2069 1.389 . S
C2068 H2041 0.950 . S
C2068 C2054 1.377 . S
C2068 C2067 1.373 . S
C2069 C2053 1.377 . S
C2069 C2067 1.389 . S
C2069 C2070 1.524 . S
C2070 C2069 1.524 . S
C2070 C2071 1.397 . S
C2070 C2075 1.363 . S
C2071 H2042 0.950 . S
C2071 C2070 1.397 . S
C2071 C2072 1.334 . S
C2072 H2043 0.950 . S
C2072 C2071 1.334 . S
C2072 C2073 1.287 . S
C2073 C2072 1.287 . S
C2073 C2074 1.524 . S
C2073 H2076 0.999 . S
C2074 H2044 0.950 . S
C2074 C2073 1.524 . S
C2074 C2075 1.415 . S
C2075 H2045 0.950 . S
C2075 C2070 1.363 . S
C2075 C2074 1.415 . S
H2076 C2073 0.999 . S
H2077 C2058 0.913 . S
H2078 C2096 0.951 . S
H2079 C2098 0.951 . S
H2080 C2100 0.950 . S
H2081 C2101 0.950 . S
H2082 C2103 0.950 . S
H2083 C2106 0.950 . S
H2084 C2107 0.950 . S
H2085 C2109 0.950 . S
H2086 C2110 0.950 . S
H2087 C2111 0.951 . S
H2088 C2113 0.951 . S
H2089 C2115 0.950 . S
H2090 C2116 0.950 . S
H2091 C2118 0.950 . S
H2092 C2121 0.950 . S
H2093 C2122 0.950 . S
H2094 C2124 0.950 . S
H2095 C2125 0.950 . S
C2096 H2078 0.951 . S
C2096 C2097 1.366 . S
C2096 C2098 1.388 . S
C2097 C2096 1.366 . S
C2097 C2101 1.385 . S
C2098 H2079 0.951 . S
C2098 C2096 1.388 . S
C2098 C2099 1.366 . S
C2099 C2098 1.366 . S
C2099 C2100 1.414 . S
C2099 C2102 1.499 . S
C2100 H2080 0.950 . S
C2100 C2099 1.414 . S
C2100 C2101 1.374 . S
C2101 H2081 0.950 . S
C2101 C2097 1.385 . S
C2101 C2100 1.374 . S
C2102 C2099 1.499 . S
C2102 C2103 1.373 . S
C2102 C2104 1.389 . S
C2103 H2082 0.950 . S
C2103 C2102 1.373 . S
C2103 C2119 1.377 . S
C2104 C2102 1.389 . S
C2104 C2105 1.524 . S
C2104 C2118 1.377 . S
C2105 C2104 1.524 . S
C2105 C2106 1.397 . S
C2105 C2110 1.363 . S
C2106 H2083 0.950 . S
C2106 C2105 1.397 . S
C2106 C2107 1.334 . S
C2107 H2084 0.950 . S
C2107 C2106 1.334 . S
C2107 C2108 1.287 . S
C2108 C2107 1.287 . S
C2108 C2109 1.524 . S
C2108 H2127 0.913 . S
C2109 H2085 0.950 . S
C2109 C2108 1.524 . S
C2109 C2110 1.415 . S
C2110 H2086 0.950 . S
C2110 C2105 1.363 . S
C2110 C2109 1.415 . S
C2111 H2087 0.951 . S
C2111 C2112 1.366 . S
C2111 C2113 1.388 . S
C2112 C2111 1.366 . S
C2112 C2116 1.385 . S
C2113 H2088 0.951 . S
C2113 C2111 1.388 . S
C2113 C2114 1.366 . S
C2114 C2113 1.366 . S
C2114 C2115 1.414 . S
C2114 C2117 1.499 . S
C2115 H2089 0.950 . S
C2115 C2114 1.414 . S
C2115 C2116 1.374 . S
C2116 H2090 0.950 . S
C2116 C2112 1.385 . S
C2116 C2115 1.374 . S
C2117 C2114 1.499 . S
C2117 C2118 1.373 . S
C2117 C2119 1.389 . S
C2118 H2091 0.950 . S
C2118 C2104 1.377 . S
C2118 C2117 1.373 . S
C2119 C2103 1.377 . S
C2119 C2117 1.389 . S
C2119 C2120 1.524 . S
C2120 C2119 1.524 . S
C2120 C2121 1.397 . S
C2120 C2125 1.363 . S
C2121 H2092 0.950 . S
C2121 C2120 1.397 . S
C2121 C2122 1.334 . S
C2122 H2093 0.950 . S
C2122 C2121 1.334 . S
C2122 C2123 1.287 . S
C2123 C2122 1.287 . S
C2123 C2124 1.524 . S
C2123 H2126 0.999 . S
C2124 H2094 0.950 . S
C2124 C2123 1.524 . S
C2124 C2125 1.415 . S
C2125 H2095 0.950 . S
C2125 C2120 1.363 . S
C2125 C2124 1.415 . S
H2126 C2123 0.999 . S
H2127 C2108 0.913 . S
H2128 C2146 0.951 . S
H2129 C2148 0.951 . S
H2130 C2150 0.950 . S
H2131 C2151 0.950 . S
H2132 C2153 0.950 . S
H2133 C2156 0.950 . S
H2134 C2157 0.950 . S
H2135 C2159 0.950 . S
H2136 C2160 0.950 . S
H2137 C2161 0.951 . S
H2138 C2163 0.951 . S
H2139 C2165 0.950 . S
H2140 C2166 0.950 . S
H2141 C2168 0.950 . S
H2142 C2171 0.950 . S
H2143 C2172 0.950 . S
H2144 C2174 0.950 . S
H2145 C2175 0.950 . S
C2146 H2128 0.951 . S
C2146 C2147 1.366 . S
C2146 C2148 1.388 . S
C2147 C2146 1.366 . S
C2147 C2151 1.385 . S
C2148 H2129 0.951 . S
C2148 C2146 1.388 . S
C2148 C2149 1.366 . S
C2149 C2148 1.366 . S
C2149 C2150 1.414 . S
C2149 C2152 1.499 . S
C2150 H2130 0.950 . S
C2150 C2149 1.414 . S
C2150 C2151 1.374 . S
C2151 H2131 0.950 . S
C2151 C2147 1.385 . S
C2151 C2150 1.374 . S
C2152 C2149 1.499 . S
C2152 C2153 1.373 . S
C2152 C2154 1.389 . S
C2153 H2132 0.950 . S
C2153 C2152 1.373 . S
C2153 C2169 1.377 . S
C2154 C2152 1.389 . S
C2154 C2155 1.524 . S
C2154 C2168 1.377 . S
C2155 C2154 1.524 . S
C2155 C2156 1.397 . S
C2155 C2160 1.363 . S
C2156 H2133 0.950 . S
C2156 C2155 1.397 . S
C2156 C2157 1.334 . S
C2157 H2134 0.950 . S
C2157 C2156 1.334 . S
C2157 C2158 1.287 . S
C2158 C2157 1.287 . S
C2158 C2159 1.524 . S
C2158 H2177 0.913 . S
C2159 H2135 0.950 . S
C2159 C2158 1.524 . S
C2159 C2160 1.415 . S
C2160 H2136 0.950 . S
C2160 C2155 1.363 . S
C2160 C2159 1.415 . S
C2161 H2137 0.951 . S
C2161 C2162 1.366 . S
C2161 C2163 1.388 . S
C2162 C2161 1.366 . S
C2162 C2166 1.385 . S
C2163 H2138 0.951 . S
C2163 C2161 1.388 . S
C2163 C2164 1.366 . S
C2164 C2163 1.366 . S
C2164 C2165 1.414 . S
C2164 C2167 1.499 . S
C2165 H2139 0.950 . S
C2165 C2164 1.414 . S
C2165 C2166 1.374 . S
C2166 H2140 0.950 . S
C2166 C2162 1.385 . S
C2166 C2165 1.374 . S
C2167 C2164 1.499 . S
C2167 C2168 1.373 . S
C2167 C2169 1.389 . S
C2168 H2141 0.950 . S
C2168 C2154 1.377 . S
C2168 C2167 1.373 . S
C2169 C2153 1.377 . S
C2169 C2167 1.389 . S
C2169 C2170 1.524 . S
C2170 C2169 1.524 . S
C2170 C2171 1.397 . S
C2170 C2175 1.363 . S
C2171 H2142 0.950 . S
C2171 C2170 1.397 . S
C2171 C2172 1.334 . S
C2172 H2143 0.950 . S
C2172 C2171 1.334 . S
C2172 C2173 1.287 . S
C2173 C2172 1.287 . S
C2173 C2174 1.524 . S
C2173 H2176 0.999 . S
C2174 H2144 0.950 . S
C2174 C2173 1.524 . S
C2174 C2175 1.415 . S
C2175 H2145 0.950 . S
C2175 C2170 1.363 . S
C2175 C2174 1.415 . S
H2176 C2173 0.999 . S
H2177 C2158 0.913 . S
H2178 C2196 0.951 . S
H2179 C2198 0.951 . S
H2180 C2200 0.950 . S
H2181 C2201 0.950 . S
H2182 C2203 0.950 . S
H2183 C2206 0.950 . S
H2184 C2207 0.950 . S
H2185 C2209 0.950 . S
H2186 C2210 0.950 . S
H2187 C2211 0.951 . S
H2188 C2213 0.951 . S
H2189 C2215 0.950 . S
H2190 C2216 0.950 . S
H2191 C2218 0.950 . S
H2192 C2221 0.950 . S
H2193 C2222 0.950 . S
H2194 C2224 0.950 . S
H2195 C2225 0.950 . S
C2196 H2178 0.951 . S
C2196 C2197 1.366 . S
C2196 C2198 1.388 . S
C2197 C2196 1.366 . S
C2197 C2201 1.385 . S
C2198 H2179 0.951 . S
C2198 C2196 1.388 . S
C2198 C2199 1.366 . S
C2199 C2198 1.366 . S
C2199 C2200 1.414 . S
C2199 C2202 1.499 . S
C2200 H2180 0.950 . S
C2200 C2199 1.414 . S
C2200 C2201 1.374 . S
C2201 H2181 0.950 . S
C2201 C2197 1.385 . S
C2201 C2200 1.374 . S
C2202 C2199 1.499 . S
C2202 C2203 1.373 . S
C2202 C2204 1.389 . S
C2203 H2182 0.950 . S
C2203 C2202 1.373 . S
C2203 C2219 1.377 . S
C2204 C2202 1.389 . S
C2204 C2205 1.524 . S
C2204 C2218 1.377 . S
C2205 C2204 1.524 . S
C2205 C2206 1.397 . S
C2205 C2210 1.363 . S
C2206 H2183 0.950 . S
C2206 C2205 1.397 . S
C2206 C2207 1.334 . S
C2207 H2184 0.950 . S
C2207 C2206 1.334 . S
C2207 C2208 1.287 . S
C2208 C2207 1.287 . S
C2208 C2209 1.524 . S
C2208 H2227 0.913 . S
C2209 H2185 0.950 . S
C2209 C2208 1.524 . S
C2209 C2210 1.415 . S
C2210 H2186 0.950 . S
C2210 C2205 1.363 . S
C2210 C2209 1.415 . S
C2211 H2187 0.951 . S
C2211 C2212 1.366 . S
C2211 C2213 1.388 . S
C2212 C2211 1.366 . S
C2212 C2216 1.385 . S
C2213 H2188 0.951 . S
C2213 C2211 1.388 . S
C2213 C2214 1.366 . S
C2214 C2213 1.366 . S
C2214 C2215 1.414 . S
C2214 C2217 1.499 . S
C2215 H2189 0.950 . S
C2215 C2214 1.414 . S
C2215 C2216 1.374 . S
C2216 H2190 0.950 . S
C2216 C2212 1.385 . S
C2216 C2215 1.374 . S
C2217 C2214 1.499 . S
C2217 C2218 1.373 . S
C2217 C2219 1.389 . S
C2218 H2191 0.950 . S
C2218 C2204 1.377 . S
C2218 C2217 1.373 . S
C2219 C2203 1.377 . S
C2219 C2217 1.389 . S
C2219 C2220 1.524 . S
C2220 C2219 1.524 . S
C2220 C2221 1.397 . S
C2220 C2225 1.363 . S
C2221 H2192 0.950 . S
C2221 C2220 1.397 . S
C2221 C2222 1.334 . S
C2222 H2193 0.950 . S
C2222 C2221 1.334 . S
C2222 C2223 1.287 . S
C2223 C2222 1.287 . S
C2223 C2224 1.524 . S
C2223 H2226 0.999 . S
C2224 H2194 0.950 . S
C2224 C2223 1.524 . S
C2224 C2225 1.415 . S
C2225 H2195 0.950 . S
C2225 C2220 1.363 . S
C2225 C2224 1.415 . S
H2226 C2223 0.999 . S
H2227 C2208 0.913 . S
H2228 C2246 0.951 . S
H2229 C2248 0.951 . S
H2230 C2250 0.950 . S
H2231 C2251 0.950 . S
H2232 C2253 0.950 . S
H2233 C2256 0.950 . S
H2234 C2257 0.950 . S
H2235 C2259 0.950 . S
H2236 C2260 0.950 . S
H2237 C2261 0.951 . S
H2238 C2263 0.951 . S
H2239 C2265 0.950 . S
H2240 C2266 0.950 . S
H2241 C2268 0.950 . S
H2242 C2271 0.950 . S
H2243 C2272 0.950 . S
H2244 C2274 0.950 . S
H2245 C2275 0.950 . S
C2246 H2228 0.951 . S
C2246 C2247 1.366 . S
C2246 C2248 1.388 . S
C2247 C2246 1.366 . S
C2247 C2251 1.385 . S
C2248 H2229 0.951 . S
C2248 C2246 1.388 . S
C2248 C2249 1.366 . S
C2249 C2248 1.366 . S
C2249 C2250 1.414 . S
C2249 C2252 1.499 . S
C2250 H2230 0.950 . S
C2250 C2249 1.414 . S
C2250 C2251 1.374 . S
C2251 H2231 0.950 . S
C2251 C2247 1.385 . S
C2251 C2250 1.374 . S
C2252 C2249 1.499 . S
C2252 C2253 1.373 . S
C2252 C2254 1.389 . S
C2253 H2232 0.950 . S
C2253 C2252 1.373 . S
C2253 C2269 1.377 . S
C2254 C2252 1.389 . S
C2254 C2255 1.524 . S
C2254 C2268 1.377 . S
C2255 C2254 1.524 . S
C2255 C2256 1.397 . S
C2255 C2260 1.363 . S
C2256 H2233 0.950 . S
C2256 C2255 1.397 . S
C2256 C2257 1.334 . S
C2257 H2234 0.950 . S
C2257 C2256 1.334 . S
C2257 C2258 1.287 . S
C2258 C2257 1.287 . S
C2258 C2259 1.524 . S
C2258 H2277 0.913 . S
C2259 H2235 0.950 . S
C2259 C2258 1.524 . S
C2259 C2260 1.415 . S
C2260 H2236 0.950 . S
C2260 C2255 1.363 . S
C2260 C2259 1.415 . S
C2261 H2237 0.951 . S
C2261 C2262 1.366 . S
C2261 C2263 1.388 . S
C2262 C2261 1.366 . S
C2262 C2266 1.385 . S
C2263 H2238 0.951 . S
C2263 C2261 1.388 . S
C2263 C2264 1.366 . S
C2264 C2263 1.366 . S
C2264 C2265 1.414 . S
C2264 C2267 1.499 . S
C2265 H2239 0.950 . S
C2265 C2264 1.414 . S
C2265 C2266 1.374 . S
C2266 H2240 0.950 . S
C2266 C2262 1.385 . S
C2266 C2265 1.374 . S
C2267 C2264 1.499 . S
C2267 C2268 1.373 . S
C2267 C2269 1.389 . S
C2268 H2241 0.950 . S
C2268 C2254 1.377 . S
C2268 C2267 1.373 . S
C2269 C2253 1.377 . S
C2269 C2267 1.389 . S
C2269 C2270 1.524 . S
C2270 C2269 1.524 . S
C2270 C2271 1.397 . S
C2270 C2275 1.363 . S
C2271 H2242 0.950 . S
C2271 C2270 1.397 . S
C2271 C2272 1.334 . S
C2272 H2243 0.950 . S
C2272 C2271 1.334 . S
C2272 C2273 1.287 . S
C2273 C2272 1.287 . S
C2273 C2274 1.524 . S
C2273 H2276 0.999 . S
C2274 H2244 0.950 . S
C2274 C2273 1.524 . S
C2274 C2275 1.415 . S
C2275 H2245 0.950 . S
C2275 C2270 1.363 . S
C2275 C2274 1.415 . S
H2276 C2273 0.999 . S
H2277 C2258 0.913 . S
H2278 C2296 0.951 . S
H2279 C2298 0.951 . S
H2280 C2300 0.950 . S
H2281 C2301 0.950 . S
H2282 C2303 0.950 . S
H2283 C2306 0.950 . S
H2284 C2307 0.950 . S
H2285 C2309 0.950 . S
H2286 C2310 0.950 . S
H2287 C2311 0.951 . S
H2288 C2313 0.951 . S
H2289 C2315 0.950 . S
H2290 C2316 0.950 . S
H2291 C2318 0.950 . S
H2292 C2321 0.950 . S
H2293 C2322 0.950 . S
H2294 C2324 0.950 . S
H2295 C2325 0.950 . S
C2296 H2278 0.951 . S
C2296 C2297 1.366 . S
C2296 C2298 1.388 . S
C2297 C2296 1.366 . S
C2297 C2301 1.385 . S
C2298 H2279 0.951 . S
C2298 C2296 1.388 . S
C2298 C2299 1.366 . S
C2299 C2298 1.366 . S
C2299 C2300 1.414 . S
C2299 C2302 1.499 . S
C2300 H2280 0.950 . S
C2300 C2299 1.414 . S
C2300 C2301 1.374 . S
C2301 H2281 0.950 . S
C2301 C2297 1.385 . S
C2301 C2300 1.374 . S
C2302 C2299 1.499 . S
C2302 C2303 1.373 . S
C2302 C2304 1.389 . S
C2303 H2282 0.950 . S
C2303 C2302 1.373 . S
C2303 C2319 1.377 . S
C2304 C2302 1.389 . S
C2304 C2305 1.524 . S
C2304 C2318 1.377 . S
C2305 C2304 1.524 . S
C2305 C2306 1.397 . S
C2305 C2310 1.363 . S
C2306 H2283 0.950 . S
C2306 C2305 1.397 . S
C2306 C2307 1.334 . S
C2307 H2284 0.950 . S
C2307 C2306 1.334 . S
C2307 C2308 1.287 . S
C2308 C2307 1.287 . S
C2308 C2309 1.524 . S
C2308 H2327 0.913 . S
C2309 H2285 0.950 . S
C2309 C2308 1.524 . S
C2309 C2310 1.415 . S
C2310 H2286 0.950 . S
C2310 C2305 1.363 . S
C2310 C2309 1.415 . S
C2311 H2287 0.951 . S
C2311 C2312 1.366 . S
C2311 C2313 1.388 . S
C2312 C2311 1.366 . S
C2312 C2316 1.385 . S
C2313 H2288 0.951 . S
C2313 C2311 1.388 . S
C2313 C2314 1.366 . S
C2314 C2313 1.366 . S
C2314 C2315 1.414 . S
C2314 C2317 1.499 . S
C2315 H2289 0.950 . S
C2315 C2314 1.414 . S
C2315 C2316 1.374 . S
C2316 H2290 0.950 . S
C2316 C2312 1.385 . S
C2316 C2315 1.374 . S
C2317 C2314 1.499 . S
C2317 C2318 1.373 . S
C2317 C2319 1.389 . S
C2318 H2291 0.950 . S
C2318 C2304 1.377 . S
C2318 C2317 1.373 . S
C2319 C2303 1.377 . S
C2319 C2317 1.389 . S
C2319 C2320 1.524 . S
C2320 C2319 1.524 . S
C2320 C2321 1.397 . S
C2320 C2325 1.363 . S
C2321 H2292 0.950 . S
C2321 C2320 1.397 . S
C2321 C2322 1.334 . S
C2322 H2293 0.950 . S
C2322 C2321 1.334 . S
C2322 C2323 1.287 . S
C2323 C2322 1.287 . S
C2323 C2324 1.524 . S
C2323 H2326 0.999 . S
C2324 H2294 0.950 . S
C2324 C2323 1.524 . S
C2324 C2325 1.415 . S
C2325 H2295 0.950 . S
C2325 C2320 1.363 . S
C2325 C2324 1.415 . S
H2326 C2323 0.999 . S
H2327 C2308 0.913 . S
H2328 C2346 0.951 . S
H2329 C2348 0.951 . S
H2330 C2350 0.950 . S
H2331 C2351 0.950 . S
H2332 C2353 0.950 . S
H2333 C2356 0.950 . S
H2334 C2357 0.950 . S
H2335 C2359 0.950 . S
H2336 C2360 0.950 . S
H2337 C2361 0.951 . S
H2338 C2363 0.951 . S
H2339 C2365 0.950 . S
H2340 C2366 0.950 . S
H2341 C2368 0.950 . S
H2342 C2371 0.950 . S
H2343 C2372 0.950 . S
H2344 C2374 0.950 . S
H2345 C2375 0.950 . S
C2346 H2328 0.951 . S
C2346 C2347 1.366 . S
C2346 C2348 1.388 . S
C2347 C2346 1.366 . S
C2347 C2351 1.385 . S
C2348 H2329 0.951 . S
C2348 C2346 1.388 . S
C2348 C2349 1.366 . S
C2349 C2348 1.366 . S
C2349 C2350 1.414 . S
C2349 C2352 1.499 . S
C2350 H2330 0.950 . S
C2350 C2349 1.414 . S
C2350 C2351 1.374 . S
C2351 H2331 0.950 . S
C2351 C2347 1.385 . S
C2351 C2350 1.374 . S
C2352 C2349 1.499 . S
C2352 C2353 1.373 . S
C2352 C2354 1.389 . S
C2353 H2332 0.950 . S
C2353 C2352 1.373 . S
C2353 C2369 1.377 . S
C2354 C2352 1.389 . S
C2354 C2355 1.524 . S
C2354 C2368 1.377 . S
C2355 C2354 1.524 . S
C2355 C2356 1.397 . S
C2355 C2360 1.363 . S
C2356 H2333 0.950 . S
C2356 C2355 1.397 . S
C2356 C2357 1.334 . S
C2357 H2334 0.950 . S
C2357 C2356 1.334 . S
C2357 C2358 1.287 . S
C2358 C2357 1.287 . S
C2358 C2359 1.524 . S
C2358 H2377 0.913 . S
C2359 H2335 0.950 . S
C2359 C2358 1.524 . S
C2359 C2360 1.415 . S
C2360 H2336 0.950 . S
C2360 C2355 1.363 . S
C2360 C2359 1.415 . S
C2361 H2337 0.951 . S
C2361 C2362 1.366 . S
C2361 C2363 1.388 . S
C2362 C2361 1.366 . S
C2362 C2366 1.385 . S
C2363 H2338 0.951 . S
C2363 C2361 1.388 . S
C2363 C2364 1.366 . S
C2364 C2363 1.366 . S
C2364 C2365 1.414 . S
C2364 C2367 1.499 . S
C2365 H2339 0.950 . S
C2365 C2364 1.414 . S
C2365 C2366 1.374 . S
C2366 H2340 0.950 . S
C2366 C2362 1.385 . S
C2366 C2365 1.374 . S
C2367 C2364 1.499 . S
C2367 C2368 1.373 . S
C2367 C2369 1.389 . S
C2368 H2341 0.950 . S
C2368 C2354 1.377 . S
C2368 C2367 1.373 . S
C2369 C2353 1.377 . S
C2369 C2367 1.389 . S
C2369 C2370 1.524 . S
C2370 C2369 1.524 . S
C2370 C2371 1.397 . S
C2370 C2375 1.363 . S
C2371 H2342 0.950 . S
C2371 C2370 1.397 . S
C2371 C2372 1.334 . S
C2372 H2343 0.950 . S
C2372 C2371 1.334 . S
C2372 C2373 1.287 . S
C2373 C2372 1.287 . S
C2373 C2374 1.524 . S
C2373 H2376 0.999 . S
C2374 H2344 0.950 . S
C2374 C2373 1.524 . S
C2374 C2375 1.415 . S
C2375 H2345 0.950 . S
C2375 C2370 1.363 . S
C2375 C2374 1.415 . S
H2376 C2373 0.999 . S
H2377 C2358 0.913 . S
H2378 C2396 0.951 . S
H2379 C2398 0.951 . S
H2380 C2400 0.950 . S
H2381 C2401 0.950 . S
H2382 C2403 0.950 . S
H2383 C2406 0.950 . S
H2384 C2407 0.950 . S
H2385 C2409 0.950 . S
H2386 C2410 0.950 . S
H2387 C2411 0.951 . S
H2388 C2413 0.951 . S
H2389 C2415 0.950 . S
H2390 C2416 0.950 . S
H2391 C2418 0.950 . S
H2392 C2421 0.950 . S
H2393 C2422 0.950 . S
H2394 C2424 0.950 . S
H2395 C2425 0.950 . S
C2396 H2378 0.951 . S
C2396 C2397 1.366 . S
C2396 C2398 1.388 . S
C2397 C2396 1.366 . S
C2397 C2401 1.385 . S
C2398 H2379 0.951 . S
C2398 C2396 1.388 . S
C2398 C2399 1.366 . S
C2399 C2398 1.366 . S
C2399 C2400 1.414 . S
C2399 C2402 1.499 . S
C2400 H2380 0.950 . S
C2400 C2399 1.414 . S
C2400 C2401 1.374 . S
C2401 H2381 0.950 . S
C2401 C2397 1.385 . S
C2401 C2400 1.374 . S
C2402 C2399 1.499 . S
C2402 C2403 1.373 . S
C2402 C2404 1.389 . S
C2403 H2382 0.950 . S
C2403 C2402 1.373 . S
C2403 C2419 1.377 . S
C2404 C2402 1.389 . S
C2404 C2405 1.524 . S
C2404 C2418 1.377 . S
C2405 C2404 1.524 . S
C2405 C2406 1.397 . S
C2405 C2410 1.363 . S
C2406 H2383 0.950 . S
C2406 C2405 1.397 . S
C2406 C2407 1.334 . S
C2407 H2384 0.950 . S
C2407 C2406 1.334 . S
C2407 C2408 1.287 . S
C2408 C2407 1.287 . S
C2408 C2409 1.524 . S
C2408 H2427 0.913 . S
C2409 H2385 0.950 . S
C2409 C2408 1.524 . S
C2409 C2410 1.415 . S
C2410 H2386 0.950 . S
C2410 C2405 1.363 . S
C2410 C2409 1.415 . S
C2411 H2387 0.951 . S
C2411 C2412 1.366 . S
C2411 C2413 1.388 . S
C2412 C2411 1.366 . S
C2412 C2416 1.385 . S
C2413 H2388 0.951 . S
C2413 C2411 1.388 . S
C2413 C2414 1.366 . S
C2414 C2413 1.366 . S
C2414 C2415 1.414 . S
C2414 C2417 1.499 . S
C2415 H2389 0.950 . S
C2415 C2414 1.414 . S
C2415 C2416 1.374 . S
C2416 H2390 0.950 . S
C2416 C2412 1.385 . S
C2416 C2415 1.374 . S
C2417 C2414 1.499 . S
C2417 C2418 1.373 . S
C2417 C2419 1.389 . S
C2418 H2391 0.950 . S
C2418 C2404 1.377 . S
C2418 C2417 1.373 . S
C2419 C2403 1.377 . S
C2419 C2417 1.389 . S
C2419 C2420 1.524 . S
C2420 C2419 1.524 . S
C2420 C2421 1.397 . S
C2420 C2425 1.363 . S
C2421 H2392 0.950 . S
C2421 C2420 1.397 . S
C2421 C2422 1.334 . S
C2422 H2393 0.950 . S
C2422 C2421 1.334 . S
C2422 C2423 1.287 . S
C2423 C2422 1.287 . S
C2423 C2424 1.524 . S
C2423 H2426 0.999 . S
C2424 H2394 0.950 . S
C2424 C2423 1.524 . S
C2424 C2425 1.415 . S
C2425 H2395 0.950 . S
C2425 C2420 1.363 . S
C2425 C2424 1.415 . S
H2426 C2423 0.999 . S
H2427 C2408 0.913 . S
H2428 C2446 0.951 . S
H2429 C2448 0.951 . S
H2430 C2450 0.950 . S
H2431 C2451 0.950 . S
H2432 C2453 0.950 . S
H2433 C2456 0.950 . S
H2434 C2457 0.950 . S
H2435 C2459 0.950 . S
H2436 C2460 0.950 . S
H2437 C2461 0.951 . S
H2438 C2463 0.951 . S
H2439 C2465 0.950 . S
H2440 C2466 0.950 . S
H2441 C2468 0.950 . S
H2442 C2471 0.950 . S
H2443 C2472 0.950 . S
H2444 C2474 0.950 . S
H2445 C2475 0.950 . S
C2446 H2428 0.951 . S
C2446 C2447 1.366 . S
C2446 C2448 1.388 . S
C2447 C2446 1.366 . S
C2447 C2451 1.385 . S
C2448 H2429 0.951 . S
C2448 C2446 1.388 . S
C2448 C2449 1.366 . S
C2449 C2448 1.366 . S
C2449 C2450 1.414 . S
C2449 C2452 1.499 . S
C2450 H2430 0.950 . S
C2450 C2449 1.414 . S
C2450 C2451 1.374 . S
C2451 H2431 0.950 . S
C2451 C2447 1.385 . S
C2451 C2450 1.374 . S
C2452 C2449 1.499 . S
C2452 C2453 1.373 . S
C2452 C2454 1.389 . S
C2453 H2432 0.950 . S
C2453 C2452 1.373 . S
C2453 C2469 1.377 . S
C2454 C2452 1.389 . S
C2454 C2455 1.524 . S
C2454 C2468 1.377 . S
C2455 C2454 1.524 . S
C2455 C2456 1.397 . S
C2455 C2460 1.363 . S
C2456 H2433 0.950 . S
C2456 C2455 1.397 . S
C2456 C2457 1.334 . S
C2457 H2434 0.950 . S
C2457 C2456 1.334 . S
C2457 C2458 1.287 . S
C2458 C2457 1.287 . S
C2458 C2459 1.524 . S
C2458 H2477 0.913 . S
C2459 H2435 0.950 . S
C2459 C2458 1.524 . S
C2459 C2460 1.415 . S
C2460 H2436 0.950 . S
C2460 C2455 1.363 . S
C2460 C2459 1.415 . S
C2461 H2437 0.951 . S
C2461 C2462 1.366 . S
C2461 C2463 1.388 . S
C2462 C2461 1.366 . S
C2462 C2466 1.385 . S
C2463 H2438 0.951 . S
C2463 C2461 1.388 . S
C2463 C2464 1.366 . S
C2464 C2463 1.366 . S
C2464 C2465 1.414 . S
C2464 C2467 1.499 . S
C2465 H2439 0.950 . S
C2465 C2464 1.414 . S
C2465 C2466 1.374 . S
C2466 H2440 0.950 . S
C2466 C2462 1.385 . S
C2466 C2465 1.374 . S
C2467 C2464 1.499 . S
C2467 C2468 1.373 . S
C2467 C2469 1.389 . S
C2468 H2441 0.950 . S
C2468 C2454 1.377 . S
C2468 C2467 1.373 . S
C2469 C2453 1.377 . S
C2469 C2467 1.389 . S
C2469 C2470 1.524 . S
C2470 C2469 1.524 . S
C2470 C2471 1.397 . S
C2470 C2475 1.363 . S
C2471 H2442 0.950 . S
C2471 C2470 1.397 . S
C2471 C2472 1.334 . S
C2472 H2443 0.950 . S
C2472 C2471 1.334 . S
C2472 C2473 1.287 . S
C2473 C2472 1.287 . S
C2473 C2474 1.524 . S
C2473 H2476 0.999 . S
C2474 H2444 0.950 . S
C2474 C2473 1.524 . S
C2474 C2475 1.415 . S
C2475 H2445 0.950 . S
C2475 C2470 1.363 . S
C2475 C2474 1.415 . S
H2476 C2473 0.999 . S
H2477 C2458 0.913 . S
H2478 C2496 0.951 . S
H2479 C2498 0.951 . S
H2480 C2500 0.950 . S
H2481 C2501 0.950 . S
H2482 C2503 0.950 . S
H2483 C2506 0.950 . S
H2484 C2507 0.950 . S
H2485 C2509 0.950 . S
H2486 C2510 0.950 . S
H2487 C2511 0.951 . S
H2488 C2513 0.951 . S
H2489 C2515 0.950 . S
H2490 C2516 0.950 . S
H2491 C2518 0.950 . S
H2492 C2521 0.950 . S
H2493 C2522 0.950 . S
H2494 C2524 0.950 . S
H2495 C2525 0.950 . S
C2496 H2478 0.951 . S
C2496 C2497 1.366 . S
C2496 C2498 1.388 . S
C2497 C2496 1.366 . S
C2497 C2501 1.385 . S
C2498 H2479 0.951 . S
C2498 C2496 1.388 . S
C2498 C2499 1.366 . S
C2499 C2498 1.366 . S
C2499 C2500 1.414 . S
C2499 C2502 1.499 . S
C2500 H2480 0.950 . S
C2500 C2499 1.414 . S
C2500 C2501 1.374 . S
C2501 H2481 0.950 . S
C2501 C2497 1.385 . S
C2501 C2500 1.374 . S
C2502 C2499 1.499 . S
C2502 C2503 1.373 . S
C2502 C2504 1.389 . S
C2503 H2482 0.950 . S
C2503 C2502 1.373 . S
C2503 C2519 1.377 . S
C2504 C2502 1.389 . S
C2504 C2505 1.524 . S
C2504 C2518 1.377 . S
C2505 C2504 1.524 . S
C2505 C2506 1.397 . S
C2505 C2510 1.363 . S
C2506 H2483 0.950 . S
C2506 C2505 1.397 . S
C2506 C2507 1.334 . S
C2507 H2484 0.950 . S
C2507 C2506 1.334 . S
C2507 C2508 1.287 . S
C2508 C2507 1.287 . S
C2508 C2509 1.524 . S
C2508 H2527 0.913 . S
C2509 H2485 0.950 . S
C2509 C2508 1.524 . S
C2509 C2510 1.415 . S
C2510 H2486 0.950 . S
C2510 C2505 1.363 . S
C2510 C2509 1.415 . S
C2511 H2487 0.951 . S
C2511 C2512 1.366 . S
C2511 C2513 1.388 . S
C2512 C2511 1.366 . S
C2512 C2516 1.385 . S
C2513 H2488 0.951 . S
C2513 C2511 1.388 . S
C2513 C2514 1.366 . S
C2514 C2513 1.366 . S
C2514 C2515 1.414 . S
C2514 C2517 1.499 . S
C2515 H2489 0.950 . S
C2515 C2514 1.414 . S
C2515 C2516 1.374 . S
C2516 H2490 0.950 . S
C2516 C2512 1.385 . S
C2516 C2515 1.374 . S
C2517 C2514 1.499 . S
C2517 C2518 1.373 . S
C2517 C2519 1.389 . S
C2518 H2491 0.950 . S
C2518 C2504 1.377 . S
C2518 C2517 1.373 . S
C2519 C2503 1.377 . S
C2519 C2517 1.389 . S
C2519 C2520 1.524 . S
C2520 C2519 1.524 . S
C2520 C2521 1.397 . S
C2520 C2525 1.363 . S
C2521 H2492 0.950 . S
C2521 C2520 1.397 . S
C2521 C2522 1.334 . S
C2522 H2493 0.950 . S
C2522 C2521 1.334 . S
C2522 C2523 1.287 . S
C2523 C2522 1.287 . S
C2523 C2524 1.524 . S
C2523 H2526 0.999 . S
C2524 H2494 0.950 . S
C2524 C2523 1.524 . S
C2524 C2525 1.415 . S
C2525 H2495 0.950 . S
C2525 C2520 1.363 . S
C2525 C2524 1.415 . S
H2526 C2523 0.999 . S
H2527 C2508 0.913 . S
C547 C21 0.467 . S
C562 N365 0.438 . S
C597 N266 0.439 . S
C612 C54 0.466 . S
C647 N299 0.436 . S
C662 C87 0.466 . S
C697 N332 0.436 . S
C712 C120 0.465 . S
C747 N167 0.438 . S
C762 C153 0.464 . S
C797 N200 0.437 . S
C812 C186 0.466 . S
C847 C219 0.466 . S
C862 N233 0.437 . S
C897 C252 0.464 . S
C912 N134 0.436 . S
C947 C285 0.467 . S
C962 N101 0.438 . S
C997 C318 0.465 . S
C1012 N2 0.438 . S
C1047 N35 0.438 . S
C1062 C351 0.467 . S
C1097 C384 0.465 . S
C1112 N68 0.436 . S
C1147 N431 0.436 . S
C1162 C417 0.464 . S
C1197 N464 0.437 . S
C1212 C450 0.463 . S
C1247 N497 0.436 . S
C1262 C483 0.464 . S
C1297 C516 0.467 . S
C1312 N398 0.438 . S
C1347 C18 1.082 . S
C1362 C84 1.082 . S
C1397 C51 1.082 . S
C1412 C117 1.082 . S
C1447 C216 1.082 . S
C1462 C150 1.082 . S
C1497 C249 1.082 . S
C1512 C183 1.082 . S
C1547 C348 1.082 . S
C1562 C282 1.082 . S
C1597 C315 1.082 . S
C1612 C381 1.082 . S
C1647 C414 1.082 . S
C1662 C480 1.082 . S
C1697 C513 1.082 . S
C1712 C447 1.082 . S
C1747 C73 0.820 1_455 S
C1762 C7 0.819 1_655 S
C1797 C40 0.822 1_545 S
C1812 C106 0.820 1_565 S
C1847 C139 0.819 1_655 S
C1862 C205 0.821 1_455 S
C1897 C238 0.821 1_565 S
C1912 C172 0.819 1_545 S
C1947 C337 0.819 . S
C1962 C271 0.820 . S
C1997 C304 0.819 . S
C2012 C370 0.820 . S
C2047 C403 0.821 . S
C2062 C469 0.819 . S
C2097 C502 0.822 . S
C2112 C436 0.819 . S
C2147 N475 1.660 . S
C2162 N13 1.660 . S
C2197 N46 1.659 . S
C2212 N508 1.660 . S
C2247 N79 1.660 . S
C2262 N409 1.660 . S
C2297 N112 1.659 . S
C2312 N442 1.660 . S
C2347 N145 1.660 . S
C2362 N343 1.660 . S
C2397 N376 1.659 . S
C2412 N178 1.660 . S
C2447 N211 1.659 . S
C2462 N277 1.660 . S
C2497 N244 1.660 . S
C2512 N310 1.660 . S
