# Generated by pormake.
# Topology wkj, (6)-cn, num edge types: 1
# Building blocks:
#     Node 0, Type 0, BuildingBlock: MIDCAF_clean_sbu_0, # of connection points: 6
#     Node 1, Type 0, BuildingBlock: MIDCAF_clean_sbu_0, # of connection points: 6
#     Node 2, Type 0, BuildingBlock: MIDCAF_clean_sbu_0, # of connection points: 6
#     Node 3, Type 0, BuildingBlock: MIDCAF_clean_sbu_0, # of connection points: 6
#     Node 4, Type 0, BuildingBlock: MIDCAF_clean_sbu_0, # of connection points: 6
#     Node 5, Type 0, BuildingBlock: MIDCAF_clean_sbu_0, # of connection points: 6
#     Node 6, Type 0, BuildingBlock: MIDCAF_clean_sbu_0, # of connection points: 6
#     Node 7, Type 0, BuildingBlock: MIDCAF_clean_sbu_0, # of connection points: 6
#     Node 8, Type 0, BuildingBlock: MIDCAF_clean_sbu_0, # of connection points: 6
#     Node 9, Type 0, BuildingBlock: MIDCAF_clean_sbu_0, # of connection points: 6
#     Node 10, Type 0, BuildingBlock: MIDCAF_clean_sbu_0, # of connection points: 6
#     Node 11, Type 0, BuildingBlock: MIDCAF_clean_sbu_0, # of connection points: 6
#     Edge 12, Type (0, 0), None
#     Edge 13, Type (0, 0), None
#     Edge 14, Type (0, 0), None
#     Edge 15, Type (0, 0), None
#     Edge 16, Type (0, 0), None
#     Edge 17, Type (0, 0), None
#     Edge 18, Type (0, 0), None
#     Edge 19, Type (0, 0), None
#     Edge 20, Type (0, 0), None
#     Edge 21, Type (0, 0), None
#     Edge 22, Type (0, 0), None
#     Edge 23, Type (0, 0), None
#     Edge 24, Type (0, 0), None
#     Edge 25, Type (0, 0), None
#     Edge 26, Type (0, 0), None
#     Edge 27, Type (0, 0), None
#     Edge 28, Type (0, 0), None
#     Edge 29, Type (0, 0), None
#     Edge 30, Type (0, 0), None
#     Edge 31, Type (0, 0), None
#     Edge 32, Type (0, 0), None
#     Edge 33, Type (0, 0), None
#     Edge 34, Type (0, 0), None
#     Edge 35, Type (0, 0), None
#     Edge 36, Type (0, 0), None
#     Edge 37, Type (0, 0), None
#     Edge 38, Type (0, 0), None
#     Edge 39, Type (0, 0), None
#     Edge 40, Type (0, 0), None
#     Edge 41, Type (0, 0), None
#     Edge 42, Type (0, 0), None
#     Edge 43, Type (0, 0), None
#     Edge 44, Type (0, 0), None
#     Edge 45, Type (0, 0), None
#     Edge 46, Type (0, 0), None
#     Edge 47, Type (0, 0), None
# Relax obj value: 0.740
# Max RMSD: 0.318
# Mean RMSD: 0.317
data_MOF--net-wkj--node1-MIDCAF_clean_sbu_0--edge1-none
_symmetry_space_group_name_H-M    P1
_symmetry_Int_Tables_number       1
_symmetry_cell_setting            triclinic
loop_
_symmetry_equiv_pos_as_xyz
'x, y, z'
_cell_length_a     26.498537
_cell_length_b     26.497392
_cell_length_c     9.9999902
_cell_angle_alpha  89.995577
_cell_angle_beta   90.006061
_cell_angle_gamma 119.99483
loop_
_atom_site_label
_atom_site_type_symbol
_atom_site_fract_x
_atom_site_fract_y
_atom_site_fract_z
_atom_type_partial_charge
Zn0 Zn 0.28112 0.02391 0.28998 0.0
Zn1 Zn 0.56406 0.06448 0.2764 0.0
Zn2 Zn 0.3859 0.04841 0.26308 0.0
C3 C 0.44751 -0.02533 0.28093 0.0
C4 C 0.50687 0.09808 0.45681 0.0
O5 O 0.38805 0.12676 0.20203 0.0
O6 O 0.29347 0.09146 0.18625 0.0
C7 C 0.28213 -0.05191 0.11036 0.0
O8 O 0.4492 0.02382 0.27222 0.0
O9 O 0.49623 -0.02312 0.28857 0.0
O10 O 0.55711 0.10313 0.45274 0.0
O11 O 0.47579 0.08076 0.34806 0.0
O12 O 0.24645 -0.0496 0.18972 0.0
O13 O 0.33623 -0.01365 0.11398 0.0
O14 O 0.3396 -0.00273 0.43393 0.0
O15 O 0.2686 0.01399 0.48464 0.0
C16 C 0.29695 -0.01176 0.50818 0.0
O17 O 0.47675 0.07922 0.19523 0.0
O18 O 0.55777 0.10024 0.09226 0.0
C19 C 0.34488 0.13133 0.16251 0.0
C20 C 0.50802 0.09627 0.08695 0.0
Zn21 Zn 0.2056 0.30842 0.62324 0.0
Zn22 Zn 0.44705 0.59151 0.609 0.0
Zn23 Zn 0.28517 0.41311 0.59606 0.0
C24 C 0.35922 0.53529 0.41964 0.0
C25 C 0.42058 0.47506 0.6136 0.0
O26 O 0.29027 0.36709 0.76718 0.0
O27 O 0.20259 0.29605 0.81798 0.0
C28 C 0.16109 0.3712 0.49528 0.0
O29 O 0.34505 0.50403 0.52794 0.0
O30 O 0.40492 0.58509 0.42492 0.0
O31 O 0.46703 0.52383 0.62104 0.0
O32 O 0.37305 0.47662 0.60489 0.0
O33 O 0.15014 0.31995 0.5187 0.0
O34 O 0.20855 0.41465 0.53521 0.0
O35 O 0.29767 0.3635 0.44697 0.0
O36 O 0.2447 0.27381 0.52394 0.0
C37 C 0.28227 0.30949 0.44386 0.0
O38 O 0.34259 0.50308 0.68077 0.0
O39 O 0.40143 0.58444 0.78543 0.0
C40 C 0.25667 0.32449 0.84158 0.0
C41 C 0.35632 0.53414 0.78955 0.0
Zn42 Zn 0.84342 0.2308 0.95669 0.0
Zn43 Zn 0.80279 0.4731 0.94294 0.0
Zn44 Zn 0.81884 0.31097 0.92969 0.0
C45 C 0.89259 0.44634 0.9475 0.0
C46 C 0.76919 0.38231 0.12338 0.0
O47 O 0.74049 0.2347 0.86876 0.0
O48 O 0.77595 0.17555 0.85291 0.0
C49 C 0.9192 0.30757 0.77709 0.0
O50 O 0.84345 0.39888 0.9388 0.0
O51 O 0.89037 0.49284 0.95514 0.0
O52 O 0.76414 0.4275 0.11928 0.0
O53 O 0.78651 0.36855 1.01463 0.0
O54 O 0.91695 0.26964 0.85657 0.0
O55 O 0.88091 0.32337 0.78061 0.0
O56 O 0.86998 0.31585 0.10057 0.0
O57 O 0.85325 0.22813 0.15136 0.0
C58 C 0.87898 0.28222 0.17488 0.0
O59 O 0.78804 0.37104 0.8618 0.0
O60 O 0.76702 0.43104 0.75882 0.0
C61 C 0.736 0.18699 0.82924 0.0
C62 C 0.77098 0.38527 0.75353 0.0
Zn63 Zn 0.27565 0.82927 0.27618 0.0
Zn64 Zn 0.55857 0.87034 0.29047 0.0
Zn65 Zn 0.45389 0.84544 0.26321 0.0
C66 C 0.55761 0.94603 0.11097 0.0
C67 C 0.49558 0.76311 0.16231 0.0
O68 O 0.36396 0.81304 0.34796 0.0
O69 O 0.28264 0.79067 0.45261 0.0
C70 C 0.39217 0.91911 0.28079 0.0
O71 O 0.50357 0.90754 0.11415 0.0
O72 O 0.59326 0.94402 0.19097 0.0
O73 O 0.54685 0.80325 0.18606 0.0
O74 O 0.45218 0.76725 0.20206 0.0
O75 O 0.34343 0.91688 0.28825 0.0
O76 O 0.39051 0.86997 0.27207 0.0
O77 O 0.36301 0.81457 0.19514 0.0
O78 O 0.28199 0.79353 0.09209 0.0
C79 C 0.33175 0.79752 0.08683 0.0
O80 O 0.5 0.89652 0.43432 0.0
O81 O 0.57096 0.87976 0.48519 0.0
C82 C 0.3329 0.79575 0.45673 0.0
C83 C 0.54258 0.90547 0.50873 0.0
Zn84 Zn 0.63643 0.58637 0.62285 0.0
Zn85 Zn 0.39434 0.30325 0.60924 0.0
Zn86 Zn 0.55628 0.48153 0.59598 0.0
C87 C 0.42091 0.41976 0.61376 0.0
C88 C 0.4851 0.36054 0.78969 0.0
O89 O 0.63259 0.47951 0.53518 0.0
O90 O 0.69173 0.57411 0.51933 0.0
C91 C 0.55955 0.58522 0.44319 0.0
O92 O 0.46841 0.41815 0.60508 0.0
O93 O 0.37446 0.371 0.6214 0.0
O94 O 0.43996 0.31026 0.7856 0.0
O95 O 0.49881 0.39161 0.68094 0.0
O96 O 0.59753 0.62095 0.5225 0.0
O97 O 0.54378 0.53113 0.44686 0.0
O98 O 0.55131 0.52777 0.76677 0.0
O99 O 0.63896 0.59888 0.8175 0.0
C100 C 0.58488 0.57045 0.84102 0.0
O101 O 0.49632 0.39065 0.5281 0.0
O102 O 0.43642 0.30961 0.42512 0.0
C103 C 0.68031 0.52272 0.49574 0.0
C104 C 0.48215 0.35938 0.41983 0.0
Zn105 Zn -0.0032 0.66158 0.95706 0.0
Zn106 Zn 0.03802 0.41989 0.94279 0.0
Zn107 Zn 0.02181 0.58197 0.92978 0.0
C108 C 0.06975 0.50773 0.75342 0.0
C109 C -0.05183 0.44657 0.94737 0.0
O110 O -0.02928 0.57695 0.10093 0.0
O111 O -0.01252 0.66467 0.15177 0.0
C112 C 0.10399 0.70606 0.82892 0.0
O113 O 0.0527 0.52196 0.86171 0.0
O114 O 0.07375 0.46197 0.75872 0.0
O115 O -0.04959 0.40007 0.95486 0.0
O116 O -0.0027 0.49405 0.93863 0.0
O117 O 0.06374 0.71705 0.85252 0.0
O118 O 0.09998 0.65858 0.86875 0.0
O119 O -0.04028 0.56955 0.78067 0.0
O120 O -0.07691 0.62258 0.85776 0.0
C121 C -0.07883 0.58502 0.77759 0.0
O122 O 0.05423 0.52443 1.01453 0.0
O123 O 0.07661 0.46548 0.1192 0.0
C124 C -0.03823 0.61058 0.17534 0.0
C125 C 0.07152 0.51065 0.12332 0.0
Zn126 Zn 0.80337 0.30168 0.44154 0.0
Zn127 Zn 0.83782 0.5788 0.45287 0.0
Zn128 Zn 0.81857 0.47946 0.43822 0.0
C129 C 0.91523 0.58623 0.27441 0.0
C130 C 0.87669 0.56219 0.67589 0.0
O131 O 0.78683 0.38897 0.51394 0.0
O132 O 0.76554 0.30849 0.62034 0.0
C133 C 0.77021 0.35718 0.25368 0.0
O134 O 0.8776 0.53162 0.27758 0.0
O135 O 0.91063 0.6208 0.35285 0.0
O136 O 0.84917 0.58846 0.64933 0.0
O137 O 0.87219 0.52169 0.60086 0.0
O138 O 0.76633 0.30748 0.25982 0.0
O139 O 0.78732 0.389 0.36112 0.0
O140 O 0.84315 0.41632 0.44018 0.0
O141 O 0.89092 0.36993 0.4446 0.0
C142 C 0.89263 0.41851 0.44234 0.0
O143 O 0.73985 0.48024 0.47873 0.0
O144 O 0.76339 0.55999 0.36799 0.0
C145 C 0.76997 0.35847 0.62359 0.0
C146 C 0.72602 0.51631 0.43231 0.0
Zn147 Zn 0.44775 0.83009 0.77489 0.0
Zn148 Zn 0.20473 0.86416 0.78583 0.0
Zn149 Zn 0.28513 0.84517 0.77154 0.0
C150 C 0.27472 0.94163 0.60717 0.0
C151 C 0.26043 0.90353 1.00879 0.0
O152 O 0.34393 0.81348 0.84728 0.0
O153 O 0.40313 0.79219 0.95365 0.0
C154 C 0.35911 0.79688 0.58703 0.0
O155 O 0.29199 0.90423 0.61086 0.0
O156 O 0.23527 0.93677 0.685 0.0
O157 O 0.20667 0.87609 0.98211 0.0
O158 O 0.29641 0.89883 0.93407 0.0
O159 O 0.40495 0.79303 0.59318 0.0
O160 O 0.3444 0.81401 0.69444 0.0
O161 O 0.37283 0.86982 0.77352 0.0
O162 O 0.46697 0.91762 0.77807 0.0
C163 C 0.42009 0.91931 0.77573 0.0
O164 O 0.2059 0.76624 0.81187 0.0
O165 O 0.14923 0.78941 0.70192 0.0
C166 C 0.35757 0.79659 0.9569 0.0
C167 C 0.15592 0.75214 0.76571 0.0
Zn168 Zn 0.56558 0.47539 0.10779 0.0
Zn169 Zn 0.28863 0.23244 0.11914 0.0
Zn170 Zn 0.38794 0.31268 0.10456 0.0
C171 C 0.28107 0.30235 0.94069 0.0
C172 C 0.30518 0.28791 0.34218 0.0
O173 O 0.47842 0.37152 0.18024 0.0
O174 O 0.55885 0.43078 0.28664 0.0
C175 C 0.5102 0.38672 0.91998 0.0
O176 O 0.3357 0.31942 0.94388 0.0
O177 O 0.24655 0.26318 1.01915 0.0
O178 O 0.27902 0.23413 0.31564 0.0
O179 O 0.34565 0.32396 0.26716 0.0
O180 O 0.55986 0.43258 0.92612 0.0
O181 O 0.47838 0.37197 0.02742 0.0
O182 O 0.45099 0.40041 0.10646 0.0
O183 O 0.49723 0.49457 0.11078 0.0
C184 C 0.4487 0.44764 0.10858 0.0
O185 O 0.38731 0.2333 0.14534 0.0
O186 O 0.30777 0.17708 0.03401 0.0
C187 C 0.50892 0.38519 0.28989 0.0
C188 C 0.35137 0.18342 0.09871 0.0
Zn189 Zn 0.03716 0.59116 0.44143 0.0
Zn190 Zn 0.00301 0.31406 0.45256 0.0
Zn191 Zn 0.02207 0.41343 0.43815 0.0
C192 C -0.07443 0.30659 0.27391 0.0
C193 C -0.03625 0.33043 0.67551 0.0
O194 O 0.05378 0.50393 0.51387 0.0
O195 O 0.07507 0.58443 0.62017 0.0
C196 C 0.07037 0.53572 0.25361 0.0
O197 O -0.03699 0.36125 0.2775 0.0
O198 O -0.06963 0.272 0.35188 0.0
O199 O -0.00881 0.30409 0.64886 0.0
O200 O -0.03156 0.37109 0.60074 0.0
O201 O 0.07422 0.5854 0.25976 0.0
O202 O 0.05324 0.50387 0.36102 0.0
O203 O -0.00256 0.4765 0.44011 0.0
O204 O -0.05036 0.52286 0.44466 0.0
C205 C -0.05205 0.47429 0.44233 0.0
O206 O 0.10098 0.41303 0.47834 0.0
O207 O 0.07767 0.33312 0.36854 0.0
C208 C 0.07067 0.53447 0.62346 0.0
C209 C 0.11499 0.37707 0.43223 0.0
Zn210 Zn 0.39206 0.06389 0.77489 0.0
Zn211 Zn 0.63476 0.02946 0.78628 0.0
Zn212 Zn 0.5546 0.04866 0.77167 0.0
C213 C 0.56478 -0.04797 0.6078 0.0
C214 C 0.57926 -0.00947 1.0093 0.0
O215 O 0.49586 0.08042 0.84736 0.0
O216 O 0.43669 0.10172 0.95374 0.0
C217 C 0.48071 0.09705 0.58709 0.0
O218 O 0.54775 -0.01037 0.61102 0.0
O219 O 0.60397 -0.04334 0.68618 0.0
O220 O 0.63304 0.01805 0.98274 0.0
O221 O 0.54325 -0.00495 0.9343 0.0
O222 O 0.43489 0.10094 0.5932 0.0
O223 O 0.4954 0.07993 0.69454 0.0
O224 O 0.4669 0.0241 0.77357 0.0
O225 O 0.37274 -0.02367 0.77793 0.0
C226 C 0.41962 -0.02537 0.77571 0.0
O227 O 0.63403 0.12741 0.81222 0.0
O228 O 0.69026 0.10395 0.70136 0.0
C229 C 0.48223 0.09728 0.95701 0.0
C230 C 0.68391 0.14129 0.76572 0.0
Zn231 Zn 0.27594 0.41924 0.10768 0.0
Zn232 Zn 0.55283 0.6625 0.11865 0.0
Zn233 Zn 0.45351 0.58202 0.10441 0.0
C234 C 0.56044 0.59261 0.94004 0.0
C235 C 0.53659 0.60684 0.34163 0.0
O236 O 0.36303 0.52313 0.1801 0.0
O237 O 0.28258 0.46384 0.28642 0.0
C238 C 0.33127 0.50791 0.91984 0.0
O239 O 0.50576 0.57527 0.94369 0.0
O240 O 0.59499 0.63205 1.01794 0.0
O241 O 0.56281 0.66061 0.31496 0.0
O242 O 0.49595 0.57081 0.26692 0.0
O243 O 0.28162 0.46203 0.92598 0.0
O244 O 0.3631 0.52266 0.02726 0.0
O245 O 0.39055 0.4943 0.1064 0.0
O246 O 0.34434 0.40016 0.11092 0.0
C247 C 0.39286 0.44708 0.1086 0.0
O248 O 0.45377 0.66121 0.14508 0.0
O249 O 0.53341 0.71785 0.0345 0.0
C250 C 0.3325 0.50945 0.28969 0.0
C251 C 0.48957 0.71119 0.09874 0.0
loop_
_geom_bond_atom_site_label_1
_geom_bond_atom_site_label_2
_geom_bond_distance
_geom_bond_site_symmetry_2
_ccdc_geom_bond_type
Zn0 O6 1.920 . S
Zn0 O12 1.898 . S
Zn0 O15 1.905 . S
Zn1 O9 1.905 . S
Zn1 O10 1.898 . S
Zn1 O18 1.920 . S
Zn2 O5 2.080 . S
Zn2 O8 2.114 . S
Zn2 O11 2.120 . S
Zn2 O13 2.120 . S
Zn2 O14 2.114 . S
Zn2 O17 2.080 . S
C3 O8 1.166 1_565 S
C3 O9 1.182 1_565 S
C4 O10 1.167 . S
C4 O11 1.299 . S
O5 Zn2 2.080 . S
O5 C19 1.305 . S
O6 Zn0 1.920 . S
O6 C19 1.234 . S
C7 O12 1.167 . S
C7 O13 1.299 . S
O8 Zn2 2.114 . S
O8 C3 1.166 1_545 S
O9 Zn1 1.905 . S
O9 C3 1.182 1_545 S
O10 Zn1 1.898 . S
O10 C4 1.167 . S
O11 Zn2 2.120 . S
O11 C4 1.299 . S
O12 Zn0 1.898 . S
O12 C7 1.167 . S
O13 Zn2 2.120 . S
O13 C7 1.299 . S
O14 Zn2 2.114 . S
O14 C16 1.166 . S
O15 Zn0 1.905 . S
O15 C16 1.182 . S
C16 O14 1.166 . S
C16 O15 1.182 . S
O17 Zn2 2.080 . S
O17 C20 1.305 . S
O18 Zn1 1.920 . S
O18 C20 1.234 . S
C19 O5 1.305 . S
C19 O6 1.234 . S
C20 O17 1.305 . S
C20 O18 1.234 . S
Zn21 O27 1.920 . S
Zn21 O33 1.898 . S
Zn21 O36 1.905 . S
Zn22 O30 1.905 . S
Zn22 O31 1.898 . S
Zn22 O39 1.920 . S
Zn23 O26 2.080 . S
Zn23 O29 2.114 . S
Zn23 O32 2.120 . S
Zn23 O34 2.120 . S
Zn23 O35 2.114 . S
Zn23 O38 2.080 . S
C24 O29 1.166 . S
C24 O30 1.182 . S
C25 O31 1.167 . S
C25 O32 1.299 . S
O26 Zn23 2.080 . S
O26 C40 1.305 . S
O27 Zn21 1.920 . S
O27 C40 1.234 . S
C28 O33 1.167 . S
C28 O34 1.299 . S
O29 Zn23 2.114 . S
O29 C24 1.166 . S
O30 Zn22 1.905 . S
O30 C24 1.182 . S
O31 Zn22 1.898 . S
O31 C25 1.167 . S
O32 Zn23 2.120 . S
O32 C25 1.299 . S
O33 Zn21 1.898 . S
O33 C28 1.167 . S
O34 Zn23 2.120 . S
O34 C28 1.299 . S
O35 Zn23 2.114 . S
O35 C37 1.166 . S
O36 Zn21 1.905 . S
O36 C37 1.182 . S
C37 O35 1.166 . S
C37 O36 1.182 . S
O38 Zn23 2.080 . S
O38 C41 1.305 . S
O39 Zn22 1.920 . S
O39 C41 1.234 . S
C40 O26 1.305 . S
C40 O27 1.234 . S
C41 O38 1.305 . S
C41 O39 1.234 . S
Zn42 O48 1.920 . S
Zn42 O54 1.898 . S
Zn42 O57 1.905 1_556 S
Zn43 O51 1.905 . S
Zn43 O52 1.898 1_556 S
Zn43 O60 1.920 . S
Zn44 O47 2.080 . S
Zn44 O50 2.114 . S
Zn44 O53 2.120 1_556 S
Zn44 O55 2.120 . S
Zn44 O56 2.114 1_556 S
Zn44 O59 2.080 . S
C45 O50 1.166 1_455 S
C45 O51 1.182 1_455 S
C46 O52 1.167 . S
C46 O53 1.299 . S
O47 Zn44 2.080 . S
O47 C61 1.305 . S
O48 Zn42 1.920 . S
O48 C61 1.234 . S
C49 O54 1.167 . S
C49 O55 1.299 . S
O50 Zn44 2.114 . S
O50 C45 1.166 1_655 S
O51 Zn43 1.905 . S
O51 C45 1.182 1_655 S
O52 Zn43 1.898 1_554 S
O52 C46 1.167 . S
O53 Zn44 2.120 1_554 S
O53 C46 1.299 . S
O54 Zn42 1.898 . S
O54 C49 1.167 . S
O55 Zn44 2.120 . S
O55 C49 1.299 . S
O56 Zn44 2.114 1_554 S
O56 C58 1.166 . S
O57 Zn42 1.905 1_554 S
O57 C58 1.182 . S
C58 O56 1.166 . S
C58 O57 1.182 . S
O59 Zn44 2.080 . S
O59 C62 1.305 . S
O60 Zn43 1.920 . S
O60 C62 1.234 . S
C61 O47 1.305 . S
C61 O48 1.234 . S
C62 O59 1.305 . S
C62 O60 1.234 . S
Zn63 O69 1.920 . S
Zn63 O75 1.898 . S
Zn63 O78 1.905 . S
Zn64 O72 1.905 . S
Zn64 O73 1.898 . S
Zn64 O81 1.920 . S
Zn65 O68 2.080 . S
Zn65 O71 2.114 . S
Zn65 O74 2.120 . S
Zn65 O76 2.120 . S
Zn65 O77 2.114 . S
Zn65 O80 2.080 . S
C66 O71 1.166 . S
C66 O72 1.182 . S
C67 O73 1.167 . S
C67 O74 1.299 . S
O68 Zn65 2.080 . S
O68 C82 1.305 . S
O69 Zn63 1.920 . S
O69 C82 1.234 . S
C70 O75 1.167 1_545 S
C70 O76 1.299 1_545 S
O71 Zn65 2.114 . S
O71 C66 1.166 . S
O72 Zn64 1.905 . S
O72 C66 1.182 . S
O73 Zn64 1.898 . S
O73 C67 1.167 . S
O74 Zn65 2.120 . S
O74 C67 1.299 . S
O75 Zn63 1.898 . S
O75 C70 1.167 1_565 S
O76 Zn65 2.120 . S
O76 C70 1.299 1_565 S
O77 Zn65 2.114 . S
O77 C79 1.166 . S
O78 Zn63 1.905 . S
O78 C79 1.182 . S
C79 O77 1.166 . S
C79 O78 1.182 . S
O80 Zn65 2.080 . S
O80 C83 1.305 . S
O81 Zn64 1.920 . S
O81 C83 1.234 . S
C82 O68 1.305 . S
C82 O69 1.234 . S
C83 O80 1.305 . S
C83 O81 1.234 . S
Zn84 O90 1.920 . S
Zn84 O96 1.898 . S
Zn84 O99 1.905 . S
Zn85 O93 1.905 . S
Zn85 O94 1.898 . S
Zn85 O102 1.920 . S
Zn86 O89 2.080 . S
Zn86 O92 2.114 . S
Zn86 O95 2.120 . S
Zn86 O97 2.120 . S
Zn86 O98 2.114 . S
Zn86 O101 2.080 . S
C87 O92 1.166 . S
C87 O93 1.182 . S
C88 O94 1.167 . S
C88 O95 1.299 . S
O89 Zn86 2.080 . S
O89 C103 1.305 . S
O90 Zn84 1.920 . S
O90 C103 1.234 . S
C91 O96 1.167 . S
C91 O97 1.299 . S
O92 Zn86 2.114 . S
O92 C87 1.166 . S
O93 Zn85 1.905 . S
O93 C87 1.182 . S
O94 Zn85 1.898 . S
O94 C88 1.167 . S
O95 Zn86 2.120 . S
O95 C88 1.299 . S
O96 Zn84 1.898 . S
O96 C91 1.167 . S
O97 Zn86 2.120 . S
O97 C91 1.299 . S
O98 Zn86 2.114 . S
O98 C100 1.166 . S
O99 Zn84 1.905 . S
O99 C100 1.182 . S
C100 O98 1.166 . S
C100 O99 1.182 . S
O101 Zn86 2.080 . S
O101 C104 1.305 . S
O102 Zn85 1.920 . S
O102 C104 1.234 . S
C103 O89 1.305 . S
C103 O90 1.234 . S
C104 O101 1.305 . S
C104 O102 1.234 . S
Zn105 O111 1.920 1_556 S
Zn105 O117 1.898 . S
Zn105 O120 1.905 . S
Zn106 O114 1.905 . S
Zn106 O115 1.898 . S
Zn106 O123 1.920 1_556 S
Zn107 O110 2.080 1_556 S
Zn107 O113 2.114 . S
Zn107 O116 2.120 . S
Zn107 O118 2.120 . S
Zn107 O119 2.114 . S
Zn107 O122 2.080 1_556 S
C108 O113 1.166 . S
C108 O114 1.182 . S
C109 O115 1.167 1_655 S
C109 O116 1.299 1_655 S
O110 Zn107 2.080 1_554 S
O110 C124 1.305 . S
O111 Zn105 1.920 1_554 S
O111 C124 1.234 . S
C112 O117 1.167 . S
C112 O118 1.299 . S
O113 Zn107 2.114 . S
O113 C108 1.166 . S
O114 Zn106 1.905 . S
O114 C108 1.182 . S
O115 Zn106 1.898 . S
O115 C109 1.167 1_455 S
O116 Zn107 2.120 . S
O116 C109 1.299 1_455 S
O117 Zn105 1.898 . S
O117 C112 1.167 . S
O118 Zn107 2.120 . S
O118 C112 1.299 . S
O119 Zn107 2.114 . S
O119 C121 1.166 . S
O120 Zn105 1.905 . S
O120 C121 1.182 . S
C121 O119 1.166 . S
C121 O120 1.182 . S
O122 Zn107 2.080 1_554 S
O122 C125 1.305 . S
O123 Zn106 1.920 1_554 S
O123 C125 1.234 . S
C124 O110 1.305 . S
C124 O111 1.234 . S
C125 O122 1.305 . S
C125 O123 1.234 . S
Zn126 O132 1.920 . S
Zn126 O138 1.898 . S
Zn126 O141 1.905 . S
Zn127 O135 1.905 . S
Zn127 O136 1.898 . S
Zn127 O144 1.920 . S
Zn128 O131 2.080 . S
Zn128 O134 2.114 . S
Zn128 O137 2.120 . S
Zn128 O139 2.120 . S
Zn128 O140 2.114 . S
Zn128 O143 2.080 . S
C129 O134 1.166 . S
C129 O135 1.182 . S
C130 O136 1.167 . S
C130 O137 1.299 . S
O131 Zn128 2.080 . S
O131 C145 1.305 . S
O132 Zn126 1.920 . S
O132 C145 1.234 . S
C133 O138 1.167 . S
C133 O139 1.299 . S
O134 Zn128 2.114 . S
O134 C129 1.166 . S
O135 Zn127 1.905 . S
O135 C129 1.182 . S
O136 Zn127 1.898 . S
O136 C130 1.167 . S
O137 Zn128 2.120 . S
O137 C130 1.299 . S
O138 Zn126 1.898 . S
O138 C133 1.167 . S
O139 Zn128 2.120 . S
O139 C133 1.299 . S
O140 Zn128 2.114 . S
O140 C142 1.166 1_655 S
O141 Zn126 1.905 . S
O141 C142 1.182 1_655 S
C142 O140 1.166 1_455 S
C142 O141 1.182 1_455 S
O143 Zn128 2.080 . S
O143 C146 1.305 . S
O144 Zn127 1.920 . S
O144 C146 1.234 . S
C145 O131 1.305 . S
C145 O132 1.234 . S
C146 O143 1.305 . S
C146 O144 1.234 . S
Zn147 O153 1.920 . S
Zn147 O159 1.898 . S
Zn147 O162 1.905 . S
Zn148 O156 1.905 . S
Zn148 O157 1.898 . S
Zn148 O165 1.920 . S
Zn149 O152 2.080 . S
Zn149 O155 2.114 . S
Zn149 O158 2.120 . S
Zn149 O160 2.120 . S
Zn149 O161 2.114 . S
Zn149 O164 2.080 . S
C150 O155 1.166 . S
C150 O156 1.182 . S
C151 O157 1.167 . S
C151 O158 1.299 . S
O152 Zn149 2.080 . S
O152 C166 1.305 . S
O153 Zn147 1.920 . S
O153 C166 1.234 . S
C154 O159 1.167 . S
C154 O160 1.299 . S
O155 Zn149 2.114 . S
O155 C150 1.166 . S
O156 Zn148 1.905 . S
O156 C150 1.182 . S
O157 Zn148 1.898 . S
O157 C151 1.167 . S
O158 Zn149 2.120 . S
O158 C151 1.299 . S
O159 Zn147 1.898 . S
O159 C154 1.167 . S
O160 Zn149 2.120 . S
O160 C154 1.299 . S
O161 Zn149 2.114 . S
O161 C163 1.166 1_565 S
O162 Zn147 1.905 . S
O162 C163 1.182 1_565 S
C163 O161 1.166 1_545 S
C163 O162 1.182 1_545 S
O164 Zn149 2.080 . S
O164 C167 1.305 . S
O165 Zn148 1.920 . S
O165 C167 1.234 . S
C166 O152 1.305 . S
C166 O153 1.234 . S
C167 O164 1.305 . S
C167 O165 1.234 . S
Zn168 O174 1.920 . S
Zn168 O180 1.898 1_554 S
Zn168 O183 1.905 . S
Zn169 O177 1.905 1_554 S
Zn169 O178 1.898 . S
Zn169 O186 1.920 . S
Zn170 O173 2.080 . S
Zn170 O176 2.114 1_554 S
Zn170 O179 2.120 . S
Zn170 O181 2.120 1_554 S
Zn170 O182 2.114 . S
Zn170 O185 2.080 . S
C171 O176 1.166 . S
C171 O177 1.182 . S
C172 O178 1.167 . S
C172 O179 1.299 . S
O173 Zn170 2.080 . S
O173 C187 1.305 . S
O174 Zn168 1.920 . S
O174 C187 1.234 . S
C175 O180 1.167 . S
C175 O181 1.299 . S
O176 Zn170 2.114 1_556 S
O176 C171 1.166 . S
O177 Zn169 1.905 1_556 S
O177 C171 1.182 . S
O178 Zn169 1.898 . S
O178 C172 1.167 . S
O179 Zn170 2.120 . S
O179 C172 1.299 . S
O180 Zn168 1.898 1_556 S
O180 C175 1.167 . S
O181 Zn170 2.120 1_556 S
O181 C175 1.299 . S
O182 Zn170 2.114 . S
O182 C184 1.166 . S
O183 Zn168 1.905 . S
O183 C184 1.182 . S
C184 O182 1.166 . S
C184 O183 1.182 . S
O185 Zn170 2.080 . S
O185 C188 1.305 . S
O186 Zn169 1.920 . S
O186 C188 1.234 . S
C187 O173 1.305 . S
C187 O174 1.234 . S
C188 O185 1.305 . S
C188 O186 1.234 . S
Zn189 O195 1.920 . S
Zn189 O201 1.898 . S
Zn189 O204 1.905 . S
Zn190 O198 1.905 . S
Zn190 O199 1.898 . S
Zn190 O207 1.920 . S
Zn191 O194 2.080 . S
Zn191 O197 2.114 . S
Zn191 O200 2.120 . S
Zn191 O202 2.120 . S
Zn191 O203 2.114 . S
Zn191 O206 2.080 . S
C192 O197 1.166 . S
C192 O198 1.182 . S
C193 O199 1.167 . S
C193 O200 1.299 . S
O194 Zn191 2.080 . S
O194 C208 1.305 . S
O195 Zn189 1.920 . S
O195 C208 1.234 . S
C196 O201 1.167 . S
C196 O202 1.299 . S
O197 Zn191 2.114 . S
O197 C192 1.166 . S
O198 Zn190 1.905 . S
O198 C192 1.182 . S
O199 Zn190 1.898 . S
O199 C193 1.167 . S
O200 Zn191 2.120 . S
O200 C193 1.299 . S
O201 Zn189 1.898 . S
O201 C196 1.167 . S
O202 Zn191 2.120 . S
O202 C196 1.299 . S
O203 Zn191 2.114 . S
O203 C205 1.166 1_455 S
O204 Zn189 1.905 . S
O204 C205 1.182 1_455 S
C205 O203 1.166 1_655 S
C205 O204 1.182 1_655 S
O206 Zn191 2.080 . S
O206 C209 1.305 . S
O207 Zn190 1.920 . S
O207 C209 1.234 . S
C208 O194 1.305 . S
C208 O195 1.234 . S
C209 O206 1.305 . S
C209 O207 1.234 . S
Zn210 O216 1.920 . S
Zn210 O222 1.898 . S
Zn210 O225 1.905 . S
Zn211 O219 1.905 . S
Zn211 O220 1.898 . S
Zn211 O228 1.920 . S
Zn212 O215 2.080 . S
Zn212 O218 2.114 . S
Zn212 O221 2.120 . S
Zn212 O223 2.120 . S
Zn212 O224 2.114 . S
Zn212 O227 2.080 . S
C213 O218 1.166 . S
C213 O219 1.182 . S
C214 O220 1.167 . S
C214 O221 1.299 . S
O215 Zn212 2.080 . S
O215 C229 1.305 . S
O216 Zn210 1.920 . S
O216 C229 1.234 . S
C217 O222 1.167 . S
C217 O223 1.299 . S
O218 Zn212 2.114 . S
O218 C213 1.166 . S
O219 Zn211 1.905 . S
O219 C213 1.182 . S
O220 Zn211 1.898 . S
O220 C214 1.167 . S
O221 Zn212 2.120 . S
O221 C214 1.299 . S
O222 Zn210 1.898 . S
O222 C217 1.167 . S
O223 Zn212 2.120 . S
O223 C217 1.299 . S
O224 Zn212 2.114 . S
O224 C226 1.166 1_545 S
O225 Zn210 1.905 . S
O225 C226 1.182 1_545 S
C226 O224 1.166 1_565 S
C226 O225 1.182 1_565 S
O227 Zn212 2.080 . S
O227 C230 1.305 . S
O228 Zn211 1.920 . S
O228 C230 1.234 . S
C229 O215 1.305 . S
C229 O216 1.234 . S
C230 O227 1.305 . S
C230 O228 1.234 . S
Zn231 O237 1.920 . S
Zn231 O243 1.898 1_554 S
Zn231 O246 1.905 . S
Zn232 O240 1.905 1_554 S
Zn232 O241 1.898 . S
Zn232 O249 1.920 . S
Zn233 O236 2.080 . S
Zn233 O239 2.114 1_554 S
Zn233 O242 2.120 . S
Zn233 O244 2.120 1_554 S
Zn233 O245 2.114 . S
Zn233 O248 2.080 . S
C234 O239 1.166 . S
C234 O240 1.182 . S
C235 O241 1.167 . S
C235 O242 1.299 . S
O236 Zn233 2.080 . S
O236 C250 1.305 . S
O237 Zn231 1.920 . S
O237 C250 1.234 . S
C238 O243 1.167 . S
C238 O244 1.299 . S
O239 Zn233 2.114 1_556 S
O239 C234 1.166 . S
O240 Zn232 1.905 1_556 S
O240 C234 1.182 . S
O241 Zn232 1.898 . S
O241 C235 1.167 . S
O242 Zn233 2.120 . S
O242 C235 1.299 . S
O243 Zn231 1.898 1_556 S
O243 C238 1.167 . S
O244 Zn233 2.120 1_556 S
O244 C238 1.299 . S
O245 Zn233 2.114 . S
O245 C247 1.166 . S
O246 Zn231 1.905 . S
O246 C247 1.182 . S
C247 O245 1.166 . S
C247 O246 1.182 . S
O248 Zn233 2.080 . S
O248 C251 1.305 . S
O249 Zn232 1.920 . S
O249 C251 1.234 . S
C250 O236 1.305 . S
C250 O237 1.234 . S
C251 O248 1.305 . S
C251 O249 1.234 . S
C19 C188 0.627 . S
C28 C209 0.602 . S
C61 C230 0.627 . S
C251 C67 0.602 . S
C103 C146 0.626 . S
C167 C112 0.602 . S
C229 C20 1.624 1_556 S
C250 C24 1.671 . S
C62 C145 1.624 . S
C166 C79 1.671 1_556 S
C187 C104 1.624 . S
C108 C208 1.671 . S
C151 C7 1.684 1_566 S
C172 C37 1.671 . S
C193 C49 1.684 1_455 S
C66 C214 1.671 1_564 S
C91 C235 1.684 . S
C121 C130 1.671 1_455 S
C3 C70 0.683 1_565 S
C25 C87 0.683 . S
C45 C109 0.683 1_455 S
C205 C142 0.607 1_655 S
C163 C226 0.608 1_545 S
C247 C184 0.608 . S
C150 C16 2.592 1_565 S
C171 C40 2.551 . S
C58 C192 2.592 1_655 S
C213 C83 2.551 1_545 S
C234 C100 2.592 . S
C124 C129 2.551 1_455 S
C4 C217 1.035 . S
C41 C238 1.039 . S
C46 C133 1.035 . S
C82 C154 1.039 . S
C88 C175 1.035 . S
C196 C125 1.039 . S
