# Generated by pormake.
# Topology yfs, (5)-cn, num edge types: 1
# Building blocks:
#     Node 0, Type 0, BuildingBlock: XOMCOT_clean_sbu_0, # of connection points: 5
#     Node 1, Type 0, BuildingBlock: XOMCOT_clean_sbu_0, # of connection points: 5
#     Node 2, Type 0, BuildingBlock: XOMCOT_clean_sbu_0, # of connection points: 5
#     Node 3, Type 0, BuildingBlock: XOMCOT_clean_sbu_0, # of connection points: 5
#     Node 4, Type 0, BuildingBlock: XOMCOT_clean_sbu_0, # of connection points: 5
#     Node 5, Type 0, BuildingBlock: XOMCOT_clean_sbu_0, # of connection points: 5
#     Node 6, Type 0, BuildingBlock: XOMCOT_clean_sbu_0, # of connection points: 5
#     Node 7, Type 0, BuildingBlock: XOMCOT_clean_sbu_0, # of connection points: 5
#     Node 8, Type 0, BuildingBlock: XOMCOT_clean_sbu_0, # of connection points: 5
#     Node 9, Type 0, BuildingBlock: XOMCOT_clean_sbu_0, # of connection points: 5
#     Node 10, Type 0, BuildingBlock: XOMCOT_clean_sbu_0, # of connection points: 5
#     Node 11, Type 0, BuildingBlock: XOMCOT_clean_sbu_0, # of connection points: 5
#     Node 12, Type 0, BuildingBlock: XOMCOT_clean_sbu_0, # of connection points: 5
#     Node 13, Type 0, BuildingBlock: XOMCOT_clean_sbu_0, # of connection points: 5
#     Node 14, Type 0, BuildingBlock: XOMCOT_clean_sbu_0, # of connection points: 5
#     Node 15, Type 0, BuildingBlock: XOMCOT_clean_sbu_0, # of connection points: 5
#     Node 16, Type 0, BuildingBlock: XOMCOT_clean_sbu_0, # of connection points: 5
#     Node 17, Type 0, BuildingBlock: XOMCOT_clean_sbu_0, # of connection points: 5
#     Node 18, Type 0, BuildingBlock: XOMCOT_clean_sbu_0, # of connection points: 5
#     Node 19, Type 0, BuildingBlock: XOMCOT_clean_sbu_0, # of connection points: 5
#     Node 20, Type 0, BuildingBlock: XOMCOT_clean_sbu_0, # of connection points: 5
#     Node 21, Type 0, BuildingBlock: XOMCOT_clean_sbu_0, # of connection points: 5
#     Node 22, Type 0, BuildingBlock: XOMCOT_clean_sbu_0, # of connection points: 5
#     Node 23, Type 0, BuildingBlock: XOMCOT_clean_sbu_0, # of connection points: 5
#     Node 24, Type 0, BuildingBlock: XOMCOT_clean_sbu_0, # of connection points: 5
#     Node 25, Type 0, BuildingBlock: XOMCOT_clean_sbu_0, # of connection points: 5
#     Node 26, Type 0, BuildingBlock: XOMCOT_clean_sbu_0, # of connection points: 5
#     Node 27, Type 0, BuildingBlock: XOMCOT_clean_sbu_0, # of connection points: 5
#     Node 28, Type 0, BuildingBlock: XOMCOT_clean_sbu_0, # of connection points: 5
#     Node 29, Type 0, BuildingBlock: XOMCOT_clean_sbu_0, # of connection points: 5
#     Node 30, Type 0, BuildingBlock: XOMCOT_clean_sbu_0, # of connection points: 5
#     Node 31, Type 0, BuildingBlock: XOMCOT_clean_sbu_0, # of connection points: 5
#     Edge 32, Type (0, 0), BuildingBlock: KIFKEQ_clean_linker_1, # of connection points: 2
#     Edge 33, Type (0, 0), BuildingBlock: KIFKEQ_clean_linker_1, # of connection points: 2
#     Edge 34, Type (0, 0), BuildingBlock: KIFKEQ_clean_linker_1, # of connection points: 2
#     Edge 35, Type (0, 0), BuildingBlock: KIFKEQ_clean_linker_1, # of connection points: 2
#     Edge 36, Type (0, 0), BuildingBlock: KIFKEQ_clean_linker_1, # of connection points: 2
#     Edge 37, Type (0, 0), BuildingBlock: KIFKEQ_clean_linker_1, # of connection points: 2
#     Edge 38, Type (0, 0), BuildingBlock: KIFKEQ_clean_linker_1, # of connection points: 2
#     Edge 39, Type (0, 0), BuildingBlock: KIFKEQ_clean_linker_1, # of connection points: 2
#     Edge 40, Type (0, 0), BuildingBlock: KIFKEQ_clean_linker_1, # of connection points: 2
#     Edge 41, Type (0, 0), BuildingBlock: KIFKEQ_clean_linker_1, # of connection points: 2
#     Edge 42, Type (0, 0), BuildingBlock: KIFKEQ_clean_linker_1, # of connection points: 2
#     Edge 43, Type (0, 0), BuildingBlock: KIFKEQ_clean_linker_1, # of connection points: 2
#     Edge 44, Type (0, 0), BuildingBlock: KIFKEQ_clean_linker_1, # of connection points: 2
#     Edge 45, Type (0, 0), BuildingBlock: KIFKEQ_clean_linker_1, # of connection points: 2
#     Edge 46, Type (0, 0), BuildingBlock: KIFKEQ_clean_linker_1, # of connection points: 2
#     Edge 47, Type (0, 0), BuildingBlock: KIFKEQ_clean_linker_1, # of connection points: 2
#     Edge 48, Type (0, 0), BuildingBlock: KIFKEQ_clean_linker_1, # of connection points: 2
#     Edge 49, Type (0, 0), BuildingBlock: KIFKEQ_clean_linker_1, # of connection points: 2
#     Edge 50, Type (0, 0), BuildingBlock: KIFKEQ_clean_linker_1, # of connection points: 2
#     Edge 51, Type (0, 0), BuildingBlock: KIFKEQ_clean_linker_1, # of connection points: 2
#     Edge 52, Type (0, 0), BuildingBlock: KIFKEQ_clean_linker_1, # of connection points: 2
#     Edge 53, Type (0, 0), BuildingBlock: KIFKEQ_clean_linker_1, # of connection points: 2
#     Edge 54, Type (0, 0), BuildingBlock: KIFKEQ_clean_linker_1, # of connection points: 2
#     Edge 55, Type (0, 0), BuildingBlock: KIFKEQ_clean_linker_1, # of connection points: 2
#     Edge 56, Type (0, 0), BuildingBlock: KIFKEQ_clean_linker_1, # of connection points: 2
#     Edge 57, Type (0, 0), BuildingBlock: KIFKEQ_clean_linker_1, # of connection points: 2
#     Edge 58, Type (0, 0), BuildingBlock: KIFKEQ_clean_linker_1, # of connection points: 2
#     Edge 59, Type (0, 0), BuildingBlock: KIFKEQ_clean_linker_1, # of connection points: 2
#     Edge 60, Type (0, 0), BuildingBlock: KIFKEQ_clean_linker_1, # of connection points: 2
#     Edge 61, Type (0, 0), BuildingBlock: KIFKEQ_clean_linker_1, # of connection points: 2
#     Edge 62, Type (0, 0), BuildingBlock: KIFKEQ_clean_linker_1, # of connection points: 2
#     Edge 63, Type (0, 0), BuildingBlock: KIFKEQ_clean_linker_1, # of connection points: 2
#     Edge 64, Type (0, 0), BuildingBlock: KIFKEQ_clean_linker_1, # of connection points: 2
#     Edge 65, Type (0, 0), BuildingBlock: KIFKEQ_clean_linker_1, # of connection points: 2
#     Edge 66, Type (0, 0), BuildingBlock: KIFKEQ_clean_linker_1, # of connection points: 2
#     Edge 67, Type (0, 0), BuildingBlock: KIFKEQ_clean_linker_1, # of connection points: 2
#     Edge 68, Type (0, 0), BuildingBlock: KIFKEQ_clean_linker_1, # of connection points: 2
#     Edge 69, Type (0, 0), BuildingBlock: KIFKEQ_clean_linker_1, # of connection points: 2
#     Edge 70, Type (0, 0), BuildingBlock: KIFKEQ_clean_linker_1, # of connection points: 2
#     Edge 71, Type (0, 0), BuildingBlock: KIFKEQ_clean_linker_1, # of connection points: 2
#     Edge 72, Type (0, 0), BuildingBlock: KIFKEQ_clean_linker_1, # of connection points: 2
#     Edge 73, Type (0, 0), BuildingBlock: KIFKEQ_clean_linker_1, # of connection points: 2
#     Edge 74, Type (0, 0), BuildingBlock: KIFKEQ_clean_linker_1, # of connection points: 2
#     Edge 75, Type (0, 0), BuildingBlock: KIFKEQ_clean_linker_1, # of connection points: 2
#     Edge 76, Type (0, 0), BuildingBlock: KIFKEQ_clean_linker_1, # of connection points: 2
#     Edge 77, Type (0, 0), BuildingBlock: KIFKEQ_clean_linker_1, # of connection points: 2
#     Edge 78, Type (0, 0), BuildingBlock: KIFKEQ_clean_linker_1, # of connection points: 2
#     Edge 79, Type (0, 0), BuildingBlock: KIFKEQ_clean_linker_1, # of connection points: 2
#     Edge 80, Type (0, 0), BuildingBlock: KIFKEQ_clean_linker_1, # of connection points: 2
#     Edge 81, Type (0, 0), BuildingBlock: KIFKEQ_clean_linker_1, # of connection points: 2
#     Edge 82, Type (0, 0), BuildingBlock: KIFKEQ_clean_linker_1, # of connection points: 2
#     Edge 83, Type (0, 0), BuildingBlock: KIFKEQ_clean_linker_1, # of connection points: 2
#     Edge 84, Type (0, 0), BuildingBlock: KIFKEQ_clean_linker_1, # of connection points: 2
#     Edge 85, Type (0, 0), BuildingBlock: KIFKEQ_clean_linker_1, # of connection points: 2
#     Edge 86, Type (0, 0), BuildingBlock: KIFKEQ_clean_linker_1, # of connection points: 2
#     Edge 87, Type (0, 0), BuildingBlock: KIFKEQ_clean_linker_1, # of connection points: 2
#     Edge 88, Type (0, 0), BuildingBlock: KIFKEQ_clean_linker_1, # of connection points: 2
#     Edge 89, Type (0, 0), BuildingBlock: KIFKEQ_clean_linker_1, # of connection points: 2
#     Edge 90, Type (0, 0), BuildingBlock: KIFKEQ_clean_linker_1, # of connection points: 2
#     Edge 91, Type (0, 0), BuildingBlock: KIFKEQ_clean_linker_1, # of connection points: 2
#     Edge 92, Type (0, 0), BuildingBlock: KIFKEQ_clean_linker_1, # of connection points: 2
#     Edge 93, Type (0, 0), BuildingBlock: KIFKEQ_clean_linker_1, # of connection points: 2
#     Edge 94, Type (0, 0), BuildingBlock: KIFKEQ_clean_linker_1, # of connection points: 2
#     Edge 95, Type (0, 0), BuildingBlock: KIFKEQ_clean_linker_1, # of connection points: 2
#     Edge 96, Type (0, 0), BuildingBlock: KIFKEQ_clean_linker_1, # of connection points: 2
#     Edge 97, Type (0, 0), BuildingBlock: KIFKEQ_clean_linker_1, # of connection points: 2
#     Edge 98, Type (0, 0), BuildingBlock: KIFKEQ_clean_linker_1, # of connection points: 2
#     Edge 99, Type (0, 0), BuildingBlock: KIFKEQ_clean_linker_1, # of connection points: 2
#     Edge 100, Type (0, 0), BuildingBlock: KIFKEQ_clean_linker_1, # of connection points: 2
#     Edge 101, Type (0, 0), BuildingBlock: KIFKEQ_clean_linker_1, # of connection points: 2
#     Edge 102, Type (0, 0), BuildingBlock: KIFKEQ_clean_linker_1, # of connection points: 2
#     Edge 103, Type (0, 0), BuildingBlock: KIFKEQ_clean_linker_1, # of connection points: 2
#     Edge 104, Type (0, 0), BuildingBlock: KIFKEQ_clean_linker_1, # of connection points: 2
#     Edge 105, Type (0, 0), BuildingBlock: KIFKEQ_clean_linker_1, # of connection points: 2
#     Edge 106, Type (0, 0), BuildingBlock: KIFKEQ_clean_linker_1, # of connection points: 2
#     Edge 107, Type (0, 0), BuildingBlock: KIFKEQ_clean_linker_1, # of connection points: 2
#     Edge 108, Type (0, 0), BuildingBlock: KIFKEQ_clean_linker_1, # of connection points: 2
#     Edge 109, Type (0, 0), BuildingBlock: KIFKEQ_clean_linker_1, # of connection points: 2
#     Edge 110, Type (0, 0), BuildingBlock: KIFKEQ_clean_linker_1, # of connection points: 2
#     Edge 111, Type (0, 0), BuildingBlock: KIFKEQ_clean_linker_1, # of connection points: 2
# Relax obj value: 0.408
# Max RMSD: 0.288
# Mean RMSD: 0.288
data_MOF--net-yfs--node1-XOMCOT_clean_sbu_0--edge1-KIFKEQ_clean_linker_1
_symmetry_space_group_name_H-M    P1
_symmetry_Int_Tables_number       1
_symmetry_cell_setting            triclinic
loop_
_symmetry_equiv_pos_as_xyz
'x, y, z'
_cell_length_a     50.325913
_cell_length_b     50.307716
_cell_length_c     75.789362
_cell_angle_alpha  90.008996
_cell_angle_beta   90.015229
_cell_angle_gamma 90.004322
loop_
_atom_site_label
_atom_site_type_symbol
_atom_site_fract_x
_atom_site_fract_y
_atom_site_fract_z
_atom_type_partial_charge
Co0 Co 0.41216 0.18488 0.21454 0.0
C1 C 0.36365 0.20984 0.22913 0.0
C2 C 0.3976 0.23561 0.23048 0.0
C3 C 0.37605 0.24892 0.23723 0.0
N4 N 0.38984 0.2111 0.22559 0.0
N5 N 0.35473 0.23269 0.2364 0.0
H6 H 0.35146 0.19258 0.22646 0.0
H7 H 0.41743 0.24348 0.22881 0.0
C8 C 0.46233 0.19538 0.23204 0.0
O9 O 0.47267 0.19221 0.21627 0.0
N10 N 0.43486 0.15833 0.20352 0.0
C11 C 0.44763 0.13824 0.21175 0.0
C12 C 0.46287 0.12472 0.19956 0.0
C13 C 0.44218 0.15642 0.18643 0.0
N14 N 0.45924 0.1362 0.18368 0.0
C15 C 0.3817 0.13785 0.21627 0.0
C16 C 0.38183 0.13228 0.25257 0.0
C17 C 0.37073 0.11203 0.24212 0.0
C18 C 0.37026 0.11537 0.22377 0.0
C19 C 0.39313 0.15457 0.24448 0.0
N20 N 0.39356 0.15663 0.22654 0.0
H21 H 0.38219 0.13961 0.20206 0.0
H22 H 0.40192 0.16989 0.2526 0.0
H23 H 0.44644 0.13412 0.22573 0.0
H24 H 0.43611 0.17003 0.1762 0.0
O25 O 0.3906 0.18725 0.19346 0.0
O26 O 0.42585 0.21225 0.19931 0.0
O27 O 0.43794 0.18965 0.2345 0.0
C28 C 0.40615 0.20673 0.18882 0.0
H29 H 0.37597 0.26924 0.24191 0.0
H30 H 0.47578 0.10797 0.20218 0.0
H31 H 0.38224 0.13066 0.26681 0.0
H32 H 0.36234 0.10015 0.21514 0.0
Co33 Co 0.05957 0.14905 0.45971 0.0
C34 C 0.03275 0.10064 0.47289 0.0
C35 C 0.00838 0.13543 0.47557 0.0
C36 C 0.99448 0.11391 0.48192 0.0
N37 N 0.03235 0.12708 0.47003 0.0
N38 N 0.00982 0.09203 0.48025 0.0
H39 H 0.04957 0.08809 0.46978 0.0
H40 H 0.00139 0.15573 0.47485 0.0
C41 C 0.05234 0.19859 0.47872 0.0
O42 O 0.05543 0.20959 0.46314 0.0
N43 N 0.08742 0.17116 0.44956 0.0
C44 C 0.10787 0.18233 0.45842 0.0
C45 C 0.12272 0.19742 0.44687 0.0
C46 C 0.09049 0.17923 0.4327 0.0
N47 N 0.11173 0.19527 0.43073 0.0
C48 C 0.10453 0.11532 0.4603 0.0
C49 C 0.11696 0.12291 0.49549 0.0
C50 C 0.13643 0.11261 0.48409 0.0
C51 C 0.12924 0.10719 0.46657 0.0
C52 C 0.09221 0.13042 0.4887 0.0
N53 N 0.08714 0.12829 0.47106 0.0
H54 H 0.10038 0.11341 0.44638 0.0
H55 H 0.07803 0.13973 0.49742 0.0
H56 H 0.1114 0.18018 0.47243 0.0
H57 H 0.07711 0.17438 0.42205 0.0
O58 O 0.05573 0.12964 0.43763 0.0
O59 O 0.03312 0.16573 0.44506 0.0
O60 O 0.05599 0.17365 0.48046 0.0
C61 C 0.03761 0.14713 0.43358 0.0
H62 H 0.97442 0.11435 0.48704 0.0
H63 H 0.14004 0.2092 0.4501 0.0
H64 H 0.12146 0.12716 0.50917 0.0
H65 H 0.1433 0.09849 0.45742 0.0
Co66 Co 0.10393 0.82079 0.70692 0.0
C67 C 0.15163 0.7986 0.72429 0.0
C68 C 0.11735 0.77359 0.72731 0.0
C69 C 0.13865 0.76128 0.73515 0.0
N70 N 0.12549 0.79698 0.72064 0.0
N71 N 0.16023 0.77698 0.73325 0.0
H72 H 0.16407 0.81505 0.72026 0.0
H73 H 0.09753 0.76558 0.72593 0.0
C74 C 0.05167 0.81183 0.72184 0.0
O75 O 0.04404 0.81156 0.70528 0.0
N76 N 0.08195 0.84512 0.69329 0.0
C77 C 0.0695 0.86685 0.69969 0.0
C78 C 0.0537 0.87752 0.68667 0.0
C79 C 0.07367 0.84307 0.67638 0.0
N80 N 0.05637 0.8625 0.67206 0.0
C81 C 0.1362 0.86675 0.70723 0.0
C82 C 0.12192 0.88517 0.74025 0.0
C83 C 0.13585 0.90213 0.72876 0.0
C84 C 0.14418 0.89199 0.71247 0.0
C85 C 0.11467 0.85964 0.73457 0.0
N86 N 0.12063 0.8514 0.71786 0.0
H87 H 0.14111 0.86034 0.69406 0.0
H88 H 0.10298 0.84728 0.74325 0.0
H89 H 0.07089 0.87388 0.71313 0.0
H90 H 0.07884 0.82697 0.66762 0.0
O91 O 0.12768 0.81597 0.68699 0.0
O92 O 0.09259 0.79096 0.69283 0.0
O93 O 0.07567 0.81783 0.7256 0.0
C94 C 0.11299 0.79567 0.68279 0.0
H95 H 0.13845 0.74174 0.74112 0.0
H96 H 0.04078 0.89461 0.68798 0.0
H97 H 0.11526 0.89206 0.75304 0.0
H98 H 0.15568 0.90399 0.70339 0.0
Co99 Co 0.43268 0.85013 0.96316 0.0
C100 C 0.4636 0.89747 0.97538 0.0
C101 C 0.45922 0.86819 0.99571 0.0
C102 C 0.47362 0.88904 0.00238 0.0
N103 N 0.45311 0.8732 0.97869 0.0
N104 N 0.47643 0.90743 0.98961 0.0
H105 H 0.46193 0.90772 0.96289 0.0
H106 H 0.45313 0.85096 0.00314 0.0
C107 C 0.44464 0.79725 0.97649 0.0
O108 O 0.44569 0.79055 0.95977 0.0
N109 N 0.41142 0.82703 0.94804 0.0
C110 C 0.38948 0.81362 0.95313 0.0
C111 C 0.38056 0.79832 0.93932 0.0
C112 C 0.41554 0.8195 0.93112 0.0
N113 N 0.39704 0.80195 0.92553 0.0
C114 C 0.38311 0.87744 0.96338 0.0
C115 C 0.36651 0.86008 0.99618 0.0
C116 C 0.34815 0.87313 0.98521 0.0
C117 C 0.35718 0.8828 0.96889 0.0
C118 C 0.39239 0.85547 0.99026 0.0
N119 N 0.39999 0.86304 0.97372 0.0
H120 H 0.38915 0.88353 0.95032 0.0
H121 H 0.4057 0.84449 0.9987 0.0
H122 H 0.38096 0.81416 0.96621 0.0
H123 H 0.4319 0.82618 0.92306 0.0
O124 O 0.43683 0.87513 0.94364 0.0
O125 O 0.46442 0.84228 0.9501 0.0
O126 O 0.43685 0.8205 0.9808 0.0
C127 C 0.45863 0.86223 0.93995 0.0
H128 H 0.48066 0.8909 0.01582 0.0
H129 H 0.36388 0.78474 0.93964 0.0
H130 H 0.36066 0.8521 0.00886 0.0
H131 H 0.3441 0.89365 0.96013 0.0
Co132 Co 0.38117 0.8385 0.29622 0.0
C133 C 0.33024 0.81526 0.28402 0.0
C134 C 0.36237 0.805 0.26671 0.0
C135 C 0.33931 0.7946 0.25992 0.0
N136 N 0.35676 0.81801 0.28183 0.0
N137 N 0.31917 0.80104 0.27079 0.0
H138 H 0.31916 0.82398 0.2948 0.0
H139 H 0.38169 0.80329 0.2607 0.0
C140 C 0.43224 0.84321 0.27468 0.0
O141 O 0.44042 0.86462 0.28291 0.0
N142 N 0.40548 0.85961 0.31084 0.0
C143 C 0.40924 0.88622 0.31041 0.0
C144 C 0.42655 0.89341 0.32357 0.0
C145 C 0.42081 0.85117 0.32444 0.0
N146 N 0.43373 0.87142 0.33252 0.0
C147 C 0.34891 0.8849 0.29609 0.0
C148 C 0.36689 0.90552 0.26448 0.0
C149 C 0.35114 0.92146 0.27551 0.0
C150 C 0.3411 0.91035 0.29108 0.0
C151 C 0.3741 0.87998 0.26994 0.0
N152 N 0.36642 0.87069 0.28608 0.0
H153 H 0.34218 0.87743 0.30864 0.0
H154 H 0.38673 0.86834 0.26145 0.0
H155 H 0.40057 0.89984 0.30105 0.0
H156 H 0.42199 0.83073 0.32869 0.0
O157 O 0.35798 0.83429 0.31654 0.0
O158 O 0.39048 0.8069 0.30895 0.0
O159 O 0.40906 0.83379 0.27742 0.0
C160 C 0.37158 0.81288 0.31991 0.0
H161 H 0.33752 0.78296 0.24796 0.0
H162 H 0.43336 0.91342 0.3262 0.0
H163 H 0.37487 0.91319 0.25223 0.0
H164 H 0.32826 0.92167 0.29975 0.0
Co165 Co 0.41523 0.15456 0.53938 0.0
C166 C 0.4368 0.10562 0.52287 0.0
C167 C 0.43538 0.1376 0.50427 0.0
C168 C 0.44562 0.11554 0.49596 0.0
N169 N 0.43011 0.13152 0.52125 0.0
N170 N 0.4466 0.09544 0.5077 0.0
H171 H 0.43411 0.09421 0.5348 0.0
H172 H 0.43155 0.15647 0.49805 0.0
C173 C 0.42829 0.20775 0.52723 0.0
O174 O 0.43346 0.21233 0.54393 0.0
N175 N 0.39958 0.17727 0.55753 0.0
C176 C 0.37769 0.19247 0.55553 0.0
C177 C 0.37222 0.20503 0.57125 0.0
C178 C 0.40725 0.18112 0.57448 0.0
N179 N 0.39085 0.1979 0.58312 0.0
C180 C 0.36348 0.1321 0.54303 0.0
C181 C 0.34526 0.14571 0.50981 0.0
C182 C 0.32775 0.13322 0.52162 0.0
C183 C 0.3373 0.12608 0.53835 0.0
C184 C 0.37121 0.15147 0.51504 0.0
N185 N 0.37986 0.14503 0.53155 0.0
H186 H 0.37044 0.12712 0.55611 0.0
H187 H 0.38419 0.16134 0.50581 0.0
H188 H 0.36648 0.1944 0.54342 0.0
H189 H 0.42429 0.17185 0.58057 0.0
O190 O 0.42132 0.12714 0.557 0.0
O191 O 0.44991 0.15868 0.54939 0.0
O192 O 0.41785 0.18564 0.52269 0.0
C193 C 0.44482 0.13777 0.55883 0.0
H194 H 0.452 0.11454 0.48235 0.0
H195 H 0.35605 0.21874 0.57368 0.0
H196 H 0.33897 0.15108 0.49662 0.0
H197 H 0.32447 0.11664 0.54796 0.0
Co198 Co 0.10157 0.1746 0.7854 0.0
C199 C 0.15506 0.19413 0.77475 0.0
C200 C 0.12398 0.22269 0.77037 0.0
C201 C 0.14731 0.23309 0.76408 0.0
N202 N 0.12874 0.1982 0.77681 0.0
N203 N 0.16672 0.21515 0.76682 0.0
H204 H 0.16529 0.17607 0.77852 0.0
H205 H 0.10477 0.23226 0.77021 0.0
C206 C 0.06167 0.17479 0.75467 0.0
O207 O 0.05434 0.14998 0.75676 0.0
N208 N 0.07345 0.15098 0.79401 0.0
C209 C 0.06818 0.12562 0.78917 0.0
C210 C 0.04863 0.11541 0.7999 0.0
C211 C 0.05654 0.15573 0.8075 0.0
N212 N 0.04143 0.13438 0.81147 0.0
C213 C 0.12992 0.12591 0.78463 0.0
C214 C 0.12761 0.11747 0.74864 0.0
C215 C 0.13649 0.09681 0.75966 0.0
C216 C 0.13863 0.10176 0.77779 0.0
C217 C 0.11921 0.14154 0.75606 0.0
N218 N 0.11894 0.14478 0.77394 0.0
H219 H 0.13005 0.12852 0.79876 0.0
H220 H 0.11216 0.1571 0.74746 0.0
H221 H 0.07785 0.11486 0.77865 0.0
H222 H 0.05603 0.174 0.81495 0.0
O223 O 0.11903 0.17301 0.80824 0.0
O224 O 0.08891 0.20282 0.80037 0.0
O225 O 0.07999 0.18487 0.76417 0.0
C226 C 0.10491 0.19376 0.81241 0.0
H227 H 0.14995 0.25245 0.75809 0.0
H228 H 0.04072 0.09542 0.79941 0.0
H229 H 0.1264 0.11475 0.73449 0.0
H230 H 0.14521 0.08648 0.78685 0.0
Co231 Co 0.07213 0.84361 0.0472 0.0
C232 C 0.04353 0.88765 0.02889 0.0
C233 C 0.04809 0.85354 0.01223 0.0
C234 C 0.03537 0.87319 0.0028 0.0
N235 N 0.05309 0.86251 0.02867 0.0
N236 N 0.0325 0.89467 0.0133 0.0
H237 H 0.04538 0.90097 0.04001 0.0
H238 H 0.05373 0.83423 0.00722 0.0
C239 C 0.06737 0.78474 0.03847 0.0
O240 O 0.0863 0.77834 0.0496 0.0
N241 N 0.09148 0.82551 0.06603 0.0
C242 C 0.11757 0.82834 0.06963 0.0
C243 C 0.12315 0.81626 0.08542 0.0
C244 C 0.08144 0.81229 0.08014 0.0
N245 N 0.10045 0.8063 0.09219 0.0
C246 C 0.11411 0.873 0.03138 0.0
C247 C 0.14446 0.83028 0.02047 0.0
C248 C 0.15506 0.85595 0.01913 0.0
C249 C 0.13922 0.87756 0.02412 0.0
C250 C 0.11909 0.82662 0.02753 0.0
N251 N 0.1047 0.84776 0.03359 0.0
H252 H 0.10255 0.88978 0.03587 0.0
H253 H 0.11194 0.80668 0.02893 0.0
H254 H 0.13164 0.83955 0.06187 0.0
H255 H 0.06052 0.80807 0.08182 0.0
O256 O 0.07407 0.87547 0.0616 0.0
O257 O 0.04131 0.84582 0.06195 0.0
O258 O 0.06182 0.80908 0.0353 0.0
C259 C 0.05143 0.86766 0.06814 0.0
H260 H 0.02886 0.87173 0.98923 0.0
H261 H 0.14255 0.81544 0.09154 0.0
H262 H 0.15598 0.8131 0.0165 0.0
H263 H 0.14668 0.89772 0.02325 0.0
Co264 Co 0.60596 0.82177 0.79028 0.0
C265 C 0.65321 0.79676 0.77381 0.0
C266 C 0.61737 0.77469 0.76917 0.0
C267 C 0.63825 0.76099 0.76185 0.0
N268 N 0.62674 0.79712 0.77654 0.0
N269 N 0.66084 0.77483 0.76475 0.0
H270 H 0.66649 0.81207 0.77857 0.0
H271 H 0.5969 0.76823 0.7697 0.0
C272 C 0.55382 0.8157 0.77417 0.0
O273 O 0.54505 0.81496 0.79048 0.0
N274 N 0.58449 0.84651 0.80408 0.0
C275 C 0.57241 0.86868 0.79806 0.0
C276 C 0.55682 0.87917 0.81132 0.0
C277 C 0.57606 0.84395 0.82093 0.0
N278 N 0.559 0.86343 0.82566 0.0
C279 C 0.63501 0.87022 0.78968 0.0
C280 C 0.63312 0.87742 0.75352 0.0
C281 C 0.64284 0.89809 0.7642 0.0
C282 C 0.64451 0.89389 0.78247 0.0
C283 C 0.6235 0.85421 0.7613 0.0
N284 N 0.62362 0.85141 0.77918 0.0
H285 H 0.63532 0.86758 0.80383 0.0
H286 H 0.6153 0.83879 0.753 0.0
H287 H 0.57403 0.87616 0.78472 0.0
H288 H 0.58179 0.8279 0.82956 0.0
O289 O 0.62964 0.81615 0.81003 0.0
O290 O 0.59354 0.79232 0.80413 0.0
O291 O 0.57824 0.82067 0.77128 0.0
C292 C 0.6144 0.79605 0.81397 0.0
H293 H 0.63689 0.74176 0.75552 0.0
H294 H 0.544 0.89635 0.8102 0.0
H295 H 0.63221 0.87943 0.73931 0.0
H296 H 0.65171 0.90924 0.79127 0.0
Co297 Co 0.91947 0.84622 0.53833 0.0
C298 C 0.94233 0.89576 0.52348 0.0
C299 C 0.96649 0.86145 0.51828 0.0
C300 C 0.97904 0.88341 0.51146 0.0
N301 N 0.94347 0.86917 0.52567 0.0
N302 N 0.96392 0.90502 0.51477 0.0
H303 H 0.92647 0.90805 0.5286 0.0
H304 H 0.97397 0.84132 0.51828 0.0
C305 C 0.92739 0.796 0.52023 0.0
O306 O 0.92751 0.786 0.53624 0.0
N307 N 0.8951 0.82284 0.55094 0.0
C308 C 0.87383 0.8103 0.54396 0.0
C309 C 0.86272 0.79405 0.55661 0.0
C310 C 0.89637 0.81425 0.56781 0.0
N311 N 0.87693 0.79667 0.57158 0.0
C312 C 0.87127 0.87501 0.53977 0.0
C313 C 0.86007 0.87382 0.50407 0.0
C314 C 0.84047 0.88295 0.51584 0.0
C315 C 0.84676 0.88422 0.53385 0.0
C316 C 0.88439 0.86456 0.51059 0.0
N317 N 0.88917 0.86433 0.5283 0.0
H318 H 0.87525 0.87478 0.55378 0.0
H319 H 0.89898 0.8568 0.50149 0.0
H320 H 0.86729 0.81229 0.53042 0.0
H321 H 0.91174 0.81973 0.57705 0.0
O322 O 0.92471 0.86765 0.55931 0.0
O323 O 0.94921 0.83288 0.55161 0.0
O324 O 0.92162 0.82047 0.51808 0.0
C325 C 0.94499 0.8523 0.56257 0.0
H326 H 0.99792 0.88339 0.50464 0.0
H327 H 0.84573 0.78111 0.55488 0.0
H328 H 0.85638 0.87307 0.49 0.0
H329 H 0.83233 0.89076 0.54352 0.0
Co330 Co 0.89283 0.18966 0.28052 0.0
C331 C 0.84686 0.22376 0.27054 0.0
C332 C 0.87334 0.21715 0.24882 0.0
C333 C 0.85238 0.23225 0.24299 0.0
N334 N 0.8701 0.21203 0.26616 0.0
N335 N 0.83574 0.23637 0.25664 0.0
H336 H 0.83797 0.22278 0.2835 0.0
H337 H 0.88922 0.2096 0.24064 0.0
C338 C 0.94637 0.18922 0.26219 0.0
O339 O 0.95549 0.17018 0.27235 0.0
N340 N 0.91528 0.16672 0.2951 0.0
C341 C 0.9154 0.13983 0.29576 0.0
C342 C 0.93207 0.1316 0.30905 0.0
C343 C 0.93162 0.1743 0.30839 0.0
N344 N 0.94206 0.15328 0.31702 0.0
C345 C 0.85363 0.15045 0.27306 0.0
C346 C 0.88289 0.12175 0.2488 0.0
C347 C 0.85834 0.11161 0.25448 0.0
C348 C 0.84329 0.12675 0.26636 0.0
C349 C 0.89243 0.14558 0.25574 0.0
N350 N 0.87834 0.15901 0.26829 0.0
H351 H 0.84203 0.16155 0.2825 0.0
H352 H 0.91182 0.15211 0.25169 0.0
H353 H 0.90343 0.12668 0.28782 0.0
H354 H 0.93549 0.19473 0.312 0.0
O355 O 0.86849 0.19214 0.30046 0.0
O356 O 0.90172 0.21974 0.29484 0.0
O357 O 0.92187 0.19575 0.26266 0.0
C358 C 0.88217 0.21304 0.30507 0.0
H359 H 0.84903 0.23861 0.22953 0.0
H360 H 0.93538 0.11128 0.31322 0.0
H361 H 0.89542 0.11072 0.23979 0.0
H362 H 0.82396 0.12006 0.27079 0.0
Co363 Co 0.58872 0.14289 0.04741 0.0
C364 C 0.56426 0.09571 0.03009 0.0
C365 C 0.54231 0.13177 0.02588 0.0
C366 C 0.52908 0.11136 0.01771 0.0
N367 N 0.56438 0.12203 0.03352 0.0
N368 N 0.54275 0.08862 0.02041 0.0
H369 H 0.57912 0.08204 0.03501 0.0
H370 H 0.53596 0.15226 0.02657 0.0
C371 C 0.58256 0.19479 0.03103 0.0
O372 O 0.58204 0.20368 0.04732 0.0
N373 N 0.61331 0.16452 0.06119 0.0
C374 C 0.63609 0.1754 0.05517 0.0
C375 C 0.646 0.1925 0.06775 0.0
C376 C 0.60984 0.17511 0.07743 0.0
N377 N 0.6294 0.19232 0.0817 0.0
C378 C 0.63513 0.11105 0.04813 0.0
C379 C 0.65058 0.11998 0.01363 0.0
C380 C 0.66867 0.10812 0.02537 0.0
C381 C 0.66008 0.1025 0.04257 0.0
C382 C 0.62556 0.12798 0.0197 0.0
N383 N 0.61883 0.12475 0.03701 0.0
H384 H 0.62965 0.10833 0.06179 0.0
H385 H 0.61227 0.13801 0.01071 0.0
H386 H 0.64427 0.17222 0.04216 0.0
H387 H 0.59251 0.17191 0.08555 0.0
O388 O 0.58236 0.11993 0.06754 0.0
O389 O 0.55895 0.15586 0.06086 0.0
O390 O 0.58794 0.1704 0.02821 0.0
C391 C 0.56254 0.13561 0.07125 0.0
H392 H 0.51071 0.11322 0.01041 0.0
H393 H 0.66356 0.20477 0.06648 0.0
H394 H 0.65622 0.12456 0.00018 0.0
H395 H 0.67302 0.0927 0.05196 0.0
Co396 Co 0.60868 0.15603 0.69025 0.0
C397 C 0.64883 0.18811 0.70882 0.0
C398 C 0.61049 0.20674 0.70919 0.0
C399 C 0.62845 0.22346 0.71722 0.0
N400 N 0.62333 0.18464 0.70401 0.0
N401 N 0.65262 0.21177 0.71696 0.0
H402 H 0.66423 0.17371 0.70609 0.0
H403 H 0.58974 0.21086 0.70669 0.0
C404 C 0.55378 0.1584 0.70123 0.0
O405 O 0.54855 0.15523 0.68438 0.0
N406 N 0.59372 0.12685 0.67671 0.0
C407 C 0.58445 0.1039 0.68361 0.0
C408 C 0.57084 0.0902 0.67076 0.0
C409 C 0.58593 0.12654 0.65967 0.0
N410 N 0.57181 0.10452 0.65577 0.0
C411 C 0.64738 0.11597 0.69523 0.0
C412 C 0.6325 0.1018 0.72906 0.0
C413 C 0.64979 0.08513 0.71958 0.0
C414 C 0.6584 0.09339 0.70287 0.0
C415 C 0.62228 0.12463 0.721 0.0
N416 N 0.62858 0.1304 0.70392 0.0
H417 H 0.65256 0.12077 0.68178 0.0
H418 H 0.60813 0.13665 0.72814 0.0
H419 H 0.58579 0.09836 0.69736 0.0
H420 H 0.58828 0.14304 0.65067 0.0
O421 O 0.63438 0.16357 0.67177 0.0
O422 O 0.59447 0.18183 0.67419 0.0
O423 O 0.57756 0.15524 0.70671 0.0
C424 C 0.61704 0.18067 0.66593 0.0
H425 H 0.6241 0.24313 0.72219 0.0
H426 H 0.55974 0.07197 0.67256 0.0
H427 H 0.62541 0.09636 0.74205 0.0
H428 H 0.67232 0.0816 0.69529 0.0
Co429 Co 0.56299 0.85144 0.47004 0.0
C430 C 0.53104 0.89935 0.4793 0.0
C431 C 0.53581 0.8729 0.50126 0.0
C432 C 0.52175 0.89471 0.50681 0.0
N433 N 0.54146 0.87559 0.48396 0.0
N434 N 0.51871 0.91136 0.49302 0.0
H435 H 0.53267 0.90787 0.46625 0.0
H436 H 0.54221 0.85676 0.50964 0.0
C437 C 0.56606 0.79984 0.49043 0.0
O438 O 0.58764 0.79208 0.48221 0.0
N439 N 0.58514 0.82748 0.45607 0.0
C440 C 0.61201 0.82591 0.45568 0.0
C441 C 0.61953 0.80714 0.44348 0.0
C442 C 0.57689 0.80973 0.44383 0.0
N443 N 0.59745 0.79718 0.43603 0.0
C444 C 0.60615 0.88782 0.47229 0.0
C445 C 0.6316 0.86459 0.50069 0.0
C446 C 0.64498 0.8841 0.49089 0.0
C447 C 0.63146 0.89655 0.47702 0.0
C448 C 0.60623 0.85636 0.49548 0.0
N449 N 0.5945 0.86692 0.4808 0.0
H450 H 0.59665 0.89697 0.46109 0.0
H451 H 0.5969 0.8406 0.50281 0.0
H452 H 0.62563 0.83759 0.46345 0.0
H453 H 0.55634 0.80618 0.44042 0.0
O454 O 0.55932 0.87386 0.44919 0.0
O455 O 0.53212 0.84126 0.45667 0.0
O456 O 0.5577 0.82368 0.48892 0.0
C457 C 0.53841 0.85966 0.44544 0.0
H458 H 0.51525 0.89848 0.52018 0.0
H459 H 0.63969 0.8021 0.43977 0.0
H460 H 0.64124 0.8546 0.51161 0.0
H461 H 0.64079 0.91221 0.46942 0.0
Co462 Co 0.89492 0.84547 0.201 0.0
C463 C 0.84867 0.81478 0.2144 0.0
C464 C 0.88501 0.79251 0.21541 0.0
C465 C 0.86474 0.77667 0.22153 0.0
N466 N 0.87495 0.81642 0.21106 0.0
N467 N 0.84186 0.79068 0.22094 0.0
H468 H 0.83488 0.83087 0.2122 0.0
H469 H 0.90564 0.78688 0.214 0.0
C470 C 0.94761 0.84298 0.21994 0.0
O471 O 0.9582 0.86129 0.20988 0.0
N472 N 0.91501 0.87471 0.19045 0.0
C473 C 0.91106 0.90125 0.19197 0.0
C474 C 0.92798 0.91442 0.18066 0.0
C475 C 0.93426 0.87237 0.17812 0.0
N476 N 0.94264 0.89615 0.17217 0.0
C477 C 0.85319 0.88211 0.20907 0.0
C478 C 0.87721 0.90361 0.23859 0.0
C479 C 0.85636 0.91741 0.23051 0.0
C480 C 0.84314 0.9056 0.2163 0.0
C481 C 0.88649 0.88009 0.23109 0.0
N482 N 0.87569 0.87066 0.21576 0.0
H483 H 0.84423 0.87455 0.19716 0.0
H484 H 0.90374 0.87109 0.23696 0.0
H485 H 0.89665 0.91085 0.20031 0.0
H486 H 0.94205 0.85364 0.17342 0.0
O487 O 0.87222 0.84471 0.18021 0.0
O488 O 0.90924 0.82137 0.1839 0.0
O489 O 0.92266 0.8384 0.21955 0.0
C490 C 0.88922 0.82761 0.17397 0.0
H491 H 0.86674 0.75625 0.22581 0.0
H492 H 0.92928 0.9357 0.17873 0.0
H493 H 0.88764 0.91207 0.24978 0.0
H494 H 0.8269 0.91573 0.20974 0.0
Co495 Co 0.93696 0.14104 0.9562 0.0
C496 C 0.95632 0.08963 0.971 0.0
C497 C 0.98336 0.122 0.97545 0.0
C498 C 0.99393 0.09945 0.98285 0.0
N499 N 0.95973 0.11594 0.96817 0.0
N500 N 0.97696 0.0791 0.9801 0.0
H501 H 0.93907 0.07856 0.96666 0.0
H502 H 0.99245 0.14146 0.97519 0.0
C503 C 0.93451 0.18754 0.98219 0.0
O504 O 0.90901 0.19152 0.97984 0.0
N505 N 0.91416 0.1669 0.94392 0.0
C506 C 0.88863 0.17338 0.94744 0.0
C507 C 0.87958 0.19095 0.93491 0.0
C508 C 0.92009 0.18101 0.92919 0.0
N509 N 0.89932 0.19564 0.92332 0.0
C510 C 0.88741 0.11421 0.95926 0.0
C511 C 0.88034 0.12206 0.99505 0.0
C512 C 0.85938 0.11128 0.9851 0.0
C513 C 0.86356 0.10651 0.96709 0.0
C514 C 0.90397 0.12946 0.98667 0.0
N515 N 0.90656 0.1269 0.96883 0.0
H516 H 0.88974 0.11167 0.9452 0.0
H517 H 0.91989 0.13777 0.99447 0.0
H518 H 0.87704 0.16619 0.95843 0.0
H519 H 0.93899 0.1801 0.92251 0.0
O520 O 0.93626 0.11825 0.93548 0.0
O521 O 0.96595 0.14976 0.94091 0.0
O522 O 0.94626 0.16798 0.97485 0.0
C523 C 0.95727 0.13132 0.93039 0.0
H524 H 0.01298 0.09803 0.98943 0.0
H525 H 0.85989 0.19953 0.93446 0.0
H526 H 0.87831 0.12525 0.00911 0.0
H527 H 0.84802 0.0983 0.95884 0.0
Co528 Co 0.89937 0.66639 0.70752 0.0
C529 C 0.85223 0.69248 0.72446 0.0
C530 C 0.88775 0.71583 0.72604 0.0
C531 C 0.8673 0.73027 0.73315 0.0
N532 N 0.87854 0.69189 0.72089 0.0
N533 N 0.84484 0.71571 0.73207 0.0
H534 H 0.83852 0.67701 0.72077 0.0
H535 H 0.90798 0.72261 0.72431 0.0
C536 C 0.92838 0.67565 0.74137 0.0
O537 O 0.90585 0.67317 0.74997 0.0
N538 N 0.92042 0.64187 0.69366 0.0
C539 C 0.91289 0.61777 0.68768 0.0
C540 C 0.93075 0.60941 0.67515 0.0
C541 C 0.94272 0.64783 0.6846 0.0
N542 N 0.94934 0.62846 0.67303 0.0
C543 C 0.85904 0.62747 0.71487 0.0
C544 C 0.89044 0.59512 0.73572 0.0
C545 C 0.86574 0.58564 0.73006 0.0
C546 C 0.84973 0.60229 0.71976 0.0
C547 C 0.89929 0.62005 0.73019 0.0
N548 N 0.88372 0.63604 0.71986 0.0
H549 H 0.84723 0.6391 0.70584 0.0
H550 H 0.91958 0.6252 0.73308 0.0
H551 H 0.89465 0.60772 0.69106 0.0
H552 H 0.95283 0.66674 0.68567 0.0
O553 O 0.87482 0.67004 0.68774 0.0
O554 O 0.91037 0.69497 0.69247 0.0
O555 O 0.9295 0.6702 0.72491 0.0
C556 C 0.89002 0.68957 0.6826 0.0
H557 H 0.86893 0.75017 0.73845 0.0
H558 H 0.92877 0.59173 0.66712 0.0
H559 H 0.90371 0.58252 0.74326 0.0
H560 H 0.83066 0.59546 0.71491 0.0
Co561 Co 0.58516 0.63649 0.95294 0.0
C562 C 0.55667 0.59214 0.96962 0.0
C563 C 0.53664 0.62935 0.9736 0.0
C564 C 0.52207 0.60961 0.98159 0.0
N565 N 0.55831 0.61832 0.96624 0.0
N566 N 0.53472 0.58624 0.97908 0.0
H567 H 0.57093 0.57773 0.96486 0.0
H568 H 0.5316 0.65022 0.97294 0.0
C569 C 0.58312 0.689 0.96878 0.0
O570 O 0.58435 0.69757 0.95243 0.0
N571 N 0.61264 0.65499 0.9398 0.0
C572 C 0.63547 0.66477 0.94655 0.0
C573 C 0.64826 0.67935 0.93371 0.0
C574 C 0.61209 0.66343 0.92292 0.0
N575 N 0.63348 0.67836 0.91891 0.0
C576 C 0.62741 0.59928 0.95387 0.0
C577 C 0.64081 0.60646 0.98892 0.0
C578 C 0.65757 0.59112 0.97811 0.0
C579 C 0.64986 0.58664 0.96057 0.0
C580 C 0.61812 0.61827 0.98177 0.0
N581 N 0.6125 0.61559 0.96426 0.0
H582 H 0.6227 0.59701 0.94005 0.0
H583 H 0.60575 0.63039 0.99018 0.0
H584 H 0.64177 0.66252 0.96011 0.0
H585 H 0.5957 0.66033 0.91396 0.0
O586 O 0.57759 0.61379 0.93287 0.0
O587 O 0.55763 0.65209 0.93863 0.0
O588 O 0.58602 0.66429 0.97189 0.0
C589 C 0.55952 0.63117 0.92862 0.0
H590 H 0.50362 0.61233 0.98869 0.0
H591 H 0.6665 0.69051 0.9353 0.0
H592 H 0.64578 0.61059 0.00254 0.0
H593 H 0.66159 0.57431 0.95183 0.0
Co594 Co 0.60116 0.3496 0.20468 0.0
C595 C 0.64664 0.32575 0.22352 0.0
C596 C 0.61004 0.30533 0.22883 0.0
C597 C 0.6302 0.29238 0.23752 0.0
N598 N 0.62036 0.32628 0.2202 0.0
N599 N 0.65325 0.30516 0.23412 0.0
H600 H 0.66067 0.33947 0.21769 0.0
H601 H 0.58944 0.29932 0.22831 0.0
C602 C 0.5481 0.3457 0.21975 0.0
O603 O 0.54002 0.34394 0.20331 0.0
N604 N 0.58154 0.37337 0.1892 0.0
C605 C 0.56951 0.39621 0.19403 0.0
C606 C 0.55512 0.40585 0.17993 0.0
C607 C 0.57456 0.36966 0.17217 0.0
N608 N 0.55843 0.3891 0.16623 0.0
C609 C 0.63673 0.39367 0.20399 0.0
C610 C 0.62432 0.41337 0.237 0.0
C611 C 0.64108 0.4285 0.22602 0.0
C612 C 0.64807 0.41757 0.20957 0.0
C613 C 0.61423 0.38904 0.23117 0.0
N614 N 0.61949 0.38012 0.21454 0.0
H615 H 0.64116 0.38644 0.1909 0.0
H616 H 0.60145 0.37796 0.23991 0.0
H617 H 0.57022 0.40471 0.20713 0.0
H618 H 0.57981 0.35244 0.16441 0.0
O619 O 0.62538 0.34031 0.18567 0.0
O620 O 0.58818 0.3189 0.19215 0.0
O621 O 0.5723 0.35139 0.22289 0.0
C622 C 0.60941 0.3205 0.18245 0.0
H623 H 0.62803 0.27467 0.24548 0.0
H624 H 0.5427 0.42342 0.17988 0.0
H625 H 0.61794 0.42052 0.24977 0.0
H626 H 0.66169 0.42755 0.20075 0.0
Co627 Co 0.91591 0.35613 0.45646 0.0
C628 C 0.94169 0.40213 0.47358 0.0
C629 C 0.96156 0.36539 0.47939 0.0
C630 C 0.97565 0.3858 0.48698 0.0
N631 N 0.94027 0.37566 0.47111 0.0
N632 N 0.9632 0.40893 0.48332 0.0
H633 H 0.92752 0.416 0.46808 0.0
H634 H 0.96708 0.34463 0.47922 0.0
C635 C 0.91701 0.30391 0.47287 0.0
O636 O 0.91804 0.29508 0.45658 0.0
N637 N 0.8912 0.3361 0.4418 0.0
C638 C 0.86727 0.32653 0.44676 0.0
C639 C 0.85716 0.311 0.43334 0.0
C640 C 0.89521 0.32627 0.42545 0.0
N641 N 0.87494 0.31071 0.42005 0.0
C642 C 0.8711 0.39002 0.45418 0.0
C643 C 0.85549 0.3859 0.48906 0.0
C644 C 0.83855 0.39852 0.47693 0.0
C645 C 0.84711 0.40133 0.45943 0.0
C646 C 0.87944 0.37486 0.48324 0.0
N647 N 0.88629 0.37608 0.46585 0.0
H648 H 0.87679 0.39111 0.44046 0.0
H649 H 0.89194 0.3645 0.49257 0.0
H650 H 0.85825 0.32973 0.45954 0.0
H651 H 0.91285 0.32978 0.41771 0.0
O652 O 0.92519 0.3788 0.43674 0.0
O653 O 0.94593 0.34148 0.44401 0.0
O654 O 0.91349 0.32866 0.47563 0.0
C655 C 0.9445 0.36217 0.43375 0.0
H656 H 0.99428 0.38376 0.49398 0.0
H657 H 0.83879 0.29984 0.4337 0.0
H658 H 0.8497 0.38332 0.50271 0.0
H659 H 0.83492 0.41137 0.44972 0.0
Co660 Co 0.89509 0.31059 0.77955 0.0
C661 C 0.84127 0.29336 0.76748 0.0
C662 C 0.87137 0.26332 0.76459 0.0
C663 C 0.8482 0.25379 0.75751 0.0
N664 N 0.86716 0.28815 0.77064 0.0
N665 N 0.82943 0.27262 0.75934 0.0
H666 H 0.83161 0.31208 0.77038 0.0
H667 H 0.89024 0.25308 0.76495 0.0
C668 C 0.93403 0.31058 0.74816 0.0
O669 O 0.94128 0.33549 0.74977 0.0
N670 N 0.92408 0.33284 0.78843 0.0
C671 C 0.93128 0.35759 0.78326 0.0
C672 C 0.95124 0.36682 0.7941 0.0
C673 C 0.94 0.32755 0.80234 0.0
N674 N 0.95638 0.34791 0.80613 0.0
C675 C 0.86947 0.3607 0.78039 0.0
C676 C 0.86827 0.37011 0.74448 0.0
C677 C 0.86092 0.39072 0.75606 0.0
C678 C 0.86094 0.38533 0.77422 0.0
C679 C 0.87685 0.3456 0.75125 0.0
N680 N 0.87848 0.34169 0.76904 0.0
H681 H 0.87066 0.35761 0.79446 0.0
H682 H 0.88273 0.33009 0.74221 0.0
H683 H 0.92237 0.36872 0.77261 0.0
H684 H 0.93942 0.3095 0.81003 0.0
O685 O 0.87817 0.3111 0.8027 0.0
O686 O 0.90733 0.28116 0.79364 0.0
O687 O 0.91594 0.30076 0.75794 0.0
C688 C 0.89177 0.28966 0.8061 0.0
H689 H 0.84535 0.23464 0.75126 0.0
H690 H 0.96022 0.38637 0.79378 0.0
H691 H 0.8679 0.37301 0.73032 0.0
H692 H 0.85587 0.40047 0.7838 0.0
Co693 Co 0.91016 0.61709 0.06547 0.0
C694 C 0.94436 0.57321 0.05242 0.0
C695 C 0.91397 0.55951 0.07006 0.0
C696 C 0.92725 0.5378 0.06351 0.0
N697 N 0.92469 0.5817 0.06312 0.0
N698 N 0.94627 0.54637 0.05232 0.0
H699 H 0.95638 0.5863 0.04443 0.0
H700 H 0.89671 0.55901 0.07854 0.0
C701 C 0.92887 0.64729 0.0332 0.0
O702 O 0.90481 0.6552 0.02913 0.0
N703 N 0.89478 0.65262 0.06791 0.0
C704 C 0.87356 0.66278 0.0593 0.0
C705 C 0.86819 0.68774 0.06566 0.0
C706 C 0.90183 0.6718 0.07949 0.0
N707 N 0.88585 0.69339 0.07848 0.0
C708 C 0.85652 0.60249 0.05929 0.0
C709 C 0.86199 0.5896 0.02399 0.0
C710 C 0.837 0.58736 0.03201 0.0
C711 C 0.83449 0.5935 0.04994 0.0
C712 C 0.8837 0.59829 0.03393 0.0
N713 N 0.88049 0.6056 0.05115 0.0
H714 H 0.85415 0.60775 0.07301 0.0
H715 H 0.90303 0.59902 0.0278 0.0
H716 H 0.86252 0.65308 0.04892 0.0
H717 H 0.91778 0.66969 0.0889 0.0
O718 O 0.89674 0.60791 0.08881 0.0
O719 O 0.93656 0.62479 0.08295 0.0
O720 O 0.93251 0.62969 0.04508 0.0
C721 C 0.91987 0.61569 0.0945 0.0
H722 H 0.92208 0.51726 0.06597 0.0
H723 H 0.85236 0.70058 0.06113 0.0
H724 H 0.8647 0.58458 0.01021 0.0
H725 H 0.81545 0.5922 0.05656 0.0
Co726 Co 0.60536 0.69289 0.29129 0.0
C727 C 0.6526 0.71815 0.27418 0.0
C728 C 0.63745 0.74186 0.2954 0.0
C729 C 0.65858 0.75497 0.28801 0.0
N730 N 0.63368 0.71855 0.28689 0.0
N731 N 0.66813 0.74007 0.27469 0.0
H732 H 0.65474 0.70253 0.26448 0.0
H733 H 0.62571 0.74931 0.30625 0.0
C734 C 0.56344 0.70478 0.26387 0.0
O735 O 0.55078 0.68241 0.26682 0.0
N736 N 0.57702 0.66741 0.29616 0.0
C737 C 0.57923 0.64067 0.29706 0.0
C738 C 0.55733 0.63049 0.30563 0.0
C739 C 0.55382 0.67294 0.30438 0.0
N740 N 0.54157 0.65086 0.31045 0.0
C741 C 0.64647 0.65523 0.28397 0.0
C742 C 0.6227 0.63302 0.25461 0.0
C743 C 0.64492 0.62019 0.26194 0.0
C744 C 0.6575 0.63238 0.2764 0.0
C745 C 0.61275 0.65613 0.2623 0.0
N746 N 0.62384 0.66626 0.27727 0.0
H747 H 0.65556 0.66357 0.29565 0.0
H748 H 0.59497 0.66449 0.25683 0.0
H749 H 0.59655 0.62933 0.29332 0.0
H750 H 0.54684 0.69291 0.30692 0.0
O751 O 0.61995 0.68514 0.31454 0.0
O752 O 0.5901 0.7163 0.30843 0.0
O753 O 0.58647 0.70887 0.2704 0.0
C754 C 0.60433 0.70402 0.32015 0.0
H755 H 0.66658 0.77386 0.29231 0.0
H756 H 0.55463 0.60999 0.30958 0.0
H757 H 0.61179 0.62455 0.24367 0.0
H758 H 0.67518 0.62393 0.28228 0.0
Co759 Co 0.57818 0.35891 0.54234 0.0
C760 C 0.54737 0.40433 0.52818 0.0
C761 C 0.52562 0.36765 0.52739 0.0
C762 C 0.51014 0.38724 0.52009 0.0
N763 N 0.54895 0.37834 0.53231 0.0
N764 N 0.52379 0.41036 0.52056 0.0
H765 H 0.56318 0.41839 0.53068 0.0
H766 H 0.52038 0.34691 0.52879 0.0
C767 C 0.5735 0.30913 0.52331 0.0
O768 O 0.57854 0.29813 0.53866 0.0
N769 N 0.60788 0.33905 0.55212 0.0
C770 C 0.62952 0.33067 0.54316 0.0
C771 C 0.64448 0.3145 0.55398 0.0
C772 C 0.61024 0.32818 0.5683 0.0
N773 N 0.63227 0.31309 0.56976 0.0
C774 C 0.61948 0.39698 0.5415 0.0
C775 C 0.63185 0.39174 0.50614 0.0
C776 C 0.64987 0.40472 0.51739 0.0
C777 C 0.64257 0.40865 0.53504 0.0
C778 C 0.60859 0.38066 0.51312 0.0
N779 N 0.60365 0.382 0.53081 0.0
H780 H 0.61548 0.39823 0.55547 0.0
H781 H 0.59559 0.36961 0.50449 0.0
H782 H 0.63349 0.33488 0.52943 0.0
H783 H 0.59539 0.32963 0.57853 0.0
O784 O 0.57348 0.37806 0.56436 0.0
O785 O 0.55333 0.34039 0.55733 0.0
O786 O 0.57605 0.33421 0.5216 0.0
C787 C 0.55654 0.35958 0.56861 0.0
H788 H 0.49062 0.38436 0.51443 0.0
H789 H 0.66234 0.30386 0.55034 0.0
H790 H 0.63651 0.38843 0.49237 0.0
H791 H 0.65546 0.41921 0.54409 0.0
Co792 Co 0.11567 0.3302 0.29695 0.0
C793 C 0.16222 0.30437 0.28074 0.0
C794 C 0.12623 0.28254 0.27606 0.0
C795 C 0.14701 0.26885 0.26856 0.0
N796 N 0.13583 0.30479 0.28357 0.0
N797 N 0.16962 0.28259 0.27153 0.0
H798 H 0.17573 0.31929 0.28578 0.0
H799 H 0.10565 0.27641 0.27638 0.0
C800 C 0.06387 0.32635 0.28042 0.0
O801 O 0.055 0.32658 0.2967 0.0
N802 N 0.09515 0.35612 0.31028 0.0
C803 C 0.08519 0.37914 0.30394 0.0
C804 C 0.06905 0.39043 0.31656 0.0
C805 C 0.08508 0.35393 0.32674 0.0
N806 N 0.06904 0.37449 0.33085 0.0
C807 C 0.1504 0.37465 0.29742 0.0
C808 C 0.14356 0.38926 0.26254 0.0
C809 C 0.15708 0.40665 0.27398 0.0
C810 C 0.1615 0.39837 0.29142 0.0
C811 C 0.13318 0.3654 0.26903 0.0
N812 N 0.13555 0.35913 0.28647 0.0
H813 H 0.15248 0.36946 0.31118 0.0
H814 H 0.12222 0.35263 0.26018 0.0
H815 H 0.08844 0.38661 0.29074 0.0
H816 H 0.08788 0.33692 0.33522 0.0
O817 O 0.13776 0.32292 0.31742 0.0
O818 O 0.10085 0.30137 0.31034 0.0
O819 O 0.08852 0.33027 0.27752 0.0
C820 C 0.12101 0.30388 0.32092 0.0
H821 H 0.14555 0.25021 0.2615 0.0
H822 H 0.0576 0.40852 0.31514 0.0
H823 H 0.13963 0.39462 0.24896 0.0
H824 H 0.17247 0.41065 0.30063 0.0
Co825 Co 0.42657 0.34692 0.03325 0.0
C826 C 0.45637 0.3938 0.02007 0.0
C827 C 0.45099 0.36452 -0.00016 0.0
C828 C 0.46429 0.3858 0.99271 0.0
N829 N 0.4463 0.36934 0.01708 0.0
N830 N 0.46761 0.40416 0.00545 0.0
H831 H 0.45534 0.40406 0.03258 0.0
H832 H 0.44439 0.34729 0.99259 0.0
C833 C 0.43761 0.29363 0.0202 0.0
O834 O 0.4382 0.28689 0.03692 0.0
N835 N 0.40584 0.32463 0.04909 0.0
C836 C 0.38312 0.31174 0.04501 0.0
C837 C 0.37527 0.29674 0.05928 0.0
C838 C 0.41143 0.31722 0.06581 0.0
N839 N 0.39324 0.30012 0.07226 0.0
C840 C 0.3788 0.37667 0.03361 0.0
C841 C 0.35954 0.36043 0.0012 0.0
C842 C 0.34345 0.37641 0.01203 0.0
C843 C 0.35378 0.38514 0.02819 0.0
C844 C 0.38475 0.35269 0.00704 0.0
N845 N 0.39371 0.36023 0.02329 0.0
H846 H 0.38575 0.38265 0.04647 0.0
H847 H 0.39652 0.33994 0.99869 0.0
H848 H 0.37334 0.3124 0.03232 0.0
H849 H 0.4287 0.3236 0.07311 0.0
O850 O 0.43167 0.37259 0.0521 0.0
O851 O 0.4589 0.33931 0.04598 0.0
O852 O 0.42974 0.31684 0.01584 0.0
C853 C 0.45355 0.35991 0.0557 0.0
H854 H 0.47005 0.38804 0.97903 0.0
H855 H 0.3583 0.28353 0.05979 0.0
H856 H 0.35239 0.35306 0.98865 0.0
H857 H 0.34242 0.39798 0.03682 0.0
Co858 Co 0.40147 0.67419 0.78715 0.0
C859 C 0.35378 0.70127 0.77326 0.0
C860 C 0.38958 0.72303 0.76793 0.0
C861 C 0.36841 0.73736 0.76155 0.0
N862 N 0.38037 0.7004 0.77511 0.0
N863 N 0.34588 0.72371 0.76495 0.0
H864 H 0.34055 0.68616 0.77837 0.0
H865 H 0.41021 0.72902 0.76777 0.0
C866 C 0.45216 0.67894 0.76905 0.0
O867 O 0.46237 0.67738 0.78496 0.0
N868 N 0.42295 0.64758 0.79919 0.0
C869 C 0.43383 0.62567 0.79185 0.0
C870 C 0.44929 0.61298 0.8043 0.0
C871 C 0.43168 0.64765 0.81603 0.0
N872 N 0.44777 0.62687 0.81947 0.0
C873 C 0.36968 0.62751 0.78695 0.0
C874 C 0.37212 0.61892 0.75094 0.0
C875 C 0.36254 0.59858 0.76192 0.0
C876 C 0.36021 0.60361 0.78005 0.0
C877 C 0.38137 0.64256 0.75839 0.0
N878 N 0.38139 0.64587 0.77624 0.0
H879 H 0.36957 0.63045 0.80108 0.0
H880 H 0.38972 0.65763 0.74987 0.0
H881 H 0.43135 0.61978 0.77822 0.0
H882 H 0.42751 0.66313 0.82549 0.0
O883 O 0.38053 0.67981 0.80833 0.0
O884 O 0.41685 0.70224 0.80103 0.0
O885 O 0.42727 0.67548 0.76697 0.0
C886 C 0.39725 0.69885 0.81196 0.0
H887 H 0.36962 0.7564 0.75497 0.0
H888 H 0.46102 0.59521 0.80228 0.0
H889 H 0.37364 0.61608 0.73681 0.0
H890 H 0.35302 0.58849 0.78903 0.0
Co891 Co 0.07701 0.64733 0.53547 0.0
C892 C 0.05011 0.59967 0.52098 0.0
C893 C 0.02927 0.6359 0.51524 0.0
C894 C 0.01473 0.61503 0.50872 0.0
N895 N 0.05148 0.6263 0.52275 0.0
N896 N 0.02771 0.5922 0.51241 0.0
H897 H 0.06466 0.58615 0.52645 0.0
H898 H 0.02354 0.65659 0.51512 0.0
C899 C 0.07042 0.69909 0.51889 0.0
O900 O 0.07152 0.70822 0.5351 0.0
N901 N 0.10271 0.66903 0.54827 0.0
C902 C 0.12548 0.67965 0.54197 0.0
C903 C 0.13626 0.69619 0.55467 0.0
C904 C 0.10008 0.67927 0.56462 0.0
N905 N 0.11996 0.69604 0.56876 0.0
C906 C 0.12429 0.61674 0.53465 0.0
C907 C 0.13199 0.61829 0.49855 0.0
C908 C 0.15206 0.60751 0.50931 0.0
C909 C 0.14755 0.6062 0.52756 0.0
C910 C 0.10903 0.62888 0.50623 0.0
N911 N 0.10598 0.62881 0.5241 0.0
H912 H 0.12162 0.61663 0.5488 0.0
H913 H 0.09403 0.6377 0.49787 0.0
H914 H 0.13315 0.67649 0.52881 0.0
H915 H 0.08355 0.67544 0.5733 0.0
O916 O 0.07241 0.62469 0.55592 0.0
O917 O 0.04838 0.66052 0.54992 0.0
O918 O 0.07491 0.67451 0.51606 0.0
C919 C 0.05292 0.6404 0.56029 0.0
H920 H 0.99586 0.61666 0.50197 0.0
H921 H 0.15388 0.70836 0.55331 0.0
H922 H 0.13423 0.61913 0.48435 0.0
H923 H 0.16243 0.5984 0.53649 0.0
Co924 Co 0.08763 0.67147 0.22743 0.0
C925 C 0.12852 0.70972 0.24016 0.0
C926 C 0.10732 0.69155 0.26151 0.0
C927 C 0.12679 0.70761 0.26846 0.0
N928 N 0.1081 0.6931 0.24374 0.0
N929 N 0.1402 0.71887 0.25503 0.0
H930 H 0.1354 0.71436 0.227 0.0
H931 H 0.0943 0.67877 0.26902 0.0
C932 C 0.04073 0.67553 0.25235 0.0
O933 O 0.02656 0.66385 0.26465 0.0
N934 N 0.06765 0.64952 0.21132 0.0
C935 C 0.07784 0.63013 0.20109 0.0
C936 C 0.05763 0.61891 0.19149 0.0
C937 C 0.04149 0.65041 0.20747 0.0
N938 N 0.03487 0.63165 0.19551 0.0
C939 C 0.13486 0.63996 0.2325 0.0
C940 C 0.10809 0.59453 0.24292 0.0
C941 C 0.13556 0.59338 0.24041 0.0
C942 C 0.14922 0.61652 0.23556 0.0
C943 C 0.09464 0.61825 0.24004 0.0
N944 N 0.1079 0.64046 0.23456 0.0
H945 H 0.1452 0.6575 0.22796 0.0
H946 H 0.07326 0.61821 0.24119 0.0
H947 H 0.09862 0.62469 0.20053 0.0
H948 H 0.02773 0.66457 0.21309 0.0
O949 O 0.10892 0.68334 0.2077 0.0
O950 O 0.0719 0.70277 0.21677 0.0
O951 O 0.06132 0.66358 0.24664 0.0
C952 C 0.09119 0.70183 0.20536 0.0
H953 H 0.13173 0.7096 0.2823 0.0
H954 H 0.05965 0.60326 0.18177 0.0
H955 H 0.09697 0.57698 0.24672 0.0
H956 H 0.17052 0.6162 0.23352 0.0
Co957 Co 0.07303 0.35904 0.94758 0.0
C958 C 0.04396 0.40208 0.96631 0.0
C959 C 0.05765 0.41471 0.94086 0.0
C960 C 0.04521 0.43579 0.94887 0.0
N961 N 0.05667 0.39343 0.95169 0.0
N962 N 0.03674 0.42785 0.96488 0.0
H963 H 0.04031 0.39003 0.97787 0.0
H964 H 0.06732 0.41535 0.92814 0.0
C965 C 0.06423 0.32769 0.98124 0.0
O966 O 0.08909 0.31995 0.98197 0.0
N967 N 0.09007 0.32451 0.94321 0.0
C968 C 0.11415 0.31603 0.94885 0.0
C969 C 0.12096 0.29314 0.94002 0.0
C970 C 0.08259 0.30603 0.93121 0.0
N971 N 0.10119 0.28705 0.92876 0.0
C972 C 0.12648 0.37711 0.94781 0.0
C973 C 0.13076 0.38529 0.98377 0.0
C974 C 0.15341 0.38807 0.97314 0.0
C975 C 0.15084 0.38473 0.95488 0.0
C976 C 0.10661 0.37789 0.97611 0.0
N977 N 0.10514 0.3725 0.95848 0.0
H978 H 0.12519 0.37336 0.93381 0.0
H979 H 0.08934 0.376 0.98443 0.0
H980 H 0.12666 0.32604 0.95832 0.0
H981 H 0.06475 0.30727 0.9234 0.0
O982 O 0.07974 0.36885 0.92311 0.0
O983 O 0.0434 0.34904 0.93316 0.0
O984 O 0.05691 0.34517 0.97007 0.0
C985 C 0.05637 0.35885 0.91987 0.0
H986 H 0.04342 0.45571 0.94361 0.0
H987 H 0.13956 0.28251 0.94127 0.0
H988 H 0.13183 0.38834 0.9979 0.0
H989 H 0.16783 0.38656 0.9462 0.0
Co990 Co 0.41068 0.32063 0.72194 0.0
C991 C 0.36192 0.2917 0.73296 0.0
C992 C 0.39016 0.29435 0.75407 0.0
C993 C 0.36862 0.28013 0.75992 0.0
N994 N 0.38626 0.30124 0.73704 0.0
N995 N 0.35096 0.2785 0.74665 0.0
H996 H 0.35243 0.2941 0.72025 0.0
H997 H 0.40737 0.29919 0.76192 0.0
C998 C 0.45636 0.31409 0.74773 0.0
O999 O 0.46948 0.32432 0.76108 0.0
N1000 N 0.43544 0.34055 0.70738 0.0
C1001 C 0.44881 0.36234 0.71274 0.0
C1002 C 0.46502 0.3709 0.69928 0.0
C1003 C 0.44369 0.33622 0.69065 0.0
N1004 N 0.46176 0.35445 0.68541 0.0
C1005 C 0.38143 0.36734 0.71401 0.0
C1006 C 0.38201 0.38909 0.7475 0.0
C1007 C 0.37188 0.40431 0.73346 0.0
C1008 C 0.37078 0.39259 0.71667 0.0
C1009 C 0.39196 0.36357 0.74433 0.0
N1010 N 0.39254 0.35351 0.7276 0.0
H1011 H 0.38174 0.35931 0.7008 0.0
H1012 H 0.40001 0.35239 0.75525 0.0
H1013 H 0.4469 0.37146 0.7256 0.0
H1014 H 0.43717 0.31992 0.68248 0.0
O1015 O 0.39013 0.31089 0.70149 0.0
O1016 O 0.42355 0.28725 0.7119 0.0
O1017 O 0.43555 0.3261 0.74239 0.0
C1018 C 0.40488 0.28989 0.70012 0.0
H1019 H 0.36588 0.27208 0.77304 0.0
H1020 H 0.47798 0.38806 0.69963 0.0
H1021 H 0.3834 0.39714 0.76071 0.0
H1022 H 0.36246 0.40307 0.70549 0.0
Co1023 Co 0.41483 0.63816 0.44643 0.0
C1024 C 0.44304 0.5898 0.45966 0.0
C1025 C 0.46944 0.62184 0.45322 0.0
C1026 C 0.48432 0.60103 0.45951 0.0
N1027 N 0.44359 0.61476 0.45314 0.0
N1028 N 0.46769 0.581 0.46361 0.0
H1029 H 0.42521 0.57826 0.46167 0.0
H1030 H 0.47697 0.64113 0.44939 0.0
C1031 C 0.41786 0.68312 0.47312 0.0
O1032 O 0.39626 0.69451 0.46706 0.0
N1033 N 0.38632 0.66224 0.43941 0.0
C1034 C 0.35973 0.65863 0.44025 0.0
C1035 C 0.34727 0.67904 0.43142 0.0
C1036 C 0.38944 0.68485 0.43004 0.0
N1037 N 0.36603 0.69547 0.42496 0.0
C1038 C 0.37743 0.5962 0.45142 0.0
C1039 C 0.35667 0.61451 0.48289 0.0
C1040 C 0.34245 0.59541 0.47327 0.0
C1041 C 0.35393 0.58516 0.45787 0.0
C1042 C 0.38019 0.62501 0.476 0.0
N1043 N 0.3894 0.617 0.45988 0.0
H1044 H 0.38497 0.58914 0.43895 0.0
H1045 H 0.38955 0.64089 0.48316 0.0
H1046 H 0.34968 0.64194 0.44616 0.0
H1047 H 0.40855 0.69284 0.42632 0.0
O1048 O 0.41226 0.62071 0.42353 0.0
O1049 O 0.43818 0.65507 0.42969 0.0
O1050 O 0.4253 0.66049 0.46734 0.0
C1051 C 0.42969 0.638 0.41816 0.0
H1052 H 0.50561 0.60098 0.46155 0.0
H1053 H 0.32608 0.68108 0.42942 0.0
H1054 H 0.34864 0.62295 0.49491 0.0
H1055 H 0.34397 0.56988 0.45027 0.0
H1056 H 0.30895 0.21176 0.22354 0.0
H1057 H 0.33981 0.26794 0.26147 0.0
H1058 H 0.26374 0.22364 0.23205 0.0
H1059 H 0.29472 0.27984 0.26993 0.0
H1060 H 0.21136 0.31546 0.26574 0.0
H1061 H 0.25631 0.30281 0.25726 0.0
H1062 H 0.23309 0.22015 0.25716 0.0
H1063 H 0.18818 0.23276 0.26568 0.0
C1064 C 0.30612 0.22643 0.23381 0.0
C1065 C 0.328 0.239 0.24176 0.0
C1066 C 0.28022 0.23326 0.23867 0.0
C1067 C 0.27568 0.25279 0.25159 0.0
C1068 C 0.29756 0.26509 0.25969 0.0
C1069 C 0.32341 0.25826 0.25484 0.0
C1070 C 0.21588 0.29458 0.26406 0.0
C1071 C 0.19615 0.27514 0.26641 0.0
C1072 C 0.24164 0.28733 0.25919 0.0
C1073 C 0.24824 0.26047 0.25657 0.0
C1074 C 0.22851 0.24103 0.25884 0.0
C1075 C 0.20276 0.24828 0.26372 0.0
H1076 H 0.01287 0.92614 0.5096 0.0
H1077 H 0.92932 0.94583 0.50987 0.0
H1078 H 0.02359 0.97147 0.50116 0.0
H1079 H 0.94014 0.99145 0.5015 0.0
H1080 H 0.97368 0.07673 0.50484 0.0
H1081 H 0.96202 0.03152 0.51328 0.0
H1082 H 0.01878 0.00096 0.47567 0.0
H1083 H 0.03033 0.04616 0.46712 0.0
C1084 C 0.99673 0.94005 0.50771 0.0
C1085 C 0.97018 0.9322 0.5103 0.0
C1086 C 0.00291 0.96609 0.50288 0.0
C1087 C 0.98273 0.98503 0.50054 0.0
C1088 C 0.95618 0.97737 0.50336 0.0
C1089 C 0.94997 0.95123 0.50817 0.0
C1090 C 0.9835 0.06042 0.49821 0.0
C1091 C 0.00298 0.0652 0.48527 0.0
C1092 C 0.9768 0.03447 0.50307 0.0
C1093 C 0.98948 0.01264 0.49517 0.0
C1094 C 0.00892 0.01737 0.48221 0.0
C1095 C 0.01558 0.04332 0.47732 0.0
H1096 H 0.30263 0.69197 0.76107 0.0
H1097 H 0.32803 0.77403 0.75969 0.0
H1098 H 0.25747 0.70581 0.754 0.0
H1099 H 0.283 0.78772 0.75239 0.0
H1100 H 0.20615 0.79594 0.71917 0.0
H1101 H 0.25128 0.78348 0.72739 0.0
H1102 H 0.22036 0.73115 0.7676 0.0
H1103 H 0.17527 0.74381 0.75959 0.0
C1104 C 0.29861 0.71295 0.75941 0.0
C1105 C 0.31907 0.73184 0.76092 0.0
C1106 C 0.27272 0.72087 0.75534 0.0
C1107 C 0.26673 0.74785 0.75261 0.0
C1108 C 0.28711 0.76675 0.75416 0.0
C1109 C 0.31295 0.75886 0.75832 0.0
C1110 C 0.20892 0.78209 0.72993 0.0
C1111 C 0.187 0.77077 0.73864 0.0
C1112 C 0.23481 0.7749 0.73461 0.0
C1113 C 0.23933 0.7562 0.74805 0.0
C1114 C 0.21747 0.74525 0.75697 0.0
C1115 C 0.19163 0.75251 0.75236 0.0
H1116 H 0.51754 0.91967 0.01111 0.0
H1117 H 0.464 0.95318 0.97255 0.0
H1118 H 0.53541 0.96373 0.01718 0.0
H1119 H 0.48247 0.99727 0.97822 0.0
H1120 H 0.49287 0.07162 0.01302 0.0
H1121 H 0.47936 0.02779 0.0033 0.0
H1122 H 0.56096 0.00141 0.00534 0.0
H1123 H 0.57468 0.04574 0.01499 0.0
C1124 C 0.50975 0.93644 0.00381 0.0
C1125 C 0.48907 0.93298 0.99153 0.0
C1126 C 0.52023 0.96165 0.00714 0.0
C1127 C 0.51021 0.98404 0.9983 0.0
C1128 C 0.49035 0.98044 0.98544 0.0
C1129 C 0.47993 0.95516 0.98205 0.0
C1130 C 0.50809 0.05672 0.01115 0.0
C1131 C 0.53495 0.06237 0.01472 0.0
C1132 C 0.50029 0.03151 0.00553 0.0
C1133 C 0.51909 0.01116 0.00339 0.0
C1134 C 0.54597 0.01666 0.00696 0.0
C1135 C 0.55383 0.04202 0.01255 0.0
H1136 H 0.18237 0.71777 0.23295 0.0
H1137 H 0.15272 0.75424 0.28054 0.0
H1138 H 0.22461 0.74049 0.23679 0.0
H1139 H 0.19479 0.77781 0.28422 0.0
H1140 H 0.28436 0.78726 0.29637 0.0
H1141 H 0.23952 0.76973 0.2922 0.0
H1142 H 0.24713 0.78132 0.23588 0.0
H1143 H 0.29217 0.79781 0.24017 0.0
C1144 C 0.1847 0.73116 0.24403 0.0
C1145 C 0.16426 0.73423 0.25645 0.0
C1146 C 0.20895 0.74427 0.24625 0.0
C1147 C 0.21325 0.76106 0.26085 0.0
C1148 C 0.19243 0.7647 0.273 0.0
C1149 C 0.16827 0.75131 0.27087 0.0
C1150 C 0.27621 0.78633 0.28317 0.0
C1151 C 0.29177 0.79358 0.26858 0.0
C1152 C 0.25049 0.77636 0.28073 0.0
C1153 C 0.23969 0.77379 0.26365 0.0
C1154 C 0.25495 0.7823 0.24917 0.0
C1155 C 0.28073 0.79188 0.25161 0.0
H1156 H 0.48014 0.92781 0.51534 0.0
H1157 H 0.52912 0.95377 0.47181 0.0
H1158 H 0.46207 0.97243 0.51815 0.0
H1159 H 0.51061 0.99851 0.4745 0.0
H1160 H 0.45109 0.06931 0.47638 0.0
H1161 H 0.46775 0.0243 0.47169 0.0
H1162 H 0.48077 0.01592 0.52771 0.0
H1163 H 0.46471 0.06087 0.53243 0.0
C1164 C 0.48711 0.94303 0.50638 0.0
C1165 C 0.50638 0.93723 0.49351 0.0
C1166 C 0.4767 0.9686 0.50798 0.0
C1167 C 0.48515 0.98902 0.49668 0.0
C1168 C 0.50363 0.9831 0.48334 0.0
C1169 C 0.51419 0.95746 0.48178 0.0
C1170 C 0.4577 0.05801 0.48769 0.0
C1171 C 0.45634 0.06879 0.50482 0.0
C1172 C 0.46721 0.03219 0.48498 0.0
C1173 C 0.47537 0.01654 0.49934 0.0
C1174 C 0.47415 0.02733 0.51641 0.0
C1175 C 0.46484 0.05314 0.51912 0.0
H1176 H 0.18555 0.23255 0.73584 0.0
H1177 H 0.20926 0.20598 0.78749 0.0
H1178 H 0.23146 0.244 0.72891 0.0
H1179 H 0.25512 0.21885 0.78123 0.0
H1180 H 0.33881 0.2325 0.76294 0.0
H1181 H 0.29486 0.21257 0.76603 0.0
H1182 H 0.26122 0.27751 0.73596 0.0
H1183 H 0.30541 0.29639 0.73225 0.0
C1184 C 0.20081 0.2291 0.74566 0.0
C1185 C 0.19411 0.21855 0.76218 0.0
C1186 C 0.22704 0.23587 0.74181 0.0
C1187 C 0.24708 0.23287 0.7546 0.0
C1188 C 0.2404 0.22121 0.77094 0.0
C1189 C 0.21416 0.21388 0.77461 0.0
C1190 C 0.32193 0.24226 0.7569 0.0
C1191 C 0.32535 0.26597 0.74741 0.0
C1192 C 0.29673 0.23096 0.75872 0.0
C1193 C 0.2743 0.24343 0.75135 0.0
C1194 C 0.27797 0.26695 0.74154 0.0
C1195 C 0.30326 0.27794 0.73945 0.0
H1196 H 0.02777 0.91605 0.98046 0.0
H1197 H 0.01134 0.93147 0.03547 0.0
H1198 H 0.01075 0.95987 0.97281 0.0
H1199 H 0.9945 0.97536 0.02779 0.0
H1200 H 0.00295 0.06237 0.00921 0.0
H1201 H 0.01377 0.01687 0.01728 0.0
H1202 H 0.97066 0.98825 0.97179 0.0
H1203 H 0.9603 0.03421 0.96348 0.0
C1204 C 0.02022 0.92857 0.99092 0.0
C1205 C 0.02121 0.92017 0.00863 0.0
C1206 C 0.0104 0.95375 0.98651 0.0
C1207 C 0.00136 0.97121 -0.00031 0.0
C1208 C 0.00171 0.96258 0.01734 0.0
C1209 C 0.01146 0.9374 0.02175 0.0
C1210 C 0.99574 0.04639 0.00092 0.0
C1211 C 0.98098 0.05193 0.9856 0.0
C1212 C 0.0017 0.02025 0.00566 0.0
C1213 C 0.99315 0.99886 0.99517 0.0
C1214 C 0.97777 0.0043 0.98006 0.0
C1215 C 0.97161 0.03057 0.97539 0.0
H1216 H 0.70749 0.7921 0.77899 0.0
H1217 H 0.67507 0.73926 0.73945 0.0
H1218 H 0.75217 0.77761 0.77121 0.0
H1219 H 0.71966 0.72445 0.73206 0.0
H1220 H 0.80173 0.68435 0.73831 0.0
H1221 H 0.75705 0.69885 0.74623 0.0
H1222 H 0.78298 0.7806 0.7452 0.0
H1223 H 0.82731 0.76642 0.7369 0.0
C1224 C 0.70977 0.77757 0.76859 0.0
C1225 C 0.68746 0.76684 0.75994 0.0
C1226 C 0.73542 0.7692 0.76417 0.0
C1227 C 0.73938 0.74977 0.75111 0.0
C1228 C 0.71719 0.73912 0.7424 0.0
C1229 C 0.69158 0.74764 0.74669 0.0
C1230 C 0.79793 0.70543 0.73959 0.0
C1231 C 0.81836 0.72412 0.73695 0.0
C1232 C 0.77231 0.71372 0.74418 0.0
C1233 C 0.76657 0.74086 0.74639 0.0
C1234 C 0.78692 0.75953 0.74385 0.0
C1235 C 0.81242 0.7513 0.73912 0.0
H1236 H 0.79239 0.22586 0.27674 0.0
H1237 H 0.82115 0.27613 0.23469 0.0
H1238 H 0.74817 0.24503 0.27349 0.0
H1239 H 0.77676 0.29464 0.23101 0.0
H1240 H 0.6971 0.33628 0.23718 0.0
H1241 H 0.742 0.32192 0.24484 0.0
H1242 H 0.71385 0.2413 0.25073 0.0
H1243 H 0.66929 0.25548 0.24301 0.0
C1244 C 0.78939 0.24124 0.26697 0.0
C1245 C 0.81024 0.24931 0.25586 0.0
C1246 C 0.76399 0.25204 0.26498 0.0
C1247 C 0.75893 0.27118 0.25189 0.0
C1248 C 0.78004 0.28005 0.2413 0.0
C1249 C 0.8054 0.26922 0.24326 0.0
C1250 C 0.70051 0.3155 0.24008 0.0
C1251 C 0.67954 0.29706 0.23943 0.0
C1252 C 0.72621 0.3073 0.24451 0.0
C1253 C 0.73145 0.28049 0.24844 0.0
C1254 C 0.71039 0.26218 0.24811 0.0
C1255 C 0.68478 0.27035 0.24365 0.0
H1256 H 0.78387 0.27723 0.77772 0.0
H1257 H 0.81583 0.26284 0.72593 0.0
H1258 H 0.73948 0.2646 0.76725 0.0
H1259 H 0.77165 0.25154 0.71503 0.0
H1260 H 0.70258 0.19579 0.70822 0.0
H1261 H 0.74409 0.21414 0.71846 0.0
H1262 H 0.70151 0.27288 0.74898 0.0
H1263 H 0.65961 0.25334 0.7396 0.0
C1264 C 0.78106 0.27217 0.76396 0.0
C1265 C 0.80295 0.27077 0.75258 0.0
C1266 C 0.75576 0.26494 0.75792 0.0
C1267 C 0.75206 0.25651 0.74035 0.0
C1268 C 0.77386 0.25711 0.72875 0.0
C1269 C 0.79907 0.26386 0.73487 0.0
C1270 C 0.70182 0.21237 0.71727 0.0
C1271 C 0.67746 0.22293 0.72303 0.0
C1272 C 0.72581 0.22327 0.72294 0.0
C1273 C 0.72623 0.24529 0.73437 0.0
C1274 C 0.70195 0.25587 0.74022 0.0
C1275 C 0.67786 0.24479 0.73466 0.0
H1276 H 0.83046 0.75062 0.24376 0.0
H1277 H 0.79385 0.81061 0.21095 0.0
H1278 H 0.78693 0.73692 0.25416 0.0
H1279 H 0.75022 0.79702 0.22161 0.0
H1280 H 0.68502 0.78884 0.2649 0.0
H1281 H 0.72638 0.79983 0.24991 0.0
H1282 H 0.74448 0.71622 0.24496 0.0
H1283 H 0.70317 0.70527 0.26039 0.0
C1284 C 0.81318 0.76068 0.23854 0.0
C1285 C 0.81585 0.78188 0.22654 0.0
C1286 C 0.78815 0.75276 0.24451 0.0
C1287 C 0.76511 0.76588 0.23872 0.0
C1288 C 0.76764 0.78672 0.22648 0.0
C1289 C 0.7927 0.79458 0.22043 0.0
C1290 C 0.69777 0.7728 0.26054 0.0
C1291 C 0.69098 0.7462 0.26399 0.0
C1292 C 0.72134 0.77908 0.25179 0.0
C1293 C 0.73879 0.75891 0.24632 0.0
C1294 C 0.73156 0.73222 0.24918 0.0
C1295 C 0.70782 0.72593 0.25786 0.0
H1296 H 0.48424 0.57063 0.98604 0.0
H1297 H 0.56548 0.5428 0.98472 0.0
H1298 H 0.46938 0.52631 0.9942 0.0
H1299 H 0.55047 0.49833 0.99268 0.0
H1300 H 0.50672 0.4183 0.98296 0.0
H1301 H 0.52407 0.46293 0.97796 0.0
H1302 H 0.47218 0.49345 0.01859 0.0
H1303 H 0.45433 0.4489 0.02325 0.0
C1304 C 0.49898 0.5552 0.98771 0.0
C1305 C 0.52605 0.56028 0.98462 0.0
C1306 C 0.49045 0.52979 0.99239 0.0
C1307 C 0.50878 0.50889 0.99404 0.0
C1308 C 0.53588 0.51401 0.99127 0.0
C1309 C 0.54444 0.53946 0.98665 0.0
C1310 C 0.49903 0.43455 0.9908 0.0
C1311 C 0.47907 0.43015 0.00341 0.0
C1312 C 0.50916 0.46003 0.98808 0.0
C1313 C 0.49942 0.48163 0.99787 0.0
C1314 C 0.47987 0.47716 0.01076 0.0
C1315 C 0.46985 0.45164 0.01354 0.0
H1316 H 0.97689 0.57631 0.50656 0.0
H1317 H 0.05761 0.5473 0.51 0.0
H1318 H 0.96152 0.53185 0.49951 0.0
H1319 H 0.04192 0.50248 0.50326 0.0
H1320 H 0.99681 0.42266 0.50986 0.0
H1321 H 0.0131 0.46696 0.51695 0.0
H1322 H 0.96613 0.49969 0.47453 0.0
H1323 H 0.95021 0.45542 0.46713 0.0
C1324 C 0.99146 0.56057 0.50568 0.0
C1325 C 0.0186 0.56557 0.50871 0.0
C1326 C 0.98257 0.53502 0.50168 0.0
C1327 C 0.00053 0.51375 0.50075 0.0
C1328 C 0.0276 0.51852 0.50404 0.0
C1329 C 0.03657 0.54418 0.50792 0.0
C1330 C 0.99012 0.43919 0.50189 0.0
C1331 C 0.97217 0.43531 0.48787 0.0
C1332 C 0.99947 0.46459 0.50599 0.0
C1333 C 0.99091 0.48674 0.49629 0.0
C1334 C 0.97284 0.48299 0.48237 0.0
C1335 C 0.96363 0.45757 0.47818 0.0
H1336 H 0.00252 0.46807 0.95899 0.0
H1337 H 0.04258 0.42487 0.00034 0.0
H1338 H 0.98228 0.49713 0.98087 0.0
H1339 H 0.0229 0.45436 0.02236 0.0
H1340 H 0.9597 0.4946 0.05712 0.0
H1341 H 0.9819 0.46556 0.03618 0.0
H1342 H 0.99283 0.532 0.00078 0.0
H1343 H 0.96921 0.56065 0.02119 0.0
C1344 C 0.00713 0.46496 0.97279 0.0
C1345 C 0.02411 0.44425 0.97797 0.0
C1346 C 0.99567 0.48169 0.98534 0.0
C1347 C 0.00114 0.4783 0.0034 0.0
C1348 C 0.018 0.45739 0.00859 0.0
C1349 C 0.02927 0.44046 0.99601 0.0
C1350 C 0.96669 0.50303 0.04484 0.0
C1351 C 0.96225 0.52998 0.04082 0.0
C1352 C 0.97975 0.4864 0.0329 0.0
C1353 C 0.98893 0.49634 0.01668 0.0
C1354 C 0.98553 0.52353 0.01299 0.0
C1355 C 0.97228 0.54011 0.02486 0.0
H1356 H 0.47335 0.42575 0.5127 0.0
H1357 H 0.55495 0.45276 0.51208 0.0
H1358 H 0.45956 0.46663 0.49857 0.0
H1359 H 0.54082 0.49445 0.49906 0.0
H1360 H 0.51211 0.55262 0.45749 0.0
H1361 H 0.52549 0.51138 0.4718 0.0
H1362 H 0.45338 0.51269 0.50284 0.0
H1363 H 0.43977 0.5535 0.48798 0.0
C1364 C 0.48841 0.44036 0.50965 0.0
C1365 C 0.51538 0.4356 0.51341 0.0
C1366 C 0.48039 0.46408 0.50174 0.0
C1367 C 0.49906 0.48386 0.49757 0.0
C1368 C 0.52593 0.47946 0.50177 0.0
C1369 C 0.53401 0.4556 0.50951 0.0
C1370 C 0.49918 0.54401 0.46737 0.0
C1371 C 0.47493 0.55616 0.47163 0.0
C1372 C 0.50688 0.52048 0.47567 0.0
C1373 C 0.49063 0.50875 0.4886 0.0
C1374 C 0.46623 0.52092 0.49277 0.0
C1375 C 0.45839 0.54429 0.48428 0.0
H1376 H 0.43339 0.25011 0.17754 0.0
H1377 H 0.3711 0.19565 0.16223 0.0
H1378 H 0.42901 0.27313 0.14948 0.0
H1379 H 0.36712 0.21839 0.13385 0.0
H1380 H 0.35151 0.28285 0.09169 0.0
H1381 H 0.35339 0.26044 0.12031 0.0
H1382 H 0.43916 0.2641 0.11894 0.0
H1383 H 0.43723 0.2865 0.0906 0.0
C1384 C 0.41878 0.24303 0.16814 0.0
C1385 C 0.40267 0.22102 0.17202 0.0
C1386 C 0.41636 0.25614 0.15203 0.0
C1387 C 0.39788 0.24744 0.13939 0.0
C1388 C 0.38139 0.2257 0.14339 0.0
C1389 C 0.38376 0.21261 0.15959 0.0
C1390 C 0.37071 0.27872 0.09752 0.0
C1391 C 0.39419 0.28668 0.089 0.0
C1392 C 0.3718 0.26588 0.11386 0.0
C1393 C 0.39642 0.2607 0.12194 0.0
C1394 C 0.41986 0.26835 0.11326 0.0
C1395 C 0.41876 0.28122 0.09701 0.0
H1396 H 0.93521 0.18564 0.34498 0.0
H1397 H 0.98302 0.12111 0.32527 0.0
H1398 H 0.95844 0.18364 0.3731 0.0
H1399 H 0.00767 0.11989 0.35301 0.0
H1400 H 0.02851 0.10574 0.41087 0.0
H1401 H 0.00581 0.10749 0.38239 0.0
H1402 H 0.99691 0.19264 0.38811 0.0
H1403 H 0.01784 0.19034 0.41688 0.0
C1404 C 0.9512 0.17143 0.3466 0.0
C1405 C 0.95744 0.15359 0.33301 0.0
C1406 C 0.96465 0.17027 0.36271 0.0
C1407 C 0.98513 0.1516 0.36549 0.0
C1408 C 0.99172 0.13416 0.35162 0.0
C1409 C 0.97782 0.13497 0.33564 0.0
C1410 C 0.02153 0.12473 0.40598 0.0
C1411 C 0.0246 0.14782 0.41614 0.0
C1412 C 0.00871 0.12585 0.38958 0.0
C1413 C 0.99926 0.15023 0.38282 0.0
C1414 C 0.00311 0.17337 0.39294 0.0
C1415 C 0.0153 0.17211 0.40945 0.0
H1416 H 0.08649 0.75147 0.6723 0.0
H1417 H 0.14978 0.8046 0.65677 0.0
H1418 H 0.09074 0.72782 0.64449 0.0
H1419 H 0.15379 0.78092 0.62861 0.0
H1420 H 0.16414 0.71187 0.58647 0.0
H1421 H 0.16528 0.73611 0.61467 0.0
H1422 H 0.0796 0.74116 0.614 0.0
H1423 H 0.07854 0.71735 0.58619 0.0
C1424 C 0.10143 0.75801 0.66297 0.0
C1425 C 0.11761 0.78004 0.66662 0.0
C1426 C 0.10379 0.74452 0.64701 0.0
C1427 C 0.12232 0.7528 0.63428 0.0
C1428 C 0.13937 0.77411 0.6382 0.0
C1429 C 0.137 0.78768 0.65427 0.0
C1430 C 0.14568 0.71847 0.59235 0.0
C1431 C 0.12125 0.71223 0.58438 0.0
C1432 C 0.1463 0.73226 0.60843 0.0
C1433 C 0.12248 0.73997 0.61669 0.0
C1434 C 0.09823 0.73478 0.60822 0.0
C1435 C 0.09763 0.72111 0.59229 0.0
H1436 H 0.53761 0.90797 0.84041 0.0
H1437 H 0.54688 0.82338 0.84823 0.0
H1438 H 0.51368 0.91104 0.8685 0.0
H1439 H 0.52354 0.82657 0.87608 0.0
H1440 H 0.50766 0.84291 0.93282 0.0
H1441 H 0.53228 0.84574 0.90534 0.0
H1442 H 0.47098 0.89574 0.88323 0.0
H1443 H 0.44623 0.89314 0.91111 0.0
C1444 C 0.53452 0.89005 0.84803 0.0
C1445 C 0.54459 0.86549 0.84211 0.0
C1446 C 0.52082 0.89183 0.86412 0.0
C1447 C 0.51705 0.86912 0.87463 0.0
C1448 C 0.52668 0.84457 0.86852 0.0
C1449 C 0.5402 0.84277 0.85251 0.0
C1450 C 0.49951 0.8548 0.92221 0.0
C1451 C 0.47487 0.86759 0.92407 0.0
C1452 C 0.51358 0.8563 0.90641 0.0
C1453 C 0.50336 0.87055 0.89199 0.0
C1454 C 0.47938 0.88461 0.89412 0.0
C1455 C 0.46522 0.88313 0.91005 0.0
H1456 H 0.3288 0.81292 0.3424 0.0
H1457 H 0.40637 0.77815 0.33428 0.0
H1458 H 0.32433 0.78764 0.37006 0.0
H1459 H 0.40206 0.75361 0.36174 0.0
H1460 H 0.3995 0.73679 0.41961 0.0
H1461 H 0.39835 0.76799 0.39504 0.0
H1462 H 0.3235 0.73507 0.37793 0.0
H1463 H 0.32491 0.70318 0.40221 0.0
C1464 C 0.34481 0.79994 0.34652 0.0
C1465 C 0.36787 0.7974 0.33621 0.0
C1466 C 0.34226 0.78557 0.36227 0.0
C1467 C 0.36301 0.76903 0.36804 0.0
C1468 C 0.38596 0.76655 0.35768 0.0
C1469 C 0.38829 0.78042 0.34189 0.0
C1470 C 0.38269 0.73626 0.41071 0.0
C1471 C 0.36263 0.71703 0.41265 0.0
C1472 C 0.38198 0.75423 0.39674 0.0
C1473 C 0.361 0.75361 0.38455 0.0
C1474 C 0.33983 0.73594 0.38723 0.0
C1475 C 0.34067 0.71771 0.40115 0.0
H1476 H 0.49149 0.16101 0.56742 0.0
H1477 H 0.44291 0.09237 0.57898 0.0
H1478 H 0.52345 0.1471 0.58931 0.0
H1479 H 0.47578 0.07768 0.60078 0.0
H1480 H 0.52086 0.08792 0.65467 0.0
H1481 H 0.49095 0.09096 0.62946 0.0
H1482 H 0.55666 0.116 0.59666 0.0
H1483 H 0.58616 0.11404 0.62222 0.0
C1484 C 0.48784 0.14264 0.57448 0.0
C1485 C 0.46461 0.12784 0.57156 0.0
C1486 C 0.50639 0.13447 0.58695 0.0
C1487 C 0.50238 0.1111 0.59674 0.0
C1488 C 0.47937 0.09589 0.59355 0.0
C1489 C 0.46059 0.10424 0.58107 0.0
C1490 C 0.52896 0.09339 0.64195 0.0
C1491 C 0.55569 0.10102 0.64033 0.0
C1492 C 0.51185 0.09509 0.62747 0.0
C1493 C 0.52128 0.10418 0.61108 0.0
C1494 C 0.54858 0.10963 0.60921 0.0
C1495 C 0.56553 0.10836 0.62375 0.0
H1496 H 0.05924 0.26407 0.91235 0.0
H1497 H 0.14501 0.26775 0.91217 0.0
H1498 H 0.06027 0.23857 0.88499 0.0
H1499 H 0.146 0.24216 0.88492 0.0
H1500 H 0.13697 0.18048 0.84034 0.0
H1501 H 0.13585 0.19911 0.87021 0.0
H1502 H 0.07197 0.25145 0.85463 0.0
H1503 H 0.07292 0.23283 0.82506 0.0
C1504 C 0.07831 0.25924 0.90658 0.0
C1505 C 0.102 0.2683 0.91436 0.0
C1506 C 0.07891 0.24465 0.89091 0.0
C1507 C 0.10321 0.23871 0.88267 0.0
C1508 C 0.12697 0.2463 0.891 0.0
C1509 C 0.12637 0.26095 0.90667 0.0
C1510 C 0.12274 0.19598 0.84334 0.0
C1511 C 0.10511 0.20527 0.83035 0.0
C1512 C 0.1221 0.20664 0.86041 0.0
C1513 C 0.10366 0.22658 0.86481 0.0
C1514 C 0.08607 0.23577 0.85177 0.0
C1515 C 0.08682 0.22528 0.83475 0.0
H1516 H 0.93895 0.9305 0.14497 0.0
H1517 H 0.9894 0.87103 0.16854 0.0
H1518 H 0.96842 0.9323 0.11917 0.0
H1519 H 0.01908 0.87309 0.14302 0.0
H1520 H 0.99872 0.87587 0.07122 0.0
H1521 H 0.97496 0.89141 0.09733 0.0
H1522 H 0.04972 0.90543 0.12371 0.0
H1523 H 0.07361 0.89048 0.0972 0.0
C1524 C 0.95677 0.91845 0.14482 0.0
C1525 C 0.96192 0.90046 0.15855 0.0
C1526 C 0.97354 0.91945 0.13013 0.0
C1527 C 0.99598 0.9029 0.12921 0.0
C1528 C 0.00207 0.88628 0.14352 0.0
C1529 C 0.98504 0.8849 0.158 0.0
C1530 C 0.01003 0.88307 0.08241 0.0
C1531 C 0.03786 0.882 0.08235 0.0
C1532 C 0.99649 0.89209 0.09728 0.0
C1533 C 0.01058 0.89957 0.11247 0.0
C1534 C 0.0385 0.89984 0.11208 0.0
C1535 C 0.0521 0.89141 0.09698 0.0
H1536 H 0.62091 0.66287 0.88599 0.0
H1537 H 0.65314 0.7282 0.916 0.0
H1538 H 0.61973 0.69073 0.85968 0.0
H1539 H 0.65146 0.75644 0.88981 0.0
H1540 H 0.65829 0.79574 0.83535 0.0
H1541 H 0.66734 0.76565 0.86001 0.0
H1542 H 0.59161 0.72723 0.85134 0.0
H1543 H 0.58298 0.75664 0.82664 0.0
C1544 C 0.62797 0.68316 0.88686 0.0
C1545 C 0.63686 0.6935 0.90301 0.0
C1546 C 0.6272 0.69915 0.87186 0.0
C1547 C 0.63503 0.72595 0.87274 0.0
C1548 C 0.64542 0.73585 0.88866 0.0
C1549 C 0.64641 0.71971 0.90367 0.0
C1550 C 0.64366 0.7808 0.83875 0.0
C1551 C 0.61997 0.77848 0.82907 0.0
C1552 C 0.64881 0.76363 0.85286 0.0
C1553 C 0.63032 0.74388 0.85752 0.0
C1554 C 0.60657 0.74179 0.84785 0.0
C1555 C 0.6015 0.75882 0.83377 0.0
H1556 H 0.0731 0.84912 0.63941 0.0
H1557 H 0.00593 0.88025 0.66814 0.0
H1558 H 0.0469 0.84904 0.61236 0.0
H1559 H 0.97942 0.87966 0.64122 0.0
H1560 H 0.98363 0.81906 0.57435 0.0
H1561 H 0.0111 0.82379 0.60049 0.0
H1562 H 0.97262 0.8985 0.61243 0.0
H1563 H 0.94439 0.89324 0.5864 0.0
C1564 C 0.05271 0.85594 0.63991 0.0
C1565 C 0.04153 0.86455 0.65589 0.0
C1566 C 0.03765 0.85583 0.62445 0.0
C1567 C 0.01093 0.86408 0.62463 0.0
C1568 C 1e-05 0.87347 0.64053 0.0
C1569 C 0.01518 0.87379 0.65598 0.0
C1570 C 0.98105 0.83654 0.58252 0.0
C1571 C 0.96185 0.85578 0.57834 0.0
C1572 C 0.99697 0.83937 0.59746 0.0
C1573 C 0.99424 0.86163 0.60852 0.0
C1574 C 0.97507 0.88098 0.60428 0.0
C1575 C 0.95898 0.87804 0.58935 0.0
H1576 H 0.84705 0.20144 0.33186 0.0
H1577 H 0.90638 0.25841 0.31544 0.0
H1578 H 0.84309 0.2246 0.36032 0.0
H1579 H 0.9023 0.28128 0.34346 0.0
H1580 H 0.83094 0.29441 0.40222 0.0
H1581 H 0.82987 0.27001 0.37417 0.0
H1582 H 0.91562 0.26754 0.37389 0.0
H1583 H 0.91674 0.29133 0.4017 0.0
C1584 C 0.85895 0.21902 0.33423 0.0
C1585 C 0.87722 0.22794 0.32152 0.0
C1586 C 0.85665 0.23227 0.35045 0.0
C1587 C 0.8727 0.25447 0.35415 0.0
C1588 C 0.89007 0.26391 0.34111 0.0
C1589 C 0.89231 0.25083 0.32501 0.0
C1590 C 0.8495 0.2884 0.39621 0.0
C1591 C 0.87393 0.29531 0.40402 0.0
C1592 C 0.84888 0.27445 0.3802 0.0
C1593 C 0.87267 0.26729 0.37175 0.0
C1594 C 0.89697 0.27338 0.3799 0.0
C1595 C 0.8976 0.28715 0.39582 0.0
H1596 H 0.56622 0.09658 0.09642 0.0
H1597 H 0.52164 0.16674 0.08212 0.0
H1598 H 0.53973 0.09233 0.12337 0.0
H1599 H 0.49581 0.16293 0.10902 0.0
H1600 H 0.43868 0.1404 0.15097 0.0
H1601 H 0.4625 0.13631 0.12312 0.0
H1602 H 0.53396 0.11525 0.1515 0.0
H1603 H 0.50978 0.11888 0.17938 0.0
C1604 C 0.55071 0.111 0.09899 0.0
C1605 C 0.54598 0.13197 0.08716 0.0
C1606 C 0.53565 0.10865 0.11446 0.0
C1607 C 0.51557 0.12721 0.11833 0.0
C1608 C 0.51074 0.14796 0.10632 0.0
C1609 C 0.52571 0.15027 0.09093 0.0
C1610 C 0.45942 0.13466 0.15121 0.0
C1611 C 0.47248 0.13028 0.16732 0.0
C1612 C 0.47309 0.13238 0.13528 0.0
C1613 C 0.50027 0.12589 0.13509 0.0
C1614 C 0.51301 0.12011 0.15117 0.0
C1615 C 0.4992 0.12221 0.16714 0.0
H1616 H 0.65303 0.26343 0.5679 0.0
H1617 H 0.62415 0.32288 0.6042 0.0
H1618 H 0.65361 0.23063 0.59179 0.0
H1619 H 0.62475 0.29027 0.628 0.0
H1620 H 0.5843 0.21857 0.65302 0.0
H1621 H 0.59363 0.25123 0.63038 0.0
H1622 H 0.67175 0.2176 0.62279 0.0
H1623 H 0.66237 0.18442 0.64579 0.0
C1624 C 0.64761 0.26967 0.58109 0.0
C1625 C 0.63809 0.29553 0.5842 0.0
C1626 C 0.64791 0.25091 0.59473 0.0
C1627 C 0.63872 0.25785 0.61161 0.0
C1628 C 0.63141 0.2843 0.61499 0.0
C1629 C 0.63107 0.30293 0.60142 0.0
C1630 C 0.60348 0.21797 0.64655 0.0
C1631 C 0.62266 0.19899 0.65123 0.0
C1632 C 0.6089 0.23687 0.63367 0.0
C1633 C 0.63359 0.23723 0.62508 0.0
C1634 C 0.65261 0.21778 0.62931 0.0
C1635 C 0.64723 0.19885 0.64241 0.0
H1636 H 0.45907 0.82802 0.34597 0.0
H1637 H 0.44637 0.91201 0.3548 0.0
H1638 H 0.4853 0.82578 0.37294 0.0
H1639 H 0.47299 0.90969 0.38148 0.0
H1640 H 0.54348 0.89843 0.42014 0.0
H1641 H 0.51948 0.90147 0.39204 0.0
H1642 H 0.47608 0.83004 0.40501 0.0
H1643 H 0.49991 0.82695 0.43284 0.0
C1644 C 0.46174 0.846 0.35359 0.0
C1645 C 0.45035 0.87017 0.34809 0.0
C1646 C 0.47688 0.84471 0.36905 0.0
C1647 C 0.48117 0.86756 0.37935 0.0
C1648 C 0.47032 0.89181 0.37371 0.0
C1649 C 0.45503 0.89309 0.35833 0.0
C1650 C 0.52875 0.88347 0.41697 0.0
C1651 C 0.52352 0.86254 0.42872 0.0
C1652 C 0.51499 0.88522 0.40092 0.0
C1653 C 0.496 0.86589 0.39627 0.0
C1654 C 0.49084 0.84502 0.40808 0.0
C1655 C 0.50435 0.84342 0.42412 0.0
H1656 H 0.92788 0.82087 0.14987 0.0
H1657 H 0.84482 0.80566 0.15947 0.0
H1658 H 0.9265 0.79275 0.12378 0.0
H1659 H 0.84356 0.77596 0.13392 0.0
H1660 H 0.84615 0.72964 0.08333 0.0
H1661 H 0.84618 0.76731 0.10329 0.0
H1662 H 0.92566 0.74676 0.1201 0.0
H1663 H 0.92643 0.71045 0.09932 0.0
C1664 C 0.90921 0.81169 0.14618 0.0
C1665 C 0.88648 0.81518 0.15659 0.0
C1666 C 0.90845 0.79535 0.13136 0.0
C1667 C 0.88512 0.78147 0.12698 0.0
C1668 C 0.86185 0.7864 0.13682 0.0
C1669 C 0.8625 0.80336 0.15146 0.0
C1670 C 0.8639 0.7334 0.09096 0.0
C1671 C 0.88626 0.71663 0.08968 0.0
C1672 C 0.86375 0.75493 0.10261 0.0
C1673 C 0.88585 0.76014 0.11339 0.0
C1674 C 0.90838 0.74374 0.11183 0.0
C1675 C 0.90866 0.72246 0.10005 0.0
H1676 H 0.94371 0.09563 0.90434 0.0
H1677 H 0.99696 0.16066 0.91623 0.0
H1678 H 0.9609 0.09453 0.87396 0.0
H1679 H 0.01363 0.15965 0.88622 0.0
H1680 H 0.02998 0.08908 0.82953 0.0
H1681 H 0.00695 0.08603 0.85785 0.0
H1682 H 0.99179 0.17042 0.85638 0.0
H1683 H 0.01421 0.17349 0.82799 0.0
C1684 C 0.95918 0.10946 0.90054 0.0
C1685 C 0.96894 0.12826 0.91264 0.0
C1686 C 0.96893 0.10885 0.88321 0.0
C1687 C 0.98822 0.12731 0.87775 0.0
C1688 C 0.99838 0.14554 0.89001 0.0
C1689 C 0.98896 0.14594 0.90725 0.0
C1690 C 0.02114 0.10686 0.835 0.0
C1691 C 0.02439 0.13165 0.82664 0.0
C1692 C 0.008 0.10508 0.85123 0.0
C1693 C 0.99805 0.12805 0.85938 0.0
C1694 C -0.00023 0.15248 0.8505 0.0
C1695 C 0.01269 0.15424 0.83428 0.0
H1696 H 0.85955 0.74598 0.57561 0.0
H1697 H 0.8874 0.81455 0.60437 0.0
H1698 H 0.85967 0.71994 0.60288 0.0
H1699 H 0.88709 0.78889 0.63161 0.0
H1700 H 0.84792 0.68623 0.65939 0.0
H1701 H 0.84095 0.71301 0.63267 0.0
H1702 H 0.91503 0.75387 0.64248 0.0
H1703 H 0.92161 0.72789 0.66896 0.0
C1704 C 0.86516 0.75561 0.58782 0.0
C1705 C 0.87385 0.78218 0.58784 0.0
C1706 C 0.8652 0.74073 0.60345 0.0
C1707 C 0.87379 0.75221 0.61938 0.0
C1708 C 0.88101 0.77923 0.61949 0.0
C1709 C 0.88116 0.79397 0.60391 0.0
C1710 C 0.86258 0.70103 0.65579 0.0
C1711 C 0.8852 0.70507 0.66634 0.0
C1712 C 0.85866 0.71628 0.6405 0.0
C1713 C 0.87727 0.73583 0.63556 0.0
C1714 C 0.89995 0.7395 0.64609 0.0
C1715 C 0.90381 0.72441 0.66126 0.0
H1716 H 0.43127 0.63803 0.85247 0.0
H1717 H 0.49727 0.60629 0.82288 0.0
H1718 H 0.45764 0.63626 0.8794 0.0
H1719 H 0.52397 0.60482 0.84982 0.0
H1720 H 0.55835 0.58967 0.9052 0.0
H1721 H 0.53001 0.58511 0.87911 0.0
H1722 H 0.4948 0.66163 0.89031 0.0
H1723 H 0.5225 0.66586 0.91639 0.0
C1724 C 0.45142 0.63058 0.85177 0.0
C1725 C 0.46232 0.6226 0.83556 0.0
C1726 C 0.46656 0.62962 0.86717 0.0
C1727 C 0.49306 0.62081 0.86671 0.0
C1728 C 0.50357 0.61157 0.85064 0.0
C1729 C 0.48831 0.6124 0.83521 0.0
C1730 C 0.54446 0.60542 0.90208 0.0
C1731 C 0.54259 0.62808 0.91285 0.0
C1732 C 0.52832 0.60287 0.88712 0.0
C1733 C 0.51 0.62291 0.8827 0.0
C1734 C 0.50828 0.64556 0.89351 0.0
C1735 C 0.52433 0.64808 0.90841 0.0
H1736 H 0.64884 0.24253 0.08338 0.0
H1737 H 0.61099 0.18136 0.11438 0.0
H1738 H 0.64578 0.27314 0.10823 0.0
H1739 H 0.60834 0.21171 0.13939 0.0
H1740 H 0.65335 0.3161 0.16124 0.0
H1741 H 0.66081 0.28393 0.13754 0.0
H1742 H 0.58322 0.25006 0.14722 0.0
H1743 H 0.57622 0.28149 0.17107 0.0
C1744 C 0.64035 0.23545 0.09563 0.0
C1745 C 0.62999 0.20957 0.09689 0.0
C1746 C 0.6386 0.25301 0.1099 0.0
C1747 C 0.62658 0.24502 0.12579 0.0
C1748 C 0.61717 0.21876 0.12723 0.0
C1749 C 0.61875 0.20131 0.11293 0.0
C1750 C 0.63798 0.30169 0.1583 0.0
C1751 C 0.61424 0.30128 0.16804 0.0
C1752 C 0.64218 0.28333 0.14468 0.0
C1753 C 0.62268 0.26426 0.1405 0.0
C1754 C 0.59893 0.26403 0.15028 0.0
C1755 C 0.59482 0.28224 0.16389 0.0
H1756 H 0.9821 0.32737 0.42235 0.0
H1757 H 0.94945 0.4052 0.41191 0.0
H1758 H 0.01291 0.33274 0.39793 0.0
H1759 H 0.98094 0.41098 0.38766 0.0
H1760 H 0.08105 0.35769 0.3637 0.0
H1761 H 0.05166 0.35689 0.38926 0.0
H1762 H 0.98995 0.39443 0.35839 0.0
H1763 H 0.01963 0.39563 0.33297 0.0
C1764 C 0.98167 0.34575 0.41491 0.0
C1765 C 0.96336 0.36586 0.41903 0.0
C1766 C 0.99949 0.34893 0.40098 0.0
C1767 C 0.99956 0.37238 0.39088 0.0
C1768 C 0.98125 0.39256 0.39505 0.0
C1769 C 0.96329 0.38931 0.40898 0.0
C1770 C 0.06125 0.3659 0.36245 0.0
C1771 C 0.05258 0.37656 0.34633 0.0
C1772 C 0.04436 0.36537 0.37705 0.0
C1773 C 0.0183 0.37529 0.37583 0.0
C1774 C 0.00996 0.38686 0.35986 0.0
C1775 C 0.02697 0.38756 0.34528 0.0
H1776 H 0.85482 0.21114 0.90555 0.0
H1777 H 0.9406 0.21606 0.9044 0.0
H1778 H 0.85262 0.23541 0.87785 0.0
H1779 H 0.93823 0.2399 0.87652 0.0
H1780 H 0.86041 0.30085 0.83488 0.0
H1781 H 0.86215 0.27976 0.86404 0.0
H1782 H 0.92521 0.22835 0.84594 0.0
H1783 H 0.92356 0.24926 0.81705 0.0
C1784 C 0.87323 0.21761 0.8996 0.0
C1785 C 0.89793 0.21133 0.90732 0.0
C1786 C 0.87191 0.23156 0.88365 0.0
C1787 C 0.89523 0.23943 0.87492 0.0
C1788 C 0.91989 0.23372 0.88278 0.0
C1789 C 0.92123 0.21994 0.89878 0.0
C1790 C 0.87455 0.28499 0.83716 0.0
C1791 C 0.89178 0.27669 0.82365 0.0
C1792 C 0.87552 0.27289 0.85382 0.0
C1793 C 0.89394 0.2525 0.85733 0.0
C1794 C 0.91108 0.24425 0.84377 0.0
C1795 C 0.90995 0.25612 0.82714 0.0
H1796 H 0.90031 0.64171 0.12337 0.0
H1797 H 0.95923 0.58505 0.1064 0.0
H1798 H 0.92137 0.64363 0.1527 0.0
H1799 H 0.98014 0.58668 0.13528 0.0
H1800 H 0.01254 0.58474 0.18756 0.0
H1801 H 0.97624 0.57744 0.16674 0.0
H1802 H 0.96527 0.66236 0.16228 0.0
H1803 H 0.00121 0.66943 0.18356 0.0
C1804 C 0.9172 0.62904 0.12618 0.0
C1805 C 0.92817 0.61303 0.1129 0.0
C1806 C 0.92934 0.63027 0.14282 0.0
C1807 C 0.95234 0.61522 0.14634 0.0
C1808 C 0.96219 0.59814 0.13318 0.0
C1809 C 0.95034 0.59724 0.11661 0.0
C1810 C 0.00178 0.60174 0.18248 0.0
C1811 C 0.00984 0.62761 0.18684 0.0
C1812 C 0.98107 0.59762 0.17058 0.0
C1813 C 0.96829 0.61933 0.16258 0.0
C1814 C 0.97465 0.64521 0.16826 0.0
C1815 C 0.99525 0.6493 0.18039 0.0
H1816 H 0.56676 0.80355 0.40744 0.0
H1817 H 0.62637 0.75285 0.43046 0.0
H1818 H 0.56806 0.77777 0.38045 0.0
H1819 H 0.62661 0.72537 0.40382 0.0
H1820 H 0.64334 0.70382 0.34542 0.0
H1821 H 0.64065 0.72384 0.37478 0.0
H1822 H 0.55708 0.73986 0.36622 0.0
H1823 H 0.56087 0.72273 0.33652 0.0
C1824 C 0.57961 0.7863 0.40681 0.0
C1825 C 0.59639 0.78004 0.42094 0.0
C1826 C 0.58031 0.7713 0.39137 0.0
C1827 C 0.59733 0.74913 0.38983 0.0
C1828 C 0.61358 0.74246 0.4043 0.0
C1829 C 0.61333 0.75799 0.41962 0.0
C1830 C 0.62444 0.71146 0.35002 0.0
C1831 C 0.60233 0.71184 0.33879 0.0
C1832 C 0.62277 0.72282 0.36688 0.0
C1833 C 0.59871 0.73405 0.3729 0.0
C1834 C 0.57621 0.73244 0.36194 0.0
C1835 C 0.5782 0.72211 0.34498 0.0
H1836 H 0.52499 0.3205 0.58189 0.0
H1837 H 0.55652 0.39825 0.59401 0.0
H1838 H 0.5022 0.31961 0.61018 0.0
H1839 H 0.53303 0.39774 0.62222 0.0
H1840 H 0.5108 0.37434 0.67888 0.0
H1841 H 0.53367 0.37611 0.65058 0.0
H1842 H 0.46569 0.33972 0.62544 0.0
H1843 H 0.44302 0.3377 0.6538 0.0
C1844 C 0.52689 0.33751 0.59056 0.0
C1845 C 0.54252 0.35946 0.58573 0.0
C1846 C 0.51368 0.33707 0.60675 0.0
C1847 C 0.51566 0.35865 0.61847 0.0
C1848 C 0.53132 0.38065 0.61361 0.0
C1849 C 0.54466 0.38102 0.59741 0.0
C1850 C 0.50066 0.36693 0.66729 0.0
C1851 C 0.47511 0.35582 0.66861 0.0
C1852 C 0.51375 0.36798 0.65104 0.0
C1853 C 0.50155 0.35803 0.63571 0.0
C1854 C 0.47588 0.34713 0.63703 0.0
C1855 C 0.46285 0.34597 0.65329 0.0
H1856 H 0.13162 0.24511 0.42807 0.0
H1857 H 0.10832 0.17662 0.39751 0.0
H1858 H 0.13768 0.27061 0.40089 0.0
H1859 H 0.11489 0.2017 0.37036 0.0
H1860 H 0.15943 0.30501 0.34668 0.0
H1861 H 0.16185 0.27702 0.37312 0.0
H1862 H 0.08983 0.23693 0.35704 0.0
H1863 H 0.08781 0.26416 0.33074 0.0
C1864 C 0.12844 0.23536 0.41551 0.0
C1865 C 0.11912 0.20905 0.41486 0.0
C1866 C 0.13194 0.24991 0.39995 0.0
C1867 C 0.12636 0.23831 0.38347 0.0
C1868 C 0.11871 0.21144 0.38286 0.0
C1869 C 0.115 0.19704 0.39837 0.0
C1870 C 0.1443 0.29003 0.34879 0.0
C1871 C 0.12346 0.28675 0.33665 0.0
C1872 C 0.14561 0.27411 0.36394 0.0
C1873 C 0.12614 0.25461 0.36713 0.0
C1874 C 0.10549 0.25133 0.35484 0.0
C1875 C 0.1042 0.26713 0.33979 0.0
H1876 H 0.50828 0.40577 0.15964 0.0
H1877 H 0.5782 0.37302 0.13496 0.0
H1878 H 0.48388 0.40121 0.13198 0.0
H1879 H 0.55426 0.36917 0.10711 0.0
H1880 H 0.49447 0.3314 0.06944 0.0
H1881 H 0.52073 0.34141 0.09548 0.0
H1882 H 0.47777 0.41517 0.10216 0.0
H1883 H 0.45072 0.40452 0.0763 0.0
C1884 C 0.51859 0.39818 0.14816 0.0
C1885 C 0.54504 0.38953 0.14945 0.0
C1886 C 0.50465 0.39559 0.13228 0.0
C1887 C 0.51699 0.38453 0.11731 0.0
C1888 C 0.5439 0.37714 0.11846 0.0
C1889 C 0.55769 0.37945 0.13437 0.0
C1890 C 0.49075 0.34986 0.07638 0.0
C1891 C 0.47052 0.36716 0.07085 0.0
C1892 C 0.50595 0.35572 0.09128 0.0
C1893 C 0.5015 0.37918 0.10094 0.0
C1894 C 0.48153 0.39676 0.09518 0.0
C1895 C 0.46613 0.39076 0.08032 0.0
H1896 H 0.43888 0.78899 0.9048 0.0
H1897 H 0.35347 0.78337 0.90857 0.0
H1898 H 0.43779 0.76446 0.87717 0.0
H1899 H 0.35225 0.75903 0.88071 0.0
H1900 H 0.36482 0.69103 0.84054 0.0
H1901 H 0.36415 0.71657 0.86799 0.0
H1902 H 0.42448 0.76897 0.84706 0.0
H1903 H 0.42565 0.74309 0.82 0.0
C1904 C 0.41982 0.78286 0.89959 0.0
C1905 C 0.39625 0.78821 0.90886 0.0
C1906 C 0.41917 0.76877 0.88373 0.0
C1907 C 0.39491 0.7598 0.87667 0.0
C1908 C 0.3713 0.76529 0.88589 0.0
C1909 C 0.37198 0.77929 0.90183 0.0
C1910 C 0.3778 0.70809 0.84182 0.0
C1911 C 0.39538 0.71497 0.82819 0.0
C1912 C 0.37736 0.72279 0.8575 0.0
C1913 C 0.39441 0.74473 0.85979 0.0
C1914 C 0.41149 0.75189 0.84592 0.0
C1915 C 0.41204 0.73714 0.83034 0.0
H1916 H 0.01101 0.6697 0.57192 0.0
H1917 H 0.06254 0.60483 0.58686 0.0
H1918 H 0.98844 0.66667 0.60021 0.0
H1919 H 0.04033 0.60219 0.61548 0.0
H1920 H 0.97235 0.58738 0.6557 0.0
H1921 H 0.99843 0.58977 0.62867 0.0
H1922 H 0.99581 0.67554 0.631 0.0
H1923 H 0.9687 0.67314 0.65746 0.0
C1924 C 0.01753 0.65478 0.58127 0.0
C1925 C 0.03849 0.63745 0.57715 0.0
C1926 C 0.00477 0.65322 0.59758 0.0
C1927 C 0.01275 0.63437 0.61021 0.0
C1928 C 0.03357 0.61682 0.60601 0.0
C1929 C 0.0463 0.61833 0.58962 0.0
C1930 C 0.97741 0.60674 0.65047 0.0
C1931 C 0.96813 0.63003 0.65869 0.0
C1932 C 0.99258 0.60812 0.63505 0.0
C1933 C 0.99892 0.63285 0.62753 0.0
C1934 C 0.99082 0.65615 0.63625 0.0
C1935 C 0.97557 0.65477 0.65162 0.0
H1936 H 0.13296 0.71031 0.18324 0.0
H1937 H 0.05122 0.73286 0.192 0.0
H1938 H 0.13376 0.73685 0.15631 0.0
H1939 H 0.052 0.75939 0.16484 0.0
H1940 H 0.05989 0.77419 0.10315 0.0
H1941 H 0.05654 0.75072 0.13137 0.0
H1942 H 0.13094 0.78522 0.14795 0.0
H1943 H 0.13406 0.8091 0.12028 0.0
C1944 C 0.11521 0.72109 0.17947 0.0
C1945 C 0.09207 0.71957 0.18977 0.0
C1946 C 0.11568 0.73635 0.16406 0.0
C1947 C 0.09293 0.75019 0.15843 0.0
C1948 C 0.06977 0.74879 0.16877 0.0
C1949 C 0.06941 0.73379 0.18438 0.0
C1950 C 0.07536 0.77708 0.11287 0.0
C1951 C 0.09746 0.79333 0.10916 0.0
C1952 C 0.07343 0.76361 0.12905 0.0
C1953 C 0.09364 0.7659 0.14179 0.0
C1954 C 0.11529 0.78264 0.13827 0.0
C1955 C 0.11711 0.79626 0.12227 0.0
H1956 H 0.94183 0.3342 0.83881 0.0
H1957 H 0.00614 0.36793 0.80868 0.0
H1958 H 0.96796 0.33771 0.86556 0.0
H1959 H 0.03346 0.37024 0.83551 0.0
H1960 H 0.06302 0.39301 0.89202 0.0
H1961 H 0.0399 0.39117 0.86352 0.0
H1962 H 0.00348 0.31685 0.87905 0.0
H1963 H 0.02473 0.31992 0.90758 0.0
C1964 C 0.96185 0.342 0.83796 0.0
C1965 C 0.97221 0.35046 0.82176 0.0
C1966 C 0.97696 0.34389 0.85325 0.0
C1967 C 0.00314 0.35369 0.85269 0.0
C1968 C 0.01338 0.36267 0.83645 0.0
C1969 C 0.99789 0.36126 0.82111 0.0
C1970 C 0.0501 0.37633 0.88916 0.0
C1971 C 0.04529 0.35683 0.90199 0.0
C1972 C 0.03697 0.37516 0.87286 0.0
C1973 C 0.01932 0.35415 0.86911 0.0
C1974 C 0.01607 0.33386 0.88167 0.0
C1975 C 0.0285 0.33544 0.898 0.0
H1976 H 0.43591 0.20731 0.60175 0.0
H1977 H 0.35042 0.20854 0.60537 0.0
H1978 H 0.43912 0.2261 0.63144 0.0
H1979 H 0.3534 0.22635 0.63517 0.0
H1980 H 0.36704 0.29254 0.67482 0.0
H1981 H 0.36404 0.26758 0.64768 0.0
H1982 H 0.43285 0.22147 0.66285 0.0
H1983 H 0.4364 0.24755 0.69013 0.0
C1984 C 0.41782 0.21116 0.60904 0.0
C1985 C 0.39289 0.20683 0.60115 0.0
C1986 C 0.41962 0.22181 0.6261 0.0
C1987 C 0.39652 0.22811 0.6357 0.0
C1988 C 0.37164 0.22248 0.62805 0.0
C1989 C 0.36987 0.21221 0.61096 0.0
C1990 C 0.38144 0.27692 0.67253 0.0
C1991 C 0.40198 0.27207 0.68466 0.0
C1992 C 0.3796 0.26238 0.65693 0.0
C1993 C 0.3981 0.24231 0.65299 0.0
C1994 C 0.41838 0.23694 0.66534 0.0
C1995 C 0.4203 0.2517 0.68105 0.0
H1996 H 0.43556 0.68165 0.39795 0.0
H1997 H 0.44611 0.59663 0.39757 0.0
H1998 H 0.45713 0.68491 0.36933 0.0
H1999 H 0.46968 0.59979 0.3694 0.0
H2000 H 0.50499 0.61181 0.31498 0.0
H2001 H 0.47248 0.60829 0.33894 0.0
H2002 H 0.50044 0.68324 0.35991 0.0
H2003 H 0.53148 0.68695 0.33587 0.0
C2004 C 0.4425 0.66363 0.39162 0.0
C2005 C 0.43947 0.63894 0.39991 0.0
C2006 C 0.45511 0.66546 0.37529 0.0
C2007 C 0.46589 0.64271 0.36715 0.0
C2008 C 0.46156 0.61775 0.37512 0.0
C2009 C 0.44818 0.61587 0.3913 0.0
C2010 C 0.50373 0.62764 0.32462 0.0
C2011 C 0.52066 0.64978 0.32344 0.0
C2012 C 0.48525 0.62559 0.33842 0.0
C2013 C 0.4836 0.64551 0.35145 0.0
C2014 C 0.50036 0.6678 0.34997 0.0
C2015 C 0.5184 0.66997 0.33612 0.0
H2016 H 0.5652 0.32459 0.25117 0.0
H2017 H 0.49479 0.3364 0.21953 0.0
H2018 H 0.54373 0.28724 0.266 0.0
H2019 H 0.47297 0.30016 0.23502 0.0
H2020 H 0.5154 0.20413 0.23511 0.0
H2021 H 0.53496 0.24626 0.24392 0.0
H2022 H 0.45905 0.27226 0.26396 0.0
H2023 H 0.43975 0.22929 0.25612 0.0
C2024 C 0.54472 0.3201 0.24795 0.0
C2025 C 0.53206 0.33256 0.2336 0.0
C2026 C 0.53241 0.29881 0.25658 0.0
C2027 C 0.50692 0.29054 0.25143 0.0
C2028 C 0.49267 0.30608 0.23926 0.0
C2029 C 0.50523 0.32679 0.23029 0.0
C2030 C 0.50324 0.2182 0.24233 0.0
C2031 C 0.47583 0.21392 0.24423 0.0
C2032 C 0.51446 0.24236 0.24745 0.0
C2033 C 0.49831 0.26273 0.25421 0.0
C2034 C 0.47184 0.25692 0.25861 0.0
C2035 C 0.4608 0.23235 0.254 0.0
H2036 H 0.94432 0.31918 0.50251 0.0
H2037 H 0.91572 0.25007 0.47462 0.0
H2038 H 0.97856 0.29207 0.51657 0.0
H2039 H 0.94914 0.22295 0.489 0.0
H2040 H 0.05252 0.25179 0.48441 0.0
H2041 H 0.015 0.27686 0.49562 0.0
H2042 H 0.97823 0.20406 0.51337 0.0
H2043 H 0.01642 0.17894 0.50252 0.0
C2044 C 0.94446 0.29799 0.50005 0.0
C2045 C 0.92817 0.28687 0.4869 0.0
C2046 C 0.96404 0.28245 0.50817 0.0
C2047 C 0.96701 0.25555 0.50353 0.0
C2048 C 0.94753 0.24363 0.49282 0.0
C2049 C 0.9284 0.25923 0.48445 0.0
C2050 C 0.03712 0.24128 0.49156 0.0
C2051 C 0.03689 0.21341 0.49203 0.0
C2052 C 0.01559 0.25567 0.49811 0.0
C2053 C 0.99329 0.24232 0.50494 0.0
C2054 C 0.99501 0.21479 0.50794 0.0
C2055 C 0.01688 0.20042 0.50168 0.0
H2056 H 0.92275 0.71761 0.76373 0.0
H2057 H 0.98136 0.6734 0.73427 0.0
H2058 H 0.95432 0.75419 0.76722 0.0
H2059 H 0.01316 0.70959 0.73832 0.0
H2060 H 0.0667 0.77836 0.74851 0.0
H2061 H 0.03842 0.74372 0.76132 0.0
H2062 H 0.96966 0.77986 0.73723 0.0
H2063 H 0.99798 0.81347 0.72368 0.0
C2064 C 0.9428 0.7151 0.75881 0.0
C2065 C 0.9496 0.69273 0.74862 0.0
C2066 C 0.9608 0.7361 0.76077 0.0
C2067 C 0.98609 0.73468 0.75302 0.0
C2068 C 0.99387 0.71105 0.74459 0.0
C2069 C 0.97567 0.69037 0.74223 0.0
C2070 C 0.04545 0.77942 0.74645 0.0
C2071 C 0.03454 0.79823 0.7348 0.0
C2072 C 0.02931 0.7596 0.75379 0.0
C2073 C 0.00196 0.75907 0.75013 0.0
C2074 C 0.99068 0.77992 0.74035 0.0
C2075 C 0.00687 0.79915 0.73258 0.0
H2076 H 0.5827 0.74296 0.96963 0.0
H2077 H 0.55385 0.67401 0.99763 0.0
H2078 H 0.54846 0.76996 0.98331 0.0
H2079 H 0.51878 0.70099 0.01089 0.0
H2080 H 0.44425 0.74375 0.98005 0.0
H2081 H 0.48214 0.71742 0.98963 0.0
H2082 H 0.52065 0.78848 0.00875 0.0
H2083 H 0.48257 0.81474 -0.00071 0.0
C2084 C 0.56971 0.7338 0.97928 0.0
C2085 C 0.57032 0.70624 0.98206 0.0
C2086 C 0.55012 0.74931 0.98723 0.0
C2087 C 0.53055 0.73742 0.99787 0.0
C2088 C 0.53345 0.71057 0.00259 0.0
C2089 C 0.55351 0.69514 0.99493 0.0
C2090 C 0.46011 0.75349 0.98726 0.0
C2091 C 0.46054 0.78125 0.98885 0.0
C2092 C 0.48185 0.73841 0.99281 0.0
C2093 C 0.50456 0.751 -0.00032 0.0
C2094 C 0.50343 0.77832 0.00345 0.0
C2095 C 0.48146 0.79335 0.99814 0.0
H2096 H 0.4824 0.85623 0.26294 0.0
H2097 H 0.42611 0.79149 0.26503 0.0
H2098 H 0.51647 0.82546 0.25242 0.0
H2099 H 0.45971 0.761 0.25553 0.0
H2100 H 0.51975 0.70429 0.24232 0.0
H2101 H 0.48948 0.74127 0.237 0.0
H2102 H 0.54245 0.79352 0.26567 0.0
H2103 H 0.57327 0.75724 0.26967 0.0
C2104 C 0.47713 0.83559 0.26085 0.0
C2105 C 0.45152 0.82639 0.26496 0.0
C2106 C 0.49671 0.81785 0.25494 0.0
C2107 C 0.49118 0.79046 0.25333 0.0
C2108 C 0.46496 0.78183 0.25623 0.0
C2109 C 0.44545 0.79952 0.26185 0.0
C2110 C 0.52524 0.72393 0.24693 0.0
C2111 C 0.54861 0.72773 0.25669 0.0
C2112 C 0.50778 0.74514 0.24406 0.0
C2113 C 0.51289 0.77037 0.25145 0.0
C2114 C 0.5376 0.77459 0.2597 0.0
C2115 C 0.55535 0.75359 0.26212 0.0
H2116 H 0.53734 0.32895 0.49959 0.0
H2117 H 0.57053 0.25558 0.51926 0.0
H2118 H 0.49766 0.30506 0.48994 0.0
H2119 H 0.53153 0.23169 0.50913 0.0
H2120 H 0.45976 0.19149 0.50007 0.0
H2121 H 0.49608 0.21722 0.4876 0.0
H2122 H 0.46671 0.28732 0.51403 0.0
H2123 H 0.43033 0.26149 0.52642 0.0
C2124 C 0.53675 0.30756 0.50113 0.0
C2125 C 0.55652 0.29423 0.51083 0.0
C2126 C 0.514 0.29391 0.49556 0.0
C2127 C 0.5112 0.26664 0.49915 0.0
C2128 C 0.53299 0.25271 0.50619 0.0
C2129 C 0.55539 0.26643 0.51209 0.0
C2130 C 0.45997 0.21268 0.50228 0.0
C2131 C 0.44217 0.22449 0.51421 0.0
C2132 C 0.48103 0.22741 0.49526 0.0
C2133 C 0.4845 0.25417 0.50004 0.0
C2134 C 0.46455 0.26678 0.50999 0.0
C2135 C 0.44369 0.25198 0.51715 0.0
H2136 H 0.07135 0.22721 0.74848 0.0
H2137 H 0.01645 0.16437 0.73523 0.0
H2138 H 0.04038 0.25983 0.73825 0.0
H2139 H 0.98582 0.1972 0.72318 0.0
H2140 H 0.92392 0.25816 0.74224 0.0
H2141 H 0.95605 0.22452 0.73548 0.0
H2142 H 0.01339 0.28551 0.72217 0.0
H2143 H 0.98142 0.31945 0.7308 0.0
C2144 C 0.05286 0.22024 0.74287 0.0
C2145 C 0.04592 0.19319 0.74348 0.0
C2146 C 0.03499 0.23916 0.73664 0.0
C2147 C 0.00977 0.23158 0.73037 0.0
C2148 C 0.00441 0.20412 0.72869 0.0
C2149 C 0.02214 0.18513 0.73541 0.0
C2150 C 0.94328 0.26452 0.73769 0.0
C2151 C 0.9505 0.29152 0.73797 0.0
C2152 C 0.96187 0.24499 0.7335 0.0
C2153 C 0.98809 0.25194 0.72899 0.0
C2154 C 0.99392 0.27917 0.72652 0.0
C2155 C 0.97543 0.29878 0.73122 0.0
H2156 H 0.98026 0.64225 0.04414 0.0
H2157 H 0.93047 0.68817 0.0091 0.0
H2158 H 0.0156 0.67412 0.04065 0.0
H2159 H 0.96677 0.71957 0.00463 0.0
H2160 H 0.01629 0.78945 0.02699 0.0
H2161 H 0.98524 0.75385 0.02072 0.0
H2162 H 0.0487 0.6964 0.02623 0.0
H2163 H 0.07932 0.73218 0.03373 0.0
C2164 C 0.97711 0.65874 0.03519 0.0
C2165 C 0.95223 0.66289 0.0272 0.0
C2166 C 0.99764 0.6771 0.03305 0.0
C2167 C 0.99413 0.69994 0.02258 0.0
C2168 C 0.97004 0.70273 0.01324 0.0
C2169 C 0.94926 0.68452 0.01563 0.0
C2170 C 0.02371 0.76924 0.02656 0.0
C2171 C 0.05015 0.76358 0.03115 0.0
C2172 C 0.00587 0.74869 0.02282 0.0
C2173 C 0.01415 0.72194 0.02322 0.0
C2174 C 0.04125 0.71658 0.02634 0.0
C2175 C 0.05894 0.73712 0.0305 0.0
H2176 H 0.43373 0.71115 0.74255 0.0
H2177 H 0.50575 0.67918 0.76503 0.0
H2178 H 0.45859 0.7493 0.73142 0.0
H2179 H 0.5307 0.7164 0.75323 0.0
H2180 H 0.57094 0.78829 0.74509 0.0
H2181 H 0.54573 0.75277 0.73086 0.0
H2182 H 0.47469 0.77934 0.75747 0.0
H2183 H 0.49999 0.81394 0.77219 0.0
C2184 C 0.45506 0.71151 0.74432 0.0
C2185 C 0.46768 0.69299 0.75541 0.0
C2186 C 0.46931 0.7333 0.73783 0.0
C2187 C 0.4964 0.73618 0.74189 0.0
C2188 C 0.50979 0.71487 0.74997 0.0
C2189 C 0.49546 0.69353 0.75684 0.0
C2190 C 0.54972 0.78724 0.74732 0.0
C2191 C 0.53754 0.80313 0.76028 0.0
C2192 C 0.53529 0.76697 0.73907 0.0
C2193 C 0.50842 0.76296 0.74333 0.0
C2194 C 0.49539 0.78187 0.75391 0.0
C2195 C 0.50992 0.80164 0.76248 0.0
H2196 H 0.95782 0.81615 0.49335 0.0
H2197 H 0.93053 0.74252 0.51625 0.0
H2198 H 0.99633 0.79309 0.48103 0.0
H2199 H 0.96809 0.71936 0.50331 0.0
H2200 H 0.04055 0.68172 0.49079 0.0
H2201 H 0.00231 0.70596 0.47912 0.0
H2202 H 0.02988 0.77729 0.50496 0.0
H2203 H 0.06714 0.75291 0.51725 0.0
C2204 C 0.95928 0.79484 0.49501 0.0
C2205 C 0.94188 0.78127 0.50639 0.0
C2206 C 0.98129 0.78163 0.48786 0.0
C2207 C 0.98554 0.75457 0.49155 0.0
C2208 C 0.96546 0.74023 0.50025 0.0
C2209 C 0.94393 0.75353 0.50776 0.0
C2210 C 0.03897 0.70281 0.49344 0.0
C2211 C 0.05604 0.71518 0.50564 0.0
C2212 C 0.01714 0.7167 0.48664 0.0
C2213 C 0.01277 0.74332 0.49148 0.0
C2214 C 0.0326 0.75676 0.50103 0.0
C2215 C 0.05395 0.74273 0.50818 0.0
H2216 H 0.93458 0.23344 0.24262 0.0
H2217 H 0.00079 0.18734 0.26224 0.0
H2218 H 0.96417 0.27087 0.23736 0.0
H2219 H 0.03026 0.22481 0.25692 0.0
H2220 H 0.07931 0.29549 0.25243 0.0
H2221 H 0.05138 0.26176 0.23838 0.0
H2222 H 0.98234 0.29538 0.26381 0.0
H2223 H 0.01021 0.32827 0.2782 0.0
C2224 C 0.95558 0.23088 0.24522 0.0
C2225 C 0.96517 0.20766 0.25343 0.0
C2226 C 0.97252 0.25238 0.24215 0.0
C2227 C 0.99937 0.25096 0.24707 0.0
C2228 C 0.00964 0.22652 0.25298 0.0
C2229 C 0.99267 0.20504 0.25615 0.0
C2230 C 0.05804 0.29624 0.25449 0.0
C2231 C 0.04696 0.31394 0.26682 0.0
C2232 C 0.04209 0.27691 0.24645 0.0
C2233 C 0.01478 0.27564 0.25024 0.0
C2234 C 0.0033 0.29581 0.26057 0.0
C2235 C 0.01928 0.31466 0.26889 0.0
H2236 H 0.55531 0.17697 0.00196 0.0
H2237 H 0.57844 0.24851 0.02943 0.0
H2238 H 0.51867 0.20101 0.98805 0.0
H2239 H 0.54277 0.27266 0.01503 0.0
H2240 H 0.47495 0.31258 0.99746 0.0
H2241 H 0.51477 0.28843 0.98885 0.0
H2242 H 0.48018 0.21578 0.00859 0.0
H2243 H 0.44045 0.24003 0.01729 0.0
C2244 C 0.55336 0.19807 0.00442 0.0
C2245 C 0.56902 0.21068 0.01733 0.0
C2246 C 0.53241 0.21183 0.99638 0.0
C2247 C 0.52754 0.23855 0.00071 0.0
C2248 C 0.54595 0.25207 0.01141 0.0
C2249 C 0.56638 0.2382 0.01976 0.0
C2250 C 0.47507 0.29121 0.99892 0.0
C2251 C 0.45466 0.27819 0.00817 0.0
C2252 C 0.49806 0.27739 0.9941 0.0
C2253 C 0.50078 0.25035 0.99833 0.0
C2254 C 0.47868 0.23661 0.00509 0.0
C2255 C 0.45587 0.25049 0.01013 0.0
H2256 H 0.50479 0.30745 0.73355 0.0
H2257 H 0.43251 0.26517 0.74564 0.0
H2258 H 0.52589 0.26556 0.72501 0.0
H2259 H 0.45323 0.22344 0.73649 0.0
H2260 H 0.50143 0.168 0.69429 0.0
H2261 H 0.47494 0.20444 0.70633 0.0
H2262 H 0.53728 0.22184 0.74366 0.0
H2263 H 0.56365 0.18518 0.73197 0.0
C2264 C 0.49324 0.28928 0.73394 0.0
C2265 C 0.46676 0.28966 0.73966 0.0
C2266 C 0.50534 0.26536 0.72927 0.0
C2267 C 0.49116 0.24137 0.73025 0.0
C2268 C 0.46449 0.24174 0.73559 0.0
C2269 C 0.45254 0.26567 0.74061 0.0
C2270 C 0.50913 0.17902 0.70546 0.0
C2271 C 0.53489 0.17408 0.71192 0.0
C2272 C 0.49397 0.19988 0.71229 0.0
C2273 C 0.50445 0.2162 0.72557 0.0
C2274 C 0.52906 0.20973 0.73317 0.0
C2275 C 0.54403 0.18861 0.72656 0.0
H2276 H 0.52146 0.80826 0.51034 0.0
H2277 H 0.56742 0.74605 0.48558 0.0
H2278 H 0.48417 0.77777 0.51358 0.0
H2279 H 0.53007 0.71595 0.48828 0.0
H2280 H 0.46097 0.66426 0.49116 0.0
H2281 H 0.49749 0.69036 0.50321 0.0
H2282 H 0.45435 0.76253 0.49143 0.0
H2283 H 0.41764 0.73646 0.47999 0.0
C2284 C 0.52388 0.78788 0.50601 0.0
C2285 C 0.54723 0.77976 0.49734 0.0
C2286 C 0.50241 0.77045 0.50775 0.0
C2287 C 0.50377 0.74459 0.50077 0.0
C2288 C 0.52818 0.73566 0.49387 0.0
C2289 C 0.54972 0.75302 0.49226 0.0
C2290 C 0.45898 0.68569 0.49162 0.0
C2291 C 0.43659 0.69832 0.48431 0.0
C2292 C 0.48 0.70066 0.49845 0.0
C2293 C 0.4792 0.72859 0.49798 0.0
C2294 C 0.45572 0.74108 0.49216 0.0
C2295 C 0.4346 0.7261 0.48547 0.0
H2296 H 0.00113 0.83562 0.21524 0.0
H2297 H 0.93306 0.80411 0.24306 0.0
H2298 H 0.02643 0.79574 0.22276 0.0
H2299 H 0.95838 0.7645 0.25055 0.0
H2300 H 0.99383 0.68473 0.23673 0.0
H2301 H 0.97354 0.72779 0.23055 0.0
H2302 H 0.04512 0.7673 0.24791 0.0
H2303 H 0.06528 0.72405 0.2542 0.0
C2304 C 0.99179 0.82059 0.22337 0.0
C2305 C 0.96491 0.82283 0.2283 0.0
C2306 C 0.00628 0.79771 0.2276 0.0
C2307 C 0.9941 0.77678 0.23681 0.0
C2308 C 0.96801 0.78006 0.24301 0.0
C2309 C 0.95359 0.80286 0.23885 0.0
C2310 C 0.0054 0.70263 0.23881 0.0
C2311 C 0.03133 0.70111 0.24546 0.0
C2312 C 0.99373 0.72724 0.2355 0.0
C2313 C 0.00766 0.75087 0.23899 0.0
C2314 C 0.03401 0.74938 0.24503 0.0
C2315 C 0.04566 0.72464 0.24845 0.0
H2316 H 0.98738 0.18468 0.98969 0.0
H2317 H 0.91972 0.23705 0.99421 0.0
H2318 H 0.01686 0.22101 0.99643 0.0
H2319 H 0.94938 0.27359 0.00205 0.0
H2320 H 0.01047 0.33289 0.97792 0.0
H2321 H 0.97736 0.29997 0.98515 0.0
H2322 H 0.03667 0.25407 0.01305 0.0
H2323 H 0.07038 0.28656 0.00479 0.0
C2324 C 0.97867 0.20384 0.99264 0.0
C2325 C 0.95119 0.20806 0.99087 0.0
C2326 C 0.9957 0.22481 0.99676 0.0
C2327 C 0.98571 0.25061 -0.00053 0.0
C2328 C 0.95792 0.2542 -0.00046 0.0
C2329 C 0.94083 0.23317 0.9952 0.0
C2330 C 0.01645 0.3161 0.98594 0.0
C2331 C 0.04332 0.31198 0.99029 0.0
C2332 C 0.99725 0.29716 0.99026 0.0
C2333 C 0.00431 0.27379 -0.0007 0.0
C2334 C 0.03061 0.27133 0.00552 0.0
C2335 C 0.04996 0.29011 0.00093 0.0
H2336 H 0.35376 0.96233 0.29904 0.0
H2337 H 0.34129 0.94571 0.2437 0.0
H2338 H 0.35301 0.00977 0.29292 0.0
H2339 H 0.34146 0.99337 0.2375 0.0
H2340 H 0.39473 0.08398 0.2685 0.0
H2341 H 0.38501 0.03881 0.27787 0.0
H2342 H 0.31795 0.03624 0.24233 0.0
H2343 H 0.32748 0.08175 0.23305 0.0
C2344 C 0.35033 0.96879 0.2856 0.0
C2345 C 0.34761 0.95022 0.27184 0.0
C2346 C 0.3502 0.99599 0.28209 0.0
C2347 C 0.34737 0.00528 0.26473 0.0
C2348 C 0.34347 0.9868 0.25105 0.0
C2349 C 0.34365 0.95952 0.25456 0.0
C2350 C 0.37743 0.07414 0.26305 0.0
C2351 C 0.36201 0.08642 0.24993 0.0
C2352 C 0.3719 0.04818 0.26839 0.0
C2353 C 0.35085 0.0339 0.26071 0.0
C2354 C 0.33456 0.04663 0.24826 0.0
C2355 C 0.34002 0.07266 0.24297 0.0
H2356 H 0.29497 0.16641 0.50326 0.0
H2357 H 0.29646 0.08971 0.52892 0.0
H2358 H 0.24916 0.15889 0.49446 0.0
H2359 H 0.25019 0.08233 0.5202 0.0
H2360 H 0.17962 0.12679 0.46465 0.0
H2361 H 0.22561 0.12941 0.47393 0.0
H2362 H 0.204 0.10027 0.52555 0.0
H2363 H 0.15758 0.09667 0.51602 0.0
C2364 C 0.28562 0.1478 0.50688 0.0
C2365 C 0.29955 0.12854 0.51662 0.0
C2366 C 0.25931 0.14352 0.50186 0.0
C2367 C 0.24615 0.11989 0.50648 0.0
C2368 C 0.25979 0.10079 0.51653 0.0
C2369 C 0.28626 0.10504 0.52152 0.0
C2370 C 0.18461 0.12023 0.47785 0.0
C2371 C 0.16481 0.11135 0.48956 0.0
C2372 C 0.211 0.12214 0.48325 0.0
C2373 C 0.21839 0.11539 0.50053 0.0
C2374 C 0.19888 0.10558 0.51212 0.0
C2375 C 0.1723 0.10369 0.50671 0.0
H2376 H 0.14841 0.92586 0.7605 0.0
H2377 H 0.13062 0.9437 0.70597 0.0
H2378 H 0.15129 0.9735 0.76678 0.0
H2379 H 0.13467 0.99083 0.71206 0.0
H2380 H 0.10634 0.07029 0.73551 0.0
H2381 H 0.10865 0.02353 0.72763 0.0
H2382 H 0.17759 0.01395 0.761 0.0
H2383 H 0.17533 0.06099 0.76889 0.0
C2384 C 0.14536 0.93987 0.74984 0.0
C2385 C 0.1394 0.93089 0.73273 0.0
C2386 C 0.1473 0.96715 0.75338 0.0
C2387 C 0.14318 0.98597 0.7399 0.0
C2388 C 0.1377 0.97691 0.72277 0.0
C2389 C 0.13573 0.94979 0.71925 0.0
C2390 C 0.12243 0.05844 0.74082 0.0
C2391 C 0.14064 0.06942 0.75284 0.0
C2392 C 0.12369 0.03154 0.73636 0.0
C2393 C 0.1432 0.01494 0.74379 0.0
C2394 C 0.16204 0.0261 0.7553 0.0
C2395 C 0.16081 0.05306 0.75974 0.0
H2396 H 0.19865 0.83052 0.03188 0.0
H2397 H 0.1747 0.89078 0.99459 0.0
H2398 H 0.24515 0.83761 0.02386 0.0
H2399 H 0.2214 0.89771 0.9864 0.0
H2400 H 0.30471 0.86992 0.96332 0.0
H2401 H 0.25799 0.86834 0.9715 0.0
H2402 H 0.27927 0.87632 0.02637 0.0
H2403 H 0.32611 0.87923 0.01828 0.0
C2404 C 0.20336 0.84515 0.02187 0.0
C2405 C 0.18311 0.85999 0.01377 0.0
C2406 C 0.22995 0.84939 0.01742 0.0
C2407 C 0.23683 0.86829 0.00457 0.0
C2408 C 0.21659 0.883 0.99633 0.0
C2409 C 0.18996 0.87908 0.00102 0.0
C2410 C 0.29957 0.87213 0.97711 0.0
C2411 C 0.31944 0.87464 0.99012 0.0
C2412 C 0.27272 0.87104 0.98177 0.0
C2413 C 0.26507 0.87201 -0.00044 0.0
C2414 C 0.2847 0.87519 0.01256 0.0
C2415 C 0.31155 0.87672 0.0079 0.0
H2416 H 0.68243 0.93331 0.77352 0.0
H2417 H 0.61594 0.9235 0.73794 0.0
H2418 H 0.68877 0.97866 0.76258 0.0
H2419 H 0.62271 0.96815 0.72689 0.0
H2420 H 0.6518 0.03997 0.69982 0.0
H2421 H 0.65535 0.99446 0.70996 0.0
H2422 H 0.6626 0.02192 0.76372 0.0
H2423 H 0.66014 0.06802 0.75348 0.0
C2424 C 0.6693 0.94069 0.76331 0.0
C2425 C 0.64874 0.92465 0.75656 0.0
C2426 C 0.67297 0.96662 0.75706 0.0
C2427 C 0.65634 0.97685 0.74383 0.0
C2428 C 0.6362 0.96064 0.73685 0.0
C2429 C 0.6324 0.93493 0.74316 0.0
C2430 C 0.65502 0.03653 0.71376 0.0
C2431 C 0.65566 0.05776 0.72584 0.0
C2432 C 0.65671 0.01034 0.71957 0.0
C2433 C 0.6589 0.00465 0.73763 0.0
C2434 C 0.661 0.02577 0.7497 0.0
C2435 C 0.65932 0.05212 0.74386 0.0
H2436 H 0.68376 0.88868 0.46605 0.0
H2437 H 0.67106 0.89082 0.5224 0.0
H2438 H 0.7315 0.89298 0.47067 0.0
H2439 H 0.71905 0.89478 0.52702 0.0
H2440 H 0.80591 0.92128 0.52792 0.0
H2441 H 0.75857 0.92529 0.52134 0.0
H2442 H 0.76509 0.86148 0.48352 0.0
H2443 H 0.81202 0.85678 0.49041 0.0
C2444 C 0.69112 0.89057 0.47942 0.0
C2445 C 0.67364 0.88943 0.49388 0.0
C2446 C 0.71849 0.8928 0.48205 0.0
C2447 C 0.72898 0.89412 0.49919 0.0
C2448 C 0.71147 0.89401 0.51365 0.0
C2449 C 0.68406 0.89152 0.51102 0.0
C2450 C 0.7973 0.90813 0.51816 0.0
C2451 C 0.81285 0.88853 0.50982 0.0
C2452 C 0.7702 0.91049 0.51439 0.0
C2453 C 0.75814 0.8936 0.50201 0.0
C2454 C 0.7739 0.87497 0.493 0.0
C2455 C 0.8009 0.87239 0.49691 0.0
H2456 H 0.86429 0.08724 0.22235 0.0
H2457 H 0.83387 0.07396 0.27499 0.0
H2458 H 0.85943 0.03993 0.21599 0.0
H2459 H 0.82808 0.02687 0.26822 0.0
H2460 H 0.8101 0.94347 0.23929 0.0
H2461 H 0.80464 0.99174 0.24395 0.0
H2462 H 0.88828 0.00313 0.23387 0.0
H2463 H 0.8938 0.95545 0.22965 0.0
C2464 C 0.85611 0.07439 0.23244 0.0
C2465 C 0.84999 0.08435 0.24929 0.0
C2466 C 0.85315 0.04739 0.22873 0.0
C2467 C 0.84358 0.02991 0.24169 0.0
C2468 C 0.83532 0.04008 0.258 0.0
C2469 C 0.83861 0.06707 0.26182 0.0
C2470 C 0.82722 0.95642 0.23826 0.0
C2471 C 0.85241 0.94588 0.2344 0.0
C2472 C 0.82411 0.98385 0.24085 0.0
C2473 C 0.84602 0.00097 0.23905 0.0
C2474 C 0.87107 0.99032 0.23513 0.0
C2475 C 0.87426 0.96307 0.23293 0.0
H2476 H 0.83345 0.14339 0.00844 0.0
H2477 H 0.82438 0.07023 0.97918 0.0
H2478 H 0.78796 0.13961 0.01886 0.0
H2479 H 0.77859 0.06649 0.98962 0.0
H2480 H 0.68932 0.09129 0.99359 0.0
H2481 H 0.73609 0.08951 0.98499 0.0
H2482 H 0.7589 0.11384 0.03752 0.0
H2483 H 0.71245 0.11681 0.04584 0.0
C2484 C 0.82196 0.12616 0.00454 0.0
C2485 C 0.83262 0.10711 0.99298 0.0
C2486 C 0.79579 0.12402 0.01048 0.0
C2487 C 0.77958 0.10277 0.00503 0.0
C2488 C 0.79043 0.08331 0.99385 0.0
C2489 C 0.81667 0.08543 0.98791 0.0
C2490 C 0.70433 0.09622 0.00329 0.0
C2491 C 0.69704 0.1042 0.0204 0.0
C2492 C 0.73115 0.09492 0.99843 0.0
C2493 C 0.75124 0.10167 0.01055 0.0
C2494 C 0.74394 0.10883 0.02779 0.0
C2495 C 0.71723 0.11017 0.03263 0.0
H2496 H 0.86443 0.55924 0.7615 0.0
H2497 H 0.85195 0.54837 0.70564 0.0
H2498 H 0.85835 0.51145 0.76619 0.0
H2499 H 0.84633 0.50044 0.71028 0.0
H2500 H 0.8252 0.42709 0.76931 0.0
H2501 H 0.82229 0.47435 0.76239 0.0
H2502 H 0.88037 0.46437 0.7211 0.0
H2503 H 0.88438 0.41734 0.72845 0.0
C2504 C 0.85995 0.54664 0.75029 0.0
C2505 C 0.8585 0.55746 0.73324 0.0
C2506 C 0.85641 0.51935 0.75295 0.0
C2507 C 0.8519 0.50226 0.73858 0.0
C2508 C 0.84983 0.51317 0.72157 0.0
C2509 C 0.85283 0.54056 0.71894 0.0
C2510 C 0.8374 0.43486 0.75874 0.0
C2511 C 0.85539 0.4183 0.74967 0.0
C2512 C 0.83558 0.46194 0.75474 0.0
C2513 C 0.85125 0.47304 0.74132 0.0
C2514 C 0.86792 0.45628 0.73145 0.0
C2515 C 0.8701 0.42925 0.73563 0.0
H2516 H 0.82104 0.60935 0.00112 0.0
H2517 H 0.79891 0.55059 0.03988 0.0
H2518 H 0.77822 0.6042 0.98675 0.0
H2519 H 0.75621 0.54441 0.0251 0.0
H2520 H 0.67184 0.57504 0.01154 0.0
H2521 H 0.71653 0.56889 0.02287 0.0
H2522 H 0.7482 0.57898 0.97027 0.0
H2523 H 0.70393 0.58754 0.95924 0.0
C2524 C 0.80726 0.59469 0.00621 0.0
C2525 C 0.81311 0.58052 0.02164 0.0
C2526 C 0.78268 0.59161 0.99795 0.0
C2527 C 0.76355 0.574 0.00483 0.0
C2528 C 0.77019 0.55857 0.01967 0.0
C2529 C 0.79466 0.56195 0.02807 0.0
C2530 C 0.68831 0.57601 0.00238 0.0
C2531 C 0.68413 0.58231 0.98452 0.0
C2532 C 0.71401 0.57201 0.00883 0.0
C2533 C 0.73611 0.57379 0.99753 0.0
C2534 C 0.73173 0.57807 0.97944 0.0
C2535 C 0.70614 0.58254 0.97305 0.0
H2536 H 0.64036 0.59911 0.22846 0.0
H2537 H 0.66786 0.57927 0.2809 0.0
H2538 H 0.64377 0.55322 0.21999 0.0
H2539 H 0.67493 0.5339 0.27168 0.0
H2540 H 0.64724 0.44994 0.25949 0.0
H2541 H 0.65278 0.49592 0.26732 0.0
H2542 H 0.66409 0.51578 0.21227 0.0
H2543 H 0.65441 0.47065 0.20424 0.0
C2544 C 0.64756 0.58511 0.23818 0.0
C2545 C 0.65292 0.59315 0.2556 0.0
C2546 C 0.65016 0.55853 0.23315 0.0
C2547 C 0.65922 0.53918 0.24517 0.0
C2548 C 0.66693 0.54772 0.26213 0.0
C2549 C 0.66344 0.57418 0.26735 0.0
C2550 C 0.6503 0.46406 0.24893 0.0
C2551 C 0.64948 0.4561 0.23112 0.0
C2552 C 0.65423 0.4907 0.25351 0.0
C2553 C 0.6585 0.51021 0.24047 0.0
C2554 C 0.6599 0.50185 0.22277 0.0
C2555 C 0.65494 0.47542 0.21815 0.0
H2556 H 0.79303 0.39093 0.45811 0.0
H2557 H 0.82197 0.42312 0.50734 0.0
H2558 H 0.74758 0.39852 0.46758 0.0
H2559 H 0.77624 0.43101 0.51682 0.0
H2560 H 0.69556 0.39721 0.53594 0.0
H2561 H 0.74088 0.40179 0.52582 0.0
H2562 H 0.71263 0.42955 0.47523 0.0
H2563 H 0.66674 0.42492 0.48547 0.0
C2564 C 0.78971 0.4003 0.47079 0.0
C2565 C 0.81114 0.4063 0.48202 0.0
C2566 C 0.76358 0.40471 0.47621 0.0
C2567 C 0.75821 0.41526 0.493 0.0
C2568 C 0.77969 0.42245 0.50391 0.0
C2569 C 0.80587 0.41794 0.4985 0.0
C2570 C 0.69887 0.40505 0.52282 0.0
C2571 C 0.67742 0.41079 0.51154 0.0
C2572 C 0.725 0.40767 0.517 0.0
C2573 C 0.73046 0.41605 0.49971 0.0
C2574 C 0.70908 0.42275 0.48857 0.0
C2575 C 0.68281 0.4201 0.49443 0.0
H2576 H 0.17307 0.57922 0.26467 0.0
H2577 H 0.12728 0.54928 0.22088 0.0
H2578 H 0.18718 0.53374 0.27181 0.0
H2579 H 0.14118 0.50406 0.22788 0.0
H2580 H 0.17399 0.42436 0.24136 0.0
H2581 H 0.17734 0.47047 0.23142 0.0
H2582 H 0.15866 0.49755 0.28402 0.0
H2583 H 0.15452 0.452 0.29384 0.0
C2584 C 0.16678 0.56297 0.25627 0.0
C2585 C 0.14907 0.56751 0.24231 0.0
C2586 C 0.17467 0.537 0.26038 0.0
C2587 C 0.16513 0.51532 0.25047 0.0
C2588 C 0.14911 0.5203 0.23566 0.0
C2589 C 0.14103 0.54613 0.23169 0.0
C2590 C 0.17082 0.44014 0.25085 0.0
C2591 C 0.16373 0.43429 0.26839 0.0
C2592 C 0.17292 0.46654 0.24516 0.0
C2593 C 0.16825 0.48763 0.25693 0.0
C2594 C 0.16285 0.48179 0.27468 0.0
C2595 C 0.16049 0.45551 0.28032 0.0
H2596 H 0.32322 0.38758 0.97915 0.0
H2597 H 0.30019 0.37891 0.03381 0.0
H2598 H 0.2768 0.39395 0.97107 0.0
H2599 H 0.25422 0.38704 0.0259 0.0
H2600 H 0.17429 0.36219 0.00139 0.0
H2601 H 0.22009 0.3628 0.01151 0.0
H2602 H 0.23887 0.42282 0.97264 0.0
H2603 H 0.19291 0.42171 0.96226 0.0
C2604 C 0.30834 0.38728 0.98946 0.0
C2605 C 0.31552 0.38259 0.00711 0.0
C2606 C 0.28174 0.39135 0.98487 0.0
C2607 C 0.26174 0.39095 0.99784 0.0
C2608 C 0.26905 0.38712 0.01554 0.0
C2609 C 0.29554 0.38283 0.0201 0.0
C2610 C 0.18805 0.37597 0.99529 0.0
C2611 C 0.18007 0.39183 0.981 0.0
C2612 C 0.21435 0.37633 0.00108 0.0
C2613 C 0.23326 0.39274 0.9928 0.0
C2614 C 0.22494 0.40958 0.97906 0.0
C2615 C 0.19863 0.40906 0.97319 0.0
H2616 H 0.39431 0.5719 0.73901 0.0
H2617 H 0.3226 0.56313 0.76975 0.0
H2618 H 0.39229 0.52544 0.73087 0.0
H2619 H 0.32017 0.51627 0.76125 0.0
H2620 H 0.34919 0.42839 0.76252 0.0
H2621 H 0.34324 0.47579 0.76766 0.0
H2622 H 0.37045 0.49219 0.71469 0.0
H2623 H 0.37847 0.44533 0.71005 0.0
C2624 C 0.37761 0.56021 0.7436 0.0
C2625 C 0.35857 0.57126 0.75499 0.0
C2626 C 0.37643 0.53345 0.73892 0.0
C2627 C 0.35605 0.51698 0.74539 0.0
C2628 C 0.33636 0.52826 0.75624 0.0
C2629 C 0.33766 0.55512 0.76104 0.0
C2630 C 0.35404 0.44209 0.75199 0.0
C2631 C 0.36465 0.43283 0.73594 0.0
C2632 C 0.3502 0.46931 0.75484 0.0
C2633 C 0.35663 0.48792 0.74165 0.0
C2634 C 0.36578 0.47852 0.72529 0.0
C2635 C 0.36998 0.45144 0.72253 0.0
H2636 H 0.18485 0.5664 0.51951 0.0
H2637 H 0.17949 0.63172 0.48259 0.0
H2638 H 0.2306 0.55833 0.51016 0.0
H2639 H 0.22468 0.62304 0.47298 0.0
H2640 H 0.3005 0.59184 0.4507 0.0
H2641 H 0.25349 0.58943 0.45808 0.0
H2642 H 0.27334 0.58466 0.51341 0.0
H2643 H 0.32063 0.58653 0.50602 0.0
C2644 C 0.19326 0.5789 0.50931 0.0
C2645 C 0.17842 0.59987 0.50191 0.0
C2646 C 0.21944 0.57419 0.50394 0.0
C2647 C 0.23122 0.59008 0.49088 0.0
C2648 C 0.21603 0.61021 0.48291 0.0
C2649 C 0.19001 0.61511 0.4884 0.0
C2650 C 0.29494 0.58946 0.46442 0.0
C2651 C 0.31434 0.58941 0.47779 0.0
C2652 C 0.26797 0.58839 0.46863 0.0
C2653 C 0.25974 0.58712 0.48631 0.0
C2654 C 0.2791 0.5855 0.49965 0.0
C2655 C 0.30616 0.58676 0.49544 0.0
loop_
_geom_bond_atom_site_label_1
_geom_bond_atom_site_label_2
_geom_bond_distance
_geom_bond_site_symmetry_2
_ccdc_geom_bond_type
Co0 N4 2.148 . S
Co0 N10 2.128 . S
Co0 N20 2.194 . S
Co0 O25 2.351 . S
Co0 O26 2.155 . S
Co0 O27 2.096 . S
C1 N4 1.301 . S
C1 N5 1.328 . S
C1 H6 0.930 . S
C2 C3 1.333 . S
C2 N4 1.317 . S
C2 H7 0.930 . S
C3 C2 1.333 . S
C3 N5 1.350 . S
C3 H29 0.931 . S
N4 Co0 2.148 . S
N4 C1 1.301 . S
N4 C2 1.317 . S
N5 C1 1.328 . S
N5 C3 1.350 . S
H6 C1 0.930 . S
H7 C2 0.930 . S
C8 O9 1.224 . S
C8 O27 1.247 . S
O9 C8 1.224 . S
N10 Co0 2.128 . S
N10 C11 1.355 . S
N10 C13 1.311 . S
C11 N10 1.355 . S
C11 C12 1.363 . S
C11 H23 0.929 . S
C12 C11 1.363 . S
C12 N14 1.375 . S
C12 H30 0.931 . S
C13 N10 1.311 . S
C13 N14 1.347 . S
C13 H24 0.929 . S
N14 C12 1.375 . S
N14 C13 1.347 . S
C15 C18 1.365 . S
C15 N20 1.328 . S
C15 H21 0.929 . S
C16 C17 1.362 . S
C16 C19 1.378 . S
C16 H31 0.929 . S
C17 C16 1.362 . S
C17 C18 1.366 . S
C18 C15 1.365 . S
C18 C17 1.366 . S
C18 H32 0.930 . S
C19 C16 1.378 . S
C19 N20 1.315 . S
C19 H22 0.930 . S
N20 Co0 2.194 . S
N20 C15 1.328 . S
N20 C19 1.315 . S
H21 C15 0.929 . S
H22 C19 0.930 . S
H23 C11 0.929 . S
H24 C13 0.929 . S
O25 Co0 2.351 . S
O25 C28 1.244 . S
O26 Co0 2.155 . S
O26 C28 1.240 . S
O27 Co0 2.096 . S
O27 C8 1.247 . S
C28 O25 1.244 . S
C28 O26 1.240 . S
H29 C3 0.931 . S
H30 C12 0.931 . S
H31 C16 0.929 . S
H32 C18 0.930 . S
Co33 N37 2.148 . S
Co33 N43 2.128 . S
Co33 N53 2.194 . S
Co33 O58 2.351 . S
Co33 O59 2.155 . S
Co33 O60 2.096 . S
C34 N37 1.301 . S
C34 N38 1.328 . S
C34 H39 0.930 . S
C35 C36 1.333 . S
C35 N37 1.317 . S
C35 H40 0.930 . S
C36 C35 1.333 . S
C36 N38 1.350 . S
C36 H62 0.931 . S
N37 Co33 2.148 . S
N37 C34 1.301 . S
N37 C35 1.317 . S
N38 C34 1.328 . S
N38 C36 1.350 . S
H39 C34 0.930 . S
H40 C35 0.930 . S
C41 O42 1.224 . S
C41 O60 1.247 . S
O42 C41 1.224 . S
N43 Co33 2.128 . S
N43 C44 1.355 . S
N43 C46 1.311 . S
C44 N43 1.355 . S
C44 C45 1.363 . S
C44 H56 0.929 . S
C45 C44 1.363 . S
C45 N47 1.375 . S
C45 H63 0.931 . S
C46 N43 1.311 . S
C46 N47 1.347 . S
C46 H57 0.929 . S
N47 C45 1.375 . S
N47 C46 1.347 . S
C48 C51 1.365 . S
C48 N53 1.328 . S
C48 H54 0.929 . S
C49 C50 1.362 . S
C49 C52 1.378 . S
C49 H64 0.929 . S
C50 C49 1.362 . S
C50 C51 1.366 . S
C51 C48 1.365 . S
C51 C50 1.366 . S
C51 H65 0.930 . S
C52 C49 1.378 . S
C52 N53 1.315 . S
C52 H55 0.930 . S
N53 Co33 2.194 . S
N53 C48 1.328 . S
N53 C52 1.315 . S
H54 C48 0.929 . S
H55 C52 0.930 . S
H56 C44 0.929 . S
H57 C46 0.929 . S
O58 Co33 2.351 . S
O58 C61 1.244 . S
O59 Co33 2.155 . S
O59 C61 1.240 . S
O60 Co33 2.096 . S
O60 C41 1.247 . S
C61 O58 1.244 . S
C61 O59 1.240 . S
H62 C36 0.931 . S
H63 C45 0.931 . S
H64 C49 0.929 . S
H65 C51 0.930 . S
Co66 N70 2.148 . S
Co66 N76 2.128 . S
Co66 N86 2.194 . S
Co66 O91 2.351 . S
Co66 O92 2.155 . S
Co66 O93 2.096 . S
C67 N70 1.301 . S
C67 N71 1.328 . S
C67 H72 0.930 . S
C68 C69 1.333 . S
C68 N70 1.317 . S
C68 H73 0.930 . S
C69 C68 1.333 . S
C69 N71 1.350 . S
C69 H95 0.931 . S
N70 Co66 2.148 . S
N70 C67 1.301 . S
N70 C68 1.317 . S
N71 C67 1.328 . S
N71 C69 1.350 . S
H72 C67 0.930 . S
H73 C68 0.930 . S
C74 O75 1.224 . S
C74 O93 1.247 . S
O75 C74 1.224 . S
N76 Co66 2.128 . S
N76 C77 1.355 . S
N76 C79 1.311 . S
C77 N76 1.355 . S
C77 C78 1.363 . S
C77 H89 0.929 . S
C78 C77 1.363 . S
C78 N80 1.375 . S
C78 H96 0.931 . S
C79 N76 1.311 . S
C79 N80 1.347 . S
C79 H90 0.929 . S
N80 C78 1.375 . S
N80 C79 1.347 . S
C81 C84 1.365 . S
C81 N86 1.328 . S
C81 H87 0.929 . S
C82 C83 1.362 . S
C82 C85 1.378 . S
C82 H97 0.929 . S
C83 C82 1.362 . S
C83 C84 1.366 . S
C84 C81 1.365 . S
C84 C83 1.366 . S
C84 H98 0.930 . S
C85 C82 1.378 . S
C85 N86 1.315 . S
C85 H88 0.930 . S
N86 Co66 2.194 . S
N86 C81 1.328 . S
N86 C85 1.315 . S
H87 C81 0.929 . S
H88 C85 0.930 . S
H89 C77 0.929 . S
H90 C79 0.929 . S
O91 Co66 2.351 . S
O91 C94 1.244 . S
O92 Co66 2.155 . S
O92 C94 1.240 . S
O93 Co66 2.096 . S
O93 C74 1.247 . S
C94 O91 1.244 . S
C94 O92 1.240 . S
H95 C69 0.931 . S
H96 C78 0.931 . S
H97 C82 0.929 . S
H98 C84 0.930 . S
Co99 N103 2.148 . S
Co99 N109 2.128 . S
Co99 N119 2.194 . S
Co99 O124 2.351 . S
Co99 O125 2.155 . S
Co99 O126 2.096 . S
C100 N103 1.301 . S
C100 N104 1.328 . S
C100 H105 0.930 . S
C101 C102 1.333 . S
C101 N103 1.317 . S
C101 H106 0.930 . S
C102 C101 1.333 . S
C102 N104 1.350 . S
C102 H128 0.931 . S
N103 Co99 2.148 . S
N103 C100 1.301 . S
N103 C101 1.317 . S
N104 C100 1.328 . S
N104 C102 1.350 . S
H105 C100 0.930 . S
H106 C101 0.930 . S
C107 O108 1.224 . S
C107 O126 1.247 . S
O108 C107 1.224 . S
N109 Co99 2.128 . S
N109 C110 1.355 . S
N109 C112 1.311 . S
C110 N109 1.355 . S
C110 C111 1.363 . S
C110 H122 0.929 . S
C111 C110 1.363 . S
C111 N113 1.375 . S
C111 H129 0.931 . S
C112 N109 1.311 . S
C112 N113 1.347 . S
C112 H123 0.929 . S
N113 C111 1.375 . S
N113 C112 1.347 . S
C114 C117 1.365 . S
C114 N119 1.328 . S
C114 H120 0.929 . S
C115 C116 1.362 . S
C115 C118 1.378 . S
C115 H130 0.929 . S
C116 C115 1.362 . S
C116 C117 1.366 . S
C117 C114 1.365 . S
C117 C116 1.366 . S
C117 H131 0.930 . S
C118 C115 1.378 . S
C118 N119 1.315 . S
C118 H121 0.930 . S
N119 Co99 2.194 . S
N119 C114 1.328 . S
N119 C118 1.315 . S
H120 C114 0.929 . S
H121 C118 0.930 . S
H122 C110 0.929 . S
H123 C112 0.929 . S
O124 Co99 2.351 . S
O124 C127 1.244 . S
O125 Co99 2.155 . S
O125 C127 1.240 . S
O126 Co99 2.096 . S
O126 C107 1.247 . S
C127 O124 1.244 . S
C127 O125 1.240 . S
H128 C102 0.931 . S
H129 C111 0.931 . S
H130 C115 0.929 . S
H131 C117 0.930 . S
Co132 N136 2.148 . S
Co132 N142 2.128 . S
Co132 N152 2.194 . S
Co132 O157 2.351 . S
Co132 O158 2.155 . S
Co132 O159 2.096 . S
C133 N136 1.301 . S
C133 N137 1.328 . S
C133 H138 0.930 . S
C134 C135 1.333 . S
C134 N136 1.317 . S
C134 H139 0.930 . S
C135 C134 1.333 . S
C135 N137 1.350 . S
C135 H161 0.931 . S
N136 Co132 2.148 . S
N136 C133 1.301 . S
N136 C134 1.317 . S
N137 C133 1.328 . S
N137 C135 1.350 . S
H138 C133 0.930 . S
H139 C134 0.930 . S
C140 O141 1.224 . S
C140 O159 1.247 . S
O141 C140 1.224 . S
N142 Co132 2.128 . S
N142 C143 1.355 . S
N142 C145 1.311 . S
C143 N142 1.355 . S
C143 C144 1.363 . S
C143 H155 0.929 . S
C144 C143 1.363 . S
C144 N146 1.375 . S
C144 H162 0.931 . S
C145 N142 1.311 . S
C145 N146 1.347 . S
C145 H156 0.929 . S
N146 C144 1.375 . S
N146 C145 1.347 . S
C147 C150 1.365 . S
C147 N152 1.328 . S
C147 H153 0.929 . S
C148 C149 1.362 . S
C148 C151 1.378 . S
C148 H163 0.929 . S
C149 C148 1.362 . S
C149 C150 1.366 . S
C150 C147 1.365 . S
C150 C149 1.366 . S
C150 H164 0.930 . S
C151 C148 1.378 . S
C151 N152 1.315 . S
C151 H154 0.930 . S
N152 Co132 2.194 . S
N152 C147 1.328 . S
N152 C151 1.315 . S
H153 C147 0.929 . S
H154 C151 0.930 . S
H155 C143 0.929 . S
H156 C145 0.929 . S
O157 Co132 2.351 . S
O157 C160 1.244 . S
O158 Co132 2.155 . S
O158 C160 1.240 . S
O159 Co132 2.096 . S
O159 C140 1.247 . S
C160 O157 1.244 . S
C160 O158 1.240 . S
H161 C135 0.931 . S
H162 C144 0.931 . S
H163 C148 0.929 . S
H164 C150 0.930 . S
Co165 N169 2.148 . S
Co165 N175 2.128 . S
Co165 N185 2.194 . S
Co165 O190 2.351 . S
Co165 O191 2.155 . S
Co165 O192 2.096 . S
C166 N169 1.301 . S
C166 N170 1.328 . S
C166 H171 0.930 . S
C167 C168 1.333 . S
C167 N169 1.317 . S
C167 H172 0.930 . S
C168 C167 1.333 . S
C168 N170 1.350 . S
C168 H194 0.931 . S
N169 Co165 2.148 . S
N169 C166 1.301 . S
N169 C167 1.317 . S
N170 C166 1.328 . S
N170 C168 1.350 . S
H171 C166 0.930 . S
H172 C167 0.930 . S
C173 O174 1.224 . S
C173 O192 1.247 . S
O174 C173 1.224 . S
N175 Co165 2.128 . S
N175 C176 1.355 . S
N175 C178 1.311 . S
C176 N175 1.355 . S
C176 C177 1.363 . S
C176 H188 0.929 . S
C177 C176 1.363 . S
C177 N179 1.375 . S
C177 H195 0.931 . S
C178 N175 1.311 . S
C178 N179 1.347 . S
C178 H189 0.929 . S
N179 C177 1.375 . S
N179 C178 1.347 . S
C180 C183 1.365 . S
C180 N185 1.328 . S
C180 H186 0.929 . S
C181 C182 1.362 . S
C181 C184 1.378 . S
C181 H196 0.929 . S
C182 C181 1.362 . S
C182 C183 1.366 . S
C183 C180 1.365 . S
C183 C182 1.366 . S
C183 H197 0.930 . S
C184 C181 1.378 . S
C184 N185 1.315 . S
C184 H187 0.930 . S
N185 Co165 2.194 . S
N185 C180 1.328 . S
N185 C184 1.315 . S
H186 C180 0.929 . S
H187 C184 0.930 . S
H188 C176 0.929 . S
H189 C178 0.929 . S
O190 Co165 2.351 . S
O190 C193 1.244 . S
O191 Co165 2.155 . S
O191 C193 1.240 . S
O192 Co165 2.096 . S
O192 C173 1.247 . S
C193 O190 1.244 . S
C193 O191 1.240 . S
H194 C168 0.931 . S
H195 C177 0.931 . S
H196 C181 0.929 . S
H197 C183 0.930 . S
Co198 N202 2.148 . S
Co198 N208 2.128 . S
Co198 N218 2.194 . S
Co198 O223 2.351 . S
Co198 O224 2.155 . S
Co198 O225 2.096 . S
C199 N202 1.301 . S
C199 N203 1.328 . S
C199 H204 0.930 . S
C200 C201 1.333 . S
C200 N202 1.317 . S
C200 H205 0.930 . S
C201 C200 1.333 . S
C201 N203 1.350 . S
C201 H227 0.931 . S
N202 Co198 2.148 . S
N202 C199 1.301 . S
N202 C200 1.317 . S
N203 C199 1.328 . S
N203 C201 1.350 . S
H204 C199 0.930 . S
H205 C200 0.930 . S
C206 O207 1.224 . S
C206 O225 1.247 . S
O207 C206 1.224 . S
N208 Co198 2.128 . S
N208 C209 1.355 . S
N208 C211 1.311 . S
C209 N208 1.355 . S
C209 C210 1.363 . S
C209 H221 0.929 . S
C210 C209 1.363 . S
C210 N212 1.375 . S
C210 H228 0.931 . S
C211 N208 1.311 . S
C211 N212 1.347 . S
C211 H222 0.929 . S
N212 C210 1.375 . S
N212 C211 1.347 . S
C213 C216 1.365 . S
C213 N218 1.328 . S
C213 H219 0.929 . S
C214 C215 1.362 . S
C214 C217 1.378 . S
C214 H229 0.929 . S
C215 C214 1.362 . S
C215 C216 1.366 . S
C216 C213 1.365 . S
C216 C215 1.366 . S
C216 H230 0.930 . S
C217 C214 1.378 . S
C217 N218 1.315 . S
C217 H220 0.930 . S
N218 Co198 2.194 . S
N218 C213 1.328 . S
N218 C217 1.315 . S
H219 C213 0.929 . S
H220 C217 0.930 . S
H221 C209 0.929 . S
H222 C211 0.929 . S
O223 Co198 2.351 . S
O223 C226 1.244 . S
O224 Co198 2.155 . S
O224 C226 1.240 . S
O225 Co198 2.096 . S
O225 C206 1.247 . S
C226 O223 1.244 . S
C226 O224 1.240 . S
H227 C201 0.931 . S
H228 C210 0.931 . S
H229 C214 0.929 . S
H230 C216 0.930 . S
Co231 N235 2.148 . S
Co231 N241 2.128 . S
Co231 N251 2.194 . S
Co231 O256 2.351 . S
Co231 O257 2.155 . S
Co231 O258 2.096 . S
C232 N235 1.301 . S
C232 N236 1.328 . S
C232 H237 0.930 . S
C233 C234 1.333 . S
C233 N235 1.317 . S
C233 H238 0.930 . S
C234 C233 1.333 . S
C234 N236 1.350 . S
C234 H260 0.931 . S
N235 Co231 2.148 . S
N235 C232 1.301 . S
N235 C233 1.317 . S
N236 C232 1.328 . S
N236 C234 1.350 . S
H237 C232 0.930 . S
H238 C233 0.930 . S
C239 O240 1.224 . S
C239 O258 1.247 . S
O240 C239 1.224 . S
N241 Co231 2.128 . S
N241 C242 1.355 . S
N241 C244 1.311 . S
C242 N241 1.355 . S
C242 C243 1.363 . S
C242 H254 0.929 . S
C243 C242 1.363 . S
C243 N245 1.375 . S
C243 H261 0.931 . S
C244 N241 1.311 . S
C244 N245 1.347 . S
C244 H255 0.929 . S
N245 C243 1.375 . S
N245 C244 1.347 . S
C246 C249 1.365 . S
C246 N251 1.328 . S
C246 H252 0.929 . S
C247 C248 1.362 . S
C247 C250 1.378 . S
C247 H262 0.929 . S
C248 C247 1.362 . S
C248 C249 1.366 . S
C249 C246 1.365 . S
C249 C248 1.366 . S
C249 H263 0.930 . S
C250 C247 1.378 . S
C250 N251 1.315 . S
C250 H253 0.930 . S
N251 Co231 2.194 . S
N251 C246 1.328 . S
N251 C250 1.315 . S
H252 C246 0.929 . S
H253 C250 0.930 . S
H254 C242 0.929 . S
H255 C244 0.929 . S
O256 Co231 2.351 . S
O256 C259 1.244 . S
O257 Co231 2.155 . S
O257 C259 1.240 . S
O258 Co231 2.096 . S
O258 C239 1.247 . S
C259 O256 1.244 . S
C259 O257 1.240 . S
H260 C234 0.931 . S
H261 C243 0.931 . S
H262 C247 0.929 . S
H263 C249 0.930 . S
Co264 N268 2.148 . S
Co264 N274 2.128 . S
Co264 N284 2.194 . S
Co264 O289 2.351 . S
Co264 O290 2.155 . S
Co264 O291 2.096 . S
C265 N268 1.301 . S
C265 N269 1.328 . S
C265 H270 0.930 . S
C266 C267 1.333 . S
C266 N268 1.317 . S
C266 H271 0.930 . S
C267 C266 1.333 . S
C267 N269 1.350 . S
C267 H293 0.931 . S
N268 Co264 2.148 . S
N268 C265 1.301 . S
N268 C266 1.317 . S
N269 C265 1.328 . S
N269 C267 1.350 . S
H270 C265 0.930 . S
H271 C266 0.930 . S
C272 O273 1.224 . S
C272 O291 1.247 . S
O273 C272 1.224 . S
N274 Co264 2.128 . S
N274 C275 1.355 . S
N274 C277 1.311 . S
C275 N274 1.355 . S
C275 C276 1.363 . S
C275 H287 0.929 . S
C276 C275 1.363 . S
C276 N278 1.375 . S
C276 H294 0.931 . S
C277 N274 1.311 . S
C277 N278 1.347 . S
C277 H288 0.929 . S
N278 C276 1.375 . S
N278 C277 1.347 . S
C279 C282 1.365 . S
C279 N284 1.328 . S
C279 H285 0.929 . S
C280 C281 1.362 . S
C280 C283 1.378 . S
C280 H295 0.929 . S
C281 C280 1.362 . S
C281 C282 1.366 . S
C282 C279 1.365 . S
C282 C281 1.366 . S
C282 H296 0.930 . S
C283 C280 1.378 . S
C283 N284 1.315 . S
C283 H286 0.930 . S
N284 Co264 2.194 . S
N284 C279 1.328 . S
N284 C283 1.315 . S
H285 C279 0.929 . S
H286 C283 0.930 . S
H287 C275 0.929 . S
H288 C277 0.929 . S
O289 Co264 2.351 . S
O289 C292 1.244 . S
O290 Co264 2.155 . S
O290 C292 1.240 . S
O291 Co264 2.096 . S
O291 C272 1.247 . S
C292 O289 1.244 . S
C292 O290 1.240 . S
H293 C267 0.931 . S
H294 C276 0.931 . S
H295 C280 0.929 . S
H296 C282 0.930 . S
Co297 N301 2.148 . S
Co297 N307 2.128 . S
Co297 N317 2.194 . S
Co297 O322 2.351 . S
Co297 O323 2.155 . S
Co297 O324 2.096 . S
C298 N301 1.301 . S
C298 N302 1.328 . S
C298 H303 0.930 . S
C299 C300 1.333 . S
C299 N301 1.317 . S
C299 H304 0.930 . S
C300 C299 1.333 . S
C300 N302 1.350 . S
C300 H326 0.931 . S
N301 Co297 2.148 . S
N301 C298 1.301 . S
N301 C299 1.317 . S
N302 C298 1.328 . S
N302 C300 1.350 . S
H303 C298 0.930 . S
H304 C299 0.930 . S
C305 O306 1.224 . S
C305 O324 1.247 . S
O306 C305 1.224 . S
N307 Co297 2.128 . S
N307 C308 1.355 . S
N307 C310 1.311 . S
C308 N307 1.355 . S
C308 C309 1.363 . S
C308 H320 0.929 . S
C309 C308 1.363 . S
C309 N311 1.375 . S
C309 H327 0.931 . S
C310 N307 1.311 . S
C310 N311 1.347 . S
C310 H321 0.929 . S
N311 C309 1.375 . S
N311 C310 1.347 . S
C312 C315 1.365 . S
C312 N317 1.328 . S
C312 H318 0.929 . S
C313 C314 1.362 . S
C313 C316 1.378 . S
C313 H328 0.929 . S
C314 C313 1.362 . S
C314 C315 1.366 . S
C315 C312 1.365 . S
C315 C314 1.366 . S
C315 H329 0.930 . S
C316 C313 1.378 . S
C316 N317 1.315 . S
C316 H319 0.930 . S
N317 Co297 2.194 . S
N317 C312 1.328 . S
N317 C316 1.315 . S
H318 C312 0.929 . S
H319 C316 0.930 . S
H320 C308 0.929 . S
H321 C310 0.929 . S
O322 Co297 2.351 . S
O322 C325 1.244 . S
O323 Co297 2.155 . S
O323 C325 1.240 . S
O324 Co297 2.096 . S
O324 C305 1.247 . S
C325 O322 1.244 . S
C325 O323 1.240 . S
H326 C300 0.931 . S
H327 C309 0.931 . S
H328 C313 0.929 . S
H329 C315 0.930 . S
Co330 N334 2.148 . S
Co330 N340 2.128 . S
Co330 N350 2.194 . S
Co330 O355 2.351 . S
Co330 O356 2.155 . S
Co330 O357 2.096 . S
C331 N334 1.301 . S
C331 N335 1.328 . S
C331 H336 0.930 . S
C332 C333 1.333 . S
C332 N334 1.317 . S
C332 H337 0.930 . S
C333 C332 1.333 . S
C333 N335 1.350 . S
C333 H359 0.931 . S
N334 Co330 2.148 . S
N334 C331 1.301 . S
N334 C332 1.317 . S
N335 C331 1.328 . S
N335 C333 1.350 . S
H336 C331 0.930 . S
H337 C332 0.930 . S
C338 O339 1.224 . S
C338 O357 1.247 . S
O339 C338 1.224 . S
N340 Co330 2.128 . S
N340 C341 1.355 . S
N340 C343 1.311 . S
C341 N340 1.355 . S
C341 C342 1.363 . S
C341 H353 0.929 . S
C342 C341 1.363 . S
C342 N344 1.375 . S
C342 H360 0.931 . S
C343 N340 1.311 . S
C343 N344 1.347 . S
C343 H354 0.929 . S
N344 C342 1.375 . S
N344 C343 1.347 . S
C345 C348 1.365 . S
C345 N350 1.328 . S
C345 H351 0.929 . S
C346 C347 1.362 . S
C346 C349 1.378 . S
C346 H361 0.929 . S
C347 C346 1.362 . S
C347 C348 1.366 . S
C348 C345 1.365 . S
C348 C347 1.366 . S
C348 H362 0.930 . S
C349 C346 1.378 . S
C349 N350 1.315 . S
C349 H352 0.930 . S
N350 Co330 2.194 . S
N350 C345 1.328 . S
N350 C349 1.315 . S
H351 C345 0.929 . S
H352 C349 0.930 . S
H353 C341 0.929 . S
H354 C343 0.929 . S
O355 Co330 2.351 . S
O355 C358 1.244 . S
O356 Co330 2.155 . S
O356 C358 1.240 . S
O357 Co330 2.096 . S
O357 C338 1.247 . S
C358 O355 1.244 . S
C358 O356 1.240 . S
H359 C333 0.931 . S
H360 C342 0.931 . S
H361 C346 0.929 . S
H362 C348 0.930 . S
Co363 N367 2.148 . S
Co363 N373 2.128 . S
Co363 N383 2.194 . S
Co363 O388 2.351 . S
Co363 O389 2.155 . S
Co363 O390 2.096 . S
C364 N367 1.301 . S
C364 N368 1.328 . S
C364 H369 0.930 . S
C365 C366 1.333 . S
C365 N367 1.317 . S
C365 H370 0.930 . S
C366 C365 1.333 . S
C366 N368 1.350 . S
C366 H392 0.931 . S
N367 Co363 2.148 . S
N367 C364 1.301 . S
N367 C365 1.317 . S
N368 C364 1.328 . S
N368 C366 1.350 . S
H369 C364 0.930 . S
H370 C365 0.930 . S
C371 O372 1.224 . S
C371 O390 1.247 . S
O372 C371 1.224 . S
N373 Co363 2.128 . S
N373 C374 1.355 . S
N373 C376 1.311 . S
C374 N373 1.355 . S
C374 C375 1.363 . S
C374 H386 0.929 . S
C375 C374 1.363 . S
C375 N377 1.375 . S
C375 H393 0.931 . S
C376 N373 1.311 . S
C376 N377 1.347 . S
C376 H387 0.929 . S
N377 C375 1.375 . S
N377 C376 1.347 . S
C378 C381 1.365 . S
C378 N383 1.328 . S
C378 H384 0.929 . S
C379 C380 1.362 . S
C379 C382 1.378 . S
C379 H394 0.929 . S
C380 C379 1.362 . S
C380 C381 1.366 . S
C381 C378 1.365 . S
C381 C380 1.366 . S
C381 H395 0.930 . S
C382 C379 1.378 . S
C382 N383 1.315 . S
C382 H385 0.930 . S
N383 Co363 2.194 . S
N383 C378 1.328 . S
N383 C382 1.315 . S
H384 C378 0.929 . S
H385 C382 0.930 . S
H386 C374 0.929 . S
H387 C376 0.929 . S
O388 Co363 2.351 . S
O388 C391 1.244 . S
O389 Co363 2.155 . S
O389 C391 1.240 . S
O390 Co363 2.096 . S
O390 C371 1.247 . S
C391 O388 1.244 . S
C391 O389 1.240 . S
H392 C366 0.931 . S
H393 C375 0.931 . S
H394 C379 0.929 . S
H395 C381 0.930 . S
Co396 N400 2.148 . S
Co396 N406 2.128 . S
Co396 N416 2.194 . S
Co396 O421 2.351 . S
Co396 O422 2.155 . S
Co396 O423 2.096 . S
C397 N400 1.301 . S
C397 N401 1.328 . S
C397 H402 0.930 . S
C398 C399 1.333 . S
C398 N400 1.317 . S
C398 H403 0.930 . S
C399 C398 1.333 . S
C399 N401 1.350 . S
C399 H425 0.931 . S
N400 Co396 2.148 . S
N400 C397 1.301 . S
N400 C398 1.317 . S
N401 C397 1.328 . S
N401 C399 1.350 . S
H402 C397 0.930 . S
H403 C398 0.930 . S
C404 O405 1.224 . S
C404 O423 1.247 . S
O405 C404 1.224 . S
N406 Co396 2.128 . S
N406 C407 1.355 . S
N406 C409 1.311 . S
C407 N406 1.355 . S
C407 C408 1.363 . S
C407 H419 0.929 . S
C408 C407 1.363 . S
C408 N410 1.375 . S
C408 H426 0.931 . S
C409 N406 1.311 . S
C409 N410 1.347 . S
C409 H420 0.929 . S
N410 C408 1.375 . S
N410 C409 1.347 . S
C411 C414 1.365 . S
C411 N416 1.328 . S
C411 H417 0.929 . S
C412 C413 1.362 . S
C412 C415 1.378 . S
C412 H427 0.929 . S
C413 C412 1.362 . S
C413 C414 1.366 . S
C414 C411 1.365 . S
C414 C413 1.366 . S
C414 H428 0.930 . S
C415 C412 1.378 . S
C415 N416 1.315 . S
C415 H418 0.930 . S
N416 Co396 2.194 . S
N416 C411 1.328 . S
N416 C415 1.315 . S
H417 C411 0.929 . S
H418 C415 0.930 . S
H419 C407 0.929 . S
H420 C409 0.929 . S
O421 Co396 2.351 . S
O421 C424 1.244 . S
O422 Co396 2.155 . S
O422 C424 1.240 . S
O423 Co396 2.096 . S
O423 C404 1.247 . S
C424 O421 1.244 . S
C424 O422 1.240 . S
H425 C399 0.931 . S
H426 C408 0.931 . S
H427 C412 0.929 . S
H428 C414 0.930 . S
Co429 N433 2.148 . S
Co429 N439 2.128 . S
Co429 N449 2.194 . S
Co429 O454 2.351 . S
Co429 O455 2.155 . S
Co429 O456 2.096 . S
C430 N433 1.301 . S
C430 N434 1.328 . S
C430 H435 0.930 . S
C431 C432 1.333 . S
C431 N433 1.317 . S
C431 H436 0.930 . S
C432 C431 1.333 . S
C432 N434 1.350 . S
C432 H458 0.931 . S
N433 Co429 2.148 . S
N433 C430 1.301 . S
N433 C431 1.317 . S
N434 C430 1.328 . S
N434 C432 1.350 . S
H435 C430 0.930 . S
H436 C431 0.930 . S
C437 O438 1.224 . S
C437 O456 1.247 . S
O438 C437 1.224 . S
N439 Co429 2.128 . S
N439 C440 1.355 . S
N439 C442 1.311 . S
C440 N439 1.355 . S
C440 C441 1.363 . S
C440 H452 0.929 . S
C441 C440 1.363 . S
C441 N443 1.375 . S
C441 H459 0.931 . S
C442 N439 1.311 . S
C442 N443 1.347 . S
C442 H453 0.929 . S
N443 C441 1.375 . S
N443 C442 1.347 . S
C444 C447 1.365 . S
C444 N449 1.328 . S
C444 H450 0.929 . S
C445 C446 1.362 . S
C445 C448 1.378 . S
C445 H460 0.929 . S
C446 C445 1.362 . S
C446 C447 1.366 . S
C447 C444 1.365 . S
C447 C446 1.366 . S
C447 H461 0.930 . S
C448 C445 1.378 . S
C448 N449 1.315 . S
C448 H451 0.930 . S
N449 Co429 2.194 . S
N449 C444 1.328 . S
N449 C448 1.315 . S
H450 C444 0.929 . S
H451 C448 0.930 . S
H452 C440 0.929 . S
H453 C442 0.929 . S
O454 Co429 2.351 . S
O454 C457 1.244 . S
O455 Co429 2.155 . S
O455 C457 1.240 . S
O456 Co429 2.096 . S
O456 C437 1.247 . S
C457 O454 1.244 . S
C457 O455 1.240 . S
H458 C432 0.931 . S
H459 C441 0.931 . S
H460 C445 0.929 . S
H461 C447 0.930 . S
Co462 N466 2.148 . S
Co462 N472 2.128 . S
Co462 N482 2.194 . S
Co462 O487 2.351 . S
Co462 O488 2.155 . S
Co462 O489 2.096 . S
C463 N466 1.301 . S
C463 N467 1.328 . S
C463 H468 0.930 . S
C464 C465 1.333 . S
C464 N466 1.317 . S
C464 H469 0.930 . S
C465 C464 1.333 . S
C465 N467 1.350 . S
C465 H491 0.931 . S
N466 Co462 2.148 . S
N466 C463 1.301 . S
N466 C464 1.317 . S
N467 C463 1.328 . S
N467 C465 1.350 . S
H468 C463 0.930 . S
H469 C464 0.930 . S
C470 O471 1.224 . S
C470 O489 1.247 . S
O471 C470 1.224 . S
N472 Co462 2.128 . S
N472 C473 1.355 . S
N472 C475 1.311 . S
C473 N472 1.355 . S
C473 C474 1.363 . S
C473 H485 0.929 . S
C474 C473 1.363 . S
C474 N476 1.375 . S
C474 H492 0.931 . S
C475 N472 1.311 . S
C475 N476 1.347 . S
C475 H486 0.929 . S
N476 C474 1.375 . S
N476 C475 1.347 . S
C477 C480 1.365 . S
C477 N482 1.328 . S
C477 H483 0.929 . S
C478 C479 1.362 . S
C478 C481 1.378 . S
C478 H493 0.929 . S
C479 C478 1.362 . S
C479 C480 1.366 . S
C480 C477 1.365 . S
C480 C479 1.366 . S
C480 H494 0.930 . S
C481 C478 1.378 . S
C481 N482 1.315 . S
C481 H484 0.930 . S
N482 Co462 2.194 . S
N482 C477 1.328 . S
N482 C481 1.315 . S
H483 C477 0.929 . S
H484 C481 0.930 . S
H485 C473 0.929 . S
H486 C475 0.929 . S
O487 Co462 2.351 . S
O487 C490 1.244 . S
O488 Co462 2.155 . S
O488 C490 1.240 . S
O489 Co462 2.096 . S
O489 C470 1.247 . S
C490 O487 1.244 . S
C490 O488 1.240 . S
H491 C465 0.931 . S
H492 C474 0.931 . S
H493 C478 0.929 . S
H494 C480 0.930 . S
Co495 N499 2.148 . S
Co495 N505 2.128 . S
Co495 N515 2.194 . S
Co495 O520 2.351 . S
Co495 O521 2.155 . S
Co495 O522 2.096 . S
C496 N499 1.301 . S
C496 N500 1.328 . S
C496 H501 0.930 . S
C497 C498 1.333 . S
C497 N499 1.317 . S
C497 H502 0.930 . S
C498 C497 1.333 . S
C498 N500 1.350 . S
C498 H524 0.931 . S
N499 Co495 2.148 . S
N499 C496 1.301 . S
N499 C497 1.317 . S
N500 C496 1.328 . S
N500 C498 1.350 . S
H501 C496 0.930 . S
H502 C497 0.930 . S
C503 O504 1.224 . S
C503 O522 1.247 . S
O504 C503 1.224 . S
N505 Co495 2.128 . S
N505 C506 1.355 . S
N505 C508 1.311 . S
C506 N505 1.355 . S
C506 C507 1.363 . S
C506 H518 0.929 . S
C507 C506 1.363 . S
C507 N509 1.375 . S
C507 H525 0.931 . S
C508 N505 1.311 . S
C508 N509 1.347 . S
C508 H519 0.929 . S
N509 C507 1.375 . S
N509 C508 1.347 . S
C510 C513 1.365 . S
C510 N515 1.328 . S
C510 H516 0.929 . S
C511 C512 1.362 . S
C511 C514 1.378 . S
C511 H526 0.929 . S
C512 C511 1.362 . S
C512 C513 1.366 . S
C513 C510 1.365 . S
C513 C512 1.366 . S
C513 H527 0.930 . S
C514 C511 1.378 . S
C514 N515 1.315 . S
C514 H517 0.930 . S
N515 Co495 2.194 . S
N515 C510 1.328 . S
N515 C514 1.315 . S
H516 C510 0.929 . S
H517 C514 0.930 . S
H518 C506 0.929 . S
H519 C508 0.929 . S
O520 Co495 2.351 . S
O520 C523 1.244 . S
O521 Co495 2.155 . S
O521 C523 1.240 . S
O522 Co495 2.096 . S
O522 C503 1.247 . S
C523 O520 1.244 . S
C523 O521 1.240 . S
H524 C498 0.931 . S
H525 C507 0.931 . S
H526 C511 0.929 . S
H527 C513 0.930 . S
Co528 N532 2.148 . S
Co528 N538 2.128 . S
Co528 N548 2.194 . S
Co528 O553 2.351 . S
Co528 O554 2.155 . S
Co528 O555 2.096 . S
C529 N532 1.301 . S
C529 N533 1.328 . S
C529 H534 0.930 . S
C530 C531 1.333 . S
C530 N532 1.317 . S
C530 H535 0.930 . S
C531 C530 1.333 . S
C531 N533 1.350 . S
C531 H557 0.931 . S
N532 Co528 2.148 . S
N532 C529 1.301 . S
N532 C530 1.317 . S
N533 C529 1.328 . S
N533 C531 1.350 . S
H534 C529 0.930 . S
H535 C530 0.930 . S
C536 O537 1.224 . S
C536 O555 1.247 . S
O537 C536 1.224 . S
N538 Co528 2.128 . S
N538 C539 1.355 . S
N538 C541 1.311 . S
C539 N538 1.355 . S
C539 C540 1.363 . S
C539 H551 0.929 . S
C540 C539 1.363 . S
C540 N542 1.375 . S
C540 H558 0.931 . S
C541 N538 1.311 . S
C541 N542 1.347 . S
C541 H552 0.929 . S
N542 C540 1.375 . S
N542 C541 1.347 . S
C543 C546 1.365 . S
C543 N548 1.328 . S
C543 H549 0.929 . S
C544 C545 1.362 . S
C544 C547 1.378 . S
C544 H559 0.929 . S
C545 C544 1.362 . S
C545 C546 1.366 . S
C546 C543 1.365 . S
C546 C545 1.366 . S
C546 H560 0.930 . S
C547 C544 1.378 . S
C547 N548 1.315 . S
C547 H550 0.930 . S
N548 Co528 2.194 . S
N548 C543 1.328 . S
N548 C547 1.315 . S
H549 C543 0.929 . S
H550 C547 0.930 . S
H551 C539 0.929 . S
H552 C541 0.929 . S
O553 Co528 2.351 . S
O553 C556 1.244 . S
O554 Co528 2.155 . S
O554 C556 1.240 . S
O555 Co528 2.096 . S
O555 C536 1.247 . S
C556 O553 1.244 . S
C556 O554 1.240 . S
H557 C531 0.931 . S
H558 C540 0.931 . S
H559 C544 0.929 . S
H560 C546 0.930 . S
Co561 N565 2.148 . S
Co561 N571 2.128 . S
Co561 N581 2.194 . S
Co561 O586 2.351 . S
Co561 O587 2.155 . S
Co561 O588 2.096 . S
C562 N565 1.301 . S
C562 N566 1.328 . S
C562 H567 0.930 . S
C563 C564 1.333 . S
C563 N565 1.317 . S
C563 H568 0.930 . S
C564 C563 1.333 . S
C564 N566 1.350 . S
C564 H590 0.931 . S
N565 Co561 2.148 . S
N565 C562 1.301 . S
N565 C563 1.317 . S
N566 C562 1.328 . S
N566 C564 1.350 . S
H567 C562 0.930 . S
H568 C563 0.930 . S
C569 O570 1.224 . S
C569 O588 1.247 . S
O570 C569 1.224 . S
N571 Co561 2.128 . S
N571 C572 1.355 . S
N571 C574 1.311 . S
C572 N571 1.355 . S
C572 C573 1.363 . S
C572 H584 0.929 . S
C573 C572 1.363 . S
C573 N575 1.375 . S
C573 H591 0.931 . S
C574 N571 1.311 . S
C574 N575 1.347 . S
C574 H585 0.929 . S
N575 C573 1.375 . S
N575 C574 1.347 . S
C576 C579 1.365 . S
C576 N581 1.328 . S
C576 H582 0.929 . S
C577 C578 1.362 . S
C577 C580 1.378 . S
C577 H592 0.929 . S
C578 C577 1.362 . S
C578 C579 1.366 . S
C579 C576 1.365 . S
C579 C578 1.366 . S
C579 H593 0.930 . S
C580 C577 1.378 . S
C580 N581 1.315 . S
C580 H583 0.930 . S
N581 Co561 2.194 . S
N581 C576 1.328 . S
N581 C580 1.315 . S
H582 C576 0.929 . S
H583 C580 0.930 . S
H584 C572 0.929 . S
H585 C574 0.929 . S
O586 Co561 2.351 . S
O586 C589 1.244 . S
O587 Co561 2.155 . S
O587 C589 1.240 . S
O588 Co561 2.096 . S
O588 C569 1.247 . S
C589 O586 1.244 . S
C589 O587 1.240 . S
H590 C564 0.931 . S
H591 C573 0.931 . S
H592 C577 0.929 . S
H593 C579 0.930 . S
Co594 N598 2.148 . S
Co594 N604 2.128 . S
Co594 N614 2.194 . S
Co594 O619 2.351 . S
Co594 O620 2.155 . S
Co594 O621 2.096 . S
C595 N598 1.301 . S
C595 N599 1.328 . S
C595 H600 0.930 . S
C596 C597 1.333 . S
C596 N598 1.317 . S
C596 H601 0.930 . S
C597 C596 1.333 . S
C597 N599 1.350 . S
C597 H623 0.931 . S
N598 Co594 2.148 . S
N598 C595 1.301 . S
N598 C596 1.317 . S
N599 C595 1.328 . S
N599 C597 1.350 . S
H600 C595 0.930 . S
H601 C596 0.930 . S
C602 O603 1.224 . S
C602 O621 1.247 . S
O603 C602 1.224 . S
N604 Co594 2.128 . S
N604 C605 1.355 . S
N604 C607 1.311 . S
C605 N604 1.355 . S
C605 C606 1.363 . S
C605 H617 0.929 . S
C606 C605 1.363 . S
C606 N608 1.375 . S
C606 H624 0.931 . S
C607 N604 1.311 . S
C607 N608 1.347 . S
C607 H618 0.929 . S
N608 C606 1.375 . S
N608 C607 1.347 . S
C609 C612 1.365 . S
C609 N614 1.328 . S
C609 H615 0.929 . S
C610 C611 1.362 . S
C610 C613 1.378 . S
C610 H625 0.929 . S
C611 C610 1.362 . S
C611 C612 1.366 . S
C612 C609 1.365 . S
C612 C611 1.366 . S
C612 H626 0.930 . S
C613 C610 1.378 . S
C613 N614 1.315 . S
C613 H616 0.930 . S
N614 Co594 2.194 . S
N614 C609 1.328 . S
N614 C613 1.315 . S
H615 C609 0.929 . S
H616 C613 0.930 . S
H617 C605 0.929 . S
H618 C607 0.929 . S
O619 Co594 2.351 . S
O619 C622 1.244 . S
O620 Co594 2.155 . S
O620 C622 1.240 . S
O621 Co594 2.096 . S
O621 C602 1.247 . S
C622 O619 1.244 . S
C622 O620 1.240 . S
H623 C597 0.931 . S
H624 C606 0.931 . S
H625 C610 0.929 . S
H626 C612 0.930 . S
Co627 N631 2.148 . S
Co627 N637 2.128 . S
Co627 N647 2.194 . S
Co627 O652 2.351 . S
Co627 O653 2.155 . S
Co627 O654 2.096 . S
C628 N631 1.301 . S
C628 N632 1.328 . S
C628 H633 0.930 . S
C629 C630 1.333 . S
C629 N631 1.317 . S
C629 H634 0.930 . S
C630 C629 1.333 . S
C630 N632 1.350 . S
C630 H656 0.931 . S
N631 Co627 2.148 . S
N631 C628 1.301 . S
N631 C629 1.317 . S
N632 C628 1.328 . S
N632 C630 1.350 . S
H633 C628 0.930 . S
H634 C629 0.930 . S
C635 O636 1.224 . S
C635 O654 1.247 . S
O636 C635 1.224 . S
N637 Co627 2.128 . S
N637 C638 1.355 . S
N637 C640 1.311 . S
C638 N637 1.355 . S
C638 C639 1.363 . S
C638 H650 0.929 . S
C639 C638 1.363 . S
C639 N641 1.375 . S
C639 H657 0.931 . S
C640 N637 1.311 . S
C640 N641 1.347 . S
C640 H651 0.929 . S
N641 C639 1.375 . S
N641 C640 1.347 . S
C642 C645 1.365 . S
C642 N647 1.328 . S
C642 H648 0.929 . S
C643 C644 1.362 . S
C643 C646 1.378 . S
C643 H658 0.929 . S
C644 C643 1.362 . S
C644 C645 1.366 . S
C645 C642 1.365 . S
C645 C644 1.366 . S
C645 H659 0.930 . S
C646 C643 1.378 . S
C646 N647 1.315 . S
C646 H649 0.930 . S
N647 Co627 2.194 . S
N647 C642 1.328 . S
N647 C646 1.315 . S
H648 C642 0.929 . S
H649 C646 0.930 . S
H650 C638 0.929 . S
H651 C640 0.929 . S
O652 Co627 2.351 . S
O652 C655 1.244 . S
O653 Co627 2.155 . S
O653 C655 1.240 . S
O654 Co627 2.096 . S
O654 C635 1.247 . S
C655 O652 1.244 . S
C655 O653 1.240 . S
H656 C630 0.931 . S
H657 C639 0.931 . S
H658 C643 0.929 . S
H659 C645 0.930 . S
Co660 N664 2.148 . S
Co660 N670 2.128 . S
Co660 N680 2.194 . S
Co660 O685 2.351 . S
Co660 O686 2.155 . S
Co660 O687 2.096 . S
C661 N664 1.301 . S
C661 N665 1.328 . S
C661 H666 0.930 . S
C662 C663 1.333 . S
C662 N664 1.317 . S
C662 H667 0.930 . S
C663 C662 1.333 . S
C663 N665 1.350 . S
C663 H689 0.931 . S
N664 Co660 2.148 . S
N664 C661 1.301 . S
N664 C662 1.317 . S
N665 C661 1.328 . S
N665 C663 1.350 . S
H666 C661 0.930 . S
H667 C662 0.930 . S
C668 O669 1.224 . S
C668 O687 1.247 . S
O669 C668 1.224 . S
N670 Co660 2.128 . S
N670 C671 1.355 . S
N670 C673 1.311 . S
C671 N670 1.355 . S
C671 C672 1.363 . S
C671 H683 0.929 . S
C672 C671 1.363 . S
C672 N674 1.375 . S
C672 H690 0.931 . S
C673 N670 1.311 . S
C673 N674 1.347 . S
C673 H684 0.929 . S
N674 C672 1.375 . S
N674 C673 1.347 . S
C675 C678 1.365 . S
C675 N680 1.328 . S
C675 H681 0.929 . S
C676 C677 1.362 . S
C676 C679 1.378 . S
C676 H691 0.929 . S
C677 C676 1.362 . S
C677 C678 1.366 . S
C678 C675 1.365 . S
C678 C677 1.366 . S
C678 H692 0.930 . S
C679 C676 1.378 . S
C679 N680 1.315 . S
C679 H682 0.930 . S
N680 Co660 2.194 . S
N680 C675 1.328 . S
N680 C679 1.315 . S
H681 C675 0.929 . S
H682 C679 0.930 . S
H683 C671 0.929 . S
H684 C673 0.929 . S
O685 Co660 2.351 . S
O685 C688 1.244 . S
O686 Co660 2.155 . S
O686 C688 1.240 . S
O687 Co660 2.096 . S
O687 C668 1.247 . S
C688 O685 1.244 . S
C688 O686 1.240 . S
H689 C663 0.931 . S
H690 C672 0.931 . S
H691 C676 0.929 . S
H692 C678 0.930 . S
Co693 N697 2.148 . S
Co693 N703 2.128 . S
Co693 N713 2.194 . S
Co693 O718 2.351 . S
Co693 O719 2.155 . S
Co693 O720 2.096 . S
C694 N697 1.301 . S
C694 N698 1.328 . S
C694 H699 0.930 . S
C695 C696 1.333 . S
C695 N697 1.317 . S
C695 H700 0.930 . S
C696 C695 1.333 . S
C696 N698 1.350 . S
C696 H722 0.931 . S
N697 Co693 2.148 . S
N697 C694 1.301 . S
N697 C695 1.317 . S
N698 C694 1.328 . S
N698 C696 1.350 . S
H699 C694 0.930 . S
H700 C695 0.930 . S
C701 O702 1.224 . S
C701 O720 1.247 . S
O702 C701 1.224 . S
N703 Co693 2.128 . S
N703 C704 1.355 . S
N703 C706 1.311 . S
C704 N703 1.355 . S
C704 C705 1.363 . S
C704 H716 0.929 . S
C705 C704 1.363 . S
C705 N707 1.375 . S
C705 H723 0.931 . S
C706 N703 1.311 . S
C706 N707 1.347 . S
C706 H717 0.929 . S
N707 C705 1.375 . S
N707 C706 1.347 . S
C708 C711 1.365 . S
C708 N713 1.328 . S
C708 H714 0.929 . S
C709 C710 1.362 . S
C709 C712 1.378 . S
C709 H724 0.929 . S
C710 C709 1.362 . S
C710 C711 1.366 . S
C711 C708 1.365 . S
C711 C710 1.366 . S
C711 H725 0.930 . S
C712 C709 1.378 . S
C712 N713 1.315 . S
C712 H715 0.930 . S
N713 Co693 2.194 . S
N713 C708 1.328 . S
N713 C712 1.315 . S
H714 C708 0.929 . S
H715 C712 0.930 . S
H716 C704 0.929 . S
H717 C706 0.929 . S
O718 Co693 2.351 . S
O718 C721 1.244 . S
O719 Co693 2.155 . S
O719 C721 1.240 . S
O720 Co693 2.096 . S
O720 C701 1.247 . S
C721 O718 1.244 . S
C721 O719 1.240 . S
H722 C696 0.931 . S
H723 C705 0.931 . S
H724 C709 0.929 . S
H725 C711 0.930 . S
Co726 N730 2.148 . S
Co726 N736 2.128 . S
Co726 N746 2.194 . S
Co726 O751 2.351 . S
Co726 O752 2.155 . S
Co726 O753 2.096 . S
C727 N730 1.301 . S
C727 N731 1.328 . S
C727 H732 0.930 . S
C728 C729 1.333 . S
C728 N730 1.317 . S
C728 H733 0.930 . S
C729 C728 1.333 . S
C729 N731 1.350 . S
C729 H755 0.931 . S
N730 Co726 2.148 . S
N730 C727 1.301 . S
N730 C728 1.317 . S
N731 C727 1.328 . S
N731 C729 1.350 . S
H732 C727 0.930 . S
H733 C728 0.930 . S
C734 O735 1.224 . S
C734 O753 1.247 . S
O735 C734 1.224 . S
N736 Co726 2.128 . S
N736 C737 1.355 . S
N736 C739 1.311 . S
C737 N736 1.355 . S
C737 C738 1.363 . S
C737 H749 0.929 . S
C738 C737 1.363 . S
C738 N740 1.375 . S
C738 H756 0.931 . S
C739 N736 1.311 . S
C739 N740 1.347 . S
C739 H750 0.929 . S
N740 C738 1.375 . S
N740 C739 1.347 . S
C741 C744 1.365 . S
C741 N746 1.328 . S
C741 H747 0.929 . S
C742 C743 1.362 . S
C742 C745 1.378 . S
C742 H757 0.929 . S
C743 C742 1.362 . S
C743 C744 1.366 . S
C744 C741 1.365 . S
C744 C743 1.366 . S
C744 H758 0.930 . S
C745 C742 1.378 . S
C745 N746 1.315 . S
C745 H748 0.930 . S
N746 Co726 2.194 . S
N746 C741 1.328 . S
N746 C745 1.315 . S
H747 C741 0.929 . S
H748 C745 0.930 . S
H749 C737 0.929 . S
H750 C739 0.929 . S
O751 Co726 2.351 . S
O751 C754 1.244 . S
O752 Co726 2.155 . S
O752 C754 1.240 . S
O753 Co726 2.096 . S
O753 C734 1.247 . S
C754 O751 1.244 . S
C754 O752 1.240 . S
H755 C729 0.931 . S
H756 C738 0.931 . S
H757 C742 0.929 . S
H758 C744 0.930 . S
Co759 N763 2.148 . S
Co759 N769 2.128 . S
Co759 N779 2.194 . S
Co759 O784 2.351 . S
Co759 O785 2.155 . S
Co759 O786 2.096 . S
C760 N763 1.301 . S
C760 N764 1.328 . S
C760 H765 0.930 . S
C761 C762 1.333 . S
C761 N763 1.317 . S
C761 H766 0.930 . S
C762 C761 1.333 . S
C762 N764 1.350 . S
C762 H788 0.931 . S
N763 Co759 2.148 . S
N763 C760 1.301 . S
N763 C761 1.317 . S
N764 C760 1.328 . S
N764 C762 1.350 . S
H765 C760 0.930 . S
H766 C761 0.930 . S
C767 O768 1.224 . S
C767 O786 1.247 . S
O768 C767 1.224 . S
N769 Co759 2.128 . S
N769 C770 1.355 . S
N769 C772 1.311 . S
C770 N769 1.355 . S
C770 C771 1.363 . S
C770 H782 0.929 . S
C771 C770 1.363 . S
C771 N773 1.375 . S
C771 H789 0.931 . S
C772 N769 1.311 . S
C772 N773 1.347 . S
C772 H783 0.929 . S
N773 C771 1.375 . S
N773 C772 1.347 . S
C774 C777 1.365 . S
C774 N779 1.328 . S
C774 H780 0.929 . S
C775 C776 1.362 . S
C775 C778 1.378 . S
C775 H790 0.929 . S
C776 C775 1.362 . S
C776 C777 1.366 . S
C777 C774 1.365 . S
C777 C776 1.366 . S
C777 H791 0.930 . S
C778 C775 1.378 . S
C778 N779 1.315 . S
C778 H781 0.930 . S
N779 Co759 2.194 . S
N779 C774 1.328 . S
N779 C778 1.315 . S
H780 C774 0.929 . S
H781 C778 0.930 . S
H782 C770 0.929 . S
H783 C772 0.929 . S
O784 Co759 2.351 . S
O784 C787 1.244 . S
O785 Co759 2.155 . S
O785 C787 1.240 . S
O786 Co759 2.096 . S
O786 C767 1.247 . S
C787 O784 1.244 . S
C787 O785 1.240 . S
H788 C762 0.931 . S
H789 C771 0.931 . S
H790 C775 0.929 . S
H791 C777 0.930 . S
Co792 N796 2.148 . S
Co792 N802 2.128 . S
Co792 N812 2.194 . S
Co792 O817 2.351 . S
Co792 O818 2.155 . S
Co792 O819 2.096 . S
C793 N796 1.301 . S
C793 N797 1.328 . S
C793 H798 0.930 . S
C794 C795 1.333 . S
C794 N796 1.317 . S
C794 H799 0.930 . S
C795 C794 1.333 . S
C795 N797 1.350 . S
C795 H821 0.931 . S
N796 Co792 2.148 . S
N796 C793 1.301 . S
N796 C794 1.317 . S
N797 C793 1.328 . S
N797 C795 1.350 . S
H798 C793 0.930 . S
H799 C794 0.930 . S
C800 O801 1.224 . S
C800 O819 1.247 . S
O801 C800 1.224 . S
N802 Co792 2.128 . S
N802 C803 1.355 . S
N802 C805 1.311 . S
C803 N802 1.355 . S
C803 C804 1.363 . S
C803 H815 0.929 . S
C804 C803 1.363 . S
C804 N806 1.375 . S
C804 H822 0.931 . S
C805 N802 1.311 . S
C805 N806 1.347 . S
C805 H816 0.929 . S
N806 C804 1.375 . S
N806 C805 1.347 . S
C807 C810 1.365 . S
C807 N812 1.328 . S
C807 H813 0.929 . S
C808 C809 1.362 . S
C808 C811 1.378 . S
C808 H823 0.929 . S
C809 C808 1.362 . S
C809 C810 1.366 . S
C810 C807 1.365 . S
C810 C809 1.366 . S
C810 H824 0.930 . S
C811 C808 1.378 . S
C811 N812 1.315 . S
C811 H814 0.930 . S
N812 Co792 2.194 . S
N812 C807 1.328 . S
N812 C811 1.315 . S
H813 C807 0.929 . S
H814 C811 0.930 . S
H815 C803 0.929 . S
H816 C805 0.929 . S
O817 Co792 2.351 . S
O817 C820 1.244 . S
O818 Co792 2.155 . S
O818 C820 1.240 . S
O819 Co792 2.096 . S
O819 C800 1.247 . S
C820 O817 1.244 . S
C820 O818 1.240 . S
H821 C795 0.931 . S
H822 C804 0.931 . S
H823 C808 0.929 . S
H824 C810 0.930 . S
Co825 N829 2.148 . S
Co825 N835 2.128 . S
Co825 N845 2.194 . S
Co825 O850 2.351 . S
Co825 O851 2.155 . S
Co825 O852 2.096 . S
C826 N829 1.301 . S
C826 N830 1.328 . S
C826 H831 0.930 . S
C827 C828 1.333 . S
C827 N829 1.317 . S
C827 H832 0.930 . S
C828 C827 1.333 . S
C828 N830 1.350 . S
C828 H854 0.931 . S
N829 Co825 2.148 . S
N829 C826 1.301 . S
N829 C827 1.317 . S
N830 C826 1.328 . S
N830 C828 1.350 . S
H831 C826 0.930 . S
H832 C827 0.930 . S
C833 O834 1.224 . S
C833 O852 1.247 . S
O834 C833 1.224 . S
N835 Co825 2.128 . S
N835 C836 1.355 . S
N835 C838 1.311 . S
C836 N835 1.355 . S
C836 C837 1.363 . S
C836 H848 0.929 . S
C837 C836 1.363 . S
C837 N839 1.375 . S
C837 H855 0.931 . S
C838 N835 1.311 . S
C838 N839 1.347 . S
C838 H849 0.929 . S
N839 C837 1.375 . S
N839 C838 1.347 . S
C840 C843 1.365 . S
C840 N845 1.328 . S
C840 H846 0.929 . S
C841 C842 1.362 . S
C841 C844 1.378 . S
C841 H856 0.929 . S
C842 C841 1.362 . S
C842 C843 1.366 . S
C843 C840 1.365 . S
C843 C842 1.366 . S
C843 H857 0.930 . S
C844 C841 1.378 . S
C844 N845 1.315 . S
C844 H847 0.930 . S
N845 Co825 2.194 . S
N845 C840 1.328 . S
N845 C844 1.315 . S
H846 C840 0.929 . S
H847 C844 0.930 . S
H848 C836 0.929 . S
H849 C838 0.929 . S
O850 Co825 2.351 . S
O850 C853 1.244 . S
O851 Co825 2.155 . S
O851 C853 1.240 . S
O852 Co825 2.096 . S
O852 C833 1.247 . S
C853 O850 1.244 . S
C853 O851 1.240 . S
H854 C828 0.931 . S
H855 C837 0.931 . S
H856 C841 0.929 . S
H857 C843 0.930 . S
Co858 N862 2.148 . S
Co858 N868 2.128 . S
Co858 N878 2.194 . S
Co858 O883 2.351 . S
Co858 O884 2.155 . S
Co858 O885 2.096 . S
C859 N862 1.301 . S
C859 N863 1.328 . S
C859 H864 0.930 . S
C860 C861 1.333 . S
C860 N862 1.317 . S
C860 H865 0.930 . S
C861 C860 1.333 . S
C861 N863 1.350 . S
C861 H887 0.931 . S
N862 Co858 2.148 . S
N862 C859 1.301 . S
N862 C860 1.317 . S
N863 C859 1.328 . S
N863 C861 1.350 . S
H864 C859 0.930 . S
H865 C860 0.930 . S
C866 O867 1.224 . S
C866 O885 1.247 . S
O867 C866 1.224 . S
N868 Co858 2.128 . S
N868 C869 1.355 . S
N868 C871 1.311 . S
C869 N868 1.355 . S
C869 C870 1.363 . S
C869 H881 0.929 . S
C870 C869 1.363 . S
C870 N872 1.375 . S
C870 H888 0.931 . S
C871 N868 1.311 . S
C871 N872 1.347 . S
C871 H882 0.929 . S
N872 C870 1.375 . S
N872 C871 1.347 . S
C873 C876 1.365 . S
C873 N878 1.328 . S
C873 H879 0.929 . S
C874 C875 1.362 . S
C874 C877 1.378 . S
C874 H889 0.929 . S
C875 C874 1.362 . S
C875 C876 1.366 . S
C876 C873 1.365 . S
C876 C875 1.366 . S
C876 H890 0.930 . S
C877 C874 1.378 . S
C877 N878 1.315 . S
C877 H880 0.930 . S
N878 Co858 2.194 . S
N878 C873 1.328 . S
N878 C877 1.315 . S
H879 C873 0.929 . S
H880 C877 0.930 . S
H881 C869 0.929 . S
H882 C871 0.929 . S
O883 Co858 2.351 . S
O883 C886 1.244 . S
O884 Co858 2.155 . S
O884 C886 1.240 . S
O885 Co858 2.096 . S
O885 C866 1.247 . S
C886 O883 1.244 . S
C886 O884 1.240 . S
H887 C861 0.931 . S
H888 C870 0.931 . S
H889 C874 0.929 . S
H890 C876 0.930 . S
Co891 N895 2.148 . S
Co891 N901 2.128 . S
Co891 N911 2.194 . S
Co891 O916 2.351 . S
Co891 O917 2.155 . S
Co891 O918 2.096 . S
C892 N895 1.301 . S
C892 N896 1.328 . S
C892 H897 0.930 . S
C893 C894 1.333 . S
C893 N895 1.317 . S
C893 H898 0.930 . S
C894 C893 1.333 . S
C894 N896 1.350 . S
C894 H920 0.931 . S
N895 Co891 2.148 . S
N895 C892 1.301 . S
N895 C893 1.317 . S
N896 C892 1.328 . S
N896 C894 1.350 . S
H897 C892 0.930 . S
H898 C893 0.930 . S
C899 O900 1.224 . S
C899 O918 1.247 . S
O900 C899 1.224 . S
N901 Co891 2.128 . S
N901 C902 1.355 . S
N901 C904 1.311 . S
C902 N901 1.355 . S
C902 C903 1.363 . S
C902 H914 0.929 . S
C903 C902 1.363 . S
C903 N905 1.375 . S
C903 H921 0.931 . S
C904 N901 1.311 . S
C904 N905 1.347 . S
C904 H915 0.929 . S
N905 C903 1.375 . S
N905 C904 1.347 . S
C906 C909 1.365 . S
C906 N911 1.328 . S
C906 H912 0.929 . S
C907 C908 1.362 . S
C907 C910 1.378 . S
C907 H922 0.929 . S
C908 C907 1.362 . S
C908 C909 1.366 . S
C909 C906 1.365 . S
C909 C908 1.366 . S
C909 H923 0.930 . S
C910 C907 1.378 . S
C910 N911 1.315 . S
C910 H913 0.930 . S
N911 Co891 2.194 . S
N911 C906 1.328 . S
N911 C910 1.315 . S
H912 C906 0.929 . S
H913 C910 0.930 . S
H914 C902 0.929 . S
H915 C904 0.929 . S
O916 Co891 2.351 . S
O916 C919 1.244 . S
O917 Co891 2.155 . S
O917 C919 1.240 . S
O918 Co891 2.096 . S
O918 C899 1.247 . S
C919 O916 1.244 . S
C919 O917 1.240 . S
H920 C894 0.931 . S
H921 C903 0.931 . S
H922 C907 0.929 . S
H923 C909 0.930 . S
Co924 N928 2.148 . S
Co924 N934 2.128 . S
Co924 N944 2.194 . S
Co924 O949 2.351 . S
Co924 O950 2.155 . S
Co924 O951 2.096 . S
C925 N928 1.301 . S
C925 N929 1.328 . S
C925 H930 0.930 . S
C926 C927 1.333 . S
C926 N928 1.317 . S
C926 H931 0.930 . S
C927 C926 1.333 . S
C927 N929 1.350 . S
C927 H953 0.931 . S
N928 Co924 2.148 . S
N928 C925 1.301 . S
N928 C926 1.317 . S
N929 C925 1.328 . S
N929 C927 1.350 . S
H930 C925 0.930 . S
H931 C926 0.930 . S
C932 O933 1.224 . S
C932 O951 1.247 . S
O933 C932 1.224 . S
N934 Co924 2.128 . S
N934 C935 1.355 . S
N934 C937 1.311 . S
C935 N934 1.355 . S
C935 C936 1.363 . S
C935 H947 0.929 . S
C936 C935 1.363 . S
C936 N938 1.375 . S
C936 H954 0.931 . S
C937 N934 1.311 . S
C937 N938 1.347 . S
C937 H948 0.929 . S
N938 C936 1.375 . S
N938 C937 1.347 . S
C939 C942 1.365 . S
C939 N944 1.328 . S
C939 H945 0.929 . S
C940 C941 1.362 . S
C940 C943 1.378 . S
C940 H955 0.929 . S
C941 C940 1.362 . S
C941 C942 1.366 . S
C942 C939 1.365 . S
C942 C941 1.366 . S
C942 H956 0.930 . S
C943 C940 1.378 . S
C943 N944 1.315 . S
C943 H946 0.930 . S
N944 Co924 2.194 . S
N944 C939 1.328 . S
N944 C943 1.315 . S
H945 C939 0.929 . S
H946 C943 0.930 . S
H947 C935 0.929 . S
H948 C937 0.929 . S
O949 Co924 2.351 . S
O949 C952 1.244 . S
O950 Co924 2.155 . S
O950 C952 1.240 . S
O951 Co924 2.096 . S
O951 C932 1.247 . S
C952 O949 1.244 . S
C952 O950 1.240 . S
H953 C927 0.931 . S
H954 C936 0.931 . S
H955 C940 0.929 . S
H956 C942 0.930 . S
Co957 N961 2.148 . S
Co957 N967 2.128 . S
Co957 N977 2.194 . S
Co957 O982 2.351 . S
Co957 O983 2.155 . S
Co957 O984 2.096 . S
C958 N961 1.301 . S
C958 N962 1.328 . S
C958 H963 0.930 . S
C959 C960 1.333 . S
C959 N961 1.317 . S
C959 H964 0.930 . S
C960 C959 1.333 . S
C960 N962 1.350 . S
C960 H986 0.931 . S
N961 Co957 2.148 . S
N961 C958 1.301 . S
N961 C959 1.317 . S
N962 C958 1.328 . S
N962 C960 1.350 . S
H963 C958 0.930 . S
H964 C959 0.930 . S
C965 O966 1.224 . S
C965 O984 1.247 . S
O966 C965 1.224 . S
N967 Co957 2.128 . S
N967 C968 1.355 . S
N967 C970 1.311 . S
C968 N967 1.355 . S
C968 C969 1.363 . S
C968 H980 0.929 . S
C969 C968 1.363 . S
C969 N971 1.375 . S
C969 H987 0.931 . S
C970 N967 1.311 . S
C970 N971 1.347 . S
C970 H981 0.929 . S
N971 C969 1.375 . S
N971 C970 1.347 . S
C972 C975 1.365 . S
C972 N977 1.328 . S
C972 H978 0.929 . S
C973 C974 1.362 . S
C973 C976 1.378 . S
C973 H988 0.929 . S
C974 C973 1.362 . S
C974 C975 1.366 . S
C975 C972 1.365 . S
C975 C974 1.366 . S
C975 H989 0.930 . S
C976 C973 1.378 . S
C976 N977 1.315 . S
C976 H979 0.930 . S
N977 Co957 2.194 . S
N977 C972 1.328 . S
N977 C976 1.315 . S
H978 C972 0.929 . S
H979 C976 0.930 . S
H980 C968 0.929 . S
H981 C970 0.929 . S
O982 Co957 2.351 . S
O982 C985 1.244 . S
O983 Co957 2.155 . S
O983 C985 1.240 . S
O984 Co957 2.096 . S
O984 C965 1.247 . S
C985 O982 1.244 . S
C985 O983 1.240 . S
H986 C960 0.931 . S
H987 C969 0.931 . S
H988 C973 0.929 . S
H989 C975 0.930 . S
Co990 N994 2.148 . S
Co990 N1000 2.128 . S
Co990 N1010 2.194 . S
Co990 O1015 2.351 . S
Co990 O1016 2.155 . S
Co990 O1017 2.096 . S
C991 N994 1.301 . S
C991 N995 1.328 . S
C991 H996 0.930 . S
C992 C993 1.333 . S
C992 N994 1.317 . S
C992 H997 0.930 . S
C993 C992 1.333 . S
C993 N995 1.350 . S
C993 H1019 0.931 . S
N994 Co990 2.148 . S
N994 C991 1.301 . S
N994 C992 1.317 . S
N995 C991 1.328 . S
N995 C993 1.350 . S
H996 C991 0.930 . S
H997 C992 0.930 . S
C998 O999 1.224 . S
C998 O1017 1.247 . S
O999 C998 1.224 . S
N1000 Co990 2.128 . S
N1000 C1001 1.355 . S
N1000 C1003 1.311 . S
C1001 N1000 1.355 . S
C1001 C1002 1.363 . S
C1001 H1013 0.929 . S
C1002 C1001 1.363 . S
C1002 N1004 1.375 . S
C1002 H1020 0.931 . S
C1003 N1000 1.311 . S
C1003 N1004 1.347 . S
C1003 H1014 0.929 . S
N1004 C1002 1.375 . S
N1004 C1003 1.347 . S
C1005 C1008 1.365 . S
C1005 N1010 1.328 . S
C1005 H1011 0.929 . S
C1006 C1007 1.362 . S
C1006 C1009 1.378 . S
C1006 H1021 0.929 . S
C1007 C1006 1.362 . S
C1007 C1008 1.366 . S
C1008 C1005 1.365 . S
C1008 C1007 1.366 . S
C1008 H1022 0.930 . S
C1009 C1006 1.378 . S
C1009 N1010 1.315 . S
C1009 H1012 0.930 . S
N1010 Co990 2.194 . S
N1010 C1005 1.328 . S
N1010 C1009 1.315 . S
H1011 C1005 0.929 . S
H1012 C1009 0.930 . S
H1013 C1001 0.929 . S
H1014 C1003 0.929 . S
O1015 Co990 2.351 . S
O1015 C1018 1.244 . S
O1016 Co990 2.155 . S
O1016 C1018 1.240 . S
O1017 Co990 2.096 . S
O1017 C998 1.247 . S
C1018 O1015 1.244 . S
C1018 O1016 1.240 . S
H1019 C993 0.931 . S
H1020 C1002 0.931 . S
H1021 C1006 0.929 . S
H1022 C1008 0.930 . S
Co1023 N1027 2.148 . S
Co1023 N1033 2.128 . S
Co1023 N1043 2.194 . S
Co1023 O1048 2.351 . S
Co1023 O1049 2.155 . S
Co1023 O1050 2.096 . S
C1024 N1027 1.301 . S
C1024 N1028 1.328 . S
C1024 H1029 0.930 . S
C1025 C1026 1.333 . S
C1025 N1027 1.317 . S
C1025 H1030 0.930 . S
C1026 C1025 1.333 . S
C1026 N1028 1.350 . S
C1026 H1052 0.931 . S
N1027 Co1023 2.148 . S
N1027 C1024 1.301 . S
N1027 C1025 1.317 . S
N1028 C1024 1.328 . S
N1028 C1026 1.350 . S
H1029 C1024 0.930 . S
H1030 C1025 0.930 . S
C1031 O1032 1.224 . S
C1031 O1050 1.247 . S
O1032 C1031 1.224 . S
N1033 Co1023 2.128 . S
N1033 C1034 1.355 . S
N1033 C1036 1.311 . S
C1034 N1033 1.355 . S
C1034 C1035 1.363 . S
C1034 H1046 0.929 . S
C1035 C1034 1.363 . S
C1035 N1037 1.375 . S
C1035 H1053 0.931 . S
C1036 N1033 1.311 . S
C1036 N1037 1.347 . S
C1036 H1047 0.929 . S
N1037 C1035 1.375 . S
N1037 C1036 1.347 . S
C1038 C1041 1.365 . S
C1038 N1043 1.328 . S
C1038 H1044 0.929 . S
C1039 C1040 1.362 . S
C1039 C1042 1.378 . S
C1039 H1054 0.929 . S
C1040 C1039 1.362 . S
C1040 C1041 1.366 . S
C1041 C1038 1.365 . S
C1041 C1040 1.366 . S
C1041 H1055 0.930 . S
C1042 C1039 1.378 . S
C1042 N1043 1.315 . S
C1042 H1045 0.930 . S
N1043 Co1023 2.194 . S
N1043 C1038 1.328 . S
N1043 C1042 1.315 . S
H1044 C1038 0.929 . S
H1045 C1042 0.930 . S
H1046 C1034 0.929 . S
H1047 C1036 0.929 . S
O1048 Co1023 2.351 . S
O1048 C1051 1.244 . S
O1049 Co1023 2.155 . S
O1049 C1051 1.240 . S
O1050 Co1023 2.096 . S
O1050 C1031 1.247 . S
C1051 O1048 1.244 . S
C1051 O1049 1.240 . S
H1052 C1026 0.931 . S
H1053 C1035 0.931 . S
H1054 C1039 0.929 . S
H1055 C1041 0.930 . S
H1056 C1064 0.950 . S
H1057 C1069 0.950 . S
H1058 C1066 0.950 . S
H1059 C1068 0.950 . S
H1060 C1070 0.950 . S
H1061 C1072 0.950 . S
H1062 C1074 0.950 . S
H1063 C1075 0.950 . S
C1064 H1056 0.950 . S
C1064 C1065 1.386 . S
C1064 C1066 1.391 . S
C1065 C1064 1.386 . S
C1065 C1069 1.393 . S
C1066 H1058 0.950 . S
C1066 C1064 1.391 . S
C1066 C1067 1.400 . S
C1067 C1066 1.400 . S
C1067 C1068 1.398 . S
C1067 C1073 1.491 . S
C1068 H1059 0.950 . S
C1068 C1067 1.398 . S
C1068 C1069 1.391 . S
C1069 H1057 0.950 . S
C1069 C1065 1.393 . S
C1069 C1068 1.391 . S
C1070 H1060 0.950 . S
C1070 C1071 1.386 . S
C1070 C1072 1.391 . S
C1071 C1070 1.386 . S
C1071 C1075 1.393 . S
C1072 H1061 0.950 . S
C1072 C1070 1.391 . S
C1072 C1073 1.400 . S
C1073 C1067 1.491 . S
C1073 C1072 1.400 . S
C1073 C1074 1.398 . S
C1074 H1062 0.950 . S
C1074 C1073 1.398 . S
C1074 C1075 1.391 . S
C1075 H1063 0.950 . S
C1075 C1071 1.393 . S
C1075 C1074 1.391 . S
H1076 C1084 0.950 . S
H1077 C1089 0.950 . S
H1078 C1086 0.969 . S
H1079 C1088 0.950 1_545 S
H1080 C1090 0.950 . S
H1081 C1092 0.969 . S
H1082 C1094 0.950 1_565 S
H1083 C1095 0.950 . S
C1084 H1076 0.950 . S
C1084 C1085 1.386 . S
C1084 C1086 1.391 . S
C1085 C1084 1.386 . S
C1085 C1089 1.393 . S
C1086 H1078 0.969 . S
C1086 C1084 1.391 . S
C1086 C1087 1.400 . S
C1087 C1086 1.400 . S
C1087 C1088 1.398 . S
C1087 C1093 1.491 1_665 S
C1088 H1079 0.950 1_565 S
C1088 C1087 1.398 . S
C1088 C1089 1.391 . S
C1089 H1077 0.950 . S
C1089 C1085 1.393 . S
C1089 C1088 1.391 . S
C1090 H1080 0.950 . S
C1090 C1091 1.386 . S
C1090 C1092 1.391 . S
C1091 C1090 1.386 . S
C1091 C1095 1.393 . S
C1092 H1081 0.969 . S
C1092 C1090 1.391 . S
C1092 C1093 1.400 . S
C1093 C1087 1.491 1_445 S
C1093 C1092 1.400 . S
C1093 C1094 1.398 . S
C1094 H1082 0.950 1_545 S
C1094 C1093 1.398 . S
C1094 C1095 1.391 . S
C1095 H1083 0.950 . S
C1095 C1091 1.393 . S
C1095 C1094 1.391 . S
H1096 C1104 0.950 . S
H1097 C1109 0.950 . S
H1098 C1106 0.950 . S
H1099 C1108 0.950 . S
H1100 C1110 0.950 . S
H1101 C1112 0.950 . S
H1102 C1114 0.950 . S
H1103 C1115 0.950 . S
C1104 H1096 0.950 . S
C1104 C1105 1.386 . S
C1104 C1106 1.391 . S
C1105 C1104 1.386 . S
C1105 C1109 1.393 . S
C1106 H1098 0.950 . S
C1106 C1104 1.391 . S
C1106 C1107 1.400 . S
C1107 C1106 1.400 . S
C1107 C1108 1.398 . S
C1107 C1113 1.491 . S
C1108 H1099 0.950 . S
C1108 C1107 1.398 . S
C1108 C1109 1.391 . S
C1109 H1097 0.950 . S
C1109 C1105 1.393 . S
C1109 C1108 1.391 . S
C1110 H1100 0.950 . S
C1110 C1111 1.386 . S
C1110 C1112 1.391 . S
C1111 C1110 1.386 . S
C1111 C1115 1.393 . S
C1112 H1101 0.950 . S
C1112 C1110 1.391 . S
C1112 C1113 1.400 . S
C1113 C1107 1.491 . S
C1113 C1112 1.400 . S
C1113 C1114 1.398 . S
C1114 H1102 0.950 . S
C1114 C1113 1.398 . S
C1114 C1115 1.391 . S
C1115 H1103 0.950 . S
C1115 C1111 1.393 . S
C1115 C1114 1.391 . S
H1116 C1124 0.950 . S
H1117 C1129 0.950 . S
H1118 C1126 0.935 1_554 S
H1119 C1128 0.950 1_545 S
H1120 C1130 0.950 . S
H1121 C1132 0.935 1_556 S
H1122 C1134 0.950 1_565 S
H1123 C1135 0.950 . S
C1124 H1116 0.950 . S
C1124 C1125 1.386 . S
C1124 C1126 1.391 . S
C1125 C1124 1.386 . S
C1125 C1129 1.393 . S
C1126 H1118 0.935 1_556 S
C1126 C1124 1.391 . S
C1126 C1127 1.400 . S
C1127 C1126 1.400 . S
C1127 C1128 1.398 . S
C1127 C1133 1.491 1_566 S
C1128 H1119 0.950 1_565 S
C1128 C1127 1.398 . S
C1128 C1129 1.391 . S
C1129 H1117 0.950 . S
C1129 C1125 1.393 . S
C1129 C1128 1.391 . S
C1130 H1120 0.950 . S
C1130 C1131 1.386 . S
C1130 C1132 1.391 . S
C1131 C1130 1.386 . S
C1131 C1135 1.393 . S
C1132 H1121 0.935 1_554 S
C1132 C1130 1.391 . S
C1132 C1133 1.400 . S
C1133 C1127 1.491 1_544 S
C1133 C1132 1.400 . S
C1133 C1134 1.398 . S
C1134 H1122 0.950 1_545 S
C1134 C1133 1.398 . S
C1134 C1135 1.391 . S
C1135 H1123 0.950 . S
C1135 C1131 1.393 . S
C1135 C1134 1.391 . S
H1136 C1144 0.950 . S
H1137 C1149 0.950 . S
H1138 C1146 0.950 . S
H1139 C1148 0.950 . S
H1140 C1150 0.950 . S
H1141 C1152 0.950 . S
H1142 C1154 0.950 . S
H1143 C1155 0.950 . S
C1144 H1136 0.950 . S
C1144 C1145 1.386 . S
C1144 C1146 1.391 . S
C1145 C1144 1.386 . S
C1145 C1149 1.393 . S
C1146 H1138 0.950 . S
C1146 C1144 1.391 . S
C1146 C1147 1.400 . S
C1147 C1146 1.400 . S
C1147 C1148 1.398 . S
C1147 C1153 1.491 . S
C1148 H1139 0.950 . S
C1148 C1147 1.398 . S
C1148 C1149 1.391 . S
C1149 H1137 0.950 . S
C1149 C1145 1.393 . S
C1149 C1148 1.391 . S
C1150 H1140 0.950 . S
C1150 C1151 1.386 . S
C1150 C1152 1.391 . S
C1151 C1150 1.386 . S
C1151 C1155 1.393 . S
C1152 H1141 0.950 . S
C1152 C1150 1.391 . S
C1152 C1153 1.400 . S
C1153 C1147 1.491 . S
C1153 C1152 1.400 . S
C1153 C1154 1.398 . S
C1154 H1142 0.950 . S
C1154 C1153 1.398 . S
C1154 C1155 1.391 . S
C1155 H1143 0.950 . S
C1155 C1151 1.393 . S
C1155 C1154 1.391 . S
H1156 C1164 0.950 . S
H1157 C1169 0.950 . S
H1158 C1166 0.950 . S
H1159 C1168 0.950 1_545 S
H1160 C1170 0.950 . S
H1161 C1172 0.950 . S
H1162 C1174 0.950 1_565 S
H1163 C1175 0.950 . S
C1164 H1156 0.950 . S
C1164 C1165 1.386 . S
C1164 C1166 1.391 . S
C1165 C1164 1.386 . S
C1165 C1169 1.393 . S
C1166 H1158 0.950 . S
C1166 C1164 1.391 . S
C1166 C1167 1.400 . S
C1167 C1166 1.400 . S
C1167 C1168 1.398 . S
C1167 C1173 1.491 1_565 S
C1168 H1159 0.950 1_565 S
C1168 C1167 1.398 . S
C1168 C1169 1.391 . S
C1169 H1157 0.950 . S
C1169 C1165 1.393 . S
C1169 C1168 1.391 . S
C1170 H1160 0.950 . S
C1170 C1171 1.386 . S
C1170 C1172 1.391 . S
C1171 C1170 1.386 . S
C1171 C1175 1.393 . S
C1172 H1161 0.950 . S
C1172 C1170 1.391 . S
C1172 C1173 1.400 . S
C1173 C1167 1.491 1_545 S
C1173 C1172 1.400 . S
C1173 C1174 1.398 . S
C1174 H1162 0.950 1_545 S
C1174 C1173 1.398 . S
C1174 C1175 1.391 . S
C1175 H1163 0.950 . S
C1175 C1171 1.393 . S
C1175 C1174 1.391 . S
H1176 C1184 0.950 . S
H1177 C1189 0.950 . S
H1178 C1186 0.950 . S
H1179 C1188 0.950 . S
H1180 C1190 0.950 . S
H1181 C1192 0.950 . S
H1182 C1194 0.950 . S
H1183 C1195 0.950 . S
C1184 H1176 0.950 . S
C1184 C1185 1.386 . S
C1184 C1186 1.391 . S
C1185 C1184 1.386 . S
C1185 C1189 1.393 . S
C1186 H1178 0.950 . S
C1186 C1184 1.391 . S
C1186 C1187 1.400 . S
C1187 C1186 1.400 . S
C1187 C1188 1.398 . S
C1187 C1193 1.491 . S
C1188 H1179 0.950 . S
C1188 C1187 1.398 . S
C1188 C1189 1.391 . S
C1189 H1177 0.950 . S
C1189 C1185 1.393 . S
C1189 C1188 1.391 . S
C1190 H1180 0.950 . S
C1190 C1191 1.386 . S
C1190 C1192 1.391 . S
C1191 C1190 1.386 . S
C1191 C1195 1.393 . S
C1192 H1181 0.950 . S
C1192 C1190 1.391 . S
C1192 C1193 1.400 . S
C1193 C1187 1.491 . S
C1193 C1192 1.400 . S
C1193 C1194 1.398 . S
C1194 H1182 0.950 . S
C1194 C1193 1.398 . S
C1194 C1195 1.391 . S
C1195 H1183 0.950 . S
C1195 C1191 1.393 . S
C1195 C1194 1.391 . S
H1196 C1204 0.950 1_556 S
H1197 C1209 0.950 . S
H1198 C1206 0.950 . S
H1199 C1208 0.950 1_655 S
H1200 C1210 0.950 1_554 S
H1201 C1212 0.950 . S
H1202 C1214 0.950 1_455 S
H1203 C1215 0.950 . S
C1204 H1196 0.950 1_554 S
C1204 C1205 1.386 . S
C1204 C1206 1.391 1_554 S
C1205 C1204 1.386 . S
C1205 C1209 1.393 . S
C1206 H1198 0.950 . S
C1206 C1204 1.391 1_556 S
C1206 C1207 1.400 1_556 S
C1207 C1206 1.400 1_554 S
C1207 C1208 1.398 . S
C1207 C1213 1.491 1_464 S
C1208 H1199 0.950 1_455 S
C1208 C1207 1.398 . S
C1208 C1209 1.391 . S
C1209 H1197 0.950 . S
C1209 C1205 1.393 . S
C1209 C1208 1.391 . S
C1210 H1200 0.950 1_556 S
C1210 C1211 1.386 . S
C1210 C1212 1.391 1_556 S
C1211 C1210 1.386 . S
C1211 C1215 1.393 . S
C1212 H1201 0.950 . S
C1212 C1210 1.391 1_554 S
C1212 C1213 1.400 1_554 S
C1213 C1207 1.491 1_646 S
C1213 C1212 1.400 1_556 S
C1213 C1214 1.398 . S
C1214 H1202 0.950 1_655 S
C1214 C1213 1.398 . S
C1214 C1215 1.391 . S
C1215 H1203 0.950 . S
C1215 C1211 1.393 . S
C1215 C1214 1.391 . S
H1216 C1224 0.950 . S
H1217 C1229 0.950 . S
H1218 C1226 0.950 . S
H1219 C1228 0.950 . S
H1220 C1230 0.950 . S
H1221 C1232 0.950 . S
H1222 C1234 0.950 . S
H1223 C1235 0.950 . S
C1224 H1216 0.950 . S
C1224 C1225 1.386 . S
C1224 C1226 1.391 . S
C1225 C1224 1.386 . S
C1225 C1229 1.393 . S
C1226 H1218 0.950 . S
C1226 C1224 1.391 . S
C1226 C1227 1.400 . S
C1227 C1226 1.400 . S
C1227 C1228 1.398 . S
C1227 C1233 1.491 . S
C1228 H1219 0.950 . S
C1228 C1227 1.398 . S
C1228 C1229 1.391 . S
C1229 H1217 0.950 . S
C1229 C1225 1.393 . S
C1229 C1228 1.391 . S
C1230 H1220 0.950 . S
C1230 C1231 1.386 . S
C1230 C1232 1.391 . S
C1231 C1230 1.386 . S
C1231 C1235 1.393 . S
C1232 H1221 0.950 . S
C1232 C1230 1.391 . S
C1232 C1233 1.400 . S
C1233 C1227 1.491 . S
C1233 C1232 1.400 . S
C1233 C1234 1.398 . S
C1234 H1222 0.950 . S
C1234 C1233 1.398 . S
C1234 C1235 1.391 . S
C1235 H1223 0.950 . S
C1235 C1231 1.393 . S
C1235 C1234 1.391 . S
H1236 C1244 0.950 . S
H1237 C1249 0.950 . S
H1238 C1246 0.950 . S
H1239 C1248 0.950 . S
H1240 C1250 0.950 . S
H1241 C1252 0.950 . S
H1242 C1254 0.950 . S
H1243 C1255 0.950 . S
C1244 H1236 0.950 . S
C1244 C1245 1.386 . S
C1244 C1246 1.391 . S
C1245 C1244 1.386 . S
C1245 C1249 1.393 . S
C1246 H1238 0.950 . S
C1246 C1244 1.391 . S
C1246 C1247 1.400 . S
C1247 C1246 1.400 . S
C1247 C1248 1.398 . S
C1247 C1253 1.491 . S
C1248 H1239 0.950 . S
C1248 C1247 1.398 . S
C1248 C1249 1.391 . S
C1249 H1237 0.950 . S
C1249 C1245 1.393 . S
C1249 C1248 1.391 . S
C1250 H1240 0.950 . S
C1250 C1251 1.386 . S
C1250 C1252 1.391 . S
C1251 C1250 1.386 . S
C1251 C1255 1.393 . S
C1252 H1241 0.950 . S
C1252 C1250 1.391 . S
C1252 C1253 1.400 . S
C1253 C1247 1.491 . S
C1253 C1252 1.400 . S
C1253 C1254 1.398 . S
C1254 H1242 0.950 . S
C1254 C1253 1.398 . S
C1254 C1255 1.391 . S
C1255 H1243 0.950 . S
C1255 C1251 1.393 . S
C1255 C1254 1.391 . S
H1256 C1264 0.950 . S
H1257 C1269 0.950 . S
H1258 C1266 0.950 . S
H1259 C1268 0.950 . S
H1260 C1270 0.950 . S
H1261 C1272 0.950 . S
H1262 C1274 0.950 . S
H1263 C1275 0.950 . S
C1264 H1256 0.950 . S
C1264 C1265 1.386 . S
C1264 C1266 1.391 . S
C1265 C1264 1.386 . S
C1265 C1269 1.393 . S
C1266 H1258 0.950 . S
C1266 C1264 1.391 . S
C1266 C1267 1.400 . S
C1267 C1266 1.400 . S
C1267 C1268 1.398 . S
C1267 C1273 1.491 . S
C1268 H1259 0.950 . S
C1268 C1267 1.398 . S
C1268 C1269 1.391 . S
C1269 H1257 0.950 . S
C1269 C1265 1.393 . S
C1269 C1268 1.391 . S
C1270 H1260 0.950 . S
C1270 C1271 1.386 . S
C1270 C1272 1.391 . S
C1271 C1270 1.386 . S
C1271 C1275 1.393 . S
C1272 H1261 0.950 . S
C1272 C1270 1.391 . S
C1272 C1273 1.400 . S
C1273 C1267 1.491 . S
C1273 C1272 1.400 . S
C1273 C1274 1.398 . S
C1274 H1262 0.950 . S
C1274 C1273 1.398 . S
C1274 C1275 1.391 . S
C1275 H1263 0.950 . S
C1275 C1271 1.393 . S
C1275 C1274 1.391 . S
H1276 C1284 0.950 . S
H1277 C1289 0.950 . S
H1278 C1286 0.950 . S
H1279 C1288 0.950 . S
H1280 C1290 0.950 . S
H1281 C1292 0.950 . S
H1282 C1294 0.950 . S
H1283 C1295 0.950 . S
C1284 H1276 0.950 . S
C1284 C1285 1.386 . S
C1284 C1286 1.391 . S
C1285 C1284 1.386 . S
C1285 C1289 1.393 . S
C1286 H1278 0.950 . S
C1286 C1284 1.391 . S
C1286 C1287 1.400 . S
C1287 C1286 1.400 . S
C1287 C1288 1.398 . S
C1287 C1293 1.491 . S
C1288 H1279 0.950 . S
C1288 C1287 1.398 . S
C1288 C1289 1.391 . S
C1289 H1277 0.950 . S
C1289 C1285 1.393 . S
C1289 C1288 1.391 . S
C1290 H1280 0.950 . S
C1290 C1291 1.386 . S
C1290 C1292 1.391 . S
C1291 C1290 1.386 . S
C1291 C1295 1.393 . S
C1292 H1281 0.950 . S
C1292 C1290 1.391 . S
C1292 C1293 1.400 . S
C1293 C1287 1.491 . S
C1293 C1292 1.400 . S
C1293 C1294 1.398 . S
C1294 H1282 0.950 . S
C1294 C1293 1.398 . S
C1294 C1295 1.391 . S
C1295 H1283 0.950 . S
C1295 C1291 1.393 . S
C1295 C1294 1.391 . S
H1296 C1304 0.950 1_554 S
H1297 C1309 0.950 . S
H1298 C1306 0.950 . S
H1299 C1308 0.950 . S
H1300 C1310 0.950 1_556 S
H1301 C1312 0.950 . S
H1302 C1314 0.950 . S
H1303 C1315 0.950 . S
C1304 H1296 0.950 1_556 S
C1304 C1305 1.386 . S
C1304 C1306 1.391 1_556 S
C1305 C1304 1.386 . S
C1305 C1309 1.393 . S
C1306 H1298 0.950 . S
C1306 C1304 1.391 1_554 S
C1306 C1307 1.400 1_554 S
C1307 C1306 1.400 1_556 S
C1307 C1308 1.398 . S
C1307 C1313 1.491 1_556 S
C1308 H1299 0.950 . S
C1308 C1307 1.398 . S
C1308 C1309 1.391 . S
C1309 H1297 0.950 . S
C1309 C1305 1.393 . S
C1309 C1308 1.391 . S
C1310 H1300 0.950 1_554 S
C1310 C1311 1.386 . S
C1310 C1312 1.391 1_554 S
C1311 C1310 1.386 . S
C1311 C1315 1.393 . S
C1312 H1301 0.950 . S
C1312 C1310 1.391 1_556 S
C1312 C1313 1.400 1_556 S
C1313 C1307 1.491 1_554 S
C1313 C1312 1.400 1_554 S
C1313 C1314 1.398 . S
C1314 H1302 0.950 . S
C1314 C1313 1.398 . S
C1314 C1315 1.391 . S
C1315 H1303 0.950 . S
C1315 C1311 1.393 . S
C1315 C1314 1.391 . S
H1316 C1324 0.950 . S
H1317 C1329 0.950 . S
H1318 C1326 0.950 . S
H1319 C1328 0.950 . S
H1320 C1330 0.950 . S
H1321 C1332 0.950 . S
H1322 C1334 0.950 . S
H1323 C1335 0.950 . S
C1324 H1316 0.950 . S
C1324 C1325 1.386 . S
C1324 C1326 1.391 1_455 S
C1325 C1324 1.386 . S
C1325 C1329 1.393 . S
C1326 H1318 0.950 . S
C1326 C1324 1.391 1_655 S
C1326 C1327 1.400 1_655 S
C1327 C1326 1.400 1_455 S
C1327 C1328 1.398 . S
C1327 C1333 1.491 1_455 S
C1328 H1319 0.950 . S
C1328 C1327 1.398 . S
C1328 C1329 1.391 . S
C1329 H1317 0.950 . S
C1329 C1325 1.393 . S
C1329 C1328 1.391 . S
C1330 H1320 0.950 . S
C1330 C1331 1.386 . S
C1330 C1332 1.391 1_655 S
C1331 C1330 1.386 . S
C1331 C1335 1.393 . S
C1332 H1321 0.950 . S
C1332 C1330 1.391 1_455 S
C1332 C1333 1.400 1_455 S
C1333 C1327 1.491 1_655 S
C1333 C1332 1.400 1_655 S
C1333 C1334 1.398 . S
C1334 H1322 0.950 . S
C1334 C1333 1.398 . S
C1334 C1335 1.391 . S
C1335 H1323 0.950 . S
C1335 C1331 1.393 . S
C1335 C1334 1.391 . S
H1336 C1344 0.950 . S
H1337 C1349 0.950 . S
H1338 C1346 0.981 1_655 S
H1339 C1348 0.950 . S
H1340 C1350 0.950 . S
H1341 C1352 0.981 1_455 S
H1342 C1354 0.950 . S
H1343 C1355 0.950 . S
C1344 H1336 0.950 . S
C1344 C1345 1.386 . S
C1344 C1346 1.373 1_556 S
C1345 C1344 1.386 . S
C1345 C1349 1.393 . S
C1346 H1338 0.981 1_455 S
C1346 C1344 1.373 1_554 S
C1346 C1347 1.390 1_554 S
C1347 C1346 1.390 1_556 S
C1347 C1348 1.398 . S
C1347 C1353 1.491 1_456 S
C1348 H1339 0.950 . S
C1348 C1347 1.398 . S
C1348 C1349 1.391 . S
C1349 H1337 0.950 . S
C1349 C1345 1.393 . S
C1349 C1348 1.391 . S
C1350 H1340 0.950 . S
C1350 C1351 1.386 . S
C1350 C1352 1.373 1_554 S
C1351 C1350 1.386 . S
C1351 C1355 1.393 . S
C1352 H1341 0.981 1_655 S
C1352 C1350 1.373 1_556 S
C1352 C1353 1.390 1_556 S
C1353 C1347 1.491 1_654 S
C1353 C1352 1.390 1_554 S
C1353 C1354 1.398 . S
C1354 H1342 0.950 . S
C1354 C1353 1.398 . S
C1354 C1355 1.391 . S
C1355 H1343 0.950 . S
C1355 C1351 1.393 . S
C1355 C1354 1.391 . S
H1356 C1364 0.950 . S
H1357 C1369 0.950 . S
H1358 C1366 0.950 . S
H1359 C1368 0.950 . S
H1360 C1370 0.950 . S
H1361 C1372 0.950 . S
H1362 C1374 0.950 . S
H1363 C1375 0.950 . S
C1364 H1356 0.950 . S
C1364 C1365 1.386 . S
C1364 C1366 1.391 . S
C1365 C1364 1.386 . S
C1365 C1369 1.393 . S
C1366 H1358 0.950 . S
C1366 C1364 1.391 . S
C1366 C1367 1.400 . S
C1367 C1366 1.400 . S
C1367 C1368 1.398 . S
C1367 C1373 1.491 . S
C1368 H1359 0.950 . S
C1368 C1367 1.398 . S
C1368 C1369 1.391 . S
C1369 H1357 0.950 . S
C1369 C1365 1.393 . S
C1369 C1368 1.391 . S
C1370 H1360 0.950 . S
C1370 C1371 1.386 . S
C1370 C1372 1.391 . S
C1371 C1370 1.386 . S
C1371 C1375 1.393 . S
C1372 H1361 0.950 . S
C1372 C1370 1.391 . S
C1372 C1373 1.400 . S
C1373 C1367 1.491 . S
C1373 C1372 1.400 . S
C1373 C1374 1.398 . S
C1374 H1362 0.950 . S
C1374 C1373 1.398 . S
C1374 C1375 1.391 . S
C1375 H1363 0.950 . S
C1375 C1371 1.393 . S
C1375 C1374 1.391 . S
H1376 C1384 0.950 . S
H1377 C1389 0.950 . S
H1378 C1386 0.950 . S
H1379 C1388 0.950 . S
H1380 C1390 0.950 . S
H1381 C1392 0.950 . S
H1382 C1394 0.950 . S
H1383 C1395 0.950 . S
C1384 H1376 0.950 . S
C1384 C1385 1.386 . S
C1384 C1386 1.391 . S
C1385 C1384 1.386 . S
C1385 C1389 1.393 . S
C1386 H1378 0.950 . S
C1386 C1384 1.391 . S
C1386 C1387 1.400 . S
C1387 C1386 1.400 . S
C1387 C1388 1.398 . S
C1387 C1393 1.491 . S
C1388 H1379 0.950 . S
C1388 C1387 1.398 . S
C1388 C1389 1.391 . S
C1389 H1377 0.950 . S
C1389 C1385 1.393 . S
C1389 C1388 1.391 . S
C1390 H1380 0.950 . S
C1390 C1391 1.386 . S
C1390 C1392 1.391 . S
C1391 C1390 1.386 . S
C1391 C1395 1.393 . S
C1392 H1381 0.950 . S
C1392 C1390 1.391 . S
C1392 C1393 1.400 . S
C1393 C1387 1.491 . S
C1393 C1392 1.400 . S
C1393 C1394 1.398 . S
C1394 H1382 0.950 . S
C1394 C1393 1.398 . S
C1394 C1395 1.391 . S
C1395 H1383 0.950 . S
C1395 C1391 1.393 . S
C1395 C1394 1.391 . S
H1396 C1404 0.950 . S
H1397 C1409 0.950 . S
H1398 C1406 0.950 . S
H1399 C1408 0.950 1_455 S
H1400 C1410 0.950 . S
H1401 C1412 0.950 . S
H1402 C1414 0.950 . S
H1403 C1415 0.950 . S
C1404 H1396 0.950 . S
C1404 C1405 1.386 . S
C1404 C1406 1.391 . S
C1405 C1404 1.386 . S
C1405 C1409 1.393 . S
C1406 H1398 0.950 . S
C1406 C1404 1.391 . S
C1406 C1407 1.400 1_655 S
C1407 C1406 1.400 1_455 S
C1407 C1408 1.398 1_455 S
C1407 C1413 1.491 . S
C1408 H1399 0.950 1_655 S
C1408 C1407 1.398 1_655 S
C1408 C1409 1.391 . S
C1409 H1397 0.950 . S
C1409 C1405 1.393 . S
C1409 C1408 1.391 . S
C1410 H1400 0.950 . S
C1410 C1411 1.386 . S
C1410 C1412 1.391 . S
C1411 C1410 1.386 . S
C1411 C1415 1.393 . S
C1412 H1401 0.950 . S
C1412 C1410 1.391 . S
C1412 C1413 1.400 . S
C1413 C1407 1.491 . S
C1413 C1412 1.400 . S
C1413 C1414 1.398 . S
C1414 H1402 0.950 . S
C1414 C1413 1.398 . S
C1414 C1415 1.391 . S
C1415 H1403 0.950 . S
C1415 C1411 1.393 . S
C1415 C1414 1.391 . S
H1416 C1424 0.950 . S
H1417 C1429 0.950 . S
H1418 C1426 0.950 . S
H1419 C1428 0.950 . S
H1420 C1430 0.950 . S
H1421 C1432 0.950 . S
H1422 C1434 0.950 . S
H1423 C1435 0.950 . S
C1424 H1416 0.950 . S
C1424 C1425 1.386 . S
C1424 C1426 1.391 . S
C1425 C1424 1.386 . S
C1425 C1429 1.393 . S
C1426 H1418 0.950 . S
C1426 C1424 1.391 . S
C1426 C1427 1.400 . S
C1427 C1426 1.400 . S
C1427 C1428 1.398 . S
C1427 C1433 1.491 . S
C1428 H1419 0.950 . S
C1428 C1427 1.398 . S
C1428 C1429 1.391 . S
C1429 H1417 0.950 . S
C1429 C1425 1.393 . S
C1429 C1428 1.391 . S
C1430 H1420 0.950 . S
C1430 C1431 1.386 . S
C1430 C1432 1.391 . S
C1431 C1430 1.386 . S
C1431 C1435 1.393 . S
C1432 H1421 0.950 . S
C1432 C1430 1.391 . S
C1432 C1433 1.400 . S
C1433 C1427 1.491 . S
C1433 C1432 1.400 . S
C1433 C1434 1.398 . S
C1434 H1422 0.950 . S
C1434 C1433 1.398 . S
C1434 C1435 1.391 . S
C1435 H1423 0.950 . S
C1435 C1431 1.393 . S
C1435 C1434 1.391 . S
H1436 C1444 0.950 . S
H1437 C1449 0.950 . S
H1438 C1446 0.950 . S
H1439 C1448 0.950 . S
H1440 C1450 0.950 . S
H1441 C1452 0.950 . S
H1442 C1454 0.950 . S
H1443 C1455 0.950 . S
C1444 H1436 0.950 . S
C1444 C1445 1.386 . S
C1444 C1446 1.391 . S
C1445 C1444 1.386 . S
C1445 C1449 1.393 . S
C1446 H1438 0.950 . S
C1446 C1444 1.391 . S
C1446 C1447 1.400 . S
C1447 C1446 1.400 . S
C1447 C1448 1.398 . S
C1447 C1453 1.491 . S
C1448 H1439 0.950 . S
C1448 C1447 1.398 . S
C1448 C1449 1.391 . S
C1449 H1437 0.950 . S
C1449 C1445 1.393 . S
C1449 C1448 1.391 . S
C1450 H1440 0.950 . S
C1450 C1451 1.386 . S
C1450 C1452 1.391 . S
C1451 C1450 1.386 . S
C1451 C1455 1.393 . S
C1452 H1441 0.950 . S
C1452 C1450 1.391 . S
C1452 C1453 1.400 . S
C1453 C1447 1.491 . S
C1453 C1452 1.400 . S
C1453 C1454 1.398 . S
C1454 H1442 0.950 . S
C1454 C1453 1.398 . S
C1454 C1455 1.391 . S
C1455 H1443 0.950 . S
C1455 C1451 1.393 . S
C1455 C1454 1.391 . S
H1456 C1464 0.950 . S
H1457 C1469 0.950 . S
H1458 C1466 0.950 . S
H1459 C1468 0.950 . S
H1460 C1470 0.950 . S
H1461 C1472 0.950 . S
H1462 C1474 0.950 . S
H1463 C1475 0.950 . S
C1464 H1456 0.950 . S
C1464 C1465 1.386 . S
C1464 C1466 1.391 . S
C1465 C1464 1.386 . S
C1465 C1469 1.393 . S
C1466 H1458 0.950 . S
C1466 C1464 1.391 . S
C1466 C1467 1.400 . S
C1467 C1466 1.400 . S
C1467 C1468 1.398 . S
C1467 C1473 1.491 . S
C1468 H1459 0.950 . S
C1468 C1467 1.398 . S
C1468 C1469 1.391 . S
C1469 H1457 0.950 . S
C1469 C1465 1.393 . S
C1469 C1468 1.391 . S
C1470 H1460 0.950 . S
C1470 C1471 1.386 . S
C1470 C1472 1.391 . S
C1471 C1470 1.386 . S
C1471 C1475 1.393 . S
C1472 H1461 0.950 . S
C1472 C1470 1.391 . S
C1472 C1473 1.400 . S
C1473 C1467 1.491 . S
C1473 C1472 1.400 . S
C1473 C1474 1.398 . S
C1474 H1462 0.950 . S
C1474 C1473 1.398 . S
C1474 C1475 1.391 . S
C1475 H1463 0.950 . S
C1475 C1471 1.393 . S
C1475 C1474 1.391 . S
H1476 C1484 0.950 . S
H1477 C1489 0.950 . S
H1478 C1486 0.950 . S
H1479 C1488 0.950 . S
H1480 C1490 0.950 . S
H1481 C1492 0.950 . S
H1482 C1494 0.950 . S
H1483 C1495 0.950 . S
C1484 H1476 0.950 . S
C1484 C1485 1.386 . S
C1484 C1486 1.391 . S
C1485 C1484 1.386 . S
C1485 C1489 1.393 . S
C1486 H1478 0.950 . S
C1486 C1484 1.391 . S
C1486 C1487 1.400 . S
C1487 C1486 1.400 . S
C1487 C1488 1.398 . S
C1487 C1493 1.491 . S
C1488 H1479 0.950 . S
C1488 C1487 1.398 . S
C1488 C1489 1.391 . S
C1489 H1477 0.950 . S
C1489 C1485 1.393 . S
C1489 C1488 1.391 . S
C1490 H1480 0.950 . S
C1490 C1491 1.386 . S
C1490 C1492 1.391 . S
C1491 C1490 1.386 . S
C1491 C1495 1.393 . S
C1492 H1481 0.950 . S
C1492 C1490 1.391 . S
C1492 C1493 1.400 . S
C1493 C1487 1.491 . S
C1493 C1492 1.400 . S
C1493 C1494 1.398 . S
C1494 H1482 0.950 . S
C1494 C1493 1.398 . S
C1494 C1495 1.391 . S
C1495 H1483 0.950 . S
C1495 C1491 1.393 . S
C1495 C1494 1.391 . S
H1496 C1504 0.950 . S
H1497 C1509 0.950 . S
H1498 C1506 0.950 . S
H1499 C1508 0.950 . S
H1500 C1510 0.950 . S
H1501 C1512 0.950 . S
H1502 C1514 0.950 . S
H1503 C1515 0.950 . S
C1504 H1496 0.950 . S
C1504 C1505 1.386 . S
C1504 C1506 1.391 . S
C1505 C1504 1.386 . S
C1505 C1509 1.393 . S
C1506 H1498 0.950 . S
C1506 C1504 1.391 . S
C1506 C1507 1.400 . S
C1507 C1506 1.400 . S
C1507 C1508 1.398 . S
C1507 C1513 1.491 . S
C1508 H1499 0.950 . S
C1508 C1507 1.398 . S
C1508 C1509 1.391 . S
C1509 H1497 0.950 . S
C1509 C1505 1.393 . S
C1509 C1508 1.391 . S
C1510 H1500 0.950 . S
C1510 C1511 1.386 . S
C1510 C1512 1.391 . S
C1511 C1510 1.386 . S
C1511 C1515 1.393 . S
C1512 H1501 0.950 . S
C1512 C1510 1.391 . S
C1512 C1513 1.400 . S
C1513 C1507 1.491 . S
C1513 C1512 1.400 . S
C1513 C1514 1.398 . S
C1514 H1502 0.950 . S
C1514 C1513 1.398 . S
C1514 C1515 1.391 . S
C1515 H1503 0.950 . S
C1515 C1511 1.393 . S
C1515 C1514 1.391 . S
H1516 C1524 0.950 . S
H1517 C1529 0.950 . S
H1518 C1526 0.950 . S
H1519 C1528 0.950 . S
H1520 C1530 0.950 . S
H1521 C1532 0.950 . S
H1522 C1534 0.950 . S
H1523 C1535 0.950 . S
C1524 H1516 0.950 . S
C1524 C1525 1.386 . S
C1524 C1526 1.391 . S
C1525 C1524 1.386 . S
C1525 C1529 1.393 . S
C1526 H1518 0.950 . S
C1526 C1524 1.391 . S
C1526 C1527 1.400 1_655 S
C1527 C1526 1.400 1_455 S
C1527 C1528 1.398 . S
C1527 C1533 1.491 . S
C1528 H1519 0.950 . S
C1528 C1527 1.398 . S
C1528 C1529 1.391 1_455 S
C1529 H1517 0.950 . S
C1529 C1525 1.393 . S
C1529 C1528 1.391 1_655 S
C1530 H1520 0.950 . S
C1530 C1531 1.386 . S
C1530 C1532 1.391 . S
C1531 C1530 1.386 . S
C1531 C1535 1.393 . S
C1532 H1521 0.950 . S
C1532 C1530 1.391 . S
C1532 C1533 1.400 . S
C1533 C1527 1.491 . S
C1533 C1532 1.400 . S
C1533 C1534 1.398 . S
C1534 H1522 0.950 . S
C1534 C1533 1.398 . S
C1534 C1535 1.391 . S
C1535 H1523 0.950 . S
C1535 C1531 1.393 . S
C1535 C1534 1.391 . S
H1536 C1544 0.950 . S
H1537 C1549 0.950 . S
H1538 C1546 0.950 . S
H1539 C1548 0.950 . S
H1540 C1550 0.950 . S
H1541 C1552 0.950 . S
H1542 C1554 0.950 . S
H1543 C1555 0.950 . S
C1544 H1536 0.950 . S
C1544 C1545 1.386 . S
C1544 C1546 1.391 . S
C1545 C1544 1.386 . S
C1545 C1549 1.393 . S
C1546 H1538 0.950 . S
C1546 C1544 1.391 . S
C1546 C1547 1.400 . S
C1547 C1546 1.400 . S
C1547 C1548 1.398 . S
C1547 C1553 1.491 . S
C1548 H1539 0.950 . S
C1548 C1547 1.398 . S
C1548 C1549 1.391 . S
C1549 H1537 0.950 . S
C1549 C1545 1.393 . S
C1549 C1548 1.391 . S
C1550 H1540 0.950 . S
C1550 C1551 1.386 . S
C1550 C1552 1.391 . S
C1551 C1550 1.386 . S
C1551 C1555 1.393 . S
C1552 H1541 0.950 . S
C1552 C1550 1.391 . S
C1552 C1553 1.400 . S
C1553 C1547 1.491 . S
C1553 C1552 1.400 . S
C1553 C1554 1.398 . S
C1554 H1542 0.950 . S
C1554 C1553 1.398 . S
C1554 C1555 1.391 . S
C1555 H1543 0.950 . S
C1555 C1551 1.393 . S
C1555 C1554 1.391 . S
H1556 C1564 0.950 . S
H1557 C1569 0.950 . S
H1558 C1566 0.950 . S
H1559 C1568 0.950 . S
H1560 C1570 0.950 . S
H1561 C1572 0.950 . S
H1562 C1574 0.950 . S
H1563 C1575 0.950 . S
C1564 H1556 0.950 . S
C1564 C1565 1.386 . S
C1564 C1566 1.391 . S
C1565 C1564 1.386 . S
C1565 C1569 1.393 . S
C1566 H1558 0.950 . S
C1566 C1564 1.391 . S
C1566 C1567 1.400 1_455 S
C1567 C1566 1.400 1_655 S
C1567 C1568 1.398 . S
C1567 C1573 1.491 . S
C1568 H1559 0.950 . S
C1568 C1567 1.398 . S
C1568 C1569 1.391 1_655 S
C1569 H1557 0.950 . S
C1569 C1565 1.393 . S
C1569 C1568 1.391 1_455 S
C1570 H1560 0.950 . S
C1570 C1571 1.386 . S
C1570 C1572 1.391 . S
C1571 C1570 1.386 . S
C1571 C1575 1.393 . S
C1572 H1561 0.950 . S
C1572 C1570 1.391 . S
C1572 C1573 1.400 . S
C1573 C1567 1.491 . S
C1573 C1572 1.400 . S
C1573 C1574 1.398 . S
C1574 H1562 0.950 . S
C1574 C1573 1.398 . S
C1574 C1575 1.391 . S
C1575 H1563 0.950 . S
C1575 C1571 1.393 . S
C1575 C1574 1.391 . S
H1576 C1584 0.950 . S
H1577 C1589 0.950 . S
H1578 C1586 0.950 . S
H1579 C1588 0.950 . S
H1580 C1590 0.950 . S
H1581 C1592 0.950 . S
H1582 C1594 0.950 . S
H1583 C1595 0.950 . S
C1584 H1576 0.950 . S
C1584 C1585 1.386 . S
C1584 C1586 1.391 . S
C1585 C1584 1.386 . S
C1585 C1589 1.393 . S
C1586 H1578 0.950 . S
C1586 C1584 1.391 . S
C1586 C1587 1.400 . S
C1587 C1586 1.400 . S
C1587 C1588 1.398 . S
C1587 C1593 1.491 . S
C1588 H1579 0.950 . S
C1588 C1587 1.398 . S
C1588 C1589 1.391 . S
C1589 H1577 0.950 . S
C1589 C1585 1.393 . S
C1589 C1588 1.391 . S
C1590 H1580 0.950 . S
C1590 C1591 1.386 . S
C1590 C1592 1.391 . S
C1591 C1590 1.386 . S
C1591 C1595 1.393 . S
C1592 H1581 0.950 . S
C1592 C1590 1.391 . S
C1592 C1593 1.400 . S
C1593 C1587 1.491 . S
C1593 C1592 1.400 . S
C1593 C1594 1.398 . S
C1594 H1582 0.950 . S
C1594 C1593 1.398 . S
C1594 C1595 1.391 . S
C1595 H1583 0.950 . S
C1595 C1591 1.393 . S
C1595 C1594 1.391 . S
H1596 C1604 0.950 . S
H1597 C1609 0.950 . S
H1598 C1606 0.950 . S
H1599 C1608 0.950 . S
H1600 C1610 0.950 . S
H1601 C1612 0.950 . S
H1602 C1614 0.950 . S
H1603 C1615 0.950 . S
C1604 H1596 0.950 . S
C1604 C1605 1.386 . S
C1604 C1606 1.391 . S
C1605 C1604 1.386 . S
C1605 C1609 1.393 . S
C1606 H1598 0.950 . S
C1606 C1604 1.391 . S
C1606 C1607 1.400 . S
C1607 C1606 1.400 . S
C1607 C1608 1.398 . S
C1607 C1613 1.491 . S
C1608 H1599 0.950 . S
C1608 C1607 1.398 . S
C1608 C1609 1.391 . S
C1609 H1597 0.950 . S
C1609 C1605 1.393 . S
C1609 C1608 1.391 . S
C1610 H1600 0.950 . S
C1610 C1611 1.386 . S
C1610 C1612 1.391 . S
C1611 C1610 1.386 . S
C1611 C1615 1.393 . S
C1612 H1601 0.950 . S
C1612 C1610 1.391 . S
C1612 C1613 1.400 . S
C1613 C1607 1.491 . S
C1613 C1612 1.400 . S
C1613 C1614 1.398 . S
C1614 H1602 0.950 . S
C1614 C1613 1.398 . S
C1614 C1615 1.391 . S
C1615 H1603 0.950 . S
C1615 C1611 1.393 . S
C1615 C1614 1.391 . S
H1616 C1624 0.950 . S
H1617 C1629 0.950 . S
H1618 C1626 0.950 . S
H1619 C1628 0.950 . S
H1620 C1630 0.950 . S
H1621 C1632 0.950 . S
H1622 C1634 0.950 . S
H1623 C1635 0.950 . S
C1624 H1616 0.950 . S
C1624 C1625 1.386 . S
C1624 C1626 1.391 . S
C1625 C1624 1.386 . S
C1625 C1629 1.393 . S
C1626 H1618 0.950 . S
C1626 C1624 1.391 . S
C1626 C1627 1.400 . S
C1627 C1626 1.400 . S
C1627 C1628 1.398 . S
C1627 C1633 1.491 . S
C1628 H1619 0.950 . S
C1628 C1627 1.398 . S
C1628 C1629 1.391 . S
C1629 H1617 0.950 . S
C1629 C1625 1.393 . S
C1629 C1628 1.391 . S
C1630 H1620 0.950 . S
C1630 C1631 1.386 . S
C1630 C1632 1.391 . S
C1631 C1630 1.386 . S
C1631 C1635 1.393 . S
C1632 H1621 0.950 . S
C1632 C1630 1.391 . S
C1632 C1633 1.400 . S
C1633 C1627 1.491 . S
C1633 C1632 1.400 . S
C1633 C1634 1.398 . S
C1634 H1622 0.950 . S
C1634 C1633 1.398 . S
C1634 C1635 1.391 . S
C1635 H1623 0.950 . S
C1635 C1631 1.393 . S
C1635 C1634 1.391 . S
H1636 C1644 0.950 . S
H1637 C1649 0.950 . S
H1638 C1646 0.950 . S
H1639 C1648 0.950 . S
H1640 C1650 0.950 . S
H1641 C1652 0.950 . S
H1642 C1654 0.950 . S
H1643 C1655 0.950 . S
C1644 H1636 0.950 . S
C1644 C1645 1.386 . S
C1644 C1646 1.391 . S
C1645 C1644 1.386 . S
C1645 C1649 1.393 . S
C1646 H1638 0.950 . S
C1646 C1644 1.391 . S
C1646 C1647 1.400 . S
C1647 C1646 1.400 . S
C1647 C1648 1.398 . S
C1647 C1653 1.491 . S
C1648 H1639 0.950 . S
C1648 C1647 1.398 . S
C1648 C1649 1.391 . S
C1649 H1637 0.950 . S
C1649 C1645 1.393 . S
C1649 C1648 1.391 . S
C1650 H1640 0.950 . S
C1650 C1651 1.386 . S
C1650 C1652 1.391 . S
C1651 C1650 1.386 . S
C1651 C1655 1.393 . S
C1652 H1641 0.950 . S
C1652 C1650 1.391 . S
C1652 C1653 1.400 . S
C1653 C1647 1.491 . S
C1653 C1652 1.400 . S
C1653 C1654 1.398 . S
C1654 H1642 0.950 . S
C1654 C1653 1.398 . S
C1654 C1655 1.391 . S
C1655 H1643 0.950 . S
C1655 C1651 1.393 . S
C1655 C1654 1.391 . S
H1656 C1664 0.950 . S
H1657 C1669 0.950 . S
H1658 C1666 0.950 . S
H1659 C1668 0.950 . S
H1660 C1670 0.950 . S
H1661 C1672 0.950 . S
H1662 C1674 0.950 . S
H1663 C1675 0.950 . S
C1664 H1656 0.950 . S
C1664 C1665 1.386 . S
C1664 C1666 1.391 . S
C1665 C1664 1.386 . S
C1665 C1669 1.393 . S
C1666 H1658 0.950 . S
C1666 C1664 1.391 . S
C1666 C1667 1.400 . S
C1667 C1666 1.400 . S
C1667 C1668 1.398 . S
C1667 C1673 1.491 . S
C1668 H1659 0.950 . S
C1668 C1667 1.398 . S
C1668 C1669 1.391 . S
C1669 H1657 0.950 . S
C1669 C1665 1.393 . S
C1669 C1668 1.391 . S
C1670 H1660 0.950 . S
C1670 C1671 1.386 . S
C1670 C1672 1.391 . S
C1671 C1670 1.386 . S
C1671 C1675 1.393 . S
C1672 H1661 0.950 . S
C1672 C1670 1.391 . S
C1672 C1673 1.400 . S
C1673 C1667 1.491 . S
C1673 C1672 1.400 . S
C1673 C1674 1.398 . S
C1674 H1662 0.950 . S
C1674 C1673 1.398 . S
C1674 C1675 1.391 . S
C1675 H1663 0.950 . S
C1675 C1671 1.393 . S
C1675 C1674 1.391 . S
H1676 C1684 0.950 . S
H1677 C1689 0.950 . S
H1678 C1686 0.950 . S
H1679 C1688 0.950 . S
H1680 C1690 0.950 . S
H1681 C1692 0.950 . S
H1682 C1694 0.950 . S
H1683 C1695 0.950 . S
C1684 H1676 0.950 . S
C1684 C1685 1.386 . S
C1684 C1686 1.391 . S
C1685 C1684 1.386 . S
C1685 C1689 1.393 . S
C1686 H1678 0.950 . S
C1686 C1684 1.391 . S
C1686 C1687 1.400 . S
C1687 C1686 1.400 . S
C1687 C1688 1.398 . S
C1687 C1693 1.491 . S
C1688 H1679 0.950 . S
C1688 C1687 1.398 . S
C1688 C1689 1.391 . S
C1689 H1677 0.950 . S
C1689 C1685 1.393 . S
C1689 C1688 1.391 . S
C1690 H1680 0.950 . S
C1690 C1691 1.386 . S
C1690 C1692 1.391 . S
C1691 C1690 1.386 . S
C1691 C1695 1.393 . S
C1692 H1681 0.950 . S
C1692 C1690 1.391 . S
C1692 C1693 1.400 1_455 S
C1693 C1687 1.491 . S
C1693 C1692 1.400 1_655 S
C1693 C1694 1.398 . S
C1694 H1682 0.950 . S
C1694 C1693 1.398 . S
C1694 C1695 1.391 1_655 S
C1695 H1683 0.950 . S
C1695 C1691 1.393 . S
C1695 C1694 1.391 1_455 S
H1696 C1704 0.950 . S
H1697 C1709 0.950 . S
H1698 C1706 0.950 . S
H1699 C1708 0.950 . S
H1700 C1710 0.950 . S
H1701 C1712 0.950 . S
H1702 C1714 0.950 . S
H1703 C1715 0.950 . S
C1704 H1696 0.950 . S
C1704 C1705 1.386 . S
C1704 C1706 1.391 . S
C1705 C1704 1.386 . S
C1705 C1709 1.393 . S
C1706 H1698 0.950 . S
C1706 C1704 1.391 . S
C1706 C1707 1.400 . S
C1707 C1706 1.400 . S
C1707 C1708 1.398 . S
C1707 C1713 1.491 . S
C1708 H1699 0.950 . S
C1708 C1707 1.398 . S
C1708 C1709 1.391 . S
C1709 H1697 0.950 . S
C1709 C1705 1.393 . S
C1709 C1708 1.391 . S
C1710 H1700 0.950 . S
C1710 C1711 1.386 . S
C1710 C1712 1.391 . S
C1711 C1710 1.386 . S
C1711 C1715 1.393 . S
C1712 H1701 0.950 . S
C1712 C1710 1.391 . S
C1712 C1713 1.400 . S
C1713 C1707 1.491 . S
C1713 C1712 1.400 . S
C1713 C1714 1.398 . S
C1714 H1702 0.950 . S
C1714 C1713 1.398 . S
C1714 C1715 1.391 . S
C1715 H1703 0.950 . S
C1715 C1711 1.393 . S
C1715 C1714 1.391 . S
H1716 C1724 0.950 . S
H1717 C1729 0.950 . S
H1718 C1726 0.950 . S
H1719 C1728 0.950 . S
H1720 C1730 0.950 . S
H1721 C1732 0.950 . S
H1722 C1734 0.950 . S
H1723 C1735 0.950 . S
C1724 H1716 0.950 . S
C1724 C1725 1.386 . S
C1724 C1726 1.391 . S
C1725 C1724 1.386 . S
C1725 C1729 1.393 . S
C1726 H1718 0.950 . S
C1726 C1724 1.391 . S
C1726 C1727 1.400 . S
C1727 C1726 1.400 . S
C1727 C1728 1.398 . S
C1727 C1733 1.491 . S
C1728 H1719 0.950 . S
C1728 C1727 1.398 . S
C1728 C1729 1.391 . S
C1729 H1717 0.950 . S
C1729 C1725 1.393 . S
C1729 C1728 1.391 . S
C1730 H1720 0.950 . S
C1730 C1731 1.386 . S
C1730 C1732 1.391 . S
C1731 C1730 1.386 . S
C1731 C1735 1.393 . S
C1732 H1721 0.950 . S
C1732 C1730 1.391 . S
C1732 C1733 1.400 . S
C1733 C1727 1.491 . S
C1733 C1732 1.400 . S
C1733 C1734 1.398 . S
C1734 H1722 0.950 . S
C1734 C1733 1.398 . S
C1734 C1735 1.391 . S
C1735 H1723 0.950 . S
C1735 C1731 1.393 . S
C1735 C1734 1.391 . S
H1736 C1744 0.950 . S
H1737 C1749 0.950 . S
H1738 C1746 0.950 . S
H1739 C1748 0.950 . S
H1740 C1750 0.950 . S
H1741 C1752 0.950 . S
H1742 C1754 0.950 . S
H1743 C1755 0.950 . S
C1744 H1736 0.950 . S
C1744 C1745 1.386 . S
C1744 C1746 1.391 . S
C1745 C1744 1.386 . S
C1745 C1749 1.393 . S
C1746 H1738 0.950 . S
C1746 C1744 1.391 . S
C1746 C1747 1.400 . S
C1747 C1746 1.400 . S
C1747 C1748 1.398 . S
C1747 C1753 1.491 . S
C1748 H1739 0.950 . S
C1748 C1747 1.398 . S
C1748 C1749 1.391 . S
C1749 H1737 0.950 . S
C1749 C1745 1.393 . S
C1749 C1748 1.391 . S
C1750 H1740 0.950 . S
C1750 C1751 1.386 . S
C1750 C1752 1.391 . S
C1751 C1750 1.386 . S
C1751 C1755 1.393 . S
C1752 H1741 0.950 . S
C1752 C1750 1.391 . S
C1752 C1753 1.400 . S
C1753 C1747 1.491 . S
C1753 C1752 1.400 . S
C1753 C1754 1.398 . S
C1754 H1742 0.950 . S
C1754 C1753 1.398 . S
C1754 C1755 1.391 . S
C1755 H1743 0.950 . S
C1755 C1751 1.393 . S
C1755 C1754 1.391 . S
H1756 C1764 0.950 . S
H1757 C1769 0.950 . S
H1758 C1766 0.950 . S
H1759 C1768 0.950 . S
H1760 C1770 0.950 . S
H1761 C1772 0.950 . S
H1762 C1774 0.980 . S
H1763 C1775 0.950 . S
C1764 H1756 0.950 . S
C1764 C1765 1.386 . S
C1764 C1766 1.391 . S
C1765 C1764 1.386 . S
C1765 C1769 1.393 . S
C1766 H1758 0.950 . S
C1766 C1764 1.391 . S
C1766 C1767 1.400 . S
C1767 C1766 1.400 . S
C1767 C1768 1.398 . S
C1767 C1773 1.491 . S
C1768 H1759 0.950 . S
C1768 C1767 1.398 . S
C1768 C1769 1.391 . S
C1769 H1757 0.950 . S
C1769 C1765 1.393 . S
C1769 C1768 1.391 . S
C1770 H1760 0.950 . S
C1770 C1771 1.386 . S
C1770 C1772 1.391 . S
C1771 C1770 1.386 . S
C1771 C1775 1.393 . S
C1772 H1761 0.950 . S
C1772 C1770 1.391 . S
C1772 C1773 1.400 1_455 S
C1773 C1767 1.491 . S
C1773 C1772 1.400 1_655 S
C1773 C1774 1.404 . S
C1774 H1762 0.980 . S
C1774 C1773 1.404 . S
C1774 C1775 1.358 1_655 S
C1775 H1763 0.950 . S
C1775 C1771 1.393 . S
C1775 C1774 1.358 1_455 S
H1776 C1784 0.950 . S
H1777 C1789 0.950 . S
H1778 C1786 0.950 . S
H1779 C1788 0.950 . S
H1780 C1790 0.950 . S
H1781 C1792 0.950 . S
H1782 C1794 0.950 . S
H1783 C1795 0.950 . S
C1784 H1776 0.950 . S
C1784 C1785 1.386 . S
C1784 C1786 1.391 . S
C1785 C1784 1.386 . S
C1785 C1789 1.393 . S
C1786 H1778 0.950 . S
C1786 C1784 1.391 . S
C1786 C1787 1.400 . S
C1787 C1786 1.400 . S
C1787 C1788 1.398 . S
C1787 C1793 1.491 . S
C1788 H1779 0.950 . S
C1788 C1787 1.398 . S
C1788 C1789 1.391 . S
C1789 H1777 0.950 . S
C1789 C1785 1.393 . S
C1789 C1788 1.391 . S
C1790 H1780 0.950 . S
C1790 C1791 1.386 . S
C1790 C1792 1.391 . S
C1791 C1790 1.386 . S
C1791 C1795 1.393 . S
C1792 H1781 0.950 . S
C1792 C1790 1.391 . S
C1792 C1793 1.400 . S
C1793 C1787 1.491 . S
C1793 C1792 1.400 . S
C1793 C1794 1.398 . S
C1794 H1782 0.950 . S
C1794 C1793 1.398 . S
C1794 C1795 1.391 . S
C1795 H1783 0.950 . S
C1795 C1791 1.393 . S
C1795 C1794 1.391 . S
H1796 C1804 0.950 . S
H1797 C1809 0.950 . S
H1798 C1806 0.950 . S
H1799 C1808 0.950 . S
H1800 C1810 0.950 . S
H1801 C1812 0.950 1_655 S
H1802 C1814 0.950 . S
H1803 C1815 0.950 . S
C1804 H1796 0.950 . S
C1804 C1805 1.386 . S
C1804 C1806 1.391 . S
C1805 C1804 1.386 . S
C1805 C1809 1.393 . S
C1806 H1798 0.950 . S
C1806 C1804 1.391 . S
C1806 C1807 1.400 . S
C1807 C1806 1.400 . S
C1807 C1808 1.398 . S
C1807 C1813 1.491 . S
C1808 H1799 0.950 . S
C1808 C1807 1.398 . S
C1808 C1809 1.391 . S
C1809 H1797 0.950 . S
C1809 C1805 1.393 . S
C1809 C1808 1.391 . S
C1810 H1800 0.950 . S
C1810 C1811 1.386 . S
C1810 C1812 1.391 . S
C1811 C1810 1.386 . S
C1811 C1815 1.393 . S
C1812 H1801 0.950 1_455 S
C1812 C1810 1.391 . S
C1812 C1813 1.400 1_455 S
C1813 C1807 1.491 . S
C1813 C1812 1.400 1_655 S
C1813 C1814 1.398 1_655 S
C1814 H1802 0.950 . S
C1814 C1813 1.398 1_455 S
C1814 C1815 1.391 . S
C1815 H1803 0.950 . S
C1815 C1811 1.393 . S
C1815 C1814 1.391 . S
H1816 C1824 0.950 . S
H1817 C1829 0.950 . S
H1818 C1826 0.950 . S
H1819 C1828 0.950 . S
H1820 C1830 0.950 . S
H1821 C1832 0.950 . S
H1822 C1834 0.950 . S
H1823 C1835 0.950 . S
C1824 H1816 0.950 . S
C1824 C1825 1.386 . S
C1824 C1826 1.391 . S
C1825 C1824 1.386 . S
C1825 C1829 1.393 . S
C1826 H1818 0.950 . S
C1826 C1824 1.391 . S
C1826 C1827 1.400 . S
C1827 C1826 1.400 . S
C1827 C1828 1.398 . S
C1827 C1833 1.491 . S
C1828 H1819 0.950 . S
C1828 C1827 1.398 . S
C1828 C1829 1.391 . S
C1829 H1817 0.950 . S
C1829 C1825 1.393 . S
C1829 C1828 1.391 . S
C1830 H1820 0.950 . S
C1830 C1831 1.386 . S
C1830 C1832 1.391 . S
C1831 C1830 1.386 . S
C1831 C1835 1.393 . S
C1832 H1821 0.950 . S
C1832 C1830 1.391 . S
C1832 C1833 1.400 . S
C1833 C1827 1.491 . S
C1833 C1832 1.400 . S
C1833 C1834 1.398 . S
C1834 H1822 0.950 . S
C1834 C1833 1.398 . S
C1834 C1835 1.391 . S
C1835 H1823 0.950 . S
C1835 C1831 1.393 . S
C1835 C1834 1.391 . S
H1836 C1844 0.950 . S
H1837 C1849 0.950 . S
H1838 C1846 0.950 . S
H1839 C1848 0.950 . S
H1840 C1850 0.950 . S
H1841 C1852 0.950 . S
H1842 C1854 0.950 . S
H1843 C1855 0.950 . S
C1844 H1836 0.950 . S
C1844 C1845 1.386 . S
C1844 C1846 1.391 . S
C1845 C1844 1.386 . S
C1845 C1849 1.393 . S
C1846 H1838 0.950 . S
C1846 C1844 1.391 . S
C1846 C1847 1.400 . S
C1847 C1846 1.400 . S
C1847 C1848 1.398 . S
C1847 C1853 1.491 . S
C1848 H1839 0.950 . S
C1848 C1847 1.398 . S
C1848 C1849 1.391 . S
C1849 H1837 0.950 . S
C1849 C1845 1.393 . S
C1849 C1848 1.391 . S
C1850 H1840 0.950 . S
C1850 C1851 1.386 . S
C1850 C1852 1.391 . S
C1851 C1850 1.386 . S
C1851 C1855 1.393 . S
C1852 H1841 0.950 . S
C1852 C1850 1.391 . S
C1852 C1853 1.400 . S
C1853 C1847 1.491 . S
C1853 C1852 1.400 . S
C1853 C1854 1.398 . S
C1854 H1842 0.950 . S
C1854 C1853 1.398 . S
C1854 C1855 1.391 . S
C1855 H1843 0.950 . S
C1855 C1851 1.393 . S
C1855 C1854 1.391 . S
H1856 C1864 0.950 . S
H1857 C1869 0.950 . S
H1858 C1866 0.950 . S
H1859 C1868 0.950 . S
H1860 C1870 0.950 . S
H1861 C1872 0.950 . S
H1862 C1874 0.950 . S
H1863 C1875 0.950 . S
C1864 H1856 0.950 . S
C1864 C1865 1.386 . S
C1864 C1866 1.391 . S
C1865 C1864 1.386 . S
C1865 C1869 1.393 . S
C1866 H1858 0.950 . S
C1866 C1864 1.391 . S
C1866 C1867 1.400 . S
C1867 C1866 1.400 . S
C1867 C1868 1.398 . S
C1867 C1873 1.491 . S
C1868 H1859 0.950 . S
C1868 C1867 1.398 . S
C1868 C1869 1.391 . S
C1869 H1857 0.950 . S
C1869 C1865 1.393 . S
C1869 C1868 1.391 . S
C1870 H1860 0.950 . S
C1870 C1871 1.386 . S
C1870 C1872 1.391 . S
C1871 C1870 1.386 . S
C1871 C1875 1.393 . S
C1872 H1861 0.950 . S
C1872 C1870 1.391 . S
C1872 C1873 1.400 . S
C1873 C1867 1.491 . S
C1873 C1872 1.400 . S
C1873 C1874 1.398 . S
C1874 H1862 0.950 . S
C1874 C1873 1.398 . S
C1874 C1875 1.391 . S
C1875 H1863 0.950 . S
C1875 C1871 1.393 . S
C1875 C1874 1.391 . S
H1876 C1884 0.950 . S
H1877 C1889 0.950 . S
H1878 C1886 0.950 . S
H1879 C1888 0.950 . S
H1880 C1890 0.950 . S
H1881 C1892 0.950 . S
H1882 C1894 0.950 . S
H1883 C1895 0.950 . S
C1884 H1876 0.950 . S
C1884 C1885 1.386 . S
C1884 C1886 1.391 . S
C1885 C1884 1.386 . S
C1885 C1889 1.393 . S
C1886 H1878 0.950 . S
C1886 C1884 1.391 . S
C1886 C1887 1.400 . S
C1887 C1886 1.400 . S
C1887 C1888 1.398 . S
C1887 C1893 1.491 . S
C1888 H1879 0.950 . S
C1888 C1887 1.398 . S
C1888 C1889 1.391 . S
C1889 H1877 0.950 . S
C1889 C1885 1.393 . S
C1889 C1888 1.391 . S
C1890 H1880 0.950 . S
C1890 C1891 1.386 . S
C1890 C1892 1.391 . S
C1891 C1890 1.386 . S
C1891 C1895 1.393 . S
C1892 H1881 0.950 . S
C1892 C1890 1.391 . S
C1892 C1893 1.400 . S
C1893 C1887 1.491 . S
C1893 C1892 1.400 . S
C1893 C1894 1.398 . S
C1894 H1882 0.950 . S
C1894 C1893 1.398 . S
C1894 C1895 1.391 . S
C1895 H1883 0.950 . S
C1895 C1891 1.393 . S
C1895 C1894 1.391 . S
H1896 C1904 0.950 . S
H1897 C1909 0.950 . S
H1898 C1906 0.950 . S
H1899 C1908 0.950 . S
H1900 C1910 0.950 . S
H1901 C1912 0.950 . S
H1902 C1914 0.950 . S
H1903 C1915 0.950 . S
C1904 H1896 0.950 . S
C1904 C1905 1.386 . S
C1904 C1906 1.391 . S
C1905 C1904 1.386 . S
C1905 C1909 1.393 . S
C1906 H1898 0.950 . S
C1906 C1904 1.391 . S
C1906 C1907 1.400 . S
C1907 C1906 1.400 . S
C1907 C1908 1.398 . S
C1907 C1913 1.491 . S
C1908 H1899 0.950 . S
C1908 C1907 1.398 . S
C1908 C1909 1.391 . S
C1909 H1897 0.950 . S
C1909 C1905 1.393 . S
C1909 C1908 1.391 . S
C1910 H1900 0.950 . S
C1910 C1911 1.386 . S
C1910 C1912 1.391 . S
C1911 C1910 1.386 . S
C1911 C1915 1.393 . S
C1912 H1901 0.950 . S
C1912 C1910 1.391 . S
C1912 C1913 1.400 . S
C1913 C1907 1.491 . S
C1913 C1912 1.400 . S
C1913 C1914 1.398 . S
C1914 H1902 0.950 . S
C1914 C1913 1.398 . S
C1914 C1915 1.391 . S
C1915 H1903 0.950 . S
C1915 C1911 1.393 . S
C1915 C1914 1.391 . S
H1916 C1924 0.950 . S
H1917 C1929 0.950 . S
H1918 C1926 0.950 . S
H1919 C1928 0.950 . S
H1920 C1930 0.950 . S
H1921 C1932 0.950 . S
H1922 C1934 0.950 . S
H1923 C1935 0.950 . S
C1924 H1916 0.950 . S
C1924 C1925 1.386 . S
C1924 C1926 1.391 . S
C1925 C1924 1.386 . S
C1925 C1929 1.393 . S
C1926 H1918 0.950 . S
C1926 C1924 1.391 . S
C1926 C1927 1.400 . S
C1927 C1926 1.400 . S
C1927 C1928 1.398 . S
C1927 C1933 1.491 . S
C1928 H1919 0.950 . S
C1928 C1927 1.398 . S
C1928 C1929 1.391 . S
C1929 H1917 0.950 . S
C1929 C1925 1.393 . S
C1929 C1928 1.391 . S
C1930 H1920 0.950 . S
C1930 C1931 1.386 . S
C1930 C1932 1.391 . S
C1931 C1930 1.386 . S
C1931 C1935 1.393 . S
C1932 H1921 0.950 . S
C1932 C1930 1.391 . S
C1932 C1933 1.400 1_655 S
C1933 C1927 1.491 . S
C1933 C1932 1.400 1_455 S
C1933 C1934 1.398 . S
C1934 H1922 0.950 . S
C1934 C1933 1.398 . S
C1934 C1935 1.391 1_455 S
C1935 H1923 0.950 . S
C1935 C1931 1.393 . S
C1935 C1934 1.391 1_655 S
H1936 C1944 0.950 . S
H1937 C1949 0.950 . S
H1938 C1946 0.950 . S
H1939 C1948 0.950 . S
H1940 C1950 0.950 . S
H1941 C1952 0.950 . S
H1942 C1954 0.950 . S
H1943 C1955 0.950 . S
C1944 H1936 0.950 . S
C1944 C1945 1.386 . S
C1944 C1946 1.391 . S
C1945 C1944 1.386 . S
C1945 C1949 1.393 . S
C1946 H1938 0.950 . S
C1946 C1944 1.391 . S
C1946 C1947 1.400 . S
C1947 C1946 1.400 . S
C1947 C1948 1.398 . S
C1947 C1953 1.491 . S
C1948 H1939 0.950 . S
C1948 C1947 1.398 . S
C1948 C1949 1.391 . S
C1949 H1937 0.950 . S
C1949 C1945 1.393 . S
C1949 C1948 1.391 . S
C1950 H1940 0.950 . S
C1950 C1951 1.386 . S
C1950 C1952 1.391 . S
C1951 C1950 1.386 . S
C1951 C1955 1.393 . S
C1952 H1941 0.950 . S
C1952 C1950 1.391 . S
C1952 C1953 1.400 . S
C1953 C1947 1.491 . S
C1953 C1952 1.400 . S
C1953 C1954 1.398 . S
C1954 H1942 0.950 . S
C1954 C1953 1.398 . S
C1954 C1955 1.391 . S
C1955 H1943 0.950 . S
C1955 C1951 1.393 . S
C1955 C1954 1.391 . S
H1956 C1964 0.950 . S
H1957 C1969 0.950 . S
H1958 C1966 0.950 . S
H1959 C1968 0.950 1_455 S
H1960 C1970 0.950 . S
H1961 C1972 0.950 . S
H1962 C1974 0.950 . S
H1963 C1975 0.950 . S
C1964 H1956 0.950 . S
C1964 C1965 1.386 . S
C1964 C1966 1.391 . S
C1965 C1964 1.386 . S
C1965 C1969 1.393 . S
C1966 H1958 0.950 . S
C1966 C1964 1.391 . S
C1966 C1967 1.400 1_655 S
C1967 C1966 1.400 1_455 S
C1967 C1968 1.398 1_455 S
C1967 C1973 1.491 . S
C1968 H1959 0.950 1_655 S
C1968 C1967 1.398 1_655 S
C1968 C1969 1.391 . S
C1969 H1957 0.950 . S
C1969 C1965 1.393 . S
C1969 C1968 1.391 . S
C1970 H1960 0.950 . S
C1970 C1971 1.386 . S
C1970 C1972 1.391 . S
C1971 C1970 1.386 . S
C1971 C1975 1.393 . S
C1972 H1961 0.950 . S
C1972 C1970 1.391 . S
C1972 C1973 1.400 . S
C1973 C1967 1.491 . S
C1973 C1972 1.400 . S
C1973 C1974 1.398 . S
C1974 H1962 0.950 . S
C1974 C1973 1.398 . S
C1974 C1975 1.391 . S
C1975 H1963 0.950 . S
C1975 C1971 1.393 . S
C1975 C1974 1.391 . S
H1976 C1984 0.950 . S
H1977 C1989 0.950 . S
H1978 C1986 0.950 . S
H1979 C1988 0.950 . S
H1980 C1990 0.950 . S
H1981 C1992 0.950 . S
H1982 C1994 0.950 . S
H1983 C1995 0.950 . S
C1984 H1976 0.950 . S
C1984 C1985 1.386 . S
C1984 C1986 1.391 . S
C1985 C1984 1.386 . S
C1985 C1989 1.393 . S
C1986 H1978 0.950 . S
C1986 C1984 1.391 . S
C1986 C1987 1.400 . S
C1987 C1986 1.400 . S
C1987 C1988 1.398 . S
C1987 C1993 1.491 . S
C1988 H1979 0.950 . S
C1988 C1987 1.398 . S
C1988 C1989 1.391 . S
C1989 H1977 0.950 . S
C1989 C1985 1.393 . S
C1989 C1988 1.391 . S
C1990 H1980 0.950 . S
C1990 C1991 1.386 . S
C1990 C1992 1.391 . S
C1991 C1990 1.386 . S
C1991 C1995 1.393 . S
C1992 H1981 0.950 . S
C1992 C1990 1.391 . S
C1992 C1993 1.400 . S
C1993 C1987 1.491 . S
C1993 C1992 1.400 . S
C1993 C1994 1.398 . S
C1994 H1982 0.950 . S
C1994 C1993 1.398 . S
C1994 C1995 1.391 . S
C1995 H1983 0.950 . S
C1995 C1991 1.393 . S
C1995 C1994 1.391 . S
H1996 C2004 0.950 . S
H1997 C2009 0.950 . S
H1998 C2006 0.950 . S
H1999 C2008 0.950 . S
H2000 C2010 0.950 . S
H2001 C2012 0.950 . S
H2002 C2014 0.950 . S
H2003 C2015 0.950 . S
C2004 H1996 0.950 . S
C2004 C2005 1.386 . S
C2004 C2006 1.391 . S
C2005 C2004 1.386 . S
C2005 C2009 1.393 . S
C2006 H1998 0.950 . S
C2006 C2004 1.391 . S
C2006 C2007 1.400 . S
C2007 C2006 1.400 . S
C2007 C2008 1.398 . S
C2007 C2013 1.491 . S
C2008 H1999 0.950 . S
C2008 C2007 1.398 . S
C2008 C2009 1.391 . S
C2009 H1997 0.950 . S
C2009 C2005 1.393 . S
C2009 C2008 1.391 . S
C2010 H2000 0.950 . S
C2010 C2011 1.386 . S
C2010 C2012 1.391 . S
C2011 C2010 1.386 . S
C2011 C2015 1.393 . S
C2012 H2001 0.950 . S
C2012 C2010 1.391 . S
C2012 C2013 1.400 . S
C2013 C2007 1.491 . S
C2013 C2012 1.400 . S
C2013 C2014 1.398 . S
C2014 H2002 0.950 . S
C2014 C2013 1.398 . S
C2014 C2015 1.391 . S
C2015 H2003 0.950 . S
C2015 C2011 1.393 . S
C2015 C2014 1.391 . S
H2016 C2024 0.950 . S
H2017 C2029 0.950 . S
H2018 C2026 0.950 . S
H2019 C2028 0.950 . S
H2020 C2030 0.950 . S
H2021 C2032 0.950 . S
H2022 C2034 0.950 . S
H2023 C2035 0.950 . S
C2024 H2016 0.950 . S
C2024 C2025 1.386 . S
C2024 C2026 1.391 . S
C2025 C2024 1.386 . S
C2025 C2029 1.393 . S
C2026 H2018 0.950 . S
C2026 C2024 1.391 . S
C2026 C2027 1.400 . S
C2027 C2026 1.400 . S
C2027 C2028 1.398 . S
C2027 C2033 1.491 . S
C2028 H2019 0.950 . S
C2028 C2027 1.398 . S
C2028 C2029 1.391 . S
C2029 H2017 0.950 . S
C2029 C2025 1.393 . S
C2029 C2028 1.391 . S
C2030 H2020 0.950 . S
C2030 C2031 1.386 . S
C2030 C2032 1.391 . S
C2031 C2030 1.386 . S
C2031 C2035 1.393 . S
C2032 H2021 0.950 . S
C2032 C2030 1.391 . S
C2032 C2033 1.400 . S
C2033 C2027 1.491 . S
C2033 C2032 1.400 . S
C2033 C2034 1.398 . S
C2034 H2022 0.950 . S
C2034 C2033 1.398 . S
C2034 C2035 1.391 . S
C2035 H2023 0.950 . S
C2035 C2031 1.393 . S
C2035 C2034 1.391 . S
H2036 C2044 0.950 . S
H2037 C2049 0.950 . S
H2038 C2046 0.953 . S
H2039 C2048 0.950 . S
H2040 C2050 0.950 . S
H2041 C2052 0.953 . S
H2042 C2054 0.950 . S
H2043 C2055 0.950 . S
C2044 H2036 0.950 . S
C2044 C2045 1.386 . S
C2044 C2046 1.391 . S
C2045 C2044 1.386 . S
C2045 C2049 1.393 . S
C2046 H2038 0.953 . S
C2046 C2044 1.391 . S
C2046 C2047 1.400 . S
C2047 C2046 1.400 . S
C2047 C2048 1.398 . S
C2047 C2053 1.491 1_655 S
C2048 H2039 0.950 . S
C2048 C2047 1.398 . S
C2048 C2049 1.391 . S
C2049 H2037 0.950 . S
C2049 C2045 1.393 . S
C2049 C2048 1.391 . S
C2050 H2040 0.950 . S
C2050 C2051 1.386 . S
C2050 C2052 1.391 . S
C2051 C2050 1.386 . S
C2051 C2055 1.393 . S
C2052 H2041 0.953 . S
C2052 C2050 1.391 . S
C2052 C2053 1.400 . S
C2053 C2047 1.491 1_455 S
C2053 C2052 1.400 . S
C2053 C2054 1.398 . S
C2054 H2042 0.950 . S
C2054 C2053 1.398 . S
C2054 C2055 1.391 . S
C2055 H2043 0.950 . S
C2055 C2051 1.393 . S
C2055 C2054 1.391 . S
H2056 C2064 0.950 . S
H2057 C2069 0.950 . S
H2058 C2066 0.950 . S
H2059 C2068 0.950 . S
H2060 C2070 0.950 . S
H2061 C2072 0.950 . S
H2062 C2074 0.950 . S
H2063 C2075 0.950 . S
C2064 H2056 0.950 . S
C2064 C2065 1.386 . S
C2064 C2066 1.391 . S
C2065 C2064 1.386 . S
C2065 C2069 1.393 . S
C2066 H2058 0.950 . S
C2066 C2064 1.391 . S
C2066 C2067 1.400 . S
C2067 C2066 1.400 . S
C2067 C2068 1.398 . S
C2067 C2073 1.491 1_655 S
C2068 H2059 0.950 . S
C2068 C2067 1.398 . S
C2068 C2069 1.391 . S
C2069 H2057 0.950 . S
C2069 C2065 1.393 . S
C2069 C2068 1.391 . S
C2070 H2060 0.950 . S
C2070 C2071 1.386 . S
C2070 C2072 1.391 . S
C2071 C2070 1.386 . S
C2071 C2075 1.393 . S
C2072 H2061 0.950 . S
C2072 C2070 1.391 . S
C2072 C2073 1.400 . S
C2073 C2067 1.491 1_455 S
C2073 C2072 1.400 . S
C2073 C2074 1.398 . S
C2074 H2062 0.950 . S
C2074 C2073 1.398 . S
C2074 C2075 1.391 . S
C2075 H2063 0.950 . S
C2075 C2071 1.393 . S
C2075 C2074 1.391 . S
H2076 C2084 0.950 . S
H2077 C2089 0.950 . S
H2078 C2086 0.950 . S
H2079 C2088 0.950 . S
H2080 C2090 0.950 . S
H2081 C2092 0.950 . S
H2082 C2094 0.950 . S
H2083 C2095 0.950 . S
C2084 H2076 0.950 . S
C2084 C2085 1.386 . S
C2084 C2086 1.391 . S
C2085 C2084 1.386 . S
C2085 C2089 1.393 . S
C2086 H2078 0.950 . S
C2086 C2084 1.391 . S
C2086 C2087 1.400 . S
C2087 C2086 1.400 . S
C2087 C2088 1.398 . S
C2087 C2093 1.491 . S
C2088 H2079 0.950 . S
C2088 C2087 1.398 . S
C2088 C2089 1.391 . S
C2089 H2077 0.950 . S
C2089 C2085 1.393 . S
C2089 C2088 1.391 . S
C2090 H2080 0.950 . S
C2090 C2091 1.386 . S
C2090 C2092 1.391 . S
C2091 C2090 1.386 . S
C2091 C2095 1.393 . S
C2092 H2081 0.950 . S
C2092 C2090 1.391 . S
C2092 C2093 1.400 . S
C2093 C2087 1.491 . S
C2093 C2092 1.400 . S
C2093 C2094 1.398 . S
C2094 H2082 0.950 . S
C2094 C2093 1.398 . S
C2094 C2095 1.391 . S
C2095 H2083 0.950 . S
C2095 C2091 1.393 . S
C2095 C2094 1.391 . S
H2096 C2104 0.950 . S
H2097 C2109 0.950 . S
H2098 C2106 0.950 . S
H2099 C2108 0.950 . S
H2100 C2110 0.950 . S
H2101 C2112 0.950 . S
H2102 C2114 0.950 . S
H2103 C2115 0.950 . S
C2104 H2096 0.950 . S
C2104 C2105 1.386 . S
C2104 C2106 1.391 . S
C2105 C2104 1.386 . S
C2105 C2109 1.393 . S
C2106 H2098 0.950 . S
C2106 C2104 1.391 . S
C2106 C2107 1.400 . S
C2107 C2106 1.400 . S
C2107 C2108 1.398 . S
C2107 C2113 1.491 . S
C2108 H2099 0.950 . S
C2108 C2107 1.398 . S
C2108 C2109 1.391 . S
C2109 H2097 0.950 . S
C2109 C2105 1.393 . S
C2109 C2108 1.391 . S
C2110 H2100 0.950 . S
C2110 C2111 1.386 . S
C2110 C2112 1.391 . S
C2111 C2110 1.386 . S
C2111 C2115 1.393 . S
C2112 H2101 0.950 . S
C2112 C2110 1.391 . S
C2112 C2113 1.400 . S
C2113 C2107 1.491 . S
C2113 C2112 1.400 . S
C2113 C2114 1.398 . S
C2114 H2102 0.950 . S
C2114 C2113 1.398 . S
C2114 C2115 1.391 . S
C2115 H2103 0.950 . S
C2115 C2111 1.393 . S
C2115 C2114 1.391 . S
H2116 C2124 0.950 . S
H2117 C2129 0.950 . S
H2118 C2126 0.950 . S
H2119 C2128 0.950 . S
H2120 C2130 0.950 . S
H2121 C2132 0.950 . S
H2122 C2134 0.950 . S
H2123 C2135 0.950 . S
C2124 H2116 0.950 . S
C2124 C2125 1.386 . S
C2124 C2126 1.391 . S
C2125 C2124 1.386 . S
C2125 C2129 1.393 . S
C2126 H2118 0.950 . S
C2126 C2124 1.391 . S
C2126 C2127 1.400 . S
C2127 C2126 1.400 . S
C2127 C2128 1.398 . S
C2127 C2133 1.491 . S
C2128 H2119 0.950 . S
C2128 C2127 1.398 . S
C2128 C2129 1.391 . S
C2129 H2117 0.950 . S
C2129 C2125 1.393 . S
C2129 C2128 1.391 . S
C2130 H2120 0.950 . S
C2130 C2131 1.386 . S
C2130 C2132 1.391 . S
C2131 C2130 1.386 . S
C2131 C2135 1.393 . S
C2132 H2121 0.950 . S
C2132 C2130 1.391 . S
C2132 C2133 1.400 . S
C2133 C2127 1.491 . S
C2133 C2132 1.400 . S
C2133 C2134 1.398 . S
C2134 H2122 0.950 . S
C2134 C2133 1.398 . S
C2134 C2135 1.391 . S
C2135 H2123 0.950 . S
C2135 C2131 1.393 . S
C2135 C2134 1.391 . S
H2136 C2144 0.950 . S
H2137 C2149 0.950 . S
H2138 C2146 0.950 . S
H2139 C2148 0.950 1_655 S
H2140 C2150 0.950 . S
H2141 C2152 0.950 . S
H2142 C2154 0.950 1_455 S
H2143 C2155 0.950 . S
C2144 H2136 0.950 . S
C2144 C2145 1.386 . S
C2144 C2146 1.391 . S
C2145 C2144 1.386 . S
C2145 C2149 1.393 . S
C2146 H2138 0.950 . S
C2146 C2144 1.391 . S
C2146 C2147 1.400 . S
C2147 C2146 1.400 . S
C2147 C2148 1.398 . S
C2147 C2153 1.491 1_455 S
C2148 H2139 0.950 1_455 S
C2148 C2147 1.398 . S
C2148 C2149 1.391 . S
C2149 H2137 0.950 . S
C2149 C2145 1.393 . S
C2149 C2148 1.391 . S
C2150 H2140 0.950 . S
C2150 C2151 1.386 . S
C2150 C2152 1.391 . S
C2151 C2150 1.386 . S
C2151 C2155 1.393 . S
C2152 H2141 0.950 . S
C2152 C2150 1.391 . S
C2152 C2153 1.400 . S
C2153 C2147 1.491 1_655 S
C2153 C2152 1.400 . S
C2153 C2154 1.398 . S
C2154 H2142 0.950 1_655 S
C2154 C2153 1.398 . S
C2154 C2155 1.391 . S
C2155 H2143 0.950 . S
C2155 C2151 1.393 . S
C2155 C2154 1.391 . S
H2156 C2164 0.950 . S
H2157 C2169 0.950 . S
H2158 C2166 0.950 1_455 S
H2159 C2168 0.950 . S
H2160 C2170 0.950 . S
H2161 C2172 0.950 1_655 S
H2162 C2174 0.950 . S
H2163 C2175 0.950 . S
C2164 H2156 0.950 . S
C2164 C2165 1.386 . S
C2164 C2166 1.391 . S
C2165 C2164 1.386 . S
C2165 C2169 1.393 . S
C2166 H2158 0.950 1_655 S
C2166 C2164 1.391 . S
C2166 C2167 1.400 . S
C2167 C2166 1.400 . S
C2167 C2168 1.398 . S
C2167 C2173 1.491 1_655 S
C2168 H2159 0.950 . S
C2168 C2167 1.398 . S
C2168 C2169 1.391 . S
C2169 H2157 0.950 . S
C2169 C2165 1.393 . S
C2169 C2168 1.391 . S
C2170 H2160 0.950 . S
C2170 C2171 1.386 . S
C2170 C2172 1.391 . S
C2171 C2170 1.386 . S
C2171 C2175 1.393 . S
C2172 H2161 0.950 1_455 S
C2172 C2170 1.391 . S
C2172 C2173 1.400 . S
C2173 C2167 1.491 1_455 S
C2173 C2172 1.400 . S
C2173 C2174 1.398 . S
C2174 H2162 0.950 . S
C2174 C2173 1.398 . S
C2174 C2175 1.391 . S
C2175 H2163 0.950 . S
C2175 C2171 1.393 . S
C2175 C2174 1.391 . S
H2176 C2184 0.950 . S
H2177 C2189 0.950 . S
H2178 C2186 0.950 . S
H2179 C2188 0.950 . S
H2180 C2190 0.950 . S
H2181 C2192 0.950 . S
H2182 C2194 0.950 . S
H2183 C2195 0.950 . S
C2184 H2176 0.950 . S
C2184 C2185 1.386 . S
C2184 C2186 1.391 . S
C2185 C2184 1.386 . S
C2185 C2189 1.393 . S
C2186 H2178 0.950 . S
C2186 C2184 1.391 . S
C2186 C2187 1.400 . S
C2187 C2186 1.400 . S
C2187 C2188 1.398 . S
C2187 C2193 1.491 . S
C2188 H2179 0.950 . S
C2188 C2187 1.398 . S
C2188 C2189 1.391 . S
C2189 H2177 0.950 . S
C2189 C2185 1.393 . S
C2189 C2188 1.391 . S
C2190 H2180 0.950 . S
C2190 C2191 1.386 . S
C2190 C2192 1.391 . S
C2191 C2190 1.386 . S
C2191 C2195 1.393 . S
C2192 H2181 0.950 . S
C2192 C2190 1.391 . S
C2192 C2193 1.400 . S
C2193 C2187 1.491 . S
C2193 C2192 1.400 . S
C2193 C2194 1.398 . S
C2194 H2182 0.950 . S
C2194 C2193 1.398 . S
C2194 C2195 1.391 . S
C2195 H2183 0.950 . S
C2195 C2191 1.393 . S
C2195 C2194 1.391 . S
H2196 C2204 0.950 . S
H2197 C2209 0.950 . S
H2198 C2206 0.950 . S
H2199 C2208 0.950 . S
H2200 C2210 0.950 . S
H2201 C2212 0.950 . S
H2202 C2214 0.950 . S
H2203 C2215 0.950 . S
C2204 H2196 0.950 . S
C2204 C2205 1.386 . S
C2204 C2206 1.391 . S
C2205 C2204 1.386 . S
C2205 C2209 1.393 . S
C2206 H2198 0.950 . S
C2206 C2204 1.391 . S
C2206 C2207 1.400 . S
C2207 C2206 1.400 . S
C2207 C2208 1.398 . S
C2207 C2213 1.491 1_655 S
C2208 H2199 0.950 . S
C2208 C2207 1.398 . S
C2208 C2209 1.391 . S
C2209 H2197 0.950 . S
C2209 C2205 1.393 . S
C2209 C2208 1.391 . S
C2210 H2200 0.950 . S
C2210 C2211 1.386 . S
C2210 C2212 1.391 . S
C2211 C2210 1.386 . S
C2211 C2215 1.393 . S
C2212 H2201 0.950 . S
C2212 C2210 1.391 . S
C2212 C2213 1.400 . S
C2213 C2207 1.491 1_455 S
C2213 C2212 1.400 . S
C2213 C2214 1.398 . S
C2214 H2202 0.950 . S
C2214 C2213 1.398 . S
C2214 C2215 1.391 . S
C2215 H2203 0.950 . S
C2215 C2211 1.393 . S
C2215 C2214 1.391 . S
H2216 C2224 0.950 . S
H2217 C2229 0.950 . S
H2218 C2226 0.950 . S
H2219 C2228 0.950 1_455 S
H2220 C2230 0.950 . S
H2221 C2232 0.950 . S
H2222 C2234 0.950 1_655 S
H2223 C2235 0.950 . S
C2224 H2216 0.950 . S
C2224 C2225 1.386 . S
C2224 C2226 1.391 . S
C2225 C2224 1.386 . S
C2225 C2229 1.393 . S
C2226 H2218 0.950 . S
C2226 C2224 1.391 . S
C2226 C2227 1.400 . S
C2227 C2226 1.400 . S
C2227 C2228 1.398 . S
C2227 C2233 1.491 1_655 S
C2228 H2219 0.950 1_655 S
C2228 C2227 1.398 . S
C2228 C2229 1.391 . S
C2229 H2217 0.950 . S
C2229 C2225 1.393 . S
C2229 C2228 1.391 . S
C2230 H2220 0.950 . S
C2230 C2231 1.386 . S
C2230 C2232 1.391 . S
C2231 C2230 1.386 . S
C2231 C2235 1.393 . S
C2232 H2221 0.950 . S
C2232 C2230 1.391 . S
C2232 C2233 1.400 . S
C2233 C2227 1.491 1_455 S
C2233 C2232 1.400 . S
C2233 C2234 1.398 . S
C2234 H2222 0.950 1_455 S
C2234 C2233 1.398 . S
C2234 C2235 1.391 . S
C2235 H2223 0.950 . S
C2235 C2231 1.393 . S
C2235 C2234 1.391 . S
H2236 C2244 0.950 . S
H2237 C2249 0.950 . S
H2238 C2246 0.950 . S
H2239 C2248 0.950 . S
H2240 C2250 0.950 . S
H2241 C2252 0.950 . S
H2242 C2254 0.950 . S
H2243 C2255 0.950 . S
C2244 H2236 0.950 . S
C2244 C2245 1.386 . S
C2244 C2246 1.391 . S
C2245 C2244 1.386 . S
C2245 C2249 1.393 . S
C2246 H2238 0.950 . S
C2246 C2244 1.391 . S
C2246 C2247 1.400 . S
C2247 C2246 1.400 . S
C2247 C2248 1.398 . S
C2247 C2253 1.491 . S
C2248 H2239 0.950 . S
C2248 C2247 1.398 . S
C2248 C2249 1.391 . S
C2249 H2237 0.950 . S
C2249 C2245 1.393 . S
C2249 C2248 1.391 . S
C2250 H2240 0.950 . S
C2250 C2251 1.386 . S
C2250 C2252 1.391 . S
C2251 C2250 1.386 . S
C2251 C2255 1.393 . S
C2252 H2241 0.950 . S
C2252 C2250 1.391 . S
C2252 C2253 1.400 . S
C2253 C2247 1.491 . S
C2253 C2252 1.400 . S
C2253 C2254 1.398 . S
C2254 H2242 0.950 . S
C2254 C2253 1.398 . S
C2254 C2255 1.391 . S
C2255 H2243 0.950 . S
C2255 C2251 1.393 . S
C2255 C2254 1.391 . S
H2256 C2264 0.950 . S
H2257 C2269 0.950 . S
H2258 C2266 0.950 . S
H2259 C2268 0.950 . S
H2260 C2270 0.950 . S
H2261 C2272 0.950 . S
H2262 C2274 0.950 . S
H2263 C2275 0.950 . S
C2264 H2256 0.950 . S
C2264 C2265 1.386 . S
C2264 C2266 1.391 . S
C2265 C2264 1.386 . S
C2265 C2269 1.393 . S
C2266 H2258 0.950 . S
C2266 C2264 1.391 . S
C2266 C2267 1.400 . S
C2267 C2266 1.400 . S
C2267 C2268 1.398 . S
C2267 C2273 1.491 . S
C2268 H2259 0.950 . S
C2268 C2267 1.398 . S
C2268 C2269 1.391 . S
C2269 H2257 0.950 . S
C2269 C2265 1.393 . S
C2269 C2268 1.391 . S
C2270 H2260 0.950 . S
C2270 C2271 1.386 . S
C2270 C2272 1.391 . S
C2271 C2270 1.386 . S
C2271 C2275 1.393 . S
C2272 H2261 0.950 . S
C2272 C2270 1.391 . S
C2272 C2273 1.400 . S
C2273 C2267 1.491 . S
C2273 C2272 1.400 . S
C2273 C2274 1.398 . S
C2274 H2262 0.950 . S
C2274 C2273 1.398 . S
C2274 C2275 1.391 . S
C2275 H2263 0.950 . S
C2275 C2271 1.393 . S
C2275 C2274 1.391 . S
H2276 C2284 0.950 . S
H2277 C2289 0.950 . S
H2278 C2286 0.950 . S
H2279 C2288 0.950 . S
H2280 C2290 0.950 . S
H2281 C2292 0.950 . S
H2282 C2294 0.950 . S
H2283 C2295 0.950 . S
C2284 H2276 0.950 . S
C2284 C2285 1.386 . S
C2284 C2286 1.391 . S
C2285 C2284 1.386 . S
C2285 C2289 1.393 . S
C2286 H2278 0.950 . S
C2286 C2284 1.391 . S
C2286 C2287 1.400 . S
C2287 C2286 1.400 . S
C2287 C2288 1.398 . S
C2287 C2293 1.491 . S
C2288 H2279 0.950 . S
C2288 C2287 1.398 . S
C2288 C2289 1.391 . S
C2289 H2277 0.950 . S
C2289 C2285 1.393 . S
C2289 C2288 1.391 . S
C2290 H2280 0.950 . S
C2290 C2291 1.386 . S
C2290 C2292 1.391 . S
C2291 C2290 1.386 . S
C2291 C2295 1.393 . S
C2292 H2281 0.950 . S
C2292 C2290 1.391 . S
C2292 C2293 1.400 . S
C2293 C2287 1.491 . S
C2293 C2292 1.400 . S
C2293 C2294 1.398 . S
C2294 H2282 0.950 . S
C2294 C2293 1.398 . S
C2294 C2295 1.391 . S
C2295 H2283 0.950 . S
C2295 C2291 1.393 . S
C2295 C2294 1.391 . S
H2296 C2304 0.950 . S
H2297 C2309 0.950 . S
H2298 C2306 0.950 1_455 S
H2299 C2308 0.950 . S
H2300 C2310 0.950 . S
H2301 C2312 0.950 1_655 S
H2302 C2314 0.950 . S
H2303 C2315 0.950 . S
C2304 H2296 0.950 . S
C2304 C2305 1.386 . S
C2304 C2306 1.391 . S
C2305 C2304 1.386 . S
C2305 C2309 1.393 . S
C2306 H2298 0.950 1_655 S
C2306 C2304 1.391 . S
C2306 C2307 1.400 . S
C2307 C2306 1.400 . S
C2307 C2308 1.398 . S
C2307 C2313 1.491 1_655 S
C2308 H2299 0.950 . S
C2308 C2307 1.398 . S
C2308 C2309 1.391 . S
C2309 H2297 0.950 . S
C2309 C2305 1.393 . S
C2309 C2308 1.391 . S
C2310 H2300 0.950 . S
C2310 C2311 1.386 . S
C2310 C2312 1.391 . S
C2311 C2310 1.386 . S
C2311 C2315 1.393 . S
C2312 H2301 0.950 1_455 S
C2312 C2310 1.391 . S
C2312 C2313 1.400 . S
C2313 C2307 1.491 1_455 S
C2313 C2312 1.400 . S
C2313 C2314 1.398 . S
C2314 H2302 0.950 . S
C2314 C2313 1.398 . S
C2314 C2315 1.391 . S
C2315 H2303 0.950 . S
C2315 C2311 1.393 . S
C2315 C2314 1.391 . S
H2316 C2324 0.950 . S
H2317 C2329 0.950 . S
H2318 C2326 0.950 . S
H2319 C2328 0.950 . S
H2320 C2330 0.950 . S
H2321 C2332 0.950 . S
H2322 C2334 0.950 . S
H2323 C2335 0.950 . S
C2324 H2316 0.950 . S
C2324 C2325 1.386 . S
C2324 C2326 1.391 . S
C2325 C2324 1.386 . S
C2325 C2329 1.393 . S
C2326 H2318 0.950 . S
C2326 C2324 1.391 . S
C2326 C2327 1.400 . S
C2327 C2326 1.400 . S
C2327 C2328 1.398 . S
C2327 C2333 1.491 1_655 S
C2328 H2319 0.950 . S
C2328 C2327 1.398 . S
C2328 C2329 1.391 . S
C2329 H2317 0.950 . S
C2329 C2325 1.393 . S
C2329 C2328 1.391 . S
C2330 H2320 0.950 . S
C2330 C2331 1.386 . S
C2330 C2332 1.391 . S
C2331 C2330 1.386 . S
C2331 C2335 1.393 . S
C2332 H2321 0.950 . S
C2332 C2330 1.391 . S
C2332 C2333 1.400 . S
C2333 C2327 1.491 1_455 S
C2333 C2332 1.400 . S
C2333 C2334 1.398 . S
C2334 H2322 0.950 . S
C2334 C2333 1.398 . S
C2334 C2335 1.391 . S
C2335 H2323 0.950 . S
C2335 C2331 1.393 . S
C2335 C2334 1.391 . S
H2336 C2344 0.950 . S
H2337 C2349 0.950 . S
H2338 C2346 0.950 1_545 S
H2339 C2348 0.950 . S
H2340 C2350 0.950 . S
H2341 C2352 0.950 1_565 S
H2342 C2354 0.950 . S
H2343 C2355 0.950 . S
C2344 H2336 0.950 . S
C2344 C2345 1.386 . S
C2344 C2346 1.391 . S
C2345 C2344 1.386 . S
C2345 C2349 1.393 . S
C2346 H2338 0.950 1_565 S
C2346 C2344 1.391 . S
C2346 C2347 1.400 . S
C2347 C2346 1.400 . S
C2347 C2348 1.398 . S
C2347 C2353 1.491 1_565 S
C2348 H2339 0.950 . S
C2348 C2347 1.398 . S
C2348 C2349 1.391 . S
C2349 H2337 0.950 . S
C2349 C2345 1.393 . S
C2349 C2348 1.391 . S
C2350 H2340 0.950 . S
C2350 C2351 1.386 . S
C2350 C2352 1.391 . S
C2351 C2350 1.386 . S
C2351 C2355 1.393 . S
C2352 H2341 0.950 1_545 S
C2352 C2350 1.391 . S
C2352 C2353 1.400 . S
C2353 C2347 1.491 1_545 S
C2353 C2352 1.400 . S
C2353 C2354 1.398 . S
C2354 H2342 0.950 . S
C2354 C2353 1.398 . S
C2354 C2355 1.391 . S
C2355 H2343 0.950 . S
C2355 C2351 1.393 . S
C2355 C2354 1.391 . S
H2356 C2364 0.950 . S
H2357 C2369 0.950 . S
H2358 C2366 0.950 . S
H2359 C2368 0.950 . S
H2360 C2370 0.950 . S
H2361 C2372 0.950 . S
H2362 C2374 0.950 . S
H2363 C2375 0.950 . S
C2364 H2356 0.950 . S
C2364 C2365 1.386 . S
C2364 C2366 1.391 . S
C2365 C2364 1.386 . S
C2365 C2369 1.393 . S
C2366 H2358 0.950 . S
C2366 C2364 1.391 . S
C2366 C2367 1.400 . S
C2367 C2366 1.400 . S
C2367 C2368 1.398 . S
C2367 C2373 1.491 . S
C2368 H2359 0.950 . S
C2368 C2367 1.398 . S
C2368 C2369 1.391 . S
C2369 H2357 0.950 . S
C2369 C2365 1.393 . S
C2369 C2368 1.391 . S
C2370 H2360 0.950 . S
C2370 C2371 1.386 . S
C2370 C2372 1.391 . S
C2371 C2370 1.386 . S
C2371 C2375 1.393 . S
C2372 H2361 0.950 . S
C2372 C2370 1.391 . S
C2372 C2373 1.400 . S
C2373 C2367 1.491 . S
C2373 C2372 1.400 . S
C2373 C2374 1.398 . S
C2374 H2362 0.950 . S
C2374 C2373 1.398 . S
C2374 C2375 1.391 . S
C2375 H2363 0.950 . S
C2375 C2371 1.393 . S
C2375 C2374 1.391 . S
H2376 C2384 0.950 . S
H2377 C2389 0.950 . S
H2378 C2386 0.950 . S
H2379 C2388 0.950 . S
H2380 C2390 0.950 . S
H2381 C2392 0.950 . S
H2382 C2394 0.950 . S
H2383 C2395 0.950 . S
C2384 H2376 0.950 . S
C2384 C2385 1.386 . S
C2384 C2386 1.391 . S
C2385 C2384 1.386 . S
C2385 C2389 1.393 . S
C2386 H2378 0.950 . S
C2386 C2384 1.391 . S
C2386 C2387 1.400 . S
C2387 C2386 1.400 . S
C2387 C2388 1.398 . S
C2387 C2393 1.491 1_565 S
C2388 H2379 0.950 . S
C2388 C2387 1.398 . S
C2388 C2389 1.391 . S
C2389 H2377 0.950 . S
C2389 C2385 1.393 . S
C2389 C2388 1.391 . S
C2390 H2380 0.950 . S
C2390 C2391 1.386 . S
C2390 C2392 1.391 . S
C2391 C2390 1.386 . S
C2391 C2395 1.393 . S
C2392 H2381 0.950 . S
C2392 C2390 1.391 . S
C2392 C2393 1.400 . S
C2393 C2387 1.491 1_545 S
C2393 C2392 1.400 . S
C2393 C2394 1.398 . S
C2394 H2382 0.950 . S
C2394 C2393 1.398 . S
C2394 C2395 1.391 . S
C2395 H2383 0.950 . S
C2395 C2391 1.393 . S
C2395 C2394 1.391 . S
H2396 C2404 0.950 . S
H2397 C2409 0.950 . S
H2398 C2406 0.950 . S
H2399 C2408 0.950 1_556 S
H2400 C2410 0.950 . S
H2401 C2412 0.950 . S
H2402 C2414 0.950 1_554 S
H2403 C2415 0.950 . S
C2404 H2396 0.950 . S
C2404 C2405 1.386 . S
C2404 C2406 1.391 . S
C2405 C2404 1.386 . S
C2405 C2409 1.393 . S
C2406 H2398 0.950 . S
C2406 C2404 1.391 . S
C2406 C2407 1.400 . S
C2407 C2406 1.400 . S
C2407 C2408 1.398 . S
C2407 C2413 1.491 1_554 S
C2408 H2399 0.950 1_554 S
C2408 C2407 1.398 . S
C2408 C2409 1.391 . S
C2409 H2397 0.950 . S
C2409 C2405 1.393 . S
C2409 C2408 1.391 . S
C2410 H2400 0.950 . S
C2410 C2411 1.386 . S
C2410 C2412 1.391 . S
C2411 C2410 1.386 . S
C2411 C2415 1.393 . S
C2412 H2401 0.950 . S
C2412 C2410 1.391 . S
C2412 C2413 1.400 . S
C2413 C2407 1.491 1_556 S
C2413 C2412 1.400 . S
C2413 C2414 1.398 . S
C2414 H2402 0.950 1_556 S
C2414 C2413 1.398 . S
C2414 C2415 1.391 . S
C2415 H2403 0.950 . S
C2415 C2411 1.393 . S
C2415 C2414 1.391 . S
H2416 C2424 0.950 . S
H2417 C2429 0.950 . S
H2418 C2426 0.950 . S
H2419 C2428 0.950 . S
H2420 C2430 0.950 . S
H2421 C2432 0.950 . S
H2422 C2434 0.950 . S
H2423 C2435 0.950 . S
C2424 H2416 0.950 . S
C2424 C2425 1.386 . S
C2424 C2426 1.391 . S
C2425 C2424 1.386 . S
C2425 C2429 1.393 . S
C2426 H2418 0.950 . S
C2426 C2424 1.391 . S
C2426 C2427 1.400 . S
C2427 C2426 1.400 . S
C2427 C2428 1.398 . S
C2427 C2433 1.491 1_565 S
C2428 H2419 0.950 . S
C2428 C2427 1.398 . S
C2428 C2429 1.391 . S
C2429 H2417 0.950 . S
C2429 C2425 1.393 . S
C2429 C2428 1.391 . S
C2430 H2420 0.950 . S
C2430 C2431 1.386 . S
C2430 C2432 1.391 . S
C2431 C2430 1.386 . S
C2431 C2435 1.393 . S
C2432 H2421 0.950 . S
C2432 C2430 1.391 . S
C2432 C2433 1.400 . S
C2433 C2427 1.491 1_545 S
C2433 C2432 1.400 . S
C2433 C2434 1.398 . S
C2434 H2422 0.950 . S
C2434 C2433 1.398 . S
C2434 C2435 1.391 . S
C2435 H2423 0.950 . S
C2435 C2431 1.393 . S
C2435 C2434 1.391 . S
H2436 C2444 0.950 . S
H2437 C2449 0.950 . S
H2438 C2446 0.950 . S
H2439 C2448 0.950 . S
H2440 C2450 0.950 . S
H2441 C2452 0.950 . S
H2442 C2454 0.950 . S
H2443 C2455 0.950 . S
C2444 H2436 0.950 . S
C2444 C2445 1.386 . S
C2444 C2446 1.391 . S
C2445 C2444 1.386 . S
C2445 C2449 1.393 . S
C2446 H2438 0.950 . S
C2446 C2444 1.391 . S
C2446 C2447 1.400 . S
C2447 C2446 1.400 . S
C2447 C2448 1.398 . S
C2447 C2453 1.491 . S
C2448 H2439 0.950 . S
C2448 C2447 1.398 . S
C2448 C2449 1.391 . S
C2449 H2437 0.950 . S
C2449 C2445 1.393 . S
C2449 C2448 1.391 . S
C2450 H2440 0.950 . S
C2450 C2451 1.386 . S
C2450 C2452 1.391 . S
C2451 C2450 1.386 . S
C2451 C2455 1.393 . S
C2452 H2441 0.950 . S
C2452 C2450 1.391 . S
C2452 C2453 1.400 . S
C2453 C2447 1.491 . S
C2453 C2452 1.400 . S
C2453 C2454 1.398 . S
C2454 H2442 0.950 . S
C2454 C2453 1.398 . S
C2454 C2455 1.391 . S
C2455 H2443 0.950 . S
C2455 C2451 1.393 . S
C2455 C2454 1.391 . S
H2456 C2464 0.950 . S
H2457 C2469 0.950 . S
H2458 C2466 0.950 . S
H2459 C2468 0.950 1_565 S
H2460 C2470 0.950 . S
H2461 C2472 0.950 . S
H2462 C2474 0.950 1_545 S
H2463 C2475 0.950 . S
C2464 H2456 0.950 . S
C2464 C2465 1.386 . S
C2464 C2466 1.391 . S
C2465 C2464 1.386 . S
C2465 C2469 1.393 . S
C2466 H2458 0.950 . S
C2466 C2464 1.391 . S
C2466 C2467 1.400 . S
C2467 C2466 1.400 . S
C2467 C2468 1.398 . S
C2467 C2473 1.491 1_545 S
C2468 H2459 0.950 1_545 S
C2468 C2467 1.398 . S
C2468 C2469 1.391 . S
C2469 H2457 0.950 . S
C2469 C2465 1.393 . S
C2469 C2468 1.391 . S
C2470 H2460 0.950 . S
C2470 C2471 1.386 . S
C2470 C2472 1.391 . S
C2471 C2470 1.386 . S
C2471 C2475 1.393 . S
C2472 H2461 0.950 . S
C2472 C2470 1.391 . S
C2472 C2473 1.400 . S
C2473 C2467 1.491 1_565 S
C2473 C2472 1.400 . S
C2473 C2474 1.398 . S
C2474 H2462 0.950 1_565 S
C2474 C2473 1.398 . S
C2474 C2475 1.391 . S
C2475 H2463 0.950 . S
C2475 C2471 1.393 . S
C2475 C2474 1.391 . S
H2476 C2484 0.950 . S
H2477 C2489 0.950 . S
H2478 C2486 0.924 1_554 S
H2479 C2488 0.950 . S
H2480 C2490 0.950 . S
H2481 C2492 0.924 1_556 S
H2482 C2494 0.950 . S
H2483 C2495 0.950 . S
C2484 H2476 0.950 . S
C2484 C2485 1.386 . S
C2484 C2486 1.391 . S
C2485 C2484 1.386 . S
C2485 C2489 1.393 . S
C2486 H2478 0.924 1_556 S
C2486 C2484 1.391 . S
C2486 C2487 1.400 . S
C2487 C2486 1.400 . S
C2487 C2488 1.398 . S
C2487 C2493 1.491 1_556 S
C2488 H2479 0.950 . S
C2488 C2487 1.398 . S
C2488 C2489 1.391 . S
C2489 H2477 0.950 . S
C2489 C2485 1.393 . S
C2489 C2488 1.391 . S
C2490 H2480 0.950 . S
C2490 C2491 1.386 . S
C2490 C2492 1.391 . S
C2491 C2490 1.386 . S
C2491 C2495 1.393 . S
C2492 H2481 0.924 1_554 S
C2492 C2490 1.391 . S
C2492 C2493 1.400 . S
C2493 C2487 1.491 1_554 S
C2493 C2492 1.400 . S
C2493 C2494 1.398 . S
C2494 H2482 0.950 . S
C2494 C2493 1.398 . S
C2494 C2495 1.391 . S
C2495 H2483 0.950 . S
C2495 C2491 1.393 . S
C2495 C2494 1.391 . S
H2496 C2504 0.950 . S
H2497 C2509 0.950 . S
H2498 C2506 0.950 . S
H2499 C2508 0.950 . S
H2500 C2510 0.950 . S
H2501 C2512 0.950 . S
H2502 C2514 0.950 . S
H2503 C2515 0.950 . S
C2504 H2496 0.950 . S
C2504 C2505 1.386 . S
C2504 C2506 1.391 . S
C2505 C2504 1.386 . S
C2505 C2509 1.393 . S
C2506 H2498 0.950 . S
C2506 C2504 1.391 . S
C2506 C2507 1.400 . S
C2507 C2506 1.400 . S
C2507 C2508 1.398 . S
C2507 C2513 1.491 . S
C2508 H2499 0.950 . S
C2508 C2507 1.398 . S
C2508 C2509 1.391 . S
C2509 H2497 0.950 . S
C2509 C2505 1.393 . S
C2509 C2508 1.391 . S
C2510 H2500 0.950 . S
C2510 C2511 1.386 . S
C2510 C2512 1.391 . S
C2511 C2510 1.386 . S
C2511 C2515 1.393 . S
C2512 H2501 0.950 . S
C2512 C2510 1.391 . S
C2512 C2513 1.400 . S
C2513 C2507 1.491 . S
C2513 C2512 1.400 . S
C2513 C2514 1.398 . S
C2514 H2502 0.950 . S
C2514 C2513 1.398 . S
C2514 C2515 1.391 . S
C2515 H2503 0.950 . S
C2515 C2511 1.393 . S
C2515 C2514 1.391 . S
H2516 C2524 0.950 . S
H2517 C2529 0.950 . S
H2518 C2526 0.950 . S
H2519 C2528 0.950 1_556 S
H2520 C2530 0.950 . S
H2521 C2532 0.950 . S
H2522 C2534 0.950 1_554 S
H2523 C2535 0.950 . S
C2524 H2516 0.950 . S
C2524 C2525 1.386 . S
C2524 C2526 1.391 . S
C2525 C2524 1.386 . S
C2525 C2529 1.393 . S
C2526 H2518 0.950 . S
C2526 C2524 1.391 . S
C2526 C2527 1.400 . S
C2527 C2526 1.400 . S
C2527 C2528 1.398 . S
C2527 C2533 1.491 1_554 S
C2528 H2519 0.950 1_554 S
C2528 C2527 1.398 . S
C2528 C2529 1.391 . S
C2529 H2517 0.950 . S
C2529 C2525 1.393 . S
C2529 C2528 1.391 . S
C2530 H2520 0.950 . S
C2530 C2531 1.386 . S
C2530 C2532 1.391 . S
C2531 C2530 1.386 . S
C2531 C2535 1.393 . S
C2532 H2521 0.950 . S
C2532 C2530 1.391 . S
C2532 C2533 1.400 . S
C2533 C2527 1.491 1_556 S
C2533 C2532 1.400 . S
C2533 C2534 1.398 . S
C2534 H2522 0.950 1_556 S
C2534 C2533 1.398 . S
C2534 C2535 1.391 . S
C2535 H2523 0.950 . S
C2535 C2531 1.393 . S
C2535 C2534 1.391 . S
H2536 C2544 0.950 . S
H2537 C2549 0.950 . S
H2538 C2546 0.950 . S
H2539 C2548 0.950 . S
H2540 C2550 0.950 . S
H2541 C2552 0.950 . S
H2542 C2554 0.950 . S
H2543 C2555 0.950 . S
C2544 H2536 0.950 . S
C2544 C2545 1.386 . S
C2544 C2546 1.391 . S
C2545 C2544 1.386 . S
C2545 C2549 1.393 . S
C2546 H2538 0.950 . S
C2546 C2544 1.391 . S
C2546 C2547 1.400 . S
C2547 C2546 1.400 . S
C2547 C2548 1.398 . S
C2547 C2553 1.491 . S
C2548 H2539 0.950 . S
C2548 C2547 1.398 . S
C2548 C2549 1.391 . S
C2549 H2537 0.950 . S
C2549 C2545 1.393 . S
C2549 C2548 1.391 . S
C2550 H2540 0.950 . S
C2550 C2551 1.386 . S
C2550 C2552 1.391 . S
C2551 C2550 1.386 . S
C2551 C2555 1.393 . S
C2552 H2541 0.950 . S
C2552 C2550 1.391 . S
C2552 C2553 1.400 . S
C2553 C2547 1.491 . S
C2553 C2552 1.400 . S
C2553 C2554 1.398 . S
C2554 H2542 0.950 . S
C2554 C2553 1.398 . S
C2554 C2555 1.391 . S
C2555 H2543 0.950 . S
C2555 C2551 1.393 . S
C2555 C2554 1.391 . S
H2556 C2564 0.950 . S
H2557 C2569 0.950 . S
H2558 C2566 0.950 . S
H2559 C2568 0.950 . S
H2560 C2570 0.950 . S
H2561 C2572 0.950 . S
H2562 C2574 0.950 . S
H2563 C2575 0.950 . S
C2564 H2556 0.950 . S
C2564 C2565 1.386 . S
C2564 C2566 1.391 . S
C2565 C2564 1.386 . S
C2565 C2569 1.393 . S
C2566 H2558 0.950 . S
C2566 C2564 1.391 . S
C2566 C2567 1.400 . S
C2567 C2566 1.400 . S
C2567 C2568 1.398 . S
C2567 C2573 1.491 . S
C2568 H2559 0.950 . S
C2568 C2567 1.398 . S
C2568 C2569 1.391 . S
C2569 H2557 0.950 . S
C2569 C2565 1.393 . S
C2569 C2568 1.391 . S
C2570 H2560 0.950 . S
C2570 C2571 1.386 . S
C2570 C2572 1.391 . S
C2571 C2570 1.386 . S
C2571 C2575 1.393 . S
C2572 H2561 0.950 . S
C2572 C2570 1.391 . S
C2572 C2573 1.400 . S
C2573 C2567 1.491 . S
C2573 C2572 1.400 . S
C2573 C2574 1.398 . S
C2574 H2562 0.950 . S
C2574 C2573 1.398 . S
C2574 C2575 1.391 . S
C2575 H2563 0.950 . S
C2575 C2571 1.393 . S
C2575 C2574 1.391 . S
H2576 C2584 0.950 . S
H2577 C2589 0.950 . S
H2578 C2586 0.950 . S
H2579 C2588 0.950 . S
H2580 C2590 0.950 . S
H2581 C2592 0.950 . S
H2582 C2594 0.950 . S
H2583 C2595 0.950 . S
C2584 H2576 0.950 . S
C2584 C2585 1.386 . S
C2584 C2586 1.391 . S
C2585 C2584 1.386 . S
C2585 C2589 1.393 . S
C2586 H2578 0.950 . S
C2586 C2584 1.391 . S
C2586 C2587 1.400 . S
C2587 C2586 1.400 . S
C2587 C2588 1.398 . S
C2587 C2593 1.491 . S
C2588 H2579 0.950 . S
C2588 C2587 1.398 . S
C2588 C2589 1.391 . S
C2589 H2577 0.950 . S
C2589 C2585 1.393 . S
C2589 C2588 1.391 . S
C2590 H2580 0.950 . S
C2590 C2591 1.386 . S
C2590 C2592 1.391 . S
C2591 C2590 1.386 . S
C2591 C2595 1.393 . S
C2592 H2581 0.950 . S
C2592 C2590 1.391 . S
C2592 C2593 1.400 . S
C2593 C2587 1.491 . S
C2593 C2592 1.400 . S
C2593 C2594 1.398 . S
C2594 H2582 0.950 . S
C2594 C2593 1.398 . S
C2594 C2595 1.391 . S
C2595 H2583 0.950 . S
C2595 C2591 1.393 . S
C2595 C2594 1.391 . S
H2596 C2604 0.950 . S
H2597 C2609 0.950 . S
H2598 C2606 0.950 . S
H2599 C2608 0.950 . S
H2600 C2610 0.950 . S
H2601 C2612 0.950 . S
H2602 C2614 0.950 . S
H2603 C2615 0.950 . S
C2604 H2596 0.950 . S
C2604 C2605 1.386 . S
C2604 C2606 1.391 . S
C2605 C2604 1.386 . S
C2605 C2609 1.393 . S
C2606 H2598 0.950 . S
C2606 C2604 1.391 . S
C2606 C2607 1.400 . S
C2607 C2606 1.400 . S
C2607 C2608 1.398 . S
C2607 C2613 1.491 1_554 S
C2608 H2599 0.950 . S
C2608 C2607 1.398 . S
C2608 C2609 1.391 . S
C2609 H2597 0.950 . S
C2609 C2605 1.393 . S
C2609 C2608 1.391 . S
C2610 H2600 0.950 . S
C2610 C2611 1.386 . S
C2610 C2612 1.391 . S
C2611 C2610 1.386 . S
C2611 C2615 1.393 . S
C2612 H2601 0.950 . S
C2612 C2610 1.391 . S
C2612 C2613 1.400 . S
C2613 C2607 1.491 1_556 S
C2613 C2612 1.400 . S
C2613 C2614 1.398 . S
C2614 H2602 0.950 . S
C2614 C2613 1.398 . S
C2614 C2615 1.391 . S
C2615 H2603 0.950 . S
C2615 C2611 1.393 . S
C2615 C2614 1.391 . S
H2616 C2624 0.950 . S
H2617 C2629 0.950 . S
H2618 C2626 0.950 . S
H2619 C2628 0.950 . S
H2620 C2630 0.950 . S
H2621 C2632 0.950 . S
H2622 C2634 0.950 . S
H2623 C2635 0.950 . S
C2624 H2616 0.950 . S
C2624 C2625 1.386 . S
C2624 C2626 1.391 . S
C2625 C2624 1.386 . S
C2625 C2629 1.393 . S
C2626 H2618 0.950 . S
C2626 C2624 1.391 . S
C2626 C2627 1.400 . S
C2627 C2626 1.400 . S
C2627 C2628 1.398 . S
C2627 C2633 1.491 . S
C2628 H2619 0.950 . S
C2628 C2627 1.398 . S
C2628 C2629 1.391 . S
C2629 H2617 0.950 . S
C2629 C2625 1.393 . S
C2629 C2628 1.391 . S
C2630 H2620 0.950 . S
C2630 C2631 1.386 . S
C2630 C2632 1.391 . S
C2631 C2630 1.386 . S
C2631 C2635 1.393 . S
C2632 H2621 0.950 . S
C2632 C2630 1.391 . S
C2632 C2633 1.400 . S
C2633 C2627 1.491 . S
C2633 C2632 1.400 . S
C2633 C2634 1.398 . S
C2634 H2622 0.950 . S
C2634 C2633 1.398 . S
C2634 C2635 1.391 . S
C2635 H2623 0.950 . S
C2635 C2631 1.393 . S
C2635 C2634 1.391 . S
H2636 C2644 0.950 . S
H2637 C2649 0.950 . S
H2638 C2646 0.950 . S
H2639 C2648 0.950 . S
H2640 C2650 0.950 . S
H2641 C2652 0.950 . S
H2642 C2654 0.950 . S
H2643 C2655 0.950 . S
C2644 H2636 0.950 . S
C2644 C2645 1.386 . S
C2644 C2646 1.391 . S
C2645 C2644 1.386 . S
C2645 C2649 1.393 . S
C2646 H2638 0.950 . S
C2646 C2644 1.391 . S
C2646 C2647 1.400 . S
C2647 C2646 1.400 . S
C2647 C2648 1.398 . S
C2647 C2653 1.491 . S
C2648 H2639 0.950 . S
C2648 C2647 1.398 . S
C2648 C2649 1.391 . S
C2649 H2637 0.950 . S
C2649 C2645 1.393 . S
C2649 C2648 1.391 . S
C2650 H2640 0.950 . S
C2650 C2651 1.386 . S
C2650 C2652 1.391 . S
C2651 C2650 1.386 . S
C2651 C2655 1.393 . S
C2652 H2641 0.950 . S
C2652 C2650 1.391 . S
C2652 C2653 1.400 . S
C2653 C2647 1.491 . S
C2653 C2652 1.400 . S
C2653 C2654 1.398 . S
C2654 H2642 0.950 . S
C2654 C2653 1.398 . S
C2654 C2655 1.391 . S
C2655 H2643 0.950 . S
C2655 C2651 1.393 . S
C2655 C2654 1.391 . S
C1065 N5 1.738 . S
C1071 N797 1.738 . S
C1085 N302 1.751 . S
C1091 N38 1.751 . S
C1105 N863 1.742 . S
C1111 N71 1.742 . S
C1125 N104 1.744 . S
C1131 N368 1.744 . S
C1145 N929 1.735 . S
C1151 N137 1.735 . S
C1165 N434 1.741 . S
C1171 N170 1.741 . S
C1185 N203 1.748 . S
C1191 N995 1.748 . S
C1205 N236 1.735 . S
C1211 N500 1.735 . S
C1225 N269 1.749 . S
C1231 N533 1.749 . S
C1245 N335 1.744 . S
C1251 N599 1.744 . S
C1265 N665 1.753 . S
C1271 N401 1.753 . S
C1285 N467 1.752 . S
C1291 N731 1.752 . S
C1305 N566 1.735 . S
C1311 N830 1.735 . S
C1325 N896 1.742 . S
C1331 N632 1.742 . S
C1345 N962 1.749 . S
C1351 N698 1.749 . S
C1365 N764 1.750 . S
C1371 N1028 1.750 . S
C1385 C28 0.737 . S
C1391 N839 0.652 . S
C1405 N344 0.635 . S
C1411 C61 0.684 . S
C1425 C94 0.735 . S
C1431 N905 0.658 . S
C1445 N278 0.663 . S
C1451 C127 0.731 . S
C1465 C160 0.653 . S
C1471 N1037 0.663 . S
C1485 C193 0.695 . S
C1491 N410 0.634 . S
C1505 N971 0.639 . S
C1511 C226 0.728 . S
C1525 N476 0.664 . S
C1531 C259 0.653 . S
C1545 N575 0.675 . S
C1551 C292 0.683 . S
C1565 N80 0.667 . S
C1571 C325 0.725 . S
C1585 C358 0.681 . S
C1591 N641 0.675 . S
C1605 C391 0.704 . S
C1611 N14 0.634 . S
C1625 N773 0.638 . S
C1631 C424 0.727 . S
C1645 N146 0.647 . S
C1651 C457 0.658 . S
C1665 C490 0.659 . S
C1671 N707 0.669 . S
C1685 C523 0.662 . S
C1691 N212 0.671 . S
C1705 N311 0.673 . S
C1711 C556 0.712 . S
C1725 N872 0.634 . S
C1731 C589 0.713 . S
C1745 N377 0.670 . S
C1751 C622 0.720 . S
C1765 C655 0.705 . S
C1771 N806 0.674 . S
C1785 N509 0.674 . S
C1791 C688 0.674 . S
C1805 C721 0.702 . S
C1811 N938 0.634 . S
C1825 N443 0.636 . S
C1831 C754 0.719 . S
C1845 C787 0.731 . S
C1851 N1004 0.641 . S
C1865 N47 0.645 . S
C1871 C820 0.660 . S
C1885 N608 0.634 . S
C1891 C853 0.695 . S
C1905 N113 0.664 . S
C1911 C886 0.653 . S
C1925 C919 0.652 . S
C1931 N542 0.653 . S
C1945 C952 0.728 . S
C1951 N245 0.639 . S
C1965 N674 0.675 . S
C1971 C985 0.692 . S
C1985 N179 0.667 . S
C1991 C1018 0.725 . S
C2005 C1051 0.667 . S
C2011 N740 0.673 . S
C2025 C602 1.170 . S
C2031 C8 1.162 . S
C2045 C635 1.171 . S
C2051 C41 1.161 . S
C2065 C536 1.167 . S
C2071 C74 1.166 . S
C2085 C569 1.147 . S
C2091 C107 1.162 . S
C2105 C140 1.147 . S
C2111 C734 1.167 . S
C2125 C767 1.166 . S
C2131 C173 1.167 . S
C2145 C206 1.170 . S
C2151 C668 1.150 . S
C2165 C701 1.168 . S
C2171 C239 1.148 . S
C2185 C866 1.160 . S
C2191 C272 1.171 . S
C2205 C305 1.168 . S
C2211 C899 1.165 . S
C2225 C338 1.157 . S
C2231 C800 1.172 . S
C2245 C371 1.147 . S
C2251 C833 1.163 . S
C2265 C998 1.161 . S
C2271 C404 1.147 . S
C2285 C437 1.157 . S
C2291 C1031 1.172 . S
C2305 C470 1.171 . S
C2311 C932 1.151 . S
C2325 C503 1.164 . S
C2331 C965 1.169 . S
C2345 C149 1.170 . S
C2351 C17 1.178 . S
C2365 C182 1.163 . S
C2371 C50 1.171 . S
C2385 C83 1.180 . S
C2391 C215 1.181 . S
C2405 C248 1.161 . S
C2411 C116 1.167 . S
C2425 C281 1.162 . S
C2431 C413 1.160 . S
C2445 C446 1.180 . S
C2451 C314 1.181 . S
C2465 C347 1.177 . S
C2471 C479 1.181 . S
C2485 C512 1.179 . S
C2491 C380 1.181 . S
C2505 C545 1.171 . S
C2511 C677 1.163 . S
C2525 C710 1.160 . S
C2531 C578 1.163 . S
C2545 C743 1.181 . S
C2551 C611 1.177 . S
C2565 C644 1.170 . S
C2571 C776 1.178 . S
C2585 C941 1.166 . S
C2591 C809 1.174 . S
C2605 C842 1.160 . S
C2611 C974 1.163 . S
C2625 C875 1.181 . S
C2631 C1007 1.180 . S
C2645 C908 1.160 . S
C2651 C1040 1.163 . S
