# Generated by pormake.
# Topology wfa, (4)-cn, num edge types: 1
# Building blocks:
#     Node 0, Type 0, BuildingBlock: CEKHIL_clean_sbu_0, # of connection points: 4
#     Node 1, Type 0, BuildingBlock: CEKHIL_clean_sbu_0, # of connection points: 4
#     Node 2, Type 0, BuildingBlock: CEKHIL_clean_sbu_0, # of connection points: 4
#     Node 3, Type 0, BuildingBlock: CEKHIL_clean_sbu_0, # of connection points: 4
#     Node 4, Type 0, BuildingBlock: CEKHIL_clean_sbu_0, # of connection points: 4
#     Node 5, Type 0, BuildingBlock: CEKHIL_clean_sbu_0, # of connection points: 4
#     Node 6, Type 0, BuildingBlock: CEKHIL_clean_sbu_0, # of connection points: 4
#     Node 7, Type 0, BuildingBlock: CEKHIL_clean_sbu_0, # of connection points: 4
#     Node 8, Type 0, BuildingBlock: CEKHIL_clean_sbu_0, # of connection points: 4
#     Node 9, Type 0, BuildingBlock: CEKHIL_clean_sbu_0, # of connection points: 4
#     Node 10, Type 0, BuildingBlock: CEKHIL_clean_sbu_0, # of connection points: 4
#     Node 11, Type 0, BuildingBlock: CEKHIL_clean_sbu_0, # of connection points: 4
#     Node 12, Type 0, BuildingBlock: CEKHIL_clean_sbu_0, # of connection points: 4
#     Node 13, Type 0, BuildingBlock: CEKHIL_clean_sbu_0, # of connection points: 4
#     Node 14, Type 0, BuildingBlock: CEKHIL_clean_sbu_0, # of connection points: 4
#     Node 15, Type 0, BuildingBlock: CEKHIL_clean_sbu_0, # of connection points: 4
#     Edge 16, Type (0, 0), BuildingBlock: XUDNAN_clean_linker_2, # of connection points: 2
#     Edge 17, Type (0, 0), BuildingBlock: XUDNAN_clean_linker_2, # of connection points: 2
#     Edge 18, Type (0, 0), BuildingBlock: XUDNAN_clean_linker_2, # of connection points: 2
#     Edge 19, Type (0, 0), BuildingBlock: XUDNAN_clean_linker_2, # of connection points: 2
#     Edge 20, Type (0, 0), BuildingBlock: XUDNAN_clean_linker_2, # of connection points: 2
#     Edge 21, Type (0, 0), BuildingBlock: XUDNAN_clean_linker_2, # of connection points: 2
#     Edge 22, Type (0, 0), BuildingBlock: XUDNAN_clean_linker_2, # of connection points: 2
#     Edge 23, Type (0, 0), BuildingBlock: XUDNAN_clean_linker_2, # of connection points: 2
#     Edge 24, Type (0, 0), BuildingBlock: XUDNAN_clean_linker_2, # of connection points: 2
#     Edge 25, Type (0, 0), BuildingBlock: XUDNAN_clean_linker_2, # of connection points: 2
#     Edge 26, Type (0, 0), BuildingBlock: XUDNAN_clean_linker_2, # of connection points: 2
#     Edge 27, Type (0, 0), BuildingBlock: XUDNAN_clean_linker_2, # of connection points: 2
#     Edge 28, Type (0, 0), BuildingBlock: XUDNAN_clean_linker_2, # of connection points: 2
#     Edge 29, Type (0, 0), BuildingBlock: XUDNAN_clean_linker_2, # of connection points: 2
#     Edge 30, Type (0, 0), BuildingBlock: XUDNAN_clean_linker_2, # of connection points: 2
#     Edge 31, Type (0, 0), BuildingBlock: XUDNAN_clean_linker_2, # of connection points: 2
#     Edge 32, Type (0, 0), BuildingBlock: XUDNAN_clean_linker_2, # of connection points: 2
#     Edge 33, Type (0, 0), BuildingBlock: XUDNAN_clean_linker_2, # of connection points: 2
#     Edge 34, Type (0, 0), BuildingBlock: XUDNAN_clean_linker_2, # of connection points: 2
#     Edge 35, Type (0, 0), BuildingBlock: XUDNAN_clean_linker_2, # of connection points: 2
#     Edge 36, Type (0, 0), BuildingBlock: XUDNAN_clean_linker_2, # of connection points: 2
#     Edge 37, Type (0, 0), BuildingBlock: XUDNAN_clean_linker_2, # of connection points: 2
#     Edge 38, Type (0, 0), BuildingBlock: XUDNAN_clean_linker_2, # of connection points: 2
#     Edge 39, Type (0, 0), BuildingBlock: XUDNAN_clean_linker_2, # of connection points: 2
#     Edge 40, Type (0, 0), BuildingBlock: XUDNAN_clean_linker_2, # of connection points: 2
#     Edge 41, Type (0, 0), BuildingBlock: XUDNAN_clean_linker_2, # of connection points: 2
#     Edge 42, Type (0, 0), BuildingBlock: XUDNAN_clean_linker_2, # of connection points: 2
#     Edge 43, Type (0, 0), BuildingBlock: XUDNAN_clean_linker_2, # of connection points: 2
#     Edge 44, Type (0, 0), BuildingBlock: XUDNAN_clean_linker_2, # of connection points: 2
#     Edge 45, Type (0, 0), BuildingBlock: XUDNAN_clean_linker_2, # of connection points: 2
#     Edge 46, Type (0, 0), BuildingBlock: XUDNAN_clean_linker_2, # of connection points: 2
#     Edge 47, Type (0, 0), BuildingBlock: XUDNAN_clean_linker_2, # of connection points: 2
# Relax obj value: 0.216
# Max RMSD: 0.275
# Mean RMSD: 0.269
data_MOF--net-wfa--node1-CEKHIL_clean_sbu_0--edge1-XUDNAN_clean_linker_2
_symmetry_space_group_name_H-M    P1
_symmetry_Int_Tables_number       1
_symmetry_cell_setting            triclinic
loop_
_symmetry_equiv_pos_as_xyz
'x, y, z'
_cell_length_a     45.622727
_cell_length_b     45.567976
_cell_length_c     23.518918
_cell_angle_alpha  89.725057
_cell_angle_beta   89.568154
_cell_angle_gamma 89.530991
loop_
_atom_site_label
_atom_site_type_symbol
_atom_site_fract_x
_atom_site_fract_y
_atom_site_fract_z
_atom_type_partial_charge
Co0 Co 0.64852 0.0183 0.02893 0.0
O1 O 0.65719 0.98614 0.97887 0.0
O2 O 0.68484 0.02546 0.98672 0.0
C3 C 0.60064 0.02348 1.00433 0.0
O4 O 0.64548 0.05542 0.07692 0.0
Co5 Co 0.60183 0.00823 0.12493 0.0
O6 O 0.60304 0.05177 0.12602 0.0
C7 C 0.6631 0.98869 0.14272 0.0
C8 C 0.68013 1.00038 0.96212 0.0
C9 C 0.62538 0.06625 0.10957 0.0
O10 O 0.67081 0.99905 0.09375 0.0
O11 O 0.63657 0.9883 0.16087 0.0
O12 O 0.62117 0.03516 0.97344 0.0
O13 O 0.60986 0.00654 0.04469 0.0
Co14 Co 0.51564 0.65152 0.04955 0.0
O15 O 0.54488 0.66218 0.99398 0.0
O16 O 0.50084 0.68236 0.9989 0.0
C17 C 0.52011 0.60175 0.03989 0.0
O18 O 0.48017 0.64512 0.10128 0.0
Co19 Co 0.53846 0.61641 0.15584 0.0
O20 O 0.49623 0.61774 0.17545 0.0
C21 C 0.54217 0.68092 0.15522 0.0
C22 C 0.52618 0.68075 0.97308 0.0
C23 C 0.47614 0.63183 0.14917 0.0
O24 O 0.53015 0.68218 0.10567 0.0
O25 O 0.54906 0.65692 0.18035 0.0
O26 O 0.50443 0.61696 1.00441 0.0
O27 O 0.53526 0.61738 0.07438 0.0
Co28 Co 0.84589 0.51318 0.99308 0.0
O29 O 0.82844 0.53211 0.92816 0.0
O30 O 0.82188 0.48554 0.95204 0.0
C31 C 0.89258 0.52837 0.98033 0.0
O32 O 0.86084 0.48687 0.05715 0.0
Co33 Co 0.86978 0.5548 0.08696 0.0
O34 O 0.8812 0.51683 0.12186 0.0
C35 C 0.80733 0.53942 0.08863 0.0
C36 C 0.8166 0.50707 0.91687 0.0
C37 C 0.87395 0.49139 0.10466 0.0
O38 O 0.81132 0.5241 0.04327 0.0
O39 O 0.8274 0.55515 0.1105 0.0
O40 O 0.88243 0.5066 0.95138 0.0
O41 O 0.87294 0.54313 0.0084 0.0
Co42 Co 0.99281 0.84382 0.02724 0.0
O43 O 0.96195 0.83446 0.97489 0.0
O44 O 0.00096 0.80654 0.99029 0.0
C45 C 0.99834 0.89116 0.99831 0.0
O46 O 0.02937 0.84671 0.07623 0.0
Co47 Co 0.9841 0.89247 0.11854 0.0
O48 O 0.0275 0.89068 0.11909 0.0
C49 C 0.96768 0.83086 0.14498 0.0
C50 C 0.97694 0.8111 0.96195 0.0
C51 C 0.04113 0.86721 0.10549 0.0
O52 O 0.97259 0.82309 0.09303 0.0
O53 O 0.97049 0.85722 0.16269 0.0
O54 O 0.01054 0.86979 0.9703 0.0
O55 O 0.98093 0.88317 0.03905 0.0
Co56 Co 0.14794 0.9861 0.4968 0.0
O57 O 0.16007 0.01233 0.55616 0.0
O58 O 0.18099 0.96939 0.53715 0.0
C59 C 0.09921 0.98605 0.51625 0.0
O60 O 0.14108 0.95342 0.4396 0.0
Co61 Co 0.10861 0.01252 0.40167 0.0
O62 O 0.10977 0.9716 0.37409 0.0
C63 C 0.17272 0.01736 0.39077 0.0
C64 C 0.17971 0.9927 0.56884 0.0
C65 C 0.12579 0.95101 0.39411 0.0
O66 O 0.17533 0.00501 0.43985 0.0
O67 O 0.14786 0.02402 0.3691 0.0
O68 O 0.11745 0.97011 0.54523 0.0
O69 O 0.1114 0.00505 0.48249 0.0
Co70 Co 0.49296 0.15897 0.4891 0.0
O71 O 0.45999 0.17343 0.53355 0.0
O72 O 0.50125 0.19752 0.52073 0.0
C73 C 0.49466 0.11297 0.52898 0.0
O74 O 0.53138 0.1513 0.44685 0.0
Co75 Co 0.48663 0.10393 0.41034 0.0
O76 O 0.53003 0.10645 0.40728 0.0
C77 C 0.47223 0.16418 0.36618 0.0
C78 C 0.47567 0.19617 0.54544 0.0
C79 C 0.54343 0.13004 0.41922 0.0
O80 O 0.47755 0.17656 0.41454 0.0
O81 O 0.47237 0.13627 0.35951 0.0
O82 O 0.50642 0.13514 0.55425 0.0
O83 O 0.47987 0.11975 0.48435 0.0
Co84 Co 0.33894 0.4903 0.47848 0.0
O85 O 0.32588 0.4601 0.53017 0.0
O86 O 0.3033 0.50276 0.5174 0.0
C87 C 0.38678 0.49072 0.50416 0.0
O88 O 0.34643 0.52647 0.42956 0.0
Co89 Co 0.38471 0.47254 0.38458 0.0
O90 O 0.38457 0.51557 0.37127 0.0
C91 C 0.32215 0.46068 0.36649 0.0
C92 C 0.30457 0.4777 0.54411 0.0
C93 C 0.36544 0.53339 0.39123 0.0
O94 O 0.31551 0.4734 0.41373 0.0
O95 O 0.34849 0.45583 0.34969 0.0
O96 O 0.36706 0.50443 0.53414 0.0
O97 O 0.37646 0.47399 0.46498 0.0
Co98 Co 0.01245 0.35303 0.47575 0.0
O99 O 0.03525 0.33331 0.53339 0.0
O100 O 0.98751 0.32788 0.52148 0.0
C101 C 0.02957 0.39884 0.49039 0.0
O102 O 0.98188 0.36983 0.42162 0.0
Co103 Co 0.04496 0.38202 0.37345 0.0
O104 O 0.00519 0.39731 0.35562 0.0
C105 C 0.03203 0.31869 0.36999 0.0
C106 C 0.01095 0.3215 0.55039 0.0
C107 C 0.9819 0.38732 0.37853 0.0
O108 O 0.01972 0.32036 0.41938 0.0
O109 O 0.04532 0.34019 0.34619 0.0
O110 O 0.00902 0.38808 0.52238 0.0
O111 O 0.04169 0.38051 0.45533 0.0
Co112 Co 0.34087 0.02252 0.99263 0.0
O113 O 0.31997 0.04167 0.05389 0.0
O114 O 0.31765 0.9942 0.03477 0.0
C115 C 0.3859 0.04132 0.0076 0.0
O116 O 0.35962 0.99571 0.93298 0.0
Co117 Co 0.36496 0.06283 0.89569 0.0
O118 O 0.38137 0.02512 0.86805 0.0
C119 C 0.30379 0.04321 0.89094 0.0
C120 C 0.3097 0.01606 0.06697 0.0
C121 C 0.3748 0.99974 0.88706 0.0
O122 O 0.30734 0.02964 0.9386 0.0
O123 O 0.32348 0.0595 0.86839 0.0
O124 O 0.37627 0.01962 0.0381 0.0
O125 O 0.3663 0.05394 0.97599 0.0
Co126 Co 0.4895 0.34047 0.97869 0.0
O127 O 0.46877 0.32333 0.04267 0.0
O128 O 0.50804 0.30374 1.0019 0.0
C129 C 0.49175 0.38716 0.01289 0.0
O130 O 0.51651 0.35264 0.9134 0.0
Co131 Co 0.45511 0.38767 0.90849 0.0
O132 O 0.49244 0.38834 0.86524 0.0
C133 C 0.44983 0.32534 0.8775 0.0
C134 C 0.48811 0.30238 0.04175 0.0
C135 C 0.51434 0.37112 0.87194 0.0
O136 O 0.46584 0.31814 0.92042 0.0
O137 O 0.44144 0.3517 0.86731 0.0
O138 O 0.50988 0.36692 0.02976 0.0
O139 O 0.47033 0.3776 0.98246 0.0
Co140 Co 0.1542 0.49848 0.98081 0.0
O141 O 0.16568 0.46795 0.03316 0.0
O142 O 0.19005 0.50921 0.01941 0.0
C143 C 0.1062 0.50167 0.00603 0.0
O144 O 0.14832 0.53457 0.93063 0.0
Co145 Co 0.1089 0.48107 0.88754 0.0
O146 O 0.11353 0.52301 0.86664 0.0
C147 C 0.17094 0.46567 0.87111 0.0
C148 C 0.18771 0.4843 0.04635 0.0
C149 C 0.13183 0.54082 0.888 0.0
O150 O 0.17754 0.4797 0.91666 0.0
O151 O 0.14461 0.46112 0.85524 0.0
O152 O 0.12605 0.51463 0.03589 0.0
O153 O 0.11637 0.48401 0.96777 0.0
Co154 Co 0.01061 0.15315 0.9748 0.0
O155 O 0.03211 0.17024 0.03667 0.0
O156 O 0.98557 0.17976 0.01748 0.0
C157 C 0.02373 0.10556 0.98838 0.0
O158 O 0.9815 0.13943 0.91552 0.0
Co159 Co 0.04671 0.12432 0.87617 0.0
O160 O 0.00715 0.11671 0.84561 0.0
C161 C 0.03641 0.18813 0.87409 0.0
C162 C 0.00807 0.18405 0.05004 0.0
C163 C 0.98321 0.12593 0.86764 0.0
O164 O 0.02204 0.18612 0.92132 0.0
O165 O 0.04994 0.16639 0.85134 0.0
O166 O 0.0033 0.11764 0.01922 0.0
O167 O 0.03847 0.12367 0.95689 0.0
Co168 Co 0.83661 0.98169 0.52902 0.0
O169 O 0.81792 0.95683 0.47472 0.0
O170 O 0.80713 0.00379 0.48606 0.0
C171 C 0.88376 0.96849 0.50977 0.0
O172 O 0.85242 0.01313 0.58168 0.0
Co173 Co 0.87034 0.94809 0.62577 0.0
O174 O 0.87878 0.98896 0.64863 0.0
C175 C 0.8066 0.95513 0.63495 0.0
C176 C 0.80232 0.9793 0.45936 0.0
C177 C 0.86836 0.0125 0.62676 0.0
O178 O 0.80643 0.97149 0.59 0.0
O179 O 0.82923 0.94106 0.65227 0.0
O180 O 0.87055 0.98776 0.47798 0.0
O181 O 0.86687 0.95515 0.54548 0.0
Co182 Co 0.52427 0.85034 0.54891 0.0
O183 O 0.5524 0.83631 0.49361 0.0
O184 O 0.50672 0.82112 0.49904 0.0
C185 C 0.53281 0.89933 0.53866 0.0
O186 O 0.48944 0.86123 0.59969 0.0
Co187 Co 0.54917 0.88305 0.65513 0.0
O188 O 0.50706 0.89298 0.66452 0.0
C189 C 0.54854 0.81849 0.65479 0.0
C190 C 0.53201 0.81994 0.47299 0.0
C191 C 0.48603 0.87961 0.64073 0.0
O192 O 0.53577 0.81848 0.60596 0.0
O193 O 0.55761 0.84168 0.67923 0.0
O194 O 0.51635 0.88565 0.50281 0.0
O195 O 0.54674 0.88231 0.57344 0.0
Co196 Co 0.64837 0.49934 0.4909 0.0
O197 O 0.66558 0.52487 0.43434 0.0
O198 O 0.67438 0.47712 0.44165 0.0
C199 C 0.60109 0.51416 0.48166 0.0
O200 O 0.63428 0.46639 0.54271 0.0
Co201 Co 0.61852 0.52754 0.59778 0.0
O202 O 0.60422 0.48682 0.6084 0.0
C203 C 0.68276 0.51966 0.59514 0.0
C204 C 0.67867 0.50167 0.41446 0.0
C205 C 0.61586 0.46457 0.58419 0.0
O206 O 0.68126 0.50699 0.5463 0.0
O207 O 0.66065 0.53157 0.62006 0.0
O208 O 0.61262 0.49567 0.44599 0.0
O209 O 0.61947 0.52605 0.51598 0.0
Co210 Co 0.99855 0.6596 0.53249 0.0
O211 O 0.96927 0.66809 0.4761 0.0
O212 O 0.00654 0.69698 0.49511 0.0
C213 C 0.00685 0.61244 0.50599 0.0
O214 O 0.03334 0.65725 0.58637 0.0
Co215 Co 0.98686 0.61087 0.62329 0.0
O216 O 0.0298 0.61409 0.63298 0.0
C217 C 0.96794 0.67227 0.64562 0.0
C218 C 0.98359 0.69181 0.46422 0.0
C219 C 0.04381 0.63716 0.61922 0.0
O220 O 0.97522 0.68015 0.59468 0.0
O221 O 0.97023 0.64586 0.66405 0.0
O222 O 0.01958 0.63385 0.47929 0.0
O223 O 0.98742 0.62013 0.54335 0.0
H224 H 0.5404 0.1542 0.31728 0.0
H225 H 0.60157 0.11636 0.43658 0.0
H226 H 0.63933 0.11355 0.36052 0.0
H227 H 0.55096 0.10424 0.22347 0.0
H228 H 0.54602 0.1264 0.16042 0.0
H229 H 0.52989 0.13784 0.22604 0.0
H230 H 0.55664 0.18757 0.21698 0.0
H231 H 0.57348 0.17574 0.15125 0.0
H232 H 0.59598 0.1882 0.20887 0.0
H233 H 0.66461 0.1021 0.27043 0.0
H234 H 0.67033 0.07479 0.18106 0.0
H235 H 0.59064 0.11426 0.11754 0.0
C236 C 0.56246 0.14713 0.32775 0.0
C237 C 0.56872 0.13658 0.38269 0.0
C238 C 0.59693 0.12558 0.39504 0.0
C239 C 0.61842 0.12398 0.35195 0.0
C240 C 0.61103 0.13288 0.29673 0.0
C241 C 0.58346 0.14416 0.28462 0.0
C242 C 0.57762 0.14426 0.22128 0.0
C243 C 0.54953 0.12713 0.20706 0.0
C244 C 0.57585 0.17583 0.19825 0.0
C245 C 0.60499 0.12874 0.19984 0.0
C246 C 0.62484 0.12406 0.24343 0.0
C247 C 0.64967 0.10636 0.23577 0.0
C248 C 0.65298 0.0911 0.18443 0.0
C249 C 0.63103 0.09289 0.14247 0.0
C250 C 0.60806 0.11348 0.14854 0.0
H251 H 0.39918 0.5799 0.41335 0.0
H252 H 0.33163 0.54843 0.30227 0.0
H253 H 0.34515 0.58554 0.2304 0.0
H254 H 0.39904 0.66251 0.35306 0.0
H255 H 0.43823 0.66303 0.36205 0.0
H256 H 0.41543 0.64389 0.41283 0.0
H257 H 0.44636 0.59677 0.39685 0.0
H258 H 0.46877 0.61534 0.34589 0.0
H259 H 0.45015 0.58223 0.32591 0.0
H260 H 0.37696 0.61054 0.16056 0.0
H261 H 0.4213 0.62313 0.1044 0.0
H262 H 0.46748 0.64133 0.26 0.0
C263 C 0.38592 0.58262 0.37567 0.0
C264 C 0.36403 0.56215 0.36351 0.0
C265 C 0.34787 0.56473 0.31275 0.0
C266 C 0.35553 0.58571 0.27161 0.0
C267 C 0.37907 0.6042 0.28249 0.0
C268 C 0.3934 0.60357 0.3344 0.0
C269 C 0.42141 0.62112 0.33184 0.0
C270 C 0.41833 0.64932 0.36702 0.0
C271 C 0.44819 0.60273 0.35114 0.0
C272 C 0.42261 0.62818 0.26896 0.0
C273 C 0.39752 0.61937 0.24135 0.0
C274 C 0.39616 0.61869 0.18187 0.0
C275 C 0.4214 0.62585 0.15013 0.0
C276 C 0.44752 0.63317 0.17826 0.0
C277 C 0.44747 0.63603 0.23788 0.0
H278 H 0.87887 0.49432 0.21871 0.0
H279 H 0.88372 0.43304 0.07859 0.0
H280 H 0.90136 0.39434 0.14483 0.0
H281 H 0.94323 0.47783 0.28075 0.0
H282 H 0.92869 0.48309 0.35172 0.0
H283 H 0.91175 0.50125 0.29331 0.0
H284 H 0.86317 0.47687 0.33041 0.0
H285 H 0.88289 0.45693 0.38462 0.0
H286 H 0.86096 0.43743 0.33406 0.0
H287 H 0.92717 0.36611 0.22114 0.0
H288 H 0.96231 0.35232 0.29622 0.0
H289 H 0.94336 0.43342 0.38454 0.0
C290 C 0.88306 0.47255 0.20212 0.0
C291 C 0.88031 0.46666 0.14355 0.0
C292 C 0.88564 0.43793 0.12341 0.0
C293 C 0.89549 0.41584 0.16085 0.0
C294 C 0.89924 0.42283 0.21818 0.0
C295 C 0.89289 0.45052 0.23869 0.0
C296 C 0.90255 0.45401 0.29963 0.0
C297 C 0.92285 0.48057 0.30647 0.0
C298 C 0.8758 0.45644 0.33953 0.0
C299 C 0.91852 0.42514 0.30838 0.0
C300 C 0.91489 0.40679 0.2621 0.0
C301 C 0.92957 0.37995 0.25805 0.0
C302 C 0.94942 0.37227 0.30086 0.0
C303 C 0.95486 0.39164 0.34627 0.0
C304 C 0.93869 0.41795 0.35105 0.0
H305 H 0.09018 0.89943 0.1024 0.0
H306 H 0.05006 0.82462 0.18379 0.0
H307 H 0.08273 0.83005 0.26588 0.0
H308 H 0.16834 0.89006 0.1787 0.0
H309 H 0.17056 0.9295 0.18161 0.0
H310 H 0.15428 0.91205 0.12096 0.0
H311 H 0.1075 0.94362 0.13575 0.0
H312 H 0.12316 0.96062 0.1964 0.0
H313 H 0.08848 0.94216 0.20327 0.0
H314 H 0.10324 0.85489 0.34955 0.0
H315 H 0.11293 0.89363 0.42045 0.0
H316 H 0.14277 0.95115 0.28588 0.0
C317 C 0.09012 0.88293 0.13569 0.0
C318 C 0.06825 0.86139 0.13674 0.0
C319 C 0.0674 0.84073 0.18166 0.0
C320 C 0.08581 0.84382 0.22873 0.0
C321 C 0.10542 0.86719 0.22925 0.0
C322 C 0.10855 0.88576 0.18263 0.0
C323 C 0.12656 0.91238 0.19728 0.0
C324 C 0.15673 0.91089 0.16791 0.0
C325 C 0.11041 0.94133 0.18239 0.0
C326 C 0.12945 0.90803 0.26078 0.0
C327 C 0.11821 0.88133 0.27843 0.0
C328 C 0.11336 0.8752 0.33618 0.0
C329 C 0.11889 0.89725 0.37632 0.0
C330 C 0.12889 0.92496 0.35809 0.0
C331 C 0.13573 0.92971 0.30035 0.0
H332 H 0.39484 0.00159 0.77807 0.0
H333 H 0.3751 0.94059 0.91515 0.0
H334 H 0.3921 0.89942 0.85425 0.0
H335 H 0.37576 0.95257 0.65811 0.0
H336 H 0.4055 0.96653 0.61523 0.0
H337 H 0.38729 0.99006 0.66603 0.0
H338 H 0.43713 0.00107 0.71367 0.0
H339 H 0.45531 0.97812 0.66247 0.0
H340 H 0.45986 0.97091 0.73734 0.0
H341 H 0.41838 0.86647 0.78349 0.0
H342 H 0.45475 0.84638 0.71504 0.0
H343 H 0.45546 0.92918 0.62473 0.0
C344 C 0.39367 0.97957 0.79542 0.0
C345 C 0.38379 0.97434 0.85166 0.0
C346 C 0.38259 0.94513 0.87222 0.0
C347 C 0.39197 0.92163 0.83774 0.0
C348 C 0.40189 0.92773 0.78257 0.0
C349 C 0.40267 0.9561 0.7617 0.0
C350 C 0.41715 0.95768 0.70378 0.0
C351 C 0.3951 0.96727 0.65809 0.0
C352 C 0.44394 0.97812 0.70442 0.0
C353 C 0.42603 0.92594 0.69638 0.0
C354 C 0.41639 0.90874 0.74144 0.0
C355 C 0.42523 0.87948 0.74722 0.0
C356 C 0.44562 0.8681 0.70785 0.0
C357 C 0.45689 0.88608 0.66385 0.0
C358 C 0.44599 0.91477 0.65663 0.0
H359 H 0.56447 0.43618 0.58512 0.0
H360 H 0.65315 0.43199 0.64776 0.0
H361 H 0.63806 0.39585 0.72082 0.0
H362 H 0.5313 0.44117 0.70372 0.0
H363 H 0.49977 0.41859 0.69108 0.0
H364 H 0.51871 0.43495 0.63226 0.0
H365 H 0.52703 0.38403 0.58632 0.0
H366 H 0.50735 0.36728 0.64468 0.0
H367 H 0.54386 0.35484 0.6269 0.0
H368 H 0.61072 0.37308 0.80263 0.0
H369 H 0.57442 0.36324 0.87953 0.0
H370 H 0.50404 0.38077 0.76125 0.0
C371 C 0.58092 0.426 0.6119 0.0
C372 C 0.60993 0.43606 0.6105 0.0
C373 C 0.63097 0.42368 0.64747 0.0
C374 C 0.62252 0.40324 0.68918 0.0
C375 C 0.59313 0.39507 0.69224 0.0
C376 C 0.5728 0.40537 0.65316 0.0
C377 C 0.54194 0.3973 0.67053 0.0
C378 C 0.52181 0.42463 0.67469 0.0
C379 C 0.52931 0.3745 0.62967 0.0
C380 C 0.54775 0.38382 0.72819 0.0
C381 C 0.57737 0.38175 0.73955 0.0
C382 C 0.58751 0.37366 0.79349 0.0
C383 C 0.56685 0.36823 0.83701 0.0
C384 C 0.53659 0.37157 0.82619 0.0
C385 C 0.52713 0.37823 0.77062 0.0
H386 H 0.09428 0.60705 0.60894 0.0
H387 H 0.05101 0.67534 0.70519 0.0
H388 H 0.08474 0.66669 0.78492 0.0
H389 H 0.09614 0.55865 0.70018 0.0
H390 H 0.13188 0.54236 0.68895 0.0
H391 H 0.11474 0.56215 0.6325 0.0
H392 H 0.15944 0.59651 0.62382 0.0
H393 H 0.17713 0.57628 0.68013 0.0
H394 H 0.17253 0.61545 0.68564 0.0
H395 H 0.10719 0.63836 0.86253 0.0
H396 H 0.11824 0.59609 0.92543 0.0
H397 H 0.14982 0.54684 0.78074 0.0
C398 C 0.09369 0.6216 0.6452 0.0
C399 C 0.07079 0.6422 0.65086 0.0
C400 C 0.06918 0.66012 0.69959 0.0
C401 C 0.08821 0.65517 0.74527 0.0
C402 C 0.10908 0.63268 0.74079 0.0
C403 C 0.11268 0.61686 0.69088 0.0
C404 C 0.13228 0.59031 0.69992 0.0
C405 C 0.11784 0.56174 0.67928 0.0
C406 C 0.16212 0.59493 0.67067 0.0
C407 C 0.13528 0.59106 0.76396 0.0
C408 C 0.123 0.61636 0.78671 0.0
C409 C 0.1181 0.61915 0.8453 0.0
C410 C 0.12443 0.5951 0.88092 0.0
C411 C 0.13532 0.56873 0.85751 0.0
C412 C 0.1423 0.56732 0.79919 0.0
H413 H 0.93931 0.08731 0.88686 0.0
H414 H 0.97044 0.1535 0.76933 0.0
H415 H 0.93407 0.13792 0.69851 0.0
H416 H 0.93665 0.03388 0.79443 0.0
H417 H 0.90418 0.01569 0.82014 0.0
H418 H 0.92519 0.03765 0.86762 0.0
H419 H 0.87917 0.06906 0.89149 0.0
H420 H 0.85775 0.04694 0.84413 0.0
H421 H 0.85871 0.08621 0.83489 0.0
H422 H 0.90336 0.10821 0.63372 0.0
H423 H 0.88192 0.06653 0.58134 0.0
H424 H 0.8713 0.01918 0.74021 0.0
C425 C 0.93711 0.09949 0.84744 0.0
C426 C 0.9568 0.12201 0.83367 0.0
C427 C 0.9548 0.13663 0.78071 0.0
C428 C 0.93421 0.12796 0.74038 0.0
C429 C 0.91583 0.10462 0.75384 0.0
C430 C 0.91683 0.09079 0.80652 0.0
C431 C 0.89867 0.06318 0.80697 0.0
C432 C 0.9173 0.03603 0.82318 0.0
C433 C 0.87199 0.06656 0.84673 0.0
C434 C 0.88936 0.06239 0.7454 0.0
C435 C 0.89854 0.08693 0.71573 0.0
C436 C 0.89529 0.08929 0.65677 0.0
C437 C 0.88313 0.06559 0.62729 0.0
C438 C 0.87505 0.03984 0.65693 0.0
C439 C 0.87722 0.03879 0.71673 0.0
H440 H 0.7156 0.0305 0.88586 0.0
H441 H 0.68551 0.94335 0.9314 0.0
H442 H 0.71174 0.92276 0.84859 0.0
H443 H 0.70838 0.02173 0.73473 0.0
H444 H 0.74083 0.04219 0.71668 0.0
H445 H 0.72076 0.05046 0.78099 0.0
H446 H 0.76773 0.0423 0.84051 0.0
H447 H 0.78801 0.03455 0.77627 0.0
H448 H 0.78788 0.00828 0.83379 0.0
H449 H 0.74223 0.91106 0.76279 0.0
H450 H 0.77617 0.90933 0.68013 0.0
H451 H 0.78376 0.00397 0.68469 0.0
C452 C 0.71493 0.00706 0.87874 0.0
C453 C 0.69864 0.98849 0.91534 0.0
C454 C 0.69786 0.95799 0.90403 0.0
C455 C 0.71262 0.94606 0.85697 0.0
C456 C 0.72789 0.96493 0.82095 0.0
C457 C 0.72927 0.99476 0.83119 0.0
C458 C 0.74705 0.01007 0.78511 0.0
C459 C 0.72811 0.03243 0.75245 0.0
C460 C 0.77428 0.02465 0.81043 0.0
C461 C 0.75547 0.98417 0.74776 0.0
C462 C 0.74426 0.95832 0.76943 0.0
C463 C 0.75071 0.9312 0.74478 0.0
C464 C 0.76976 0.93039 0.69764 0.0
C465 C 0.7816 0.95655 0.67495 0.0
C466 C 0.77392 0.98379 0.69977 0.0
H467 H 0.50348 0.79477 0.71461 0.0
H468 H 0.59601 0.78387 0.67766 0.0
H469 H 0.59934 0.74521 0.75193 0.0
H470 H 0.50989 0.7902 0.86148 0.0
H471 H 0.47626 0.77071 0.87451 0.0
H472 H 0.47977 0.79391 0.81272 0.0
H473 H 0.46682 0.75043 0.74739 0.0
H474 H 0.46276 0.72713 0.80907 0.0
H475 H 0.48751 0.71665 0.75246 0.0
H476 H 0.59357 0.71137 0.83531 0.0
H477 H 0.5795 0.68363 0.92105 0.0
H478 H 0.4906 0.71765 0.90826 0.0
C479 C 0.52412 0.78328 0.72074 0.0
C480 C 0.54934 0.79137 0.68921 0.0
C481 C 0.57636 0.7772 0.70021 0.0
C482 C 0.57842 0.7554 0.74252 0.0
C483 C 0.55331 0.74838 0.77392 0.0
C484 C 0.52659 0.76176 0.76342 0.0
C485 C 0.50359 0.75203 0.80655 0.0
C486 C 0.49169 0.77828 0.84083 0.0
C487 C 0.4787 0.73558 0.7771 0.0
C488 C 0.52166 0.73148 0.84364 0.0
C489 C 0.55018 0.72955 0.82356 0.0
C490 C 0.57125 0.71254 0.85107 0.0
C491 C 0.56299 0.69689 0.90001 0.0
C492 C 0.53391 0.69837 0.92167 0.0
C493 C 0.51299 0.71603 0.89293 0.0
H494 H 0.78056 0.54763 0.86767 0.0
H495 H 0.81319 0.45858 0.84907 0.0
H496 H 0.78688 0.45442 0.75754 0.0
H497 H 0.7085 0.53227 0.81604 0.0
H498 H 0.70421 0.56759 0.78216 0.0
H499 H 0.72732 0.56377 0.84346 0.0
H500 H 0.77055 0.58589 0.78583 0.0
H501 H 0.74767 0.58923 0.72396 0.0
H502 H 0.78177 0.56906 0.71986 0.0
H503 H 0.75779 0.46085 0.66656 0.0
H504 H 0.7208 0.47316 0.59383 0.0
H505 H 0.70409 0.55655 0.67661 0.0
C506 C 0.78217 0.52728 0.84419 0.0
C507 C 0.79903 0.50347 0.86493 0.0
C508 C 0.80029 0.47701 0.83378 0.0
C509 C 0.78568 0.47459 0.78158 0.0
C510 C 0.76955 0.49869 0.76179 0.0
C511 C 0.76715 0.52426 0.7929 0.0
C512 C 0.74646 0.54602 0.76491 0.0
C513 C 0.72006 0.55279 0.80396 0.0
C514 C 0.76259 0.57421 0.74762 0.0
C515 C 0.73745 0.5287 0.71319 0.0
C516 C 0.75156 0.50174 0.71137 0.0
C517 C 0.7466 0.48187 0.66764 0.0
C518 C 0.72577 0.48921 0.62612 0.0
C519 C 0.70969 0.5159 0.62933 0.0
C520 C 0.71621 0.53611 0.67276 0.0
H521 H 0.99427 0.7543 0.93834 0.0
H522 H 0.94089 0.82629 0.87462 0.0
H523 H 0.93018 0.79788 0.78823 0.0
H524 H 0.02579 0.73273 0.80783 0.0
H525 H 0.02438 0.69388 0.82214 0.0
H526 H 0.02679 0.71936 0.88008 0.0
H527 H 0.97977 0.69751 0.92541 0.0
H528 H 0.97727 0.67188 0.86757 0.0
H529 H 0.94671 0.69575 0.88409 0.0
H530 H 0.93028 0.76367 0.70308 0.0
H531 H 0.93696 0.72411 0.63166 0.0
H532 H 0.98601 0.673 0.75499 0.0
C533 C 0.98003 0.76389 0.90652 0.0
C534 C 0.96845 0.79253 0.91322 0.0
C535 C 0.94987 0.80432 0.87062 0.0
C536 C 0.94373 0.78838 0.82124 0.0
C537 C 0.9558 0.76038 0.81547 0.0
C538 C 0.97311 0.748 0.85747 0.0
C539 C 0.98339 0.71752 0.84081 0.0
C540 C 0.01707 0.71579 0.83751 0.0
C541 C 0.97104 0.69429 0.88192 0.0
C542 C 0.96982 0.71503 0.78241 0.0
C543 C 0.95416 0.74003 0.76819 0.0
C544 C 0.94188 0.74368 0.71428 0.0
C545 C 0.94575 0.72119 0.67397 0.0
C546 C 0.96123 0.6952 0.68831 0.0
C547 C 0.97313 0.69217 0.74343 0.0
H548 H 0.21042 0.04056 0.60465 0.0
H549 H 0.18784 0.95126 0.65028 0.0
H550 H 0.21223 0.9572 0.74316 0.0
H551 H 0.28316 0.03645 0.66543 0.0
H552 H 0.28295 0.07424 0.68774 0.0
H553 H 0.26198 0.06344 0.6269 0.0
H554 H 0.2153 0.08575 0.67366 0.0
H555 H 0.23607 0.09605 0.7352 0.0
H556 H 0.20411 0.07339 0.7434 0.0
H557 H 0.23684 0.97359 0.83218 0.0
H558 H 0.26991 0.9945 0.90306 0.0
H559 H 0.28153 0.07163 0.79619 0.0
C560 C 0.2108 0.0223 0.63429 0.0
C561 C 0.19724 0.99548 0.62083 0.0
C562 C 0.19832 0.97187 0.65997 0.0
C563 C 0.2118 0.97518 0.71295 0.0
C564 C 0.22461 0.00205 0.72547 0.0
C565 C 0.22503 0.02492 0.68667 0.0
C566 C 0.2427 0.05047 0.7088 0.0
C567 C 0.26927 0.05649 0.66992 0.0
C568 C 0.22338 0.07805 0.71566 0.0
C569 C 0.25209 0.0384 0.76614 0.0
C570 C 0.24069 0.01076 0.77541 0.0
C571 C 0.24607 0.99513 0.82526 0.0
C572 C 0.26473 0.0074 0.86561 0.0
C573 C 0.27846 0.03477 0.85539 0.0
C574 C 0.27133 0.05076 0.8055 0.0
H575 H 0.50963 0.22873 0.6179 0.0
H576 H 0.41937 0.21039 0.57527 0.0
H577 H 0.40243 0.24123 0.65556 0.0
H578 H 0.49973 0.22366 0.76704 0.0
H579 H 0.52478 0.25264 0.78415 0.0
H580 H 0.52997 0.23181 0.71993 0.0
H581 H 0.52886 0.27975 0.66014 0.0
H582 H 0.52405 0.30076 0.72429 0.0
H583 H 0.49814 0.30463 0.66726 0.0
H584 H 0.39532 0.27485 0.74143 0.0
H585 H 0.39914 0.30628 0.82716 0.0
H586 H 0.49371 0.29822 0.81947 0.0
C587 C 0.4863 0.23177 0.62471 0.0
C588 C 0.46579 0.21751 0.58961 0.0
C589 C 0.43547 0.22132 0.60114 0.0
C590 C 0.42564 0.23878 0.64677 0.0
C591 C 0.44638 0.25203 0.68134 0.0
C592 C 0.47612 0.24866 0.67093 0.0
C593 C 0.49388 0.2638 0.71644 0.0
C594 C 0.51323 0.24165 0.7488 0.0
C595 C 0.51232 0.2887 0.69048 0.0
C596 C 0.46957 0.27589 0.75431 0.0
C597 C 0.44229 0.26935 0.73287 0.0
C598 C 0.41659 0.27968 0.75902 0.0
C599 C 0.41888 0.29734 0.80785 0.0
C600 C 0.4466 0.30373 0.83103 0.0
C601 C 0.47217 0.29268 0.8039 0.0
H602 H 0.27569 0.51482 0.61753 0.0
H603 H 0.28812 0.42282 0.57703 0.0
H604 H 0.25671 0.40904 0.65892 0.0
H605 H 0.27991 0.50528 0.7686 0.0
H606 H 0.25275 0.53304 0.78464 0.0
H607 H 0.27462 0.53588 0.7208 0.0
H608 H 0.22748 0.53891 0.66026 0.0
H609 H 0.20552 0.5362 0.724 0.0
H610 H 0.20037 0.51051 0.66701 0.0
H611 H 0.22184 0.40555 0.74333 0.0
H612 H 0.18826 0.41293 0.82582 0.0
H613 H 0.20326 0.50654 0.81706 0.0
C614 C 0.27141 0.49182 0.62549 0.0
C615 C 0.28398 0.46986 0.59058 0.0
C616 C 0.27852 0.43996 0.6031 0.0
C617 C 0.26075 0.43193 0.64955 0.0
C618 C 0.24905 0.45406 0.68378 0.0
C619 C 0.2543 0.48339 0.67253 0.0
C620 C 0.24009 0.50281 0.71721 0.0
C621 C 0.26323 0.52028 0.74973 0.0
C622 C 0.217 0.52331 0.69047 0.0
C623 C 0.22589 0.47988 0.75502 0.0
C624 C 0.23099 0.45188 0.73473 0.0
C625 C 0.21819 0.42732 0.76027 0.0
C626 C 0.19933 0.43162 0.80716 0.0
C627 C 0.19419 0.46011 0.82872 0.0
C628 C 0.2079 0.48441 0.80267 0.0
H629 H 0.05243 0.28278 0.58935 0.0
H630 H 0.96741 0.32058 0.63027 0.0
H631 H 0.96782 0.29481 0.72324 0.0
H632 H 0.03622 0.21154 0.64934 0.0
H633 H 0.07312 0.20521 0.67361 0.0
H634 H 0.06667 0.22814 0.61238 0.0
H635 H 0.09502 0.27021 0.66062 0.0
H636 H 0.10102 0.24755 0.72252 0.0
H637 H 0.08345 0.28292 0.72977 0.0
H638 H 0.97843 0.26635 0.81291 0.0
H639 H 0.99293 0.22941 0.88431 0.0
H640 H 0.06922 0.20656 0.7817 0.0
C641 C 0.03392 0.28554 0.61797 0.0
C642 C 0.00994 0.30375 0.60305 0.0
C643 C 0.98589 0.30659 0.64098 0.0
C644 C 0.9861 0.2923 0.69403 0.0
C645 C 0.0103 0.27486 0.70795 0.0
C646 C 0.03341 0.27078 0.6704 0.0
C647 C 0.05552 0.24888 0.69372 0.0
C648 C 0.05801 0.22184 0.65497 0.0
C649 C 0.08553 0.26326 0.70215 0.0
C650 C 0.04126 0.24129 0.7503 0.0
C651 C 0.01556 0.25706 0.7582 0.0
C652 C 0.99845 0.25378 0.80707 0.0
C653 C 0.00708 0.23288 0.84775 0.0
C654 C 0.03228 0.21499 0.83886 0.0
C655 C 0.04995 0.21994 0.79005 0.0
H656 H 0.1815 0.04991 0.29225 0.0
H657 H 0.22334 0.98581 0.40301 0.0
H658 H 0.26243 0.97847 0.3319 0.0
H659 H 0.19547 0.01501 0.16325 0.0
H660 H 0.20386 0.0476 0.12277 0.0
H661 H 0.17985 0.0499 0.18371 0.0
H662 H 0.21306 0.08911 0.22894 0.0
H663 H 0.23687 0.08746 0.16752 0.0
H664 H 0.25162 0.08147 0.23755 0.0
H665 H 0.29273 0.97229 0.24325 0.0
H666 H 0.31869 0.97584 0.15059 0.0
H667 H 0.26122 0.04749 0.10077 0.0
C668 C 0.1993 0.03493 0.30221 0.0
C669 C 0.19919 0.01849 0.35349 0.0
C670 C 0.22289 0.99895 0.36452 0.0
C671 C 0.24515 0.99437 0.32406 0.0
C672 C 0.24395 0.00999 0.27314 0.0
C673 C 0.22222 0.03061 0.26277 0.0
C674 C 0.22636 0.0446 0.20456 0.0
C675 C 0.1998 0.03893 0.16633 0.0
C676 C 0.23234 0.07762 0.20998 0.0
C677 C 0.25333 0.02809 0.18347 0.0
C678 C 0.26278 0.00785 0.22338 0.0
C679 C 0.28594 0.98849 0.21213 0.0
C680 C 0.30035 0.99043 0.1593 0.0
C681 C 0.29196 0.01196 0.11904 0.0
C682 C 0.26813 0.03098 0.13125 0.0
H683 H 0.46747 0.22548 0.34926 0.0
H684 H 0.47459 0.14265 0.25858 0.0
H685 H 0.4808 0.16895 0.16916 0.0
H686 H 0.42445 0.26206 0.23499 0.0
H687 H 0.44138 0.29721 0.2454 0.0
H688 H 0.43745 0.2721 0.30437 0.0
H689 H 0.49329 0.27474 0.32214 0.0
H690 H 0.49746 0.29954 0.26278 0.0
H691 H 0.51852 0.26592 0.26524 0.0
H692 H 0.49183 0.20303 0.08984 0.0
H693 H 0.49706 0.24426 0.02171 0.0
H694 H 0.4766 0.30582 0.1566 0.0
C695 C 0.46978 0.21292 0.31052 0.0
C696 C 0.47067 0.18176 0.31213 0.0
C697 C 0.47376 0.16639 0.25978 0.0
C698 C 0.47753 0.18114 0.20811 0.0
C699 C 0.47736 0.21155 0.20814 0.0
C700 C 0.47265 0.22743 0.25741 0.0
C701 C 0.47223 0.26015 0.2439 0.0
C702 C 0.44208 0.27368 0.258 0.0
C703 C 0.49684 0.27602 0.2754 0.0
C704 C 0.47791 0.25986 0.17991 0.0
C705 C 0.48138 0.2315 0.16062 0.0
C706 C 0.4886 0.22538 0.10408 0.0
C707 C 0.49171 0.24887 0.06574 0.0
C708 C 0.48691 0.27806 0.08372 0.0
C709 C 0.47997 0.2836 0.14163 0.0
H710 H 0.29042 0.50383 0.31723 0.0
H711 H 0.30422 0.40971 0.31665 0.0
H712 H 0.27033 0.40536 0.23497 0.0
H713 H 0.21373 0.50561 0.27276 0.0
H714 H 0.2189 0.53735 0.22786 0.0
H715 H 0.24125 0.53224 0.29001 0.0
H716 H 0.28794 0.53614 0.22724 0.0
H717 H 0.26582 0.54077 0.16471 0.0
H718 H 0.29275 0.51166 0.16784 0.0
H719 H 0.23518 0.41184 0.15287 0.0
H720 H 0.20353 0.42839 0.07385 0.0
H721 H 0.21718 0.51898 0.12181 0.0
C722 C 0.28551 0.48224 0.30087 0.0
C723 C 0.29894 0.45692 0.32411 0.0
C724 C 0.29339 0.42916 0.30014 0.0
C725 C 0.27434 0.42658 0.25371 0.0
C726 C 0.26176 0.45209 0.23106 0.0
C727 C 0.26729 0.47942 0.25363 0.0
C728 C 0.25308 0.50363 0.2187 0.0
C729 C 0.23039 0.52071 0.25447 0.0
C730 C 0.27628 0.52426 0.19311 0.0
C731 C 0.23846 0.4857 0.173 0.0
C732 C 0.24345 0.456 0.18132 0.0
C733 C 0.23133 0.43503 0.14577 0.0
C734 C 0.21343 0.44463 0.10099 0.0
C735 C 0.20827 0.47494 0.09137 0.0
C736 C 0.22123 0.49571 0.12756 0.0
H737 H 0.05306 0.21157 0.10449 0.0
H738 H 0.95902 0.19863 0.11141 0.0
H739 H 0.95625 0.22754 0.2001 0.0
H740 H 0.06635 0.20955 0.25692 0.0
H741 H 0.09329 0.23824 0.25438 0.0
H742 H 0.08839 0.21475 0.1938 0.0
H743 H 0.07905 0.2602 0.12957 0.0
H744 H 0.0843 0.28379 0.18973 0.0
H745 H 0.05092 0.28632 0.14938 0.0
H746 H 0.96397 0.25669 0.2893 0.0
H747 H 0.97972 0.29154 0.36276 0.0
H748 H 0.06799 0.28985 0.29307 0.0
C749 C 0.03191 0.21474 0.12486 0.0
C750 C 0.00625 0.20265 0.10142 0.0
C751 C 0.97892 0.20767 0.1287 0.0
C752 C 0.97719 0.22385 0.17931 0.0
C753 C 0.00295 0.2352 0.20169 0.0
C754 C 0.02971 0.23139 0.17474 0.0
C755 C 0.05371 0.24777 0.20535 0.0
C756 C 0.0768 0.2263 0.229 0.0
C757 C 0.06781 0.2709 0.16617 0.0
C758 C 0.03616 0.26191 0.25306 0.0
C759 C 0.0071 0.25358 0.25115 0.0
C760 C 0.98665 0.26337 0.29117 0.0
C761 C 0.99589 0.28293 0.33313 0.0
C762 C 0.02514 0.29314 0.33397 0.0
C763 C 0.04559 0.28217 0.29374 0.0
H764 H 0.70431 0.02403 0.1889 0.0
H765 H 0.67107 0.93528 0.19289 0.0
H766 H 0.70399 0.92335 0.27325 0.0
H767 H 0.78047 0.00745 0.23093 0.0
H768 H 0.78296 0.03957 0.27501 0.0
H769 H 0.7595 0.03995 0.21371 0.0
H770 H 0.7155 0.05495 0.27774 0.0
H771 H 0.73871 0.05423 0.33935 0.0
H772 H 0.70598 0.03236 0.33813 0.0
H773 H 0.73905 0.92156 0.35432 0.0
H774 H 0.77352 0.9297 0.43265 0.0
H775 H 0.78164 0.02107 0.3826 0.0
C776 C 0.70477 0.00185 0.20567 0.0
C777 C 0.68597 0.98018 0.18377 0.0
C778 C 0.68593 0.95182 0.2083 0.0
C779 C 0.70441 0.94497 0.25404 0.0
C780 C 0.72231 0.96695 0.2755 0.0
C781 C 0.72262 0.99486 0.2523 0.0
C782 C 0.74226 0.015 0.28624 0.0
C783 C 0.76782 0.02614 0.24927 0.0
C784 C 0.72455 0.04065 0.31187 0.0
C785 C 0.75297 0.99405 0.33219 0.0
C786 C 0.74133 0.9664 0.32464 0.0
C787 C 0.74825 0.9431 0.36067 0.0
C788 C 0.76785 0.94798 0.40513 0.0
C789 C 0.78013 0.97605 0.41402 0.0
C790 C 0.7723 0.99949 0.37732 0.0
H791 H 0.4946 0.78192 0.41673 0.0
H792 H 0.58265 0.8173 0.41123 0.0
H793 H 0.59331 0.78901 0.32461 0.0
H794 H 0.51448 0.70927 0.37106 0.0
H795 H 0.48213 0.70419 0.32881 0.0
H796 H 0.48087 0.72817 0.38941 0.0
H797 H 0.46232 0.77058 0.32499 0.0
H798 H 0.46385 0.74673 0.2641 0.0
H799 H 0.48341 0.78094 0.26305 0.0
H800 H 0.59567 0.75527 0.2404 0.0
H801 H 0.58957 0.7166 0.16754 0.0
H802 H 0.50032 0.70326 0.2253 0.0
C803 C 0.51607 0.78376 0.39719 0.0
C804 C 0.53774 0.80198 0.42109 0.0
C805 C 0.56561 0.80359 0.39409 0.0
C806 C 0.57191 0.78765 0.34454 0.0
C807 C 0.55015 0.77005 0.32192 0.0
C808 C 0.52281 0.76785 0.34741 0.0
C809 C 0.50376 0.74646 0.31517 0.0
C810 C 0.49479 0.72048 0.35339 0.0
C811 C 0.47673 0.76212 0.29036 0.0
C812 C 0.52481 0.73677 0.26832 0.0
C813 C 0.5514 0.75083 0.27273 0.0
C814 C 0.5748 0.74444 0.23598 0.0
C815 C 0.57115 0.72266 0.19447 0.0
C816 C 0.54426 0.70777 0.18979 0.0
C817 C 0.52077 0.71515 0.22684 0.0
H818 H 0.71359 0.54623 0.37571 0.0
H819 H 0.68123 0.46016 0.33173 0.0
H820 H 0.70555 0.46392 0.23755 0.0
H821 H 0.70977 0.58011 0.23632 0.0
H822 H 0.74395 0.59929 0.24325 0.0
H823 H 0.72225 0.59103 0.30557 0.0
H824 H 0.76648 0.5639 0.35103 0.0
H825 H 0.7884 0.57263 0.2894 0.0
H826 H 0.78472 0.53499 0.31206 0.0
H827 H 0.73242 0.47754 0.14772 0.0
H828 H 0.76825 0.49468 0.07656 0.0
H829 H 0.78683 0.57028 0.18179 0.0
C830 C 0.71165 0.52824 0.34609 0.0
C831 C 0.69542 0.50297 0.36057 0.0
C832 C 0.69368 0.47962 0.32135 0.0
C833 C 0.70713 0.48173 0.26762 0.0
C834 C 0.72266 0.50711 0.25423 0.0
C835 C 0.72564 0.52963 0.29286 0.0
C836 C 0.74584 0.55323 0.26989 0.0
C837 C 0.72946 0.58266 0.26338 0.0
C838 C 0.77297 0.55635 0.30783 0.0
C839 C 0.75386 0.54041 0.21239 0.0
C840 C 0.73963 0.51418 0.20368 0.0
C841 C 0.74376 0.49801 0.15413 0.0
C842 C 0.76405 0.50813 0.11362 0.0
C843 C 0.78053 0.53388 0.12335 0.0
C844 C 0.77455 0.55064 0.17273 0.0
H845 H 0.9895 0.82951 0.25203 0.0
H846 H 0.93666 0.77946 0.1353 0.0
H847 H 0.93236 0.73979 0.20757 0.0
H848 H 0.0307 0.76887 0.30152 0.0
H849 H 0.03378 0.78211 0.37331 0.0
H850 H 0.02974 0.80774 0.31535 0.0
H851 H 0.9841 0.83063 0.36467 0.0
H852 H 0.98801 0.80513 0.42296 0.0
H853 H 0.95391 0.80744 0.38492 0.0
H854 H 0.93463 0.70554 0.29252 0.0
H855 H 0.94665 0.67713 0.37878 0.0
H856 H 0.0017 0.74801 0.43693 0.0
C857 C 0.97638 0.81051 0.24217 0.0
C858 C 0.96271 0.80783 0.18861 0.0
C859 C 0.94686 0.78211 0.17637 0.0
C860 C 0.94432 0.75955 0.21718 0.0
C861 C 0.95827 0.76286 0.26946 0.0
C862 C 0.97427 0.78759 0.28173 0.0
C863 C 0.98933 0.78475 0.33885 0.0
C864 C 0.02287 0.78593 0.33181 0.0
C865 C 0.97816 0.80839 0.3803 0.0
C866 C 0.97936 0.75447 0.35704 0.0
C867 C 0.96108 0.74244 0.31679 0.0
C868 C 0.94894 0.71475 0.32418 0.0
C869 C 0.95587 0.69881 0.37352 0.0
C870 C 0.97517 0.7103 0.41469 0.0
C871 C 0.98694 0.73861 0.40626 0.0
H872 H 0.42922 0.01618 0.07072 0.0
H873 H 0.41496 0.07721 0.93135 0.0
H874 H 0.46874 0.0807 0.91693 0.0
H875 H 0.4958 0.04994 0.12567 0.0
H876 H 0.51215 0.01496 0.14332 0.0
H877 H 0.47287 0.01936 0.1449 0.0
H878 H 0.46798 0.97577 0.07527 0.0
H879 H 0.50721 0.97143 0.07302 0.0
H880 H 0.48716 0.97681 0.008 0.0
H881 H 0.52444 0.07466 0.91446 0.0
H882 H 0.5767 0.06115 0.92594 0.0
H883 H 0.55364 0.00379 0.06676 0.0
C884 C 0.43734 0.03068 0.03767 0.0
C885 C 0.41786 0.04653 1.00222 0.0
C886 C 0.42945 0.06504 0.95925 0.0
C887 C 0.45996 0.06707 0.95069 0.0
C888 C 0.47851 0.05058 0.9857 0.0
C889 C 0.46757 0.03294 0.02866 0.0
C890 C 0.49187 0.01658 0.05924 0.0
C891 C 0.49325 0.02577 0.122 0.0
C892 C 0.48833 0.98317 0.05351 0.0
C893 C 0.51831 0.02735 0.02628 0.0
C894 C 0.51024 0.04705 0.98418 0.0
C895 C 0.53095 0.05941 0.94755 0.0
C896 C 0.56058 0.05153 0.9543 0.0
C897 C 0.56928 0.03141 0.99725 0.0
C898 C 0.54774 0.01926 0.0336 0.0
H899 H 0.46888 0.43768 0.96137 0.0
H900 H 0.52722 0.40767 0.09494 0.0
H901 H 0.5398 0.45874 0.11648 0.0
H902 H 0.51479 0.49622 0.91191 0.0
H903 H 0.48516 0.52152 0.89751 0.0
H904 H 0.47911 0.48256 0.89372 0.0
H905 H 0.43644 0.48722 0.96641 0.0
H906 H 0.44228 0.52623 0.97021 0.0
H907 H 0.44286 0.50427 0.03416 0.0
H908 H 0.54771 0.51243 0.12262 0.0
H909 H 0.54991 0.56627 0.11348 0.0
H910 H 0.48721 0.56337 0.97572 0.0
C911 C 0.48397 0.44196 0.9956 0.0
C912 C 0.49696 0.41854 0.02662 0.0
C913 C 0.51696 0.4251 0.07051 0.0
C914 C 0.52428 0.45411 0.08319 0.0
C915 C 0.51154 0.47664 0.05154 0.0
C916 C 0.49177 0.47107 0.00871 0.0
C917 C 0.48209 0.49964 0.98042 0.0
C918 C 0.49081 0.5 0.91713 0.0
C919 C 0.44895 0.50463 0.98829 0.0
C920 C 0.49961 0.5219 0.01396 0.0
C921 C 0.51637 0.50801 0.05483 0.0
C922 C 0.53462 0.5236 0.09089 0.0
C923 C 0.53575 0.55423 0.08532 0.0
C924 C 0.51879 0.56916 0.04396 0.0
C925 C 0.50048 0.55265 0.00777 0.0
H926 H 0.93636 0.49777 0.92702 0.0
H927 H 0.92114 0.56528 0.05355 0.0
H928 H 0.97438 0.56617 0.07348 0.0
H929 H 0.99024 0.45807 1.00272 0.0
H930 H 0.01201 0.449 0.94089 0.0
H931 H 0.97314 0.45503 0.93416 0.0
H932 H 0.98239 0.49513 0.85775 0.0
H933 H 0.02131 0.48902 0.86378 0.0
H934 H 0.00621 0.52533 0.87371 0.0
H935 H 0.02924 0.55755 0.08265 0.0
H936 H 0.08121 0.5421 0.07736 0.0
H937 H 0.06011 0.48012 0.9446 0.0
C938 C 0.94421 0.51306 0.95843 0.0
C939 C 0.92457 0.53155 0.98868 0.0
C940 C 0.93577 0.55106 0.02966 0.0
C941 C 0.96596 0.55163 0.04135 0.0
C942 C 0.98462 0.53264 0.0115 0.0
C943 C 0.97416 0.5139 0.97052 0.0
C944 C 0.99856 0.4952 0.94524 0.0
C945 C 0.99316 0.46239 0.95644 0.0
C946 C 0.00234 0.50156 0.88134 0.0
C947 C 0.02446 0.50611 0.97871 0.0
C948 C 0.016 0.5277 0.01671 0.0
C949 C 0.03608 0.54078 0.05283 0.0
C950 C 0.06556 0.53177 0.04962 0.0
C951 C 0.07475 0.50989 0.01058 0.0
C952 C 0.0538 0.49688 0.97488 0.0
H953 H 0.99221 0.06452 0.04715 0.0
H954 H 0.0604 0.07331 0.91876 0.0
H955 H 0.06177 0.01924 0.90775 0.0
H956 H 0.01985 0.99762 0.11236 0.0
H957 H 0.98375 0.98301 0.1247 0.0
H958 H 0.98915 0.02213 0.12355 0.0
H959 H 0.9497 0.02748 0.04535 0.0
H960 H 0.94432 0.98838 0.04591 0.0
H961 H 0.95363 0.00692 0.98042 0.0
H962 H 0.05417 0.96396 0.90885 0.0
H963 H 0.03943 0.91237 0.92362 0.0
H964 H 0.97622 0.94023 0.05153 0.0
C965 C 0.00767 0.05512 0.01705 0.0
C966 C 0.0263 0.07317 0.98389 0.0
C967 C 0.04603 0.05993 0.94477 0.0
C968 C 0.0469 0.02925 0.93818 0.0
C969 C 0.02794 0.01214 0.9711 0.0
C970 C 0.0088 0.02464 0.00997 0.0
C971 C 0.99031 0.00157 0.0395 0.0
C972 C 0.99613 0.00106 0.10384 0.0
C973 C 0.95755 0.00638 0.02703 0.0
C974 C 0.00191 0.97403 0.01112 0.0
C975 C 0.0236 0.98055 0.97176 0.0
C976 C 0.0373 0.95865 0.93972 0.0
C977 C 0.02872 0.9294 0.94832 0.0
C978 C 0.00667 0.92223 0.98871 0.0
C979 C 0.99316 0.94496 0.02038 0.0
H980 H 0.05243 0.01485 0.46272 0.0
H981 H 0.07375 0.94233 0.57619 0.0
H982 H 0.0219 0.92932 0.58243 0.0
H983 H 0.98479 0.03529 0.53462 0.0
H984 H 0.96533 0.04432 0.47038 0.0
H985 H 0.00459 0.048 0.47273 0.0
H986 H 0.00982 0.01402 0.38522 0.0
H987 H 0.97056 0.01012 0.38279 0.0
H988 H 0.99377 0.978 0.38738 0.0
H989 H 0.96847 0.92378 0.57893 0.0
H990 H 0.91494 0.92734 0.56797 0.0
H991 H 0.92575 0.00323 0.45762 0.0
C992 C 0.04609 0.99626 0.48874 0.0
C993 C 0.06734 0.97965 0.5189 0.0
C994 C 0.05809 0.9555 0.55265 0.0
C995 C 0.02858 0.94779 0.55646 0.0
C996 C 0.00824 0.96441 0.52642 0.0
C997 C 0.01636 0.98823 0.49339 0.0
C998 C 0.98947 0.00261 0.46694 0.0
C999 C 0.98584 0.03444 0.4874 0.0
C1000 C 0.991 0.00109 0.4017 0.0
C1001 C 0.96523 0.98314 0.49056 0.0
C1002 C 0.97677 0.96122 0.52456 0.0
C1003 C 0.9591 0.94079 0.55228 0.0
C1004 C 0.92869 0.94299 0.54577 0.0
C1005 C 0.91612 0.96544 0.51182 0.0
C1006 C 0.93473 0.98562 0.4834 0.0
H1007 H 0.4976 0.93895 0.48195 0.0
H1008 H 0.56421 0.93314 0.61225 0.0
H1009 H 0.56032 0.98675 0.62706 0.0
H1010 H 0.52018 0.00745 0.42121 0.0
H1011 H 0.48336 0.0204 0.4085 0.0
H1012 H 0.49119 0.98161 0.40903 0.0
H1013 H 0.45126 0.97397 0.4866 0.0
H1014 H 0.4434 0.01278 0.48652 0.0
H1015 H 0.45306 0.99441 0.55187 0.0
H1016 H 0.54937 0.0416 0.6268 0.0
H1017 H 0.53352 0.0929 0.60919 0.0
H1018 H 0.47396 0.06278 0.47933 0.0
C1019 C 0.5115 0.94895 0.51342 0.0
C1020 C 0.53137 0.93177 0.54574 0.0
C1021 C 0.54892 0.94578 0.58681 0.0
C1022 C 0.54679 0.97624 0.59566 0.0
C1023 C 0.52689 0.9925 0.56328 0.0
C1024 C 0.50957 0.97932 0.52292 0.0
C1025 C 0.49006 0.00174 0.49349 0.0
C1026 C 0.4966 0.00286 0.42926 0.0
C1027 C 0.45752 0.99534 0.50534 0.0
C1028 C 0.49952 0.0297 0.52268 0.0
C1029 C 0.52058 0.0239 0.56321 0.0
C1030 C 0.53284 0.04634 0.59522 0.0
C1031 C 0.52365 0.07544 0.58501 0.0
C1032 C 0.5025 0.08197 0.5429 0.0
C1033 C 0.49015 0.05861 0.51188 0.0
H1034 H 0.55819 0.48309 0.4276 0.0
H1035 H 0.57126 0.54969 0.55605 0.0
H1036 H 0.51798 0.55065 0.57579 0.0
H1037 H 0.48882 0.51136 0.37431 0.0
H1038 H 0.47374 0.47537 0.36373 0.0
H1039 H 0.51275 0.48074 0.35847 0.0
H1040 H 0.52094 0.44029 0.43471 0.0
H1041 H 0.48196 0.43498 0.44071 0.0
H1042 H 0.50301 0.4435 0.50298 0.0
H1043 H 0.46359 0.54328 0.58363 0.0
H1044 H 0.41157 0.5296 0.57682 0.0
H1045 H 0.43347 0.46767 0.44309 0.0
C1046 C 0.54981 0.49815 0.45941 0.0
C1047 C 0.56891 0.51645 0.49016 0.0
C1048 C 0.55708 0.53557 0.53184 0.0
C1049 C 0.52684 0.53622 0.54343 0.0
C1050 C 0.5087 0.5176 0.51295 0.0
C1051 C 0.51969 0.49903 0.47158 0.0
C1052 C 0.49548 0.4809 0.44566 0.0
C1053 C 0.49253 0.4875 0.38175 0.0
C1054 C 0.50066 0.44797 0.45669 0.0
C1055 C 0.46912 0.49222 0.47882 0.0
C1056 C 0.4773 0.51332 0.51752 0.0
C1057 C 0.45693 0.52686 0.55337 0.0
C1058 C 0.42741 0.51885 0.54924 0.0
C1059 C 0.41839 0.49754 0.50946 0.0
C1060 C 0.43965 0.484 0.47398 0.0
H1061 H 0.97381 0.56427 0.48533 0.0
H1062 H 0.06294 0.59187 0.51511 0.0
H1063 H 0.07986 0.53996 0.51109 0.0
H1064 H 0.97221 0.49871 0.56211 0.0
H1065 H 0.95224 0.47844 0.50951 0.0
H1066 H 0.948 0.51763 0.51369 0.0
H1067 H 0.96127 0.52041 0.40775 0.0
H1068 H 0.96991 0.48168 0.4025 0.0
H1069 H 0.99697 0.50839 0.38349 0.0
H1070 H 0.08626 0.48364 0.5054 0.0
H1071 H 0.08098 0.42935 0.50079 0.0
H1072 H 0.98775 0.44008 0.47396 0.0
C1073 C 0.99687 0.55928 0.49087 0.0
C1074 C 0.01713 0.5818 0.5007 0.0
C1075 C 0.04721 0.57474 0.50705 0.0
C1076 C 0.05695 0.54537 0.50492 0.0
C1077 C 0.03639 0.52349 0.49501 0.0
C1078 C 0.00703 0.53026 0.4874 0.0
C1079 C 0.9895 0.50304 0.47526 0.0
C1080 C 0.964 0.49924 0.51773 0.0
C1081 C 0.9787 0.50351 0.41359 0.0
C1082 C 0.01282 0.47964 0.48256 0.0
C1083 C 0.04003 0.49173 0.49187 0.0
C1084 C 0.06502 0.47405 0.49794 0.0
C1085 C 0.06191 0.44332 0.49503 0.0
C1086 C 0.03396 0.43081 0.48729 0.0
C1087 C 0.0093 0.44924 0.48049 0.0
loop_
_geom_bond_atom_site_label_1
_geom_bond_atom_site_label_2
_geom_bond_distance
_geom_bond_site_symmetry_2
_ccdc_geom_bond_type
Co0 O1 2.216 1_545 S
Co0 O2 2.091 . S
Co0 O4 2.004 . S
Co0 O10 2.021 1_545 S
Co0 O12 2.137 1_545 S
Co0 O13 2.244 1_545 S
O1 Co0 2.216 1_565 S
O1 C8 1.247 1_564 S
O2 Co0 2.091 . S
O2 C8 1.261 1_554 S
C3 O12 1.247 . S
C3 O13 1.272 . S
O4 Co0 2.004 . S
O4 C9 1.259 . S
Co5 O6 2.061 1_565 S
Co5 O11 2.052 . S
Co5 O13 2.135 . S
O6 Co5 2.061 1_545 S
O6 C9 1.235 . S
C7 O10 1.238 . S
C7 O11 1.241 . S
C8 O1 1.247 1_546 S
C8 O2 1.261 1_556 S
C9 O4 1.259 . S
C9 O6 1.235 . S
O10 Co0 2.021 1_565 S
O10 C7 1.238 . S
O11 Co5 2.052 . S
O11 C7 1.241 . S
O12 Co0 2.137 1_565 S
O12 C3 1.247 . S
O13 Co0 2.244 1_565 S
O13 C3 1.272 . S
O13 Co5 2.135 . S
Co14 O15 2.216 . S
Co14 O16 2.091 . S
Co14 O18 2.004 . S
Co14 O24 2.021 . S
Co14 O26 2.137 . S
Co14 O27 2.244 . S
O15 Co14 2.216 . S
O15 C22 1.247 1_554 S
O16 Co14 2.091 . S
O16 C22 1.261 1_554 S
C17 O26 1.247 . S
C17 O27 1.272 . S
O18 Co14 2.004 . S
O18 C23 1.259 . S
Co19 O20 2.061 . S
Co19 O25 2.052 . S
Co19 O27 2.135 . S
O20 Co19 2.061 . S
O20 C23 1.235 . S
C21 O24 1.238 . S
C21 O25 1.241 . S
C22 O15 1.247 1_556 S
C22 O16 1.261 1_556 S
C23 O18 1.259 . S
C23 O20 1.235 . S
O24 Co14 2.021 . S
O24 C21 1.238 . S
O25 Co19 2.052 . S
O25 C21 1.241 . S
O26 Co14 2.137 . S
O26 C17 1.247 . S
O27 Co14 2.244 . S
O27 C17 1.272 . S
O27 Co19 2.135 . S
Co28 O29 2.216 . S
Co28 O30 2.091 . S
Co28 O32 2.004 . S
Co28 O38 2.021 . S
Co28 O40 2.137 . S
Co28 O41 2.244 . S
O29 Co28 2.216 . S
O29 C36 1.247 1_554 S
O30 Co28 2.091 . S
O30 C36 1.261 1_554 S
C31 O40 1.247 . S
C31 O41 1.272 . S
O32 Co28 2.004 . S
O32 C37 1.259 . S
Co33 O34 2.061 . S
Co33 O39 2.052 . S
Co33 O41 2.135 . S
O34 Co33 2.061 . S
O34 C37 1.235 . S
C35 O38 1.238 . S
C35 O39 1.241 . S
C36 O29 1.247 1_556 S
C36 O30 1.261 1_556 S
C37 O32 1.259 . S
C37 O34 1.235 . S
O38 Co28 2.021 . S
O38 C35 1.238 . S
O39 Co33 2.052 . S
O39 C35 1.241 . S
O40 Co28 2.137 . S
O40 C31 1.247 . S
O41 Co28 2.244 . S
O41 C31 1.272 . S
O41 Co33 2.135 . S
Co42 O43 2.216 1_455 S
Co42 O44 2.091 . S
Co42 O46 2.004 . S
Co42 O52 2.021 1_455 S
Co42 O54 2.137 1_455 S
Co42 O55 2.244 1_455 S
O43 Co42 2.216 1_655 S
O43 C50 1.247 1_654 S
O44 Co42 2.091 . S
O44 C50 1.261 1_554 S
C45 O54 1.247 . S
C45 O55 1.272 . S
O46 Co42 2.004 . S
O46 C51 1.259 . S
Co47 O48 2.061 1_655 S
Co47 O53 2.052 . S
Co47 O55 2.135 . S
O48 Co47 2.061 1_455 S
O48 C51 1.235 . S
C49 O52 1.238 . S
C49 O53 1.241 . S
C50 O43 1.247 1_456 S
C50 O44 1.261 1_556 S
C51 O46 1.259 . S
C51 O48 1.235 . S
O52 Co42 2.021 1_655 S
O52 C49 1.238 . S
O53 Co47 2.052 . S
O53 C49 1.241 . S
O54 Co42 2.137 1_655 S
O54 C45 1.247 . S
O55 Co42 2.244 1_655 S
O55 C45 1.272 . S
O55 Co47 2.135 . S
Co56 O57 2.216 1_565 S
Co56 O58 2.091 . S
Co56 O60 2.004 . S
Co56 O66 2.021 1_565 S
Co56 O68 2.137 1_565 S
Co56 O69 2.244 1_565 S
O57 Co56 2.216 1_545 S
O57 C64 1.247 1_545 S
O58 Co56 2.091 . S
O58 C64 1.261 . S
C59 O68 1.247 . S
C59 O69 1.272 . S
O60 Co56 2.004 . S
O60 C65 1.259 . S
Co61 O62 2.061 1_545 S
Co61 O67 2.052 . S
Co61 O69 2.135 . S
O62 Co61 2.061 1_565 S
O62 C65 1.235 . S
C63 O66 1.238 . S
C63 O67 1.241 . S
C64 O57 1.247 1_565 S
C64 O58 1.261 . S
C65 O60 1.259 . S
C65 O62 1.235 . S
O66 Co56 2.021 1_545 S
O66 C63 1.238 . S
O67 Co61 2.052 . S
O67 C63 1.241 . S
O68 Co56 2.137 1_545 S
O68 C59 1.247 . S
O69 Co56 2.244 1_545 S
O69 C59 1.272 . S
O69 Co61 2.135 . S
Co70 O71 2.216 . S
Co70 O72 2.091 . S
Co70 O74 2.004 . S
Co70 O80 2.021 . S
Co70 O82 2.137 . S
Co70 O83 2.244 . S
O71 Co70 2.216 . S
O71 C78 1.247 . S
O72 Co70 2.091 . S
O72 C78 1.261 . S
C73 O82 1.247 . S
C73 O83 1.272 . S
O74 Co70 2.004 . S
O74 C79 1.259 . S
Co75 O76 2.061 . S
Co75 O81 2.052 . S
Co75 O83 2.135 . S
O76 Co75 2.061 . S
O76 C79 1.235 . S
C77 O80 1.238 . S
C77 O81 1.241 . S
C78 O71 1.247 . S
C78 O72 1.261 . S
C79 O74 1.259 . S
C79 O76 1.235 . S
O80 Co70 2.021 . S
O80 C77 1.238 . S
O81 Co75 2.052 . S
O81 C77 1.241 . S
O82 Co70 2.137 . S
O82 C73 1.247 . S
O83 Co70 2.244 . S
O83 C73 1.272 . S
O83 Co75 2.135 . S
Co84 O85 2.216 . S
Co84 O86 2.091 . S
Co84 O88 2.004 . S
Co84 O94 2.021 . S
Co84 O96 2.137 . S
Co84 O97 2.244 . S
O85 Co84 2.216 . S
O85 C92 1.247 . S
O86 Co84 2.091 . S
O86 C92 1.261 . S
C87 O96 1.247 . S
C87 O97 1.272 . S
O88 Co84 2.004 . S
O88 C93 1.259 . S
Co89 O90 2.061 . S
Co89 O95 2.052 . S
Co89 O97 2.135 . S
O90 Co89 2.061 . S
O90 C93 1.235 . S
C91 O94 1.238 . S
C91 O95 1.241 . S
C92 O85 1.247 . S
C92 O86 1.261 . S
C93 O88 1.259 . S
C93 O90 1.235 . S
O94 Co84 2.021 . S
O94 C91 1.238 . S
O95 Co89 2.052 . S
O95 C91 1.241 . S
O96 Co84 2.137 . S
O96 C87 1.247 . S
O97 Co84 2.244 . S
O97 C87 1.272 . S
O97 Co89 2.135 . S
Co98 O99 2.216 1_655 S
Co98 O100 2.091 . S
Co98 O102 2.004 . S
Co98 O108 2.021 1_655 S
Co98 O110 2.137 1_655 S
Co98 O111 2.244 1_655 S
O99 Co98 2.216 1_455 S
O99 C106 1.247 1_455 S
O100 Co98 2.091 . S
O100 C106 1.261 . S
C101 O110 1.247 . S
C101 O111 1.272 . S
O102 Co98 2.004 . S
O102 C107 1.259 . S
Co103 O104 2.061 1_455 S
Co103 O109 2.052 . S
Co103 O111 2.135 . S
O104 Co103 2.061 1_655 S
O104 C107 1.235 . S
C105 O108 1.238 . S
C105 O109 1.241 . S
C106 O99 1.247 1_655 S
C106 O100 1.261 . S
C107 O102 1.259 . S
C107 O104 1.235 . S
O108 Co98 2.021 1_455 S
O108 C105 1.238 . S
O109 Co103 2.052 . S
O109 C105 1.241 . S
O110 Co98 2.137 1_455 S
O110 C101 1.247 . S
O111 Co98 2.244 1_455 S
O111 C101 1.272 . S
O111 Co103 2.135 . S
Co112 O113 2.216 1_565 S
Co112 O114 2.091 . S
Co112 O116 2.004 . S
Co112 O122 2.021 1_565 S
Co112 O124 2.137 1_565 S
Co112 O125 2.244 1_565 S
O113 Co112 2.216 1_545 S
O113 C120 1.247 1_546 S
O114 Co112 2.091 . S
O114 C120 1.261 1_556 S
C115 O124 1.247 . S
C115 O125 1.272 . S
O116 Co112 2.004 . S
O116 C121 1.259 . S
Co117 O118 2.061 1_545 S
Co117 O123 2.052 . S
Co117 O125 2.135 . S
O118 Co117 2.061 1_565 S
O118 C121 1.235 . S
C119 O122 1.238 . S
C119 O123 1.241 . S
C120 O113 1.247 1_564 S
C120 O114 1.261 1_554 S
C121 O116 1.259 . S
C121 O118 1.235 . S
O122 Co112 2.021 1_545 S
O122 C119 1.238 . S
O123 Co117 2.052 . S
O123 C119 1.241 . S
O124 Co112 2.137 1_545 S
O124 C115 1.247 . S
O125 Co112 2.244 1_545 S
O125 C115 1.272 . S
O125 Co117 2.135 . S
Co126 O127 2.216 . S
Co126 O128 2.091 . S
Co126 O130 2.004 . S
Co126 O136 2.021 . S
Co126 O138 2.137 . S
Co126 O139 2.244 . S
O127 Co126 2.216 . S
O127 C134 1.247 1_556 S
O128 Co126 2.091 . S
O128 C134 1.261 1_556 S
C129 O138 1.247 . S
C129 O139 1.272 . S
O130 Co126 2.004 . S
O130 C135 1.259 . S
Co131 O132 2.061 . S
Co131 O137 2.052 . S
Co131 O139 2.135 . S
O132 Co131 2.061 . S
O132 C135 1.235 . S
C133 O136 1.238 . S
C133 O137 1.241 . S
C134 O127 1.247 1_554 S
C134 O128 1.261 1_554 S
C135 O130 1.259 . S
C135 O132 1.235 . S
O136 Co126 2.021 . S
O136 C133 1.238 . S
O137 Co131 2.052 . S
O137 C133 1.241 . S
O138 Co126 2.137 . S
O138 C129 1.247 . S
O139 Co126 2.244 . S
O139 C129 1.272 . S
O139 Co131 2.135 . S
Co140 O141 2.216 . S
Co140 O142 2.091 . S
Co140 O144 2.004 . S
Co140 O150 2.021 . S
Co140 O152 2.137 . S
Co140 O153 2.244 . S
O141 Co140 2.216 . S
O141 C148 1.247 1_556 S
O142 Co140 2.091 . S
O142 C148 1.261 1_556 S
C143 O152 1.247 . S
C143 O153 1.272 . S
O144 Co140 2.004 . S
O144 C149 1.259 . S
Co145 O146 2.061 . S
Co145 O151 2.052 . S
Co145 O153 2.135 . S
O146 Co145 2.061 . S
O146 C149 1.235 . S
C147 O150 1.238 . S
C147 O151 1.241 . S
C148 O141 1.247 1_554 S
C148 O142 1.261 1_554 S
C149 O144 1.259 . S
C149 O146 1.235 . S
O150 Co140 2.021 . S
O150 C147 1.238 . S
O151 Co145 2.052 . S
O151 C147 1.241 . S
O152 Co140 2.137 . S
O152 C143 1.247 . S
O153 Co140 2.244 . S
O153 C143 1.272 . S
O153 Co145 2.135 . S
Co154 O155 2.216 1_655 S
Co154 O156 2.091 . S
Co154 O158 2.004 . S
Co154 O164 2.021 1_655 S
Co154 O166 2.137 1_655 S
Co154 O167 2.244 1_655 S
O155 Co154 2.216 1_455 S
O155 C162 1.247 1_456 S
O156 Co154 2.091 . S
O156 C162 1.261 1_556 S
C157 O166 1.247 . S
C157 O167 1.272 . S
O158 Co154 2.004 . S
O158 C163 1.259 . S
Co159 O160 2.061 1_455 S
Co159 O165 2.052 . S
Co159 O167 2.135 . S
O160 Co159 2.061 1_655 S
O160 C163 1.235 . S
C161 O164 1.238 . S
C161 O165 1.241 . S
C162 O155 1.247 1_654 S
C162 O156 1.261 1_554 S
C163 O158 1.259 . S
C163 O160 1.235 . S
O164 Co154 2.021 1_455 S
O164 C161 1.238 . S
O165 Co159 2.052 . S
O165 C161 1.241 . S
O166 Co154 2.137 1_455 S
O166 C157 1.247 . S
O167 Co154 2.244 1_455 S
O167 C157 1.272 . S
O167 Co159 2.135 . S
Co168 O169 2.216 1_545 S
Co168 O170 2.091 . S
Co168 O172 2.004 . S
Co168 O178 2.021 1_545 S
Co168 O180 2.137 1_545 S
Co168 O181 2.244 1_545 S
O169 Co168 2.216 1_565 S
O169 C176 1.247 1_565 S
O170 Co168 2.091 . S
O170 C176 1.261 . S
C171 O180 1.247 . S
C171 O181 1.272 . S
O172 Co168 2.004 . S
O172 C177 1.259 . S
Co173 O174 2.061 1_565 S
Co173 O179 2.052 . S
Co173 O181 2.135 . S
O174 Co173 2.061 1_545 S
O174 C177 1.235 . S
C175 O178 1.238 . S
C175 O179 1.241 . S
C176 O169 1.247 1_545 S
C176 O170 1.261 . S
C177 O172 1.259 . S
C177 O174 1.235 . S
O178 Co168 2.021 1_565 S
O178 C175 1.238 . S
O179 Co173 2.052 . S
O179 C175 1.241 . S
O180 Co168 2.137 1_565 S
O180 C171 1.247 . S
O181 Co168 2.244 1_565 S
O181 C171 1.272 . S
O181 Co173 2.135 . S
Co182 O183 2.216 . S
Co182 O184 2.091 . S
Co182 O186 2.004 . S
Co182 O192 2.021 . S
Co182 O194 2.137 . S
Co182 O195 2.244 . S
O183 Co182 2.216 . S
O183 C190 1.247 . S
O184 Co182 2.091 . S
O184 C190 1.261 . S
C185 O194 1.247 . S
C185 O195 1.272 . S
O186 Co182 2.004 . S
O186 C191 1.259 . S
Co187 O188 2.061 . S
Co187 O193 2.052 . S
Co187 O195 2.135 . S
O188 Co187 2.061 . S
O188 C191 1.235 . S
C189 O192 1.238 . S
C189 O193 1.241 . S
C190 O183 1.247 . S
C190 O184 1.261 . S
C191 O186 1.259 . S
C191 O188 1.235 . S
O192 Co182 2.021 . S
O192 C189 1.238 . S
O193 Co187 2.052 . S
O193 C189 1.241 . S
O194 Co182 2.137 . S
O194 C185 1.247 . S
O195 Co182 2.244 . S
O195 C185 1.272 . S
O195 Co187 2.135 . S
Co196 O197 2.216 . S
Co196 O198 2.091 . S
Co196 O200 2.004 . S
Co196 O206 2.021 . S
Co196 O208 2.137 . S
Co196 O209 2.244 . S
O197 Co196 2.216 . S
O197 C204 1.247 . S
O198 Co196 2.091 . S
O198 C204 1.261 . S
C199 O208 1.247 . S
C199 O209 1.272 . S
O200 Co196 2.004 . S
O200 C205 1.259 . S
Co201 O202 2.061 . S
Co201 O207 2.052 . S
Co201 O209 2.135 . S
O202 Co201 2.061 . S
O202 C205 1.235 . S
C203 O206 1.238 . S
C203 O207 1.241 . S
C204 O197 1.247 . S
C204 O198 1.261 . S
C205 O200 1.259 . S
C205 O202 1.235 . S
O206 Co196 2.021 . S
O206 C203 1.238 . S
O207 Co201 2.052 . S
O207 C203 1.241 . S
O208 Co196 2.137 . S
O208 C199 1.247 . S
O209 Co196 2.244 . S
O209 C199 1.272 . S
O209 Co201 2.135 . S
Co210 O211 2.216 1_455 S
Co210 O212 2.091 . S
Co210 O214 2.004 . S
Co210 O220 2.021 1_455 S
Co210 O222 2.137 1_455 S
Co210 O223 2.244 1_455 S
O211 Co210 2.216 1_655 S
O211 C218 1.247 1_655 S
O212 Co210 2.091 . S
O212 C218 1.261 . S
C213 O222 1.247 . S
C213 O223 1.272 . S
O214 Co210 2.004 . S
O214 C219 1.259 . S
Co215 O216 2.061 1_655 S
Co215 O221 2.052 . S
Co215 O223 2.135 . S
O216 Co215 2.061 1_455 S
O216 C219 1.235 . S
C217 O220 1.238 . S
C217 O221 1.241 . S
C218 O211 1.247 1_455 S
C218 O212 1.261 . S
C219 O214 1.259 . S
C219 O216 1.235 . S
O220 Co210 2.021 1_655 S
O220 C217 1.238 . S
O221 Co215 2.052 . S
O221 C217 1.241 . S
O222 Co210 2.137 1_655 S
O222 C213 1.247 . S
O223 Co210 2.244 1_655 S
O223 C213 1.272 . S
O223 Co215 2.135 . S
H224 C236 0.930 . S
H225 C238 0.930 . S
H226 C239 0.930 . S
H227 C243 0.959 . S
H228 C243 0.959 . S
H229 C243 0.961 . S
H230 C244 0.960 . S
H231 C244 0.961 . S
H232 C244 0.959 . S
H233 C247 0.929 . S
H234 C248 0.931 . S
H235 C250 0.930 . S
C236 H224 0.930 . S
C236 C237 1.399 . S
C236 C241 1.399 . S
C237 C236 1.399 . S
C237 C238 1.376 . S
C238 H225 0.930 . S
C238 C237 1.376 . S
C238 C239 1.388 . S
C239 H226 0.930 . S
C239 C238 1.388 . S
C239 C240 1.390 . S
C240 C239 1.390 . S
C240 C241 1.394 . S
C240 C246 1.465 . S
C241 C236 1.399 . S
C241 C240 1.394 . S
C241 C242 1.516 . S
C242 C241 1.516 . S
C242 C243 1.502 . S
C242 C244 1.561 . S
C242 C245 1.526 . S
C243 H227 0.959 . S
C243 H228 0.959 . S
C243 H229 0.961 . S
C243 C242 1.502 . S
C244 H230 0.960 . S
C244 H231 0.961 . S
C244 H232 0.959 . S
C244 C242 1.561 . S
C245 C242 1.526 . S
C245 C246 1.396 . S
C245 C250 1.390 . S
C246 C240 1.465 . S
C246 C245 1.396 . S
C246 C247 1.399 . S
C247 H233 0.929 . S
C247 C246 1.399 . S
C247 C248 1.385 . S
C248 H234 0.931 . S
C248 C247 1.385 . S
C248 C249 1.389 . S
C249 C248 1.389 . S
C249 C250 1.387 . S
C250 H235 0.930 . S
C250 C245 1.390 . S
C250 C249 1.387 . S
H251 C263 0.930 . S
H252 C265 0.930 . S
H253 C266 0.930 . S
H254 C270 0.959 . S
H255 C270 0.959 . S
H256 C270 0.961 . S
H257 C271 0.960 . S
H258 C271 0.961 . S
H259 C271 0.959 . S
H260 C274 0.929 . S
H261 C275 0.931 . S
H262 C277 0.930 . S
C263 H251 0.930 . S
C263 C264 1.399 . S
C263 C268 1.399 . S
C264 C263 1.399 . S
C264 C265 1.376 . S
C265 H252 0.930 . S
C265 C264 1.376 . S
C265 C266 1.388 . S
C266 H253 0.930 . S
C266 C265 1.388 . S
C266 C267 1.390 . S
C267 C266 1.390 . S
C267 C268 1.394 . S
C267 C273 1.465 . S
C268 C263 1.399 . S
C268 C267 1.394 . S
C268 C269 1.516 . S
C269 C268 1.516 . S
C269 C270 1.502 . S
C269 C271 1.561 . S
C269 C272 1.526 . S
C270 H254 0.959 . S
C270 H255 0.959 . S
C270 H256 0.961 . S
C270 C269 1.502 . S
C271 H257 0.960 . S
C271 H258 0.961 . S
C271 H259 0.959 . S
C271 C269 1.561 . S
C272 C269 1.526 . S
C272 C273 1.396 . S
C272 C277 1.390 . S
C273 C267 1.465 . S
C273 C272 1.396 . S
C273 C274 1.399 . S
C274 H260 0.929 . S
C274 C273 1.399 . S
C274 C275 1.385 . S
C275 H261 0.931 . S
C275 C274 1.385 . S
C275 C276 1.389 . S
C276 C275 1.389 . S
C276 C277 1.387 . S
C277 H262 0.930 . S
C277 C272 1.390 . S
C277 C276 1.387 . S
H278 C290 0.930 . S
H279 C292 0.930 . S
H280 C293 0.930 . S
H281 C297 0.959 . S
H282 C297 0.959 . S
H283 C297 0.961 . S
H284 C298 0.960 . S
H285 C298 0.961 . S
H286 C298 0.959 . S
H287 C301 0.929 . S
H288 C302 0.931 . S
H289 C304 0.930 . S
C290 H278 0.930 . S
C290 C291 1.399 . S
C290 C295 1.399 . S
C291 C290 1.399 . S
C291 C292 1.376 . S
C292 H279 0.930 . S
C292 C291 1.376 . S
C292 C293 1.388 . S
C293 H280 0.930 . S
C293 C292 1.388 . S
C293 C294 1.390 . S
C294 C293 1.390 . S
C294 C295 1.394 . S
C294 C300 1.465 . S
C295 C290 1.399 . S
C295 C294 1.394 . S
C295 C296 1.516 . S
C296 C295 1.516 . S
C296 C297 1.502 . S
C296 C298 1.561 . S
C296 C299 1.526 . S
C297 H281 0.959 . S
C297 H282 0.959 . S
C297 H283 0.961 . S
C297 C296 1.502 . S
C298 H284 0.960 . S
C298 H285 0.961 . S
C298 H286 0.959 . S
C298 C296 1.561 . S
C299 C296 1.526 . S
C299 C300 1.396 . S
C299 C304 1.390 . S
C300 C294 1.465 . S
C300 C299 1.396 . S
C300 C301 1.399 . S
C301 H287 0.929 . S
C301 C300 1.399 . S
C301 C302 1.385 . S
C302 H288 0.931 . S
C302 C301 1.385 . S
C302 C303 1.389 . S
C303 C302 1.389 . S
C303 C304 1.387 . S
C304 H289 0.930 . S
C304 C299 1.390 . S
C304 C303 1.387 . S
H305 C317 0.930 . S
H306 C319 0.930 . S
H307 C320 0.930 . S
H308 C324 0.959 . S
H309 C324 0.959 . S
H310 C324 0.961 . S
H311 C325 0.960 . S
H312 C325 0.961 . S
H313 C325 0.959 . S
H314 C328 0.929 . S
H315 C329 0.931 . S
H316 C331 0.930 . S
C317 H305 0.930 . S
C317 C318 1.399 . S
C317 C322 1.399 . S
C318 C317 1.399 . S
C318 C319 1.376 . S
C319 H306 0.930 . S
C319 C318 1.376 . S
C319 C320 1.388 . S
C320 H307 0.930 . S
C320 C319 1.388 . S
C320 C321 1.390 . S
C321 C320 1.390 . S
C321 C322 1.394 . S
C321 C327 1.465 . S
C322 C317 1.399 . S
C322 C321 1.394 . S
C322 C323 1.516 . S
C323 C322 1.516 . S
C323 C324 1.502 . S
C323 C325 1.561 . S
C323 C326 1.526 . S
C324 H308 0.959 . S
C324 H309 0.959 . S
C324 H310 0.961 . S
C324 C323 1.502 . S
C325 H311 0.960 . S
C325 H312 0.961 . S
C325 H313 0.959 . S
C325 C323 1.561 . S
C326 C323 1.526 . S
C326 C327 1.396 . S
C326 C331 1.390 . S
C327 C321 1.465 . S
C327 C326 1.396 . S
C327 C328 1.399 . S
C328 H314 0.929 . S
C328 C327 1.399 . S
C328 C329 1.385 . S
C329 H315 0.931 . S
C329 C328 1.385 . S
C329 C330 1.389 . S
C330 C329 1.389 . S
C330 C331 1.387 . S
C331 H316 0.930 . S
C331 C326 1.390 . S
C331 C330 1.387 . S
H332 C344 0.930 . S
H333 C346 0.930 . S
H334 C347 0.930 . S
H335 C351 0.959 . S
H336 C351 0.959 . S
H337 C351 0.961 . S
H338 C352 0.960 . S
H339 C352 0.961 . S
H340 C352 0.959 . S
H341 C355 0.929 . S
H342 C356 0.931 . S
H343 C358 0.930 . S
C344 H332 0.930 . S
C344 C345 1.399 . S
C344 C349 1.399 . S
C345 C344 1.399 . S
C345 C346 1.376 . S
C346 H333 0.930 . S
C346 C345 1.376 . S
C346 C347 1.388 . S
C347 H334 0.930 . S
C347 C346 1.388 . S
C347 C348 1.390 . S
C348 C347 1.390 . S
C348 C349 1.394 . S
C348 C354 1.465 . S
C349 C344 1.399 . S
C349 C348 1.394 . S
C349 C350 1.516 . S
C350 C349 1.516 . S
C350 C351 1.502 . S
C350 C352 1.561 . S
C350 C353 1.526 . S
C351 H335 0.959 . S
C351 H336 0.959 . S
C351 H337 0.961 . S
C351 C350 1.502 . S
C352 H338 0.960 . S
C352 H339 0.961 . S
C352 H340 0.959 . S
C352 C350 1.561 . S
C353 C350 1.526 . S
C353 C354 1.396 . S
C353 C358 1.390 . S
C354 C348 1.465 . S
C354 C353 1.396 . S
C354 C355 1.399 . S
C355 H341 0.929 . S
C355 C354 1.399 . S
C355 C356 1.385 . S
C356 H342 0.931 . S
C356 C355 1.385 . S
C356 C357 1.389 . S
C357 C356 1.389 . S
C357 C358 1.387 . S
C358 H343 0.930 . S
C358 C353 1.390 . S
C358 C357 1.387 . S
H359 C371 0.930 . S
H360 C373 0.930 . S
H361 C374 0.930 . S
H362 C378 0.959 . S
H363 C378 0.959 . S
H364 C378 0.961 . S
H365 C379 0.960 . S
H366 C379 0.961 . S
H367 C379 0.959 . S
H368 C382 0.929 . S
H369 C383 0.931 . S
H370 C385 0.930 . S
C371 H359 0.930 . S
C371 C372 1.399 . S
C371 C376 1.399 . S
C372 C371 1.399 . S
C372 C373 1.376 . S
C373 H360 0.930 . S
C373 C372 1.376 . S
C373 C374 1.388 . S
C374 H361 0.930 . S
C374 C373 1.388 . S
C374 C375 1.390 . S
C375 C374 1.390 . S
C375 C376 1.394 . S
C375 C381 1.465 . S
C376 C371 1.399 . S
C376 C375 1.394 . S
C376 C377 1.516 . S
C377 C376 1.516 . S
C377 C378 1.502 . S
C377 C379 1.561 . S
C377 C380 1.526 . S
C378 H362 0.959 . S
C378 H363 0.959 . S
C378 H364 0.961 . S
C378 C377 1.502 . S
C379 H365 0.960 . S
C379 H366 0.961 . S
C379 H367 0.959 . S
C379 C377 1.561 . S
C380 C377 1.526 . S
C380 C381 1.396 . S
C380 C385 1.390 . S
C381 C375 1.465 . S
C381 C380 1.396 . S
C381 C382 1.399 . S
C382 H368 0.929 . S
C382 C381 1.399 . S
C382 C383 1.385 . S
C383 H369 0.931 . S
C383 C382 1.385 . S
C383 C384 1.389 . S
C384 C383 1.389 . S
C384 C385 1.387 . S
C385 H370 0.930 . S
C385 C380 1.390 . S
C385 C384 1.387 . S
H386 C398 0.930 . S
H387 C400 0.930 . S
H388 C401 0.930 . S
H389 C405 0.959 . S
H390 C405 0.959 . S
H391 C405 0.961 . S
H392 C406 0.960 . S
H393 C406 0.961 . S
H394 C406 0.959 . S
H395 C409 0.929 . S
H396 C410 0.931 . S
H397 C412 0.930 . S
C398 H386 0.930 . S
C398 C399 1.399 . S
C398 C403 1.399 . S
C399 C398 1.399 . S
C399 C400 1.376 . S
C400 H387 0.930 . S
C400 C399 1.376 . S
C400 C401 1.388 . S
C401 H388 0.930 . S
C401 C400 1.388 . S
C401 C402 1.390 . S
C402 C401 1.390 . S
C402 C403 1.394 . S
C402 C408 1.465 . S
C403 C398 1.399 . S
C403 C402 1.394 . S
C403 C404 1.516 . S
C404 C403 1.516 . S
C404 C405 1.502 . S
C404 C406 1.561 . S
C404 C407 1.526 . S
C405 H389 0.959 . S
C405 H390 0.959 . S
C405 H391 0.961 . S
C405 C404 1.502 . S
C406 H392 0.960 . S
C406 H393 0.961 . S
C406 H394 0.959 . S
C406 C404 1.561 . S
C407 C404 1.526 . S
C407 C408 1.396 . S
C407 C412 1.390 . S
C408 C402 1.465 . S
C408 C407 1.396 . S
C408 C409 1.399 . S
C409 H395 0.929 . S
C409 C408 1.399 . S
C409 C410 1.385 . S
C410 H396 0.931 . S
C410 C409 1.385 . S
C410 C411 1.389 . S
C411 C410 1.389 . S
C411 C412 1.387 . S
C412 H397 0.930 . S
C412 C407 1.390 . S
C412 C411 1.387 . S
H413 C425 0.930 . S
H414 C427 0.930 . S
H415 C428 0.930 . S
H416 C432 0.959 . S
H417 C432 0.959 . S
H418 C432 0.961 . S
H419 C433 0.960 . S
H420 C433 0.961 . S
H421 C433 0.959 . S
H422 C436 0.929 . S
H423 C437 0.931 . S
H424 C439 0.930 . S
C425 H413 0.930 . S
C425 C426 1.399 . S
C425 C430 1.399 . S
C426 C425 1.399 . S
C426 C427 1.376 . S
C427 H414 0.930 . S
C427 C426 1.376 . S
C427 C428 1.388 . S
C428 H415 0.930 . S
C428 C427 1.388 . S
C428 C429 1.390 . S
C429 C428 1.390 . S
C429 C430 1.394 . S
C429 C435 1.465 . S
C430 C425 1.399 . S
C430 C429 1.394 . S
C430 C431 1.516 . S
C431 C430 1.516 . S
C431 C432 1.502 . S
C431 C433 1.561 . S
C431 C434 1.526 . S
C432 H416 0.959 . S
C432 H417 0.959 . S
C432 H418 0.961 . S
C432 C431 1.502 . S
C433 H419 0.960 . S
C433 H420 0.961 . S
C433 H421 0.959 . S
C433 C431 1.561 . S
C434 C431 1.526 . S
C434 C435 1.396 . S
C434 C439 1.390 . S
C435 C429 1.465 . S
C435 C434 1.396 . S
C435 C436 1.399 . S
C436 H422 0.929 . S
C436 C435 1.399 . S
C436 C437 1.385 . S
C437 H423 0.931 . S
C437 C436 1.385 . S
C437 C438 1.389 . S
C438 C437 1.389 . S
C438 C439 1.387 . S
C439 H424 0.930 . S
C439 C434 1.390 . S
C439 C438 1.387 . S
H440 C452 0.930 . S
H441 C454 0.930 . S
H442 C455 0.930 . S
H443 C459 0.959 . S
H444 C459 0.959 . S
H445 C459 0.961 . S
H446 C460 0.960 . S
H447 C460 0.961 . S
H448 C460 0.959 . S
H449 C463 0.929 . S
H450 C464 0.931 . S
H451 C466 0.930 1_545 S
C452 H440 0.930 . S
C452 C453 1.399 1_545 S
C452 C457 1.399 . S
C453 C452 1.399 1_565 S
C453 C454 1.376 . S
C454 H441 0.930 . S
C454 C453 1.376 . S
C454 C455 1.388 . S
C455 H442 0.930 . S
C455 C454 1.388 . S
C455 C456 1.390 . S
C456 C455 1.390 . S
C456 C457 1.394 1_565 S
C456 C462 1.465 . S
C457 C452 1.399 . S
C457 C456 1.394 1_545 S
C457 C458 1.516 . S
C458 C457 1.516 . S
C458 C459 1.502 . S
C458 C460 1.561 . S
C458 C461 1.526 1_545 S
C459 H443 0.959 . S
C459 H444 0.959 . S
C459 H445 0.961 . S
C459 C458 1.502 . S
C460 H446 0.960 . S
C460 H447 0.961 . S
C460 H448 0.959 . S
C460 C458 1.561 . S
C461 C458 1.526 1_565 S
C461 C462 1.396 . S
C461 C466 1.390 . S
C462 C456 1.465 . S
C462 C461 1.396 . S
C462 C463 1.399 . S
C463 H449 0.929 . S
C463 C462 1.399 . S
C463 C464 1.385 . S
C464 H450 0.931 . S
C464 C463 1.385 . S
C464 C465 1.389 . S
C465 C464 1.389 . S
C465 C466 1.387 . S
C466 H451 0.930 1_565 S
C466 C461 1.390 . S
C466 C465 1.387 . S
H467 C479 0.930 . S
H468 C481 0.930 . S
H469 C482 0.930 . S
H470 C486 0.959 . S
H471 C486 0.959 . S
H472 C486 0.961 . S
H473 C487 0.960 . S
H474 C487 0.961 . S
H475 C487 0.959 . S
H476 C490 0.929 . S
H477 C491 0.931 . S
H478 C493 0.930 . S
C479 H467 0.930 . S
C479 C480 1.399 . S
C479 C484 1.399 . S
C480 C479 1.399 . S
C480 C481 1.376 . S
C481 H468 0.930 . S
C481 C480 1.376 . S
C481 C482 1.388 . S
C482 H469 0.930 . S
C482 C481 1.388 . S
C482 C483 1.390 . S
C483 C482 1.390 . S
C483 C484 1.394 . S
C483 C489 1.465 . S
C484 C479 1.399 . S
C484 C483 1.394 . S
C484 C485 1.516 . S
C485 C484 1.516 . S
C485 C486 1.502 . S
C485 C487 1.561 . S
C485 C488 1.526 . S
C486 H470 0.959 . S
C486 H471 0.959 . S
C486 H472 0.961 . S
C486 C485 1.502 . S
C487 H473 0.960 . S
C487 H474 0.961 . S
C487 H475 0.959 . S
C487 C485 1.561 . S
C488 C485 1.526 . S
C488 C489 1.396 . S
C488 C493 1.390 . S
C489 C483 1.465 . S
C489 C488 1.396 . S
C489 C490 1.399 . S
C490 H476 0.929 . S
C490 C489 1.399 . S
C490 C491 1.385 . S
C491 H477 0.931 . S
C491 C490 1.385 . S
C491 C492 1.389 . S
C492 C491 1.389 . S
C492 C493 1.387 . S
C493 H478 0.930 . S
C493 C488 1.390 . S
C493 C492 1.387 . S
H494 C506 0.930 . S
H495 C508 0.930 . S
H496 C509 0.930 . S
H497 C513 0.959 . S
H498 C513 0.959 . S
H499 C513 0.961 . S
H500 C514 0.960 . S
H501 C514 0.961 . S
H502 C514 0.959 . S
H503 C517 0.929 . S
H504 C518 0.931 . S
H505 C520 0.930 . S
C506 H494 0.930 . S
C506 C507 1.399 . S
C506 C511 1.399 . S
C507 C506 1.399 . S
C507 C508 1.376 . S
C508 H495 0.930 . S
C508 C507 1.376 . S
C508 C509 1.388 . S
C509 H496 0.930 . S
C509 C508 1.388 . S
C509 C510 1.390 . S
C510 C509 1.390 . S
C510 C511 1.394 . S
C510 C516 1.465 . S
C511 C506 1.399 . S
C511 C510 1.394 . S
C511 C512 1.516 . S
C512 C511 1.516 . S
C512 C513 1.502 . S
C512 C514 1.561 . S
C512 C515 1.526 . S
C513 H497 0.959 . S
C513 H498 0.959 . S
C513 H499 0.961 . S
C513 C512 1.502 . S
C514 H500 0.960 . S
C514 H501 0.961 . S
C514 H502 0.959 . S
C514 C512 1.561 . S
C515 C512 1.526 . S
C515 C516 1.396 . S
C515 C520 1.390 . S
C516 C510 1.465 . S
C516 C515 1.396 . S
C516 C517 1.399 . S
C517 H503 0.929 . S
C517 C516 1.399 . S
C517 C518 1.385 . S
C518 H504 0.931 . S
C518 C517 1.385 . S
C518 C519 1.389 . S
C519 C518 1.389 . S
C519 C520 1.387 . S
C520 H505 0.930 . S
C520 C515 1.390 . S
C520 C519 1.387 . S
H521 C533 0.930 . S
H522 C535 0.930 . S
H523 C536 0.930 . S
H524 C540 0.959 . S
H525 C540 0.959 . S
H526 C540 0.961 . S
H527 C541 0.960 . S
H528 C541 0.961 . S
H529 C541 0.959 . S
H530 C544 0.931 1_455 S
H531 C545 0.933 . S
H532 C547 0.930 . S
C533 H521 0.930 . S
C533 C534 1.400 . S
C533 C538 1.399 . S
C534 C533 1.400 . S
C534 C535 1.375 1_655 S
C535 H522 0.930 . S
C535 C534 1.375 1_455 S
C535 C536 1.388 . S
C536 H523 0.930 . S
C536 C535 1.388 . S
C536 C537 1.390 1_455 S
C537 C536 1.390 1_655 S
C537 C538 1.394 . S
C537 C543 1.465 . S
C538 C533 1.399 . S
C538 C537 1.394 . S
C538 C539 1.516 . S
C539 C538 1.516 . S
C539 C540 1.502 . S
C539 C541 1.561 . S
C539 C542 1.526 . S
C540 H524 0.959 . S
C540 H525 0.959 . S
C540 H526 0.961 . S
C540 C539 1.502 . S
C541 H527 0.960 . S
C541 H528 0.961 . S
C541 H529 0.959 . S
C541 C539 1.561 . S
C542 C539 1.526 . S
C542 C543 1.396 . S
C542 C547 1.390 . S
C543 C537 1.465 . S
C543 C542 1.396 . S
C543 C544 1.398 . S
C544 H530 0.931 1_655 S
C544 C543 1.398 . S
C544 C545 1.385 . S
C545 H531 0.933 . S
C545 C544 1.385 . S
C545 C546 1.389 . S
C546 C545 1.389 . S
C546 C547 1.387 . S
C547 H532 0.930 . S
C547 C542 1.390 . S
C547 C546 1.387 . S
H548 C560 0.930 . S
H549 C562 0.930 . S
H550 C563 0.930 . S
H551 C567 0.959 . S
H552 C567 0.959 . S
H553 C567 0.961 . S
H554 C568 0.960 . S
H555 C568 0.961 . S
H556 C568 0.959 . S
H557 C571 0.929 . S
H558 C572 0.931 . S
H559 C574 0.930 . S
C560 H548 0.930 . S
C560 C561 1.399 1_545 S
C560 C565 1.399 . S
C561 C560 1.399 1_565 S
C561 C562 1.376 . S
C562 H549 0.930 . S
C562 C561 1.376 . S
C562 C563 1.388 . S
C563 H550 0.930 . S
C563 C562 1.388 . S
C563 C564 1.390 . S
C564 C563 1.390 . S
C564 C565 1.394 1_565 S
C564 C570 1.460 1_565 S
C565 C560 1.399 . S
C565 C564 1.394 1_545 S
C565 C566 1.516 . S
C566 C565 1.516 . S
C566 C567 1.502 . S
C566 C568 1.561 . S
C566 C569 1.526 . S
C567 H551 0.959 . S
C567 H552 0.959 . S
C567 H553 0.961 . S
C567 C566 1.502 . S
C568 H554 0.960 . S
C568 H555 0.961 . S
C568 H556 0.959 . S
C568 C566 1.561 . S
C569 C566 1.526 . S
C569 C570 1.429 . S
C569 C574 1.390 . S
C570 C564 1.460 1_545 S
C570 C569 1.429 . S
C570 C571 1.377 1_545 S
C571 H557 0.929 . S
C571 C570 1.377 1_565 S
C571 C572 1.385 . S
C572 H558 0.931 . S
C572 C571 1.385 . S
C572 C573 1.389 1_565 S
C573 C572 1.389 1_545 S
C573 C574 1.387 . S
C574 H559 0.930 . S
C574 C569 1.390 . S
C574 C573 1.387 . S
H575 C587 0.930 . S
H576 C589 0.930 . S
H577 C590 0.930 . S
H578 C594 0.959 . S
H579 C594 0.959 . S
H580 C594 0.961 . S
H581 C595 0.960 . S
H582 C595 0.961 . S
H583 C595 0.959 . S
H584 C598 0.929 . S
H585 C599 0.931 . S
H586 C601 0.930 . S
C587 H575 0.930 . S
C587 C588 1.399 . S
C587 C592 1.399 . S
C588 C587 1.399 . S
C588 C589 1.376 . S
C589 H576 0.930 . S
C589 C588 1.376 . S
C589 C590 1.388 . S
C590 H577 0.930 . S
C590 C589 1.388 . S
C590 C591 1.390 . S
C591 C590 1.390 . S
C591 C592 1.394 . S
C591 C597 1.465 . S
C592 C587 1.399 . S
C592 C591 1.394 . S
C592 C593 1.516 . S
C593 C592 1.516 . S
C593 C594 1.502 . S
C593 C595 1.561 . S
C593 C596 1.526 . S
C594 H578 0.959 . S
C594 H579 0.959 . S
C594 H580 0.961 . S
C594 C593 1.502 . S
C595 H581 0.960 . S
C595 H582 0.961 . S
C595 H583 0.959 . S
C595 C593 1.561 . S
C596 C593 1.526 . S
C596 C597 1.396 . S
C596 C601 1.390 . S
C597 C591 1.465 . S
C597 C596 1.396 . S
C597 C598 1.399 . S
C598 H584 0.929 . S
C598 C597 1.399 . S
C598 C599 1.385 . S
C599 H585 0.931 . S
C599 C598 1.385 . S
C599 C600 1.389 . S
C600 C599 1.389 . S
C600 C601 1.387 . S
C601 H586 0.930 . S
C601 C596 1.390 . S
C601 C600 1.387 . S
H602 C614 0.930 . S
H603 C616 0.930 . S
H604 C617 0.930 . S
H605 C621 0.959 . S
H606 C621 0.959 . S
H607 C621 0.961 . S
H608 C622 0.960 . S
H609 C622 0.961 . S
H610 C622 0.959 . S
H611 C625 0.929 . S
H612 C626 0.931 . S
H613 C628 0.930 . S
C614 H602 0.930 . S
C614 C615 1.399 . S
C614 C619 1.399 . S
C615 C614 1.399 . S
C615 C616 1.376 . S
C616 H603 0.930 . S
C616 C615 1.376 . S
C616 C617 1.388 . S
C617 H604 0.930 . S
C617 C616 1.388 . S
C617 C618 1.390 . S
C618 C617 1.390 . S
C618 C619 1.394 . S
C618 C624 1.465 . S
C619 C614 1.399 . S
C619 C618 1.394 . S
C619 C620 1.516 . S
C620 C619 1.516 . S
C620 C621 1.502 . S
C620 C622 1.561 . S
C620 C623 1.526 . S
C621 H605 0.959 . S
C621 H606 0.959 . S
C621 H607 0.961 . S
C621 C620 1.502 . S
C622 H608 0.960 . S
C622 H609 0.961 . S
C622 H610 0.959 . S
C622 C620 1.561 . S
C623 C620 1.526 . S
C623 C624 1.396 . S
C623 C628 1.390 . S
C624 C618 1.465 . S
C624 C623 1.396 . S
C624 C625 1.399 . S
C625 H611 0.929 . S
C625 C624 1.399 . S
C625 C626 1.385 . S
C626 H612 0.931 . S
C626 C625 1.385 . S
C626 C627 1.389 . S
C627 C626 1.389 . S
C627 C628 1.387 . S
C628 H613 0.930 . S
C628 C623 1.390 . S
C628 C627 1.387 . S
H629 C641 0.930 . S
H630 C643 0.930 . S
H631 C644 0.930 . S
H632 C648 0.959 . S
H633 C648 0.959 . S
H634 C648 0.961 . S
H635 C649 0.960 . S
H636 C649 0.961 . S
H637 C649 0.959 1_655 S
H638 C652 0.929 . S
H639 C653 0.931 1_655 S
H640 C655 0.930 . S
C641 H629 0.930 . S
C641 C642 1.399 1_455 S
C641 C646 1.399 . S
C642 C641 1.399 1_655 S
C642 C643 1.376 . S
C643 H630 0.930 . S
C643 C642 1.376 . S
C643 C644 1.388 . S
C644 H631 0.930 . S
C644 C643 1.388 . S
C644 C645 1.390 . S
C645 C644 1.390 . S
C645 C646 1.394 1_655 S
C645 C651 1.465 1_655 S
C646 C641 1.399 . S
C646 C645 1.394 1_455 S
C646 C647 1.516 . S
C647 C646 1.516 . S
C647 C648 1.502 . S
C647 C649 1.561 . S
C647 C650 1.526 . S
C648 H632 0.959 . S
C648 H633 0.959 . S
C648 H634 0.961 . S
C648 C647 1.502 . S
C649 H635 0.960 . S
C649 H636 0.961 . S
C649 H637 0.959 1_455 S
C649 C647 1.561 . S
C650 C647 1.526 . S
C650 C651 1.396 . S
C650 C655 1.390 . S
C651 C645 1.465 1_455 S
C651 C650 1.396 . S
C651 C652 1.399 1_455 S
C652 H638 0.929 . S
C652 C651 1.399 1_655 S
C652 C653 1.385 1_655 S
C653 H639 0.931 1_455 S
C653 C652 1.385 1_455 S
C653 C654 1.389 . S
C654 C653 1.389 . S
C654 C655 1.387 . S
C655 H640 0.930 . S
C655 C650 1.390 . S
C655 C654 1.387 . S
H656 C668 0.930 . S
H657 C670 0.930 . S
H658 C671 0.930 . S
H659 C675 0.959 . S
H660 C675 0.959 . S
H661 C675 0.961 . S
H662 C676 0.960 . S
H663 C676 0.961 . S
H664 C676 0.959 . S
H665 C679 0.929 . S
H666 C680 0.931 . S
H667 C682 0.930 . S
C668 H656 0.930 . S
C668 C669 1.399 . S
C668 C673 1.399 . S
C669 C668 1.399 . S
C669 C670 1.376 1_545 S
C670 H657 0.930 . S
C670 C669 1.376 1_565 S
C670 C671 1.388 . S
C671 H658 0.930 . S
C671 C670 1.388 . S
C671 C672 1.398 . S
C672 C671 1.398 . S
C672 C673 1.382 1_565 S
C672 C678 1.467 . S
C673 C668 1.399 . S
C673 C672 1.382 1_545 S
C673 C674 1.516 . S
C674 C673 1.516 . S
C674 C675 1.502 . S
C674 C676 1.561 . S
C674 C677 1.526 . S
C675 H659 0.959 . S
C675 H660 0.959 . S
C675 H661 0.961 . S
C675 C674 1.502 . S
C676 H662 0.960 . S
C676 H663 0.961 . S
C676 H664 0.959 . S
C676 C674 1.561 . S
C677 C674 1.526 . S
C677 C678 1.396 1_545 S
C677 C682 1.390 . S
C678 C672 1.467 . S
C678 C677 1.396 1_565 S
C678 C679 1.399 . S
C679 H665 0.929 . S
C679 C678 1.399 . S
C679 C680 1.385 . S
C680 H666 0.931 . S
C680 C679 1.385 . S
C680 C681 1.389 . S
C681 C680 1.389 . S
C681 C682 1.387 1_565 S
C682 H667 0.930 . S
C682 C677 1.390 . S
C682 C681 1.387 1_545 S
H683 C695 0.930 . S
H684 C697 0.930 . S
H685 C698 0.930 . S
H686 C702 0.959 . S
H687 C702 0.959 . S
H688 C702 0.961 . S
H689 C703 0.960 . S
H690 C703 0.961 . S
H691 C703 0.959 . S
H692 C706 0.929 . S
H693 C707 0.931 . S
H694 C709 0.930 . S
C695 H683 0.930 . S
C695 C696 1.399 . S
C695 C700 1.399 . S
C696 C695 1.399 . S
C696 C697 1.376 . S
C697 H684 0.930 . S
C697 C696 1.376 . S
C697 C698 1.388 . S
C698 H685 0.930 . S
C698 C697 1.388 . S
C698 C699 1.390 . S
C699 C698 1.390 . S
C699 C700 1.394 . S
C699 C705 1.465 . S
C700 C695 1.399 . S
C700 C699 1.394 . S
C700 C701 1.516 . S
C701 C700 1.516 . S
C701 C702 1.502 . S
C701 C703 1.561 . S
C701 C704 1.526 . S
C702 H686 0.959 . S
C702 H687 0.959 . S
C702 H688 0.961 . S
C702 C701 1.502 . S
C703 H689 0.960 . S
C703 H690 0.961 . S
C703 H691 0.959 . S
C703 C701 1.561 . S
C704 C701 1.526 . S
C704 C705 1.396 . S
C704 C709 1.390 . S
C705 C699 1.465 . S
C705 C704 1.396 . S
C705 C706 1.399 . S
C706 H692 0.929 . S
C706 C705 1.399 . S
C706 C707 1.385 . S
C707 H693 0.931 . S
C707 C706 1.385 . S
C707 C708 1.389 . S
C708 C707 1.389 . S
C708 C709 1.387 . S
C709 H694 0.930 . S
C709 C704 1.390 . S
C709 C708 1.387 . S
H710 C722 0.930 . S
H711 C724 0.930 . S
H712 C725 0.930 . S
H713 C729 0.959 . S
H714 C729 0.959 . S
H715 C729 0.961 . S
H716 C730 0.960 . S
H717 C730 0.961 . S
H718 C730 0.959 . S
H719 C733 0.929 . S
H720 C734 0.931 . S
H721 C736 0.930 . S
C722 H710 0.930 . S
C722 C723 1.399 . S
C722 C727 1.399 . S
C723 C722 1.399 . S
C723 C724 1.376 . S
C724 H711 0.930 . S
C724 C723 1.376 . S
C724 C725 1.388 . S
C725 H712 0.930 . S
C725 C724 1.388 . S
C725 C726 1.390 . S
C726 C725 1.390 . S
C726 C727 1.394 . S
C726 C732 1.465 . S
C727 C722 1.399 . S
C727 C726 1.394 . S
C727 C728 1.516 . S
C728 C727 1.516 . S
C728 C729 1.502 . S
C728 C730 1.561 . S
C728 C731 1.526 . S
C729 H713 0.959 . S
C729 H714 0.959 . S
C729 H715 0.961 . S
C729 C728 1.502 . S
C730 H716 0.960 . S
C730 H717 0.961 . S
C730 H718 0.959 . S
C730 C728 1.561 . S
C731 C728 1.526 . S
C731 C732 1.396 . S
C731 C736 1.390 . S
C732 C726 1.465 . S
C732 C731 1.396 . S
C732 C733 1.399 . S
C733 H719 0.929 . S
C733 C732 1.399 . S
C733 C734 1.385 . S
C734 H720 0.931 . S
C734 C733 1.385 . S
C734 C735 1.389 . S
C735 C734 1.389 . S
C735 C736 1.387 . S
C736 H721 0.930 . S
C736 C731 1.390 . S
C736 C735 1.387 . S
H737 C749 0.936 . S
H738 C751 0.918 1_556 S
H739 C752 0.930 . S
H740 C756 0.959 . S
H741 C756 0.959 . S
H742 C756 0.961 . S
H743 C757 0.960 . S
H744 C757 0.961 . S
H745 C757 0.959 . S
H746 C760 0.929 . S
H747 C761 0.931 . S
H748 C763 0.930 . S
C749 H737 0.936 . S
C749 C750 1.399 . S
C749 C754 1.399 . S
C750 C749 1.399 . S
C750 C751 1.376 . S
C751 H738 0.918 1_554 S
C751 C750 1.376 . S
C751 C752 1.388 . S
C752 H739 0.930 . S
C752 C751 1.388 . S
C752 C753 1.390 . S
C753 C752 1.390 . S
C753 C754 1.394 . S
C753 C759 1.465 . S
C754 C749 1.399 . S
C754 C753 1.394 . S
C754 C755 1.516 . S
C755 C754 1.516 . S
C755 C756 1.502 1_455 S
C755 C757 1.561 . S
C755 C758 1.526 . S
C756 H740 0.959 . S
C756 H741 0.959 . S
C756 H742 0.961 . S
C756 C755 1.502 1_655 S
C757 H743 0.960 . S
C757 H744 0.961 . S
C757 H745 0.959 . S
C757 C755 1.561 . S
C758 C755 1.526 . S
C758 C759 1.396 . S
C758 C763 1.390 . S
C759 C753 1.465 . S
C759 C758 1.396 . S
C759 C760 1.399 . S
C760 H746 0.929 . S
C760 C759 1.399 . S
C760 C761 1.385 . S
C761 H747 0.931 . S
C761 C760 1.385 . S
C761 C762 1.389 . S
C762 C761 1.389 . S
C762 C763 1.387 . S
C763 H748 0.930 . S
C763 C758 1.390 . S
C763 C762 1.387 . S
H764 C776 0.933 . S
H765 C778 0.930 . S
H766 C779 0.930 . S
H767 C783 0.959 1_565 S
H768 C783 0.959 . S
H769 C783 0.961 . S
H770 C784 0.960 . S
H771 C784 0.961 . S
H772 C784 0.959 . S
H773 C787 0.929 . S
H774 C788 0.931 . S
H775 C790 0.930 . S
C776 H764 0.933 . S
C776 C777 1.399 . S
C776 C781 1.399 . S
C777 C776 1.399 . S
C777 C778 1.376 . S
C778 H765 0.930 . S
C778 C777 1.376 . S
C778 C779 1.388 . S
C779 H766 0.930 . S
C779 C778 1.388 . S
C779 C780 1.390 . S
C780 C779 1.390 . S
C780 C781 1.394 . S
C780 C786 1.465 . S
C781 C776 1.399 . S
C781 C780 1.394 . S
C781 C782 1.516 1_565 S
C782 C781 1.516 1_545 S
C782 C783 1.502 . S
C782 C784 1.561 . S
C782 C785 1.526 . S
C783 H767 0.959 1_545 S
C783 H768 0.959 . S
C783 H769 0.961 . S
C783 C782 1.502 . S
C784 H770 0.960 . S
C784 H771 0.961 . S
C784 H772 0.959 . S
C784 C782 1.561 . S
C785 C782 1.526 . S
C785 C786 1.396 1_545 S
C785 C790 1.390 . S
C786 C780 1.465 . S
C786 C785 1.396 1_565 S
C786 C787 1.399 . S
C787 H773 0.929 . S
C787 C786 1.399 . S
C787 C788 1.385 . S
C788 H774 0.931 . S
C788 C787 1.385 . S
C788 C789 1.389 . S
C789 C788 1.389 . S
C789 C790 1.387 1_565 S
C790 H775 0.930 . S
C790 C785 1.390 . S
C790 C789 1.387 1_545 S
H791 C803 0.930 . S
H792 C805 0.930 . S
H793 C806 0.930 . S
H794 C810 0.959 . S
H795 C810 0.959 . S
H796 C810 0.961 . S
H797 C811 0.960 . S
H798 C811 0.961 . S
H799 C811 0.959 . S
H800 C814 0.929 . S
H801 C815 0.931 . S
H802 C817 0.930 . S
C803 H791 0.930 . S
C803 C804 1.399 . S
C803 C808 1.399 . S
C804 C803 1.399 . S
C804 C805 1.376 . S
C805 H792 0.930 . S
C805 C804 1.376 . S
C805 C806 1.388 . S
C806 H793 0.930 . S
C806 C805 1.388 . S
C806 C807 1.390 . S
C807 C806 1.390 . S
C807 C808 1.394 . S
C807 C813 1.465 . S
C808 C803 1.399 . S
C808 C807 1.394 . S
C808 C809 1.516 . S
C809 C808 1.516 . S
C809 C810 1.502 . S
C809 C811 1.561 . S
C809 C812 1.526 . S
C810 H794 0.959 . S
C810 H795 0.959 . S
C810 H796 0.961 . S
C810 C809 1.502 . S
C811 H797 0.960 . S
C811 H798 0.961 . S
C811 H799 0.959 . S
C811 C809 1.561 . S
C812 C809 1.526 . S
C812 C813 1.396 . S
C812 C817 1.390 . S
C813 C807 1.465 . S
C813 C812 1.396 . S
C813 C814 1.399 . S
C814 H800 0.929 . S
C814 C813 1.399 . S
C814 C815 1.385 . S
C815 H801 0.931 . S
C815 C814 1.385 . S
C815 C816 1.389 . S
C816 C815 1.389 . S
C816 C817 1.387 . S
C817 H802 0.930 . S
C817 C812 1.390 . S
C817 C816 1.387 . S
H818 C830 0.930 . S
H819 C832 0.930 . S
H820 C833 0.930 . S
H821 C837 0.959 . S
H822 C837 0.959 . S
H823 C837 0.961 . S
H824 C838 0.960 . S
H825 C838 0.961 . S
H826 C838 0.959 . S
H827 C841 0.929 . S
H828 C842 0.931 . S
H829 C844 0.930 . S
C830 H818 0.930 . S
C830 C831 1.399 . S
C830 C835 1.399 . S
C831 C830 1.399 . S
C831 C832 1.376 . S
C832 H819 0.930 . S
C832 C831 1.376 . S
C832 C833 1.388 . S
C833 H820 0.930 . S
C833 C832 1.388 . S
C833 C834 1.390 . S
C834 C833 1.390 . S
C834 C835 1.394 . S
C834 C840 1.465 . S
C835 C830 1.399 . S
C835 C834 1.394 . S
C835 C836 1.516 . S
C836 C835 1.516 . S
C836 C837 1.502 . S
C836 C838 1.561 . S
C836 C839 1.526 . S
C837 H821 0.959 . S
C837 H822 0.959 . S
C837 H823 0.961 . S
C837 C836 1.502 . S
C838 H824 0.960 . S
C838 H825 0.961 . S
C838 H826 0.959 . S
C838 C836 1.561 . S
C839 C836 1.526 . S
C839 C840 1.396 . S
C839 C844 1.390 . S
C840 C834 1.465 . S
C840 C839 1.396 . S
C840 C841 1.399 . S
C841 H827 0.929 . S
C841 C840 1.399 . S
C841 C842 1.385 . S
C842 H828 0.931 . S
C842 C841 1.385 . S
C842 C843 1.389 . S
C843 C842 1.389 . S
C843 C844 1.387 . S
C844 H829 0.930 . S
C844 C839 1.390 . S
C844 C843 1.387 . S
H845 C857 0.950 . S
H846 C859 0.930 . S
H847 C860 0.930 . S
H848 C864 0.959 . S
H849 C864 0.959 . S
H850 C864 0.961 . S
H851 C865 0.960 . S
H852 C865 0.961 . S
H853 C865 0.959 . S
H854 C868 0.929 . S
H855 C869 0.931 . S
H856 C871 0.930 . S
C857 H845 0.950 . S
C857 C858 1.399 . S
C857 C862 1.399 . S
C858 C857 1.399 . S
C858 C859 1.376 . S
C859 H846 0.930 . S
C859 C858 1.376 . S
C859 C860 1.388 . S
C860 H847 0.930 . S
C860 C859 1.388 . S
C860 C861 1.390 . S
C861 C860 1.390 . S
C861 C862 1.394 . S
C861 C867 1.465 . S
C862 C857 1.399 . S
C862 C861 1.394 . S
C862 C863 1.516 1_655 S
C863 C862 1.516 1_455 S
C863 C864 1.502 . S
C863 C865 1.561 1_455 S
C863 C866 1.526 1_455 S
C864 H848 0.959 . S
C864 H849 0.959 . S
C864 H850 0.961 . S
C864 C863 1.502 . S
C865 H851 0.960 . S
C865 H852 0.961 . S
C865 H853 0.959 . S
C865 C863 1.561 1_655 S
C866 C863 1.526 1_655 S
C866 C867 1.396 . S
C866 C871 1.390 1_655 S
C867 C861 1.465 . S
C867 C866 1.396 . S
C867 C868 1.399 . S
C868 H854 0.929 . S
C868 C867 1.399 . S
C868 C869 1.385 . S
C869 H855 0.931 . S
C869 C868 1.385 . S
C869 C870 1.389 . S
C870 C869 1.389 . S
C870 C871 1.387 1_655 S
C871 H856 0.930 . S
C871 C866 1.390 1_455 S
C871 C870 1.387 1_455 S
H872 C884 0.930 . S
H873 C886 0.930 . S
H874 C887 0.930 . S
H875 C891 0.959 . S
H876 C891 0.959 . S
H877 C891 0.961 . S
H878 C892 0.960 . S
H879 C892 0.961 . S
H880 C892 0.959 1_565 S
H881 C895 0.929 . S
H882 C896 0.931 . S
H883 C898 0.930 1_545 S
C884 H872 0.930 . S
C884 C885 1.399 1_554 S
C884 C889 1.399 . S
C885 C884 1.399 1_556 S
C885 C886 1.376 1_545 S
C886 H873 0.930 . S
C886 C885 1.376 1_565 S
C886 C887 1.388 . S
C887 H874 0.930 . S
C887 C886 1.388 . S
C887 C888 1.390 . S
C888 C887 1.390 . S
C888 C889 1.394 1_566 S
C888 C894 1.465 . S
C889 C884 1.399 . S
C889 C888 1.394 1_544 S
C889 C890 1.516 . S
C890 C889 1.516 . S
C890 C891 1.502 . S
C890 C892 1.561 . S
C890 C893 1.505 1_545 S
C891 H875 0.959 . S
C891 H876 0.959 . S
C891 H877 0.961 . S
C891 C890 1.502 . S
C892 H878 0.960 . S
C892 H879 0.961 . S
C892 H880 0.959 1_545 S
C892 C890 1.561 . S
C893 C890 1.505 1_565 S
C893 C894 1.414 1_554 S
C893 C898 1.395 . S
C894 C888 1.465 . S
C894 C893 1.414 1_556 S
C894 C895 1.399 . S
C895 H881 0.929 . S
C895 C894 1.399 . S
C895 C896 1.385 . S
C896 H882 0.931 . S
C896 C895 1.385 . S
C896 C897 1.389 1_556 S
C897 C896 1.389 1_554 S
C897 C898 1.387 . S
C898 H883 0.930 1_565 S
C898 C893 1.395 . S
C898 C897 1.387 . S
H899 C911 0.930 . S
H900 C913 0.930 . S
H901 C914 0.930 . S
H902 C918 0.959 . S
H903 C918 0.959 . S
H904 C918 0.961 . S
H905 C919 0.960 . S
H906 C919 0.961 . S
H907 C919 0.959 . S
H908 C922 0.929 . S
H909 C923 0.931 . S
H910 C925 0.930 . S
C911 H899 0.930 . S
C911 C912 1.399 . S
C911 C916 1.399 . S
C912 C911 1.399 . S
C912 C913 1.376 1_556 S
C913 H900 0.930 . S
C913 C912 1.376 1_554 S
C913 C914 1.388 . S
C914 H901 0.930 . S
C914 C913 1.388 . S
C914 C915 1.390 . S
C915 C914 1.390 . S
C915 C916 1.394 1_554 S
C915 C921 1.465 . S
C916 C911 1.399 . S
C916 C915 1.394 1_556 S
C916 C917 1.516 . S
C917 C916 1.516 . S
C917 C918 1.502 . S
C917 C919 1.561 . S
C917 C920 1.526 . S
C918 H902 0.959 . S
C918 H903 0.959 . S
C918 H904 0.961 . S
C918 C917 1.502 . S
C919 H905 0.960 . S
C919 H906 0.961 . S
C919 H907 0.959 . S
C919 C917 1.561 . S
C920 C917 1.526 . S
C920 C921 1.396 1_556 S
C920 C925 1.390 . S
C921 C915 1.465 . S
C921 C920 1.396 1_554 S
C921 C922 1.399 . S
C922 H908 0.929 . S
C922 C921 1.399 . S
C922 C923 1.385 . S
C923 H909 0.931 . S
C923 C922 1.385 . S
C923 C924 1.389 . S
C924 C923 1.389 . S
C924 C925 1.387 1_554 S
C925 H910 0.930 . S
C925 C920 1.390 . S
C925 C924 1.387 1_556 S
H926 C938 0.930 . S
H927 C940 0.930 . S
H928 C941 0.930 . S
H929 C945 0.959 . S
H930 C945 0.959 . S
H931 C945 0.961 . S
H932 C946 0.960 . S
H933 C946 0.961 1_455 S
H934 C946 0.959 1_455 S
H935 C949 0.929 . S
H936 C950 0.931 . S
H937 C952 0.930 . S
C938 H926 0.930 . S
C938 C939 1.399 1_556 S
C938 C943 1.399 . S
C939 C938 1.399 1_554 S
C939 C940 1.376 . S
C940 H927 0.930 . S
C940 C939 1.376 . S
C940 C941 1.388 . S
C941 H928 0.930 . S
C941 C940 1.388 . S
C941 C942 1.390 . S
C942 C941 1.390 . S
C942 C943 1.394 1_554 S
C942 C948 1.465 1_655 S
C943 C938 1.399 . S
C943 C942 1.394 1_556 S
C943 C944 1.516 . S
C944 C943 1.516 . S
C944 C945 1.502 . S
C944 C946 1.561 . S
C944 C947 1.526 1_655 S
C945 H929 0.959 . S
C945 H930 0.959 . S
C945 H931 0.961 . S
C945 C944 1.502 . S
C946 H932 0.960 . S
C946 H933 0.961 1_655 S
C946 H934 0.959 1_655 S
C946 C944 1.561 . S
C947 C944 1.526 1_455 S
C947 C948 1.396 1_556 S
C947 C952 1.390 . S
C948 C942 1.465 1_455 S
C948 C947 1.396 1_554 S
C948 C949 1.399 . S
C949 H935 0.929 . S
C949 C948 1.399 . S
C949 C950 1.385 . S
C950 H936 0.931 . S
C950 C949 1.385 . S
C950 C951 1.389 1_554 S
C951 C950 1.389 1_556 S
C951 C952 1.387 . S
C952 H937 0.930 . S
C952 C947 1.390 . S
C952 C951 1.387 . S
H953 C965 0.930 . S
H954 C967 0.930 . S
H955 C968 0.930 1_554 S
H956 C972 0.959 . S
H957 C972 0.959 . S
H958 C972 0.961 1_556 S
H959 C973 0.960 . S
H960 C973 0.961 1_565 S
H961 C973 0.959 1_565 S
H962 C976 0.929 . S
H963 C977 0.931 . S
H964 C979 0.930 . S
C965 H953 0.930 . S
C965 C966 1.399 1_655 S
C965 C970 1.399 . S
C966 C965 1.399 1_455 S
C966 C967 1.376 . S
C967 H954 0.930 . S
C967 C966 1.376 . S
C967 C968 1.388 . S
C968 H955 0.930 1_556 S
C968 C967 1.388 . S
C968 C969 1.390 . S
C969 C968 1.390 . S
C969 C970 1.394 1_455 S
C969 C975 1.465 1_546 S
C970 C965 1.399 . S
C970 C969 1.394 1_655 S
C970 C971 1.516 . S
C971 C970 1.516 . S
C971 C972 1.502 1_556 S
C971 C973 1.561 . S
C971 C974 1.526 1_545 S
C972 H956 0.959 . S
C972 H957 0.959 . S
C972 H958 0.961 1_554 S
C972 C971 1.502 1_554 S
C973 H959 0.960 . S
C973 H960 0.961 1_545 S
C973 H961 0.959 1_545 S
C973 C971 1.561 . S
C974 C971 1.526 1_565 S
C974 C975 1.396 1_656 S
C974 C979 1.390 1_556 S
C975 C969 1.465 1_564 S
C975 C974 1.396 1_454 S
C975 C976 1.399 . S
C976 H962 0.929 . S
C976 C975 1.399 . S
C976 C977 1.385 . S
C977 H963 0.931 . S
C977 C976 1.385 . S
C977 C978 1.389 1_455 S
C978 C977 1.389 1_655 S
C978 C979 1.387 . S
C979 H964 0.930 . S
C979 C974 1.390 1_554 S
C979 C978 1.387 . S
H980 C992 0.930 . S
H981 C994 0.930 . S
H982 C995 0.930 . S
H983 C999 0.959 . S
H984 C999 0.959 . S
H985 C999 0.961 . S
H986 C1000 0.960 . S
H987 C1000 0.961 . S
H988 C1000 0.959 . S
H989 C1003 0.929 . S
H990 C1004 0.931 . S
H991 C1006 0.930 . S
C992 H980 0.930 . S
C992 C993 1.399 . S
C992 C997 1.399 . S
C993 C992 1.399 . S
C993 C994 1.376 1_545 S
C994 H981 0.930 . S
C994 C993 1.376 1_565 S
C994 C995 1.388 . S
C995 H982 0.930 . S
C995 C994 1.388 . S
C995 C996 1.390 . S
C996 C995 1.390 . S
C996 C997 1.394 1_565 S
C996 C1002 1.465 1_455 S
C997 C992 1.399 . S
C997 C996 1.394 1_545 S
C997 C998 1.516 1_455 S
C998 C997 1.516 1_655 S
C998 C999 1.502 . S
C998 C1000 1.561 . S
C998 C1001 1.526 . S
C999 H983 0.959 . S
C999 H984 0.959 . S
C999 H985 0.961 . S
C999 C998 1.502 . S
C1000 H986 0.960 . S
C1000 H987 0.961 . S
C1000 H988 0.959 . S
C1000 C998 1.561 . S
C1001 C998 1.526 . S
C1001 C1002 1.396 1_545 S
C1001 C1006 1.390 . S
C1002 C996 1.465 1_655 S
C1002 C1001 1.396 1_565 S
C1002 C1003 1.399 . S
C1003 H989 0.929 . S
C1003 C1002 1.399 . S
C1003 C1004 1.385 . S
C1004 H990 0.931 . S
C1004 C1003 1.385 . S
C1004 C1005 1.389 . S
C1005 C1004 1.389 . S
C1005 C1006 1.387 1_565 S
C1006 H991 0.930 . S
C1006 C1001 1.390 . S
C1006 C1005 1.387 1_545 S
H1007 C1019 0.930 . S
H1008 C1021 0.930 . S
H1009 C1022 0.930 . S
H1010 C1026 0.959 . S
H1011 C1026 0.959 . S
H1012 C1026 0.961 . S
H1013 C1027 0.960 . S
H1014 C1027 0.961 . S
H1015 C1027 0.959 . S
H1016 C1030 0.929 . S
H1017 C1031 0.931 . S
H1018 C1033 0.930 . S
C1019 H1007 0.930 . S
C1019 C1020 1.399 . S
C1019 C1024 1.399 . S
C1020 C1019 1.399 . S
C1020 C1021 1.376 . S
C1021 H1008 0.930 . S
C1021 C1020 1.376 . S
C1021 C1022 1.388 . S
C1022 H1009 0.930 . S
C1022 C1021 1.388 . S
C1022 C1023 1.390 . S
C1023 C1022 1.390 . S
C1023 C1024 1.394 . S
C1023 C1029 1.465 1_565 S
C1024 C1019 1.399 . S
C1024 C1023 1.394 . S
C1024 C1025 1.516 . S
C1025 C1024 1.516 . S
C1025 C1026 1.502 . S
C1025 C1027 1.561 . S
C1025 C1028 1.526 1_565 S
C1026 H1010 0.959 . S
C1026 H1011 0.959 . S
C1026 H1012 0.961 . S
C1026 C1025 1.502 . S
C1027 H1013 0.960 . S
C1027 H1014 0.961 . S
C1027 H1015 0.959 . S
C1027 C1025 1.561 . S
C1028 C1025 1.526 1_545 S
C1028 C1029 1.396 . S
C1028 C1033 1.390 . S
C1029 C1023 1.465 1_545 S
C1029 C1028 1.396 . S
C1029 C1030 1.399 . S
C1030 H1016 0.929 . S
C1030 C1029 1.399 . S
C1030 C1031 1.385 . S
C1031 H1017 0.931 . S
C1031 C1030 1.385 . S
C1031 C1032 1.389 . S
C1032 C1031 1.389 . S
C1032 C1033 1.387 . S
C1033 H1018 0.930 . S
C1033 C1028 1.390 . S
C1033 C1032 1.387 . S
H1034 C1046 0.930 . S
H1035 C1048 0.930 . S
H1036 C1049 0.930 . S
H1037 C1053 0.959 . S
H1038 C1053 0.959 . S
H1039 C1053 0.961 . S
H1040 C1054 0.960 . S
H1041 C1054 0.961 . S
H1042 C1054 0.959 . S
H1043 C1057 0.929 . S
H1044 C1058 0.931 . S
H1045 C1060 0.930 . S
C1046 H1034 0.930 . S
C1046 C1047 1.399 . S
C1046 C1051 1.399 . S
C1047 C1046 1.399 . S
C1047 C1048 1.376 . S
C1048 H1035 0.930 . S
C1048 C1047 1.376 . S
C1048 C1049 1.388 . S
C1049 H1036 0.930 . S
C1049 C1048 1.388 . S
C1049 C1050 1.390 . S
C1050 C1049 1.390 . S
C1050 C1051 1.394 . S
C1050 C1056 1.465 . S
C1051 C1046 1.399 . S
C1051 C1050 1.394 . S
C1051 C1052 1.516 . S
C1052 C1051 1.516 . S
C1052 C1053 1.502 . S
C1052 C1054 1.561 . S
C1052 C1055 1.526 . S
C1053 H1037 0.959 . S
C1053 H1038 0.959 . S
C1053 H1039 0.961 . S
C1053 C1052 1.502 . S
C1054 H1040 0.960 . S
C1054 H1041 0.961 . S
C1054 H1042 0.959 . S
C1054 C1052 1.561 . S
C1055 C1052 1.526 . S
C1055 C1056 1.396 . S
C1055 C1060 1.390 . S
C1056 C1050 1.465 . S
C1056 C1055 1.396 . S
C1056 C1057 1.399 . S
C1057 H1043 0.929 . S
C1057 C1056 1.399 . S
C1057 C1058 1.385 . S
C1058 H1044 0.931 . S
C1058 C1057 1.385 . S
C1058 C1059 1.389 . S
C1059 C1058 1.389 . S
C1059 C1060 1.387 . S
C1060 H1045 0.930 . S
C1060 C1055 1.390 . S
C1060 C1059 1.387 . S
H1061 C1073 0.930 . S
H1062 C1075 0.943 . S
H1063 C1076 0.930 . S
H1064 C1080 0.959 . S
H1065 C1080 0.959 . S
H1066 C1080 0.961 . S
H1067 C1081 0.960 . S
H1068 C1081 0.961 . S
H1069 C1081 0.959 1_455 S
H1070 C1084 0.929 . S
H1071 C1085 0.931 . S
H1072 C1087 0.930 1_655 S
C1073 H1061 0.930 . S
C1073 C1074 1.399 . S
C1073 C1078 1.399 . S
C1074 C1073 1.399 . S
C1074 C1075 1.347 1_655 S
C1075 H1062 0.943 . S
C1075 C1074 1.347 1_455 S
C1075 C1076 1.407 . S
C1076 H1063 0.930 . S
C1076 C1075 1.407 . S
C1076 C1077 1.390 . S
C1077 C1076 1.390 . S
C1077 C1078 1.394 1_455 S
C1077 C1083 1.465 . S
C1078 C1073 1.399 . S
C1078 C1077 1.394 1_655 S
C1078 C1079 1.516 . S
C1079 C1078 1.516 . S
C1079 C1080 1.502 . S
C1079 C1081 1.561 . S
C1079 C1082 1.526 1_655 S
C1080 H1064 0.959 . S
C1080 H1065 0.959 . S
C1080 H1066 0.961 . S
C1080 C1079 1.502 . S
C1081 H1067 0.960 . S
C1081 H1068 0.961 . S
C1081 H1069 0.959 1_655 S
C1081 C1079 1.561 . S
C1082 C1079 1.526 1_455 S
C1082 C1083 1.396 . S
C1082 C1087 1.390 . S
C1083 C1077 1.465 . S
C1083 C1082 1.396 . S
C1083 C1084 1.399 . S
C1084 H1070 0.929 . S
C1084 C1083 1.399 . S
C1084 C1085 1.385 . S
C1085 H1071 0.931 . S
C1085 C1084 1.385 . S
C1085 C1086 1.389 . S
C1086 C1085 1.389 . S
C1086 C1087 1.387 . S
C1087 H1072 0.930 1_455 S
C1087 C1082 1.390 . S
C1087 C1086 1.387 . S
C237 C79 0.411 . S
C249 C9 0.269 . S
C264 C93 0.337 . S
C276 C23 0.269 . S
C291 C37 0.494 . S
C303 C107 0.490 . S
C318 C51 0.353 . S
C330 C65 0.519 . S
C345 C121 0.384 . S
C357 C191 0.253 . S
C372 C205 0.499 . S
C384 C135 0.529 . S
C399 C219 0.514 . S
C411 C149 0.501 . S
C426 C163 0.267 . S
C438 C177 0.267 . S
C453 C8 1.605 1_565 S
C465 C175 1.531 . S
C480 C189 1.584 . S
C492 C22 1.658 . S
C507 C36 1.666 . S
C519 C203 1.558 . S
C534 C50 1.616 1_655 S
C546 C217 1.567 . S
C561 C64 1.623 . S
C573 C119 1.540 . S
C588 C78 1.657 . S
C600 C133 1.616 . S
C615 C92 1.658 . S
C627 C147 1.581 . S
C642 C106 1.617 . S
C654 C161 1.485 . S
C669 C63 1.523 . S
C681 C120 1.613 . S
C696 C77 1.530 . S
C708 C134 1.670 . S
C723 C91 1.584 . S
C735 C148 1.660 . S
C750 C162 1.622 1_455 S
C762 C105 1.520 . S
C777 C7 1.517 . S
C789 C176 1.623 1_565 S
C804 C190 1.661 . S
C816 C21 1.576 . S
C831 C204 1.661 . S
C843 C35 1.544 . S
C858 C49 1.569 . S
C870 C218 1.595 1_655 S
C885 C115 1.481 . S
C897 C3 1.584 . S
C912 C129 1.626 . S
C924 C17 1.549 . S
C939 C31 1.718 . S
C951 C143 1.675 . S
C966 C157 1.651 . S
C978 C45 1.553 . S
C993 C59 1.553 . S
C1005 C171 1.655 . S
C1020 C185 1.704 . S
C1032 C73 1.660 . S
C1047 C199 1.529 . S
C1059 C87 1.626 . S
C1074 C213 1.482 . S
C1086 C101 1.583 . S
