# Generated by pormake.
# Topology lvt, (4)-cn, num edge types: 1
# Building blocks:
#     Node 0, Type 0, BuildingBlock: KOZSID_clean_sbu_0, # of connection points: 4
#     Node 1, Type 0, BuildingBlock: KOZSID_clean_sbu_0, # of connection points: 4
#     Node 2, Type 0, BuildingBlock: KOZSID_clean_sbu_0, # of connection points: 4
#     Node 3, Type 0, BuildingBlock: KOZSID_clean_sbu_0, # of connection points: 4
#     Node 4, Type 0, BuildingBlock: KOZSID_clean_sbu_0, # of connection points: 4
#     Node 5, Type 0, BuildingBlock: KOZSID_clean_sbu_0, # of connection points: 4
#     Node 6, Type 0, BuildingBlock: KOZSID_clean_sbu_0, # of connection points: 4
#     Node 7, Type 0, BuildingBlock: KOZSID_clean_sbu_0, # of connection points: 4
#     Edge 8, Type (0, 0), BuildingBlock: OJICUG_clean_linker_0, # of connection points: 2
#     Edge 9, Type (0, 0), BuildingBlock: OJICUG_clean_linker_0, # of connection points: 2
#     Edge 10, Type (0, 0), BuildingBlock: OJICUG_clean_linker_0, # of connection points: 2
#     Edge 11, Type (0, 0), BuildingBlock: OJICUG_clean_linker_0, # of connection points: 2
#     Edge 12, Type (0, 0), BuildingBlock: OJICUG_clean_linker_0, # of connection points: 2
#     Edge 13, Type (0, 0), BuildingBlock: OJICUG_clean_linker_0, # of connection points: 2
#     Edge 14, Type (0, 0), BuildingBlock: OJICUG_clean_linker_0, # of connection points: 2
#     Edge 15, Type (0, 0), BuildingBlock: OJICUG_clean_linker_0, # of connection points: 2
#     Edge 16, Type (0, 0), BuildingBlock: OJICUG_clean_linker_0, # of connection points: 2
#     Edge 17, Type (0, 0), BuildingBlock: OJICUG_clean_linker_0, # of connection points: 2
#     Edge 18, Type (0, 0), BuildingBlock: OJICUG_clean_linker_0, # of connection points: 2
#     Edge 19, Type (0, 0), BuildingBlock: OJICUG_clean_linker_0, # of connection points: 2
#     Edge 20, Type (0, 0), BuildingBlock: OJICUG_clean_linker_0, # of connection points: 2
#     Edge 21, Type (0, 0), BuildingBlock: OJICUG_clean_linker_0, # of connection points: 2
#     Edge 22, Type (0, 0), BuildingBlock: OJICUG_clean_linker_0, # of connection points: 2
#     Edge 23, Type (0, 0), BuildingBlock: OJICUG_clean_linker_0, # of connection points: 2
# Relax obj value: 0.006
# Max RMSD: 0.039
# Mean RMSD: 0.026
data_MOF--net-lvt--node1-KOZSID_clean_sbu_0--edge1-OJICUG_clean_linker_0
_symmetry_space_group_name_H-M    P1
_symmetry_Int_Tables_number       1
_symmetry_cell_setting            triclinic
loop_
_symmetry_equiv_pos_as_xyz
'x, y, z'
_cell_length_a     33.499679
_cell_length_b     33.490361
_cell_length_c     30.745792
_cell_angle_alpha  81.803265
_cell_angle_beta   93.84302
_cell_angle_gamma 86.400471
loop_
_atom_site_label
_atom_site_type_symbol
_atom_site_fract_x
_atom_site_fract_y
_atom_site_fract_z
_atom_type_partial_charge
C0 C 0.05177 0.92421 0.52819 0.0
C1 C 0.05391 0.88575 0.51592 0.0
C2 C 0.03072 0.88797 0.47748 0.0
C3 C 0.0145 0.927 0.46901 0.0
N4 N 0.02601 0.95012 0.49963 0.0
Co5 Co 1.00127 1.00516 0.50569 0.0
N6 N 0.96277 0.00605 0.45261 0.0
C7 C 0.95991 0.97676 0.42674 0.0
C8 C 0.92816 0.98357 0.39561 0.0
C9 C 0.9103 0.02 0.40101 0.0
C10 C 0.93304 0.03407 0.43441 0.0
N11 N 0.97564 0.05962 0.51273 0.0
C12 C 0.94867 0.0852 0.4853 0.0
C13 C 0.94416 0.12257 0.49996 0.0
C14 C 0.96709 0.11977 0.53864 0.0
C15 C 0.98545 0.08157 0.54509 0.0
N16 N 0.04062 1.00483 0.55785 0.0
C17 C 0.04521 0.03524 0.58183 0.0
C18 C 0.07799 0.02906 0.61163 0.0
C19 C 0.09495 0.99197 0.6071 0.0
C20 C 0.07061 0.97696 0.57568 0.0
N21 N 0.04023 0.03197 0.46675 0.0
C22 C 0.09288 0.07276 0.41021 0.0
C23 C 0.08172 0.08772 0.44807 0.0
C24 C 0.05586 0.0671 0.47554 0.0
C25 C 0.07778 0.03637 0.40156 0.0
C26 C 0.05157 0.01671 0.42995 0.0
N27 N 0.9624 0.97832 0.54466 0.0
C28 C 0.9332 0.96634 0.61511 0.0
C29 C 0.91092 0.93574 0.60129 0.0
C30 C 0.91416 0.92788 0.55821 0.0
C31 C 0.93974 0.94911 0.53092 0.0
C32 C 0.95845 0.98715 0.58647 0.0
H33 H 0.9408 0.94087 0.49894 0.0
H34 H 0.9749 0.0099 0.59901 0.0
H35 H 0.04889 0.08053 0.5036 0.0
H36 H 0.04055 0.98942 0.42131 0.0
C37 C 0.9846 0.94112 0.43575 0.0
C38 C 0.07483 0.93497 0.56685 0.0
C39 C 0.92727 0.07536 0.44511 0.0
C40 C 0.01802 0.0691 0.57569 0.0
H41 H 0.06928 0.85819 0.53327 0.0
H42 H 0.02454 0.86339 0.45925 0.0
H43 H 0.91855 0.96393 0.37248 0.0
H44 H 0.88374 0.03467 0.38194 0.0
H45 H 0.92779 0.15007 0.48392 0.0
H46 H 0.97224 0.14385 0.55793 0.0
H47 H 0.08825 0.04905 0.63408 0.0
H48 H 0.12174 0.97737 0.62576 0.0
H49 H 0.09316 0.11528 0.45689 0.0
H50 H 0.08544 0.02352 0.37255 0.0
H51 H 0.93192 0.97369 0.64818 0.0
H52 H 0.89687 0.90537 0.54521 0.0
C53 C 0.17281 0.79459 0.72576 0.0
C54 C 0.13472 0.79795 0.74097 0.0
C55 C 0.13559 0.77253 0.77978 0.0
C56 C 0.17348 0.75401 0.78569 0.0
N57 N 0.19714 0.76616 0.75303 0.0
Co58 Co 0.25102 0.73997 0.74387 0.0
N59 N 0.25004 0.69913 0.79806 0.0
C60 C 0.22016 0.69508 0.82543 0.0
C61 C 0.22608 0.66179 0.85721 0.0
C62 C 0.2627 0.6444 0.85078 0.0
C63 C 0.27765 0.66897 0.81615 0.0
N64 N 0.30457 0.71318 0.73423 0.0
C65 C 0.32993 0.68643 0.7624 0.0
C66 C 0.36719 0.68192 0.74547 0.0
C67 C 0.36464 0.70473 0.70494 0.0
C68 C 0.32674 0.72319 0.69957 0.0
N69 N 0.25255 0.7815 0.69034 0.0
C70 C 0.28288 0.78573 0.66362 0.0
C71 C 0.27833 0.82007 0.63326 0.0
C72 C 0.2424 0.83848 0.64032 0.0
C73 C 0.22634 0.81342 0.67377 0.0
N74 N 0.27861 0.77636 0.78011 0.0
C75 C 0.32003 0.8265 0.83183 0.0
C76 C 0.3346 0.81659 0.79289 0.0
C77 C 0.31361 0.79211 0.76778 0.0
C78 C 0.28419 0.81047 0.84457 0.0
C79 C 0.26415 0.78562 0.81845 0.0
N80 N 0.22323 0.70352 0.70748 0.0
C81 C 0.21109 0.67731 0.63844 0.0
C82 C 0.17887 0.65647 0.65451 0.0
C83 C 0.17032 0.65867 0.69793 0.0
C84 C 0.19246 0.68202 0.72338 0.0
C85 C 0.23272 0.70042 0.66528 0.0
H86 H 0.1835 0.68239 0.75569 0.0
H87 H 0.25657 0.716 0.65097 0.0
H88 H 0.32669 0.78609 0.73866 0.0
H89 H 0.23708 0.77411 0.82986 0.0
C90 C 0.18579 0.72155 0.81854 0.0
C91 C 0.18471 0.81881 0.68542 0.0
C92 C 0.31975 0.66566 0.80542 0.0
C93 C 0.31547 0.75714 0.66835 0.0
H94 H 0.10819 0.81554 0.72536 0.0
H95 H 0.11078 0.76653 0.8 0.0
H96 H 0.20617 0.65139 0.88206 0.0
H97 H 0.27739 0.61753 0.87058 0.0
H98 H 0.39464 0.66623 0.76104 0.0
H99 H 0.38892 0.71035 0.68385 0.0
H100 H 0.29868 0.83048 0.60888 0.0
H101 H 0.22914 0.86667 0.62193 0.0
H102 H 0.36262 0.82715 0.78181 0.0
H103 H 0.27132 0.81735 0.87425 0.0
H104 H 0.21905 0.67667 0.60498 0.0
H105 H 0.14646 0.64233 0.71259 0.0
C106 C 0.44247 0.07113 0.01822 0.0
C107 C 0.42324 0.10737 0.99719 0.0
C108 C 0.43864 0.11526 0.95716 0.0
C109 C 0.46636 0.08363 0.95605 0.0
N110 N 0.46933 0.05565 0.99275 0.0
Co111 Co 0.50733 0.00577 0.00564 0.0
N112 N 0.53109 0.01827 0.94743 0.0
C113 C 0.52088 0.05056 0.91601 0.0
C114 C 0.54138 0.05031 0.87894 0.0
C115 C 0.56583 0.01551 0.88681 0.0
C116 C 0.5587 0.99641 0.92837 0.0
N117 N 0.54564 0.95617 0.01875 0.0
C118 C 0.57237 0.94054 0.99325 0.0
C119 C 0.59213 0.90472 0.01472 0.0
C120 C 0.57722 0.89729 0.05504 0.0
C121 C 0.54927 0.92876 0.05591 0.0
N122 N 0.48324 0.993 0.0636 0.0
C123 C 0.49293 0.96032 0.09462 0.0
C124 C 0.47172 0.95998 0.13124 0.0
C125 C 0.44717 0.9947 0.12339 0.0
C126 C 0.455 0.01435 0.08231 0.0
N127 N 0.46714 0.97398 0.97749 0.0
C128 C 0.41453 0.92728 0.93313 0.0
C129 C 0.43579 0.91113 0.97321 0.0
C130 C 0.4614 0.93487 0.99479 0.0
C131 C 0.4191 0.96779 0.91677 0.0
C132 C 0.44539 0.99017 0.939 0.0
N133 N 0.54751 0.03765 0.03373 0.0
C134 C 0.59337 0.04638 0.09559 0.0
C135 C 0.59985 0.08559 0.0763 0.0
C136 C 0.58064 0.09984 0.03476 0.0
C137 C 0.55519 0.0755 0.01411 0.0
C138 C 0.56717 0.02322 0.07404 0.0
H139 H 0.54175 0.08823 0.98247 0.0
H140 H 0.5628 0.99399 0.09099 0.0
H141 H 0.47676 0.92067 0.02505 0.0
H142 H 0.44792 0.02042 0.92396 0.0
C143 C 0.4908 0.07982 0.92157 0.0
C144 C 0.4354 0.05361 0.06303 0.0
C145 C 0.5784 0.95721 0.94783 0.0
C146 C 0.52387 0.93182 0.08964 0.0
H147 H 0.4009 0.12652 0.00978 0.0
H148 H 0.43107 0.14133 0.93218 0.0
H149 H 0.53836 0.07243 0.84937 0.0
H150 H 0.58622 1.00506 0.86428 0.0
H151 H 0.61425 0.88531 1.00216 0.0
H152 H 0.58489 0.87134 0.08015 0.0
H153 H 0.47444 0.9376 0.16059 0.0
H154 H 0.42629 1.00476 0.14566 0.0
H155 H 0.43368 0.87993 0.9875 0.0
H156 H 0.40263 0.98244 0.88663 0.0
H157 H 0.60747 0.03402 0.12785 0.0
H158 H 0.58521 0.12977 0.01811 0.0
C159 C 0.27531 0.304 0.17238 0.0
C160 C 0.25824 0.32506 0.13261 0.0
C161 C 0.2224 0.30933 0.12443 0.0
C162 C 0.21959 0.27959 0.15938 0.0
N163 N 0.25146 0.27535 0.18954 0.0
Co164 Co 0.25949 0.23522 0.24511 0.0
N165 N 0.20797 0.21034 0.23132 0.0
C166 C 0.18316 0.21978 0.19422 0.0
C167 C 0.1499 0.19795 0.19417 0.0
C168 C 0.15345 0.17326 0.23378 0.0
C169 C 0.18871 0.18169 0.25587 0.0
N170 N 0.26661 0.19615 0.30158 0.0
C171 C 0.24131 0.16957 0.32003 0.0
C172 C 0.25684 0.15035 0.36123 0.0
C173 C 0.29301 0.16551 0.36932 0.0
C174 C 0.29743 0.19315 0.33289 0.0
N175 N 0.31176 0.25905 0.25813 0.0
C176 C 0.33825 0.24716 0.29349 0.0
C177 C 0.37197 0.26828 0.29312 0.0
C178 C 0.36706 0.29495 0.25494 0.0
C179 C 0.3305 0.28844 0.23402 0.0
N180 N 0.23042 0.27461 0.2767 0.0
C181 C 0.18799 0.32859 0.32324 0.0
C182 C 0.22742 0.31354 0.33716 0.0
C183 C 0.2477 0.28664 0.31391 0.0
C184 C 0.17054 0.31634 0.28508 0.0
C185 C 0.19218 0.29002 0.26233 0.0
N186 N 0.28881 0.19593 0.21342 0.0
C187 C 0.34533 0.14784 0.21031 0.0
C188 C 0.33496 0.14582 0.16589 0.0
C189 C 0.30018 0.16832 0.14622 0.0
C190 C 0.27769 0.19272 0.17038 0.0
C191 C 0.32207 0.17274 0.23321 0.0
H192 H 0.25181 0.20925 0.15318 0.0
H193 H 0.33196 0.17307 0.26676 0.0
H194 H 0.27733 0.27592 0.32684 0.0
H195 H 0.17715 0.28228 0.23337 0.0
C196 C 0.1894 0.25264 0.16266 0.0
C197 C 0.31505 0.31098 0.19131 0.0
C198 C 0.20168 0.16284 0.30076 0.0
C199 C 0.32989 0.21707 0.32727 0.0
H200 H 0.27077 0.34867 0.11105 0.0
H201 H 0.20151 0.31765 0.09567 0.0
H202 H 0.1252 0.20081 0.16909 0.0
H203 H 0.132 0.1522 0.24561 0.0
H204 H 0.24312 0.12821 0.38352 0.0
H205 H 0.31333 0.15785 0.39864 0.0
H206 H 0.39706 0.26481 0.31778 0.0
H207 H 0.38806 0.31676 0.2438 0.0
H208 H 0.24295 0.32252 0.36582 0.0
H209 H 0.13996 0.32634 0.27293 0.0
H210 H 0.37138 0.13029 0.22756 0.0
H211 H 0.29077 0.16811 0.11187 0.0
C212 C 0.78344 0.20571 0.33013 0.0
C213 C 0.76285 0.18313 0.36169 0.0
C214 C 0.7271 0.20438 0.36392 0.0
C215 C 0.7271 0.23782 0.33263 0.0
N216 N 0.76042 0.23894 0.31023 0.0
Co217 Co 0.7676 0.27652 0.25513 0.0
N218 N 0.71669 0.30957 0.2604 0.0
C219 C 0.6932 0.30516 0.29455 0.0
C220 C 0.6615 0.33372 0.29051 0.0
C221 C 0.66483 0.35762 0.25124 0.0
C222 C 0.69816 0.34179 0.23319 0.0
N223 N 0.77307 0.31204 0.19784 0.0
C224 C 0.74702 0.34105 0.17407 0.0
C225 C 0.76039 0.35416 0.13298 0.0
C226 C 0.79616 0.33303 0.1309 0.0
C227 C 0.80232 0.30789 0.17031 0.0
N228 N 0.82042 0.24572 0.25226 0.0
C229 C 0.84696 0.25453 0.2217 0.0
C230 C 0.88453 0.23623 0.23325 0.0
C231 C 0.88196 0.2144 0.27373 0.0
C232 C 0.84223 0.21916 0.28395 0.0
N233 N 0.73827 0.2394 0.22124 0.0
C234 C 0.69545 0.18838 0.1722 0.0
C235 C 0.73656 0.19178 0.16869 0.0
C236 C 0.75721 0.21756 0.19302 0.0
C237 C 0.67639 0.21051 0.20102 0.0
C238 C 0.69811 0.23524 0.22522 0.0
N239 N 0.79673 0.31345 0.2891 0.0
C240 C 0.84795 0.36072 0.29504 0.0
C241 C 0.84076 0.363 0.33899 0.0
C242 C 0.81052 0.34043 0.35714 0.0
C243 C 0.78896 0.31625 0.33183 0.0
C244 C 0.82586 0.33602 0.27095 0.0
H245 H 0.76634 0.29975 0.34771 0.0
H246 H 0.83308 0.3355 0.23773 0.0
H247 H 0.7884 0.21954 0.18822 0.0
H248 H 0.68145 0.25065 0.24693 0.0
C249 C 0.698 0.27025 0.32575 0.0
C250 C 0.82587 0.19673 0.32284 0.0
C251 C 0.70907 0.35627 0.18872 0.0
C252 C 0.83628 0.28188 0.1836 0.0
H253 H 0.77282 0.15471 0.38196 0.0
H254 H 0.70416 0.19667 0.38621 0.0
H255 H 0.63769 0.33573 0.3124 0.0
H256 H 0.64415 0.38286 0.2367 0.0
H257 H 0.74584 0.37637 0.10685 0.0
H258 H 0.81535 0.33562 0.10383 0.0
H259 H 0.91104 0.23963 0.21517 0.0
H260 H 0.90709 0.19765 0.29344 0.0
H261 H 0.75258 0.17529 0.14659 0.0
H262 H 0.64472 0.2084 0.20537 0.0
H263 H 0.87039 0.37814 0.27897 0.0
H264 H 0.80388 0.34067 0.39108 0.0
C265 C 0.67469 0.71782 0.77734 0.0
C266 C 0.63643 0.71464 0.75825 0.0
C267 C 0.63225 0.7407 0.71964 0.0
C268 C 0.66766 0.75888 0.71756 0.0
N269 N 0.69454 0.74575 0.75226 0.0
Co270 Co 0.747 0.76932 0.76527 0.0
N271 N 0.73987 0.8089 0.7093 0.0
C272 C 0.70935 0.81178 0.67771 0.0
C273 C 0.71386 0.83962 0.64144 0.0
C274 C 0.74987 0.85495 0.64996 0.0
C275 C 0.76521 0.83555 0.69114 0.0
N276 N 0.79827 0.79441 0.77968 0.0
C277 C 0.81703 0.82404 0.75601 0.0
C278 C 0.85214 0.83237 0.77846 0.0
C279 C 0.856 0.80674 0.81746 0.0
C280 C 0.8231 0.78441 0.81668 0.0
N281 N 0.75535 0.72827 0.8199 0.0
C282 C 0.78821 0.72244 0.84871 0.0
C283 C 0.78686 0.6904 0.88153 0.0
C284 C 0.75081 0.67499 0.87345 0.0
C285 C 0.73178 0.69908 0.83641 0.0
N286 N 0.77611 0.73081 0.73251 0.0
C287 C 0.81963 0.68212 0.68157 0.0
C288 C 0.83788 0.69465 0.71895 0.0
C289 C 0.81565 0.71824 0.74409 0.0
C290 C 0.7789 0.69318 0.67086 0.0
C291 C 0.75792 0.71762 0.69635 0.0
N292 N 0.71793 0.80794 0.79785 0.0
C293 C 0.70697 0.83472 0.86561 0.0
C294 C 0.67382 0.85963 0.84544 0.0
C295 C 0.66378 0.85875 0.80071 0.0
C296 C 0.68602 0.83302 0.77778 0.0
C297 C 0.72845 0.80945 0.84144 0.0
H298 H 0.67657 0.8338 0.74388 0.0
H299 H 0.75319 0.79103 0.85891 0.0
H300 H 0.83137 0.72631 0.77246 0.0
H301 H 0.7272 0.72597 0.68569 0.0
C302 C 0.6765 0.78854 0.68361 0.0
C303 C 0.69062 0.69427 0.81959 0.0
C304 C 0.80431 0.84294 0.71111 0.0
C305 C 0.81783 0.75003 0.84661 0.0
H306 H 0.61339 0.69607 0.77096 0.0
H307 H 0.60616 0.74632 0.69628 0.0
H308 H 0.69353 0.84758 0.61217 0.0
H309 H 0.76354 0.87758 0.6282 0.0
H310 H 0.87348 0.85373 0.7671 0.0
H311 H 0.88087 0.80337 0.84238 0.0
H312 H 0.80894 0.68016 0.90882 0.0
H313 H 0.73949 0.64944 0.89328 0.0
H314 H 0.86926 0.68613 0.7289 0.0
H315 H 0.76355 0.68404 0.64213 0.0
H316 H 0.71591 0.83391 0.90025 0.0
H317 H 0.6389 0.87798 0.7832 0.0
C318 C 0.44047 0.52632 0.9348 0.0
C319 C 0.41849 0.50654 0.90542 0.0
C320 C 0.43514 0.46767 0.90998 0.0
C321 C 0.46548 0.46541 0.94256 0.0
N322 N 0.46902 0.50033 0.95891 0.0
Co323 Co 0.50273 0.50655 0.01272 0.0
N324 N 0.53759 0.45709 0.00849 0.0
C325 C 0.52896 0.42852 0.98331 0.0
C326 C 0.55895 0.39829 0.98588 0.0
C327 C 0.588 0.40792 0.01526 0.0
C328 C 0.57373 0.44331 0.02958 0.0
N329 N 0.53602 0.51232 0.06726 0.0
C330 C 0.57124 0.49254 0.0851 0.0
C331 C 0.5823 0.50439 0.12549 0.0
C332 C 0.55295 0.53216 0.13324 0.0
C333 C 0.52559 0.53565 0.0975 0.0
N334 N 0.46779 0.55622 0.0162 0.0
C335 C 0.46666 0.57628 0.05115 0.0
C336 C 0.44715 0.61398 0.04096 0.0
C337 C 0.43484 0.61768 0.99718 0.0
C338 C 0.44576 0.5811 0.9832 0.0
N339 N 0.46702 0.47338 0.04851 0.0
C340 C 0.41644 0.42223 0.0959 0.0
C341 C 0.40049 0.455 0.06468 0.0
C342 C 0.42622 0.48012 0.04139 0.0
C343 C 0.45822 0.41644 0.10367 0.0
C344 C 0.48281 0.4423 0.07994 0.0
N345 N 0.53848 0.53967 0.97704 0.0
C346 C 0.57256 0.60096 0.96298 0.0
C347 C 0.58894 0.58866 0.92562 0.0
C348 C 0.579 0.5507 0.915 0.0
C349 C 0.55332 0.52723 0.94047 0.0
C350 C 0.54853 0.57588 0.9885 0.0
H351 H 0.5456 0.49888 0.93062 0.0
H352 H 0.53776 0.58625 0.0174 0.0
H353 H 0.41301 0.50463 0.0171 0.0
H354 H 0.5147 0.43664 0.08687 0.0
C355 C 0.49406 0.43293 0.95503 0.0
C356 C 0.4324 0.56916 0.94018 0.0
C357 C 0.59228 0.45898 0.06783 0.0
C358 C 0.49282 0.5641 0.08858 0.0
H359 H 0.39277 0.51853 0.88324 0.0
H360 H 0.42649 0.44412 0.89131 0.0
H361 H 0.55974 0.37248 0.96831 0.0
H362 H 0.61579 0.39 0.02625 0.0
H363 H 0.60828 0.49345 0.14776 0.0
H364 H 0.55202 0.54831 0.16129 0.0
H365 H 0.44534 0.63744 0.06175 0.0
H366 H 0.4209 0.6451 0.97798 0.0
H367 H 0.36839 0.46066 0.05742 0.0
H368 H 0.47198 0.39209 0.12809 0.0
H369 H 0.57751 0.63004 0.97286 0.0
H370 H 0.59094 0.53854 0.88746 0.0
C371 C 0.06886 0.52235 0.57246 0.0
C372 C 0.08493 0.50393 0.61375 0.0
C373 C 0.06605 0.46916 0.62331 0.0
C374 C 0.03964 0.46831 0.58747 0.0
N375 N 0.04081 0.50019 0.55529 0.0
Co376 Co 0.00588 0.51194 0.49867 0.0
N377 N 0.97742 0.46115 0.51319 0.0
C378 C 0.98412 0.43344 0.54998 0.0
C379 C 0.96172 0.40061 0.54961 0.0
C380 C 0.93984 0.40735 0.50987 0.0
C381 C 0.95013 0.44412 0.48829 0.0
N382 N 0.97056 0.52403 0.44238 0.0
C383 C 0.94357 0.50126 0.42445 0.0
C384 C 0.92608 0.52063 0.38416 0.0
C385 C 0.9431 0.55664 0.37593 0.0
C386 C 0.96982 0.55726 0.41157 0.0
N387 N 0.03497 0.56223 0.48358 0.0
C388 C 0.02848 0.58968 0.44655 0.0
C389 C 0.05259 0.62131 0.44562 0.0
C390 C 0.07573 0.61386 0.48452 0.0
C391 C 0.06429 0.57798 0.50705 0.0
N392 N 0.04545 0.48106 0.46847 0.0
C393 C 0.09581 0.43372 0.42217 0.0
C394 C 0.08077 0.4729 0.40377 0.0
C395 C 0.05573 0.49567 0.42712 0.0
C396 C 0.08616 0.41945 0.46497 0.0
C397 C 0.06167 0.44355 0.48745 0.0
N398 N 0.96609 0.54284 0.52905 0.0
C399 C 0.92867 0.60563 0.53623 0.0
C400 C 0.91449 0.5883 0.57571 0.0
C401 C 0.92558 0.54759 0.59085 0.0
C402 C 0.95142 0.52574 0.56744 0.0
C403 C 0.95372 0.58241 0.51329 0.0
H404 H 0.95952 0.49524 0.58161 0.0
H405 H 0.96298 0.59737 0.48316 0.0
H406 H 0.04459 0.52483 0.41077 0.0
H407 H 0.05564 0.43084 0.51989 0.0
C408 C 0.01303 0.43834 0.58337 0.0
C409 C 0.08065 0.56133 0.55154 0.0
C410 C 0.93463 0.46065 0.44343 0.0
C411 C 0.99754 0.58634 0.41476 0.0
H412 H 0.10763 0.51479 0.63496 0.0
H413 H 0.07065 0.44736 0.65309 0.0
H414 H 0.9621 0.37438 0.57472 0.0
H415 H 0.91933 0.38703 0.49773 0.0
H416 H 0.90403 0.50941 0.36247 0.0
H417 H 0.93778 0.57898 0.34666 0.0
H418 H 0.05256 0.64727 0.42023 0.0
H419 H 0.09787 0.63316 0.49556 0.0
H420 H 0.08806 0.48616 0.37133 0.0
H421 H 0.09648 0.38933 0.48098 0.0
H422 H 0.92036 0.63701 0.52296 0.0
H423 H 0.91537 0.53295 0.62143 0.0
C424 C 0.11517 0.13793 0.37101 0.0
C425 C 0.11993 0.09539 0.38039 0.0
H426 H 0.1373 0.1923 0.33844 0.0
C427 C 0.15145 0.07509 0.36229 0.0
H428 H 0.09092 0.15456 0.3838 0.0
C429 C 0.17798 0.09688 0.33632 0.0
C430 C 0.17337 0.1393 0.32778 0.0
H431 H 0.15619 0.04245 0.36907 0.0
H432 H 0.20232 0.08069 0.32317 0.0
C433 C 0.14153 0.15959 0.34494 0.0
C434 C 0.10165 0.9018 0.64337 0.0
C435 C 0.10204 0.90401 0.59731 0.0
H436 H 0.13094 0.8781 0.70656 0.0
C437 C 0.12957 0.87761 0.58083 0.0
H438 H 0.08075 0.9213 0.65758 0.0
C439 C 0.15369 0.84812 0.60937 0.0
C440 C 0.1551 0.8476 0.65532 0.0
H441 H 0.13246 0.87949 0.54577 0.0
H442 H 0.17256 0.82668 0.59523 0.0
C443 C 0.12955 0.87589 0.67173 0.0
C444 C 0.38621 0.90859 0.86131 0.0
C445 C 0.38897 0.90205 0.9077 0.0
H446 H 0.36157 0.89148 0.80149 0.0
C447 C 0.36763 0.87098 0.92907 0.0
H448 H 0.40256 0.93161 0.84335 0.0
C449 C 0.34475 0.84687 0.90473 0.0
C450 C 0.34244 0.85329 0.85833 0.0
H451 H 0.36847 0.86522 0.96468 0.0
H452 H 0.32959 0.82267 0.92235 0.0
C453 C 0.36308 0.88492 0.8371 0.0
C454 C 0.40277 0.11897 0.14719 0.0
C455 C 0.36063 0.12125 0.1401 0.0
H456 H 0.45925 0.09571 0.12822 0.0
C457 C 0.3434 0.1005 0.10758 0.0
H458 H 0.41722 0.13499 0.17136 0.0
C459 C 0.36763 0.07842 0.08268 0.0
C460 C 0.40952 0.07657 0.08981 0.0
H461 H 0.31114 0.10103 0.10156 0.0
H462 H 0.35371 0.0628 0.05779 0.0
C463 C 0.42692 0.09678 0.12236 0.0
C464 C 0.86199 0.93016 0.66086 0.0
C465 C 0.88464 0.91184 0.63106 0.0
H466 H 0.81867 0.92258 0.7095 0.0
C467 C 0.88122 0.87036 0.62905 0.0
H468 H 0.86348 0.962 0.66311 0.0
C469 C 0.85534 0.84815 0.65523 0.0
C470 C 0.8325 0.86671 0.6843 0.0
H471 H 0.89868 0.85489 0.60727 0.0
H472 H 0.85305 0.81641 0.65273 0.0
C473 C 0.83616 0.90777 0.68721 0.0
C474 C 0.90426 0.11034 0.36827 0.0
C475 C 0.90117 0.10688 0.41407 0.0
H476 H 0.87882 0.13585 0.30403 0.0
C477 C 0.8722 0.1326 0.4294 0.0
H478 H 0.92625 0.0914 0.35484 0.0
C479 C 0.84992 0.16319 0.4003 0.0
C480 C 0.85166 0.16534 0.35439 0.0
H481 H 0.86698 0.12956 0.46404 0.0
H482 H 0.83055 0.18458 0.41389 0.0
C483 C 0.87792 0.13702 0.33895 0.0
C484 C 0.63479 0.17713 0.12418 0.0
C485 C 0.67212 0.1623 0.14608 0.0
H486 H 0.58296 0.16469 0.08508 0.0
C487 C 0.68605 0.12215 0.1441 0.0
H488 H 0.62334 0.208 0.12488 0.0
C489 C 0.66269 0.09715 0.12152 0.0
C490 C 0.62526 0.11201 0.0998 0.0
H491 H 0.71455 0.10979 0.16089 0.0
H492 H 0.67399 0.06624 0.12088 0.0
C493 C 0.61178 0.1524 0.10113 0.0
C494 C 0.58449 0.91424 0.88792 0.0
C495 C 0.60309 0.93333 0.92074 0.0
H496 H 0.59203 0.87555 0.83891 0.0
C497 C 0.64501 0.92902 0.9282 0.0
H498 H 0.55213 0.91716 0.88178 0.0
C499 C 0.668 0.90542 0.90361 0.0
C500 C 0.64951 0.88571 0.87095 0.0
H501 H 0.65988 0.94373 0.95329 0.0
H502 H 0.70031 0.90285 0.91002 0.0
C503 C 0.60742 0.89064 0.8633 0.0
C504 C 0.62214 0.61021 0.85436 0.0
C505 C 0.61572 0.61525 0.89831 0.0
H506 H 0.65189 0.62963 0.79609 0.0
C507 C 0.63514 0.64647 0.91573 0.0
H508 H 0.60776 0.58748 0.83859 0.0
C509 C 0.65846 0.67231 0.88995 0.0
C510 C 0.66479 0.66687 0.84649 0.0
H511 H 0.63296 0.65125 0.94951 0.0
H512 H 0.67204 0.69643 0.90428 0.0
C513 C 0.64701 0.63501 0.8293 0.0
C514 C 0.68867 0.4217 0.13837 0.0
C515 C 0.6796 0.38288 0.15721 0.0
H516 H 0.66836 0.47591 0.09408 0.0
C517 C 0.64193 0.36929 0.14639 0.0
H518 H 0.71734 0.43302 0.14679 0.0
C519 C 0.61377 0.39406 0.11743 0.0
C520 C 0.62312 0.43249 0.09773 0.0
H521 H 0.63421 0.33956 0.16067 0.0
H522 H 0.58457 0.38322 0.11043 0.0
C523 C 0.6608 0.44614 0.10841 0.0
C524 C 0.90591 0.39196 0.36022 0.0
C525 C 0.86477 0.38839 0.36569 0.0
H526 H 0.96004 0.41772 0.38061 0.0
C527 C 0.84692 0.4091 0.3971 0.0
H528 H 0.92096 0.37605 0.33698 0.0
C529 C 0.86958 0.43251 0.42236 0.0
C530 C 0.91046 0.43582 0.41666 0.0
H531 H 0.81529 0.40767 0.40188 0.0
H532 H 0.85519 0.44815 0.44628 0.0
C533 C 0.92845 0.41554 0.38536 0.0
C534 C 0.83019 0.6219 0.64222 0.0
C535 C 0.84327 0.65836 0.65363 0.0
H536 H 0.84283 0.5708 0.60902 0.0
C537 C 0.87942 0.67197 0.63849 0.0
H538 H 0.8025 0.61069 0.6536 0.0
C539 C 0.90205 0.64961 0.61244 0.0
C540 C 0.8894 0.61276 0.60171 0.0
H541 H 0.89005 0.7001 0.6466 0.0
H542 H 0.92989 0.66072 0.6014 0.0
C543 C 0.85329 0.59906 0.61693 0.0
C544 C 0.40031 0.35189 0.12696 0.0
C545 C 0.38995 0.39385 0.11988 0.0
H546 H 0.38445 0.29298 0.1547 0.0
C547 C 0.35439 0.40829 0.13619 0.0
H548 H 0.42717 0.33963 0.11439 0.0
C549 C 0.33009 0.38148 0.1594 0.0
C550 C 0.3406 0.33969 0.16633 0.0
H551 H 0.34571 0.4404 0.13172 0.0
H552 H 0.30311 0.39334 0.1721 0.0
C553 C 0.37585 0.32513 0.14982 0.0
C554 C 0.34925 0.64708 0.88404 0.0
C555 C 0.35093 0.64296 0.83926 0.0
H556 H 0.36661 0.62167 0.95041 0.0
C557 C 0.38031 0.61497 0.82832 0.0
H558 H 0.32713 0.66809 0.89429 0.0
C559 C 0.40902 0.59467 0.86047 0.0
C560 C 0.40543 0.59657 0.90554 0.0
H561 H 0.38085 0.60781 0.79517 0.0
H562 H 0.43258 0.57528 0.85017 0.0
C563 C 0.37373 0.62187 0.91665 0.0
C564 C 0.17117 0.60962 0.5972 0.0
C565 C 0.15382 0.6329 0.62671 0.0
H566 H 0.16145 0.56843 0.55043 0.0
C567 C 0.1121 0.63277 0.63042 0.0
H568 H 0.20315 0.60867 0.59372 0.0
C569 C 0.08856 0.60949 0.60605 0.0
C570 C 0.10608 0.586 0.5772 0.0
H571 H 0.09745 0.65088 0.65206 0.0
H572 H 0.05659 0.60984 0.60964 0.0
C573 C 0.14748 0.58636 0.57269 0.0
C574 C 0.13604 0.38595 0.32682 0.0
C575 C 0.16517 0.35633 0.34847 0.0
H576 H 0.09082 0.43231 0.33257 0.0
C577 C 0.17188 0.35314 0.39459 0.0
H578 H 0.13031 0.39008 0.29135 0.0
C579 C 0.15016 0.37865 0.41824 0.0
C580 C 0.12042 0.40769 0.39669 0.0
H581 H 0.19352 0.33047 0.41281 0.0
H582 H 0.15688 0.37548 0.45354 0.0
C583 C 0.11377 0.41092 0.35057 0.0
loop_
_geom_bond_atom_site_label_1
_geom_bond_atom_site_label_2
_geom_bond_distance
_geom_bond_site_symmetry_2
_ccdc_geom_bond_type
C0 C1 1.443 . S
C0 N4 1.376 . S
C0 C38 1.389 . S
C1 C0 1.443 . S
C1 C2 1.340 . S
C1 H41 0.951 . S
C2 C1 1.340 . S
C2 C3 1.439 . S
C2 H42 0.950 . S
C3 C2 1.439 . S
C3 N4 1.374 . S
C3 C37 1.395 1_455 S
N4 C0 1.376 . S
N4 C3 1.374 . S
N4 Co5 2.009 1_565 S
Co5 N4 2.009 1_545 S
Co5 N6 1.994 1_455 S
Co5 N11 2.007 1_455 S
Co5 N16 1.998 1_545 S
Co5 N21 2.284 . S
Co5 N27 2.281 1_445 S
N6 Co5 1.994 1_655 S
N6 C7 1.376 1_545 S
N6 C10 1.383 . S
C7 N6 1.376 1_565 S
C7 C8 1.446 . S
C7 C37 1.391 . S
C8 C7 1.446 . S
C8 C9 1.339 1_565 S
C8 H43 0.949 . S
C9 C8 1.339 1_545 S
C9 C10 1.439 . S
C9 H44 0.950 . S
C10 N6 1.383 . S
C10 C9 1.439 . S
C10 C39 1.392 . S
N11 Co5 2.007 1_655 S
N11 C12 1.376 . S
N11 C15 1.374 . S
C12 N11 1.376 . S
C12 C13 1.443 . S
C12 C39 1.389 . S
C13 C12 1.443 . S
C13 C14 1.340 . S
C13 H45 0.951 . S
C14 C13 1.340 . S
C14 C15 1.439 . S
C14 H46 0.950 . S
C15 N11 1.374 . S
C15 C14 1.439 . S
C15 C40 1.395 1_655 S
N16 Co5 1.998 1_565 S
N16 C17 1.364 1_565 S
N16 C20 1.394 . S
C17 N16 1.364 1_545 S
C17 C18 1.446 . S
C17 C40 1.391 . S
C18 C17 1.446 . S
C18 C19 1.339 1_545 S
C18 H47 0.949 . S
C19 C18 1.339 1_565 S
C19 C20 1.439 . S
C19 H48 0.950 . S
C20 N16 1.394 . S
C20 C19 1.439 . S
C20 C38 1.392 . S
N21 Co5 2.284 . S
N21 C24 1.332 . S
N21 C26 1.332 . S
C22 C23 1.386 . S
C22 C25 1.388 . S
C23 C22 1.386 . S
C23 C24 1.382 . S
C23 H49 0.950 . S
C24 N21 1.332 . S
C24 C23 1.382 . S
C24 H35 0.952 . S
C25 C22 1.388 . S
C25 C26 1.382 . S
C25 H50 0.950 . S
C26 N21 1.332 . S
C26 C25 1.382 . S
C26 H36 0.948 . S
N27 Co5 2.281 1_665 S
N27 C31 1.332 . S
N27 C32 1.332 . S
C28 C29 1.388 . S
C28 C32 1.382 . S
C28 H51 0.950 . S
C29 C28 1.388 . S
C29 C30 1.386 . S
C30 C29 1.386 . S
C30 C31 1.382 . S
C30 H52 0.950 . S
C31 N27 1.332 . S
C31 C30 1.382 . S
C31 H33 0.952 . S
C32 N27 1.332 . S
C32 C28 1.382 . S
C32 H34 0.948 . S
H33 C31 0.952 . S
H34 C32 0.948 . S
H35 C24 0.952 . S
H36 C26 0.948 . S
C37 C3 1.395 1_655 S
C37 C7 1.391 . S
C38 C0 1.389 . S
C38 C20 1.392 . S
C39 C10 1.392 . S
C39 C12 1.389 . S
C40 C15 1.395 1_455 S
C40 C17 1.391 . S
H41 C1 0.951 . S
H42 C2 0.950 . S
H43 C8 0.949 . S
H44 C9 0.950 . S
H45 C13 0.951 . S
H46 C14 0.950 . S
H47 C18 0.949 . S
H48 C19 0.950 . S
H49 C23 0.950 . S
H50 C25 0.950 . S
H51 C28 0.950 . S
H52 C30 0.950 . S
C53 C54 1.443 . S
C53 N57 1.376 . S
C53 C91 1.389 . S
C54 C53 1.443 . S
C54 C55 1.340 . S
C54 H94 0.951 . S
C55 C54 1.340 . S
C55 C56 1.439 . S
C55 H95 0.950 . S
C56 C55 1.439 . S
C56 N57 1.374 . S
C56 C90 1.395 . S
N57 C53 1.376 . S
N57 C56 1.374 . S
N57 Co58 2.008 . S
Co58 N57 2.008 . S
Co58 N59 1.995 . S
Co58 N64 2.008 . S
Co58 N69 1.995 . S
Co58 N74 2.282 . S
Co58 N80 2.282 . S
N59 Co58 1.995 . S
N59 C60 1.376 . S
N59 C63 1.383 . S
C60 N59 1.376 . S
C60 C61 1.446 . S
C60 C90 1.391 . S
C61 C60 1.446 . S
C61 C62 1.339 . S
C61 H96 0.949 . S
C62 C61 1.339 . S
C62 C63 1.439 . S
C62 H97 0.950 . S
C63 N59 1.383 . S
C63 C62 1.439 . S
C63 C92 1.392 . S
N64 Co58 2.008 . S
N64 C65 1.376 . S
N64 C68 1.374 . S
C65 N64 1.376 . S
C65 C66 1.443 . S
C65 C92 1.389 . S
C66 C65 1.443 . S
C66 C67 1.340 . S
C66 H98 0.951 . S
C67 C66 1.340 . S
C67 C68 1.439 . S
C67 H99 0.950 . S
C68 N64 1.374 . S
C68 C67 1.439 . S
C68 C93 1.395 . S
N69 Co58 1.995 . S
N69 C70 1.376 . S
N69 C73 1.383 . S
C70 N69 1.376 . S
C70 C71 1.446 . S
C70 C93 1.391 . S
C71 C70 1.446 . S
C71 C72 1.339 . S
C71 H100 0.949 . S
C72 C71 1.339 . S
C72 C73 1.439 . S
C72 H101 0.950 . S
C73 N69 1.383 . S
C73 C72 1.439 . S
C73 C91 1.392 . S
N74 Co58 2.282 . S
N74 C77 1.332 . S
N74 C79 1.332 . S
C75 C76 1.386 . S
C75 C78 1.388 . S
C76 C75 1.386 . S
C76 C77 1.382 . S
C76 H102 0.950 . S
C77 N74 1.332 . S
C77 C76 1.382 . S
C77 H88 0.952 . S
C78 C75 1.388 . S
C78 C79 1.382 . S
C78 H103 0.950 . S
C79 N74 1.332 . S
C79 C78 1.382 . S
C79 H89 0.948 . S
N80 Co58 2.282 . S
N80 C84 1.332 . S
N80 C85 1.332 . S
C81 C82 1.388 . S
C81 C85 1.382 . S
C81 H104 0.950 . S
C82 C81 1.388 . S
C82 C83 1.386 . S
C83 C82 1.386 . S
C83 C84 1.382 . S
C83 H105 0.950 . S
C84 N80 1.332 . S
C84 C83 1.382 . S
C84 H86 0.952 . S
C85 N80 1.332 . S
C85 C81 1.382 . S
C85 H87 0.948 . S
H86 C84 0.952 . S
H87 C85 0.948 . S
H88 C77 0.952 . S
H89 C79 0.948 . S
C90 C56 1.395 . S
C90 C60 1.391 . S
C91 C53 1.389 . S
C91 C73 1.392 . S
C92 C63 1.392 . S
C92 C65 1.389 . S
C93 C68 1.395 . S
C93 C70 1.391 . S
H94 C54 0.951 . S
H95 C55 0.950 . S
H96 C61 0.949 . S
H97 C62 0.950 . S
H98 C66 0.951 . S
H99 C67 0.950 . S
H100 C71 0.949 . S
H101 C72 0.950 . S
H102 C76 0.950 . S
H103 C78 0.950 . S
H104 C81 0.950 . S
H105 C83 0.950 . S
C106 C107 1.443 1_554 S
C106 N110 1.376 1_554 S
C106 C144 1.389 . S
C107 C106 1.443 1_556 S
C107 C108 1.340 . S
C107 H147 0.951 1_556 S
C108 C107 1.340 . S
C108 C109 1.439 . S
C108 H148 0.950 . S
C109 C108 1.439 . S
C109 N110 1.374 . S
C109 C143 1.395 . S
N110 C106 1.376 1_556 S
N110 C109 1.374 . S
N110 Co111 2.008 1_556 S
Co111 N110 2.008 1_554 S
Co111 N112 1.973 1_554 S
Co111 N117 2.009 1_545 S
Co111 N122 2.016 1_545 S
Co111 N127 2.270 1_544 S
Co111 N133 2.295 . S
N112 Co111 1.973 1_556 S
N112 C113 1.376 . S
N112 C116 1.383 1_545 S
C113 N112 1.376 . S
C113 C114 1.446 . S
C113 C143 1.391 . S
C114 C113 1.446 . S
C114 C115 1.339 . S
C114 H149 0.949 . S
C115 C114 1.339 . S
C115 C116 1.439 1_545 S
C115 H150 0.950 1_545 S
C116 N112 1.383 1_565 S
C116 C115 1.439 1_565 S
C116 C145 1.392 . S
N117 Co111 2.009 1_565 S
N117 C118 1.376 1_554 S
N117 C121 1.374 . S
C118 N117 1.376 1_556 S
C118 C119 1.443 1_556 S
C118 C145 1.389 . S
C119 C118 1.443 1_554 S
C119 C120 1.340 . S
C119 H151 0.951 1_554 S
C120 C119 1.340 . S
C120 C121 1.439 . S
C120 H152 0.950 . S
C121 N117 1.374 . S
C121 C120 1.439 . S
C121 C146 1.395 . S
N122 Co111 2.016 1_565 S
N122 C123 1.376 . S
N122 C126 1.383 1_565 S
C123 N122 1.376 . S
C123 C124 1.446 . S
C123 C146 1.391 . S
C124 C123 1.446 . S
C124 C125 1.339 . S
C124 H153 0.949 . S
C125 C124 1.339 . S
C125 C126 1.439 1_565 S
C125 H154 0.950 1_565 S
C126 N122 1.383 1_545 S
C126 C125 1.439 1_545 S
C126 C144 1.392 . S
N127 Co111 2.270 1_566 S
N127 C130 1.332 . S
N127 C132 1.332 . S
C128 C129 1.386 . S
C128 C131 1.388 . S
C129 C128 1.386 . S
C129 C130 1.382 . S
C129 H155 0.950 . S
C130 N127 1.332 . S
C130 C129 1.382 . S
C130 H141 0.952 1_556 S
C131 C128 1.388 . S
C131 C132 1.382 . S
C131 H156 0.950 . S
C132 N127 1.332 . S
C132 C131 1.382 . S
C132 H142 0.947 . S
N133 Co111 2.295 . S
N133 C137 1.332 . S
N133 C138 1.332 . S
C134 C135 1.388 . S
C134 C138 1.382 . S
C134 H157 0.950 . S
C135 C134 1.388 . S
C135 C136 1.386 . S
C136 C135 1.386 . S
C136 C137 1.382 . S
C136 H158 0.950 . S
C137 N133 1.332 . S
C137 C136 1.382 . S
C137 H139 0.952 1_554 S
C138 N133 1.332 . S
C138 C134 1.382 . S
C138 H140 0.948 . S
H139 C137 0.952 1_556 S
H140 C138 0.948 . S
H141 C130 0.952 1_554 S
H142 C132 0.947 . S
C143 C109 1.395 . S
C143 C113 1.391 . S
C144 C106 1.389 . S
C144 C126 1.392 . S
C145 C116 1.392 . S
C145 C118 1.389 . S
C146 C121 1.395 . S
C146 C123 1.391 . S
H147 C107 0.951 1_554 S
H148 C108 0.950 . S
H149 C114 0.949 . S
H150 C115 0.950 1_565 S
H151 C119 0.951 1_556 S
H152 C120 0.950 . S
H153 C124 0.949 . S
H154 C125 0.950 1_545 S
H155 C129 0.950 . S
H156 C131 0.950 . S
H157 C134 0.950 . S
H158 C136 0.950 . S
C159 C160 1.443 . S
C159 N163 1.376 . S
C159 C197 1.389 . S
C160 C159 1.443 . S
C160 C161 1.340 . S
C160 H200 0.951 . S
C161 C160 1.340 . S
C161 C162 1.439 . S
C161 H201 0.950 . S
C162 C161 1.439 . S
C162 N163 1.374 . S
C162 C196 1.395 . S
N163 C159 1.376 . S
N163 C162 1.374 . S
N163 Co164 2.008 . S
Co164 N163 2.008 . S
Co164 N165 1.995 . S
Co164 N170 2.008 . S
Co164 N175 1.995 . S
Co164 N180 2.282 . S
Co164 N186 2.282 . S
N165 Co164 1.995 . S
N165 C166 1.376 . S
N165 C169 1.383 . S
C166 N165 1.376 . S
C166 C167 1.446 . S
C166 C196 1.391 . S
C167 C166 1.446 . S
C167 C168 1.339 . S
C167 H202 0.949 . S
C168 C167 1.339 . S
C168 C169 1.439 . S
C168 H203 0.950 . S
C169 N165 1.383 . S
C169 C168 1.439 . S
C169 C198 1.392 . S
N170 Co164 2.008 . S
N170 C171 1.376 . S
N170 C174 1.374 . S
C171 N170 1.376 . S
C171 C172 1.443 . S
C171 C198 1.389 . S
C172 C171 1.443 . S
C172 C173 1.340 . S
C172 H204 0.951 . S
C173 C172 1.340 . S
C173 C174 1.439 . S
C173 H205 0.950 . S
C174 N170 1.374 . S
C174 C173 1.439 . S
C174 C199 1.395 . S
N175 Co164 1.995 . S
N175 C176 1.376 . S
N175 C179 1.383 . S
C176 N175 1.376 . S
C176 C177 1.446 . S
C176 C199 1.391 . S
C177 C176 1.446 . S
C177 C178 1.339 . S
C177 H206 0.949 . S
C178 C177 1.339 . S
C178 C179 1.439 . S
C178 H207 0.950 . S
C179 N175 1.383 . S
C179 C178 1.439 . S
C179 C197 1.392 . S
N180 Co164 2.282 . S
N180 C183 1.332 . S
N180 C185 1.332 . S
C181 C182 1.386 . S
C181 C184 1.388 . S
C182 C181 1.386 . S
C182 C183 1.382 . S
C182 H208 0.950 . S
C183 N180 1.332 . S
C183 C182 1.382 . S
C183 H194 0.952 . S
C184 C181 1.388 . S
C184 C185 1.382 . S
C184 H209 0.950 . S
C185 N180 1.332 . S
C185 C184 1.382 . S
C185 H195 0.948 . S
N186 Co164 2.282 . S
N186 C190 1.332 . S
N186 C191 1.332 . S
C187 C188 1.388 . S
C187 C191 1.382 . S
C187 H210 0.950 . S
C188 C187 1.388 . S
C188 C189 1.386 . S
C189 C188 1.386 . S
C189 C190 1.382 . S
C189 H211 0.950 . S
C190 N186 1.332 . S
C190 C189 1.382 . S
C190 H192 0.952 . S
C191 N186 1.332 . S
C191 C187 1.382 . S
C191 H193 0.948 . S
H192 C190 0.952 . S
H193 C191 0.948 . S
H194 C183 0.952 . S
H195 C185 0.948 . S
C196 C162 1.395 . S
C196 C166 1.391 . S
C197 C159 1.389 . S
C197 C179 1.392 . S
C198 C169 1.392 . S
C198 C171 1.389 . S
C199 C174 1.395 . S
C199 C176 1.391 . S
H200 C160 0.951 . S
H201 C161 0.950 . S
H202 C167 0.949 . S
H203 C168 0.950 . S
H204 C172 0.951 . S
H205 C173 0.950 . S
H206 C177 0.949 . S
H207 C178 0.950 . S
H208 C182 0.950 . S
H209 C184 0.950 . S
H210 C187 0.950 . S
H211 C189 0.950 . S
C212 C213 1.443 . S
C212 N216 1.376 . S
C212 C250 1.389 . S
C213 C212 1.443 . S
C213 C214 1.340 . S
C213 H253 0.951 . S
C214 C213 1.340 . S
C214 C215 1.439 . S
C214 H254 0.950 . S
C215 C214 1.439 . S
C215 N216 1.374 . S
C215 C249 1.395 . S
N216 C212 1.376 . S
N216 C215 1.374 . S
N216 Co217 2.008 . S
Co217 N216 2.008 . S
Co217 N218 1.995 . S
Co217 N223 2.008 . S
Co217 N228 1.995 . S
Co217 N233 2.282 . S
Co217 N239 2.282 . S
N218 Co217 1.995 . S
N218 C219 1.376 . S
N218 C222 1.383 . S
C219 N218 1.376 . S
C219 C220 1.446 . S
C219 C249 1.391 . S
C220 C219 1.446 . S
C220 C221 1.339 . S
C220 H255 0.949 . S
C221 C220 1.339 . S
C221 C222 1.439 . S
C221 H256 0.950 . S
C222 N218 1.383 . S
C222 C221 1.439 . S
C222 C251 1.392 . S
N223 Co217 2.008 . S
N223 C224 1.376 . S
N223 C227 1.374 . S
C224 N223 1.376 . S
C224 C225 1.443 . S
C224 C251 1.389 . S
C225 C224 1.443 . S
C225 C226 1.340 . S
C225 H257 0.951 . S
C226 C225 1.340 . S
C226 C227 1.439 . S
C226 H258 0.950 . S
C227 N223 1.374 . S
C227 C226 1.439 . S
C227 C252 1.395 . S
N228 Co217 1.995 . S
N228 C229 1.376 . S
N228 C232 1.383 . S
C229 N228 1.376 . S
C229 C230 1.446 . S
C229 C252 1.391 . S
C230 C229 1.446 . S
C230 C231 1.339 . S
C230 H259 0.949 . S
C231 C230 1.339 . S
C231 C232 1.439 . S
C231 H260 0.950 . S
C232 N228 1.383 . S
C232 C231 1.439 . S
C232 C250 1.392 . S
N233 Co217 2.282 . S
N233 C236 1.332 . S
N233 C238 1.332 . S
C234 C235 1.386 . S
C234 C237 1.388 . S
C235 C234 1.386 . S
C235 C236 1.382 . S
C235 H261 0.950 . S
C236 N233 1.332 . S
C236 C235 1.382 . S
C236 H247 0.952 . S
C237 C234 1.388 . S
C237 C238 1.382 . S
C237 H262 0.950 . S
C238 N233 1.332 . S
C238 C237 1.382 . S
C238 H248 0.948 . S
N239 Co217 2.282 . S
N239 C243 1.332 . S
N239 C244 1.332 . S
C240 C241 1.388 . S
C240 C244 1.382 . S
C240 H263 0.950 . S
C241 C240 1.388 . S
C241 C242 1.386 . S
C242 C241 1.386 . S
C242 C243 1.382 . S
C242 H264 0.950 . S
C243 N239 1.332 . S
C243 C242 1.382 . S
C243 H245 0.952 . S
C244 N239 1.332 . S
C244 C240 1.382 . S
C244 H246 0.948 . S
H245 C243 0.952 . S
H246 C244 0.948 . S
H247 C236 0.952 . S
H248 C238 0.948 . S
C249 C215 1.395 . S
C249 C219 1.391 . S
C250 C212 1.389 . S
C250 C232 1.392 . S
C251 C222 1.392 . S
C251 C224 1.389 . S
C252 C227 1.395 . S
C252 C229 1.391 . S
H253 C213 0.951 . S
H254 C214 0.950 . S
H255 C220 0.949 . S
H256 C221 0.950 . S
H257 C225 0.951 . S
H258 C226 0.950 . S
H259 C230 0.949 . S
H260 C231 0.950 . S
H261 C235 0.950 . S
H262 C237 0.950 . S
H263 C240 0.950 . S
H264 C242 0.950 . S
C265 C266 1.443 . S
C265 N269 1.376 . S
C265 C303 1.389 . S
C266 C265 1.443 . S
C266 C267 1.340 . S
C266 H306 0.951 . S
C267 C266 1.340 . S
C267 C268 1.439 . S
C267 H307 0.950 . S
C268 C267 1.439 . S
C268 N269 1.374 . S
C268 C302 1.395 . S
N269 C265 1.376 . S
N269 C268 1.374 . S
N269 Co270 2.008 . S
Co270 N269 2.008 . S
Co270 N271 1.995 . S
Co270 N276 2.008 . S
Co270 N281 1.995 . S
Co270 N286 2.282 . S
Co270 N292 2.282 . S
N271 Co270 1.995 . S
N271 C272 1.376 . S
N271 C275 1.383 . S
C272 N271 1.376 . S
C272 C273 1.446 . S
C272 C302 1.391 . S
C273 C272 1.446 . S
C273 C274 1.339 . S
C273 H308 0.949 . S
C274 C273 1.339 . S
C274 C275 1.439 . S
C274 H309 0.950 . S
C275 N271 1.383 . S
C275 C274 1.439 . S
C275 C304 1.392 . S
N276 Co270 2.008 . S
N276 C277 1.376 . S
N276 C280 1.374 . S
C277 N276 1.376 . S
C277 C278 1.443 . S
C277 C304 1.389 . S
C278 C277 1.443 . S
C278 C279 1.340 . S
C278 H310 0.951 . S
C279 C278 1.340 . S
C279 C280 1.439 . S
C279 H311 0.950 . S
C280 N276 1.374 . S
C280 C279 1.439 . S
C280 C305 1.395 . S
N281 Co270 1.995 . S
N281 C282 1.376 . S
N281 C285 1.383 . S
C282 N281 1.376 . S
C282 C283 1.446 . S
C282 C305 1.391 . S
C283 C282 1.446 . S
C283 C284 1.339 . S
C283 H312 0.949 . S
C284 C283 1.339 . S
C284 C285 1.439 . S
C284 H313 0.950 . S
C285 N281 1.383 . S
C285 C284 1.439 . S
C285 C303 1.392 . S
N286 Co270 2.282 . S
N286 C289 1.332 . S
N286 C291 1.332 . S
C287 C288 1.386 . S
C287 C290 1.388 . S
C288 C287 1.386 . S
C288 C289 1.382 . S
C288 H314 0.950 . S
C289 N286 1.332 . S
C289 C288 1.382 . S
C289 H300 0.952 . S
C290 C287 1.388 . S
C290 C291 1.382 . S
C290 H315 0.950 . S
C291 N286 1.332 . S
C291 C290 1.382 . S
C291 H301 0.948 . S
N292 Co270 2.282 . S
N292 C296 1.332 . S
N292 C297 1.332 . S
C293 C294 1.388 . S
C293 C297 1.382 . S
C293 H316 0.950 . S
C294 C293 1.388 . S
C294 C295 1.386 . S
C295 C294 1.386 . S
C295 C296 1.382 . S
C295 H317 0.950 . S
C296 N292 1.332 . S
C296 C295 1.382 . S
C296 H298 0.952 . S
C297 N292 1.332 . S
C297 C293 1.382 . S
C297 H299 0.948 . S
H298 C296 0.952 . S
H299 C297 0.948 . S
H300 C289 0.952 . S
H301 C291 0.948 . S
C302 C268 1.395 . S
C302 C272 1.391 . S
C303 C265 1.389 . S
C303 C285 1.392 . S
C304 C275 1.392 . S
C304 C277 1.389 . S
C305 C280 1.395 . S
C305 C282 1.391 . S
H306 C266 0.951 . S
H307 C267 0.950 . S
H308 C273 0.949 . S
H309 C274 0.950 . S
H310 C278 0.951 . S
H311 C279 0.950 . S
H312 C283 0.949 . S
H313 C284 0.950 . S
H314 C288 0.950 . S
H315 C290 0.950 . S
H316 C293 0.950 . S
H317 C295 0.950 . S
C318 C319 1.443 . S
C318 N322 1.376 . S
C318 C356 1.389 . S
C319 C318 1.443 . S
C319 C320 1.340 . S
C319 H359 0.951 . S
C320 C319 1.340 . S
C320 C321 1.439 . S
C320 H360 0.950 . S
C321 C320 1.439 . S
C321 N322 1.374 . S
C321 C355 1.395 . S
N322 C318 1.376 . S
N322 C321 1.374 . S
N322 Co323 2.008 1_556 S
Co323 N322 2.008 1_554 S
Co323 N324 1.995 1_554 S
Co323 N329 2.008 . S
Co323 N334 1.995 . S
Co323 N339 2.282 . S
Co323 N345 2.282 1_554 S
N324 Co323 1.995 1_556 S
N324 C325 1.376 . S
N324 C328 1.383 1_556 S
C325 N324 1.376 . S
C325 C326 1.446 . S
C325 C355 1.391 . S
C326 C325 1.446 . S
C326 C327 1.339 1_556 S
C326 H361 0.949 . S
C327 C326 1.339 1_554 S
C327 C328 1.439 . S
C327 H362 0.950 . S
C328 N324 1.383 1_554 S
C328 C327 1.439 . S
C328 C357 1.392 . S
N329 Co323 2.008 . S
N329 C330 1.376 . S
N329 C333 1.374 . S
C330 N329 1.376 . S
C330 C331 1.443 . S
C330 C357 1.389 . S
C331 C330 1.443 . S
C331 C332 1.340 . S
C331 H363 0.951 . S
C332 C331 1.340 . S
C332 C333 1.439 . S
C332 H364 0.950 . S
C333 N329 1.374 . S
C333 C332 1.439 . S
C333 C358 1.395 . S
N334 Co323 1.995 . S
N334 C335 1.376 . S
N334 C338 1.383 1_554 S
C335 N334 1.376 . S
C335 C336 1.446 . S
C335 C358 1.391 . S
C336 C335 1.446 . S
C336 C337 1.339 1_554 S
C336 H365 0.949 . S
C337 C336 1.339 1_556 S
C337 C338 1.439 . S
C337 H366 0.950 . S
C338 N334 1.383 1_556 S
C338 C337 1.439 . S
C338 C356 1.392 . S
N339 Co323 2.282 . S
N339 C342 1.332 . S
N339 C344 1.332 . S
C340 C341 1.386 . S
C340 C343 1.388 . S
C341 C340 1.386 . S
C341 C342 1.382 . S
C341 H367 0.950 . S
C342 N339 1.332 . S
C342 C341 1.382 . S
C342 H353 0.952 . S
C343 C340 1.388 . S
C343 C344 1.382 . S
C343 H368 0.950 . S
C344 N339 1.332 . S
C344 C343 1.382 . S
C344 H354 0.948 . S
N345 Co323 2.282 1_556 S
N345 C349 1.332 . S
N345 C350 1.332 . S
C346 C347 1.388 . S
C346 C350 1.382 . S
C346 H369 0.950 . S
C347 C346 1.388 . S
C347 C348 1.386 . S
C348 C347 1.386 . S
C348 C349 1.382 . S
C348 H370 0.950 . S
C349 N345 1.332 . S
C349 C348 1.382 . S
C349 H351 0.952 . S
C350 N345 1.332 . S
C350 C346 1.382 . S
C350 H352 0.948 . S
H351 C349 0.952 . S
H352 C350 0.948 . S
H353 C342 0.952 . S
H354 C344 0.948 . S
C355 C321 1.395 . S
C355 C325 1.391 . S
C356 C318 1.389 . S
C356 C338 1.392 . S
C357 C328 1.392 . S
C357 C330 1.389 . S
C358 C333 1.395 . S
C358 C335 1.391 . S
H359 C319 0.951 . S
H360 C320 0.950 . S
H361 C326 0.949 . S
H362 C327 0.950 . S
H363 C331 0.951 . S
H364 C332 0.950 . S
H365 C336 0.949 . S
H366 C337 0.950 . S
H367 C341 0.950 . S
H368 C343 0.950 . S
H369 C346 0.950 . S
H370 C348 0.950 . S
C371 C372 1.443 . S
C371 N375 1.376 . S
C371 C409 1.389 . S
C372 C371 1.443 . S
C372 C373 1.340 . S
C372 H412 0.951 . S
C373 C372 1.340 . S
C373 C374 1.439 . S
C373 H413 0.950 . S
C374 C373 1.439 . S
C374 N375 1.374 . S
C374 C408 1.410 . S
N375 C371 1.376 . S
N375 C374 1.374 . S
N375 Co376 2.009 . S
Co376 N375 2.009 . S
Co376 N377 1.993 1_455 S
Co376 N382 2.007 1_455 S
Co376 N387 1.996 . S
Co376 N392 2.285 . S
Co376 N398 2.280 1_455 S
N377 Co376 1.993 1_655 S
N377 C378 1.376 . S
N377 C381 1.383 . S
C378 N377 1.376 . S
C378 C379 1.446 . S
C378 C408 1.379 1_655 S
C379 C378 1.446 . S
C379 C380 1.339 . S
C379 H414 0.949 . S
C380 C379 1.339 . S
C380 C381 1.439 . S
C380 H415 0.950 . S
C381 N377 1.383 . S
C381 C380 1.439 . S
C381 C410 1.392 . S
N382 Co376 2.007 1_655 S
N382 C383 1.376 . S
N382 C386 1.374 . S
C383 N382 1.376 . S
C383 C384 1.443 . S
C383 C410 1.389 . S
C384 C383 1.443 . S
C384 C385 1.340 . S
C384 H416 0.951 . S
C385 C384 1.340 . S
C385 C386 1.439 . S
C385 H417 0.950 . S
C386 N382 1.374 . S
C386 C385 1.439 . S
C386 C411 1.402 . S
N387 Co376 1.996 . S
N387 C388 1.376 . S
N387 C391 1.383 . S
C388 N387 1.376 . S
C388 C389 1.446 . S
C388 C411 1.386 1_455 S
C389 C388 1.446 . S
C389 C390 1.339 . S
C389 H418 0.949 . S
C390 C389 1.339 . S
C390 C391 1.439 . S
C390 H419 0.950 . S
C391 N387 1.383 . S
C391 C390 1.439 . S
C391 C409 1.392 . S
N392 Co376 2.285 . S
N392 C395 1.332 . S
N392 C397 1.332 . S
C393 C394 1.386 . S
C393 C396 1.388 . S
C394 C393 1.386 . S
C394 C395 1.382 . S
C394 H420 0.950 . S
C395 N392 1.332 . S
C395 C394 1.382 . S
C395 H406 0.952 . S
C396 C393 1.388 . S
C396 C397 1.382 . S
C396 H421 0.950 . S
C397 N392 1.332 . S
C397 C396 1.382 . S
C397 H407 0.948 . S
N398 Co376 2.280 1_655 S
N398 C402 1.332 . S
N398 C403 1.332 . S
C399 C400 1.388 . S
C399 C403 1.382 . S
C399 H422 0.950 . S
C400 C399 1.388 . S
C400 C401 1.386 . S
C401 C400 1.386 . S
C401 C402 1.382 . S
C401 H423 0.950 . S
C402 N398 1.332 . S
C402 C401 1.382 . S
C402 H404 0.952 . S
C403 N398 1.332 . S
C403 C399 1.382 . S
C403 H405 0.948 . S
H404 C402 0.952 . S
H405 C403 0.948 . S
H406 C395 0.952 . S
H407 C397 0.948 . S
C408 C374 1.410 . S
C408 C378 1.379 1_455 S
C409 C371 1.389 . S
C409 C391 1.392 . S
C410 C381 1.392 . S
C410 C383 1.389 . S
C411 C386 1.402 . S
C411 C388 1.386 1_655 S
H412 C372 0.951 . S
H413 C373 0.950 . S
H414 C379 0.949 . S
H415 C380 0.950 . S
H416 C384 0.951 . S
H417 C385 0.950 . S
H418 C389 0.949 . S
H419 C390 0.950 . S
H420 C394 0.950 . S
H421 C396 0.950 . S
H422 C399 0.950 . S
H423 C401 0.950 . S
C424 C425 1.387 . S
C424 H428 0.950 . S
C424 C433 1.390 . S
C425 C424 1.387 . S
C425 C427 1.387 . S
H426 C433 0.950 . S
C427 C425 1.387 . S
C427 C429 1.390 . S
C427 H431 0.950 . S
H428 C424 0.950 . S
C429 C427 1.390 . S
C429 C430 1.387 . S
C429 H432 0.950 . S
C430 C429 1.387 . S
C430 C433 1.387 . S
H431 C427 0.950 . S
H432 C429 0.950 . S
C433 C424 1.390 . S
C433 H426 0.950 . S
C433 C430 1.387 . S
C434 C435 1.387 . S
C434 H438 0.950 . S
C434 C443 1.390 . S
C435 C434 1.387 . S
C435 C437 1.387 . S
H436 C443 0.950 . S
C437 C435 1.387 . S
C437 C439 1.390 . S
C437 H441 0.950 . S
H438 C434 0.950 . S
C439 C437 1.390 . S
C439 C440 1.387 . S
C439 H442 0.950 . S
C440 C439 1.387 . S
C440 C443 1.387 . S
H441 C437 0.950 . S
H442 C439 0.950 . S
C443 C434 1.390 . S
C443 H436 0.950 . S
C443 C440 1.387 . S
C444 C445 1.387 . S
C444 H448 0.950 . S
C444 C453 1.390 . S
C445 C444 1.387 . S
C445 C447 1.387 . S
H446 C453 0.950 . S
C447 C445 1.387 . S
C447 C449 1.390 . S
C447 H451 0.950 . S
H448 C444 0.950 . S
C449 C447 1.390 . S
C449 C450 1.387 . S
C449 H452 0.950 . S
C450 C449 1.387 . S
C450 C453 1.387 . S
H451 C447 0.950 . S
H452 C449 0.950 . S
C453 C444 1.390 . S
C453 H446 0.950 . S
C453 C450 1.387 . S
C454 C455 1.387 . S
C454 H458 0.950 . S
C454 C463 1.390 . S
C455 C454 1.387 . S
C455 C457 1.387 . S
H456 C463 0.950 . S
C457 C455 1.387 . S
C457 C459 1.390 . S
C457 H461 0.950 . S
H458 C454 0.950 . S
C459 C457 1.390 . S
C459 C460 1.387 . S
C459 H462 0.950 . S
C460 C459 1.387 . S
C460 C463 1.387 . S
H461 C457 0.950 . S
H462 C459 0.950 . S
C463 C454 1.390 . S
C463 H456 0.950 . S
C463 C460 1.387 . S
C464 C465 1.387 . S
C464 H468 0.950 . S
C464 C473 1.390 . S
C465 C464 1.387 . S
C465 C467 1.387 . S
H466 C473 0.950 . S
C467 C465 1.387 . S
C467 C469 1.390 . S
C467 H471 0.950 . S
H468 C464 0.950 . S
C469 C467 1.390 . S
C469 C470 1.387 . S
C469 H472 0.950 . S
C470 C469 1.387 . S
C470 C473 1.387 . S
H471 C467 0.950 . S
H472 C469 0.950 . S
C473 C464 1.390 . S
C473 H466 0.950 . S
C473 C470 1.387 . S
C474 C475 1.387 . S
C474 H478 0.950 . S
C474 C483 1.390 . S
C475 C474 1.387 . S
C475 C477 1.387 . S
H476 C483 0.950 . S
C477 C475 1.387 . S
C477 C479 1.390 . S
C477 H481 0.950 . S
H478 C474 0.950 . S
C479 C477 1.390 . S
C479 C480 1.387 . S
C479 H482 0.950 . S
C480 C479 1.387 . S
C480 C483 1.387 . S
H481 C477 0.950 . S
H482 C479 0.950 . S
C483 C474 1.390 . S
C483 H476 0.950 . S
C483 C480 1.387 . S
C484 C485 1.387 . S
C484 H488 0.950 . S
C484 C493 1.390 . S
C485 C484 1.387 . S
C485 C487 1.387 . S
H486 C493 0.950 . S
C487 C485 1.387 . S
C487 C489 1.390 . S
C487 H491 0.950 . S
H488 C484 0.950 . S
C489 C487 1.390 . S
C489 C490 1.387 . S
C489 H492 0.950 . S
C490 C489 1.387 . S
C490 C493 1.387 . S
H491 C487 0.950 . S
H492 C489 0.950 . S
C493 C484 1.390 . S
C493 H486 0.950 . S
C493 C490 1.387 . S
C494 C495 1.387 . S
C494 H498 0.950 . S
C494 C503 1.390 . S
C495 C494 1.387 . S
C495 C497 1.387 . S
H496 C503 0.950 . S
C497 C495 1.387 . S
C497 C499 1.390 . S
C497 H501 0.950 . S
H498 C494 0.950 . S
C499 C497 1.390 . S
C499 C500 1.387 . S
C499 H502 0.950 . S
C500 C499 1.387 . S
C500 C503 1.387 . S
H501 C497 0.950 . S
H502 C499 0.950 . S
C503 C494 1.390 . S
C503 H496 0.950 . S
C503 C500 1.387 . S
C504 C505 1.387 . S
C504 H508 0.950 . S
C504 C513 1.390 . S
C505 C504 1.387 . S
C505 C507 1.387 . S
H506 C513 0.950 . S
C507 C505 1.387 . S
C507 C509 1.390 . S
C507 H511 0.950 . S
H508 C504 0.950 . S
C509 C507 1.390 . S
C509 C510 1.387 . S
C509 H512 0.950 . S
C510 C509 1.387 . S
C510 C513 1.387 . S
H511 C507 0.950 . S
H512 C509 0.950 . S
C513 C504 1.390 . S
C513 H506 0.950 . S
C513 C510 1.387 . S
C514 C515 1.387 . S
C514 H518 0.950 . S
C514 C523 1.390 . S
C515 C514 1.387 . S
C515 C517 1.387 . S
H516 C523 0.950 . S
C517 C515 1.387 . S
C517 C519 1.390 . S
C517 H521 0.950 . S
H518 C514 0.950 . S
C519 C517 1.390 . S
C519 C520 1.387 . S
C519 H522 0.950 . S
C520 C519 1.387 . S
C520 C523 1.387 . S
H521 C517 0.950 . S
H522 C519 0.950 . S
C523 C514 1.390 . S
C523 H516 0.950 . S
C523 C520 1.387 . S
C524 C525 1.387 . S
C524 H528 0.950 . S
C524 C533 1.390 . S
C525 C524 1.387 . S
C525 C527 1.387 . S
H526 C533 0.950 . S
C527 C525 1.387 . S
C527 C529 1.390 . S
C527 H531 0.950 . S
H528 C524 0.950 . S
C529 C527 1.390 . S
C529 C530 1.387 . S
C529 H532 0.950 . S
C530 C529 1.387 . S
C530 C533 1.387 . S
H531 C527 0.950 . S
H532 C529 0.950 . S
C533 C524 1.390 . S
C533 H526 0.950 . S
C533 C530 1.387 . S
C534 C535 1.387 . S
C534 H538 0.950 . S
C534 C543 1.390 . S
C535 C534 1.387 . S
C535 C537 1.387 . S
H536 C543 0.950 . S
C537 C535 1.387 . S
C537 C539 1.390 . S
C537 H541 0.950 . S
H538 C534 0.950 . S
C539 C537 1.390 . S
C539 C540 1.387 . S
C539 H542 0.950 . S
C540 C539 1.387 . S
C540 C543 1.387 . S
H541 C537 0.950 . S
H542 C539 0.950 . S
C543 C534 1.390 . S
C543 H536 0.950 . S
C543 C540 1.387 . S
C544 C545 1.387 . S
C544 H548 0.950 . S
C544 C553 1.390 . S
C545 C544 1.387 . S
C545 C547 1.387 . S
H546 C553 0.950 . S
C547 C545 1.387 . S
C547 C549 1.390 . S
C547 H551 0.950 . S
H548 C544 0.950 . S
C549 C547 1.390 . S
C549 C550 1.387 . S
C549 H552 0.950 . S
C550 C549 1.387 . S
C550 C553 1.387 . S
H551 C547 0.950 . S
H552 C549 0.950 . S
C553 C544 1.390 . S
C553 H546 0.950 . S
C553 C550 1.387 . S
C554 C555 1.387 . S
C554 H558 0.950 . S
C554 C563 1.390 . S
C555 C554 1.387 . S
C555 C557 1.387 . S
H556 C563 0.950 . S
C557 C555 1.387 . S
C557 C559 1.390 . S
C557 H561 0.950 . S
H558 C554 0.950 . S
C559 C557 1.390 . S
C559 C560 1.387 . S
C559 H562 0.950 . S
C560 C559 1.387 . S
C560 C563 1.387 . S
H561 C557 0.950 . S
H562 C559 0.950 . S
C563 C554 1.390 . S
C563 H556 0.950 . S
C563 C560 1.387 . S
C564 C565 1.387 . S
C564 H568 0.950 . S
C564 C573 1.390 . S
C565 C564 1.387 . S
C565 C567 1.387 . S
H566 C573 0.950 . S
C567 C565 1.387 . S
C567 C569 1.390 . S
C567 H571 0.950 . S
H568 C564 0.950 . S
C569 C567 1.390 . S
C569 C570 1.387 . S
C569 H572 0.950 . S
C570 C569 1.387 . S
C570 C573 1.387 . S
H571 C567 0.950 . S
H572 C569 0.950 . S
C573 C564 1.390 . S
C573 H566 0.950 . S
C573 C570 1.387 . S
C574 C575 1.387 . S
C574 H578 0.950 . S
C574 C583 1.390 . S
C575 C574 1.387 . S
C575 C577 1.387 . S
H576 C583 0.950 . S
C577 C575 1.387 . S
C577 C579 1.390 . S
C577 H581 0.950 . S
H578 C574 0.950 . S
C579 C577 1.390 . S
C579 C580 1.387 . S
C579 H582 0.950 . S
C580 C579 1.387 . S
C580 C583 1.387 . S
H581 C577 0.950 . S
H582 C579 0.950 . S
C583 C574 1.390 . S
C583 H576 0.950 . S
C583 C580 1.387 . S
C425 C22 1.576 . S
C430 C198 1.581 . S
C435 C38 1.608 . S
C440 C91 1.605 . S
C445 C128 1.402 . S
C450 C75 1.399 . S
C455 C188 1.471 . S
C460 C144 1.472 . S
C465 C29 1.577 . S
C470 C304 1.580 . S
C475 C39 1.609 . S
C480 C250 1.605 . S
C485 C234 1.399 . S
C490 C135 1.401 . S
C495 C145 1.472 . S
C500 C294 1.470 . S
C505 C347 1.526 . S
C510 C303 1.527 . S
C515 C251 1.650 . S
C520 C357 1.645 . S
C525 C241 1.537 . S
C530 C410 1.538 . S
C535 C287 1.341 . S
C540 C400 1.342 . S
C545 C340 1.526 . S
C550 C197 1.527 . S
C555 C92 1.649 . S
C560 C356 1.645 . S
C565 C82 1.536 . S
C570 C409 1.538 . S
C575 C181 1.341 . S
C580 C393 1.342 . S
