# Generated by pormake.
# Topology ilc, (8)-cn, num edge types: 1
# Building blocks:
#     Node 0, Type 0, BuildingBlock: XADDAJ01_clean_sbu_3, # of connection points: 8
#     Node 1, Type 0, BuildingBlock: XADDAJ01_clean_sbu_3, # of connection points: 8
#     Node 2, Type 0, BuildingBlock: XADDAJ01_clean_sbu_3, # of connection points: 8
#     Edge 3, Type (0, 0), BuildingBlock: UVAHIK_clean_linker_0, # of connection points: 2
#     Edge 4, Type (0, 0), BuildingBlock: UVAHIK_clean_linker_0, # of connection points: 2
#     Edge 5, Type (0, 0), BuildingBlock: UVAHIK_clean_linker_0, # of connection points: 2
#     Edge 6, Type (0, 0), BuildingBlock: UVAHIK_clean_linker_0, # of connection points: 2
#     Edge 7, Type (0, 0), BuildingBlock: UVAHIK_clean_linker_0, # of connection points: 2
#     Edge 8, Type (0, 0), BuildingBlock: UVAHIK_clean_linker_0, # of connection points: 2
#     Edge 9, Type (0, 0), BuildingBlock: UVAHIK_clean_linker_0, # of connection points: 2
#     Edge 10, Type (0, 0), BuildingBlock: UVAHIK_clean_linker_0, # of connection points: 2
#     Edge 11, Type (0, 0), BuildingBlock: UVAHIK_clean_linker_0, # of connection points: 2
#     Edge 12, Type (0, 0), BuildingBlock: UVAHIK_clean_linker_0, # of connection points: 2
#     Edge 13, Type (0, 0), BuildingBlock: UVAHIK_clean_linker_0, # of connection points: 2
#     Edge 14, Type (0, 0), BuildingBlock: UVAHIK_clean_linker_0, # of connection points: 2
# Relax obj value: 0.143
# Max RMSD: 0.200
# Mean RMSD: 0.200
data_MOF--net-ilc--node1-XADDAJ01_clean_sbu_3--edge1-UVAHIK_clean_linker_0
_symmetry_space_group_name_H-M    P1
_symmetry_Int_Tables_number       1
_symmetry_cell_setting            triclinic
loop_
_symmetry_equiv_pos_as_xyz
'x, y, z'
_cell_length_a     27.139845
_cell_length_b     38.102501
_cell_length_c     23.901487
_cell_angle_alpha  100.59472
_cell_angle_beta   76.945008
_cell_angle_gamma 141.06248
loop_
_atom_site_label
_atom_site_type_symbol
_atom_site_fract_x
_atom_site_fract_y
_atom_site_fract_z
_atom_type_partial_charge
C0 C 0.14242 0.02022 0.16313 0.0
C1 C 0.11831 0.03123 0.21422 0.0
C2 C 0.11593 1.01938 0.26771 0.0
C3 C 0.14262 0.99948 0.26909 0.0
C4 C 0.16821 0.98938 0.21863 0.0
C5 C 0.16721 0.99908 0.16531 0.0
O6 O 1.00231 1.01683 0.04129 0.0
Tb7 Tb 0.11246 0.07192 0.07635 0.0
Tb8 Tb 0.98006 0.97982 0.91968 0.0
O9 O 0.11965 0.12183 0.14416 0.0
O10 O 0.90834 0.93346 0.99894 0.0
O11 O 0.19387 0.07932 0.08984 0.0
C12 C 0.95791 0.029 0.90042 0.0
O13 O 0.06619 0.99986 0.10131 0.0
O14 O 0.08838 0.03038 0.95387 0.0
O15 O 0.18406 0.11442 0.99434 0.0
C16 C 0.1367 0.02754 0.10772 0.0
C17 C 0.93881 0.88208 0.86681 0.0
O18 O 0.94516 0.88157 0.91948 0.0
C19 C 0.93805 0.96223 0.04656 0.0
C20 C 0.15369 0.08437 0.94727 0.0
O21 O 0.94857 0.91942 0.85386 0.0
C22 C 0.90926 1.01637 0.86319 0.0
C23 C 0.86741 0.04208 0.82031 0.0
C24 C 0.91419 0.055 0.85665 0.0
C25 C 0.85858 0.96536 0.83294 0.0
C26 C 0.81466 0.95316 0.79435 0.0
C27 C 0.81778 0.99115 0.78995 0.0
C28 C 0.13136 0.15996 0.13049 0.0
O29 O 0.13888 0.16683 0.07603 0.0
O30 O 0.91687 0.99331 0.94212 0.0
O31 O 1.01812 0.04131 0.87408 0.0
H32 H 0.09851 0.04692 0.21189 0.0
H33 H 0.1382 0.98751 0.3094 0.0
H34 H 0.18398 0.98921 0.12598 0.0
H35 H 0.95452 0.09489 0.87916 0.0
H36 H 0.85658 0.93646 0.83746 0.0
H37 H 0.7875 0.98398 0.7584 0.0
C38 C 0.85979 0.3774 0.47765 0.0
C39 C 0.90441 0.42767 0.50913 0.0
C40 C 0.94892 0.4427 0.54952 0.0
C41 C 0.95042 0.40776 0.55646 0.0
C42 C 0.9055 0.35716 0.52598 0.0
C43 C 0.85966 0.34186 0.48655 0.0
O44 O 0.67854 0.35322 0.37349 0.0
Tb45 Tb 0.78843 0.40705 0.40713 0.0
Tb46 Tb 0.64222 0.30975 0.25961 0.0
O47 O 0.82458 0.4721 0.46728 0.0
O48 O 0.56975 0.26991 0.34192 0.0
O49 O 0.85606 0.39738 0.39298 0.0
C50 C 0.63764 0.36665 0.22878 0.0
O51 O 0.75002 0.3476 0.45711 0.0
O52 O 0.75528 0.35788 0.28392 0.0
O53 O 0.85227 0.44413 0.32247 0.0
C54 C 0.81341 0.36238 0.43572 0.0
C55 C 0.6064 0.21406 0.20527 0.0
O56 O 0.58595 0.2014 0.25979 0.0
C57 C 0.60824 0.30149 0.38607 0.0
C58 C 0.82024 0.41202 0.27655 0.0
O59 O 0.63251 0.25873 0.19154 0.0
C60 C 0.66595 0.39978 0.1801 0.0
C61 C 0.66027 0.44761 0.1324 0.0
C62 C 0.62899 0.41143 0.17509 0.0
C63 C 0.73248 0.42289 0.1408 0.0
C64 C 0.76403 0.45941 0.09843 0.0
C65 C 0.72781 0.47167 0.09498 0.0
C66 C 0.853 0.51645 0.44913 0.0
O67 O 0.86088 0.52144 0.3939 0.0
O68 O 0.58225 0.31214 0.22138 0.0
O69 O 0.69262 0.38733 0.25678 0.0
H70 H 0.90263 0.45422 0.50328 0.0
H71 H 0.98132 0.41744 0.58955 0.0
H72 H 0.82381 0.30246 0.46325 0.0
H73 H 0.57713 0.39324 0.20471 0.0
H74 H 0.75998 0.41307 0.1436 0.0
H75 H 0.75024 0.49833 0.06103 0.0
C76 C 0.44895 0.66123 0.81267 0.0
C77 C 0.38317 0.63821 0.85299 0.0
C78 C 0.35468 0.60358 0.89637 0.0
C79 C 0.39335 0.5933 0.89995 0.0
C80 C 0.46017 0.6173 0.86145 0.0
C81 C 0.4883 0.65147 0.81767 0.0
O82 O 0.34972 0.69806 0.71413 0.0
Tb83 Tb 0.4664 0.74698 0.73128 0.0
Tb84 Tb 0.30682 0.64398 0.59063 0.0
O85 O 0.48665 0.80374 0.79682 0.0
O86 O 0.25102 0.6107 0.6773 0.0
O87 O 0.52974 0.74666 0.76769 0.0
C88 C 0.27783 0.68657 0.56408 0.0
O89 O 0.41647 0.66985 0.73676 0.0
O90 O 0.41879 0.69906 0.62087 0.0
O91 O 0.53238 0.78225 0.64657 0.0
C92 C 0.47374 0.69195 0.76286 0.0
C93 C 0.23625 0.53247 0.54947 0.0
O94 O 0.22662 0.52696 0.60487 0.0
C95 C 0.28579 0.64386 0.72225 0.0
C96 C 0.48964 0.74922 0.60473 0.0
O97 O 0.26853 0.57812 0.53087 0.0
C98 C 0.23105 0.67084 0.522 0.0
C99 C 0.18193 0.68889 0.47438 0.0
C100 C 0.22655 0.7041 0.51505 0.0
C101 C 0.1912 0.6224 0.48815 0.0
C102 C 0.14764 0.60725 0.44678 0.0
C103 C 0.14251 0.64031 0.441 0.0
C104 C 0.52737 0.85323 0.78188 0.0
O105 O 0.55501 0.86701 0.72748 0.0
O106 O 0.2359 0.65092 0.60607 0.0
O107 O 0.34291 0.70342 0.54268 0.0
H108 H 0.35362 0.64639 0.85006 0.0
H109 H 0.373 0.5679 0.93448 0.0
H110 H 0.53942 0.66941 0.78712 0.0
H111 H 0.25813 0.74181 0.5408 0.0
H112 H 0.19608 0.59747 0.49293 0.0
H113 H 0.11289 0.63075 0.40689 0.0
C114 C 0.72111 0.88695 0.72125 0.0
C115 C 0.78181 0.90935 0.749 0.0
C116 C 0.71901 0.87221 0.66317 0.0
C117 C 0.81325 0.92719 0.54868 0.0
H118 H 0.90499 0.88795 0.46292 0.0
C119 C 0.09321 0.02454 0.37505 0.0
C120 C 0.0739 1.01813 0.3212 0.0
C121 C 0.03801 1.00305 0.42401 0.0
C122 C 0.87876 0.89868 0.48626 0.0
H123 H 0.87281 0.91859 0.74216 0.0
H124 H 0.86553 0.88976 0.64336 0.0
H125 H 0.81756 0.84051 0.55273 0.0
H126 H 0.9884 0.99514 0.27929 0.0
H127 H 0.89647 0.96399 0.3669 0.0
H128 H 0.87769 0.98714 0.4829 0.0
C129 C 0.82247 0.88656 0.66472 0.0
C130 C 0.82832 0.87126 0.53722 0.0
C131 C 0.82649 0.90312 0.72216 0.0
C132 C 1.00481 0.99971 0.31954 0.0
C133 C 0.95122 0.98072 0.36935 0.0
C134 C 0.86309 0.95418 0.4972 0.0
C135 C 0.7746 0.8768 0.6333 0.0
C136 C 0.79934 0.88787 0.57089 0.0
C137 C 0.96457 0.97765 0.42044 0.0
C138 C 0.8998 0.94237 0.46775 0.0
H139 H 0.68279 0.88838 0.7418 0.0
H140 H 0.68083 0.86404 0.64026 0.0
H141 H 0.79211 0.94119 0.57359 0.0
H142 H 0.14795 0.0416 0.37869 0.0
H143 H 0.05072 1.00321 0.46398 0.0
C144 C 0.93321 0.49073 0.62156 0.0
C145 C 0.98139 0.48802 0.59245 0.0
C146 C 0.94687 0.51573 0.67599 0.0
C147 C 1.00479 0.51563 0.79534 0.0
H148 H 0.9492 0.5807 0.87781 0.0
C149 C 0.89051 0.53785 0.03788 0.0
C150 C 0.82989 0.48156 0.05349 0.0
C151 C 0.93756 0.55543 0.9847 0.0
C152 C 0.96658 0.5635 0.85571 0.0
H153 H 0.08996 0.5185 0.59228 0.0
H154 H 0.11161 0.56022 0.68835 0.0
H155 H 0.98622 0.59077 0.77387 0.0
H156 H 0.77649 0.4009 0.02911 0.0
H157 H 0.85878 0.4313 0.93642 0.0
H158 H 0.97998 0.48499 0.8761 0.0
C159 C 0.06323 0.5426 0.66934 0.0
C160 C 0.98735 0.5691 0.79612 0.0
C161 C 0.05048 0.51851 0.61456 0.0
C162 C 0.823 0.44454 0.01807 0.0
C163 C 0.87011 0.46209 0.96479 0.0
C164 C 0.98322 0.50951 0.85467 0.0
C165 C 1.00853 0.53799 0.70198 0.0
C166 C 1.00454 0.54389 0.76525 0.0
C167 C 0.92508 0.51704 0.94633 0.0
C168 C 0.96176 0.53202 0.88539 0.0
H169 H 0.87971 0.46795 0.60568 0.0
H170 H 0.90377 0.51171 0.70015 0.0
H171 H 1.0162 0.49474 0.77257 0.0
H172 H 0.89753 0.56733 0.06504 0.0
H173 H 0.9811 0.59842 0.97255 0.0
C174 C 0.22888 0.52431 0.95662 0.0
C175 C 0.28858 0.58064 0.94151 0.0
C176 C 0.18111 0.50591 0.00955 0.0
C177 C 0.14865 0.49574 0.13843 0.0
H178 H 0.09371 0.56116 0.22128 0.0
C179 C 0.17137 0.56418 0.37395 0.0
C180 C 0.11974 0.56396 0.40224 0.0
C181 C 0.16091 0.54049 0.31909 0.0
C182 C 0.10655 0.54117 0.19847 0.0
H183 H 0.34007 0.66058 0.96665 0.0
H184 H 0.25659 0.62877 0.05907 0.0
H185 H 0.1342 0.57367 0.11816 0.0
H186 H 1.00876 0.52974 0.4003 0.0
H187 H 0.99235 0.49002 0.30349 0.0
H188 H 0.12621 0.46673 0.22005 0.0
C189 C 0.24642 0.59855 0.03041 0.0
C190 C 0.13065 0.5489 0.13942 0.0
C191 C 0.2942 0.61691 0.97733 0.0
C192 C 0.05083 0.53202 0.37866 0.0
C193 C 0.0411 0.50908 0.32349 0.0
C194 C 0.12539 0.48856 0.19776 0.0
C195 C 0.19204 0.54352 0.04827 0.0
C196 C 0.15387 0.5275 0.10886 0.0
C197 C 0.09903 0.51661 0.29184 0.0
C198 C 0.10596 0.51239 0.22846 0.0
H199 H 0.223 0.49545 0.92918 0.0
H200 H 0.13808 0.46287 0.0212 0.0
H201 H 0.16742 0.47942 0.11652 0.0
H202 H 0.22482 0.58811 0.39096 0.0
H203 H 0.20638 0.54671 0.29566 0.0
C204 C 0.25334 0.7831 0.45262 0.0
C205 C 0.18211 0.72563 0.46106 0.0
C206 C 0.25589 0.81526 0.42813 0.0
C207 C 0.12772 0.81173 0.38453 0.0
H208 H 0.31018 0.91898 0.27147 0.0
C209 C 0.12412 0.90348 0.22305 0.0
C210 C 0.18556 0.96199 0.22432 0.0
C211 C 0.12889 0.87576 0.24771 0.0
C212 C 0.259 0.88922 0.30299 0.0
H213 H 0.05658 0.65788 0.45498 0.0
H214 H 0.06108 0.71302 0.41104 0.0
H215 H 0.30696 0.87063 0.32956 0.0
H216 H 0.30156 0.03763 0.24934 0.0
H217 H 0.31152 0.9892 0.29053 0.0
H218 H 0.07904 0.82931 0.35652 0.0
C219 C 0.11518 0.73384 0.42347 0.0
C220 C 0.25732 0.86186 0.33679 0.0
C221 C 0.11258 0.70195 0.44834 0.0
C222 C 0.25439 0.99246 0.24667 0.0
C223 C 0.25969 0.96475 0.27062 0.0
C224 C 0.12896 0.83842 0.35016 0.0
C225 C 0.18734 0.79059 0.41129 0.0
C226 C 0.19145 0.8225 0.37791 0.0
C227 C 0.19546 0.90616 0.27368 0.0
C228 C 0.19436 0.87719 0.30882 0.0
H229 H 0.30799 0.80259 0.4618 0.0
H230 H 0.31216 0.85912 0.42083 0.0
H231 H 0.0767 0.78271 0.41644 0.0
H232 H 0.0698 0.87924 0.20726 0.0
H233 H 0.07887 0.83056 0.24902 0.0
C234 C 0.22134 0.49349 0.44935 0.0
C235 C 0.21497 0.48922 0.50835 0.0
C236 C 0.20512 0.45417 0.41023 0.0
C237 C 0.1979 0.35205 0.39406 0.0
H238 H 0.09221 0.30037 0.26236 0.0
C239 C 0.12356 0.18571 0.23395 0.0
C240 C 0.13609 0.19475 0.17536 0.0
C241 C 0.12821 0.21881 0.27603 0.0
C242 C 0.12246 0.31477 0.29864 0.0
H243 H 0.18416 0.43927 0.57271 0.0
H244 H 0.15528 0.37053 0.50458 0.0
H245 H 0.10768 0.36253 0.33313 0.0
H246 H 0.16358 0.24583 0.11506 0.0
H247 H 0.17278 0.30385 0.18815 0.0
H248 H 0.21358 0.30489 0.35929 0.0
C249 C 0.17413 0.40479 0.48839 0.0
C250 C 0.13127 0.35039 0.33924 0.0
C251 C 0.19028 0.44407 0.5275 0.0
C252 C 0.15325 0.23754 0.1598 0.0
C253 C 0.15801 0.27062 0.20179 0.0
C254 C 0.18917 0.31648 0.35344 0.0
C255 C 0.18225 0.40971 0.42921 0.0
C256 C 0.16961 0.36981 0.38725 0.0
C257 C 0.14555 0.26173 0.26045 0.0
C258 C 0.1519 0.29773 0.30496 0.0
H259 H 0.23994 0.52766 0.43317 0.0
H260 H 0.21266 0.45954 0.36492 0.0
H261 H 0.2288 0.36685 0.43004 0.0
H262 H 0.10988 0.15293 0.24741 0.0
H263 H 0.1174 0.21037 0.3208 0.0
C264 C 0.59777 0.82261 0.53139 0.0
C265 C 0.52317 0.76679 0.544 0.0
C266 C 0.63727 0.83824 0.47538 0.0
C267 C 0.61717 0.80459 0.32367 0.0
H268 H 0.83067 0.88375 0.30701 0.0
C269 C 0.82217 0.8763 0.10537 0.0
C270 C 0.89335 0.93451 0.10304 0.0
C271 C 0.77334 0.85033 0.15754 0.0
C272 C 0.77169 0.86259 0.3115 0.0
H273 H 0.42973 0.68409 0.50704 0.0
H274 H 0.49792 0.71213 0.40815 0.0
H275 H 0.75059 0.85085 0.40188 0.0
H276 H 0.96938 1.01079 0.15407 0.0
H277 H 0.88418 0.96508 0.24539 0.0
H278 H 0.63981 0.8182 0.23335 0.0
C279 C 0.52596 0.74344 0.44216 0.0
C280 C 0.72568 0.84335 0.36538 0.0
C281 C 0.4868 0.72751 0.49864 0.0
C282 C 0.91574 0.96589 0.15441 0.0
C283 C 0.8671 0.93977 0.20665 0.0
C284 C 0.66393 0.82474 0.2698 0.0
C285 C 0.6026 0.79864 0.43041 0.0
C286 C 0.64848 0.81508 0.37222 0.0
C287 C 0.79513 0.88189 0.20857 0.0
C288 C 0.74234 0.85519 0.2637 0.0
H289 H 0.62697 0.8541 0.5651 0.0
H290 H 0.69568 0.8813 0.46729 0.0
H291 H 0.55772 0.78271 0.3278 0.0
H292 H 0.80284 0.85085 0.06657 0.0
H293 H 0.71824 0.80565 0.15797 0.0
C294 C 0.82756 0.26539 0.56277 0.0
C295 C 0.9008 0.31873 0.54194 0.0
C296 C 0.82443 0.23483 0.5918 0.0
C297 C 0.94264 0.22624 0.62366 0.0
H298 H 0.80167 0.16429 0.76768 0.0
C299 C 0.95029 0.13563 0.78467 0.0
C300 C 0.87605 0.0832 0.80654 0.0
C301 C 0.95577 0.16801 0.75673 0.0
C302 C 0.84098 0.18097 0.72746 0.0
H303 H 1.02762 0.38021 0.53112 0.0
H304 H 1.02244 0.32685 0.58126 0.0
H305 H 0.80294 0.20797 0.70363 0.0
H306 H 0.75021 0.0255 0.82063 0.0
H307 H 0.75937 0.08151 0.77191 0.0
H308 H 0.98023 0.19885 0.64718 0.0
C309 C 0.9674 0.3085 0.57545 0.0
C310 C 0.84139 0.20577 0.69055 0.0
C311 C 0.97048 0.33909 0.54675 0.0
C312 C 0.80815 0.06584 0.80412 0.0
C313 C 0.81354 0.09805 0.77622 0.0
C314 C 0.94202 0.20125 0.66048 0.0
C315 C 0.89447 0.25694 0.6002 0.0
C316 C 0.89206 0.22858 0.63812 0.0
C317 C 0.88712 0.14856 0.75023 0.0
C318 C 0.8911 0.17821 0.71285 0.0
H319 H 0.77302 0.24897 0.56011 0.0
H320 H 0.76725 0.19476 0.60948 0.0
H321 H 0.98199 0.24307 0.58345 0.0
H322 H 1.00349 0.1498 0.78551 0.0
H323 H 1.01355 0.20729 0.73826 0.0
C324 C 0.86272 0.55323 0.54975 0.0
C325 C 0.87021 0.55806 0.49071 0.0
C326 C 0.87313 0.58999 0.58937 0.0
C327 C 0.95343 0.72603 0.60323 0.0
H328 H 0.80451 0.66106 0.74329 0.0
C329 C 0.93176 0.84907 0.76421 0.0
C330 C 0.92607 0.84352 0.8226 0.0
C331 C 0.92438 0.81446 0.72256 0.0
C332 C 0.84697 0.67998 0.70463 0.0
H333 H 0.89766 0.60676 0.42682 0.0
H334 H 0.91497 0.67042 0.49587 0.0
H335 H 0.79694 0.60219 0.6734 0.0
H336 H 0.90652 0.79648 0.88309 0.0
H337 H 0.89362 0.73646 0.81083 0.0
H338 H 1.00303 0.80386 0.63464 0.0
C339 C 0.90143 0.63844 0.51167 0.0
C340 C 0.84286 0.64626 0.66459 0.0
C341 C 0.89105 0.60168 0.47204 0.0
C342 C 0.91124 0.80194 0.83851 0.0
C343 C 0.90342 0.76726 0.79706 0.0
C344 C 0.95737 0.75979 0.64329 0.0
C345 C 0.89116 0.63243 0.57094 0.0
C346 C 0.89629 0.66884 0.6135 0.0
C347 C 0.9105 0.77333 0.73854 0.0
C348 C 0.90446 0.73721 0.69464 0.0
H349 H 0.84764 0.52052 0.56556 0.0
H350 H 0.86654 0.5849 0.63458 0.0
H351 H 0.99605 0.74498 0.56466 0.0
H352 H 0.94309 0.88065 0.75053 0.0
H353 H 0.92924 0.81977 0.67788 0.0
C354 C 0.60184 0.31754 0.49293 0.0
C355 C 0.57143 0.28046 0.44563 0.0
C356 C 0.56039 0.29787 0.54844 0.0
C357 C 0.3979 0.16831 0.6353 0.0
H358 H 0.38042 0.25298 0.73096 0.0
C359 C 0.17118 0.07446 0.84019 0.0
C360 C 0.19691 0.10906 0.88937 0.0
C361 C 0.21728 0.09673 0.78644 0.0
C362 C 0.38527 0.22906 0.70508 0.0
H363 H 0.47475 0.19357 0.41967 0.0
H364 H 0.40259 0.15937 0.51592 0.0
H365 H 0.46387 0.28952 0.63807 0.0
H366 H 0.29038 0.19458 0.92021 0.0
H367 H 0.371 0.23346 0.82653 0.0
H368 H 0.31909 0.10775 0.70204 0.0
C369 C 0.45878 0.20354 0.51059 0.0
C370 C 0.4334 0.25012 0.65182 0.0
C371 C 0.50008 0.2232 0.45524 0.0
C372 C 0.26861 0.16678 0.88317 0.0
C373 C 0.3148 0.1891 0.82935 0.0
C374 C 0.34981 0.14727 0.68846 0.0
C375 C 0.48758 0.24068 0.55785 0.0
C376 C 0.43993 0.21984 0.61601 0.0
C377 C 0.2905 0.15419 0.78046 0.0
C378 C 0.34233 0.17713 0.72393 0.0
H379 H 0.65626 0.36198 0.48687 0.0
H380 H 0.5849 0.32759 0.58389 0.0
H381 H 0.40245 0.14424 0.60939 0.0
H382 H 0.11645 0.02979 0.84337 0.0
H383 H 0.1959 0.06871 0.74961 0.0
C384 C 0.55583 0.42024 0.09422 0.0
C385 C 0.62279 0.45973 0.12289 0.0
C386 C 0.53565 0.43687 0.06744 0.0
C387 C 0.57732 0.55384 0.05264 0.0
H388 H 0.53928 0.49951 0.89535 0.0
C389 C 0.56656 0.6465 0.89882 0.0
C390 C 0.49946 0.60645 0.87029 0.0
C391 C 0.58832 0.63075 0.92508 0.0
C392 C 0.54947 0.51488 0.93924 0.0
H393 H 0.71831 0.54633 0.14939 0.0
H394 H 0.68246 0.57537 0.10383 0.0
H395 H 0.55246 0.46371 0.95761 0.0
H396 H 0.4053 0.51985 0.84347 0.0
H397 H 0.4437 0.49232 0.8882 0.0
H398 H 0.57411 0.6049 0.03434 0.0
C399 C 0.64516 0.53162 0.10196 0.0
C400 C 0.55638 0.49405 0.9751 0.0
C401 C 0.66551 0.51504 0.12836 0.0
C402 C 0.4582 0.55156 0.86438 0.0
C403 C 0.48005 0.53585 0.89031 0.0
C404 C 0.57034 0.57465 0.0168 0.0
C405 C 0.58214 0.49325 0.06905 0.0
C406 C 0.57022 0.51319 0.03227 0.0
C407 C 0.54319 0.5747 0.92313 0.0
C408 C 0.55627 0.55539 0.95967 0.0
H409 H 0.52301 0.37759 0.08862 0.0
H410 H 0.48598 0.40616 0.04315 0.0
H411 H 0.58747 0.56918 0.09655 0.0
H412 H 0.59826 0.68883 0.90474 0.0
H413 H 0.63807 0.66184 0.94927 0.0
C414 C 0.57937 0.94366 0.80796 0.0
C415 C 0.54049 0.89251 0.8251 0.0
C416 C 0.58999 0.98018 0.8483 0.0
C417 C 0.59347 1.01458 0.00373 0.0
H418 H 0.55363 0.08531 0.96698 0.0
C419 C 0.56809 0.12927 0.17591 0.0
C420 C 0.6009 0.17876 0.16058 0.0
C421 C 0.56345 0.09602 0.13432 0.0
C422 C 0.56608 0.06656 0.97771 0.0
H423 H 0.48328 0.84007 0.89836 0.0
H424 H 0.50178 0.90379 0.96876 0.0
H425 H 0.54147 0.02469 0.89604 0.0
H426 H 0.65476 0.23213 0.08928 0.0
H427 H 0.64743 0.17435 0.01663 0.0
H428 H 0.61811 0.05639 0.08535 0.0
C429 C 0.52449 0.91581 0.9241 0.0
C430 C 0.55902 0.03171 0.937 0.0
C431 C 0.51347 0.87911 0.88368 0.0
C432 C 0.62882 0.19414 0.10253 0.0
C433 C 0.6243 0.16086 0.06083 0.0
C434 C 0.60074 0.04953 0.04437 0.0
C435 C 0.56243 0.96665 0.90686 0.0
C436 C 0.57211 1.00498 0.94964 0.0
C437 C 0.59169 0.1114 0.07622 0.0
C438 C 0.58656 0.07568 0.03209 0.0
H439 H 0.6014 0.95553 0.76324 0.0
H440 H 0.62039 1.01929 0.83364 0.0
H441 H 0.60532 0.99544 0.01454 0.0
H442 H 0.5456 0.11595 0.22018 0.0
H443 H 0.5367 0.05779 0.1477 0.0
C444 C 0.26924 0.65664 0.82863 0.0
C445 C 0.24739 0.62111 0.78094 0.0
C446 C 0.22617 0.63456 0.88312 0.0
C447 C 0.06654 0.50103 0.96582 0.0
H448 H 1.03692 0.57919 0.05968 0.0
C449 C 0.84003 0.40051 0.17038 0.0
C450 C 0.8608 0.4356 0.21827 0.0
C451 C 0.88428 0.42302 0.11628 0.0
C452 C 0.04505 0.55696 0.03453 0.0
H453 H 0.16565 0.53472 0.75339 0.0
H454 H 0.09004 0.49616 0.84761 0.0
H455 H 0.12425 0.61893 0.96957 0.0
H456 H 0.9426 0.52176 0.2467 0.0
H457 H 1.02053 0.56115 0.15303 0.0
H458 H 0.98733 0.43907 0.03078 0.0
C459 C 0.14086 0.54112 0.84371 0.0
C460 C 0.09595 0.58011 0.98271 0.0
C461 C 0.18392 0.56322 0.7893 0.0
C462 C 0.92497 0.4936 0.21056 0.0
C463 C 0.96935 0.51616 0.1565 0.0
C464 C 1.01564 0.47789 0.01763 0.0
C465 C 0.15972 0.57638 0.89114 0.0
C466 C 0.10768 0.55258 0.94758 0.0
C467 C 0.95106 0.48124 0.10885 0.0
C468 C 1.00373 0.50534 0.05267 0.0
H469 H 0.31828 0.70153 0.82369 0.0
H470 H 0.24445 0.66324 0.91876 0.0
H471 H 0.07471 0.47882 0.94072 0.0
H472 H 0.79086 0.3556 0.17486 0.0
H473 H 0.86654 0.3946 0.08046 0.0
loop_
_geom_bond_atom_site_label_1
_geom_bond_atom_site_label_2
_geom_bond_distance
_geom_bond_site_symmetry_2
_ccdc_geom_bond_type
C0 C1 1.386 . S
C0 C5 1.384 1_545 S
C0 C16 1.497 . S
C1 C0 1.386 . S
C1 C2 1.393 1_545 S
C1 H32 0.932 . S
C2 C1 1.393 1_565 S
C2 C3 1.387 . S
C3 C2 1.387 . S
C3 C4 1.392 . S
C3 H33 0.930 . S
C4 C3 1.392 . S
C4 C5 1.402 . S
C5 C0 1.384 1_565 S
C5 C4 1.402 . S
C5 H34 0.930 . S
O6 Tb7 2.288 1_655 S
O6 C19 1.257 1_545 S
Tb7 O6 2.288 1_455 S
Tb7 O9 2.303 . S
Tb7 O11 2.430 . S
Tb7 O13 2.459 . S
Tb7 O15 2.301 1_554 S
Tb7 C16 2.808 . S
Tb8 O10 2.301 1_556 S
Tb8 C12 2.808 . S
Tb8 O14 2.288 1_655 S
Tb8 O21 2.303 . S
Tb8 O30 2.430 . S
Tb8 O31 2.459 . S
O9 Tb7 2.303 . S
O9 C28 1.255 . S
O10 Tb8 2.301 1_554 S
O10 C19 1.237 . S
O11 Tb7 2.430 . S
O11 C16 1.248 . S
C12 Tb8 2.808 . S
C12 C22 1.497 . S
C12 O30 1.248 . S
C12 O31 1.260 . S
O13 Tb7 2.459 . S
O13 C16 1.260 . S
O14 Tb8 2.288 1_455 S
O14 C20 1.257 1_565 S
O15 Tb7 2.301 1_556 S
O15 C20 1.237 . S
C16 C0 1.497 . S
C16 Tb7 2.808 . S
C16 O11 1.248 . S
C16 O13 1.260 . S
C17 O18 1.255 . S
C17 O21 1.255 . S
O18 C17 1.255 . S
C19 O6 1.257 1_565 S
C19 O10 1.237 . S
C20 O14 1.257 1_545 S
C20 O15 1.237 . S
O21 Tb8 2.303 . S
O21 C17 1.255 . S
C22 C12 1.497 . S
C22 C24 1.384 1_565 S
C22 C25 1.386 . S
C23 C24 1.402 . S
C23 C27 1.392 . S
C24 C22 1.384 1_545 S
C24 C23 1.402 . S
C24 H35 0.930 . S
C25 C22 1.386 . S
C25 C26 1.393 1_565 S
C25 H36 0.932 . S
C26 C25 1.393 1_545 S
C26 C27 1.387 . S
C27 C23 1.392 . S
C27 C26 1.387 . S
C27 H37 0.930 . S
C28 O9 1.255 . S
C28 O29 1.255 . S
O29 C28 1.255 . S
O30 Tb8 2.430 . S
O30 C12 1.248 . S
O31 Tb8 2.459 . S
O31 C12 1.260 . S
H32 C1 0.932 . S
H33 C3 0.930 . S
H34 C5 0.930 . S
H35 C24 0.930 . S
H36 C25 0.932 . S
H37 C27 0.930 . S
C38 C39 1.386 . S
C38 C43 1.384 . S
C38 C54 1.497 . S
C39 C38 1.386 . S
C39 C40 1.393 . S
C39 H70 0.932 . S
C40 C39 1.393 . S
C40 C41 1.387 . S
C41 C40 1.387 . S
C41 C42 1.392 . S
C41 H71 0.930 . S
C42 C41 1.392 . S
C42 C43 1.402 . S
C43 C38 1.384 . S
C43 C42 1.402 . S
C43 H72 0.930 . S
O44 Tb45 2.288 . S
O44 C57 1.257 . S
Tb45 O44 2.288 . S
Tb45 O47 2.303 . S
Tb45 O49 2.430 . S
Tb45 O51 2.459 . S
Tb45 O53 2.301 . S
Tb45 C54 2.808 . S
Tb46 O48 2.301 . S
Tb46 C50 2.808 . S
Tb46 O52 2.288 . S
Tb46 O59 2.303 . S
Tb46 O68 2.430 . S
Tb46 O69 2.459 . S
O47 Tb45 2.303 . S
O47 C66 1.255 . S
O48 Tb46 2.301 . S
O48 C57 1.237 . S
O49 Tb45 2.430 . S
O49 C54 1.248 . S
C50 Tb46 2.808 . S
C50 C60 1.497 . S
C50 O68 1.248 . S
C50 O69 1.260 . S
O51 Tb45 2.459 . S
O51 C54 1.260 . S
O52 Tb46 2.288 . S
O52 C58 1.257 . S
O53 Tb45 2.301 . S
O53 C58 1.237 . S
C54 C38 1.497 . S
C54 Tb45 2.808 . S
C54 O49 1.248 . S
C54 O51 1.260 . S
C55 O56 1.255 . S
C55 O59 1.255 . S
O56 C55 1.255 . S
C57 O44 1.257 . S
C57 O48 1.237 . S
C58 O52 1.257 . S
C58 O53 1.237 . S
O59 Tb46 2.303 . S
O59 C55 1.255 . S
C60 C50 1.497 . S
C60 C62 1.384 . S
C60 C63 1.386 . S
C61 C62 1.402 . S
C61 C65 1.392 . S
C62 C60 1.384 . S
C62 C61 1.402 . S
C62 H73 0.930 . S
C63 C60 1.386 . S
C63 C64 1.393 . S
C63 H74 0.932 . S
C64 C63 1.393 . S
C64 C65 1.387 . S
C65 C61 1.392 . S
C65 C64 1.387 . S
C65 H75 0.930 . S
C66 O47 1.255 . S
C66 O67 1.255 . S
O67 C66 1.255 . S
O68 Tb46 2.430 . S
O68 C50 1.248 . S
O69 Tb46 2.459 . S
O69 C50 1.260 . S
H70 C39 0.932 . S
H71 C41 0.930 . S
H72 C43 0.930 . S
H73 C62 0.930 . S
H74 C63 0.932 . S
H75 C65 0.930 . S
C76 C77 1.386 . S
C76 C81 1.384 . S
C76 C92 1.497 . S
C77 C76 1.386 . S
C77 C78 1.393 . S
C77 H108 0.932 . S
C78 C77 1.393 . S
C78 C79 1.387 . S
C79 C78 1.387 . S
C79 C80 1.392 . S
C79 H109 0.930 . S
C80 C79 1.392 . S
C80 C81 1.402 . S
C81 C76 1.384 . S
C81 C80 1.402 . S
C81 H110 0.930 . S
O82 Tb83 2.288 . S
O82 C95 1.257 . S
Tb83 O82 2.288 . S
Tb83 O85 2.303 . S
Tb83 O87 2.430 . S
Tb83 O89 2.459 . S
Tb83 O91 2.301 . S
Tb83 C92 2.808 . S
Tb84 O86 2.301 . S
Tb84 C88 2.808 . S
Tb84 O90 2.288 . S
Tb84 O97 2.303 . S
Tb84 O106 2.430 . S
Tb84 O107 2.459 . S
O85 Tb83 2.303 . S
O85 C104 1.255 . S
O86 Tb84 2.301 . S
O86 C95 1.237 . S
O87 Tb83 2.430 . S
O87 C92 1.248 . S
C88 Tb84 2.808 . S
C88 C98 1.497 . S
C88 O106 1.248 . S
C88 O107 1.260 . S
O89 Tb83 2.459 . S
O89 C92 1.260 . S
O90 Tb84 2.288 . S
O90 C96 1.257 . S
O91 Tb83 2.301 . S
O91 C96 1.237 . S
C92 C76 1.497 . S
C92 Tb83 2.808 . S
C92 O87 1.248 . S
C92 O89 1.260 . S
C93 O94 1.255 . S
C93 O97 1.255 . S
O94 C93 1.255 . S
C95 O82 1.257 . S
C95 O86 1.237 . S
C96 O90 1.257 . S
C96 O91 1.237 . S
O97 Tb84 2.303 . S
O97 C93 1.255 . S
C98 C88 1.497 . S
C98 C100 1.384 . S
C98 C101 1.386 . S
C99 C100 1.402 . S
C99 C103 1.392 . S
C100 C98 1.384 . S
C100 C99 1.402 . S
C100 H111 0.930 . S
C101 C98 1.386 . S
C101 C102 1.393 . S
C101 H112 0.932 . S
C102 C101 1.393 . S
C102 C103 1.387 . S
C103 C99 1.392 . S
C103 C102 1.387 . S
C103 H113 0.930 . S
C104 O85 1.255 . S
C104 O105 1.255 . S
O105 C104 1.255 . S
O106 Tb84 2.430 . S
O106 C88 1.248 . S
O107 Tb84 2.459 . S
O107 C88 1.260 . S
H108 C77 0.932 . S
H109 C79 0.930 . S
H110 C81 0.930 . S
H111 C100 0.930 . S
H112 C101 0.932 . S
H113 C103 0.930 . S
C114 C115 1.349 1_565 S
C114 C116 1.327 . S
C114 H139 0.950 . S
C115 C114 1.349 1_545 S
C115 C131 1.349 . S
C116 C114 1.327 . S
C116 C135 1.429 1_565 S
C116 H140 0.950 . S
C117 C134 1.574 . S
C117 C136 1.368 1_455 S
C117 H141 0.949 . S
H118 C122 0.949 . S
C119 C120 1.349 1_545 S
C119 C121 1.327 . S
C119 H142 0.950 . S
C120 C119 1.349 1_565 S
C120 C132 1.349 . S
C121 C119 1.327 . S
C121 C137 1.429 1_545 S
C121 H143 0.950 . S
C122 H118 0.949 . S
C122 C130 1.574 . S
C122 C138 1.368 1_655 S
H123 C131 0.950 1_455 S
H124 C129 0.950 . S
H125 C130 0.949 . S
H126 C132 0.950 1_655 S
H127 C133 0.950 . S
H128 C134 0.949 . S
C129 H124 0.950 . S
C129 C131 1.327 1_455 S
C129 C135 1.429 1_455 S
C130 C122 1.574 . S
C130 H125 0.949 . S
C130 C136 1.368 1_565 S
C131 C115 1.349 . S
C131 H123 0.950 1_655 S
C131 C129 1.327 1_655 S
C132 C120 1.349 . S
C132 H126 0.950 1_455 S
C132 C133 1.327 1_455 S
C133 H127 0.950 . S
C133 C132 1.327 1_655 S
C133 C137 1.429 1_655 S
C134 C117 1.574 . S
C134 H128 0.949 . S
C134 C138 1.368 1_545 S
C135 C116 1.429 1_545 S
C135 C129 1.429 1_655 S
C135 C136 1.523 . S
C136 C117 1.368 1_655 S
C136 C130 1.368 1_545 S
C136 C135 1.523 . S
C137 C121 1.429 1_565 S
C137 C133 1.429 1_455 S
C137 C138 1.523 . S
C138 C122 1.368 1_455 S
C138 C134 1.368 1_565 S
C138 C137 1.523 . S
H139 C114 0.950 . S
H140 C116 0.950 . S
H141 C117 0.949 . S
H142 C119 0.950 . S
H143 C121 0.950 . S
C144 C145 1.349 . S
C144 C146 1.327 . S
C144 H169 0.950 . S
C145 C144 1.349 . S
C145 C161 1.349 . S
C146 C144 1.327 . S
C146 C165 1.429 . S
C146 H170 0.950 . S
C147 C164 1.574 . S
C147 C166 1.368 . S
C147 H171 0.949 . S
H148 C152 0.949 . S
C149 C150 1.349 . S
C149 C151 1.327 1_554 S
C149 H172 0.950 . S
C150 C149 1.349 . S
C150 C162 1.349 . S
C151 C149 1.327 1_556 S
C151 C167 1.429 . S
C151 H173 0.950 . S
C152 H148 0.949 . S
C152 C160 1.574 . S
C152 C168 1.368 . S
H153 C161 0.950 . S
H154 C159 0.950 . S
H155 C160 0.949 . S
H156 C162 0.950 . S
H157 C163 0.950 . S
H158 C164 0.949 . S
C159 H154 0.950 . S
C159 C161 1.327 . S
C159 C165 1.429 . S
C160 C152 1.574 . S
C160 H155 0.949 . S
C160 C166 1.368 . S
C161 C145 1.349 . S
C161 H153 0.950 . S
C161 C159 1.327 . S
C162 C150 1.349 . S
C162 H156 0.950 . S
C162 C163 1.327 1_554 S
C163 H157 0.950 . S
C163 C162 1.327 1_556 S
C163 C167 1.429 . S
C164 C147 1.574 . S
C164 H158 0.949 . S
C164 C168 1.368 . S
C165 C146 1.429 . S
C165 C159 1.429 . S
C165 C166 1.523 . S
C166 C147 1.368 . S
C166 C160 1.368 . S
C166 C165 1.523 . S
C167 C151 1.429 . S
C167 C163 1.429 . S
C167 C168 1.523 . S
C168 C152 1.368 . S
C168 C164 1.368 . S
C168 C167 1.523 . S
H169 C144 0.950 . S
H170 C146 0.950 . S
H171 C147 0.949 . S
H172 C149 0.950 . S
H173 C151 0.950 . S
C174 C175 1.349 . S
C174 C176 1.327 1_556 S
C174 H199 0.950 . S
C175 C174 1.349 . S
C175 C191 1.349 . S
C176 C174 1.327 1_554 S
C176 C195 1.429 . S
C176 H200 0.950 . S
C177 C194 1.574 . S
C177 C196 1.368 . S
C177 H201 0.949 . S
H178 C182 0.949 . S
C179 C180 1.349 . S
C179 C181 1.327 . S
C179 H202 0.950 . S
C180 C179 1.349 . S
C180 C192 1.349 . S
C181 C179 1.327 . S
C181 C197 1.429 . S
C181 H203 0.950 . S
C182 H178 0.949 . S
C182 C190 1.574 . S
C182 C198 1.368 . S
H183 C191 0.950 . S
H184 C189 0.950 . S
H185 C190 0.949 . S
H186 C192 0.950 . S
H187 C193 0.950 . S
H188 C194 0.949 . S
C189 H184 0.950 . S
C189 C191 1.327 1_554 S
C189 C195 1.429 . S
C190 C182 1.574 . S
C190 H185 0.949 . S
C190 C196 1.368 . S
C191 C175 1.349 . S
C191 H183 0.950 . S
C191 C189 1.327 1_556 S
C192 C180 1.349 . S
C192 H186 0.950 . S
C192 C193 1.327 . S
C193 H187 0.950 . S
C193 C192 1.327 . S
C193 C197 1.429 . S
C194 C177 1.574 . S
C194 H188 0.949 . S
C194 C198 1.368 . S
C195 C176 1.429 . S
C195 C189 1.429 . S
C195 C196 1.523 . S
C196 C177 1.368 . S
C196 C190 1.368 . S
C196 C195 1.523 . S
C197 C181 1.429 . S
C197 C193 1.429 . S
C197 C198 1.523 . S
C198 C182 1.368 . S
C198 C194 1.368 . S
C198 C197 1.523 . S
H199 C174 0.950 . S
H200 C176 0.950 . S
H201 C177 0.949 . S
H202 C179 0.950 . S
H203 C181 0.950 . S
C204 C205 1.349 . S
C204 C206 1.327 . S
C204 H229 0.950 . S
C205 C204 1.349 . S
C205 C221 1.349 . S
C206 C204 1.327 . S
C206 C225 1.429 . S
C206 H230 0.950 . S
C207 C224 1.574 . S
C207 C226 1.368 . S
C207 H231 0.949 . S
H208 C212 0.949 . S
C209 C210 1.349 . S
C209 C211 1.327 . S
C209 H232 0.950 . S
C210 C209 1.349 . S
C210 C222 1.349 . S
C211 C209 1.327 . S
C211 C227 1.429 . S
C211 H233 0.950 . S
C212 H208 0.949 . S
C212 C220 1.574 . S
C212 C228 1.368 . S
H213 C221 0.950 . S
H214 C219 0.950 . S
H215 C220 0.949 . S
H216 C222 0.950 . S
H217 C223 0.950 . S
H218 C224 0.949 . S
C219 H214 0.950 . S
C219 C221 1.327 . S
C219 C225 1.429 . S
C220 C212 1.574 . S
C220 H215 0.949 . S
C220 C226 1.368 . S
C221 C205 1.349 . S
C221 H213 0.950 . S
C221 C219 1.327 . S
C222 C210 1.349 . S
C222 H216 0.950 . S
C222 C223 1.327 . S
C223 H217 0.950 . S
C223 C222 1.327 . S
C223 C227 1.429 . S
C224 C207 1.574 . S
C224 H218 0.949 . S
C224 C228 1.368 . S
C225 C206 1.429 . S
C225 C219 1.429 . S
C225 C226 1.523 . S
C226 C207 1.368 . S
C226 C220 1.368 . S
C226 C225 1.523 . S
C227 C211 1.429 . S
C227 C223 1.429 . S
C227 C228 1.523 . S
C228 C212 1.368 . S
C228 C224 1.368 . S
C228 C227 1.523 . S
H229 C204 0.950 . S
H230 C206 0.950 . S
H231 C207 0.949 . S
H232 C209 0.950 . S
H233 C211 0.950 . S
C234 C235 1.349 . S
C234 C236 1.327 . S
C234 H259 0.950 . S
C235 C234 1.349 . S
C235 C251 1.349 . S
C236 C234 1.327 . S
C236 C255 1.429 . S
C236 H260 0.950 . S
C237 C254 1.574 . S
C237 C256 1.368 . S
C237 H261 0.949 . S
H238 C242 0.949 . S
C239 C240 1.349 . S
C239 C241 1.327 . S
C239 H262 0.950 . S
C240 C239 1.349 . S
C240 C252 1.349 . S
C241 C239 1.327 . S
C241 C257 1.429 . S
C241 H263 0.950 . S
C242 H238 0.949 . S
C242 C250 1.574 . S
C242 C258 1.368 . S
H243 C251 0.950 . S
H244 C249 0.950 . S
H245 C250 0.949 . S
H246 C252 0.950 . S
H247 C253 0.950 . S
H248 C254 0.949 . S
C249 H244 0.950 . S
C249 C251 1.327 . S
C249 C255 1.429 . S
C250 C242 1.574 . S
C250 H245 0.949 . S
C250 C256 1.368 . S
C251 C235 1.349 . S
C251 H243 0.950 . S
C251 C249 1.327 . S
C252 C240 1.349 . S
C252 H246 0.950 . S
C252 C253 1.327 . S
C253 H247 0.950 . S
C253 C252 1.327 . S
C253 C257 1.429 . S
C254 C237 1.574 . S
C254 H248 0.949 . S
C254 C258 1.368 . S
C255 C236 1.429 . S
C255 C249 1.429 . S
C255 C256 1.523 . S
C256 C237 1.368 . S
C256 C250 1.368 . S
C256 C255 1.523 . S
C257 C241 1.429 . S
C257 C253 1.429 . S
C257 C258 1.523 . S
C258 C242 1.368 . S
C258 C254 1.368 . S
C258 C257 1.523 . S
H259 C234 0.950 . S
H260 C236 0.950 . S
H261 C237 0.949 . S
H262 C239 0.950 . S
H263 C241 0.950 . S
C264 C265 1.349 . S
C264 C266 1.327 . S
C264 H289 0.950 . S
C265 C264 1.349 . S
C265 C281 1.349 . S
C266 C264 1.327 . S
C266 C285 1.429 . S
C266 H290 0.950 . S
C267 C284 1.574 . S
C267 C286 1.368 . S
C267 H291 0.949 . S
H268 C272 0.949 . S
C269 C270 1.349 . S
C269 C271 1.327 . S
C269 H292 0.950 . S
C270 C269 1.349 . S
C270 C282 1.349 . S
C271 C269 1.327 . S
C271 C287 1.429 . S
C271 H293 0.950 . S
C272 H268 0.949 . S
C272 C280 1.574 . S
C272 C288 1.368 . S
H273 C281 0.950 . S
H274 C279 0.950 . S
H275 C280 0.949 . S
H276 C282 0.950 . S
H277 C283 0.950 . S
H278 C284 0.949 . S
C279 H274 0.950 . S
C279 C281 1.327 . S
C279 C285 1.429 . S
C280 C272 1.574 . S
C280 H275 0.949 . S
C280 C286 1.368 . S
C281 C265 1.349 . S
C281 H273 0.950 . S
C281 C279 1.327 . S
C282 C270 1.349 . S
C282 H276 0.950 . S
C282 C283 1.327 . S
C283 H277 0.950 . S
C283 C282 1.327 . S
C283 C287 1.429 . S
C284 C267 1.574 . S
C284 H278 0.949 . S
C284 C288 1.368 . S
C285 C266 1.429 . S
C285 C279 1.429 . S
C285 C286 1.523 . S
C286 C267 1.368 . S
C286 C280 1.368 . S
C286 C285 1.523 . S
C287 C271 1.429 . S
C287 C283 1.429 . S
C287 C288 1.523 . S
C288 C272 1.368 . S
C288 C284 1.368 . S
C288 C287 1.523 . S
H289 C264 0.950 . S
H290 C266 0.950 . S
H291 C267 0.949 . S
H292 C269 0.950 . S
H293 C271 0.950 . S
C294 C295 1.349 . S
C294 C296 1.327 . S
C294 H319 0.950 . S
C295 C294 1.349 . S
C295 C311 1.349 . S
C296 C294 1.327 . S
C296 C315 1.429 . S
C296 H320 0.950 . S
C297 C314 1.574 . S
C297 C316 1.368 . S
C297 H321 0.949 . S
H298 C302 0.949 . S
C299 C300 1.349 . S
C299 C301 1.327 . S
C299 H322 0.950 . S
C300 C299 1.349 . S
C300 C312 1.349 . S
C301 C299 1.327 . S
C301 C317 1.429 . S
C301 H323 0.950 . S
C302 H298 0.949 . S
C302 C310 1.574 . S
C302 C318 1.368 . S
H303 C311 0.950 . S
H304 C309 0.950 . S
H305 C310 0.949 . S
H306 C312 0.950 . S
H307 C313 0.950 . S
H308 C314 0.949 . S
C309 H304 0.950 . S
C309 C311 1.327 . S
C309 C315 1.429 . S
C310 C302 1.574 . S
C310 H305 0.949 . S
C310 C316 1.368 . S
C311 C295 1.349 . S
C311 H303 0.950 . S
C311 C309 1.327 . S
C312 C300 1.349 . S
C312 H306 0.950 . S
C312 C313 1.327 . S
C313 H307 0.950 . S
C313 C312 1.327 . S
C313 C317 1.429 . S
C314 C297 1.574 . S
C314 H308 0.949 . S
C314 C318 1.368 . S
C315 C296 1.429 . S
C315 C309 1.429 . S
C315 C316 1.523 . S
C316 C297 1.368 . S
C316 C310 1.368 . S
C316 C315 1.523 . S
C317 C301 1.429 . S
C317 C313 1.429 . S
C317 C318 1.523 . S
C318 C302 1.368 . S
C318 C314 1.368 . S
C318 C317 1.523 . S
H319 C294 0.950 . S
H320 C296 0.950 . S
H321 C297 0.949 . S
H322 C299 0.950 . S
H323 C301 0.950 . S
C324 C325 1.349 . S
C324 C326 1.327 . S
C324 H349 0.950 . S
C325 C324 1.349 . S
C325 C341 1.349 . S
C326 C324 1.327 . S
C326 C345 1.429 . S
C326 H350 0.950 . S
C327 C344 1.574 . S
C327 C346 1.368 . S
C327 H351 0.949 . S
H328 C332 0.949 . S
C329 C330 1.349 . S
C329 C331 1.327 . S
C329 H352 0.950 . S
C330 C329 1.349 . S
C330 C342 1.349 . S
C331 C329 1.327 . S
C331 C347 1.429 . S
C331 H353 0.950 . S
C332 H328 0.949 . S
C332 C340 1.574 . S
C332 C348 1.368 . S
H333 C341 0.950 . S
H334 C339 0.950 . S
H335 C340 0.949 . S
H336 C342 0.950 . S
H337 C343 0.950 . S
H338 C344 0.949 . S
C339 H334 0.950 . S
C339 C341 1.327 . S
C339 C345 1.429 . S
C340 C332 1.574 . S
C340 H335 0.949 . S
C340 C346 1.368 . S
C341 C325 1.349 . S
C341 H333 0.950 . S
C341 C339 1.327 . S
C342 C330 1.349 . S
C342 H336 0.950 . S
C342 C343 1.327 . S
C343 H337 0.950 . S
C343 C342 1.327 . S
C343 C347 1.429 . S
C344 C327 1.574 . S
C344 H338 0.949 . S
C344 C348 1.368 . S
C345 C326 1.429 . S
C345 C339 1.429 . S
C345 C346 1.523 . S
C346 C327 1.368 . S
C346 C340 1.368 . S
C346 C345 1.523 . S
C347 C331 1.429 . S
C347 C343 1.429 . S
C347 C348 1.523 . S
C348 C332 1.368 . S
C348 C344 1.368 . S
C348 C347 1.523 . S
H349 C324 0.950 . S
H350 C326 0.950 . S
H351 C327 0.949 . S
H352 C329 0.950 . S
H353 C331 0.950 . S
C354 C355 1.349 . S
C354 C356 1.327 . S
C354 H379 0.950 . S
C355 C354 1.349 . S
C355 C371 1.349 . S
C356 C354 1.327 . S
C356 C375 1.429 . S
C356 H380 0.950 . S
C357 C374 1.574 . S
C357 C376 1.368 . S
C357 H381 0.949 . S
H358 C362 0.949 . S
C359 C360 1.349 . S
C359 C361 1.327 . S
C359 H382 0.950 . S
C360 C359 1.349 . S
C360 C372 1.349 . S
C361 C359 1.327 . S
C361 C377 1.429 . S
C361 H383 0.950 . S
C362 H358 0.949 . S
C362 C370 1.574 . S
C362 C378 1.368 . S
H363 C371 0.950 . S
H364 C369 0.950 . S
H365 C370 0.949 . S
H366 C372 0.950 . S
H367 C373 0.950 . S
H368 C374 0.949 . S
C369 H364 0.950 . S
C369 C371 1.327 . S
C369 C375 1.429 . S
C370 C362 1.574 . S
C370 H365 0.949 . S
C370 C376 1.368 . S
C371 C355 1.349 . S
C371 H363 0.950 . S
C371 C369 1.327 . S
C372 C360 1.349 . S
C372 H366 0.950 . S
C372 C373 1.327 . S
C373 H367 0.950 . S
C373 C372 1.327 . S
C373 C377 1.429 . S
C374 C357 1.574 . S
C374 H368 0.949 . S
C374 C378 1.368 . S
C375 C356 1.429 . S
C375 C369 1.429 . S
C375 C376 1.523 . S
C376 C357 1.368 . S
C376 C370 1.368 . S
C376 C375 1.523 . S
C377 C361 1.429 . S
C377 C373 1.429 . S
C377 C378 1.523 . S
C378 C362 1.368 . S
C378 C374 1.368 . S
C378 C377 1.523 . S
H379 C354 0.950 . S
H380 C356 0.950 . S
H381 C357 0.949 . S
H382 C359 0.950 . S
H383 C361 0.950 . S
C384 C385 1.349 . S
C384 C386 1.327 . S
C384 H409 0.950 . S
C385 C384 1.349 . S
C385 C401 1.349 . S
C386 C384 1.327 . S
C386 C405 1.429 . S
C386 H410 0.950 . S
C387 C404 1.574 1_554 S
C387 C406 1.368 . S
C387 H411 0.949 . S
H388 C392 0.949 . S
C389 C390 1.349 . S
C389 C391 1.327 . S
C389 H412 0.950 . S
C390 C389 1.349 . S
C390 C402 1.349 . S
C391 C389 1.327 . S
C391 C407 1.429 . S
C391 H413 0.950 . S
C392 H388 0.949 . S
C392 C400 1.574 1_556 S
C392 C408 1.368 . S
H393 C401 0.950 . S
H394 C399 0.950 . S
H395 C400 0.949 . S
H396 C402 0.950 . S
H397 C403 0.950 . S
H398 C404 0.949 . S
C399 H394 0.950 . S
C399 C401 1.327 . S
C399 C405 1.429 . S
C400 C392 1.574 1_554 S
C400 H395 0.949 . S
C400 C406 1.368 . S
C401 C385 1.349 . S
C401 H393 0.950 . S
C401 C399 1.327 . S
C402 C390 1.349 . S
C402 H396 0.950 . S
C402 C403 1.327 . S
C403 H397 0.950 . S
C403 C402 1.327 . S
C403 C407 1.429 . S
C404 C387 1.574 1_556 S
C404 H398 0.949 . S
C404 C408 1.368 . S
C405 C386 1.429 . S
C405 C399 1.429 . S
C405 C406 1.523 . S
C406 C387 1.368 . S
C406 C400 1.368 . S
C406 C405 1.523 . S
C407 C391 1.429 . S
C407 C403 1.429 . S
C407 C408 1.523 . S
C408 C392 1.368 . S
C408 C404 1.368 . S
C408 C407 1.523 . S
H409 C384 0.950 . S
H410 C386 0.950 . S
H411 C387 0.949 . S
H412 C389 0.950 . S
H413 C391 0.950 . S
C414 C415 1.349 . S
C414 C416 1.327 . S
C414 H439 0.950 . S
C415 C414 1.349 . S
C415 C431 1.349 . S
C416 C414 1.327 . S
C416 C435 1.429 . S
C416 H440 0.950 . S
C417 C434 1.574 1_566 S
C417 C436 1.368 . S
C417 H441 0.949 . S
H418 C422 0.949 . S
C419 C420 1.349 . S
C419 C421 1.327 . S
C419 H442 0.950 . S
C420 C419 1.349 . S
C420 C432 1.349 . S
C421 C419 1.327 . S
C421 C437 1.429 . S
C421 H443 0.950 . S
C422 H418 0.949 . S
C422 C430 1.574 1_544 S
C422 C438 1.368 . S
H423 C431 0.950 . S
H424 C429 0.950 . S
H425 C430 0.949 . S
H426 C432 0.950 . S
H427 C433 0.950 . S
H428 C434 0.949 . S
C429 H424 0.950 . S
C429 C431 1.327 . S
C429 C435 1.429 . S
C430 C422 1.574 1_566 S
C430 H425 0.949 . S
C430 C436 1.368 . S
C431 C415 1.349 . S
C431 H423 0.950 . S
C431 C429 1.327 . S
C432 C420 1.349 . S
C432 H426 0.950 . S
C432 C433 1.327 . S
C433 H427 0.950 . S
C433 C432 1.327 . S
C433 C437 1.429 . S
C434 C417 1.574 1_544 S
C434 H428 0.949 . S
C434 C438 1.368 . S
C435 C416 1.429 . S
C435 C429 1.429 . S
C435 C436 1.523 . S
C436 C417 1.368 . S
C436 C430 1.368 . S
C436 C435 1.523 . S
C437 C421 1.429 . S
C437 C433 1.429 . S
C437 C438 1.523 . S
C438 C422 1.368 . S
C438 C434 1.368 . S
C438 C437 1.523 . S
H439 C414 0.950 . S
H440 C416 0.950 . S
H441 C417 0.949 . S
H442 C419 0.950 . S
H443 C421 0.950 . S
C444 C445 1.349 . S
C444 C446 1.327 . S
C444 H469 0.950 . S
C445 C444 1.349 . S
C445 C461 1.349 . S
C446 C444 1.327 . S
C446 C465 1.429 . S
C446 H470 0.950 . S
C447 C464 1.574 1_456 S
C447 C466 1.368 . S
C447 H471 0.949 . S
H448 C452 0.949 . S
C449 C450 1.349 . S
C449 C451 1.327 . S
C449 H472 0.950 . S
C450 C449 1.349 . S
C450 C462 1.349 . S
C451 C449 1.327 . S
C451 C467 1.429 . S
C451 H473 0.950 . S
C452 H448 0.949 . S
C452 C460 1.574 1_654 S
C452 C468 1.368 . S
H453 C461 0.950 . S
H454 C459 0.950 . S
H455 C460 0.949 . S
H456 C462 0.950 . S
H457 C463 0.950 . S
H458 C464 0.949 . S
C459 H454 0.950 . S
C459 C461 1.327 . S
C459 C465 1.429 . S
C460 C452 1.574 1_456 S
C460 H455 0.949 . S
C460 C466 1.368 . S
C461 C445 1.349 . S
C461 H453 0.950 . S
C461 C459 1.327 . S
C462 C450 1.349 . S
C462 H456 0.950 . S
C462 C463 1.327 . S
C463 H457 0.950 . S
C463 C462 1.327 . S
C463 C467 1.429 . S
C464 C447 1.574 1_654 S
C464 H458 0.949 . S
C464 C468 1.368 . S
C465 C446 1.429 . S
C465 C459 1.429 . S
C465 C466 1.523 . S
C466 C447 1.368 . S
C466 C460 1.368 . S
C466 C465 1.523 . S
C467 C451 1.429 . S
C467 C463 1.429 . S
C467 C468 1.523 . S
C468 C452 1.368 . S
C468 C464 1.368 . S
C468 C467 1.523 . S
H469 C444 0.950 . S
H470 C446 0.950 . S
H471 C447 0.949 . S
H472 C449 0.950 . S
H473 C451 0.950 . S
C115 C26 0.331 . S
C120 C2 0.331 . S
C145 C40 0.331 . S
C150 C64 0.331 . S
C175 C78 0.331 . S
C180 C102 0.331 . S
C205 C99 2.618 . S
C210 C4 2.618 . S
C235 C93 1.161 . S
C240 C28 1.158 . S
C265 C96 1.427 . S
C270 C19 1.426 . S
C295 C42 2.618 . S
C300 C23 2.618 . S
C325 C66 1.161 . S
C330 C17 1.163 . S
C355 C57 1.427 . S
C360 C20 1.428 . S
C385 C61 2.618 . S
C390 C80 2.618 . S
C415 C104 1.161 . S
C420 C55 1.161 . S
C445 C95 1.427 . S
C450 C58 1.427 . S
