# Generated by pormake.
# Topology uki, (4)-cn, num edge types: 1
# Building blocks:
#     Node 0, Type 0, BuildingBlock: CEKHIL_clean_sbu_0, # of connection points: 4
#     Node 1, Type 0, BuildingBlock: CEKHIL_clean_sbu_0, # of connection points: 4
#     Node 2, Type 0, BuildingBlock: CEKHIL_clean_sbu_0, # of connection points: 4
#     Node 3, Type 0, BuildingBlock: CEKHIL_clean_sbu_0, # of connection points: 4
#     Node 4, Type 0, BuildingBlock: CEKHIL_clean_sbu_0, # of connection points: 4
#     Node 5, Type 0, BuildingBlock: CEKHIL_clean_sbu_0, # of connection points: 4
#     Node 6, Type 0, BuildingBlock: CEKHIL_clean_sbu_0, # of connection points: 4
#     Node 7, Type 0, BuildingBlock: CEKHIL_clean_sbu_0, # of connection points: 4
#     Node 8, Type 0, BuildingBlock: CEKHIL_clean_sbu_0, # of connection points: 4
#     Node 9, Type 0, BuildingBlock: CEKHIL_clean_sbu_0, # of connection points: 4
#     Node 10, Type 0, BuildingBlock: CEKHIL_clean_sbu_0, # of connection points: 4
#     Node 11, Type 0, BuildingBlock: CEKHIL_clean_sbu_0, # of connection points: 4
#     Node 12, Type 0, BuildingBlock: CEKHIL_clean_sbu_0, # of connection points: 4
#     Node 13, Type 0, BuildingBlock: CEKHIL_clean_sbu_0, # of connection points: 4
#     Node 14, Type 0, BuildingBlock: CEKHIL_clean_sbu_0, # of connection points: 4
#     Node 15, Type 0, BuildingBlock: CEKHIL_clean_sbu_0, # of connection points: 4
#     Edge 16, Type (0, 0), BuildingBlock: ZUJKAS_clean_linker_0, # of connection points: 2
#     Edge 17, Type (0, 0), BuildingBlock: ZUJKAS_clean_linker_0, # of connection points: 2
#     Edge 18, Type (0, 0), BuildingBlock: ZUJKAS_clean_linker_0, # of connection points: 2
#     Edge 19, Type (0, 0), BuildingBlock: ZUJKAS_clean_linker_0, # of connection points: 2
#     Edge 20, Type (0, 0), BuildingBlock: ZUJKAS_clean_linker_0, # of connection points: 2
#     Edge 21, Type (0, 0), BuildingBlock: ZUJKAS_clean_linker_0, # of connection points: 2
#     Edge 22, Type (0, 0), BuildingBlock: ZUJKAS_clean_linker_0, # of connection points: 2
#     Edge 23, Type (0, 0), BuildingBlock: ZUJKAS_clean_linker_0, # of connection points: 2
#     Edge 24, Type (0, 0), BuildingBlock: ZUJKAS_clean_linker_0, # of connection points: 2
#     Edge 25, Type (0, 0), BuildingBlock: ZUJKAS_clean_linker_0, # of connection points: 2
#     Edge 26, Type (0, 0), BuildingBlock: ZUJKAS_clean_linker_0, # of connection points: 2
#     Edge 27, Type (0, 0), BuildingBlock: ZUJKAS_clean_linker_0, # of connection points: 2
#     Edge 28, Type (0, 0), BuildingBlock: ZUJKAS_clean_linker_0, # of connection points: 2
#     Edge 29, Type (0, 0), BuildingBlock: ZUJKAS_clean_linker_0, # of connection points: 2
#     Edge 30, Type (0, 0), BuildingBlock: ZUJKAS_clean_linker_0, # of connection points: 2
#     Edge 31, Type (0, 0), BuildingBlock: ZUJKAS_clean_linker_0, # of connection points: 2
#     Edge 32, Type (0, 0), BuildingBlock: ZUJKAS_clean_linker_0, # of connection points: 2
#     Edge 33, Type (0, 0), BuildingBlock: ZUJKAS_clean_linker_0, # of connection points: 2
#     Edge 34, Type (0, 0), BuildingBlock: ZUJKAS_clean_linker_0, # of connection points: 2
#     Edge 35, Type (0, 0), BuildingBlock: ZUJKAS_clean_linker_0, # of connection points: 2
#     Edge 36, Type (0, 0), BuildingBlock: ZUJKAS_clean_linker_0, # of connection points: 2
#     Edge 37, Type (0, 0), BuildingBlock: ZUJKAS_clean_linker_0, # of connection points: 2
#     Edge 38, Type (0, 0), BuildingBlock: ZUJKAS_clean_linker_0, # of connection points: 2
#     Edge 39, Type (0, 0), BuildingBlock: ZUJKAS_clean_linker_0, # of connection points: 2
#     Edge 40, Type (0, 0), BuildingBlock: ZUJKAS_clean_linker_0, # of connection points: 2
#     Edge 41, Type (0, 0), BuildingBlock: ZUJKAS_clean_linker_0, # of connection points: 2
#     Edge 42, Type (0, 0), BuildingBlock: ZUJKAS_clean_linker_0, # of connection points: 2
#     Edge 43, Type (0, 0), BuildingBlock: ZUJKAS_clean_linker_0, # of connection points: 2
#     Edge 44, Type (0, 0), BuildingBlock: ZUJKAS_clean_linker_0, # of connection points: 2
#     Edge 45, Type (0, 0), BuildingBlock: ZUJKAS_clean_linker_0, # of connection points: 2
#     Edge 46, Type (0, 0), BuildingBlock: ZUJKAS_clean_linker_0, # of connection points: 2
#     Edge 47, Type (0, 0), BuildingBlock: ZUJKAS_clean_linker_0, # of connection points: 2
# Relax obj value: 0.101
# Max RMSD: 0.197
# Mean RMSD: 0.197
data_MOF--net-uki--node1-CEKHIL_clean_sbu_0--edge1-ZUJKAS_clean_linker_0
_symmetry_space_group_name_H-M    P1
_symmetry_Int_Tables_number       1
_symmetry_cell_setting            triclinic
loop_
_symmetry_equiv_pos_as_xyz
'x, y, z'
_cell_length_a     39.443701
_cell_length_b     39.429512
_cell_length_c     93.482234
_cell_angle_alpha  90.000315
_cell_angle_beta   90.000984
_cell_angle_gamma 89.994831
loop_
_atom_site_label
_atom_site_type_symbol
_atom_site_fract_x
_atom_site_fract_y
_atom_site_fract_z
_atom_type_partial_charge
Co0 Co 0.12641 0.21342 0.28986 0.0
O1 O 0.16477 0.1918 0.29876 0.0
O2 O 0.11882 0.20921 0.31024 0.0
C3 C 0.15584 0.25136 0.27673 0.0
O4 O 0.0825 0.23753 0.28429 0.0
Co5 Co 0.11702 0.20931 0.25684 0.0
O6 O 0.08284 0.24517 0.26044 0.0
C7 C 0.09686 0.15108 0.27486 0.0
C8 C 0.14888 0.19567 0.3108 0.0
C9 C 0.06994 0.2503 0.27275 0.0
O10 O 0.10439 0.168 0.28621 0.0
O11 O 0.10219 0.16226 0.26219 0.0
O12 O 0.14975 0.25688 0.29017 0.0
O13 O 0.14754 0.22156 0.27213 0.0
Co14 Co 0.21423 0.87275 0.70936 0.0
O15 O 0.19579 0.83281 0.70048 0.0
O16 O 0.20896 0.88005 0.68897 0.0
C17 C 0.25448 0.84635 0.72241 0.0
O18 O 0.2349 0.91837 0.71496 0.0
Co19 Co 0.20931 0.88134 0.74237 0.0
O20 O 0.24276 0.91792 0.73881 0.0
C21 C 0.14967 0.89686 0.72443 0.0
C22 C 0.19792 0.84895 0.68843 0.0
C23 C 0.24696 0.93142 0.72654 0.0
O24 O 0.16725 0.89102 0.71309 0.0
O25 O 0.16114 0.89218 0.7371 0.0
O26 O 0.25947 0.85306 0.70898 0.0
O27 O 0.22411 0.8521 0.72702 0.0
Co28 Co 0.87065 0.78678 0.28912 0.0
O29 O 0.82959 0.80268 0.29792 0.0
O30 O 0.87747 0.79268 0.30952 0.0
C31 C 0.84705 0.74502 0.27604 0.0
O32 O 0.91735 0.76864 0.28356 0.0
Co33 Co 0.87921 0.7926 0.25616 0.0
O34 O 0.91653 0.75997 0.25977 0.0
C35 C 0.89144 0.85277 0.27419 0.0
C36 C 0.84572 0.80166 0.31 0.0
C37 C 0.93038 0.75646 0.272 0.0
O38 O 0.88616 0.83477 0.28545 0.0
O39 O 0.88776 0.84122 0.26147 0.0
O40 O 0.85379 0.74046 0.28949 0.0
O41 O 0.85081 0.77572 0.27143 0.0
Co42 Co 0.78792 0.12849 0.70886 0.0
O43 O 0.80733 0.1684 0.70032 0.0
O44 O 0.79447 0.12142 0.68855 0.0
C45 C 0.74704 0.15494 0.72151 0.0
O46 O 0.76653 0.08295 0.71404 0.0
Co47 Co 0.78994 0.11873 0.74186 0.0
O48 O 0.75504 0.08389 0.73762 0.0
C49 C 0.85065 0.10229 0.72463 0.0
C50 C 0.80579 0.15242 0.68821 0.0
C51 C 0.75238 0.07039 0.72528 0.0
O52 O 0.83437 0.10962 0.7131 0.0
O53 O 0.83807 0.10619 0.73716 0.0
O54 O 0.74295 0.14865 0.70799 0.0
O55 O 0.77701 0.14878 0.72649 0.0
Co56 Co 0.12829 0.28346 0.95944 0.0
O57 O 0.16728 0.3032 0.95029 0.0
O58 O 0.12021 0.28786 0.93909 0.0
C59 C 0.15603 0.24424 0.9725 0.0
O60 O 0.08357 0.26139 0.96539 0.0
Co61 Co 0.12046 0.28878 0.99249 0.0
O62 O 0.08521 0.25375 0.98924 0.0
C63 C 0.10279 0.34761 0.97442 0.0
C64 C 0.15078 0.30014 0.93836 0.0
C65 C 0.07145 0.2489 0.97707 0.0
O66 O 0.10867 0.32993 0.96311 0.0
O67 O 0.10816 0.33653 0.9871 0.0
O68 O 0.14934 0.2389 0.95909 0.0
O69 O 0.14968 0.27456 0.97704 0.0
Co70 Co 0.28667 0.87025 0.03867 0.0
O71 O 0.30469 0.82931 0.04685 0.0
O72 O 0.29363 0.87609 0.05906 0.0
C73 C 0.24482 0.84578 0.02586 0.0
O74 O 0.26662 0.91661 0.03382 0.0
Co75 Co 0.28955 0.88072 0.00572 0.0
O76 O 0.25657 0.91723 0.01012 0.0
C77 C 0.35045 0.89487 0.02309 0.0
C78 C 0.30377 0.84466 0.05912 0.0
C79 C 0.25361 0.93024 0.02255 0.0
O80 O 0.33376 0.88786 0.03455 0.0
O81 O 0.338 0.89146 0.01052 0.0
O82 O 0.24102 0.85165 0.03943 0.0
O83 O 0.275 0.85094 0.02092 0.0
Co84 Co 0.87005 0.71054 0.96096 0.0
O85 O 0.83027 0.69037 0.95267 0.0
O86 O 0.87601 0.7052 0.94049 0.0
C87 C 0.8427 0.74971 0.97423 0.0
O88 O 0.91515 0.73323 0.96594 0.0
Co89 Co 0.88124 0.70662 0.99388 0.0
O90 O 0.91594 0.74163 0.98975 0.0
C91 C 0.89817 0.64741 0.97588 0.0
C92 C 0.8453 0.69308 0.94039 0.0
C93 C 0.92844 0.7461 0.97731 0.0
O94 O 0.89059 0.66443 0.96457 0.0
O95 O 0.89401 0.65896 0.98857 0.0
O96 O 0.84825 0.75484 0.96072 0.0
O97 O 0.85036 0.71978 0.97886 0.0
Co98 Co 0.71329 0.12446 0.0405 0.0
O99 O 0.69448 0.16507 0.04872 0.0
O100 O 0.70586 0.11816 0.0608 0.0
C101 C 0.75519 0.14965 0.02798 0.0
O102 O 0.7339 0.07834 0.03574 0.0
Co103 Co 0.71223 0.11367 0.00756 0.0
O104 O 0.74577 0.0778 0.0122 0.0
C105 C 0.65045 0.09942 0.02444 0.0
C106 C 0.69527 0.14942 0.06092 0.0
C107 C 0.74789 0.06484 0.02466 0.0
O108 O 0.66655 0.10646 0.03605 0.0
O109 O 0.66356 0.10281 0.01198 0.0
O110 O 0.75867 0.14364 0.04155 0.0
O111 O 0.72529 0.14398 0.02283 0.0
Co112 Co 0.62723 0.71271 0.79041 0.0
O113 O 0.66803 0.6954 0.79894 0.0
O114 O 0.62037 0.70517 0.81072 0.0
C115 C 0.65184 0.75512 0.77802 0.0
O116 O 0.58076 0.73193 0.78511 0.0
Co117 Co 0.61869 0.70986 0.7574 0.0
O118 O 0.5816 0.74242 0.76145 0.0
C119 C 0.60553 0.64834 0.77448 0.0
C120 C 0.65199 0.69564 0.81104 0.0
C121 C 0.56774 0.74501 0.77373 0.0
O122 O 0.61106 0.6653 0.78601 0.0
O123 O 0.60934 0.66092 0.76195 0.0
O124 O 0.64489 0.75866 0.79151 0.0
O125 O 0.64737 0.72496 0.77291 0.0
Co126 Co 0.71334 0.3722 0.20933 0.0
O127 O 0.69402 0.33233 0.20073 0.0
O128 O 0.70708 0.3793 0.18899 0.0
C129 C 0.75415 0.34592 0.22207 0.0
O130 O 0.73484 0.41762 0.21463 0.0
Co131 Co 0.71025 0.38132 0.24237 0.0
O132 O 0.74431 0.41708 0.23837 0.0
C133 C 0.65006 0.39791 0.22494 0.0
C134 C 0.69576 0.3483 0.18862 0.0
C135 C 0.74797 0.43044 0.22604 0.0
O136 O 0.66679 0.39114 0.21346 0.0
O137 O 0.66217 0.39347 0.23751 0.0
O138 O 0.75834 0.35212 0.20855 0.0
O139 O 0.72405 0.35178 0.22696 0.0
Co140 Co 0.37468 0.28508 0.79037 0.0
O141 O 0.33601 0.30562 0.79947 0.0
O142 O 0.38291 0.28984 0.81069 0.0
C143 C 0.3463 0.24586 0.77754 0.0
O144 O 0.41905 0.2622 0.78456 0.0
Co145 Co 0.38261 0.28902 0.75729 0.0
O146 O 0.41748 0.25371 0.76076 0.0
C147 C 0.40187 0.34803 0.77502 0.0
C148 C 0.35247 0.30245 0.81141 0.0
C149 C 0.43114 0.24921 0.77298 0.0
O150 O 0.39515 0.33109 0.78645 0.0
O151 O 0.39642 0.33653 0.76241 0.0
O152 O 0.35294 0.24086 0.79097 0.0
O153 O 0.35312 0.27593 0.77282 0.0
Co154 Co 0.28579 0.62633 0.2092 0.0
O155 O 0.30368 0.66698 0.2007 0.0
O156 O 0.29237 0.61977 0.18883 0.0
C157 C 0.24445 0.65157 0.22203 0.0
O158 O 0.26588 0.58009 0.21436 0.0
Co159 Co 0.28902 0.61655 0.24217 0.0
O160 O 0.25586 0.58001 0.23806 0.0
C161 C 0.3498 0.60226 0.2247 0.0
C162 C 0.30259 0.65117 0.18855 0.0
C163 C 0.25295 0.56668 0.2257 0.0
O164 O 0.33292 0.60888 0.21324 0.0
O165 O 0.33748 0.60588 0.23729 0.0
O166 O 0.24019 0.64509 0.20854 0.0
O167 O 0.27467 0.6462 0.22689 0.0
Co168 Co 0.62953 0.78752 0.46108 0.0
O169 O 0.66997 0.80566 0.45256 0.0
O170 O 0.62341 0.79239 0.4406 0.0
C171 C 0.6551 0.74766 0.47457 0.0
O172 O 0.58367 0.76682 0.46634 0.0
Co173 Co 0.619 0.79346 0.49396 0.0
O174 O 0.58358 0.75889 0.49019 0.0
C175 C 0.60443 0.8525 0.47555 0.0
C176 C 0.65457 0.80327 0.44034 0.0
C177 C 0.57059 0.75438 0.47784 0.0
O178 O 0.61105 0.83457 0.46439 0.0
O179 O 0.60822 0.84142 0.48834 0.0
O180 O 0.64927 0.74232 0.46109 0.0
O181 O 0.64908 0.77815 0.47899 0.0
Co182 Co 0.78505 0.375 0.54009 0.0
O183 O 0.80466 0.33469 0.54823 0.0
O184 O 0.79273 0.3814 0.56036 0.0
C185 C 0.74329 0.34934 0.52766 0.0
O186 O 0.76355 0.42076 0.53543 0.0
Co187 Co 0.78572 0.38586 0.50716 0.0
O188 O 0.75186 0.42135 0.51188 0.0
C189 C 0.84736 0.40109 0.52392 0.0
C190 C 0.80385 0.35032 0.56044 0.0
C191 C 0.74941 0.43414 0.52436 0.0
O192 O 0.83144 0.39378 0.53554 0.0
O193 O 0.83424 0.39752 0.51147 0.0
O194 O 0.74 0.35511 0.54126 0.0
O195 O 0.77305 0.3554 0.52244 0.0
Co196 Co 0.37112 0.21474 0.45906 0.0
O197 O 0.33337 0.19295 0.44977 0.0
O198 O 0.37953 0.21128 0.4387 0.0
C199 C 0.34072 0.25183 0.47221 0.0
O200 O 0.41454 0.23918 0.46508 0.0
Co201 Co 0.37927 0.20961 0.49212 0.0
O202 O 0.41318 0.24596 0.48899 0.0
C203 C 0.40006 0.15198 0.4739 0.0
C204 C 0.3497 0.19733 0.43787 0.0
C205 C 0.42648 0.2517 0.47679 0.0
O206 O 0.39339 0.16942 0.4626 0.0
O207 O 0.39394 0.16265 0.48659 0.0
O208 O 0.34723 0.25795 0.45885 0.0
O209 O 0.34926 0.222 0.47668 0.0
Co210 Co 0.21383 0.62596 0.53978 0.0
O211 O 0.19555 0.66669 0.5481 0.0
O212 O 0.20689 0.61968 0.56011 0.0
C213 C 0.25556 0.65096 0.52709 0.0
O214 O 0.23396 0.57968 0.5349 0.0
Co215 Co 0.2119 0.6153 0.50684 0.0
O216 O 0.24522 0.5791 0.5113 0.0
C217 C 0.15038 0.60162 0.52398 0.0
C218 C 0.19654 0.65102 0.56029 0.0
C219 C 0.24753 0.56608 0.52375 0.0
O220 O 0.16684 0.60836 0.53553 0.0
O221 O 0.16321 0.60499 0.51146 0.0
O222 O 0.25938 0.6448 0.54063 0.0
O223 O 0.22551 0.64548 0.52207 0.0
H224 H 0.17969 0.31305 0.28466 0.0
H225 H 0.19489 0.36066 0.26926 0.0
H226 H 0.17245 0.30065 0.2319 0.0
H227 H 0.15733 0.25237 0.24732 0.0
H228 H 0.24606 0.35783 0.24335 0.0
H229 H 0.11217 0.39459 0.23207 0.0
H230 H 0.12288 0.37181 0.24821 0.0
H231 H 0.12521 0.35073 0.23127 0.0
C232 C 0.1782 0.3098 0.27317 0.0
C233 C 0.16721 0.279 0.2672 0.0
C234 C 0.18693 0.33701 0.2644 0.0
C235 C 0.18462 0.33411 0.2495 0.0
C236 C 0.17427 0.30328 0.24341 0.0
H237 H 0.26228 0.51697 0.20545 0.0
H238 H 0.24334 0.45769 0.207 0.0
C239 C 0.16575 0.27579 0.25222 0.0
C240 C 0.19233 0.36411 0.2406 0.0
H241 H 0.1546 0.43457 0.22661 0.0
C242 C 0.22623 0.37427 0.23928 0.0
C243 C 0.16624 0.38537 0.23545 0.0
C244 C 0.12948 0.37533 0.23676 0.0
C245 C 0.23467 0.40625 0.23372 0.0
C246 C 0.20843 0.42843 0.22934 0.0
C247 C 0.17462 0.41737 0.22988 0.0
C248 C 0.21525 0.46482 0.22666 0.0
C249 C 0.27137 0.41709 0.2336 0.0
C250 C 0.20444 0.48862 0.23682 0.0
C251 C 0.21516 0.52223 0.23598 0.0
C252 C 0.2368 0.53284 0.22489 0.0
C253 C 0.24564 0.50954 0.21412 0.0
C254 C 0.23502 0.47567 0.21503 0.0
H255 H 0.28823 0.39807 0.23873 0.0
H256 H 0.27986 0.4207 0.22238 0.0
H257 H 0.27439 0.44167 0.23926 0.0
H258 H 0.18911 0.48078 0.24585 0.0
H259 H 0.20758 0.53963 0.24436 0.0
H260 H 0.54236 0.79099 0.75498 0.0
H261 H 0.48466 0.81229 0.75353 0.0
H262 H 0.45872 0.7583 0.79213 0.0
H263 H 0.517 0.73636 0.7936 0.0
H264 H 0.41535 0.74478 0.76952 0.0
H265 H 0.4306 0.88316 0.77506 0.0
H266 H 0.4604 0.86657 0.76238 0.0
H267 H 0.46279 0.85355 0.78084 0.0
C268 C 0.52464 0.78408 0.76334 0.0
C269 C 0.53423 0.76184 0.77437 0.0
C270 C 0.49167 0.79658 0.76257 0.0
C271 C 0.46747 0.78732 0.77284 0.0
C272 C 0.47713 0.76603 0.78418 0.0
H273 H 0.25238 0.83229 0.75118 0.0
H274 H 0.30056 0.81793 0.7668 0.0
C275 C 0.51042 0.75363 0.78503 0.0
C276 C 0.43154 0.79692 0.7705 0.0
H277 H 0.38311 0.86435 0.76017 0.0
C278 C 0.40788 0.77098 0.76794 0.0
C279 C 0.42175 0.83111 0.7685 0.0
C280 C 0.44519 0.86016 0.772 0.0
C281 C 0.3758 0.77824 0.76218 0.0
C282 C 0.36735 0.81218 0.75894 0.0
C283 C 0.38987 0.8383 0.76257 0.0
C284 C 0.33783 0.82048 0.74987 0.0
C285 C 0.35206 0.74954 0.75854 0.0
C286 C 0.34304 0.82651 0.73527 0.0
C287 C 0.31581 0.83446 0.72638 0.0
C288 C 0.28279 0.83673 0.73194 0.0
C289 C 0.27755 0.83063 0.7466 0.0
C290 C 0.30495 0.82249 0.75553 0.0
H291 H 0.36193 0.72458 0.76215 0.0
H292 H 0.32699 0.75399 0.7636 0.0
H293 H 0.34808 0.74865 0.74678 0.0
H294 H 0.36829 0.82501 0.73075 0.0
H295 H 0.32074 0.83908 0.71515 0.0
H296 H 0.79067 0.45719 0.24588 0.0
H297 H 0.81253 0.51478 0.24697 0.0
H298 H 0.76809 0.53663 0.20584 0.0
H299 H 0.74535 0.47867 0.20475 0.0
H300 H 0.85436 0.5543 0.22932 0.0
H301 H 0.72283 0.60583 0.23266 0.0
H302 H 0.7315 0.56113 0.23452 0.0
H303 H 0.73372 0.58083 0.21724 0.0
C304 C 0.78576 0.47403 0.23696 0.0
C305 C 0.76574 0.46349 0.22534 0.0
C306 C 0.79845 0.50695 0.23758 0.0
C307 C 0.79143 0.53015 0.22661 0.0
C308 C 0.77329 0.51923 0.21453 0.0
H309 H 0.82747 0.74635 0.24785 0.0
H310 H 0.81635 0.69727 0.23225 0.0
C311 C 0.76054 0.48607 0.21388 0.0
C312 C 0.80107 0.56614 0.22871 0.0
H313 H 0.76727 0.64238 0.23862 0.0
C314 C 0.83539 0.57382 0.23101 0.0
C315 C 0.77627 0.59162 0.23087 0.0
C316 C 0.73897 0.58464 0.22879 0.0
C317 C 0.84534 0.60554 0.23635 0.0
C318 C 0.82031 0.63001 0.23956 0.0
C319 C 0.78633 0.62342 0.23616 0.0
C320 C 0.82815 0.65998 0.24847 0.0
C321 C 0.8824 0.61207 0.2392 0.0
C322 C 0.83784 0.65511 0.26275 0.0
C323 C 0.84369 0.68282 0.27166 0.0
C324 C 0.84008 0.71605 0.26646 0.0
C325 C 0.83043 0.721 0.25213 0.0
C326 C 0.82419 0.69309 0.24321 0.0
H327 H 0.89882 0.59573 0.23243 0.0
H328 H 0.88895 0.63907 0.23722 0.0
H329 H 0.88803 0.60623 0.25057 0.0
H330 H 0.84043 0.62974 0.26707 0.0
H331 H 0.85116 0.67814 0.28264 0.0
H332 H 0.45563 0.20524 0.75311 0.0
H333 H 0.51301 0.18324 0.7512 0.0
H334 H 0.53898 0.22992 0.79147 0.0
H335 H 0.4812 0.25267 0.79338 0.0
H336 H 0.58236 0.24757 0.76993 0.0
H337 H 0.56712 0.10861 0.76989 0.0
H338 H 0.53795 0.12773 0.7576 0.0
H339 H 0.53449 0.13678 0.77645 0.0
C340 C 0.47327 0.2103 0.76173 0.0
C341 C 0.46391 0.23092 0.77335 0.0
C342 C 0.50605 0.19738 0.7607 0.0
C343 C 0.53022 0.20454 0.77128 0.0
C344 C 0.52061 0.22385 0.78324 0.0
H345 H 0.74688 0.16644 0.75048 0.0
H346 H 0.69734 0.17791 0.76574 0.0
C347 C 0.48758 0.23672 0.78434 0.0
C348 C 0.56619 0.19545 0.76869 0.0
H349 H 0.61524 0.13059 0.75619 0.0
C350 C 0.58992 0.22183 0.76737 0.0
C351 C 0.5761 0.16185 0.7654 0.0
C352 C 0.55259 0.13213 0.76757 0.0
C353 C 0.6223 0.21589 0.76164 0.0
C354 C 0.631 0.18281 0.75718 0.0
C355 C 0.60829 0.15602 0.75951 0.0
C356 C 0.66131 0.17641 0.74831 0.0
C357 C 0.64616 0.24529 0.75938 0.0
C358 C 0.65726 0.17198 0.73354 0.0
C359 C 0.68529 0.16568 0.72485 0.0
C360 C 0.71794 0.16347 0.73079 0.0
C361 C 0.72202 0.16811 0.74562 0.0
C362 C 0.69384 0.17459 0.75433 0.0
H363 H 0.63554 0.26957 0.76342 0.0
H364 H 0.6705 0.24026 0.76494 0.0
H365 H 0.65179 0.24806 0.7478 0.0
H366 H 0.6323 0.17339 0.72873 0.0
H367 H 0.68125 0.16217 0.71349 0.0
H368 H 0.21047 0.95837 0.00326 0.0
H369 H 0.19019 0.01655 0.0025 0.0
H370 H 0.23774 0.03673 0.04316 0.0
H371 H 0.2589 0.97811 0.04391 0.0
H372 H 0.15056 0.05698 0.02061 0.0
H373 H 0.28321 0.10498 0.01594 0.0
H374 H 0.27329 0.06054 0.01412 0.0
H375 H 0.27241 0.08017 0.03143 0.0
C376 C 0.21639 0.97497 0.01215 0.0
C377 C 0.23681 0.96375 0.02353 0.0
C378 C 0.2046 0.00824 0.01172 0.0
C379 C 0.21294 0.03113 0.02264 0.0
C380 C 0.23151 0.01958 0.03451 0.0
H381 H 0.17308 0.24709 0.00098 0.0
H382 H 0.18564 0.19888 0.0169 0.0
C383 C 0.24335 0.98605 0.03496 0.0
C384 C 0.20417 0.06739 0.02068 0.0
H385 H 0.23942 0.14241 0.01002 0.0
C386 C 0.16994 0.07596 0.01869 0.0
C387 C 0.22951 0.09214 0.01817 0.0
C388 C 0.26671 0.08419 0.01994 0.0
C389 C 0.16058 0.10775 0.01325 0.0
C390 C 0.18607 0.13141 0.00968 0.0
C391 C 0.22003 0.12405 0.0128 0.0
C392 C 0.17852 0.16091 0.00048 0.0
C393 C 0.12364 0.11514 0.01049 0.0
C394 C 0.17105 0.15534 0.98602 0.0
C395 C 0.16437 0.18255 0.97695 0.0
C396 C 0.16484 0.21595 0.98217 0.0
C397 C 0.17256 0.2216 0.99668 0.0
C398 C 0.17964 0.19419 0.00577 0.0
H399 H 0.10686 0.09849 0.01696 0.0
H400 H 0.11765 0.14205 0.01293 0.0
H401 H 0.11799 0.11064 0.99902 0.0
H402 H 0.17047 0.12981 0.98174 0.0
H403 H 0.15845 0.17731 0.96585 0.0
H404 H 0.24477 0.82835 0.99741 0.0
H405 H 0.195 0.81684 0.98225 0.0
H406 H 0.12924 0.8356 0.01823 0.0
H407 H 0.17835 0.84664 0.03337 0.0
H408 H 0.14052 0.76529 0.98903 0.0
H409 H 0.09319 0.89713 0.98434 0.0
H410 H 0.13697 0.88713 0.98827 0.0
H411 H 0.10554 0.88525 0.00216 0.0
C412 C 0.21966 0.83 0.00205 0.0
C413 C 0.21543 0.83832 0.01657 0.0
C414 C 0.19135 0.82351 0.99339 0.0
C415 C 0.15854 0.82589 0.99911 0.0
C416 C 0.15437 0.83415 0.01358 0.0
H417 H 0.95526 0.78894 0.99707 0.0
H418 H 0.01284 0.81078 0.99807 0.0
C419 C 0.1825 0.84023 0.02224 0.0
C420 C 0.12819 0.81829 0.99038 0.0
H421 H 0.05223 0.85274 0.98076 0.0
C422 C 0.12148 0.78442 0.9868 0.0
C423 C 0.10362 0.84343 0.9875 0.0
C424 C 0.11023 0.88036 0.99064 0.0
C425 C 0.08954 0.77457 0.9816 0.0
C426 C 0.06401 0.79946 0.9797 0.0
C427 C 0.07177 0.83369 0.98222 0.0
C428 C 0.02796 0.78993 0.97764 0.0
C429 C 0.08251 0.73733 0.97931 0.0
C430 C 0.01684 0.77199 0.96552 0.0
C431 C 0.98365 0.75926 0.96492 0.0
C432 C 0.96125 0.76429 0.97645 0.0
C433 C 0.97196 0.78419 0.98809 0.0
C434 C 0.00489 0.79686 0.98866 0.0
H435 H 0.10369 0.72104 0.98308 0.0
H436 H 0.05902 0.72969 0.98501 0.0
H437 H 0.07868 0.73245 0.96774 0.0
H438 H 0.0341 0.76689 0.95678 0.0
H439 H 0.97614 0.74412 0.95579 0.0
H440 H 0.84443 0.75201 0.00358 0.0
H441 H 0.82925 0.80034 0.01894 0.0
H442 H 0.80109 0.85809 0.98163 0.0
H443 H 0.81657 0.81045 0.96628 0.0
H444 H 0.85866 0.87252 0.01461 0.0
H445 H 0.71848 0.8623 0.01152 0.0
H446 H 0.74635 0.82638 0.00896 0.0
H447 H 0.74038 0.85661 0.99481 0.0
C448 C 0.83475 0.77493 0.99869 0.0
C449 C 0.8317 0.77752 0.98373 0.0
C450 C 0.82617 0.80245 0.00746 0.0
C451 C 0.81386 0.83255 0.00138 0.0
C452 C 0.81028 0.8349 0.9865 0.0
H453 H 0.79744 0.03902 0.00767 0.0
H454 H 0.81668 0.98034 0.00652 0.0
C455 C 0.81921 0.80771 0.97775 0.0
C456 C 0.80599 0.86247 0.01029 0.0
H457 H 0.74109 0.91656 0.01796 0.0
C458 C 0.83292 0.88184 0.0157 0.0
C459 C 0.77239 0.87429 0.0118 0.0
C460 C 0.74263 0.85373 0.00658 0.0
C461 C 0.82722 0.9141 0.02159 0.0
C462 C 0.79385 0.92718 0.02196 0.0
C463 C 0.76671 0.90657 0.01763 0.0
C464 C 0.78692 0.96354 0.02464 0.0
C465 C 0.85708 0.93453 0.0268 0.0
C466 C 0.76411 0.97372 0.03534 0.0
C467 C 0.75312 0.00747 0.03606 0.0
C468 C 0.76425 0.03124 0.02588 0.0
C469 C 0.78834 0.02125 0.01563 0.0
C470 C 0.79958 0.98775 0.01504 0.0
H471 H 0.87821 0.91777 0.03024 0.0
H472 H 0.86651 0.95071 0.01795 0.0
H473 H 0.84983 0.95123 0.03587 0.0
H474 H 0.7538 0.95529 0.04275 0.0
H475 H 0.73438 0.0144 0.04401 0.0
H476 H 0.82102 0.1548 0.03626 0.0
H477 H 0.87039 0.16671 0.02136 0.0
H478 H 0.80614 0.17495 0.98422 0.0
H479 H 0.75619 0.16279 0.99913 0.0
H480 H 0.88934 0.12719 0.99401 0.0
H481 H 0.8664 0.26597 0.98749 0.0
H482 H 0.84903 0.24302 0.00252 0.0
H483 H 0.83215 0.23627 0.98496 0.0
C484 C 0.81726 0.15923 0.02494 0.0
C485 C 0.78469 0.15797 0.01887 0.0
C486 C 0.84553 0.16591 0.01644 0.0
C487 C 0.84183 0.17171 0.00173 0.0
C488 C 0.8094 0.17063 0.99558 0.0
H489 H 0.0209 0.25184 0.95684 0.0
H490 H 0.96342 0.22834 0.95892 0.0
C491 C 0.78097 0.16373 0.0041 0.0
C492 C 0.87234 0.17903 0.99308 0.0
H493 H 0.91965 0.24506 0.98058 0.0
C494 C 0.89575 0.15283 0.99077 0.0
C495 C 0.88037 0.21238 0.98874 0.0
C496 C 0.85584 0.24123 0.99102 0.0
C497 C 0.92788 0.15948 0.98497 0.0
C498 C 0.93702 0.19333 0.98174 0.0
C499 C 0.91266 0.21913 0.98309 0.0
C500 C 0.97277 0.20324 0.97913 0.0
C501 C 0.9521 0.13034 0.98279 0.0
C502 C 0.99715 0.19657 0.98968 0.0
C503 C 0.02975 0.20992 0.98855 0.0
C504 C 0.03872 0.2305 0.97686 0.0
C505 C 0.01481 0.23593 0.96593 0.0
C506 C 0.98196 0.22263 0.96712 0.0
H507 H 0.93816 0.10647 0.98047 0.0
H508 H 0.97005 0.13543 0.9739 0.0
H509 H 0.96688 0.1263 0.99274 0.0
H510 H 0.99052 0.18237 0.9992 0.0
H511 H 0.04757 0.20513 0.99713 0.0
H512 H 0.66518 0.75647 0.74917 0.0
H513 H 0.68207 0.80594 0.73479 0.0
H514 H 0.67716 0.86904 0.77239 0.0
H515 H 0.66052 0.82019 0.78675 0.0
H516 H 0.6459 0.87288 0.73212 0.0
H517 H 0.77484 0.88226 0.75557 0.0
H518 H 0.74992 0.84384 0.75636 0.0
H519 H 0.74146 0.87811 0.76853 0.0
C520 C 0.66778 0.78091 0.75434 0.0
C521 C 0.66182 0.78442 0.76911 0.0
C522 C 0.67731 0.80908 0.74612 0.0
C523 C 0.68122 0.84095 0.7526 0.0
C524 C 0.67473 0.84452 0.76726 0.0
H525 H 0.69981 0.04795 0.74147 0.0
H526 H 0.68054 0.98933 0.74406 0.0
C527 C 0.66519 0.81656 0.77544 0.0
C528 C 0.69227 0.87087 0.74427 0.0
H529 H 0.75382 0.9316 0.74356 0.0
C530 C 0.66979 0.88541 0.73436 0.0
C531 C 0.72354 0.88697 0.74717 0.0
C532 C 0.74902 0.87188 0.75739 0.0
C533 C 0.67695 0.91692 0.728 0.0
C534 C 0.70725 0.9339 0.73161 0.0
C535 C 0.7306 0.91837 0.74082 0.0
C536 C 0.71347 0.96954 0.72756 0.0
C537 C 0.65168 0.93267 0.7179 0.0
C538 C 0.73761 0.9778 0.71711 0.0
C539 C 0.74836 0.01143 0.71546 0.0
C540 C 0.73567 0.03694 0.72451 0.0
C541 C 0.71008 0.02876 0.73439 0.0
C542 C 0.69896 0.99536 0.73585 0.0
H543 H 0.63186 0.91431 0.71453 0.0
H544 H 0.63917 0.95445 0.72327 0.0
H545 H 0.66482 0.94256 0.70826 0.0
H546 H 0.74928 0.95804 0.71074 0.0
H547 H 0.76831 0.017 0.70785 0.0
H548 H 0.02193 0.24987 0.29413 0.0
H549 H 0.96393 0.27225 0.29264 0.0
H550 H 0.98593 0.31356 0.25094 0.0
H551 H 0.04363 0.29208 0.25243 0.0
H552 H 0.94541 0.35617 0.2676 0.0
H553 H 0.8959 0.22365 0.26649 0.0
H554 H 0.92029 0.23633 0.28183 0.0
H555 H 0.94049 0.23283 0.26468 0.0
C556 C 0.0146 0.2644 0.2848 0.0
C557 C 0.03723 0.26874 0.2733 0.0
C558 C 0.98138 0.27691 0.28391 0.0
C559 C 0.97044 0.29392 0.27154 0.0
C560 C 0.99375 0.30033 0.26055 0.0
H561 H 0.82064 0.34482 0.21461 0.0
H562 H 0.8695 0.33458 0.22998 0.0
C563 C 0.02675 0.28788 0.2614 0.0
C564 C 0.93434 0.30281 0.26919 0.0
H565 H 0.85853 0.267 0.25996 0.0
C566 C 0.92617 0.33677 0.26627 0.0
C567 C 0.90922 0.27745 0.26747 0.0
C568 C 0.91673 0.24046 0.27019 0.0
C569 C 0.8943 0.34572 0.26078 0.0
C570 C 0.87015 0.32006 0.25809 0.0
C571 C 0.87725 0.28653 0.26205 0.0
C572 C 0.83992 0.32672 0.24918 0.0
C573 C 0.88722 0.38234 0.2572 0.0
C574 C 0.80705 0.32502 0.25487 0.0
C575 C 0.77888 0.33103 0.24607 0.0
C576 C 0.78332 0.33824 0.23145 0.0
C577 C 0.81632 0.33929 0.22581 0.0
C578 C 0.8443 0.33366 0.23459 0.0
H579 H 0.90407 0.39975 0.26326 0.0
H580 H 0.89174 0.38648 0.24561 0.0
H581 H 0.8604 0.38892 0.25952 0.0
H582 H 0.80325 0.31936 0.26609 0.0
H583 H 0.75372 0.33007 0.25069 0.0
H584 H 0.28779 0.95892 0.74689 0.0
H585 H 0.30862 0.01685 0.74825 0.0
H586 H 0.26631 0.03817 0.70667 0.0
H587 H 0.24465 0.97981 0.70529 0.0
H588 H 0.35112 0.0566 0.73089 0.0
H589 H 0.21909 0.1072 0.73313 0.0
H590 H 0.22799 0.06258 0.73516 0.0
H591 H 0.23094 0.08209 0.71786 0.0
C592 C 0.28313 0.97571 0.73793 0.0
C593 C 0.26408 0.96486 0.72607 0.0
C594 C 0.29523 0.00884 0.73871 0.0
C595 C 0.28854 0.03198 0.72768 0.0
C596 C 0.27126 0.02083 0.7154 0.0
H597 H 0.33044 0.24778 0.74891 0.0
H598 H 0.31781 0.19913 0.73326 0.0
C599 C 0.25914 0.98743 0.71459 0.0
C600 C 0.29778 0.06805 0.72985 0.0
H601 H 0.263 0.14397 0.73964 0.0
C602 C 0.33194 0.07598 0.73243 0.0
C603 C 0.2727 0.09334 0.73186 0.0
C604 C 0.23557 0.08608 0.72945 0.0
C605 C 0.3414 0.10771 0.73791 0.0
C606 C 0.31606 0.13197 0.74094 0.0
C607 C 0.28228 0.12517 0.73729 0.0
C608 C 0.3234 0.16175 0.75002 0.0
C609 C 0.37821 0.11446 0.74122 0.0
C610 C 0.33 0.15669 0.76459 0.0
C611 C 0.33674 0.18417 0.77351 0.0
C612 C 0.3372 0.21734 0.76802 0.0
C613 C 0.33024 0.22249 0.75342 0.0
C614 C 0.32313 0.19481 0.74448 0.0
H615 H 0.39522 0.09736 0.73508 0.0
H616 H 0.38493 0.1412 0.73878 0.0
H617 H 0.38275 0.11009 0.75279 0.0
H618 H 0.32991 0.13134 0.76907 0.0
H619 H 0.34203 0.17931 0.78469 0.0
H620 H 0.95577 0.71219 0.25253 0.0
H621 H 0.01302 0.68969 0.25115 0.0
H622 H 0.03847 0.73925 0.29086 0.0
H623 H 0.98066 0.7624 0.29227 0.0
H624 H 0.0834 0.75352 0.26878 0.0
H625 H 0.06369 0.61529 0.27213 0.0
H626 H 0.03502 0.63391 0.25949 0.0
H627 H 0.03219 0.64541 0.27811 0.0
C628 C 0.97329 0.71794 0.26112 0.0
C629 C 0.96372 0.73926 0.27248 0.0
C630 C 0.00599 0.70473 0.26039 0.0
C631 C 0.0299 0.71235 0.27101 0.0
C632 C 0.02026 0.73279 0.28263 0.0
H633 H 0.24538 0.66648 0.25072 0.0
H634 H 0.19654 0.68073 0.26597 0.0
C635 C 0.98725 0.7459 0.28344 0.0
C636 C 0.06563 0.70186 0.26885 0.0
H637 H 0.11255 0.63381 0.25804 0.0
C638 C 0.09018 0.72724 0.26689 0.0
C639 C 0.07448 0.66756 0.26645 0.0
C640 C 0.04998 0.63899 0.26931 0.0
C641 C 0.12233 0.71947 0.26132 0.0
C642 C 0.12995 0.68554 0.25769 0.0
C643 C 0.10644 0.65987 0.26073 0.0
C644 C 0.15982 0.67696 0.24887 0.0
C645 C 0.14706 0.74774 0.2583 0.0
C646 C 0.15514 0.67016 0.23429 0.0
C647 C 0.18276 0.66228 0.2256 0.0
C648 C 0.21563 0.66081 0.23135 0.0
C649 C 0.22033 0.66753 0.246 0.0
C650 C 0.19255 0.67563 0.25471 0.0
H651 H 0.13714 0.77289 0.26163 0.0
H652 H 0.1712 0.74287 0.26404 0.0
H653 H 0.15287 0.74854 0.24668 0.0
H654 H 0.13002 0.67113 0.22961 0.0
H655 H 0.17826 0.65714 0.21438 0.0
H656 H 0.75793 0.48294 0.54502 0.0
H657 H 0.736 0.54124 0.54448 0.0
H658 H 0.68089 0.51832 0.50582 0.0
H659 H 0.70224 0.4605 0.50634 0.0
H660 H 0.7504 0.58503 0.52245 0.0
H661 H 0.6117 0.57353 0.5277 0.0
H662 H 0.64029 0.54014 0.53319 0.0
H663 H 0.62734 0.54386 0.51476 0.0
C664 C 0.74036 0.49013 0.53665 0.0
C665 C 0.73198 0.46722 0.52567 0.0
C666 C 0.72792 0.52342 0.53635 0.0
C667 C 0.70646 0.53401 0.52522 0.0
C668 C 0.69676 0.51058 0.5147 0.0
H669 H 0.66457 0.68159 0.4675 0.0
H670 H 0.67657 0.63414 0.48345 0.0
C671 C 0.7093 0.47756 0.51493 0.0
C672 C 0.69782 0.57028 0.52321 0.0
H673 H 0.63198 0.62088 0.51294 0.0
C674 C 0.72444 0.59328 0.52087 0.0
C675 C 0.66395 0.58111 0.52121 0.0
C676 C 0.63422 0.55838 0.52451 0.0
C677 C 0.7182 0.62569 0.51524 0.0
C678 C 0.68461 0.63513 0.51192 0.0
C679 C 0.65778 0.61335 0.51542 0.0
C680 C 0.67751 0.6646 0.50267 0.0
C681 C 0.74761 0.64868 0.51177 0.0
C682 C 0.67425 0.69743 0.50828 0.0
C683 C 0.66737 0.72478 0.49915 0.0
C684 C 0.66372 0.7195 0.48434 0.0
C685 C 0.66728 0.68654 0.47884 0.0
C686 C 0.67404 0.65937 0.48793 0.0
H687 H 0.77199 0.63876 0.516 0.0
H688 H 0.7498 0.65143 0.49998 0.0
H689 H 0.74307 0.67431 0.51629 0.0
H690 H 0.67691 0.7018 0.51966 0.0
H691 H 0.66467 0.74992 0.50368 0.0
H692 H 0.67772 0.34334 0.53619 0.0
H693 H 0.62799 0.33217 0.5214 0.0
H694 H 0.6913 0.32611 0.4839 0.0
H695 H 0.74162 0.33753 0.4987 0.0
H696 H 0.60832 0.37332 0.49465 0.0
H697 H 0.63106 0.23505 0.48636 0.0
H698 H 0.64888 0.25703 0.50155 0.0
H699 H 0.66527 0.26488 0.48399 0.0
C700 C 0.68121 0.33952 0.52481 0.0
C701 C 0.71362 0.34121 0.51861 0.0
C702 C 0.65273 0.33327 0.51638 0.0
C703 C 0.65606 0.32832 0.5016 0.0
C704 C 0.68833 0.32977 0.49532 0.0
H705 H 0.47655 0.25074 0.45633 0.0
H706 H 0.53387 0.27452 0.45852 0.0
C707 C 0.71697 0.33624 0.50377 0.0
C708 C 0.62531 0.32158 0.49301 0.0
H709 H 0.57776 0.25647 0.47982 0.0
C710 C 0.60184 0.34793 0.49112 0.0
C711 C 0.61719 0.28855 0.48828 0.0
C712 C 0.64175 0.25956 0.49011 0.0
C713 C 0.56961 0.34169 0.48533 0.0
C714 C 0.56041 0.30809 0.48169 0.0
C715 C 0.58479 0.2822 0.48264 0.0
C716 C 0.52462 0.29836 0.47901 0.0
C717 C 0.54537 0.37099 0.4836 0.0
C718 C 0.5003 0.30433 0.48966 0.0
C719 C 0.46777 0.29084 0.48845 0.0
C720 C 0.4588 0.27082 0.47659 0.0
C721 C 0.4826 0.26623 0.46555 0.0
C722 C 0.51538 0.27967 0.46681 0.0
H723 H 0.55928 0.39499 0.48153 0.0
H724 H 0.52724 0.36652 0.4747 0.0
H725 H 0.53078 0.37433 0.49365 0.0
H726 H 0.50697 0.31796 0.49932 0.0
H727 H 0.45005 0.29495 0.49714 0.0
H728 H 0.23384 0.51563 0.54307 0.0
H729 H 0.25253 0.45631 0.54164 0.0
H730 H 0.315 0.48097 0.50524 0.0
H731 H 0.29647 0.53986 0.50655 0.0
H732 H 0.23891 0.41795 0.51679 0.0
H733 H 0.37623 0.41745 0.52867 0.0
H734 H 0.34832 0.45116 0.53446 0.0
H735 H 0.3647 0.45068 0.51648 0.0
C736 C 0.25235 0.50856 0.53504 0.0
C737 C 0.26355 0.5323 0.52486 0.0
C738 C 0.26291 0.47468 0.53422 0.0
C739 C 0.28538 0.46433 0.52342 0.0
C740 C 0.29815 0.4885 0.51382 0.0
H741 H 0.31302 0.31211 0.46457 0.0
H742 H 0.29719 0.35923 0.48015 0.0
C743 C 0.28732 0.52212 0.51452 0.0
C744 C 0.29184 0.42792 0.52066 0.0
H745 H 0.35591 0.37264 0.513 0.0
C746 C 0.2644 0.40767 0.51636 0.0
C747 C 0.32505 0.41447 0.52017 0.0
C748 C 0.35523 0.43449 0.52533 0.0
C749 C 0.26963 0.3754 0.51044 0.0
C750 C 0.30307 0.36323 0.5088 0.0
C751 C 0.33029 0.38222 0.51418 0.0
C752 C 0.3105 0.33338 0.49977 0.0
C753 C 0.23955 0.35524 0.50527 0.0
C754 C 0.32311 0.30324 0.5057 0.0
C755 C 0.33184 0.27601 0.4968 0.0
C756 C 0.32873 0.27895 0.48186 0.0
C757 C 0.31573 0.3091 0.47603 0.0
C758 C 0.3066 0.33599 0.48491 0.0
H759 H 0.21561 0.36394 0.51034 0.0
H760 H 0.23705 0.35841 0.49351 0.0
H761 H 0.24307 0.32781 0.50752 0.0
H762 H 0.32644 0.30093 0.51716 0.0
H763 H 0.34189 0.25311 0.50158 0.0
H764 H 0.54581 0.70974 0.49731 0.0
H765 H 0.48886 0.68649 0.49863 0.0
H766 H 0.4635 0.7344 0.45855 0.0
H767 H 0.52097 0.75835 0.45721 0.0
H768 H 0.41844 0.74949 0.48012 0.0
H769 H 0.43824 0.61116 0.47856 0.0
H770 H 0.46648 0.63043 0.49118 0.0
H771 H 0.47004 0.64083 0.47246 0.0
C772 C 0.5284 0.71488 0.48861 0.0
C773 C 0.53786 0.73607 0.47719 0.0
C774 C 0.49587 0.70125 0.48931 0.0
C775 C 0.47201 0.70827 0.47859 0.0
C776 C 0.48166 0.72839 0.46686 0.0
H777 H 0.25576 0.6648 0.49829 0.0
H778 H 0.30526 0.67785 0.48324 0.0
C779 C 0.51449 0.74195 0.4661 0.0
C780 C 0.43626 0.69787 0.48079 0.0
H781 H 0.38908 0.63061 0.49228 0.0
C782 C 0.41164 0.72336 0.48232 0.0
C783 C 0.42737 0.66376 0.48362 0.0
C784 C 0.45191 0.63498 0.48121 0.0
C785 C 0.37935 0.71598 0.48785 0.0
C786 C 0.37163 0.68233 0.49187 0.0
C787 C 0.39526 0.65647 0.48929 0.0
C788 C 0.34138 0.67434 0.50058 0.0
C789 C 0.35455 0.74446 0.49039 0.0
C790 C 0.34549 0.66807 0.51523 0.0
C791 C 0.31749 0.66088 0.52381 0.0
C792 C 0.28479 0.65959 0.51788 0.0
C793 C 0.28066 0.66576 0.50315 0.0
C794 C 0.30883 0.67317 0.49455 0.0
H795 H 0.36476 0.76944 0.48697 0.0
H796 H 0.33077 0.73943 0.48441 0.0
H797 H 0.348 0.74579 0.50193 0.0
H798 H 0.37047 0.66893 0.52005 0.0
H799 H 0.32156 0.65614 0.53509 0.0
H800 H 0.30403 0.14742 0.43225 0.0
H801 H 0.27187 0.13866 0.41017 0.0
H802 H 0.32357 0.2237 0.3909 0.0
H803 H 0.35739 0.23079 0.4126 0.0
H804 H 0.22771 0.17542 0.39887 0.0
H805 H 0.32776 0.16224 0.35811 0.0
H806 H 0.33722 0.16152 0.37696 0.0
H807 H 0.33327 0.20132 0.36756 0.0
C808 C 0.3091 0.16362 0.42313 0.0
C809 C 0.3334 0.18954 0.42404 0.0
C810 C 0.2906 0.15874 0.41054 0.0
C811 C 0.29544 0.18019 0.39869 0.0
C812 C 0.32003 0.20597 0.39961 0.0
H813 H 0.13971 0.22699 0.33648 0.0
H814 H 0.17419 0.22043 0.35802 0.0
C815 C 0.33927 0.21019 0.41207 0.0
C816 C 0.27293 0.17733 0.38591 0.0
H817 H 0.27265 0.17878 0.3494 0.0
C818 C 0.23767 0.17561 0.38806 0.0
C819 C 0.28561 0.1769 0.37173 0.0
C820 C 0.32305 0.17519 0.36848 0.0
C821 C 0.21487 0.17444 0.37653 0.0
C822 C 0.22746 0.17679 0.36237 0.0
C823 C 0.26274 0.1775 0.36021 0.0
C824 C 0.20474 0.17923 0.34964 0.0
C825 C 0.17762 0.17005 0.37974 0.0
C826 C 0.2107 0.15892 0.33754 0.0
C827 C 0.19171 0.16349 0.32505 0.0
C828 C 0.16589 0.18798 0.32449 0.0
C829 C 0.15903 0.20747 0.33672 0.0
C830 C 0.17866 0.20356 0.34908 0.0
H831 H 0.17378 0.15605 0.38992 0.0
H832 H 0.16572 0.19538 0.38099 0.0
H833 H 0.16437 0.15613 0.37106 0.0
H834 H 0.2306 0.13999 0.33763 0.0
H835 H 0.19759 0.14821 0.31574 0.0
H836 H 0.20912 0.63021 0.58774 0.0
H837 H 0.20329 0.66385 0.60968 0.0
H838 H 0.16233 0.74694 0.58519 0.0
H839 H 0.1681 0.71364 0.56326 0.0
H840 H 0.23634 0.72895 0.61348 0.0
H841 H 0.09647 0.73692 0.61989 0.0
H842 H 0.11679 0.70436 0.60932 0.0
H843 H 0.11243 0.74654 0.60233 0.0
C844 C 0.19829 0.6554 0.58707 0.0
C845 C 0.18909 0.66927 0.57377 0.0
C846 C 0.19508 0.67461 0.5996 0.0
C847 C 0.18217 0.70778 0.59906 0.0
C848 C 0.17191 0.72124 0.58587 0.0
H849 H 0.21284 0.87014 0.6612 0.0
H850 H 0.20724 0.8372 0.63903 0.0
C851 C 0.17536 0.70219 0.57334 0.0
C852 C 0.18189 0.7293 0.61206 0.0
H853 H 0.12972 0.77213 0.63499 0.0
C854 C 0.21305 0.73834 0.61821 0.0
C855 C 0.15144 0.74144 0.61819 0.0
C856 C 0.1173 0.73169 0.6122 0.0
C857 C 0.21461 0.7595 0.63027 0.0
C858 C 0.1842 0.77211 0.63627 0.0
C859 C 0.15298 0.76274 0.63023 0.0
C860 C 0.18447 0.79359 0.64928 0.0
C861 C 0.24873 0.76781 0.63667 0.0
C862 C 0.17252 0.78037 0.66225 0.0
C863 C 0.17575 0.79902 0.67488 0.0
C864 C 0.19073 0.8314 0.67476 0.0
C865 C 0.2012 0.84529 0.66163 0.0
C866 C 0.19817 0.82646 0.64899 0.0
H867 H 0.26917 0.75136 0.63233 0.0
H868 H 0.2552 0.79457 0.63422 0.0
H869 H 0.24807 0.76498 0.64849 0.0
H870 H 0.16178 0.7551 0.66268 0.0
H871 H 0.1673 0.78766 0.68481 0.0
H872 H 0.72076 0.82143 0.43732 0.0
H873 H 0.75322 0.82671 0.4152 0.0
H874 H 0.6633 0.80522 0.39062 0.0
H875 H 0.63041 0.79963 0.41281 0.0
H876 H 0.75652 0.77037 0.39394 0.0
H877 H 0.70884 0.89254 0.37191 0.0
H878 H 0.7065 0.88233 0.39074 0.0
H879 H 0.67786 0.86267 0.37837 0.0
C880 C 0.70767 0.81826 0.42723 0.0
C881 C 0.67297 0.81004 0.42683 0.0
C882 C 0.72633 0.82126 0.4146 0.0
C883 C 0.71062 0.81651 0.40131 0.0
C884 C 0.67577 0.80932 0.4008 0.0
H885 H 0.77799 0.81116 0.31372 0.0
H886 H 0.74693 0.81601 0.33617 0.0
C887 C 0.65705 0.80608 0.41347 0.0
C888 C 0.73133 0.81673 0.3881 0.0
H889 H 0.74659 0.86113 0.35744 0.0
C890 C 0.75452 0.79025 0.38596 0.0
C891 C 0.72845 0.84263 0.37775 0.0
C892 C 0.70425 0.87186 0.37975 0.0
C893 C 0.77446 0.78852 0.37354 0.0
C894 C 0.77188 0.81462 0.36318 0.0
C895 C 0.74876 0.84126 0.36541 0.0
C896 C 0.79153 0.81376 0.34961 0.0
C897 C 0.79714 0.75807 0.37143 0.0
C898 C 0.82714 0.81173 0.34963 0.0
C899 C 0.84505 0.80852 0.33676 0.0
C900 C 0.82767 0.80791 0.32364 0.0
C901 C 0.79219 0.81149 0.32364 0.0
C902 C 0.77434 0.8143 0.33648 0.0
H903 H 0.78931 0.73643 0.37829 0.0
H904 H 0.79699 0.74958 0.36011 0.0
H905 H 0.82351 0.76493 0.37437 0.0
H906 H 0.84106 0.81221 0.35961 0.0
H907 H 0.87239 0.8061 0.33709 0.0
H908 H 0.83731 0.21342 0.6849 0.0
H909 H 0.84332 0.24642 0.66289 0.0
H910 H 0.79732 0.16523 0.63888 0.0
H911 H 0.79134 0.13183 0.66089 0.0
H912 H 0.87472 0.22809 0.63424 0.0
H913 H 0.73588 0.25369 0.63385 0.0
H914 H 0.75807 0.24003 0.64974 0.0
H915 H 0.74887 0.21016 0.6358 0.0
C916 C 0.82893 0.20233 0.67491 0.0
C917 C 0.81364 0.1701 0.67464 0.0
C918 C 0.83245 0.22121 0.66235 0.0
C919 C 0.82046 0.20836 0.64932 0.0
C920 C 0.80653 0.17561 0.64888 0.0
H921 H 0.83214 0.28756 0.56322 0.0
H922 H 0.83944 0.25467 0.58516 0.0
C923 C 0.80326 0.15654 0.66144 0.0
C924 C 0.82046 0.2302 0.63644 0.0
H925 H 0.7678 0.27538 0.6146 0.0
C926 C 0.8514 0.23841 0.6299 0.0
C927 C 0.79 0.24401 0.631 0.0
C928 C 0.75624 0.23683 0.63796 0.0
C929 C 0.85259 0.25971 0.61784 0.0
C930 C 0.82203 0.27298 0.61223 0.0
C931 C 0.79118 0.26514 0.61893 0.0
C932 C 0.82119 0.29432 0.59918 0.0
C933 C 0.88647 0.26818 0.61128 0.0
C934 C 0.80863 0.32762 0.59978 0.0
C935 C 0.80447 0.34656 0.58724 0.0
C936 C 0.81238 0.33231 0.57386 0.0
C937 C 0.82587 0.2993 0.57335 0.0
C938 C 0.83022 0.28049 0.58589 0.0
H939 H 0.90774 0.26276 0.61873 0.0
H940 H 0.89017 0.25262 0.60151 0.0
H941 H 0.88755 0.29531 0.60812 0.0
H942 H 0.80135 0.33866 0.60994 0.0
H943 H 0.79389 0.37185 0.58798 0.0
H944 H 0.19811 0.34864 0.93312 0.0
H945 H 0.23076 0.35712 0.91116 0.0
H946 H 0.17666 0.27437 0.8913 0.0
H947 H 0.14236 0.26765 0.91289 0.0
H948 H 0.27388 0.31962 0.89966 0.0
H949 H 0.17442 0.33709 0.85891 0.0
H950 H 0.1649 0.33735 0.87776 0.0
H951 H 0.16787 0.29782 0.8681 0.0
C952 C 0.19265 0.3329 0.9239 0.0
C953 C 0.16751 0.30776 0.92461 0.0
C954 C 0.21143 0.33761 0.91137 0.0
C955 C 0.20604 0.31673 0.89939 0.0
C956 C 0.18066 0.29169 0.90012 0.0
H957 H 0.36142 0.26997 0.83683 0.0
H958 H 0.32703 0.27594 0.85842 0.0
C959 C 0.16114 0.28768 0.91251 0.0
C960 C 0.2287 0.31944 0.88665 0.0
H961 H 0.22914 0.31973 0.85014 0.0
C962 C 0.26398 0.32019 0.88884 0.0
C963 C 0.21612 0.32084 0.87247 0.0
C964 C 0.17875 0.32363 0.8692 0.0
C965 C 0.28687 0.32143 0.87734 0.0
C966 C 0.27432 0.3201 0.86315 0.0
C967 C 0.23903 0.32026 0.86096 0.0
C968 C 0.29703 0.31795 0.85041 0.0
C969 C 0.32418 0.32485 0.88063 0.0
C970 C 0.29134 0.3389 0.83847 0.0
C971 C 0.31021 0.33462 0.82594 0.0
C972 C 0.33571 0.30985 0.82518 0.0
C973 C 0.34237 0.28974 0.83724 0.0
C974 C 0.32279 0.29331 0.84964 0.0
H975 H 0.32825 0.33824 0.89095 0.0
H976 H 0.33553 0.29921 0.88167 0.0
H977 H 0.3378 0.33892 0.8721 0.0
H978 H 0.27171 0.35811 0.83872 0.0
H979 H 0.3045 0.35036 0.81675 0.0
H980 H 0.30229 0.62583 0.16118 0.0
H981 H 0.30982 0.65772 0.13887 0.0
H982 H 0.32557 0.74945 0.16312 0.0
H983 H 0.31903 0.71779 0.18532 0.0
H984 H 0.27064 0.70862 0.12932 0.0
H985 H 0.40194 0.75628 0.1349 0.0
H986 H 0.38514 0.72306 0.14614 0.0
H987 H 0.37618 0.76687 0.15006 0.0
C988 C 0.30799 0.65267 0.16174 0.0
C989 C 0.31017 0.66923 0.17502 0.0
C990 C 0.31222 0.67088 0.149 0.0
C991 C 0.31879 0.70593 0.1493 0.0
C992 C 0.32146 0.72232 0.16257 0.0
H993 H 0.30071 0.86799 0.08679 0.0
H994 H 0.30668 0.83435 0.10878 0.0
C995 C 0.31745 0.70416 0.17529 0.0
C996 C 0.32009 0.72593 0.13583 0.0
H997 H 0.36738 0.78382 0.11724 0.0
C998 C 0.29197 0.72474 0.12662 0.0
C999 C 0.34789 0.74712 0.1323 0.0
C1000 C 0.37963 0.74818 0.1413 0.0
C1001 C 0.29058 0.74468 0.1142 0.0
C1002 C 0.31801 0.76632 0.11087 0.0
C1003 C 0.34628 0.76738 0.11994 0.0
C1004 C 0.31775 0.7874 0.09777 0.0
C1005 C 0.25957 0.74296 0.10477 0.0
C1006 C 0.32284 0.77222 0.0844 0.0
C1007 C 0.31962 0.79128 0.07189 0.0
C1008 C 0.31112 0.82592 0.0725 0.0
C1009 C 0.30727 0.84139 0.08596 0.0
C1010 C 0.31066 0.82224 0.09852 0.0
H1011 H 0.23864 0.72837 0.10981 0.0
H1012 H 0.25036 0.76891 0.10227 0.0
H1013 H 0.26631 0.73052 0.09451 0.0
H1014 H 0.32847 0.74538 0.08364 0.0
H1015 H 0.32282 0.77856 0.06171 0.0
H1016 H 0.86775 0.69993 0.91272 0.0
H1017 H 0.83401 0.69394 0.89076 0.0
H1018 H 0.74722 0.66438 0.91583 0.0
H1019 H 0.78053 0.67003 0.93772 0.0
H1020 H 0.78693 0.63106 0.88148 0.0
H1021 H 0.72426 0.75559 0.89129 0.0
H1022 H 0.7656 0.74562 0.89847 0.0
H1023 H 0.72847 0.72659 0.90607 0.0
C1024 C 0.84165 0.69164 0.91353 0.0
C1025 C 0.82679 0.68563 0.92697 0.0
C1026 C 0.82244 0.68825 0.901 0.0
C1027 C 0.78813 0.67898 0.90174 0.0
C1028 C 0.77363 0.67171 0.91507 0.0
H1029 H 0.62608 0.69269 0.83831 0.0
H1030 H 0.65785 0.68458 0.86062 0.0
C1031 C 0.79277 0.67493 0.92756 0.0
C1032 C 0.76679 0.67874 0.88873 0.0
H1033 H 0.70644 0.72467 0.87116 0.0
C1034 C 0.76931 0.65147 0.87918 0.0
C1035 C 0.7436 0.70521 0.88592 0.0
C1036 C 0.74021 0.7351 0.8959 0.0
C1037 C 0.74908 0.64996 0.86681 0.0
C1038 C 0.72641 0.67693 0.86377 0.0
C1039 C 0.7237 0.70397 0.87348 0.0
C1040 C 0.70659 0.67864 0.85026 0.0
C1041 C 0.75182 0.61921 0.85727 0.0
C1042 C 0.72333 0.67791 0.83702 0.0
C1043 C 0.70525 0.68219 0.82431 0.0
C1044 C 0.67004 0.68788 0.82454 0.0
C1045 C 0.65315 0.68824 0.83778 0.0
C1046 C 0.67129 0.68367 0.85053 0.0
H1047 H 0.76077 0.59668 0.86333 0.0
H1048 H 0.72712 0.61301 0.85221 0.0
H1049 H 0.77057 0.62434 0.84869 0.0
H1050 H 0.75061 0.67509 0.83651 0.0
H1051 H 0.71914 0.68208 0.81432 0.0
H1052 H 0.70667 0.12839 0.08843 0.0
H1053 H 0.70016 0.16193 0.11036 0.0
H1054 H 0.66049 0.24533 0.08568 0.0
H1055 H 0.66691 0.21212 0.06377 0.0
H1056 H 0.73351 0.22626 0.11447 0.0
H1057 H 0.59358 0.23634 0.11993 0.0
H1058 H 0.61381 0.2037 0.10938 0.0
H1059 H 0.6102 0.24605 0.10249 0.0
C1060 C 0.69596 0.15362 0.08771 0.0
C1061 C 0.68733 0.16762 0.07437 0.0
C1062 C 0.69235 0.17277 0.10024 0.0
C1063 C 0.67962 0.20601 0.09964 0.0
C1064 C 0.6699 0.21958 0.0864 0.0
H1065 H 0.71025 0.36894 0.16129 0.0
H1066 H 0.70432 0.33555 0.13927 0.0
C1067 C 0.67372 0.20058 0.07388 0.0
C1068 C 0.67913 0.22751 0.11265 0.0
H1069 H 0.62678 0.27142 0.13515 0.0
C1070 C 0.71019 0.23606 0.11902 0.0
C1071 C 0.64864 0.24019 0.11855 0.0
C1072 C 0.61458 0.23096 0.11234 0.0
C1073 C 0.71162 0.2573 0.13105 0.0
C1074 C 0.6812 0.2705 0.1368 0.0
C1075 C 0.65007 0.26158 0.13058 0.0
C1076 C 0.68139 0.29229 0.14971 0.0
C1077 C 0.74562 0.26516 0.13767 0.0
C1078 C 0.66946 0.2794 0.16274 0.0
C1079 C 0.67291 0.2983 0.1753 0.0
C1080 C 0.68807 0.33059 0.17504 0.0
C1081 C 0.69844 0.34417 0.16184 0.0
C1082 C 0.69522 0.32509 0.14927 0.0
H1083 H 0.766 0.24847 0.13346 0.0
H1084 H 0.7525 0.29186 0.13528 0.0
H1085 H 0.74447 0.2623 0.14948 0.0
H1086 H 0.65865 0.25418 0.16328 0.0
H1087 H 0.66454 0.28717 0.18529 0.0
H1088 H 0.90958 0.88486 0.29911 0.0
H1089 H 0.94091 0.93806 0.30156 0.0
H1090 H 0.93867 0.95141 0.25579 0.0
H1091 H 0.90703 0.89873 0.25321 0.0
H1092 H 0.00407 0.94987 0.29012 0.0
H1093 H 0.91299 0.04524 0.2699 0.0
H1094 H 0.90019 0.00303 0.27509 0.0
H1095 H 0.91844 0.01051 0.25772 0.0
C1096 C 0.91508 0.89944 0.28957 0.0
C1097 C 0.90578 0.88735 0.27595 0.0
C1098 C 0.93311 0.92982 0.29101 0.0
C1099 C 0.9419 0.94885 0.27888 0.0
C1100 C 0.93161 0.93751 0.26533 0.0
H1101 H 0.07355 0.10949 0.25357 0.0
H1102 H 0.03686 0.06008 0.25597 0.0
C1103 C 0.91362 0.9072 0.26388 0.0
C1104 C 0.96428 0.97893 0.28017 0.0
H1105 H 0.97151 0.06204 0.27043 0.0
C1106 C 0.9968 0.97455 0.28603 0.0
C1107 C 0.95472 0.0111 0.27483 0.0
C1108 C 0.91955 0.01789 0.26917 0.0
C1109 C 0.02054 0.00111 0.28608 0.0
C1110 C 0.01137 0.03284 0.28024 0.0
C1111 C 0.97853 0.03754 0.2748 0.0
C1112 C 0.03582 0.06121 0.27909 0.0
C1113 C 0.05568 0.99472 0.29185 0.0
C1114 C 0.04783 0.0779 0.29133 0.0
C1115 C 0.06892 0.10629 0.29003 0.0
C1116 C 0.07827 0.11852 0.27642 0.0
C1117 C 0.06697 0.10091 0.26422 0.0
C1118 C 0.04586 0.07268 0.26555 0.0
H1119 H 0.06048 0.96733 0.29377 0.0
H1120 H 0.07513 0.00451 0.28432 0.0
H1121 H 0.05877 0.00838 0.30215 0.0
H1122 H 0.04007 0.0696 0.30188 0.0
H1123 H 0.077 0.11923 0.29966 0.0
H1124 H 0.89124 0.07881 0.74625 0.0
H1125 H 0.94187 0.04367 0.74408 0.0
H1126 H 0.93635 0.05082 0.69813 0.0
H1127 H 0.88561 0.08619 0.70012 0.0
H1128 H 0.94192 0.97983 0.72875 0.0
H1129 H 0.03755 0.07109 0.70785 0.0
H1130 H -0.00053 0.08474 0.71691 0.0
H1131 H 0.99731 0.06981 0.69881 0.0
C1132 C 0.90101 0.07351 0.73566 0.0
C1133 C 0.88414 0.08532 0.72335 0.0
C1134 C 0.92994 0.05329 0.73445 0.0
C1135 C 0.94284 0.04472 0.72096 0.0
C1136 C 0.92698 0.05747 0.70865 0.0
H1137 H 0.1186 0.91867 0.69978 0.0
H1138 H 0.06623 0.95161 0.69778 0.0
C1139 C 0.89792 0.07765 0.70983 0.0
C1140 C 0.97149 0.02059 0.71984 0.0
H1141 H 0.05482 0.01415 0.71041 0.0
C1142 C 0.96661 0.98727 0.72471 0.0
C1143 C 0.00346 0.03031 0.7144 0.0
C1144 C 0.01006 0.06597 0.70926 0.0
C1145 C 0.99302 0.96345 0.72444 0.0
C1146 C 0.02537 0.97346 0.71946 0.0
C1147 C 0.03 0.00654 0.71423 0.0
C1148 C 0.05526 0.95075 0.72045 0.0
C1149 C 0.986 0.92775 0.72944 0.0
C1150 C 0.06625 0.93903 0.73383 0.0
C1151 C 0.09605 0.92013 0.73503 0.0
C1152 C 0.11573 0.91276 0.72286 0.0
C1153 C 0.10408 0.92371 0.70938 0.0
C1154 C 0.07422 0.94268 0.70821 0.0
H1155 H 0.95864 0.92139 0.72855 0.0
H1156 H 0.00081 0.90895 0.72318 0.0
H1157 H 0.9933 0.9254 0.74086 0.0
H1158 H 0.05238 0.9455 0.74346 0.0
H1159 H 0.1042 0.91229 0.74559 0.0
H1160 H 0.08461 0.39202 0.99559 0.0
H1161 H 0.05089 0.44351 0.99325 0.0
H1162 H 0.0494 0.43137 0.94742 0.0
H1163 H 0.08279 0.37933 0.94962 0.0
H1164 H 0.06192 0.5038 0.97848 0.0
H1165 H 0.94847 0.4359 0.9577 0.0
H1166 H 0.98393 0.41394 0.96564 0.0
H1167 H 0.98688 0.4299 0.94768 0.0
C1168 C 0.07744 0.40032 0.98498 0.0
C1169 C 0.08619 0.38121 0.97281 0.0
C1170 C 0.05811 0.42982 0.98367 0.0
C1171 C 0.04704 0.44085 0.97019 0.0
C1172 C 0.05703 0.42284 0.95795 0.0
H1173 H 0.91588 0.61481 0.95096 0.0
H1174 H 0.95174 0.5644 0.94851 0.0
C1175 C 0.07636 0.39323 0.95924 0.0
C1176 C 0.02447 0.47081 0.96915 0.0
H1177 H 0.94389 0.49519 0.96042 0.0
C1178 C 0.03619 0.50196 0.97445 0.0
C1179 C 0.99089 0.46832 0.96388 0.0
C1180 C 0.97656 0.4352 0.9585 0.0
C1181 C 0.01511 0.5306 0.97481 0.0
C1182 C 0.98131 0.52787 0.96991 0.0
C1183 C 0.96983 0.49706 0.96419 0.0
C1184 C 0.9572 0.55644 0.97128 0.0
C1185 C 0.02909 0.56357 0.9805 0.0
C1186 C 0.94746 0.56778 0.98488 0.0
C1187 C 0.92689 0.59638 0.98634 0.0
C1188 C 0.91565 0.61428 0.9742 0.0
C1189 C 0.92414 0.60178 0.96055 0.0
C1190 C 0.94468 0.57302 0.95911 0.0
H1191 H 0.05726 0.5637 0.98056 0.0
H1192 H 0.01999 0.58536 0.97402 0.0
H1193 H 0.02022 0.56725 0.99166 0.0
H1194 H 0.95642 0.5549 0.9944 0.0
H1195 H 0.92077 0.60503 0.99703 0.0
H1196 H 0.39328 0.91473 0.00159 0.0
H1197 H 0.44416 0.94951 0.00371 0.0
H1198 H 0.43482 0.94829 0.04965 0.0
H1199 H 0.38386 0.91325 0.04771 0.0
H1200 H 0.44379 0.01476 0.017 0.0
H1201 H 0.53632 0.92712 0.04253 0.0
H1202 H 0.49874 0.91215 0.03346 0.0
H1203 H 0.49553 0.93036 0.05101 0.0
C1204 C 0.40228 0.92124 0.01219 0.0
C1205 C 0.38426 0.9112 0.02448 0.0
C1206 C 0.43137 0.94125 0.01336 0.0
C1207 C 0.44327 0.95143 0.02682 0.0
C1208 C 0.42628 0.94036 0.03916 0.0
H1209 H 0.61577 0.08109 0.04874 0.0
H1210 H 0.56333 0.04813 0.05021 0.0
C1211 C 0.39709 0.92034 0.03801 0.0
C1212 C 0.47194 0.97562 0.02781 0.0
H1213 H 0.55386 0.98379 0.03907 0.0
C1214 C 0.46786 0.00803 0.02184 0.0
C1215 C 0.50312 0.96687 0.03428 0.0
C1216 C 0.50898 0.93218 0.04061 0.0
C1217 C 0.49426 0.03188 0.02204 0.0
C1218 C 0.52582 0.02282 0.02812 0.0
C1219 C 0.52964 0.99068 0.03441 0.0
C1220 C 0.55579 0.0455 0.02732 0.0
C1221 C 0.48801 0.06664 0.01582 0.0
C1222 C 0.56874 0.0553 0.01397 0.0
C1223 C 0.59859 0.07424 0.01307 0.0
C1224 C 0.61637 0.08355 0.02552 0.0
C1225 C 0.60276 0.07452 0.03892 0.0
C1226 C 0.57284 0.05553 0.0398 0.0
H1227 H 0.46057 0.07303 0.01579 0.0
H1228 H 0.50187 0.08649 0.02188 0.0
H1229 H 0.497 0.06711 0.00457 0.0
H1230 H 0.55639 0.0473 0.00419 0.0
H1231 H 0.60828 0.08054 0.00256 0.0
H1232 H 0.42353 0.37972 0.79957 0.0
H1233 H 0.45982 0.42987 0.80136 0.0
H1234 H 0.45794 0.44077 0.75549 0.0
H1235 H 0.4219 0.39074 0.75352 0.0
H1236 H 0.52432 0.43975 0.76816 0.0
H1237 H 0.43783 0.5317 0.7948 0.0
H1238 H 0.44155 0.4906 0.803 0.0
H1239 H 0.42242 0.49441 0.78565 0.0
C1240 C 0.4303 0.39308 0.78986 0.0
C1241 C 0.41978 0.38102 0.77639 0.0
C1242 C 0.45104 0.42179 0.79092 0.0
C1243 C 0.46147 0.43903 0.77855 0.0
C1244 C 0.45017 0.42776 0.76516 0.0
H1245 H 0.58708 0.60519 0.75285 0.0
H1246 H 0.55538 0.55239 0.7549 0.0
C1247 C 0.42944 0.39917 0.76407 0.0
C1248 C 0.48569 0.46767 0.7794 0.0
H1249 H 0.49391 0.54969 0.79052 0.0
C1250 C 0.51775 0.46379 0.77308 0.0
C1251 C 0.47713 0.49879 0.78596 0.0
C1252 C 0.44281 0.50443 0.79267 0.0
C1253 C 0.5414 0.49038 0.773 0.0
C1254 C 0.53245 0.52191 0.77915 0.0
C1255 C 0.50072 0.52549 0.78581 0.0
C1256 C 0.55471 0.55213 0.77805 0.0
C1257 C 0.57579 0.48437 0.7664 0.0
C1258 C 0.56492 0.56963 0.79039 0.0
C1259 C 0.58296 0.60006 0.78927 0.0
C1260 C 0.59089 0.61375 0.77575 0.0
C1261 C 0.5816 0.59546 0.76343 0.0
C1262 C 0.56356 0.56509 0.76458 0.0
H1263 H 0.58246 0.45699 0.7664 0.0
H1264 H 0.57543 0.49312 0.75512 0.0
H1265 H 0.59587 0.49858 0.77218 0.0
H1266 H 0.55826 0.56012 0.80089 0.0
H1267 H 0.58963 0.6134 0.79899 0.0
H1268 H 0.61672 0.4169 0.20037 0.0
H1269 H 0.56619 0.45274 0.19854 0.0
H1270 H 0.5575 0.45414 0.24449 0.0
H1271 H 0.60781 0.41851 0.24651 0.0
H1272 H 0.49754 0.44449 0.21015 0.0
H1273 H 0.56592 0.55579 0.23232 0.0
H1274 H 0.58761 0.51894 0.22539 0.0
H1275 H 0.56896 0.51789 0.24292 0.0
C1276 C 0.60383 0.42439 0.2101 0.0
C1277 C 0.61665 0.41504 0.2236 0.0
C1278 C 0.575 0.44495 0.20901 0.0
C1279 C 0.55864 0.45662 0.22139 0.0
C1280 C 0.57022 0.44589 0.23482 0.0
H1281 H 0.39308 0.58315 0.24616 0.0
H1282 H 0.44472 0.54956 0.24398 0.0
C1283 C 0.59891 0.42533 0.23594 0.0
C1284 C 0.53009 0.48089 0.22038 0.0
H1285 H 0.50616 0.56096 0.22997 0.0
C1286 C 0.49942 0.47008 0.21433 0.0
C1287 C 0.53282 0.51427 0.22581 0.0
C1288 C 0.56567 0.52764 0.23187 0.0
C1289 C 0.47084 0.49136 0.21413 0.0
C1290 C 0.47334 0.52451 0.21987 0.0
C1291 C 0.50432 0.53556 0.22558 0.0
C1292 C 0.44356 0.54734 0.22087 0.0
C1293 C 0.43786 0.4777 0.20831 0.0
C1294 C 0.42642 0.55832 0.20856 0.0
C1295 C 0.39677 0.57761 0.20974 0.0
C1296 C 0.38379 0.58638 0.22328 0.0
C1297 C 0.40213 0.57679 0.23555 0.0
C1298 C 0.4317 0.55752 0.23435 0.0
H1299 H 0.43835 0.44965 0.2072 0.0
H1300 H 0.41634 0.4848 0.21536 0.0
H1301 H 0.43316 0.48876 0.19758 0.0
H1302 H 0.43561 0.55139 0.19804 0.0
H1303 H 0.38348 0.58467 0.20005 0.0
H1304 H 0.42188 0.10957 0.49517 0.0
H1305 H 0.45822 0.05989 0.49283 0.0
H1306 H 0.45702 0.0704 0.44695 0.0
H1307 H 0.42051 0.12046 0.4491 0.0
H1308 H 0.44797 0.00051 0.45899 0.0
H1309 H 0.56027 0.0695 0.47992 0.0
H1310 H 0.52243 0.07352 0.4905 0.0
H1311 H 0.52353 0.09099 0.47277 0.0
C1312 C 0.42895 0.10127 0.48454 0.0
C1313 C 0.41844 0.11933 0.47232 0.0
C1314 C 0.44989 0.07291 0.48325 0.0
C1315 C 0.46073 0.06195 0.46975 0.0
C1316 C 0.44909 0.07874 0.45747 0.0
H1317 H 0.58694 0.88386 0.45035 0.0
H1318 H 0.5543 0.93616 0.44745 0.0
C1319 C 0.42819 0.10729 0.45874 0.0
C1320 C 0.48495 0.03344 0.46862 0.0
H1321 H 0.56502 0.00955 0.47812 0.0
C1322 C 0.47372 0.00247 0.46298 0.0
C1323 C 0.51847 0.0363 0.47383 0.0
C1324 C 0.53212 0.06943 0.47949 0.0
C1325 C 0.49473 0.9737 0.46305 0.0
C1326 C 0.52801 0.97631 0.46864 0.0
C1327 C 0.53952 0.00763 0.47385 0.0
C1328 C 0.55038 0.94632 0.47013 0.0
C1329 C 0.48063 0.9404 0.45775 0.0
C1330 C 0.56035 0.9356 0.4838 0.0
C1331 C 0.57924 0.90594 0.48552 0.0
C1332 C 0.58864 0.88636 0.47357 0.0
C1333 C 0.58001 0.89813 0.45981 0.0
C1334 C 0.5611 0.92789 0.45812 0.0
H1335 H 0.4526 0.94117 0.45661 0.0
H1336 H 0.49167 0.93456 0.44712 0.0
H1337 H 0.48741 0.91944 0.46515 0.0
H1338 H 0.55255 0.94963 0.49321 0.0
H1339 H 0.58551 0.89783 0.49627 0.0
H1340 H 0.88821 0.42266 0.50203 0.0
H1341 H 0.93959 0.45684 0.50379 0.0
H1342 H 0.93415 0.45252 0.5498 0.0
H1343 H 0.88274 0.41806 0.54822 0.0
H1344 H 0.94184 0.52105 0.51776 0.0
H1345 H 0.03442 0.42989 0.54094 0.0
H1346 H 0.99573 0.41633 0.53233 0.0
H1347 H 0.99452 0.43342 0.55012 0.0
C1348 C 0.89815 0.4284 0.51255 0.0
C1349 C 0.88114 0.4176 0.52499 0.0
C1350 C 0.92752 0.44807 0.51352 0.0
C1351 C 0.94071 0.45713 0.52691 0.0
C1352 C 0.92462 0.44544 0.53935 0.0
H1353 H 0.11656 0.58245 0.54837 0.0
H1354 H 0.06368 0.55023 0.54996 0.0
C1355 C 0.89516 0.42577 0.53841 0.0
C1356 C 0.96994 0.48067 0.52776 0.0
H1357 H 0.05276 0.48651 0.53808 0.0
C1358 C 0.96611 0.51353 0.52221 0.0
C1359 C 0.00139 0.47088 0.53371 0.0
C1360 C 0.00704 0.43565 0.53954 0.0
C1361 C 0.99299 0.53685 0.52235 0.0
C1362 C 0.02474 0.52679 0.52795 0.0
C1363 C 0.02837 0.49417 0.5338 0.0
C1364 C 0.05505 0.549 0.52711 0.0
C1365 C 0.98705 0.57211 0.5166 0.0
C1366 C 0.06753 0.55931 0.51375 0.0
C1367 C 0.09765 0.5778 0.51279 0.0
C1368 C 0.11614 0.58617 0.52518 0.0
C1369 C 0.103 0.57662 0.5386 0.0
C1370 C 0.07283 0.55806 0.53954 0.0
H1371 H 0.95973 0.57896 0.51686 0.0
H1372 H 0.00152 0.59129 0.5228 0.0
H1373 H 0.99559 0.57321 0.5053 0.0
H1374 H 0.05458 0.55207 0.504 0.0
H1375 H 0.10696 0.58455 0.50227 0.0
loop_
_geom_bond_atom_site_label_1
_geom_bond_atom_site_label_2
_geom_bond_distance
_geom_bond_site_symmetry_2
_ccdc_geom_bond_type
Co0 O1 2.216 . S
Co0 O2 2.091 . S
Co0 O4 2.004 . S
Co0 O10 2.021 . S
Co0 O12 2.137 . S
Co0 O13 2.244 . S
O1 Co0 2.216 . S
O1 C8 1.247 . S
O2 Co0 2.091 . S
O2 C8 1.261 . S
C3 O12 1.247 . S
C3 O13 1.272 . S
O4 Co0 2.004 . S
O4 C9 1.259 . S
Co5 O6 2.061 . S
Co5 O11 2.052 . S
Co5 O13 2.135 . S
O6 Co5 2.061 . S
O6 C9 1.235 . S
C7 O10 1.238 . S
C7 O11 1.241 . S
C8 O1 1.247 . S
C8 O2 1.261 . S
C9 O4 1.259 . S
C9 O6 1.235 . S
O10 Co0 2.021 . S
O10 C7 1.238 . S
O11 Co5 2.052 . S
O11 C7 1.241 . S
O12 Co0 2.137 . S
O12 C3 1.247 . S
O13 Co0 2.244 . S
O13 C3 1.272 . S
O13 Co5 2.135 . S
Co14 O15 2.216 . S
Co14 O16 2.091 . S
Co14 O18 2.004 . S
Co14 O24 2.021 . S
Co14 O26 2.137 . S
Co14 O27 2.244 . S
O15 Co14 2.216 . S
O15 C22 1.247 . S
O16 Co14 2.091 . S
O16 C22 1.261 . S
C17 O26 1.247 . S
C17 O27 1.272 . S
O18 Co14 2.004 . S
O18 C23 1.259 . S
Co19 O20 2.061 . S
Co19 O25 2.052 . S
Co19 O27 2.135 . S
O20 Co19 2.061 . S
O20 C23 1.235 . S
C21 O24 1.238 . S
C21 O25 1.241 . S
C22 O15 1.247 . S
C22 O16 1.261 . S
C23 O18 1.259 . S
C23 O20 1.235 . S
O24 Co14 2.021 . S
O24 C21 1.238 . S
O25 Co19 2.052 . S
O25 C21 1.241 . S
O26 Co14 2.137 . S
O26 C17 1.247 . S
O27 Co14 2.244 . S
O27 C17 1.272 . S
O27 Co19 2.135 . S
Co28 O29 2.216 . S
Co28 O30 2.091 . S
Co28 O32 2.004 . S
Co28 O38 2.021 . S
Co28 O40 2.137 . S
Co28 O41 2.244 . S
O29 Co28 2.216 . S
O29 C36 1.247 . S
O30 Co28 2.091 . S
O30 C36 1.261 . S
C31 O40 1.247 . S
C31 O41 1.272 . S
O32 Co28 2.004 . S
O32 C37 1.259 . S
Co33 O34 2.061 . S
Co33 O39 2.052 . S
Co33 O41 2.135 . S
O34 Co33 2.061 . S
O34 C37 1.235 . S
C35 O38 1.238 . S
C35 O39 1.241 . S
C36 O29 1.247 . S
C36 O30 1.261 . S
C37 O32 1.259 . S
C37 O34 1.235 . S
O38 Co28 2.021 . S
O38 C35 1.238 . S
O39 Co33 2.052 . S
O39 C35 1.241 . S
O40 Co28 2.137 . S
O40 C31 1.247 . S
O41 Co28 2.244 . S
O41 C31 1.272 . S
O41 Co33 2.135 . S
Co42 O43 2.216 . S
Co42 O44 2.091 . S
Co42 O46 2.004 . S
Co42 O52 2.021 . S
Co42 O54 2.137 . S
Co42 O55 2.244 . S
O43 Co42 2.216 . S
O43 C50 1.247 . S
O44 Co42 2.091 . S
O44 C50 1.261 . S
C45 O54 1.247 . S
C45 O55 1.272 . S
O46 Co42 2.004 . S
O46 C51 1.259 . S
Co47 O48 2.061 . S
Co47 O53 2.052 . S
Co47 O55 2.135 . S
O48 Co47 2.061 . S
O48 C51 1.235 . S
C49 O52 1.238 . S
C49 O53 1.241 . S
C50 O43 1.247 . S
C50 O44 1.261 . S
C51 O46 1.259 . S
C51 O48 1.235 . S
O52 Co42 2.021 . S
O52 C49 1.238 . S
O53 Co47 2.052 . S
O53 C49 1.241 . S
O54 Co42 2.137 . S
O54 C45 1.247 . S
O55 Co42 2.244 . S
O55 C45 1.272 . S
O55 Co47 2.135 . S
Co56 O57 2.216 . S
Co56 O58 2.091 . S
Co56 O60 2.004 . S
Co56 O66 2.021 . S
Co56 O68 2.137 . S
Co56 O69 2.244 . S
O57 Co56 2.216 . S
O57 C64 1.247 . S
O58 Co56 2.091 . S
O58 C64 1.261 . S
C59 O68 1.247 . S
C59 O69 1.272 . S
O60 Co56 2.004 . S
O60 C65 1.259 . S
Co61 O62 2.061 . S
Co61 O67 2.052 . S
Co61 O69 2.135 . S
O62 Co61 2.061 . S
O62 C65 1.235 . S
C63 O66 1.238 . S
C63 O67 1.241 . S
C64 O57 1.247 . S
C64 O58 1.261 . S
C65 O60 1.259 . S
C65 O62 1.235 . S
O66 Co56 2.021 . S
O66 C63 1.238 . S
O67 Co61 2.052 . S
O67 C63 1.241 . S
O68 Co56 2.137 . S
O68 C59 1.247 . S
O69 Co56 2.244 . S
O69 C59 1.272 . S
O69 Co61 2.135 . S
Co70 O71 2.216 . S
Co70 O72 2.091 . S
Co70 O74 2.004 . S
Co70 O80 2.021 . S
Co70 O82 2.137 . S
Co70 O83 2.244 . S
O71 Co70 2.216 . S
O71 C78 1.247 . S
O72 Co70 2.091 . S
O72 C78 1.261 . S
C73 O82 1.247 . S
C73 O83 1.272 . S
O74 Co70 2.004 . S
O74 C79 1.259 . S
Co75 O76 2.061 . S
Co75 O81 2.052 . S
Co75 O83 2.135 . S
O76 Co75 2.061 . S
O76 C79 1.235 . S
C77 O80 1.238 . S
C77 O81 1.241 . S
C78 O71 1.247 . S
C78 O72 1.261 . S
C79 O74 1.259 . S
C79 O76 1.235 . S
O80 Co70 2.021 . S
O80 C77 1.238 . S
O81 Co75 2.052 . S
O81 C77 1.241 . S
O82 Co70 2.137 . S
O82 C73 1.247 . S
O83 Co70 2.244 . S
O83 C73 1.272 . S
O83 Co75 2.135 . S
Co84 O85 2.216 . S
Co84 O86 2.091 . S
Co84 O88 2.004 . S
Co84 O94 2.021 . S
Co84 O96 2.137 . S
Co84 O97 2.244 . S
O85 Co84 2.216 . S
O85 C92 1.247 . S
O86 Co84 2.091 . S
O86 C92 1.261 . S
C87 O96 1.247 . S
C87 O97 1.272 . S
O88 Co84 2.004 . S
O88 C93 1.259 . S
Co89 O90 2.061 . S
Co89 O95 2.052 . S
Co89 O97 2.135 . S
O90 Co89 2.061 . S
O90 C93 1.235 . S
C91 O94 1.238 . S
C91 O95 1.241 . S
C92 O85 1.247 . S
C92 O86 1.261 . S
C93 O88 1.259 . S
C93 O90 1.235 . S
O94 Co84 2.021 . S
O94 C91 1.238 . S
O95 Co89 2.052 . S
O95 C91 1.241 . S
O96 Co84 2.137 . S
O96 C87 1.247 . S
O97 Co84 2.244 . S
O97 C87 1.272 . S
O97 Co89 2.135 . S
Co98 O99 2.216 . S
Co98 O100 2.091 . S
Co98 O102 2.004 . S
Co98 O108 2.021 . S
Co98 O110 2.137 . S
Co98 O111 2.244 . S
O99 Co98 2.216 . S
O99 C106 1.247 . S
O100 Co98 2.091 . S
O100 C106 1.261 . S
C101 O110 1.247 . S
C101 O111 1.272 . S
O102 Co98 2.004 . S
O102 C107 1.259 . S
Co103 O104 2.061 . S
Co103 O109 2.052 . S
Co103 O111 2.135 . S
O104 Co103 2.061 . S
O104 C107 1.235 . S
C105 O108 1.238 . S
C105 O109 1.241 . S
C106 O99 1.247 . S
C106 O100 1.261 . S
C107 O102 1.259 . S
C107 O104 1.235 . S
O108 Co98 2.021 . S
O108 C105 1.238 . S
O109 Co103 2.052 . S
O109 C105 1.241 . S
O110 Co98 2.137 . S
O110 C101 1.247 . S
O111 Co98 2.244 . S
O111 C101 1.272 . S
O111 Co103 2.135 . S
Co112 O113 2.216 . S
Co112 O114 2.091 . S
Co112 O116 2.004 . S
Co112 O122 2.021 . S
Co112 O124 2.137 . S
Co112 O125 2.244 . S
O113 Co112 2.216 . S
O113 C120 1.247 . S
O114 Co112 2.091 . S
O114 C120 1.261 . S
C115 O124 1.247 . S
C115 O125 1.272 . S
O116 Co112 2.004 . S
O116 C121 1.259 . S
Co117 O118 2.061 . S
Co117 O123 2.052 . S
Co117 O125 2.135 . S
O118 Co117 2.061 . S
O118 C121 1.235 . S
C119 O122 1.238 . S
C119 O123 1.241 . S
C120 O113 1.247 . S
C120 O114 1.261 . S
C121 O116 1.259 . S
C121 O118 1.235 . S
O122 Co112 2.021 . S
O122 C119 1.238 . S
O123 Co117 2.052 . S
O123 C119 1.241 . S
O124 Co112 2.137 . S
O124 C115 1.247 . S
O125 Co112 2.244 . S
O125 C115 1.272 . S
O125 Co117 2.135 . S
Co126 O127 2.216 . S
Co126 O128 2.091 . S
Co126 O130 2.004 . S
Co126 O136 2.021 . S
Co126 O138 2.137 . S
Co126 O139 2.244 . S
O127 Co126 2.216 . S
O127 C134 1.247 . S
O128 Co126 2.091 . S
O128 C134 1.261 . S
C129 O138 1.247 . S
C129 O139 1.272 . S
O130 Co126 2.004 . S
O130 C135 1.259 . S
Co131 O132 2.061 . S
Co131 O137 2.052 . S
Co131 O139 2.135 . S
O132 Co131 2.061 . S
O132 C135 1.235 . S
C133 O136 1.238 . S
C133 O137 1.241 . S
C134 O127 1.247 . S
C134 O128 1.261 . S
C135 O130 1.259 . S
C135 O132 1.235 . S
O136 Co126 2.021 . S
O136 C133 1.238 . S
O137 Co131 2.052 . S
O137 C133 1.241 . S
O138 Co126 2.137 . S
O138 C129 1.247 . S
O139 Co126 2.244 . S
O139 C129 1.272 . S
O139 Co131 2.135 . S
Co140 O141 2.216 . S
Co140 O142 2.091 . S
Co140 O144 2.004 . S
Co140 O150 2.021 . S
Co140 O152 2.137 . S
Co140 O153 2.244 . S
O141 Co140 2.216 . S
O141 C148 1.247 . S
O142 Co140 2.091 . S
O142 C148 1.261 . S
C143 O152 1.247 . S
C143 O153 1.272 . S
O144 Co140 2.004 . S
O144 C149 1.259 . S
Co145 O146 2.061 . S
Co145 O151 2.052 . S
Co145 O153 2.135 . S
O146 Co145 2.061 . S
O146 C149 1.235 . S
C147 O150 1.238 . S
C147 O151 1.241 . S
C148 O141 1.247 . S
C148 O142 1.261 . S
C149 O144 1.259 . S
C149 O146 1.235 . S
O150 Co140 2.021 . S
O150 C147 1.238 . S
O151 Co145 2.052 . S
O151 C147 1.241 . S
O152 Co140 2.137 . S
O152 C143 1.247 . S
O153 Co140 2.244 . S
O153 C143 1.272 . S
O153 Co145 2.135 . S
Co154 O155 2.216 . S
Co154 O156 2.091 . S
Co154 O158 2.004 . S
Co154 O164 2.021 . S
Co154 O166 2.137 . S
Co154 O167 2.244 . S
O155 Co154 2.216 . S
O155 C162 1.247 . S
O156 Co154 2.091 . S
O156 C162 1.261 . S
C157 O166 1.247 . S
C157 O167 1.272 . S
O158 Co154 2.004 . S
O158 C163 1.259 . S
Co159 O160 2.061 . S
Co159 O165 2.052 . S
Co159 O167 2.135 . S
O160 Co159 2.061 . S
O160 C163 1.235 . S
C161 O164 1.238 . S
C161 O165 1.241 . S
C162 O155 1.247 . S
C162 O156 1.261 . S
C163 O158 1.259 . S
C163 O160 1.235 . S
O164 Co154 2.021 . S
O164 C161 1.238 . S
O165 Co159 2.052 . S
O165 C161 1.241 . S
O166 Co154 2.137 . S
O166 C157 1.247 . S
O167 Co154 2.244 . S
O167 C157 1.272 . S
O167 Co159 2.135 . S
Co168 O169 2.216 . S
Co168 O170 2.091 . S
Co168 O172 2.004 . S
Co168 O178 2.021 . S
Co168 O180 2.137 . S
Co168 O181 2.244 . S
O169 Co168 2.216 . S
O169 C176 1.247 . S
O170 Co168 2.091 . S
O170 C176 1.261 . S
C171 O180 1.247 . S
C171 O181 1.272 . S
O172 Co168 2.004 . S
O172 C177 1.259 . S
Co173 O174 2.061 . S
Co173 O179 2.052 . S
Co173 O181 2.135 . S
O174 Co173 2.061 . S
O174 C177 1.235 . S
C175 O178 1.238 . S
C175 O179 1.241 . S
C176 O169 1.247 . S
C176 O170 1.261 . S
C177 O172 1.259 . S
C177 O174 1.235 . S
O178 Co168 2.021 . S
O178 C175 1.238 . S
O179 Co173 2.052 . S
O179 C175 1.241 . S
O180 Co168 2.137 . S
O180 C171 1.247 . S
O181 Co168 2.244 . S
O181 C171 1.272 . S
O181 Co173 2.135 . S
Co182 O183 2.216 . S
Co182 O184 2.091 . S
Co182 O186 2.004 . S
Co182 O192 2.021 . S
Co182 O194 2.137 . S
Co182 O195 2.244 . S
O183 Co182 2.216 . S
O183 C190 1.247 . S
O184 Co182 2.091 . S
O184 C190 1.261 . S
C185 O194 1.247 . S
C185 O195 1.272 . S
O186 Co182 2.004 . S
O186 C191 1.259 . S
Co187 O188 2.061 . S
Co187 O193 2.052 . S
Co187 O195 2.135 . S
O188 Co187 2.061 . S
O188 C191 1.235 . S
C189 O192 1.238 . S
C189 O193 1.241 . S
C190 O183 1.247 . S
C190 O184 1.261 . S
C191 O186 1.259 . S
C191 O188 1.235 . S
O192 Co182 2.021 . S
O192 C189 1.238 . S
O193 Co187 2.052 . S
O193 C189 1.241 . S
O194 Co182 2.137 . S
O194 C185 1.247 . S
O195 Co182 2.244 . S
O195 C185 1.272 . S
O195 Co187 2.135 . S
Co196 O197 2.216 . S
Co196 O198 2.091 . S
Co196 O200 2.004 . S
Co196 O206 2.021 . S
Co196 O208 2.137 . S
Co196 O209 2.244 . S
O197 Co196 2.216 . S
O197 C204 1.247 . S
O198 Co196 2.091 . S
O198 C204 1.261 . S
C199 O208 1.247 . S
C199 O209 1.272 . S
O200 Co196 2.004 . S
O200 C205 1.259 . S
Co201 O202 2.061 . S
Co201 O207 2.052 . S
Co201 O209 2.135 . S
O202 Co201 2.061 . S
O202 C205 1.235 . S
C203 O206 1.238 . S
C203 O207 1.241 . S
C204 O197 1.247 . S
C204 O198 1.261 . S
C205 O200 1.259 . S
C205 O202 1.235 . S
O206 Co196 2.021 . S
O206 C203 1.238 . S
O207 Co201 2.052 . S
O207 C203 1.241 . S
O208 Co196 2.137 . S
O208 C199 1.247 . S
O209 Co196 2.244 . S
O209 C199 1.272 . S
O209 Co201 2.135 . S
Co210 O211 2.216 . S
Co210 O212 2.091 . S
Co210 O214 2.004 . S
Co210 O220 2.021 . S
Co210 O222 2.137 . S
Co210 O223 2.244 . S
O211 Co210 2.216 . S
O211 C218 1.247 . S
O212 Co210 2.091 . S
O212 C218 1.261 . S
C213 O222 1.247 . S
C213 O223 1.272 . S
O214 Co210 2.004 . S
O214 C219 1.259 . S
Co215 O216 2.061 . S
Co215 O221 2.052 . S
Co215 O223 2.135 . S
O216 Co215 2.061 . S
O216 C219 1.235 . S
C217 O220 1.238 . S
C217 O221 1.241 . S
C218 O211 1.247 . S
C218 O212 1.261 . S
C219 O214 1.259 . S
C219 O216 1.235 . S
O220 Co210 2.021 . S
O220 C217 1.238 . S
O221 Co215 2.052 . S
O221 C217 1.241 . S
O222 Co210 2.137 . S
O222 C213 1.247 . S
O223 Co210 2.244 . S
O223 C213 1.272 . S
O223 Co215 2.135 . S
H224 C232 0.929 . S
H225 C234 0.930 . S
H226 C236 0.930 . S
H227 C239 0.929 . S
H228 C242 0.930 . S
H229 C244 0.960 . S
H230 C244 0.960 . S
H231 C244 0.960 . S
C232 H224 0.929 . S
C232 C233 1.377 . S
C232 C234 1.384 . S
C233 C232 1.377 . S
C233 C239 1.390 . S
C234 H225 0.930 . S
C234 C232 1.384 . S
C234 C235 1.372 . S
C235 C234 1.372 . S
C235 C236 1.400 . S
C235 C240 1.490 . S
C236 H226 0.930 . S
C236 C235 1.400 . S
C236 C239 1.386 . S
H237 C253 0.930 . S
H238 C254 0.931 . S
C239 H227 0.929 . S
C239 C233 1.390 . S
C239 C236 1.386 . S
C240 C235 1.490 . S
C240 C242 1.395 . S
C240 C243 1.403 . S
H241 C247 0.930 . S
C242 H228 0.930 . S
C242 C240 1.395 . S
C242 C245 1.403 . S
C243 C240 1.403 . S
C243 C244 1.524 . S
C243 C247 1.400 . S
C244 H229 0.960 . S
C244 H230 0.960 . S
C244 H231 0.960 . S
C244 C243 1.524 . S
C245 C242 1.403 . S
C245 C246 1.392 . S
C245 C249 1.495 . S
C246 C245 1.392 . S
C246 C247 1.385 . S
C246 C248 1.478 . S
C247 H241 0.930 . S
C247 C243 1.400 . S
C247 C246 1.385 . S
C248 C246 1.478 . S
C248 C250 1.381 . S
C248 C254 1.383 . S
C249 C245 1.495 . S
C249 H255 0.959 . S
C249 H256 0.961 . S
C249 H257 0.960 . S
C250 C248 1.381 . S
C250 C251 1.394 . S
C250 H258 0.930 . S
C251 C250 1.394 . S
C251 C252 1.383 . S
C251 H259 0.929 . S
C252 C251 1.383 . S
C252 C253 1.377 . S
C253 H237 0.930 . S
C253 C252 1.377 . S
C253 C254 1.379 . S
C254 H238 0.931 . S
C254 C248 1.383 . S
C254 C253 1.379 . S
H255 C249 0.959 . S
H256 C249 0.961 . S
H257 C249 0.960 . S
H258 C250 0.930 . S
H259 C251 0.929 . S
H260 C268 0.929 . S
H261 C270 0.930 . S
H262 C272 0.930 . S
H263 C275 0.929 . S
H264 C278 0.930 . S
H265 C280 0.960 . S
H266 C280 0.960 . S
H267 C280 0.960 . S
C268 H260 0.929 . S
C268 C269 1.377 . S
C268 C270 1.384 . S
C269 C268 1.377 . S
C269 C275 1.390 . S
C270 H261 0.930 . S
C270 C268 1.384 . S
C270 C271 1.372 . S
C271 C270 1.372 . S
C271 C272 1.400 . S
C271 C276 1.490 . S
C272 H262 0.930 . S
C272 C271 1.400 . S
C272 C275 1.386 . S
H273 C289 0.930 . S
H274 C290 0.931 . S
C275 H263 0.929 . S
C275 C269 1.390 . S
C275 C272 1.386 . S
C276 C271 1.490 . S
C276 C278 1.395 . S
C276 C279 1.403 . S
H277 C283 0.930 . S
C278 H264 0.930 . S
C278 C276 1.395 . S
C278 C281 1.403 . S
C279 C276 1.403 . S
C279 C280 1.524 . S
C279 C283 1.400 . S
C280 H265 0.960 . S
C280 H266 0.960 . S
C280 H267 0.960 . S
C280 C279 1.524 . S
C281 C278 1.403 . S
C281 C282 1.392 . S
C281 C285 1.495 . S
C282 C281 1.392 . S
C282 C283 1.385 . S
C282 C284 1.478 . S
C283 H277 0.930 . S
C283 C279 1.400 . S
C283 C282 1.385 . S
C284 C282 1.478 . S
C284 C286 1.381 . S
C284 C290 1.383 . S
C285 C281 1.495 . S
C285 H291 0.959 . S
C285 H292 0.961 . S
C285 H293 0.960 . S
C286 C284 1.381 . S
C286 C287 1.394 . S
C286 H294 0.930 . S
C287 C286 1.394 . S
C287 C288 1.383 . S
C287 H295 0.929 . S
C288 C287 1.383 . S
C288 C289 1.377 . S
C289 H273 0.930 . S
C289 C288 1.377 . S
C289 C290 1.379 . S
C290 H274 0.931 . S
C290 C284 1.383 . S
C290 C289 1.379 . S
H291 C285 0.959 . S
H292 C285 0.961 . S
H293 C285 0.960 . S
H294 C286 0.930 . S
H295 C287 0.929 . S
H296 C304 0.929 . S
H297 C306 0.930 . S
H298 C308 0.930 . S
H299 C311 0.929 . S
H300 C314 0.930 . S
H301 C316 0.960 . S
H302 C316 0.960 . S
H303 C316 0.960 . S
C304 H296 0.929 . S
C304 C305 1.377 . S
C304 C306 1.384 . S
C305 C304 1.377 . S
C305 C311 1.390 . S
C306 H297 0.930 . S
C306 C304 1.384 . S
C306 C307 1.372 . S
C307 C306 1.372 . S
C307 C308 1.400 . S
C307 C312 1.490 . S
C308 H298 0.930 . S
C308 C307 1.400 . S
C308 C311 1.386 . S
H309 C325 0.930 . S
H310 C326 0.931 . S
C311 H299 0.929 . S
C311 C305 1.390 . S
C311 C308 1.386 . S
C312 C307 1.490 . S
C312 C314 1.395 . S
C312 C315 1.403 . S
H313 C319 0.930 . S
C314 H300 0.930 . S
C314 C312 1.395 . S
C314 C317 1.403 . S
C315 C312 1.403 . S
C315 C316 1.524 . S
C315 C319 1.400 . S
C316 H301 0.960 . S
C316 H302 0.960 . S
C316 H303 0.960 . S
C316 C315 1.524 . S
C317 C314 1.403 . S
C317 C318 1.392 . S
C317 C321 1.495 . S
C318 C317 1.392 . S
C318 C319 1.385 . S
C318 C320 1.478 . S
C319 H313 0.930 . S
C319 C315 1.400 . S
C319 C318 1.385 . S
C320 C318 1.478 . S
C320 C322 1.381 . S
C320 C326 1.383 . S
C321 C317 1.495 . S
C321 H327 0.959 . S
C321 H328 0.961 . S
C321 H329 0.960 . S
C322 C320 1.381 . S
C322 C323 1.394 . S
C322 H330 0.930 . S
C323 C322 1.394 . S
C323 C324 1.383 . S
C323 H331 0.929 . S
C324 C323 1.383 . S
C324 C325 1.377 . S
C325 H309 0.930 . S
C325 C324 1.377 . S
C325 C326 1.379 . S
C326 H310 0.931 . S
C326 C320 1.383 . S
C326 C325 1.379 . S
H327 C321 0.959 . S
H328 C321 0.961 . S
H329 C321 0.960 . S
H330 C322 0.930 . S
H331 C323 0.929 . S
H332 C340 0.929 . S
H333 C342 0.930 . S
H334 C344 0.930 . S
H335 C347 0.929 . S
H336 C350 0.930 . S
H337 C352 0.960 . S
H338 C352 0.960 . S
H339 C352 0.960 . S
C340 H332 0.929 . S
C340 C341 1.377 . S
C340 C342 1.384 . S
C341 C340 1.377 . S
C341 C347 1.390 . S
C342 H333 0.930 . S
C342 C340 1.384 . S
C342 C343 1.372 . S
C343 C342 1.372 . S
C343 C344 1.400 . S
C343 C348 1.490 . S
C344 H334 0.930 . S
C344 C343 1.400 . S
C344 C347 1.386 . S
H345 C361 0.930 . S
H346 C362 0.931 . S
C347 H335 0.929 . S
C347 C341 1.390 . S
C347 C344 1.386 . S
C348 C343 1.490 . S
C348 C350 1.395 . S
C348 C351 1.403 . S
H349 C355 0.930 . S
C350 H336 0.930 . S
C350 C348 1.395 . S
C350 C353 1.403 . S
C351 C348 1.403 . S
C351 C352 1.524 . S
C351 C355 1.400 . S
C352 H337 0.960 . S
C352 H338 0.960 . S
C352 H339 0.960 . S
C352 C351 1.524 . S
C353 C350 1.403 . S
C353 C354 1.392 . S
C353 C357 1.495 . S
C354 C353 1.392 . S
C354 C355 1.385 . S
C354 C356 1.478 . S
C355 H349 0.930 . S
C355 C351 1.400 . S
C355 C354 1.385 . S
C356 C354 1.478 . S
C356 C358 1.381 . S
C356 C362 1.383 . S
C357 C353 1.495 . S
C357 H363 0.959 . S
C357 H364 0.961 . S
C357 H365 0.960 . S
C358 C356 1.381 . S
C358 C359 1.394 . S
C358 H366 0.930 . S
C359 C358 1.394 . S
C359 C360 1.383 . S
C359 H367 0.929 . S
C360 C359 1.383 . S
C360 C361 1.377 . S
C361 H345 0.930 . S
C361 C360 1.377 . S
C361 C362 1.379 . S
C362 H346 0.931 . S
C362 C356 1.383 . S
C362 C361 1.379 . S
H363 C357 0.959 . S
H364 C357 0.961 . S
H365 C357 0.960 . S
H366 C358 0.930 . S
H367 C359 0.929 . S
H368 C376 0.929 . S
H369 C378 0.930 . S
H370 C380 0.930 . S
H371 C383 0.929 . S
H372 C386 0.930 . S
H373 C388 0.960 . S
H374 C388 0.960 . S
H375 C388 0.960 1_554 S
C376 H368 0.929 . S
C376 C377 1.377 . S
C376 C378 1.384 1_565 S
C377 C376 1.377 . S
C377 C383 1.390 1_565 S
C378 H369 0.930 . S
C378 C376 1.384 1_545 S
C378 C379 1.372 . S
C379 C378 1.372 . S
C379 C380 1.400 . S
C379 C384 1.490 . S
C380 H370 0.930 . S
C380 C379 1.400 . S
C380 C383 1.386 . S
H381 C397 0.930 . S
H382 C398 0.931 1_554 S
C383 H371 0.929 . S
C383 C377 1.390 1_545 S
C383 C380 1.386 . S
C384 C379 1.490 . S
C384 C386 1.395 . S
C384 C387 1.437 . S
H385 C391 0.930 . S
C386 H372 0.930 . S
C386 C384 1.395 . S
C386 C389 1.403 . S
C387 C384 1.437 . S
C387 C388 1.506 1_554 S
C387 C391 1.385 1_554 S
C388 H373 0.960 . S
C388 H374 0.960 . S
C388 H375 0.960 1_556 S
C388 C387 1.506 1_556 S
C389 C386 1.403 . S
C389 C390 1.400 . S
C389 C393 1.495 . S
C390 C389 1.400 . S
C390 C391 1.382 1_554 S
C390 C392 1.473 1_554 S
C391 H385 0.930 . S
C391 C387 1.385 1_556 S
C391 C390 1.382 1_556 S
C392 C390 1.473 1_556 S
C392 C394 1.381 . S
C392 C398 1.383 . S
C393 C389 1.495 . S
C393 H399 0.959 . S
C393 H400 0.961 . S
C393 H401 0.960 . S
C394 C392 1.381 . S
C394 C395 1.394 . S
C394 H402 0.930 . S
C395 C394 1.394 . S
C395 C396 1.383 . S
C395 H403 0.929 . S
C396 C395 1.383 . S
C396 C397 1.377 . S
C397 H381 0.930 . S
C397 C396 1.377 . S
C397 C398 1.379 . S
C398 H382 0.931 1_556 S
C398 C392 1.383 . S
C398 C397 1.379 . S
H399 C393 0.959 . S
H400 C393 0.961 . S
H401 C393 0.960 . S
H402 C394 0.930 . S
H403 C395 0.929 . S
H404 C412 0.929 . S
H405 C414 0.930 1_556 S
H406 C416 0.930 . S
H407 C419 0.929 . S
H408 C422 0.930 . S
H409 C424 0.960 . S
H410 C424 0.960 . S
H411 C424 0.960 . S
C412 H404 0.929 . S
C412 C413 1.377 . S
C412 C414 1.384 . S
C413 C412 1.377 . S
C413 C419 1.390 . S
C414 H405 0.930 1_554 S
C414 C412 1.384 . S
C414 C415 1.372 . S
C415 C414 1.372 . S
C415 C416 1.400 . S
C415 C420 1.507 . S
C416 H406 0.930 . S
C416 C415 1.400 . S
C416 C419 1.386 . S
H417 C433 0.930 . S
H418 C434 0.931 . S
C419 H407 0.929 . S
C419 C413 1.390 . S
C419 C416 1.386 . S
C420 C415 1.507 . S
C420 C422 1.404 . S
C420 C423 1.377 1_554 S
H421 C427 0.930 . S
C422 H408 0.930 . S
C422 C420 1.404 . S
C422 C425 1.403 1_554 S
C423 C420 1.377 1_556 S
C423 C424 1.524 . S
C423 C427 1.400 . S
C424 H409 0.960 . S
C424 H410 0.960 . S
C424 H411 0.960 . S
C424 C423 1.524 . S
C425 C422 1.403 1_556 S
C425 C426 1.392 . S
C425 C429 1.495 1_556 S
C426 C425 1.392 . S
C426 C427 1.385 . S
C426 C428 1.478 . S
C427 H421 0.930 . S
C427 C423 1.400 . S
C427 C426 1.385 . S
C428 C426 1.478 . S
C428 C430 1.381 . S
C428 C434 1.383 . S
C429 C425 1.495 1_554 S
C429 H435 0.959 . S
C429 H436 0.961 . S
C429 H437 0.960 1_554 S
C430 C428 1.381 . S
C430 C431 1.394 . S
C430 H438 0.930 . S
C431 C430 1.394 . S
C431 C432 1.383 1_455 S
C431 H439 0.929 . S
C432 C431 1.383 1_655 S
C432 C433 1.377 . S
C433 H417 0.930 . S
C433 C432 1.377 . S
C433 C434 1.379 1_655 S
C434 H418 0.931 . S
C434 C428 1.383 . S
C434 C433 1.379 1_455 S
H435 C429 0.959 . S
H436 C429 0.961 . S
H437 C429 0.960 1_556 S
H438 C430 0.930 . S
H439 C431 0.929 . S
H440 C448 0.887 1_554 S
H441 C450 0.930 . S
H442 C452 0.930 . S
H443 C455 0.929 . S
H444 C458 0.930 . S
H445 C460 0.960 . S
H446 C460 0.960 . S
H447 C460 0.960 . S
C448 H440 0.887 1_556 S
C448 C449 1.377 . S
C448 C450 1.384 1_556 S
C449 C448 1.377 . S
C449 C455 1.390 . S
C450 H441 0.930 . S
C450 C448 1.384 1_554 S
C450 C451 1.372 1_554 S
C451 C450 1.372 1_556 S
C451 C452 1.400 . S
C451 C456 1.488 1_556 S
C452 H442 0.930 . S
C452 C451 1.400 . S
C452 C455 1.386 . S
H453 C469 0.930 . S
H454 C470 0.931 . S
C455 H443 0.929 . S
C455 C449 1.390 . S
C455 C452 1.386 . S
C456 C451 1.488 1_554 S
C456 C458 1.398 . S
C456 C459 1.401 1_554 S
H457 C463 0.930 1_556 S
C458 H444 0.930 . S
C458 C456 1.398 . S
C458 C461 1.403 . S
C459 C456 1.401 1_556 S
C459 C460 1.524 . S
C459 C463 1.400 1_556 S
C460 H445 0.960 . S
C460 H446 0.960 . S
C460 H447 0.960 . S
C460 C459 1.524 . S
C461 C458 1.403 . S
C461 C462 1.392 . S
C461 C465 1.495 . S
C462 C461 1.392 . S
C462 C463 1.385 . S
C462 C464 1.478 . S
C463 H457 0.930 1_554 S
C463 C459 1.400 1_554 S
C463 C462 1.385 . S
C464 C462 1.478 . S
C464 C466 1.381 . S
C464 C470 1.383 . S
C465 C461 1.495 . S
C465 H471 0.959 . S
C465 H472 0.961 . S
C465 H473 0.960 . S
C466 C464 1.381 . S
C466 C467 1.394 . S
C466 H474 0.930 . S
C467 C466 1.394 . S
C467 C468 1.383 1_565 S
C467 H475 0.929 . S
C468 C467 1.383 1_545 S
C468 C469 1.377 . S
C469 H453 0.930 . S
C469 C468 1.377 . S
C469 C470 1.379 1_545 S
C470 H454 0.931 . S
C470 C464 1.383 . S
C470 C469 1.379 1_565 S
H471 C465 0.959 . S
H472 C465 0.961 . S
H473 C465 0.960 . S
H474 C466 0.930 . S
H475 C467 0.929 . S
H476 C484 0.929 . S
H477 C486 0.930 . S
H478 C488 0.949 . S
H479 C491 0.912 1_556 S
H480 C494 0.954 . S
H481 C496 0.960 . S
H482 C496 0.960 1_554 S
H483 C496 0.960 . S
C484 H476 0.929 . S
C484 C485 1.377 . S
C484 C486 1.384 . S
C485 C484 1.377 . S
C485 C491 1.390 . S
C486 H477 0.930 . S
C486 C484 1.384 . S
C486 C487 1.372 . S
C487 C486 1.372 . S
C487 C488 1.389 1_554 S
C487 C492 1.490 . S
C488 H478 0.949 . S
C488 C487 1.389 1_556 S
C488 C491 1.378 1_556 S
H489 C505 0.930 . S
H490 C506 0.931 . S
C491 H479 0.912 1_554 S
C491 C485 1.390 . S
C491 C488 1.378 1_554 S
C492 C487 1.490 . S
C492 C494 1.400 . S
C492 C495 1.403 1_554 S
H493 C499 0.930 . S
C494 H480 0.954 . S
C494 C492 1.400 . S
C494 C497 1.379 1_554 S
C495 C492 1.403 1_556 S
C495 C496 1.524 . S
C495 C499 1.400 . S
C496 H481 0.960 . S
C496 H482 0.960 1_556 S
C496 H483 0.960 . S
C496 C495 1.524 . S
C497 C494 1.379 1_556 S
C497 C498 1.392 . S
C497 C501 1.495 . S
C498 C497 1.392 . S
C498 C499 1.385 . S
C498 C500 1.478 . S
C499 H493 0.930 . S
C499 C495 1.400 . S
C499 C498 1.385 . S
C500 C498 1.478 . S
C500 C502 1.381 . S
C500 C506 1.383 . S
C501 C497 1.495 . S
C501 H507 0.959 . S
C501 H508 0.961 . S
C501 H509 0.991 . S
C502 C500 1.381 . S
C502 C503 1.394 1_655 S
C502 H510 0.856 1_556 S
C503 C502 1.394 1_455 S
C503 C504 1.383 . S
C503 H511 0.929 . S
C504 C503 1.383 . S
C504 C505 1.377 1_455 S
C505 H489 0.930 . S
C505 C504 1.377 1_655 S
C505 C506 1.379 . S
C506 H490 0.931 . S
C506 C500 1.383 . S
C506 C505 1.379 . S
H507 C501 0.959 . S
H508 C501 0.961 . S
H509 C501 0.991 . S
H510 C502 0.856 1_554 S
H511 C503 0.929 . S
H512 C520 0.929 . S
H513 C522 0.930 . S
H514 C524 0.930 . S
H515 C527 0.929 . S
H516 C530 0.930 . S
H517 C532 0.960 . S
H518 C532 0.960 . S
H519 C532 0.960 . S
C520 H512 0.929 . S
C520 C521 1.377 . S
C520 C522 1.384 . S
C521 C520 1.377 . S
C521 C527 1.390 . S
C522 H513 0.930 . S
C522 C520 1.384 . S
C522 C523 1.372 . S
C523 C522 1.372 . S
C523 C524 1.400 . S
C523 C528 1.490 . S
C524 H514 0.930 . S
C524 C523 1.400 . S
C524 C527 1.386 . S
H525 C541 0.930 . S
H526 C542 0.931 . S
C527 H515 0.929 . S
C527 C521 1.390 . S
C527 C524 1.386 . S
C528 C523 1.490 . S
C528 C530 1.395 . S
C528 C531 1.403 . S
H529 C535 0.930 . S
C530 H516 0.930 . S
C530 C528 1.395 . S
C530 C533 1.403 . S
C531 C528 1.403 . S
C531 C532 1.524 . S
C531 C535 1.400 . S
C532 H517 0.960 . S
C532 H518 0.960 . S
C532 H519 0.960 . S
C532 C531 1.524 . S
C533 C530 1.403 . S
C533 C534 1.392 . S
C533 C537 1.495 . S
C534 C533 1.392 . S
C534 C535 1.385 . S
C534 C536 1.478 . S
C535 H529 0.930 . S
C535 C531 1.400 . S
C535 C534 1.385 . S
C536 C534 1.478 . S
C536 C538 1.381 . S
C536 C542 1.383 . S
C537 C533 1.495 . S
C537 H543 0.959 . S
C537 H544 0.961 . S
C537 H545 0.960 . S
C538 C536 1.381 . S
C538 C539 1.394 . S
C538 H546 0.930 . S
C539 C538 1.394 . S
C539 C540 1.383 1_565 S
C539 H547 0.929 . S
C540 C539 1.383 1_545 S
C540 C541 1.377 . S
C541 H525 0.930 . S
C541 C540 1.377 . S
C541 C542 1.379 1_545 S
C542 H526 0.931 . S
C542 C536 1.383 . S
C542 C541 1.379 1_565 S
H543 C537 0.959 . S
H544 C537 0.961 . S
H545 C537 0.960 . S
H546 C538 0.930 . S
H547 C539 0.929 . S
H548 C556 0.929 . S
H549 C558 0.930 . S
H550 C560 0.930 . S
H551 C563 0.929 . S
H552 C566 0.930 . S
H553 C568 0.960 . S
H554 C568 0.960 . S
H555 C568 0.960 . S
C556 H548 0.929 . S
C556 C557 1.377 1_655 S
C556 C558 1.384 . S
C557 C556 1.377 1_455 S
C557 C563 1.390 . S
C558 H549 0.930 . S
C558 C556 1.384 . S
C558 C559 1.372 . S
C559 C558 1.372 . S
C559 C560 1.400 . S
C559 C564 1.490 . S
C560 H550 0.930 . S
C560 C559 1.400 . S
C560 C563 1.386 1_655 S
H561 C577 0.930 . S
H562 C578 0.931 . S
C563 H551 0.929 . S
C563 C557 1.390 . S
C563 C560 1.386 1_455 S
C564 C559 1.490 . S
C564 C566 1.395 . S
C564 C567 1.403 . S
H565 C571 0.930 . S
C566 H552 0.930 . S
C566 C564 1.395 . S
C566 C569 1.403 . S
C567 C564 1.403 . S
C567 C568 1.524 . S
C567 C571 1.400 . S
C568 H553 0.960 . S
C568 H554 0.960 . S
C568 H555 0.960 . S
C568 C567 1.524 . S
C569 C566 1.403 . S
C569 C570 1.392 . S
C569 C573 1.495 . S
C570 C569 1.392 . S
C570 C571 1.385 . S
C570 C572 1.478 . S
C571 H565 0.930 . S
C571 C567 1.400 . S
C571 C570 1.385 . S
C572 C570 1.478 . S
C572 C574 1.381 . S
C572 C578 1.383 . S
C573 C569 1.495 . S
C573 H579 0.959 . S
C573 H580 0.961 . S
C573 H581 0.960 . S
C574 C572 1.381 . S
C574 C575 1.394 . S
C574 H582 0.930 . S
C575 C574 1.394 . S
C575 C576 1.383 . S
C575 H583 0.929 . S
C576 C575 1.383 . S
C576 C577 1.377 . S
C577 H561 0.930 . S
C577 C576 1.377 . S
C577 C578 1.379 . S
C578 H562 0.931 . S
C578 C572 1.383 . S
C578 C577 1.379 . S
H579 C573 0.959 . S
H580 C573 0.961 . S
H581 C573 0.960 . S
H582 C574 0.930 . S
H583 C575 0.929 . S
H584 C592 0.929 . S
H585 C594 0.930 . S
H586 C596 0.930 . S
H587 C599 0.929 . S
H588 C602 0.930 . S
H589 C604 0.960 . S
H590 C604 0.960 . S
H591 C604 0.960 . S
C592 H584 0.929 . S
C592 C593 1.377 . S
C592 C594 1.384 1_565 S
C593 C592 1.377 . S
C593 C599 1.390 1_565 S
C594 H585 0.930 . S
C594 C592 1.384 1_545 S
C594 C595 1.372 . S
C595 C594 1.372 . S
C595 C596 1.400 . S
C595 C600 1.490 . S
C596 H586 0.930 . S
C596 C595 1.400 . S
C596 C599 1.386 . S
H597 C613 0.930 . S
H598 C614 0.931 . S
C599 H587 0.929 . S
C599 C593 1.390 1_545 S
C599 C596 1.386 . S
C600 C595 1.490 . S
C600 C602 1.395 . S
C600 C603 1.403 . S
H601 C607 0.930 . S
C602 H588 0.930 . S
C602 C600 1.395 . S
C602 C605 1.403 . S
C603 C600 1.403 . S
C603 C604 1.524 . S
C603 C607 1.400 . S
C604 H589 0.960 . S
C604 H590 0.960 . S
C604 H591 0.960 . S
C604 C603 1.524 . S
C605 C602 1.403 . S
C605 C606 1.392 . S
C605 C609 1.495 . S
C606 C605 1.392 . S
C606 C607 1.385 . S
C606 C608 1.478 . S
C607 H601 0.930 . S
C607 C603 1.400 . S
C607 C606 1.385 . S
C608 C606 1.478 . S
C608 C610 1.381 . S
C608 C614 1.383 . S
C609 C605 1.495 . S
C609 H615 0.959 . S
C609 H616 0.961 . S
C609 H617 0.960 . S
C610 C608 1.381 . S
C610 C611 1.394 . S
C610 H618 0.930 . S
C611 C610 1.394 . S
C611 C612 1.383 . S
C611 H619 0.929 . S
C612 C611 1.383 . S
C612 C613 1.377 . S
C613 H597 0.930 . S
C613 C612 1.377 . S
C613 C614 1.379 . S
C614 H598 0.931 . S
C614 C608 1.383 . S
C614 C613 1.379 . S
H615 C609 0.959 . S
H616 C609 0.961 . S
H617 C609 0.960 . S
H618 C610 0.930 . S
H619 C611 0.929 . S
H620 C628 0.929 1_655 S
H621 C630 0.930 . S
H622 C632 0.930 . S
H623 C635 0.934 . S
H624 C638 0.930 . S
H625 C640 0.960 . S
H626 C640 0.960 . S
H627 C640 0.960 . S
C628 H620 0.929 1_455 S
C628 C629 1.377 1_455 S
C628 C630 1.384 . S
C629 C628 1.377 1_655 S
C629 C635 1.390 1_655 S
C630 H621 0.930 . S
C630 C628 1.384 . S
C630 C631 1.372 . S
C631 C630 1.372 . S
C631 C632 1.400 . S
C631 C636 1.490 . S
C632 H622 0.930 . S
C632 C631 1.400 . S
C632 C635 1.386 . S
H633 C649 0.930 . S
H634 C650 0.931 . S
C635 H623 0.934 . S
C635 C629 1.390 1_455 S
C635 C632 1.386 . S
C636 C631 1.490 . S
C636 C638 1.395 . S
C636 C639 1.403 . S
H637 C643 0.930 . S
C638 H624 0.930 . S
C638 C636 1.395 . S
C638 C641 1.403 . S
C639 C636 1.403 . S
C639 C640 1.524 . S
C639 C643 1.400 . S
C640 H625 0.960 . S
C640 H626 0.960 . S
C640 H627 0.960 . S
C640 C639 1.524 . S
C641 C638 1.403 . S
C641 C642 1.392 . S
C641 C645 1.495 . S
C642 C641 1.392 . S
C642 C643 1.385 . S
C642 C644 1.478 . S
C643 H637 0.930 . S
C643 C639 1.400 . S
C643 C642 1.385 . S
C644 C642 1.478 . S
C644 C646 1.381 . S
C644 C650 1.383 . S
C645 C641 1.495 . S
C645 H651 0.959 . S
C645 H652 0.961 . S
C645 H653 0.960 . S
C646 C644 1.381 . S
C646 C647 1.394 . S
C646 H654 0.930 . S
C647 C646 1.394 . S
C647 C648 1.383 . S
C647 H655 0.929 . S
C648 C647 1.383 . S
C648 C649 1.377 . S
C649 H633 0.930 . S
C649 C648 1.377 . S
C649 C650 1.379 . S
C650 H634 0.931 . S
C650 C644 1.383 . S
C650 C649 1.379 . S
H651 C645 0.959 . S
H652 C645 0.961 . S
H653 C645 0.960 . S
H654 C646 0.930 . S
H655 C647 0.929 . S
H656 C664 0.929 . S
H657 C666 0.930 . S
H658 C668 0.930 . S
H659 C671 0.929 . S
H660 C674 0.930 . S
H661 C676 0.960 . S
H662 C676 0.960 . S
H663 C676 0.960 . S
C664 H656 0.929 . S
C664 C665 1.377 . S
C664 C666 1.384 . S
C665 C664 1.377 . S
C665 C671 1.390 . S
C666 H657 0.930 . S
C666 C664 1.384 . S
C666 C667 1.372 . S
C667 C666 1.372 . S
C667 C668 1.400 . S
C667 C672 1.490 . S
C668 H658 0.930 . S
C668 C667 1.400 . S
C668 C671 1.386 . S
H669 C685 0.930 . S
H670 C686 0.931 . S
C671 H659 0.929 . S
C671 C665 1.390 . S
C671 C668 1.386 . S
C672 C667 1.490 . S
C672 C674 1.395 . S
C672 C675 1.403 . S
H673 C679 0.930 . S
C674 H660 0.930 . S
C674 C672 1.395 . S
C674 C677 1.403 . S
C675 C672 1.403 . S
C675 C676 1.524 . S
C675 C679 1.400 . S
C676 H661 0.960 . S
C676 H662 0.960 . S
C676 H663 0.960 . S
C676 C675 1.524 . S
C677 C674 1.403 . S
C677 C678 1.392 . S
C677 C681 1.495 . S
C678 C677 1.392 . S
C678 C679 1.385 . S
C678 C680 1.478 . S
C679 H673 0.930 . S
C679 C675 1.400 . S
C679 C678 1.385 . S
C680 C678 1.478 . S
C680 C682 1.381 . S
C680 C686 1.383 . S
C681 C677 1.495 . S
C681 H687 0.959 . S
C681 H688 0.961 . S
C681 H689 0.960 . S
C682 C680 1.381 . S
C682 C683 1.394 . S
C682 H690 0.930 . S
C683 C682 1.394 . S
C683 C684 1.383 . S
C683 H691 0.929 . S
C684 C683 1.383 . S
C684 C685 1.377 . S
C685 H669 0.930 . S
C685 C684 1.377 . S
C685 C686 1.379 . S
C686 H670 0.931 . S
C686 C680 1.383 . S
C686 C685 1.379 . S
H687 C681 0.959 . S
H688 C681 0.961 . S
H689 C681 0.960 . S
H690 C682 0.930 . S
H691 C683 0.929 . S
H692 C700 0.929 . S
H693 C702 0.930 . S
H694 C704 0.930 . S
H695 C707 0.929 . S
H696 C710 0.930 . S
H697 C712 0.960 . S
H698 C712 0.960 . S
H699 C712 0.960 . S
C700 H692 0.929 . S
C700 C701 1.377 . S
C700 C702 1.384 . S
C701 C700 1.377 . S
C701 C707 1.390 . S
C702 H693 0.930 . S
C702 C700 1.384 . S
C702 C703 1.372 . S
C703 C702 1.372 . S
C703 C704 1.400 . S
C703 C708 1.490 . S
C704 H694 0.930 . S
C704 C703 1.400 . S
C704 C707 1.386 . S
H705 C721 0.930 . S
H706 C722 0.931 . S
C707 H695 0.929 . S
C707 C701 1.390 . S
C707 C704 1.386 . S
C708 C703 1.490 . S
C708 C710 1.395 . S
C708 C711 1.403 . S
H709 C715 0.930 . S
C710 H696 0.930 . S
C710 C708 1.395 . S
C710 C713 1.403 . S
C711 C708 1.403 . S
C711 C712 1.524 . S
C711 C715 1.400 . S
C712 H697 0.960 . S
C712 H698 0.960 . S
C712 H699 0.960 . S
C712 C711 1.524 . S
C713 C710 1.403 . S
C713 C714 1.392 . S
C713 C717 1.495 . S
C714 C713 1.392 . S
C714 C715 1.385 . S
C714 C716 1.478 . S
C715 H709 0.930 . S
C715 C711 1.400 . S
C715 C714 1.385 . S
C716 C714 1.478 . S
C716 C718 1.381 . S
C716 C722 1.383 . S
C717 C713 1.495 . S
C717 H723 0.959 . S
C717 H724 0.961 . S
C717 H725 0.960 . S
C718 C716 1.381 . S
C718 C719 1.394 . S
C718 H726 0.930 . S
C719 C718 1.394 . S
C719 C720 1.383 . S
C719 H727 0.929 . S
C720 C719 1.383 . S
C720 C721 1.377 . S
C721 H705 0.930 . S
C721 C720 1.377 . S
C721 C722 1.379 . S
C722 H706 0.931 . S
C722 C716 1.383 . S
C722 C721 1.379 . S
H723 C717 0.959 . S
H724 C717 0.961 . S
H725 C717 0.960 . S
H726 C718 0.930 . S
H727 C719 0.929 . S
H728 C736 0.929 . S
H729 C738 0.930 . S
H730 C740 0.930 . S
H731 C743 0.929 . S
H732 C746 0.930 . S
H733 C748 0.960 . S
H734 C748 0.960 . S
H735 C748 0.960 . S
C736 H728 0.929 . S
C736 C737 1.377 . S
C736 C738 1.384 . S
C737 C736 1.377 . S
C737 C743 1.390 . S
C738 H729 0.930 . S
C738 C736 1.384 . S
C738 C739 1.372 . S
C739 C738 1.372 . S
C739 C740 1.400 . S
C739 C744 1.490 . S
C740 H730 0.930 . S
C740 C739 1.400 . S
C740 C743 1.386 . S
H741 C757 0.930 . S
H742 C758 0.931 . S
C743 H731 0.929 . S
C743 C737 1.390 . S
C743 C740 1.386 . S
C744 C739 1.490 . S
C744 C746 1.395 . S
C744 C747 1.403 . S
H745 C751 0.930 . S
C746 H732 0.930 . S
C746 C744 1.395 . S
C746 C749 1.403 . S
C747 C744 1.403 . S
C747 C748 1.524 . S
C747 C751 1.400 . S
C748 H733 0.960 . S
C748 H734 0.960 . S
C748 H735 0.960 . S
C748 C747 1.524 . S
C749 C746 1.403 . S
C749 C750 1.392 . S
C749 C753 1.495 . S
C750 C749 1.392 . S
C750 C751 1.385 . S
C750 C752 1.478 . S
C751 H745 0.930 . S
C751 C747 1.400 . S
C751 C750 1.385 . S
C752 C750 1.478 . S
C752 C754 1.381 . S
C752 C758 1.383 . S
C753 C749 1.495 . S
C753 H759 0.959 . S
C753 H760 0.961 . S
C753 H761 0.960 . S
C754 C752 1.381 . S
C754 C755 1.394 . S
C754 H762 0.930 . S
C755 C754 1.394 . S
C755 C756 1.383 . S
C755 H763 0.929 . S
C756 C755 1.383 . S
C756 C757 1.377 . S
C757 H741 0.930 . S
C757 C756 1.377 . S
C757 C758 1.379 . S
C758 H742 0.931 . S
C758 C752 1.383 . S
C758 C757 1.379 . S
H759 C753 0.959 . S
H760 C753 0.961 . S
H761 C753 0.960 . S
H762 C754 0.930 . S
H763 C755 0.929 . S
H764 C772 0.929 . S
H765 C774 0.930 . S
H766 C776 0.930 . S
H767 C779 0.929 . S
H768 C782 0.930 . S
H769 C784 0.960 . S
H770 C784 0.960 . S
H771 C784 0.960 . S
C772 H764 0.929 . S
C772 C773 1.377 . S
C772 C774 1.384 . S
C773 C772 1.377 . S
C773 C779 1.390 . S
C774 H765 0.930 . S
C774 C772 1.384 . S
C774 C775 1.372 . S
C775 C774 1.372 . S
C775 C776 1.400 . S
C775 C780 1.490 . S
C776 H766 0.930 . S
C776 C775 1.400 . S
C776 C779 1.386 . S
H777 C793 0.930 . S
H778 C794 0.931 . S
C779 H767 0.929 . S
C779 C773 1.390 . S
C779 C776 1.386 . S
C780 C775 1.490 . S
C780 C782 1.395 . S
C780 C783 1.403 . S
H781 C787 0.930 . S
C782 H768 0.930 . S
C782 C780 1.395 . S
C782 C785 1.403 . S
C783 C780 1.403 . S
C783 C784 1.524 . S
C783 C787 1.400 . S
C784 H769 0.960 . S
C784 H770 0.960 . S
C784 H771 0.960 . S
C784 C783 1.524 . S
C785 C782 1.403 . S
C785 C786 1.392 . S
C785 C789 1.495 . S
C786 C785 1.392 . S
C786 C787 1.385 . S
C786 C788 1.478 . S
C787 H781 0.930 . S
C787 C783 1.400 . S
C787 C786 1.385 . S
C788 C786 1.478 . S
C788 C790 1.381 . S
C788 C794 1.383 . S
C789 C785 1.495 . S
C789 H795 0.959 . S
C789 H796 0.961 . S
C789 H797 0.960 . S
C790 C788 1.381 . S
C790 C791 1.394 . S
C790 H798 0.930 . S
C791 C790 1.394 . S
C791 C792 1.383 . S
C791 H799 0.929 . S
C792 C791 1.383 . S
C792 C793 1.377 . S
C793 H777 0.930 . S
C793 C792 1.377 . S
C793 C794 1.379 . S
C794 H778 0.931 . S
C794 C788 1.383 . S
C794 C793 1.379 . S
H795 C789 0.959 . S
H796 C789 0.961 . S
H797 C789 0.960 . S
H798 C790 0.930 . S
H799 C791 0.929 . S
H800 C808 0.929 . S
H801 C810 0.930 . S
H802 C812 0.930 . S
H803 C815 0.929 . S
H804 C818 0.930 . S
H805 C820 0.960 . S
H806 C820 0.960 . S
H807 C820 0.960 . S
C808 H800 0.929 . S
C808 C809 1.377 . S
C808 C810 1.384 . S
C809 C808 1.377 . S
C809 C815 1.390 . S
C810 H801 0.930 . S
C810 C808 1.384 . S
C810 C811 1.372 . S
C811 C810 1.372 . S
C811 C812 1.400 . S
C811 C816 1.490 . S
C812 H802 0.930 . S
C812 C811 1.400 . S
C812 C815 1.386 . S
H813 C829 0.930 . S
H814 C830 0.931 . S
C815 H803 0.929 . S
C815 C809 1.390 . S
C815 C812 1.386 . S
C816 C811 1.490 . S
C816 C818 1.395 . S
C816 C819 1.403 . S
H817 C823 0.930 . S
C818 H804 0.930 . S
C818 C816 1.395 . S
C818 C821 1.403 . S
C819 C816 1.403 . S
C819 C820 1.524 . S
C819 C823 1.400 . S
C820 H805 0.960 . S
C820 H806 0.960 . S
C820 H807 0.960 . S
C820 C819 1.524 . S
C821 C818 1.403 . S
C821 C822 1.392 . S
C821 C825 1.495 . S
C822 C821 1.392 . S
C822 C823 1.385 . S
C822 C824 1.478 . S
C823 H817 0.930 . S
C823 C819 1.400 . S
C823 C822 1.385 . S
C824 C822 1.478 . S
C824 C826 1.381 . S
C824 C830 1.383 . S
C825 C821 1.495 . S
C825 H831 0.959 . S
C825 H832 0.961 . S
C825 H833 0.960 . S
C826 C824 1.381 . S
C826 C827 1.394 . S
C826 H834 0.930 . S
C827 C826 1.394 . S
C827 C828 1.383 . S
C827 H835 0.929 . S
C828 C827 1.383 . S
C828 C829 1.377 . S
C829 H813 0.930 . S
C829 C828 1.377 . S
C829 C830 1.379 . S
C830 H814 0.931 . S
C830 C824 1.383 . S
C830 C829 1.379 . S
H831 C825 0.959 . S
H832 C825 0.961 . S
H833 C825 0.960 . S
H834 C826 0.930 . S
H835 C827 0.929 . S
H836 C844 0.929 . S
H837 C846 0.930 . S
H838 C848 0.930 . S
H839 C851 0.929 . S
H840 C854 0.930 . S
H841 C856 0.960 . S
H842 C856 0.960 . S
H843 C856 0.960 . S
C844 H836 0.929 . S
C844 C845 1.377 . S
C844 C846 1.384 . S
C845 C844 1.377 . S
C845 C851 1.390 . S
C846 H837 0.930 . S
C846 C844 1.384 . S
C846 C847 1.372 . S
C847 C846 1.372 . S
C847 C848 1.400 . S
C847 C852 1.490 . S
C848 H838 0.930 . S
C848 C847 1.400 . S
C848 C851 1.386 . S
H849 C865 0.930 . S
H850 C866 0.931 . S
C851 H839 0.929 . S
C851 C845 1.390 . S
C851 C848 1.386 . S
C852 C847 1.490 . S
C852 C854 1.395 . S
C852 C855 1.403 . S
H853 C859 0.930 . S
C854 H840 0.930 . S
C854 C852 1.395 . S
C854 C857 1.403 . S
C855 C852 1.403 . S
C855 C856 1.524 . S
C855 C859 1.400 . S
C856 H841 0.960 . S
C856 H842 0.960 . S
C856 H843 0.960 . S
C856 C855 1.524 . S
C857 C854 1.403 . S
C857 C858 1.392 . S
C857 C861 1.495 . S
C858 C857 1.392 . S
C858 C859 1.385 . S
C858 C860 1.478 . S
C859 H853 0.930 . S
C859 C855 1.400 . S
C859 C858 1.385 . S
C860 C858 1.478 . S
C860 C862 1.381 . S
C860 C866 1.383 . S
C861 C857 1.495 . S
C861 H867 0.959 . S
C861 H868 0.961 . S
C861 H869 0.960 . S
C862 C860 1.381 . S
C862 C863 1.394 . S
C862 H870 0.930 . S
C863 C862 1.394 . S
C863 C864 1.383 . S
C863 H871 0.929 . S
C864 C863 1.383 . S
C864 C865 1.377 . S
C865 H849 0.930 . S
C865 C864 1.377 . S
C865 C866 1.379 . S
C866 H850 0.931 . S
C866 C860 1.383 . S
C866 C865 1.379 . S
H867 C861 0.959 . S
H868 C861 0.961 . S
H869 C861 0.960 . S
H870 C862 0.930 . S
H871 C863 0.929 . S
H872 C880 0.929 . S
H873 C882 0.930 . S
H874 C884 0.930 . S
H875 C887 0.929 . S
H876 C890 0.930 . S
H877 C892 0.960 . S
H878 C892 0.960 . S
H879 C892 0.960 . S
C880 H872 0.929 . S
C880 C881 1.377 . S
C880 C882 1.384 . S
C881 C880 1.377 . S
C881 C887 1.390 . S
C882 H873 0.930 . S
C882 C880 1.384 . S
C882 C883 1.372 . S
C883 C882 1.372 . S
C883 C884 1.400 . S
C883 C888 1.490 . S
C884 H874 0.930 . S
C884 C883 1.400 . S
C884 C887 1.386 . S
H885 C901 0.930 . S
H886 C902 0.931 . S
C887 H875 0.929 . S
C887 C881 1.390 . S
C887 C884 1.386 . S
C888 C883 1.490 . S
C888 C890 1.395 . S
C888 C891 1.403 . S
H889 C895 0.930 . S
C890 H876 0.930 . S
C890 C888 1.395 . S
C890 C893 1.403 . S
C891 C888 1.403 . S
C891 C892 1.524 . S
C891 C895 1.400 . S
C892 H877 0.960 . S
C892 H878 0.960 . S
C892 H879 0.960 . S
C892 C891 1.524 . S
C893 C890 1.403 . S
C893 C894 1.392 . S
C893 C897 1.495 . S
C894 C893 1.392 . S
C894 C895 1.385 . S
C894 C896 1.478 . S
C895 H889 0.930 . S
C895 C891 1.400 . S
C895 C894 1.385 . S
C896 C894 1.478 . S
C896 C898 1.381 . S
C896 C902 1.383 . S
C897 C893 1.495 . S
C897 H903 0.959 . S
C897 H904 0.961 . S
C897 H905 0.960 . S
C898 C896 1.381 . S
C898 C899 1.394 . S
C898 H906 0.930 . S
C899 C898 1.394 . S
C899 C900 1.383 . S
C899 H907 0.929 . S
C900 C899 1.383 . S
C900 C901 1.377 . S
C901 H885 0.930 . S
C901 C900 1.377 . S
C901 C902 1.379 . S
C902 H886 0.931 . S
C902 C896 1.383 . S
C902 C901 1.379 . S
H903 C897 0.959 . S
H904 C897 0.961 . S
H905 C897 0.960 . S
H906 C898 0.930 . S
H907 C899 0.929 . S
H908 C916 0.929 . S
H909 C918 0.930 . S
H910 C920 0.930 . S
H911 C923 0.929 . S
H912 C926 0.930 . S
H913 C928 0.960 . S
H914 C928 0.960 . S
H915 C928 0.960 . S
C916 H908 0.929 . S
C916 C917 1.377 . S
C916 C918 1.384 . S
C917 C916 1.377 . S
C917 C923 1.390 . S
C918 H909 0.930 . S
C918 C916 1.384 . S
C918 C919 1.372 . S
C919 C918 1.372 . S
C919 C920 1.400 . S
C919 C924 1.490 . S
C920 H910 0.930 . S
C920 C919 1.400 . S
C920 C923 1.386 . S
H921 C937 0.930 . S
H922 C938 0.931 . S
C923 H911 0.929 . S
C923 C917 1.390 . S
C923 C920 1.386 . S
C924 C919 1.490 . S
C924 C926 1.395 . S
C924 C927 1.403 . S
H925 C931 0.930 . S
C926 H912 0.930 . S
C926 C924 1.395 . S
C926 C929 1.403 . S
C927 C924 1.403 . S
C927 C928 1.524 . S
C927 C931 1.400 . S
C928 H913 0.960 . S
C928 H914 0.960 . S
C928 H915 0.960 . S
C928 C927 1.524 . S
C929 C926 1.403 . S
C929 C930 1.392 . S
C929 C933 1.495 . S
C930 C929 1.392 . S
C930 C931 1.385 . S
C930 C932 1.478 . S
C931 H925 0.930 . S
C931 C927 1.400 . S
C931 C930 1.385 . S
C932 C930 1.478 . S
C932 C934 1.381 . S
C932 C938 1.383 . S
C933 C929 1.495 . S
C933 H939 0.959 . S
C933 H940 0.961 . S
C933 H941 0.960 . S
C934 C932 1.381 . S
C934 C935 1.394 . S
C934 H942 0.930 . S
C935 C934 1.394 . S
C935 C936 1.383 . S
C935 H943 0.929 . S
C936 C935 1.383 . S
C936 C937 1.377 . S
C937 H921 0.930 . S
C937 C936 1.377 . S
C937 C938 1.379 . S
C938 H922 0.931 . S
C938 C932 1.383 . S
C938 C937 1.379 . S
H939 C933 0.959 . S
H940 C933 0.961 . S
H941 C933 0.960 . S
H942 C934 0.930 . S
H943 C935 0.929 . S
H944 C952 0.929 . S
H945 C954 0.930 . S
H946 C956 0.930 . S
H947 C959 0.929 . S
H948 C962 0.930 . S
H949 C964 0.960 . S
H950 C964 0.960 . S
H951 C964 0.960 . S
C952 H944 0.929 . S
C952 C953 1.377 . S
C952 C954 1.384 . S
C953 C952 1.377 . S
C953 C959 1.390 . S
C954 H945 0.930 . S
C954 C952 1.384 . S
C954 C955 1.372 . S
C955 C954 1.372 . S
C955 C956 1.400 . S
C955 C960 1.490 . S
C956 H946 0.930 . S
C956 C955 1.400 . S
C956 C959 1.386 . S
H957 C973 0.930 . S
H958 C974 0.931 . S
C959 H947 0.929 . S
C959 C953 1.390 . S
C959 C956 1.386 . S
C960 C955 1.490 . S
C960 C962 1.395 . S
C960 C963 1.403 . S
H961 C967 0.930 . S
C962 H948 0.930 . S
C962 C960 1.395 . S
C962 C965 1.403 . S
C963 C960 1.403 . S
C963 C964 1.524 . S
C963 C967 1.400 . S
C964 H949 0.960 . S
C964 H950 0.960 . S
C964 H951 0.960 . S
C964 C963 1.524 . S
C965 C962 1.403 . S
C965 C966 1.392 . S
C965 C969 1.495 . S
C966 C965 1.392 . S
C966 C967 1.385 . S
C966 C968 1.478 . S
C967 H961 0.930 . S
C967 C963 1.400 . S
C967 C966 1.385 . S
C968 C966 1.478 . S
C968 C970 1.381 . S
C968 C974 1.383 . S
C969 C965 1.495 . S
C969 H975 0.959 . S
C969 H976 0.961 . S
C969 H977 0.960 . S
C970 C968 1.381 . S
C970 C971 1.394 . S
C970 H978 0.930 . S
C971 C970 1.394 . S
C971 C972 1.383 . S
C971 H979 0.929 . S
C972 C971 1.383 . S
C972 C973 1.377 . S
C973 H957 0.930 . S
C973 C972 1.377 . S
C973 C974 1.379 . S
C974 H958 0.931 . S
C974 C968 1.383 . S
C974 C973 1.379 . S
H975 C969 0.959 . S
H976 C969 0.961 . S
H977 C969 0.960 . S
H978 C970 0.930 . S
H979 C971 0.929 . S
H980 C988 0.929 . S
H981 C990 0.930 . S
H982 C992 0.930 . S
H983 C995 0.929 . S
H984 C998 0.930 . S
H985 C1000 0.960 . S
H986 C1000 0.960 . S
H987 C1000 0.960 . S
C988 H980 0.929 . S
C988 C989 1.377 . S
C988 C990 1.384 . S
C989 C988 1.377 . S
C989 C995 1.390 . S
C990 H981 0.930 . S
C990 C988 1.384 . S
C990 C991 1.372 . S
C991 C990 1.372 . S
C991 C992 1.400 . S
C991 C996 1.490 . S
C992 H982 0.930 . S
C992 C991 1.400 . S
C992 C995 1.386 . S
H993 C1009 0.930 . S
H994 C1010 0.931 . S
C995 H983 0.929 . S
C995 C989 1.390 . S
C995 C992 1.386 . S
C996 C991 1.490 . S
C996 C998 1.395 . S
C996 C999 1.403 . S
H997 C1003 0.930 . S
C998 H984 0.930 . S
C998 C996 1.395 . S
C998 C1001 1.403 . S
C999 C996 1.403 . S
C999 C1000 1.524 . S
C999 C1003 1.400 . S
C1000 H985 0.960 . S
C1000 H986 0.960 . S
C1000 H987 0.960 . S
C1000 C999 1.524 . S
C1001 C998 1.403 . S
C1001 C1002 1.392 . S
C1001 C1005 1.495 . S
C1002 C1001 1.392 . S
C1002 C1003 1.385 . S
C1002 C1004 1.478 . S
C1003 H997 0.930 . S
C1003 C999 1.400 . S
C1003 C1002 1.385 . S
C1004 C1002 1.478 . S
C1004 C1006 1.381 . S
C1004 C1010 1.383 . S
C1005 C1001 1.495 . S
C1005 H1011 0.959 . S
C1005 H1012 0.961 . S
C1005 H1013 0.960 . S
C1006 C1004 1.381 . S
C1006 C1007 1.394 . S
C1006 H1014 0.930 . S
C1007 C1006 1.394 . S
C1007 C1008 1.383 . S
C1007 H1015 0.929 . S
C1008 C1007 1.383 . S
C1008 C1009 1.377 . S
C1009 H993 0.930 . S
C1009 C1008 1.377 . S
C1009 C1010 1.379 . S
C1010 H994 0.931 . S
C1010 C1004 1.383 . S
C1010 C1009 1.379 . S
H1011 C1005 0.959 . S
H1012 C1005 0.961 . S
H1013 C1005 0.960 . S
H1014 C1006 0.930 . S
H1015 C1007 0.929 . S
H1016 C1024 0.929 . S
H1017 C1026 0.930 . S
H1018 C1028 0.930 . S
H1019 C1031 0.929 . S
H1020 C1034 0.930 . S
H1021 C1036 0.960 . S
H1022 C1036 0.960 . S
H1023 C1036 0.960 . S
C1024 H1016 0.929 . S
C1024 C1025 1.377 . S
C1024 C1026 1.384 . S
C1025 C1024 1.377 . S
C1025 C1031 1.390 . S
C1026 H1017 0.930 . S
C1026 C1024 1.384 . S
C1026 C1027 1.372 . S
C1027 C1026 1.372 . S
C1027 C1028 1.400 . S
C1027 C1032 1.490 . S
C1028 H1018 0.930 . S
C1028 C1027 1.400 . S
C1028 C1031 1.386 . S
H1029 C1045 0.930 . S
H1030 C1046 0.931 . S
C1031 H1019 0.929 . S
C1031 C1025 1.390 . S
C1031 C1028 1.386 . S
C1032 C1027 1.490 . S
C1032 C1034 1.395 . S
C1032 C1035 1.403 . S
H1033 C1039 0.930 . S
C1034 H1020 0.930 . S
C1034 C1032 1.395 . S
C1034 C1037 1.403 . S
C1035 C1032 1.403 . S
C1035 C1036 1.524 . S
C1035 C1039 1.400 . S
C1036 H1021 0.960 . S
C1036 H1022 0.960 . S
C1036 H1023 0.960 . S
C1036 C1035 1.524 . S
C1037 C1034 1.403 . S
C1037 C1038 1.392 . S
C1037 C1041 1.495 . S
C1038 C1037 1.392 . S
C1038 C1039 1.385 . S
C1038 C1040 1.478 . S
C1039 H1033 0.930 . S
C1039 C1035 1.400 . S
C1039 C1038 1.385 . S
C1040 C1038 1.478 . S
C1040 C1042 1.381 . S
C1040 C1046 1.383 . S
C1041 C1037 1.495 . S
C1041 H1047 0.959 . S
C1041 H1048 0.961 . S
C1041 H1049 0.960 . S
C1042 C1040 1.381 . S
C1042 C1043 1.394 . S
C1042 H1050 0.930 . S
C1043 C1042 1.394 . S
C1043 C1044 1.383 . S
C1043 H1051 0.929 . S
C1044 C1043 1.383 . S
C1044 C1045 1.377 . S
C1045 H1029 0.930 . S
C1045 C1044 1.377 . S
C1045 C1046 1.379 . S
C1046 H1030 0.931 . S
C1046 C1040 1.383 . S
C1046 C1045 1.379 . S
H1047 C1041 0.959 . S
H1048 C1041 0.961 . S
H1049 C1041 0.960 . S
H1050 C1042 0.930 . S
H1051 C1043 0.929 . S
H1052 C1060 0.929 . S
H1053 C1062 0.930 . S
H1054 C1064 0.930 . S
H1055 C1067 0.929 . S
H1056 C1070 0.930 . S
H1057 C1072 0.960 . S
H1058 C1072 0.960 . S
H1059 C1072 0.960 . S
C1060 H1052 0.929 . S
C1060 C1061 1.377 . S
C1060 C1062 1.384 . S
C1061 C1060 1.377 . S
C1061 C1067 1.390 . S
C1062 H1053 0.930 . S
C1062 C1060 1.384 . S
C1062 C1063 1.372 . S
C1063 C1062 1.372 . S
C1063 C1064 1.400 . S
C1063 C1068 1.490 . S
C1064 H1054 0.930 . S
C1064 C1063 1.400 . S
C1064 C1067 1.386 . S
H1065 C1081 0.930 . S
H1066 C1082 0.931 . S
C1067 H1055 0.929 . S
C1067 C1061 1.390 . S
C1067 C1064 1.386 . S
C1068 C1063 1.490 . S
C1068 C1070 1.395 . S
C1068 C1071 1.403 . S
H1069 C1075 0.930 . S
C1070 H1056 0.930 . S
C1070 C1068 1.395 . S
C1070 C1073 1.403 . S
C1071 C1068 1.403 . S
C1071 C1072 1.524 . S
C1071 C1075 1.400 . S
C1072 H1057 0.960 . S
C1072 H1058 0.960 . S
C1072 H1059 0.960 . S
C1072 C1071 1.524 . S
C1073 C1070 1.403 . S
C1073 C1074 1.392 . S
C1073 C1077 1.495 . S
C1074 C1073 1.392 . S
C1074 C1075 1.385 . S
C1074 C1076 1.478 . S
C1075 H1069 0.930 . S
C1075 C1071 1.400 . S
C1075 C1074 1.385 . S
C1076 C1074 1.478 . S
C1076 C1078 1.381 . S
C1076 C1082 1.383 . S
C1077 C1073 1.495 . S
C1077 H1083 0.959 . S
C1077 H1084 0.961 . S
C1077 H1085 0.960 . S
C1078 C1076 1.381 . S
C1078 C1079 1.394 . S
C1078 H1086 0.930 . S
C1079 C1078 1.394 . S
C1079 C1080 1.383 . S
C1079 H1087 0.929 . S
C1080 C1079 1.383 . S
C1080 C1081 1.377 . S
C1081 H1065 0.930 . S
C1081 C1080 1.377 . S
C1081 C1082 1.379 . S
C1082 H1066 0.931 . S
C1082 C1076 1.383 . S
C1082 C1081 1.379 . S
H1083 C1077 0.959 . S
H1084 C1077 0.961 . S
H1085 C1077 0.960 . S
H1086 C1078 0.930 . S
H1087 C1079 0.929 . S
H1088 C1096 0.929 . S
H1089 C1098 0.930 . S
H1090 C1100 0.930 . S
H1091 C1103 0.929 . S
H1092 C1106 0.930 . S
H1093 C1108 0.960 . S
H1094 C1108 0.960 1_565 S
H1095 C1108 0.960 1_565 S
C1096 H1088 0.929 . S
C1096 C1097 1.377 . S
C1096 C1098 1.384 . S
C1097 C1096 1.377 . S
C1097 C1103 1.390 . S
C1098 H1089 0.930 . S
C1098 C1096 1.384 . S
C1098 C1099 1.372 . S
C1099 C1098 1.372 . S
C1099 C1100 1.400 . S
C1099 C1104 1.490 . S
C1100 H1090 0.930 . S
C1100 C1099 1.400 . S
C1100 C1103 1.386 . S
H1101 C1117 0.930 . S
H1102 C1118 0.931 . S
C1103 H1091 0.929 . S
C1103 C1097 1.390 . S
C1103 C1100 1.386 . S
C1104 C1099 1.490 . S
C1104 C1106 1.395 1_655 S
C1104 C1107 1.377 1_565 S
H1105 C1111 0.930 . S
C1106 H1092 0.930 . S
C1106 C1104 1.395 1_455 S
C1106 C1109 1.403 . S
C1107 C1104 1.377 1_545 S
C1107 C1108 1.527 . S
C1107 C1111 1.423 . S
C1108 H1093 0.960 . S
C1108 H1094 0.960 1_545 S
C1108 H1095 0.960 1_545 S
C1108 C1107 1.527 . S
C1109 C1106 1.403 . S
C1109 C1110 1.392 1_565 S
C1109 C1113 1.495 . S
C1110 C1109 1.392 1_545 S
C1110 C1111 1.385 1_455 S
C1110 C1112 1.478 . S
C1111 H1105 0.930 . S
C1111 C1107 1.423 . S
C1111 C1110 1.385 1_655 S
C1112 C1110 1.478 . S
C1112 C1114 1.381 . S
C1112 C1118 1.383 . S
C1113 C1109 1.495 . S
C1113 H1119 0.959 . S
C1113 H1120 0.962 . S
C1113 H1121 0.960 1_565 S
C1114 C1112 1.381 . S
C1114 C1115 1.394 . S
C1114 H1122 0.930 . S
C1115 C1114 1.394 . S
C1115 C1116 1.383 . S
C1115 H1123 0.929 . S
C1116 C1115 1.383 . S
C1116 C1117 1.377 . S
C1117 H1101 0.930 . S
C1117 C1116 1.377 . S
C1117 C1118 1.379 . S
C1118 H1102 0.931 . S
C1118 C1112 1.383 . S
C1118 C1117 1.379 . S
H1119 C1113 0.959 . S
H1120 C1113 0.962 . S
H1121 C1113 0.960 1_545 S
H1122 C1114 0.930 . S
H1123 C1115 0.929 . S
H1124 C1132 0.929 . S
H1125 C1134 0.930 . S
H1126 C1136 0.930 . S
H1127 C1139 0.929 . S
H1128 C1142 0.930 . S
H1129 C1144 0.960 . S
H1130 C1144 0.960 1_655 S
H1131 C1144 0.960 1_655 S
C1132 H1124 0.929 . S
C1132 C1133 1.377 . S
C1132 C1134 1.384 . S
C1133 C1132 1.377 . S
C1133 C1139 1.390 . S
C1134 H1125 0.930 . S
C1134 C1132 1.384 . S
C1134 C1135 1.372 . S
C1135 C1134 1.372 . S
C1135 C1136 1.400 . S
C1135 C1140 1.490 . S
C1136 H1126 0.930 . S
C1136 C1135 1.400 . S
C1136 C1139 1.386 . S
H1137 C1153 0.930 . S
H1138 C1154 0.931 . S
C1139 H1127 0.929 . S
C1139 C1133 1.390 . S
C1139 C1136 1.386 . S
C1140 C1135 1.490 . S
C1140 C1142 1.395 1_545 S
C1140 C1143 1.384 1_655 S
H1141 C1147 0.930 . S
C1142 H1128 0.930 . S
C1142 C1140 1.395 1_565 S
C1142 C1145 1.403 . S
C1143 C1140 1.384 1_455 S
C1143 C1144 1.526 . S
C1143 C1147 1.417 . S
C1144 H1129 0.960 . S
C1144 H1130 0.960 1_455 S
C1144 H1131 0.960 1_455 S
C1144 C1143 1.526 . S
C1145 C1142 1.403 . S
C1145 C1146 1.392 1_655 S
C1145 C1149 1.495 . S
C1146 C1145 1.392 1_455 S
C1146 C1147 1.385 1_565 S
C1146 C1148 1.478 . S
C1147 H1141 0.930 . S
C1147 C1143 1.417 . S
C1147 C1146 1.385 1_545 S
C1148 C1146 1.478 . S
C1148 C1150 1.381 . S
C1148 C1154 1.383 . S
C1149 C1145 1.495 . S
C1149 H1155 0.959 . S
C1149 H1156 0.961 1_655 S
C1149 H1157 0.951 1_655 S
C1150 C1148 1.381 . S
C1150 C1151 1.394 . S
C1150 H1158 0.930 . S
C1151 C1150 1.394 . S
C1151 C1152 1.383 . S
C1151 H1159 0.929 . S
C1152 C1151 1.383 . S
C1152 C1153 1.377 . S
C1153 H1137 0.930 . S
C1153 C1152 1.377 . S
C1153 C1154 1.379 . S
C1154 H1138 0.931 . S
C1154 C1148 1.383 . S
C1154 C1153 1.379 . S
H1155 C1149 0.959 . S
H1156 C1149 0.961 1_455 S
H1157 C1149 0.951 1_455 S
H1158 C1150 0.930 . S
H1159 C1151 0.929 . S
H1160 C1168 0.929 . S
H1161 C1170 0.930 . S
H1162 C1172 0.930 . S
H1163 C1175 0.929 . S
H1164 C1178 0.930 . S
H1165 C1180 0.960 . S
H1166 C1180 0.960 . S
H1167 C1180 0.960 . S
C1168 H1160 0.929 . S
C1168 C1169 1.377 . S
C1168 C1170 1.384 . S
C1169 C1168 1.377 . S
C1169 C1175 1.390 . S
C1170 H1161 0.930 . S
C1170 C1168 1.384 . S
C1170 C1171 1.372 . S
C1171 C1170 1.372 . S
C1171 C1172 1.400 . S
C1171 C1176 1.490 . S
C1172 H1162 0.930 . S
C1172 C1171 1.400 . S
C1172 C1175 1.386 . S
H1173 C1189 0.930 . S
H1174 C1190 0.931 . S
C1175 H1163 0.929 . S
C1175 C1169 1.390 . S
C1175 C1172 1.386 . S
C1176 C1171 1.490 . S
C1176 C1178 1.395 . S
C1176 C1179 1.403 1_455 S
H1177 C1183 0.930 . S
C1178 H1164 0.930 . S
C1178 C1176 1.395 . S
C1178 C1181 1.403 . S
C1179 C1176 1.403 1_655 S
C1179 C1180 1.524 . S
C1179 C1183 1.400 . S
C1180 H1165 0.960 . S
C1180 H1166 0.960 . S
C1180 H1167 0.960 . S
C1180 C1179 1.524 . S
C1181 C1178 1.403 . S
C1181 C1182 1.392 1_455 S
C1181 C1185 1.495 . S
C1182 C1181 1.392 1_655 S
C1182 C1183 1.385 . S
C1182 C1184 1.478 . S
C1183 H1177 0.930 . S
C1183 C1179 1.400 . S
C1183 C1182 1.385 . S
C1184 C1182 1.478 . S
C1184 C1186 1.381 . S
C1184 C1190 1.383 . S
C1185 C1181 1.495 . S
C1185 H1191 0.959 . S
C1185 H1192 0.961 . S
C1185 H1193 0.960 . S
C1186 C1184 1.381 . S
C1186 C1187 1.394 . S
C1186 H1194 0.930 . S
C1187 C1186 1.394 . S
C1187 C1188 1.383 . S
C1187 H1195 0.929 . S
C1188 C1187 1.383 . S
C1188 C1189 1.377 . S
C1189 H1173 0.930 . S
C1189 C1188 1.377 . S
C1189 C1190 1.379 . S
C1190 H1174 0.931 . S
C1190 C1184 1.383 . S
C1190 C1189 1.379 . S
H1191 C1185 0.959 . S
H1192 C1185 0.961 . S
H1193 C1185 0.960 . S
H1194 C1186 0.930 . S
H1195 C1187 0.929 . S
H1196 C1204 0.929 . S
H1197 C1206 0.930 . S
H1198 C1208 0.930 . S
H1199 C1211 0.929 . S
H1200 C1214 0.930 . S
H1201 C1216 0.960 . S
H1202 C1216 0.960 . S
H1203 C1216 0.960 . S
C1204 H1196 0.929 . S
C1204 C1205 1.377 . S
C1204 C1206 1.384 . S
C1205 C1204 1.377 . S
C1205 C1211 1.390 . S
C1206 H1197 0.930 . S
C1206 C1204 1.384 . S
C1206 C1207 1.372 . S
C1207 C1206 1.372 . S
C1207 C1208 1.400 . S
C1207 C1212 1.490 . S
C1208 H1198 0.930 . S
C1208 C1207 1.400 . S
C1208 C1211 1.386 . S
H1209 C1225 0.930 . S
H1210 C1226 0.931 . S
C1211 H1199 0.929 . S
C1211 C1205 1.390 . S
C1211 C1208 1.386 . S
C1212 C1207 1.490 . S
C1212 C1214 1.395 1_565 S
C1212 C1215 1.403 . S
H1213 C1219 0.930 . S
C1214 H1200 0.930 . S
C1214 C1212 1.395 1_545 S
C1214 C1217 1.403 . S
C1215 C1212 1.403 . S
C1215 C1216 1.524 . S
C1215 C1219 1.400 . S
C1216 H1201 0.960 . S
C1216 H1202 0.960 . S
C1216 H1203 0.960 . S
C1216 C1215 1.524 . S
C1217 C1214 1.403 . S
C1217 C1218 1.392 . S
C1217 C1221 1.495 . S
C1218 C1217 1.392 . S
C1218 C1219 1.385 1_545 S
C1218 C1220 1.478 . S
C1219 H1213 0.930 . S
C1219 C1215 1.400 . S
C1219 C1218 1.385 1_565 S
C1220 C1218 1.478 . S
C1220 C1222 1.381 . S
C1220 C1226 1.383 . S
C1221 C1217 1.495 . S
C1221 H1227 0.959 . S
C1221 H1228 0.961 . S
C1221 H1229 0.960 . S
C1222 C1220 1.381 . S
C1222 C1223 1.394 . S
C1222 H1230 0.930 . S
C1223 C1222 1.394 . S
C1223 C1224 1.383 . S
C1223 H1231 0.929 . S
C1224 C1223 1.383 . S
C1224 C1225 1.377 . S
C1225 H1209 0.930 . S
C1225 C1224 1.377 . S
C1225 C1226 1.379 . S
C1226 H1210 0.931 . S
C1226 C1220 1.383 . S
C1226 C1225 1.379 . S
H1227 C1221 0.959 . S
H1228 C1221 0.961 . S
H1229 C1221 0.960 . S
H1230 C1222 0.930 . S
H1231 C1223 0.929 . S
H1232 C1240 0.929 . S
H1233 C1242 0.930 . S
H1234 C1244 0.930 . S
H1235 C1247 0.929 . S
H1236 C1250 0.930 . S
H1237 C1252 0.960 . S
H1238 C1252 0.960 . S
H1239 C1252 0.960 . S
C1240 H1232 0.929 . S
C1240 C1241 1.377 . S
C1240 C1242 1.384 . S
C1241 C1240 1.377 . S
C1241 C1247 1.390 . S
C1242 H1233 0.930 . S
C1242 C1240 1.384 . S
C1242 C1243 1.372 . S
C1243 C1242 1.372 . S
C1243 C1244 1.400 . S
C1243 C1248 1.490 . S
C1244 H1234 0.930 . S
C1244 C1243 1.400 . S
C1244 C1247 1.386 . S
H1245 C1261 0.930 . S
H1246 C1262 0.931 . S
C1247 H1235 0.929 . S
C1247 C1241 1.390 . S
C1247 C1244 1.386 . S
C1248 C1243 1.490 . S
C1248 C1250 1.395 . S
C1248 C1251 1.403 . S
H1249 C1255 0.930 . S
C1250 H1236 0.930 . S
C1250 C1248 1.395 . S
C1250 C1253 1.403 . S
C1251 C1248 1.403 . S
C1251 C1252 1.524 . S
C1251 C1255 1.400 . S
C1252 H1237 0.960 . S
C1252 H1238 0.960 . S
C1252 H1239 0.960 . S
C1252 C1251 1.524 . S
C1253 C1250 1.403 . S
C1253 C1254 1.392 . S
C1253 C1257 1.495 . S
C1254 C1253 1.392 . S
C1254 C1255 1.385 . S
C1254 C1256 1.478 . S
C1255 H1249 0.930 . S
C1255 C1251 1.400 . S
C1255 C1254 1.385 . S
C1256 C1254 1.478 . S
C1256 C1258 1.381 . S
C1256 C1262 1.383 . S
C1257 C1253 1.495 . S
C1257 H1263 0.959 . S
C1257 H1264 0.961 . S
C1257 H1265 0.960 . S
C1258 C1256 1.381 . S
C1258 C1259 1.394 . S
C1258 H1266 0.930 . S
C1259 C1258 1.394 . S
C1259 C1260 1.383 . S
C1259 H1267 0.929 . S
C1260 C1259 1.383 . S
C1260 C1261 1.377 . S
C1261 H1245 0.930 . S
C1261 C1260 1.377 . S
C1261 C1262 1.379 . S
C1262 H1246 0.931 . S
C1262 C1256 1.383 . S
C1262 C1261 1.379 . S
H1263 C1257 0.959 . S
H1264 C1257 0.961 . S
H1265 C1257 0.960 . S
H1266 C1258 0.930 . S
H1267 C1259 0.929 . S
H1268 C1276 0.929 . S
H1269 C1278 0.930 . S
H1270 C1280 0.930 . S
H1271 C1283 0.929 . S
H1272 C1286 0.930 . S
H1273 C1288 0.960 . S
H1274 C1288 0.960 . S
H1275 C1288 0.960 . S
C1276 H1268 0.929 . S
C1276 C1277 1.377 . S
C1276 C1278 1.384 . S
C1277 C1276 1.377 . S
C1277 C1283 1.390 . S
C1278 H1269 0.930 . S
C1278 C1276 1.384 . S
C1278 C1279 1.372 . S
C1279 C1278 1.372 . S
C1279 C1280 1.400 . S
C1279 C1284 1.490 . S
C1280 H1270 0.930 . S
C1280 C1279 1.400 . S
C1280 C1283 1.386 . S
H1281 C1297 0.930 . S
H1282 C1298 0.931 . S
C1283 H1271 0.929 . S
C1283 C1277 1.390 . S
C1283 C1280 1.386 . S
C1284 C1279 1.490 . S
C1284 C1286 1.395 . S
C1284 C1287 1.403 . S
H1285 C1291 0.930 . S
C1286 H1272 0.930 . S
C1286 C1284 1.395 . S
C1286 C1289 1.403 . S
C1287 C1284 1.403 . S
C1287 C1288 1.524 . S
C1287 C1291 1.400 . S
C1288 H1273 0.960 . S
C1288 H1274 0.960 . S
C1288 H1275 0.960 . S
C1288 C1287 1.524 . S
C1289 C1286 1.403 . S
C1289 C1290 1.392 . S
C1289 C1293 1.495 . S
C1290 C1289 1.392 . S
C1290 C1291 1.385 . S
C1290 C1292 1.478 . S
C1291 H1285 0.930 . S
C1291 C1287 1.400 . S
C1291 C1290 1.385 . S
C1292 C1290 1.478 . S
C1292 C1294 1.381 . S
C1292 C1298 1.383 . S
C1293 C1289 1.495 . S
C1293 H1299 0.959 . S
C1293 H1300 0.961 . S
C1293 H1301 0.960 . S
C1294 C1292 1.381 . S
C1294 C1295 1.394 . S
C1294 H1302 0.930 . S
C1295 C1294 1.394 . S
C1295 C1296 1.383 . S
C1295 H1303 0.929 . S
C1296 C1295 1.383 . S
C1296 C1297 1.377 . S
C1297 H1281 0.930 . S
C1297 C1296 1.377 . S
C1297 C1298 1.379 . S
C1298 H1282 0.931 . S
C1298 C1292 1.383 . S
C1298 C1297 1.379 . S
H1299 C1293 0.959 . S
H1300 C1293 0.961 . S
H1301 C1293 0.960 . S
H1302 C1294 0.930 . S
H1303 C1295 0.929 . S
H1304 C1312 0.929 . S
H1305 C1314 0.930 . S
H1306 C1316 0.930 . S
H1307 C1319 0.929 . S
H1308 C1322 0.929 1_545 S
H1309 C1324 0.960 . S
H1310 C1324 0.960 . S
H1311 C1324 0.960 . S
C1312 H1304 0.929 . S
C1312 C1313 1.377 . S
C1312 C1314 1.384 . S
C1313 C1312 1.377 . S
C1313 C1319 1.390 . S
C1314 H1305 0.930 . S
C1314 C1312 1.384 . S
C1314 C1315 1.372 . S
C1315 C1314 1.372 . S
C1315 C1316 1.400 . S
C1315 C1320 1.490 . S
C1316 H1306 0.930 . S
C1316 C1315 1.400 . S
C1316 C1319 1.386 . S
H1317 C1333 0.930 . S
H1318 C1334 0.931 . S
C1319 H1307 0.929 . S
C1319 C1313 1.390 . S
C1319 C1316 1.386 . S
C1320 C1315 1.490 . S
C1320 C1322 1.386 1_545 S
C1320 C1323 1.403 . S
H1321 C1327 0.930 . S
C1322 H1308 0.929 1_565 S
C1322 C1320 1.386 1_565 S
C1322 C1325 1.412 . S
C1323 C1320 1.403 . S
C1323 C1324 1.524 . S
C1323 C1327 1.400 1_545 S
C1324 H1309 0.960 . S
C1324 H1310 0.960 . S
C1324 H1311 0.960 . S
C1324 C1323 1.524 . S
C1325 C1322 1.412 . S
C1325 C1326 1.392 . S
C1325 C1329 1.495 . S
C1326 C1325 1.392 . S
C1326 C1327 1.385 . S
C1326 C1328 1.478 . S
C1327 H1321 0.930 . S
C1327 C1323 1.400 1_565 S
C1327 C1326 1.385 . S
C1328 C1326 1.478 . S
C1328 C1330 1.381 . S
C1328 C1334 1.383 . S
C1329 C1325 1.495 . S
C1329 H1335 0.959 . S
C1329 H1336 0.961 . S
C1329 H1337 0.960 . S
C1330 C1328 1.381 . S
C1330 C1331 1.394 . S
C1330 H1338 0.930 . S
C1331 C1330 1.394 . S
C1331 C1332 1.383 . S
C1331 H1339 0.929 . S
C1332 C1331 1.383 . S
C1332 C1333 1.377 . S
C1333 H1317 0.930 . S
C1333 C1332 1.377 . S
C1333 C1334 1.379 . S
C1334 H1318 0.931 . S
C1334 C1328 1.383 . S
C1334 C1333 1.379 . S
H1335 C1329 0.959 . S
H1336 C1329 0.961 . S
H1337 C1329 0.960 . S
H1338 C1330 0.930 . S
H1339 C1331 0.929 . S
H1340 C1348 0.929 . S
H1341 C1350 0.930 . S
H1342 C1352 0.930 . S
H1343 C1355 0.929 . S
H1344 C1358 0.930 . S
H1345 C1360 0.960 . S
H1346 C1360 0.960 1_655 S
H1347 C1360 0.960 1_655 S
C1348 H1340 0.929 . S
C1348 C1349 1.377 . S
C1348 C1350 1.384 . S
C1349 C1348 1.377 . S
C1349 C1355 1.390 . S
C1350 H1341 0.930 . S
C1350 C1348 1.384 . S
C1350 C1351 1.372 . S
C1351 C1350 1.372 . S
C1351 C1352 1.400 . S
C1351 C1356 1.490 . S
C1352 H1342 0.930 . S
C1352 C1351 1.400 . S
C1352 C1355 1.386 . S
H1353 C1369 0.930 . S
H1354 C1370 0.931 . S
C1355 H1343 0.929 . S
C1355 C1349 1.390 . S
C1355 C1352 1.386 . S
C1356 C1351 1.490 . S
C1356 C1358 1.395 . S
C1356 C1359 1.403 1_655 S
H1357 C1363 0.930 . S
C1358 H1344 0.930 . S
C1358 C1356 1.395 . S
C1358 C1361 1.403 . S
C1359 C1356 1.403 1_455 S
C1359 C1360 1.524 . S
C1359 C1363 1.400 . S
C1360 H1345 0.960 . S
C1360 H1346 0.960 1_455 S
C1360 H1347 0.960 1_455 S
C1360 C1359 1.524 . S
C1361 C1358 1.403 . S
C1361 C1362 1.392 1_655 S
C1361 C1365 1.495 . S
C1362 C1361 1.392 1_455 S
C1362 C1363 1.385 . S
C1362 C1364 1.478 . S
C1363 H1357 0.930 . S
C1363 C1359 1.400 . S
C1363 C1362 1.385 . S
C1364 C1362 1.478 . S
C1364 C1366 1.381 . S
C1364 C1370 1.383 . S
C1365 C1361 1.495 . S
C1365 H1371 0.959 . S
C1365 H1372 0.959 1_655 S
C1365 H1373 0.960 1_655 S
C1366 C1364 1.381 . S
C1366 C1367 1.394 . S
C1366 H1374 0.930 . S
C1367 C1366 1.394 . S
C1367 C1368 1.383 . S
C1367 H1375 0.929 . S
C1368 C1367 1.383 . S
C1368 C1369 1.377 . S
C1369 H1353 0.930 . S
C1369 C1368 1.377 . S
C1369 C1370 1.379 . S
C1370 H1354 0.931 . S
C1370 C1364 1.383 . S
C1370 C1369 1.379 . S
H1371 C1365 0.959 . S
H1372 C1365 0.959 1_455 S
H1373 C1365 0.960 1_455 S
H1374 C1366 0.930 . S
H1375 C1367 0.929 . S
C233 C3 1.044 . S
C252 C163 1.038 . S
C269 C121 1.046 . S
C288 C17 1.080 . S
C305 C135 1.047 . S
C324 C31 1.024 . S
C341 C149 1.046 . S
C360 C45 1.080 . S
C377 C79 1.046 . S
C396 C59 1.046 . S
C413 C73 1.056 . S
C432 C93 1.033 . S
C449 C87 1.057 . S
C468 C107 1.070 . S
C485 C101 1.049 . S
C504 C65 1.050 . S
C521 C115 1.050 . S
C540 C51 1.077 . S
C557 C9 1.056 . S
C576 C129 1.033 . S
C593 C23 1.046 . S
C612 C143 1.047 . S
C629 C37 1.046 . S
C648 C157 1.074 . S
C665 C191 1.058 . S
C684 C171 1.069 . S
C701 C185 1.051 . S
C720 C205 1.041 . S
C737 C219 1.058 . S
C756 C199 1.049 . S
C773 C177 1.046 . S
C792 C213 1.080 . S
C809 C204 1.602 . S
C828 C8 1.606 . S
C845 C218 1.602 . S
C864 C22 1.593 . S
C881 C176 1.602 . S
C900 C36 1.603 . S
C917 C50 1.598 . S
C936 C190 1.597 . S
C953 C64 1.602 . S
C972 C148 1.606 . S
C989 C162 1.601 . S
C1008 C78 1.587 . S
C1025 C92 1.598 . S
C1044 C120 1.589 . S
C1061 C106 1.602 . S
C1080 C134 1.589 . S
C1097 C35 1.089 . S
C1116 C7 1.113 . S
C1133 C49 1.081 . S
C1152 C21 1.114 . S
C1169 C63 1.076 . S
C1188 C91 1.047 . S
C1205 C77 1.086 . S
C1224 C105 1.099 . S
C1241 C147 1.084 . S
C1260 C119 1.087 . S
C1277 C133 1.078 . S
C1296 C161 1.070 . S
C1313 C203 1.079 . S
C1332 C175 1.061 . S
C1349 C189 1.083 . S
C1368 C217 1.110 . S
