# Generated by pormake.
# Topology ukk, (4)-cn, num edge types: 1
# Building blocks:
#     Node 0, Type 0, BuildingBlock: ICAMEG_clean_sbu_1, # of connection points: 4
#     Node 1, Type 0, BuildingBlock: ICAMEG_clean_sbu_1, # of connection points: 4
#     Node 2, Type 0, BuildingBlock: ICAMEG_clean_sbu_1, # of connection points: 4
#     Node 3, Type 0, BuildingBlock: ICAMEG_clean_sbu_1, # of connection points: 4
#     Node 4, Type 0, BuildingBlock: ICAMEG_clean_sbu_1, # of connection points: 4
#     Node 5, Type 0, BuildingBlock: ICAMEG_clean_sbu_1, # of connection points: 4
#     Node 6, Type 0, BuildingBlock: ICAMEG_clean_sbu_1, # of connection points: 4
#     Node 7, Type 0, BuildingBlock: ICAMEG_clean_sbu_1, # of connection points: 4
#     Node 8, Type 0, BuildingBlock: ICAMEG_clean_sbu_1, # of connection points: 4
#     Node 9, Type 0, BuildingBlock: ICAMEG_clean_sbu_1, # of connection points: 4
#     Node 10, Type 0, BuildingBlock: ICAMEG_clean_sbu_1, # of connection points: 4
#     Node 11, Type 0, BuildingBlock: ICAMEG_clean_sbu_1, # of connection points: 4
#     Node 12, Type 0, BuildingBlock: ICAMEG_clean_sbu_1, # of connection points: 4
#     Node 13, Type 0, BuildingBlock: ICAMEG_clean_sbu_1, # of connection points: 4
#     Node 14, Type 0, BuildingBlock: ICAMEG_clean_sbu_1, # of connection points: 4
#     Node 15, Type 0, BuildingBlock: ICAMEG_clean_sbu_1, # of connection points: 4
#     Edge 16, Type (0, 0), BuildingBlock: XIVTED_clean_linker_0, # of connection points: 2
#     Edge 17, Type (0, 0), BuildingBlock: XIVTED_clean_linker_0, # of connection points: 2
#     Edge 18, Type (0, 0), BuildingBlock: XIVTED_clean_linker_0, # of connection points: 2
#     Edge 19, Type (0, 0), BuildingBlock: XIVTED_clean_linker_0, # of connection points: 2
#     Edge 20, Type (0, 0), BuildingBlock: XIVTED_clean_linker_0, # of connection points: 2
#     Edge 21, Type (0, 0), BuildingBlock: XIVTED_clean_linker_0, # of connection points: 2
#     Edge 22, Type (0, 0), BuildingBlock: XIVTED_clean_linker_0, # of connection points: 2
#     Edge 23, Type (0, 0), BuildingBlock: XIVTED_clean_linker_0, # of connection points: 2
#     Edge 24, Type (0, 0), BuildingBlock: XIVTED_clean_linker_0, # of connection points: 2
#     Edge 25, Type (0, 0), BuildingBlock: XIVTED_clean_linker_0, # of connection points: 2
#     Edge 26, Type (0, 0), BuildingBlock: XIVTED_clean_linker_0, # of connection points: 2
#     Edge 27, Type (0, 0), BuildingBlock: XIVTED_clean_linker_0, # of connection points: 2
#     Edge 28, Type (0, 0), BuildingBlock: XIVTED_clean_linker_0, # of connection points: 2
#     Edge 29, Type (0, 0), BuildingBlock: XIVTED_clean_linker_0, # of connection points: 2
#     Edge 30, Type (0, 0), BuildingBlock: XIVTED_clean_linker_0, # of connection points: 2
#     Edge 31, Type (0, 0), BuildingBlock: XIVTED_clean_linker_0, # of connection points: 2
#     Edge 32, Type (0, 0), BuildingBlock: XIVTED_clean_linker_0, # of connection points: 2
#     Edge 33, Type (0, 0), BuildingBlock: XIVTED_clean_linker_0, # of connection points: 2
#     Edge 34, Type (0, 0), BuildingBlock: XIVTED_clean_linker_0, # of connection points: 2
#     Edge 35, Type (0, 0), BuildingBlock: XIVTED_clean_linker_0, # of connection points: 2
#     Edge 36, Type (0, 0), BuildingBlock: XIVTED_clean_linker_0, # of connection points: 2
#     Edge 37, Type (0, 0), BuildingBlock: XIVTED_clean_linker_0, # of connection points: 2
#     Edge 38, Type (0, 0), BuildingBlock: XIVTED_clean_linker_0, # of connection points: 2
#     Edge 39, Type (0, 0), BuildingBlock: XIVTED_clean_linker_0, # of connection points: 2
#     Edge 40, Type (0, 0), BuildingBlock: XIVTED_clean_linker_0, # of connection points: 2
#     Edge 41, Type (0, 0), BuildingBlock: XIVTED_clean_linker_0, # of connection points: 2
#     Edge 42, Type (0, 0), BuildingBlock: XIVTED_clean_linker_0, # of connection points: 2
#     Edge 43, Type (0, 0), BuildingBlock: XIVTED_clean_linker_0, # of connection points: 2
#     Edge 44, Type (0, 0), BuildingBlock: XIVTED_clean_linker_0, # of connection points: 2
#     Edge 45, Type (0, 0), BuildingBlock: XIVTED_clean_linker_0, # of connection points: 2
#     Edge 46, Type (0, 0), BuildingBlock: XIVTED_clean_linker_0, # of connection points: 2
#     Edge 47, Type (0, 0), BuildingBlock: XIVTED_clean_linker_0, # of connection points: 2
# Relax obj value: 0.062
# Max RMSD: 0.229
# Mean RMSD: 0.224
data_MOF--net-ukk--node1-ICAMEG_clean_sbu_1--edge1-XIVTED_clean_linker_0
_symmetry_space_group_name_H-M    P1
_symmetry_Int_Tables_number       1
_symmetry_cell_setting            triclinic
loop_
_symmetry_equiv_pos_as_xyz
'x, y, z'
_cell_length_a     59.397086
_cell_length_b     58.633391
_cell_length_c     16.400396
_cell_angle_alpha  89.98201
_cell_angle_beta   90.040897
_cell_angle_gamma 90.005181
loop_
_atom_site_label
_atom_site_type_symbol
_atom_site_fract_x
_atom_site_fract_y
_atom_site_fract_z
_atom_type_partial_charge
Co0 Co 0.36835 0.1197 0.21533 0.0
Co1 Co 0.37443 0.1181 0.00581 0.0
O2 O 0.36365 0.10589 0.10906 0.0
C3 C 0.38945 0.07452 0.22832 0.0
O4 O 0.40133 0.07996 0.16382 0.0
C5 C 0.32538 0.11756 0.99617 0.0
O6 O 0.32608 0.12645 0.06942 0.0
O7 O 0.36561 0.14972 0.03595 0.0
O8 O 0.36117 0.15059 0.1721 0.0
H9 H 0.41614 0.17258 0.82367 0.0
H10 H 0.33717 0.08041 0.19768 0.0
O11 O 0.37563 0.08871 0.25911 0.0
H12 H 0.29114 0.14279 0.31091 0.0
H13 H 0.36379 0.12136 0.52178 0.0
H14 H 0.39042 0.16183 0.27642 0.0
H15 H 0.33157 0.14852 0.28332 0.0
H16 H 0.3571 0.10535 0.38474 0.0
O17 O 0.34363 0.11311 0.95838 0.0
H18 H 0.40324 0.15699 0.95539 0.0
H19 H 0.36726 0.10464 0.83273 0.0
H20 H 0.39729 0.17855 0.41218 0.0
H21 H 0.29686 0.07388 0.22495 0.0
H22 H 0.38397 0.15824 0.53609 0.0
H23 H 0.27354 0.10523 0.28175 0.0
O24 O 0.40056 0.12528 0.19011 0.0
H25 H 0.36327 0.0335 0.97758 0.0
H26 H 0.41606 0.09741 0.93692 0.0
H27 H 0.42804 0.05829 0.90251 0.0
H28 H 0.40153 0.02602 0.92275 0.0
H29 H 0.35205 0.07287 0.01161 0.0
H30 H 0.37959 0.11979 0.69958 0.0
H31 H 0.40427 0.15395 0.69456 0.0
O32 O 0.40502 0.12357 0.05354 0.0
C33 C 0.36117 0.16015 0.10222 0.0
C34 C 0.40546 0.15763 0.82508 0.0
C35 C 0.38492 0.12802 0.75543 0.0
N36 N 0.38469 0.12982 0.90169 0.0
C37 C 0.39818 0.14868 0.89948 0.0
C38 C 0.37796 0.11955 0.83095 0.0
C39 C 0.39878 0.14719 0.75265 0.0
C40 C 0.3272 0.09405 0.22334 0.0
N41 N 0.33676 0.11475 0.23961 0.0
C42 C 0.30436 0.09029 0.23826 0.0
C43 C 0.29127 0.1079 0.27 0.0
C44 C 0.30114 0.12898 0.28633 0.0
C45 C 0.32403 0.13213 0.27053 0.0
C46 C 0.36965 0.13038 0.46824 0.0
C47 C 0.38442 0.15298 0.33 0.0
C48 C 0.36595 0.12138 0.39051 0.0
N49 N 0.37324 0.13272 0.32264 0.0
C50 C 0.38842 0.16249 0.40673 0.0
C51 C 0.38096 0.15109 0.47623 0.0
C52 C 0.41259 0.12667 0.12572 0.0
C53 C 0.37494 0.04743 0.96825 0.0
C54 C 0.40445 0.08344 0.94596 0.0
C55 C 0.41131 0.06134 0.92625 0.0
C56 C 0.39643 0.04324 0.9376 0.0
N57 N 0.38334 0.08742 0.9758 0.0
C58 C 0.36865 0.06977 0.98713 0.0
Co59 Co 0.11693 0.63532 0.79504 0.0
Co60 Co 0.09724 0.62433 0.98947 0.0
O61 O 0.11622 0.64058 0.91229 0.0
C62 C 0.16241 0.6261 0.85642 0.0
O63 O 0.15232 0.61428 0.91359 0.0
C64 C 0.08501 0.67245 0.00509 0.0
O65 O 0.08365 0.67268 0.92525 0.0
O66 O 0.07067 0.62772 0.91706 0.0
O67 O 0.08314 0.63477 0.78981 0.0
H68 H 0.03928 0.56677 0.07584 0.0
H69 H 0.14239 0.67402 0.86672 0.0
O70 O 0.15083 0.63554 0.80013 0.0
H71 H 0.08891 0.70883 0.67312 0.0
H72 H 0.14735 0.64738 0.51198 0.0
H73 H 0.09171 0.60603 0.67913 0.0
H74 H 0.09034 0.66707 0.69077 0.0
H75 H 0.1453 0.65369 0.66058 0.0
O76 O 0.08988 0.65406 0.04251 0.0
H77 H 0.06385 0.58684 0.97806 0.0
H78 H 0.08945 0.62862 0.16823 0.0
H79 H 0.09304 0.59933 0.53069 0.0
H80 H 0.1416 0.71585 0.8507 0.0
H81 H 0.12101 0.6201 0.44608 0.0
H82 H 0.11469 0.73351 0.75341 0.0
O83 O 0.11707 0.60171 0.81022 0.0
H84 H 0.16626 0.65171 0.13744 0.0
H85 H 0.11774 0.58538 0.07992 0.0
H86 H 0.15129 0.58055 0.16694 0.0
H87 H 0.1758 0.61388 0.19628 0.0
H88 H 0.13267 0.65573 0.05013 0.0
H89 H 0.06506 0.6091 0.26801 0.0
H90 H 0.0398 0.57788 0.22198 0.0
O91 O 0.10429 0.59454 0.93684 0.0
C92 C 0.06731 0.63148 0.84134 0.0
C93 C 0.05027 0.58029 0.09669 0.0
C94 C 0.06472 0.60407 0.20453 0.0
N95 N 0.07821 0.60872 0.06759 0.0
C96 C 0.06427 0.59166 0.04166 0.0
C97 C 0.07846 0.61508 0.14775 0.0
C98 C 0.05056 0.58655 0.17866 0.0
C99 C 0.13078 0.68157 0.82371 0.0
N100 N 0.11655 0.66811 0.7793 0.0
C101 C 0.13034 0.70527 0.81515 0.0
C102 C 0.11521 0.71517 0.76064 0.0
C103 C 0.10074 0.70133 0.7156 0.0
C104 C 0.10162 0.6777 0.72591 0.0
C105 C 0.13506 0.63826 0.54817 0.0
C106 C 0.10383 0.61523 0.64262 0.0
C107 C 0.13386 0.64172 0.63232 0.0
N108 N 0.11829 0.63037 0.67828 0.0
C109 C 0.10455 0.61132 0.55865 0.0
C110 C 0.12027 0.62296 0.51123 0.0
C111 C 0.1115 0.58807 0.86736 0.0
C112 C 0.15567 0.63707 0.12533 0.0
C113 C 0.12835 0.59994 0.09225 0.0
C114 C 0.1473 0.59712 0.14172 0.0
C115 C 0.16103 0.61584 0.15822 0.0
N116 N 0.12319 0.62083 0.06027 0.0
C117 C 0.13657 0.63926 0.07621 0.0
Co118 Co 0.62652 0.87474 0.22433 0.0
Co119 Co 0.62104 0.87676 0.01462 0.0
O120 O 0.63156 0.88874 0.11859 0.0
C121 C 0.60571 0.92003 0.23756 0.0
O122 O 0.59391 0.91481 0.17256 0.0
C123 C 0.67011 0.87721 0.00706 0.0
O124 O 0.66919 0.86818 0.08006 0.0
O125 O 0.6297 0.84505 0.04436 0.0
O126 O 0.63372 0.84394 0.18067 0.0
H127 H 0.57961 0.82281 0.82951 0.0
H128 H 0.65793 0.91391 0.20869 0.0
O129 O 0.6193 0.90565 0.2686 0.0
H130 H 0.70338 0.85113 0.32254 0.0
H131 H 0.63031 0.87235 0.5309 0.0
H132 H 0.60414 0.83257 0.28341 0.0
H133 H 0.663 0.84563 0.29326 0.0
H134 H 0.63738 0.88867 0.39458 0.0
O135 O 0.65198 0.88176 0.96859 0.0
H136 H 0.59224 0.83807 0.9621 0.0
H137 H 0.62873 0.89054 0.84215 0.0
H138 H 0.59689 0.81554 0.41842 0.0
H139 H 0.6982 0.92021 0.2377 0.0
H140 H 0.60998 0.8355 0.54339 0.0
H141 H 0.72123 0.88865 0.29481 0.0
O142 O 0.59435 0.86938 0.19769 0.0
H143 H 0.6325 0.96138 0.98877 0.0
H144 H 0.57966 0.8977 0.94446 0.0
H145 H 0.56788 0.93691 0.9104 0.0
H146 H 0.59442 0.96908 0.93248 0.0
H147 H 0.64352 0.92192 0.02241 0.0
H148 H 0.61667 0.87573 0.70816 0.0
H149 H 0.59187 0.84168 0.70134 0.0
O150 O 0.59031 0.87129 0.06096 0.0
C151 C 0.63394 0.8345 0.11062 0.0
C152 C 0.59035 0.83771 0.8317 0.0
C153 C 0.61118 0.8674 0.76359 0.0
N154 N 0.61103 0.86528 0.90981 0.0
C155 C 0.59748 0.84647 0.9066 0.0
C156 C 0.61798 0.87568 0.83959 0.0
C157 C 0.59725 0.84829 0.75981 0.0
C158 C 0.66777 0.90018 0.2345 0.0
N159 N 0.65807 0.87949 0.24999 0.0
C160 C 0.69059 0.90381 0.2504 0.0
C161 C 0.70351 0.88609 0.28231 0.0
C162 C 0.69351 0.86503 0.29784 0.0
C163 C 0.67065 0.86201 0.28108 0.0
C164 C 0.62455 0.86348 0.47689 0.0
C165 C 0.61004 0.84127 0.33746 0.0
C166 C 0.62846 0.87266 0.39956 0.0
N167 N 0.6213 0.86151 0.3311 0.0
C168 C 0.60582 0.83158 0.41377 0.0
C169 C 0.61315 0.84279 0.48386 0.0
C170 C 0.58251 0.86813 0.13274 0.0
C171 C 0.62081 0.9475 0.97864 0.0
C172 C 0.59127 0.91162 0.9543 0.0
C173 C 0.58453 0.93378 0.93479 0.0
C174 C 0.59943 0.95181 0.94716 0.0
N175 N 0.61229 0.90753 0.98495 0.0
C176 C 0.62699 0.92511 0.9973 0.0
Co177 Co 0.87462 0.35921 0.77554 0.0
Co178 Co 0.89635 0.36606 0.96943 0.0
O179 O 0.87578 0.35213 0.89167 0.0
C180 C 0.82971 0.36855 0.84066 0.0
O181 O 0.84026 0.37974 0.89842 0.0
C182 C 0.90444 0.31695 0.98211 0.0
O183 O 0.90569 0.31686 0.90221 0.0
O184 O 0.92208 0.3604 0.89603 0.0
O185 O 0.90846 0.35925 0.76783 0.0
H186 H 0.96022 0.41666 0.05686 0.0
H187 H 0.84891 0.3198 0.84064 0.0
O188 O 0.84084 0.35938 0.78278 0.0
H189 H 0.90081 0.28737 0.63679 0.0
H190 H 0.84271 0.35202 0.49239 0.0
H191 H 0.89952 0.39013 0.6644 0.0
H192 H 0.9002 0.32878 0.6632 0.0
H193 H 0.84538 0.34334 0.63935 0.0
O194 O 0.90102 0.33553 0.02031 0.0
H195 H 0.93352 0.39968 0.95883 0.0
H196 H 0.90392 0.36033 0.1479 0.0
H197 H 0.89758 0.39918 0.51758 0.0
H198 H 0.84888 0.27831 0.81581 0.0
H199 H 0.86902 0.38004 0.43055 0.0
H200 H 0.875 0.26184 0.71333 0.0
O201 O 0.87482 0.3925 0.79798 0.0
H202 H 0.8257 0.34469 0.11959 0.0
H203 H 0.87974 0.40648 0.06195 0.0
H204 H 0.84711 0.41408 0.15086 0.0
H205 H 0.81984 0.38303 0.18029 0.0
H206 H 0.85843 0.3379 0.03036 0.0
H207 H 0.93039 0.37675 0.24794 0.0
H208 H 0.95875 0.4052 0.20259 0.0
O209 O 0.89212 0.39674 0.91928 0.0
C210 C 0.92471 0.35893 0.81907 0.0
C211 C 0.94788 0.40437 0.07744 0.0
C212 C 0.93116 0.38194 0.18466 0.0
N213 N 0.91701 0.37927 0.04785 0.0
C214 C 0.93266 0.39477 0.02228 0.0
C215 C 0.91623 0.37269 0.12775 0.0
C216 C 0.94706 0.3979 0.15918 0.0
C217 C 0.86018 0.31279 0.79542 0.0
N218 N 0.87444 0.32672 0.75309 0.0
C219 C 0.86015 0.28927 0.78187 0.0
C220 C 0.87484 0.28003 0.72446 0.0
C221 C 0.88934 0.29435 0.68152 0.0
C222 C 0.88894 0.31778 0.69683 0.0
C223 C 0.85526 0.36043 0.52964 0.0
C224 C 0.88715 0.38163 0.62676 0.0
C225 C 0.85682 0.35562 0.61287 0.0
N226 N 0.87273 0.36607 0.66012 0.0
C227 C 0.88608 0.38688 0.54375 0.0
C228 C 0.87003 0.37615 0.49497 0.0
C229 C 0.88304 0.40475 0.85491 0.0
C230 C 0.83752 0.35833 0.10748 0.0
C231 C 0.86791 0.3929 0.07431 0.0
C232 C 0.8495 0.39729 0.12484 0.0
C233 C 0.83422 0.37986 0.1414 0.0
N234 N 0.87105 0.37173 0.04137 0.0
C235 C 0.85613 0.35455 0.0573 0.0
Co236 Co 0.35784 0.37374 0.99817 0.0
Co237 Co 0.36893 0.3708 0.20493 0.0
O238 O 0.35392 0.38385 0.11023 0.0
C239 C 0.37192 0.42134 0.0039 0.0
O240 O 0.38333 0.41536 0.06895 0.0
C241 C 0.32055 0.36498 0.23044 0.0
O242 O 0.32018 0.35745 0.15519 0.0
O243 O 0.36287 0.33937 0.16628 0.0
O244 O 0.35537 0.34104 0.03176 0.0
H245 H 0.42134 0.31779 0.35335 0.0
H246 H 0.32278 0.40809 0.0375 0.0
O247 O 0.3607 0.40649 0.96426 0.0
H248 H 0.28195 0.34331 0.91536 0.0
H249 H 0.34629 0.37937 0.69479 0.0
H250 H 0.38364 0.33693 0.91656 0.0
H251 H 0.32328 0.34219 0.93008 0.0
H252 H 0.3409 0.39073 0.83837 0.0
O253 O 0.33917 0.37082 0.2632 0.0
H254 H 0.40312 0.33468 0.23227 0.0
H255 H 0.36503 0.37901 0.38346 0.0
H256 H 0.38937 0.32488 0.77394 0.0
H257 H 0.28146 0.40997 0.02356 0.0
H258 H 0.37064 0.34619 0.66189 0.0
H259 H 0.26077 0.37739 0.96219 0.0
O260 O 0.3909 0.37208 0.01225 0.0
H261 H 0.34887 0.45216 0.26841 0.0
H262 H 0.40966 0.39486 0.26719 0.0
H263 H 0.41788 0.43413 0.31236 0.0
H264 H 0.38734 0.46307 0.31324 0.0
H265 H 0.34144 0.41276 0.22312 0.0
H266 H 0.38267 0.36246 0.50625 0.0
H267 H 0.41111 0.33169 0.49154 0.0
O268 O 0.39869 0.37042 0.1465 0.0
C269 C 0.35794 0.33003 0.09835 0.0
C270 C 0.40904 0.33125 0.36052 0.0
C271 C 0.38731 0.35631 0.44636 0.0
N272 N 0.38321 0.35795 0.30083 0.0
C273 C 0.39873 0.34093 0.29219 0.0
C274 C 0.37735 0.36558 0.37665 0.0
C275 C 0.40327 0.33904 0.43805 0.0
C276 C 0.31392 0.39394 0.01002 0.0
N277 N 0.32544 0.37513 0.98407 0.0
C278 C 0.29051 0.39506 0.0026 0.0
C279 C 0.27891 0.37676 0.9683 0.0
C280 C 0.29078 0.35763 0.94203 0.0
C281 C 0.31417 0.35708 0.95059 0.0
C282 C 0.3545 0.36992 0.74309 0.0
C283 C 0.37528 0.34616 0.86816 0.0
C284 C 0.35153 0.37628 0.82445 0.0
N285 N 0.36176 0.36435 0.88573 0.0
C286 C 0.37865 0.33931 0.78751 0.0
C287 C 0.36816 0.35129 0.72466 0.0
C288 C 0.40472 0.37072 0.07164 0.0
C289 C 0.36229 0.43967 0.26861 0.0
C290 C 0.39629 0.40738 0.26734 0.0
C291 C 0.40104 0.42957 0.2931 0.0
C292 C 0.38389 0.44579 0.29363 0.0
N293 N 0.37505 0.4015 0.24305 0.0
C294 C 0.35816 0.41731 0.24335 0.0
Co295 Co 0.37593 0.63507 0.94039 0.0
Co296 Co 0.39615 0.62151 0.74884 0.0
O297 O 0.37792 0.63963 0.82298 0.0
C298 C 0.33048 0.62833 0.87456 0.0
O299 O 0.34042 0.61633 0.81756 0.0
C300 C 0.41255 0.66836 0.73413 0.0
O301 O 0.41348 0.66841 0.81403 0.0
O302 O 0.42218 0.62264 0.8246 0.0
O303 O 0.4096 0.63245 0.94927 0.0
H304 H 0.44949 0.55864 0.67151 0.0
H305 H 0.35346 0.67481 0.86329 0.0
O306 O 0.34211 0.63721 0.9319 0.0
H307 H 0.40755 0.70741 0.05947 0.0
H308 H 0.34411 0.65059 0.21917 0.0
H309 H 0.39833 0.60485 0.06082 0.0
H310 H 0.40357 0.66572 0.04523 0.0
H311 H 0.34775 0.65596 0.07049 0.0
O312 O 0.40655 0.65041 0.69614 0.0
H313 H 0.42588 0.58113 0.7655 0.0
H314 H 0.40612 0.62467 0.57122 0.0
H315 H 0.39538 0.59904 0.20945 0.0
H316 H 0.35683 0.7166 0.87576 0.0
H317 H 0.36811 0.62201 0.28963 0.0
H318 H 0.38407 0.73315 0.97432 0.0
O319 O 0.3738 0.60149 0.92736 0.0
H320 H 0.3314 0.65457 0.59062 0.0
H321 H 0.37318 0.58429 0.65703 0.0
H322 H 0.34027 0.58224 0.5655 0.0
H323 H 0.31915 0.61757 0.53167 0.0
H324 H 0.36427 0.65581 0.68244 0.0
H325 H 0.42964 0.60275 0.47518 0.0
H326 H 0.45146 0.56941 0.52519 0.0
O327 O 0.38597 0.59262 0.80137 0.0
C328 C 0.4254 0.62697 0.90001 0.0
C329 C 0.43999 0.57307 0.64893 0.0
C330 C 0.42888 0.59785 0.53876 0.0
N331 N 0.41448 0.60404 0.67367 0.0
C332 C 0.42654 0.58582 0.7018 0.0
C333 C 0.41563 0.61022 0.59342 0.0
C334 C 0.44111 0.57914 0.56685 0.0
C335 C 0.36519 0.68189 0.90687 0.0
N336 N 0.37818 0.66786 0.95389 0.0
C337 C 0.36709 0.70557 0.91342 0.0
C338 C 0.38241 0.71484 0.96864 0.0
C339 C 0.39559 0.70041 0.01642 0.0
C340 C 0.39328 0.67682 0.00805 0.0
C341 C 0.35609 0.64051 0.18493 0.0
C342 C 0.38653 0.61501 0.09541 0.0
C343 C 0.35819 0.64344 0.10075 0.0
N344 N 0.37336 0.63086 0.05725 0.0
C345 C 0.38489 0.6116 0.17949 0.0
C346 C 0.36957 0.62448 0.22443 0.0
C347 C 0.37816 0.58714 0.87112 0.0
C348 C 0.34051 0.63907 0.60467 0.0
C349 C 0.36405 0.59973 0.64272 0.0
C350 C 0.34545 0.59847 0.59073 0.0
C351 C 0.33363 0.6183 0.57172 0.0
N352 N 0.37071 0.62017 0.6747 0.0
C353 C 0.3592 0.63968 0.65635 0.0
Co354 Co 0.63432 0.62111 0.996 0.0
Co355 Co 0.62426 0.62467 0.20321 0.0
O356 O 0.63849 0.61107 0.10809 0.0
C357 C 0.61884 0.57402 0.00399 0.0
O358 O 0.60774 0.58059 0.06891 0.0
C359 C 0.67302 0.62887 0.22745 0.0
O360 O 0.67362 0.63616 0.15187 0.0
O361 O 0.63121 0.65583 0.16365 0.0
O362 O 0.63792 0.65375 0.02866 0.0
H363 H 0.57414 0.67955 0.3529 0.0
H364 H 0.66856 0.58577 0.03422 0.0
O365 O 0.63038 0.58839 0.96328 0.0
H366 H 0.71067 0.64907 0.90796 0.0
H367 H 0.6444 0.61463 0.6922 0.0
H368 H 0.60936 0.65861 0.9148 0.0
H369 H 0.66948 0.65149 0.92528 0.0
H370 H 0.64999 0.60329 0.83576 0.0
O371 O 0.65422 0.62376 0.26037 0.0
H372 H 0.59139 0.66195 0.23137 0.0
H373 H 0.62851 0.6165 0.3817 0.0
H374 H 0.60346 0.67066 0.77221 0.0
H375 H 0.70972 0.5826 0.01768 0.0
H376 H 0.62104 0.64859 0.65975 0.0
H377 H 0.73105 0.61442 0.9542 0.0
O378 O 0.60136 0.62381 0.01164 0.0
H379 H 0.64197 0.54276 0.26684 0.0
H380 H 0.58304 0.602 0.26779 0.0
H381 H 0.57375 0.56306 0.31375 0.0
H382 H 0.60335 0.53313 0.31353 0.0
H383 H 0.65048 0.58187 0.22078 0.0
H384 H 0.61182 0.63371 0.50492 0.0
H385 H 0.58436 0.66542 0.49089 0.0
O386 O 0.59426 0.62594 0.1462 0.0
C387 C 0.63608 0.66491 0.09521 0.0
C388 C 0.58602 0.66569 0.35979 0.0
C389 C 0.6072 0.63998 0.44513 0.0
N390 N 0.61075 0.63809 0.29948 0.0
C391 C 0.59577 0.65561 0.2912 0.0
C392 C 0.61661 0.63033 0.37517 0.0
C393 C 0.59178 0.65777 0.4372 0.0
C394 C 0.67769 0.5996 0.00587 0.0
N395 N 0.66661 0.61872 0.9802 0.0
C396 C 0.70101 0.59775 0.99698 0.0
C397 C 0.71298 0.61562 0.96149 0.0
C398 C 0.70155 0.63508 0.93556 0.0
C399 C 0.67823 0.63636 0.94561 0.0
C400 C 0.63669 0.62442 0.74068 0.0
C401 C 0.61721 0.64903 0.8662 0.0
C402 C 0.63978 0.61806 0.82203 0.0
N403 N 0.63019 0.63042 0.88353 0.0
C404 C 0.61374 0.65589 0.78558 0.0
C405 C 0.62359 0.64348 0.72251 0.0
C406 C 0.58785 0.62571 0.0717 0.0
C407 C 0.62896 0.55568 0.26754 0.0
C408 C 0.596 0.58907 0.26747 0.0
C409 C 0.59065 0.56706 0.29368 0.0
C410 C 0.60727 0.55028 0.2936 0.0
N411 N 0.61732 0.59423 0.24213 0.0
C412 C 0.6337 0.57787 0.24184 0.0
Co413 Co 0.61685 0.36057 0.94512 0.0
Co414 Co 0.59619 0.37279 0.75289 0.0
O415 O 0.61471 0.3553 0.82812 0.0
C416 C 0.66203 0.36748 0.87821 0.0
O417 O 0.65189 0.37916 0.82079 0.0
C418 C 0.58025 0.32569 0.74165 0.0
O419 O 0.57941 0.32599 0.82155 0.0
O420 O 0.5703 0.37182 0.82915 0.0
O421 O 0.58323 0.36291 0.9543 0.0
H422 H 0.54209 0.43466 0.6717 0.0
H423 H 0.6396 0.32062 0.8707 0.0
O424 O 0.65061 0.35872 0.93623 0.0
H425 H 0.58612 0.28862 0.07017 0.0
H426 H 0.64926 0.34698 0.22449 0.0
H427 H 0.59429 0.3912 0.06369 0.0
H428 H 0.58968 0.33026 0.05272 0.0
H429 H 0.64547 0.34075 0.07629 0.0
O430 O 0.58603 0.34352 0.70251 0.0
H431 H 0.56606 0.41294 0.76699 0.0
H432 H 0.58599 0.36852 0.57568 0.0
H433 H 0.59739 0.39786 0.21182 0.0
H434 H 0.63665 0.27888 0.88638 0.0
H435 H 0.62503 0.37565 0.29324 0.0
H436 H 0.60972 0.26263 0.9866 0.0
O437 O 0.61859 0.39412 0.92955 0.0
H438 H 0.66107 0.33954 0.59628 0.0
H439 H 0.6186 0.40971 0.65783 0.0
H440 H 0.65134 0.41159 0.56559 0.0
H441 H 0.67279 0.37631 0.53419 0.0
H442 H 0.62836 0.33847 0.68874 0.0
H443 H 0.56211 0.38966 0.47839 0.0
H444 H 0.54002 0.42304 0.52624 0.0
O445 O 0.60612 0.40205 0.80304 0.0
C446 C 0.5673 0.36793 0.90497 0.0
C447 C 0.5517 0.42019 0.65005 0.0
C448 C 0.56291 0.39492 0.54158 0.0
N449 N 0.57756 0.38963 0.67672 0.0
C450 C 0.56536 0.40788 0.70366 0.0
C451 C 0.57637 0.38299 0.59696 0.0
C452 C 0.55053 0.41365 0.56846 0.0
C453 C 0.628 0.31368 0.91499 0.0
N454 N 0.61495 0.32785 0.96115 0.0
C455 C 0.62634 0.29003 0.92336 0.0
C456 C 0.6112 0.28092 0.97951 0.0
C457 C 0.59795 0.2955 0.02641 0.0
C458 C 0.60002 0.31906 0.01622 0.0
C459 C 0.63712 0.35673 0.18971 0.0
C460 C 0.60625 0.38137 0.09882 0.0
C461 C 0.63494 0.35332 0.10579 0.0
N462 N 0.61955 0.36548 0.0616 0.0
C463 C 0.60798 0.38527 0.18262 0.0
C464 C 0.62351 0.37282 0.22825 0.0
C465 C 0.61395 0.40805 0.87222 0.0
C466 C 0.65181 0.35501 0.60926 0.0
C467 C 0.62789 0.3943 0.64459 0.0
C468 C 0.64638 0.39546 0.59219 0.0
C469 C 0.6584 0.37566 0.57455 0.0
N470 N 0.6215 0.37399 0.67829 0.0
C471 C 0.63321 0.3545 0.66131 0.0
Co472 Co 0.8578 0.618 0.7615 0.0
Co473 Co 0.86795 0.62137 0.5544 0.0
O474 O 0.8547 0.60709 0.65013 0.0
C475 C 0.87769 0.57227 0.76235 0.0
O476 O 0.89009 0.57921 0.70111 0.0
C477 C 0.81909 0.62296 0.53064 0.0
O478 O 0.81831 0.62959 0.60691 0.0
O479 O 0.85924 0.65221 0.5925 0.0
O480 O 0.85213 0.6502 0.72711 0.0
H481 H 0.91467 0.67882 0.40243 0.0
H482 H 0.82612 0.5802 0.72421 0.0
O483 O 0.86366 0.58573 0.79614 0.0
H484 H 0.77954 0.64086 0.84616 0.0
H485 H 0.84738 0.6121 0.06533 0.0
H486 H 0.88004 0.65744 0.84141 0.0
H487 H 0.8205 0.64612 0.82957 0.0
H488 H 0.84289 0.59984 0.92227 0.0
O489 O 0.83804 0.61872 0.49721 0.0
H490 H 0.89861 0.66047 0.52472 0.0
H491 H 0.86414 0.61248 0.37627 0.0
H492 H 0.88479 0.67042 0.98347 0.0
H493 H 0.78526 0.57418 0.74016 0.0
H494 H 0.86841 0.64766 0.09662 0.0
H495 H 0.76167 0.60467 0.80141 0.0
O496 O 0.89057 0.62314 0.74635 0.0
H497 H 0.8551 0.53833 0.49483 0.0
H498 H 0.91039 0.60107 0.49057 0.0
H499 H 0.92197 0.5626 0.44642 0.0
H500 H 0.89421 0.53091 0.44832 0.0
H501 H 0.84429 0.57703 0.53891 0.0
H502 H 0.87965 0.63042 0.25229 0.0
H503 H 0.90517 0.6638 0.26501 0.0
O504 O 0.89773 0.62463 0.61156 0.0
C505 C 0.85361 0.66124 0.6602 0.0
C506 C 0.90363 0.66424 0.39612 0.0
C507 C 0.88396 0.63709 0.31183 0.0
N508 N 0.88064 0.63531 0.45759 0.0
C509 C 0.89456 0.65373 0.46514 0.0
C510 C 0.8752 0.62703 0.38221 0.0
C511 C 0.89828 0.65581 0.31902 0.0
C512 C 0.81601 0.59345 0.75167 0.0
N513 N 0.82571 0.61341 0.77653 0.0
C514 C 0.79286 0.58999 0.7602 0.0
C515 C 0.77963 0.60712 0.79444 0.0
C516 C 0.78964 0.62744 0.81953 0.0
C517 C 0.81284 0.63032 0.8099 0.0
C518 C 0.85454 0.62219 0.01655 0.0
C519 C 0.8727 0.64756 0.89027 0.0
C520 C 0.85209 0.61532 0.93547 0.0
N521 N 0.86101 0.62804 0.87357 0.0
C522 C 0.87551 0.65494 0.9706 0.0
C523 C 0.86634 0.64215 0.03406 0.0
C524 C 0.90398 0.62561 0.68616 0.0
C525 C 0.86733 0.55201 0.49348 0.0
C526 C 0.89823 0.58735 0.49162 0.0
C527 C 0.90488 0.56562 0.46645 0.0
C528 C 0.88929 0.54785 0.4675 0.0
N529 N 0.87665 0.5913 0.5168 0.0
C530 C 0.86128 0.57397 0.51808 0.0
Co531 Co 0.62297 0.12982 0.26732 0.0
Co532 Co 0.59554 0.12718 0.45303 0.0
O533 O 0.61923 0.13843 0.38149 0.0
C534 C 0.66481 0.11705 0.34979 0.0
O535 O 0.65185 0.10803 0.4059 0.0
C536 C 0.59001 0.17675 0.45303 0.0
O537 O 0.59202 0.17566 0.37345 0.0
O538 O 0.57253 0.13342 0.36907 0.0
O539 O 0.58975 0.13281 0.24666 0.0
H540 H 0.52607 0.0824 0.5232 0.0
H541 H 0.65043 0.16735 0.33688 0.0
O542 O 0.65614 0.12649 0.28714 0.0
H543 H 0.60758 0.20211 0.11115 0.0
H544 H 0.66305 0.13059 0.99711 0.0
H545 H 0.59854 0.09991 0.1513 0.0
H546 H 0.60361 0.16114 0.14228 0.0
H547 H 0.65714 0.14129 0.14104 0.0
O548 O 0.59134 0.15872 0.49606 0.0
H549 H 0.55658 0.09602 0.43354 0.0
H550 H 0.58327 0.13614 0.62622 0.0
H551 H 0.60368 0.0889 0.00728 0.0
H552 H 0.65502 0.20835 0.30749 0.0
H553 H 0.63613 0.1043 0.9292 0.0
H554 H 0.63344 0.226 0.19406 0.0
O555 O 0.61896 0.09703 0.2936 0.0
H556 H 0.66276 0.14624 0.62624 0.0
H557 H 0.60654 0.08728 0.55867 0.0
H558 H 0.63582 0.079 0.66128 0.0
H559 H 0.66416 0.10862 0.69574 0.0
H560 H 0.63329 0.15373 0.52355 0.0
H561 H 0.55295 0.12311 0.71786 0.0
H562 H 0.52414 0.09596 0.66651 0.0
O563 O 0.59899 0.09556 0.41022 0.0
C564 C 0.57227 0.13463 0.29152 0.0
C565 C 0.5386 0.09413 0.54642 0.0
C566 C 0.55367 0.11701 0.65564 0.0
N567 N 0.57185 0.1166 0.52497 0.0
C568 C 0.55596 0.10182 0.49604 0.0
C569 C 0.57078 0.12434 0.60347 0.0
C570 C 0.5375 0.10177 0.62679 0.0
C571 C 0.64116 0.17486 0.28691 0.0
N572 N 0.62687 0.16184 0.24107 0.0
C573 C 0.64375 0.1981 0.27077 0.0
C574 C 0.63161 0.208 0.2072 0.0
C575 C 0.61709 0.19461 0.16068 0.0
C576 C 0.61489 0.17143 0.17868 0.0
C577 C 0.64882 0.12382 0.03042 0.0
C578 C 0.61261 0.10679 0.11751 0.0
C579 C 0.64541 0.12978 0.11193 0.0
N580 N 0.62739 0.1214 0.15417 0.0
C581 C 0.61548 0.10044 0.03609 0.0
C582 C 0.6337 0.10907 0.99235 0.0
C583 C 0.60865 0.08616 0.34955 0.0
C584 C 0.65045 0.13323 0.61197 0.0
C585 C 0.61885 0.10023 0.57322 0.0
C586 C 0.63536 0.09547 0.63149 0.0
C587 C 0.65125 0.1121 0.65083 0.0
N588 N 0.61815 0.12101 0.53551 0.0
C589 C 0.63367 0.13741 0.55414 0.0
Co590 Co 0.1321 0.37496 0.75674 0.0
Co591 Co 0.12563 0.37228 0.54738 0.0
O592 O 0.13734 0.38613 0.6466 0.0
C593 C 0.11327 0.42091 0.74949 0.0
O594 O 0.10351 0.41413 0.68201 0.0
C595 C 0.17482 0.37074 0.53409 0.0
O596 O 0.17465 0.36419 0.61052 0.0
O597 O 0.13358 0.34129 0.58645 0.0
O598 O 0.13877 0.34298 0.72237 0.0
H599 H 0.08142 0.31551 0.38266 0.0
H600 H 0.16402 0.4132 0.72946 0.0
O601 O 0.12514 0.40701 0.79108 0.0
H602 H 0.20877 0.35247 0.86003 0.0
H603 H 0.13648 0.38 0.06274 0.0
H604 H 0.1091 0.33484 0.8292 0.0
H605 H 0.16827 0.34693 0.83297 0.0
H606 H 0.14348 0.39284 0.92167 0.0
O607 O 0.15635 0.37494 0.49723 0.0
H608 H 0.09547 0.33336 0.50913 0.0
H609 H 0.13242 0.38179 0.37078 0.0
H610 H 0.10189 0.32127 0.96917 0.0
H611 H 0.20443 0.41951 0.75588 0.0
H612 H 0.1156 0.34393 0.08714 0.0
H613 H 0.2271 0.38898 0.82148 0.0
O614 O 0.09976 0.36964 0.73326 0.0
H615 H 0.13991 0.45545 0.49438 0.0
H616 H 0.08449 0.39306 0.47443 0.0
H617 H 0.07389 0.43176 0.42949 0.0
H618 H 0.10172 0.46327 0.43932 0.0
H619 H 0.14975 0.41652 0.53908 0.0
H620 H 0.11893 0.36437 0.24279 0.0
H621 H 0.09318 0.33104 0.24828 0.0
O622 O 0.09493 0.36901 0.59707 0.0
C623 C 0.13831 0.33212 0.65489 0.0
C624 C 0.09256 0.33009 0.37947 0.0
C625 C 0.11364 0.35749 0.30096 0.0
N626 N 0.11456 0.35872 0.44727 0.0
C627 C 0.10051 0.34031 0.45087 0.0
C628 C 0.12125 0.36726 0.37361 0.0
C629 C 0.09919 0.33879 0.3041 0.0
C630 C 0.17372 0.39993 0.75876 0.0
N631 N 0.16376 0.37979 0.78019 0.0
C632 C 0.19662 0.40356 0.77323 0.0
C633 C 0.20934 0.38641 0.80992 0.0
C634 C 0.19906 0.36591 0.83154 0.0
C635 C 0.17614 0.36286 0.81598 0.0
C636 C 0.13046 0.36995 0.01184 0.0
C637 C 0.11527 0.3447 0.88021 0.0
C638 C 0.13433 0.37716 0.93186 0.0
N639 N 0.12686 0.3645 0.86732 0.0
C640 C 0.11107 0.33697 0.95933 0.0
C641 C 0.11875 0.34971 0.0255 0.0
C642 C 0.08743 0.36754 0.66993 0.0
C643 C 0.12767 0.44184 0.4895 0.0
C644 C 0.09668 0.40669 0.4789 0.0
C645 C 0.0906 0.42856 0.45326 0.0
C646 C 0.10623 0.44623 0.45874 0.0
N647 N 0.11776 0.40253 0.50889 0.0
C648 C 0.13317 0.41975 0.51442 0.0
Co649 Co 0.37145 0.86437 0.26357 0.0
Co650 Co 0.39862 0.86797 0.44972 0.0
O651 O 0.37515 0.85622 0.37821 0.0
C652 C 0.32955 0.87724 0.34507 0.0
O653 O 0.34253 0.88659 0.40048 0.0
C654 C 0.40459 0.81843 0.45173 0.0
O655 O 0.40262 0.81929 0.3721 0.0
O656 O 0.42177 0.86175 0.36646 0.0
O657 O 0.40472 0.86151 0.24361 0.0
H658 H 0.46748 0.91378 0.51948 0.0
H659 H 0.34416 0.82693 0.33462 0.0
O660 O 0.33822 0.86757 0.28289 0.0
H661 H 0.38736 0.79162 0.1112 0.0
H662 H 0.33153 0.86238 0.99293 0.0
H663 H 0.3958 0.89397 0.14638 0.0
H664 H 0.39108 0.83272 0.14041 0.0
H665 H 0.33741 0.85224 0.13745 0.0
O666 O 0.40313 0.83658 0.49406 0.0
H667 H 0.43721 0.89956 0.42979 0.0
H668 H 0.41082 0.85961 0.62343 0.0
H669 H 0.39067 0.90442 0.00176 0.0
H670 H 0.33982 0.7858 0.30717 0.0
H671 H 0.35835 0.88856 0.92406 0.0
H672 H 0.36158 0.76788 0.1949 0.0
O673 O 0.37523 0.89727 0.28821 0.0
H674 H 0.3314 0.84863 0.6222 0.0
H675 H 0.38706 0.90802 0.55367 0.0
H676 H 0.35756 0.91626 0.65531 0.0
H677 H 0.32948 0.88642 0.69022 0.0
H678 H 0.36108 0.84118 0.52047 0.0
H679 H 0.44091 0.87324 0.71511 0.0
H680 H 0.46945 0.9006 0.66328 0.0
O681 O 0.39484 0.89944 0.4056 0.0
C682 C 0.42216 0.86013 0.28901 0.0
C683 C 0.45508 0.90195 0.5429 0.0
C684 C 0.44018 0.87917 0.65266 0.0
N685 N 0.42211 0.87903 0.52169 0.0
C686 C 0.43785 0.89392 0.4925 0.0
C687 C 0.4232 0.8715 0.60047 0.0
C688 C 0.45619 0.89453 0.62354 0.0
C689 C 0.35351 0.8193 0.28515 0.0
N690 N 0.36775 0.83223 0.23889 0.0
C691 C 0.35106 0.79598 0.27011 0.0
C692 C 0.3633 0.78593 0.20719 0.0
C693 C 0.37778 0.79924 0.16023 0.0
C694 C 0.37984 0.82249 0.17714 0.0
C695 C 0.34571 0.86935 0.02607 0.0
C696 C 0.38178 0.88689 0.11276 0.0
C697 C 0.3491 0.86371 0.10791 0.0
N698 N 0.36705 0.87234 0.14995 0.0
C699 C 0.37892 0.89292 0.031 0.0
C700 C 0.36077 0.88404 0.98746 0.0
C701 C 0.38524 0.90849 0.34403 0.0
C702 C 0.34359 0.86173 0.60772 0.0
C703 C 0.37487 0.89497 0.56845 0.0
C704 C 0.35824 0.89971 0.62615 0.0
C705 C 0.3425 0.88296 0.64576 0.0
N706 N 0.37585 0.8741 0.53155 0.0
C707 C 0.36048 0.85758 0.55044 0.0
Co708 Co 0.86591 0.87084 0.54271 0.0
Co709 Co 0.8715 0.87215 0.75239 0.0
O710 O 0.86123 0.88465 0.64893 0.0
C711 C 0.88788 0.91562 0.53188 0.0
O712 O 0.89951 0.90975 0.59654 0.0
C713 C 0.82245 0.87389 0.76026 0.0
O714 O 0.82308 0.8649 0.68715 0.0
O715 O 0.86201 0.84079 0.72161 0.0
O716 O 0.85795 0.84005 0.58525 0.0
H717 H 0.91155 0.8166 0.93547 0.0
H718 H 0.83547 0.91074 0.56003 0.0
O719 O 0.87392 0.90176 0.49986 0.0
H720 H 0.78849 0.8495 0.44367 0.0
H721 H 0.86203 0.8696 0.2361 0.0
H722 H 0.88726 0.82835 0.48183 0.0
H723 H 0.82872 0.84288 0.47274 0.0
H724 H 0.85538 0.88563 0.37312 0.0
O725 O 0.84072 0.87785 0.79871 0.0
H726 H 0.89929 0.83257 0.80345 0.0
H727 H 0.86424 0.88566 0.92534 0.0
H728 H 0.89408 0.81161 0.34608 0.0
H729 H 0.79537 0.91814 0.53127 0.0
H730 H 0.88144 0.83231 0.222 0.0
H731 H 0.77158 0.88736 0.47289 0.0
O732 O 0.89794 0.86459 0.56898 0.0
H733 H 0.86225 0.95699 0.78036 0.0
H734 H 0.91338 0.89183 0.82335 0.0
H735 H 0.92618 0.93065 0.85833 0.0
H736 H 0.90051 0.96355 0.8369 0.0
H737 H 0.8502 0.91791 0.7458 0.0
H738 H 0.87594 0.87016 0.05878 0.0
H739 H 0.89983 0.83543 0.06432 0.0
O740 O 0.9021 0.86605 0.70571 0.0
C741 C 0.85747 0.83048 0.65511 0.0
C742 C 0.90121 0.8318 0.93383 0.0
C743 C 0.8812 0.86184 0.00304 0.0
N744 N 0.88125 0.86013 0.85676 0.0
C745 C 0.89429 0.84096 0.85926 0.0
C746 C 0.8746 0.87051 0.92736 0.0
C747 C 0.89461 0.84235 0.00611 0.0
C748 C 0.8253 0.89735 0.53366 0.0
N749 N 0.83448 0.87648 0.51733 0.0
C750 C 0.80257 0.9016 0.51791 0.0
C751 C 0.78922 0.88431 0.48528 0.0
C752 C 0.7987 0.86306 0.46892 0.0
C753 C 0.82148 0.85941 0.48556 0.0
C754 C 0.86758 0.86041 0.28971 0.0
C755 C 0.88157 0.83737 0.42816 0.0
C756 C 0.86391 0.86942 0.36743 0.0
N757 N 0.87079 0.85785 0.4354 0.0
C758 C 0.88554 0.82784 0.35144 0.0
C759 C 0.87847 0.83947 0.28184 0.0
C760 C 0.90979 0.86292 0.63377 0.0
C761 C 0.87356 0.94278 0.7902 0.0
C762 C 0.90214 0.90607 0.81379 0.0
C763 C 0.90946 0.928 0.83382 0.0
C764 C 0.89504 0.94646 0.82182 0.0
N765 N 0.88103 0.90261 0.78298 0.0
C766 C 0.8668 0.92061 0.77102 0.0
Co767 Co 0.87444 0.12706 0.50349 0.0
Co768 Co 0.89891 0.12198 0.31322 0.0
O769 O 0.87619 0.13392 0.38724 0.0
C770 C 0.83157 0.11269 0.43263 0.0
O771 O 0.84385 0.10231 0.37755 0.0
C772 C 0.90262 0.17159 0.30029 0.0
O773 O 0.90249 0.17186 0.3803 0.0
O774 O 0.92309 0.13035 0.39026 0.0
O775 O 0.90792 0.13058 0.51622 0.0
H776 H 0.96824 0.0777 0.2377 0.0
H777 H 0.84559 0.16338 0.43282 0.0
O778 O 0.84102 0.12334 0.49121 0.0
H779 H 0.89169 0.20164 0.64229 0.0
H780 H 0.8388 0.13161 0.78129 0.0
H781 H 0.90104 0.09917 0.61971 0.0
H782 H 0.89553 0.1603 0.618 0.0
H783 H 0.84225 0.14015 0.63445 0.0
O784 O 0.9013 0.15276 0.26196 0.0
H785 H 0.93893 0.09216 0.33084 0.0
H786 H 0.908 0.12813 0.13592 0.0
H787 H 0.89837 0.09034 0.76654 0.0
H788 H 0.84112 0.20472 0.45548 0.0
H789 H 0.86707 0.10663 0.84832 0.0
H790 H 0.86432 0.22413 0.56073 0.0
O791 O 0.87832 0.09394 0.48274 0.0
H792 H 0.82831 0.13595 0.15183 0.0
H793 H 0.88736 0.07994 0.21971 0.0
H794 H 0.85666 0.06898 0.12623 0.0
H795 H 0.82688 0.09711 0.09163 0.0
H796 H 0.8592 0.14612 0.24562 0.0
H797 H 0.93706 0.11421 0.04071 0.0
H798 H 0.96741 0.08873 0.09147 0.0
O799 O 0.8971 0.09111 0.36389 0.0
C800 C 0.9246 0.1324 0.46743 0.0
C801 C 0.95505 0.08871 0.21477 0.0
C802 C 0.93757 0.10923 0.10424 0.0
N803 N 0.92164 0.11073 0.2386 0.0
C804 C 0.93837 0.09687 0.26716 0.0
C805 C 0.92117 0.11707 0.15842 0.0
C806 C 0.95459 0.09493 0.13275 0.0
C807 C 0.85559 0.17166 0.47927 0.0
N808 N 0.87071 0.15941 0.52434 0.0
C809 C 0.85305 0.19509 0.49159 0.0
C810 C 0.8661 0.20598 0.55056 0.0
C811 C 0.88147 0.19337 0.59631 0.0
C812 C 0.8836 0.16997 0.58219 0.0
C813 C 0.85255 0.12446 0.74635 0.0
C814 C 0.88747 0.10644 0.65508 0.0
C815 C 0.85455 0.1292 0.66319 0.0
N816 N 0.87195 0.12034 0.61886 0.0
C817 C 0.886 0.10132 0.73809 0.0
C818 C 0.86842 0.11044 0.78393 0.0
C819 C 0.88827 0.08244 0.42755 0.0
C820 C 0.84124 0.12357 0.16617 0.0
C821 C 0.87443 0.09225 0.20508 0.0
C822 C 0.85712 0.08597 0.15199 0.0
C823 C 0.84042 0.10176 0.13254 0.0
N824 N 0.87513 0.11369 0.2377 0.0
C825 C 0.85882 0.12927 0.21897 0.0
Co826 Co 0.12971 0.12244 0.52648 0.0
Co827 Co 0.12438 0.12132 0.73623 0.0
O828 O 0.13459 0.10877 0.63288 0.0
C829 C 0.10781 0.07764 0.51681 0.0
O830 O 0.09634 0.0836 0.58167 0.0
C831 C 0.17346 0.11978 0.74407 0.0
O832 O 0.1728 0.1286 0.67068 0.0
O833 O 0.13373 0.15268 0.70487 0.0
O834 O 0.13763 0.1533 0.56844 0.0
H835 H 0.08429 0.17691 0.91874 0.0
H836 H 0.16027 0.08264 0.54392 0.0
O837 O 0.12171 0.09145 0.48424 0.0
H838 H 0.20695 0.14393 0.42639 0.0
H839 H 0.13326 0.12342 0.21982 0.0
H840 H 0.10812 0.1648 0.4652 0.0
H841 H 0.16673 0.15045 0.45575 0.0
H842 H 0.14008 0.10753 0.35701 0.0
O843 O 0.15521 0.11579 0.78247 0.0
H844 H 0.0965 0.16087 0.78689 0.0
H845 H 0.13183 0.10801 0.90936 0.0
H846 H 0.10113 0.1814 0.32929 0.0
H847 H 0.20036 0.07533 0.51489 0.0
H848 H 0.11372 0.16065 0.20538 0.0
H849 H 0.224 0.10614 0.45592 0.0
O850 O 0.09768 0.12865 0.55299 0.0
H851 H 0.13395 0.03655 0.76547 0.0
H852 H 0.08262 0.10157 0.80773 0.0
H853 H 0.06999 0.06275 0.84339 0.0
H854 H 0.09576 0.02991 0.82233 0.0
H855 H 0.14583 0.07565 0.73024 0.0
H856 H 0.12017 0.12359 0.04262 0.0
H857 H 0.09616 0.15823 0.04779 0.0
O858 O 0.09373 0.12729 0.68975 0.0
C859 C 0.13814 0.16294 0.63818 0.0
C860 C 0.09468 0.16175 0.91726 0.0
C861 C 0.11484 0.13184 0.98679 0.0
N862 N 0.11469 0.13342 0.84049 0.0
C863 C 0.10157 0.15255 0.84279 0.0
C864 C 0.12142 0.12313 0.9112 0.0
C865 C 0.10137 0.15128 0.98966 0.0
C866 C 0.17038 0.09604 0.51731 0.0
N867 N 0.16112 0.11688 0.50082 0.0
C868 C 0.1931 0.09184 0.50141 0.0
C869 C 0.20636 0.10914 0.46845 0.0
C870 C 0.19681 0.13035 0.4519 0.0
C871 C 0.17403 0.13395 0.46871 0.0
C872 C 0.12773 0.13264 0.27336 0.0
C873 C 0.1138 0.15575 0.41161 0.0
C874 C 0.1315 0.12371 0.35117 0.0
N875 N 0.12465 0.13531 0.41903 0.0
C876 C 0.10973 0.1652 0.33479 0.0
C877 C 0.11677 0.15354 0.2653 0.0
C878 C 0.08592 0.13035 0.6179 0.0
C879 C 0.1226 0.05073 0.77515 0.0
C880 C 0.09391 0.08736 0.79834 0.0
C881 C 0.08668 0.06543 0.81875 0.0
C882 C 0.10116 0.04701 0.80695 0.0
N883 N 0.11498 0.09087 0.76735 0.0
C884 C 0.12926 0.07291 0.7556 0.0
Co885 Co 0.12028 0.86633 0.49834 0.0
Co886 Co 0.09384 0.87038 0.31106 0.0
O887 O 0.11724 0.8587 0.38301 0.0
C888 C 0.1625 0.8799 0.42055 0.0
O889 O 0.14975 0.88977 0.36555 0.0
C890 C 0.08932 0.82073 0.3032 0.0
O891 O 0.09053 0.82093 0.3831 0.0
O892 O 0.07044 0.86283 0.39212 0.0
O893 O 0.08695 0.86307 0.51592 0.0
H894 H 0.0242 0.91494 0.24114 0.0
H895 H 0.14818 0.8294 0.42697 0.0
O896 O 0.15356 0.8698 0.48136 0.0
H897 H 0.1042 0.79278 0.64578 0.0
H898 H 0.15883 0.86341 0.77149 0.0
H899 H 0.09508 0.89514 0.61555 0.0
H900 H 0.10029 0.83397 0.6185 0.0
H901 H 0.15378 0.85391 0.62603 0.0
O902 O 0.09049 0.83929 0.26313 0.0
H903 H 0.05436 0.90079 0.33145 0.0
H904 H 0.08273 0.8631 0.13577 0.0
H905 H 0.09936 0.90494 0.76108 0.0
H906 H 0.15271 0.7882 0.45255 0.0
H907 H 0.13142 0.88901 0.84003 0.0
H908 H 0.13057 0.76961 0.56251 0.0
O909 O 0.11638 0.89933 0.47525 0.0
H910 H 0.16249 0.8544 0.14161 0.0
H911 H 0.10481 0.91159 0.21196 0.0
H912 H 0.13461 0.92149 0.11342 0.0
H913 H 0.1637 0.89277 0.07759 0.0
H914 H 0.13249 0.84527 0.24035 0.0
H915 H 0.05278 0.87669 0.04343 0.0
H916 H 0.02329 0.90288 0.09598 0.0
O917 O 0.09655 0.90157 0.35841 0.0
C918 C 0.06976 0.86114 0.46955 0.0
C919 C 0.03701 0.90362 0.21742 0.0
C920 C 0.05303 0.88213 0.10649 0.0
N921 N 0.07043 0.88138 0.23862 0.0
C922 C 0.05417 0.89563 0.26819 0.0
C923 C 0.06993 0.87447 0.15906 0.0
C924 C 0.03649 0.89683 0.13601 0.0
C925 C 0.13865 0.82148 0.47544 0.0
N926 N 0.12409 0.8341 0.52147 0.0
C927 C 0.14121 0.79813 0.48942 0.0
C928 C 0.12876 0.7877 0.55104 0.0
C929 C 0.11395 0.80069 0.59776 0.0
C930 C 0.11179 0.824 0.58193 0.0
C931 C 0.14476 0.87041 0.7378 0.0
C932 C 0.10898 0.88803 0.6497 0.0
C933 C 0.14184 0.86513 0.65542 0.0
N934 N 0.12403 0.8738 0.61267 0.0
C935 C 0.11136 0.8937 0.73198 0.0
C936 C 0.12937 0.88477 0.77622 0.0
C937 C 0.10607 0.91057 0.42019 0.0
C938 C 0.14985 0.86702 0.15648 0.0
C939 C 0.11743 0.89901 0.19679 0.0
C940 C 0.13424 0.9047 0.14083 0.0
C941 C 0.15055 0.88857 0.1207 0.0
N942 N 0.11685 0.87783 0.23151 0.0
C943 C 0.13278 0.86192 0.21209 0.0
H944 H 0.35169 0.93593 0.28859 0.0
H945 H 0.42441 0.04446 0.22118 0.0
H946 H 0.41947 0.93746 0.38318 0.0
H947 H 0.35565 0.05108 0.3028 0.0
H948 H 0.42365 0.00405 0.26062 0.0
H949 H 0.35301 0.9775 0.27211 0.0
C950 C 0.3668 0.94507 0.30594 0.0
C951 C 0.38552 0.93343 0.33712 0.0
C952 C 0.40888 0.01451 0.27065 0.0
C953 C 0.38724 0.98049 0.31721 0.0
C954 C 0.40926 0.03743 0.24803 0.0
C955 C 0.39006 0.05099 0.25886 0.0
C956 C 0.38896 0.0051 0.30175 0.0
C957 C 0.37082 0.04116 0.29385 0.0
C958 C 0.36749 0.96868 0.29704 0.0
C959 C 0.4047 0.94595 0.35922 0.0
N960 N 0.37061 0.01863 0.31279 0.0
N961 N 0.40523 0.96888 0.34759 0.0
H962 H 0.05084 0.63329 0.68369 0.0
H963 H 0.92281 0.63226 0.83586 0.0
H964 H 0.02952 0.63175 0.93547 0.0
H965 H 0.94048 0.62596 0.5813 0.0
H966 H 0.96233 0.63533 0.86989 0.0
H967 H 0.01109 0.63352 0.64183 0.0
C968 C 0.03788 0.6331 0.73011 0.0
C969 C 0.0436 0.63239 0.81329 0.0
C970 C 0.95768 0.63329 0.80645 0.0
C971 C -0.00174 0.63272 0.76583 0.0
C972 C 0.935 0.63152 0.78681 0.0
C973 C 0.92819 0.62862 0.70547 0.0
C974 C 0.97396 0.63212 0.74462 0.0
C975 C 0.94493 0.62807 0.64486 0.0
C976 C 0.01522 0.63319 0.70613 0.0
C977 C 0.02607 0.63215 0.87066 0.0
N978 N 0.9671 0.62969 0.66571 0.0
N979 N 0.00432 0.6323 0.84582 0.0
H980 H 0.63966 0.94278 0.31395 0.0
H981 H 0.57372 0.05805 0.38812 0.0
H982 H 0.57126 0.9507 0.22937 0.0
H983 H 0.64193 0.05783 0.29779 0.0
H984 H 0.57233 0.01643 0.37076 0.0
H985 H 0.6403 0.98332 0.35055 0.0
C986 C 0.62467 0.95297 0.3044 0.0
C987 C 0.6054 0.94354 0.26825 0.0
C988 C 0.58759 0.02559 0.35547 0.0
C989 C 0.60599 0.98943 0.31095 0.0
C990 C 0.58844 0.04918 0.36554 0.0
C991 C 0.60793 0.06122 0.34376 0.0
C992 C 0.60658 0.01409 0.32587 0.0
C993 C 0.62655 0.04908 0.31446 0.0
C994 C 0.62512 0.97601 0.32484 0.0
C995 C 0.58647 0.95746 0.25666 0.0
N996 N 0.62549 0.02606 0.30679 0.0
N997 N 0.58719 0.9798 0.27826 0.0
H998 H 0.05225 0.37165 0.56022 0.0
H999 H 0.96099 0.34458 0.90552 0.0
H1000 H 0.06706 0.35447 0.81075 0.0
H1001 H 0.94182 0.36795 0.66557 0.0
H1002 H -2e-05 0.34398 0.86308 0.0
H1003 H 0.01191 0.3668 0.58957 0.0
C1004 C 0.04708 0.36675 0.62107 0.0
C1005 C 0.06309 0.36371 0.68333 0.0
C1006 C 0.98735 0.34922 0.81926 0.0
C1007 C 0.01721 0.35802 0.71685 0.0
C1008 C 0.96498 0.34958 0.84358 0.0
C1009 C 0.9481 0.35667 0.7894 0.0
C1010 C 0.99315 0.35617 0.74012 0.0
C1011 C 0.95435 0.36251 0.70942 0.0
C1012 C 0.02409 0.36401 0.63771 0.0
C1013 C 0.05543 0.3573 0.76092 0.0
N1014 N 0.97648 0.36237 0.68729 0.0
N1015 N 0.03314 0.35474 0.7753 0.0
H1016 H 0.36005 0.43997 0.85638 0.0
H1017 H 0.37001 0.56758 0.01922 0.0
H1018 H 0.38168 0.45773 0.09966 0.0
H1019 H 0.37787 0.55112 0.76393 0.0
H1020 H 0.36644 0.5271 0.04956 0.0
H1021 H 0.35935 0.48076 0.82137 0.0
C1022 C 0.36458 0.45243 0.9023 0.0
C1023 C 0.3711 0.44555 0.98076 0.0
C1024 C 0.36886 0.53239 0.98687 0.0
C1025 C 0.36998 0.49179 0.94179 0.0
C1026 C 0.3708 0.5555 0.96935 0.0
C1027 C 0.37442 0.56277 0.8889 0.0
C1028 C 0.37031 0.5164 0.92354 0.0
C1029 C 0.37528 0.54625 0.8269 0.0
C1030 C 0.36422 0.4756 0.8823 0.0
C1031 C 0.37677 0.4623 0.0382 0.0
N1032 N 0.37325 0.52376 0.84554 0.0
N1033 N 0.37599 0.48465 0.01763 0.0
H1034 H 0.46295 0.61649 0.81235 0.0
H1035 H 0.55153 0.63014 0.17666 0.0
H1036 H 0.44194 0.63596 0.05482 0.0
H1037 H 0.56838 0.62313 0.92156 0.0
H1038 H 0.51138 0.63037 0.13909 0.0
H1039 H 0.50165 0.61631 0.85766 0.0
C1040 C 0.46641 0.62076 0.87539 0.0
C1041 C 0.44901 0.62639 0.92963 0.0
C1042 C 0.52397 0.62884 0.09171 0.0
C1043 C 0.49388 0.62623 0.98236 0.0
C1044 C 0.54686 0.62869 0.11301 0.0
C1045 C 0.56346 0.62655 0.05232 0.0
C1046 C 0.51775 0.62668 0.00935 0.0
C1047 C 0.55637 0.62477 0.97084 0.0
C1048 C 0.48867 0.62068 0.90128 0.0
C1049 C 0.4548 0.6316 0.01075 0.0
N1050 N 0.53418 0.62481 0.95208 0.0
N1051 N 0.4768 0.63141 0.03476 0.0
H1052 H 0.61432 0.44324 0.7616 0.0
H1053 H 0.60778 0.53847 0.10195 0.0
H1054 H 0.62088 0.42882 0.01898 0.0
H1055 H 0.63089 0.55421 0.85874 0.0
H1056 H 0.60864 0.49806 0.06838 0.0
H1057 H 0.61715 0.48405 0.79183 0.0
C1058 C 0.61649 0.44861 0.82429 0.0
C1059 C 0.61726 0.43258 0.88793 0.0
C1060 C 0.6136 0.51033 0.0224 0.0
C1061 C 0.62022 0.47905 0.92253 0.0
C1062 C 0.61297 0.53341 0.04128 0.0
C1063 C 0.61921 0.54967 0.98284 0.0
C1064 C 0.62016 0.50344 0.9441 0.0
C1065 C 0.62597 0.54215 0.90544 0.0
C1066 C 0.61816 0.47186 0.84133 0.0
C1067 C 0.62018 0.44051 0.96795 0.0
N1068 N 0.62609 0.51948 0.88792 0.0
N1069 N 0.62132 0.4632 0.98301 0.0
H1070 H 0.42339 0.37511 0.92094 0.0
H1071 H 0.55145 0.35983 0.06101 0.0
H1072 H 0.44151 0.36548 0.17394 0.0
H1073 H 0.52942 0.37778 0.81809 0.0
H1074 H 0.51198 0.36062 0.10607 0.0
H1075 H 0.46275 0.37464 0.88474 0.0
C1076 C 0.43564 0.37287 0.96924 0.0
C1077 C 0.42899 0.37033 0.05086 0.0
C1078 C 0.51592 0.36441 0.04306 0.0
C1079 C 0.47466 0.36979 0.00909 0.0
C1080 C 0.53841 0.36395 0.01723 0.0
C1081 C 0.54383 0.36863 0.93545 0.0
C1082 C 0.49885 0.36953 0.98656 0.0
C1083 C 0.52622 0.37393 0.88159 0.0
C1084 C 0.45827 0.37265 0.94833 0.0
C1085 C 0.44586 0.36753 0.11026 0.0
N1086 N 0.50465 0.37417 0.90809 0.0
N1087 N 0.46799 0.36729 0.08817 0.0
H1088 H 0.84934 0.4296 0.78533 0.0
H1089 H 0.91452 0.54488 0.76254 0.0
H1090 H 0.91358 0.43628 0.90609 0.0
H1091 H 0.84339 0.54517 0.81565 0.0
H1092 H 0.91563 0.5039 0.79257 0.0
H1093 H 0.84759 0.47131 0.77195 0.0
C1094 C 0.86307 0.43987 0.80875 0.0
C1095 C 0.88166 0.42964 0.84667 0.0
C1096 C 0.89987 0.51305 0.79832 0.0
C1097 C 0.87987 0.47685 0.83063 0.0
C1098 C 0.89921 0.5363 0.78111 0.0
C1099 C 0.87886 0.54826 0.78707 0.0
C1100 C 0.87992 0.50169 0.81896 0.0
C1101 C 0.85943 0.53648 0.81112 0.0
C1102 C 0.86197 0.46354 0.80168 0.0
C1103 C 0.89895 0.44361 0.87668 0.0
N1104 N 0.86034 0.51365 0.82499 0.0
N1105 N 0.8978 0.46657 0.86699 0.0
H1106 H 0.5375 0.1584 0.35497 0.0
H1107 H 0.448 0.11752 0.02192 0.0
H1108 H 0.55687 0.12 0.14186 0.0
H1109 H 0.43212 0.1474 0.25553 0.0
H1110 H 0.48823 0.12365 0.0503 0.0
H1111 H 0.49931 0.16066 0.30315 0.0
C1112 C 0.53368 0.15054 0.29678 0.0
C1113 C 0.5502 0.13861 0.2533 0.0
C1114 C 0.47584 0.12901 0.09475 0.0
C1115 C 0.50627 0.14082 0.19387 0.0
C1116 C 0.45294 0.12556 0.07864 0.0
C1117 C 0.43673 0.13165 0.13704 0.0
C1118 C 0.48238 0.13885 0.16922 0.0
C1119 C 0.444 0.14207 0.20931 0.0
C1120 C 0.51185 0.15183 0.26713 0.0
C1121 C 0.54448 0.12919 0.1774 0.0
N1122 N 0.46622 0.14522 0.22334 0.0
N1123 N 0.5228 0.13016 0.15049 0.0
H1124 H 0.11542 0.5669 0.71981 0.0
H1125 H 0.12474 0.44081 0.89514 0.0
H1126 H 0.1108 0.55293 0.97799 0.0
H1127 H 0.10043 0.45635 0.65316 0.0
H1128 H 0.12497 0.48178 0.92621 0.0
H1129 H 0.1159 0.52601 0.69334 0.0
C1130 C 0.11467 0.55526 0.77104 0.0
C1131 C 0.11301 0.56336 0.85128 0.0
C1132 C 0.1195 0.4761 0.86657 0.0
C1133 C 0.11357 0.51656 0.82117 0.0
C1134 C 0.11938 0.45281 0.84881 0.0
C1135 C 0.11249 0.44522 0.77161 0.0
C1136 C 0.11309 0.49177 0.80613 0.0
C1137 C 0.10574 0.46144 0.71364 0.0
C1138 C 0.11481 0.53192 0.75577 0.0
C1139 C 0.112 0.54742 0.91516 0.0
N1140 N 0.10637 0.48396 0.73191 0.0
N1141 N 0.11236 0.52472 0.89874 0.0
H1142 H 0.45657 0.83617 0.3539 0.0
H1143 H 0.54754 0.87724 0.02673 0.0
H1144 H 0.43812 0.87487 0.14026 0.0
H1145 H 0.56237 0.84763 0.26183 0.0
H1146 H 0.50719 0.87111 0.05258 0.0
H1147 H 0.49499 0.83397 0.30442 0.0
C1148 C 0.46065 0.8441 0.29605 0.0
C1149 C 0.44432 0.8561 0.25177 0.0
C1150 C 0.51938 0.86582 0.09793 0.0
C1151 C 0.4885 0.85399 0.19507 0.0
C1152 C 0.54235 0.86928 0.08327 0.0
C1153 C 0.5583 0.86324 0.14279 0.0
C1154 C 0.51251 0.85603 0.17207 0.0
C1155 C 0.5507 0.85291 0.21476 0.0
C1156 C 0.48261 0.84285 0.26775 0.0
C1157 C 0.45035 0.86562 0.17637 0.0
N1158 N 0.52842 0.84974 0.22736 0.0
N1159 N 0.47216 0.8647 0.15081 0.0
H1160 H 0.85434 0.93995 0.4592 0.0
H1161 H 0.92268 0.05371 0.38846 0.0
H1162 H 0.9232 0.9452 0.54147 0.0
H1163 H 0.8552 0.05487 0.48563 0.0
H1164 H 0.92333 0.01203 0.40551 0.0
H1165 H 0.8547 0.98081 0.42735 0.0
C1166 C 0.86963 0.94962 0.46918 0.0
C1167 C 0.88876 0.93934 0.5033 0.0
C1168 C 0.90842 0.02152 0.42266 0.0
C1169 C 0.88928 0.98561 0.4661 0.0
C1170 C 0.908 0.04514 0.41288 0.0
C1171 C 0.88891 0.05756 0.43634 0.0
C1172 C 0.88936 0.01039 0.45352 0.0
C1173 C 0.8703 0.04581 0.46773 0.0
C1174 C 0.86975 0.97285 0.45152 0.0
C1175 C 0.9081 0.95262 0.51563 0.0
N1176 N 0.87089 0.02276 0.47481 0.0
N1177 N 0.90793 0.97517 0.49669 0.0
H1178 H 0.95893 0.15376 0.3902 0.0
H1179 H 0.05125 0.12241 0.72605 0.0
H1180 H 0.94164 0.1221 0.61943 0.0
H1181 H 0.06533 0.14912 0.486 0.0
H1182 H 0.01082 0.12717 0.69934 0.0
H1183 H -0.00247 0.15766 0.43636 0.0
C1184 C 0.96328 0.1477 0.45064 0.0
C1185 C 0.94718 0.1372 0.50052 0.0
C1186 C 0.02283 0.13217 0.65304 0.0
C1187 C 0.99161 0.14139 0.55375 0.0
C1188 C 0.04588 0.1295 0.66823 0.0
C1189 C 0.06166 0.13504 0.60762 0.0
C1190 C 0.01569 0.14059 0.5771 0.0
C1191 C 0.0538 0.14423 0.53401 0.0
C1192 C 0.98536 0.14996 0.47709 0.0
C1193 C 0.95365 0.13014 0.57891 0.0
N1194 N 0.03142 0.14658 0.52079 0.0
N1195 N 0.97553 0.13204 0.60282 0.0
H1196 H 0.07173 0.93939 0.38088 0.0
H1197 H 0.14113 0.05303 0.44418 0.0
H1198 H 0.13969 0.93819 0.47389 0.0
H1199 H 0.07233 0.04833 0.52717 0.0
H1200 H 0.1405 0.0121 0.41333 0.0
H1201 H 0.07148 0.98114 0.39511 0.0
C1202 C 0.0866 0.94796 0.40375 0.0
C1203 C 0.10571 0.9355 0.42694 0.0
C1204 C 0.12552 0.0202 0.43741 0.0
C1205 C 0.10569 0.98276 0.44096 0.0
C1206 C 0.12579 0.04346 0.45449 0.0
C1207 C 0.10676 0.05391 0.48856 0.0
C1208 C 0.10593 0.00758 0.45255 0.0
C1209 C 0.08736 0.04077 0.50136 0.0
C1210 C 0.08641 0.97163 0.41192 0.0
C1211 C 0.12458 0.94727 0.45628 0.0
N1212 N 0.08738 0.01819 0.48303 0.0
N1213 N 0.12418 0.97036 0.46191 0.0
H1214 H 0.94496 0.87256 0.7381 0.0
H1215 H 0.03528 0.83822 0.39962 0.0
H1216 H 0.92971 0.84228 0.50456 0.0
H1217 H 0.05381 0.87305 0.62152 0.0
H1218 H -0.00282 0.83412 0.45046 0.0
H1219 H 0.98529 0.86789 0.70908 0.0
C1220 C 0.95007 0.86468 0.68134 0.0
C1221 C 0.93399 0.85813 0.62303 0.0
C1222 C 0.00951 0.84256 0.48861 0.0
C1223 C 0.97981 0.85268 0.58988 0.0
C1224 C 0.0313 0.84494 0.45945 0.0
C1225 C 0.04758 0.85638 0.50584 0.0
C1226 C 0.00371 0.85198 0.56441 0.0
C1227 C 0.04164 0.86429 0.58368 0.0
C1228 C 0.97304 0.86207 0.6648 0.0
C1229 C 0.94149 0.84796 0.55067 0.0
N1230 N 0.01999 0.86227 0.6102 0.0
N1231 N 0.96379 0.84569 0.53608 0.0
H1232 H 0.35448 0.30166 0.22972 0.0
H1233 H 0.35982 0.18765 0.96673 0.0
H1234 H 0.35443 0.3014 0.96621 0.0
H1235 H 0.35212 0.18919 0.22875 0.0
H1236 H 0.35578 0.22907 0.96376 0.0
H1237 H 0.35172 0.26033 0.22901 0.0
C1238 C 0.35382 0.29292 0.17155 0.0
C1239 C 0.35491 0.30504 0.09783 0.0
C1240 C 0.35477 0.22029 0.02174 0.0
C1241 C 0.35179 0.25753 0.09676 0.0
C1242 C 0.35707 0.19663 0.02358 0.0
C1243 C 0.35653 0.18488 0.09825 0.0
C1244 C 0.35203 0.2323 0.09508 0.0
C1245 C 0.35282 0.19746 0.16979 0.0
C1246 C 0.35217 0.26927 0.17126 0.0
C1247 C 0.35374 0.29275 0.02449 0.0
N1248 N 0.35091 0.22049 0.16643 0.0
N1249 N 0.35244 0.26961 0.02581 0.0
H1250 H 0.18967 0.62065 0.98855 0.0
H1251 H 0.30356 0.62515 0.74086 0.0
H1252 H 0.19126 0.63813 0.73295 0.0
H1253 H 0.30135 0.63795 0.99985 0.0
H1254 H 0.2625 0.62729 0.73602 0.0
H1255 H 0.23062 0.62418 0.9938 0.0
C1256 C 0.19865 0.62524 0.93347 0.0
C1257 C 0.18708 0.62895 0.85997 0.0
C1258 C 0.271 0.62983 0.79376 0.0
C1259 C 0.23395 0.63286 0.86565 0.0
C1260 C 0.29441 0.6285 0.79672 0.0
C1261 C 0.30583 0.63123 0.87105 0.0
C1262 C 0.25887 0.63345 0.8659 0.0
C1263 C 0.29317 0.63574 0.94136 0.0
C1264 C 0.222 0.62739 0.93673 0.0
C1265 C 0.19955 0.63508 0.79076 0.0
N1266 N 0.2703 0.63641 0.93729 0.0
N1267 N 0.22238 0.63658 0.79503 0.0
H1268 H 0.64442 0.80572 0.23649 0.0
H1269 H 0.63984 0.69316 0.96204 0.0
H1270 H 0.63426 0.80686 0.97548 0.0
H1271 H 0.64063 0.69348 0.22556 0.0
H1272 H 0.64316 0.73477 0.96325 0.0
H1273 H 0.64869 0.7645 0.23046 0.0
C1274 C 0.64325 0.79736 0.17774 0.0
C1275 C 0.63871 0.8098 0.10648 0.0
C1276 C 0.64275 0.72566 0.02067 0.0
C1277 C 0.64349 0.76247 0.09936 0.0
C1278 C 0.64088 0.70192 0.02006 0.0
C1279 C 0.63969 0.68982 0.09381 0.0
C1280 C 0.64354 0.73729 0.0955 0.0
C1281 C 0.64121 0.70207 0.16715 0.0
C1282 C 0.64567 0.77378 0.1744 0.0
C1283 C 0.63757 0.79797 0.03209 0.0
N1284 N 0.64295 0.72511 0.16606 0.0
N1285 N 0.63976 0.77492 0.03056 0.0
H1286 H 0.69131 0.35762 0.00278 0.0
H1287 H 0.80048 0.357 0.71802 0.0
H1288 H 0.68866 0.37079 0.74398 0.0
H1289 H 0.8029 0.37411 0.9739 0.0
H1290 H 0.75935 0.35407 0.72756 0.0
H1291 H 0.73255 0.35554 0.99391 0.0
C1292 C 0.6994 0.35987 0.94413 0.0
C1293 C 0.68665 0.36462 0.87418 0.0
C1294 C 0.76896 0.35839 0.78153 0.0
C1295 C 0.73348 0.36202 0.86352 0.0
C1296 C 0.79237 0.36003 0.77618 0.0
C1297 C 0.80504 0.36603 0.84507 0.0
C1298 C 0.75828 0.36239 0.85657 0.0
C1299 C 0.79372 0.3697 0.91906 0.0
C1300 C 0.72286 0.35877 0.93916 0.0
C1301 C 0.69791 0.36738 0.79958 0.0
N1302 N 0.77097 0.36778 0.92293 0.0
N1303 N 0.72069 0.36602 0.79617 0.0
H1304 H 0.84759 0.68918 0.52874 0.0
H1305 H 0.85469 0.80319 0.79073 0.0
H1306 H 0.84942 0.6898 0.79212 0.0
H1307 H 0.84786 0.80164 0.52837 0.0
H1308 H 0.84929 0.76195 0.79401 0.0
H1309 H 0.84411 0.73048 0.52905 0.0
C1310 C 0.84711 0.69798 0.58679 0.0
C1311 C 0.84912 0.686 0.66056 0.0
C1312 C 0.84876 0.77069 0.73585 0.0
C1313 C 0.84525 0.73346 0.66119 0.0
C1314 C 0.85185 0.79425 0.73384 0.0
C1315 C 0.85201 0.80592 0.65901 0.0
C1316 C 0.8459 0.75868 0.66254 0.0
C1317 C 0.84809 0.7934 0.58744 0.0
C1318 C 0.84508 0.72161 0.58687 0.0
C1319 C 0.84809 0.69834 0.73379 0.0
N1320 N 0.84541 0.77045 0.59098 0.0
N1321 N 0.84649 0.72146 0.73223 0.0
H1322 H 0.79974 0.12321 0.54751 0.0
H1323 H 0.69741 0.12278 0.23386 0.0
H1324 H 0.8074 0.10383 0.29507 0.0
H1325 H 0.68808 0.11092 0.49147 0.0
H1326 H 0.73827 0.12192 0.25475 0.0
H1327 H 0.75881 0.12463 0.52765 0.0
C1328 C 0.79281 0.11926 0.48804 0.0
C1329 C 0.80692 0.11329 0.42293 0.0
C1330 C 0.72722 0.11948 0.30654 0.0
C1331 C 0.76042 0.11522 0.39968 0.0
C1332 C 0.70397 0.12005 0.29475 0.0
C1333 C 0.68942 0.11678 0.36097 0.0
C1334 C 0.7359 0.11604 0.38526 0.0
C1335 C 0.69875 0.11331 0.43865 0.0
C1336 C 0.76952 0.12002 0.47684 0.0
C1337 C 0.79711 0.10835 0.34707 0.0
N1338 N 0.72144 0.11315 0.44878 0.0
N1339 N 0.77445 0.10957 0.33737 0.0
H1340 H 0.14343 0.30381 0.78717 0.0
H1341 H 0.14805 0.19163 0.51122 0.0
H1342 H 0.14415 0.30403 0.52364 0.0
H1343 H 0.13997 0.19051 0.77312 0.0
H1344 H 0.15256 0.23288 0.51698 0.0
H1345 H 0.14792 0.26237 0.78499 0.0
C1346 C 0.14473 0.29521 0.72891 0.0
C1347 C 0.1431 0.30741 0.65547 0.0
C1348 C 0.14998 0.22358 0.57326 0.0
C1349 C 0.14824 0.26007 0.65267 0.0
C1350 C 0.14742 0.19999 0.57007 0.0
C1351 C 0.14333 0.18756 0.64169 0.0
C1352 C 0.14838 0.23488 0.64853 0.0
C1353 C 0.14288 0.19938 0.7162 0.0
C1354 C 0.14727 0.27155 0.72774 0.0
C1355 C 0.14503 0.29535 0.58183 0.0
N1356 N 0.14516 0.22241 0.71758 0.0
N1357 N 0.14734 0.27235 0.58236 0.0
H1358 H 0.18579 0.88776 0.28022 0.0
H1359 H 0.30661 0.88407 0.48677 0.0
H1360 H 0.19509 0.87103 0.53443 0.0
H1361 H 0.29664 0.87058 0.23048 0.0
H1362 H 0.2658 0.88435 0.50584 0.0
H1363 H 0.22659 0.88662 0.26126 0.0
C1364 C 0.19643 0.88394 0.33214 0.0
C1365 C 0.18709 0.87953 0.40911 0.0
C1366 C 0.27257 0.88128 0.44553 0.0
C1367 C 0.23367 0.87833 0.38776 0.0
C1368 C 0.29582 0.88123 0.43445 0.0
C1369 C 0.30497 0.87734 0.35683 0.0
C1370 C 0.25839 0.87782 0.37829 0.0
C1371 C 0.29024 0.8736 0.29133 0.0
C1372 C 0.21967 0.88317 0.32109 0.0
C1373 C 0.20163 0.8745 0.47408 0.0
N1374 N 0.26761 0.8741 0.30342 0.0
N1375 N 0.22427 0.8742 0.46207 0.0
H1376 H 0.18266 0.11013 0.90422 0.0
H1377 H 0.31612 0.10885 0.8353 0.0
H1378 H 0.21434 0.11857 0.66919 0.0
H1379 H 0.28448 0.11671 0.07061 0.0
H1380 H 0.27877 0.10522 0.7731 0.0
H1381 H 0.21993 0.10535 0.96583 0.0
C1382 C 0.19743 0.11079 0.86556 0.0
C1383 C 0.19547 0.11508 0.78178 0.0
C1384 C 0.28007 0.10759 0.83842 0.0
C1385 C 0.23798 0.10958 0.85149 0.0
C1386 C 0.30134 0.1096 0.87387 0.0
C1387 C 0.30334 0.11341 0.95793 0.0
C1388 C 0.26077 0.10923 0.88761 0.0
C1389 C 0.28368 0.11414 0.00529 0.0
C1390 C 0.21867 0.10811 0.90069 0.0
C1391 C 0.21513 0.11565 0.73432 0.0
N1392 N 0.2632 0.11219 0.9694 0.0
N1393 N 0.23558 0.11305 0.76992 0.0
H1394 H 0.08378 0.81432 0.13948 0.0
H1395 H 0.08648 0.67837 0.17044 0.0
H1396 H 0.08931 0.77762 0.36707 0.0
H1397 H 0.07912 0.7154 0.94419 0.0
H1398 H 0.08577 0.71448 0.24439 0.0
H1399 H 0.08054 0.77811 0.06757 0.0
C1400 C 0.08427 0.79864 0.17438 0.0
C1401 C 0.08689 0.79897 0.25937 0.0
C1402 C 0.08417 0.71469 0.17862 0.0
C1403 C 0.08318 0.75747 0.1774 0.0
C1404 C 0.08455 0.69408 0.13636 0.0
C1405 C 0.08293 0.69391 0.05102 0.0
C1406 C 0.08225 0.73523 0.13517 0.0
C1407 C 0.08043 0.71474 0.01 0.0
C1408 C 0.08238 0.77797 0.13326 0.0
C1409 C 0.08733 0.77814 0.30147 0.0
N1410 N 0.08029 0.73459 0.05249 0.0
N1411 N 0.08557 0.7582 0.25994 0.0
H1412 H 0.67981 0.88625 0.84681 0.0
H1413 H 0.81309 0.88364 0.92019 0.0
H1414 H 0.71082 0.87775 0.08312 0.0
H1415 H 0.78175 0.87564 0.68423 0.0
H1416 H 0.77575 0.88884 0.98071 0.0
H1417 H 0.71732 0.88975 0.7861 0.0
C1418 C 0.69449 0.88533 0.88592 0.0
C1419 C 0.69227 0.88137 0.96981 0.0
C1420 C 0.77711 0.88609 0.91561 0.0
C1421 C 0.73503 0.88541 0.90118 0.0
C1422 C 0.79839 0.88317 0.88111 0.0
C1423 C 0.80045 0.87887 0.7974 0.0
C1424 C 0.75788 0.88486 0.8658 0.0
C1425 C 0.78088 0.87856 0.74934 0.0
C1426 C 0.71586 0.88728 0.85132 0.0
C1427 C 0.7118 0.88044 0.0179 0.0
N1428 N 0.7604 0.88139 0.78432 0.0
N1429 N 0.73238 0.88232 0.98281 0.0
H1430 H 0.90328 0.21497 0.36122 0.0
H1431 H 0.90774 0.27366 0.92107 0.0
H1432 H 0.90498 0.17724 0.13508 0.0
H1433 H 0.90401 0.31118 0.14732 0.0
H1434 H 0.90837 0.2381 0.99859 0.0
H1435 H 0.90502 0.25046 0.28379 0.0
C1436 C 0.90408 0.21415 0.29529 0.0
C1437 C 0.90397 0.19314 0.25449 0.0
C1438 C 0.90749 0.25412 0.03124 0.0
C1439 C 0.90593 0.23365 0.16558 0.0
C1440 C 0.90718 0.27442 0.98704 0.0
C1441 C 0.9058 0.29539 0.02785 0.0
C1442 C 0.9064 0.25483 0.11676 0.0
C1443 C 0.90504 0.29539 0.11336 0.0
C1444 C 0.90506 0.23442 0.25112 0.0
C1445 C 0.90499 0.19308 0.16901 0.0
N1446 N 0.90531 0.2754 0.15497 0.0
N1447 N 0.9059 0.21305 0.12736 0.0
H1448 H 0.21708 0.37002 0.59954 0.0
H1449 H 0.2781 0.36261 0.16819 0.0
H1450 H 0.18185 0.37509 0.36981 0.0
H1451 H 0.31423 0.37308 0.39372 0.0
H1452 H 0.24269 0.36608 0.24188 0.0
H1453 H 0.25284 0.37033 0.52616 0.0
C1454 C 0.21687 0.37127 0.53363 0.0
C1455 C 0.19646 0.37236 0.49056 0.0
C1456 C 0.25834 0.3677 0.2753 0.0
C1457 C 0.23731 0.37263 0.4064 0.0
C1458 C 0.2786 0.3656 0.23336 0.0
C1459 C 0.29915 0.3674 0.27509 0.0
C1460 C 0.25859 0.37142 0.35978 0.0
C1461 C 0.29875 0.37153 0.3593 0.0
C1462 C 0.23729 0.37152 0.49186 0.0
C1463 C 0.19719 0.37417 0.40536 0.0
N1464 N 0.27874 0.37325 0.39908 0.0
N1465 N 0.2173 0.37406 0.36599 0.0
H1466 H 0.41286 0.8108 0.61327 0.0
H1467 H 0.4105 0.67523 0.56915 0.0
H1468 H 0.405 0.77594 0.38297 0.0
H1469 H 0.42092 0.7106 0.79715 0.0
H1470 H 0.41119 0.71183 0.49809 0.0
H1471 H 0.41816 0.77409 0.68027 0.0
C1472 C 0.41229 0.79541 0.57675 0.0
C1473 C 0.40836 0.79639 0.49251 0.0
C1474 C 0.41353 0.71155 0.56357 0.0
C1475 C 0.41442 0.75432 0.5688 0.0
C1476 C 0.41318 0.69066 0.60415 0.0
C1477 C 0.4155 0.6899 0.68924 0.0
C1478 C 0.41611 0.73176 0.60851 0.0
C1479 C 0.41898 0.71039 0.7315 0.0
C1480 C 0.41539 0.77445 0.61502 0.0
C1481 C 0.40794 0.77595 0.44813 0.0
N1482 N 0.41899 0.73051 0.69073 0.0
N1483 N 0.41081 0.75571 0.48695 0.0
H1484 H 0.67874 0.62014 0.39048 0.0
H1485 H 0.81351 0.61898 0.36499 0.0
H1486 H 0.71582 0.63109 0.16747 0.0
H1487 H 0.77636 0.62286 0.5908 0.0
H1488 H 0.77776 0.61852 0.29021 0.0
H1489 H 0.71444 0.61641 0.46387 0.0
C1490 C 0.69437 0.62172 0.35697 0.0
C1491 C 0.69431 0.62614 0.27293 0.0
C1492 C 0.77748 0.6194 0.35615 0.0
C1493 C 0.73516 0.62175 0.35624 0.0
C1494 C 0.79785 0.61958 0.3988 0.0
C1495 C 0.79789 0.62116 0.48411 0.0
C1496 C 0.75706 0.62062 0.39928 0.0
C1497 C 0.77713 0.62187 0.52493 0.0
C1498 C 0.71474 0.61961 0.39885 0.0
C1499 C 0.71507 0.62792 0.23246 0.0
N1500 N 0.75757 0.62163 0.48215 0.0
N1501 N 0.73465 0.62574 0.2745 0.0
H1502 H 0.58875 0.21898 0.38222 0.0
H1503 H 0.57217 0.28362 0.80679 0.0
H1504 H 0.58237 0.18487 0.6146 0.0
H1505 H 0.5824 0.31823 0.57718 0.0
H1506 H 0.5719 0.24726 0.73487 0.0
H1507 H 0.583 0.25551 0.45053 0.0
C1508 C 0.58607 0.21916 0.44755 0.0
C1509 C 0.58617 0.19889 0.49292 0.0
C1510 C 0.57403 0.26282 0.70011 0.0
C1511 C 0.57955 0.24055 0.57126 0.0
C1512 C 0.5741 0.2836 0.7411 0.0
C1513 C 0.57747 0.30396 0.69792 0.0
C1514 C 0.5774 0.2624 0.6154 0.0
C1515 C 0.57988 0.30291 0.6129 0.0
C1516 C 0.58277 0.24002 0.48647 0.0
C1517 C 0.58257 0.20011 0.57732 0.0
N1518 N 0.57996 0.28243 0.57444 0.0
N1519 N 0.57947 0.22062 0.6138 0.0
loop_
_geom_bond_atom_site_label_1
_geom_bond_atom_site_label_2
_geom_bond_distance
_geom_bond_site_symmetry_2
_ccdc_geom_bond_type
Co0 O2 2.143 . S
Co0 O8 2.074 . S
Co0 O11 2.093 . S
Co0 O24 2.097 . S
Co0 N41 2.151 . S
Co0 N49 2.214 . S
Co1 O2 2.160 1_556 S
Co1 O7 2.058 1_556 S
Co1 O17 2.057 . S
Co1 O32 2.037 1_556 S
Co1 N36 2.145 . S
Co1 N57 2.257 . S
O2 Co0 2.143 . S
O2 Co1 2.160 1_554 S
C3 O4 1.278 . S
C3 O11 1.224 . S
O4 C3 1.278 . S
C5 O6 1.245 1_556 S
C5 O17 1.232 . S
O6 C5 1.245 1_554 S
O7 Co1 2.058 1_554 S
O7 C33 1.269 . S
O8 Co0 2.074 . S
O8 C33 1.257 . S
H9 C34 0.930 . S
H10 C40 0.930 . S
O11 Co0 2.093 . S
O11 C3 1.224 . S
H12 C44 0.929 . S
H13 C46 0.930 . S
H14 C47 0.930 . S
H15 C45 0.929 . S
H16 C48 0.928 . S
O17 Co1 2.057 . S
O17 C5 1.232 . S
H18 C37 0.929 . S
H19 C38 0.929 . S
H20 C50 0.931 . S
H21 C42 0.929 . S
H22 C51 0.930 . S
H23 C43 0.931 . S
O24 Co0 2.097 . S
O24 C52 1.214 . S
H25 C53 0.929 . S
H26 C54 0.929 . S
H27 C55 0.930 . S
H28 C56 0.929 . S
H29 C58 0.930 . S
H30 C35 0.930 . S
H31 C39 0.930 . S
O32 Co1 2.037 1_554 S
O32 C52 1.234 . S
C33 O7 1.269 . S
C33 O8 1.257 . S
C34 H9 0.930 . S
C34 C37 1.388 . S
C34 C39 1.418 . S
C35 H30 0.930 . S
C35 C38 1.404 . S
C35 C39 1.353 . S
N36 Co1 2.145 . S
N36 C37 1.397 . S
N36 C38 1.334 . S
C37 H18 0.929 . S
C37 C34 1.388 . S
C37 N36 1.397 . S
C38 H19 0.929 . S
C38 C35 1.404 . S
C38 N36 1.334 . S
C39 H31 0.930 . S
C39 C34 1.418 . S
C39 C35 1.353 . S
C40 H10 0.930 . S
C40 N41 1.330 . S
C40 C42 1.446 . S
N41 Co0 2.151 . S
N41 C40 1.330 . S
N41 C45 1.418 . S
C42 H21 0.929 . S
C42 C40 1.446 . S
C42 C43 1.332 . S
C43 H23 0.931 . S
C43 C42 1.332 . S
C43 C44 1.267 . S
C44 H12 0.929 . S
C44 C43 1.267 . S
C44 C45 1.251 . S
C45 H15 0.929 . S
C45 N41 1.418 . S
C45 C44 1.251 . S
C46 H13 0.930 . S
C46 C48 1.406 . S
C46 C51 1.261 . S
C47 H14 0.930 . S
C47 N49 1.325 . S
C47 C50 1.357 . S
C48 H16 0.928 . S
C48 C46 1.406 . S
C48 N49 1.261 . S
N49 Co0 2.214 . S
N49 C47 1.325 . S
N49 C48 1.261 . S
C50 H20 0.931 . S
C50 C47 1.357 . S
C50 C51 1.312 . S
C51 H22 0.930 . S
C51 C46 1.261 . S
C51 C50 1.312 . S
C52 O24 1.214 . S
C52 O32 1.234 . S
C53 H25 0.929 . S
C53 C56 1.391 . S
C53 C58 1.391 . S
C54 H26 0.929 . S
C54 C55 1.390 . S
C54 N57 1.391 . S
C55 H27 0.930 . S
C55 C54 1.390 . S
C55 C56 1.392 . S
C56 H28 0.929 . S
C56 C53 1.391 . S
C56 C55 1.392 . S
N57 Co1 2.257 . S
N57 C54 1.391 . S
N57 C58 1.388 . S
C58 H29 0.930 . S
C58 C53 1.391 . S
C58 N57 1.388 . S
Co59 O61 2.143 . S
Co59 O67 2.074 . S
Co59 O70 2.093 . S
Co59 O83 2.097 . S
Co59 N100 2.151 . S
Co59 N108 2.214 . S
Co60 O61 2.160 . S
Co60 O66 2.058 . S
Co60 O76 2.057 1_556 S
Co60 O91 2.037 . S
Co60 N95 2.145 1_556 S
Co60 N116 2.257 1_556 S
O61 Co59 2.143 . S
O61 Co60 2.160 . S
C62 O63 1.278 . S
C62 O70 1.224 . S
O63 C62 1.278 . S
C64 O65 1.245 1_554 S
C64 O76 1.232 . S
O65 C64 1.245 1_556 S
O66 Co60 2.058 . S
O66 C92 1.269 . S
O67 Co59 2.074 . S
O67 C92 1.257 . S
H68 C93 0.930 . S
H69 C99 0.930 . S
O70 Co59 2.093 . S
O70 C62 1.224 . S
H71 C103 0.929 . S
H72 C105 0.930 . S
H73 C106 0.930 . S
H74 C104 0.929 . S
H75 C107 0.928 . S
O76 Co60 2.057 1_554 S
O76 C64 1.232 . S
H77 C96 0.929 1_556 S
H78 C97 0.929 . S
H79 C109 0.931 . S
H80 C101 0.929 . S
H81 C110 0.930 . S
H82 C102 0.931 . S
O83 Co59 2.097 . S
O83 C111 1.214 . S
H84 C112 0.929 . S
H85 C113 0.929 . S
H86 C114 0.930 . S
H87 C115 0.929 . S
H88 C117 0.930 . S
H89 C94 0.930 . S
H90 C98 0.930 . S
O91 Co60 2.037 . S
O91 C111 1.234 . S
C92 O66 1.269 . S
C92 O67 1.257 . S
C93 H68 0.930 . S
C93 C96 1.388 . S
C93 C98 1.418 . S
C94 H89 0.930 . S
C94 C97 1.404 . S
C94 C98 1.353 . S
N95 Co60 2.145 1_554 S
N95 C96 1.397 . S
N95 C97 1.334 . S
C96 H77 0.929 1_554 S
C96 C93 1.388 . S
C96 N95 1.397 . S
C97 H78 0.929 . S
C97 C94 1.404 . S
C97 N95 1.334 . S
C98 H90 0.930 . S
C98 C93 1.418 . S
C98 C94 1.353 . S
C99 H69 0.930 . S
C99 N100 1.330 . S
C99 C101 1.446 . S
N100 Co59 2.151 . S
N100 C99 1.330 . S
N100 C104 1.418 . S
C101 H80 0.929 . S
C101 C99 1.446 . S
C101 C102 1.332 . S
C102 H82 0.931 . S
C102 C101 1.332 . S
C102 C103 1.267 . S
C103 H71 0.929 . S
C103 C102 1.267 . S
C103 C104 1.251 . S
C104 H74 0.929 . S
C104 N100 1.418 . S
C104 C103 1.251 . S
C105 H72 0.930 . S
C105 C107 1.406 . S
C105 C110 1.261 . S
C106 H73 0.930 . S
C106 N108 1.325 . S
C106 C109 1.357 . S
C107 H75 0.928 . S
C107 C105 1.406 . S
C107 N108 1.261 . S
N108 Co59 2.214 . S
N108 C106 1.325 . S
N108 C107 1.261 . S
C109 H79 0.931 . S
C109 C106 1.357 . S
C109 C110 1.312 . S
C110 H81 0.930 . S
C110 C105 1.261 . S
C110 C109 1.312 . S
C111 O83 1.214 . S
C111 O91 1.234 . S
C112 H84 0.929 . S
C112 C115 1.391 . S
C112 C117 1.391 . S
C113 H85 0.929 . S
C113 C114 1.390 . S
C113 N116 1.391 . S
C114 H86 0.930 . S
C114 C113 1.390 . S
C114 C115 1.392 . S
C115 H87 0.929 . S
C115 C112 1.391 . S
C115 C114 1.392 . S
N116 Co60 2.257 1_554 S
N116 C113 1.391 . S
N116 C117 1.388 . S
C117 H88 0.930 . S
C117 C112 1.391 . S
C117 N116 1.388 . S
Co118 O120 2.143 . S
Co118 O126 2.074 . S
Co118 O129 2.093 . S
Co118 O142 2.097 . S
Co118 N159 2.151 . S
Co118 N167 2.214 . S
Co119 O120 2.160 1_556 S
Co119 O125 2.058 1_556 S
Co119 O135 2.057 . S
Co119 O150 2.037 1_556 S
Co119 N154 2.145 . S
Co119 N175 2.257 . S
O120 Co118 2.143 . S
O120 Co119 2.160 1_554 S
C121 O122 1.278 . S
C121 O129 1.224 . S
O122 C121 1.278 . S
C123 O124 1.245 1_556 S
C123 O135 1.232 . S
O124 C123 1.245 1_554 S
O125 Co119 2.058 1_554 S
O125 C151 1.269 . S
O126 Co118 2.074 . S
O126 C151 1.257 . S
H127 C152 0.930 . S
H128 C158 0.930 . S
O129 Co118 2.093 . S
O129 C121 1.224 . S
H130 C162 0.929 . S
H131 C164 0.930 . S
H132 C165 0.930 . S
H133 C163 0.929 . S
H134 C166 0.928 . S
O135 Co119 2.057 . S
O135 C123 1.232 . S
H136 C155 0.929 . S
H137 C156 0.929 . S
H138 C168 0.931 . S
H139 C160 0.929 . S
H140 C169 0.930 . S
H141 C161 0.931 . S
O142 Co118 2.097 . S
O142 C170 1.214 . S
H143 C171 0.929 . S
H144 C172 0.929 . S
H145 C173 0.930 . S
H146 C174 0.929 . S
H147 C176 0.930 . S
H148 C153 0.930 . S
H149 C157 0.930 . S
O150 Co119 2.037 1_554 S
O150 C170 1.234 . S
C151 O125 1.269 . S
C151 O126 1.257 . S
C152 H127 0.930 . S
C152 C155 1.388 . S
C152 C157 1.418 . S
C153 H148 0.930 . S
C153 C156 1.404 . S
C153 C157 1.353 . S
N154 Co119 2.145 . S
N154 C155 1.397 . S
N154 C156 1.334 . S
C155 H136 0.929 . S
C155 C152 1.388 . S
C155 N154 1.397 . S
C156 H137 0.929 . S
C156 C153 1.404 . S
C156 N154 1.334 . S
C157 H149 0.930 . S
C157 C152 1.418 . S
C157 C153 1.353 . S
C158 H128 0.930 . S
C158 N159 1.330 . S
C158 C160 1.446 . S
N159 Co118 2.151 . S
N159 C158 1.330 . S
N159 C163 1.418 . S
C160 H139 0.929 . S
C160 C158 1.446 . S
C160 C161 1.332 . S
C161 H141 0.931 . S
C161 C160 1.332 . S
C161 C162 1.267 . S
C162 H130 0.929 . S
C162 C161 1.267 . S
C162 C163 1.251 . S
C163 H133 0.929 . S
C163 N159 1.418 . S
C163 C162 1.251 . S
C164 H131 0.930 . S
C164 C166 1.406 . S
C164 C169 1.261 . S
C165 H132 0.930 . S
C165 N167 1.325 . S
C165 C168 1.357 . S
C166 H134 0.928 . S
C166 C164 1.406 . S
C166 N167 1.261 . S
N167 Co118 2.214 . S
N167 C165 1.325 . S
N167 C166 1.261 . S
C168 H138 0.931 . S
C168 C165 1.357 . S
C168 C169 1.312 . S
C169 H140 0.930 . S
C169 C164 1.261 . S
C169 C168 1.312 . S
C170 O142 1.214 . S
C170 O150 1.234 . S
C171 H143 0.929 . S
C171 C174 1.391 . S
C171 C176 1.391 . S
C172 H144 0.929 . S
C172 C173 1.390 . S
C172 N175 1.391 . S
C173 H145 0.930 . S
C173 C172 1.390 . S
C173 C174 1.392 . S
C174 H146 0.929 . S
C174 C171 1.391 . S
C174 C173 1.392 . S
N175 Co119 2.257 . S
N175 C172 1.391 . S
N175 C176 1.388 . S
C176 H147 0.930 . S
C176 C171 1.391 . S
C176 N175 1.388 . S
Co177 O179 2.143 . S
Co177 O185 2.074 . S
Co177 O188 2.093 . S
Co177 O201 2.097 . S
Co177 N218 2.151 . S
Co177 N226 2.214 . S
Co178 O179 2.160 . S
Co178 O184 2.058 . S
Co178 O194 2.057 1_556 S
Co178 O209 2.037 . S
Co178 N213 2.145 1_556 S
Co178 N234 2.257 1_556 S
O179 Co177 2.143 . S
O179 Co178 2.160 . S
C180 O181 1.278 . S
C180 O188 1.224 . S
O181 C180 1.278 . S
C182 O183 1.245 1_554 S
C182 O194 1.232 . S
O183 C182 1.245 1_556 S
O184 Co178 2.058 . S
O184 C210 1.269 . S
O185 Co177 2.074 . S
O185 C210 1.257 . S
H186 C211 0.930 . S
H187 C217 0.930 . S
O188 Co177 2.093 . S
O188 C180 1.224 . S
H189 C221 0.929 . S
H190 C223 0.930 . S
H191 C224 0.930 . S
H192 C222 0.929 . S
H193 C225 0.928 . S
O194 Co178 2.057 1_554 S
O194 C182 1.232 . S
H195 C214 0.929 1_556 S
H196 C215 0.929 . S
H197 C227 0.931 . S
H198 C219 0.929 . S
H199 C228 0.930 . S
H200 C220 0.931 . S
O201 Co177 2.097 . S
O201 C229 1.214 . S
H202 C230 0.929 . S
H203 C231 0.929 . S
H204 C232 0.930 . S
H205 C233 0.929 . S
H206 C235 0.930 . S
H207 C212 0.930 . S
H208 C216 0.930 . S
O209 Co178 2.037 . S
O209 C229 1.234 . S
C210 O184 1.269 . S
C210 O185 1.257 . S
C211 H186 0.930 . S
C211 C214 1.388 . S
C211 C216 1.418 . S
C212 H207 0.930 . S
C212 C215 1.404 . S
C212 C216 1.353 . S
N213 Co178 2.145 1_554 S
N213 C214 1.397 . S
N213 C215 1.334 . S
C214 H195 0.929 1_554 S
C214 C211 1.388 . S
C214 N213 1.397 . S
C215 H196 0.929 . S
C215 C212 1.404 . S
C215 N213 1.334 . S
C216 H208 0.930 . S
C216 C211 1.418 . S
C216 C212 1.353 . S
C217 H187 0.930 . S
C217 N218 1.330 . S
C217 C219 1.446 . S
N218 Co177 2.151 . S
N218 C217 1.330 . S
N218 C222 1.418 . S
C219 H198 0.929 . S
C219 C217 1.446 . S
C219 C220 1.332 . S
C220 H200 0.931 . S
C220 C219 1.332 . S
C220 C221 1.267 . S
C221 H189 0.929 . S
C221 C220 1.267 . S
C221 C222 1.251 . S
C222 H192 0.929 . S
C222 N218 1.418 . S
C222 C221 1.251 . S
C223 H190 0.930 . S
C223 C225 1.406 . S
C223 C228 1.261 . S
C224 H191 0.930 . S
C224 N226 1.325 . S
C224 C227 1.357 . S
C225 H193 0.928 . S
C225 C223 1.406 . S
C225 N226 1.261 . S
N226 Co177 2.214 . S
N226 C224 1.325 . S
N226 C225 1.261 . S
C227 H197 0.931 . S
C227 C224 1.357 . S
C227 C228 1.312 . S
C228 H199 0.930 . S
C228 C223 1.261 . S
C228 C227 1.312 . S
C229 O201 1.214 . S
C229 O209 1.234 . S
C230 H202 0.929 . S
C230 C233 1.391 . S
C230 C235 1.391 . S
C231 H203 0.929 . S
C231 C232 1.390 . S
C231 N234 1.391 . S
C232 H204 0.930 . S
C232 C231 1.390 . S
C232 C233 1.392 . S
C233 H205 0.929 . S
C233 C230 1.391 . S
C233 C232 1.392 . S
N234 Co178 2.257 1_554 S
N234 C231 1.391 . S
N234 C235 1.388 . S
C235 H206 0.930 . S
C235 C230 1.391 . S
C235 N234 1.388 . S
Co236 O238 2.143 . S
Co236 O244 2.074 . S
Co236 O247 2.093 . S
Co236 O260 2.097 . S
Co236 N277 2.151 . S
Co236 N285 2.214 1_554 S
Co237 O238 2.160 . S
Co237 O243 2.058 . S
Co237 O253 2.057 . S
Co237 O268 2.037 . S
Co237 N272 2.145 . S
Co237 N293 2.257 . S
O238 Co236 2.143 . S
O238 Co237 2.160 . S
C239 O240 1.278 . S
C239 O247 1.224 . S
O240 C239 1.278 . S
C241 O242 1.245 . S
C241 O253 1.232 . S
O242 C241 1.245 . S
O243 Co237 2.058 . S
O243 C269 1.269 . S
O244 Co236 2.074 . S
O244 C269 1.257 . S
H245 C270 0.930 . S
H246 C276 0.930 . S
O247 Co236 2.093 . S
O247 C239 1.224 . S
H248 C280 0.929 . S
H249 C282 0.930 . S
H250 C283 0.930 1_554 S
H251 C281 0.929 . S
H252 C284 0.928 . S
O253 Co237 2.057 . S
O253 C241 1.232 . S
H254 C273 0.929 . S
H255 C274 0.929 . S
H256 C286 0.931 . S
H257 C278 0.929 . S
H258 C287 0.930 . S
H259 C279 0.931 . S
O260 Co236 2.097 . S
O260 C288 1.214 . S
H261 C289 0.929 . S
H262 C290 0.929 . S
H263 C291 0.930 . S
H264 C292 0.929 . S
H265 C294 0.930 . S
H266 C271 0.930 . S
H267 C275 0.930 . S
O268 Co237 2.037 . S
O268 C288 1.234 . S
C269 O243 1.269 . S
C269 O244 1.257 . S
C270 H245 0.930 . S
C270 C273 1.388 . S
C270 C275 1.418 . S
C271 H266 0.930 . S
C271 C274 1.404 . S
C271 C275 1.353 . S
N272 Co237 2.145 . S
N272 C273 1.397 . S
N272 C274 1.334 . S
C273 H254 0.929 . S
C273 C270 1.388 . S
C273 N272 1.397 . S
C274 H255 0.929 . S
C274 C271 1.404 . S
C274 N272 1.334 . S
C275 H267 0.930 . S
C275 C270 1.418 . S
C275 C271 1.353 . S
C276 H246 0.930 . S
C276 N277 1.330 . S
C276 C278 1.446 1_554 S
N277 Co236 2.151 . S
N277 C276 1.330 . S
N277 C281 1.418 1_554 S
C278 H257 0.929 . S
C278 C276 1.446 1_556 S
C278 C279 1.332 . S
C279 H259 0.931 . S
C279 C278 1.332 . S
C279 C280 1.267 . S
C280 H248 0.929 . S
C280 C279 1.267 . S
C280 C281 1.251 . S
C281 H251 0.929 . S
C281 N277 1.418 1_556 S
C281 C280 1.251 . S
C282 H249 0.930 . S
C282 C284 1.406 . S
C282 C287 1.261 . S
C283 H250 0.930 1_556 S
C283 N285 1.325 . S
C283 C286 1.357 . S
C284 H252 0.928 . S
C284 C282 1.406 . S
C284 N285 1.261 . S
N285 Co236 2.214 1_556 S
N285 C283 1.325 . S
N285 C284 1.261 . S
C286 H256 0.931 . S
C286 C283 1.357 . S
C286 C287 1.312 . S
C287 H258 0.930 . S
C287 C282 1.261 . S
C287 C286 1.312 . S
C288 O260 1.214 . S
C288 O268 1.234 . S
C289 H261 0.929 . S
C289 C292 1.391 . S
C289 C294 1.391 . S
C290 H262 0.929 . S
C290 C291 1.390 . S
C290 N293 1.391 . S
C291 H263 0.930 . S
C291 C290 1.390 . S
C291 C292 1.392 . S
C292 H264 0.929 . S
C292 C289 1.391 . S
C292 C291 1.392 . S
N293 Co237 2.257 . S
N293 C290 1.391 . S
N293 C294 1.388 . S
C294 H265 0.930 . S
C294 C289 1.391 . S
C294 N293 1.388 . S
Co295 O297 2.143 . S
Co295 O303 2.074 . S
Co295 O306 2.093 . S
Co295 O319 2.097 . S
Co295 N336 2.151 1_556 S
Co295 N344 2.214 1_556 S
Co296 O297 2.160 . S
Co296 O302 2.058 . S
Co296 O312 2.057 . S
Co296 O327 2.037 . S
Co296 N331 2.145 . S
Co296 N352 2.257 . S
O297 Co295 2.143 . S
O297 Co296 2.160 . S
C298 O299 1.278 . S
C298 O306 1.224 . S
O299 C298 1.278 . S
C300 O301 1.245 . S
C300 O312 1.232 . S
O301 C300 1.245 . S
O302 Co296 2.058 . S
O302 C328 1.269 . S
O303 Co295 2.074 . S
O303 C328 1.257 . S
H304 C329 0.930 . S
H305 C335 0.930 1_556 S
O306 Co295 2.093 . S
O306 C298 1.224 . S
H307 C339 0.929 . S
H308 C341 0.930 . S
H309 C342 0.930 . S
H310 C340 0.929 . S
H311 C343 0.928 . S
O312 Co296 2.057 . S
O312 C300 1.232 . S
H313 C332 0.929 . S
H314 C333 0.929 . S
H315 C345 0.931 . S
H316 C337 0.929 . S
H317 C346 0.930 . S
H318 C338 0.931 . S
O319 Co295 2.097 . S
O319 C347 1.214 . S
H320 C348 0.929 . S
H321 C349 0.929 . S
H322 C350 0.930 . S
H323 C351 0.929 . S
H324 C353 0.930 . S
H325 C330 0.930 . S
H326 C334 0.930 . S
O327 Co296 2.037 . S
O327 C347 1.234 . S
C328 O302 1.269 . S
C328 O303 1.257 . S
C329 H304 0.930 . S
C329 C332 1.388 . S
C329 C334 1.418 . S
C330 H325 0.930 . S
C330 C333 1.404 . S
C330 C334 1.353 . S
N331 Co296 2.145 . S
N331 C332 1.397 . S
N331 C333 1.334 . S
C332 H313 0.929 . S
C332 C329 1.388 . S
C332 N331 1.397 . S
C333 H314 0.929 . S
C333 C330 1.404 . S
C333 N331 1.334 . S
C334 H326 0.930 . S
C334 C329 1.418 . S
C334 C330 1.353 . S
C335 H305 0.930 1_554 S
C335 N336 1.330 . S
C335 C337 1.446 . S
N336 Co295 2.151 1_554 S
N336 C335 1.330 . S
N336 C340 1.418 . S
C337 H316 0.929 . S
C337 C335 1.446 . S
C337 C338 1.332 . S
C338 H318 0.931 . S
C338 C337 1.332 . S
C338 C339 1.267 . S
C339 H307 0.929 . S
C339 C338 1.267 . S
C339 C340 1.251 . S
C340 H310 0.929 . S
C340 N336 1.418 . S
C340 C339 1.251 . S
C341 H308 0.930 . S
C341 C343 1.406 . S
C341 C346 1.261 . S
C342 H309 0.930 . S
C342 N344 1.325 . S
C342 C345 1.357 . S
C343 H311 0.928 . S
C343 C341 1.406 . S
C343 N344 1.261 . S
N344 Co295 2.214 1_554 S
N344 C342 1.325 . S
N344 C343 1.261 . S
C345 H315 0.931 . S
C345 C342 1.357 . S
C345 C346 1.312 . S
C346 H317 0.930 . S
C346 C341 1.261 . S
C346 C345 1.312 . S
C347 O319 1.214 . S
C347 O327 1.234 . S
C348 H320 0.929 . S
C348 C351 1.391 . S
C348 C353 1.391 . S
C349 H321 0.929 . S
C349 C350 1.390 . S
C349 N352 1.391 . S
C350 H322 0.930 . S
C350 C349 1.390 . S
C350 C351 1.392 . S
C351 H323 0.929 . S
C351 C348 1.391 . S
C351 C350 1.392 . S
N352 Co296 2.257 . S
N352 C349 1.391 . S
N352 C353 1.388 . S
C353 H324 0.930 . S
C353 C348 1.391 . S
C353 N352 1.388 . S
Co354 O356 2.143 . S
Co354 O362 2.074 . S
Co354 O365 2.093 . S
Co354 O378 2.097 . S
Co354 N395 2.151 . S
Co354 N403 2.214 1_554 S
Co355 O356 2.160 . S
Co355 O361 2.058 . S
Co355 O371 2.057 . S
Co355 O386 2.037 . S
Co355 N390 2.145 . S
Co355 N411 2.257 . S
O356 Co354 2.143 . S
O356 Co355 2.160 . S
C357 O358 1.278 . S
C357 O365 1.224 . S
O358 C357 1.278 . S
C359 O360 1.245 . S
C359 O371 1.232 . S
O360 C359 1.245 . S
O361 Co355 2.058 . S
O361 C387 1.269 . S
O362 Co354 2.074 . S
O362 C387 1.257 . S
H363 C388 0.930 . S
H364 C394 0.930 . S
O365 Co354 2.093 . S
O365 C357 1.224 . S
H366 C398 0.929 . S
H367 C400 0.930 . S
H368 C401 0.930 1_554 S
H369 C399 0.929 . S
H370 C402 0.928 . S
O371 Co355 2.057 . S
O371 C359 1.232 . S
H372 C391 0.929 . S
H373 C392 0.929 . S
H374 C404 0.931 . S
H375 C396 0.929 . S
H376 C405 0.930 . S
H377 C397 0.931 . S
O378 Co354 2.097 . S
O378 C406 1.214 . S
H379 C407 0.929 . S
H380 C408 0.929 . S
H381 C409 0.930 . S
H382 C410 0.929 . S
H383 C412 0.930 . S
H384 C389 0.930 . S
H385 C393 0.930 . S
O386 Co355 2.037 . S
O386 C406 1.234 . S
C387 O361 1.269 . S
C387 O362 1.257 . S
C388 H363 0.930 . S
C388 C391 1.388 . S
C388 C393 1.418 . S
C389 H384 0.930 . S
C389 C392 1.404 . S
C389 C393 1.353 . S
N390 Co355 2.145 . S
N390 C391 1.397 . S
N390 C392 1.334 . S
C391 H372 0.929 . S
C391 C388 1.388 . S
C391 N390 1.397 . S
C392 H373 0.929 . S
C392 C389 1.404 . S
C392 N390 1.334 . S
C393 H385 0.930 . S
C393 C388 1.418 . S
C393 C389 1.353 . S
C394 H364 0.930 . S
C394 N395 1.330 . S
C394 C396 1.446 1_554 S
N395 Co354 2.151 . S
N395 C394 1.330 . S
N395 C399 1.418 1_554 S
C396 H375 0.929 . S
C396 C394 1.446 1_556 S
C396 C397 1.332 . S
C397 H377 0.931 . S
C397 C396 1.332 . S
C397 C398 1.267 . S
C398 H366 0.929 . S
C398 C397 1.267 . S
C398 C399 1.251 . S
C399 H369 0.929 . S
C399 N395 1.418 1_556 S
C399 C398 1.251 . S
C400 H367 0.930 . S
C400 C402 1.406 . S
C400 C405 1.261 . S
C401 H368 0.930 1_556 S
C401 N403 1.325 . S
C401 C404 1.357 . S
C402 H370 0.928 . S
C402 C400 1.406 . S
C402 N403 1.261 . S
N403 Co354 2.214 1_556 S
N403 C401 1.325 . S
N403 C402 1.261 . S
C404 H374 0.931 . S
C404 C401 1.357 . S
C404 C405 1.312 . S
C405 H376 0.930 . S
C405 C400 1.261 . S
C405 C404 1.312 . S
C406 O378 1.214 . S
C406 O386 1.234 . S
C407 H379 0.929 . S
C407 C410 1.391 . S
C407 C412 1.391 . S
C408 H380 0.929 . S
C408 C409 1.390 . S
C408 N411 1.391 . S
C409 H381 0.930 . S
C409 C408 1.390 . S
C409 C410 1.392 . S
C410 H382 0.929 . S
C410 C407 1.391 . S
C410 C409 1.392 . S
N411 Co355 2.257 . S
N411 C408 1.391 . S
N411 C412 1.388 . S
C412 H383 0.930 . S
C412 C407 1.391 . S
C412 N411 1.388 . S
Co413 O415 2.143 . S
Co413 O421 2.074 . S
Co413 O424 2.093 . S
Co413 O437 2.097 . S
Co413 N454 2.151 1_556 S
Co413 N462 2.214 1_556 S
Co414 O415 2.160 . S
Co414 O420 2.058 . S
Co414 O430 2.057 . S
Co414 O445 2.037 . S
Co414 N449 2.145 . S
Co414 N470 2.257 . S
O415 Co413 2.143 . S
O415 Co414 2.160 . S
C416 O417 1.278 . S
C416 O424 1.224 . S
O417 C416 1.278 . S
C418 O419 1.245 . S
C418 O430 1.232 . S
O419 C418 1.245 . S
O420 Co414 2.058 . S
O420 C446 1.269 . S
O421 Co413 2.074 . S
O421 C446 1.257 . S
H422 C447 0.930 . S
H423 C453 0.930 1_556 S
O424 Co413 2.093 . S
O424 C416 1.224 . S
H425 C457 0.929 . S
H426 C459 0.930 . S
H427 C460 0.930 . S
H428 C458 0.929 . S
H429 C461 0.928 . S
O430 Co414 2.057 . S
O430 C418 1.232 . S
H431 C450 0.929 . S
H432 C451 0.929 . S
H433 C463 0.931 . S
H434 C455 0.929 . S
H435 C464 0.930 . S
H436 C456 0.931 . S
O437 Co413 2.097 . S
O437 C465 1.214 . S
H438 C466 0.929 . S
H439 C467 0.929 . S
H440 C468 0.930 . S
H441 C469 0.929 . S
H442 C471 0.930 . S
H443 C448 0.930 . S
H444 C452 0.930 . S
O445 Co414 2.037 . S
O445 C465 1.234 . S
C446 O420 1.269 . S
C446 O421 1.257 . S
C447 H422 0.930 . S
C447 C450 1.388 . S
C447 C452 1.418 . S
C448 H443 0.930 . S
C448 C451 1.404 . S
C448 C452 1.353 . S
N449 Co414 2.145 . S
N449 C450 1.397 . S
N449 C451 1.334 . S
C450 H431 0.929 . S
C450 C447 1.388 . S
C450 N449 1.397 . S
C451 H432 0.929 . S
C451 C448 1.404 . S
C451 N449 1.334 . S
C452 H444 0.930 . S
C452 C447 1.418 . S
C452 C448 1.353 . S
C453 H423 0.930 1_554 S
C453 N454 1.330 . S
C453 C455 1.446 . S
N454 Co413 2.151 1_554 S
N454 C453 1.330 . S
N454 C458 1.418 . S
C455 H434 0.929 . S
C455 C453 1.446 . S
C455 C456 1.332 . S
C456 H436 0.931 . S
C456 C455 1.332 . S
C456 C457 1.267 . S
C457 H425 0.929 . S
C457 C456 1.267 . S
C457 C458 1.251 . S
C458 H428 0.929 . S
C458 N454 1.418 . S
C458 C457 1.251 . S
C459 H426 0.930 . S
C459 C461 1.406 . S
C459 C464 1.261 . S
C460 H427 0.930 . S
C460 N462 1.325 . S
C460 C463 1.357 . S
C461 H429 0.928 . S
C461 C459 1.406 . S
C461 N462 1.261 . S
N462 Co413 2.214 1_554 S
N462 C460 1.325 . S
N462 C461 1.261 . S
C463 H433 0.931 . S
C463 C460 1.357 . S
C463 C464 1.312 . S
C464 H435 0.930 . S
C464 C459 1.261 . S
C464 C463 1.312 . S
C465 O437 1.214 . S
C465 O445 1.234 . S
C466 H438 0.929 . S
C466 C469 1.391 . S
C466 C471 1.391 . S
C467 H439 0.929 . S
C467 C468 1.390 . S
C467 N470 1.391 . S
C468 H440 0.930 . S
C468 C467 1.390 . S
C468 C469 1.392 . S
C469 H441 0.929 . S
C469 C466 1.391 . S
C469 C468 1.392 . S
N470 Co414 2.257 . S
N470 C467 1.391 . S
N470 C471 1.388 . S
C471 H442 0.930 . S
C471 C466 1.391 . S
C471 N470 1.388 . S
Co472 O474 2.143 . S
Co472 O480 2.074 . S
Co472 O483 2.093 . S
Co472 O496 2.097 . S
Co472 N513 2.151 . S
Co472 N521 2.214 . S
Co473 O474 2.160 . S
Co473 O479 2.058 . S
Co473 O489 2.057 . S
Co473 O504 2.037 . S
Co473 N508 2.145 . S
Co473 N529 2.257 . S
O474 Co472 2.143 . S
O474 Co473 2.160 . S
C475 O476 1.278 . S
C475 O483 1.224 . S
O476 C475 1.278 . S
C477 O478 1.245 . S
C477 O489 1.232 . S
O478 C477 1.245 . S
O479 Co473 2.058 . S
O479 C505 1.269 . S
O480 Co472 2.074 . S
O480 C505 1.257 . S
H481 C506 0.930 . S
H482 C512 0.930 . S
O483 Co472 2.093 . S
O483 C475 1.224 . S
H484 C516 0.929 . S
H485 C518 0.930 . S
H486 C519 0.930 . S
H487 C517 0.929 . S
H488 C520 0.928 . S
O489 Co473 2.057 . S
O489 C477 1.232 . S
H490 C509 0.929 . S
H491 C510 0.929 . S
H492 C522 0.931 . S
H493 C514 0.929 . S
H494 C523 0.930 . S
H495 C515 0.931 . S
O496 Co472 2.097 . S
O496 C524 1.214 . S
H497 C525 0.929 . S
H498 C526 0.929 . S
H499 C527 0.930 . S
H500 C528 0.929 . S
H501 C530 0.930 . S
H502 C507 0.930 . S
H503 C511 0.930 . S
O504 Co473 2.037 . S
O504 C524 1.234 . S
C505 O479 1.269 . S
C505 O480 1.257 . S
C506 H481 0.930 . S
C506 C509 1.388 . S
C506 C511 1.418 . S
C507 H502 0.930 . S
C507 C510 1.404 . S
C507 C511 1.353 . S
N508 Co473 2.145 . S
N508 C509 1.397 . S
N508 C510 1.334 . S
C509 H490 0.929 . S
C509 C506 1.388 . S
C509 N508 1.397 . S
C510 H491 0.929 . S
C510 C507 1.404 . S
C510 N508 1.334 . S
C511 H503 0.930 . S
C511 C506 1.418 . S
C511 C507 1.353 . S
C512 H482 0.930 . S
C512 N513 1.330 . S
C512 C514 1.446 . S
N513 Co472 2.151 . S
N513 C512 1.330 . S
N513 C517 1.418 . S
C514 H493 0.929 . S
C514 C512 1.446 . S
C514 C515 1.332 . S
C515 H495 0.931 . S
C515 C514 1.332 . S
C515 C516 1.267 . S
C516 H484 0.929 . S
C516 C515 1.267 . S
C516 C517 1.251 . S
C517 H487 0.929 . S
C517 N513 1.418 . S
C517 C516 1.251 . S
C518 H485 0.930 . S
C518 C520 1.406 . S
C518 C523 1.261 . S
C519 H486 0.930 . S
C519 N521 1.325 . S
C519 C522 1.357 . S
C520 H488 0.928 . S
C520 C518 1.406 . S
C520 N521 1.261 . S
N521 Co472 2.214 . S
N521 C519 1.325 . S
N521 C520 1.261 . S
C522 H492 0.931 . S
C522 C519 1.357 . S
C522 C523 1.312 . S
C523 H494 0.930 . S
C523 C518 1.261 . S
C523 C522 1.312 . S
C524 O496 1.214 . S
C524 O504 1.234 . S
C525 H497 0.929 . S
C525 C528 1.391 . S
C525 C530 1.391 . S
C526 H498 0.929 . S
C526 C527 1.390 . S
C526 N529 1.391 . S
C527 H499 0.930 . S
C527 C526 1.390 . S
C527 C528 1.392 . S
C528 H500 0.929 . S
C528 C525 1.391 . S
C528 C527 1.392 . S
N529 Co473 2.257 . S
N529 C526 1.391 . S
N529 C530 1.388 . S
C530 H501 0.930 . S
C530 C525 1.391 . S
C530 N529 1.388 . S
Co531 O533 2.143 . S
Co531 O539 2.074 . S
Co531 O542 2.093 . S
Co531 O555 2.097 . S
Co531 N572 2.151 . S
Co531 N580 2.214 . S
Co532 O533 2.160 . S
Co532 O538 2.058 . S
Co532 O548 2.057 . S
Co532 O563 2.037 . S
Co532 N567 2.145 . S
Co532 N588 2.257 . S
O533 Co531 2.143 . S
O533 Co532 2.160 . S
C534 O535 1.278 . S
C534 O542 1.224 . S
O535 C534 1.278 . S
C536 O537 1.245 . S
C536 O548 1.232 . S
O537 C536 1.245 . S
O538 Co532 2.058 . S
O538 C564 1.269 . S
O539 Co531 2.074 . S
O539 C564 1.257 . S
H540 C565 0.930 . S
H541 C571 0.930 . S
O542 Co531 2.093 . S
O542 C534 1.224 . S
H543 C575 0.929 . S
H544 C577 0.930 1_556 S
H545 C578 0.930 . S
H546 C576 0.929 . S
H547 C579 0.928 . S
O548 Co532 2.057 . S
O548 C536 1.232 . S
H549 C568 0.929 . S
H550 C569 0.929 . S
H551 C581 0.931 . S
H552 C573 0.929 . S
H553 C582 0.930 . S
H554 C574 0.931 . S
O555 Co531 2.097 . S
O555 C583 1.214 . S
H556 C584 0.929 . S
H557 C585 0.929 . S
H558 C586 0.930 . S
H559 C587 0.929 . S
H560 C589 0.930 . S
H561 C566 0.930 . S
H562 C570 0.930 . S
O563 Co532 2.037 . S
O563 C583 1.234 . S
C564 O538 1.269 . S
C564 O539 1.257 . S
C565 H540 0.930 . S
C565 C568 1.388 . S
C565 C570 1.418 . S
C566 H561 0.930 . S
C566 C569 1.404 . S
C566 C570 1.353 . S
N567 Co532 2.145 . S
N567 C568 1.397 . S
N567 C569 1.334 . S
C568 H549 0.929 . S
C568 C565 1.388 . S
C568 N567 1.397 . S
C569 H550 0.929 . S
C569 C566 1.404 . S
C569 N567 1.334 . S
C570 H562 0.930 . S
C570 C565 1.418 . S
C570 C566 1.353 . S
C571 H541 0.930 . S
C571 N572 1.330 . S
C571 C573 1.446 . S
N572 Co531 2.151 . S
N572 C571 1.330 . S
N572 C576 1.418 . S
C573 H552 0.929 . S
C573 C571 1.446 . S
C573 C574 1.332 . S
C574 H554 0.931 . S
C574 C573 1.332 . S
C574 C575 1.267 . S
C575 H543 0.929 . S
C575 C574 1.267 . S
C575 C576 1.251 . S
C576 H546 0.929 . S
C576 N572 1.418 . S
C576 C575 1.251 . S
C577 H544 0.930 1_554 S
C577 C579 1.406 . S
C577 C582 1.261 1_554 S
C578 H545 0.930 . S
C578 N580 1.325 . S
C578 C581 1.357 . S
C579 H547 0.928 . S
C579 C577 1.406 . S
C579 N580 1.261 . S
N580 Co531 2.214 . S
N580 C578 1.325 . S
N580 C579 1.261 . S
C581 H551 0.931 . S
C581 C578 1.357 . S
C581 C582 1.312 1_554 S
C582 H553 0.930 . S
C582 C577 1.261 1_556 S
C582 C581 1.312 1_556 S
C583 O555 1.214 . S
C583 O563 1.234 . S
C584 H556 0.929 . S
C584 C587 1.391 . S
C584 C589 1.391 . S
C585 H557 0.929 . S
C585 C586 1.390 . S
C585 N588 1.391 . S
C586 H558 0.930 . S
C586 C585 1.390 . S
C586 C587 1.392 . S
C587 H559 0.929 . S
C587 C584 1.391 . S
C587 C586 1.392 . S
N588 Co532 2.257 . S
N588 C585 1.391 . S
N588 C589 1.388 . S
C589 H560 0.930 . S
C589 C584 1.391 . S
C589 N588 1.388 . S
Co590 O592 2.143 . S
Co590 O598 2.074 . S
Co590 O601 2.093 . S
Co590 O614 2.097 . S
Co590 N631 2.151 . S
Co590 N639 2.214 . S
Co591 O592 2.160 . S
Co591 O597 2.058 . S
Co591 O607 2.057 . S
Co591 O622 2.037 . S
Co591 N626 2.145 . S
Co591 N647 2.257 . S
O592 Co590 2.143 . S
O592 Co591 2.160 . S
C593 O594 1.278 . S
C593 O601 1.224 . S
O594 C593 1.278 . S
C595 O596 1.245 . S
C595 O607 1.232 . S
O596 C595 1.245 . S
O597 Co591 2.058 . S
O597 C623 1.269 . S
O598 Co590 2.074 . S
O598 C623 1.257 . S
H599 C624 0.930 . S
H600 C630 0.930 . S
O601 Co590 2.093 . S
O601 C593 1.224 . S
H602 C634 0.929 . S
H603 C636 0.930 . S
H604 C637 0.930 . S
H605 C635 0.929 . S
H606 C638 0.928 . S
O607 Co591 2.057 . S
O607 C595 1.232 . S
H608 C627 0.929 . S
H609 C628 0.929 . S
H610 C640 0.931 . S
H611 C632 0.929 . S
H612 C641 0.930 . S
H613 C633 0.931 . S
O614 Co590 2.097 . S
O614 C642 1.214 . S
H615 C643 0.929 . S
H616 C644 0.929 . S
H617 C645 0.930 . S
H618 C646 0.929 . S
H619 C648 0.930 . S
H620 C625 0.930 . S
H621 C629 0.930 . S
O622 Co591 2.037 . S
O622 C642 1.234 . S
C623 O597 1.269 . S
C623 O598 1.257 . S
C624 H599 0.930 . S
C624 C627 1.388 . S
C624 C629 1.418 . S
C625 H620 0.930 . S
C625 C628 1.404 . S
C625 C629 1.353 . S
N626 Co591 2.145 . S
N626 C627 1.397 . S
N626 C628 1.334 . S
C627 H608 0.929 . S
C627 C624 1.388 . S
C627 N626 1.397 . S
C628 H609 0.929 . S
C628 C625 1.404 . S
C628 N626 1.334 . S
C629 H621 0.930 . S
C629 C624 1.418 . S
C629 C625 1.353 . S
C630 H600 0.930 . S
C630 N631 1.330 . S
C630 C632 1.446 . S
N631 Co590 2.151 . S
N631 C630 1.330 . S
N631 C635 1.418 . S
C632 H611 0.929 . S
C632 C630 1.446 . S
C632 C633 1.332 . S
C633 H613 0.931 . S
C633 C632 1.332 . S
C633 C634 1.267 . S
C634 H602 0.929 . S
C634 C633 1.267 . S
C634 C635 1.251 . S
C635 H605 0.929 . S
C635 N631 1.418 . S
C635 C634 1.251 . S
C636 H603 0.930 . S
C636 C638 1.406 . S
C636 C641 1.261 . S
C637 H604 0.930 . S
C637 N639 1.325 . S
C637 C640 1.357 . S
C638 H606 0.928 . S
C638 C636 1.406 . S
C638 N639 1.261 . S
N639 Co590 2.214 . S
N639 C637 1.325 . S
N639 C638 1.261 . S
C640 H610 0.931 . S
C640 C637 1.357 . S
C640 C641 1.312 . S
C641 H612 0.930 . S
C641 C636 1.261 . S
C641 C640 1.312 . S
C642 O614 1.214 . S
C642 O622 1.234 . S
C643 H615 0.929 . S
C643 C646 1.391 . S
C643 C648 1.391 . S
C644 H616 0.929 . S
C644 C645 1.390 . S
C644 N647 1.391 . S
C645 H617 0.930 . S
C645 C644 1.390 . S
C645 C646 1.392 . S
C646 H618 0.929 . S
C646 C643 1.391 . S
C646 C645 1.392 . S
N647 Co591 2.257 . S
N647 C644 1.391 . S
N647 C648 1.388 . S
C648 H619 0.930 . S
C648 C643 1.391 . S
C648 N647 1.388 . S
Co649 O651 2.143 . S
Co649 O657 2.074 . S
Co649 O660 2.093 . S
Co649 O673 2.097 . S
Co649 N690 2.151 . S
Co649 N698 2.214 . S
Co650 O651 2.160 . S
Co650 O656 2.058 . S
Co650 O666 2.057 . S
Co650 O681 2.037 . S
Co650 N685 2.145 . S
Co650 N706 2.257 . S
O651 Co649 2.143 . S
O651 Co650 2.160 . S
C652 O653 1.278 . S
C652 O660 1.224 . S
O653 C652 1.278 . S
C654 O655 1.245 . S
C654 O666 1.232 . S
O655 C654 1.245 . S
O656 Co650 2.058 . S
O656 C682 1.269 . S
O657 Co649 2.074 . S
O657 C682 1.257 . S
H658 C683 0.930 . S
H659 C689 0.930 . S
O660 Co649 2.093 . S
O660 C652 1.224 . S
H661 C693 0.929 . S
H662 C695 0.930 1_556 S
H663 C696 0.930 . S
H664 C694 0.929 . S
H665 C697 0.928 . S
O666 Co650 2.057 . S
O666 C654 1.232 . S
H667 C686 0.929 . S
H668 C687 0.929 . S
H669 C699 0.931 . S
H670 C691 0.929 . S
H671 C700 0.930 . S
H672 C692 0.931 . S
O673 Co649 2.097 . S
O673 C701 1.214 . S
H674 C702 0.929 . S
H675 C703 0.929 . S
H676 C704 0.930 . S
H677 C705 0.929 . S
H678 C707 0.930 . S
H679 C684 0.930 . S
H680 C688 0.930 . S
O681 Co650 2.037 . S
O681 C701 1.234 . S
C682 O656 1.269 . S
C682 O657 1.257 . S
C683 H658 0.930 . S
C683 C686 1.388 . S
C683 C688 1.418 . S
C684 H679 0.930 . S
C684 C687 1.404 . S
C684 C688 1.353 . S
N685 Co650 2.145 . S
N685 C686 1.397 . S
N685 C687 1.334 . S
C686 H667 0.929 . S
C686 C683 1.388 . S
C686 N685 1.397 . S
C687 H668 0.929 . S
C687 C684 1.404 . S
C687 N685 1.334 . S
C688 H680 0.930 . S
C688 C683 1.418 . S
C688 C684 1.353 . S
C689 H659 0.930 . S
C689 N690 1.330 . S
C689 C691 1.446 . S
N690 Co649 2.151 . S
N690 C689 1.330 . S
N690 C694 1.418 . S
C691 H670 0.929 . S
C691 C689 1.446 . S
C691 C692 1.332 . S
C692 H672 0.931 . S
C692 C691 1.332 . S
C692 C693 1.267 . S
C693 H661 0.929 . S
C693 C692 1.267 . S
C693 C694 1.251 . S
C694 H664 0.929 . S
C694 N690 1.418 . S
C694 C693 1.251 . S
C695 H662 0.930 1_554 S
C695 C697 1.406 . S
C695 C700 1.261 1_554 S
C696 H663 0.930 . S
C696 N698 1.325 . S
C696 C699 1.357 . S
C697 H665 0.928 . S
C697 C695 1.406 . S
C697 N698 1.261 . S
N698 Co649 2.214 . S
N698 C696 1.325 . S
N698 C697 1.261 . S
C699 H669 0.931 . S
C699 C696 1.357 . S
C699 C700 1.312 1_554 S
C700 H671 0.930 . S
C700 C695 1.261 1_556 S
C700 C699 1.312 1_556 S
C701 O673 1.214 . S
C701 O681 1.234 . S
C702 H674 0.929 . S
C702 C705 1.391 . S
C702 C707 1.391 . S
C703 H675 0.929 . S
C703 C704 1.390 . S
C703 N706 1.391 . S
C704 H676 0.930 . S
C704 C703 1.390 . S
C704 C705 1.392 . S
C705 H677 0.929 . S
C705 C702 1.391 . S
C705 C704 1.392 . S
N706 Co650 2.257 . S
N706 C703 1.391 . S
N706 C707 1.388 . S
C707 H678 0.930 . S
C707 C702 1.391 . S
C707 N706 1.388 . S
Co708 O710 2.143 . S
Co708 O716 2.074 . S
Co708 O719 2.093 . S
Co708 O732 2.097 . S
Co708 N749 2.151 . S
Co708 N757 2.214 . S
Co709 O710 2.160 . S
Co709 O715 2.058 . S
Co709 O725 2.057 . S
Co709 O740 2.037 . S
Co709 N744 2.145 . S
Co709 N765 2.257 . S
O710 Co708 2.143 . S
O710 Co709 2.160 . S
C711 O712 1.278 . S
C711 O719 1.224 . S
O712 C711 1.278 . S
C713 O714 1.245 . S
C713 O725 1.232 . S
O714 C713 1.245 . S
O715 Co709 2.058 . S
O715 C741 1.269 . S
O716 Co708 2.074 . S
O716 C741 1.257 . S
H717 C742 0.930 . S
H718 C748 0.930 . S
O719 Co708 2.093 . S
O719 C711 1.224 . S
H720 C752 0.929 . S
H721 C754 0.930 . S
H722 C755 0.930 . S
H723 C753 0.929 . S
H724 C756 0.928 . S
O725 Co709 2.057 . S
O725 C713 1.232 . S
H726 C745 0.929 . S
H727 C746 0.929 . S
H728 C758 0.931 . S
H729 C750 0.929 . S
H730 C759 0.930 . S
H731 C751 0.931 . S
O732 Co708 2.097 . S
O732 C760 1.214 . S
H733 C761 0.929 . S
H734 C762 0.929 . S
H735 C763 0.930 . S
H736 C764 0.929 . S
H737 C766 0.930 . S
H738 C743 0.930 . S
H739 C747 0.930 . S
O740 Co709 2.037 . S
O740 C760 1.234 . S
C741 O715 1.269 . S
C741 O716 1.257 . S
C742 H717 0.930 . S
C742 C745 1.388 . S
C742 C747 1.418 1_556 S
C743 H738 0.930 . S
C743 C746 1.404 1_554 S
C743 C747 1.353 . S
N744 Co709 2.145 . S
N744 C745 1.397 . S
N744 C746 1.334 . S
C745 H726 0.929 . S
C745 C742 1.388 . S
C745 N744 1.397 . S
C746 H727 0.929 . S
C746 C743 1.404 1_556 S
C746 N744 1.334 . S
C747 H739 0.930 . S
C747 C742 1.418 1_554 S
C747 C743 1.353 . S
C748 H718 0.930 . S
C748 N749 1.330 . S
C748 C750 1.446 . S
N749 Co708 2.151 . S
N749 C748 1.330 . S
N749 C753 1.418 . S
C750 H729 0.929 . S
C750 C748 1.446 . S
C750 C751 1.332 . S
C751 H731 0.931 . S
C751 C750 1.332 . S
C751 C752 1.267 . S
C752 H720 0.929 . S
C752 C751 1.267 . S
C752 C753 1.251 . S
C753 H723 0.929 . S
C753 N749 1.418 . S
C753 C752 1.251 . S
C754 H721 0.930 . S
C754 C756 1.406 . S
C754 C759 1.261 . S
C755 H722 0.930 . S
C755 N757 1.325 . S
C755 C758 1.357 . S
C756 H724 0.928 . S
C756 C754 1.406 . S
C756 N757 1.261 . S
N757 Co708 2.214 . S
N757 C755 1.325 . S
N757 C756 1.261 . S
C758 H728 0.931 . S
C758 C755 1.357 . S
C758 C759 1.312 . S
C759 H730 0.930 . S
C759 C754 1.261 . S
C759 C758 1.312 . S
C760 O732 1.214 . S
C760 O740 1.234 . S
C761 H733 0.929 . S
C761 C764 1.391 . S
C761 C766 1.391 . S
C762 H734 0.929 . S
C762 C763 1.390 . S
C762 N765 1.391 . S
C763 H735 0.930 . S
C763 C762 1.390 . S
C763 C764 1.392 . S
C764 H736 0.929 . S
C764 C761 1.391 . S
C764 C763 1.392 . S
N765 Co709 2.257 . S
N765 C762 1.391 . S
N765 C766 1.388 . S
C766 H737 0.930 . S
C766 C761 1.391 . S
C766 N765 1.388 . S
Co767 O769 2.143 . S
Co767 O775 2.074 . S
Co767 O778 2.093 . S
Co767 O791 2.097 . S
Co767 N808 2.151 . S
Co767 N816 2.214 . S
Co768 O769 2.160 . S
Co768 O774 2.058 . S
Co768 O784 2.057 . S
Co768 O799 2.037 . S
Co768 N803 2.145 . S
Co768 N824 2.257 . S
O769 Co767 2.143 . S
O769 Co768 2.160 . S
C770 O771 1.278 . S
C770 O778 1.224 . S
O771 C770 1.278 . S
C772 O773 1.245 . S
C772 O784 1.232 . S
O773 C772 1.245 . S
O774 Co768 2.058 . S
O774 C800 1.269 . S
O775 Co767 2.074 . S
O775 C800 1.257 . S
H776 C801 0.930 . S
H777 C807 0.930 . S
O778 Co767 2.093 . S
O778 C770 1.224 . S
H779 C811 0.929 . S
H780 C813 0.930 . S
H781 C814 0.930 . S
H782 C812 0.929 . S
H783 C815 0.928 . S
O784 Co768 2.057 . S
O784 C772 1.232 . S
H785 C804 0.929 . S
H786 C805 0.929 . S
H787 C817 0.931 . S
H788 C809 0.929 . S
H789 C818 0.930 . S
H790 C810 0.931 . S
O791 Co767 2.097 . S
O791 C819 1.214 . S
H792 C820 0.929 . S
H793 C821 0.929 . S
H794 C822 0.930 . S
H795 C823 0.929 . S
H796 C825 0.930 . S
H797 C802 0.930 . S
H798 C806 0.930 . S
O799 Co768 2.037 . S
O799 C819 1.234 . S
C800 O774 1.269 . S
C800 O775 1.257 . S
C801 H776 0.930 . S
C801 C804 1.388 . S
C801 C806 1.418 . S
C802 H797 0.930 . S
C802 C805 1.404 . S
C802 C806 1.353 . S
N803 Co768 2.145 . S
N803 C804 1.397 . S
N803 C805 1.334 . S
C804 H785 0.929 . S
C804 C801 1.388 . S
C804 N803 1.397 . S
C805 H786 0.929 . S
C805 C802 1.404 . S
C805 N803 1.334 . S
C806 H798 0.930 . S
C806 C801 1.418 . S
C806 C802 1.353 . S
C807 H777 0.930 . S
C807 N808 1.330 . S
C807 C809 1.446 . S
N808 Co767 2.151 . S
N808 C807 1.330 . S
N808 C812 1.418 . S
C809 H788 0.929 . S
C809 C807 1.446 . S
C809 C810 1.332 . S
C810 H790 0.931 . S
C810 C809 1.332 . S
C810 C811 1.267 . S
C811 H779 0.929 . S
C811 C810 1.267 . S
C811 C812 1.251 . S
C812 H782 0.929 . S
C812 N808 1.418 . S
C812 C811 1.251 . S
C813 H780 0.930 . S
C813 C815 1.406 . S
C813 C818 1.261 . S
C814 H781 0.930 . S
C814 N816 1.325 . S
C814 C817 1.357 . S
C815 H783 0.928 . S
C815 C813 1.406 . S
C815 N816 1.261 . S
N816 Co767 2.214 . S
N816 C814 1.325 . S
N816 C815 1.261 . S
C817 H787 0.931 . S
C817 C814 1.357 . S
C817 C818 1.312 . S
C818 H789 0.930 . S
C818 C813 1.261 . S
C818 C817 1.312 . S
C819 O791 1.214 . S
C819 O799 1.234 . S
C820 H792 0.929 . S
C820 C823 1.391 . S
C820 C825 1.391 . S
C821 H793 0.929 . S
C821 C822 1.390 . S
C821 N824 1.391 . S
C822 H794 0.930 . S
C822 C821 1.390 . S
C822 C823 1.392 . S
C823 H795 0.929 . S
C823 C820 1.391 . S
C823 C822 1.392 . S
N824 Co768 2.257 . S
N824 C821 1.391 . S
N824 C825 1.388 . S
C825 H796 0.930 . S
C825 C820 1.391 . S
C825 N824 1.388 . S
Co826 O828 2.143 . S
Co826 O834 2.074 . S
Co826 O837 2.093 . S
Co826 O850 2.097 . S
Co826 N867 2.151 . S
Co826 N875 2.214 . S
Co827 O828 2.160 . S
Co827 O833 2.058 . S
Co827 O843 2.057 . S
Co827 O858 2.037 . S
Co827 N862 2.145 . S
Co827 N883 2.257 . S
O828 Co826 2.143 . S
O828 Co827 2.160 . S
C829 O830 1.278 . S
C829 O837 1.224 . S
O830 C829 1.278 . S
C831 O832 1.245 . S
C831 O843 1.232 . S
O832 C831 1.245 . S
O833 Co827 2.058 . S
O833 C859 1.269 . S
O834 Co826 2.074 . S
O834 C859 1.257 . S
H835 C860 0.930 . S
H836 C866 0.930 . S
O837 Co826 2.093 . S
O837 C829 1.224 . S
H838 C870 0.929 . S
H839 C872 0.930 . S
H840 C873 0.930 . S
H841 C871 0.929 . S
H842 C874 0.928 . S
O843 Co827 2.057 . S
O843 C831 1.232 . S
H844 C863 0.929 . S
H845 C864 0.929 . S
H846 C876 0.931 . S
H847 C868 0.929 . S
H848 C877 0.930 . S
H849 C869 0.931 . S
O850 Co826 2.097 . S
O850 C878 1.214 . S
H851 C879 0.929 . S
H852 C880 0.929 . S
H853 C881 0.930 . S
H854 C882 0.929 . S
H855 C884 0.930 . S
H856 C861 0.930 . S
H857 C865 0.930 . S
O858 Co827 2.037 . S
O858 C878 1.234 . S
C859 O833 1.269 . S
C859 O834 1.257 . S
C860 H835 0.930 . S
C860 C863 1.388 . S
C860 C865 1.418 1_556 S
C861 H856 0.930 . S
C861 C864 1.404 1_554 S
C861 C865 1.353 . S
N862 Co827 2.145 . S
N862 C863 1.397 . S
N862 C864 1.334 . S
C863 H844 0.929 . S
C863 C860 1.388 . S
C863 N862 1.397 . S
C864 H845 0.929 . S
C864 C861 1.404 1_556 S
C864 N862 1.334 . S
C865 H857 0.930 . S
C865 C860 1.418 1_554 S
C865 C861 1.353 . S
C866 H836 0.930 . S
C866 N867 1.330 . S
C866 C868 1.446 . S
N867 Co826 2.151 . S
N867 C866 1.330 . S
N867 C871 1.418 . S
C868 H847 0.929 . S
C868 C866 1.446 . S
C868 C869 1.332 . S
C869 H849 0.931 . S
C869 C868 1.332 . S
C869 C870 1.267 . S
C870 H838 0.929 . S
C870 C869 1.267 . S
C870 C871 1.251 . S
C871 H841 0.929 . S
C871 N867 1.418 . S
C871 C870 1.251 . S
C872 H839 0.930 . S
C872 C874 1.406 . S
C872 C877 1.261 . S
C873 H840 0.930 . S
C873 N875 1.325 . S
C873 C876 1.357 . S
C874 H842 0.928 . S
C874 C872 1.406 . S
C874 N875 1.261 . S
N875 Co826 2.214 . S
N875 C873 1.325 . S
N875 C874 1.261 . S
C876 H846 0.931 . S
C876 C873 1.357 . S
C876 C877 1.312 . S
C877 H848 0.930 . S
C877 C872 1.261 . S
C877 C876 1.312 . S
C878 O850 1.214 . S
C878 O858 1.234 . S
C879 H851 0.929 . S
C879 C882 1.391 . S
C879 C884 1.391 . S
C880 H852 0.929 . S
C880 C881 1.390 . S
C880 N883 1.391 . S
C881 H853 0.930 . S
C881 C880 1.390 . S
C881 C882 1.392 . S
C882 H854 0.929 . S
C882 C879 1.391 . S
C882 C881 1.392 . S
N883 Co827 2.257 . S
N883 C880 1.391 . S
N883 C884 1.388 . S
C884 H855 0.930 . S
C884 C879 1.391 . S
C884 N883 1.388 . S
Co885 O887 2.143 . S
Co885 O893 2.074 . S
Co885 O896 2.093 . S
Co885 O909 2.097 . S
Co885 N926 2.151 . S
Co885 N934 2.214 . S
Co886 O887 2.160 . S
Co886 O892 2.058 . S
Co886 O902 2.057 . S
Co886 O917 2.037 . S
Co886 N921 2.145 . S
Co886 N942 2.257 . S
O887 Co885 2.143 . S
O887 Co886 2.160 . S
C888 O889 1.278 . S
C888 O896 1.224 . S
O889 C888 1.278 . S
C890 O891 1.245 . S
C890 O902 1.232 . S
O891 C890 1.245 . S
O892 Co886 2.058 . S
O892 C918 1.269 . S
O893 Co885 2.074 . S
O893 C918 1.257 . S
H894 C919 0.930 . S
H895 C925 0.930 . S
O896 Co885 2.093 . S
O896 C888 1.224 . S
H897 C929 0.929 . S
H898 C931 0.930 . S
H899 C932 0.930 . S
H900 C930 0.929 . S
H901 C933 0.928 . S
O902 Co886 2.057 . S
O902 C890 1.232 . S
H903 C922 0.929 . S
H904 C923 0.929 . S
H905 C935 0.931 . S
H906 C927 0.929 . S
H907 C936 0.930 . S
H908 C928 0.931 . S
O909 Co885 2.097 . S
O909 C937 1.214 . S
H910 C938 0.929 . S
H911 C939 0.929 . S
H912 C940 0.930 . S
H913 C941 0.929 . S
H914 C943 0.930 . S
H915 C920 0.930 . S
H916 C924 0.930 . S
O917 Co886 2.037 . S
O917 C937 1.234 . S
C918 O892 1.269 . S
C918 O893 1.257 . S
C919 H894 0.930 . S
C919 C922 1.388 . S
C919 C924 1.418 . S
C920 H915 0.930 . S
C920 C923 1.404 . S
C920 C924 1.353 . S
N921 Co886 2.145 . S
N921 C922 1.397 . S
N921 C923 1.334 . S
C922 H903 0.929 . S
C922 C919 1.388 . S
C922 N921 1.397 . S
C923 H904 0.929 . S
C923 C920 1.404 . S
C923 N921 1.334 . S
C924 H916 0.930 . S
C924 C919 1.418 . S
C924 C920 1.353 . S
C925 H895 0.930 . S
C925 N926 1.330 . S
C925 C927 1.446 . S
N926 Co885 2.151 . S
N926 C925 1.330 . S
N926 C930 1.418 . S
C927 H906 0.929 . S
C927 C925 1.446 . S
C927 C928 1.332 . S
C928 H908 0.931 . S
C928 C927 1.332 . S
C928 C929 1.267 . S
C929 H897 0.929 . S
C929 C928 1.267 . S
C929 C930 1.251 . S
C930 H900 0.929 . S
C930 N926 1.418 . S
C930 C929 1.251 . S
C931 H898 0.930 . S
C931 C933 1.406 . S
C931 C936 1.261 . S
C932 H899 0.930 . S
C932 N934 1.325 . S
C932 C935 1.357 . S
C933 H901 0.928 . S
C933 C931 1.406 . S
C933 N934 1.261 . S
N934 Co885 2.214 . S
N934 C932 1.325 . S
N934 C933 1.261 . S
C935 H905 0.931 . S
C935 C932 1.357 . S
C935 C936 1.312 . S
C936 H907 0.930 . S
C936 C931 1.261 . S
C936 C935 1.312 . S
C937 O909 1.214 . S
C937 O917 1.234 . S
C938 H910 0.929 . S
C938 C941 1.391 . S
C938 C943 1.391 . S
C939 H911 0.929 . S
C939 C940 1.390 . S
C939 N942 1.391 . S
C940 H912 0.930 . S
C940 C939 1.390 . S
C940 C941 1.392 . S
C941 H913 0.929 . S
C941 C938 1.391 . S
C941 C940 1.392 . S
N942 Co886 2.257 . S
N942 C939 1.391 . S
N942 C943 1.388 . S
C943 H914 0.930 . S
C943 C938 1.391 . S
C943 N942 1.388 . S
H944 C950 0.930 . S
H945 C954 0.930 . S
H946 C959 0.929 . S
H947 C957 0.929 . S
H948 C952 0.929 . S
H949 C958 0.929 . S
C950 H944 0.930 . S
C950 C951 1.367 . S
C950 C958 1.378 . S
C951 C950 1.367 . S
C951 C959 1.433 . S
C952 H948 0.929 . S
C952 C954 1.378 . S
C952 C956 1.350 . S
C953 C956 1.463 1_565 S
C953 C958 1.350 . S
C953 N961 1.427 . S
C954 H945 0.930 . S
C954 C952 1.378 . S
C954 C955 1.367 . S
C955 C954 1.367 . S
C955 C957 1.433 . S
C956 C952 1.350 . S
C956 C953 1.463 1_545 S
C956 N960 1.427 . S
C957 H947 0.929 . S
C957 C955 1.433 . S
C957 N960 1.384 . S
C958 H949 0.929 . S
C958 C950 1.378 . S
C958 C953 1.350 . S
C959 H946 0.929 . S
C959 C951 1.433 . S
C959 N961 1.384 . S
N960 C956 1.427 . S
N960 C957 1.384 . S
N961 C953 1.427 . S
N961 C959 1.384 . S
H962 C968 0.930 . S
H963 C972 0.930 . S
H964 C977 0.929 . S
H965 C975 0.929 . S
H966 C970 0.929 . S
H967 C976 0.929 . S
C968 H962 0.930 . S
C968 C969 1.367 . S
C968 C976 1.378 . S
C969 C968 1.367 . S
C969 C977 1.433 . S
C970 H966 0.929 . S
C970 C972 1.378 . S
C970 C974 1.350 . S
C971 C974 1.463 1_455 S
C971 C976 1.350 . S
C971 N979 1.427 . S
C972 H963 0.930 . S
C972 C970 1.378 . S
C972 C973 1.367 . S
C973 C972 1.367 . S
C973 C975 1.433 . S
C974 C970 1.350 . S
C974 C971 1.463 1_655 S
C974 N978 1.427 . S
C975 H965 0.929 . S
C975 C973 1.433 . S
C975 N978 1.384 . S
C976 H967 0.929 . S
C976 C968 1.378 . S
C976 C971 1.350 . S
C977 H964 0.929 . S
C977 C969 1.433 . S
C977 N979 1.384 . S
N978 C974 1.427 . S
N978 C975 1.384 . S
N979 C971 1.427 . S
N979 C977 1.384 . S
H980 C986 0.930 . S
H981 C990 0.930 . S
H982 C995 0.929 . S
H983 C993 0.929 . S
H984 C988 0.929 . S
H985 C994 0.929 . S
C986 H980 0.930 . S
C986 C987 1.367 . S
C986 C994 1.378 . S
C987 C986 1.367 . S
C987 C995 1.433 . S
C988 H984 0.929 . S
C988 C990 1.378 . S
C988 C992 1.350 . S
C989 C992 1.463 1_565 S
C989 C994 1.350 . S
C989 N997 1.427 . S
C990 H981 0.930 . S
C990 C988 1.378 . S
C990 C991 1.367 . S
C991 C990 1.367 . S
C991 C993 1.433 . S
C992 C988 1.350 . S
C992 C989 1.463 1_545 S
C992 N996 1.427 . S
C993 H983 0.929 . S
C993 C991 1.433 . S
C993 N996 1.384 . S
C994 H985 0.929 . S
C994 C986 1.378 . S
C994 C989 1.350 . S
C995 H982 0.929 . S
C995 C987 1.433 . S
C995 N997 1.384 . S
N996 C992 1.427 . S
N996 C993 1.384 . S
N997 C989 1.427 . S
N997 C995 1.384 . S
H998 C1004 0.930 . S
H999 C1008 0.930 . S
H1000 C1013 0.929 . S
H1001 C1011 0.929 . S
H1002 C1006 0.929 . S
H1003 C1012 0.929 . S
C1004 H998 0.930 . S
C1004 C1005 1.367 . S
C1004 C1012 1.378 . S
C1005 C1004 1.367 . S
C1005 C1013 1.433 . S
C1006 H1002 0.929 . S
C1006 C1008 1.378 . S
C1006 C1010 1.350 . S
C1007 C1010 1.463 1_455 S
C1007 C1012 1.350 . S
C1007 N1015 1.427 . S
C1008 H999 0.930 . S
C1008 C1006 1.378 . S
C1008 C1009 1.367 . S
C1009 C1008 1.367 . S
C1009 C1011 1.433 . S
C1010 C1006 1.350 . S
C1010 C1007 1.463 1_655 S
C1010 N1014 1.427 . S
C1011 H1001 0.929 . S
C1011 C1009 1.433 . S
C1011 N1014 1.384 . S
C1012 H1003 0.929 . S
C1012 C1004 1.378 . S
C1012 C1007 1.350 . S
C1013 H1000 0.929 . S
C1013 C1005 1.433 . S
C1013 N1015 1.384 . S
N1014 C1010 1.427 . S
N1014 C1011 1.384 . S
N1015 C1007 1.427 . S
N1015 C1013 1.384 . S
H1016 C1022 0.930 . S
H1017 C1026 0.930 1_554 S
H1018 C1031 0.929 . S
H1019 C1029 0.929 . S
H1020 C1024 0.929 . S
H1021 C1030 0.929 . S
C1022 H1016 0.930 . S
C1022 C1023 1.367 1_556 S
C1022 C1030 1.378 . S
C1023 C1022 1.367 1_554 S
C1023 C1031 1.433 . S
C1024 H1020 0.929 . S
C1024 C1026 1.378 1_554 S
C1024 C1028 1.350 1_554 S
C1025 C1028 1.463 1_554 S
C1025 C1030 1.350 1_554 S
C1025 N1033 1.427 . S
C1026 H1017 0.930 1_556 S
C1026 C1024 1.378 1_556 S
C1026 C1027 1.367 . S
C1027 C1026 1.367 . S
C1027 C1029 1.433 . S
C1028 C1024 1.350 1_556 S
C1028 C1025 1.463 1_556 S
C1028 N1032 1.427 . S
C1029 H1019 0.929 . S
C1029 C1027 1.433 . S
C1029 N1032 1.384 . S
C1030 H1021 0.929 . S
C1030 C1022 1.378 . S
C1030 C1025 1.350 1_556 S
C1031 H1018 0.929 . S
C1031 C1023 1.433 . S
C1031 N1033 1.384 . S
N1032 C1028 1.427 . S
N1032 C1029 1.384 . S
N1033 C1025 1.427 . S
N1033 C1031 1.384 . S
H1034 C1040 0.930 . S
H1035 C1044 0.930 . S
H1036 C1049 0.929 . S
H1037 C1047 0.929 . S
H1038 C1042 0.929 . S
H1039 C1048 0.929 . S
C1040 H1034 0.930 . S
C1040 C1041 1.367 . S
C1040 C1048 1.378 . S
C1041 C1040 1.367 . S
C1041 C1049 1.433 1_556 S
C1042 H1038 0.929 . S
C1042 C1044 1.378 . S
C1042 C1046 1.350 . S
C1043 C1046 1.463 . S
C1043 C1048 1.350 1_554 S
C1043 N1051 1.427 . S
C1044 H1035 0.930 . S
C1044 C1042 1.378 . S
C1044 C1045 1.367 . S
C1045 C1044 1.367 . S
C1045 C1047 1.433 . S
C1046 C1042 1.350 . S
C1046 C1043 1.463 . S
C1046 N1050 1.427 . S
C1047 H1037 0.929 . S
C1047 C1045 1.433 . S
C1047 N1050 1.384 . S
C1048 H1039 0.929 . S
C1048 C1040 1.378 . S
C1048 C1043 1.350 1_556 S
C1049 H1036 0.929 . S
C1049 C1041 1.433 1_554 S
C1049 N1051 1.384 . S
N1050 C1046 1.427 . S
N1050 C1047 1.384 . S
N1051 C1043 1.427 . S
N1051 C1049 1.384 . S
H1052 C1058 0.930 . S
H1053 C1062 0.930 . S
H1054 C1067 0.929 1_554 S
H1055 C1065 0.929 . S
H1056 C1060 0.929 . S
H1057 C1066 0.929 . S
C1058 H1052 0.930 . S
C1058 C1059 1.367 . S
C1058 C1066 1.378 . S
C1059 C1058 1.367 . S
C1059 C1067 1.433 . S
C1060 H1056 0.929 . S
C1060 C1062 1.378 . S
C1060 C1064 1.350 . S
C1061 C1064 1.463 1_556 S
C1061 C1066 1.350 . S
C1061 N1069 1.427 1_556 S
C1062 H1053 0.930 . S
C1062 C1060 1.378 . S
C1062 C1063 1.367 . S
C1063 C1062 1.367 . S
C1063 C1065 1.433 1_554 S
C1064 C1060 1.350 . S
C1064 C1061 1.463 1_554 S
C1064 N1068 1.427 1_554 S
C1065 H1055 0.929 . S
C1065 C1063 1.433 1_556 S
C1065 N1068 1.384 . S
C1066 H1057 0.929 . S
C1066 C1058 1.378 . S
C1066 C1061 1.350 . S
C1067 H1054 0.929 1_556 S
C1067 C1059 1.433 . S
C1067 N1069 1.384 1_556 S
N1068 C1064 1.427 1_556 S
N1068 C1065 1.384 . S
N1069 C1061 1.427 1_554 S
N1069 C1067 1.384 1_554 S
H1070 C1076 0.930 . S
H1071 C1080 0.930 . S
H1072 C1085 0.929 . S
H1073 C1083 0.929 . S
H1074 C1078 0.929 . S
H1075 C1084 0.929 . S
C1076 H1070 0.930 . S
C1076 C1077 1.367 . S
C1076 C1084 1.378 . S
C1077 C1076 1.367 . S
C1077 C1085 1.433 . S
C1078 H1074 0.929 . S
C1078 C1080 1.378 . S
C1078 C1082 1.350 . S
C1079 C1082 1.463 . S
C1079 C1084 1.350 . S
C1079 N1087 1.427 . S
C1080 H1071 0.930 . S
C1080 C1078 1.378 . S
C1080 C1081 1.367 1_554 S
C1081 C1080 1.367 1_556 S
C1081 C1083 1.433 . S
C1082 C1078 1.350 . S
C1082 C1079 1.463 . S
C1082 N1086 1.427 . S
C1083 H1073 0.929 . S
C1083 C1081 1.433 . S
C1083 N1086 1.384 1_556 S
C1084 H1075 0.929 . S
C1084 C1076 1.378 . S
C1084 C1079 1.350 . S
C1085 H1072 0.929 . S
C1085 C1077 1.433 . S
C1085 N1087 1.384 . S
N1086 C1082 1.427 . S
N1086 C1083 1.384 1_554 S
N1087 C1079 1.427 . S
N1087 C1085 1.384 . S
H1088 C1094 0.930 . S
H1089 C1098 0.930 . S
H1090 C1103 0.929 . S
H1091 C1101 0.929 . S
H1092 C1096 0.929 . S
H1093 C1102 0.929 . S
C1094 H1088 0.930 . S
C1094 C1095 1.367 . S
C1094 C1102 1.378 . S
C1095 C1094 1.367 . S
C1095 C1103 1.433 . S
C1096 H1092 0.929 . S
C1096 C1098 1.378 . S
C1096 C1100 1.350 . S
C1097 C1100 1.463 . S
C1097 C1102 1.350 . S
C1097 N1105 1.427 . S
C1098 H1089 0.930 . S
C1098 C1096 1.378 . S
C1098 C1099 1.367 . S
C1099 C1098 1.367 . S
C1099 C1101 1.433 . S
C1100 C1096 1.350 . S
C1100 C1097 1.463 . S
C1100 N1104 1.427 . S
C1101 H1091 0.929 . S
C1101 C1099 1.433 . S
C1101 N1104 1.384 . S
C1102 H1093 0.929 . S
C1102 C1094 1.378 . S
C1102 C1097 1.350 . S
C1103 H1090 0.929 . S
C1103 C1095 1.433 . S
C1103 N1105 1.384 . S
N1104 C1100 1.427 . S
N1104 C1101 1.384 . S
N1105 C1097 1.427 . S
N1105 C1103 1.384 . S
H1106 C1112 0.930 . S
H1107 C1116 0.930 . S
H1108 C1121 0.929 . S
H1109 C1119 0.929 . S
H1110 C1114 0.929 . S
H1111 C1120 0.929 . S
C1112 H1106 0.930 . S
C1112 C1113 1.367 . S
C1112 C1120 1.378 . S
C1113 C1112 1.367 . S
C1113 C1121 1.433 . S
C1114 H1110 0.929 . S
C1114 C1116 1.378 . S
C1114 C1118 1.350 . S
C1115 C1118 1.463 . S
C1115 C1120 1.350 . S
C1115 N1123 1.427 . S
C1116 H1107 0.930 . S
C1116 C1114 1.378 . S
C1116 C1117 1.367 . S
C1117 C1116 1.367 . S
C1117 C1119 1.433 . S
C1118 C1114 1.350 . S
C1118 C1115 1.463 . S
C1118 N1122 1.427 . S
C1119 H1109 0.929 . S
C1119 C1117 1.433 . S
C1119 N1122 1.384 . S
C1120 H1111 0.929 . S
C1120 C1112 1.378 . S
C1120 C1115 1.350 . S
C1121 H1108 0.929 . S
C1121 C1113 1.433 . S
C1121 N1123 1.384 . S
N1122 C1118 1.427 . S
N1122 C1119 1.384 . S
N1123 C1115 1.427 . S
N1123 C1121 1.384 . S
H1124 C1130 0.930 . S
H1125 C1134 0.930 . S
H1126 C1139 0.929 . S
H1127 C1137 0.929 . S
H1128 C1132 0.929 . S
H1129 C1138 0.929 . S
C1130 H1124 0.930 . S
C1130 C1131 1.367 . S
C1130 C1138 1.378 . S
C1131 C1130 1.367 . S
C1131 C1139 1.433 . S
C1132 H1128 0.929 . S
C1132 C1134 1.378 . S
C1132 C1136 1.350 . S
C1133 C1136 1.463 . S
C1133 C1138 1.350 . S
C1133 N1141 1.427 . S
C1134 H1125 0.930 . S
C1134 C1132 1.378 . S
C1134 C1135 1.367 . S
C1135 C1134 1.367 . S
C1135 C1137 1.433 . S
C1136 C1132 1.350 . S
C1136 C1133 1.463 . S
C1136 N1140 1.427 . S
C1137 H1127 0.929 . S
C1137 C1135 1.433 . S
C1137 N1140 1.384 . S
C1138 H1129 0.929 . S
C1138 C1130 1.378 . S
C1138 C1133 1.350 . S
C1139 H1126 0.929 . S
C1139 C1131 1.433 . S
C1139 N1141 1.384 . S
N1140 C1136 1.427 . S
N1140 C1137 1.384 . S
N1141 C1133 1.427 . S
N1141 C1139 1.384 . S
H1142 C1148 0.930 . S
H1143 C1152 0.930 1_556 S
H1144 C1157 0.929 . S
H1145 C1155 0.929 . S
H1146 C1150 0.929 . S
H1147 C1156 0.929 . S
C1148 H1142 0.930 . S
C1148 C1149 1.367 . S
C1148 C1156 1.378 . S
C1149 C1148 1.367 . S
C1149 C1157 1.433 . S
C1150 H1146 0.929 . S
C1150 C1152 1.378 . S
C1150 C1154 1.350 . S
C1151 C1154 1.463 . S
C1151 C1156 1.350 . S
C1151 N1159 1.427 . S
C1152 H1143 0.930 1_554 S
C1152 C1150 1.378 . S
C1152 C1153 1.367 . S
C1153 C1152 1.367 . S
C1153 C1155 1.433 . S
C1154 C1150 1.350 . S
C1154 C1151 1.463 . S
C1154 N1158 1.427 . S
C1155 H1145 0.929 . S
C1155 C1153 1.433 . S
C1155 N1158 1.384 . S
C1156 H1147 0.929 . S
C1156 C1148 1.378 . S
C1156 C1151 1.350 . S
C1157 H1144 0.929 . S
C1157 C1149 1.433 . S
C1157 N1159 1.384 . S
N1158 C1154 1.427 . S
N1158 C1155 1.384 . S
N1159 C1151 1.427 . S
N1159 C1157 1.384 . S
H1160 C1166 0.930 . S
H1161 C1170 0.930 . S
H1162 C1175 0.929 . S
H1163 C1173 0.929 . S
H1164 C1168 0.929 . S
H1165 C1174 0.929 . S
C1166 H1160 0.930 . S
C1166 C1167 1.367 . S
C1166 C1174 1.378 . S
C1167 C1166 1.367 . S
C1167 C1175 1.433 . S
C1168 H1164 0.929 . S
C1168 C1170 1.378 . S
C1168 C1172 1.350 . S
C1169 C1172 1.463 1_565 S
C1169 C1174 1.350 . S
C1169 N1177 1.427 . S
C1170 H1161 0.930 . S
C1170 C1168 1.378 . S
C1170 C1171 1.367 . S
C1171 C1170 1.367 . S
C1171 C1173 1.433 . S
C1172 C1168 1.350 . S
C1172 C1169 1.463 1_545 S
C1172 N1176 1.427 . S
C1173 H1163 0.929 . S
C1173 C1171 1.433 . S
C1173 N1176 1.384 . S
C1174 H1165 0.929 . S
C1174 C1166 1.378 . S
C1174 C1169 1.350 . S
C1175 H1162 0.929 . S
C1175 C1167 1.433 . S
C1175 N1177 1.384 . S
N1176 C1172 1.427 . S
N1176 C1173 1.384 . S
N1177 C1169 1.427 . S
N1177 C1175 1.384 . S
H1178 C1184 0.930 . S
H1179 C1188 0.930 . S
H1180 C1193 0.929 . S
H1181 C1191 0.929 . S
H1182 C1186 0.929 . S
H1183 C1192 0.929 . S
C1184 H1178 0.930 . S
C1184 C1185 1.367 . S
C1184 C1192 1.378 . S
C1185 C1184 1.367 . S
C1185 C1193 1.433 . S
C1186 H1182 0.929 . S
C1186 C1188 1.378 . S
C1186 C1190 1.350 . S
C1187 C1190 1.463 1_655 S
C1187 C1192 1.350 . S
C1187 N1195 1.427 . S
C1188 H1179 0.930 . S
C1188 C1186 1.378 . S
C1188 C1189 1.367 . S
C1189 C1188 1.367 . S
C1189 C1191 1.433 . S
C1190 C1186 1.350 . S
C1190 C1187 1.463 1_455 S
C1190 N1194 1.427 . S
C1191 H1181 0.929 . S
C1191 C1189 1.433 . S
C1191 N1194 1.384 . S
C1192 H1183 0.929 . S
C1192 C1184 1.378 . S
C1192 C1187 1.350 . S
C1193 H1180 0.929 . S
C1193 C1185 1.433 . S
C1193 N1195 1.384 . S
N1194 C1190 1.427 . S
N1194 C1191 1.384 . S
N1195 C1187 1.427 . S
N1195 C1193 1.384 . S
H1196 C1202 0.930 . S
H1197 C1206 0.930 . S
H1198 C1211 0.929 . S
H1199 C1209 0.929 . S
H1200 C1204 0.929 . S
H1201 C1210 0.929 . S
C1202 H1196 0.930 . S
C1202 C1203 1.367 . S
C1202 C1210 1.378 . S
C1203 C1202 1.367 . S
C1203 C1211 1.433 . S
C1204 H1200 0.929 . S
C1204 C1206 1.378 . S
C1204 C1208 1.350 . S
C1205 C1208 1.463 1_565 S
C1205 C1210 1.350 . S
C1205 N1213 1.427 . S
C1206 H1197 0.930 . S
C1206 C1204 1.378 . S
C1206 C1207 1.367 . S
C1207 C1206 1.367 . S
C1207 C1209 1.433 . S
C1208 C1204 1.350 . S
C1208 C1205 1.463 1_545 S
C1208 N1212 1.427 . S
C1209 H1199 0.929 . S
C1209 C1207 1.433 . S
C1209 N1212 1.384 . S
C1210 H1201 0.929 . S
C1210 C1202 1.378 . S
C1210 C1205 1.350 . S
C1211 H1198 0.929 . S
C1211 C1203 1.433 . S
C1211 N1213 1.384 . S
N1212 C1208 1.427 . S
N1212 C1209 1.384 . S
N1213 C1205 1.427 . S
N1213 C1211 1.384 . S
H1214 C1220 0.930 . S
H1215 C1224 0.930 . S
H1216 C1229 0.929 . S
H1217 C1227 0.929 . S
H1218 C1222 0.929 . S
H1219 C1228 0.929 . S
C1220 H1214 0.930 . S
C1220 C1221 1.367 . S
C1220 C1228 1.378 . S
C1221 C1220 1.367 . S
C1221 C1229 1.433 . S
C1222 H1218 0.929 . S
C1222 C1224 1.378 . S
C1222 C1226 1.350 . S
C1223 C1226 1.463 1_655 S
C1223 C1228 1.350 . S
C1223 N1231 1.427 . S
C1224 H1215 0.930 . S
C1224 C1222 1.378 . S
C1224 C1225 1.367 . S
C1225 C1224 1.367 . S
C1225 C1227 1.433 . S
C1226 C1222 1.350 . S
C1226 C1223 1.463 1_455 S
C1226 N1230 1.427 . S
C1227 H1217 0.929 . S
C1227 C1225 1.433 . S
C1227 N1230 1.384 . S
C1228 H1219 0.929 . S
C1228 C1220 1.378 . S
C1228 C1223 1.350 . S
C1229 H1216 0.929 . S
C1229 C1221 1.433 . S
C1229 N1231 1.384 . S
N1230 C1226 1.427 . S
N1230 C1227 1.384 . S
N1231 C1223 1.427 . S
N1231 C1229 1.384 . S
H1232 C1238 0.930 . S
H1233 C1242 0.930 . S
H1234 C1247 0.929 . S
H1235 C1245 0.929 . S
H1236 C1240 0.929 . S
H1237 C1246 0.929 . S
C1238 H1232 0.930 . S
C1238 C1239 1.367 . S
C1238 C1246 1.378 . S
C1239 C1238 1.367 . S
C1239 C1247 1.433 . S
C1240 H1236 0.929 . S
C1240 C1242 1.378 . S
C1240 C1244 1.350 . S
C1241 C1244 1.463 . S
C1241 C1246 1.350 . S
C1241 N1249 1.427 . S
C1242 H1233 0.930 . S
C1242 C1240 1.378 . S
C1242 C1243 1.367 . S
C1243 C1242 1.367 . S
C1243 C1245 1.433 . S
C1244 C1240 1.350 . S
C1244 C1241 1.463 . S
C1244 N1248 1.427 . S
C1245 H1235 0.929 . S
C1245 C1243 1.433 . S
C1245 N1248 1.384 . S
C1246 H1237 0.929 . S
C1246 C1238 1.378 . S
C1246 C1241 1.350 . S
C1247 H1234 0.929 . S
C1247 C1239 1.433 . S
C1247 N1249 1.384 . S
N1248 C1244 1.427 . S
N1248 C1245 1.384 . S
N1249 C1241 1.427 . S
N1249 C1247 1.384 . S
H1250 C1256 0.930 . S
H1251 C1260 0.930 . S
H1252 C1265 0.929 . S
H1253 C1263 0.935 . S
H1254 C1258 0.929 . S
H1255 C1264 0.929 . S
C1256 H1250 0.930 . S
C1256 C1257 1.367 . S
C1256 C1264 1.378 . S
C1257 C1256 1.367 . S
C1257 C1265 1.433 . S
C1258 H1254 0.929 . S
C1258 C1260 1.378 . S
C1258 C1262 1.350 . S
C1259 C1262 1.463 . S
C1259 C1264 1.350 . S
C1259 N1267 1.427 . S
C1260 H1251 0.930 . S
C1260 C1258 1.378 . S
C1260 C1261 1.367 . S
C1261 C1260 1.367 . S
C1261 C1263 1.433 . S
C1262 C1258 1.350 . S
C1262 C1259 1.463 . S
C1262 N1266 1.427 . S
C1263 H1253 0.935 . S
C1263 C1261 1.433 . S
C1263 N1266 1.384 . S
C1264 H1255 0.929 . S
C1264 C1256 1.378 . S
C1264 C1259 1.350 . S
C1265 H1252 0.929 . S
C1265 C1257 1.433 . S
C1265 N1267 1.384 . S
N1266 C1262 1.427 . S
N1266 C1263 1.384 . S
N1267 C1259 1.427 . S
N1267 C1265 1.384 . S
H1268 C1274 0.930 . S
H1269 C1278 0.930 . S
H1270 C1283 0.929 . S
H1271 C1281 0.929 . S
H1272 C1276 0.929 . S
H1273 C1282 0.929 . S
C1274 H1268 0.930 . S
C1274 C1275 1.367 . S
C1274 C1282 1.378 . S
C1275 C1274 1.367 . S
C1275 C1283 1.433 . S
C1276 H1272 0.929 . S
C1276 C1278 1.378 . S
C1276 C1280 1.350 . S
C1277 C1280 1.463 . S
C1277 C1282 1.350 . S
C1277 N1285 1.427 . S
C1278 H1269 0.930 . S
C1278 C1276 1.378 . S
C1278 C1279 1.367 . S
C1279 C1278 1.367 . S
C1279 C1281 1.433 . S
C1280 C1276 1.350 . S
C1280 C1277 1.463 . S
C1280 N1284 1.427 . S
C1281 H1271 0.929 . S
C1281 C1279 1.433 . S
C1281 N1284 1.384 . S
C1282 H1273 0.929 . S
C1282 C1274 1.378 . S
C1282 C1277 1.350 . S
C1283 H1270 0.929 . S
C1283 C1275 1.433 . S
C1283 N1285 1.384 . S
N1284 C1280 1.427 . S
N1284 C1281 1.384 . S
N1285 C1277 1.427 . S
N1285 C1283 1.384 . S
H1286 C1292 0.930 1_554 S
H1287 C1296 0.930 . S
H1288 C1301 0.929 . S
H1289 C1299 0.929 . S
H1290 C1294 0.929 . S
H1291 C1300 0.929 1_554 S
C1292 H1286 0.930 1_556 S
C1292 C1293 1.367 . S
C1292 C1300 1.378 . S
C1293 C1292 1.367 . S
C1293 C1301 1.433 . S
C1294 H1290 0.929 . S
C1294 C1296 1.378 . S
C1294 C1298 1.350 . S
C1295 C1298 1.463 . S
C1295 C1300 1.350 . S
C1295 N1303 1.427 . S
C1296 H1287 0.930 . S
C1296 C1294 1.378 . S
C1296 C1297 1.367 . S
C1297 C1296 1.367 . S
C1297 C1299 1.433 . S
C1298 C1294 1.350 . S
C1298 C1295 1.463 . S
C1298 N1302 1.427 . S
C1299 H1289 0.929 . S
C1299 C1297 1.433 . S
C1299 N1302 1.384 . S
C1300 H1291 0.929 1_556 S
C1300 C1292 1.378 . S
C1300 C1295 1.350 . S
C1301 H1288 0.929 . S
C1301 C1293 1.433 . S
C1301 N1303 1.384 . S
N1302 C1298 1.427 . S
N1302 C1299 1.384 . S
N1303 C1295 1.427 . S
N1303 C1301 1.384 . S
H1304 C1310 0.930 . S
H1305 C1314 0.930 . S
H1306 C1319 0.929 . S
H1307 C1317 0.929 . S
H1308 C1312 0.929 . S
H1309 C1318 0.929 . S
C1310 H1304 0.930 . S
C1310 C1311 1.367 . S
C1310 C1318 1.378 . S
C1311 C1310 1.367 . S
C1311 C1319 1.433 . S
C1312 H1308 0.929 . S
C1312 C1314 1.378 . S
C1312 C1316 1.350 . S
C1313 C1316 1.463 . S
C1313 C1318 1.350 . S
C1313 N1321 1.427 . S
C1314 H1305 0.930 . S
C1314 C1312 1.378 . S
C1314 C1315 1.367 . S
C1315 C1314 1.367 . S
C1315 C1317 1.433 . S
C1316 C1312 1.350 . S
C1316 C1313 1.463 . S
C1316 N1320 1.427 . S
C1317 H1307 0.929 . S
C1317 C1315 1.433 . S
C1317 N1320 1.384 . S
C1318 H1309 0.929 . S
C1318 C1310 1.378 . S
C1318 C1313 1.350 . S
C1319 H1306 0.929 . S
C1319 C1311 1.433 . S
C1319 N1321 1.384 . S
N1320 C1316 1.427 . S
N1320 C1317 1.384 . S
N1321 C1313 1.427 . S
N1321 C1319 1.384 . S
H1322 C1328 0.930 . S
H1323 C1332 0.930 . S
H1324 C1337 0.929 . S
H1325 C1335 0.929 . S
H1326 C1330 0.929 . S
H1327 C1336 0.929 . S
C1328 H1322 0.930 . S
C1328 C1329 1.367 . S
C1328 C1336 1.378 . S
C1329 C1328 1.367 . S
C1329 C1337 1.433 . S
C1330 H1326 0.929 . S
C1330 C1332 1.378 . S
C1330 C1334 1.350 . S
C1331 C1334 1.463 . S
C1331 C1336 1.350 . S
C1331 N1339 1.427 . S
C1332 H1323 0.930 . S
C1332 C1330 1.378 . S
C1332 C1333 1.367 . S
C1333 C1332 1.367 . S
C1333 C1335 1.433 . S
C1334 C1330 1.350 . S
C1334 C1331 1.463 . S
C1334 N1338 1.427 . S
C1335 H1325 0.929 . S
C1335 C1333 1.433 . S
C1335 N1338 1.384 . S
C1336 H1327 0.929 . S
C1336 C1328 1.378 . S
C1336 C1331 1.350 . S
C1337 H1324 0.929 . S
C1337 C1329 1.433 . S
C1337 N1339 1.384 . S
N1338 C1334 1.427 . S
N1338 C1335 1.384 . S
N1339 C1331 1.427 . S
N1339 C1337 1.384 . S
H1340 C1346 0.930 . S
H1341 C1350 0.930 . S
H1342 C1355 0.929 . S
H1343 C1353 0.929 . S
H1344 C1348 0.929 . S
H1345 C1354 0.929 . S
C1346 H1340 0.930 . S
C1346 C1347 1.367 . S
C1346 C1354 1.378 . S
C1347 C1346 1.367 . S
C1347 C1355 1.433 . S
C1348 H1344 0.929 . S
C1348 C1350 1.378 . S
C1348 C1352 1.350 . S
C1349 C1352 1.463 . S
C1349 C1354 1.350 . S
C1349 N1357 1.427 . S
C1350 H1341 0.930 . S
C1350 C1348 1.378 . S
C1350 C1351 1.367 . S
C1351 C1350 1.367 . S
C1351 C1353 1.433 . S
C1352 C1348 1.350 . S
C1352 C1349 1.463 . S
C1352 N1356 1.427 . S
C1353 H1343 0.929 . S
C1353 C1351 1.433 . S
C1353 N1356 1.384 . S
C1354 H1345 0.929 . S
C1354 C1346 1.378 . S
C1354 C1349 1.350 . S
C1355 H1342 0.929 . S
C1355 C1347 1.433 . S
C1355 N1357 1.384 . S
N1356 C1352 1.427 . S
N1356 C1353 1.384 . S
N1357 C1349 1.427 . S
N1357 C1355 1.384 . S
H1358 C1364 0.930 . S
H1359 C1368 0.930 . S
H1360 C1373 0.929 . S
H1361 C1371 0.929 . S
H1362 C1366 0.929 . S
H1363 C1372 0.929 . S
C1364 H1358 0.930 . S
C1364 C1365 1.367 . S
C1364 C1372 1.378 . S
C1365 C1364 1.367 . S
C1365 C1373 1.433 . S
C1366 H1362 0.929 . S
C1366 C1368 1.378 . S
C1366 C1370 1.350 . S
C1367 C1370 1.463 . S
C1367 C1372 1.350 . S
C1367 N1375 1.427 . S
C1368 H1359 0.930 . S
C1368 C1366 1.378 . S
C1368 C1369 1.367 . S
C1369 C1368 1.367 . S
C1369 C1371 1.433 . S
C1370 C1366 1.350 . S
C1370 C1367 1.463 . S
C1370 N1374 1.427 . S
C1371 H1361 0.929 . S
C1371 C1369 1.433 . S
C1371 N1374 1.384 . S
C1372 H1363 0.929 . S
C1372 C1364 1.378 . S
C1372 C1367 1.350 . S
C1373 H1360 0.929 . S
C1373 C1365 1.433 . S
C1373 N1375 1.384 . S
N1374 C1370 1.427 . S
N1374 C1371 1.384 . S
N1375 C1367 1.427 . S
N1375 C1373 1.384 . S
H1376 C1382 0.930 . S
H1377 C1386 0.930 . S
H1378 C1391 0.929 . S
H1379 C1389 0.929 . S
H1380 C1384 0.929 . S
H1381 C1390 0.929 . S
C1382 H1376 0.930 . S
C1382 C1383 1.367 . S
C1382 C1390 1.378 . S
C1383 C1382 1.367 . S
C1383 C1391 1.433 . S
C1384 H1380 0.929 . S
C1384 C1386 1.378 . S
C1384 C1388 1.350 . S
C1385 C1388 1.463 . S
C1385 C1390 1.350 . S
C1385 N1393 1.427 . S
C1386 H1377 0.930 . S
C1386 C1384 1.378 . S
C1386 C1387 1.367 . S
C1387 C1386 1.367 . S
C1387 C1389 1.433 . S
C1388 C1384 1.350 . S
C1388 C1385 1.463 . S
C1388 N1392 1.427 . S
C1389 H1379 0.929 . S
C1389 C1387 1.433 . S
C1389 N1392 1.384 . S
C1390 H1381 0.929 . S
C1390 C1382 1.378 . S
C1390 C1385 1.350 . S
C1391 H1378 0.929 . S
C1391 C1383 1.433 . S
C1391 N1393 1.384 . S
N1392 C1388 1.427 . S
N1392 C1389 1.384 . S
N1393 C1385 1.427 . S
N1393 C1391 1.384 . S
H1394 C1400 0.930 . S
H1395 C1404 0.930 . S
H1396 C1409 0.929 . S
H1397 C1407 0.929 . S
H1398 C1402 0.929 . S
H1399 C1408 0.929 . S
C1400 H1394 0.930 . S
C1400 C1401 1.367 . S
C1400 C1408 1.378 . S
C1401 C1400 1.367 . S
C1401 C1409 1.433 . S
C1402 H1398 0.929 . S
C1402 C1404 1.378 . S
C1402 C1406 1.350 . S
C1403 C1406 1.463 . S
C1403 C1408 1.350 . S
C1403 N1411 1.427 . S
C1404 H1395 0.930 . S
C1404 C1402 1.378 . S
C1404 C1405 1.367 . S
C1405 C1404 1.367 . S
C1405 C1407 1.433 . S
C1406 C1402 1.350 . S
C1406 C1403 1.463 . S
C1406 N1410 1.427 . S
C1407 H1397 0.929 . S
C1407 C1405 1.433 . S
C1407 N1410 1.384 . S
C1408 H1399 0.929 . S
C1408 C1400 1.378 . S
C1408 C1403 1.350 . S
C1409 H1396 0.929 . S
C1409 C1401 1.433 . S
C1409 N1411 1.384 . S
N1410 C1406 1.427 . S
N1410 C1407 1.384 . S
N1411 C1403 1.427 . S
N1411 C1409 1.384 . S
H1412 C1418 0.930 . S
H1413 C1422 0.930 . S
H1414 C1427 0.929 . S
H1415 C1425 0.929 . S
H1416 C1420 0.929 . S
H1417 C1426 0.929 . S
C1418 H1412 0.930 . S
C1418 C1419 1.367 . S
C1418 C1426 1.378 . S
C1419 C1418 1.367 . S
C1419 C1427 1.433 . S
C1420 H1416 0.929 . S
C1420 C1422 1.378 . S
C1420 C1424 1.350 . S
C1421 C1424 1.463 . S
C1421 C1426 1.350 . S
C1421 N1429 1.427 . S
C1422 H1413 0.930 . S
C1422 C1420 1.378 . S
C1422 C1423 1.367 . S
C1423 C1422 1.367 . S
C1423 C1425 1.433 . S
C1424 C1420 1.350 . S
C1424 C1421 1.463 . S
C1424 N1428 1.427 . S
C1425 H1415 0.929 . S
C1425 C1423 1.433 . S
C1425 N1428 1.384 . S
C1426 H1417 0.929 . S
C1426 C1418 1.378 . S
C1426 C1421 1.350 . S
C1427 H1414 0.929 . S
C1427 C1419 1.433 . S
C1427 N1429 1.384 . S
N1428 C1424 1.427 . S
N1428 C1425 1.384 . S
N1429 C1421 1.427 . S
N1429 C1427 1.384 . S
H1430 C1436 0.930 . S
H1431 C1440 0.930 1_556 S
H1432 C1445 0.929 . S
H1433 C1443 0.929 . S
H1434 C1438 0.929 . S
H1435 C1444 0.929 . S
C1436 H1430 0.930 . S
C1436 C1437 1.367 . S
C1436 C1444 1.378 . S
C1437 C1436 1.367 . S
C1437 C1445 1.433 . S
C1438 H1434 0.929 . S
C1438 C1440 1.378 . S
C1438 C1442 1.350 . S
C1439 C1442 1.463 . S
C1439 C1444 1.350 . S
C1439 N1447 1.427 . S
C1440 H1431 0.930 1_554 S
C1440 C1438 1.378 . S
C1440 C1441 1.367 . S
C1441 C1440 1.367 . S
C1441 C1443 1.433 . S
C1442 C1438 1.350 . S
C1442 C1439 1.463 . S
C1442 N1446 1.427 . S
C1443 H1433 0.929 . S
C1443 C1441 1.433 . S
C1443 N1446 1.384 . S
C1444 H1435 0.929 . S
C1444 C1436 1.378 . S
C1444 C1439 1.350 . S
C1445 H1432 0.929 . S
C1445 C1437 1.433 . S
C1445 N1447 1.384 . S
N1446 C1442 1.427 . S
N1446 C1443 1.384 . S
N1447 C1439 1.427 . S
N1447 C1445 1.384 . S
H1448 C1454 0.930 . S
H1449 C1458 0.930 . S
H1450 C1463 0.929 . S
H1451 C1461 0.929 . S
H1452 C1456 0.929 . S
H1453 C1462 0.929 . S
C1454 H1448 0.930 . S
C1454 C1455 1.367 . S
C1454 C1462 1.378 . S
C1455 C1454 1.367 . S
C1455 C1463 1.433 . S
C1456 H1452 0.929 . S
C1456 C1458 1.378 . S
C1456 C1460 1.350 . S
C1457 C1460 1.463 . S
C1457 C1462 1.350 . S
C1457 N1465 1.427 . S
C1458 H1449 0.930 . S
C1458 C1456 1.378 . S
C1458 C1459 1.367 . S
C1459 C1458 1.367 . S
C1459 C1461 1.433 . S
C1460 C1456 1.350 . S
C1460 C1457 1.463 . S
C1460 N1464 1.427 . S
C1461 H1451 0.929 . S
C1461 C1459 1.433 . S
C1461 N1464 1.384 . S
C1462 H1453 0.929 . S
C1462 C1454 1.378 . S
C1462 C1457 1.350 . S
C1463 H1450 0.929 . S
C1463 C1455 1.433 . S
C1463 N1465 1.384 . S
N1464 C1460 1.427 . S
N1464 C1461 1.384 . S
N1465 C1457 1.427 . S
N1465 C1463 1.384 . S
H1466 C1472 0.930 . S
H1467 C1476 0.930 . S
H1468 C1481 0.929 . S
H1469 C1479 0.929 . S
H1470 C1474 0.929 . S
H1471 C1480 0.929 . S
C1472 H1466 0.930 . S
C1472 C1473 1.367 . S
C1472 C1480 1.378 . S
C1473 C1472 1.367 . S
C1473 C1481 1.433 . S
C1474 H1470 0.929 . S
C1474 C1476 1.378 . S
C1474 C1478 1.350 . S
C1475 C1478 1.463 . S
C1475 C1480 1.350 . S
C1475 N1483 1.427 . S
C1476 H1467 0.930 . S
C1476 C1474 1.378 . S
C1476 C1477 1.367 . S
C1477 C1476 1.367 . S
C1477 C1479 1.433 . S
C1478 C1474 1.350 . S
C1478 C1475 1.463 . S
C1478 N1482 1.427 . S
C1479 H1469 0.929 . S
C1479 C1477 1.433 . S
C1479 N1482 1.384 . S
C1480 H1471 0.929 . S
C1480 C1472 1.378 . S
C1480 C1475 1.350 . S
C1481 H1468 0.929 . S
C1481 C1473 1.433 . S
C1481 N1483 1.384 . S
N1482 C1478 1.427 . S
N1482 C1479 1.384 . S
N1483 C1475 1.427 . S
N1483 C1481 1.384 . S
H1484 C1490 0.930 . S
H1485 C1494 0.930 . S
H1486 C1499 0.929 . S
H1487 C1497 0.929 . S
H1488 C1492 0.929 . S
H1489 C1498 0.929 . S
C1490 H1484 0.930 . S
C1490 C1491 1.367 . S
C1490 C1498 1.378 . S
C1491 C1490 1.367 . S
C1491 C1499 1.433 . S
C1492 H1488 0.929 . S
C1492 C1494 1.378 . S
C1492 C1496 1.350 . S
C1493 C1496 1.463 . S
C1493 C1498 1.350 . S
C1493 N1501 1.427 . S
C1494 H1485 0.930 . S
C1494 C1492 1.378 . S
C1494 C1495 1.367 . S
C1495 C1494 1.367 . S
C1495 C1497 1.433 . S
C1496 C1492 1.350 . S
C1496 C1493 1.463 . S
C1496 N1500 1.427 . S
C1497 H1487 0.929 . S
C1497 C1495 1.433 . S
C1497 N1500 1.384 . S
C1498 H1489 0.929 . S
C1498 C1490 1.378 . S
C1498 C1493 1.350 . S
C1499 H1486 0.929 . S
C1499 C1491 1.433 . S
C1499 N1501 1.384 . S
N1500 C1496 1.427 . S
N1500 C1497 1.384 . S
N1501 C1493 1.427 . S
N1501 C1499 1.384 . S
H1502 C1508 0.930 . S
H1503 C1512 0.930 . S
H1504 C1517 0.929 . S
H1505 C1515 0.929 . S
H1506 C1510 0.929 . S
H1507 C1516 0.929 . S
C1508 H1502 0.930 . S
C1508 C1509 1.367 . S
C1508 C1516 1.378 . S
C1509 C1508 1.367 . S
C1509 C1517 1.433 . S
C1510 H1506 0.929 . S
C1510 C1512 1.378 . S
C1510 C1514 1.350 . S
C1511 C1514 1.463 . S
C1511 C1516 1.350 . S
C1511 N1519 1.427 . S
C1512 H1503 0.930 . S
C1512 C1510 1.378 . S
C1512 C1513 1.367 . S
C1513 C1512 1.367 . S
C1513 C1515 1.433 . S
C1514 C1510 1.350 . S
C1514 C1511 1.463 . S
C1514 N1518 1.427 . S
C1515 H1505 0.929 . S
C1515 C1513 1.433 . S
C1515 N1518 1.384 . S
C1516 H1507 0.929 . S
C1516 C1508 1.378 . S
C1516 C1511 1.350 . S
C1517 H1504 0.929 . S
C1517 C1509 1.433 . S
C1517 N1519 1.384 . S
N1518 C1514 1.427 . S
N1518 C1515 1.384 . S
N1519 C1511 1.427 . S
N1519 C1517 1.384 . S
C951 C701 1.351 . S
C955 C3 1.348 . S
C969 C92 1.326 . S
C973 C524 1.289 . S
C987 C121 1.357 . S
C991 C583 1.355 . S
C1005 C642 1.298 . S
C1009 C210 1.325 . S
C1023 C239 1.358 . S
C1027 C347 1.355 . S
C1041 C328 1.320 . S
C1045 C406 1.302 . S
C1059 C465 1.361 . S
C1063 C357 1.356 . S
C1077 C288 1.293 . S
C1081 C446 1.327 . S
C1095 C229 1.352 . S
C1099 C475 1.348 . S
C1113 C564 1.326 . S
C1117 C52 1.295 . S
C1131 C111 1.353 . S
C1135 C593 1.356 . S
C1149 C682 1.323 . S
C1153 C170 1.302 . S
C1167 C711 1.358 . S
C1171 C819 1.355 . S
C1185 C800 1.320 . S
C1189 C878 1.300 . S
C1203 C937 1.360 . S
C1207 C829 1.360 . S
C1221 C760 1.299 . S
C1225 C918 1.325 . S
C1239 C269 1.470 . S
C1243 C33 1.472 . S
C1257 C62 1.269 . S
C1261 C298 1.262 . S
C1275 C151 1.474 . S
C1279 C387 1.475 . S
C1293 C416 1.273 . S
C1297 C180 1.275 . S
C1311 C505 1.469 . S
C1315 C741 1.468 . S
C1329 C770 1.267 . S
C1333 C534 1.276 . S
C1347 C623 1.474 . S
C1351 C859 1.475 . S
C1365 C888 1.272 . S
C1369 C652 1.263 . S
C1383 C831 1.696 . S
C1387 C5 1.698 . S
C1401 C890 1.261 . S
C1405 C64 1.258 . S
C1419 C123 1.698 . S
C1423 C713 1.699 . S
C1437 C772 1.253 . S
C1441 C182 1.252 . S
C1455 C595 1.685 . S
C1459 C241 1.685 . S
C1473 C654 1.266 . S
C1477 C300 1.267 . S
C1491 C359 1.695 . S
C1495 C477 1.693 . S
C1509 C536 1.255 . S
C1513 C418 1.258 . S
