# Generated by pormake.
# Topology uoe, (4)-cn, num edge types: 1
# Building blocks:
#     Node 0, Type 0, BuildingBlock: QUQFOY_clean_sbu_3, # of connection points: 4
#     Node 1, Type 0, BuildingBlock: QUQFOY_clean_sbu_3, # of connection points: 4
#     Node 2, Type 0, BuildingBlock: QUQFOY_clean_sbu_3, # of connection points: 4
#     Node 3, Type 0, BuildingBlock: QUQFOY_clean_sbu_3, # of connection points: 4
#     Node 4, Type 0, BuildingBlock: QUQFOY_clean_sbu_3, # of connection points: 4
#     Node 5, Type 0, BuildingBlock: QUQFOY_clean_sbu_3, # of connection points: 4
#     Node 6, Type 0, BuildingBlock: QUQFOY_clean_sbu_3, # of connection points: 4
#     Node 7, Type 0, BuildingBlock: QUQFOY_clean_sbu_3, # of connection points: 4
#     Node 8, Type 0, BuildingBlock: QUQFOY_clean_sbu_3, # of connection points: 4
#     Node 9, Type 0, BuildingBlock: QUQFOY_clean_sbu_3, # of connection points: 4
#     Node 10, Type 0, BuildingBlock: QUQFOY_clean_sbu_3, # of connection points: 4
#     Node 11, Type 0, BuildingBlock: QUQFOY_clean_sbu_3, # of connection points: 4
#     Node 12, Type 0, BuildingBlock: QUQFOY_clean_sbu_3, # of connection points: 4
#     Node 13, Type 0, BuildingBlock: QUQFOY_clean_sbu_3, # of connection points: 4
#     Node 14, Type 0, BuildingBlock: QUQFOY_clean_sbu_3, # of connection points: 4
#     Node 15, Type 0, BuildingBlock: QUQFOY_clean_sbu_3, # of connection points: 4
#     Node 16, Type 0, BuildingBlock: QUQFOY_clean_sbu_3, # of connection points: 4
#     Node 17, Type 0, BuildingBlock: QUQFOY_clean_sbu_3, # of connection points: 4
#     Node 18, Type 0, BuildingBlock: QUQFOY_clean_sbu_3, # of connection points: 4
#     Node 19, Type 0, BuildingBlock: QUQFOY_clean_sbu_3, # of connection points: 4
#     Node 20, Type 0, BuildingBlock: QUQFOY_clean_sbu_3, # of connection points: 4
#     Node 21, Type 0, BuildingBlock: QUQFOY_clean_sbu_3, # of connection points: 4
#     Node 22, Type 0, BuildingBlock: QUQFOY_clean_sbu_3, # of connection points: 4
#     Node 23, Type 0, BuildingBlock: QUQFOY_clean_sbu_3, # of connection points: 4
#     Node 24, Type 0, BuildingBlock: QUQFOY_clean_sbu_3, # of connection points: 4
#     Node 25, Type 0, BuildingBlock: QUQFOY_clean_sbu_3, # of connection points: 4
#     Node 26, Type 0, BuildingBlock: QUQFOY_clean_sbu_3, # of connection points: 4
#     Node 27, Type 0, BuildingBlock: QUQFOY_clean_sbu_3, # of connection points: 4
#     Node 28, Type 0, BuildingBlock: QUQFOY_clean_sbu_3, # of connection points: 4
#     Node 29, Type 0, BuildingBlock: QUQFOY_clean_sbu_3, # of connection points: 4
#     Node 30, Type 0, BuildingBlock: QUQFOY_clean_sbu_3, # of connection points: 4
#     Node 31, Type 0, BuildingBlock: QUQFOY_clean_sbu_3, # of connection points: 4
#     Edge 32, Type (0, 0), BuildingBlock: MIFKUJ_clean_linker_0, # of connection points: 2
#     Edge 33, Type (0, 0), BuildingBlock: MIFKUJ_clean_linker_0, # of connection points: 2
#     Edge 34, Type (0, 0), BuildingBlock: MIFKUJ_clean_linker_0, # of connection points: 2
#     Edge 35, Type (0, 0), BuildingBlock: MIFKUJ_clean_linker_0, # of connection points: 2
#     Edge 36, Type (0, 0), BuildingBlock: MIFKUJ_clean_linker_0, # of connection points: 2
#     Edge 37, Type (0, 0), BuildingBlock: MIFKUJ_clean_linker_0, # of connection points: 2
#     Edge 38, Type (0, 0), BuildingBlock: MIFKUJ_clean_linker_0, # of connection points: 2
#     Edge 39, Type (0, 0), BuildingBlock: MIFKUJ_clean_linker_0, # of connection points: 2
#     Edge 40, Type (0, 0), BuildingBlock: MIFKUJ_clean_linker_0, # of connection points: 2
#     Edge 41, Type (0, 0), BuildingBlock: MIFKUJ_clean_linker_0, # of connection points: 2
#     Edge 42, Type (0, 0), BuildingBlock: MIFKUJ_clean_linker_0, # of connection points: 2
#     Edge 43, Type (0, 0), BuildingBlock: MIFKUJ_clean_linker_0, # of connection points: 2
#     Edge 44, Type (0, 0), BuildingBlock: MIFKUJ_clean_linker_0, # of connection points: 2
#     Edge 45, Type (0, 0), BuildingBlock: MIFKUJ_clean_linker_0, # of connection points: 2
#     Edge 46, Type (0, 0), BuildingBlock: MIFKUJ_clean_linker_0, # of connection points: 2
#     Edge 47, Type (0, 0), BuildingBlock: MIFKUJ_clean_linker_0, # of connection points: 2
#     Edge 48, Type (0, 0), BuildingBlock: MIFKUJ_clean_linker_0, # of connection points: 2
#     Edge 49, Type (0, 0), BuildingBlock: MIFKUJ_clean_linker_0, # of connection points: 2
#     Edge 50, Type (0, 0), BuildingBlock: MIFKUJ_clean_linker_0, # of connection points: 2
#     Edge 51, Type (0, 0), BuildingBlock: MIFKUJ_clean_linker_0, # of connection points: 2
#     Edge 52, Type (0, 0), BuildingBlock: MIFKUJ_clean_linker_0, # of connection points: 2
#     Edge 53, Type (0, 0), BuildingBlock: MIFKUJ_clean_linker_0, # of connection points: 2
#     Edge 54, Type (0, 0), BuildingBlock: MIFKUJ_clean_linker_0, # of connection points: 2
#     Edge 55, Type (0, 0), BuildingBlock: MIFKUJ_clean_linker_0, # of connection points: 2
#     Edge 56, Type (0, 0), BuildingBlock: MIFKUJ_clean_linker_0, # of connection points: 2
#     Edge 57, Type (0, 0), BuildingBlock: MIFKUJ_clean_linker_0, # of connection points: 2
#     Edge 58, Type (0, 0), BuildingBlock: MIFKUJ_clean_linker_0, # of connection points: 2
#     Edge 59, Type (0, 0), BuildingBlock: MIFKUJ_clean_linker_0, # of connection points: 2
#     Edge 60, Type (0, 0), BuildingBlock: MIFKUJ_clean_linker_0, # of connection points: 2
#     Edge 61, Type (0, 0), BuildingBlock: MIFKUJ_clean_linker_0, # of connection points: 2
#     Edge 62, Type (0, 0), BuildingBlock: MIFKUJ_clean_linker_0, # of connection points: 2
#     Edge 63, Type (0, 0), BuildingBlock: MIFKUJ_clean_linker_0, # of connection points: 2
#     Edge 64, Type (0, 0), BuildingBlock: MIFKUJ_clean_linker_0, # of connection points: 2
#     Edge 65, Type (0, 0), BuildingBlock: MIFKUJ_clean_linker_0, # of connection points: 2
#     Edge 66, Type (0, 0), BuildingBlock: MIFKUJ_clean_linker_0, # of connection points: 2
#     Edge 67, Type (0, 0), BuildingBlock: MIFKUJ_clean_linker_0, # of connection points: 2
#     Edge 68, Type (0, 0), BuildingBlock: MIFKUJ_clean_linker_0, # of connection points: 2
#     Edge 69, Type (0, 0), BuildingBlock: MIFKUJ_clean_linker_0, # of connection points: 2
#     Edge 70, Type (0, 0), BuildingBlock: MIFKUJ_clean_linker_0, # of connection points: 2
#     Edge 71, Type (0, 0), BuildingBlock: MIFKUJ_clean_linker_0, # of connection points: 2
#     Edge 72, Type (0, 0), BuildingBlock: MIFKUJ_clean_linker_0, # of connection points: 2
#     Edge 73, Type (0, 0), BuildingBlock: MIFKUJ_clean_linker_0, # of connection points: 2
#     Edge 74, Type (0, 0), BuildingBlock: MIFKUJ_clean_linker_0, # of connection points: 2
#     Edge 75, Type (0, 0), BuildingBlock: MIFKUJ_clean_linker_0, # of connection points: 2
#     Edge 76, Type (0, 0), BuildingBlock: MIFKUJ_clean_linker_0, # of connection points: 2
#     Edge 77, Type (0, 0), BuildingBlock: MIFKUJ_clean_linker_0, # of connection points: 2
#     Edge 78, Type (0, 0), BuildingBlock: MIFKUJ_clean_linker_0, # of connection points: 2
#     Edge 79, Type (0, 0), BuildingBlock: MIFKUJ_clean_linker_0, # of connection points: 2
#     Edge 80, Type (0, 0), BuildingBlock: MIFKUJ_clean_linker_0, # of connection points: 2
#     Edge 81, Type (0, 0), BuildingBlock: MIFKUJ_clean_linker_0, # of connection points: 2
#     Edge 82, Type (0, 0), BuildingBlock: MIFKUJ_clean_linker_0, # of connection points: 2
#     Edge 83, Type (0, 0), BuildingBlock: MIFKUJ_clean_linker_0, # of connection points: 2
#     Edge 84, Type (0, 0), BuildingBlock: MIFKUJ_clean_linker_0, # of connection points: 2
#     Edge 85, Type (0, 0), BuildingBlock: MIFKUJ_clean_linker_0, # of connection points: 2
#     Edge 86, Type (0, 0), BuildingBlock: MIFKUJ_clean_linker_0, # of connection points: 2
#     Edge 87, Type (0, 0), BuildingBlock: MIFKUJ_clean_linker_0, # of connection points: 2
#     Edge 88, Type (0, 0), BuildingBlock: MIFKUJ_clean_linker_0, # of connection points: 2
#     Edge 89, Type (0, 0), BuildingBlock: MIFKUJ_clean_linker_0, # of connection points: 2
#     Edge 90, Type (0, 0), BuildingBlock: MIFKUJ_clean_linker_0, # of connection points: 2
#     Edge 91, Type (0, 0), BuildingBlock: MIFKUJ_clean_linker_0, # of connection points: 2
#     Edge 92, Type (0, 0), BuildingBlock: MIFKUJ_clean_linker_0, # of connection points: 2
#     Edge 93, Type (0, 0), BuildingBlock: MIFKUJ_clean_linker_0, # of connection points: 2
#     Edge 94, Type (0, 0), BuildingBlock: MIFKUJ_clean_linker_0, # of connection points: 2
#     Edge 95, Type (0, 0), BuildingBlock: MIFKUJ_clean_linker_0, # of connection points: 2
# Relax obj value: 0.181
# Max RMSD: 0.209
# Mean RMSD: 0.209
data_MOF--net-uoe--node1-QUQFOY_clean_sbu_3--edge1-MIFKUJ_clean_linker_0
_symmetry_space_group_name_H-M    P1
_symmetry_Int_Tables_number       1
_symmetry_cell_setting            triclinic
loop_
_symmetry_equiv_pos_as_xyz
'x, y, z'
_cell_length_a     99.2733
_cell_length_b     99.286028
_cell_length_c     35.070405
_cell_angle_alpha  89.956188
_cell_angle_beta   90.128482
_cell_angle_gamma 89.98032
loop_
_atom_site_label
_atom_site_type_symbol
_atom_site_fract_x
_atom_site_fract_y
_atom_site_fract_z
_atom_type_partial_charge
C0 C 0.10694 0.4775 0.97176 0.0
O1 O 0.10715 0.4864 -0.0023 0.0
Cd2 Cd 0.09816 0.48464 0.05955 0.0
O3 O 0.10209 0.46579 0.97825 0.0
Cd4 Cd 0.0924 0.45413 0.03577 0.0
C5 C 0.0657 0.47511 0.03415 0.0
O6 O 0.10696 0.4642 0.08312 0.0
O7 O 0.08843 0.45585 0.10426 0.0
O8 O 0.10675 0.43458 0.02656 0.0
C9 C 0.09998 0.46064 0.11148 0.0
O10 O 0.07393 0.48358 0.04838 0.0
C11 C 0.09805 0.42602 0.03727 0.0
O12 O 0.06966 0.46336 0.02444 0.0
O13 O 0.08609 0.43032 0.04164 0.0
C14 C 0.77552 0.85744 0.23008 0.0
O15 O 0.76644 0.85899 0.25514 0.0
Cd16 Cd 0.76674 0.85225 0.3197 0.0
O17 O 0.78695 0.85229 0.23865 0.0
Cd18 Cd 0.79823 0.84432 0.29914 0.0
C19 C 0.77551 0.81871 0.30486 0.0
O20 O 0.78766 0.86052 0.34025 0.0
O21 O 0.79739 0.84419 0.36931 0.0
O22 O 0.81841 0.85733 0.28587 0.0
C23 C 0.79116 0.8553 0.37155 0.0
O24 O 0.76716 0.82775 0.31523 0.0
C25 C 0.82667 0.84834 0.29687 0.0
O26 O 0.78757 0.82181 0.29566 0.0
O27 O 0.82176 0.83681 0.30426 0.0
C28 C 0.39969 0.51787 0.47794 0.0
O29 O 0.39858 0.50854 0.50252 0.0
Cd30 Cd 0.40013 0.51004 0.56989 0.0
O31 O 0.40189 0.53003 0.48817 0.0
Cd32 Cd 0.40549 0.54132 0.5515 0.0
C33 C 0.43266 0.52147 0.57243 0.0
O34 O 0.38759 0.52954 0.58505 0.0
O35 O 0.40121 0.54097 0.62019 0.0
O36 O 0.39259 0.56132 0.53448 0.0
C37 C 0.39042 0.53423 0.61761 0.0
O38 O 0.42417 0.51235 0.58095 0.0
C39 C 0.40103 0.56967 0.54802 0.0
O40 O 0.42875 0.53274 0.55883 0.0
O41 O 0.41234 0.56491 0.55843 0.0
C42 C 0.72557 0.14659 0.72974 0.0
O43 O 0.73532 0.14505 0.75283 0.0
Cd44 Cd 0.73577 0.14929 0.81894 0.0
O45 O 0.71408 0.15068 0.74146 0.0
Cd46 Cd 0.70481 0.15685 0.80595 0.0
C47 C 0.72682 0.18278 0.81408 0.0
O48 O 0.71583 0.13871 0.84029 0.0
O49 O 0.70811 0.15466 0.87515 0.0
O50 O 0.6833 0.14581 0.79234 0.0
C51 C 0.71318 0.14296 0.87332 0.0
O52 O 0.73548 0.17383 0.82298 0.0
C53 C 0.67617 0.15452 0.80951 0.0
O54 O 0.71492 0.17944 0.80413 0.0
O55 O 0.6822 0.16505 0.82097 0.0
C56 C 0.10938 0.52156 0.58784 0.0
O57 O 0.11004 0.5124 0.5627 0.0
Cd58 Cd 0.10207 0.5133 0.49933 0.0
O59 O 0.10454 0.53316 0.57983 0.0
Cd60 Cd 0.09523 0.54432 0.52115 0.0
C61 C 0.06921 0.52243 0.52106 0.0
O62 O 0.10997 0.53394 0.47523 0.0
O63 O 0.09155 0.54184 0.45235 0.0
O64 O 0.10858 0.56459 0.53027 0.0
C65 C 0.1029 0.53646 0.44612 0.0
O66 O 0.0777 0.51409 0.50744 0.0
C67 C 0.09924 0.57278 0.52159 0.0
O68 O 0.07288 0.53421 0.53137 0.0
O69 O 0.08756 0.5678 0.51686 0.0
C70 C 0.72649 0.85861 0.8493 0.0
O71 O 0.73597 0.8601 0.8254 0.0
Cd72 Cd 0.7365 0.85249 0.76157 0.0
O73 O 0.71524 0.8534 0.83939 0.0
Cd74 Cd 0.70471 0.84524 0.77828 0.0
C75 C 0.72696 0.8193 0.77907 0.0
O76 O 0.71616 0.86062 0.73613 0.0
O77 O 0.70655 0.84385 0.70863 0.0
O78 O 0.68467 0.85885 0.78829 0.0
C79 C 0.71295 0.85482 0.70538 0.0
O80 O 0.73562 0.82809 0.76906 0.0
C81 C 0.67634 0.84991 0.77755 0.0
O82 O 0.71478 0.82264 0.78589 0.0
O83 O 0.68108 0.8382 0.77155 0.0
C84 C 0.39561 0.4779 0.08459 0.0
O85 O 0.39309 0.48708 0.06035 0.0
Cd86 Cd 0.39466 0.48617 -0.00698 0.0
O87 O 0.39925 0.46614 0.07385 0.0
Cd88 Cd 0.4033 0.45534 0.01007 0.0
C89 C 0.42826 0.47795 -0.00941 0.0
O90 O 0.38427 0.46546 0.97738 0.0
O91 O 0.39902 0.45628 0.94123 0.0
O92 O 0.39279 0.43388 0.02626 0.0
C93 C 0.38758 0.46184 0.9442 0.0
O94 O 0.41892 0.48629 0.98266 0.0
C95 C 0.40201 0.42666 0.0117 0.0
O96 O 0.42547 0.46622 0.0032 0.0
O97 O 0.41259 0.43276 0.00092 0.0
C98 C 0.7658 0.14463 0.33839 0.0
O99 O 0.7569 0.14343 0.31258 0.0
Cd100 Cd 0.75946 0.14683 0.24629 0.0
O101 O 0.77794 0.14774 0.32998 0.0
Cd102 Cd 0.79005 0.15294 0.2689 0.0
C103 C 0.76963 0.17982 0.25298 0.0
O104 O 0.77972 0.13542 0.23084 0.0
O105 O 0.78943 0.1511 0.19896 0.0
O106 O 0.81029 0.14028 0.28561 0.0
C107 C 0.78384 0.13964 0.19894 0.0
O108 O 0.76097 0.17126 0.24156 0.0
C109 C 0.81853 0.14925 0.27458 0.0
O110 O 0.78092 0.17597 0.2666 0.0
O111 O 0.81353 0.16056 0.26517 0.0
C112 C 0.89233 0.52032 0.09898 0.0
O113 O 0.8907 0.51087 0.075 0.0
Cd114 Cd 0.89443 0.51105 0.00825 0.0
O115 O 0.89627 0.53199 0.08837 0.0
Cd116 Cd 0.90251 0.54268 0.02594 0.0
C117 C 0.92805 0.52006 0.01308 0.0
O118 O 0.88524 0.53181 -0.01129 0.0
O119 O 0.90054 0.5418 0.95623 0.0
O120 O 0.89018 0.56319 0.04008 0.0
C121 C 0.88951 0.53539 0.95636 0.0
O122 O 0.91888 0.5116 0.00451 0.0
C123 C 0.8992 0.57117 0.02794 0.0
O124 O 0.92503 0.53197 0.02393 0.0
O125 O 0.9105 0.56595 0.01944 0.0
C126 C 0.22892 0.14707 0.83515 0.0
O127 O 0.2378 0.14624 0.80926 0.0
Cd128 Cd 0.23523 0.14975 0.74271 0.0
O129 O 0.2167 0.14996 0.8269 0.0
Cd130 Cd 0.20442 0.15542 0.76618 0.0
C131 C 0.2246 0.18251 0.74979 0.0
O132 O 0.21508 0.13848 0.72662 0.0
O133 O 0.20411 0.1538 0.69643 0.0
O134 O 0.18449 0.14241 0.78304 0.0
C135 C 0.21043 0.14273 0.69527 0.0
O136 O 0.23321 0.17408 0.73741 0.0
C137 C 0.17609 0.15118 0.77149 0.0
O138 O 0.21356 0.17854 0.76459 0.0
O139 O 0.18086 0.16261 0.76235 0.0
C140 C 0.61313 0.47863 0.59719 0.0
O141 O 0.61346 0.48777 0.57192 0.0
Cd142 Cd 0.60268 0.48711 0.51201 0.0
O143 O 0.60733 0.46738 0.59063 0.0
Cd144 Cd 0.59605 0.4565 0.53442 0.0
C145 C 0.5704 0.47839 0.54211 0.0
O146 O 0.60951 0.46658 0.48485 0.0
O147 O 0.59013 0.45936 0.46701 0.0
O148 O 0.61021 0.4368 0.54196 0.0
C149 C 0.60146 0.46421 0.45776 0.0
O150 O 0.57868 0.48663 0.52709 0.0
C151 C 0.60124 0.42829 0.53283 0.0
O152 O 0.57406 0.46643 0.55076 0.0
O153 O 0.5893 0.43274 0.52903 0.0
C154 C 0.2679 0.85793 0.33807 0.0
O155 O 0.25848 0.85957 0.31397 0.0
Cd156 Cd 0.25881 0.85433 0.24853 0.0
O157 O 0.27944 0.85353 0.3277 0.0
Cd158 Cd 0.28967 0.84697 0.2647 0.0
C159 C 0.26773 0.82091 0.25855 0.0
O160 O 0.27902 0.86457 0.22752 0.0
O161 O 0.28718 0.84815 0.19512 0.0
O162 O 0.31092 0.85868 0.27636 0.0
C163 C 0.28219 0.85989 0.1953 0.0
O164 O 0.25901 0.82972 0.24917 0.0
C165 C 0.31833 0.84934 0.26316 0.0
O166 O 0.27972 0.82436 0.26723 0.0
O167 O 0.31251 0.8383 0.25517 0.0
C168 C 0.89398 0.47924 0.48891 0.0
O169 O 0.89286 0.48772 0.51581 0.0
Cd170 Cd 0.89959 0.48441 0.58003 0.0
O171 O 0.89851 0.46741 0.49531 0.0
Cd172 Cd 0.90634 0.45447 0.55262 0.0
C173 C 0.93275 0.47557 0.56215 0.0
O174 O 0.89044 0.46335 0.59827 0.0
O175 O 0.9082 0.4542 0.62215 0.0
O176 O 0.89251 0.43535 0.53522 0.0
C177 C 0.89656 0.45907 0.62753 0.0
O178 O 0.92413 0.48369 0.57618 0.0
C179 C 0.90113 0.42644 0.5442 0.0
O180 O 0.92908 0.46419 0.54875 0.0
O181 O 0.9129 0.4306 0.55231 0.0
C182 C 0.27181 0.14589 0.22622 0.0
O183 O 0.26259 0.14373 0.2505 0.0
Cd184 Cd 0.26279 0.14651 0.31741 0.0
O185 O 0.28351 0.14986 0.23674 0.0
Cd186 Cd 0.29437 0.15503 0.30019 0.0
C187 C 0.27159 0.18025 0.31625 0.0
O188 O 0.28361 0.13705 0.33479 0.0
O189 O 0.29318 0.15195 0.36963 0.0
O190 O 0.31521 0.14316 0.28549 0.0
C191 C 0.28695 0.14084 0.36781 0.0
O192 O 0.26321 0.17091 0.32384 0.0
C193 C 0.32298 0.15211 0.29919 0.0
O194 O 0.28351 0.17746 0.305 0.0
O195 O 0.31753 0.16319 0.30876 0.0
C196 C 0.60613 0.52106 0.9765 0.0
O197 O 0.60538 0.51183 0.00145 0.0
Cd198 Cd 0.59603 0.51372 0.06294 0.0
O199 O 0.60189 0.53295 0.98351 0.0
Cd200 Cd 0.59146 0.54453 0.03969 0.0
C201 C 0.56424 0.52425 0.03501 0.0
O202 O 0.60544 0.53385 0.08728 0.0
O203 O 0.58732 0.54299 0.10838 0.0
O204 O 0.60614 0.56382 0.03015 0.0
C205 C 0.59861 0.5376 0.11566 0.0
O206 O 0.57199 0.51555 0.05027 0.0
C207 C 0.59757 0.57257 0.04051 0.0
O208 O 0.56871 0.53583 0.0255 0.0
O209 O 0.58557 0.56846 0.04533 0.0
C210 C 0.22861 0.85003 0.72885 0.0
O211 O 0.23812 0.85149 0.75274 0.0
Cd212 Cd 0.2376 0.84883 0.81948 0.0
O213 O 0.21676 0.84677 0.73977 0.0
Cd214 Cd 0.20669 0.84151 0.804 0.0
C215 C 0.22846 0.81549 0.81757 0.0
O216 O 0.21751 0.86012 0.83672 0.0
O217 O 0.20906 0.84493 0.87302 0.0
O218 O 0.1852 0.85231 0.78776 0.0
C219 C 0.21424 0.85653 0.86997 0.0
O220 O 0.23707 0.82445 0.82655 0.0
C221 C 0.17801 0.84377 0.80548 0.0
O222 O 0.21673 0.81882 0.80601 0.0
O223 O 0.18403 0.83342 0.81826 0.0
C224 C 0.60354 0.97908 0.47371 0.0
O225 O 0.60535 0.98892 0.49629 0.0
Cd226 Cd 0.60352 0.99019 0.56339 0.0
O227 O 0.60029 0.96742 0.48629 0.0
Cd228 Cd 0.5958 0.95788 0.55166 0.0
C229 C 0.57015 0.98038 0.56708 0.0
O230 O 0.61378 0.96998 0.58264 0.0
O231 O 0.59999 0.96023 0.62043 0.0
O232 O 0.60757 0.93674 0.53975 0.0
C233 C 0.61066 0.96707 0.6165 0.0
O234 O 0.57928 0.98918 0.57267 0.0
C235 C 0.59859 0.92927 0.55453 0.0
O236 O 0.57321 0.96839 0.55708 0.0
O237 O 0.5876 0.93497 0.56374 0.0
C238 C 0.27229 0.35816 0.72936 0.0
O239 O 0.26325 0.35832 0.75489 0.0
Cd240 Cd 0.265 0.34961 0.81766 0.0
O241 O 0.28403 0.35352 0.73657 0.0
Cd242 Cd 0.2956 0.34371 0.79385 0.0
C243 C 0.27442 0.31721 0.79286 0.0
O244 O 0.28552 0.35744 0.84335 0.0
O245 O 0.29388 0.33856 0.86176 0.0
O246 O 0.3152 0.358 0.78542 0.0
C247 C 0.28862 0.34973 0.87074 0.0
O248 O 0.26615 0.32535 0.80832 0.0
C249 C 0.32387 0.34892 0.7924 0.0
O250 O 0.28592 0.32125 0.78122 0.0
O251 O 0.31946 0.33695 0.79578 0.0
C252 C 0.8895 0.02747 0.97708 0.0
O253 O 0.88664 0.01816 0.00047 0.0
Cd254 Cd 0.89465 0.01663 0.06397 0.0
O255 O 0.89595 0.03795 -0.0122 0.0
Cd256 Cd 0.90406 0.04725 0.05027 0.0
C257 C 0.9285 0.02385 0.04747 0.0
O258 O 0.88799 0.03686 0.09332 0.0
O259 O 0.90668 0.04341 0.1184 0.0
O260 O 0.8915 0.06802 0.04213 0.0
C261 C 0.89491 0.0388 0.12317 0.0
O262 O 0.91917 0.01573 0.05724 0.0
C263 C 0.90077 0.07573 0.05423 0.0
O264 O 0.92593 0.03623 0.04083 0.0
O265 O 0.91222 0.07036 0.0601 0.0
C266 C 0.22633 0.64104 0.23036 0.0
O267 O 0.23589 0.64031 0.25435 0.0
Cd268 Cd 0.23606 0.65012 0.31556 0.0
O269 O 0.21512 0.64657 0.23914 0.0
Cd270 Cd 0.20491 0.65619 0.29896 0.0
C271 C 0.22607 0.68265 0.29211 0.0
O272 O 0.21625 0.64156 0.34374 0.0
O273 O 0.20792 0.65954 0.36806 0.0
O274 O 0.18492 0.64229 0.29137 0.0
C275 C 0.21351 0.64822 0.37337 0.0
O276 O 0.23503 0.67438 0.30356 0.0
C277 C 0.17656 0.65135 0.30098 0.0
O278 O 0.21399 0.67877 0.2863 0.0
O279 O 0.18124 0.66314 0.30565 0.0
C280 C 0.6023 0.01925 0.08218 0.0
O281 O 0.60333 0.01078 0.05523 0.0
Cd282 Cd 0.59838 0.01419 -0.01025 0.0
O283 O 0.59853 0.03135 0.07559 0.0
Cd284 Cd 0.5918 0.04435 0.01726 0.0
C285 C 0.56528 0.02339 0.00245 0.0
O286 O 0.60867 0.03503 0.97484 0.0
O287 O 0.59249 0.04578 0.94758 0.0
O288 O 0.60436 0.06425 0.03719 0.0
C289 C 0.60384 0.04007 0.94465 0.0
O290 O 0.57389 0.01522 -0.01127 0.0
C291 C 0.59557 0.07267 0.02592 0.0
O292 O 0.56901 0.03454 0.01719 0.0
O293 O 0.58428 0.06785 0.0156 0.0
C294 C 0.2276 0.35882 0.34658 0.0
O295 O 0.23648 0.35916 0.32061 0.0
Cd296 Cd 0.23453 0.34917 0.25966 0.0
O297 O 0.21602 0.35368 0.34016 0.0
Cd298 Cd 0.20394 0.34377 0.28371 0.0
C299 C 0.22489 0.31706 0.28848 0.0
O300 O 0.21405 0.35718 0.23382 0.0
O301 O 0.20509 0.33856 0.21558 0.0
O302 O 0.18543 0.35927 0.29332 0.0
C303 C 0.21044 0.34969 0.20651 0.0
O304 O 0.23339 0.32516 0.27386 0.0
C305 C 0.17614 0.35096 0.28535 0.0
O306 O 0.21306 0.32107 0.29725 0.0
O307 O 0.17964 0.33871 0.28146 0.0
C308 C 0.89399 0.97514 0.60181 0.0
O309 O 0.89239 0.98488 0.57878 0.0
Cd310 Cd 0.90031 0.98615 0.5156 0.0
O311 O 0.89954 0.96414 0.59123 0.0
Cd312 Cd 0.9077 0.95486 0.52845 0.0
C313 C 0.93363 0.97697 0.53125 0.0
O314 O 0.89144 0.96631 0.48879 0.0
O315 O 0.90858 0.95855 0.45887 0.0
O316 O 0.89492 0.93411 0.53634 0.0
C317 C 0.89705 0.96399 0.45723 0.0
O318 O 0.92486 0.98575 0.52186 0.0
C319 C 0.90407 0.92636 0.52378 0.0
O320 O 0.93021 0.96476 0.53729 0.0
O321 O 0.9155 0.93168 0.51761 0.0
C322 C 0.27507 0.63898 0.85237 0.0
O323 O 0.26593 0.63771 0.82725 0.0
Cd324 Cd 0.26667 0.64563 0.7636 0.0
O325 O 0.28646 0.64418 0.84397 0.0
Cd326 Cd 0.29748 0.65284 0.78442 0.0
C327 C 0.27538 0.67875 0.78339 0.0
O328 O 0.28725 0.63751 0.7392 0.0
O329 O 0.29605 0.65533 0.71511 0.0
O330 O 0.31752 0.6394 0.79583 0.0
C331 C 0.29059 0.64397 0.70962 0.0
O332 O 0.26701 0.67004 0.77105 0.0
C333 C 0.32582 0.64839 0.78533 0.0
O334 O 0.28735 0.67532 0.7927 0.0
O335 O 0.32104 0.66009 0.77936 0.0
C336 C 0.39076 0.02516 0.60441 0.0
O337 O 0.39014 0.01535 0.58133 0.0
Cd338 Cd 0.39967 0.01432 0.51996 0.0
O339 O 0.39617 0.03631 0.5945 0.0
Cd340 Cd 0.40602 0.04548 0.53351 0.0
C341 C 0.43228 0.02414 0.54288 0.0
O342 O 0.39163 0.03377 0.48875 0.0
O343 O 0.41044 0.0407 0.466 0.0
O344 O 0.39196 0.06551 0.53666 0.0
C345 C 0.39896 0.03556 0.45983 0.0
O346 O 0.42392 0.01529 0.53143 0.0
C347 C 0.40099 0.07373 0.52601 0.0
O348 O 0.42853 0.03629 0.54848 0.0
O349 O 0.41286 0.06907 0.52289 0.0
C350 C 0.72769 0.64189 0.34958 0.0
O351 O 0.73725 0.64049 0.32597 0.0
Cd352 Cd 0.73747 0.64864 0.26256 0.0
O353 O 0.71651 0.64718 0.33937 0.0
Cd354 Cd 0.70615 0.6555 0.27842 0.0
C355 C 0.72774 0.6818 0.27991 0.0
O356 O 0.71744 0.64031 0.23518 0.0
O357 O 0.70866 0.65786 0.20926 0.0
O358 O 0.68702 0.64083 0.28849 0.0
C359 C 0.7145 0.64662 0.20497 0.0
O360 O 0.73643 0.67305 0.26988 0.0
C361 C 0.67811 0.64917 0.27768 0.0
O362 O 0.71559 0.67837 0.28695 0.0
O363 O 0.68206 0.66116 0.27147 0.0
C364 C 0.10368 0.97786 0.08166 0.0
O365 O 0.10443 0.98637 0.05474 0.0
Cd366 Cd 0.09706 0.9834 -0.00873 0.0
O367 O 0.09917 0.96598 0.07559 0.0
Cd368 Cd 0.0909 0.95321 0.01813 0.0
C369 C 0.06421 0.97416 0.01125 0.0
O370 O 0.10644 0.96264 0.97228 0.0
O371 O 0.08906 0.9528 0.94853 0.0
O372 O 0.10482 0.93383 0.03383 0.0
C373 C 0.10047 0.95813 0.94309 0.0
O374 O 0.0727 0.98244 -0.00254 0.0
C375 C 0.09626 0.92507 0.02335 0.0
O376 O 0.06798 0.96262 0.02334 0.0
O377 O 0.08447 0.92935 0.01591 0.0
C378 C 0.77239 0.35986 0.84001 0.0
O379 O 0.76377 0.36053 0.8133 0.0
Cd380 Cd 0.76613 0.35208 0.75084 0.0
O381 O 0.78402 0.35474 0.83427 0.0
Cd382 Cd 0.79601 0.34501 0.77784 0.0
C383 C 0.77403 0.31919 0.77529 0.0
O384 O 0.78721 0.3603 0.73023 0.0
O385 O 0.79518 0.3416 0.70912 0.0
O386 O 0.81613 0.35816 0.79034 0.0
C387 C 0.79096 0.35337 0.70197 0.0
O388 O 0.76608 0.32772 0.76 0.0
C389 C 0.82434 0.34901 0.78037 0.0
O390 O 0.78565 0.32275 0.78713 0.0
O391 O 0.81944 0.33735 0.77489 0.0
C392 C 0.39036 0.97929 0.98641 0.0
O393 O 0.39031 0.98767 0.01373 0.0
Cd394 Cd 0.39815 0.98398 0.07674 0.0
O395 O 0.39439 0.96719 -0.00849 0.0
Cd396 Cd 0.40319 0.95382 0.04693 0.0
C397 C 0.43039 0.97412 0.05156 0.0
O398 O 0.38912 0.96312 0.09672 0.0
O399 O 0.4074 0.95359 0.11551 0.0
O400 O 0.38848 0.93485 0.03364 0.0
C401 C 0.3962 0.95885 0.12419 0.0
O402 O 0.42242 0.98231 0.06807 0.0
C403 C 0.39725 0.92582 0.04021 0.0
O404 O 0.42605 0.963 0.038 0.0
O405 O 0.40929 0.92982 0.04514 0.0
C406 C 0.77429 0.64306 0.73138 0.0
O407 O 0.76546 0.64154 0.75716 0.0
Cd408 Cd 0.76692 0.64948 0.82055 0.0
O409 O 0.78565 0.64852 0.7389 0.0
Cd410 Cd 0.79743 0.65705 0.79773 0.0
C411 C 0.77529 0.68286 0.80191 0.0
O412 O 0.78786 0.64113 0.84209 0.0
O413 O 0.79692 0.65856 0.86761 0.0
O414 O 0.81711 0.6436 0.78285 0.0
C415 C 0.7916 0.64708 0.87213 0.0
O416 O 0.76703 0.67395 0.81362 0.0
C417 C 0.82568 0.65231 0.79354 0.0
O418 O 0.78726 0.67965 0.79227 0.0
O419 O 0.82116 0.66398 0.80126 0.0
C420 C 0.10655 0.02003 0.46979 0.0
O421 O 0.10777 0.01025 0.49294 0.0
Cd422 Cd 0.10504 0.0091 0.55976 0.0
O423 O 0.10342 0.03184 0.48145 0.0
Cd424 Cd 0.0981 0.04179 0.54583 0.0
C425 C 0.07187 0.01974 0.55899 0.0
O426 O 0.11521 0.02927 0.57915 0.0
O427 O 0.1014 0.03976 0.61519 0.0
O428 O 0.11018 0.06284 0.53506 0.0
C429 C 0.11174 0.03235 0.61259 0.0
O430 O 0.08071 0.01075 0.56594 0.0
C431 C 0.10096 0.07036 0.54833 0.0
O432 O 0.07533 0.03162 0.54901 0.0
O433 O 0.08981 0.06472 0.55609 0.0
C434 C 0.73028 0.35792 0.22371 0.0
O435 O 0.74 0.35801 0.24729 0.0
Cd436 Cd 0.7398 0.35043 0.3109 0.0
O437 O 0.7186 0.35382 0.23365 0.0
Cd438 Cd 0.70824 0.34536 0.29436 0.0
C439 C 0.72844 0.31801 0.29301 0.0
O440 O 0.72023 0.36032 0.33632 0.0
O441 O 0.71195 0.34285 0.36349 0.0
O442 O 0.68891 0.36003 0.28606 0.0
C443 C 0.71783 0.35411 0.36693 0.0
O444 O 0.73751 0.32609 0.30476 0.0
C445 C 0.68018 0.35156 0.2971 0.0
O446 O 0.71671 0.32229 0.28423 0.0
O447 O 0.6843 0.3396 0.30287 0.0
H448 H 0.95093 0.53494 0.02695 0.0
H449 H 0.9743 0.52696 0.02672 0.0
H450 H 0.96076 0.48714 -0.00398 0.0
H451 H 0.93749 0.49494 -0.0038 0.0
H452 H 0.97878 0.48642 0.05433 0.0
H453 H 0.97547 0.50656 0.93056 0.0
H454 H 0.97053 0.52459 0.88421 0.0
H455 H 0.00025 0.5499 0.93703 0.0
H456 H 0.00523 0.53208 0.98407 0.0
H457 H 0.04399 0.45949 0.01315 0.0
H458 H 0.02048 0.46674 0.00595 0.0
H459 H 0.03181 0.50733 0.03575 0.0
H460 H 0.05516 0.50027 0.0428 0.0
H461 H 0.01471 0.507 0.97536 0.0
H462 H 0.01725 0.48735 0.1007 0.0
H463 H 0.02214 0.46945 0.1475 0.0
H464 H 0.99379 0.44333 0.09188 0.0
H465 H 0.98886 0.46103 0.04439 0.0
C466 C 0.95293 0.52451 0.01996 0.0
C467 C 0.94231 0.5156 0.01164 0.0
C468 C 0.96629 0.51997 0.01974 0.0
C469 C 0.96926 0.50646 0.0112 0.0
C470 C 0.95869 0.49759 0.00275 0.0
C471 C 0.94538 0.50211 0.00277 0.0
C472 C 0.98334 0.50144 0.01191 0.0
C473 C 0.9866 0.49079 0.03664 0.0
C474 C 0.99358 0.5073 -0.01066 0.0
C475 C 0.99063 0.51803 0.96108 0.0
C476 C 0.98087 0.51602 0.9325 0.0
C477 C 0.97808 0.52619 0.90606 0.0
C478 C 0.98505 0.5384 0.90774 0.0
C479 C 0.99485 0.54044 0.9358 0.0
C480 C 0.99767 0.53031 0.96234 0.0
C481 C 0.04147 0.46996 0.01804 0.0
C482 C 0.05146 0.47926 0.02876 0.0
C483 C 0.02804 0.47408 0.01401 0.0
C484 C 0.02439 0.48757 0.02057 0.0
C485 C 0.03439 0.49689 0.03051 0.0
C486 C 0.04775 0.49279 0.03472 0.0
C487 C 0.01015 0.49203 0.0179 0.0
C488 C 0.00687 0.50258 -0.00715 0.0
C489 C -0.00012 0.4861 0.04021 0.0
C490 C 0.00281 0.47545 0.06874 0.0
C491 C 0.01215 0.47775 0.09825 0.0
C492 C 0.01491 0.46764 0.12494 0.0
C493 C 0.00831 0.45524 0.12259 0.0
C494 C 0.99891 0.45293 0.09361 0.0
C495 C 0.99612 0.463 0.06682 0.0
H496 H 0.01046 0.44744 0.14329 0.0
H497 H 0.98288 0.54626 0.88723 0.0
H498 H 0.74971 0.80962 0.31128 0.0
H499 H 0.74158 0.78658 0.30711 0.0
H500 H 0.78222 0.77246 0.29003 0.0
H501 H 0.79047 0.79573 0.29307 0.0
H502 H 0.76553 0.7601 0.2426 0.0
H503 H 0.76568 0.7681 0.37776 0.0
H504 H 0.7605 0.78057 0.4367 0.0
H505 H 0.71817 0.77724 0.41313 0.0
H506 H 0.72311 0.76468 0.35406 0.0
H507 H 0.75341 0.69143 0.27713 0.0
H508 H 0.76097 0.71465 0.28164 0.0
H509 H 0.71985 0.7279 0.29476 0.0
H510 H 0.71214 0.70444 0.29107 0.0
H511 H 0.73636 0.74082 0.34359 0.0
H512 H 0.7366 0.73155 0.20935 0.0
H513 H 0.74223 0.71872 0.15135 0.0
H514 H 0.7844 0.72445 0.17345 0.0
H515 H 0.77902 0.73716 0.23188 0.0
C516 C 0.75698 0.80165 0.30677 0.0
C517 C 0.77079 0.80455 0.30272 0.0
C518 C 0.75229 0.78843 0.30458 0.0
C519 C 0.7613 0.77772 0.29898 0.0
C520 C 0.77508 0.78055 0.29455 0.0
C521 C 0.77979 0.79385 0.29638 0.0
C522 C 0.75622 0.76364 0.29707 0.0
C523 C 0.75933 0.75582 0.26496 0.0
C524 C 0.74779 0.75815 0.32571 0.0
C525 C 0.74477 0.76556 0.36137 0.0
C526 C 0.75527 0.77009 0.38507 0.0
C527 C 0.75238 0.77717 0.4185 0.0
C528 C 0.73902 0.77979 0.42853 0.0
C529 C 0.72852 0.77523 0.40529 0.0
C530 C 0.73135 0.76809 0.37191 0.0
C531 C 0.74591 0.69924 0.28093 0.0
C532 C 0.73212 0.69604 0.28345 0.0
C533 C 0.75028 0.71256 0.28334 0.0
C534 C 0.74097 0.72307 0.28778 0.0
C535 C 0.72721 0.71995 0.29109 0.0
C536 C 0.72281 0.70654 0.28893 0.0
C537 C 0.74574 0.73726 0.28922 0.0
C538 C 0.74255 0.74511 0.32121 0.0
C539 C 0.75414 0.74275 0.26052 0.0
C540 C 0.7574 0.73522 0.22517 0.0
C541 C 0.74707 0.73 0.20198 0.0
C542 C 0.75022 0.72276 0.169 0.0
C543 C 0.76367 0.72075 0.15877 0.0
C544 C 0.77399 0.72601 0.18143 0.0
C545 C 0.7709 0.73325 0.21445 0.0
H546 H 0.76608 0.71513 0.13324 0.0
H547 H 0.73681 0.78531 0.45438 0.0
H548 H 0.45422 0.5369 0.5499 0.0
H549 H 0.47801 0.53034 0.54953 0.0
H550 H 0.46777 0.49228 0.60122 0.0
H551 H 0.44412 0.49879 0.60238 0.0
H552 H 0.49075 0.50176 0.63073 0.0
H553 H 0.4723 0.49483 0.50536 0.0
H554 H 0.46058 0.50142 0.44614 0.0
H555 H 0.49082 0.53133 0.42417 0.0
H556 H 0.50262 0.52504 0.48358 0.0
H557 H 0.5494 0.46438 0.57475 0.0
H558 H 0.52623 0.47227 0.58431 0.0
H559 H 0.53664 0.51066 0.53489 0.0
H560 H 0.55961 0.50291 0.52497 0.0
H561 H 0.51365 0.50111 0.50517 0.0
H562 H 0.5325 0.50731 0.63041 0.0
H563 H 0.54411 0.50031 0.68942 0.0
H564 H 0.5131 0.47118 0.71125 0.0
H565 H 0.5014 0.47789 0.65205 0.0
C566 C 0.45705 0.52721 0.56166 0.0
C567 C 0.44723 0.51833 0.5758 0.0
C568 C 0.47065 0.52345 0.56127 0.0
C569 C 0.47463 0.51072 0.57477 0.0
C570 C 0.46493 0.50212 0.59055 0.0
C571 C 0.45138 0.50587 0.59102 0.0
C572 C 0.48876 0.50601 0.57073 0.0
C573 C 0.49572 0.5015 0.60323 0.0
C574 C 0.49531 0.50581 0.53492 0.0
C575 C 0.48826 0.50957 0.49911 0.0
C576 C 0.47639 0.50288 0.48805 0.0
C577 C 0.46974 0.50655 0.45443 0.0
C578 C 0.47493 0.51681 0.43146 0.0
C579 C 0.4868 0.5234 0.44202 0.0
C580 C 0.49348 0.51979 0.47565 0.0
C581 C 0.54676 0.47451 0.56605 0.0
C582 C 0.55639 0.48299 0.54906 0.0
C583 C 0.53353 0.47902 0.57167 0.0
C584 C 0.52974 0.49209 0.56049 0.0
C585 C 0.53934 0.50054 0.54367 0.0
C586 C 0.5525 0.49608 0.53812 0.0
C587 C 0.51569 0.49694 0.56519 0.0
C588 C 0.50871 0.50142 0.53272 0.0
C589 C 0.50913 0.49705 0.60098 0.0
C590 C 0.51615 0.49301 0.63659 0.0
C591 C 0.52822 0.49934 0.64762 0.0
C592 C 0.5348 0.49544 0.68114 0.0
C593 C 0.52936 0.48528 0.70401 0.0
C594 C 0.51731 0.47903 0.69347 0.0
C595 C 0.51069 0.48289 0.65995 0.0
H596 H 0.53447 0.48228 0.72996 0.0
H597 H 0.46976 0.51963 0.40544 0.0
H598 H 0.71235 0.20471 0.78935 0.0
H599 H 0.72009 0.22807 0.78478 0.0
H600 H 0.75851 0.21661 0.83241 0.0
H601 H 0.75087 0.19334 0.83746 0.0
H602 H 0.74967 0.24016 0.86243 0.0
H603 H 0.75532 0.22097 0.73747 0.0
H604 H 0.74801 0.20914 0.67926 0.0
H605 H 0.71845 0.23984 0.65793 0.0
H606 H 0.72553 0.25181 0.7163 0.0
H607 H 0.78773 0.2977 0.80631 0.0
H608 H 0.77952 0.27461 0.81446 0.0
H609 H 0.74153 0.28581 0.76359 0.0
H610 H 0.74965 0.30873 0.75479 0.0
H611 H 0.75003 0.26241 0.7357 0.0
H612 H 0.74467 0.28192 0.86005 0.0
H613 H 0.75211 0.29383 0.91806 0.0
H614 H 0.78103 0.26264 0.94066 0.0
H615 H 0.77386 0.25062 0.88248 0.0
C616 C 0.72241 0.20718 0.79915 0.0
C617 C 0.73101 0.19712 0.81355 0.0
C618 C 0.72683 0.22052 0.79636 0.0
C619 C 0.73994 0.22404 0.80783 0.0
C620 C 0.74837 0.21411 0.82334 0.0
C621 C 0.74398 0.20079 0.82607 0.0
C622 C 0.74504 0.23797 0.80272 0.0
C623 C 0.74988 0.24498 0.83467 0.0
C624 C 0.7451 0.24434 0.76661 0.0
C625 C 0.74086 0.2372 0.73144 0.0
C626 C 0.74719 0.22514 0.72051 0.0
C627 C 0.7431 0.21842 0.68746 0.0
C628 C 0.73273 0.2237 0.66496 0.0
C629 C 0.72646 0.23575 0.67542 0.0
C630 C 0.73052 0.24252 0.70845 0.0
C631 C 0.77764 0.29524 0.7968 0.0
C632 C 0.76935 0.3051 0.77996 0.0
C633 C 0.77294 0.28206 0.80163 0.0
C634 C 0.75985 0.27852 0.78998 0.0
C635 C 0.75165 0.2883 0.77279 0.0
C636 C 0.75633 0.30143 0.76788 0.0
C637 C 0.75464 0.26464 0.79543 0.0
C638 C 0.74979 0.25762 0.76351 0.0
C639 C 0.75456 0.25829 0.83158 0.0
C640 C 0.75882 0.26544 0.86672 0.0
C641 C 0.75268 0.27765 0.87724 0.0
C642 C 0.75684 0.28441 0.91018 0.0
C643 C 0.76707 0.27901 0.93297 0.0
C644 C 0.77312 0.26682 0.92294 0.0
C645 C 0.76901 0.26002 0.89002 0.0
H646 H 0.77027 0.28427 0.95845 0.0
H647 H 0.72958 0.21847 0.63938 0.0
H648 H 0.04813 0.53619 0.5538 0.0
H649 H 0.0249 0.52834 0.56181 0.0
H650 H 0.03508 0.4909 0.50661 0.0
H651 H 0.05813 0.49865 0.4981 0.0
H652 H 0.01157 0.5006 0.48043 0.0
H653 H 0.03226 0.49272 0.60271 0.0
H654 H 0.04477 0.49923 0.66067 0.0
H655 H 0.01377 0.52763 0.68924 0.0
H656 H 0.00117 0.52143 0.63111 0.0
H657 H 0.95421 0.46197 0.53103 0.0
H658 H 0.9775 0.46984 0.52556 0.0
H659 H 0.96686 0.50673 0.58296 0.0
H660 H 0.94371 0.49892 0.58912 0.0
H661 H 0.99054 0.49757 0.60835 0.0
H662 H 0.96996 0.5057 0.4863 0.0
H663 H 0.95758 0.49968 0.42771 0.0
H664 H 0.98841 0.4712 0.39842 0.0
H665 H 0.0009 0.47692 0.45713 0.0
C666 C 0.04541 0.52631 0.54328 0.0
C667 C 0.05502 0.51805 0.52543 0.0
C668 C 0.03214 0.52181 0.54802 0.0
C669 C 0.0283 0.50897 0.53511 0.0
C670 C 0.03782 0.50083 0.51679 0.0
C671 C 0.05103 0.50529 0.51209 0.0
C672 C 0.01438 0.5039 0.54062 0.0
C673 C 0.00703 0.49979 0.50845 0.0
C674 C 0.00837 0.50311 0.5771 0.0
C675 C 0.01584 0.50671 0.61234 0.0
C676 C 0.02816 0.50042 0.62121 0.0
C677 C 0.03526 0.50405 0.65411 0.0
C678 C 0.03009 0.51386 0.67856 0.0
C679 C 0.01778 0.52004 0.67024 0.0
C680 C 0.01064 0.51647 0.63733 0.0
C681 C 0.95684 0.47172 0.5427 0.0
C682 C 0.94705 0.47984 0.56029 0.0
C683 C 0.97015 0.47623 0.53942 0.0
C684 C 0.97388 0.48896 0.55343 0.0
C685 C 0.96421 0.49689 0.5719 0.0
C686 C 0.95095 0.49241 0.57525 0.0
C687 C 0.98775 0.4942 0.54815 0.0
C688 C 0.99509 0.49837 0.58034 0.0
C689 C 0.99376 0.49508 0.51166 0.0
C690 C 0.98629 0.49164 0.47631 0.0
C691 C 0.97405 0.49808 0.46752 0.0
C692 C 0.96702 0.49473 0.43426 0.0
C693 C 0.97219 0.48503 0.40941 0.0
C694 C 0.98441 0.47869 0.41772 0.0
C695 C 0.99147 0.48199 0.45097 0.0
H696 H 0.96673 0.48246 0.38367 0.0
H697 H 0.03561 0.51667 0.70399 0.0
H698 H 0.74943 0.69196 0.80523 0.0
H699 H 0.74143 0.71512 0.80172 0.0
H700 H 0.78228 0.72916 0.78922 0.0
H701 H 0.79046 0.70583 0.79253 0.0
H702 H 0.76724 0.74394 0.84298 0.0
H703 H 0.76352 0.73094 0.71227 0.0
H704 H 0.75739 0.71643 0.65818 0.0
H705 H 0.71573 0.71836 0.69068 0.0
H706 H 0.72166 0.7331 0.7449 0.0
H707 H 0.75275 0.80988 0.77835 0.0
H708 H 0.76045 0.78671 0.78456 0.0
H709 H 0.71935 0.77326 0.79573 0.0
H710 H 0.71145 0.79661 0.78949 0.0
H711 H 0.73431 0.7581 0.74399 0.0
H712 H 0.73886 0.77375 0.87253 0.0
H713 H 0.74613 0.78921 0.92355 0.0
H714 H 0.78751 0.78259 0.89352 0.0
H715 H 0.78048 0.76723 0.84192 0.0
C716 C 0.75676 0.69993 0.8017 0.0
C717 C 0.77061 0.69702 0.79916 0.0
C718 C 0.75214 0.71318 0.79955 0.0
C719 C 0.76125 0.72385 0.795 0.0
C720 C 0.77509 0.72105 0.79272 0.0
C721 C 0.77974 0.70773 0.79446 0.0
C722 C 0.75617 0.73788 0.79301 0.0
C723 C 0.76018 0.74711 0.82106 0.0
C724 C 0.74672 0.7419 0.76498 0.0
C725 C 0.74305 0.73298 0.7328 0.0
C726 C 0.75306 0.72818 0.70803 0.0
C727 C 0.74962 0.71994 0.67729 0.0
C728 C 0.73618 0.71634 0.67112 0.0
C729 C 0.72614 0.72111 0.69555 0.0
C730 C 0.72953 0.72947 0.72619 0.0
C731 C 0.74529 0.80205 0.78219 0.0
C732 C 0.73145 0.80513 0.78339 0.0
C733 C 0.74974 0.78879 0.78596 0.0
C734 C 0.74049 0.77829 0.79101 0.0
C735 C 0.72666 0.78125 0.79202 0.0
C736 C 0.72217 0.79458 0.78852 0.0
C737 C 0.74536 0.76421 0.79399 0.0
C738 C 0.7413 0.75494 0.76609 0.0
C739 C 0.75486 0.76022 0.82202 0.0
C740 C 0.75913 0.76943 0.85312 0.0
C741 C 0.74951 0.77567 0.87659 0.0
C742 C 0.75359 0.7844 0.90566 0.0
C743 C 0.76727 0.7869 0.91172 0.0
C744 C 0.77691 0.78065 0.88877 0.0
C745 C 0.77289 0.77192 0.85963 0.0
H746 H 0.77041 0.79366 0.93425 0.0
H747 H 0.73354 0.70992 0.64733 0.0
H748 H 0.55222 0.50016 0.05004 0.0
H749 H 0.52923 0.4933 0.03622 0.0
H750 H 0.52083 0.53249 -0.01134 0.0
H751 H 0.54403 0.53957 0.00267 0.0
H752 H 0.50061 0.52339 0.03647 0.0
H753 H 0.52522 0.5065 0.92976 0.0
H754 H 0.54362 0.49442 0.89731 0.0
H755 H 0.53165 0.45751 0.95139 0.0
H756 H 0.5133 0.46941 0.98462 0.0
H757 H 0.43762 0.50212 0.96429 0.0
H758 H 0.46071 0.51047 0.96562 0.0
H759 H 0.47423 0.47265 0.01264 0.0
H760 H 0.45112 0.46408 0.01091 0.0
H761 H 0.49178 0.48233 0.95967 0.0
H762 H 0.46856 0.49921 0.06986 0.0
H763 H 0.45021 0.51092 0.10346 0.0
H764 H 0.45975 0.54759 0.04446 0.0
H765 H 0.47802 0.53601 0.00988 0.0
C766 C 0.54555 0.50739 0.03665 0.0
C767 C 0.55004 0.52043 0.02732 0.0
C768 C 0.53239 0.5034 0.02859 0.0
C769 C 0.52338 0.5123 0.01086 0.0
C770 C 0.52767 0.52543 0.00216 0.0
C771 C 0.54092 0.52945 0.01015 0.0
C772 C 0.50947 0.50779 0.00206 0.0
C773 C 0.49864 0.51458 0.01903 0.0
C774 C 0.50696 0.4961 0.98006 0.0
C775 C 0.51794 0.48888 0.95991 0.0
C776 C 0.52657 0.49583 0.93496 0.0
C777 C 0.53698 0.48901 0.91639 0.0
C778 C 0.53882 0.47521 0.92234 0.0
C779 C 0.53022 0.4682 0.94682 0.0
C780 C 0.5198 0.47497 0.96549 0.0
C781 C 0.4455 0.49548 0.97451 0.0
C782 C 0.44247 0.48244 -0.01221 0.0
C783 C 0.4587 0.50032 0.97538 0.0
C784 C 0.46915 0.49227 -0.01017 0.0
C785 C 0.46629 0.47905 0.00151 0.0
C786 C 0.45307 0.47417 0.00056 0.0
C787 C 0.48293 0.49785 -0.00562 0.0
C788 C 0.49373 0.49124 0.9767 0.0
C789 C 0.48543 0.50967 0.01587 0.0
C790 C 0.47456 0.5167 0.03696 0.0
C791 C 0.46668 0.50974 0.06382 0.0
C792 C 0.4563 0.51636 0.08308 0.0
C793 C 0.45379 0.52999 0.07606 0.0
C794 C 0.46169 0.53703 0.04982 0.0
C795 C 0.47206 0.53044 0.03037 0.0
H796 H 0.44575 0.5351 0.09099 0.0
H797 H 0.54689 0.46995 0.90794 0.0
H798 H 0.75181 0.30566 0.31429 0.0
H799 H 0.75834 0.2823 0.30467 0.0
H800 H 0.71997 0.27413 0.25165 0.0
H801 H 0.71319 0.29764 0.26166 0.0
H802 H 0.72732 0.25422 0.30078 0.0
H803 H 0.74793 0.27796 0.19739 0.0
H804 H 0.76157 0.29578 0.16732 0.0
H805 H 0.7964 0.28256 0.22977 0.0
H806 H 0.78293 0.26477 0.26065 0.0
H807 H 0.74662 0.19129 0.22499 0.0
H808 H 0.73962 0.21476 0.22939 0.0
H809 H 0.77707 0.22475 0.28511 0.0
H810 H 0.78427 0.2012 0.28057 0.0
H811 H 0.76973 0.24371 0.23218 0.0
H812 H 0.74904 0.22058 0.33711 0.0
H813 H 0.7355 0.20279 0.36768 0.0
H814 H 0.70087 0.21492 0.30256 0.0
H815 H 0.71427 0.23267 0.27119 0.0
C816 C 0.7447 0.29894 0.3006 0.0
C817 C 0.73199 0.30358 0.28848 0.0
C818 C 0.7485 0.28557 0.29499 0.0
C819 C 0.73975 0.27653 0.27681 0.0
C820 C 0.72691 0.28098 0.26554 0.0
C821 C 0.72306 0.29441 0.27125 0.0
C822 C 0.74411 0.26245 0.26978 0.0
C823 C 0.73646 0.2519 0.28521 0.0
C824 C 0.75623 0.25946 0.25026 0.0
C825 C 0.76439 0.2701 0.23157 0.0
C826 C 0.75848 0.27891 0.20493 0.0
C827 C 0.76618 0.289 0.1877 0.0
C828 C 0.77984 0.29032 0.19669 0.0
C829 C 0.78582 0.28153 0.22286 0.0
C830 C 0.77816 0.27144 0.2402 0.0
C831 C 0.75345 0.19846 0.23796 0.0
C832 C 0.76599 0.19431 0.25271 0.0
C833 C 0.74939 0.21188 0.24057 0.0
C834 C 0.75772 0.22145 0.25815 0.0
C835 C 0.77046 0.21749 0.27159 0.0
C836 C 0.77455 0.20403 0.26899 0.0
C837 C 0.75296 0.2355 0.2633 0.0
C838 C 0.76054 0.24603 0.24756 0.0
C839 C 0.74079 0.23848 0.28255 0.0
C840 C 0.7327 0.22786 0.30152 0.0
C841 C 0.73857 0.21938 0.32909 0.0
C842 C 0.73091 0.20932 0.3466 0.0
C843 C 0.71734 0.2077 0.33699 0.0
C844 C 0.71139 0.21617 0.30993 0.0
C845 C 0.71901 0.22624 0.2923 0.0
H846 H 0.71143 0.19991 0.35058 0.0
H847 H 0.78579 0.29813 0.18332 0.0
H848 H 0.25406 0.3043 0.82946 0.0
H849 H 0.24612 0.28135 0.81987 0.0
H850 H 0.27704 0.27486 0.73567 0.0
H851 H 0.28516 0.298 0.74521 0.0
H852 H 0.25116 0.26636 0.71223 0.0
H853 H 0.28081 0.26038 0.81814 0.0
H854 H 0.29054 0.26519 0.8814 0.0
H855 H 0.25241 0.25693 0.934 0.0
H856 H 0.24239 0.25226 0.87095 0.0
H857 H 0.24373 0.19484 0.70645 0.0
H858 H 0.25168 0.21803 0.71124 0.0
H859 H 0.22192 0.22612 0.79766 0.0
H860 H 0.21383 0.20284 0.79297 0.0
H861 H 0.24784 0.23366 0.81889 0.0
H862 H 0.21815 0.23988 0.71268 0.0
H863 H 0.20848 0.23506 0.64935 0.0
H864 H 0.24681 0.24274 0.5972 0.0
H865 H 0.25677 0.24742 0.66033 0.0
C866 C 0.25924 0.29801 0.80897 0.0
C867 C 0.27025 0.30299 0.78804 0.0
C868 C 0.25471 0.28487 0.80365 0.0
C869 C 0.26102 0.2764 0.77722 0.0
C870 C 0.27204 0.28126 0.75625 0.0
C871 C 0.27671 0.29444 0.76187 0.0
C872 C 0.25582 0.26257 0.77127 0.0
C873 C 0.25064 0.2591 0.73533 0.0
C874 C 0.25484 0.25328 0.80174 0.0
C875 C 0.26081 0.25609 0.83975 0.0
C876 C 0.27447 0.25971 0.84315 0.0
C877 C 0.28004 0.26238 0.87899 0.0
C878 C 0.27209 0.2614 0.91169 0.0
C879 C 0.25855 0.2577 0.90863 0.0
C880 C 0.25292 0.25502 0.87285 0.0
C881 C 0.23873 0.20159 0.72613 0.0
C882 C 0.22817 0.19699 0.74944 0.0
C883 C 0.24327 0.21486 0.72873 0.0
C884 C 0.23738 0.22379 0.75477 0.0
C885 C 0.22659 0.21936 0.77738 0.0
C886 C 0.22194 0.20609 0.77451 0.0
C887 C 0.24308 0.23747 0.75992 0.0
C888 C 0.24837 0.24089 0.79574 0.0
C889 C 0.24419 0.24669 0.72932 0.0
C890 C 0.23824 0.24386 0.6913 0.0
C891 C 0.22455 0.24041 0.68776 0.0
C892 C 0.21901 0.23773 0.65188 0.0
C893 C 0.22703 0.23855 0.61928 0.0
C894 C 0.24061 0.24209 0.62249 0.0
C895 C 0.24621 0.24477 0.65831 0.0
H896 H 0.22272 0.23648 0.59153 0.0
H897 H 0.27643 0.26347 0.93941 0.0
H898 H 0.24218 0.81079 0.25678 0.0
H899 H 0.23518 0.78732 0.26213 0.0
H900 H 0.27673 0.77501 0.27089 0.0
H901 H 0.28389 0.79859 0.26578 0.0
H902 H 0.26168 0.75945 0.21972 0.0
H903 H 0.25864 0.77503 0.34831 0.0
H904 H 0.25172 0.78977 0.40129 0.0
H905 H 0.21013 0.7815 0.37694 0.0
H906 H 0.2168 0.76685 0.32338 0.0
H907 H 0.25146 0.69302 0.28789 0.0
H908 H 0.25805 0.71649 0.27956 0.0
H909 H 0.21625 0.72815 0.27367 0.0
H910 H 0.2095 0.70455 0.28196 0.0
H911 H 0.2312 0.74411 0.32296 0.0
H912 H 0.23414 0.72922 0.19334 0.0
H913 H 0.24095 0.71464 0.13987 0.0
H914 H 0.28261 0.72151 0.16671 0.0
H915 H 0.27603 0.73618 0.22033 0.0
C916 C 0.24987 0.80312 0.25974 0.0
C917 C 0.26361 0.80658 0.26084 0.0
C918 C 0.24583 0.78971 0.26301 0.0
C919 C 0.25543 0.77945 0.26724 0.0
C920 C 0.26917 0.78281 0.26775 0.0
C921 C 0.27323 0.79627 0.26489 0.0
C922 C 0.25107 0.76523 0.27061 0.0
C923 C 0.25518 0.75604 0.2426 0.0
C924 C 0.24228 0.76091 0.29989 0.0
C925 C 0.23822 0.76994 0.33156 0.0
C926 C 0.24801 0.77647 0.35394 0.0
C927 C 0.24414 0.78479 0.38415 0.0
C928 C 0.2305 0.78657 0.39245 0.0
C929 C 0.2207 0.7801 0.37046 0.0
C930 C 0.22452 0.77179 0.34018 0.0
C931 C 0.24363 0.70054 0.28468 0.0
C932 C 0.22993 0.6969 0.28567 0.0
C933 C 0.24743 0.71395 0.27971 0.0
C934 C 0.23765 0.72404 0.27572 0.0
C935 C 0.22396 0.72049 0.27661 0.0
C936 C 0.22012 0.70701 0.28124 0.0
C937 C 0.2418 0.73834 0.27203 0.0
C938 C 0.23767 0.74753 0.30002 0.0
C939 C 0.25057 0.74268 0.24275 0.0
C940 C 0.25459 0.73368 0.21104 0.0
C941 C 0.24475 0.72753 0.18803 0.0
C942 C 0.24857 0.71929 0.15762 0.0
C943 C 0.26221 0.7171 0.14999 0.0
C944 C 0.27205 0.7232 0.17268 0.0
C945 C 0.26828 0.73151 0.20301 0.0
H946 H 0.26514 0.71071 0.12644 0.0
H947 H 0.22752 0.79291 0.41606 0.0
H948 H 0.28614 0.20343 0.30361 0.0
H949 H 0.27774 0.22666 0.30402 0.0
H950 H 0.23815 0.21238 0.33422 0.0
H951 H 0.2464 0.18926 0.33414 0.0
H952 H 0.23753 0.23021 0.27415 0.0
H953 H 0.25641 0.22764 0.39953 0.0
H954 H 0.27402 0.22315 0.44754 0.0
H955 H 0.2993 0.25326 0.39665 0.0
H956 H 0.28191 0.25779 0.34793 0.0
H957 H 0.20927 0.29535 0.30954 0.0
H958 H 0.2167 0.27199 0.31893 0.0
H959 H 0.2575 0.28356 0.29249 0.0
H960 H 0.25025 0.30675 0.28322 0.0
H961 H 0.25666 0.26682 0.35377 0.0
H962 H 0.23854 0.2684 0.22644 0.0
H963 H 0.22119 0.27279 0.17756 0.0
H964 H 0.19472 0.24444 0.23159 0.0
H965 H 0.21186 0.24002 0.28114 0.0
C966 C 0.27568 0.20524 0.31064 0.0
C967 C 0.26696 0.19445 0.31868 0.0
C968 C 0.27089 0.21852 0.31093 0.0
C969 C 0.25731 0.22123 0.31916 0.0
C970 C 0.24865 0.21051 0.32766 0.0
C971 C 0.25342 0.19728 0.32768 0.0
C972 C 0.25199 0.2352 0.31779 0.0
C973 C 0.24157 0.23817 0.29199 0.0
C974 C 0.25743 0.24563 0.34056 0.0
C975 C 0.26791 0.24296 0.36983 0.0
C976 C 0.26577 0.23322 0.39835 0.0
C977 C 0.27571 0.23068 0.42574 0.0
C978 C 0.28779 0.23789 0.42509 0.0
C979 C 0.28995 0.24767 0.39708 0.0
C980 C 0.28005 0.25023 0.36959 0.0
C981 C 0.21982 0.29292 0.30589 0.0
C982 C 0.22913 0.30293 0.29542 0.0
C983 C 0.22405 0.27956 0.31117 0.0
C984 C 0.23765 0.27602 0.30618 0.0
C985 C 0.24697 0.28605 0.29656 0.0
C986 C 0.24276 0.29932 0.29106 0.0
C987 C 0.24225 0.26184 0.30997 0.0
C988 C 0.25255 0.25883 0.33616 0.0
C989 C 0.23673 0.25137 0.28749 0.0
C990 C 0.22641 0.25401 0.25775 0.0
C991 C 0.22897 0.26319 0.22809 0.0
C992 C 0.21918 0.26567 0.20023 0.0
C993 C 0.20684 0.25893 0.20154 0.0
C994 C 0.20427 0.24967 0.23066 0.0
C995 C 0.21402 0.24717 0.25864 0.0
H996 H 0.19928 0.26085 0.17993 0.0
H997 H 0.29547 0.23592 0.44632 0.0
H998 H 0.29008 0.7008 0.80654 0.0
H999 H 0.28204 0.72398 0.81412 0.0
H1000 H 0.24228 0.71174 0.77836 0.0
H1001 H 0.25022 0.68876 0.77 0.0
H1002 H 0.24899 0.73447 0.74454 0.0
H1003 H 0.25009 0.7175 0.87314 0.0
H1004 H 0.26053 0.70709 0.92985 0.0
H1005 H 0.28936 0.73926 0.93552 0.0
H1006 H 0.27919 0.74977 0.87852 0.0
H1007 H 0.21332 0.79316 0.79978 0.0
H1008 H 0.22098 0.76975 0.79647 0.0
H1009 H 0.26072 0.78201 0.83236 0.0
H1010 H 0.25312 0.80527 0.83661 0.0
H1011 H 0.25399 0.75926 0.86651 0.0
H1012 H 0.25309 0.77608 0.73763 0.0
H1013 H 0.24272 0.7865 0.68086 0.0
H1014 H 0.21361 0.75457 0.67556 0.0
H1015 H 0.22371 0.74405 0.73264 0.0
C1016 C 0.27964 0.70306 0.80024 0.0
C1017 C 0.27081 0.69289 0.78772 0.0
C1018 C 0.27503 0.7163 0.80477 0.0
C1019 C 0.26151 0.71958 0.79721 0.0
C1020 C 0.25275 0.70947 0.78436 0.0
C1021 C 0.25733 0.6963 0.77968 0.0
C1022 C 0.25639 0.73352 0.80229 0.0
C1023 C 0.24994 0.73982 0.77138 0.0
C1024 C 0.25786 0.74063 0.83703 0.0
C1025 C 0.26396 0.73434 0.87135 0.0
C1026 C 0.25872 0.7223 0.88631 0.0
C1027 C 0.26458 0.71639 0.91853 0.0
C1028 C 0.27562 0.72249 0.93621 0.0
C1029 C 0.28082 0.73454 0.92176 0.0
C1030 C 0.275 0.74048 0.88952 0.0
C1031 C 0.22365 0.79086 0.8073 0.0
C1032 C 0.23261 0.80113 0.81822 0.0
C1033 C 0.22804 0.77748 0.8052 0.0
C1034 C 0.2415 0.77415 0.81356 0.0
C1035 C 0.25031 0.78432 0.82568 0.0
C1036 C 0.24593 0.79765 0.828 0.0
C1037 C 0.24656 0.76017 0.80879 0.0
C1038 C 0.25302 0.75389 0.83971 0.0
C1039 C 0.24511 0.75307 0.77404 0.0
C1040 C 0.23907 0.75935 0.73962 0.0
C1041 C 0.24442 0.77133 0.72452 0.0
C1042 C 0.2386 0.77725 0.69226 0.0
C1043 C 0.22749 0.77122 0.67467 0.0
C1044 C 0.2222 0.75924 0.68925 0.0
C1045 C 0.22798 0.75329 0.72153 0.0
H1046 H 0.223 0.77582 0.6497 0.0
H1047 H 0.28014 0.71791 0.96116 0.0
H1048 H 0.45398 0.04008 0.56191 0.0
H1049 H 0.47742 0.03295 0.57088 0.0
H1050 H 0.4661 0.99183 0.54765 0.0
H1051 H 0.44277 0.99877 0.53906 0.0
H1052 H 0.48326 0.99305 0.60701 0.0
H1053 H 0.48087 0.01089 0.47959 0.0
H1054 H 0.47599 0.02803 0.43055 0.0
H1055 H 0.50405 0.05514 0.48345 0.0
H1056 H 0.50897 0.03821 0.53314 0.0
H1057 H 0.54735 0.96506 0.55636 0.0
H1058 H 0.52389 0.97277 0.55751 0.0
H1059 H 0.53716 0.01289 0.58582 0.0
H1060 H 0.5605 0.00535 0.58487 0.0
H1061 H 0.51923 0.0128 0.5265 0.0
H1062 H 0.52251 0.9942 0.65216 0.0
H1063 H 0.52748 0.97674 0.7002 0.0
H1064 H 0.49785 0.95074 0.64977 0.0
H1065 H 0.49283 0.96797 0.60103 0.0
C1066 C 0.45647 0.02952 0.55887 0.0
C1067 C 0.44648 0.02003 0.54953 0.0
C1068 C 0.46988 0.02546 0.5639 0.0
C1069 C 0.47354 0.01186 0.55961 0.0
C1070 C 0.46353 0.00236 0.55114 0.0
C1071 C 0.45018 0.00639 0.54604 0.0
C1072 C 0.4878 0.00748 0.56295 0.0
C1073 C 0.4911 0.99728 0.58917 0.0
C1074 C 0.49809 0.01316 0.54017 0.0
C1075 C 0.49517 0.02334 0.51032 0.0
C1076 C 0.48592 0.02055 0.48095 0.0
C1077 C 0.48316 0.03022 0.453 0.0
C1078 C 0.48968 0.04268 0.45395 0.0
C1079 C 0.49899 0.04549 0.4828 0.0
C1080 C 0.50177 0.03586 0.51084 0.0
C1081 C 0.54527 0.97549 0.56317 0.0
C1082 C 0.55584 0.98458 0.57033 0.0
C1083 C 0.53186 0.97987 0.56389 0.0
C1084 C 0.52879 0.99341 0.57176 0.0
C1085 C 0.5393 0.00242 0.57954 0.0
C1086 C 0.55266 0.99805 0.57905 0.0
C1087 C 0.51467 0.99835 0.57046 0.0
C1088 C 0.5114 0.00862 0.54453 0.0
C1089 C 0.50442 0.9927 0.5934 0.0
C1090 C 0.50739 0.98233 0.6227 0.0
C1091 C 0.51714 0.98471 0.65109 0.0
C1092 C 0.51995 0.97487 0.6785 0.0
C1093 C 0.51301 0.96262 0.67798 0.0
C1094 C 0.50323 0.96022 0.65011 0.0
C1095 C 0.50039 0.97002 0.6226 0.0
H1096 H 0.5152 0.95501 0.69923 0.0
H1097 H 0.48753 0.05016 0.43228 0.0
H1098 H 0.95134 0.03758 0.02621 0.0
H1099 H 0.97416 0.02852 0.01942 0.0
H1100 H 0.95991 0.98918 0.05246 0.0
H1101 H 0.93721 0.99812 0.05979 0.0
H1102 H 0.983 0.99519 0.08831 0.0
H1103 H 0.9664 0.99649 0.95946 0.0
H1104 H 0.9564 0.00706 0.90237 0.0
H1105 H 0.98939 0.03495 0.89682 0.0
H1106 H 0.9995 0.02466 0.95421 0.0
H1107 H 0.04225 0.95919 0.03382 0.0
H1108 H 0.01884 0.96685 0.03912 0.0
H1109 H 0.03065 0.0065 0.00148 0.0
H1110 H 0.05381 0.99892 -0.00476 0.0
H1111 H 0.00834 0.99948 0.96719 0.0
H1112 H 0.02454 0.999 0.09686 0.0
H1113 H 0.03459 0.98883 0.15447 0.0
H1114 H 0.00251 0.95989 0.15903 0.0
H1115 H 0.99235 0.96978 0.10114 0.0
C1116 C 0.95306 0.02701 0.03205 0.0
C1117 C 0.94242 0.01859 0.04346 0.0
C1118 C 0.9661 0.02183 0.02801 0.0
C1119 C 0.9687 0.00814 0.03508 0.0
C1120 C 0.95813 0.99977 0.04685 0.0
C1121 C 0.94513 0.00492 0.05091 0.0
C1122 C 0.98244 0.00249 0.03046 0.0
C1123 C 0.98848 0.99597 0.06167 0.0
C1124 C 0.98968 0.00371 -0.00407 0.0
C1125 C 0.98364 0.00989 0.96135 0.0
C1126 C 0.97147 0.00495 0.94624 0.0
C1127 C 0.96579 0.01088 0.9138 0.0
C1128 C 0.97224 0.0217 0.89604 0.0
C1129 C 0.9844 0.02659 0.91063 0.0
C1130 C 0.99011 0.0207 0.9431 0.0
C1131 C 0.03984 0.96953 0.0266 0.0
C1132 C 0.04993 0.97843 0.01416 0.0
C1133 C 0.02647 0.97391 0.02979 0.0
C1134 C 0.023 0.9873 0.02106 0.0
C1135 C 0.03305 0.99612 0.0083 0.0
C1136 C 0.04633 0.99175 0.00485 0.0
C1137 C 0.00897 0.99228 0.02516 0.0
C1138 C 0.00286 0.99866 -0.00619 0.0
C1139 C 0.00169 0.99098 0.05963 0.0
C1140 C 0.00777 0.98503 0.09444 0.0
C1141 C 0.01969 0.9904 0.10998 0.0
C1142 C 0.02539 0.9847 0.14271 0.0
C1143 C 0.01921 0.9737 0.16033 0.0
C1144 C 0.00729 0.96839 0.14531 0.0
C1145 C 0.00156 0.97405 0.11256 0.0
H1146 H 0.02364 0.9693 0.18568 0.0
H1147 H 0.96783 0.02627 0.87092 0.0
H1148 H 0.55368 0.00207 0.96594 0.0
H1149 H 0.53071 0.99375 0.97253 0.0
H1150 H 0.52138 0.0267 0.04807 0.0
H1151 H 0.54449 0.03511 0.04187 0.0
H1152 H 0.51362 0.00235 0.07714 0.0
H1153 H 0.50874 0.02618 0.95886 0.0
H1154 H 0.51451 0.03237 0.89279 0.0
H1155 H 0.50787 0.99157 0.85686 0.0
H1156 H 0.50224 0.98509 0.92286 0.0
H1157 H 0.44311 0.99551 0.08426 0.0
H1158 H 0.46614 0.00307 0.0745 0.0
H1159 H 0.47332 0.96953 -0.00086 0.0
H1160 H 0.45005 0.96188 0.00847 0.0
H1161 H 0.48245 0.99334 0.96933 0.0
H1162 H 0.48696 0.96947 0.08677 0.0
H1163 H 0.48132 0.96304 0.15274 0.0
H1164 H 0.48891 0.0035 0.1902 0.0
H1165 H 0.49441 0.01023 0.12432 0.0
C1166 C 0.54673 0.00766 0.98368 0.0
C1167 C 0.55095 0.01925 0.00348 0.0
C1168 C 0.53357 0.0029 0.98728 0.0
C1169 C 0.52432 0.00963 0.01066 0.0
C1170 C 0.52838 0.02136 0.02987 0.0
C1171 C 0.54156 0.02619 0.02614 0.0
C1172 C 0.51064 0.00401 0.01648 0.0
C1173 C 0.50672 0.00057 0.05364 0.0
C1174 C 0.50184 0.00124 0.98563 0.0
C1175 C 0.5052 0.00512 0.9459 0.0
C1176 C 0.50862 0.0185 0.93694 0.0
C1177 C 0.51184 0.02207 0.89949 0.0
C1178 C 0.51159 0.01236 0.87067 0.0
C1179 C 0.50808 0.99907 0.87923 0.0
C1180 C 0.50486 0.99545 0.91665 0.0
C1181 C 0.44956 0.98965 0.06574 0.0
C1182 C 0.4447 0.97806 0.04712 0.0
C1183 C 0.46278 0.99398 0.06034 0.0
C1184 C 0.47149 0.98681 0.03637 0.0
C1185 C 0.46675 0.97519 0.01784 0.0
C1186 C 0.45348 0.9708 0.02333 0.0
C1187 C 0.48539 0.99179 0.03004 0.0
C1188 C 0.48937 0.99509 -0.00719 0.0
C1189 C 0.49427 0.99439 0.06081 0.0
C1190 C 0.49098 0.99038 0.10051 0.0
C1191 C 0.48732 0.97703 0.10901 0.0
C1192 C 0.48417 0.97333 0.1464 0.0
C1193 C 0.48473 0.98287 0.17563 0.0
C1194 C 0.48847 0.99613 0.16752 0.0
C1195 C 0.49162 -0.00011 0.13016 0.0
H1196 H 0.48229 0.97998 0.20457 0.0
H1197 H 0.51409 0.01514 0.84168 0.0
H1198 H 0.0496 0.03551 0.54479 0.0
H1199 H 0.02598 0.02834 0.54344 0.0
H1200 H 0.03791 0.98809 0.57519 0.0
H1201 H 0.06141 0.99508 0.57653 0.0
H1202 H 0.02087 0.98807 0.5145 0.0
H1203 H 0.02286 0.00793 0.6388 0.0
H1204 H 0.02753 0.02581 0.68572 0.0
H1205 H 0.999 0.05175 0.62998 0.0
H1206 H 0.99431 0.03408 0.58232 0.0
H1207 H 0.95555 0.96141 0.55049 0.0
H1208 H 0.97894 0.96877 0.55809 0.0
H1209 H 0.96735 0.00945 0.52976 0.0
H1210 H 0.94401 0.00226 0.52255 0.0
H1211 H 0.98426 0.00914 0.58982 0.0
H1212 H 0.9828 0.98957 0.46453 0.0
H1213 H 0.97826 0.97178 0.41719 0.0
H1214 H 0.00594 0.94539 0.47464 0.0
H1215 H 0.01051 0.96297 0.52265 0.0
C1216 C 0.04719 0.02517 0.5518 0.0
C1217 C 0.05744 0.01588 0.56063 0.0
C1218 C 0.03368 0.02109 0.55109 0.0
C1219 C 0.0302 0.00768 0.55924 0.0
C1220 C 0.04038 0.99847 0.56866 0.0
C1221 C 0.05383 0.00253 0.56953 0.0
C1222 C 0.01601 0.00305 0.55668 0.0
C1223 C 0.01289 0.99255 0.53136 0.0
C1224 C 0.00557 0.0091 0.57807 0.0
C1225 C 0.00833 0.01973 0.60675 0.0
C1226 C 0.01766 0.01749 0.63633 0.0
C1227 C 0.0203 0.02758 0.66311 0.0
C1228 C 0.01359 0.03992 0.66078 0.0
C1229 C 0.0042 0.04219 0.63171 0.0
C1230 C 0.00155 0.03214 0.60483 0.0
C1231 C 0.95797 0.97192 0.54586 0.0
C1232 C 0.94788 0.98122 0.53574 0.0
C1233 C 0.97135 0.97611 0.55014 0.0
C1234 C 0.97491 0.98965 0.54419 0.0
C1235 C 0.96484 0.99896 0.53454 0.0
C1236 C 0.95149 0.9948 0.53025 0.0
C1237 C 0.98913 0.99415 0.54762 0.0
C1238 C 0.99225 0.00464 0.57304 0.0
C1239 C 0.99959 0.98811 0.52629 0.0
C1240 C 0.99689 0.97753 0.49741 0.0
C1241 C 0.98784 0.97993 0.46724 0.0
C1242 C 0.98527 0.9699 0.44026 0.0
C1243 C 0.99178 0.95745 0.44297 0.0
C1244 C 0.00089 0.95503 0.47262 0.0
C1245 C 0.00348 0.96503 0.49971 0.0
H1246 H 0.98978 0.94969 0.42205 0.0
H1247 H 0.01564 0.04772 0.68154 0.0
H1248 H 0.10745 0.4621 0.90645 0.0
H1249 H 0.11206 0.47004 0.84142 0.0
H1250 H 0.1207 0.50972 0.88482 0.0
H1251 H 0.11639 0.50198 0.9494 0.0
H1252 H 0.09958 0.50774 0.8275 0.0
H1253 H 0.14551 0.49415 0.8525 0.0
H1254 H 0.16326 0.47802 0.871 0.0
H1255 H 0.15204 0.45215 0.77817 0.0
H1256 H 0.13409 0.46804 0.75944 0.0
H1257 H 0.11162 0.53835 0.6499 0.0
H1258 H 0.11536 0.53165 0.71634 0.0
H1259 H 0.11865 0.49009 0.68144 0.0
H1260 H 0.11556 0.49671 0.61544 0.0
H1261 H 0.13515 0.49389 0.73648 0.0
H1262 H 0.08839 0.50401 0.71501 0.0
H1263 H 0.0689 0.51789 0.69578 0.0
H1264 H 0.07936 0.54743 0.78018 0.0
H1265 H 0.09899 0.53377 0.79968 0.0
C1266 C 0.11058 0.47244 0.90219 0.0
C1267 C 0.11139 0.48142 0.93309 0.0
C1268 C 0.11323 0.47694 0.86511 0.0
C1269 C 0.11665 0.49046 0.85858 0.0
C1270 C 0.11804 0.49926 0.88944 0.0
C1271 C 0.11555 0.49477 0.92634 0.0
C1272 C 0.11749 0.49585 0.81949 0.0
C1273 C 0.10747 0.5049 0.8077 0.0
C1274 C 0.12755 0.49176 0.79362 0.0
C1275 C 0.13837 0.48223 0.80481 0.0
C1276 C 0.14674 0.48496 0.83625 0.0
C1277 C 0.15686 0.47588 0.84673 0.0
C1278 C 0.15875 0.46405 0.82584 0.0
C1279 C 0.15055 0.4613 0.79436 0.0
C1280 C 0.14041 0.47035 0.78378 0.0
C1281 C 0.11336 0.52783 0.6564 0.0
C1282 C 0.11313 0.51806 0.62744 0.0
C1283 C 0.11544 0.524 0.69435 0.0
C1284 C 0.117 0.51032 0.70395 0.0
C1285 C 0.11746 0.50069 0.67482 0.0
C1286 C 0.11561 0.50452 0.63699 0.0
C1287 C 0.11718 0.50581 0.74424 0.0
C1288 C 0.12733 0.49688 0.75631 0.0
C1289 C 0.107 0.5097 0.7702 0.0
C1290 C 0.09524 0.51796 0.75848 0.0
C1291 C 0.08659 0.51352 0.72927 0.0
C1292 C 0.07551 0.52133 0.71836 0.0
C1293 C 0.07293 0.53356 0.73665 0.0
C1294 C 0.0814 0.53797 0.76598 0.0
C1295 C 0.09249 0.53019 0.777 0.0
H1296 H 0.06434 0.53959 0.72818 0.0
H1297 H 0.16659 0.45703 0.83399 0.0
H1298 H 0.71303 0.84989 0.91296 0.0
H1299 H 0.72034 0.85242 0.97943 0.0
H1300 H 0.75389 0.87677 0.94273 0.0
H1301 H 0.74662 0.87446 0.87675 0.0
H1302 H 0.74384 0.84319 0.00758 0.0
H1303 H 0.76276 0.89857 0.01281 0.0
H1304 H 0.75653 0.92076 0.98647 0.0
H1305 H 0.71549 0.90778 0.97441 0.0
H1306 H 0.72142 0.88558 0.00116 0.0
H1307 H 0.78814 0.84921 0.16437 0.0
H1308 H 0.77979 0.85205 0.09893 0.0
H1309 H 0.74655 0.87578 0.14079 0.0
H1310 H 0.75489 0.87323 0.20563 0.0
H1311 H 0.75521 0.88565 0.07489 0.0
H1312 H 0.74292 0.84228 0.12588 0.0
H1313 H 0.74734 0.82006 0.15479 0.0
H1314 H 0.77149 0.80897 0.05835 0.0
H1315 H 0.76737 0.83122 0.02913 0.0
C1316 C 0.72177 0.85605 0.9192 0.0
C1317 C 0.7293 0.86189 0.88963 0.0
C1318 C 0.72598 0.85742 0.9571 0.0
C1319 C 0.73766 0.86478 0.96595 0.0
C1320 C 0.74478 0.87116 0.93662 0.0
C1321 C 0.74063 0.86977 0.89886 0.0
C1322 C 0.74314 0.86487 0.00524 0.0
C1323 C 0.74626 0.85248 0.02235 0.0
C1324 C 0.74627 0.87699 0.02451 0.0
C1325 C 0.74258 0.89036 0.00867 0.0
C1326 C 0.75239 0.90047 0.00468 0.0
C1327 C 0.74892 0.91305 -0.01035 0.0
C1328 C 0.73564 0.91567 0.97866 0.0
C1329 C 0.72579 0.90572 0.98278 0.0
C1330 C 0.72921 0.89313 -0.00218 0.0
C1331 C 0.77923 0.85527 0.15947 0.0
C1332 C 0.77207 0.86083 0.19019 0.0
C1333 C 0.77443 0.85682 0.12215 0.0
C1334 C 0.76241 0.86392 0.11517 0.0
C1335 C 0.7558 0.87022 0.14554 0.0
C1336 C 0.76056 0.86868 0.18265 0.0
C1337 C 0.75605 0.86398 0.07694 0.0
C1338 C 0.75279 0.87638 0.06002 0.0
C1339 C 0.75254 0.85187 0.05813 0.0
C1340 C 0.75495 0.83846 0.07552 0.0
C1341 C 0.74925 0.83514 0.11098 0.0
C1342 C 0.75169 0.82254 0.1274 0.0
C1343 C 0.75972 0.81312 0.10847 0.0
C1344 C 0.7653 0.81628 0.07302 0.0
C1345 C 0.76291 0.82888 0.0565 0.0
H1346 H 0.7616 0.80337 0.12123 0.0
H1347 H 0.73297 0.92541 0.96702 0.0
H1348 H 0.38979 0.50241 0.11523 0.0
H1349 H 0.39012 0.50893 0.182 0.0
H1350 H 0.40031 0.46825 0.21417 0.0
H1351 H 0.40005 0.46152 0.14679 0.0
H1352 H 0.37993 0.48036 0.25961 0.0
H1353 H 0.42441 0.49059 0.21335 0.0
H1354 H 0.44102 0.50076 0.1698 0.0
H1355 H 0.42564 0.54015 0.19523 0.0
H1356 H 0.40881 0.53021 0.23855 0.0
H1357 H 0.40056 0.49272 0.44757 0.0
H1358 H 0.39917 0.48628 0.38092 0.0
H1359 H 0.3951 0.52804 0.34869 0.0
H1360 H 0.39689 0.53467 0.41594 0.0
H1361 H 0.41198 0.51561 0.30256 0.0
H1362 H 0.36776 0.50624 0.34831 0.0
H1363 H 0.35059 0.49676 0.39135 0.0
H1364 H 0.36433 0.45676 0.36595 0.0
H1365 H 0.38171 0.466 0.32314 0.0
C1366 C 0.39205 0.49476 0.13635 0.0
C1367 C 0.39498 0.48142 0.12557 0.0
C1368 C 0.39227 0.49856 0.17454 0.0
C1369 C 0.39542 0.48912 0.20286 0.0
C1370 C 0.39793 0.47568 0.19256 0.0
C1371 C 0.39779 0.47186 0.15413 0.0
C1372 C 0.39618 0.49344 0.24313 0.0
C1373 C 0.38706 0.48791 0.26924 0.0
C1374 C 0.40517 0.50365 0.25513 0.0
C1375 C 0.41527 0.50964 0.22895 0.0
C1376 C 0.42449 0.50141 0.20939 0.0
C1377 C 0.43396 0.50714 0.18479 0.0
C1378 C 0.43437 0.52109 0.1797 0.0
C1379 C 0.4253 0.52935 0.19919 0.0
C1380 C 0.41581 0.52367 0.22379 0.0
C1381 C 0.39931 0.50058 0.42644 0.0
C1382 C 0.39873 0.51423 0.43713 0.0
C1383 C 0.39845 0.49685 0.38827 0.0
C1384 C 0.39674 0.50664 0.35985 0.0
C1385 C 0.39632 0.52031 0.37024 0.0
C1386 C 0.39733 0.52409 0.40861 0.0
C1387 C 0.39575 0.5025 0.31933 0.0
C1388 C 0.40481 0.50807 0.29307 0.0
C1389 C 0.38659 0.49243 0.30709 0.0
C1390 C 0.37612 0.48683 0.33275 0.0
C1391 C 0.36719 0.49542 0.35212 0.0
C1392 C 0.3574 0.49009 0.37644 0.0
C1393 C 0.35639 0.47617 0.38145 0.0
C1394 C 0.36513 0.46754 0.36207 0.0
C1395 C 0.37494 0.47282 0.33773 0.0
H1396 H 0.34881 0.47206 0.4003 0.0
H1397 H 0.44174 0.52552 0.1608 0.0
H1398 H 0.74872 0.13737 0.69778 0.0
H1399 H 0.75419 0.13566 0.63053 0.0
H1400 H 0.71405 0.14856 0.60073 0.0
H1401 H 0.70838 0.15046 0.66876 0.0
H1402 H 0.72594 0.12578 0.5555 0.0
H1403 H 0.73503 0.17127 0.59537 0.0
H1404 H 0.74437 0.18849 0.63849 0.0
H1405 H 0.78425 0.17309 0.6198 0.0
H1406 H 0.77508 0.15562 0.57694 0.0
H1407 H 0.74018 0.14394 0.36544 0.0
H1408 H 0.73283 0.1427 0.43128 0.0
H1409 H 0.77422 0.14048 0.46866 0.0
H1410 H 0.78176 0.14223 0.40227 0.0
H1411 H 0.76101 0.15767 0.51055 0.0
H1412 H 0.7524 0.11248 0.46975 0.0
H1413 H 0.74331 0.09464 0.42814 0.0
H1414 H 0.70307 0.10859 0.44934 0.0
H1415 H 0.71193 0.12663 0.49069 0.0
C1416 C 0.74094 0.13975 0.67714 0.0
C1417 C 0.72813 0.14423 0.68873 0.0
C1418 C 0.74412 0.13874 0.63867 0.0
C1419 C 0.73457 0.14212 0.61088 0.0
C1420 C 0.72154 0.14593 0.62199 0.0
C1421 C 0.71834 0.14704 0.66076 0.0
C1422 C 0.73869 0.14246 0.5705 0.0
C1423 C 0.73343 0.13287 0.54532 0.0
C1424 C 0.74877 0.15147 0.5579 0.0
C1425 C 0.75435 0.16207 0.58322 0.0
C1426 C 0.74578 0.17149 0.60068 0.0
C1427 C 0.75104 0.18131 0.62504 0.0
C1428 C 0.7649 0.18187 0.63197 0.0
C1429 C 0.77351 0.17263 0.61444 0.0
C1430 C 0.76829 0.16278 0.59007 0.0
C1431 C 0.74778 0.14306 0.38754 0.0
C1432 C 0.76159 0.14313 0.37857 0.0
C1433 C 0.74352 0.14228 0.42526 0.0
C1434 C 0.75294 0.14124 0.45492 0.0
C1435 C 0.76676 0.14121 0.44616 0.0
C1436 C 0.77106 0.14218 0.40827 0.0
C1437 C 0.74831 0.14092 0.49508 0.0
C1438 C 0.7535 0.15054 0.52042 0.0
C1439 C 0.73821 0.13187 0.50778 0.0
C1440 C 0.73285 0.12098 0.48307 0.0
C1441 C 0.74162 0.1118 0.46533 0.0
C1442 C 0.7365 0.10164 0.44182 0.0
C1443 C 0.72262 0.1005 0.43603 0.0
C1444 C 0.71382 0.10949 0.45382 0.0
C1445 C 0.71888 0.11967 0.47734 0.0
H1446 H 0.71868 0.09263 0.41781 0.0
H1447 H 0.76896 0.18948 0.65086 0.0
H1448 H 0.88994 0.53803 0.15893 0.0
H1449 H 0.88721 0.53238 0.22657 0.0
H1450 H 0.88781 0.49006 0.19851 0.0
H1451 H 0.88999 0.49558 0.1314 0.0
H1452 H 0.86988 0.4939 0.25009 0.0
H1453 H 0.91617 0.50765 0.23333 0.0
H1454 H 0.93448 0.52315 0.21514 0.0
H1455 H 0.92002 0.5524 0.2954 0.0
H1456 H 0.90152 0.53711 0.31374 0.0
H1457 H 0.8942 0.46417 0.42322 0.0
H1458 H 0.89088 0.4723 0.35788 0.0
H1459 H 0.88348 0.51237 0.40037 0.0
H1460 H 0.8867 0.50441 0.46548 0.0
H1461 H 0.90296 0.51142 0.34389 0.0
H1462 H 0.858 0.49538 0.36529 0.0
H1463 H 0.84076 0.47873 0.38356 0.0
H1464 H 0.85404 0.45235 0.29425 0.0
H1465 H 0.8715 0.46876 0.27578 0.0
C1466 C 0.8894 0.52754 0.16726 0.0
C1467 C 0.89023 0.51727 0.13982 0.0
C1468 C 0.88788 0.52431 0.20589 0.0
C1469 C 0.88747 0.51077 0.21769 0.0
C1470 C 0.88804 0.50057 0.19017 0.0
C1471 C 0.88935 0.50376 0.15172 0.0
C1472 C 0.88692 0.50704 0.25863 0.0
C1473 C 0.87717 0.49768 0.27053 0.0
C1474 C 0.89627 0.51213 0.28553 0.0
C1475 C 0.90738 0.52132 0.27456 0.0
C1476 C 0.91684 0.51743 0.24688 0.0
C1477 C 0.92726 0.52617 0.23659 0.0
C1478 C 0.92838 0.53877 0.25401 0.0
C1479 C 0.91911 0.54264 0.28186 0.0
C1480 C 0.90867 0.53395 0.29223 0.0
C1481 C 0.89171 0.47467 0.41869 0.0
C1482 C 0.89079 0.48364 0.44958 0.0
C1483 C 0.88977 0.47929 0.38138 0.0
C1484 C 0.88693 0.49293 0.37444 0.0
C1485 C 0.88569 0.50181 0.40521 0.0
C1486 C 0.88751 0.49721 0.44242 0.0
C1487 C 0.8861 0.49814 0.33501 0.0
C1488 C 0.89559 0.50777 0.32348 0.0
C1489 C 0.87666 0.49313 0.30838 0.0
C1490 C 0.86614 0.48326 0.31936 0.0
C1491 C 0.85732 0.48598 0.34975 0.0
C1492 C 0.84749 0.47659 0.3601 0.0
C1493 C 0.84632 0.46447 0.34014 0.0
C1494 C 0.85496 0.46173 0.30971 0.0
C1495 C 0.86482 0.47108 0.29926 0.0
H1496 H 0.83871 0.45722 0.34819 0.0
H1497 H 0.93646 0.54552 0.246 0.0
H1498 H 0.21308 0.14473 0.8991 0.0
H1499 H 0.22071 0.14309 0.96544 0.0
H1500 H 0.26207 0.14457 0.92805 0.0
H1501 H 0.25461 0.14571 0.86212 0.0
H1502 H 0.26019 0.1272 0.98252 0.0
H1503 H 0.24525 0.17274 0.96427 0.0
H1504 H 0.2293 0.19076 0.94669 0.0
H1505 H 0.20172 0.17705 0.0325 0.0
H1506 H 0.21744 0.15883 0.05027 0.0
H1507 H 0.28836 0.1487 0.16355 0.0
H1508 H 0.28163 0.14756 0.09611 0.0
H1509 H 0.24078 0.13885 0.12951 0.0
H1510 H 0.24728 0.13984 0.1962 0.0
H1511 H 0.24291 0.15996 0.07727 0.0
H1512 H 0.25895 0.11442 0.09537 0.0
H1513 H 0.27576 0.09717 0.11273 0.0
H1514 H 0.30253 0.11221 0.02665 0.0
H1515 H 0.28594 0.12968 0.00913 0.0
C1516 C 0.22379 0.14461 0.90506 0.0
C1517 C 0.23322 0.14541 0.87532 0.0
C1518 C 0.22814 0.14373 0.94297 0.0
C1519 C 0.24198 0.14392 0.95177 0.0
C1520 C 0.25136 0.1444 0.92203 0.0
C1521 C 0.24704 0.14509 0.88426 0.0
C1522 C 0.24677 0.14397 -0.00813 0.0
C1523 C 0.25651 0.13447 0.0031 0.0
C1524 C 0.24192 0.15337 0.01888 0.0
C1525 C 0.23246 0.16434 0.00832 0.0
C1526 C 0.23574 0.17351 0.9792 0.0
C1527 C 0.22675 0.18377 0.96923 0.0
C1528 C 0.21448 0.18503 -0.01161 0.0
C1529 C 0.21121 0.17605 0.01764 0.0
C1530 C 0.22016 0.16576 0.02769 0.0
C1531 C 0.27798 0.14643 0.15646 0.0
C1532 C 0.26837 0.14441 0.18532 0.0
C1533 C 0.27417 0.14576 0.118 0.0
C1534 C 0.2607 0.14315 0.10801 0.0
C1535 C 0.25119 0.14093 0.1367 0.0
C1536 C 0.25498 0.14148 0.17487 0.0
C1537 C 0.25624 0.14318 0.06777 0.0
C1538 C 0.24658 0.15272 0.05658 0.0
C1539 C 0.2613 0.13395 0.04075 0.0
C1540 C 0.27126 0.12345 0.05125 0.0
C1541 C 0.26847 0.11413 0.08039 0.0
C1542 C 0.27795 0.1043 0.0902 0.0
C1543 C 0.29023 0.10362 0.07089 0.0
C1544 C 0.29303 0.11276 0.04164 0.0
C1545 C 0.28359 0.12262 0.03174 0.0
H1546 H 0.29755 0.096 0.07851 0.0
H1547 H 0.20754 0.19298 0.98064 0.0
H1548 H 0.61452 0.53802 0.91932 0.0
H1549 H 0.6215 0.53162 0.8548 0.0
H1550 H 0.61557 0.4897 0.883 0.0
H1551 H 0.60925 0.49593 0.94741 0.0
H1552 H 0.6361 0.49137 0.839 0.0
H1553 H 0.59091 0.50947 0.83688 0.0
H1554 H 0.57337 0.52665 0.84753 0.0
H1555 H 0.59441 0.55419 0.77436 0.0
H1556 H 0.61217 0.5372 0.76364 0.0
H1557 H 0.61113 0.46361 0.6628 0.0
H1558 H 0.61598 0.47132 0.72775 0.0
H1559 H 0.63145 0.50873 0.68331 0.0
H1560 H 0.62683 0.50115 0.61861 0.0
H1561 H 0.60942 0.51129 0.73336 0.0
H1562 H 0.6525 0.4896 0.72746 0.0
H1563 H 0.66808 0.47069 0.71622 0.0
H1564 H 0.64859 0.44774 0.80404 0.0
H1565 H 0.63276 0.46645 0.81544 0.0
C1566 C 0.61487 0.52745 0.91178 0.0
C1567 C 0.61122 0.5175 0.9383 0.0
C1568 C 0.61883 0.5238 0.87495 0.0
C1569 C 0.61884 0.51018 0.86388 0.0
C1570 C 0.61569 0.50026 0.89084 0.0
C1571 C 0.61199 0.50386 0.92768 0.0
C1572 C 0.6211 0.50617 0.82371 0.0
C1573 C 0.63025 0.49571 0.81589 0.0
C1574 C 0.61359 0.51192 0.79345 0.0
C1575 C 0.60294 0.52214 0.79987 0.0
C1576 C 0.59184 0.51923 0.8233 0.0
C1577 C 0.58185 0.52892 0.82931 0.0
C1578 C 0.5828 0.54152 0.81174 0.0
C1579 C 0.59371 0.54444 0.78803 0.0
C1580 C 0.60374 0.53478 0.78197 0.0
C1581 C 0.6159 0.47332 0.6668 0.0
C1582 C 0.61837 0.48186 0.63559 0.0
C1583 C 0.61869 0.47769 0.70388 0.0
C1584 C 0.624 0.49061 0.71012 0.0
C1585 C 0.62733 0.49874 0.67895 0.0
C1586 C 0.62463 0.49438 0.642 0.0
C1587 C 0.62422 0.49638 0.74886 0.0
C1588 C 0.61548 0.50715 0.75635 0.0
C1589 C 0.63183 0.49066 0.7788 0.0
C1590 C 0.64137 0.4794 0.7721 0.0
C1591 C 0.65146 0.48048 0.74416 0.0
C1592 C 0.66035 0.4698 0.7378 0.0
C1593 C 0.65931 0.45801 0.75935 0.0
C1594 C 0.64939 0.45688 0.78736 0.0
C1595 C 0.64046 0.46753 0.79381 0.0
H1596 H 0.66621 0.44975 0.75438 0.0
H1597 H 0.57505 0.54901 0.81642 0.0
H1598 H 0.25342 0.85052 0.69679 0.0
H1599 H 0.25924 0.85391 0.63041 0.0
H1600 H 0.21711 0.85741 0.6014 0.0
H1601 H 0.2111 0.8536 0.66853 0.0
H1602 H 0.22974 0.84245 0.55062 0.0
H1603 H 0.23768 0.88543 0.60472 0.0
H1604 H 0.24629 0.90209 0.6508 0.0
H1605 H 0.28693 0.89079 0.62391 0.0
H1606 H 0.27856 0.87392 0.57804 0.0
H1607 H 0.24452 0.86762 0.36768 0.0
H1608 H 0.2378 0.86823 0.43426 0.0
H1609 H 0.27708 0.85395 0.46793 0.0
H1610 H 0.28398 0.85312 0.40075 0.0
H1611 H 0.26466 0.87594 0.51487 0.0
H1612 H 0.25509 0.83159 0.46231 0.0
H1613 H 0.24533 0.81664 0.41339 0.0
H1614 H 0.20598 0.83273 0.43575 0.0
H1615 H 0.21555 0.84795 0.48439 0.0
C1616 C 0.24533 0.85206 0.67647 0.0
C1617 C 0.23177 0.85192 0.68803 0.0
C1618 C 0.24871 0.85408 0.63845 0.0
C1619 C 0.23864 0.85625 0.61108 0.0
C1620 C 0.22505 0.85587 0.62221 0.0
C1621 C 0.22162 0.85369 0.66047 0.0
C1622 C 0.24252 0.8585 0.5708 0.0
C1623 C 0.2372 0.84993 0.54278 0.0
C1624 C 0.25237 0.86819 0.56054 0.0
C1625 C 0.25748 0.87833 0.58812 0.0
C1626 C 0.24845 0.88642 0.60883 0.0
C1627 C 0.25329 0.89592 0.63488 0.0
C1628 C 0.26715 0.89748 0.64033 0.0
C1629 C 0.27619 0.88957 0.61968 0.0
C1630 C 0.27141 0.88005 0.5936 0.0
C1631 C 0.25185 0.86475 0.3891 0.0
C1632 C 0.26476 0.86014 0.37881 0.0
C1633 C 0.24796 0.86513 0.42716 0.0
C1634 C 0.25689 0.86098 0.45573 0.0
C1635 C 0.27006 0.85715 0.44603 0.0
C1636 C 0.27397 0.85667 0.40772 0.0
C1637 C 0.25206 0.85975 0.49531 0.0
C1638 C 0.25717 0.86852 0.52298 0.0
C1639 C 0.24186 0.85043 0.50513 0.0
C1640 C 0.23606 0.841 0.4767 0.0
C1641 C 0.24437 0.832 0.45662 0.0
C1642 C 0.23887 0.82347 0.42896 0.0
C1643 C 0.22505 0.82378 0.42136 0.0
C1644 C 0.21669 0.83253 0.44161 0.0
C1645 C 0.22214 0.8411 0.46924 0.0
H1646 H 0.22081 0.81722 0.39981 0.0
H1647 H 0.27087 0.90484 0.66052 0.0
H1648 H 0.6025 0.03418 0.14816 0.0
H1649 H 0.60502 0.02575 0.21352 0.0
H1650 H 0.60986 0.98534 0.17073 0.0
H1651 H 0.60743 0.99358 0.10567 0.0
H1652 H 0.59086 0.98719 0.22812 0.0
H1653 H 0.63646 0.00074 0.20481 0.0
H1654 H 0.65453 0.01635 0.18559 0.0
H1655 H 0.6432 0.04363 0.27491 0.0
H1656 H 0.62493 0.02826 0.29434 0.0
H1657 H 0.60441 0.96074 0.41465 0.0
H1658 H 0.60645 0.96578 0.34631 0.0
H1659 H 0.60722 0.00831 0.37155 0.0
H1660 H 0.60561 0.00343 0.43905 0.0
H1661 H 0.62526 0.00313 0.32037 0.0
H1662 H 0.57836 0.99161 0.33905 0.0
H1663 H 0.5595 0.97692 0.35814 0.0
H1664 H 0.57237 0.94694 0.27789 0.0
H1665 H 0.59141 0.9614 0.25866 0.0
C1666 C 0.60423 0.02353 0.15266 0.0
C1667 C 0.60474 0.01457 0.12168 0.0
C1668 C 0.6057 0.01873 0.18996 0.0
C1669 C 0.60765 0.00493 0.19681 0.0
C1670 C 0.60835 0.99602 0.16598 0.0
C1671 C 0.60699 0.00079 0.12879 0.0
C1672 C 0.60838 0.99966 0.23621 0.0
C1673 C 0.59851 0.99049 0.2482 0.0
C1674 C 0.61824 0.00416 0.26237 0.0
C1675 C 0.62925 0.0134 0.25082 0.0
C1676 C 0.63775 0.01012 0.22016 0.0
C1677 C 0.64804 0.01891 0.20926 0.0
C1678 C 0.64999 0.03099 0.22896 0.0
C1679 C 0.64167 0.03428 0.25965 0.0
C1680 C 0.63135 0.02552 0.27065 0.0
C1681 C 0.60506 0.97115 0.40552 0.0
C1682 C 0.60485 0.98167 0.43232 0.0
C1683 C 0.60619 0.97401 0.36652 0.0
C1684 C 0.60691 0.98744 0.3538 0.0
C1685 C 0.60678 0.99788 0.38062 0.0
C1686 C 0.6058 0.99505 0.41933 0.0
C1687 C 0.60752 0.99088 0.31269 0.0
C1688 C 0.61769 0.99969 0.30026 0.0
C1689 C 0.59782 0.98619 0.28623 0.0
C1690 C 0.58639 0.9775 0.29777 0.0
C1691 C 0.57723 0.98184 0.32571 0.0
C1692 C 0.5665 0.97356 0.33651 0.0
C1693 C 0.56477 0.96099 0.31933 0.0
C1694 C 0.57374 0.95667 0.29123 0.0
C1695 C 0.5845 0.9649 0.28036 0.0
H1696 H 0.55645 0.9546 0.32772 0.0
H1697 H 0.65796 0.03778 0.22048 0.0
H1698 H 0.25156 0.36967 0.36898 0.0
H1699 H 0.25932 0.37372 0.43385 0.0
H1700 H 0.22036 0.36235 0.47728 0.0
H1701 H 0.21242 0.3581 0.41208 0.0
H1702 H 0.23407 0.38554 0.51562 0.0
H1703 H 0.24135 0.33914 0.47639 0.0
H1704 H 0.24972 0.32171 0.43234 0.0
H1705 H 0.28993 0.33712 0.44385 0.0
H1706 H 0.28175 0.3548 0.48752 0.0
H1707 H 0.24715 0.36352 0.70223 0.0
H1708 H 0.24046 0.36784 0.63685 0.0
H1709 H 0.28213 0.36703 0.60201 0.0
H1710 H 0.28893 0.36208 0.66777 0.0
H1711 H 0.26837 0.35216 0.55698 0.0
H1712 H 0.26223 0.39687 0.60172 0.0
H1713 H 0.25444 0.41497 0.64441 0.0
H1714 H 0.2133 0.40416 0.62197 0.0
H1715 H 0.22084 0.38586 0.57954 0.0
C1716 C 0.24451 0.36822 0.39215 0.0
C1717 C 0.23141 0.36335 0.38535 0.0
C1718 C 0.24899 0.37059 0.42921 0.0
C1719 C 0.24045 0.3682 0.46018 0.0
C1720 C 0.22707 0.36424 0.45357 0.0
C1721 C 0.22258 0.36178 0.41636 0.0
C1722 C 0.24597 0.3684 0.49929 0.0
C1723 C 0.24148 0.37821 0.52498 0.0
C1724 C 0.25597 0.35909 0.51074 0.0
C1725 C 0.26091 0.34838 0.48486 0.0
C1726 C 0.25196 0.33888 0.46926 0.0
C1727 C 0.25667 0.32895 0.44441 0.0
C1728 C 0.27034 0.32833 0.43521 0.0
C1729 C 0.27934 0.33763 0.45095 0.0
C1730 C 0.27467 0.3476 0.47576 0.0
C1731 C 0.25496 0.36445 0.68088 0.0
C1732 C 0.2686 0.3624 0.69025 0.0
C1733 C 0.2511 0.36705 0.64339 0.0
C1734 C 0.26078 0.36798 0.61446 0.0
C1735 C 0.27447 0.36639 0.62388 0.0
C1736 C 0.27835 0.36358 0.66145 0.0
C1737 C 0.25643 0.36927 0.57408 0.0
C1738 C 0.2611 0.35968 0.54789 0.0
C1739 C 0.24671 0.37889 0.56219 0.0
C1740 C 0.24212 0.38992 0.58762 0.0
C1741 C 0.25152 0.39828 0.60609 0.0
C1742 C 0.24715 0.40859 0.63021 0.0
C1743 C 0.23339 0.4107 0.63595 0.0
C1744 C 0.22396 0.40251 0.6175 0.0
C1745 C 0.22828 0.39219 0.59336 0.0
H1746 H 0.23002 0.41868 0.65465 0.0
H1747 H 0.27397 0.32063 0.41596 0.0
H1748 H 0.86886 0.01308 0.94666 0.0
H1749 H 0.8672 0.00463 0.88144 0.0
H1750 H 0.90289 0.02698 0.85108 0.0
H1751 H 0.90426 0.0359 0.91603 0.0
H1752 H 0.88663 0.02611 0.79261 0.0
H1753 H 0.90461 0.99366 0.87991 0.0
H1754 H 0.90492 0.97959 0.93789 0.0
H1755 H 0.86882 0.9596 0.90106 0.0
H1756 H 0.8682 0.97369 0.84308 0.0
H1757 H 0.90713 0.96624 0.66557 0.0
H1758 H 0.90425 0.97502 0.73042 0.0
H1759 H 0.8698 0.99806 0.69294 0.0
H1760 H 0.87295 0.98972 0.62812 0.0
H1761 H 0.88612 0.97616 0.78539 0.0
H1762 H 0.87086 0.02917 0.7305 0.0
H1763 H 0.87379 0.04324 0.67307 0.0
H1764 H 0.91021 0.02203 0.6458 0.0
H1765 H 0.90761 0.00798 0.70333 0.0
C1766 C 0.87613 0.01647 0.92577 0.0
C1767 C 0.88677 0.02503 0.93637 0.0
C1768 C 0.87524 0.01156 0.88862 0.0
C1769 C 0.88517 0.01483 0.86176 0.0
C1770 C 0.89518 0.02423 0.87147 0.0
C1771 C 0.89593 0.02936 0.90852 0.0
C1772 C 0.88573 0.00765 0.82474 0.0
C1773 C 0.88644 0.0152 0.79103 0.0
C1774 C 0.88588 0.99339 0.82271 0.0
C1775 C 0.88629 0.98481 0.85735 0.0
C1776 C 0.8967 0.98632 0.8843 0.0
C1777 C 0.89693 0.97833 0.91715 0.0
C1778 C 0.88688 0.96873 0.9232 0.0
C1779 C 0.87659 0.96706 0.89636 0.0
C1780 C 0.87629 0.97503 0.86349 0.0
C1781 C 0.89875 0.97289 0.67151 0.0
C1782 C 0.89037 0.97746 0.64193 0.0
C1783 C 0.89713 0.97794 0.70847 0.0
C1784 C 0.88704 0.98749 0.71619 0.0
C1785 C 0.87787 0.991 0.68736 0.0
C1786 C 0.87963 0.98616 0.65044 0.0
C1787 C 0.88675 0.99463 0.75327 0.0
C1788 C 0.88616 0.98707 0.78697 0.0
C1789 C 0.88718 0.00889 0.75537 0.0
C1790 C 0.88895 0.01743 0.721 0.0
C1791 C 0.87952 0.02755 0.71232 0.0
C1792 C 0.88112 0.03552 0.67975 0.0
C1793 C 0.89215 0.0335 0.65574 0.0
C1794 C 0.90165 0.02355 0.66434 0.0
C1795 C 0.90011 0.01558 0.69691 0.0
H1796 H 0.89336 0.03966 0.63051 0.0
H1797 H 0.88707 0.96256 0.94865 0.0
H1798 H 0.28945 0.64473 0.91738 0.0
H1799 H 0.28206 0.64145 0.98338 0.0
H1800 H 0.24566 0.6224 0.94312 0.0
H1801 H 0.25301 0.62536 0.8776 0.0
H1802 H 0.26067 0.65256 0.01524 0.0
H1803 H 0.23369 0.60047 0.00804 0.0
H1804 H 0.23669 0.57844 0.97671 0.0
H1805 H 0.27915 0.5858 0.96649 0.0
H1806 H 0.27644 0.60778 -0.00176 0.0
H1807 H 0.2143 0.64964 0.16434 0.0
H1808 H 0.22246 0.64568 0.09936 0.0
H1809 H 0.25277 0.61857 0.14296 0.0
H1810 H 0.24472 0.62245 0.20771 0.0
H1811 H 0.24275 0.61045 0.07231 0.0
H1812 H 0.26172 0.64933 0.133 0.0
H1813 H 0.26021 0.6706 0.169 0.0
H1814 H 0.23784 0.68863 0.07732 0.0
H1815 H 0.23902 0.66736 0.04098 0.0
C1816 C 0.28001 0.63958 0.92265 0.0
C1817 C 0.27179 0.63539 0.89223 0.0
C1818 C 0.27578 0.63777 0.96034 0.0
C1819 C 0.26333 0.63165 0.96816 0.0
C1820 C 0.25539 0.62697 0.93785 0.0
C1821 C 0.25959 0.62876 0.90032 0.0
C1822 C 0.258 0.63117 0.00757 0.0
C1823 C 0.25683 0.64332 0.02768 0.0
C1824 C 0.25309 0.61911 0.02407 0.0
C1825 C 0.25483 0.60583 0.00524 0.0
C1826 C 0.24368 0.59736 -0.00073 0.0
C1827 C 0.24532 0.58489 0.9814 0.0
C1828 C 0.25809 0.58074 0.96952 0.0
C1829 C 0.26925 0.58905 0.97558 0.0
C1830 C 0.26766 0.60152 -0.00655 0.0
C1831 C 0.22243 0.64253 0.15992 0.0
C1832 C 0.22901 0.63651 0.19106 0.0
C1833 C 0.22711 0.64032 0.12287 0.0
C1834 C 0.23834 0.63199 0.11658 0.0
C1835 C 0.24412 0.62505 0.14728 0.0
C1836 C 0.23955 0.62735 0.18425 0.0
C1837 C 0.24514 0.63186 0.07912 0.0
C1838 C 0.24661 0.61963 0.05959 0.0
C1839 C 0.25064 0.64377 0.06349 0.0
C1840 C 0.25034 0.65673 0.08447 0.0
C1841 C 0.25643 0.65781 0.12059 0.0
C1842 C 0.25563 0.66986 0.14105 0.0
C1843 C 0.24888 0.68092 0.12552 0.0
C1844 C 0.24303 0.68002 0.08933 0.0
C1845 C 0.24377 0.66798 0.06877 0.0
H1846 H 0.24818 0.69018 0.14158 0.0
H1847 H 0.25935 0.57108 0.95568 0.0
H1848 H 0.38852 0.00532 0.96289 0.0
H1849 H 0.38498 0.01366 0.89861 0.0
H1850 H 0.38026 0.97289 0.85797 0.0
H1851 H 0.38448 0.96438 0.92253 0.0
H1852 H 0.39623 0.98533 0.81361 0.0
H1853 H 0.35317 0.99661 0.86382 0.0
H1854 H 0.33686 0.00617 0.9093 0.0
H1855 H 0.35284 0.04575 0.88964 0.0
H1856 H 0.36937 0.0364 0.84441 0.0
H1857 H 0.37603 0.00404 0.63069 0.0
H1858 H 0.37236 0.99761 0.69678 0.0
H1859 H 0.39139 0.03428 0.73452 0.0
H1860 H 0.39532 0.04084 0.66789 0.0
H1861 H 0.36673 0.02384 0.77893 0.0
H1862 H 0.41104 0.01102 0.73187 0.0
H1863 H 0.42618 0.00076 0.68439 0.0
H1864 H 0.4059 0.96284 0.69722 0.0
H1865 H 0.39048 0.97295 0.74434 0.0
C1866 C 0.38654 0.99809 0.94045 0.0
C1867 C 0.38678 0.98416 0.94783 0.0
C1868 C 0.38441 0.00291 0.90362 0.0
C1869 C 0.38211 0.99395 0.87341 0.0
C1870 C 0.38198 0.98002 0.88084 0.0
C1871 C 0.38437 0.97516 0.91771 0.0
C1872 C 0.38102 0.99911 0.83377 0.0
C1873 C 0.38957 0.99358 0.80606 0.0
C1874 C 0.37256 0.0101 0.82384 0.0
C1875 C 0.36259 0.01578 0.85092 0.0
C1876 C 0.35327 0.00734 0.86939 0.0
C1877 C 0.34398 0.01272 0.8951 0.0
C1878 C 0.34384 0.02655 0.90241 0.0
C1879 C 0.35297 0.03503 0.88396 0.0
C1880 C 0.36229 0.0297 0.85824 0.0
C1881 C 0.37924 0.01091 0.65289 0.0
C1882 C 0.38621 0.02286 0.64403 0.0
C1883 C 0.37707 0.00722 0.69066 0.0
C1884 C 0.38175 0.0154 0.72031 0.0
C1885 C 0.38772 0.02786 0.71181 0.0
C1886 C 0.38997 0.03157 0.67381 0.0
C1887 C 0.38192 0.01004 0.75956 0.0
C1888 C 0.37326 0.01554 0.78689 0.0
C1889 C 0.39013 0.99891 0.76917 0.0
C1890 C 0.39953 0.99277 0.74131 0.0
C1891 C 0.40974 0.00052 0.72432 0.0
C1892 C 0.41838 0.99473 0.69752 0.0
C1893 C 0.41698 0.98117 0.68771 0.0
C1894 C 0.40696 0.97335 0.7048 0.0
C1895 C 0.39827 0.9791 0.73157 0.0
H1896 H 0.42368 0.9767 0.66695 0.0
H1897 H 0.33663 0.0307 0.92233 0.0
H1898 H 0.74834 0.62683 0.37795 0.0
H1899 H 0.75459 0.62377 0.44454 0.0
H1900 H 0.71912 0.64562 0.47934 0.0
H1901 H 0.71282 0.64889 0.41237 0.0
H1902 H 0.74155 0.65587 0.51063 0.0
H1903 H 0.72198 0.61227 0.49843 0.0
H1904 H 0.71786 0.59007 0.46925 0.0
H1905 H 0.75943 0.57949 0.48534 0.0
H1906 H 0.76385 0.60171 0.51414 0.0
H1907 H 0.75376 0.62675 0.70863 0.0
H1908 H 0.74533 0.62348 0.64397 0.0
H1909 H 0.77797 0.64753 0.59994 0.0
H1910 H 0.78647 0.65097 0.66488 0.0
H1911 H 0.75488 0.61354 0.576 0.0
H1912 H 0.76435 0.66874 0.53412 0.0
H1913 H 0.76736 0.69085 0.56506 0.0
H1914 H 0.74311 0.67791 0.65945 0.0
H1915 H 0.73982 0.65578 0.62886 0.0
C1916 C 0.74172 0.63081 0.39972 0.0
C1917 C 0.73015 0.63824 0.38987 0.0
C1918 C 0.74528 0.62896 0.43782 0.0
C1919 C 0.73731 0.63444 0.46686 0.0
C1920 C 0.7254 0.64131 0.45726 0.0
C1921 C 0.72179 0.64313 0.41903 0.0
C1922 C 0.74222 0.63421 0.50673 0.0
C1923 C 0.74438 0.64659 0.52496 0.0
C1924 C 0.74588 0.62211 0.52544 0.0
C1925 C 0.74326 0.60871 0.5082 0.0
C1926 C 0.73027 0.60526 0.49548 0.0
C1927 C 0.72788 0.59266 0.47906 0.0
C1928 C 0.73838 0.58338 0.47538 0.0
C1929 C 0.7513 0.58669 0.48819 0.0
C1930 C 0.75375 0.59928 0.50462 0.0
C1931 C 0.75929 0.63119 0.68518 0.0
C1932 C 0.77068 0.63929 0.69189 0.0
C1933 C 0.75448 0.62923 0.64822 0.0
C1934 C 0.76091 0.63542 0.61733 0.0
C1935 C 0.77279 0.64279 0.62358 0.0
C1936 C 0.77766 0.64471 0.66063 0.0
C1937 C 0.75443 0.63519 0.57931 0.0
C1938 C 0.752 0.62277 0.56154 0.0
C1939 C 0.75032 0.64722 0.56112 0.0
C1940 C 0.75196 0.66058 0.57938 0.0
C1941 C 0.75961 0.67064 0.5614 0.0
C1942 C 0.76138 0.68316 0.57887 0.0
C1943 C 0.75547 0.68574 0.61424 0.0
C1944 C 0.74772 0.67586 0.63213 0.0
C1945 C 0.74591 0.66332 0.61475 0.0
H1946 H 0.75691 0.6954 0.62774 0.0
H1947 H 0.73651 0.57363 0.46265 0.0
H1948 H 0.10992 0.03794 0.41034 0.0
H1949 H 0.11259 0.03239 0.3425 0.0
H1950 H 0.10919 0.99009 0.36928 0.0
H1951 H 0.10701 0.99544 0.43631 0.0
H1952 H 0.12811 0.99316 0.31987 0.0
H1953 H 0.08233 0.0095 0.3331 0.0
H1954 H 0.06487 0.02619 0.34956 0.0
H1955 H 0.08187 0.05421 0.26971 0.0
H1956 H 0.09953 0.03773 0.25311 0.0
H1957 H 0.10285 0.9633 0.14841 0.0
H1958 H 0.10656 0.97184 0.21317 0.0
H1959 H 0.11597 0.01108 0.16772 0.0
H1960 H 0.11239 0.00274 0.10329 0.0
H1961 H 0.0965 0.01181 0.2237 0.0
H1962 H 0.14053 0.99322 0.20486 0.0
H1963 H 0.15703 0.97561 0.1883 0.0
H1964 H 0.14219 0.95065 0.27899 0.0
H1965 H 0.12547 0.96804 0.29577 0.0
C1966 C 0.1098 0.02748 0.40164 0.0
C1967 C 0.10826 0.01715 0.42872 0.0
C1968 C 0.1113 0.02431 0.36292 0.0
C1969 C 0.111 0.01081 0.35077 0.0
C1970 C 0.10956 0.00056 0.37791 0.0
C1971 C 0.10826 0.00367 0.41634 0.0
C1972 C 0.11181 0.0071 0.30988 0.0
C1973 C 0.12115 0.9972 0.29888 0.0
C1974 C 0.10293 0.01256 0.28228 0.0
C1975 C 0.09233 0.02246 0.29223 0.0
C1976 C 0.0824 0.01926 0.31928 0.0
C1977 C 0.07246 0.02868 0.32859 0.0
C1978 C 0.07229 0.04127 0.31079 0.0
C1979 C 0.08203 0.04447 0.28354 0.0
C1980 C 0.092 0.03509 0.27416 0.0
C1981 C 0.10589 0.97369 0.15218 0.0
C1982 C 0.10723 0.98234 0.12066 0.0
C1983 C 0.10804 0.97854 0.18915 0.0
C1984 C 0.11153 0.99209 0.19509 0.0
C1985 C 0.11325 0.00061 0.16368 0.0
C1986 C 0.1112 0.99578 0.12685 0.0
C1987 C 0.11254 0.99764 0.23409 0.0
C1988 C 0.10356 0.0079 0.24462 0.0
C1989 C 0.12161 0.99237 0.26135 0.0
C1990 C 0.13167 0.9819 0.25136 0.0
C1991 C 0.14071 0.98393 0.22108 0.0
C1992 C 0.15012 0.974 0.21169 0.0
C1993 C 0.15064 0.96201 0.23252 0.0
C1994 C 0.14177 0.95994 0.26285 0.0
C1995 C 0.13234 0.96984 0.27234 0.0
H1996 H 0.15793 0.95433 0.22521 0.0
H1997 H 0.06459 0.04855 0.31803 0.0
H1998 H 0.75448 0.36493 0.19355 0.0
H1999 H 0.75983 0.36942 0.12746 0.0
H2000 H 0.71793 0.36488 0.09697 0.0
H2001 H 0.71247 0.35987 0.16368 0.0
H2002 H 0.73293 0.35067 0.05146 0.0
H2003 H 0.73432 0.39613 0.09281 0.0
H2004 H 0.74028 0.41532 0.13407 0.0
H2005 H 0.78223 0.40899 0.11057 0.0
H2006 H 0.77656 0.38963 0.06959 0.0
H2007 H 0.74763 0.36873 0.8619 0.0
H2008 H 0.73959 0.37237 0.92654 0.0
H2009 H 0.7793 0.36413 0.97072 0.0
H2010 H 0.78754 0.36022 0.90574 0.0
H2011 H 0.76327 0.38708 0.00645 0.0
H2012 H 0.76125 0.33955 0.97316 0.0
H2013 H 0.75499 0.3206 0.93133 0.0
H2014 H 0.71331 0.33178 0.93946 0.0
H2015 H 0.71936 0.35094 0.98092 0.0
C2016 C 0.74631 0.36504 0.17303 0.0
C2017 C 0.73303 0.36197 0.18393 0.0
C2018 C 0.7494 0.36774 0.13516 0.0
C2019 C 0.73926 0.36771 0.1073 0.0
C2020 C 0.7259 0.36503 0.11811 0.0
C2021 C 0.72279 0.36218 0.15618 0.0
C2022 C 0.74298 0.36917 0.06665 0.0
C2023 C 0.73929 0.35882 0.0415 0.0
C2024 C 0.75153 0.37966 0.05376 0.0
C2025 C 0.755 0.39136 0.07826 0.0
C2026 C 0.74483 0.39877 0.09663 0.0
C2027 C 0.74815 0.40969 0.11995 0.0
C2028 C 0.76162 0.41336 0.12499 0.0
C2029 C 0.7718 0.40613 0.10664 0.0
C2030 C 0.76853 0.3952 0.08331 0.0
C2031 C 0.75477 0.36788 0.88517 0.0
C2032 C 0.76822 0.364 0.87869 0.0
C2033 C 0.75012 0.37 0.92208 0.0
C2034 C 0.75884 0.36841 0.95313 0.0
C2035 C 0.77246 0.3654 0.94686 0.0
C2036 C 0.77712 0.36312 0.90982 0.0
C2037 C 0.75335 0.36852 -0.00792 0.0
C2038 C 0.75672 0.37911 0.01661 0.0
C2039 C 0.74443 0.35833 0.00443 0.0
C2040 C 0.74077 0.34677 0.97973 0.0
C2041 C 0.75076 0.33804 0.96572 0.0
C2042 C 0.74725 0.32725 0.94215 0.0
C2043 C 0.73376 0.325 0.93264 0.0
C2044 C 0.72375 0.33354 0.94679 0.0
C2045 C 0.72722 0.34437 0.97034 0.0
H2046 H 0.73107 0.31663 0.91441 0.0
H2047 H 0.76418 0.42182 0.14306 0.0
H2048 H 0.12701 0.52711 0.42058 0.0
H2049 H 0.13082 0.51244 0.36526 0.0
H2050 H 0.08857 0.51455 0.33718 0.0
H2051 H 0.08472 0.52946 0.39149 0.0
H2052 H 0.10444 0.48625 0.34986 0.0
H2053 H 0.10173 0.52993 0.28167 0.0
H2054 H 0.10953 0.55322 0.27099 0.0
H2055 H 0.14982 0.53886 0.25275 0.0
H2056 H 0.14226 0.51549 0.2639 0.0
H2057 H 0.08375 0.46208 0.17371 0.0
H2058 H 0.08901 0.47263 0.23448 0.0
H2059 H 0.13003 0.47902 0.19787 0.0
H2060 H 0.12461 0.46895 0.13609 0.0
H2061 H 0.12043 0.50129 0.22283 0.0
H2062 H 0.12211 0.45727 0.27274 0.0
H2063 H 0.11492 0.43375 0.28224 0.0
H2064 H 0.07868 0.44734 0.3366 0.0
H2065 H 0.08552 0.47096 0.32687 0.0
C2066 C 0.11861 0.52463 0.40213 0.0
C2067 C 0.10558 0.52939 0.41018 0.0
C2068 C 0.12079 0.51624 0.37083 0.0
C2069 C 0.10993 0.51241 0.34776 0.0
C2070 C 0.09701 0.51743 0.35505 0.0
C2071 C 0.09487 0.52601 0.3858 0.0
C2072 C 0.11186 0.50284 0.31644 0.0
C2073 C 0.10794 0.48942 0.32198 0.0
C2074 C 0.11697 0.50701 0.28094 0.0
C2075 C 0.12148 0.52102 0.27417 0.0
C2076 C 0.11228 0.53177 0.27583 0.0
C2077 C 0.11664 0.54497 0.26958 0.0
C2078 C 0.13017 0.54753 0.26135 0.0
C2079 C 0.13935 0.53687 0.25923 0.0
C2080 C 0.13503 0.52365 0.2655 0.0
C2081 C 0.09395 0.46552 0.17884 0.0
C2082 C 0.10373 0.46491 0.15011 0.0
C2083 C 0.09699 0.47145 0.21374 0.0
C2084 C 0.10996 0.47653 0.22083 0.0
C2085 C 0.11996 0.47519 0.19292 0.0
C2086 C 0.11686 0.46945 0.15773 0.0
C2087 C 0.11247 0.48462 0.25544 0.0
C2088 C 0.11727 0.49783 0.25077 0.0
C2089 C 0.10835 0.48015 0.29192 0.0
C2090 C 0.10434 0.46593 0.29898 0.0
C2091 C 0.11259 0.45526 0.28664 0.0
C2092 C 0.10857 0.44191 0.29206 0.0
C2093 C 0.09635 0.43906 0.31 0.0
C2094 C 0.08815 0.44957 0.32273 0.0
C2095 C 0.09211 0.46295 0.31735 0.0
H2096 H 0.09324 0.42871 0.31403 0.0
H2097 H 0.13353 0.55775 0.25651 0.0
H2098 H 0.73438 0.87148 0.69471 0.0
H2099 H 0.74672 0.87515 0.63563 0.0
H2100 H 0.71768 0.85091 0.5747 0.0
H2101 H 0.7056 0.84674 0.63423 0.0
H2102 H 0.74121 0.84245 0.5594 0.0
H2103 H 0.72099 0.88577 0.56014 0.0
H2104 H 0.71395 0.90771 0.58624 0.0
H2105 H 0.75534 0.91877 0.60305 0.0
H2106 H 0.76264 0.89682 0.57754 0.0
H2107 H 0.77118 0.87381 0.38076 0.0
H2108 H 0.75772 0.8774 0.43796 0.0
H2109 H 0.78371 0.85049 0.50084 0.0
H2110 H 0.79701 0.8465 0.44334 0.0
H2111 H 0.76002 0.88544 0.5107 0.0
H2112 H 0.7646 0.82895 0.54996 0.0
H2113 H 0.76972 0.8074 0.51804 0.0
H2114 H 0.75506 0.8233 0.41188 0.0
H2115 H 0.74966 0.84486 0.44328 0.0
C2116 C 0.73049 0.86713 0.66859 0.0
C2117 C 0.71913 0.85871 0.66898 0.0
C2118 C 0.73751 0.86931 0.63478 0.0
C2119 C 0.73309 0.86335 0.6007 0.0
C2120 C 0.7213 0.85555 0.60074 0.0
C2121 C 0.71441 0.85318 0.63467 0.0
C2122 C 0.74155 0.86405 0.56611 0.0
C2123 C 0.74523 0.85188 0.5487 0.0
C2124 C 0.74669 0.87635 0.55181 0.0
C2125 C 0.74236 0.88959 0.56719 0.0
C2126 C 0.72859 0.89283 0.56968 0.0
C2127 C 0.72455 0.90528 0.58432 0.0
C2128 C 0.73419 0.91462 0.59637 0.0
C2129 C 0.74789 0.91153 0.59373 0.0
C2130 C 0.75198 0.89909 0.57913 0.0
C2131 C 0.7742 0.86886 0.40696 0.0
C2132 C 0.78493 0.85962 0.4075 0.0
C2133 C 0.76653 0.87099 0.43964 0.0
C2134 C 0.76956 0.86397 0.47325 0.0
C2135 C 0.78108 0.85578 0.47484 0.0
C2136 C 0.78865 0.85351 0.44205 0.0
C2137 C 0.75979 0.86386 0.50486 0.0
C2138 C 0.75591 0.87608 0.52156 0.0
C2139 C 0.75406 0.85164 0.51778 0.0
C2140 C 0.75686 0.83855 0.49892 0.0
C2141 C 0.76239 0.82781 0.51987 0.0
C2142 C 0.76535 0.81561 0.50186 0.0
C2143 C 0.76276 0.81401 0.46294 0.0
C2144 C 0.7571 0.82457 0.442 0.0
C2145 C 0.75409 0.83678 0.45989 0.0
H2146 H 0.76515 0.8046 0.44899 0.0
H2147 H 0.73104 0.92425 0.6077 0.0
H2148 H 0.37473 0.5119 0.62506 0.0
H2149 H 0.36678 0.50198 0.68444 0.0
H2150 H 0.38165 0.53643 0.74675 0.0
H2151 H 0.39021 0.54607 0.68745 0.0
H2152 H 0.39226 0.51534 0.77359 0.0
H2153 H 0.34716 0.52719 0.74546 0.0
H2154 H 0.32649 0.5297 0.70701 0.0
H2155 H 0.32359 0.48674 0.69588 0.0
H2156 H 0.34435 0.48396 0.73379 0.0
H2157 H 0.36644 0.47947 0.94244 0.0
H2158 H 0.35925 0.49287 0.88745 0.0
H2159 H 0.3859 0.47009 0.81512 0.0
H2160 H 0.39321 0.45671 0.86974 0.0
H2161 H 0.3511 0.4889 0.80269 0.0
H2162 H 0.40824 0.49348 0.7887 0.0
H2163 H 0.42852 0.49097 0.82897 0.0
H2164 H 0.40604 0.50359 0.92714 0.0
H2165 H 0.38572 0.50638 0.88733 0.0
C2166 C 0.37601 0.51751 0.65132 0.0
C2167 C 0.38331 0.52962 0.65192 0.0
C2168 C 0.37132 0.51188 0.68525 0.0
C2169 C 0.37359 0.51846 0.72012 0.0
C2170 C 0.37985 0.53115 0.72019 0.0
C2171 C 0.38478 0.53663 0.68639 0.0
C2172 C 0.3718 0.51104 0.75635 0.0
C2173 C 0.38312 0.50983 0.78016 0.0
C2174 C 0.3599 0.50378 0.76515 0.0
C2175 C 0.34737 0.50538 0.74238 0.0
C2176 C 0.34217 0.51827 0.73461 0.0
C2177 C 0.33043 0.51974 0.71293 0.0
C2178 C 0.32374 0.50839 0.69897 0.0
C2179 C 0.32878 0.49553 0.70673 0.0
C2180 C 0.34052 0.494 0.72838 0.0
C2181 C 0.37042 0.47701 0.91458 0.0
C2182 C 0.38067 0.46733 0.91043 0.0
C2183 C 0.3662 0.48459 0.88321 0.0
C2184 C 0.3722 0.48252 0.84761 0.0
C2185 C 0.38123 0.47181 0.84259 0.0
C2186 C 0.38547 0.46426 0.87385 0.0
C2187 C 0.37161 0.49314 0.81842 0.0
C2188 C 0.36 0.49481 0.7962 0.0
C2189 C 0.38312 0.50109 0.81126 0.0
C2190 C 0.39545 0.50002 0.8351 0.0
C2191 C 0.40767 0.49581 0.81883 0.0
C2192 C 0.41916 0.49432 0.84158 0.0
C2193 C 0.41856 0.49706 0.88062 0.0
C2194 C 0.40649 0.50141 0.89694 0.0
C2195 C 0.39498 0.50294 0.8743 0.0
H2196 H 0.42745 0.49585 0.89818 0.0
H2197 H 0.31465 0.50955 0.68219 0.0
H2198 H 0.77108 0.11547 0.19098 0.0
H2199 H 0.76044 0.10665 0.13321 0.0
H2200 H 0.77543 0.1407 0.06952 0.0
H2201 H 0.78634 0.14932 0.12665 0.0
H2202 H 0.74071 0.11846 0.09933 0.0
H2203 H 0.77801 0.1352 0.97856 0.0
H2204 H 0.80243 0.13449 0.96632 0.0
H2205 H 0.80671 0.10153 0.04471 0.0
H2206 H 0.78228 0.10188 0.05703 0.0
H2207 H 0.71235 0.15176 0.94681 0.0
H2208 H 0.72413 0.14214 0.00138 0.0
H2209 H 0.73796 0.10914 0.93162 0.0
H2210 H 0.72638 0.11889 0.87648 0.0
H2211 H 0.75828 0.12015 0.96717 0.0
H2212 H 0.71651 0.10293 0.00628 0.0
H2213 H 0.69207 0.10265 0.01852 0.0
H2214 H 0.69681 0.13356 0.10304 0.0
H2215 H 0.72124 0.13419 0.09094 0.0
C2216 C 0.77237 0.1209 0.16438 0.0
C2217 C 0.77937 0.13319 0.16332 0.0
C2218 C 0.7663 0.11582 0.13147 0.0
C2219 C 0.76717 0.12297 0.09705 0.0
C2220 C 0.77484 0.13485 0.09555 0.0
C2221 C 0.78098 0.13987 0.12834 0.0
C2222 C 0.75851 0.11934 0.06427 0.0
C2223 C 0.74456 0.11857 0.07042 0.0
C2224 C 0.76356 0.11899 0.02663 0.0
C2225 C 0.77827 0.11858 0.01876 0.0
C2226 C 0.78412 0.12771 -0.00706 0.0
C2227 C 0.79798 0.1274 0.98607 0.0
C2228 C 0.80612 0.11798 0.00475 0.0
C2229 C 0.8004 0.10884 0.03031 0.0
C2230 C 0.78654 0.1091 0.03729 0.0
C2231 C 0.71769 0.14233 0.94321 0.0
C2232 C 0.71859 0.13616 0.90733 0.0
C2233 C 0.72434 0.13677 0.9745 0.0
C2234 C 0.73183 0.12485 0.97061 0.0
C2235 C 0.73221 0.11831 0.9352 0.0
C2236 C 0.72559 0.12391 0.90379 0.0
C2237 C 0.74052 0.12031 0.00241 0.0
C2238 C 0.75445 0.11953 -0.00394 0.0
C2239 C 0.73546 0.11899 0.03986 0.0
C2240 C 0.72075 0.1186 0.04766 0.0
C2241 C 0.71234 0.10972 0.02737 0.0
C2242 C 0.69848 0.1095 0.03429 0.0
C2243 C 0.69289 0.11808 0.06155 0.0
C2244 C 0.70115 0.1269 0.08198 0.0
C2245 C 0.71502 0.12717 0.07516 0.0
H2246 H 0.68215 0.1179 0.06684 0.0
H2247 H 0.81685 0.11777 -0.00057 0.0
H2248 H 0.87106 0.46535 0.64941 0.0
H2249 H 0.86432 0.47592 0.70942 0.0
H2250 H 0.90522 0.47279 0.75063 0.0
H2251 H 0.91181 0.46163 0.69168 0.0
H2252 H 0.88909 0.47083 0.80789 0.0
H2253 H 0.89343 0.50085 0.69967 0.0
H2254 H 0.88799 0.50895 0.63491 0.0
H2255 H 0.84674 0.5148 0.66767 0.0
H2256 H 0.85192 0.50654 0.7325 0.0
H2257 H 0.89734 0.54037 0.88329 0.0
H2258 H 0.89258 0.52637 0.82765 0.0
H2259 H 0.86546 0.50208 0.89465 0.0
H2260 H 0.87018 0.51599 0.95052 0.0
H2261 H 0.87095 0.51679 0.78533 0.0
H2262 H 0.87553 0.46948 0.87951 0.0
H2263 H 0.88474 0.46305 0.94244 0.0
H2264 H 0.91431 0.49447 0.93433 0.0
H2265 H 0.90543 0.50092 0.87117 0.0
C2266 C 0.87851 0.46663 0.67174 0.0
C2267 C 0.892 0.46296 0.66577 0.0
C2268 C 0.87466 0.47268 0.70591 0.0
C2269 C 0.88435 0.47549 0.73398 0.0
C2270 C 0.89759 0.47079 0.72926 0.0
C2271 C 0.90136 0.46446 0.69548 0.0
C2272 C 0.88128 0.48469 0.76594 0.0
C2273 C 0.8849 0.48078 0.80302 0.0
C2274 C 0.8761 0.49781 0.75948 0.0
C2275 C 0.87302 0.50294 0.72073 0.0
C2276 C 0.88319 0.5038 0.69297 0.0
C2277 C 0.88015 0.50842 0.65627 0.0
C2278 C 0.86702 0.51235 0.64715 0.0
C2279 C 0.8569 0.51172 0.67476 0.0
C2280 C 0.85988 0.50707 0.71147 0.0
C2281 C 0.8901 0.53226 0.88592 0.0
C2282 C 0.88437 0.52905 0.92135 0.0
C2283 C 0.88732 0.52434 0.85408 0.0
C2284 C 0.87885 0.51311 0.8574 0.0
C2285 C 0.87212 0.51066 0.8918 0.0
C2286 C 0.87485 0.5186 0.92363 0.0
C2287 C 0.87881 0.5029 0.82693 0.0
C2288 C 0.87468 0.50666 0.79026 0.0
C2289 C 0.88404 0.48984 0.83343 0.0
C2290 C 0.88969 0.48578 0.87092 0.0
C2291 C 0.88403 0.47497 0.89114 0.0
C2292 C 0.88919 0.47133 0.92683 0.0
C2293 C 0.90006 0.47839 0.94245 0.0
C2294 C 0.90586 0.48905 0.92229 0.0
C2295 C 0.90076 0.4927 0.88657 0.0
H2296 H 0.90401 0.47558 0.97012 0.0
H2297 H 0.86468 0.51592 0.61873 0.0
H2298 H 0.19987 0.14728 0.62474 0.0
H2299 H 0.20982 0.14096 0.56357 0.0
H2300 H 0.2417 0.11993 0.62281 0.0
H2301 H 0.23149 0.12569 0.68367 0.0
H2302 H 0.23219 0.15016 0.54143 0.0
H2303 H 0.2576 0.0977 0.56821 0.0
H2304 H 0.25193 0.07603 0.59853 0.0
H2305 H 0.20977 0.08436 0.58439 0.0
H2306 H 0.21517 0.106 0.55348 0.0
H2307 H 0.29088 0.14801 0.44191 0.0
H2308 H 0.27613 0.14269 0.49543 0.0
H2309 H 0.25296 0.11604 0.42373 0.0
H2310 H 0.26777 0.12116 0.37004 0.0
H2311 H 0.25434 0.10764 0.50145 0.0
H2312 H 0.24229 0.14584 0.42589 0.0
H2313 H 0.2467 0.167 0.39127 0.0
H2314 H 0.25838 0.18616 0.49595 0.0
H2315 H 0.25423 0.16503 0.53114 0.0
C2316 C 0.2088 0.141 0.62456 0.0
C2317 C 0.21503 0.13711 0.6588 0.0
C2318 C 0.21446 0.13739 0.58967 0.0
C2319 C 0.22651 0.12998 0.58856 0.0
C2320 C 0.23227 0.12542 0.62281 0.0
C2321 C 0.22648 0.12882 0.65766 0.0
C2322 C 0.23417 0.12885 0.55257 0.0
C2323 C 0.23684 0.14079 0.53251 0.0
C2324 C 0.24013 0.11662 0.54048 0.0
C2325 C 0.2368 0.10353 0.5587 0.0
C2326 C 0.24712 0.09488 0.57134 0.0
C2327 C 0.24395 0.08261 0.5887 0.0
C2328 C 0.2305 0.07883 0.59346 0.0
C2329 C 0.22019 0.08732 0.5808 0.0
C2330 C 0.22329 0.0996 0.56341 0.0
C2331 C 0.28288 0.14073 0.43779 0.0
C2332 C 0.28025 0.13525 0.40167 0.0
C2333 C 0.2745 0.13768 0.46836 0.0
C2334 C 0.26334 0.12921 0.46307 0.0
C2335 C 0.2615 0.12265 0.42814 0.0
C2336 C 0.26994 0.12564 0.39752 0.0
C2337 C 0.25261 0.12898 0.49193 0.0
C2338 C 0.24942 0.11687 0.51034 0.0
C2339 C 0.24582 0.14097 0.50196 0.0
C2340 C 0.24804 0.15381 0.4811 0.0
C2341 C 0.24587 0.15454 0.4415 0.0
C2342 C 0.24833 0.16653 0.42176 0.0
C2343 C 0.25285 0.17791 0.44137 0.0
C2344 C 0.25489 0.17733 0.48079 0.0
C2345 C 0.25247 0.16535 0.50066 0.0
H2346 H 0.25476 0.18718 0.42603 0.0
H2347 H 0.22807 0.06933 0.60692 0.0
H2348 H 0.58256 0.5376 0.17841 0.0
H2349 H 0.58719 0.52677 0.2393 0.0
H2350 H 0.62733 0.51677 0.20132 0.0
H2351 H 0.62252 0.52719 0.13956 0.0
H2352 H 0.61587 0.49544 0.22826 0.0
H2353 H 0.62189 0.53969 0.27391 0.0
H2354 H 0.61678 0.56382 0.28182 0.0
H2355 H 0.58019 0.5539 0.3405 0.0
H2356 H 0.58494 0.52969 0.33236 0.0
H2357 H 0.62523 0.47099 0.42473 0.0
H2358 H 0.62836 0.48478 0.36726 0.0
H2359 H 0.5853 0.48664 0.35168 0.0
H2360 H 0.58208 0.47258 0.40823 0.0
H2361 H 0.6031 0.51322 0.35535 0.0
H2362 H 0.59638 0.46884 0.29568 0.0
H2363 H 0.60247 0.44491 0.28815 0.0
H2364 H 0.64279 0.45618 0.25755 0.0
H2365 H 0.63698 0.48019 0.26563 0.0
C2366 C 0.59243 0.5333 0.18326 0.0
C2367 C 0.60211 0.53305 0.15422 0.0
C2368 C 0.59512 0.52719 0.21817 0.0
C2369 C 0.60765 0.52103 0.2249 0.0
C2370 C 0.61759 0.52143 0.19661 0.0
C2371 C 0.61484 0.52739 0.16146 0.0
C2372 C 0.60974 0.51305 0.25996 0.0
C2373 C 0.6134 0.49945 0.25614 0.0
C2374 C 0.6065 0.51826 0.29635 0.0
C2375 C 0.60376 0.53284 0.30238 0.0
C2376 C 0.61272 0.54264 0.28839 0.0
C2377 C 0.6099 0.55634 0.29292 0.0
C2378 C 0.59817 0.56039 0.31163 0.0
C2379 C 0.58928 0.55074 0.32602 0.0
C2380 C 0.59205 0.53702 0.32152 0.0
C2381 C 0.61647 0.47417 0.4086 0.0
C2382 C 0.60343 0.47076 0.42074 0.0
C2383 C 0.61827 0.48206 0.37609 0.0
C2384 C 0.60704 0.48676 0.3559 0.0
C2385 C 0.59404 0.48311 0.36734 0.0
C2386 C 0.59224 0.475 0.39932 0.0
C2387 C 0.60874 0.4957 0.32298 0.0
C2388 C 0.60586 0.50942 0.32743 0.0
C2389 C 0.6129 0.49069 0.28734 0.0
C2390 C 0.6163 0.47628 0.28175 0.0
C2391 C 0.60658 0.46621 0.28773 0.0
C2392 C 0.60997 0.45263 0.2833 0.0
C2393 C 0.62302 0.44902 0.27252 0.0
C2394 C 0.63269 0.45899 0.26599 0.0
C2395 C 0.62935 0.47258 0.27049 0.0
H2396 H 0.62563 0.43851 0.26912 0.0
H2397 H 0.59597 0.571 0.31497 0.0
H2398 H 0.21222 0.84913 0.94448 0.0
H2399 H 0.22327 0.85962 -0.00119 0.0
H2400 H 0.2382 0.89136 0.92609 0.0
H2401 H 0.22737 0.88069 0.87116 0.0
H2402 H 0.25796 0.88094 0.96405 0.0
H2403 H 0.21638 0.89899 -0.00015 0.0
H2404 H 0.19189 0.90001 0.01077 0.0
H2405 H 0.19529 0.8697 0.09763 0.0
H2406 H 0.21977 0.86833 0.08688 0.0
H2407 H 0.27001 0.8844 0.18819 0.0
H2408 H 0.25971 0.89391 0.13074 0.0
H2409 H 0.27346 0.85962 0.06593 0.0
H2410 H 0.28399 0.85027 0.12279 0.0
H2411 H 0.23962 0.88319 0.09529 0.0
H2412 H 0.27733 0.8657 0.97599 0.0
H2413 H 0.30185 0.86592 0.96515 0.0
H2414 H 0.30627 0.89843 0.0448 0.0
H2415 H 0.28175 0.89857 0.05574 0.0
C2416 C 0.21763 0.85848 0.94014 0.0
C2417 C 0.2191 0.86399 0.90355 0.0
C2418 C 0.22384 0.86456 0.97132 0.0
C2419 C 0.23147 0.87636 0.96657 0.0
C2420 C 0.23233 0.88229 0.93036 0.0
C2421 C 0.22616 0.87617 0.89906 0.0
C2422 C 0.23997 0.88118 -0.00159 0.0
C2423 C 0.25396 0.8817 -0.00728 0.0
C2424 C 0.23471 0.88276 0.03555 0.0
C2425 C 0.21996 0.88358 0.04254 0.0
C2426 C 0.21191 0.8925 0.02118 0.0
C2427 C 0.19802 0.89314 0.02734 0.0
C2428 C 0.19204 0.88493 0.05489 0.0
C2429 C 0.19994 0.87607 0.07636 0.0
C2430 C 0.21384 0.87539 0.0703 0.0
C2431 C 0.27107 0.87905 0.16146 0.0
C2432 C 0.27764 0.86651 0.15998 0.0
C2433 C 0.26521 0.88451 0.12871 0.0
C2434 C 0.26589 0.87754 0.09402 0.0
C2435 C 0.27305 0.86535 0.09219 0.0
C2436 C 0.27895 0.85992 0.12482 0.0
C2437 C 0.25758 0.88175 0.06109 0.0
C2438 C 0.24363 0.88297 0.06656 0.0
C2439 C 0.26288 0.88205 0.02373 0.0
C2440 C 0.27765 0.88214 0.01669 0.0
C2441 C 0.2835 0.87299 -0.00906 0.0
C2442 C 0.29741 0.87302 0.98486 0.0
C2443 C 0.30561 0.88218 0.00428 0.0
C2444 C 0.29991 0.89133 0.02982 0.0
C2445 C 0.286 0.89135 0.03601 0.0
H2446 H 0.31638 0.8822 -0.00049 0.0
H2447 H 0.18128 0.88543 0.0596 0.0
H2448 H 0.60513 0.96374 0.6918 0.0
H2449 H 0.60981 0.97982 0.7427 0.0
H2450 H 0.63298 0.00418 0.66493 0.0
H2451 H 0.62846 0.98805 0.61372 0.0
H2452 H 0.6425 0.00428 0.74414 0.0
H2453 H 0.60359 0.01344 0.66893 0.0
H2454 H 0.58284 0.00754 0.63397 0.0
H2455 H 0.56451 0.99422 0.73816 0.0
H2456 H 0.58523 -0.00011 0.7737 0.0
H2457 H 0.59795 0.05201 0.87676 0.0
H2458 H 0.60521 0.04475 0.8135 0.0
H2459 H 0.62956 0.01359 0.86512 0.0
H2460 H 0.62284 0.02122 0.92814 0.0
H2461 H 0.59836 0.02261 0.78547 0.0
H2462 H 0.6532 0.00149 0.80871 0.0
H2463 H 0.67424 0.00874 0.83998 0.0
H2464 H 0.6615 0.05001 0.83327 0.0
H2465 H 0.6405 0.04305 0.80133 0.0
C2466 C 0.61153 0.97231 0.68576 0.0
C2467 C 0.61616 0.97483 0.64868 0.0
C2468 C 0.61423 0.98145 0.71484 0.0
C2469 C 0.6215 0.99324 0.70714 0.0
C2470 C 0.62731 0.99512 0.67119 0.0
C2471 C 0.62466 0.98593 0.64202 0.0
C2472 C 0.62109 0.00436 0.73482 0.0
C2473 C 0.63293 0.00844 0.75324 0.0
C2474 C 0.60862 0.01019 0.74497 0.0
C2475 C 0.596 0.00702 0.72394 0.0
C2476 C 0.59516 0.00918 0.68436 0.0
C2477 C 0.5834 0.00588 0.66443 0.0
C2478 C 0.57238 0.00047 0.68379 0.0
C2479 C 0.57307 0.99841 0.72318 0.0
C2480 C 0.58481 0.00169 0.74325 0.0
C2481 C 0.60509 0.04383 0.8745 0.0
C2482 C 0.60967 0.03703 0.90716 0.0
C2483 C 0.60928 0.03972 0.83842 0.0
C2484 C 0.61795 0.02863 0.83448 0.0
C2485 C 0.62311 0.02234 0.8673 0.0
C2486 C 0.61913 0.02662 0.90337 0.0
C2487 C 0.61975 0.02215 0.79685 0.0
C2488 C 0.60808 0.01887 0.77619 0.0
C2489 C 0.63245 0.01745 0.78409 0.0
C2490 C 0.64521 0.02172 0.80271 0.0
C2491 C 0.65492 0.01212 0.81358 0.0
C2492 C 0.66684 0.01618 0.83151 0.0
C2493 C 0.6692 0.02982 0.83866 0.0
C2494 C 0.65966 0.03944 0.8278 0.0
C2495 C 0.64773 0.03544 0.80981 0.0
H2496 H 0.67842 0.03294 0.85259 0.0
H2497 H 0.56329 0.9979 0.6683 0.0
H2498 H 0.21283 0.33144 0.14897 0.0
H2499 H 0.22561 0.33436 0.09005 0.0
H2500 H 0.23233 0.37614 0.11759 0.0
H2501 H 0.21979 0.37327 0.17717 0.0
H2502 H 0.22624 0.36649 0.03137 0.0
H2503 H 0.25548 0.36178 0.14402 0.0
H2504 H 0.2612 0.35032 0.20436 0.0
H2505 H 0.26529 0.31277 0.14481 0.0
H2506 H 0.2593 0.32398 0.08423 0.0
H2507 H 0.27984 0.37329 0.9017 0.0
H2508 H 0.26694 0.37601 0.96058 0.0
H2509 H 0.27043 0.33334 0.98244 0.0
H2510 H 0.28385 0.33071 0.92489 0.0
H2511 H 0.27148 0.34571 0.04612 0.0
H2512 H 0.24246 0.34794 0.93642 0.0
H2513 H 0.23446 0.35668 0.87453 0.0
H2514 H 0.22785 0.39557 0.92461 0.0
H2515 H 0.23601 0.3871 0.98671 0.0
C2516 C 0.21674 0.34133 0.14207 0.0
C2517 C 0.21556 0.35208 0.16784 0.0
C2518 C 0.22399 0.34297 0.10843 0.0
C2519 C 0.22992 0.35542 0.09997 0.0
C2520 C 0.22776 0.36648 0.1239 0.0
C2521 C 0.22069 0.3648 0.15788 0.0
C2522 C 0.2399 0.35628 0.06924 0.0
C2523 C 0.23623 0.3622 0.03457 0.0
C2524 C 0.25272 0.35031 0.07358 0.0
C2525 C 0.25684 0.34369 0.1097 0.0
C2526 C 0.25751 0.35106 0.14386 0.0
C2527 C 0.26081 0.34462 0.17809 0.0
C2528 C 0.26358 0.33082 0.17843 0.0
C2529 C 0.26312 0.32345 0.14451 0.0
C2530 C 0.25979 0.32985 0.11022 0.0
C2531 C 0.27806 0.36456 0.91955 0.0
C2532 C 0.28269 0.35178 0.90864 0.0
C2533 C 0.27063 0.36611 0.95298 0.0
C2534 C 0.26742 0.35482 0.97533 0.0
C2535 C 0.27273 0.34218 0.96555 0.0
C2536 C 0.28039 0.34069 0.93261 0.0
C2537 C 0.2579 0.3559 0.00755 0.0
C2538 C 0.26161 0.35026 0.04274 0.0
C2539 C 0.24498 0.36185 0.00328 0.0
C2540 C 0.23999 0.36693 0.96607 0.0
C2541 C 0.23939 0.35838 0.93416 0.0
C2542 C 0.23482 0.36328 0.89906 0.0
C2543 C 0.23068 0.37668 0.89562 0.0
C2544 C 0.23108 0.3852 0.92731 0.0
C2545 C 0.23567 0.38036 0.96246 0.0
H2546 H 0.22715 0.38046 0.86842 0.0
H2547 H 0.2661 0.32584 0.20497 0.0
H2548 H 0.87506 0.98016 0.44924 0.0
H2549 H 0.8683 0.99281 0.39255 0.0
H2550 H 0.90077 0.97466 0.32915 0.0
H2551 H 0.9076 0.96195 0.38569 0.0
H2552 H 0.88443 0.01134 0.35871 0.0
H2553 H 0.89182 0.97237 0.2366 0.0
H2554 H 0.88806 0.94814 0.22553 0.0
H2555 H 0.85704 0.94783 0.31064 0.0
H2556 H 0.86046 0.9721 0.32185 0.0
H2557 H 0.90958 0.03776 0.18875 0.0
H2558 H 0.90387 0.02586 0.24724 0.0
H2559 H 0.86514 0.01521 0.19992 0.0
H2560 H 0.87094 0.02686 0.14067 0.0
H2561 H 0.87752 0.99374 0.22779 0.0
H2562 H 0.86758 0.03778 0.27436 0.0
H2563 H 0.87168 0.06195 0.28579 0.0
H2564 H 0.90669 0.05231 0.35252 0.0
H2565 H 0.90294 0.02812 0.34106 0.0
C2566 C 0.88062 0.97868 0.42304 0.0
C2567 C 0.89195 0.97018 0.4219 0.0
C2568 C 0.87674 0.98591 0.39076 0.0
C2569 C 0.88401 0.98461 0.35679 0.0
C2570 C 0.89493 0.97565 0.35506 0.0
C2571 C 0.89887 0.96846 0.38739 0.0
C2572 C 0.88121 0.99365 0.32435 0.0
C2573 C 0.88272 0.00755 0.33011 0.0
C2574 C 0.87877 0.98863 0.28732 0.0
C2575 C 0.87646 0.97407 0.28019 0.0
C2576 C 0.88413 0.96716 0.25277 0.0
C2577 C 0.88207 0.95341 0.24652 0.0
C2578 C 0.87234 0.94644 0.26743 0.0
C2579 C 0.86461 0.95323 0.29455 0.0
C2580 C 0.86661 0.96698 0.3009 0.0
C2581 C 0.89976 0.03307 0.19096 0.0
C2582 C 0.89074 0.03314 0.16008 0.0
C2583 C 0.89647 0.02634 0.22451 0.0
C2584 C 0.88402 0.01977 0.22801 0.0
C2585 C 0.87478 0.02025 0.19774 0.0
C2586 C 0.87811 0.02692 0.16401 0.0
C2587 C 0.88131 0.0114 0.26194 0.0
C2588 C 0.87883 0.99761 0.25648 0.0
C2589 C 0.88281 0.01653 0.29931 0.0
C2590 C 0.88498 0.0311 0.30676 0.0
C2591 C 0.87619 0.04081 0.29134 0.0
C2592 C 0.87845 0.05452 0.29783 0.0
C2593 C 0.88944 0.05866 0.31985 0.0
C2594 C 0.89817 0.04909 0.3355 0.0
C2595 C 0.89596 0.03538 0.32908 0.0
H2596 H 0.8912 0.06926 0.32483 0.0
H2597 H 0.87078 0.93579 0.26259 0.0
H2598 H 0.294 0.65734 0.64245 0.0
H2599 H 0.28137 0.65379 0.58351 0.0
H2600 H 0.2625 0.61869 0.63251 0.0
H2601 H 0.27495 0.62228 0.69183 0.0
H2602 H 0.2771 0.63426 0.53029 0.0
H2603 H 0.22872 0.62131 0.61274 0.0
H2604 H 0.21933 0.62396 0.67744 0.0
H2605 H 0.24315 0.65956 0.69424 0.0
H2606 H 0.25248 0.65726 0.62946 0.0
H2607 H 0.22671 0.62503 0.39137 0.0
H2608 H 0.23946 0.62031 0.44952 0.0
H2609 H 0.22679 0.65839 0.4966 0.0
H2610 H 0.21382 0.66309 0.4388 0.0
H2611 H 0.22784 0.63906 0.55079 0.0
H2612 H 0.25607 0.65619 0.45012 0.0
H2613 H 0.26579 0.65631 0.38547 0.0
H2614 H 0.28293 0.61719 0.40504 0.0
H2615 H 0.27311 0.61675 0.46964 0.0
C2616 C 0.28736 0.64872 0.64042 0.0
C2617 C 0.28519 0.64028 0.67197 0.0
C2618 C 0.28022 0.64666 0.60667 0.0
C2619 C 0.27084 0.63614 0.60409 0.0
C2620 C 0.26957 0.62698 0.63431 0.0
C2621 C 0.27668 0.62905 0.66811 0.0
C2622 C 0.26127 0.63586 0.5719 0.0
C2623 C 0.26632 0.63512 0.53471 0.0
C2624 C 0.24724 0.6373 0.57785 0.0
C2625 C 0.24142 0.639 0.61647 0.0
C2626 C 0.2319 0.62973 0.63021 0.0
C2627 C 0.22659 0.63117 0.66688 0.0
C2628 C 0.23068 0.64189 0.68998 0.0
C2629 C 0.24002 0.65124 0.67637 0.0
C2630 C 0.24532 0.64987 0.63969 0.0
C2631 C 0.22645 0.63229 0.41437 0.0
C2632 C 0.21947 0.64453 0.41038 0.0
C2633 C 0.23374 0.62958 0.44751 0.0
C2634 C 0.23423 0.63911 0.47693 0.0
C2635 C 0.22654 0.65093 0.47407 0.0
C2636 C 0.21919 0.65363 0.44101 0.0
C2637 C 0.24366 0.6374 0.50912 0.0
C2638 C 0.23859 0.63784 0.54634 0.0
C2639 C 0.25771 0.63607 0.50317 0.0
C2640 C 0.26373 0.63637 0.46451 0.0
C2641 C 0.26183 0.64757 0.44052 0.0
C2642 C 0.26736 0.6477 0.40391 0.0
C2643 C 0.27494 0.63675 0.39111 0.0
C2644 C 0.27703 0.62565 0.41496 0.0
C2645 C 0.27149 0.62546 0.45158 0.0
H2646 H 0.27922 0.63687 0.36276 0.0
H2647 H 0.22658 0.64297 0.7184 0.0
H2648 H 0.37219 0.96707 0.15339 0.0
H2649 H 0.36847 0.9779 0.21515 0.0
H2650 H 0.41038 0.97194 0.24377 0.0
H2651 H 0.41397 0.96059 0.1831 0.0
H2652 H 0.39627 0.97008 0.30523 0.0
H2653 H 0.39838 0.00126 0.19947 0.0
H2654 H 0.39125 0.0107 0.13754 0.0
H2655 H 0.35181 0.0185 0.18254 0.0
H2656 H 0.35867 0.00891 0.2446 0.0
H2657 H 0.4166 0.02835 0.40414 0.0
H2658 H 0.41199 0.01384 0.34935 0.0
H2659 H 0.36992 0.01257 0.3794 0.0
H2660 H 0.37448 0.02686 0.43503 0.0
H2661 H 0.37988 0.01715 0.29288 0.0
H2662 H 0.38095 0.98776 0.40411 0.0
H2663 H 0.39104 0.98001 0.46459 0.0
H2664 H 0.42788 0.97055 0.40651 0.0
H2665 H 0.41807 0.97848 0.34579 0.0
C2666 C 0.3805 0.96783 0.17331 0.0
C2667 C 0.3934 0.96322 0.16337 0.0
C2668 C 0.37839 0.97403 0.20845 0.0
C2669 C 0.38923 0.97604 0.23357 0.0
C2670 C 0.40188 0.97056 0.22475 0.0
C2671 C 0.40393 0.96411 0.19 0.0
C2672 C 0.3879 0.98496 0.26708 0.0
C2673 C 0.3926 0.98033 0.3025 0.0
C2674 C 0.38307 0.99835 0.26361 0.0
C2675 C 0.37897 0.00422 0.22647 0.0
C2676 C 0.38816 0.00491 0.19605 0.0
C2677 C 0.38417 0.01029 0.16095 0.0
C2678 C 0.37107 0.01516 0.15607 0.0
C2679 C 0.36195 0.0147 0.18633 0.0
C2680 C 0.36587 0.00929 0.22147 0.0
C2681 C 0.40633 0.02518 0.39876 0.0
C2682 C 0.3959 0.02862 0.42388 0.0
C2683 C 0.40374 0.01688 0.3676 0.0
C2684 C 0.39067 0.01213 0.36086 0.0
C2685 C 0.38007 0.01617 0.38448 0.0
C2686 C 0.38269 0.02428 0.41611 0.0
C2687 C 0.38839 0.00226 0.3304 0.0
C2688 C 0.38312 0.00675 0.29565 0.0
C2689 C 0.393 0.98888 0.33419 0.0
C2690 C 0.39881 0.98382 0.37049 0.0
C2691 C 0.39124 0.98413 0.40431 0.0
C2692 C 0.3969 0.97969 0.43862 0.0
C2693 C 0.4101 0.97482 0.43941 0.0
C2694 C 0.41765 0.97433 0.40586 0.0
C2695 C 0.41204 0.97879 0.37148 0.0
H2696 H 0.41447 0.97139 0.46601 0.0
H2697 H 0.36801 0.01933 0.12888 0.0
H2698 H 0.7285 0.62373 0.18863 0.0
H2699 H 0.74155 0.61914 0.13106 0.0
H2700 H 0.72754 0.65644 0.08165 0.0
H2701 H 0.71422 0.66093 0.13862 0.0
H2702 H 0.72971 0.63755 0.02839 0.0
H2703 H 0.75694 0.65516 0.13114 0.0
H2704 H 0.76632 0.65524 0.19632 0.0
H2705 H 0.78466 0.61671 0.1764 0.0
H2706 H 0.7752 0.61631 0.11124 0.0
H2707 H 0.7947 0.65984 0.94048 0.0
H2708 H 0.78254 0.65488 -0.0007 0.0
H2709 H 0.76563 0.61925 0.94766 0.0
H2710 H 0.77759 0.62422 0.88853 0.0
H2711 H 0.77901 0.63451 0.05141 0.0
H2712 H 0.73169 0.62047 0.96483 0.0
H2713 H 0.72258 0.62353 0.89982 0.0
H2714 H 0.74492 0.66032 0.88795 0.0
H2715 H 0.75394 0.65761 0.9531 0.0
C2716 C 0.728 0.63082 0.16519 0.0
C2717 C 0.72056 0.64281 0.1683 0.0
C2718 C 0.73547 0.62819 0.1324 0.0
C2719 C 0.7357 0.63759 0.10255 0.0
C2720 C 0.72752 0.64909 0.10451 0.0
C2721 C 0.71997 0.65167 0.13713 0.0
C2722 C 0.74536 0.63618 0.07088 0.0
C2723 C 0.74047 0.63669 0.0334 0.0
C2724 C 0.75942 0.63534 0.07755 0.0
C2725 C 0.76524 0.63563 0.11652 0.0
C2726 C 0.7629 0.64666 0.14076 0.0
C2727 C 0.76823 0.64677 0.17768 0.0
C2728 C 0.77605 0.63597 0.19053 0.0
C2729 C 0.77858 0.62506 0.16643 0.0
C2730 C 0.77323 0.62488 0.12951 0.0
C2731 C 0.78862 0.65079 0.94192 0.0
C2732 C 0.78677 0.64262 0.90968 0.0
C2733 C 0.78177 0.64793 0.97561 0.0
C2734 C 0.77301 0.63686 0.97738 0.0
C2735 C 0.77221 0.62794 0.9465 0.0
C2736 C 0.77903 0.63082 0.91278 0.0
C2737 C 0.76334 0.63585 0.00905 0.0
C2738 C 0.76823 0.63497 0.04645 0.0
C2739 C 0.7493 0.6368 0.00239 0.0
C2740 C 0.74362 0.63873 0.96361 0.0
C2741 C 0.7346 0.62924 0.94838 0.0
C2742 C 0.72946 0.63091 0.91153 0.0
C2743 C 0.73321 0.64208 0.88972 0.0
C2744 C 0.74205 0.65165 0.90482 0.0
C2745 C 0.74718 0.65005 0.9417 0.0
H2746 H 0.72925 0.64334 0.86116 0.0
H2747 H 0.78017 0.63607 0.21912 0.0
H2748 H 0.09074 0.94865 0.87554 0.0
H2749 H 0.09703 0.9561 0.81155 0.0
H2750 H 0.12673 0.98284 0.86036 0.0
H2751 H 0.12094 0.97497 0.92388 0.0
H2752 H 0.09298 0.97933 0.78575 0.0
H2753 H 0.15092 0.99142 0.80036 0.0
H2754 H 0.171 0.98065 0.82841 0.0
H2755 H 0.15157 0.94207 0.82298 0.0
H2756 H 0.1315 0.95253 0.79406 0.0
H2757 H 0.10596 0.03642 0.68744 0.0
H2758 H 0.10848 0.02003 0.73885 0.0
H2759 H 0.12946 0.99314 0.6628 0.0
H2760 H 0.12726 0.00963 0.61132 0.0
H2761 H 0.13854 0.991 0.73787 0.0
H2762 H 0.09773 0.98842 0.66846 0.0
H2763 H 0.07738 0.99706 0.63637 0.0
H2764 H 0.06236 0.01174 0.74326 0.0
H2765 H 0.08273 0.00332 0.77597 0.0
C2766 C 0.09878 0.95591 0.87243 0.0
C2767 C 0.10523 0.96138 0.90456 0.0
C2768 C 0.1024 0.96013 0.83594 0.0
C2769 C 0.11239 0.96999 0.83111 0.0
C2770 C 0.11922 0.975 0.86319 0.0
C2771 C 0.11578 0.97061 0.89958 0.0
C2772 C 0.11437 0.97649 0.79361 0.0
C2773 C 0.10296 0.98167 0.77506 0.0
C2774 C 0.12736 0.97924 0.77889 0.0
C2775 C 0.13964 0.97281 0.79512 0.0
C2776 C 0.15096 0.98062 0.80473 0.0
C2777 C 0.16235 0.97457 0.82087 0.0
C2778 C 0.16256 0.96069 0.82751 0.0
C2779 C 0.1514 0.95282 0.81786 0.0
C2780 C 0.14001 0.95881 0.80159 0.0
C2781 C 0.11144 0.02719 0.68195 0.0
C2782 C 0.11613 0.02415 0.64525 0.0
C2783 C 0.11287 0.01785 0.71127 0.0
C2784 C 0.11884 0.00529 0.70412 0.0
C2785 C 0.12474 0.00276 0.66863 0.0
C2786 C 0.12343 0.01218 0.6393 0.0
C2787 C 0.11721 0.99433 0.73208 0.0
C2788 C 0.12863 0.98833 0.74841 0.0
C2789 C 0.10421 0.99036 0.74399 0.0
C2790 C 0.09181 0.9953 0.72463 0.0
C2791 C 0.09013 0.99356 0.6851 0.0
C2792 C 0.07859 0.99842 0.66679 0.0
C2793 C 0.06859 0.00498 0.68773 0.0
C2794 C 0.07011 0.00666 0.72707 0.0
C2795 C 0.08165 0.00182 0.74553 0.0
H2796 H 0.05967 0.00874 0.67347 0.0
H2797 H 0.17136 0.95603 0.84012 0.0
H2798 H 0.79001 0.33757 0.63884 0.0
H2799 H 0.78073 0.34351 0.57699 0.0
H2800 H 0.7752 0.38457 0.61453 0.0
H2801 H 0.78397 0.37846 0.67749 0.0
H2802 H 0.75312 0.37609 0.58616 0.0
H2803 H 0.79754 0.3762 0.54122 0.0
H2804 H 0.82099 0.3684 0.53477 0.0
H2805 H 0.80732 0.33245 0.47886 0.0
H2806 H 0.78376 0.33986 0.48569 0.0
H2807 H 0.72767 0.37869 0.38647 0.0
H2808 H 0.74265 0.38392 0.44029 0.0
H2809 H 0.74024 0.34265 0.47795 0.0
H2810 H 0.72501 0.33741 0.42508 0.0
H2811 H 0.76883 0.35839 0.46167 0.0
H2812 H 0.72473 0.3571 0.53001 0.0
H2813 H 0.70149 0.36545 0.53793 0.0
H2814 H 0.71624 0.40597 0.54748 0.0
H2815 H 0.73957 0.39784 0.53902 0.0
C2816 C 0.78704 0.34792 0.63374 0.0
C2817 C 0.78749 0.35751 0.66301 0.0
C2818 C 0.78186 0.35136 0.59819 0.0
C2819 C 0.77739 0.36454 0.59097 0.0
C2820 C 0.77859 0.37435 0.61953 0.0
C2821 C 0.78358 0.37084 0.6554 0.0
C2822 C 0.76988 0.36742 0.55547 0.0
C2823 C 0.75676 0.3726 0.55875 0.0
C2824 C 0.77461 0.36296 0.51959 0.0
C2825 C 0.78882 0.35862 0.514 0.0
C2826 C 0.79951 0.36661 0.52761 0.0
C2827 C 0.81283 0.36225 0.52392 0.0
C2828 C 0.81564 0.34994 0.50639 0.0
C2829 C 0.80513 0.342 0.49238 0.0
C2830 C 0.79178 0.34629 0.49608 0.0
C2831 C 0.73018 0.37081 0.40665 0.0
C2832 C 0.72522 0.35766 0.40177 0.0
C2833 C 0.73875 0.3738 0.43706 0.0
C2834 C 0.74256 0.36361 0.46244 0.0
C2835 C 0.73739 0.35057 0.45823 0.0
C2836 C 0.72863 0.34764 0.42833 0.0
C2837 C 0.75211 0.36636 0.49341 0.0
C2838 C 0.76553 0.36231 0.48897 0.0
C2839 C 0.7478 0.37207 0.52801 0.0
C2840 C 0.73383 0.3769 0.53336 0.0
C2841 C 0.72299 0.3678 0.53339 0.0
C2842 C 0.70981 0.37248 0.53808 0.0
C2843 C 0.70738 0.38624 0.54307 0.0
C2844 C 0.71813 0.39532 0.54351 0.0
C2845 C 0.73133 0.39069 0.53877 0.0
H2846 H 0.69718 0.38985 0.5467 0.0
H2847 H 0.82596 0.34656 0.5037 0.0
H2848 H 0.0834 0.40865 0.08143 0.0
H2849 H 0.09268 0.39177 0.12497 0.0
H2850 H 0.13205 0.39751 0.07585 0.0
H2851 H 0.12285 0.41427 0.0321 0.0
H2852 H 0.12944 0.37224 0.09814 0.0
H2853 H 0.12274 0.41583 0.15125 0.0
H2854 H 0.11047 0.43636 0.16992 0.0
H2855 H 0.08461 0.41293 0.24209 0.0
H2856 H 0.09665 0.39219 0.2234 0.0
H2857 H 0.16689 0.3768 0.28622 0.0
H2858 H 0.14908 0.38594 0.24614 0.0
H2859 H 0.13727 0.3457 0.21395 0.0
H2860 H 0.15549 0.33645 0.25313 0.0
H2861 H 0.12366 0.38619 0.233 0.0
H2862 H 0.1314 0.34494 0.11858 0.0
H2863 H 0.14864 0.32834 0.09948 0.0
H2864 H 0.17963 0.35317 0.14814 0.0
H2865 H 0.1626 0.36998 0.16701 0.0
C2866 C 0.09393 0.40595 0.07885 0.0
C2867 C 0.10242 0.41295 0.05361 0.0
C2868 C 0.09925 0.39638 0.10406 0.0
C2869 C 0.11313 0.39363 0.10436 0.0
C2870 C 0.12133 0.39953 0.07638 0.0
C2871 C 0.11603 0.40911 0.05126 0.0
C2872 C 0.11942 0.38596 0.1362 0.0
C2873 C 0.12798 0.37513 0.12767 0.0
C2874 C 0.11793 0.39004 0.17471 0.0
C2875 C 0.11044 0.40242 0.1854 0.0
C2876 C 0.11433 0.41502 0.17071 0.0
C2877 C 0.10743 0.42671 0.18136 0.0
C2878 C 0.0967 0.42594 0.20696 0.0
C2879 C 0.09288 0.41349 0.22208 0.0
C2880 C 0.09973 0.40176 0.21146 0.0
C2881 C 0.16026 0.36983 0.27156 0.0
C2882 C 0.16281 0.3559 0.27227 0.0
C2883 C 0.15003 0.3751 0.24858 0.0
C2884 C 0.14206 0.36654 0.22607 0.0
C2885 C 0.14351 0.35253 0.23032 0.0
C2886 C 0.15387 0.34724 0.25305 0.0
C2887 C 0.13362 0.37239 0.19501 0.0
C2888 C 0.12473 0.38296 0.20362 0.0
C2889 C 0.13538 0.36856 0.15636 0.0
C2890 C 0.1457 0.3586 0.14464 0.0
C2891 C 0.14189 0.34685 0.1251 0.0
C2892 C 0.15163 0.33742 0.11431 0.0
C2893 C 0.16521 0.33967 0.12273 0.0
C2894 C 0.16911 0.35141 0.14177 0.0
C2895 C 0.15942 0.36089 0.15251 0.0
H2896 H 0.17273 0.33235 0.11442 0.0
H2897 H 0.09141 0.43501 0.21526 0.0
H2898 H 0.87996 0.91333 0.52853 0.0
H2899 H 0.87264 0.89431 0.49009 0.0
H2900 H 0.91304 0.88947 0.44705 0.0
H2901 H 0.92038 0.90883 0.48492 0.0
H2902 H 0.89668 0.89114 0.39028 0.0
H2903 H 0.89725 0.86411 0.5005 0.0
H2904 H 0.89344 0.85774 0.56756 0.0
H2905 H 0.85068 0.86035 0.55052 0.0
H2906 H 0.85421 0.86693 0.4835 0.0
H2907 H 0.84568 0.8324 0.33152 0.0
H2908 H 0.86535 0.84027 0.36731 0.0
H2909 H 0.85786 0.8808 0.3281 0.0
H2910 H 0.83864 0.87296 0.29143 0.0
H2911 H 0.86396 0.85555 0.42535 0.0
H2912 H 0.88366 0.90101 0.3349 0.0
H2913 H 0.88883 0.9061 0.26771 0.0
H2914 H 0.89411 0.86395 0.24478 0.0
H2915 H 0.88915 0.8586 0.31196 0.0
C2916 C 0.88741 0.90798 0.51186 0.0
C2917 C 0.90073 0.91269 0.50957 0.0
C2918 C 0.88321 0.89702 0.48989 0.0
C2919 C 0.89227 0.8904 0.46551 0.0
C2920 C 0.90584 0.89443 0.46548 0.0
C2921 C 0.91004 0.90545 0.48739 0.0
C2922 C 0.88709 0.88066 0.43669 0.0
C2923 C 0.88967 0.88322 0.39797 0.0
C2924 C 0.87825 0.87004 0.44657 0.0
C2925 C 0.87602 0.86606 0.48692 0.0
C2926 C 0.88703 0.86341 0.51109 0.0
C2927 C 0.88492 0.85975 0.54911 0.0
C2928 C 0.87183 0.85865 0.5633 0.0
C2929 C 0.86082 0.86119 0.53948 0.0
C2930 C 0.86287 0.86486 0.50144 0.0
C2931 C 0.84856 0.84289 0.32931 0.0
C2932 C 0.84051 0.85207 0.30883 0.0
C2933 C 0.85976 0.8474 0.35007 0.0
C2934 C 0.86313 0.86115 0.35067 0.0
C2935 C 0.8557 0.87011 0.32776 0.0
C2936 C 0.84461 0.8656 0.3068 0.0
C2937 C 0.873 0.86653 0.37893 0.0
C2938 C 0.87126 0.86319 0.41758 0.0
C2939 C 0.88283 0.87624 0.36895 0.0
C2940 C 0.88599 0.8794 0.32853 0.0
C2941 C 0.88602 0.89282 0.31562 0.0
C2942 C 0.88889 0.89575 0.2775 0.0
C2943 C 0.89178 0.88535 0.25199 0.0
C2944 C 0.89184 0.872 0.26456 0.0
C2945 C 0.88898 0.86901 0.30265 0.0
H2946 H 0.89399 0.88764 0.22248 0.0
H2947 H 0.87021 0.85581 0.59274 0.0
H2948 H 0.41645 0.58988 0.57891 0.0
H2949 H 0.40805 0.6089 0.61628 0.0
H2950 H 0.36731 0.59858 0.58462 0.0
H2951 H 0.37565 0.5801 0.54592 0.0
H2952 H 0.36787 0.6238 0.59613 0.0
H2953 H 0.38419 0.58505 0.66594 0.0
H2954 H 0.40129 0.56847 0.68614 0.0
H2955 H 0.42593 0.60029 0.731 0.0
H2956 H 0.40907 0.61709 0.71042 0.0
H2957 H 0.3383 0.62405 0.79276 0.0
H2958 H 0.3561 0.61546 0.75172 0.0
H2959 H 0.36167 0.65512 0.70405 0.0
H2960 H 0.34365 0.66377 0.74469 0.0
H2961 H 0.38163 0.61866 0.73151 0.0
H2962 H 0.36276 0.65168 0.60698 0.0
H2963 H 0.34248 0.66457 0.58852 0.0
H2964 H 0.31788 0.63836 0.65648 0.0
H2965 H 0.33796 0.62523 0.67486 0.0
C2966 C 0.40575 0.59199 0.57873 0.0
C2967 C 0.3967 0.58332 0.55997 0.0
C2968 C 0.40093 0.60281 0.60044 0.0
C2969 C 0.387 0.6049 0.60448 0.0
C2970 C 0.3781 0.59714 0.58239 0.0
C2971 C 0.3829 0.58652 0.56015 0.0
C2972 C 0.3815 0.61384 0.63487 0.0
C2973 C 0.37107 0.62284 0.6256 0.0
C2974 C 0.38538 0.61241 0.67366 0.0
C2975 C 0.39547 0.60233 0.68622 0.0
C2976 C 0.3933 0.58851 0.67991 0.0
C2977 C 0.40294 0.57908 0.69143 0.0
C2978 C 0.4147 0.58332 0.70977 0.0
C2979 C 0.41683 0.59702 0.7167 0.0
C2980 C 0.40725 0.6065 0.70508 0.0
C2981 C 0.34362 0.63107 0.77456 0.0
C2982 C 0.33937 0.64454 0.77147 0.0
C2983 C 0.35383 0.62613 0.75104 0.0
C2984 C 0.35997 0.63456 0.72405 0.0
C2985 C 0.35688 0.64837 0.72416 0.0
C2986 C 0.34663 0.65333 0.74767 0.0
C2987 C 0.36798 0.62848 0.69269 0.0
C2988 C 0.3788 0.61997 0.70184 0.0
C2989 C 0.36404 0.62988 0.65401 0.0
C2990 C 0.35189 0.63761 0.64269 0.0
C2991 C 0.35302 0.64867 0.61789 0.0
C2992 C 0.34156 0.65601 0.60744 0.0
C2993 C 0.32891 0.65232 0.62145 0.0
C2994 C 0.32768 0.64124 0.64578 0.0
C2995 C 0.3391 0.63386 0.65622 0.0
H2996 H 0.32006 0.65803 0.61336 0.0
H2997 H 0.42215 0.576 0.7187 0.0
H2998 H 0.65944 0.13465 0.78357 0.0
H2999 H 0.64051 0.12486 0.81827 0.0
H3000 H 0.64394 0.15602 0.90351 0.0
H3001 H 0.66238 0.16617 0.868 0.0
H3002 H 0.64413 0.11376 0.88195 0.0
H3003 H 0.61646 0.15745 0.96071 0.0
H3004 H 0.60827 0.18041 0.9471 0.0
H3005 H 0.60616 0.17114 0.82768 0.0
H3006 H 0.61415 0.14807 0.84059 0.0
H3007 H 0.6189 0.08576 0.04427 0.0
H3008 H 0.62866 0.10448 0.00863 0.0
H3009 H 0.59146 0.10937 0.94653 0.0
H3010 H 0.58151 0.09081 0.98255 0.0
H3011 H 0.60571 0.13364 0.95252 0.0
H3012 H 0.61292 0.08817 0.91208 0.0
H3013 H 0.61934 0.06438 0.91996 0.0
H3014 H 0.65954 0.07616 0.95056 0.0
H3015 H 0.65327 0.1001 0.94358 0.0
C3016 C 0.65579 0.13973 0.80885 0.0
C3017 C 0.66249 0.1511 0.82321 0.0
C3018 C 0.64501 0.13408 0.82886 0.0
C3019 C 0.64085 0.13957 0.86387 0.0
C3020 C 0.64678 0.15163 0.87644 0.0
C3021 C 0.6574 0.15743 0.85605 0.0
C3022 C 0.63205 0.1316 0.88985 0.0
C3023 C 0.63569 0.11817 0.89703 0.0
C3024 C 0.62094 0.13722 0.90966 0.0
C3025 C 0.61603 0.15105 0.90163 0.0
C3026 C 0.6142 0.16028 0.93156 0.0
C3027 C 0.6096 0.17333 0.92396 0.0
C3028 C 0.60673 0.17724 0.88654 0.0
C3029 C 0.60843 0.16811 0.85664 0.0
C3030 C 0.61302 0.15506 0.86408 0.0
C3031 C 0.61259 0.09118 0.02423 0.0
C3032 C 0.59953 0.0866 0.01569 0.0
C3033 C 0.61821 0.10186 0.00374 0.0
C3034 C 0.6109 0.10805 0.97418 0.0
C3035 C 0.5973 0.10467 0.96901 0.0
C3036 C 0.59163 0.09403 -0.01029 0.0
C3037 C 0.61808 0.11606 0.94475 0.0
C3038 C 0.61415 0.12938 0.93711 0.0
C3039 C 0.62873 0.11029 0.92357 0.0
C3040 C 0.63258 0.09592 0.9277 0.0
C3041 C 0.6231 0.08569 0.9208 0.0
C3042 C 0.62672 0.07218 0.92505 0.0
C3043 C 0.63983 0.06873 0.93579 0.0
C3044 C 0.64937 0.07883 0.94229 0.0
C3045 C 0.64579 0.09238 0.9382 0.0
H3046 H 0.6426 0.05825 0.939 0.0
H3047 H 0.60318 0.18735 0.88072 0.0
H3048 H 0.16457 0.6267 0.29713 0.0
H3049 H 0.14516 0.61919 0.33342 0.0
H3050 H 0.13794 0.65995 0.37085 0.0
H3051 H 0.15772 0.66751 0.3352 0.0
H3052 H 0.13915 0.64451 0.42965 0.0
H3053 H 0.11415 0.64228 0.31567 0.0
H3054 H 0.10921 0.63727 0.24824 0.0
H3055 H 0.11354 0.59494 0.27032 0.0
H3056 H 0.1187 0.59969 0.33776 0.0
H3057 H 0.08263 0.59104 0.48647 0.0
H3058 H 0.08976 0.61097 0.45074 0.0
H3059 H 0.13042 0.6054 0.49155 0.0
H3060 H 0.12334 0.58576 0.52772 0.0
H3061 H 0.10593 0.60953 0.39312 0.0
H3062 H 0.14877 0.63288 0.48742 0.0
H3063 H 0.15242 0.63901 0.55474 0.0
H3064 H 0.10969 0.64171 0.57181 0.0
H3065 H 0.10577 0.63579 0.50445 0.0
C3066 C 0.15863 0.63417 0.31207 0.0
C3067 C 0.16279 0.64769 0.31353 0.0
C3068 C 0.14744 0.62985 0.33278 0.0
C3069 C 0.14002 0.63899 0.35498 0.0
C3070 C 0.14352 0.6527 0.35406 0.0
C3071 C 0.15478 0.65702 0.33342 0.0
C3072 C 0.12997 0.63382 0.38286 0.0
C3073 C 0.13174 0.63701 0.4216 0.0
C3074 C 0.11998 0.62433 0.37243 0.0
C3075 C 0.11684 0.62136 0.33184 0.0
C3076 C 0.11412 0.63191 0.30612 0.0
C3077 C 0.11128 0.62911 0.26788 0.0
C3078 C 0.11107 0.6158 0.255 0.0
C3079 C 0.11369 0.60525 0.28035 0.0
C3080 C 0.11655 0.60799 0.31862 0.0
C3081 C 0.09298 0.59437 0.48901 0.0
C3082 C 0.10245 0.58673 0.50966 0.0
C3083 C 0.09706 0.60573 0.46832 0.0
C3084 C 0.11064 0.60969 0.46822 0.0
C3085 C 0.11985 0.60272 0.49146 0.0
C3086 C 0.11578 0.5914 0.51212 0.0
C3087 C 0.1157 0.61966 0.43994 0.0
C3088 C 0.11304 0.61733 0.40113 0.0
C3089 C 0.12467 0.63012 0.45029 0.0
C3090 C 0.12698 0.63383 0.49081 0.0
C3091 C 0.14015 0.63487 0.50542 0.0
C3092 C 0.14227 0.63829 0.54364 0.0
C3093 C 0.1313 0.64073 0.56755 0.0
C3094 C 0.11818 0.63978 0.55328 0.0
C3095 C 0.11601 0.63638 0.51509 0.0
H3096 H 0.13296 0.64337 0.59713 0.0
H3097 H 0.10886 0.61366 0.22538 0.0
H3098 H 0.6225 0.91597 0.54765 0.0
H3099 H 0.6299 0.89669 0.58489 0.0
H3100 H 0.58976 0.89198 0.62993 0.0
H3101 H 0.58236 0.91167 0.59347 0.0
H3102 H 0.6061 0.89286 0.68579 0.0
H3103 H 0.60538 0.86672 0.57431 0.0
H3104 H 0.60895 0.86077 0.50685 0.0
H3105 H 0.65177 0.86334 0.52272 0.0
H3106 H 0.64848 0.8695 0.59013 0.0
H3107 H 0.65751 0.83413 0.74165 0.0
H3108 H 0.63788 0.8421 0.70577 0.0
H3109 H 0.64518 0.8825 0.74616 0.0
H3110 H 0.66442 0.87457 0.78274 0.0
H3111 H 0.63904 0.85781 0.64808 0.0
H3112 H 0.61886 0.90226 0.742 0.0
H3113 H 0.61361 0.90655 0.80958 0.0
H3114 H 0.60906 0.8641 0.82908 0.0
H3115 H 0.61408 0.85955 0.76151 0.0
C3116 C 0.61511 0.9106 0.56449 0.0
C3117 C 0.60186 0.91546 0.56782 0.0
C3118 C 0.61936 0.89948 0.58579 0.0
C3119 C 0.61041 0.89281 0.6104 0.0
C3120 C 0.59688 0.89698 0.61135 0.0
C3121 C 0.59264 0.90819 0.59024 0.0
C3122 C 0.61569 0.88284 0.63856 0.0
C3123 C 0.61316 0.88506 0.67748 0.0
C3124 C 0.62457 0.87234 0.62792 0.0
C3125 C 0.62666 0.86862 0.58733 0.0
C3126 C 0.61556 0.8661 0.56338 0.0
C3127 C 0.61754 0.86268 0.52514 0.0
C3128 C 0.63058 0.86169 0.5105 0.0
C3129 C 0.64167 0.8641 0.5341 0.0
C3130 C 0.63976 0.86753 0.57237 0.0
C3131 C 0.65461 0.84462 0.74403 0.0
C3132 C 0.6626 0.85373 0.76489 0.0
C3133 C 0.64344 0.84918 0.72323 0.0
C3134 C 0.64001 0.86292 0.72305 0.0
C3135 C 0.6474 0.87182 0.74617 0.0
C3136 C 0.65849 0.86726 0.76708 0.0
C3137 C 0.63001 0.86837 0.69523 0.0
C3138 C 0.6317 0.86534 0.65638 0.0
C3139 C 0.62009 0.87787 0.70595 0.0
C3140 C 0.61691 0.88056 0.74662 0.0
C3141 C 0.61665 0.89384 0.76061 0.0
C3142 C 0.61374 0.89631 0.79896 0.0
C3143 C 0.61103 0.8856 0.82362 0.0
C3144 C 0.6112 0.87239 0.80997 0.0
C3145 C 0.6141 0.86985 0.77165 0.0
H3146 H 0.60878 0.88754 0.8533 0.0
H3147 H 0.63209 0.85904 0.48089 0.0
H3148 H 0.33548 0.37374 0.78949 0.0
H3149 H 0.35521 0.38114 0.82474 0.0
H3150 H 0.3635 0.34009 0.85789 0.0
H3151 H 0.34339 0.33264 0.82331 0.0
H3152 H 0.36297 0.35474 0.91809 0.0
H3153 H 0.38636 0.35877 0.80247 0.0
H3154 H 0.39039 0.36453 0.73507 0.0
H3155 H 0.38557 0.40653 0.7607 0.0
H3156 H 0.38131 0.40103 0.82814 0.0
H3157 H 0.41868 0.40953 0.97274 0.0
H3158 H 0.4117 0.38971 0.93641 0.0
H3159 H 0.3718 0.39288 0.98421 0.0
H3160 H 0.37881 0.41233 0.02125 0.0
H3161 H 0.39484 0.39094 0.8817 0.0
H3162 H 0.35399 0.36523 0.97808 0.0
H3163 H 0.35156 0.35804 0.045 0.0
H3164 H 0.39458 0.35637 0.05708 0.0
H3165 H 0.39728 0.36335 -0.00992 0.0
C3166 C 0.34171 0.3662 0.80323 0.0
C3167 C 0.33777 0.35261 0.80385 0.0
C3168 C 0.35309 0.37045 0.82335 0.0
C3169 C 0.36092 0.36119 0.8441 0.0
C3170 C 0.35761 0.34744 0.84224 0.0
C3171 C 0.34616 0.34318 0.82219 0.0
C3172 C 0.37124 0.36621 0.8715 0.0
C3173 C 0.37009 0.36252 0.91005 0.0
C3174 C 0.38089 0.37604 0.86102 0.0
C3175 C 0.38348 0.37946 0.82044 0.0
C3176 C 0.38608 0.36923 0.79372 0.0
C3177 C 0.38842 0.37245 0.75549 0.0
C3178 C 0.38823 0.38589 0.74361 0.0
C3179 C 0.38573 0.39613 0.76995 0.0
C3180 C 0.38338 0.39296 0.80822 0.0
C3181 C 0.40858 0.40567 0.97669 0.0
C3182 C 0.39926 0.41261 -0.00039 0.0
C3183 C 0.40457 0.39438 0.95565 0.0
C3184 C 0.39119 0.38979 0.95724 0.0
C3185 C 0.38224 0.39602 0.98274 0.0
C3186 C 0.38626 0.40723 0.00394 0.0
C3187 C 0.38595 0.38004 0.92851 0.0
C3188 C 0.38803 0.38289 0.88969 0.0
C3189 C 0.37741 0.36922 0.93869 0.0
C3190 C 0.37583 0.36487 0.97899 0.0
C3191 C 0.36294 0.36323 -0.00511 0.0
C3192 C 0.36151 0.35922 0.03289 0.0
C3193 C 0.37291 0.35677 0.05529 0.0
C3194 C 0.38576 0.35831 0.03973 0.0
C3195 C 0.38724 0.36231 0.00175 0.0
H3196 H 0.37178 0.35367 0.0847 0.0
H3197 H 0.39004 0.38836 0.714 0.0
H3198 H 0.83034 0.12451 0.27806 0.0
H3199 H 0.85056 0.11749 0.24477 0.0
H3200 H 0.85907 0.15884 0.21543 0.0
H3201 H 0.83838 0.1659 0.24753 0.0
H3202 H 0.85946 0.14519 0.15467 0.0
H3203 H 0.88149 0.13873 0.27289 0.0
H3204 H 0.88429 0.13146 0.33969 0.0
H3205 H 0.8788 0.09023 0.30633 0.0
H3206 H 0.8759 0.09722 0.2394 0.0
H3207 H 0.91659 0.0924 0.09762 0.0
H3208 H 0.9087 0.11121 0.13673 0.0
H3209 H 0.86932 0.10796 0.08526 0.0
H3210 H 0.87718 0.08947 0.04574 0.0
H3211 H 0.89084 0.10834 0.18979 0.0
H3212 H 0.85125 0.13542 0.09239 0.0
H3213 H 0.84958 0.14364 0.02622 0.0
H3214 H 0.89268 0.1461 0.01945 0.0
H3215 H 0.89463 0.13806 0.08577 0.0
C3216 C 0.83672 0.1322 0.26566 0.0
C3217 C 0.83265 0.14576 0.26513 0.0
C3218 C 0.84839 0.12816 0.24667 0.0
C3219 C 0.85644 0.13761 0.22746 0.0
C3220 C 0.85302 0.15133 0.22981 0.0
C3221 C 0.84122 0.15537 0.24843 0.0
C3222 C 0.86709 0.13291 0.20065 0.0
C3223 C 0.86648 0.13728 0.16254 0.0
C3224 C 0.87655 0.12284 0.21086 0.0
C3225 C 0.87846 0.11852 0.25107 0.0
C3226 C 0.88084 0.12811 0.27981 0.0
C3227 C 0.88248 0.12404 0.31771 0.0
C3228 C 0.88176 0.11039 0.32725 0.0
C3229 C 0.87943 0.10079 0.29889 0.0
C3230 C 0.87784 0.1048 0.26094 0.0
C3231 C 0.9064 0.09605 0.09354 0.0
C3232 C 0.89747 0.08935 0.06878 0.0
C3233 C 0.90188 0.10675 0.11617 0.0
C3234 C 0.88839 0.111 0.11417 0.0
C3235 C 0.87982 0.10505 0.08709 0.0
C3236 C 0.88433 0.0944 0.06448 0.0
C3237 C 0.88266 0.12014 0.14362 0.0
C3238 C 0.88415 0.11655 0.18217 0.0
C3239 C 0.8742 0.1311 0.13393 0.0
C3240 C 0.87309 0.13609 0.0941 0.0
C3241 C 0.86038 0.1378 0.07692 0.0
C3242 C 0.85938 0.14241 0.03933 0.0
C3243 C 0.87102 0.14537 0.01863 0.0
C3244 C 0.88368 0.14376 0.03549 0.0
C3245 C 0.88474 0.13916 0.07306 0.0
H3246 H 0.87022 0.14893 -0.01047 0.0
H3247 H 0.88299 0.10726 0.35662 0.0
H3248 H 0.87465 0.58337 0.03215 0.0
H3249 H 0.86702 0.60214 -0.00681 0.0
H3250 H 0.90782 0.60929 0.95622 0.0
H3251 H 0.91549 0.59005 -0.00587 0.0
H3252 H 0.86929 0.62729 0.97959 0.0
H3253 H 0.9079 0.61536 0.86124 0.0
H3254 H 0.92245 0.59657 0.8405 0.0
H3255 H 0.89527 0.56817 0.89148 0.0
H3256 H 0.8805 0.58677 0.91201 0.0
H3257 H 0.84473 0.66715 0.83166 0.0
H3258 H 0.86297 0.6579 0.87065 0.0
H3259 H 0.85509 0.61835 0.82489 0.0
H3260 H 0.8372 0.62756 0.78518 0.0
H3261 H 0.88036 0.61969 0.84333 0.0
H3262 H 0.83837 0.62976 0.90412 0.0
H3263 H 0.81939 0.6442 0.92366 0.0
H3264 H 0.84654 0.66955 0.98651 0.0
H3265 H 0.86573 0.65532 0.96687 0.0
C3266 C 0.8821 0.58916 0.01669 0.0
C3267 C 0.89564 0.58501 0.01559 0.0
C3268 C 0.8777 0.59995 -0.00565 0.0
C3269 C 0.88677 0.6069 0.97077 0.0
C3270 C 0.90057 0.60385 0.97337 0.0
C3271 C 0.90497 0.59291 -0.00465 0.0
C3272 C 0.88144 0.61591 0.94026 0.0
C3273 C 0.87193 0.6258 0.94987 0.0
C3274 C 0.88449 0.61371 0.90124 0.0
C3275 C 0.89322 0.60247 0.88859 0.0
C3276 C 0.90504 0.60511 0.86792 0.0
C3277 C 0.91331 0.59449 0.85621 0.0
C3278 C 0.90982 0.58119 0.86481 0.0
C3279 C 0.898 0.57847 0.88496 0.0
C3280 C 0.88968 0.58905 0.89664 0.0
C3281 C 0.84725 0.65659 0.82869 0.0
C3282 C 0.83931 0.64804 0.8059 0.0
C3283 C 0.85763 0.65129 0.85128 0.0
C3284 C 0.86011 0.63735 0.85166 0.0
C3285 C 0.8533 0.62911 0.82544 0.0
C3286 C 0.84302 0.63441 0.80268 0.0
C3287 C 0.86818 0.631 0.88267 0.0
C3288 C 0.87813 0.62155 0.87314 0.0
C3289 C 0.86497 0.63304 0.92164 0.0
C3290 C 0.85349 0.6416 0.93362 0.0
C3291 C 0.8403 0.63847 0.92188 0.0
C3292 C 0.8295 0.64661 0.93299 0.0
C3293 C 0.83176 0.65781 0.95621 0.0
C3294 C 0.84481 0.66088 0.96844 0.0
C3295 C 0.85565 0.65279 0.95732 0.0
H3296 H 0.82338 0.66409 0.9648 0.0
H3297 H 0.91625 0.573 0.85577 0.0
H3298 H 0.08415 0.08794 0.58518 0.0
H3299 H 0.09094 0.10771 0.6221 0.0
H3300 H 0.13168 0.10317 0.58138 0.0
H3301 H 0.12489 0.08375 0.54378 0.0
H3302 H 0.10679 0.10694 0.67976 0.0
H3303 H 0.14971 0.13075 0.58717 0.0
H3304 H 0.15364 0.13677 0.51991 0.0
H3305 H 0.11097 0.1387 0.50032 0.0
H3306 H 0.10677 0.13288 0.56759 0.0
H3307 H 0.1643 0.12651 0.77915 0.0
H3308 H 0.14515 0.11819 0.74294 0.0
H3309 H 0.13731 0.15831 0.70104 0.0
H3310 H 0.15682 0.16667 0.73653 0.0
H3311 H 0.13943 0.14251 0.64392 0.0
H3312 H 0.11346 0.1405 0.75553 0.0
H3313 H 0.10788 0.13595 0.82277 0.0
H3314 H 0.11339 0.09356 0.80431 0.0
H3315 H 0.11919 0.09785 0.73709 0.0
C3316 C 0.09444 0.09146 0.58299 0.0
C3317 C 0.104 0.0842 0.56171 0.0
C3318 C 0.09834 0.10272 0.60437 0.0
C3319 C 0.11184 0.10696 0.60475 0.0
C3320 C 0.12115 0.1003 0.58124 0.0
C3321 C 0.11726 0.08912 0.55972 0.0
C3322 C 0.11666 0.11704 0.63313 0.0
C3323 C 0.11379 0.11484 0.67187 0.0
C3324 C 0.12546 0.12767 0.62296 0.0
C3325 C 0.12793 0.13131 0.58248 0.0
C3326 C 0.14116 0.13255 0.56861 0.0
C3327 C 0.14344 0.1359 0.53045 0.0
C3328 C 0.13256 0.1381 0.50585 0.0
C3329 C 0.11939 0.13696 0.51938 0.0
C3330 C 0.11705 0.13361 0.55752 0.0
C3331 C 0.15825 0.13368 0.76335 0.0
C3332 C 0.16222 0.14723 0.76039 0.0
C3333 C 0.14721 0.1289 0.74263 0.0
C3334 C 0.13976 0.13759 0.71898 0.0
C3335 C 0.14294 0.15138 0.71883 0.0
C3336 C 0.15405 0.15617 0.73942 0.0
C3337 C 0.13013 0.13189 0.69059 0.0
C3338 C 0.13215 0.13487 0.65182 0.0
C3339 C 0.12031 0.12221 0.70074 0.0
C3340 C 0.11681 0.11952 0.7412 0.0
C3341 C 0.11356 0.13021 0.76584 0.0
C3342 C 0.11035 0.12768 0.80396 0.0
C3343 C 0.11029 0.11448 0.81781 0.0
C3344 C 0.11343 0.10378 0.79354 0.0
C3345 C 0.11665 0.10626 0.75538 0.0
H3346 H 0.1078 0.11254 0.84734 0.0
H3347 H 0.13435 0.14068 0.4763 0.0
H3348 H 0.67016 0.37708 0.29555 0.0
H3349 H 0.65179 0.38576 0.33404 0.0
H3350 H 0.64123 0.34529 0.36744 0.0
H3351 H 0.66008 0.33653 0.33 0.0
H3352 H 0.62641 0.3852 0.34437 0.0
H3353 H 0.6334 0.34495 0.46141 0.0
H3354 H 0.65055 0.32873 0.48385 0.0
H3355 H 0.68195 0.35382 0.43873 0.0
H3356 H 0.665 0.37023 0.41644 0.0
H3357 H 0.58603 0.41055 0.49124 0.0
H3358 H 0.59481 0.3925 0.45084 0.0
H3359 H 0.63434 0.39812 0.49961 0.0
H3360 H 0.62562 0.41596 0.54032 0.0
H3361 H 0.63123 0.37266 0.48073 0.0
H3362 H 0.62483 0.41575 0.42156 0.0
H3363 H 0.6122 0.43583 0.40045 0.0
H3364 H 0.58638 0.41091 0.33202 0.0
H3365 H 0.59876 0.39065 0.35319 0.0
C3366 C 0.66373 0.36996 0.31023 0.0
C3367 C 0.66676 0.35613 0.3103 0.0
C3368 C 0.65317 0.37496 0.33227 0.0
C3369 C 0.64532 0.36623 0.35457 0.0
C3370 C 0.64736 0.35226 0.35126 0.0
C3371 C 0.65807 0.34725 0.32955 0.0
C3372 C 0.6363 0.37196 0.38431 0.0
C3373 C 0.62728 0.38226 0.37408 0.0
C3374 C 0.63767 0.36845 0.42334 0.0
C3375 C 0.64793 0.35869 0.43682 0.0
C3376 C 0.64397 0.34699 0.45634 0.0
C3377 C 0.65365 0.33777 0.46903 0.0
C3378 C 0.66732 0.34022 0.46257 0.0
C3379 C 0.67135 0.35191 0.44357 0.0
C3380 C 0.66171 0.36117 0.43089 0.0
C3381 C 0.59647 0.40757 0.49447 0.0
C3382 C 0.60519 0.41483 0.51856 0.0
C3383 C 0.6015 0.39732 0.47109 0.0
C3384 C 0.61531 0.3942 0.47147 0.0
C3385 C 0.62367 0.4004 0.49858 0.0
C3386 C 0.61866 0.41063 0.5219 0.0
C3387 C 0.62147 0.38594 0.44077 0.0
C3388 C 0.62998 0.37523 0.45086 0.0
C3389 C 0.62017 0.38955 0.40181 0.0
C3390 C 0.61258 0.40167 0.38941 0.0
C3391 C 0.61637 0.41454 0.40232 0.0
C3392 C 0.60928 0.42596 0.39029 0.0
C3393 C 0.59846 0.42464 0.36502 0.0
C3394 C 0.59473 0.41191 0.35169 0.0
C3395 C 0.60178 0.40045 0.36371 0.0
H3396 H 0.593 0.43349 0.35568 0.0
H3397 H 0.6748 0.33307 0.47239 0.0
H3398 H 0.4128 0.90546 0.0696 0.0
H3399 H 0.40456 0.88566 0.10396 0.0
H3400 H 0.36384 0.89567 0.07124 0.0
H3401 H 0.37201 0.91512 0.03618 0.0
H3402 H 0.39011 0.88733 0.16436 0.0
H3403 H 0.34271 0.87025 0.07708 0.0
H3404 H 0.33653 0.86592 0.01011 0.0
H3405 H 0.37814 0.85964 0.98212 0.0
H3406 H 0.38457 0.86368 0.04907 0.0
H3407 H 0.33239 0.87285 0.2699 0.0
H3408 H 0.35157 0.87969 0.23144 0.0
H3409 H 0.3547 0.83946 0.1859 0.0
H3410 H 0.33526 0.83259 0.22389 0.0
H3411 H 0.35277 0.85644 0.13019 0.0
H3412 H 0.38102 0.85375 0.23782 0.0
H3413 H 0.3883 0.85668 0.30454 0.0
H3414 H 0.38728 0.89965 0.29089 0.0
H3415 H 0.37981 0.897 0.22424 0.0
C3416 C 0.40215 0.90313 0.06844 0.0
C3417 C 0.39305 0.91195 0.05043 0.0
C3418 C 0.39744 0.89185 0.08838 0.0
C3419 C 0.38356 0.88916 0.09047 0.0
C3420 C 0.37461 0.89734 0.06974 0.0
C3421 C 0.3793 0.90855 0.04969 0.0
C3422 C 0.37818 0.8792 0.11836 0.0
C3423 C 0.38208 0.88043 0.15678 0.0
C3424 C 0.36795 0.8699 0.10852 0.0
C3425 C 0.36413 0.86733 0.06818 0.0
C3426 C 0.35054 0.86785 0.05674 0.0
C3427 C 0.34699 0.86547 0.01873 0.0
C3428 C 0.35693 0.86254 -0.00814 0.0
C3429 C 0.37045 0.86195 0.00295 0.0
C3430 C 0.37405 0.8643 0.04092 0.0
C3431 C 0.33743 0.86531 0.25275 0.0
C3432 C 0.33218 0.85221 0.24967 0.0
C3433 C 0.34846 0.86924 0.23074 0.0
C3434 C 0.35459 0.86012 0.20554 0.0
C3435 C 0.3501 0.8467 0.20495 0.0
C3436 C 0.33903 0.84276 0.22692 0.0
C3437 C 0.36421 0.86515 0.17628 0.0
C3438 C 0.36107 0.86305 0.13764 0.0
C3439 C 0.37529 0.87346 0.18586 0.0
C3440 C 0.3798 0.87516 0.22598 0.0
C3441 C 0.38226 0.86383 0.24909 0.0
C3442 C 0.38644 0.86544 0.28691 0.0
C3443 C 0.38824 0.87834 0.30195 0.0
C3444 C 0.38589 0.88966 0.27918 0.0
C3445 C 0.38171 0.8881 0.24135 0.0
H3446 H 0.39148 0.87957 0.33124 0.0
H3447 H 0.35417 0.86071 0.96245 0.0
H3448 H 0.83721 0.37317 0.78705 0.0
H3449 H 0.85478 0.38154 0.74488 0.0
H3450 H 0.85938 0.34184 0.69669 0.0
H3451 H 0.84161 0.33342 0.73855 0.0
H3452 H 0.87976 0.37831 0.72477 0.0
H3453 H 0.86054 0.34538 0.59833 0.0
H3454 H 0.83969 0.3341 0.5769 0.0
H3455 H 0.81612 0.36092 0.64577 0.0
H3456 H 0.83676 0.37242 0.66723 0.0
H3457 H 0.91619 0.40588 0.57477 0.0
H3458 H 0.90726 0.38688 0.61123 0.0
H3459 H 0.86696 0.39751 0.57596 0.0
H3460 H 0.87583 0.41602 0.53834 0.0
H3461 H 0.86712 0.37237 0.58882 0.0
H3462 H 0.882 0.4114 0.65725 0.0
H3463 H 0.89828 0.42871 0.67788 0.0
H3464 H 0.92354 0.39804 0.72659 0.0
H3465 H 0.90746 0.38053 0.70579 0.0
C3466 C 0.84227 0.36609 0.76848 0.0
C3467 C 0.83784 0.35268 0.76575 0.0
C3468 C 0.85233 0.3709 0.74425 0.0
C3469 C 0.85815 0.3624 0.71687 0.0
C3470 C 0.85483 0.34865 0.71707 0.0
C3471 C 0.84475 0.34382 0.74134 0.0
C3472 C 0.86635 0.36832 0.68562 0.0
C3473 C 0.87716 0.3768 0.69501 0.0
C3474 C 0.86266 0.36677 0.64676 0.0
C3475 C 0.85023 0.35958 0.63495 0.0
C3476 C 0.85091 0.34881 0.60904 0.0
C3477 C 0.83912 0.34239 0.59685 0.0
C3478 C 0.82658 0.34671 0.6102 0.0
C3479 C 0.82582 0.35749 0.63571 0.0
C3480 C 0.83757 0.36394 0.64796 0.0
C3481 C 0.90549 0.40381 0.57347 0.0
C3482 C 0.89669 0.41265 0.55435 0.0
C3483 C 0.90037 0.39301 0.59466 0.0
C3484 C 0.88638 0.39105 0.59753 0.0
C3485 C 0.87778 0.39886 0.57464 0.0
C3486 C 0.88288 0.40951 0.55307 0.0
C3487 C 0.88051 0.3824 0.62795 0.0
C3488 C 0.87009 0.37345 0.61845 0.0
C3489 C 0.88397 0.38418 0.66689 0.0
C3490 C 0.89364 0.39465 0.67954 0.0
C3491 C 0.89108 0.40835 0.67214 0.0
C3492 C 0.90026 0.41819 0.68387 0.0
C3493 C 0.91196 0.41447 0.70341 0.0
C3494 C 0.91449 0.4009 0.71135 0.0
C3495 C 0.90535 0.39101 0.6996 0.0
H3496 H 0.91906 0.4221 0.71249 0.0
H3497 H 0.81747 0.34178 0.6006 0.0
H3498 H 0.41701 0.09188 0.48828 0.0
H3499 H 0.40938 0.1112 0.45047 0.0
H3500 H 0.36873 0.10468 0.48963 0.0
H3501 H 0.3763 0.08572 0.52798 0.0
H3502 H 0.39364 0.11004 0.39209 0.0
H3503 H 0.34965 0.13154 0.48516 0.0
H3504 H 0.34543 0.13706 0.55261 0.0
H3505 H 0.38796 0.14068 0.57253 0.0
H3506 H 0.39245 0.13539 0.50508 0.0
H3507 H 0.33587 0.12802 0.29122 0.0
H3508 H 0.35509 0.1202 0.32804 0.0
H3509 H 0.36081 0.16023 0.37312 0.0
H3510 H 0.34116 0.16804 0.33713 0.0
H3511 H 0.35947 0.14403 0.42892 0.0
H3512 H 0.38571 0.14376 0.31769 0.0
H3513 H 0.39162 0.13987 0.25036 0.0
H3514 H 0.38786 0.09718 0.26682 0.0
H3515 H 0.38173 0.10081 0.33411 0.0
C3516 C 0.40653 0.09486 0.48986 0.0
C3517 C 0.39726 0.08721 0.51107 0.0
C3518 C 0.40216 0.10586 0.46796 0.0
C3519 C 0.38847 0.10945 0.46708 0.0
C3520 C 0.37938 0.10232 0.4902 0.0
C3521 C 0.38373 0.0914 0.51211 0.0
C3522 C 0.38328 0.11946 0.43895 0.0
C3523 C 0.38629 0.1176 0.40017 0.0
C3524 C 0.37404 0.12967 0.44942 0.0
C3525 C 0.37139 0.13301 0.49001 0.0
C3526 C 0.35811 0.13361 0.50383 0.0
C3527 C 0.35567 0.13667 0.54211 0.0
C3528 C 0.36642 0.13919 0.56685 0.0
C3529 C 0.37964 0.13869 0.55336 0.0
C3530 C 0.38214 0.13564 0.51511 0.0
C3531 C 0.34146 0.1353 0.30793 0.0
C3532 C 0.33686 0.14863 0.31151 0.0
C3533 C 0.35255 0.13081 0.32899 0.0
C3534 C 0.35947 0.1396 0.3536 0.0
C3535 C 0.35561 0.15322 0.35458 0.0
C3536 C 0.34442 0.1577 0.33372 0.0
C3537 C 0.36926 0.13407 0.38191 0.0
C3538 C 0.36707 0.13674 0.42078 0.0
C3539 C 0.37951 0.12487 0.37152 0.0
C3540 C 0.38322 0.12258 0.33101 0.0
C3541 C 0.38606 0.13354 0.30692 0.0
C3542 C 0.38946 0.13138 0.26875 0.0
C3543 C 0.3901 0.11829 0.25432 0.0
C3544 C 0.38737 0.10732 0.27805 0.0
C3545 C 0.38396 0.10942 0.31624 0.0
H3546 H 0.39274 0.11664 0.22476 0.0
H3547 H 0.36451 0.14155 0.59647 0.0
H3548 H 0.62236 0.58412 0.03285 0.0
H3549 H 0.63192 0.60135 0.07437 0.0
H3550 H 0.59295 0.60774 0.1254 0.0
H3551 H 0.58331 0.59041 0.08406 0.0
H3552 H 0.62928 0.62701 0.09443 0.0
H3553 H 0.59802 0.60815 0.22403 0.0
H3554 H 0.58607 0.58765 0.24507 0.0
H3555 H 0.61091 0.56349 0.17202 0.0
H3556 H 0.62315 0.5838 0.15109 0.0
H3557 H 0.65765 0.66373 0.24449 0.0
H3558 H 0.63895 0.65446 0.2072 0.0
H3559 H 0.65032 0.61432 0.24193 0.0
H3560 H 0.6685 0.62351 0.28038 0.0
H3561 H 0.62508 0.61415 0.23067 0.0
H3562 H 0.66323 0.6299 0.15943 0.0
H3563 H 0.6799 0.64661 0.13756 0.0
H3564 H 0.64813 0.67102 0.09105 0.0
H3565 H 0.63125 0.65451 0.11314 0.0
C3566 C 0.61571 0.58951 0.05194 0.0
C3567 C 0.60211 0.58575 0.05551 0.0
C3568 C 0.6212 0.59937 0.07575 0.0
C3569 C 0.61322 0.6056 0.10364 0.0
C3570 C 0.59934 0.60289 0.10451 0.0
C3571 C 0.59382 0.59305 0.08058 0.0
C3572 C 0.61977 0.61358 0.13435 0.0
C3573 C 0.62818 0.62435 0.12428 0.0
C3574 C 0.61871 0.60981 0.17324 0.0
C3575 C 0.61132 0.59755 0.18547 0.0
C3576 C 0.60091 0.59847 0.21243 0.0
C3577 C 0.5941 0.58687 0.22438 0.0
C3578 C 0.59767 0.57429 0.20967 0.0
C3579 C 0.6081 0.57326 0.18317 0.0
C3580 C 0.61496 0.58481 0.17124 0.0
C3581 C 0.65584 0.65297 0.2453 0.0
C3582 C 0.66472 0.64434 0.26488 0.0
C3583 C 0.64522 0.64767 0.22365 0.0
C3584 C 0.64347 0.63365 0.22066 0.0
C3585 C 0.65147 0.62516 0.24339 0.0
C3586 C 0.66193 0.63045 0.26542 0.0
C3587 C 0.63461 0.62763 0.19083 0.0
C3588 C 0.62582 0.61714 0.20099 0.0
C3589 C 0.63588 0.63117 0.15179 0.0
C3590 C 0.64598 0.64108 0.13835 0.0
C3591 C 0.6598 0.63888 0.14475 0.0
C3592 C 0.66929 0.6483 0.13231 0.0
C3593 C 0.66507 0.65989 0.11303 0.0
C3594 C 0.65137 0.66205 0.10607 0.0
C3595 C 0.64184 0.65267 0.11855 0.0
H3596 H 0.67243 0.66717 0.1034 0.0
H3597 H 0.59239 0.56533 0.21896 0.0
H3598 H 0.16443 0.83322 0.86577 0.0
H3599 H 0.14575 0.84365 0.89923 0.0
H3600 H 0.14159 0.87278 0.80845 0.0
H3601 H 0.16095 0.86281 0.77601 0.0
H3602 H 0.14361 0.88564 0.86807 0.0
H3603 H 0.11567 0.8489 0.83632 0.0
H3604 H 0.10871 0.82525 0.82787 0.0
H3605 H 0.11215 0.8186 0.94848 0.0
H3606 H 0.11932 0.84216 0.95764 0.0
H3607 H 0.0821 0.9064 0.98195 0.0
H3608 H 0.092 0.88861 0.94269 0.0
H3609 H 0.13071 0.89578 -0.00523 0.0
H3610 H 0.12096 0.91357 0.03392 0.0
H3611 H 0.10773 0.86508 0.94728 0.0
H3612 H 0.15273 0.90177 0.92219 0.0
H3613 H 0.15712 0.92625 0.9216 0.0
H3614 H 0.11525 0.93389 0.89975 0.0
H3615 H 0.11065 0.90955 0.89954 0.0
C3616 C 0.15925 0.84156 0.85222 0.0
C3617 C 0.16426 0.84728 0.8184 0.0
C3618 C 0.14847 0.84753 0.87143 0.0
C3619 C 0.14219 0.8591 0.85665 0.0
C3620 C 0.14633 0.86396 0.82082 0.0
C3621 C 0.15734 0.8582 0.80206 0.0
C3622 C 0.13296 0.86726 0.88104 0.0
C3623 C 0.13571 0.88107 0.88499 0.0
C3624 C 0.12241 0.86149 0.90292 0.0
C3625 C 0.11812 0.84729 0.89762 0.0
C3626 C 0.11504 0.84237 0.86102 0.0
C3627 C 0.11104 0.82899 0.85611 0.0
C3628 C 0.11001 0.82043 0.88761 0.0
C3629 C 0.11295 0.82525 0.9241 0.0
C3630 C 0.11697 0.83862 0.92918 0.0
C3631 C 0.0926 0.90383 0.9862 0.0
C3632 C 0.10079 0.91158 0.01062 0.0
C3633 C 0.09825 0.89367 0.96359 0.0
C3634 C 0.11215 0.89113 0.96514 0.0
C3635 C 0.11999 0.89775 -0.00731 0.0
C3636 C 0.11438 0.90788 0.01524 0.0
C3637 C 0.11883 0.88315 0.93477 0.0
C3638 C 0.1156 0.8695 0.92989 0.0
C3639 C 0.12861 0.88911 0.91085 0.0
C3640 C 0.13133 0.90382 0.91135 0.0
C3641 C 0.14447 0.90869 0.91723 0.0
C3642 C 0.14699 0.92255 0.91699 0.0
C3643 C 0.13646 0.93164 0.91076 0.0
C3644 C 0.12339 0.92688 0.90473 0.0
C3645 C 0.12082 0.91305 0.90486 0.0
H3646 H 0.13843 0.94237 0.91049 0.0
H3647 H 0.10691 0.81007 0.88374 0.0
loop_
_geom_bond_atom_site_label_1
_geom_bond_atom_site_label_2
_geom_bond_distance
_geom_bond_site_symmetry_2
_ccdc_geom_bond_type
C0 O1 1.306 1_556 S
C0 O3 1.160 1_556 S
O1 C0 1.306 1_554 S
O1 Cd2 2.228 . S
Cd2 O1 2.228 . S
Cd2 O6 2.273 . S
Cd2 O10 2.277 . S
O3 C0 1.160 1_554 S
O3 Cd4 2.203 . S
Cd4 O3 2.203 . S
Cd4 O6 2.411 . S
Cd4 O7 2.333 . S
Cd4 O8 2.352 . S
Cd4 O12 2.277 . S
Cd4 O13 2.356 . S
C5 O10 1.209 . S
C5 O12 1.226 . S
O6 Cd2 2.273 . S
O6 Cd4 2.411 . S
O6 C9 1.320 . S
O7 Cd4 2.333 . S
O7 C9 1.214 . S
O8 Cd4 2.352 . S
O8 C11 1.258 . S
C9 O6 1.320 . S
C9 O7 1.214 . S
O10 Cd2 2.277 . S
O10 C5 1.209 . S
C11 O8 1.258 . S
C11 O13 1.282 . S
O12 Cd4 2.277 . S
O12 C5 1.226 . S
O13 Cd4 2.356 . S
O13 C11 1.282 . S
C14 O15 1.306 . S
C14 O17 1.160 . S
O15 C14 1.306 . S
O15 Cd16 2.228 . S
Cd16 O15 2.228 . S
Cd16 O20 2.273 . S
Cd16 O24 2.277 . S
O17 C14 1.160 . S
O17 Cd18 2.203 . S
Cd18 O17 2.203 . S
Cd18 O20 2.411 . S
Cd18 O21 2.333 . S
Cd18 O22 2.352 . S
Cd18 O26 2.277 . S
Cd18 O27 2.356 . S
C19 O24 1.209 . S
C19 O26 1.226 . S
O20 Cd16 2.273 . S
O20 Cd18 2.411 . S
O20 C23 1.320 . S
O21 Cd18 2.333 . S
O21 C23 1.214 . S
O22 Cd18 2.352 . S
O22 C25 1.258 . S
C23 O20 1.320 . S
C23 O21 1.214 . S
O24 Cd16 2.277 . S
O24 C19 1.209 . S
C25 O22 1.258 . S
C25 O27 1.282 . S
O26 Cd18 2.277 . S
O26 C19 1.226 . S
O27 Cd18 2.356 . S
O27 C25 1.282 . S
C28 O29 1.306 . S
C28 O31 1.160 . S
O29 C28 1.306 . S
O29 Cd30 2.228 . S
Cd30 O29 2.228 . S
Cd30 O34 2.273 . S
Cd30 O38 2.277 . S
O31 C28 1.160 . S
O31 Cd32 2.203 . S
Cd32 O31 2.203 . S
Cd32 O34 2.411 . S
Cd32 O35 2.333 . S
Cd32 O36 2.352 . S
Cd32 O40 2.277 . S
Cd32 O41 2.356 . S
C33 O38 1.209 . S
C33 O40 1.226 . S
O34 Cd30 2.273 . S
O34 Cd32 2.411 . S
O34 C37 1.320 . S
O35 Cd32 2.333 . S
O35 C37 1.214 . S
O36 Cd32 2.352 . S
O36 C39 1.258 . S
C37 O34 1.320 . S
C37 O35 1.214 . S
O38 Cd30 2.277 . S
O38 C33 1.209 . S
C39 O36 1.258 . S
C39 O41 1.282 . S
O40 Cd32 2.277 . S
O40 C33 1.226 . S
O41 Cd32 2.356 . S
O41 C39 1.282 . S
C42 O43 1.306 . S
C42 O45 1.160 . S
O43 C42 1.306 . S
O43 Cd44 2.228 . S
Cd44 O43 2.228 . S
Cd44 O48 2.273 . S
Cd44 O52 2.277 . S
O45 C42 1.160 . S
O45 Cd46 2.203 . S
Cd46 O45 2.203 . S
Cd46 O48 2.411 . S
Cd46 O49 2.333 . S
Cd46 O50 2.352 . S
Cd46 O54 2.277 . S
Cd46 O55 2.356 . S
C47 O52 1.209 . S
C47 O54 1.226 . S
O48 Cd44 2.273 . S
O48 Cd46 2.411 . S
O48 C51 1.320 . S
O49 Cd46 2.333 . S
O49 C51 1.214 . S
O50 Cd46 2.352 . S
O50 C53 1.258 . S
C51 O48 1.320 . S
C51 O49 1.214 . S
O52 Cd44 2.277 . S
O52 C47 1.209 . S
C53 O50 1.258 . S
C53 O55 1.282 . S
O54 Cd46 2.277 . S
O54 C47 1.226 . S
O55 Cd46 2.356 . S
O55 C53 1.282 . S
C56 O57 1.306 . S
C56 O59 1.160 . S
O57 C56 1.306 . S
O57 Cd58 2.228 . S
Cd58 O57 2.228 . S
Cd58 O62 2.273 . S
Cd58 O66 2.277 . S
O59 C56 1.160 . S
O59 Cd60 2.203 . S
Cd60 O59 2.203 . S
Cd60 O62 2.411 . S
Cd60 O63 2.333 . S
Cd60 O64 2.352 . S
Cd60 O68 2.277 . S
Cd60 O69 2.356 . S
C61 O66 1.209 . S
C61 O68 1.226 . S
O62 Cd58 2.273 . S
O62 Cd60 2.411 . S
O62 C65 1.320 . S
O63 Cd60 2.333 . S
O63 C65 1.214 . S
O64 Cd60 2.352 . S
O64 C67 1.258 . S
C65 O62 1.320 . S
C65 O63 1.214 . S
O66 Cd58 2.277 . S
O66 C61 1.209 . S
C67 O64 1.258 . S
C67 O69 1.282 . S
O68 Cd60 2.277 . S
O68 C61 1.226 . S
O69 Cd60 2.356 . S
O69 C67 1.282 . S
C70 O71 1.306 . S
C70 O73 1.160 . S
O71 C70 1.306 . S
O71 Cd72 2.228 . S
Cd72 O71 2.228 . S
Cd72 O76 2.273 . S
Cd72 O80 2.277 . S
O73 C70 1.160 . S
O73 Cd74 2.203 . S
Cd74 O73 2.203 . S
Cd74 O76 2.411 . S
Cd74 O77 2.333 . S
Cd74 O78 2.352 . S
Cd74 O82 2.277 . S
Cd74 O83 2.356 . S
C75 O80 1.209 . S
C75 O82 1.226 . S
O76 Cd72 2.273 . S
O76 Cd74 2.411 . S
O76 C79 1.320 . S
O77 Cd74 2.333 . S
O77 C79 1.214 . S
O78 Cd74 2.352 . S
O78 C81 1.258 . S
C79 O76 1.320 . S
C79 O77 1.214 . S
O80 Cd72 2.277 . S
O80 C75 1.209 . S
C81 O78 1.258 . S
C81 O83 1.282 . S
O82 Cd74 2.277 . S
O82 C75 1.226 . S
O83 Cd74 2.356 . S
O83 C81 1.282 . S
C84 O85 1.306 . S
C84 O87 1.160 . S
O85 C84 1.306 . S
O85 Cd86 2.228 . S
Cd86 O85 2.228 . S
Cd86 O90 2.273 1_554 S
Cd86 O94 2.277 . S
O87 C84 1.160 . S
O87 Cd88 2.203 . S
Cd88 O87 2.203 . S
Cd88 O90 2.411 1_554 S
Cd88 O91 2.333 1_554 S
Cd88 O92 2.352 . S
Cd88 O96 2.277 . S
Cd88 O97 2.356 . S
C89 O94 1.209 . S
C89 O96 1.226 . S
O90 Cd86 2.273 1_556 S
O90 Cd88 2.411 1_556 S
O90 C93 1.320 . S
O91 Cd88 2.333 1_556 S
O91 C93 1.214 . S
O92 Cd88 2.352 . S
O92 C95 1.258 . S
C93 O90 1.320 . S
C93 O91 1.214 . S
O94 Cd86 2.277 . S
O94 C89 1.209 . S
C95 O92 1.258 . S
C95 O97 1.282 . S
O96 Cd88 2.277 . S
O96 C89 1.226 . S
O97 Cd88 2.356 . S
O97 C95 1.282 . S
C98 O99 1.306 . S
C98 O101 1.160 . S
O99 C98 1.306 . S
O99 Cd100 2.228 . S
Cd100 O99 2.228 . S
Cd100 O104 2.273 . S
Cd100 O108 2.277 . S
O101 C98 1.160 . S
O101 Cd102 2.203 . S
Cd102 O101 2.203 . S
Cd102 O104 2.411 . S
Cd102 O105 2.333 . S
Cd102 O106 2.352 . S
Cd102 O110 2.277 . S
Cd102 O111 2.356 . S
C103 O108 1.209 . S
C103 O110 1.226 . S
O104 Cd100 2.273 . S
O104 Cd102 2.411 . S
O104 C107 1.320 . S
O105 Cd102 2.333 . S
O105 C107 1.214 . S
O106 Cd102 2.352 . S
O106 C109 1.258 . S
C107 O104 1.320 . S
C107 O105 1.214 . S
O108 Cd100 2.277 . S
O108 C103 1.209 . S
C109 O106 1.258 . S
C109 O111 1.282 . S
O110 Cd102 2.277 . S
O110 C103 1.226 . S
O111 Cd102 2.356 . S
O111 C109 1.282 . S
C112 O113 1.306 . S
C112 O115 1.160 . S
O113 C112 1.306 . S
O113 Cd114 2.228 . S
Cd114 O113 2.228 . S
Cd114 O118 2.273 1_554 S
Cd114 O122 2.277 . S
O115 C112 1.160 . S
O115 Cd116 2.203 . S
Cd116 O115 2.203 . S
Cd116 O118 2.411 1_554 S
Cd116 O119 2.333 1_554 S
Cd116 O120 2.352 . S
Cd116 O124 2.277 . S
Cd116 O125 2.356 . S
C117 O122 1.209 . S
C117 O124 1.226 . S
O118 Cd114 2.273 1_556 S
O118 Cd116 2.411 1_556 S
O118 C121 1.320 . S
O119 Cd116 2.333 1_556 S
O119 C121 1.214 . S
O120 Cd116 2.352 . S
O120 C123 1.258 . S
C121 O118 1.320 . S
C121 O119 1.214 . S
O122 Cd114 2.277 . S
O122 C117 1.209 . S
C123 O120 1.258 . S
C123 O125 1.282 . S
O124 Cd116 2.277 . S
O124 C117 1.226 . S
O125 Cd116 2.356 . S
O125 C123 1.282 . S
C126 O127 1.306 . S
C126 O129 1.160 . S
O127 C126 1.306 . S
O127 Cd128 2.228 . S
Cd128 O127 2.228 . S
Cd128 O132 2.273 . S
Cd128 O136 2.277 . S
O129 C126 1.160 . S
O129 Cd130 2.203 . S
Cd130 O129 2.203 . S
Cd130 O132 2.411 . S
Cd130 O133 2.333 . S
Cd130 O134 2.352 . S
Cd130 O138 2.277 . S
Cd130 O139 2.356 . S
C131 O136 1.209 . S
C131 O138 1.226 . S
O132 Cd128 2.273 . S
O132 Cd130 2.411 . S
O132 C135 1.320 . S
O133 Cd130 2.333 . S
O133 C135 1.214 . S
O134 Cd130 2.352 . S
O134 C137 1.258 . S
C135 O132 1.320 . S
C135 O133 1.214 . S
O136 Cd128 2.277 . S
O136 C131 1.209 . S
C137 O134 1.258 . S
C137 O139 1.282 . S
O138 Cd130 2.277 . S
O138 C131 1.226 . S
O139 Cd130 2.356 . S
O139 C137 1.282 . S
C140 O141 1.306 . S
C140 O143 1.160 . S
O141 C140 1.306 . S
O141 Cd142 2.228 . S
Cd142 O141 2.228 . S
Cd142 O146 2.273 . S
Cd142 O150 2.277 . S
O143 C140 1.160 . S
O143 Cd144 2.203 . S
Cd144 O143 2.203 . S
Cd144 O146 2.411 . S
Cd144 O147 2.333 . S
Cd144 O148 2.352 . S
Cd144 O152 2.277 . S
Cd144 O153 2.356 . S
C145 O150 1.209 . S
C145 O152 1.226 . S
O146 Cd142 2.273 . S
O146 Cd144 2.411 . S
O146 C149 1.320 . S
O147 Cd144 2.333 . S
O147 C149 1.214 . S
O148 Cd144 2.352 . S
O148 C151 1.258 . S
C149 O146 1.320 . S
C149 O147 1.214 . S
O150 Cd142 2.277 . S
O150 C145 1.209 . S
C151 O148 1.258 . S
C151 O153 1.282 . S
O152 Cd144 2.277 . S
O152 C145 1.226 . S
O153 Cd144 2.356 . S
O153 C151 1.282 . S
C154 O155 1.306 . S
C154 O157 1.160 . S
O155 C154 1.306 . S
O155 Cd156 2.228 . S
Cd156 O155 2.228 . S
Cd156 O160 2.273 . S
Cd156 O164 2.277 . S
O157 C154 1.160 . S
O157 Cd158 2.203 . S
Cd158 O157 2.203 . S
Cd158 O160 2.411 . S
Cd158 O161 2.333 . S
Cd158 O162 2.352 . S
Cd158 O166 2.277 . S
Cd158 O167 2.356 . S
C159 O164 1.209 . S
C159 O166 1.226 . S
O160 Cd156 2.273 . S
O160 Cd158 2.411 . S
O160 C163 1.320 . S
O161 Cd158 2.333 . S
O161 C163 1.214 . S
O162 Cd158 2.352 . S
O162 C165 1.258 . S
C163 O160 1.320 . S
C163 O161 1.214 . S
O164 Cd156 2.277 . S
O164 C159 1.209 . S
C165 O162 1.258 . S
C165 O167 1.282 . S
O166 Cd158 2.277 . S
O166 C159 1.226 . S
O167 Cd158 2.356 . S
O167 C165 1.282 . S
C168 O169 1.306 . S
C168 O171 1.160 . S
O169 C168 1.306 . S
O169 Cd170 2.228 . S
Cd170 O169 2.228 . S
Cd170 O174 2.273 . S
Cd170 O178 2.277 . S
O171 C168 1.160 . S
O171 Cd172 2.203 . S
Cd172 O171 2.203 . S
Cd172 O174 2.411 . S
Cd172 O175 2.333 . S
Cd172 O176 2.352 . S
Cd172 O180 2.277 . S
Cd172 O181 2.356 . S
C173 O178 1.209 . S
C173 O180 1.226 . S
O174 Cd170 2.273 . S
O174 Cd172 2.411 . S
O174 C177 1.320 . S
O175 Cd172 2.333 . S
O175 C177 1.214 . S
O176 Cd172 2.352 . S
O176 C179 1.258 . S
C177 O174 1.320 . S
C177 O175 1.214 . S
O178 Cd170 2.277 . S
O178 C173 1.209 . S
C179 O176 1.258 . S
C179 O181 1.282 . S
O180 Cd172 2.277 . S
O180 C173 1.226 . S
O181 Cd172 2.356 . S
O181 C179 1.282 . S
C182 O183 1.306 . S
C182 O185 1.160 . S
O183 C182 1.306 . S
O183 Cd184 2.228 . S
Cd184 O183 2.228 . S
Cd184 O188 2.273 . S
Cd184 O192 2.277 . S
O185 C182 1.160 . S
O185 Cd186 2.203 . S
Cd186 O185 2.203 . S
Cd186 O188 2.411 . S
Cd186 O189 2.333 . S
Cd186 O190 2.352 . S
Cd186 O194 2.277 . S
Cd186 O195 2.356 . S
C187 O192 1.209 . S
C187 O194 1.226 . S
O188 Cd184 2.273 . S
O188 Cd186 2.411 . S
O188 C191 1.320 . S
O189 Cd186 2.333 . S
O189 C191 1.214 . S
O190 Cd186 2.352 . S
O190 C193 1.258 . S
C191 O188 1.320 . S
C191 O189 1.214 . S
O192 Cd184 2.277 . S
O192 C187 1.209 . S
C193 O190 1.258 . S
C193 O195 1.282 . S
O194 Cd186 2.277 . S
O194 C187 1.226 . S
O195 Cd186 2.356 . S
O195 C193 1.282 . S
C196 O197 1.306 1_556 S
C196 O199 1.160 1_556 S
O197 C196 1.306 1_554 S
O197 Cd198 2.228 . S
Cd198 O197 2.228 . S
Cd198 O202 2.273 . S
Cd198 O206 2.277 . S
O199 C196 1.160 1_554 S
O199 Cd200 2.203 . S
Cd200 O199 2.203 . S
Cd200 O202 2.411 . S
Cd200 O203 2.333 . S
Cd200 O204 2.352 . S
Cd200 O208 2.277 . S
Cd200 O209 2.356 . S
C201 O206 1.209 . S
C201 O208 1.226 . S
O202 Cd198 2.273 . S
O202 Cd200 2.411 . S
O202 C205 1.320 . S
O203 Cd200 2.333 . S
O203 C205 1.214 . S
O204 Cd200 2.352 . S
O204 C207 1.258 . S
C205 O202 1.320 . S
C205 O203 1.214 . S
O206 Cd198 2.277 . S
O206 C201 1.209 . S
C207 O204 1.258 . S
C207 O209 1.282 . S
O208 Cd200 2.277 . S
O208 C201 1.226 . S
O209 Cd200 2.356 . S
O209 C207 1.282 . S
C210 O211 1.306 . S
C210 O213 1.160 . S
O211 C210 1.306 . S
O211 Cd212 2.228 . S
Cd212 O211 2.228 . S
Cd212 O216 2.273 . S
Cd212 O220 2.277 . S
O213 C210 1.160 . S
O213 Cd214 2.203 . S
Cd214 O213 2.203 . S
Cd214 O216 2.411 . S
Cd214 O217 2.333 . S
Cd214 O218 2.352 . S
Cd214 O222 2.277 . S
Cd214 O223 2.356 . S
C215 O220 1.209 . S
C215 O222 1.226 . S
O216 Cd212 2.273 . S
O216 Cd214 2.411 . S
O216 C219 1.320 . S
O217 Cd214 2.333 . S
O217 C219 1.214 . S
O218 Cd214 2.352 . S
O218 C221 1.258 . S
C219 O216 1.320 . S
C219 O217 1.214 . S
O220 Cd212 2.277 . S
O220 C215 1.209 . S
C221 O218 1.258 . S
C221 O223 1.282 . S
O222 Cd214 2.277 . S
O222 C215 1.226 . S
O223 Cd214 2.356 . S
O223 C221 1.282 . S
C224 O225 1.306 . S
C224 O227 1.160 . S
O225 C224 1.306 . S
O225 Cd226 2.228 1_565 S
Cd226 O225 2.228 1_545 S
Cd226 O230 2.273 1_545 S
Cd226 O234 2.277 1_545 S
O227 C224 1.160 . S
O227 Cd228 2.203 . S
Cd228 O227 2.203 . S
Cd228 O230 2.411 . S
Cd228 O231 2.333 . S
Cd228 O232 2.352 . S
Cd228 O236 2.277 . S
Cd228 O237 2.356 . S
C229 O234 1.209 . S
C229 O236 1.226 . S
O230 Cd226 2.273 1_565 S
O230 Cd228 2.411 . S
O230 C233 1.320 . S
O231 Cd228 2.333 . S
O231 C233 1.214 . S
O232 Cd228 2.352 . S
O232 C235 1.258 . S
C233 O230 1.320 . S
C233 O231 1.214 . S
O234 Cd226 2.277 1_565 S
O234 C229 1.209 . S
C235 O232 1.258 . S
C235 O237 1.282 . S
O236 Cd228 2.277 . S
O236 C229 1.226 . S
O237 Cd228 2.356 . S
O237 C235 1.282 . S
C238 O239 1.306 . S
C238 O241 1.160 . S
O239 C238 1.306 . S
O239 Cd240 2.228 . S
Cd240 O239 2.228 . S
Cd240 O244 2.273 . S
Cd240 O248 2.277 . S
O241 C238 1.160 . S
O241 Cd242 2.203 . S
Cd242 O241 2.203 . S
Cd242 O244 2.411 . S
Cd242 O245 2.333 . S
Cd242 O246 2.352 . S
Cd242 O250 2.277 . S
Cd242 O251 2.356 . S
C243 O248 1.209 . S
C243 O250 1.226 . S
O244 Cd240 2.273 . S
O244 Cd242 2.411 . S
O244 C247 1.320 . S
O245 Cd242 2.333 . S
O245 C247 1.214 . S
O246 Cd242 2.352 . S
O246 C249 1.258 . S
C247 O244 1.320 . S
C247 O245 1.214 . S
O248 Cd240 2.277 . S
O248 C243 1.209 . S
C249 O246 1.258 . S
C249 O251 1.282 . S
O250 Cd242 2.277 . S
O250 C243 1.226 . S
O251 Cd242 2.356 . S
O251 C249 1.282 . S
C252 O253 1.306 1_556 S
C252 O255 1.160 1_556 S
O253 C252 1.306 1_554 S
O253 Cd254 2.228 1_545 S
Cd254 O253 2.228 1_565 S
Cd254 O258 2.273 1_565 S
Cd254 O262 2.277 1_565 S
O255 C252 1.160 1_554 S
O255 Cd256 2.203 . S
Cd256 O255 2.203 . S
Cd256 O258 2.411 . S
Cd256 O259 2.333 . S
Cd256 O260 2.352 . S
Cd256 O264 2.277 . S
Cd256 O265 2.356 . S
C257 O262 1.209 . S
C257 O264 1.226 . S
O258 Cd254 2.273 1_545 S
O258 Cd256 2.411 . S
O258 C261 1.320 . S
O259 Cd256 2.333 . S
O259 C261 1.214 . S
O260 Cd256 2.352 . S
O260 C263 1.258 . S
C261 O258 1.320 . S
C261 O259 1.214 . S
O262 Cd254 2.277 1_545 S
O262 C257 1.209 . S
C263 O260 1.258 . S
C263 O265 1.282 . S
O264 Cd256 2.277 . S
O264 C257 1.226 . S
O265 Cd256 2.356 . S
O265 C263 1.282 . S
C266 O267 1.306 . S
C266 O269 1.160 . S
O267 C266 1.306 . S
O267 Cd268 2.228 . S
Cd268 O267 2.228 . S
Cd268 O272 2.273 . S
Cd268 O276 2.277 . S
O269 C266 1.160 . S
O269 Cd270 2.203 . S
Cd270 O269 2.203 . S
Cd270 O272 2.411 . S
Cd270 O273 2.333 . S
Cd270 O274 2.352 . S
Cd270 O278 2.277 . S
Cd270 O279 2.356 . S
C271 O276 1.209 . S
C271 O278 1.226 . S
O272 Cd268 2.273 . S
O272 Cd270 2.411 . S
O272 C275 1.320 . S
O273 Cd270 2.333 . S
O273 C275 1.214 . S
O274 Cd270 2.352 . S
O274 C277 1.258 . S
C275 O272 1.320 . S
C275 O273 1.214 . S
O276 Cd268 2.277 . S
O276 C271 1.209 . S
C277 O274 1.258 . S
C277 O279 1.282 . S
O278 Cd270 2.277 . S
O278 C271 1.226 . S
O279 Cd270 2.356 . S
O279 C277 1.282 . S
C280 O281 1.306 . S
C280 O283 1.160 . S
O281 C280 1.306 . S
O281 Cd282 2.228 1_545 S
Cd282 O281 2.228 1_565 S
Cd282 O286 2.273 1_564 S
Cd282 O290 2.277 1_565 S
O283 C280 1.160 . S
O283 Cd284 2.203 . S
Cd284 O283 2.203 . S
Cd284 O286 2.411 1_554 S
Cd284 O287 2.333 1_554 S
Cd284 O288 2.352 . S
Cd284 O292 2.277 . S
Cd284 O293 2.356 . S
C285 O290 1.209 . S
C285 O292 1.226 . S
O286 Cd282 2.273 1_546 S
O286 Cd284 2.411 1_556 S
O286 C289 1.320 . S
O287 Cd284 2.333 1_556 S
O287 C289 1.214 . S
O288 Cd284 2.352 . S
O288 C291 1.258 . S
C289 O286 1.320 . S
C289 O287 1.214 . S
O290 Cd282 2.277 1_545 S
O290 C285 1.209 . S
C291 O288 1.258 . S
C291 O293 1.282 . S
O292 Cd284 2.277 . S
O292 C285 1.226 . S
O293 Cd284 2.356 . S
O293 C291 1.282 . S
C294 O295 1.306 . S
C294 O297 1.160 . S
O295 C294 1.306 . S
O295 Cd296 2.228 . S
Cd296 O295 2.228 . S
Cd296 O300 2.273 . S
Cd296 O304 2.277 . S
O297 C294 1.160 . S
O297 Cd298 2.203 . S
Cd298 O297 2.203 . S
Cd298 O300 2.411 . S
Cd298 O301 2.333 . S
Cd298 O302 2.352 . S
Cd298 O306 2.277 . S
Cd298 O307 2.356 . S
C299 O304 1.209 . S
C299 O306 1.226 . S
O300 Cd296 2.273 . S
O300 Cd298 2.411 . S
O300 C303 1.320 . S
O301 Cd298 2.333 . S
O301 C303 1.214 . S
O302 Cd298 2.352 . S
O302 C305 1.258 . S
C303 O300 1.320 . S
C303 O301 1.214 . S
O304 Cd296 2.277 . S
O304 C299 1.209 . S
C305 O302 1.258 . S
C305 O307 1.282 . S
O306 Cd298 2.277 . S
O306 C299 1.226 . S
O307 Cd298 2.356 . S
O307 C305 1.282 . S
C308 O309 1.306 . S
C308 O311 1.160 . S
O309 C308 1.306 . S
O309 Cd310 2.228 1_565 S
Cd310 O309 2.228 1_545 S
Cd310 O314 2.273 1_545 S
Cd310 O318 2.277 1_545 S
O311 C308 1.160 . S
O311 Cd312 2.203 . S
Cd312 O311 2.203 . S
Cd312 O314 2.411 . S
Cd312 O315 2.333 . S
Cd312 O316 2.352 . S
Cd312 O320 2.277 . S
Cd312 O321 2.356 . S
C313 O318 1.209 . S
C313 O320 1.226 . S
O314 Cd310 2.273 1_565 S
O314 Cd312 2.411 . S
O314 C317 1.320 . S
O315 Cd312 2.333 . S
O315 C317 1.214 . S
O316 Cd312 2.352 . S
O316 C319 1.258 . S
C317 O314 1.320 . S
C317 O315 1.214 . S
O318 Cd310 2.277 1_565 S
O318 C313 1.209 . S
C319 O316 1.258 . S
C319 O321 1.282 . S
O320 Cd312 2.277 . S
O320 C313 1.226 . S
O321 Cd312 2.356 . S
O321 C319 1.282 . S
C322 O323 1.306 . S
C322 O325 1.160 . S
O323 C322 1.306 . S
O323 Cd324 2.228 . S
Cd324 O323 2.228 . S
Cd324 O328 2.273 . S
Cd324 O332 2.277 . S
O325 C322 1.160 . S
O325 Cd326 2.203 . S
Cd326 O325 2.203 . S
Cd326 O328 2.411 . S
Cd326 O329 2.333 . S
Cd326 O330 2.352 . S
Cd326 O334 2.277 . S
Cd326 O335 2.356 . S
C327 O332 1.209 . S
C327 O334 1.226 . S
O328 Cd324 2.273 . S
O328 Cd326 2.411 . S
O328 C331 1.320 . S
O329 Cd326 2.333 . S
O329 C331 1.214 . S
O330 Cd326 2.352 . S
O330 C333 1.258 . S
C331 O328 1.320 . S
C331 O329 1.214 . S
O332 Cd324 2.277 . S
O332 C327 1.209 . S
C333 O330 1.258 . S
C333 O335 1.282 . S
O334 Cd326 2.277 . S
O334 C327 1.226 . S
O335 Cd326 2.356 . S
O335 C333 1.282 . S
C336 O337 1.306 . S
C336 O339 1.160 . S
O337 C336 1.306 . S
O337 Cd338 2.228 1_545 S
Cd338 O337 2.228 1_565 S
Cd338 O342 2.273 1_565 S
Cd338 O346 2.277 1_565 S
O339 C336 1.160 . S
O339 Cd340 2.203 . S
Cd340 O339 2.203 . S
Cd340 O342 2.411 . S
Cd340 O343 2.333 . S
Cd340 O344 2.352 . S
Cd340 O348 2.277 . S
Cd340 O349 2.356 . S
C341 O346 1.209 . S
C341 O348 1.226 . S
O342 Cd338 2.273 1_545 S
O342 Cd340 2.411 . S
O342 C345 1.320 . S
O343 Cd340 2.333 . S
O343 C345 1.214 . S
O344 Cd340 2.352 . S
O344 C347 1.258 . S
C345 O342 1.320 . S
C345 O343 1.214 . S
O346 Cd338 2.277 1_545 S
O346 C341 1.209 . S
C347 O344 1.258 . S
C347 O349 1.282 . S
O348 Cd340 2.277 . S
O348 C341 1.226 . S
O349 Cd340 2.356 . S
O349 C347 1.282 . S
C350 O351 1.306 . S
C350 O353 1.160 . S
O351 C350 1.306 . S
O351 Cd352 2.228 . S
Cd352 O351 2.228 . S
Cd352 O356 2.273 . S
Cd352 O360 2.277 . S
O353 C350 1.160 . S
O353 Cd354 2.203 . S
Cd354 O353 2.203 . S
Cd354 O356 2.411 . S
Cd354 O357 2.333 . S
Cd354 O358 2.352 . S
Cd354 O362 2.277 . S
Cd354 O363 2.356 . S
C355 O360 1.209 . S
C355 O362 1.226 . S
O356 Cd352 2.273 . S
O356 Cd354 2.411 . S
O356 C359 1.320 . S
O357 Cd354 2.333 . S
O357 C359 1.214 . S
O358 Cd354 2.352 . S
O358 C361 1.258 . S
C359 O356 1.320 . S
C359 O357 1.214 . S
O360 Cd352 2.277 . S
O360 C355 1.209 . S
C361 O358 1.258 . S
C361 O363 1.282 . S
O362 Cd354 2.277 . S
O362 C355 1.226 . S
O363 Cd354 2.356 . S
O363 C361 1.282 . S
C364 O365 1.306 . S
C364 O367 1.160 . S
O365 C364 1.306 . S
O365 Cd366 2.228 1_565 S
Cd366 O365 2.228 1_545 S
Cd366 O370 2.273 1_544 S
Cd366 O374 2.277 1_545 S
O367 C364 1.160 . S
O367 Cd368 2.203 . S
Cd368 O367 2.203 . S
Cd368 O370 2.411 1_554 S
Cd368 O371 2.333 1_554 S
Cd368 O372 2.352 . S
Cd368 O376 2.277 . S
Cd368 O377 2.356 . S
C369 O374 1.209 . S
C369 O376 1.226 . S
O370 Cd366 2.273 1_566 S
O370 Cd368 2.411 1_556 S
O370 C373 1.320 . S
O371 Cd368 2.333 1_556 S
O371 C373 1.214 . S
O372 Cd368 2.352 . S
O372 C375 1.258 . S
C373 O370 1.320 . S
C373 O371 1.214 . S
O374 Cd366 2.277 1_565 S
O374 C369 1.209 . S
C375 O372 1.258 . S
C375 O377 1.282 . S
O376 Cd368 2.277 . S
O376 C369 1.226 . S
O377 Cd368 2.356 . S
O377 C375 1.282 . S
C378 O379 1.306 . S
C378 O381 1.160 . S
O379 C378 1.306 . S
O379 Cd380 2.228 . S
Cd380 O379 2.228 . S
Cd380 O384 2.273 . S
Cd380 O388 2.277 . S
O381 C378 1.160 . S
O381 Cd382 2.203 . S
Cd382 O381 2.203 . S
Cd382 O384 2.411 . S
Cd382 O385 2.333 . S
Cd382 O386 2.352 . S
Cd382 O390 2.277 . S
Cd382 O391 2.356 . S
C383 O388 1.209 . S
C383 O390 1.226 . S
O384 Cd380 2.273 . S
O384 Cd382 2.411 . S
O384 C387 1.320 . S
O385 Cd382 2.333 . S
O385 C387 1.214 . S
O386 Cd382 2.352 . S
O386 C389 1.258 . S
C387 O384 1.320 . S
C387 O385 1.214 . S
O388 Cd380 2.277 . S
O388 C383 1.209 . S
C389 O386 1.258 . S
C389 O391 1.282 . S
O390 Cd382 2.277 . S
O390 C383 1.226 . S
O391 Cd382 2.356 . S
O391 C389 1.282 . S
C392 O393 1.306 1_556 S
C392 O395 1.160 1_556 S
O393 C392 1.306 1_554 S
O393 Cd394 2.228 1_565 S
Cd394 O393 2.228 1_545 S
Cd394 O398 2.273 1_545 S
Cd394 O402 2.277 1_545 S
O395 C392 1.160 1_554 S
O395 Cd396 2.203 . S
Cd396 O395 2.203 . S
Cd396 O398 2.411 . S
Cd396 O399 2.333 . S
Cd396 O400 2.352 . S
Cd396 O404 2.277 . S
Cd396 O405 2.356 . S
C397 O402 1.209 . S
C397 O404 1.226 . S
O398 Cd394 2.273 1_565 S
O398 Cd396 2.411 . S
O398 C401 1.320 . S
O399 Cd396 2.333 . S
O399 C401 1.214 . S
O400 Cd396 2.352 . S
O400 C403 1.258 . S
C401 O398 1.320 . S
C401 O399 1.214 . S
O402 Cd394 2.277 1_565 S
O402 C397 1.209 . S
C403 O400 1.258 . S
C403 O405 1.282 . S
O404 Cd396 2.277 . S
O404 C397 1.226 . S
O405 Cd396 2.356 . S
O405 C403 1.282 . S
C406 O407 1.306 . S
C406 O409 1.160 . S
O407 C406 1.306 . S
O407 Cd408 2.228 . S
Cd408 O407 2.228 . S
Cd408 O412 2.273 . S
Cd408 O416 2.277 . S
O409 C406 1.160 . S
O409 Cd410 2.203 . S
Cd410 O409 2.203 . S
Cd410 O412 2.411 . S
Cd410 O413 2.333 . S
Cd410 O414 2.352 . S
Cd410 O418 2.277 . S
Cd410 O419 2.356 . S
C411 O416 1.209 . S
C411 O418 1.226 . S
O412 Cd408 2.273 . S
O412 Cd410 2.411 . S
O412 C415 1.320 . S
O413 Cd410 2.333 . S
O413 C415 1.214 . S
O414 Cd410 2.352 . S
O414 C417 1.258 . S
C415 O412 1.320 . S
C415 O413 1.214 . S
O416 Cd408 2.277 . S
O416 C411 1.209 . S
C417 O414 1.258 . S
C417 O419 1.282 . S
O418 Cd410 2.277 . S
O418 C411 1.226 . S
O419 Cd410 2.356 . S
O419 C417 1.282 . S
C420 O421 1.306 . S
C420 O423 1.160 . S
O421 C420 1.306 . S
O421 Cd422 2.228 1_545 S
Cd422 O421 2.228 1_565 S
Cd422 O426 2.273 1_565 S
Cd422 O430 2.277 1_565 S
O423 C420 1.160 . S
O423 Cd424 2.203 . S
Cd424 O423 2.203 . S
Cd424 O426 2.411 . S
Cd424 O427 2.333 . S
Cd424 O428 2.352 . S
Cd424 O432 2.277 . S
Cd424 O433 2.356 . S
C425 O430 1.209 . S
C425 O432 1.226 . S
O426 Cd422 2.273 1_545 S
O426 Cd424 2.411 . S
O426 C429 1.320 . S
O427 Cd424 2.333 . S
O427 C429 1.214 . S
O428 Cd424 2.352 . S
O428 C431 1.258 . S
C429 O426 1.320 . S
C429 O427 1.214 . S
O430 Cd422 2.277 1_545 S
O430 C425 1.209 . S
C431 O428 1.258 . S
C431 O433 1.282 . S
O432 Cd424 2.277 . S
O432 C425 1.226 . S
O433 Cd424 2.356 . S
O433 C431 1.282 . S
C434 O435 1.306 . S
C434 O437 1.160 . S
O435 C434 1.306 . S
O435 Cd436 2.228 . S
Cd436 O435 2.228 . S
Cd436 O440 2.273 . S
Cd436 O444 2.277 . S
O437 C434 1.160 . S
O437 Cd438 2.203 . S
Cd438 O437 2.203 . S
Cd438 O440 2.411 . S
Cd438 O441 2.333 . S
Cd438 O442 2.352 . S
Cd438 O446 2.277 . S
Cd438 O447 2.356 . S
C439 O444 1.209 . S
C439 O446 1.226 . S
O440 Cd436 2.273 . S
O440 Cd438 2.411 . S
O440 C443 1.320 . S
O441 Cd438 2.333 . S
O441 C443 1.214 . S
O442 Cd438 2.352 . S
O442 C445 1.258 . S
C443 O440 1.320 . S
C443 O441 1.214 . S
O444 Cd436 2.277 . S
O444 C439 1.209 . S
C445 O442 1.258 . S
C445 O447 1.282 . S
O446 Cd438 2.277 . S
O446 C439 1.226 . S
O447 Cd438 2.356 . S
O447 C445 1.282 . S
H448 C466 0.951 . S
H449 C468 0.951 . S
H450 C470 0.950 . S
H451 C471 0.950 . S
H452 C473 0.950 . S
H453 C476 0.950 . S
H454 C477 0.950 . S
H455 C479 0.938 1_455 S
H456 C480 0.901 1_455 S
H457 C481 0.951 . S
H458 C483 0.951 . S
H459 C485 0.950 . S
H460 C486 0.950 . S
H461 C488 0.950 1_556 S
H462 C491 0.950 . S
H463 C492 0.950 . S
H464 C494 0.938 1_655 S
H465 C495 0.900 1_655 S
C466 H448 0.951 . S
C466 C467 1.366 . S
C466 C468 1.388 . S
C467 C466 1.366 . S
C467 C471 1.385 . S
C468 H449 0.951 . S
C468 C466 1.388 . S
C468 C469 1.366 . S
C469 C468 1.366 . S
C469 C470 1.414 . S
C469 C472 1.499 . S
C470 H450 0.950 . S
C470 C469 1.414 . S
C470 C471 1.374 . S
C471 H451 0.950 . S
C471 C467 1.385 . S
C471 C470 1.374 . S
C472 C469 1.499 . S
C472 C473 1.373 . S
C472 C474 1.389 . S
C473 H452 0.950 . S
C473 C472 1.373 . S
C473 C489 1.377 1_655 S
C474 C472 1.389 . S
C474 C475 1.524 1_554 S
C474 C488 1.377 1_655 S
C475 C474 1.524 1_556 S
C475 C476 1.397 . S
C475 C480 1.398 . S
C476 H453 0.950 . S
C476 C475 1.397 . S
C476 C477 1.334 . S
C477 H454 0.950 . S
C477 C476 1.334 . S
C477 C478 1.287 . S
C478 C477 1.287 . S
C478 C479 1.524 . S
C478 H497 0.913 . S
C479 H455 0.938 1_655 S
C479 C478 1.524 . S
C479 C480 1.431 . S
C480 H456 0.901 1_655 S
C480 C475 1.398 . S
C480 C479 1.431 . S
C481 H457 0.951 . S
C481 C482 1.366 . S
C481 C483 1.388 . S
C482 C481 1.366 . S
C482 C486 1.385 . S
C483 H458 0.951 . S
C483 C481 1.388 . S
C483 C484 1.366 . S
C484 C483 1.366 . S
C484 C485 1.414 . S
C484 C487 1.499 . S
C485 H459 0.950 . S
C485 C484 1.414 . S
C485 C486 1.374 . S
C486 H460 0.950 . S
C486 C482 1.385 . S
C486 C485 1.374 . S
C487 C484 1.499 . S
C487 C488 1.373 . S
C487 C489 1.389 . S
C488 H461 0.950 1_554 S
C488 C474 1.377 1_455 S
C488 C487 1.373 . S
C489 C473 1.377 1_455 S
C489 C487 1.389 . S
C489 C490 1.524 . S
C490 C489 1.524 . S
C490 C491 1.397 . S
C490 C495 1.399 . S
C491 H462 0.950 . S
C491 C490 1.397 . S
C491 C492 1.334 . S
C492 H463 0.950 . S
C492 C491 1.334 . S
C492 C493 1.287 . S
C493 C492 1.287 . S
C493 C494 1.524 . S
C493 H496 0.999 . S
C494 H464 0.938 1_455 S
C494 C493 1.524 . S
C494 C495 1.431 . S
C495 H465 0.900 1_455 S
C495 C490 1.399 . S
C495 C494 1.431 . S
H496 C493 0.999 . S
H497 C478 0.913 . S
H498 C516 0.951 . S
H499 C518 0.951 . S
H500 C520 0.950 . S
H501 C521 0.950 . S
H502 C523 0.950 . S
H503 C526 0.950 . S
H504 C527 0.950 . S
H505 C529 0.950 . S
H506 C530 0.950 . S
H507 C531 0.951 . S
H508 C533 0.951 . S
H509 C535 0.950 . S
H510 C536 0.950 . S
H511 C538 0.950 . S
H512 C541 0.950 . S
H513 C542 0.950 . S
H514 C544 0.950 . S
H515 C545 0.950 . S
C516 H498 0.951 . S
C516 C517 1.366 . S
C516 C518 1.388 . S
C517 C516 1.366 . S
C517 C521 1.385 . S
C518 H499 0.951 . S
C518 C516 1.388 . S
C518 C519 1.366 . S
C519 C518 1.366 . S
C519 C520 1.414 . S
C519 C522 1.499 . S
C520 H500 0.950 . S
C520 C519 1.414 . S
C520 C521 1.374 . S
C521 H501 0.950 . S
C521 C517 1.385 . S
C521 C520 1.374 . S
C522 C519 1.499 . S
C522 C523 1.373 . S
C522 C524 1.389 . S
C523 H502 0.950 . S
C523 C522 1.373 . S
C523 C539 1.377 . S
C524 C522 1.389 . S
C524 C525 1.524 . S
C524 C538 1.377 . S
C525 C524 1.524 . S
C525 C526 1.397 . S
C525 C530 1.363 . S
C526 H503 0.950 . S
C526 C525 1.397 . S
C526 C527 1.334 . S
C527 H504 0.950 . S
C527 C526 1.334 . S
C527 C528 1.287 . S
C528 C527 1.287 . S
C528 C529 1.524 . S
C528 H547 0.913 . S
C529 H505 0.950 . S
C529 C528 1.524 . S
C529 C530 1.415 . S
C530 H506 0.950 . S
C530 C525 1.363 . S
C530 C529 1.415 . S
C531 H507 0.951 . S
C531 C532 1.366 . S
C531 C533 1.388 . S
C532 C531 1.366 . S
C532 C536 1.385 . S
C533 H508 0.951 . S
C533 C531 1.388 . S
C533 C534 1.366 . S
C534 C533 1.366 . S
C534 C535 1.414 . S
C534 C537 1.499 . S
C535 H509 0.950 . S
C535 C534 1.414 . S
C535 C536 1.374 . S
C536 H510 0.950 . S
C536 C532 1.385 . S
C536 C535 1.374 . S
C537 C534 1.499 . S
C537 C538 1.373 . S
C537 C539 1.389 . S
C538 H511 0.950 . S
C538 C524 1.377 . S
C538 C537 1.373 . S
C539 C523 1.377 . S
C539 C537 1.389 . S
C539 C540 1.524 . S
C540 C539 1.524 . S
C540 C541 1.397 . S
C540 C545 1.363 . S
C541 H512 0.950 . S
C541 C540 1.397 . S
C541 C542 1.334 . S
C542 H513 0.950 . S
C542 C541 1.334 . S
C542 C543 1.287 . S
C543 C542 1.287 . S
C543 C544 1.524 . S
C543 H546 0.999 . S
C544 H514 0.950 . S
C544 C543 1.524 . S
C544 C545 1.415 . S
C545 H515 0.950 . S
C545 C540 1.363 . S
C545 C544 1.415 . S
H546 C543 0.999 . S
H547 C528 0.913 . S
H548 C566 0.951 . S
H549 C568 0.951 . S
H550 C570 0.950 . S
H551 C571 0.950 . S
H552 C573 0.950 . S
H553 C576 0.950 . S
H554 C577 0.950 . S
H555 C579 0.950 . S
H556 C580 0.950 . S
H557 C581 0.951 . S
H558 C583 0.951 . S
H559 C585 0.950 . S
H560 C586 0.950 . S
H561 C588 0.950 . S
H562 C591 0.950 . S
H563 C592 0.950 . S
H564 C594 0.950 . S
H565 C595 0.950 . S
C566 H548 0.951 . S
C566 C567 1.366 . S
C566 C568 1.388 . S
C567 C566 1.366 . S
C567 C571 1.385 . S
C568 H549 0.951 . S
C568 C566 1.388 . S
C568 C569 1.366 . S
C569 C568 1.366 . S
C569 C570 1.414 . S
C569 C572 1.499 . S
C570 H550 0.950 . S
C570 C569 1.414 . S
C570 C571 1.374 . S
C571 H551 0.950 . S
C571 C567 1.385 . S
C571 C570 1.374 . S
C572 C569 1.499 . S
C572 C573 1.373 . S
C572 C574 1.389 . S
C573 H552 0.950 . S
C573 C572 1.373 . S
C573 C589 1.377 . S
C574 C572 1.389 . S
C574 C575 1.524 . S
C574 C588 1.377 . S
C575 C574 1.524 . S
C575 C576 1.397 . S
C575 C580 1.363 . S
C576 H553 0.950 . S
C576 C575 1.397 . S
C576 C577 1.334 . S
C577 H554 0.950 . S
C577 C576 1.334 . S
C577 C578 1.287 . S
C578 C577 1.287 . S
C578 C579 1.524 . S
C578 H597 0.913 . S
C579 H555 0.950 . S
C579 C578 1.524 . S
C579 C580 1.415 . S
C580 H556 0.950 . S
C580 C575 1.363 . S
C580 C579 1.415 . S
C581 H557 0.951 . S
C581 C582 1.366 . S
C581 C583 1.388 . S
C582 C581 1.366 . S
C582 C586 1.385 . S
C583 H558 0.951 . S
C583 C581 1.388 . S
C583 C584 1.366 . S
C584 C583 1.366 . S
C584 C585 1.414 . S
C584 C587 1.499 . S
C585 H559 0.950 . S
C585 C584 1.414 . S
C585 C586 1.374 . S
C586 H560 0.950 . S
C586 C582 1.385 . S
C586 C585 1.374 . S
C587 C584 1.499 . S
C587 C588 1.373 . S
C587 C589 1.389 . S
C588 H561 0.950 . S
C588 C574 1.377 . S
C588 C587 1.373 . S
C589 C573 1.377 . S
C589 C587 1.389 . S
C589 C590 1.524 . S
C590 C589 1.524 . S
C590 C591 1.397 . S
C590 C595 1.363 . S
C591 H562 0.950 . S
C591 C590 1.397 . S
C591 C592 1.334 . S
C592 H563 0.950 . S
C592 C591 1.334 . S
C592 C593 1.287 . S
C593 C592 1.287 . S
C593 C594 1.524 . S
C593 H596 0.999 . S
C594 H564 0.950 . S
C594 C593 1.524 . S
C594 C595 1.415 . S
C595 H565 0.950 . S
C595 C590 1.363 . S
C595 C594 1.415 . S
H596 C593 0.999 . S
H597 C578 0.913 . S
H598 C616 0.951 . S
H599 C618 0.951 . S
H600 C620 0.950 . S
H601 C621 0.950 . S
H602 C623 0.950 . S
H603 C626 0.950 . S
H604 C627 0.950 . S
H605 C629 0.950 . S
H606 C630 0.950 . S
H607 C631 0.951 . S
H608 C633 0.951 . S
H609 C635 0.950 . S
H610 C636 0.950 . S
H611 C638 0.950 . S
H612 C641 0.950 . S
H613 C642 0.950 . S
H614 C644 0.950 . S
H615 C645 0.950 . S
C616 H598 0.951 . S
C616 C617 1.366 . S
C616 C618 1.388 . S
C617 C616 1.366 . S
C617 C621 1.385 . S
C618 H599 0.951 . S
C618 C616 1.388 . S
C618 C619 1.366 . S
C619 C618 1.366 . S
C619 C620 1.414 . S
C619 C622 1.499 . S
C620 H600 0.950 . S
C620 C619 1.414 . S
C620 C621 1.374 . S
C621 H601 0.950 . S
C621 C617 1.385 . S
C621 C620 1.374 . S
C622 C619 1.499 . S
C622 C623 1.373 . S
C622 C624 1.389 . S
C623 H602 0.950 . S
C623 C622 1.373 . S
C623 C639 1.377 . S
C624 C622 1.389 . S
C624 C625 1.524 . S
C624 C638 1.377 . S
C625 C624 1.524 . S
C625 C626 1.397 . S
C625 C630 1.363 . S
C626 H603 0.950 . S
C626 C625 1.397 . S
C626 C627 1.334 . S
C627 H604 0.950 . S
C627 C626 1.334 . S
C627 C628 1.287 . S
C628 C627 1.287 . S
C628 C629 1.524 . S
C628 H647 0.913 . S
C629 H605 0.950 . S
C629 C628 1.524 . S
C629 C630 1.415 . S
C630 H606 0.950 . S
C630 C625 1.363 . S
C630 C629 1.415 . S
C631 H607 0.951 . S
C631 C632 1.366 . S
C631 C633 1.388 . S
C632 C631 1.366 . S
C632 C636 1.385 . S
C633 H608 0.951 . S
C633 C631 1.388 . S
C633 C634 1.366 . S
C634 C633 1.366 . S
C634 C635 1.414 . S
C634 C637 1.499 . S
C635 H609 0.950 . S
C635 C634 1.414 . S
C635 C636 1.374 . S
C636 H610 0.950 . S
C636 C632 1.385 . S
C636 C635 1.374 . S
C637 C634 1.499 . S
C637 C638 1.373 . S
C637 C639 1.389 . S
C638 H611 0.950 . S
C638 C624 1.377 . S
C638 C637 1.373 . S
C639 C623 1.377 . S
C639 C637 1.389 . S
C639 C640 1.524 . S
C640 C639 1.524 . S
C640 C641 1.397 . S
C640 C645 1.363 . S
C641 H612 0.950 . S
C641 C640 1.397 . S
C641 C642 1.334 . S
C642 H613 0.950 . S
C642 C641 1.334 . S
C642 C643 1.287 . S
C643 C642 1.287 . S
C643 C644 1.524 . S
C643 H646 0.999 . S
C644 H614 0.950 . S
C644 C643 1.524 . S
C644 C645 1.415 . S
C645 H615 0.950 . S
C645 C640 1.363 . S
C645 C644 1.415 . S
H646 C643 0.999 . S
H647 C628 0.913 . S
H648 C666 0.951 . S
H649 C668 0.951 . S
H650 C670 0.950 . S
H651 C671 0.950 . S
H652 C673 0.950 . S
H653 C676 0.950 . S
H654 C677 0.950 . S
H655 C679 0.950 . S
H656 C680 0.956 1_655 S
H657 C681 0.951 . S
H658 C683 0.951 . S
H659 C685 0.950 . S
H660 C686 0.950 . S
H661 C688 0.950 . S
H662 C691 0.950 . S
H663 C692 0.950 . S
H664 C694 0.950 . S
H665 C695 0.957 1_455 S
C666 H648 0.951 . S
C666 C667 1.366 . S
C666 C668 1.388 . S
C667 C666 1.366 . S
C667 C671 1.385 . S
C668 H649 0.951 . S
C668 C666 1.388 . S
C668 C669 1.366 . S
C669 C668 1.366 . S
C669 C670 1.414 . S
C669 C672 1.499 . S
C670 H650 0.950 . S
C670 C669 1.414 . S
C670 C671 1.374 . S
C671 H651 0.950 . S
C671 C667 1.385 . S
C671 C670 1.374 . S
C672 C669 1.499 . S
C672 C673 1.373 . S
C672 C674 1.389 . S
C673 H652 0.950 . S
C673 C672 1.373 . S
C673 C689 1.377 1_455 S
C674 C672 1.389 . S
C674 C675 1.524 . S
C674 C688 1.377 1_455 S
C675 C674 1.524 . S
C675 C676 1.397 . S
C675 C680 1.363 . S
C676 H653 0.950 . S
C676 C675 1.397 . S
C676 C677 1.334 . S
C677 H654 0.950 . S
C677 C676 1.334 . S
C677 C678 1.287 . S
C678 C677 1.287 . S
C678 C679 1.524 . S
C678 H697 0.913 . S
C679 H655 0.950 . S
C679 C678 1.524 . S
C679 C680 1.415 . S
C680 H656 0.956 1_455 S
C680 C675 1.363 . S
C680 C679 1.415 . S
C681 H657 0.951 . S
C681 C682 1.366 . S
C681 C683 1.388 . S
C682 C681 1.366 . S
C682 C686 1.385 . S
C683 H658 0.951 . S
C683 C681 1.388 . S
C683 C684 1.366 . S
C684 C683 1.366 . S
C684 C685 1.414 . S
C684 C687 1.499 . S
C685 H659 0.950 . S
C685 C684 1.414 . S
C685 C686 1.374 . S
C686 H660 0.950 . S
C686 C682 1.385 . S
C686 C685 1.374 . S
C687 C684 1.499 . S
C687 C688 1.373 . S
C687 C689 1.389 . S
C688 H661 0.950 . S
C688 C674 1.377 1_655 S
C688 C687 1.373 . S
C689 C673 1.377 1_655 S
C689 C687 1.389 . S
C689 C690 1.524 . S
C690 C689 1.524 . S
C690 C691 1.397 . S
C690 C695 1.363 . S
C691 H662 0.950 . S
C691 C690 1.397 . S
C691 C692 1.334 . S
C692 H663 0.950 . S
C692 C691 1.334 . S
C692 C693 1.287 . S
C693 C692 1.287 . S
C693 C694 1.524 . S
C693 H696 0.999 . S
C694 H664 0.950 . S
C694 C693 1.524 . S
C694 C695 1.415 . S
C695 H665 0.957 1_655 S
C695 C690 1.363 . S
C695 C694 1.415 . S
H696 C693 0.999 . S
H697 C678 0.913 . S
H698 C716 0.951 . S
H699 C718 0.951 . S
H700 C720 0.950 . S
H701 C721 0.950 . S
H702 C723 0.950 . S
H703 C726 0.950 . S
H704 C727 0.950 . S
H705 C729 0.950 . S
H706 C730 0.950 . S
H707 C731 0.951 . S
H708 C733 0.951 . S
H709 C735 0.950 . S
H710 C736 0.950 . S
H711 C738 0.950 . S
H712 C741 0.950 . S
H713 C742 0.950 . S
H714 C744 0.950 . S
H715 C745 0.950 . S
C716 H698 0.951 . S
C716 C717 1.366 . S
C716 C718 1.388 . S
C717 C716 1.366 . S
C717 C721 1.385 . S
C718 H699 0.951 . S
C718 C716 1.388 . S
C718 C719 1.366 . S
C719 C718 1.366 . S
C719 C720 1.414 . S
C719 C722 1.499 . S
C720 H700 0.950 . S
C720 C719 1.414 . S
C720 C721 1.374 . S
C721 H701 0.950 . S
C721 C717 1.385 . S
C721 C720 1.374 . S
C722 C719 1.499 . S
C722 C723 1.373 . S
C722 C724 1.389 . S
C723 H702 0.950 . S
C723 C722 1.373 . S
C723 C739 1.377 . S
C724 C722 1.389 . S
C724 C725 1.524 . S
C724 C738 1.377 . S
C725 C724 1.524 . S
C725 C726 1.397 . S
C725 C730 1.363 . S
C726 H703 0.950 . S
C726 C725 1.397 . S
C726 C727 1.334 . S
C727 H704 0.950 . S
C727 C726 1.334 . S
C727 C728 1.287 . S
C728 C727 1.287 . S
C728 C729 1.524 . S
C728 H747 0.913 . S
C729 H705 0.950 . S
C729 C728 1.524 . S
C729 C730 1.415 . S
C730 H706 0.950 . S
C730 C725 1.363 . S
C730 C729 1.415 . S
C731 H707 0.951 . S
C731 C732 1.366 . S
C731 C733 1.388 . S
C732 C731 1.366 . S
C732 C736 1.385 . S
C733 H708 0.951 . S
C733 C731 1.388 . S
C733 C734 1.366 . S
C734 C733 1.366 . S
C734 C735 1.414 . S
C734 C737 1.499 . S
C735 H709 0.950 . S
C735 C734 1.414 . S
C735 C736 1.374 . S
C736 H710 0.950 . S
C736 C732 1.385 . S
C736 C735 1.374 . S
C737 C734 1.499 . S
C737 C738 1.373 . S
C737 C739 1.389 . S
C738 H711 0.950 . S
C738 C724 1.377 . S
C738 C737 1.373 . S
C739 C723 1.377 . S
C739 C737 1.389 . S
C739 C740 1.524 . S
C740 C739 1.524 . S
C740 C741 1.397 . S
C740 C745 1.363 . S
C741 H712 0.950 . S
C741 C740 1.397 . S
C741 C742 1.334 . S
C742 H713 0.950 . S
C742 C741 1.334 . S
C742 C743 1.287 . S
C743 C742 1.287 . S
C743 C744 1.524 . S
C743 H746 0.999 . S
C744 H714 0.950 . S
C744 C743 1.524 . S
C744 C745 1.415 . S
C745 H715 0.950 . S
C745 C740 1.363 . S
C745 C744 1.415 . S
H746 C743 0.999 . S
H747 C728 0.913 . S
H748 C766 0.951 . S
H749 C768 0.951 . S
H750 C770 0.950 1_556 S
H751 C771 0.950 . S
H752 C773 0.950 . S
H753 C776 0.950 . S
H754 C777 0.950 . S
H755 C779 0.950 . S
H756 C780 0.950 . S
H757 C781 0.951 1_556 S
H758 C783 0.951 1_556 S
H759 C785 0.950 . S
H760 C786 0.950 . S
H761 C788 0.950 . S
H762 C791 0.950 . S
H763 C792 0.950 . S
H764 C794 0.950 . S
H765 C795 0.950 . S
C766 H748 0.951 . S
C766 C767 1.366 . S
C766 C768 1.388 . S
C767 C766 1.366 . S
C767 C771 1.385 . S
C768 H749 0.951 . S
C768 C766 1.388 . S
C768 C769 1.366 . S
C769 C768 1.366 . S
C769 C770 1.414 . S
C769 C772 1.499 . S
C770 H750 0.950 1_554 S
C770 C769 1.414 . S
C770 C771 1.374 . S
C771 H751 0.950 . S
C771 C767 1.385 . S
C771 C770 1.374 . S
C772 C769 1.499 . S
C772 C773 1.373 . S
C772 C774 1.389 . S
C773 H752 0.950 . S
C773 C772 1.373 . S
C773 C789 1.377 . S
C774 C772 1.389 . S
C774 C775 1.524 . S
C774 C788 1.377 . S
C775 C774 1.524 . S
C775 C776 1.397 . S
C775 C780 1.363 . S
C776 H753 0.950 . S
C776 C775 1.397 . S
C776 C777 1.334 . S
C777 H754 0.950 . S
C777 C776 1.334 . S
C777 C778 1.287 . S
C778 C777 1.287 . S
C778 C779 1.524 . S
C778 H797 0.913 . S
C779 H755 0.950 . S
C779 C778 1.524 . S
C779 C780 1.415 . S
C780 H756 0.950 . S
C780 C775 1.363 . S
C780 C779 1.415 . S
C781 H757 0.951 1_554 S
C781 C782 1.366 . S
C781 C783 1.388 . S
C782 C781 1.366 . S
C782 C786 1.385 . S
C783 H758 0.951 1_554 S
C783 C781 1.388 . S
C783 C784 1.366 . S
C784 C783 1.366 . S
C784 C785 1.414 . S
C784 C787 1.499 . S
C785 H759 0.950 . S
C785 C784 1.414 . S
C785 C786 1.374 . S
C786 H760 0.950 . S
C786 C782 1.385 . S
C786 C785 1.374 . S
C787 C784 1.499 . S
C787 C788 1.373 . S
C787 C789 1.389 . S
C788 H761 0.950 . S
C788 C774 1.377 . S
C788 C787 1.373 . S
C789 C773 1.377 . S
C789 C787 1.389 . S
C789 C790 1.524 . S
C790 C789 1.524 . S
C790 C791 1.397 . S
C790 C795 1.363 1_554 S
C791 H762 0.950 . S
C791 C790 1.397 . S
C791 C792 1.334 . S
C792 H763 0.950 . S
C792 C791 1.334 . S
C792 C793 1.287 . S
C793 C792 1.287 . S
C793 C794 1.524 1_554 S
C793 H796 0.999 . S
C794 H764 0.950 . S
C794 C793 1.524 1_556 S
C794 C795 1.415 . S
C795 H765 0.950 . S
C795 C790 1.363 1_556 S
C795 C794 1.415 . S
H796 C793 0.999 . S
H797 C778 0.913 . S
H798 C816 0.951 . S
H799 C818 0.951 . S
H800 C820 0.950 . S
H801 C821 0.950 . S
H802 C823 0.950 . S
H803 C826 0.950 . S
H804 C827 0.950 . S
H805 C829 0.950 . S
H806 C830 0.950 . S
H807 C831 0.951 . S
H808 C833 0.951 . S
H809 C835 0.950 . S
H810 C836 0.950 . S
H811 C838 0.950 . S
H812 C841 0.950 . S
H813 C842 0.950 . S
H814 C844 0.950 . S
H815 C845 0.950 . S
C816 H798 0.951 . S
C816 C817 1.366 . S
C816 C818 1.388 . S
C817 C816 1.366 . S
C817 C821 1.385 . S
C818 H799 0.951 . S
C818 C816 1.388 . S
C818 C819 1.366 . S
C819 C818 1.366 . S
C819 C820 1.414 . S
C819 C822 1.499 . S
C820 H800 0.950 . S
C820 C819 1.414 . S
C820 C821 1.374 . S
C821 H801 0.950 . S
C821 C817 1.385 . S
C821 C820 1.374 . S
C822 C819 1.499 . S
C822 C823 1.373 . S
C822 C824 1.389 . S
C823 H802 0.950 . S
C823 C822 1.373 . S
C823 C839 1.377 . S
C824 C822 1.389 . S
C824 C825 1.524 . S
C824 C838 1.377 . S
C825 C824 1.524 . S
C825 C826 1.397 . S
C825 C830 1.363 . S
C826 H803 0.950 . S
C826 C825 1.397 . S
C826 C827 1.334 . S
C827 H804 0.950 . S
C827 C826 1.334 . S
C827 C828 1.287 . S
C828 C827 1.287 . S
C828 C829 1.524 . S
C828 H847 0.913 . S
C829 H805 0.950 . S
C829 C828 1.524 . S
C829 C830 1.415 . S
C830 H806 0.950 . S
C830 C825 1.363 . S
C830 C829 1.415 . S
C831 H807 0.951 . S
C831 C832 1.366 . S
C831 C833 1.388 . S
C832 C831 1.366 . S
C832 C836 1.385 . S
C833 H808 0.951 . S
C833 C831 1.388 . S
C833 C834 1.366 . S
C834 C833 1.366 . S
C834 C835 1.414 . S
C834 C837 1.499 . S
C835 H809 0.950 . S
C835 C834 1.414 . S
C835 C836 1.374 . S
C836 H810 0.950 . S
C836 C832 1.385 . S
C836 C835 1.374 . S
C837 C834 1.499 . S
C837 C838 1.373 . S
C837 C839 1.389 . S
C838 H811 0.950 . S
C838 C824 1.377 . S
C838 C837 1.373 . S
C839 C823 1.377 . S
C839 C837 1.389 . S
C839 C840 1.524 . S
C840 C839 1.524 . S
C840 C841 1.397 . S
C840 C845 1.363 . S
C841 H812 0.950 . S
C841 C840 1.397 . S
C841 C842 1.334 . S
C842 H813 0.950 . S
C842 C841 1.334 . S
C842 C843 1.287 . S
C843 C842 1.287 . S
C843 C844 1.524 . S
C843 H846 0.999 . S
C844 H814 0.950 . S
C844 C843 1.524 . S
C844 C845 1.415 . S
C845 H815 0.950 . S
C845 C840 1.363 . S
C845 C844 1.415 . S
H846 C843 0.999 . S
H847 C828 0.913 . S
H848 C866 0.951 . S
H849 C868 0.951 . S
H850 C870 0.950 . S
H851 C871 0.950 . S
H852 C873 0.950 . S
H853 C876 0.950 . S
H854 C877 0.950 . S
H855 C879 0.950 . S
H856 C880 0.950 . S
H857 C881 0.951 . S
H858 C883 0.951 . S
H859 C885 0.950 . S
H860 C886 0.950 . S
H861 C888 0.950 . S
H862 C891 0.950 . S
H863 C892 0.950 . S
H864 C894 0.950 . S
H865 C895 0.950 . S
C866 H848 0.951 . S
C866 C867 1.366 . S
C866 C868 1.388 . S
C867 C866 1.366 . S
C867 C871 1.385 . S
C868 H849 0.951 . S
C868 C866 1.388 . S
C868 C869 1.366 . S
C869 C868 1.366 . S
C869 C870 1.414 . S
C869 C872 1.499 . S
C870 H850 0.950 . S
C870 C869 1.414 . S
C870 C871 1.374 . S
C871 H851 0.950 . S
C871 C867 1.385 . S
C871 C870 1.374 . S
C872 C869 1.499 . S
C872 C873 1.373 . S
C872 C874 1.389 . S
C873 H852 0.950 . S
C873 C872 1.373 . S
C873 C889 1.377 . S
C874 C872 1.389 . S
C874 C875 1.524 . S
C874 C888 1.377 . S
C875 C874 1.524 . S
C875 C876 1.397 . S
C875 C880 1.363 . S
C876 H853 0.950 . S
C876 C875 1.397 . S
C876 C877 1.334 . S
C877 H854 0.950 . S
C877 C876 1.334 . S
C877 C878 1.287 . S
C878 C877 1.287 . S
C878 C879 1.524 . S
C878 H897 0.913 . S
C879 H855 0.950 . S
C879 C878 1.524 . S
C879 C880 1.415 . S
C880 H856 0.950 . S
C880 C875 1.363 . S
C880 C879 1.415 . S
C881 H857 0.951 . S
C881 C882 1.366 . S
C881 C883 1.388 . S
C882 C881 1.366 . S
C882 C886 1.385 . S
C883 H858 0.951 . S
C883 C881 1.388 . S
C883 C884 1.366 . S
C884 C883 1.366 . S
C884 C885 1.414 . S
C884 C887 1.499 . S
C885 H859 0.950 . S
C885 C884 1.414 . S
C885 C886 1.374 . S
C886 H860 0.950 . S
C886 C882 1.385 . S
C886 C885 1.374 . S
C887 C884 1.499 . S
C887 C888 1.373 . S
C887 C889 1.389 . S
C888 H861 0.950 . S
C888 C874 1.377 . S
C888 C887 1.373 . S
C889 C873 1.377 . S
C889 C887 1.389 . S
C889 C890 1.524 . S
C890 C889 1.524 . S
C890 C891 1.397 . S
C890 C895 1.363 . S
C891 H862 0.950 . S
C891 C890 1.397 . S
C891 C892 1.334 . S
C892 H863 0.950 . S
C892 C891 1.334 . S
C892 C893 1.287 . S
C893 C892 1.287 . S
C893 C894 1.524 . S
C893 H896 0.999 . S
C894 H864 0.950 . S
C894 C893 1.524 . S
C894 C895 1.415 . S
C895 H865 0.950 . S
C895 C890 1.363 . S
C895 C894 1.415 . S
H896 C893 0.999 . S
H897 C878 0.913 . S
H898 C916 0.951 . S
H899 C918 0.951 . S
H900 C920 0.950 . S
H901 C921 0.950 . S
H902 C923 0.950 . S
H903 C926 0.950 . S
H904 C927 0.950 . S
H905 C929 0.950 . S
H906 C930 0.950 . S
H907 C931 0.951 . S
H908 C933 0.951 . S
H909 C935 0.950 . S
H910 C936 0.950 . S
H911 C938 0.950 . S
H912 C941 0.950 . S
H913 C942 0.950 . S
H914 C944 0.950 . S
H915 C945 0.950 . S
C916 H898 0.951 . S
C916 C917 1.366 . S
C916 C918 1.388 . S
C917 C916 1.366 . S
C917 C921 1.385 . S
C918 H899 0.951 . S
C918 C916 1.388 . S
C918 C919 1.366 . S
C919 C918 1.366 . S
C919 C920 1.414 . S
C919 C922 1.499 . S
C920 H900 0.950 . S
C920 C919 1.414 . S
C920 C921 1.374 . S
C921 H901 0.950 . S
C921 C917 1.385 . S
C921 C920 1.374 . S
C922 C919 1.499 . S
C922 C923 1.373 . S
C922 C924 1.389 . S
C923 H902 0.950 . S
C923 C922 1.373 . S
C923 C939 1.377 . S
C924 C922 1.389 . S
C924 C925 1.524 . S
C924 C938 1.377 . S
C925 C924 1.524 . S
C925 C926 1.397 . S
C925 C930 1.363 . S
C926 H903 0.950 . S
C926 C925 1.397 . S
C926 C927 1.334 . S
C927 H904 0.950 . S
C927 C926 1.334 . S
C927 C928 1.287 . S
C928 C927 1.287 . S
C928 C929 1.524 . S
C928 H947 0.913 . S
C929 H905 0.950 . S
C929 C928 1.524 . S
C929 C930 1.415 . S
C930 H906 0.950 . S
C930 C925 1.363 . S
C930 C929 1.415 . S
C931 H907 0.951 . S
C931 C932 1.366 . S
C931 C933 1.388 . S
C932 C931 1.366 . S
C932 C936 1.385 . S
C933 H908 0.951 . S
C933 C931 1.388 . S
C933 C934 1.366 . S
C934 C933 1.366 . S
C934 C935 1.414 . S
C934 C937 1.499 . S
C935 H909 0.950 . S
C935 C934 1.414 . S
C935 C936 1.374 . S
C936 H910 0.950 . S
C936 C932 1.385 . S
C936 C935 1.374 . S
C937 C934 1.499 . S
C937 C938 1.373 . S
C937 C939 1.389 . S
C938 H911 0.950 . S
C938 C924 1.377 . S
C938 C937 1.373 . S
C939 C923 1.377 . S
C939 C937 1.389 . S
C939 C940 1.524 . S
C940 C939 1.524 . S
C940 C941 1.397 . S
C940 C945 1.363 . S
C941 H912 0.950 . S
C941 C940 1.397 . S
C941 C942 1.334 . S
C942 H913 0.950 . S
C942 C941 1.334 . S
C942 C943 1.287 . S
C943 C942 1.287 . S
C943 C944 1.524 . S
C943 H946 0.999 . S
C944 H914 0.950 . S
C944 C943 1.524 . S
C944 C945 1.415 . S
C945 H915 0.950 . S
C945 C940 1.363 . S
C945 C944 1.415 . S
H946 C943 0.999 . S
H947 C928 0.913 . S
H948 C966 0.951 . S
H949 C968 0.951 . S
H950 C970 0.950 . S
H951 C971 0.950 . S
H952 C973 0.950 . S
H953 C976 0.950 . S
H954 C977 0.950 . S
H955 C979 0.950 . S
H956 C980 0.950 . S
H957 C981 0.951 . S
H958 C983 0.951 . S
H959 C985 0.950 . S
H960 C986 0.950 . S
H961 C988 0.950 . S
H962 C991 0.950 . S
H963 C992 0.950 . S
H964 C994 0.950 . S
H965 C995 0.950 . S
C966 H948 0.951 . S
C966 C967 1.366 . S
C966 C968 1.388 . S
C967 C966 1.366 . S
C967 C971 1.385 . S
C968 H949 0.951 . S
C968 C966 1.388 . S
C968 C969 1.366 . S
C969 C968 1.366 . S
C969 C970 1.414 . S
C969 C972 1.499 . S
C970 H950 0.950 . S
C970 C969 1.414 . S
C970 C971 1.374 . S
C971 H951 0.950 . S
C971 C967 1.385 . S
C971 C970 1.374 . S
C972 C969 1.499 . S
C972 C973 1.373 . S
C972 C974 1.389 . S
C973 H952 0.950 . S
C973 C972 1.373 . S
C973 C989 1.377 . S
C974 C972 1.389 . S
C974 C975 1.524 . S
C974 C988 1.377 . S
C975 C974 1.524 . S
C975 C976 1.397 . S
C975 C980 1.363 . S
C976 H953 0.950 . S
C976 C975 1.397 . S
C976 C977 1.334 . S
C977 H954 0.950 . S
C977 C976 1.334 . S
C977 C978 1.287 . S
C978 C977 1.287 . S
C978 C979 1.524 . S
C978 H997 0.913 . S
C979 H955 0.950 . S
C979 C978 1.524 . S
C979 C980 1.415 . S
C980 H956 0.950 . S
C980 C975 1.363 . S
C980 C979 1.415 . S
C981 H957 0.951 . S
C981 C982 1.366 . S
C981 C983 1.388 . S
C982 C981 1.366 . S
C982 C986 1.385 . S
C983 H958 0.951 . S
C983 C981 1.388 . S
C983 C984 1.366 . S
C984 C983 1.366 . S
C984 C985 1.414 . S
C984 C987 1.499 . S
C985 H959 0.950 . S
C985 C984 1.414 . S
C985 C986 1.374 . S
C986 H960 0.950 . S
C986 C982 1.385 . S
C986 C985 1.374 . S
C987 C984 1.499 . S
C987 C988 1.373 . S
C987 C989 1.389 . S
C988 H961 0.950 . S
C988 C974 1.377 . S
C988 C987 1.373 . S
C989 C973 1.377 . S
C989 C987 1.389 . S
C989 C990 1.524 . S
C990 C989 1.524 . S
C990 C991 1.397 . S
C990 C995 1.363 . S
C991 H962 0.950 . S
C991 C990 1.397 . S
C991 C992 1.334 . S
C992 H963 0.950 . S
C992 C991 1.334 . S
C992 C993 1.287 . S
C993 C992 1.287 . S
C993 C994 1.524 . S
C993 H996 0.999 . S
C994 H964 0.950 . S
C994 C993 1.524 . S
C994 C995 1.415 . S
C995 H965 0.950 . S
C995 C990 1.363 . S
C995 C994 1.415 . S
H996 C993 0.999 . S
H997 C978 0.913 . S
H998 C1016 0.951 . S
H999 C1018 0.951 . S
H1000 C1020 0.950 . S
H1001 C1021 0.950 . S
H1002 C1023 0.950 . S
H1003 C1026 0.950 . S
H1004 C1027 0.950 . S
H1005 C1029 0.950 . S
H1006 C1030 0.950 . S
H1007 C1031 0.951 . S
H1008 C1033 0.951 . S
H1009 C1035 0.950 . S
H1010 C1036 0.950 . S
H1011 C1038 0.950 . S
H1012 C1041 0.950 . S
H1013 C1042 0.950 . S
H1014 C1044 0.950 . S
H1015 C1045 0.950 . S
C1016 H998 0.951 . S
C1016 C1017 1.366 . S
C1016 C1018 1.388 . S
C1017 C1016 1.366 . S
C1017 C1021 1.385 . S
C1018 H999 0.951 . S
C1018 C1016 1.388 . S
C1018 C1019 1.366 . S
C1019 C1018 1.366 . S
C1019 C1020 1.414 . S
C1019 C1022 1.499 . S
C1020 H1000 0.950 . S
C1020 C1019 1.414 . S
C1020 C1021 1.374 . S
C1021 H1001 0.950 . S
C1021 C1017 1.385 . S
C1021 C1020 1.374 . S
C1022 C1019 1.499 . S
C1022 C1023 1.373 . S
C1022 C1024 1.389 . S
C1023 H1002 0.950 . S
C1023 C1022 1.373 . S
C1023 C1039 1.377 . S
C1024 C1022 1.389 . S
C1024 C1025 1.524 . S
C1024 C1038 1.377 . S
C1025 C1024 1.524 . S
C1025 C1026 1.397 . S
C1025 C1030 1.363 . S
C1026 H1003 0.950 . S
C1026 C1025 1.397 . S
C1026 C1027 1.334 . S
C1027 H1004 0.950 . S
C1027 C1026 1.334 . S
C1027 C1028 1.287 . S
C1028 C1027 1.287 . S
C1028 C1029 1.524 . S
C1028 H1047 0.913 . S
C1029 H1005 0.950 . S
C1029 C1028 1.524 . S
C1029 C1030 1.415 . S
C1030 H1006 0.950 . S
C1030 C1025 1.363 . S
C1030 C1029 1.415 . S
C1031 H1007 0.951 . S
C1031 C1032 1.366 . S
C1031 C1033 1.388 . S
C1032 C1031 1.366 . S
C1032 C1036 1.385 . S
C1033 H1008 0.951 . S
C1033 C1031 1.388 . S
C1033 C1034 1.366 . S
C1034 C1033 1.366 . S
C1034 C1035 1.414 . S
C1034 C1037 1.499 . S
C1035 H1009 0.950 . S
C1035 C1034 1.414 . S
C1035 C1036 1.374 . S
C1036 H1010 0.950 . S
C1036 C1032 1.385 . S
C1036 C1035 1.374 . S
C1037 C1034 1.499 . S
C1037 C1038 1.373 . S
C1037 C1039 1.389 . S
C1038 H1011 0.950 . S
C1038 C1024 1.377 . S
C1038 C1037 1.373 . S
C1039 C1023 1.377 . S
C1039 C1037 1.389 . S
C1039 C1040 1.524 . S
C1040 C1039 1.524 . S
C1040 C1041 1.397 . S
C1040 C1045 1.363 . S
C1041 H1012 0.950 . S
C1041 C1040 1.397 . S
C1041 C1042 1.334 . S
C1042 H1013 0.950 . S
C1042 C1041 1.334 . S
C1042 C1043 1.287 . S
C1043 C1042 1.287 . S
C1043 C1044 1.524 . S
C1043 H1046 0.999 . S
C1044 H1014 0.950 . S
C1044 C1043 1.524 . S
C1044 C1045 1.415 . S
C1045 H1015 0.950 . S
C1045 C1040 1.363 . S
C1045 C1044 1.415 . S
H1046 C1043 0.999 . S
H1047 C1028 0.913 . S
H1048 C1066 0.951 . S
H1049 C1068 0.951 . S
H1050 C1070 0.950 1_565 S
H1051 C1071 0.951 . S
H1052 C1073 0.950 . S
H1053 C1076 0.950 1_565 S
H1054 C1077 0.950 . S
H1055 C1079 0.950 . S
H1056 C1080 0.950 . S
H1057 C1081 0.951 . S
H1058 C1083 0.951 . S
H1059 C1085 0.950 1_545 S
H1060 C1086 0.955 . S
H1061 C1088 0.950 . S
H1062 C1091 0.950 1_545 S
H1063 C1092 0.950 . S
H1064 C1094 0.950 . S
H1065 C1095 0.950 . S
C1066 H1048 0.951 . S
C1066 C1067 1.366 . S
C1066 C1068 1.388 . S
C1067 C1066 1.366 . S
C1067 C1071 1.385 . S
C1068 H1049 0.951 . S
C1068 C1066 1.388 . S
C1068 C1069 1.366 . S
C1069 C1068 1.366 . S
C1069 C1070 1.414 . S
C1069 C1072 1.499 . S
C1070 H1050 0.950 1_545 S
C1070 C1069 1.414 . S
C1070 C1071 1.374 . S
C1071 H1051 0.951 . S
C1071 C1067 1.385 . S
C1071 C1070 1.374 . S
C1072 C1069 1.499 . S
C1072 C1073 1.373 1_545 S
C1072 C1074 1.389 . S
C1073 H1052 0.950 . S
C1073 C1072 1.373 1_565 S
C1073 C1089 1.377 . S
C1074 C1072 1.389 . S
C1074 C1075 1.524 . S
C1074 C1088 1.377 . S
C1075 C1074 1.524 . S
C1075 C1076 1.397 . S
C1075 C1080 1.363 . S
C1076 H1053 0.950 1_545 S
C1076 C1075 1.397 . S
C1076 C1077 1.334 . S
C1077 H1054 0.950 . S
C1077 C1076 1.334 . S
C1077 C1078 1.287 . S
C1078 C1077 1.287 . S
C1078 C1079 1.524 . S
C1078 H1097 0.913 . S
C1079 H1055 0.950 . S
C1079 C1078 1.524 . S
C1079 C1080 1.415 . S
C1080 H1056 0.950 . S
C1080 C1075 1.363 . S
C1080 C1079 1.415 . S
C1081 H1057 0.951 . S
C1081 C1082 1.366 . S
C1081 C1083 1.388 . S
C1082 C1081 1.366 . S
C1082 C1086 1.385 . S
C1083 H1058 0.951 . S
C1083 C1081 1.388 . S
C1083 C1084 1.366 . S
C1084 C1083 1.366 . S
C1084 C1085 1.414 . S
C1084 C1087 1.499 . S
C1085 H1059 0.950 1_565 S
C1085 C1084 1.414 . S
C1085 C1086 1.374 . S
C1086 H1060 0.955 . S
C1086 C1082 1.385 . S
C1086 C1085 1.374 . S
C1087 C1084 1.499 . S
C1087 C1088 1.373 1_565 S
C1087 C1089 1.389 . S
C1088 H1061 0.950 . S
C1088 C1074 1.377 . S
C1088 C1087 1.373 1_545 S
C1089 C1073 1.377 . S
C1089 C1087 1.389 . S
C1089 C1090 1.524 . S
C1090 C1089 1.524 . S
C1090 C1091 1.397 . S
C1090 C1095 1.363 . S
C1091 H1062 0.950 1_565 S
C1091 C1090 1.397 . S
C1091 C1092 1.334 . S
C1092 H1063 0.950 . S
C1092 C1091 1.334 . S
C1092 C1093 1.287 . S
C1093 C1092 1.287 . S
C1093 C1094 1.524 . S
C1093 H1096 0.999 . S
C1094 H1064 0.950 . S
C1094 C1093 1.524 . S
C1094 C1095 1.415 . S
C1095 H1065 0.950 . S
C1095 C1090 1.363 . S
C1095 C1094 1.415 . S
H1096 C1093 0.999 . S
H1097 C1078 0.913 . S
H1098 C1116 0.951 . S
H1099 C1118 0.951 . S
H1100 C1120 0.927 1_565 S
H1101 C1121 0.950 1_565 S
H1102 C1123 0.950 . S
H1103 C1126 0.950 . S
H1104 C1127 0.950 . S
H1105 C1129 0.934 1_455 S
H1106 C1130 0.905 1_454 S
H1107 C1131 0.951 . S
H1108 C1133 0.951 . S
H1109 C1135 0.934 1_545 S
H1110 C1136 0.950 1_545 S
H1111 C1138 0.950 . S
H1112 C1141 0.950 . S
H1113 C1142 0.950 . S
H1114 C1144 0.933 1_655 S
H1115 C1145 0.906 1_655 S
C1116 H1098 0.951 . S
C1116 C1117 1.366 . S
C1116 C1118 1.388 . S
C1117 C1116 1.366 . S
C1117 C1121 1.385 . S
C1118 H1099 0.951 . S
C1118 C1116 1.388 . S
C1118 C1119 1.366 . S
C1119 C1118 1.366 . S
C1119 C1120 1.429 . S
C1119 C1122 1.499 . S
C1120 H1100 0.927 1_545 S
C1120 C1119 1.429 . S
C1120 C1121 1.382 . S
C1121 H1101 0.950 1_545 S
C1121 C1117 1.385 . S
C1121 C1120 1.382 . S
C1122 C1119 1.499 . S
C1122 C1123 1.373 1_545 S
C1122 C1124 1.389 . S
C1123 H1102 0.950 . S
C1123 C1122 1.373 1_565 S
C1123 C1139 1.377 1_655 S
C1124 C1122 1.389 . S
C1124 C1125 1.524 1_554 S
C1124 C1138 1.377 1_655 S
C1125 C1124 1.524 1_556 S
C1125 C1126 1.397 . S
C1125 C1130 1.395 . S
C1126 H1103 0.950 . S
C1126 C1125 1.397 . S
C1126 C1127 1.334 . S
C1127 H1104 0.950 . S
C1127 C1126 1.334 . S
C1127 C1128 1.287 . S
C1128 C1127 1.287 . S
C1128 C1129 1.524 . S
C1128 H1147 0.913 . S
C1129 H1105 0.934 1_655 S
C1129 C1128 1.524 . S
C1129 C1130 1.430 . S
C1130 H1106 0.905 1_656 S
C1130 C1125 1.395 . S
C1130 C1129 1.430 . S
C1131 H1107 0.951 . S
C1131 C1132 1.366 . S
C1131 C1133 1.388 . S
C1132 C1131 1.366 . S
C1132 C1136 1.385 . S
C1133 H1108 0.951 . S
C1133 C1131 1.388 . S
C1133 C1134 1.366 . S
C1134 C1133 1.366 . S
C1134 C1135 1.425 . S
C1134 C1137 1.499 . S
C1135 H1109 0.934 1_565 S
C1135 C1134 1.425 . S
C1135 C1136 1.380 . S
C1136 H1110 0.950 1_565 S
C1136 C1132 1.385 . S
C1136 C1135 1.380 . S
C1137 C1134 1.499 . S
C1137 C1138 1.373 1_565 S
C1137 C1139 1.389 . S
C1138 H1111 0.950 . S
C1138 C1124 1.377 1_455 S
C1138 C1137 1.373 1_545 S
C1139 C1123 1.377 1_455 S
C1139 C1137 1.389 . S
C1139 C1140 1.524 . S
C1140 C1139 1.524 . S
C1140 C1141 1.397 . S
C1140 C1145 1.395 . S
C1141 H1112 0.950 . S
C1141 C1140 1.397 . S
C1141 C1142 1.334 . S
C1142 H1113 0.950 . S
C1142 C1141 1.334 . S
C1142 C1143 1.287 . S
C1143 C1142 1.287 . S
C1143 C1144 1.524 . S
C1143 H1146 0.999 . S
C1144 H1114 0.933 1_455 S
C1144 C1143 1.524 . S
C1144 C1145 1.429 . S
C1145 H1115 0.906 1_455 S
C1145 C1140 1.395 . S
C1145 C1144 1.429 . S
H1146 C1143 0.999 . S
H1147 C1128 0.913 . S
H1148 C1166 0.951 1_556 S
H1149 C1168 0.951 1_556 S
H1150 C1170 0.950 . S
H1151 C1171 0.950 . S
H1152 C1173 0.950 . S
H1153 C1176 0.950 . S
H1154 C1177 0.950 1_554 S
H1155 C1179 0.950 . S
H1156 C1180 0.950 . S
H1157 C1181 0.951 . S
H1158 C1183 0.951 . S
H1159 C1185 0.950 1_556 S
H1160 C1186 0.926 1_556 S
H1161 C1188 0.950 . S
H1162 C1191 0.950 . S
H1163 C1192 0.950 . S
H1164 C1194 0.950 . S
H1165 C1195 0.950 . S
C1166 H1148 0.951 1_554 S
C1166 C1167 1.366 . S
C1166 C1168 1.388 . S
C1167 C1166 1.366 . S
C1167 C1171 1.385 . S
C1168 H1149 0.951 1_554 S
C1168 C1166 1.388 . S
C1168 C1169 1.366 . S
C1169 C1168 1.366 . S
C1169 C1170 1.414 . S
C1169 C1172 1.499 . S
C1170 H1150 0.950 . S
C1170 C1169 1.414 . S
C1170 C1171 1.374 . S
C1171 H1151 0.950 . S
C1171 C1167 1.385 . S
C1171 C1170 1.374 . S
C1172 C1169 1.499 . S
C1172 C1173 1.373 1_545 S
C1172 C1174 1.389 . S
C1173 H1152 0.950 . S
C1173 C1172 1.373 1_565 S
C1173 C1189 1.377 . S
C1174 C1172 1.389 . S
C1174 C1175 1.524 1_554 S
C1174 C1188 1.377 . S
C1175 C1174 1.524 1_556 S
C1175 C1176 1.397 1_556 S
C1175 C1180 1.363 . S
C1176 H1153 0.950 . S
C1176 C1175 1.397 1_554 S
C1176 C1177 1.334 1_554 S
C1177 H1154 0.950 1_556 S
C1177 C1176 1.334 1_556 S
C1177 C1178 1.287 . S
C1178 C1177 1.287 . S
C1178 C1179 1.524 . S
C1178 H1197 0.913 . S
C1179 H1155 0.950 . S
C1179 C1178 1.524 . S
C1179 C1180 1.415 . S
C1180 H1156 0.950 . S
C1180 C1175 1.363 . S
C1180 C1179 1.415 . S
C1181 H1157 0.951 . S
C1181 C1182 1.366 . S
C1181 C1183 1.388 . S
C1182 C1181 1.366 . S
C1182 C1186 1.385 . S
C1183 H1158 0.951 . S
C1183 C1181 1.388 . S
C1183 C1184 1.366 . S
C1184 C1183 1.366 . S
C1184 C1185 1.414 . S
C1184 C1187 1.499 . S
C1185 H1159 0.950 1_554 S
C1185 C1184 1.414 . S
C1185 C1186 1.374 . S
C1186 H1160 0.926 1_554 S
C1186 C1182 1.385 . S
C1186 C1185 1.374 . S
C1187 C1184 1.499 . S
C1187 C1188 1.373 1_565 S
C1187 C1189 1.389 . S
C1188 H1161 0.950 . S
C1188 C1174 1.377 . S
C1188 C1187 1.373 1_545 S
C1189 C1173 1.377 . S
C1189 C1187 1.389 . S
C1189 C1190 1.524 . S
C1190 C1189 1.524 . S
C1190 C1191 1.397 . S
C1190 C1195 1.363 . S
C1191 H1162 0.950 . S
C1191 C1190 1.397 . S
C1191 C1192 1.334 . S
C1192 H1163 0.950 . S
C1192 C1191 1.334 . S
C1192 C1193 1.287 . S
C1193 C1192 1.287 . S
C1193 C1194 1.524 . S
C1193 H1196 0.999 . S
C1194 H1164 0.950 . S
C1194 C1193 1.524 . S
C1194 C1195 1.415 . S
C1195 H1165 0.950 . S
C1195 C1190 1.363 . S
C1195 C1194 1.415 . S
H1196 C1193 0.999 . S
H1197 C1178 0.913 . S
H1198 C1216 0.951 . S
H1199 C1218 0.951 . S
H1200 C1220 0.916 1_565 S
H1201 C1221 0.899 1_565 S
H1202 C1223 0.950 . S
H1203 C1226 0.950 . S
H1204 C1227 0.950 . S
H1205 C1229 0.950 1_655 S
H1206 C1230 0.989 . S
H1207 C1231 0.951 . S
H1208 C1233 0.951 . S
H1209 C1235 0.923 1_545 S
H1210 C1236 0.950 1_545 S
H1211 C1238 0.950 . S
H1212 C1241 0.950 . S
H1213 C1242 0.950 . S
H1214 C1244 0.950 1_455 S
H1215 C1245 0.989 . S
C1216 H1198 0.951 . S
C1216 C1217 1.366 . S
C1216 C1218 1.388 . S
C1217 C1216 1.366 . S
C1217 C1221 1.385 . S
C1218 H1199 0.951 . S
C1218 C1216 1.388 . S
C1218 C1219 1.366 . S
C1219 C1218 1.366 . S
C1219 C1220 1.437 . S
C1219 C1222 1.499 . S
C1220 H1200 0.916 1_545 S
C1220 C1219 1.437 . S
C1220 C1221 1.386 . S
C1221 H1201 0.899 1_545 S
C1221 C1217 1.385 . S
C1221 C1220 1.386 . S
C1222 C1219 1.499 . S
C1222 C1223 1.373 1_545 S
C1222 C1224 1.389 . S
C1223 H1202 0.950 . S
C1223 C1222 1.373 1_565 S
C1223 C1239 1.377 1_455 S
C1224 C1222 1.389 . S
C1224 C1225 1.524 . S
C1224 C1238 1.377 1_455 S
C1225 C1224 1.524 . S
C1225 C1226 1.397 . S
C1225 C1230 1.335 1_455 S
C1226 H1203 0.950 . S
C1226 C1225 1.397 . S
C1226 C1227 1.334 . S
C1227 H1204 0.950 . S
C1227 C1226 1.334 . S
C1227 C1228 1.287 . S
C1228 C1227 1.287 . S
C1228 C1229 1.524 . S
C1228 H1247 0.913 . S
C1229 H1205 0.950 1_455 S
C1229 C1228 1.524 . S
C1229 C1230 1.406 1_455 S
C1230 H1206 0.989 . S
C1230 C1225 1.335 1_655 S
C1230 C1229 1.406 1_655 S
C1231 H1207 0.951 . S
C1231 C1232 1.366 . S
C1231 C1233 1.388 . S
C1232 C1231 1.366 . S
C1232 C1236 1.385 . S
C1233 H1208 0.951 . S
C1233 C1231 1.388 . S
C1233 C1234 1.366 . S
C1234 C1233 1.366 . S
C1234 C1235 1.432 . S
C1234 C1237 1.499 . S
C1235 H1209 0.923 1_565 S
C1235 C1234 1.432 . S
C1235 C1236 1.384 . S
C1236 H1210 0.950 1_565 S
C1236 C1232 1.385 . S
C1236 C1235 1.384 . S
C1237 C1234 1.499 . S
C1237 C1238 1.373 1_565 S
C1237 C1239 1.389 . S
C1238 H1211 0.950 . S
C1238 C1224 1.377 1_655 S
C1238 C1237 1.373 1_545 S
C1239 C1223 1.377 1_655 S
C1239 C1237 1.389 . S
C1239 C1240 1.524 . S
C1240 C1239 1.524 . S
C1240 C1241 1.397 . S
C1240 C1245 1.335 1_655 S
C1241 H1212 0.950 . S
C1241 C1240 1.397 . S
C1241 C1242 1.334 . S
C1242 H1213 0.950 . S
C1242 C1241 1.334 . S
C1242 C1243 1.287 . S
C1243 C1242 1.287 . S
C1243 C1244 1.524 . S
C1243 H1246 0.999 . S
C1244 H1214 0.950 1_655 S
C1244 C1243 1.524 . S
C1244 C1245 1.406 1_655 S
C1245 H1215 0.989 . S
C1245 C1240 1.335 1_455 S
C1245 C1244 1.406 1_455 S
H1246 C1243 0.999 . S
H1247 C1228 0.913 . S
H1248 C1266 0.951 . S
H1249 C1268 0.951 . S
H1250 C1270 0.950 . S
H1251 C1271 0.950 . S
H1252 C1273 0.950 . S
H1253 C1276 0.950 . S
H1254 C1277 0.950 . S
H1255 C1279 0.950 . S
H1256 C1280 0.950 . S
H1257 C1281 0.951 . S
H1258 C1283 0.951 . S
H1259 C1285 0.950 . S
H1260 C1286 0.950 . S
H1261 C1288 0.950 . S
H1262 C1291 0.950 . S
H1263 C1292 0.950 . S
H1264 C1294 0.950 . S
H1265 C1295 0.950 . S
C1266 H1248 0.951 . S
C1266 C1267 1.366 . S
C1266 C1268 1.388 . S
C1267 C1266 1.366 . S
C1267 C1271 1.385 . S
C1268 H1249 0.951 . S
C1268 C1266 1.388 . S
C1268 C1269 1.366 . S
C1269 C1268 1.366 . S
C1269 C1270 1.414 . S
C1269 C1272 1.499 . S
C1270 H1250 0.950 . S
C1270 C1269 1.414 . S
C1270 C1271 1.374 . S
C1271 H1251 0.950 . S
C1271 C1267 1.385 . S
C1271 C1270 1.374 . S
C1272 C1269 1.499 . S
C1272 C1273 1.373 . S
C1272 C1274 1.389 . S
C1273 H1252 0.950 . S
C1273 C1272 1.373 . S
C1273 C1289 1.377 . S
C1274 C1272 1.389 . S
C1274 C1275 1.524 . S
C1274 C1288 1.377 . S
C1275 C1274 1.524 . S
C1275 C1276 1.397 . S
C1275 C1280 1.363 . S
C1276 H1253 0.950 . S
C1276 C1275 1.397 . S
C1276 C1277 1.334 . S
C1277 H1254 0.950 . S
C1277 C1276 1.334 . S
C1277 C1278 1.287 . S
C1278 C1277 1.287 . S
C1278 C1279 1.524 . S
C1278 H1297 0.913 . S
C1279 H1255 0.950 . S
C1279 C1278 1.524 . S
C1279 C1280 1.415 . S
C1280 H1256 0.950 . S
C1280 C1275 1.363 . S
C1280 C1279 1.415 . S
C1281 H1257 0.951 . S
C1281 C1282 1.366 . S
C1281 C1283 1.388 . S
C1282 C1281 1.366 . S
C1282 C1286 1.385 . S
C1283 H1258 0.951 . S
C1283 C1281 1.388 . S
C1283 C1284 1.366 . S
C1284 C1283 1.366 . S
C1284 C1285 1.414 . S
C1284 C1287 1.499 . S
C1285 H1259 0.950 . S
C1285 C1284 1.414 . S
C1285 C1286 1.374 . S
C1286 H1260 0.950 . S
C1286 C1282 1.385 . S
C1286 C1285 1.374 . S
C1287 C1284 1.499 . S
C1287 C1288 1.373 . S
C1287 C1289 1.389 . S
C1288 H1261 0.950 . S
C1288 C1274 1.377 . S
C1288 C1287 1.373 . S
C1289 C1273 1.377 . S
C1289 C1287 1.389 . S
C1289 C1290 1.524 . S
C1290 C1289 1.524 . S
C1290 C1291 1.397 . S
C1290 C1295 1.363 . S
C1291 H1262 0.950 . S
C1291 C1290 1.397 . S
C1291 C1292 1.334 . S
C1292 H1263 0.950 . S
C1292 C1291 1.334 . S
C1292 C1293 1.287 . S
C1293 C1292 1.287 . S
C1293 C1294 1.524 . S
C1293 H1296 0.999 . S
C1294 H1264 0.950 . S
C1294 C1293 1.524 . S
C1294 C1295 1.415 . S
C1295 H1265 0.950 . S
C1295 C1290 1.363 . S
C1295 C1294 1.415 . S
H1296 C1293 0.999 . S
H1297 C1278 0.913 . S
H1298 C1316 0.951 . S
H1299 C1318 0.951 . S
H1300 C1320 0.950 . S
H1301 C1321 0.950 . S
H1302 C1323 0.950 . S
H1303 C1326 0.950 . S
H1304 C1327 0.950 . S
H1305 C1329 0.950 . S
H1306 C1330 0.950 . S
H1307 C1331 0.951 . S
H1308 C1333 0.951 . S
H1309 C1335 0.950 . S
H1310 C1336 0.950 . S
H1311 C1338 0.950 . S
H1312 C1341 0.950 . S
H1313 C1342 0.950 . S
H1314 C1344 0.950 . S
H1315 C1345 0.950 . S
C1316 H1298 0.951 . S
C1316 C1317 1.366 . S
C1316 C1318 1.388 . S
C1317 C1316 1.366 . S
C1317 C1321 1.385 . S
C1318 H1299 0.951 . S
C1318 C1316 1.388 . S
C1318 C1319 1.366 . S
C1319 C1318 1.366 . S
C1319 C1320 1.414 . S
C1319 C1322 1.499 1_556 S
C1320 H1300 0.950 . S
C1320 C1319 1.414 . S
C1320 C1321 1.374 . S
C1321 H1301 0.950 . S
C1321 C1317 1.385 . S
C1321 C1320 1.374 . S
C1322 C1319 1.499 1_554 S
C1322 C1323 1.373 . S
C1322 C1324 1.389 . S
C1323 H1302 0.950 . S
C1323 C1322 1.373 . S
C1323 C1339 1.377 . S
C1324 C1322 1.389 . S
C1324 C1325 1.524 . S
C1324 C1338 1.377 . S
C1325 C1324 1.524 . S
C1325 C1326 1.397 1_554 S
C1325 C1330 1.363 . S
C1326 H1303 0.950 . S
C1326 C1325 1.397 1_556 S
C1326 C1327 1.334 . S
C1327 H1304 0.950 . S
C1327 C1326 1.334 . S
C1327 C1328 1.287 . S
C1328 C1327 1.287 . S
C1328 C1329 1.524 1_556 S
C1328 H1347 0.913 . S
C1329 H1305 0.950 . S
C1329 C1328 1.524 1_554 S
C1329 C1330 1.415 . S
C1330 H1306 0.950 . S
C1330 C1325 1.363 . S
C1330 C1329 1.415 . S
C1331 H1307 0.951 . S
C1331 C1332 1.366 . S
C1331 C1333 1.388 . S
C1332 C1331 1.366 . S
C1332 C1336 1.385 . S
C1333 H1308 0.951 . S
C1333 C1331 1.388 . S
C1333 C1334 1.366 . S
C1334 C1333 1.366 . S
C1334 C1335 1.414 . S
C1334 C1337 1.499 . S
C1335 H1309 0.950 . S
C1335 C1334 1.414 . S
C1335 C1336 1.374 . S
C1336 H1310 0.950 . S
C1336 C1332 1.385 . S
C1336 C1335 1.374 . S
C1337 C1334 1.499 . S
C1337 C1338 1.373 . S
C1337 C1339 1.389 . S
C1338 H1311 0.950 . S
C1338 C1324 1.377 . S
C1338 C1337 1.373 . S
C1339 C1323 1.377 . S
C1339 C1337 1.389 . S
C1339 C1340 1.524 . S
C1340 C1339 1.524 . S
C1340 C1341 1.397 . S
C1340 C1345 1.363 . S
C1341 H1312 0.950 . S
C1341 C1340 1.397 . S
C1341 C1342 1.334 . S
C1342 H1313 0.950 . S
C1342 C1341 1.334 . S
C1342 C1343 1.287 . S
C1343 C1342 1.287 . S
C1343 C1344 1.524 . S
C1343 H1346 0.999 . S
C1344 H1314 0.950 . S
C1344 C1343 1.524 . S
C1344 C1345 1.415 . S
C1345 H1315 0.950 . S
C1345 C1340 1.363 . S
C1345 C1344 1.415 . S
H1346 C1343 0.999 . S
H1347 C1328 0.913 . S
H1348 C1366 0.951 . S
H1349 C1368 0.951 . S
H1350 C1370 0.950 . S
H1351 C1371 0.950 . S
H1352 C1373 0.950 . S
H1353 C1376 0.950 . S
H1354 C1377 0.950 . S
H1355 C1379 0.950 . S
H1356 C1380 0.950 . S
H1357 C1381 0.951 . S
H1358 C1383 0.951 . S
H1359 C1385 0.950 . S
H1360 C1386 0.950 . S
H1361 C1388 0.950 . S
H1362 C1391 0.950 . S
H1363 C1392 0.950 . S
H1364 C1394 0.950 . S
H1365 C1395 0.950 . S
C1366 H1348 0.951 . S
C1366 C1367 1.366 . S
C1366 C1368 1.388 . S
C1367 C1366 1.366 . S
C1367 C1371 1.385 . S
C1368 H1349 0.951 . S
C1368 C1366 1.388 . S
C1368 C1369 1.366 . S
C1369 C1368 1.366 . S
C1369 C1370 1.414 . S
C1369 C1372 1.499 . S
C1370 H1350 0.950 . S
C1370 C1369 1.414 . S
C1370 C1371 1.374 . S
C1371 H1351 0.950 . S
C1371 C1367 1.385 . S
C1371 C1370 1.374 . S
C1372 C1369 1.499 . S
C1372 C1373 1.373 . S
C1372 C1374 1.389 . S
C1373 H1352 0.950 . S
C1373 C1372 1.373 . S
C1373 C1389 1.377 . S
C1374 C1372 1.389 . S
C1374 C1375 1.524 . S
C1374 C1388 1.377 . S
C1375 C1374 1.524 . S
C1375 C1376 1.397 . S
C1375 C1380 1.363 . S
C1376 H1353 0.950 . S
C1376 C1375 1.397 . S
C1376 C1377 1.334 . S
C1377 H1354 0.950 . S
C1377 C1376 1.334 . S
C1377 C1378 1.287 . S
C1378 C1377 1.287 . S
C1378 C1379 1.524 . S
C1378 H1397 0.913 . S
C1379 H1355 0.950 . S
C1379 C1378 1.524 . S
C1379 C1380 1.415 . S
C1380 H1356 0.950 . S
C1380 C1375 1.363 . S
C1380 C1379 1.415 . S
C1381 H1357 0.951 . S
C1381 C1382 1.366 . S
C1381 C1383 1.388 . S
C1382 C1381 1.366 . S
C1382 C1386 1.385 . S
C1383 H1358 0.951 . S
C1383 C1381 1.388 . S
C1383 C1384 1.366 . S
C1384 C1383 1.366 . S
C1384 C1385 1.414 . S
C1384 C1387 1.499 . S
C1385 H1359 0.950 . S
C1385 C1384 1.414 . S
C1385 C1386 1.374 . S
C1386 H1360 0.950 . S
C1386 C1382 1.385 . S
C1386 C1385 1.374 . S
C1387 C1384 1.499 . S
C1387 C1388 1.373 . S
C1387 C1389 1.389 . S
C1388 H1361 0.950 . S
C1388 C1374 1.377 . S
C1388 C1387 1.373 . S
C1389 C1373 1.377 . S
C1389 C1387 1.389 . S
C1389 C1390 1.524 . S
C1390 C1389 1.524 . S
C1390 C1391 1.397 . S
C1390 C1395 1.363 . S
C1391 H1362 0.950 . S
C1391 C1390 1.397 . S
C1391 C1392 1.334 . S
C1392 H1363 0.950 . S
C1392 C1391 1.334 . S
C1392 C1393 1.287 . S
C1393 C1392 1.287 . S
C1393 C1394 1.524 . S
C1393 H1396 0.999 . S
C1394 H1364 0.950 . S
C1394 C1393 1.524 . S
C1394 C1395 1.415 . S
C1395 H1365 0.950 . S
C1395 C1390 1.363 . S
C1395 C1394 1.415 . S
H1396 C1393 0.999 . S
H1397 C1378 0.913 . S
H1398 C1416 0.951 . S
H1399 C1418 0.951 . S
H1400 C1420 0.950 . S
H1401 C1421 0.950 . S
H1402 C1423 0.950 . S
H1403 C1426 0.950 . S
H1404 C1427 0.950 . S
H1405 C1429 0.950 . S
H1406 C1430 0.950 . S
H1407 C1431 0.951 . S
H1408 C1433 0.951 . S
H1409 C1435 0.950 . S
H1410 C1436 0.950 . S
H1411 C1438 0.950 . S
H1412 C1441 0.950 . S
H1413 C1442 0.950 . S
H1414 C1444 0.950 . S
H1415 C1445 0.950 . S
C1416 H1398 0.951 . S
C1416 C1417 1.366 . S
C1416 C1418 1.388 . S
C1417 C1416 1.366 . S
C1417 C1421 1.385 . S
C1418 H1399 0.951 . S
C1418 C1416 1.388 . S
C1418 C1419 1.366 . S
C1419 C1418 1.366 . S
C1419 C1420 1.414 . S
C1419 C1422 1.499 . S
C1420 H1400 0.950 . S
C1420 C1419 1.414 . S
C1420 C1421 1.374 . S
C1421 H1401 0.950 . S
C1421 C1417 1.385 . S
C1421 C1420 1.374 . S
C1422 C1419 1.499 . S
C1422 C1423 1.373 . S
C1422 C1424 1.389 . S
C1423 H1402 0.950 . S
C1423 C1422 1.373 . S
C1423 C1439 1.377 . S
C1424 C1422 1.389 . S
C1424 C1425 1.524 . S
C1424 C1438 1.377 . S
C1425 C1424 1.524 . S
C1425 C1426 1.397 . S
C1425 C1430 1.363 . S
C1426 H1403 0.950 . S
C1426 C1425 1.397 . S
C1426 C1427 1.334 . S
C1427 H1404 0.950 . S
C1427 C1426 1.334 . S
C1427 C1428 1.287 . S
C1428 C1427 1.287 . S
C1428 C1429 1.524 . S
C1428 H1447 0.913 . S
C1429 H1405 0.950 . S
C1429 C1428 1.524 . S
C1429 C1430 1.415 . S
C1430 H1406 0.950 . S
C1430 C1425 1.363 . S
C1430 C1429 1.415 . S
C1431 H1407 0.951 . S
C1431 C1432 1.366 . S
C1431 C1433 1.388 . S
C1432 C1431 1.366 . S
C1432 C1436 1.385 . S
C1433 H1408 0.951 . S
C1433 C1431 1.388 . S
C1433 C1434 1.366 . S
C1434 C1433 1.366 . S
C1434 C1435 1.414 . S
C1434 C1437 1.499 . S
C1435 H1409 0.950 . S
C1435 C1434 1.414 . S
C1435 C1436 1.374 . S
C1436 H1410 0.950 . S
C1436 C1432 1.385 . S
C1436 C1435 1.374 . S
C1437 C1434 1.499 . S
C1437 C1438 1.373 . S
C1437 C1439 1.389 . S
C1438 H1411 0.950 . S
C1438 C1424 1.377 . S
C1438 C1437 1.373 . S
C1439 C1423 1.377 . S
C1439 C1437 1.389 . S
C1439 C1440 1.524 . S
C1440 C1439 1.524 . S
C1440 C1441 1.397 . S
C1440 C1445 1.363 . S
C1441 H1412 0.950 . S
C1441 C1440 1.397 . S
C1441 C1442 1.334 . S
C1442 H1413 0.950 . S
C1442 C1441 1.334 . S
C1442 C1443 1.287 . S
C1443 C1442 1.287 . S
C1443 C1444 1.524 . S
C1443 H1446 0.999 . S
C1444 H1414 0.950 . S
C1444 C1443 1.524 . S
C1444 C1445 1.415 . S
C1445 H1415 0.950 . S
C1445 C1440 1.363 . S
C1445 C1444 1.415 . S
H1446 C1443 0.999 . S
H1447 C1428 0.913 . S
H1448 C1466 0.951 . S
H1449 C1468 0.951 . S
H1450 C1470 0.950 . S
H1451 C1471 0.950 . S
H1452 C1473 0.950 . S
H1453 C1476 0.950 . S
H1454 C1477 0.950 . S
H1455 C1479 0.950 . S
H1456 C1480 0.950 . S
H1457 C1481 0.951 . S
H1458 C1483 0.951 . S
H1459 C1485 0.950 . S
H1460 C1486 0.950 . S
H1461 C1488 0.950 . S
H1462 C1491 0.950 . S
H1463 C1492 0.950 . S
H1464 C1494 0.950 . S
H1465 C1495 0.950 . S
C1466 H1448 0.951 . S
C1466 C1467 1.366 . S
C1466 C1468 1.388 . S
C1467 C1466 1.366 . S
C1467 C1471 1.385 . S
C1468 H1449 0.951 . S
C1468 C1466 1.388 . S
C1468 C1469 1.366 . S
C1469 C1468 1.366 . S
C1469 C1470 1.414 . S
C1469 C1472 1.499 . S
C1470 H1450 0.950 . S
C1470 C1469 1.414 . S
C1470 C1471 1.374 . S
C1471 H1451 0.950 . S
C1471 C1467 1.385 . S
C1471 C1470 1.374 . S
C1472 C1469 1.499 . S
C1472 C1473 1.373 . S
C1472 C1474 1.389 . S
C1473 H1452 0.950 . S
C1473 C1472 1.373 . S
C1473 C1489 1.377 . S
C1474 C1472 1.389 . S
C1474 C1475 1.524 . S
C1474 C1488 1.377 . S
C1475 C1474 1.524 . S
C1475 C1476 1.397 . S
C1475 C1480 1.363 . S
C1476 H1453 0.950 . S
C1476 C1475 1.397 . S
C1476 C1477 1.334 . S
C1477 H1454 0.950 . S
C1477 C1476 1.334 . S
C1477 C1478 1.287 . S
C1478 C1477 1.287 . S
C1478 C1479 1.524 . S
C1478 H1497 0.913 . S
C1479 H1455 0.950 . S
C1479 C1478 1.524 . S
C1479 C1480 1.415 . S
C1480 H1456 0.950 . S
C1480 C1475 1.363 . S
C1480 C1479 1.415 . S
C1481 H1457 0.951 . S
C1481 C1482 1.366 . S
C1481 C1483 1.388 . S
C1482 C1481 1.366 . S
C1482 C1486 1.385 . S
C1483 H1458 0.951 . S
C1483 C1481 1.388 . S
C1483 C1484 1.366 . S
C1484 C1483 1.366 . S
C1484 C1485 1.414 . S
C1484 C1487 1.499 . S
C1485 H1459 0.950 . S
C1485 C1484 1.414 . S
C1485 C1486 1.374 . S
C1486 H1460 0.950 . S
C1486 C1482 1.385 . S
C1486 C1485 1.374 . S
C1487 C1484 1.499 . S
C1487 C1488 1.373 . S
C1487 C1489 1.389 . S
C1488 H1461 0.950 . S
C1488 C1474 1.377 . S
C1488 C1487 1.373 . S
C1489 C1473 1.377 . S
C1489 C1487 1.389 . S
C1489 C1490 1.524 . S
C1490 C1489 1.524 . S
C1490 C1491 1.397 . S
C1490 C1495 1.363 . S
C1491 H1462 0.950 . S
C1491 C1490 1.397 . S
C1491 C1492 1.334 . S
C1492 H1463 0.950 . S
C1492 C1491 1.334 . S
C1492 C1493 1.287 . S
C1493 C1492 1.287 . S
C1493 C1494 1.524 . S
C1493 H1496 0.999 . S
C1494 H1464 0.950 . S
C1494 C1493 1.524 . S
C1494 C1495 1.415 . S
C1495 H1465 0.950 . S
C1495 C1490 1.363 . S
C1495 C1494 1.415 . S
H1496 C1493 0.999 . S
H1497 C1478 0.913 . S
H1498 C1516 0.951 . S
H1499 C1518 0.951 . S
H1500 C1520 0.950 . S
H1501 C1521 0.950 . S
H1502 C1523 0.950 . S
H1503 C1526 0.950 . S
H1504 C1527 0.950 . S
H1505 C1529 0.950 . S
H1506 C1530 0.950 . S
H1507 C1531 0.951 . S
H1508 C1533 0.951 . S
H1509 C1535 0.950 . S
H1510 C1536 0.950 . S
H1511 C1538 0.950 . S
H1512 C1541 0.950 . S
H1513 C1542 0.950 . S
H1514 C1544 0.950 . S
H1515 C1545 0.950 . S
C1516 H1498 0.951 . S
C1516 C1517 1.366 . S
C1516 C1518 1.388 . S
C1517 C1516 1.366 . S
C1517 C1521 1.385 . S
C1518 H1499 0.951 . S
C1518 C1516 1.388 . S
C1518 C1519 1.366 . S
C1519 C1518 1.366 . S
C1519 C1520 1.414 . S
C1519 C1522 1.499 1_556 S
C1520 H1500 0.950 . S
C1520 C1519 1.414 . S
C1520 C1521 1.374 . S
C1521 H1501 0.950 . S
C1521 C1517 1.385 . S
C1521 C1520 1.374 . S
C1522 C1519 1.499 1_554 S
C1522 C1523 1.373 . S
C1522 C1524 1.389 . S
C1523 H1502 0.950 . S
C1523 C1522 1.373 . S
C1523 C1539 1.377 . S
C1524 C1522 1.389 . S
C1524 C1525 1.524 . S
C1524 C1538 1.377 . S
C1525 C1524 1.524 . S
C1525 C1526 1.397 1_554 S
C1525 C1530 1.363 . S
C1526 H1503 0.950 . S
C1526 C1525 1.397 1_556 S
C1526 C1527 1.334 . S
C1527 H1504 0.950 . S
C1527 C1526 1.334 . S
C1527 C1528 1.287 . S
C1528 C1527 1.287 . S
C1528 C1529 1.524 1_556 S
C1528 H1547 0.913 . S
C1529 H1505 0.950 . S
C1529 C1528 1.524 1_554 S
C1529 C1530 1.415 . S
C1530 H1506 0.950 . S
C1530 C1525 1.363 . S
C1530 C1529 1.415 . S
C1531 H1507 0.951 . S
C1531 C1532 1.366 . S
C1531 C1533 1.388 . S
C1532 C1531 1.366 . S
C1532 C1536 1.385 . S
C1533 H1508 0.951 . S
C1533 C1531 1.388 . S
C1533 C1534 1.366 . S
C1534 C1533 1.366 . S
C1534 C1535 1.414 . S
C1534 C1537 1.499 . S
C1535 H1509 0.950 . S
C1535 C1534 1.414 . S
C1535 C1536 1.374 . S
C1536 H1510 0.950 . S
C1536 C1532 1.385 . S
C1536 C1535 1.374 . S
C1537 C1534 1.499 . S
C1537 C1538 1.373 . S
C1537 C1539 1.389 . S
C1538 H1511 0.950 . S
C1538 C1524 1.377 . S
C1538 C1537 1.373 . S
C1539 C1523 1.377 . S
C1539 C1537 1.389 . S
C1539 C1540 1.524 . S
C1540 C1539 1.524 . S
C1540 C1541 1.397 . S
C1540 C1545 1.363 . S
C1541 H1512 0.950 . S
C1541 C1540 1.397 . S
C1541 C1542 1.334 . S
C1542 H1513 0.950 . S
C1542 C1541 1.334 . S
C1542 C1543 1.287 . S
C1543 C1542 1.287 . S
C1543 C1544 1.524 . S
C1543 H1546 0.999 . S
C1544 H1514 0.950 . S
C1544 C1543 1.524 . S
C1544 C1545 1.415 . S
C1545 H1515 0.950 . S
C1545 C1540 1.363 . S
C1545 C1544 1.415 . S
H1546 C1543 0.999 . S
H1547 C1528 0.913 . S
H1548 C1566 0.951 . S
H1549 C1568 0.951 . S
H1550 C1570 0.950 . S
H1551 C1571 0.950 . S
H1552 C1573 0.950 . S
H1553 C1576 0.950 . S
H1554 C1577 0.950 . S
H1555 C1579 0.950 . S
H1556 C1580 0.950 . S
H1557 C1581 0.951 . S
H1558 C1583 0.951 . S
H1559 C1585 0.950 . S
H1560 C1586 0.950 . S
H1561 C1588 0.950 . S
H1562 C1591 0.950 . S
H1563 C1592 0.950 . S
H1564 C1594 0.950 . S
H1565 C1595 0.950 . S
C1566 H1548 0.951 . S
C1566 C1567 1.366 . S
C1566 C1568 1.388 . S
C1567 C1566 1.366 . S
C1567 C1571 1.385 . S
C1568 H1549 0.951 . S
C1568 C1566 1.388 . S
C1568 C1569 1.366 . S
C1569 C1568 1.366 . S
C1569 C1570 1.414 . S
C1569 C1572 1.499 . S
C1570 H1550 0.950 . S
C1570 C1569 1.414 . S
C1570 C1571 1.374 . S
C1571 H1551 0.950 . S
C1571 C1567 1.385 . S
C1571 C1570 1.374 . S
C1572 C1569 1.499 . S
C1572 C1573 1.373 . S
C1572 C1574 1.389 . S
C1573 H1552 0.950 . S
C1573 C1572 1.373 . S
C1573 C1589 1.377 . S
C1574 C1572 1.389 . S
C1574 C1575 1.524 . S
C1574 C1588 1.377 . S
C1575 C1574 1.524 . S
C1575 C1576 1.397 . S
C1575 C1580 1.363 . S
C1576 H1553 0.950 . S
C1576 C1575 1.397 . S
C1576 C1577 1.334 . S
C1577 H1554 0.950 . S
C1577 C1576 1.334 . S
C1577 C1578 1.287 . S
C1578 C1577 1.287 . S
C1578 C1579 1.524 . S
C1578 H1597 0.913 . S
C1579 H1555 0.950 . S
C1579 C1578 1.524 . S
C1579 C1580 1.415 . S
C1580 H1556 0.950 . S
C1580 C1575 1.363 . S
C1580 C1579 1.415 . S
C1581 H1557 0.951 . S
C1581 C1582 1.366 . S
C1581 C1583 1.388 . S
C1582 C1581 1.366 . S
C1582 C1586 1.385 . S
C1583 H1558 0.951 . S
C1583 C1581 1.388 . S
C1583 C1584 1.366 . S
C1584 C1583 1.366 . S
C1584 C1585 1.414 . S
C1584 C1587 1.499 . S
C1585 H1559 0.950 . S
C1585 C1584 1.414 . S
C1585 C1586 1.374 . S
C1586 H1560 0.950 . S
C1586 C1582 1.385 . S
C1586 C1585 1.374 . S
C1587 C1584 1.499 . S
C1587 C1588 1.373 . S
C1587 C1589 1.389 . S
C1588 H1561 0.950 . S
C1588 C1574 1.377 . S
C1588 C1587 1.373 . S
C1589 C1573 1.377 . S
C1589 C1587 1.389 . S
C1589 C1590 1.524 . S
C1590 C1589 1.524 . S
C1590 C1591 1.397 . S
C1590 C1595 1.363 . S
C1591 H1562 0.950 . S
C1591 C1590 1.397 . S
C1591 C1592 1.334 . S
C1592 H1563 0.950 . S
C1592 C1591 1.334 . S
C1592 C1593 1.287 . S
C1593 C1592 1.287 . S
C1593 C1594 1.524 . S
C1593 H1596 0.999 . S
C1594 H1564 0.950 . S
C1594 C1593 1.524 . S
C1594 C1595 1.415 . S
C1595 H1565 0.950 . S
C1595 C1590 1.363 . S
C1595 C1594 1.415 . S
H1596 C1593 0.999 . S
H1597 C1578 0.913 . S
H1598 C1616 0.951 . S
H1599 C1618 0.951 . S
H1600 C1620 0.950 . S
H1601 C1621 0.950 . S
H1602 C1623 0.950 . S
H1603 C1626 0.950 . S
H1604 C1627 0.950 . S
H1605 C1629 0.950 . S
H1606 C1630 0.950 . S
H1607 C1631 0.951 . S
H1608 C1633 0.951 . S
H1609 C1635 0.950 . S
H1610 C1636 0.950 . S
H1611 C1638 0.950 . S
H1612 C1641 0.950 . S
H1613 C1642 0.950 . S
H1614 C1644 0.950 . S
H1615 C1645 0.950 . S
C1616 H1598 0.951 . S
C1616 C1617 1.366 . S
C1616 C1618 1.388 . S
C1617 C1616 1.366 . S
C1617 C1621 1.385 . S
C1618 H1599 0.951 . S
C1618 C1616 1.388 . S
C1618 C1619 1.366 . S
C1619 C1618 1.366 . S
C1619 C1620 1.414 . S
C1619 C1622 1.499 . S
C1620 H1600 0.950 . S
C1620 C1619 1.414 . S
C1620 C1621 1.374 . S
C1621 H1601 0.950 . S
C1621 C1617 1.385 . S
C1621 C1620 1.374 . S
C1622 C1619 1.499 . S
C1622 C1623 1.373 . S
C1622 C1624 1.389 . S
C1623 H1602 0.950 . S
C1623 C1622 1.373 . S
C1623 C1639 1.377 . S
C1624 C1622 1.389 . S
C1624 C1625 1.524 . S
C1624 C1638 1.377 . S
C1625 C1624 1.524 . S
C1625 C1626 1.397 . S
C1625 C1630 1.363 . S
C1626 H1603 0.950 . S
C1626 C1625 1.397 . S
C1626 C1627 1.334 . S
C1627 H1604 0.950 . S
C1627 C1626 1.334 . S
C1627 C1628 1.287 . S
C1628 C1627 1.287 . S
C1628 C1629 1.524 . S
C1628 H1647 0.913 . S
C1629 H1605 0.950 . S
C1629 C1628 1.524 . S
C1629 C1630 1.415 . S
C1630 H1606 0.950 . S
C1630 C1625 1.363 . S
C1630 C1629 1.415 . S
C1631 H1607 0.951 . S
C1631 C1632 1.366 . S
C1631 C1633 1.388 . S
C1632 C1631 1.366 . S
C1632 C1636 1.385 . S
C1633 H1608 0.951 . S
C1633 C1631 1.388 . S
C1633 C1634 1.366 . S
C1634 C1633 1.366 . S
C1634 C1635 1.414 . S
C1634 C1637 1.499 . S
C1635 H1609 0.950 . S
C1635 C1634 1.414 . S
C1635 C1636 1.374 . S
C1636 H1610 0.950 . S
C1636 C1632 1.385 . S
C1636 C1635 1.374 . S
C1637 C1634 1.499 . S
C1637 C1638 1.373 . S
C1637 C1639 1.389 . S
C1638 H1611 0.950 . S
C1638 C1624 1.377 . S
C1638 C1637 1.373 . S
C1639 C1623 1.377 . S
C1639 C1637 1.389 . S
C1639 C1640 1.524 . S
C1640 C1639 1.524 . S
C1640 C1641 1.397 . S
C1640 C1645 1.363 . S
C1641 H1612 0.950 . S
C1641 C1640 1.397 . S
C1641 C1642 1.334 . S
C1642 H1613 0.950 . S
C1642 C1641 1.334 . S
C1642 C1643 1.287 . S
C1643 C1642 1.287 . S
C1643 C1644 1.524 . S
C1643 H1646 0.999 . S
C1644 H1614 0.950 . S
C1644 C1643 1.524 . S
C1644 C1645 1.415 . S
C1645 H1615 0.950 . S
C1645 C1640 1.363 . S
C1645 C1644 1.415 . S
H1646 C1643 0.999 . S
H1647 C1628 0.913 . S
H1648 C1666 0.951 . S
H1649 C1668 0.951 . S
H1650 C1670 0.950 . S
H1651 C1671 1.006 . S
H1652 C1673 0.950 . S
H1653 C1676 0.950 . S
H1654 C1677 0.950 . S
H1655 C1679 0.950 . S
H1656 C1680 0.950 . S
H1657 C1681 0.951 . S
H1658 C1683 0.951 . S
H1659 C1685 0.950 . S
H1660 C1686 1.002 . S
H1661 C1688 0.950 . S
H1662 C1691 0.950 . S
H1663 C1692 0.950 . S
H1664 C1694 0.950 . S
H1665 C1695 0.950 . S
C1666 H1648 0.951 . S
C1666 C1667 1.366 . S
C1666 C1668 1.388 . S
C1667 C1666 1.366 . S
C1667 C1671 1.314 1_545 S
C1668 H1649 0.951 . S
C1668 C1666 1.388 . S
C1668 C1669 1.366 . S
C1669 C1668 1.366 . S
C1669 C1670 1.414 1_545 S
C1669 C1672 1.499 . S
C1670 H1650 0.950 . S
C1670 C1669 1.414 1_565 S
C1670 C1671 1.392 . S
C1671 H1651 1.006 . S
C1671 C1667 1.314 1_565 S
C1671 C1670 1.392 . S
C1672 C1669 1.499 . S
C1672 C1673 1.373 1_545 S
C1672 C1674 1.389 . S
C1673 H1652 0.950 . S
C1673 C1672 1.373 1_565 S
C1673 C1689 1.377 . S
C1674 C1672 1.389 . S
C1674 C1675 1.524 . S
C1674 C1688 1.377 . S
C1675 C1674 1.524 . S
C1675 C1676 1.397 . S
C1675 C1680 1.363 . S
C1676 H1653 0.950 . S
C1676 C1675 1.397 . S
C1676 C1677 1.334 . S
C1677 H1654 0.950 . S
C1677 C1676 1.334 . S
C1677 C1678 1.287 . S
C1678 C1677 1.287 . S
C1678 C1679 1.524 . S
C1678 H1697 0.913 . S
C1679 H1655 0.950 . S
C1679 C1678 1.524 . S
C1679 C1680 1.415 . S
C1680 H1656 0.950 . S
C1680 C1675 1.363 . S
C1680 C1679 1.415 . S
C1681 H1657 0.951 . S
C1681 C1682 1.366 . S
C1681 C1683 1.388 . S
C1682 C1681 1.366 . S
C1682 C1686 1.320 1_565 S
C1683 H1658 0.951 . S
C1683 C1681 1.388 . S
C1683 C1684 1.366 . S
C1684 C1683 1.366 . S
C1684 C1685 1.414 1_565 S
C1684 C1687 1.499 . S
C1685 H1659 0.950 . S
C1685 C1684 1.414 1_545 S
C1685 C1686 1.391 . S
C1686 H1660 1.002 . S
C1686 C1682 1.320 1_545 S
C1686 C1685 1.391 . S
C1687 C1684 1.499 . S
C1687 C1688 1.373 1_565 S
C1687 C1689 1.389 . S
C1688 H1661 0.950 . S
C1688 C1674 1.377 . S
C1688 C1687 1.373 1_545 S
C1689 C1673 1.377 . S
C1689 C1687 1.389 . S
C1689 C1690 1.524 . S
C1690 C1689 1.524 . S
C1690 C1691 1.397 . S
C1690 C1695 1.363 . S
C1691 H1662 0.950 . S
C1691 C1690 1.397 . S
C1691 C1692 1.334 . S
C1692 H1663 0.950 . S
C1692 C1691 1.334 . S
C1692 C1693 1.287 . S
C1693 C1692 1.287 . S
C1693 C1694 1.524 . S
C1693 H1696 0.999 . S
C1694 H1664 0.950 . S
C1694 C1693 1.524 . S
C1694 C1695 1.415 . S
C1695 H1665 0.950 . S
C1695 C1690 1.363 . S
C1695 C1694 1.415 . S
H1696 C1693 0.999 . S
H1697 C1678 0.913 . S
H1698 C1716 0.951 . S
H1699 C1718 0.951 . S
H1700 C1720 0.950 . S
H1701 C1721 0.950 . S
H1702 C1723 0.950 . S
H1703 C1726 0.950 . S
H1704 C1727 0.950 . S
H1705 C1729 0.950 . S
H1706 C1730 0.950 . S
H1707 C1731 0.951 . S
H1708 C1733 0.951 . S
H1709 C1735 0.950 . S
H1710 C1736 0.950 . S
H1711 C1738 0.950 . S
H1712 C1741 0.950 . S
H1713 C1742 0.950 . S
H1714 C1744 0.950 . S
H1715 C1745 0.950 . S
C1716 H1698 0.951 . S
C1716 C1717 1.366 . S
C1716 C1718 1.388 . S
C1717 C1716 1.366 . S
C1717 C1721 1.385 . S
C1718 H1699 0.951 . S
C1718 C1716 1.388 . S
C1718 C1719 1.366 . S
C1719 C1718 1.366 . S
C1719 C1720 1.414 . S
C1719 C1722 1.499 . S
C1720 H1700 0.950 . S
C1720 C1719 1.414 . S
C1720 C1721 1.374 . S
C1721 H1701 0.950 . S
C1721 C1717 1.385 . S
C1721 C1720 1.374 . S
C1722 C1719 1.499 . S
C1722 C1723 1.373 . S
C1722 C1724 1.389 . S
C1723 H1702 0.950 . S
C1723 C1722 1.373 . S
C1723 C1739 1.377 . S
C1724 C1722 1.389 . S
C1724 C1725 1.524 . S
C1724 C1738 1.377 . S
C1725 C1724 1.524 . S
C1725 C1726 1.397 . S
C1725 C1730 1.363 . S
C1726 H1703 0.950 . S
C1726 C1725 1.397 . S
C1726 C1727 1.334 . S
C1727 H1704 0.950 . S
C1727 C1726 1.334 . S
C1727 C1728 1.287 . S
C1728 C1727 1.287 . S
C1728 C1729 1.524 . S
C1728 H1747 0.913 . S
C1729 H1705 0.950 . S
C1729 C1728 1.524 . S
C1729 C1730 1.415 . S
C1730 H1706 0.950 . S
C1730 C1725 1.363 . S
C1730 C1729 1.415 . S
C1731 H1707 0.951 . S
C1731 C1732 1.366 . S
C1731 C1733 1.388 . S
C1732 C1731 1.366 . S
C1732 C1736 1.385 . S
C1733 H1708 0.951 . S
C1733 C1731 1.388 . S
C1733 C1734 1.366 . S
C1734 C1733 1.366 . S
C1734 C1735 1.414 . S
C1734 C1737 1.499 . S
C1735 H1709 0.950 . S
C1735 C1734 1.414 . S
C1735 C1736 1.374 . S
C1736 H1710 0.950 . S
C1736 C1732 1.385 . S
C1736 C1735 1.374 . S
C1737 C1734 1.499 . S
C1737 C1738 1.373 . S
C1737 C1739 1.389 . S
C1738 H1711 0.950 . S
C1738 C1724 1.377 . S
C1738 C1737 1.373 . S
C1739 C1723 1.377 . S
C1739 C1737 1.389 . S
C1739 C1740 1.524 . S
C1740 C1739 1.524 . S
C1740 C1741 1.397 . S
C1740 C1745 1.363 . S
C1741 H1712 0.950 . S
C1741 C1740 1.397 . S
C1741 C1742 1.334 . S
C1742 H1713 0.950 . S
C1742 C1741 1.334 . S
C1742 C1743 1.287 . S
C1743 C1742 1.287 . S
C1743 C1744 1.524 . S
C1743 H1746 0.999 . S
C1744 H1714 0.950 . S
C1744 C1743 1.524 . S
C1744 C1745 1.415 . S
C1745 H1715 0.950 . S
C1745 C1740 1.363 . S
C1745 C1744 1.415 . S
H1746 C1743 0.999 . S
H1747 C1728 0.913 . S
H1748 C1766 0.951 . S
H1749 C1768 0.951 . S
H1750 C1770 0.950 . S
H1751 C1771 0.950 . S
H1752 C1773 0.950 . S
H1753 C1776 0.950 . S
H1754 C1777 0.950 . S
H1755 C1779 0.950 . S
H1756 C1780 0.950 . S
H1757 C1781 0.951 . S
H1758 C1783 0.951 . S
H1759 C1785 0.950 . S
H1760 C1786 0.950 . S
H1761 C1788 0.950 . S
H1762 C1791 0.950 . S
H1763 C1792 0.950 . S
H1764 C1794 0.950 . S
H1765 C1795 0.950 . S
C1766 H1748 0.951 . S
C1766 C1767 1.366 . S
C1766 C1768 1.388 . S
C1767 C1766 1.366 . S
C1767 C1771 1.385 . S
C1768 H1749 0.951 . S
C1768 C1766 1.388 . S
C1768 C1769 1.366 . S
C1769 C1768 1.366 . S
C1769 C1770 1.414 . S
C1769 C1772 1.499 . S
C1770 H1750 0.950 . S
C1770 C1769 1.414 . S
C1770 C1771 1.374 . S
C1771 H1751 0.950 . S
C1771 C1767 1.385 . S
C1771 C1770 1.374 . S
C1772 C1769 1.499 . S
C1772 C1773 1.373 . S
C1772 C1774 1.389 1_545 S
C1773 H1752 0.950 . S
C1773 C1772 1.373 . S
C1773 C1789 1.377 . S
C1774 C1772 1.389 1_565 S
C1774 C1775 1.524 . S
C1774 C1788 1.377 . S
C1775 C1774 1.524 . S
C1775 C1776 1.397 . S
C1775 C1780 1.363 . S
C1776 H1753 0.950 . S
C1776 C1775 1.397 . S
C1776 C1777 1.334 . S
C1777 H1754 0.950 . S
C1777 C1776 1.334 . S
C1777 C1778 1.287 . S
C1778 C1777 1.287 . S
C1778 C1779 1.524 . S
C1778 H1797 0.913 . S
C1779 H1755 0.950 . S
C1779 C1778 1.524 . S
C1779 C1780 1.415 . S
C1780 H1756 0.950 . S
C1780 C1775 1.363 . S
C1780 C1779 1.415 . S
C1781 H1757 0.951 . S
C1781 C1782 1.366 . S
C1781 C1783 1.388 . S
C1782 C1781 1.366 . S
C1782 C1786 1.385 . S
C1783 H1758 0.951 . S
C1783 C1781 1.388 . S
C1783 C1784 1.366 . S
C1784 C1783 1.366 . S
C1784 C1785 1.414 . S
C1784 C1787 1.499 . S
C1785 H1759 0.950 . S
C1785 C1784 1.414 . S
C1785 C1786 1.374 . S
C1786 H1760 0.950 . S
C1786 C1782 1.385 . S
C1786 C1785 1.374 . S
C1787 C1784 1.499 . S
C1787 C1788 1.373 . S
C1787 C1789 1.389 1_565 S
C1788 H1761 0.950 . S
C1788 C1774 1.377 . S
C1788 C1787 1.373 . S
C1789 C1773 1.377 . S
C1789 C1787 1.389 1_545 S
C1789 C1790 1.524 . S
C1790 C1789 1.524 . S
C1790 C1791 1.397 . S
C1790 C1795 1.363 . S
C1791 H1762 0.950 . S
C1791 C1790 1.397 . S
C1791 C1792 1.334 . S
C1792 H1763 0.950 . S
C1792 C1791 1.334 . S
C1792 C1793 1.287 . S
C1793 C1792 1.287 . S
C1793 C1794 1.524 . S
C1793 H1796 0.999 . S
C1794 H1764 0.950 . S
C1794 C1793 1.524 . S
C1794 C1795 1.415 . S
C1795 H1765 0.950 . S
C1795 C1790 1.363 . S
C1795 C1794 1.415 . S
H1796 C1793 0.999 . S
H1797 C1778 0.913 . S
H1798 C1816 0.951 . S
H1799 C1818 0.951 . S
H1800 C1820 0.950 . S
H1801 C1821 0.950 . S
H1802 C1823 0.950 . S
H1803 C1826 0.950 . S
H1804 C1827 0.950 . S
H1805 C1829 0.950 . S
H1806 C1830 0.950 . S
H1807 C1831 0.951 . S
H1808 C1833 0.951 . S
H1809 C1835 0.950 . S
H1810 C1836 0.950 . S
H1811 C1838 0.950 . S
H1812 C1841 0.950 . S
H1813 C1842 0.950 . S
H1814 C1844 0.950 . S
H1815 C1845 0.950 . S
C1816 H1798 0.951 . S
C1816 C1817 1.366 . S
C1816 C1818 1.388 . S
C1817 C1816 1.366 . S
C1817 C1821 1.385 . S
C1818 H1799 0.951 . S
C1818 C1816 1.388 . S
C1818 C1819 1.366 . S
C1819 C1818 1.366 . S
C1819 C1820 1.414 . S
C1819 C1822 1.499 1_556 S
C1820 H1800 0.950 . S
C1820 C1819 1.414 . S
C1820 C1821 1.374 . S
C1821 H1801 0.950 . S
C1821 C1817 1.385 . S
C1821 C1820 1.374 . S
C1822 C1819 1.499 1_554 S
C1822 C1823 1.373 . S
C1822 C1824 1.389 . S
C1823 H1802 0.950 . S
C1823 C1822 1.373 . S
C1823 C1839 1.377 . S
C1824 C1822 1.389 . S
C1824 C1825 1.524 . S
C1824 C1838 1.377 . S
C1825 C1824 1.524 . S
C1825 C1826 1.397 1_554 S
C1825 C1830 1.363 . S
C1826 H1803 0.950 . S
C1826 C1825 1.397 1_556 S
C1826 C1827 1.334 . S
C1827 H1804 0.950 . S
C1827 C1826 1.334 . S
C1827 C1828 1.287 . S
C1828 C1827 1.287 . S
C1828 C1829 1.524 1_556 S
C1828 H1847 0.913 . S
C1829 H1805 0.950 . S
C1829 C1828 1.524 1_554 S
C1829 C1830 1.415 . S
C1830 H1806 0.950 . S
C1830 C1825 1.363 . S
C1830 C1829 1.415 . S
C1831 H1807 0.951 . S
C1831 C1832 1.366 . S
C1831 C1833 1.388 . S
C1832 C1831 1.366 . S
C1832 C1836 1.385 . S
C1833 H1808 0.951 . S
C1833 C1831 1.388 . S
C1833 C1834 1.366 . S
C1834 C1833 1.366 . S
C1834 C1835 1.414 . S
C1834 C1837 1.499 . S
C1835 H1809 0.950 . S
C1835 C1834 1.414 . S
C1835 C1836 1.374 . S
C1836 H1810 0.950 . S
C1836 C1832 1.385 . S
C1836 C1835 1.374 . S
C1837 C1834 1.499 . S
C1837 C1838 1.373 . S
C1837 C1839 1.389 . S
C1838 H1811 0.950 . S
C1838 C1824 1.377 . S
C1838 C1837 1.373 . S
C1839 C1823 1.377 . S
C1839 C1837 1.389 . S
C1839 C1840 1.524 . S
C1840 C1839 1.524 . S
C1840 C1841 1.397 . S
C1840 C1845 1.363 . S
C1841 H1812 0.950 . S
C1841 C1840 1.397 . S
C1841 C1842 1.334 . S
C1842 H1813 0.950 . S
C1842 C1841 1.334 . S
C1842 C1843 1.287 . S
C1843 C1842 1.287 . S
C1843 C1844 1.524 . S
C1843 H1846 0.999 . S
C1844 H1814 0.950 . S
C1844 C1843 1.524 . S
C1844 C1845 1.415 . S
C1845 H1815 0.950 . S
C1845 C1840 1.363 . S
C1845 C1844 1.415 . S
H1846 C1843 0.999 . S
H1847 C1828 0.913 . S
H1848 C1866 0.951 . S
H1849 C1868 0.951 . S
H1850 C1870 0.950 . S
H1851 C1871 0.950 . S
H1852 C1873 0.950 . S
H1853 C1876 0.950 . S
H1854 C1877 0.950 . S
H1855 C1879 0.950 . S
H1856 C1880 0.950 . S
H1857 C1881 0.951 . S
H1858 C1883 0.951 . S
H1859 C1885 0.950 . S
H1860 C1886 0.950 . S
H1861 C1888 0.950 . S
H1862 C1891 0.950 . S
H1863 C1892 0.950 . S
H1864 C1894 0.950 . S
H1865 C1895 0.950 . S
C1866 H1848 0.951 . S
C1866 C1867 1.366 . S
C1866 C1868 1.388 . S
C1867 C1866 1.366 . S
C1867 C1871 1.385 . S
C1868 H1849 0.951 . S
C1868 C1866 1.388 . S
C1868 C1869 1.366 . S
C1869 C1868 1.366 . S
C1869 C1870 1.414 . S
C1869 C1872 1.499 . S
C1870 H1850 0.950 . S
C1870 C1869 1.414 . S
C1870 C1871 1.374 . S
C1871 H1851 0.950 . S
C1871 C1867 1.385 . S
C1871 C1870 1.374 . S
C1872 C1869 1.499 . S
C1872 C1873 1.373 . S
C1872 C1874 1.389 1_565 S
C1873 H1852 0.950 . S
C1873 C1872 1.373 . S
C1873 C1889 1.377 . S
C1874 C1872 1.389 1_545 S
C1874 C1875 1.524 . S
C1874 C1888 1.377 . S
C1875 C1874 1.524 . S
C1875 C1876 1.397 . S
C1875 C1880 1.363 . S
C1876 H1853 0.950 . S
C1876 C1875 1.397 . S
C1876 C1877 1.334 . S
C1877 H1854 0.950 . S
C1877 C1876 1.334 . S
C1877 C1878 1.287 . S
C1878 C1877 1.287 . S
C1878 C1879 1.524 . S
C1878 H1897 0.913 . S
C1879 H1855 0.950 . S
C1879 C1878 1.524 . S
C1879 C1880 1.415 . S
C1880 H1856 0.950 . S
C1880 C1875 1.363 . S
C1880 C1879 1.415 . S
C1881 H1857 0.951 . S
C1881 C1882 1.366 . S
C1881 C1883 1.388 . S
C1882 C1881 1.366 . S
C1882 C1886 1.385 . S
C1883 H1858 0.951 . S
C1883 C1881 1.388 . S
C1883 C1884 1.366 . S
C1884 C1883 1.366 . S
C1884 C1885 1.414 . S
C1884 C1887 1.499 . S
C1885 H1859 0.950 . S
C1885 C1884 1.414 . S
C1885 C1886 1.374 . S
C1886 H1860 0.950 . S
C1886 C1882 1.385 . S
C1886 C1885 1.374 . S
C1887 C1884 1.499 . S
C1887 C1888 1.373 . S
C1887 C1889 1.389 1_545 S
C1888 H1861 0.950 . S
C1888 C1874 1.377 . S
C1888 C1887 1.373 . S
C1889 C1873 1.377 . S
C1889 C1887 1.389 1_565 S
C1889 C1890 1.524 . S
C1890 C1889 1.524 . S
C1890 C1891 1.397 . S
C1890 C1895 1.363 . S
C1891 H1862 0.950 . S
C1891 C1890 1.397 . S
C1891 C1892 1.334 . S
C1892 H1863 0.950 . S
C1892 C1891 1.334 . S
C1892 C1893 1.287 . S
C1893 C1892 1.287 . S
C1893 C1894 1.524 . S
C1893 H1896 0.999 . S
C1894 H1864 0.950 . S
C1894 C1893 1.524 . S
C1894 C1895 1.415 . S
C1895 H1865 0.950 . S
C1895 C1890 1.363 . S
C1895 C1894 1.415 . S
H1896 C1893 0.999 . S
H1897 C1878 0.913 . S
H1898 C1916 0.951 . S
H1899 C1918 0.951 . S
H1900 C1920 0.950 . S
H1901 C1921 0.950 . S
H1902 C1923 0.950 . S
H1903 C1926 0.950 . S
H1904 C1927 0.950 . S
H1905 C1929 0.950 . S
H1906 C1930 0.950 . S
H1907 C1931 0.951 . S
H1908 C1933 0.951 . S
H1909 C1935 0.950 . S
H1910 C1936 0.950 . S
H1911 C1938 0.950 . S
H1912 C1941 0.950 . S
H1913 C1942 0.950 . S
H1914 C1944 0.950 . S
H1915 C1945 0.950 . S
C1916 H1898 0.951 . S
C1916 C1917 1.366 . S
C1916 C1918 1.388 . S
C1917 C1916 1.366 . S
C1917 C1921 1.385 . S
C1918 H1899 0.951 . S
C1918 C1916 1.388 . S
C1918 C1919 1.366 . S
C1919 C1918 1.366 . S
C1919 C1920 1.414 . S
C1919 C1922 1.499 . S
C1920 H1900 0.950 . S
C1920 C1919 1.414 . S
C1920 C1921 1.374 . S
C1921 H1901 0.950 . S
C1921 C1917 1.385 . S
C1921 C1920 1.374 . S
C1922 C1919 1.499 . S
C1922 C1923 1.373 . S
C1922 C1924 1.389 . S
C1923 H1902 0.950 . S
C1923 C1922 1.373 . S
C1923 C1939 1.377 . S
C1924 C1922 1.389 . S
C1924 C1925 1.524 . S
C1924 C1938 1.377 . S
C1925 C1924 1.524 . S
C1925 C1926 1.397 . S
C1925 C1930 1.363 . S
C1926 H1903 0.950 . S
C1926 C1925 1.397 . S
C1926 C1927 1.334 . S
C1927 H1904 0.950 . S
C1927 C1926 1.334 . S
C1927 C1928 1.287 . S
C1928 C1927 1.287 . S
C1928 C1929 1.524 . S
C1928 H1947 0.913 . S
C1929 H1905 0.950 . S
C1929 C1928 1.524 . S
C1929 C1930 1.415 . S
C1930 H1906 0.950 . S
C1930 C1925 1.363 . S
C1930 C1929 1.415 . S
C1931 H1907 0.951 . S
C1931 C1932 1.366 . S
C1931 C1933 1.388 . S
C1932 C1931 1.366 . S
C1932 C1936 1.385 . S
C1933 H1908 0.951 . S
C1933 C1931 1.388 . S
C1933 C1934 1.366 . S
C1934 C1933 1.366 . S
C1934 C1935 1.414 . S
C1934 C1937 1.499 . S
C1935 H1909 0.950 . S
C1935 C1934 1.414 . S
C1935 C1936 1.374 . S
C1936 H1910 0.950 . S
C1936 C1932 1.385 . S
C1936 C1935 1.374 . S
C1937 C1934 1.499 . S
C1937 C1938 1.373 . S
C1937 C1939 1.389 . S
C1938 H1911 0.950 . S
C1938 C1924 1.377 . S
C1938 C1937 1.373 . S
C1939 C1923 1.377 . S
C1939 C1937 1.389 . S
C1939 C1940 1.524 . S
C1940 C1939 1.524 . S
C1940 C1941 1.397 . S
C1940 C1945 1.363 . S
C1941 H1912 0.950 . S
C1941 C1940 1.397 . S
C1941 C1942 1.334 . S
C1942 H1913 0.950 . S
C1942 C1941 1.334 . S
C1942 C1943 1.287 . S
C1943 C1942 1.287 . S
C1943 C1944 1.524 . S
C1943 H1946 0.999 . S
C1944 H1914 0.950 . S
C1944 C1943 1.524 . S
C1944 C1945 1.415 . S
C1945 H1915 0.950 . S
C1945 C1940 1.363 . S
C1945 C1944 1.415 . S
H1946 C1943 0.999 . S
H1947 C1928 0.913 . S
H1948 C1966 0.951 . S
H1949 C1968 0.951 . S
H1950 C1970 0.950 . S
H1951 C1971 0.950 . S
H1952 C1973 0.950 . S
H1953 C1976 0.950 . S
H1954 C1977 0.950 . S
H1955 C1979 0.950 . S
H1956 C1980 0.950 . S
H1957 C1981 0.951 . S
H1958 C1983 0.951 . S
H1959 C1985 0.950 . S
H1960 C1986 0.950 . S
H1961 C1988 0.950 . S
H1962 C1991 0.950 . S
H1963 C1992 0.950 . S
H1964 C1994 0.950 . S
H1965 C1995 0.950 . S
C1966 H1948 0.951 . S
C1966 C1967 1.366 . S
C1966 C1968 1.388 . S
C1967 C1966 1.366 . S
C1967 C1971 1.385 1_545 S
C1968 H1949 0.951 . S
C1968 C1966 1.388 . S
C1968 C1969 1.366 . S
C1969 C1968 1.366 . S
C1969 C1970 1.414 1_545 S
C1969 C1972 1.499 . S
C1970 H1950 0.950 . S
C1970 C1969 1.414 1_565 S
C1970 C1971 1.374 . S
C1971 H1951 0.950 . S
C1971 C1967 1.385 1_565 S
C1971 C1970 1.374 . S
C1972 C1969 1.499 . S
C1972 C1973 1.373 1_545 S
C1972 C1974 1.389 . S
C1973 H1952 0.950 . S
C1973 C1972 1.373 1_565 S
C1973 C1989 1.377 . S
C1974 C1972 1.389 . S
C1974 C1975 1.524 . S
C1974 C1988 1.377 . S
C1975 C1974 1.524 . S
C1975 C1976 1.397 . S
C1975 C1980 1.363 . S
C1976 H1953 0.950 . S
C1976 C1975 1.397 . S
C1976 C1977 1.334 . S
C1977 H1954 0.950 . S
C1977 C1976 1.334 . S
C1977 C1978 1.287 . S
C1978 C1977 1.287 . S
C1978 C1979 1.524 . S
C1978 H1997 0.913 . S
C1979 H1955 0.950 . S
C1979 C1978 1.524 . S
C1979 C1980 1.415 . S
C1980 H1956 0.950 . S
C1980 C1975 1.363 . S
C1980 C1979 1.415 . S
C1981 H1957 0.951 . S
C1981 C1982 1.366 . S
C1981 C1983 1.388 . S
C1982 C1981 1.366 . S
C1982 C1986 1.385 1_565 S
C1983 H1958 0.951 . S
C1983 C1981 1.388 . S
C1983 C1984 1.366 . S
C1984 C1983 1.366 . S
C1984 C1985 1.414 1_565 S
C1984 C1987 1.499 . S
C1985 H1959 0.950 . S
C1985 C1984 1.414 1_545 S
C1985 C1986 1.374 . S
C1986 H1960 0.950 . S
C1986 C1982 1.385 1_545 S
C1986 C1985 1.374 . S
C1987 C1984 1.499 . S
C1987 C1988 1.373 1_565 S
C1987 C1989 1.389 . S
C1988 H1961 0.950 . S
C1988 C1974 1.377 . S
C1988 C1987 1.373 1_545 S
C1989 C1973 1.377 . S
C1989 C1987 1.389 . S
C1989 C1990 1.524 . S
C1990 C1989 1.524 . S
C1990 C1991 1.397 . S
C1990 C1995 1.363 . S
C1991 H1962 0.950 . S
C1991 C1990 1.397 . S
C1991 C1992 1.334 . S
C1992 H1963 0.950 . S
C1992 C1991 1.334 . S
C1992 C1993 1.287 . S
C1993 C1992 1.287 . S
C1993 C1994 1.524 . S
C1993 H1996 0.999 . S
C1994 H1964 0.950 . S
C1994 C1993 1.524 . S
C1994 C1995 1.415 . S
C1995 H1965 0.950 . S
C1995 C1990 1.363 . S
C1995 C1994 1.415 . S
H1996 C1993 0.999 . S
H1997 C1978 0.913 . S
H1998 C2016 0.951 . S
H1999 C2018 0.951 . S
H2000 C2020 0.950 . S
H2001 C2021 0.950 . S
H2002 C2023 0.950 . S
H2003 C2026 0.950 . S
H2004 C2027 0.950 . S
H2005 C2029 0.950 . S
H2006 C2030 0.950 . S
H2007 C2031 0.951 . S
H2008 C2033 0.951 . S
H2009 C2035 0.950 . S
H2010 C2036 0.950 . S
H2011 C2038 0.950 . S
H2012 C2041 0.950 . S
H2013 C2042 0.950 . S
H2014 C2044 0.950 . S
H2015 C2045 0.950 . S
C2016 H1998 0.951 . S
C2016 C2017 1.366 . S
C2016 C2018 1.388 . S
C2017 C2016 1.366 . S
C2017 C2021 1.385 . S
C2018 H1999 0.951 . S
C2018 C2016 1.388 . S
C2018 C2019 1.366 . S
C2019 C2018 1.366 . S
C2019 C2020 1.414 . S
C2019 C2022 1.499 . S
C2020 H2000 0.950 . S
C2020 C2019 1.414 . S
C2020 C2021 1.374 . S
C2021 H2001 0.950 . S
C2021 C2017 1.385 . S
C2021 C2020 1.374 . S
C2022 C2019 1.499 . S
C2022 C2023 1.373 . S
C2022 C2024 1.389 . S
C2023 H2002 0.950 . S
C2023 C2022 1.373 . S
C2023 C2039 1.377 . S
C2024 C2022 1.389 . S
C2024 C2025 1.524 . S
C2024 C2038 1.377 . S
C2025 C2024 1.524 . S
C2025 C2026 1.397 . S
C2025 C2030 1.363 . S
C2026 H2003 0.950 . S
C2026 C2025 1.397 . S
C2026 C2027 1.334 . S
C2027 H2004 0.950 . S
C2027 C2026 1.334 . S
C2027 C2028 1.287 . S
C2028 C2027 1.287 . S
C2028 C2029 1.524 . S
C2028 H2047 0.913 . S
C2029 H2005 0.950 . S
C2029 C2028 1.524 . S
C2029 C2030 1.415 . S
C2030 H2006 0.950 . S
C2030 C2025 1.363 . S
C2030 C2029 1.415 . S
C2031 H2007 0.951 . S
C2031 C2032 1.366 . S
C2031 C2033 1.388 . S
C2032 C2031 1.366 . S
C2032 C2036 1.385 . S
C2033 H2008 0.951 . S
C2033 C2031 1.388 . S
C2033 C2034 1.366 . S
C2034 C2033 1.366 . S
C2034 C2035 1.414 . S
C2034 C2037 1.499 1_556 S
C2035 H2009 0.950 . S
C2035 C2034 1.414 . S
C2035 C2036 1.374 . S
C2036 H2010 0.950 . S
C2036 C2032 1.385 . S
C2036 C2035 1.374 . S
C2037 C2034 1.499 1_554 S
C2037 C2038 1.373 . S
C2037 C2039 1.389 . S
C2038 H2011 0.950 . S
C2038 C2024 1.377 . S
C2038 C2037 1.373 . S
C2039 C2023 1.377 . S
C2039 C2037 1.389 . S
C2039 C2040 1.524 . S
C2040 C2039 1.524 . S
C2040 C2041 1.397 1_554 S
C2040 C2045 1.363 . S
C2041 H2012 0.950 . S
C2041 C2040 1.397 1_556 S
C2041 C2042 1.334 . S
C2042 H2013 0.950 . S
C2042 C2041 1.334 . S
C2042 C2043 1.287 . S
C2043 C2042 1.287 . S
C2043 C2044 1.524 . S
C2043 H2046 0.999 . S
C2044 H2014 0.950 . S
C2044 C2043 1.524 . S
C2044 C2045 1.415 1_556 S
C2045 H2015 0.950 . S
C2045 C2040 1.363 . S
C2045 C2044 1.415 1_554 S
H2046 C2043 0.999 . S
H2047 C2028 0.913 . S
H2048 C2066 0.951 . S
H2049 C2068 0.951 . S
H2050 C2070 0.950 . S
H2051 C2071 0.950 . S
H2052 C2073 0.950 . S
H2053 C2076 0.950 . S
H2054 C2077 0.950 . S
H2055 C2079 0.950 . S
H2056 C2080 0.950 . S
H2057 C2081 0.951 . S
H2058 C2083 0.951 . S
H2059 C2085 0.950 . S
H2060 C2086 0.950 . S
H2061 C2088 0.950 . S
H2062 C2091 0.950 . S
H2063 C2092 0.950 . S
H2064 C2094 0.950 . S
H2065 C2095 0.950 . S
C2066 H2048 0.951 . S
C2066 C2067 1.366 . S
C2066 C2068 1.388 . S
C2067 C2066 1.366 . S
C2067 C2071 1.385 . S
C2068 H2049 0.951 . S
C2068 C2066 1.388 . S
C2068 C2069 1.366 . S
C2069 C2068 1.366 . S
C2069 C2070 1.414 . S
C2069 C2072 1.499 . S
C2070 H2050 0.950 . S
C2070 C2069 1.414 . S
C2070 C2071 1.374 . S
C2071 H2051 0.950 . S
C2071 C2067 1.385 . S
C2071 C2070 1.374 . S
C2072 C2069 1.499 . S
C2072 C2073 1.373 . S
C2072 C2074 1.389 . S
C2073 H2052 0.950 . S
C2073 C2072 1.373 . S
C2073 C2089 1.377 . S
C2074 C2072 1.389 . S
C2074 C2075 1.524 . S
C2074 C2088 1.377 . S
C2075 C2074 1.524 . S
C2075 C2076 1.397 . S
C2075 C2080 1.363 . S
C2076 H2053 0.950 . S
C2076 C2075 1.397 . S
C2076 C2077 1.334 . S
C2077 H2054 0.950 . S
C2077 C2076 1.334 . S
C2077 C2078 1.287 . S
C2078 C2077 1.287 . S
C2078 C2079 1.524 . S
C2078 H2097 0.913 . S
C2079 H2055 0.950 . S
C2079 C2078 1.524 . S
C2079 C2080 1.415 . S
C2080 H2056 0.950 . S
C2080 C2075 1.363 . S
C2080 C2079 1.415 . S
C2081 H2057 0.951 . S
C2081 C2082 1.366 . S
C2081 C2083 1.388 . S
C2082 C2081 1.366 . S
C2082 C2086 1.385 . S
C2083 H2058 0.951 . S
C2083 C2081 1.388 . S
C2083 C2084 1.366 . S
C2084 C2083 1.366 . S
C2084 C2085 1.414 . S
C2084 C2087 1.499 . S
C2085 H2059 0.950 . S
C2085 C2084 1.414 . S
C2085 C2086 1.374 . S
C2086 H2060 0.950 . S
C2086 C2082 1.385 . S
C2086 C2085 1.374 . S
C2087 C2084 1.499 . S
C2087 C2088 1.373 . S
C2087 C2089 1.389 . S
C2088 H2061 0.950 . S
C2088 C2074 1.377 . S
C2088 C2087 1.373 . S
C2089 C2073 1.377 . S
C2089 C2087 1.389 . S
C2089 C2090 1.524 . S
C2090 C2089 1.524 . S
C2090 C2091 1.397 . S
C2090 C2095 1.363 . S
C2091 H2062 0.950 . S
C2091 C2090 1.397 . S
C2091 C2092 1.334 . S
C2092 H2063 0.950 . S
C2092 C2091 1.334 . S
C2092 C2093 1.287 . S
C2093 C2092 1.287 . S
C2093 C2094 1.524 . S
C2093 H2096 0.999 . S
C2094 H2064 0.950 . S
C2094 C2093 1.524 . S
C2094 C2095 1.415 . S
C2095 H2065 0.950 . S
C2095 C2090 1.363 . S
C2095 C2094 1.415 . S
H2096 C2093 0.999 . S
H2097 C2078 0.913 . S
H2098 C2116 0.951 . S
H2099 C2118 0.951 . S
H2100 C2120 0.950 . S
H2101 C2121 0.950 . S
H2102 C2123 0.950 . S
H2103 C2126 0.950 . S
H2104 C2127 0.950 . S
H2105 C2129 0.950 . S
H2106 C2130 0.950 . S
H2107 C2131 0.951 . S
H2108 C2133 0.951 . S
H2109 C2135 0.950 . S
H2110 C2136 0.950 . S
H2111 C2138 0.950 . S
H2112 C2141 0.950 . S
H2113 C2142 0.950 . S
H2114 C2144 0.950 . S
H2115 C2145 0.950 . S
C2116 H2098 0.951 . S
C2116 C2117 1.366 . S
C2116 C2118 1.388 . S
C2117 C2116 1.366 . S
C2117 C2121 1.385 . S
C2118 H2099 0.951 . S
C2118 C2116 1.388 . S
C2118 C2119 1.366 . S
C2119 C2118 1.366 . S
C2119 C2120 1.414 . S
C2119 C2122 1.499 . S
C2120 H2100 0.950 . S
C2120 C2119 1.414 . S
C2120 C2121 1.374 . S
C2121 H2101 0.950 . S
C2121 C2117 1.385 . S
C2121 C2120 1.374 . S
C2122 C2119 1.499 . S
C2122 C2123 1.373 . S
C2122 C2124 1.389 . S
C2123 H2102 0.950 . S
C2123 C2122 1.373 . S
C2123 C2139 1.377 . S
C2124 C2122 1.389 . S
C2124 C2125 1.524 . S
C2124 C2138 1.377 . S
C2125 C2124 1.524 . S
C2125 C2126 1.397 . S
C2125 C2130 1.363 . S
C2126 H2103 0.950 . S
C2126 C2125 1.397 . S
C2126 C2127 1.334 . S
C2127 H2104 0.950 . S
C2127 C2126 1.334 . S
C2127 C2128 1.287 . S
C2128 C2127 1.287 . S
C2128 C2129 1.524 . S
C2128 H2147 0.913 . S
C2129 H2105 0.950 . S
C2129 C2128 1.524 . S
C2129 C2130 1.415 . S
C2130 H2106 0.950 . S
C2130 C2125 1.363 . S
C2130 C2129 1.415 . S
C2131 H2107 0.951 . S
C2131 C2132 1.366 . S
C2131 C2133 1.388 . S
C2132 C2131 1.366 . S
C2132 C2136 1.385 . S
C2133 H2108 0.951 . S
C2133 C2131 1.388 . S
C2133 C2134 1.366 . S
C2134 C2133 1.366 . S
C2134 C2135 1.414 . S
C2134 C2137 1.499 . S
C2135 H2109 0.950 . S
C2135 C2134 1.414 . S
C2135 C2136 1.374 . S
C2136 H2110 0.950 . S
C2136 C2132 1.385 . S
C2136 C2135 1.374 . S
C2137 C2134 1.499 . S
C2137 C2138 1.373 . S
C2137 C2139 1.389 . S
C2138 H2111 0.950 . S
C2138 C2124 1.377 . S
C2138 C2137 1.373 . S
C2139 C2123 1.377 . S
C2139 C2137 1.389 . S
C2139 C2140 1.524 . S
C2140 C2139 1.524 . S
C2140 C2141 1.397 . S
C2140 C2145 1.363 . S
C2141 H2112 0.950 . S
C2141 C2140 1.397 . S
C2141 C2142 1.334 . S
C2142 H2113 0.950 . S
C2142 C2141 1.334 . S
C2142 C2143 1.287 . S
C2143 C2142 1.287 . S
C2143 C2144 1.524 . S
C2143 H2146 0.999 . S
C2144 H2114 0.950 . S
C2144 C2143 1.524 . S
C2144 C2145 1.415 . S
C2145 H2115 0.950 . S
C2145 C2140 1.363 . S
C2145 C2144 1.415 . S
H2146 C2143 0.999 . S
H2147 C2128 0.913 . S
H2148 C2166 0.951 . S
H2149 C2168 0.951 . S
H2150 C2170 0.950 . S
H2151 C2171 0.950 . S
H2152 C2173 0.950 . S
H2153 C2176 0.950 . S
H2154 C2177 0.950 . S
H2155 C2179 0.950 . S
H2156 C2180 0.950 . S
H2157 C2181 0.951 . S
H2158 C2183 0.951 . S
H2159 C2185 0.950 . S
H2160 C2186 0.950 . S
H2161 C2188 0.950 . S
H2162 C2191 0.950 . S
H2163 C2192 0.950 . S
H2164 C2194 0.950 . S
H2165 C2195 0.950 . S
C2166 H2148 0.951 . S
C2166 C2167 1.366 . S
C2166 C2168 1.388 . S
C2167 C2166 1.366 . S
C2167 C2171 1.385 . S
C2168 H2149 0.951 . S
C2168 C2166 1.388 . S
C2168 C2169 1.366 . S
C2169 C2168 1.366 . S
C2169 C2170 1.414 . S
C2169 C2172 1.499 . S
C2170 H2150 0.950 . S
C2170 C2169 1.414 . S
C2170 C2171 1.374 . S
C2171 H2151 0.950 . S
C2171 C2167 1.385 . S
C2171 C2170 1.374 . S
C2172 C2169 1.499 . S
C2172 C2173 1.373 . S
C2172 C2174 1.389 . S
C2173 H2152 0.950 . S
C2173 C2172 1.373 . S
C2173 C2189 1.377 . S
C2174 C2172 1.389 . S
C2174 C2175 1.524 . S
C2174 C2188 1.377 . S
C2175 C2174 1.524 . S
C2175 C2176 1.397 . S
C2175 C2180 1.363 . S
C2176 H2153 0.950 . S
C2176 C2175 1.397 . S
C2176 C2177 1.334 . S
C2177 H2154 0.950 . S
C2177 C2176 1.334 . S
C2177 C2178 1.287 . S
C2178 C2177 1.287 . S
C2178 C2179 1.524 . S
C2178 H2197 0.913 . S
C2179 H2155 0.950 . S
C2179 C2178 1.524 . S
C2179 C2180 1.415 . S
C2180 H2156 0.950 . S
C2180 C2175 1.363 . S
C2180 C2179 1.415 . S
C2181 H2157 0.951 . S
C2181 C2182 1.366 . S
C2181 C2183 1.388 . S
C2182 C2181 1.366 . S
C2182 C2186 1.385 . S
C2183 H2158 0.951 . S
C2183 C2181 1.388 . S
C2183 C2184 1.366 . S
C2184 C2183 1.366 . S
C2184 C2185 1.414 . S
C2184 C2187 1.499 . S
C2185 H2159 0.950 . S
C2185 C2184 1.414 . S
C2185 C2186 1.374 . S
C2186 H2160 0.950 . S
C2186 C2182 1.385 . S
C2186 C2185 1.374 . S
C2187 C2184 1.499 . S
C2187 C2188 1.373 . S
C2187 C2189 1.389 . S
C2188 H2161 0.950 . S
C2188 C2174 1.377 . S
C2188 C2187 1.373 . S
C2189 C2173 1.377 . S
C2189 C2187 1.389 . S
C2189 C2190 1.524 . S
C2190 C2189 1.524 . S
C2190 C2191 1.397 . S
C2190 C2195 1.363 . S
C2191 H2162 0.950 . S
C2191 C2190 1.397 . S
C2191 C2192 1.334 . S
C2192 H2163 0.950 . S
C2192 C2191 1.334 . S
C2192 C2193 1.287 . S
C2193 C2192 1.287 . S
C2193 C2194 1.524 . S
C2193 H2196 0.999 . S
C2194 H2164 0.950 . S
C2194 C2193 1.524 . S
C2194 C2195 1.415 . S
C2195 H2165 0.950 . S
C2195 C2190 1.363 . S
C2195 C2194 1.415 . S
H2196 C2193 0.999 . S
H2197 C2178 0.913 . S
H2198 C2216 0.951 . S
H2199 C2218 0.951 . S
H2200 C2220 0.950 . S
H2201 C2221 0.950 . S
H2202 C2223 0.950 . S
H2203 C2226 0.950 . S
H2204 C2227 0.950 . S
H2205 C2229 0.950 . S
H2206 C2230 0.950 . S
H2207 C2231 0.951 . S
H2208 C2233 0.951 . S
H2209 C2235 0.950 . S
H2210 C2236 0.950 . S
H2211 C2238 0.950 . S
H2212 C2241 0.952 . S
H2213 C2242 0.950 . S
H2214 C2244 0.950 . S
H2215 C2245 0.950 . S
C2216 H2198 0.951 . S
C2216 C2217 1.366 . S
C2216 C2218 1.388 . S
C2217 C2216 1.366 . S
C2217 C2221 1.385 . S
C2218 H2199 0.951 . S
C2218 C2216 1.388 . S
C2218 C2219 1.366 . S
C2219 C2218 1.366 . S
C2219 C2220 1.414 . S
C2219 C2222 1.499 . S
C2220 H2200 0.950 . S
C2220 C2219 1.414 . S
C2220 C2221 1.374 . S
C2221 H2201 0.950 . S
C2221 C2217 1.385 . S
C2221 C2220 1.374 . S
C2222 C2219 1.499 . S
C2222 C2223 1.373 . S
C2222 C2224 1.389 . S
C2223 H2202 0.950 . S
C2223 C2222 1.373 . S
C2223 C2239 1.377 . S
C2224 C2222 1.389 . S
C2224 C2225 1.524 . S
C2224 C2238 1.377 . S
C2225 C2224 1.524 . S
C2225 C2226 1.397 . S
C2225 C2230 1.363 . S
C2226 H2203 0.950 . S
C2226 C2225 1.397 . S
C2226 C2227 1.334 . S
C2227 H2204 0.950 . S
C2227 C2226 1.334 . S
C2227 C2228 1.287 . S
C2228 C2227 1.287 . S
C2228 C2229 1.524 . S
C2228 H2247 0.913 . S
C2229 H2205 0.950 . S
C2229 C2228 1.524 . S
C2229 C2230 1.415 . S
C2230 H2206 0.950 . S
C2230 C2225 1.363 . S
C2230 C2229 1.415 . S
C2231 H2207 0.951 . S
C2231 C2232 1.366 . S
C2231 C2233 1.388 . S
C2232 C2231 1.366 . S
C2232 C2236 1.385 . S
C2233 H2208 0.951 . S
C2233 C2231 1.388 . S
C2233 C2234 1.366 . S
C2234 C2233 1.366 . S
C2234 C2235 1.414 . S
C2234 C2237 1.499 1_556 S
C2235 H2209 0.950 . S
C2235 C2234 1.414 . S
C2235 C2236 1.374 . S
C2236 H2210 0.950 . S
C2236 C2232 1.385 . S
C2236 C2235 1.374 . S
C2237 C2234 1.499 1_554 S
C2237 C2238 1.373 . S
C2237 C2239 1.389 . S
C2238 H2211 0.950 . S
C2238 C2224 1.377 . S
C2238 C2237 1.373 . S
C2239 C2223 1.377 . S
C2239 C2237 1.389 . S
C2239 C2240 1.524 . S
C2240 C2239 1.524 . S
C2240 C2241 1.391 1_554 S
C2240 C2245 1.363 . S
C2241 H2212 0.952 . S
C2241 C2240 1.391 1_556 S
C2241 C2242 1.338 . S
C2242 H2213 0.950 . S
C2242 C2241 1.338 . S
C2242 C2243 1.287 . S
C2243 C2242 1.287 . S
C2243 C2244 1.524 1_556 S
C2243 H2246 0.999 . S
C2244 H2214 0.950 . S
C2244 C2243 1.524 1_554 S
C2244 C2245 1.415 . S
C2245 H2215 0.950 . S
C2245 C2240 1.363 . S
C2245 C2244 1.415 . S
H2246 C2243 0.999 . S
H2247 C2228 0.913 . S
H2248 C2266 0.951 . S
H2249 C2268 0.951 . S
H2250 C2270 0.950 . S
H2251 C2271 0.950 . S
H2252 C2273 0.950 . S
H2253 C2276 0.950 . S
H2254 C2277 0.950 . S
H2255 C2279 0.950 . S
H2256 C2280 0.950 . S
H2257 C2281 0.951 . S
H2258 C2283 0.951 . S
H2259 C2285 0.950 . S
H2260 C2286 0.950 . S
H2261 C2288 0.950 . S
H2262 C2291 0.950 . S
H2263 C2292 0.950 . S
H2264 C2294 0.950 . S
H2265 C2295 0.950 . S
C2266 H2248 0.951 . S
C2266 C2267 1.366 . S
C2266 C2268 1.388 . S
C2267 C2266 1.366 . S
C2267 C2271 1.385 . S
C2268 H2249 0.951 . S
C2268 C2266 1.388 . S
C2268 C2269 1.366 . S
C2269 C2268 1.366 . S
C2269 C2270 1.414 . S
C2269 C2272 1.499 . S
C2270 H2250 0.950 . S
C2270 C2269 1.414 . S
C2270 C2271 1.374 . S
C2271 H2251 0.950 . S
C2271 C2267 1.385 . S
C2271 C2270 1.374 . S
C2272 C2269 1.499 . S
C2272 C2273 1.373 . S
C2272 C2274 1.389 . S
C2273 H2252 0.950 . S
C2273 C2272 1.373 . S
C2273 C2289 1.377 . S
C2274 C2272 1.389 . S
C2274 C2275 1.524 . S
C2274 C2288 1.377 . S
C2275 C2274 1.524 . S
C2275 C2276 1.397 . S
C2275 C2280 1.363 . S
C2276 H2253 0.950 . S
C2276 C2275 1.397 . S
C2276 C2277 1.334 . S
C2277 H2254 0.950 . S
C2277 C2276 1.334 . S
C2277 C2278 1.287 . S
C2278 C2277 1.287 . S
C2278 C2279 1.524 . S
C2278 H2297 0.913 . S
C2279 H2255 0.950 . S
C2279 C2278 1.524 . S
C2279 C2280 1.415 . S
C2280 H2256 0.950 . S
C2280 C2275 1.363 . S
C2280 C2279 1.415 . S
C2281 H2257 0.951 . S
C2281 C2282 1.366 . S
C2281 C2283 1.388 . S
C2282 C2281 1.366 . S
C2282 C2286 1.385 . S
C2283 H2258 0.951 . S
C2283 C2281 1.388 . S
C2283 C2284 1.366 . S
C2284 C2283 1.366 . S
C2284 C2285 1.414 . S
C2284 C2287 1.499 . S
C2285 H2259 0.950 . S
C2285 C2284 1.414 . S
C2285 C2286 1.374 . S
C2286 H2260 0.950 . S
C2286 C2282 1.385 . S
C2286 C2285 1.374 . S
C2287 C2284 1.499 . S
C2287 C2288 1.373 . S
C2287 C2289 1.389 . S
C2288 H2261 0.950 . S
C2288 C2274 1.377 . S
C2288 C2287 1.373 . S
C2289 C2273 1.377 . S
C2289 C2287 1.389 . S
C2289 C2290 1.524 . S
C2290 C2289 1.524 . S
C2290 C2291 1.397 . S
C2290 C2295 1.363 . S
C2291 H2262 0.950 . S
C2291 C2290 1.397 . S
C2291 C2292 1.334 . S
C2292 H2263 0.950 . S
C2292 C2291 1.334 . S
C2292 C2293 1.287 . S
C2293 C2292 1.287 . S
C2293 C2294 1.524 . S
C2293 H2296 0.999 . S
C2294 H2264 0.950 . S
C2294 C2293 1.524 . S
C2294 C2295 1.415 . S
C2295 H2265 0.950 . S
C2295 C2290 1.363 . S
C2295 C2294 1.415 . S
H2296 C2293 0.999 . S
H2297 C2278 0.913 . S
H2298 C2316 0.951 . S
H2299 C2318 0.951 . S
H2300 C2320 0.950 . S
H2301 C2321 0.950 . S
H2302 C2323 0.950 . S
H2303 C2326 0.950 . S
H2304 C2327 0.950 . S
H2305 C2329 0.950 . S
H2306 C2330 0.950 . S
H2307 C2331 0.951 . S
H2308 C2333 0.951 . S
H2309 C2335 0.950 . S
H2310 C2336 0.950 . S
H2311 C2338 0.950 . S
H2312 C2341 0.950 . S
H2313 C2342 0.950 . S
H2314 C2344 0.950 . S
H2315 C2345 0.950 . S
C2316 H2298 0.951 . S
C2316 C2317 1.366 . S
C2316 C2318 1.388 . S
C2317 C2316 1.366 . S
C2317 C2321 1.385 . S
C2318 H2299 0.951 . S
C2318 C2316 1.388 . S
C2318 C2319 1.366 . S
C2319 C2318 1.366 . S
C2319 C2320 1.414 . S
C2319 C2322 1.499 . S
C2320 H2300 0.950 . S
C2320 C2319 1.414 . S
C2320 C2321 1.374 . S
C2321 H2301 0.950 . S
C2321 C2317 1.385 . S
C2321 C2320 1.374 . S
C2322 C2319 1.499 . S
C2322 C2323 1.373 . S
C2322 C2324 1.389 . S
C2323 H2302 0.950 . S
C2323 C2322 1.373 . S
C2323 C2339 1.377 . S
C2324 C2322 1.389 . S
C2324 C2325 1.524 . S
C2324 C2338 1.377 . S
C2325 C2324 1.524 . S
C2325 C2326 1.397 . S
C2325 C2330 1.363 . S
C2326 H2303 0.950 . S
C2326 C2325 1.397 . S
C2326 C2327 1.334 . S
C2327 H2304 0.950 . S
C2327 C2326 1.334 . S
C2327 C2328 1.287 . S
C2328 C2327 1.287 . S
C2328 C2329 1.524 . S
C2328 H2347 0.913 . S
C2329 H2305 0.950 . S
C2329 C2328 1.524 . S
C2329 C2330 1.415 . S
C2330 H2306 0.950 . S
C2330 C2325 1.363 . S
C2330 C2329 1.415 . S
C2331 H2307 0.951 . S
C2331 C2332 1.366 . S
C2331 C2333 1.388 . S
C2332 C2331 1.366 . S
C2332 C2336 1.385 . S
C2333 H2308 0.951 . S
C2333 C2331 1.388 . S
C2333 C2334 1.366 . S
C2334 C2333 1.366 . S
C2334 C2335 1.414 . S
C2334 C2337 1.499 . S
C2335 H2309 0.950 . S
C2335 C2334 1.414 . S
C2335 C2336 1.374 . S
C2336 H2310 0.950 . S
C2336 C2332 1.385 . S
C2336 C2335 1.374 . S
C2337 C2334 1.499 . S
C2337 C2338 1.373 . S
C2337 C2339 1.389 . S
C2338 H2311 0.950 . S
C2338 C2324 1.377 . S
C2338 C2337 1.373 . S
C2339 C2323 1.377 . S
C2339 C2337 1.389 . S
C2339 C2340 1.524 . S
C2340 C2339 1.524 . S
C2340 C2341 1.397 . S
C2340 C2345 1.363 . S
C2341 H2312 0.950 . S
C2341 C2340 1.397 . S
C2341 C2342 1.334 . S
C2342 H2313 0.950 . S
C2342 C2341 1.334 . S
C2342 C2343 1.287 . S
C2343 C2342 1.287 . S
C2343 C2344 1.524 . S
C2343 H2346 0.999 . S
C2344 H2314 0.950 . S
C2344 C2343 1.524 . S
C2344 C2345 1.415 . S
C2345 H2315 0.950 . S
C2345 C2340 1.363 . S
C2345 C2344 1.415 . S
H2346 C2343 0.999 . S
H2347 C2328 0.913 . S
H2348 C2366 0.951 . S
H2349 C2368 0.951 . S
H2350 C2370 0.950 . S
H2351 C2371 0.950 . S
H2352 C2373 0.950 . S
H2353 C2376 0.950 . S
H2354 C2377 0.950 . S
H2355 C2379 0.950 . S
H2356 C2380 0.950 . S
H2357 C2381 0.951 . S
H2358 C2383 0.951 . S
H2359 C2385 0.950 . S
H2360 C2386 0.950 . S
H2361 C2388 0.950 . S
H2362 C2391 0.950 . S
H2363 C2392 0.950 . S
H2364 C2394 0.950 . S
H2365 C2395 0.950 . S
C2366 H2348 0.951 . S
C2366 C2367 1.366 . S
C2366 C2368 1.388 . S
C2367 C2366 1.366 . S
C2367 C2371 1.385 . S
C2368 H2349 0.951 . S
C2368 C2366 1.388 . S
C2368 C2369 1.366 . S
C2369 C2368 1.366 . S
C2369 C2370 1.414 . S
C2369 C2372 1.499 . S
C2370 H2350 0.950 . S
C2370 C2369 1.414 . S
C2370 C2371 1.374 . S
C2371 H2351 0.950 . S
C2371 C2367 1.385 . S
C2371 C2370 1.374 . S
C2372 C2369 1.499 . S
C2372 C2373 1.373 . S
C2372 C2374 1.389 . S
C2373 H2352 0.950 . S
C2373 C2372 1.373 . S
C2373 C2389 1.377 . S
C2374 C2372 1.389 . S
C2374 C2375 1.524 . S
C2374 C2388 1.377 . S
C2375 C2374 1.524 . S
C2375 C2376 1.397 . S
C2375 C2380 1.363 . S
C2376 H2353 0.950 . S
C2376 C2375 1.397 . S
C2376 C2377 1.334 . S
C2377 H2354 0.950 . S
C2377 C2376 1.334 . S
C2377 C2378 1.287 . S
C2378 C2377 1.287 . S
C2378 C2379 1.524 . S
C2378 H2397 0.913 . S
C2379 H2355 0.950 . S
C2379 C2378 1.524 . S
C2379 C2380 1.415 . S
C2380 H2356 0.950 . S
C2380 C2375 1.363 . S
C2380 C2379 1.415 . S
C2381 H2357 0.951 . S
C2381 C2382 1.366 . S
C2381 C2383 1.388 . S
C2382 C2381 1.366 . S
C2382 C2386 1.385 . S
C2383 H2358 0.951 . S
C2383 C2381 1.388 . S
C2383 C2384 1.366 . S
C2384 C2383 1.366 . S
C2384 C2385 1.414 . S
C2384 C2387 1.499 . S
C2385 H2359 0.950 . S
C2385 C2384 1.414 . S
C2385 C2386 1.374 . S
C2386 H2360 0.950 . S
C2386 C2382 1.385 . S
C2386 C2385 1.374 . S
C2387 C2384 1.499 . S
C2387 C2388 1.373 . S
C2387 C2389 1.389 . S
C2388 H2361 0.950 . S
C2388 C2374 1.377 . S
C2388 C2387 1.373 . S
C2389 C2373 1.377 . S
C2389 C2387 1.389 . S
C2389 C2390 1.524 . S
C2390 C2389 1.524 . S
C2390 C2391 1.397 . S
C2390 C2395 1.363 . S
C2391 H2362 0.950 . S
C2391 C2390 1.397 . S
C2391 C2392 1.334 . S
C2392 H2363 0.950 . S
C2392 C2391 1.334 . S
C2392 C2393 1.287 . S
C2393 C2392 1.287 . S
C2393 C2394 1.524 . S
C2393 H2396 0.999 . S
C2394 H2364 0.950 . S
C2394 C2393 1.524 . S
C2394 C2395 1.415 . S
C2395 H2365 0.950 . S
C2395 C2390 1.363 . S
C2395 C2394 1.415 . S
H2396 C2393 0.999 . S
H2397 C2378 0.913 . S
H2398 C2416 0.951 . S
H2399 C2418 0.951 . S
H2400 C2420 0.950 . S
H2401 C2421 0.950 . S
H2402 C2423 0.950 . S
H2403 C2426 0.952 . S
H2404 C2427 0.950 . S
H2405 C2429 0.950 . S
H2406 C2430 0.950 . S
H2407 C2431 0.951 . S
H2408 C2433 0.951 . S
H2409 C2435 0.950 . S
H2410 C2436 0.950 . S
H2411 C2438 0.950 . S
H2412 C2441 0.950 . S
H2413 C2442 0.950 . S
H2414 C2444 0.950 . S
H2415 C2445 0.950 . S
C2416 H2398 0.951 . S
C2416 C2417 1.366 . S
C2416 C2418 1.388 . S
C2417 C2416 1.366 . S
C2417 C2421 1.385 . S
C2418 H2399 0.951 . S
C2418 C2416 1.388 . S
C2418 C2419 1.366 . S
C2419 C2418 1.366 . S
C2419 C2420 1.414 . S
C2419 C2422 1.499 1_556 S
C2420 H2400 0.950 . S
C2420 C2419 1.414 . S
C2420 C2421 1.374 . S
C2421 H2401 0.950 . S
C2421 C2417 1.385 . S
C2421 C2420 1.374 . S
C2422 C2419 1.499 1_554 S
C2422 C2423 1.373 . S
C2422 C2424 1.389 . S
C2423 H2402 0.950 . S
C2423 C2422 1.373 . S
C2423 C2439 1.377 . S
C2424 C2422 1.389 . S
C2424 C2425 1.524 . S
C2424 C2438 1.377 . S
C2425 C2424 1.524 . S
C2425 C2426 1.390 1_554 S
C2425 C2430 1.363 . S
C2426 H2403 0.952 . S
C2426 C2425 1.390 1_556 S
C2426 C2427 1.338 . S
C2427 H2404 0.950 . S
C2427 C2426 1.338 . S
C2427 C2428 1.295 . S
C2428 C2427 1.295 . S
C2428 C2429 1.510 1_556 S
C2428 H2447 0.923 . S
C2429 H2405 0.950 . S
C2429 C2428 1.510 1_554 S
C2429 C2430 1.415 . S
C2430 H2406 0.950 . S
C2430 C2425 1.363 . S
C2430 C2429 1.415 . S
C2431 H2407 0.951 . S
C2431 C2432 1.366 . S
C2431 C2433 1.388 . S
C2432 C2431 1.366 . S
C2432 C2436 1.385 . S
C2433 H2408 0.951 . S
C2433 C2431 1.388 . S
C2433 C2434 1.366 . S
C2434 C2433 1.366 . S
C2434 C2435 1.414 . S
C2434 C2437 1.499 . S
C2435 H2409 0.950 . S
C2435 C2434 1.414 . S
C2435 C2436 1.374 . S
C2436 H2410 0.950 . S
C2436 C2432 1.385 . S
C2436 C2435 1.374 . S
C2437 C2434 1.499 . S
C2437 C2438 1.373 . S
C2437 C2439 1.389 . S
C2438 H2411 0.950 . S
C2438 C2424 1.377 . S
C2438 C2437 1.373 . S
C2439 C2423 1.377 . S
C2439 C2437 1.389 . S
C2439 C2440 1.524 . S
C2440 C2439 1.524 . S
C2440 C2441 1.397 . S
C2440 C2445 1.363 . S
C2441 H2412 0.950 . S
C2441 C2440 1.397 . S
C2441 C2442 1.334 . S
C2442 H2413 0.950 . S
C2442 C2441 1.334 . S
C2442 C2443 1.287 . S
C2443 C2442 1.287 . S
C2443 C2444 1.524 . S
C2443 H2446 0.999 . S
C2444 H2414 0.950 . S
C2444 C2443 1.524 . S
C2444 C2445 1.415 . S
C2445 H2415 0.950 . S
C2445 C2440 1.363 . S
C2445 C2444 1.415 . S
H2446 C2443 0.999 . S
H2447 C2428 0.923 . S
H2448 C2466 0.951 . S
H2449 C2468 0.951 . S
H2450 C2470 0.950 . S
H2451 C2471 0.950 . S
H2452 C2473 0.950 . S
H2453 C2476 0.950 1_545 S
H2454 C2477 0.950 . S
H2455 C2479 0.950 . S
H2456 C2480 0.950 . S
H2457 C2481 0.951 . S
H2458 C2483 0.951 . S
H2459 C2485 0.950 . S
H2460 C2486 0.950 . S
H2461 C2488 0.950 . S
H2462 C2491 0.950 1_565 S
H2463 C2492 0.947 . S
H2464 C2494 0.950 . S
H2465 C2495 0.950 . S
C2466 H2448 0.951 . S
C2466 C2467 1.366 . S
C2466 C2468 1.388 . S
C2467 C2466 1.366 . S
C2467 C2471 1.385 1_565 S
C2468 H2449 0.951 . S
C2468 C2466 1.388 . S
C2468 C2469 1.366 . S
C2469 C2468 1.366 . S
C2469 C2470 1.414 1_565 S
C2469 C2472 1.499 . S
C2470 H2450 0.950 . S
C2470 C2469 1.414 1_545 S
C2470 C2471 1.374 . S
C2471 H2451 0.950 . S
C2471 C2467 1.385 1_545 S
C2471 C2470 1.374 . S
C2472 C2469 1.499 . S
C2472 C2473 1.373 1_565 S
C2472 C2474 1.389 . S
C2473 H2452 0.950 . S
C2473 C2472 1.373 1_545 S
C2473 C2489 1.377 . S
C2474 C2472 1.389 . S
C2474 C2475 1.524 . S
C2474 C2488 1.377 . S
C2475 C2474 1.524 . S
C2475 C2476 1.397 . S
C2475 C2480 1.363 . S
C2476 H2453 0.950 1_565 S
C2476 C2475 1.397 . S
C2476 C2477 1.334 . S
C2477 H2454 0.950 . S
C2477 C2476 1.334 . S
C2477 C2478 1.287 . S
C2478 C2477 1.287 . S
C2478 C2479 1.524 . S
C2478 H2497 0.913 . S
C2479 H2455 0.950 . S
C2479 C2478 1.524 . S
C2479 C2480 1.415 . S
C2480 H2456 0.950 . S
C2480 C2475 1.363 . S
C2480 C2479 1.415 . S
C2481 H2457 0.951 . S
C2481 C2482 1.366 . S
C2481 C2483 1.388 . S
C2482 C2481 1.366 . S
C2482 C2486 1.385 1_545 S
C2483 H2458 0.951 . S
C2483 C2481 1.388 . S
C2483 C2484 1.366 . S
C2484 C2483 1.366 . S
C2484 C2485 1.414 1_545 S
C2484 C2487 1.499 . S
C2485 H2459 0.950 . S
C2485 C2484 1.414 1_565 S
C2485 C2486 1.374 . S
C2486 H2460 0.950 . S
C2486 C2482 1.385 1_565 S
C2486 C2485 1.374 . S
C2487 C2484 1.499 . S
C2487 C2488 1.373 1_545 S
C2487 C2489 1.389 . S
C2488 H2461 0.950 . S
C2488 C2474 1.377 . S
C2488 C2487 1.373 1_565 S
C2489 C2473 1.377 . S
C2489 C2487 1.389 . S
C2489 C2490 1.524 . S
C2490 C2489 1.524 . S
C2490 C2491 1.397 . S
C2490 C2495 1.363 . S
C2491 H2462 0.950 1_545 S
C2491 C2490 1.397 . S
C2491 C2492 1.334 . S
C2492 H2463 0.947 . S
C2492 C2491 1.334 . S
C2492 C2493 1.287 . S
C2493 C2492 1.287 . S
C2493 C2494 1.524 . S
C2493 H2496 0.999 . S
C2494 H2464 0.950 . S
C2494 C2493 1.524 . S
C2494 C2495 1.415 . S
C2495 H2465 0.950 . S
C2495 C2490 1.363 . S
C2495 C2494 1.415 . S
H2496 C2493 0.999 . S
H2497 C2478 0.913 . S
H2498 C2516 0.951 . S
H2499 C2518 0.951 . S
H2500 C2520 0.950 . S
H2501 C2521 0.950 . S
H2502 C2523 0.950 . S
H2503 C2526 0.950 . S
H2504 C2527 0.950 . S
H2505 C2529 0.950 . S
H2506 C2530 0.950 . S
H2507 C2531 0.951 . S
H2508 C2533 0.951 . S
H2509 C2535 0.950 . S
H2510 C2536 0.950 . S
H2511 C2538 0.950 . S
H2512 C2541 0.950 . S
H2513 C2542 0.950 . S
H2514 C2544 0.950 1_554 S
H2515 C2545 0.950 . S
C2516 H2498 0.951 . S
C2516 C2517 1.366 . S
C2516 C2518 1.388 . S
C2517 C2516 1.366 . S
C2517 C2521 1.385 . S
C2518 H2499 0.951 . S
C2518 C2516 1.388 . S
C2518 C2519 1.366 . S
C2519 C2518 1.366 . S
C2519 C2520 1.414 . S
C2519 C2522 1.499 . S
C2520 H2500 0.950 . S
C2520 C2519 1.414 . S
C2520 C2521 1.374 . S
C2521 H2501 0.950 . S
C2521 C2517 1.385 . S
C2521 C2520 1.374 . S
C2522 C2519 1.499 . S
C2522 C2523 1.373 . S
C2522 C2524 1.389 . S
C2523 H2502 0.950 . S
C2523 C2522 1.373 . S
C2523 C2539 1.377 . S
C2524 C2522 1.389 . S
C2524 C2525 1.524 . S
C2524 C2538 1.377 . S
C2525 C2524 1.524 . S
C2525 C2526 1.397 . S
C2525 C2530 1.363 . S
C2526 H2503 0.950 . S
C2526 C2525 1.397 . S
C2526 C2527 1.334 . S
C2527 H2504 0.950 . S
C2527 C2526 1.334 . S
C2527 C2528 1.287 . S
C2528 C2527 1.287 . S
C2528 C2529 1.524 . S
C2528 H2547 0.913 . S
C2529 H2505 0.950 . S
C2529 C2528 1.524 . S
C2529 C2530 1.415 . S
C2530 H2506 0.950 . S
C2530 C2525 1.363 . S
C2530 C2529 1.415 . S
C2531 H2507 0.951 . S
C2531 C2532 1.366 . S
C2531 C2533 1.388 . S
C2532 C2531 1.366 . S
C2532 C2536 1.385 . S
C2533 H2508 0.951 . S
C2533 C2531 1.388 . S
C2533 C2534 1.366 . S
C2534 C2533 1.366 . S
C2534 C2535 1.414 . S
C2534 C2537 1.499 1_556 S
C2535 H2509 0.950 . S
C2535 C2534 1.414 . S
C2535 C2536 1.374 . S
C2536 H2510 0.950 . S
C2536 C2532 1.385 . S
C2536 C2535 1.374 . S
C2537 C2534 1.499 1_554 S
C2537 C2538 1.373 . S
C2537 C2539 1.389 . S
C2538 H2511 0.950 . S
C2538 C2524 1.377 . S
C2538 C2537 1.373 . S
C2539 C2523 1.377 . S
C2539 C2537 1.389 . S
C2539 C2540 1.524 . S
C2540 C2539 1.524 . S
C2540 C2541 1.397 1_554 S
C2540 C2545 1.363 . S
C2541 H2512 0.950 . S
C2541 C2540 1.397 1_556 S
C2541 C2542 1.334 . S
C2542 H2513 0.950 . S
C2542 C2541 1.334 . S
C2542 C2543 1.287 . S
C2543 C2542 1.287 . S
C2543 C2544 1.524 . S
C2543 H2546 0.999 . S
C2544 H2514 0.950 1_556 S
C2544 C2543 1.524 . S
C2544 C2545 1.415 1_556 S
C2545 H2515 0.950 . S
C2545 C2540 1.363 . S
C2545 C2544 1.415 1_554 S
H2546 C2543 0.999 . S
H2547 C2528 0.913 . S
H2548 C2566 0.958 . S
H2549 C2568 0.951 . S
H2550 C2570 0.950 . S
H2551 C2571 0.950 . S
H2552 C2573 0.950 . S
H2553 C2576 0.950 . S
H2554 C2577 0.950 . S
H2555 C2579 0.950 . S
H2556 C2580 0.950 1_545 S
H2557 C2581 0.955 . S
H2558 C2583 0.951 . S
H2559 C2585 0.950 . S
H2560 C2586 0.950 . S
H2561 C2588 0.950 . S
H2562 C2591 0.950 . S
H2563 C2592 0.950 . S
H2564 C2594 0.950 . S
H2565 C2595 0.950 1_565 S
C2566 H2548 0.958 . S
C2566 C2567 1.357 1_545 S
C2566 C2568 1.390 . S
C2567 C2566 1.357 1_565 S
C2567 C2571 1.385 . S
C2568 H2549 0.951 . S
C2568 C2566 1.390 . S
C2568 C2569 1.366 1_545 S
C2569 C2568 1.366 1_565 S
C2569 C2570 1.414 . S
C2569 C2572 1.499 . S
C2570 H2550 0.950 . S
C2570 C2569 1.414 . S
C2570 C2571 1.374 . S
C2571 H2551 0.950 . S
C2571 C2567 1.385 . S
C2571 C2570 1.374 . S
C2572 C2569 1.499 . S
C2572 C2573 1.373 1_565 S
C2572 C2574 1.389 . S
C2573 H2552 0.950 . S
C2573 C2572 1.373 1_545 S
C2573 C2589 1.377 . S
C2574 C2572 1.389 . S
C2574 C2575 1.524 . S
C2574 C2588 1.377 . S
C2575 C2574 1.524 . S
C2575 C2576 1.397 . S
C2575 C2580 1.363 . S
C2576 H2553 0.950 . S
C2576 C2575 1.397 . S
C2576 C2577 1.334 . S
C2577 H2554 0.950 . S
C2577 C2576 1.334 . S
C2577 C2578 1.287 . S
C2578 C2577 1.287 . S
C2578 C2579 1.524 . S
C2578 H2597 0.913 . S
C2579 H2555 0.950 . S
C2579 C2578 1.524 . S
C2579 C2580 1.415 . S
C2580 H2556 0.950 1_565 S
C2580 C2575 1.363 . S
C2580 C2579 1.415 . S
C2581 H2557 0.955 . S
C2581 C2582 1.361 1_565 S
C2581 C2583 1.389 . S
C2582 C2581 1.361 1_545 S
C2582 C2586 1.385 . S
C2583 H2558 0.951 . S
C2583 C2581 1.389 . S
C2583 C2584 1.366 1_565 S
C2584 C2583 1.366 1_545 S
C2584 C2585 1.414 . S
C2584 C2587 1.499 . S
C2585 H2559 0.950 . S
C2585 C2584 1.414 . S
C2585 C2586 1.374 . S
C2586 H2560 0.950 . S
C2586 C2582 1.385 . S
C2586 C2585 1.374 . S
C2587 C2584 1.499 . S
C2587 C2588 1.373 1_545 S
C2587 C2589 1.389 . S
C2588 H2561 0.950 . S
C2588 C2574 1.377 . S
C2588 C2587 1.373 1_565 S
C2589 C2573 1.377 . S
C2589 C2587 1.389 . S
C2589 C2590 1.524 . S
C2590 C2589 1.524 . S
C2590 C2591 1.397 . S
C2590 C2595 1.363 . S
C2591 H2562 0.950 . S
C2591 C2590 1.397 . S
C2591 C2592 1.334 . S
C2592 H2563 0.950 . S
C2592 C2591 1.334 . S
C2592 C2593 1.287 . S
C2593 C2592 1.287 . S
C2593 C2594 1.524 . S
C2593 H2596 0.999 . S
C2594 H2564 0.950 . S
C2594 C2593 1.524 . S
C2594 C2595 1.415 . S
C2595 H2565 0.950 1_545 S
C2595 C2590 1.363 . S
C2595 C2594 1.415 . S
H2596 C2593 0.999 . S
H2597 C2578 0.913 . S
H2598 C2616 0.951 . S
H2599 C2618 0.951 . S
H2600 C2620 0.950 . S
H2601 C2621 0.950 . S
H2602 C2623 0.950 . S
H2603 C2626 0.950 . S
H2604 C2627 0.950 . S
H2605 C2629 0.950 . S
H2606 C2630 0.950 . S
H2607 C2631 0.951 . S
H2608 C2633 0.951 . S
H2609 C2635 0.950 . S
H2610 C2636 0.950 . S
H2611 C2638 0.950 . S
H2612 C2641 0.950 . S
H2613 C2642 0.950 . S
H2614 C2644 0.950 . S
H2615 C2645 0.950 . S
C2616 H2598 0.951 . S
C2616 C2617 1.366 . S
C2616 C2618 1.388 . S
C2617 C2616 1.366 . S
C2617 C2621 1.385 . S
C2618 H2599 0.951 . S
C2618 C2616 1.388 . S
C2618 C2619 1.366 . S
C2619 C2618 1.366 . S
C2619 C2620 1.414 . S
C2619 C2622 1.499 . S
C2620 H2600 0.950 . S
C2620 C2619 1.414 . S
C2620 C2621 1.374 . S
C2621 H2601 0.950 . S
C2621 C2617 1.385 . S
C2621 C2620 1.374 . S
C2622 C2619 1.499 . S
C2622 C2623 1.373 . S
C2622 C2624 1.389 . S
C2623 H2602 0.950 . S
C2623 C2622 1.373 . S
C2623 C2639 1.377 . S
C2624 C2622 1.389 . S
C2624 C2625 1.524 . S
C2624 C2638 1.377 . S
C2625 C2624 1.524 . S
C2625 C2626 1.397 . S
C2625 C2630 1.363 . S
C2626 H2603 0.950 . S
C2626 C2625 1.397 . S
C2626 C2627 1.334 . S
C2627 H2604 0.950 . S
C2627 C2626 1.334 . S
C2627 C2628 1.287 . S
C2628 C2627 1.287 . S
C2628 C2629 1.524 . S
C2628 H2647 0.913 . S
C2629 H2605 0.950 . S
C2629 C2628 1.524 . S
C2629 C2630 1.415 . S
C2630 H2606 0.950 . S
C2630 C2625 1.363 . S
C2630 C2629 1.415 . S
C2631 H2607 0.951 . S
C2631 C2632 1.366 . S
C2631 C2633 1.388 . S
C2632 C2631 1.366 . S
C2632 C2636 1.385 . S
C2633 H2608 0.951 . S
C2633 C2631 1.388 . S
C2633 C2634 1.366 . S
C2634 C2633 1.366 . S
C2634 C2635 1.414 . S
C2634 C2637 1.499 . S
C2635 H2609 0.950 . S
C2635 C2634 1.414 . S
C2635 C2636 1.374 . S
C2636 H2610 0.950 . S
C2636 C2632 1.385 . S
C2636 C2635 1.374 . S
C2637 C2634 1.499 . S
C2637 C2638 1.373 . S
C2637 C2639 1.389 . S
C2638 H2611 0.950 . S
C2638 C2624 1.377 . S
C2638 C2637 1.373 . S
C2639 C2623 1.377 . S
C2639 C2637 1.389 . S
C2639 C2640 1.524 . S
C2640 C2639 1.524 . S
C2640 C2641 1.397 . S
C2640 C2645 1.363 . S
C2641 H2612 0.950 . S
C2641 C2640 1.397 . S
C2641 C2642 1.334 . S
C2642 H2613 0.950 . S
C2642 C2641 1.334 . S
C2642 C2643 1.287 . S
C2643 C2642 1.287 . S
C2643 C2644 1.524 . S
C2643 H2646 0.999 . S
C2644 H2614 0.950 . S
C2644 C2643 1.524 . S
C2644 C2645 1.415 . S
C2645 H2615 0.950 . S
C2645 C2640 1.363 . S
C2645 C2644 1.415 . S
H2646 C2643 0.999 . S
H2647 C2628 0.913 . S
H2648 C2666 0.951 . S
H2649 C2668 0.951 . S
H2650 C2670 0.950 . S
H2651 C2671 0.987 . S
H2652 C2673 0.950 . S
H2653 C2676 0.950 . S
H2654 C2677 0.950 . S
H2655 C2679 0.927 1_565 S
H2656 C2680 0.968 . S
H2657 C2681 0.951 . S
H2658 C2683 0.951 . S
H2659 C2685 0.950 . S
H2660 C2686 0.990 . S
H2661 C2688 0.950 . S
H2662 C2691 0.950 . S
H2663 C2692 0.950 . S
H2664 C2694 0.930 1_545 S
H2665 C2695 0.963 . S
C2666 H2648 0.951 . S
C2666 C2667 1.366 . S
C2666 C2668 1.388 . S
C2667 C2666 1.366 . S
C2667 C2671 1.341 1_565 S
C2668 H2649 0.951 . S
C2668 C2666 1.388 . S
C2668 C2669 1.366 . S
C2669 C2668 1.366 . S
C2669 C2670 1.414 1_565 S
C2669 C2672 1.514 . S
C2670 H2650 0.950 . S
C2670 C2669 1.414 1_545 S
C2670 C2671 1.387 . S
C2671 H2651 0.987 . S
C2671 C2667 1.341 1_545 S
C2671 C2670 1.387 . S
C2672 C2669 1.514 . S
C2672 C2673 1.388 . S
C2672 C2674 1.374 1_565 S
C2673 H2652 0.950 . S
C2673 C2672 1.388 . S
C2673 C2689 1.377 . S
C2674 C2672 1.374 1_545 S
C2674 C2675 1.524 . S
C2674 C2688 1.377 . S
C2675 C2674 1.524 . S
C2675 C2676 1.397 . S
C2675 C2680 1.352 1_545 S
C2676 H2653 0.950 . S
C2676 C2675 1.397 . S
C2676 C2677 1.334 . S
C2677 H2654 0.950 . S
C2677 C2676 1.334 . S
C2677 C2678 1.287 . S
C2678 C2677 1.287 . S
C2678 C2679 1.524 . S
C2678 H2697 0.913 . S
C2679 H2655 0.927 1_545 S
C2679 C2678 1.524 . S
C2679 C2680 1.409 1_545 S
C2680 H2656 0.968 . S
C2680 C2675 1.352 1_565 S
C2680 C2679 1.409 1_565 S
C2681 H2657 0.951 . S
C2681 C2682 1.366 . S
C2681 C2683 1.388 . S
C2682 C2681 1.366 . S
C2682 C2686 1.337 1_545 S
C2683 H2658 0.951 . S
C2683 C2681 1.388 . S
C2683 C2684 1.366 . S
C2684 C2683 1.366 . S
C2684 C2685 1.414 1_545 S
C2684 C2687 1.512 . S
C2685 H2659 0.950 . S
C2685 C2684 1.414 1_565 S
C2685 C2686 1.388 . S
C2686 H2660 0.990 . S
C2686 C2682 1.337 1_565 S
C2686 C2685 1.388 . S
C2687 C2684 1.512 . S
C2687 C2688 1.387 . S
C2687 C2689 1.375 1_545 S
C2688 H2661 0.950 . S
C2688 C2674 1.377 . S
C2688 C2687 1.387 . S
C2689 C2673 1.377 . S
C2689 C2687 1.375 1_565 S
C2689 C2690 1.524 . S
C2690 C2689 1.524 . S
C2690 C2691 1.397 . S
C2690 C2695 1.355 1_565 S
C2691 H2662 0.950 . S
C2691 C2690 1.397 . S
C2691 C2692 1.334 . S
C2692 H2663 0.950 . S
C2692 C2691 1.334 . S
C2692 C2693 1.287 . S
C2693 C2692 1.287 . S
C2693 C2694 1.524 . S
C2693 H2696 0.999 . S
C2694 H2664 0.930 1_565 S
C2694 C2693 1.524 . S
C2694 C2695 1.410 1_565 S
C2695 H2665 0.963 . S
C2695 C2690 1.355 1_545 S
C2695 C2694 1.410 1_545 S
H2696 C2693 0.999 . S
H2697 C2678 0.913 . S
H2698 C2716 0.951 . S
H2699 C2718 0.951 . S
H2700 C2720 0.950 . S
H2701 C2721 0.950 . S
H2702 C2723 0.950 . S
H2703 C2726 0.950 . S
H2704 C2727 0.950 . S
H2705 C2729 0.950 . S
H2706 C2730 0.950 . S
H2707 C2731 0.951 . S
H2708 C2733 0.951 . S
H2709 C2735 0.950 . S
H2710 C2736 0.950 . S
H2711 C2738 0.950 . S
H2712 C2741 0.950 . S
H2713 C2742 0.950 . S
H2714 C2744 0.950 . S
H2715 C2745 0.950 . S
C2716 H2698 0.951 . S
C2716 C2717 1.366 . S
C2716 C2718 1.388 . S
C2717 C2716 1.366 . S
C2717 C2721 1.385 . S
C2718 H2699 0.951 . S
C2718 C2716 1.388 . S
C2718 C2719 1.366 . S
C2719 C2718 1.366 . S
C2719 C2720 1.414 . S
C2719 C2722 1.499 . S
C2720 H2700 0.950 . S
C2720 C2719 1.414 . S
C2720 C2721 1.374 . S
C2721 H2701 0.950 . S
C2721 C2717 1.385 . S
C2721 C2720 1.374 . S
C2722 C2719 1.499 . S
C2722 C2723 1.373 . S
C2722 C2724 1.389 . S
C2723 H2702 0.950 . S
C2723 C2722 1.373 . S
C2723 C2739 1.377 . S
C2724 C2722 1.389 . S
C2724 C2725 1.524 . S
C2724 C2738 1.377 . S
C2725 C2724 1.524 . S
C2725 C2726 1.397 . S
C2725 C2730 1.363 . S
C2726 H2703 0.950 . S
C2726 C2725 1.397 . S
C2726 C2727 1.334 . S
C2727 H2704 0.950 . S
C2727 C2726 1.334 . S
C2727 C2728 1.287 . S
C2728 C2727 1.287 . S
C2728 C2729 1.524 . S
C2728 H2747 0.913 . S
C2729 H2705 0.950 . S
C2729 C2728 1.524 . S
C2729 C2730 1.415 . S
C2730 H2706 0.950 . S
C2730 C2725 1.363 . S
C2730 C2729 1.415 . S
C2731 H2707 0.951 . S
C2731 C2732 1.366 . S
C2731 C2733 1.388 . S
C2732 C2731 1.366 . S
C2732 C2736 1.385 . S
C2733 H2708 0.951 . S
C2733 C2731 1.388 . S
C2733 C2734 1.366 . S
C2734 C2733 1.366 . S
C2734 C2735 1.414 . S
C2734 C2737 1.499 1_556 S
C2735 H2709 0.950 . S
C2735 C2734 1.414 . S
C2735 C2736 1.374 . S
C2736 H2710 0.950 . S
C2736 C2732 1.385 . S
C2736 C2735 1.374 . S
C2737 C2734 1.499 1_554 S
C2737 C2738 1.373 . S
C2737 C2739 1.389 . S
C2738 H2711 0.950 . S
C2738 C2724 1.377 . S
C2738 C2737 1.373 . S
C2739 C2723 1.377 . S
C2739 C2737 1.389 . S
C2739 C2740 1.524 . S
C2740 C2739 1.524 . S
C2740 C2741 1.397 1_554 S
C2740 C2745 1.363 . S
C2741 H2712 0.950 . S
C2741 C2740 1.397 1_556 S
C2741 C2742 1.334 . S
C2742 H2713 0.950 . S
C2742 C2741 1.334 . S
C2742 C2743 1.287 . S
C2743 C2742 1.287 . S
C2743 C2744 1.524 . S
C2743 H2746 0.999 . S
C2744 H2714 0.950 . S
C2744 C2743 1.524 . S
C2744 C2745 1.415 1_556 S
C2745 H2715 0.950 . S
C2745 C2740 1.363 . S
C2745 C2744 1.415 1_554 S
H2746 C2743 0.999 . S
H2747 C2728 0.913 . S
H2748 C2766 0.951 . S
H2749 C2768 0.951 . S
H2750 C2770 0.950 . S
H2751 C2771 0.950 . S
H2752 C2773 0.950 . S
H2753 C2776 0.950 . S
H2754 C2777 0.950 . S
H2755 C2779 0.950 . S
H2756 C2780 0.950 . S
H2757 C2781 0.951 . S
H2758 C2783 0.951 . S
H2759 C2785 0.950 . S
H2760 C2786 0.950 . S
H2761 C2788 0.950 . S
H2762 C2791 0.950 . S
H2763 C2792 0.950 . S
H2764 C2794 0.950 . S
H2765 C2795 0.950 . S
C2766 H2748 0.951 . S
C2766 C2767 1.366 . S
C2766 C2768 1.388 . S
C2767 C2766 1.366 . S
C2767 C2771 1.385 1_565 S
C2768 H2749 0.951 . S
C2768 C2766 1.388 . S
C2768 C2769 1.366 . S
C2769 C2768 1.366 . S
C2769 C2770 1.414 1_565 S
C2769 C2772 1.499 . S
C2770 H2750 0.950 . S
C2770 C2769 1.414 1_545 S
C2770 C2771 1.374 . S
C2771 H2751 0.950 . S
C2771 C2767 1.385 1_545 S
C2771 C2770 1.374 . S
C2772 C2769 1.499 . S
C2772 C2773 1.373 1_565 S
C2772 C2774 1.389 . S
C2773 H2752 0.950 . S
C2773 C2772 1.373 1_545 S
C2773 C2789 1.377 . S
C2774 C2772 1.389 . S
C2774 C2775 1.524 . S
C2774 C2788 1.377 . S
C2775 C2774 1.524 . S
C2775 C2776 1.397 . S
C2775 C2780 1.363 . S
C2776 H2753 0.950 . S
C2776 C2775 1.397 . S
C2776 C2777 1.334 . S
C2777 H2754 0.950 . S
C2777 C2776 1.334 . S
C2777 C2778 1.287 . S
C2778 C2777 1.287 . S
C2778 C2779 1.524 . S
C2778 H2797 0.913 . S
C2779 H2755 0.950 . S
C2779 C2778 1.524 . S
C2779 C2780 1.415 . S
C2780 H2756 0.950 . S
C2780 C2775 1.363 . S
C2780 C2779 1.415 . S
C2781 H2757 0.951 . S
C2781 C2782 1.366 . S
C2781 C2783 1.388 . S
C2782 C2781 1.366 . S
C2782 C2786 1.385 1_545 S
C2783 H2758 0.951 . S
C2783 C2781 1.388 . S
C2783 C2784 1.366 . S
C2784 C2783 1.366 . S
C2784 C2785 1.414 1_545 S
C2784 C2787 1.499 . S
C2785 H2759 0.950 . S
C2785 C2784 1.414 1_565 S
C2785 C2786 1.374 . S
C2786 H2760 0.950 . S
C2786 C2782 1.385 1_565 S
C2786 C2785 1.374 . S
C2787 C2784 1.499 . S
C2787 C2788 1.373 1_545 S
C2787 C2789 1.389 . S
C2788 H2761 0.950 . S
C2788 C2774 1.377 . S
C2788 C2787 1.373 1_565 S
C2789 C2773 1.377 . S
C2789 C2787 1.389 . S
C2789 C2790 1.524 . S
C2790 C2789 1.524 . S
C2790 C2791 1.397 . S
C2790 C2795 1.363 . S
C2791 H2762 0.950 . S
C2791 C2790 1.397 . S
C2791 C2792 1.334 . S
C2792 H2763 0.950 . S
C2792 C2791 1.334 . S
C2792 C2793 1.287 . S
C2793 C2792 1.287 . S
C2793 C2794 1.524 . S
C2793 H2796 0.999 . S
C2794 H2764 0.950 . S
C2794 C2793 1.524 . S
C2794 C2795 1.415 . S
C2795 H2765 0.950 . S
C2795 C2790 1.363 . S
C2795 C2794 1.415 . S
H2796 C2793 0.999 . S
H2797 C2778 0.913 . S
H2798 C2816 0.951 . S
H2799 C2818 0.951 . S
H2800 C2820 0.950 . S
H2801 C2821 0.950 . S
H2802 C2823 0.950 . S
H2803 C2826 0.950 . S
H2804 C2827 0.950 . S
H2805 C2829 0.950 . S
H2806 C2830 0.950 . S
H2807 C2831 0.951 . S
H2808 C2833 0.951 . S
H2809 C2835 0.950 . S
H2810 C2836 0.950 . S
H2811 C2838 0.950 . S
H2812 C2841 0.950 . S
H2813 C2842 0.950 . S
H2814 C2844 0.950 . S
H2815 C2845 0.950 . S
C2816 H2798 0.951 . S
C2816 C2817 1.366 . S
C2816 C2818 1.388 . S
C2817 C2816 1.366 . S
C2817 C2821 1.385 . S
C2818 H2799 0.951 . S
C2818 C2816 1.388 . S
C2818 C2819 1.366 . S
C2819 C2818 1.366 . S
C2819 C2820 1.414 . S
C2819 C2822 1.499 . S
C2820 H2800 0.950 . S
C2820 C2819 1.414 . S
C2820 C2821 1.374 . S
C2821 H2801 0.950 . S
C2821 C2817 1.385 . S
C2821 C2820 1.374 . S
C2822 C2819 1.499 . S
C2822 C2823 1.373 . S
C2822 C2824 1.389 . S
C2823 H2802 0.950 . S
C2823 C2822 1.373 . S
C2823 C2839 1.377 . S
C2824 C2822 1.389 . S
C2824 C2825 1.524 . S
C2824 C2838 1.377 . S
C2825 C2824 1.524 . S
C2825 C2826 1.397 . S
C2825 C2830 1.363 . S
C2826 H2803 0.950 . S
C2826 C2825 1.397 . S
C2826 C2827 1.334 . S
C2827 H2804 0.950 . S
C2827 C2826 1.334 . S
C2827 C2828 1.287 . S
C2828 C2827 1.287 . S
C2828 C2829 1.524 . S
C2828 H2847 0.913 . S
C2829 H2805 0.950 . S
C2829 C2828 1.524 . S
C2829 C2830 1.415 . S
C2830 H2806 0.950 . S
C2830 C2825 1.363 . S
C2830 C2829 1.415 . S
C2831 H2807 0.951 . S
C2831 C2832 1.366 . S
C2831 C2833 1.388 . S
C2832 C2831 1.366 . S
C2832 C2836 1.385 . S
C2833 H2808 0.951 . S
C2833 C2831 1.388 . S
C2833 C2834 1.366 . S
C2834 C2833 1.366 . S
C2834 C2835 1.414 . S
C2834 C2837 1.499 . S
C2835 H2809 0.950 . S
C2835 C2834 1.414 . S
C2835 C2836 1.374 . S
C2836 H2810 0.950 . S
C2836 C2832 1.385 . S
C2836 C2835 1.374 . S
C2837 C2834 1.499 . S
C2837 C2838 1.373 . S
C2837 C2839 1.389 . S
C2838 H2811 0.950 . S
C2838 C2824 1.377 . S
C2838 C2837 1.373 . S
C2839 C2823 1.377 . S
C2839 C2837 1.389 . S
C2839 C2840 1.524 . S
C2840 C2839 1.524 . S
C2840 C2841 1.397 . S
C2840 C2845 1.363 . S
C2841 H2812 0.950 . S
C2841 C2840 1.397 . S
C2841 C2842 1.334 . S
C2842 H2813 0.950 . S
C2842 C2841 1.334 . S
C2842 C2843 1.287 . S
C2843 C2842 1.287 . S
C2843 C2844 1.524 . S
C2843 H2846 0.999 . S
C2844 H2814 0.950 . S
C2844 C2843 1.524 . S
C2844 C2845 1.415 . S
C2845 H2815 0.950 . S
C2845 C2840 1.363 . S
C2845 C2844 1.415 . S
H2846 C2843 0.999 . S
H2847 C2828 0.913 . S
H2848 C2866 0.951 . S
H2849 C2868 0.951 . S
H2850 C2870 0.950 . S
H2851 C2871 0.950 . S
H2852 C2873 0.950 . S
H2853 C2876 0.950 . S
H2854 C2877 0.950 . S
H2855 C2879 0.950 . S
H2856 C2880 0.950 . S
H2857 C2881 0.951 . S
H2858 C2883 0.951 . S
H2859 C2885 0.950 . S
H2860 C2886 0.950 . S
H2861 C2888 0.950 . S
H2862 C2891 0.950 . S
H2863 C2892 0.950 . S
H2864 C2894 0.950 . S
H2865 C2895 0.950 . S
C2866 H2848 0.951 . S
C2866 C2867 1.366 . S
C2866 C2868 1.388 . S
C2867 C2866 1.366 . S
C2867 C2871 1.385 . S
C2868 H2849 0.951 . S
C2868 C2866 1.388 . S
C2868 C2869 1.366 . S
C2869 C2868 1.366 . S
C2869 C2870 1.414 . S
C2869 C2872 1.499 . S
C2870 H2850 0.950 . S
C2870 C2869 1.414 . S
C2870 C2871 1.374 . S
C2871 H2851 0.950 . S
C2871 C2867 1.385 . S
C2871 C2870 1.374 . S
C2872 C2869 1.499 . S
C2872 C2873 1.373 . S
C2872 C2874 1.389 . S
C2873 H2852 0.950 . S
C2873 C2872 1.373 . S
C2873 C2889 1.377 . S
C2874 C2872 1.389 . S
C2874 C2875 1.524 . S
C2874 C2888 1.377 . S
C2875 C2874 1.524 . S
C2875 C2876 1.397 . S
C2875 C2880 1.363 . S
C2876 H2853 0.950 . S
C2876 C2875 1.397 . S
C2876 C2877 1.334 . S
C2877 H2854 0.950 . S
C2877 C2876 1.334 . S
C2877 C2878 1.287 . S
C2878 C2877 1.287 . S
C2878 C2879 1.524 . S
C2878 H2897 0.913 . S
C2879 H2855 0.950 . S
C2879 C2878 1.524 . S
C2879 C2880 1.415 . S
C2880 H2856 0.950 . S
C2880 C2875 1.363 . S
C2880 C2879 1.415 . S
C2881 H2857 0.951 . S
C2881 C2882 1.366 . S
C2881 C2883 1.388 . S
C2882 C2881 1.366 . S
C2882 C2886 1.385 . S
C2883 H2858 0.951 . S
C2883 C2881 1.388 . S
C2883 C2884 1.366 . S
C2884 C2883 1.366 . S
C2884 C2885 1.414 . S
C2884 C2887 1.499 . S
C2885 H2859 0.950 . S
C2885 C2884 1.414 . S
C2885 C2886 1.374 . S
C2886 H2860 0.950 . S
C2886 C2882 1.385 . S
C2886 C2885 1.374 . S
C2887 C2884 1.499 . S
C2887 C2888 1.373 . S
C2887 C2889 1.389 . S
C2888 H2861 0.950 . S
C2888 C2874 1.377 . S
C2888 C2887 1.373 . S
C2889 C2873 1.377 . S
C2889 C2887 1.389 . S
C2889 C2890 1.524 . S
C2890 C2889 1.524 . S
C2890 C2891 1.397 . S
C2890 C2895 1.363 . S
C2891 H2862 0.950 . S
C2891 C2890 1.397 . S
C2891 C2892 1.334 . S
C2892 H2863 0.950 . S
C2892 C2891 1.334 . S
C2892 C2893 1.287 . S
C2893 C2892 1.287 . S
C2893 C2894 1.524 . S
C2893 H2896 0.999 . S
C2894 H2864 0.950 . S
C2894 C2893 1.524 . S
C2894 C2895 1.415 . S
C2895 H2865 0.950 . S
C2895 C2890 1.363 . S
C2895 C2894 1.415 . S
H2896 C2893 0.999 . S
H2897 C2878 0.913 . S
H2898 C2916 0.951 . S
H2899 C2918 0.951 . S
H2900 C2920 0.950 . S
H2901 C2921 0.950 . S
H2902 C2923 0.950 . S
H2903 C2926 0.950 . S
H2904 C2927 0.950 . S
H2905 C2929 0.950 . S
H2906 C2930 0.950 . S
H2907 C2931 0.951 . S
H2908 C2933 0.951 . S
H2909 C2935 0.950 . S
H2910 C2936 0.950 . S
H2911 C2938 0.950 . S
H2912 C2941 0.950 . S
H2913 C2942 0.950 . S
H2914 C2944 0.950 . S
H2915 C2945 0.950 . S
C2916 H2898 0.951 . S
C2916 C2917 1.366 . S
C2916 C2918 1.388 . S
C2917 C2916 1.366 . S
C2917 C2921 1.385 . S
C2918 H2899 0.951 . S
C2918 C2916 1.388 . S
C2918 C2919 1.366 . S
C2919 C2918 1.366 . S
C2919 C2920 1.414 . S
C2919 C2922 1.499 . S
C2920 H2900 0.950 . S
C2920 C2919 1.414 . S
C2920 C2921 1.374 . S
C2921 H2901 0.950 . S
C2921 C2917 1.385 . S
C2921 C2920 1.374 . S
C2922 C2919 1.499 . S
C2922 C2923 1.373 . S
C2922 C2924 1.389 . S
C2923 H2902 0.950 . S
C2923 C2922 1.373 . S
C2923 C2939 1.377 . S
C2924 C2922 1.389 . S
C2924 C2925 1.524 . S
C2924 C2938 1.377 . S
C2925 C2924 1.524 . S
C2925 C2926 1.397 . S
C2925 C2930 1.363 . S
C2926 H2903 0.950 . S
C2926 C2925 1.397 . S
C2926 C2927 1.334 . S
C2927 H2904 0.950 . S
C2927 C2926 1.334 . S
C2927 C2928 1.287 . S
C2928 C2927 1.287 . S
C2928 C2929 1.524 . S
C2928 H2947 0.913 . S
C2929 H2905 0.950 . S
C2929 C2928 1.524 . S
C2929 C2930 1.415 . S
C2930 H2906 0.950 . S
C2930 C2925 1.363 . S
C2930 C2929 1.415 . S
C2931 H2907 0.951 . S
C2931 C2932 1.366 . S
C2931 C2933 1.388 . S
C2932 C2931 1.366 . S
C2932 C2936 1.385 . S
C2933 H2908 0.951 . S
C2933 C2931 1.388 . S
C2933 C2934 1.366 . S
C2934 C2933 1.366 . S
C2934 C2935 1.414 . S
C2934 C2937 1.499 . S
C2935 H2909 0.950 . S
C2935 C2934 1.414 . S
C2935 C2936 1.374 . S
C2936 H2910 0.950 . S
C2936 C2932 1.385 . S
C2936 C2935 1.374 . S
C2937 C2934 1.499 . S
C2937 C2938 1.373 . S
C2937 C2939 1.389 . S
C2938 H2911 0.950 . S
C2938 C2924 1.377 . S
C2938 C2937 1.373 . S
C2939 C2923 1.377 . S
C2939 C2937 1.389 . S
C2939 C2940 1.524 . S
C2940 C2939 1.524 . S
C2940 C2941 1.397 . S
C2940 C2945 1.363 . S
C2941 H2912 0.950 . S
C2941 C2940 1.397 . S
C2941 C2942 1.334 . S
C2942 H2913 0.950 . S
C2942 C2941 1.334 . S
C2942 C2943 1.287 . S
C2943 C2942 1.287 . S
C2943 C2944 1.524 . S
C2943 H2946 0.999 . S
C2944 H2914 0.950 . S
C2944 C2943 1.524 . S
C2944 C2945 1.415 . S
C2945 H2915 0.950 . S
C2945 C2940 1.363 . S
C2945 C2944 1.415 . S
H2946 C2943 0.999 . S
H2947 C2928 0.913 . S
H2948 C2966 0.951 . S
H2949 C2968 0.951 . S
H2950 C2970 0.950 . S
H2951 C2971 0.950 . S
H2952 C2973 0.950 . S
H2953 C2976 0.950 . S
H2954 C2977 0.950 . S
H2955 C2979 0.950 . S
H2956 C2980 0.950 . S
H2957 C2981 0.951 . S
H2958 C2983 0.951 . S
H2959 C2985 0.950 . S
H2960 C2986 0.950 . S
H2961 C2988 0.950 . S
H2962 C2991 0.950 . S
H2963 C2992 0.950 . S
H2964 C2994 0.950 . S
H2965 C2995 0.950 . S
C2966 H2948 0.951 . S
C2966 C2967 1.366 . S
C2966 C2968 1.388 . S
C2967 C2966 1.366 . S
C2967 C2971 1.385 . S
C2968 H2949 0.951 . S
C2968 C2966 1.388 . S
C2968 C2969 1.366 . S
C2969 C2968 1.366 . S
C2969 C2970 1.414 . S
C2969 C2972 1.499 . S
C2970 H2950 0.950 . S
C2970 C2969 1.414 . S
C2970 C2971 1.374 . S
C2971 H2951 0.950 . S
C2971 C2967 1.385 . S
C2971 C2970 1.374 . S
C2972 C2969 1.499 . S
C2972 C2973 1.373 . S
C2972 C2974 1.389 . S
C2973 H2952 0.950 . S
C2973 C2972 1.373 . S
C2973 C2989 1.377 . S
C2974 C2972 1.389 . S
C2974 C2975 1.524 . S
C2974 C2988 1.377 . S
C2975 C2974 1.524 . S
C2975 C2976 1.397 . S
C2975 C2980 1.363 . S
C2976 H2953 0.950 . S
C2976 C2975 1.397 . S
C2976 C2977 1.334 . S
C2977 H2954 0.950 . S
C2977 C2976 1.334 . S
C2977 C2978 1.287 . S
C2978 C2977 1.287 . S
C2978 C2979 1.524 . S
C2978 H2997 0.913 . S
C2979 H2955 0.950 . S
C2979 C2978 1.524 . S
C2979 C2980 1.415 . S
C2980 H2956 0.950 . S
C2980 C2975 1.363 . S
C2980 C2979 1.415 . S
C2981 H2957 0.951 . S
C2981 C2982 1.366 . S
C2981 C2983 1.388 . S
C2982 C2981 1.366 . S
C2982 C2986 1.385 . S
C2983 H2958 0.951 . S
C2983 C2981 1.388 . S
C2983 C2984 1.366 . S
C2984 C2983 1.366 . S
C2984 C2985 1.414 . S
C2984 C2987 1.499 . S
C2985 H2959 0.950 . S
C2985 C2984 1.414 . S
C2985 C2986 1.374 . S
C2986 H2960 0.950 . S
C2986 C2982 1.385 . S
C2986 C2985 1.374 . S
C2987 C2984 1.499 . S
C2987 C2988 1.373 . S
C2987 C2989 1.389 . S
C2988 H2961 0.950 . S
C2988 C2974 1.377 . S
C2988 C2987 1.373 . S
C2989 C2973 1.377 . S
C2989 C2987 1.389 . S
C2989 C2990 1.524 . S
C2990 C2989 1.524 . S
C2990 C2991 1.397 . S
C2990 C2995 1.363 . S
C2991 H2962 0.950 . S
C2991 C2990 1.397 . S
C2991 C2992 1.334 . S
C2992 H2963 0.950 . S
C2992 C2991 1.334 . S
C2992 C2993 1.287 . S
C2993 C2992 1.287 . S
C2993 C2994 1.524 . S
C2993 H2996 0.999 . S
C2994 H2964 0.950 . S
C2994 C2993 1.524 . S
C2994 C2995 1.415 . S
C2995 H2965 0.950 . S
C2995 C2990 1.363 . S
C2995 C2994 1.415 . S
H2996 C2993 0.999 . S
H2997 C2978 0.913 . S
H2998 C3016 0.951 . S
H2999 C3018 0.951 . S
H3000 C3020 0.950 . S
H3001 C3021 0.950 . S
H3002 C3023 0.950 . S
H3003 C3026 0.950 . S
H3004 C3027 0.950 . S
H3005 C3029 0.950 . S
H3006 C3030 0.950 . S
H3007 C3031 0.951 . S
H3008 C3033 0.951 . S
H3009 C3035 0.950 . S
H3010 C3036 0.950 . S
H3011 C3038 0.950 . S
H3012 C3041 0.950 . S
H3013 C3042 0.950 . S
H3014 C3044 0.950 . S
H3015 C3045 0.950 . S
C3016 H2998 0.951 . S
C3016 C3017 1.366 . S
C3016 C3018 1.388 . S
C3017 C3016 1.366 . S
C3017 C3021 1.385 . S
C3018 H2999 0.951 . S
C3018 C3016 1.388 . S
C3018 C3019 1.366 . S
C3019 C3018 1.366 . S
C3019 C3020 1.414 . S
C3019 C3022 1.499 . S
C3020 H3000 0.950 . S
C3020 C3019 1.414 . S
C3020 C3021 1.374 . S
C3021 H3001 0.950 . S
C3021 C3017 1.385 . S
C3021 C3020 1.374 . S
C3022 C3019 1.499 . S
C3022 C3023 1.373 . S
C3022 C3024 1.389 . S
C3023 H3002 0.950 . S
C3023 C3022 1.373 . S
C3023 C3039 1.377 . S
C3024 C3022 1.389 . S
C3024 C3025 1.524 . S
C3024 C3038 1.377 . S
C3025 C3024 1.524 . S
C3025 C3026 1.397 . S
C3025 C3030 1.363 . S
C3026 H3003 0.950 . S
C3026 C3025 1.397 . S
C3026 C3027 1.334 . S
C3027 H3004 0.950 . S
C3027 C3026 1.334 . S
C3027 C3028 1.287 . S
C3028 C3027 1.287 . S
C3028 C3029 1.524 . S
C3028 H3047 0.913 . S
C3029 H3005 0.950 . S
C3029 C3028 1.524 . S
C3029 C3030 1.415 . S
C3030 H3006 0.950 . S
C3030 C3025 1.363 . S
C3030 C3029 1.415 . S
C3031 H3007 0.951 . S
C3031 C3032 1.366 . S
C3031 C3033 1.388 . S
C3032 C3031 1.366 . S
C3032 C3036 1.385 1_554 S
C3033 H3008 0.951 . S
C3033 C3031 1.388 . S
C3033 C3034 1.366 1_554 S
C3034 C3033 1.366 1_556 S
C3034 C3035 1.414 . S
C3034 C3037 1.499 . S
C3035 H3009 0.950 . S
C3035 C3034 1.414 . S
C3035 C3036 1.374 . S
C3036 H3010 0.950 . S
C3036 C3032 1.385 1_556 S
C3036 C3035 1.374 . S
C3037 C3034 1.499 . S
C3037 C3038 1.373 . S
C3037 C3039 1.389 . S
C3038 H3011 0.950 . S
C3038 C3024 1.377 . S
C3038 C3037 1.373 . S
C3039 C3023 1.377 . S
C3039 C3037 1.389 . S
C3039 C3040 1.524 . S
C3040 C3039 1.524 . S
C3040 C3041 1.397 . S
C3040 C3045 1.363 . S
C3041 H3012 0.950 . S
C3041 C3040 1.397 . S
C3041 C3042 1.334 . S
C3042 H3013 0.950 . S
C3042 C3041 1.334 . S
C3042 C3043 1.287 . S
C3043 C3042 1.287 . S
C3043 C3044 1.524 1_556 S
C3043 H3046 0.999 1_556 S
C3044 H3014 0.950 . S
C3044 C3043 1.524 1_554 S
C3044 C3045 1.415 1_554 S
C3045 H3015 0.950 . S
C3045 C3040 1.363 . S
C3045 C3044 1.415 1_556 S
H3046 C3043 0.999 1_554 S
H3047 C3028 0.913 . S
H3048 C3066 0.951 . S
H3049 C3068 0.951 . S
H3050 C3070 0.950 . S
H3051 C3071 0.950 . S
H3052 C3073 0.950 . S
H3053 C3076 0.950 . S
H3054 C3077 0.950 . S
H3055 C3079 0.950 . S
H3056 C3080 0.950 . S
H3057 C3081 0.951 . S
H3058 C3083 0.951 . S
H3059 C3085 0.950 . S
H3060 C3086 0.950 . S
H3061 C3088 0.950 . S
H3062 C3091 0.950 . S
H3063 C3092 0.950 . S
H3064 C3094 0.950 . S
H3065 C3095 0.950 . S
C3066 H3048 0.951 . S
C3066 C3067 1.366 . S
C3066 C3068 1.388 . S
C3067 C3066 1.366 . S
C3067 C3071 1.385 . S
C3068 H3049 0.951 . S
C3068 C3066 1.388 . S
C3068 C3069 1.366 . S
C3069 C3068 1.366 . S
C3069 C3070 1.414 . S
C3069 C3072 1.499 . S
C3070 H3050 0.950 . S
C3070 C3069 1.414 . S
C3070 C3071 1.374 . S
C3071 H3051 0.950 . S
C3071 C3067 1.385 . S
C3071 C3070 1.374 . S
C3072 C3069 1.499 . S
C3072 C3073 1.373 . S
C3072 C3074 1.389 . S
C3073 H3052 0.950 . S
C3073 C3072 1.373 . S
C3073 C3089 1.377 . S
C3074 C3072 1.389 . S
C3074 C3075 1.524 . S
C3074 C3088 1.377 . S
C3075 C3074 1.524 . S
C3075 C3076 1.397 . S
C3075 C3080 1.363 . S
C3076 H3053 0.950 . S
C3076 C3075 1.397 . S
C3076 C3077 1.334 . S
C3077 H3054 0.950 . S
C3077 C3076 1.334 . S
C3077 C3078 1.287 . S
C3078 C3077 1.287 . S
C3078 C3079 1.524 . S
C3078 H3097 0.913 . S
C3079 H3055 0.950 . S
C3079 C3078 1.524 . S
C3079 C3080 1.415 . S
C3080 H3056 0.950 . S
C3080 C3075 1.363 . S
C3080 C3079 1.415 . S
C3081 H3057 0.951 . S
C3081 C3082 1.366 . S
C3081 C3083 1.388 . S
C3082 C3081 1.366 . S
C3082 C3086 1.385 . S
C3083 H3058 0.951 . S
C3083 C3081 1.388 . S
C3083 C3084 1.366 . S
C3084 C3083 1.366 . S
C3084 C3085 1.414 . S
C3084 C3087 1.499 . S
C3085 H3059 0.950 . S
C3085 C3084 1.414 . S
C3085 C3086 1.374 . S
C3086 H3060 0.950 . S
C3086 C3082 1.385 . S
C3086 C3085 1.374 . S
C3087 C3084 1.499 . S
C3087 C3088 1.373 . S
C3087 C3089 1.389 . S
C3088 H3061 0.950 . S
C3088 C3074 1.377 . S
C3088 C3087 1.373 . S
C3089 C3073 1.377 . S
C3089 C3087 1.389 . S
C3089 C3090 1.524 . S
C3090 C3089 1.524 . S
C3090 C3091 1.397 . S
C3090 C3095 1.363 . S
C3091 H3062 0.950 . S
C3091 C3090 1.397 . S
C3091 C3092 1.334 . S
C3092 H3063 0.950 . S
C3092 C3091 1.334 . S
C3092 C3093 1.287 . S
C3093 C3092 1.287 . S
C3093 C3094 1.524 . S
C3093 H3096 0.999 . S
C3094 H3064 0.950 . S
C3094 C3093 1.524 . S
C3094 C3095 1.415 . S
C3095 H3065 0.950 . S
C3095 C3090 1.363 . S
C3095 C3094 1.415 . S
H3096 C3093 0.999 . S
H3097 C3078 0.913 . S
H3098 C3116 0.951 . S
H3099 C3118 0.951 . S
H3100 C3120 0.950 . S
H3101 C3121 0.950 . S
H3102 C3123 0.950 . S
H3103 C3126 0.950 . S
H3104 C3127 0.950 . S
H3105 C3129 0.950 . S
H3106 C3130 0.950 . S
H3107 C3131 0.951 . S
H3108 C3133 0.951 . S
H3109 C3135 0.950 . S
H3110 C3136 0.950 . S
H3111 C3138 0.950 . S
H3112 C3141 0.950 . S
H3113 C3142 0.950 . S
H3114 C3144 0.950 . S
H3115 C3145 0.950 . S
C3116 H3098 0.951 . S
C3116 C3117 1.366 . S
C3116 C3118 1.388 . S
C3117 C3116 1.366 . S
C3117 C3121 1.385 . S
C3118 H3099 0.951 . S
C3118 C3116 1.388 . S
C3118 C3119 1.366 . S
C3119 C3118 1.366 . S
C3119 C3120 1.414 . S
C3119 C3122 1.499 . S
C3120 H3100 0.950 . S
C3120 C3119 1.414 . S
C3120 C3121 1.374 . S
C3121 H3101 0.950 . S
C3121 C3117 1.385 . S
C3121 C3120 1.374 . S
C3122 C3119 1.499 . S
C3122 C3123 1.373 . S
C3122 C3124 1.389 . S
C3123 H3102 0.950 . S
C3123 C3122 1.373 . S
C3123 C3139 1.377 . S
C3124 C3122 1.389 . S
C3124 C3125 1.524 . S
C3124 C3138 1.377 . S
C3125 C3124 1.524 . S
C3125 C3126 1.397 . S
C3125 C3130 1.363 . S
C3126 H3103 0.950 . S
C3126 C3125 1.397 . S
C3126 C3127 1.334 . S
C3127 H3104 0.950 . S
C3127 C3126 1.334 . S
C3127 C3128 1.287 . S
C3128 C3127 1.287 . S
C3128 C3129 1.524 . S
C3128 H3147 0.913 . S
C3129 H3105 0.950 . S
C3129 C3128 1.524 . S
C3129 C3130 1.415 . S
C3130 H3106 0.950 . S
C3130 C3125 1.363 . S
C3130 C3129 1.415 . S
C3131 H3107 0.951 . S
C3131 C3132 1.366 . S
C3131 C3133 1.388 . S
C3132 C3131 1.366 . S
C3132 C3136 1.385 . S
C3133 H3108 0.951 . S
C3133 C3131 1.388 . S
C3133 C3134 1.366 . S
C3134 C3133 1.366 . S
C3134 C3135 1.414 . S
C3134 C3137 1.499 . S
C3135 H3109 0.950 . S
C3135 C3134 1.414 . S
C3135 C3136 1.374 . S
C3136 H3110 0.950 . S
C3136 C3132 1.385 . S
C3136 C3135 1.374 . S
C3137 C3134 1.499 . S
C3137 C3138 1.373 . S
C3137 C3139 1.389 . S
C3138 H3111 0.950 . S
C3138 C3124 1.377 . S
C3138 C3137 1.373 . S
C3139 C3123 1.377 . S
C3139 C3137 1.389 . S
C3139 C3140 1.524 . S
C3140 C3139 1.524 . S
C3140 C3141 1.397 . S
C3140 C3145 1.363 . S
C3141 H3112 0.950 . S
C3141 C3140 1.397 . S
C3141 C3142 1.334 . S
C3142 H3113 0.950 . S
C3142 C3141 1.334 . S
C3142 C3143 1.287 . S
C3143 C3142 1.287 . S
C3143 C3144 1.524 . S
C3143 H3146 0.999 . S
C3144 H3114 0.950 . S
C3144 C3143 1.524 . S
C3144 C3145 1.415 . S
C3145 H3115 0.950 . S
C3145 C3140 1.363 . S
C3145 C3144 1.415 . S
H3146 C3143 0.999 . S
H3147 C3128 0.913 . S
H3148 C3166 0.951 . S
H3149 C3168 0.951 . S
H3150 C3170 0.950 . S
H3151 C3171 0.950 . S
H3152 C3173 0.950 . S
H3153 C3176 0.950 . S
H3154 C3177 0.950 . S
H3155 C3179 0.950 . S
H3156 C3180 0.950 . S
H3157 C3181 0.951 . S
H3158 C3183 0.951 . S
H3159 C3185 0.950 . S
H3160 C3186 0.950 . S
H3161 C3188 0.950 . S
H3162 C3191 0.950 . S
H3163 C3192 0.950 . S
H3164 C3194 0.950 . S
H3165 C3195 0.950 . S
C3166 H3148 0.951 . S
C3166 C3167 1.366 . S
C3166 C3168 1.388 . S
C3167 C3166 1.366 . S
C3167 C3171 1.385 . S
C3168 H3149 0.951 . S
C3168 C3166 1.388 . S
C3168 C3169 1.366 . S
C3169 C3168 1.366 . S
C3169 C3170 1.414 . S
C3169 C3172 1.499 . S
C3170 H3150 0.950 . S
C3170 C3169 1.414 . S
C3170 C3171 1.374 . S
C3171 H3151 0.950 . S
C3171 C3167 1.385 . S
C3171 C3170 1.374 . S
C3172 C3169 1.499 . S
C3172 C3173 1.373 . S
C3172 C3174 1.389 . S
C3173 H3152 0.950 . S
C3173 C3172 1.373 . S
C3173 C3189 1.377 . S
C3174 C3172 1.389 . S
C3174 C3175 1.524 . S
C3174 C3188 1.377 . S
C3175 C3174 1.524 . S
C3175 C3176 1.397 . S
C3175 C3180 1.363 . S
C3176 H3153 0.950 . S
C3176 C3175 1.397 . S
C3176 C3177 1.334 . S
C3177 H3154 0.950 . S
C3177 C3176 1.334 . S
C3177 C3178 1.287 . S
C3178 C3177 1.287 . S
C3178 C3179 1.524 . S
C3178 H3197 0.913 . S
C3179 H3155 0.950 . S
C3179 C3178 1.524 . S
C3179 C3180 1.415 . S
C3180 H3156 0.950 . S
C3180 C3175 1.363 . S
C3180 C3179 1.415 . S
C3181 H3157 0.951 . S
C3181 C3182 1.366 1_556 S
C3181 C3183 1.388 . S
C3182 C3181 1.366 1_554 S
C3182 C3186 1.385 . S
C3183 H3158 0.951 . S
C3183 C3181 1.388 . S
C3183 C3184 1.366 . S
C3184 C3183 1.366 . S
C3184 C3185 1.414 . S
C3184 C3187 1.499 . S
C3185 H3159 0.950 . S
C3185 C3184 1.414 . S
C3185 C3186 1.374 1_556 S
C3186 H3160 0.950 . S
C3186 C3182 1.385 . S
C3186 C3185 1.374 1_554 S
C3187 C3184 1.499 . S
C3187 C3188 1.373 . S
C3187 C3189 1.389 . S
C3188 H3161 0.950 . S
C3188 C3174 1.377 . S
C3188 C3187 1.373 . S
C3189 C3173 1.377 . S
C3189 C3187 1.389 . S
C3189 C3190 1.524 . S
C3190 C3189 1.524 . S
C3190 C3191 1.397 1_556 S
C3190 C3195 1.363 . S
C3191 H3162 0.950 . S
C3191 C3190 1.397 1_554 S
C3191 C3192 1.334 . S
C3192 H3163 0.950 . S
C3192 C3191 1.334 . S
C3192 C3193 1.287 . S
C3193 C3192 1.287 . S
C3193 C3194 1.524 1_554 S
C3193 H3196 0.999 . S
C3194 H3164 0.950 . S
C3194 C3193 1.524 1_556 S
C3194 C3195 1.415 . S
C3195 H3165 0.950 . S
C3195 C3190 1.363 . S
C3195 C3194 1.415 . S
H3196 C3193 0.999 . S
H3197 C3178 0.913 . S
H3198 C3216 0.951 . S
H3199 C3218 0.951 . S
H3200 C3220 0.950 . S
H3201 C3221 0.950 . S
H3202 C3223 0.950 . S
H3203 C3226 0.950 . S
H3204 C3227 0.950 . S
H3205 C3229 0.950 . S
H3206 C3230 0.950 . S
H3207 C3231 0.951 . S
H3208 C3233 0.951 . S
H3209 C3235 0.950 . S
H3210 C3236 0.950 . S
H3211 C3238 0.950 . S
H3212 C3241 0.950 . S
H3213 C3242 0.950 . S
H3214 C3244 0.950 . S
H3215 C3245 0.950 . S
C3216 H3198 0.951 . S
C3216 C3217 1.366 . S
C3216 C3218 1.388 . S
C3217 C3216 1.366 . S
C3217 C3221 1.385 . S
C3218 H3199 0.951 . S
C3218 C3216 1.388 . S
C3218 C3219 1.366 . S
C3219 C3218 1.366 . S
C3219 C3220 1.414 . S
C3219 C3222 1.499 . S
C3220 H3200 0.950 . S
C3220 C3219 1.414 . S
C3220 C3221 1.374 . S
C3221 H3201 0.950 . S
C3221 C3217 1.385 . S
C3221 C3220 1.374 . S
C3222 C3219 1.499 . S
C3222 C3223 1.373 . S
C3222 C3224 1.389 . S
C3223 H3202 0.950 . S
C3223 C3222 1.373 . S
C3223 C3239 1.377 . S
C3224 C3222 1.389 . S
C3224 C3225 1.524 . S
C3224 C3238 1.377 . S
C3225 C3224 1.524 . S
C3225 C3226 1.397 . S
C3225 C3230 1.363 . S
C3226 H3203 0.950 . S
C3226 C3225 1.397 . S
C3226 C3227 1.334 . S
C3227 H3204 0.950 . S
C3227 C3226 1.334 . S
C3227 C3228 1.287 . S
C3228 C3227 1.287 . S
C3228 C3229 1.524 . S
C3228 H3247 0.913 . S
C3229 H3205 0.950 . S
C3229 C3228 1.524 . S
C3229 C3230 1.415 . S
C3230 H3206 0.950 . S
C3230 C3225 1.363 . S
C3230 C3229 1.415 . S
C3231 H3207 0.951 . S
C3231 C3232 1.366 . S
C3231 C3233 1.388 . S
C3232 C3231 1.366 . S
C3232 C3236 1.385 . S
C3233 H3208 0.951 . S
C3233 C3231 1.388 . S
C3233 C3234 1.366 . S
C3234 C3233 1.366 . S
C3234 C3235 1.414 . S
C3234 C3237 1.499 . S
C3235 H3209 0.950 . S
C3235 C3234 1.414 . S
C3235 C3236 1.374 . S
C3236 H3210 0.950 . S
C3236 C3232 1.385 . S
C3236 C3235 1.374 . S
C3237 C3234 1.499 . S
C3237 C3238 1.373 . S
C3237 C3239 1.389 . S
C3238 H3211 0.950 . S
C3238 C3224 1.377 . S
C3238 C3237 1.373 . S
C3239 C3223 1.377 . S
C3239 C3237 1.389 . S
C3239 C3240 1.524 . S
C3240 C3239 1.524 . S
C3240 C3241 1.397 . S
C3240 C3245 1.363 . S
C3241 H3212 0.950 . S
C3241 C3240 1.397 . S
C3241 C3242 1.334 . S
C3242 H3213 0.950 . S
C3242 C3241 1.334 . S
C3242 C3243 1.287 . S
C3243 C3242 1.287 . S
C3243 C3244 1.524 . S
C3243 H3246 0.999 . S
C3244 H3214 0.950 . S
C3244 C3243 1.524 . S
C3244 C3245 1.415 . S
C3245 H3215 0.950 . S
C3245 C3240 1.363 . S
C3245 C3244 1.415 . S
H3246 C3243 0.999 . S
H3247 C3228 0.913 . S
H3248 C3266 0.962 . S
H3249 C3268 0.951 . S
H3250 C3270 0.950 . S
H3251 C3271 0.950 . S
H3252 C3273 0.950 . S
H3253 C3276 0.950 . S
H3254 C3277 0.950 . S
H3255 C3279 0.950 . S
H3256 C3280 0.950 . S
H3257 C3281 0.951 . S
H3258 C3283 0.951 . S
H3259 C3285 0.950 . S
H3260 C3286 0.950 . S
H3261 C3288 0.950 . S
H3262 C3291 0.950 . S
H3263 C3292 0.950 . S
H3264 C3294 0.950 . S
H3265 C3295 0.950 . S
C3266 H3248 0.962 . S
C3266 C3267 1.367 . S
C3266 C3268 1.376 1_554 S
C3267 C3266 1.367 . S
C3267 C3271 1.385 1_554 S
C3268 H3249 0.951 . S
C3268 C3266 1.376 1_556 S
C3268 C3269 1.366 . S
C3269 C3268 1.366 . S
C3269 C3270 1.414 . S
C3269 C3272 1.499 . S
C3270 H3250 0.950 . S
C3270 C3269 1.414 . S
C3270 C3271 1.374 . S
C3271 H3251 0.950 . S
C3271 C3267 1.385 1_556 S
C3271 C3270 1.374 . S
C3272 C3269 1.499 . S
C3272 C3273 1.373 . S
C3272 C3274 1.389 . S
C3273 H3252 0.950 . S
C3273 C3272 1.373 . S
C3273 C3289 1.377 . S
C3274 C3272 1.389 . S
C3274 C3275 1.524 . S
C3274 C3288 1.377 . S
C3275 C3274 1.524 . S
C3275 C3276 1.397 . S
C3275 C3280 1.363 . S
C3276 H3253 0.950 . S
C3276 C3275 1.397 . S
C3276 C3277 1.334 . S
C3277 H3254 0.950 . S
C3277 C3276 1.334 . S
C3277 C3278 1.287 . S
C3278 C3277 1.287 . S
C3278 C3279 1.524 . S
C3278 H3297 0.913 . S
C3279 H3255 0.950 . S
C3279 C3278 1.524 . S
C3279 C3280 1.415 . S
C3280 H3256 0.950 . S
C3280 C3275 1.363 . S
C3280 C3279 1.415 . S
C3281 H3257 0.951 . S
C3281 C3282 1.366 . S
C3281 C3283 1.388 . S
C3282 C3281 1.366 . S
C3282 C3286 1.385 . S
C3283 H3258 0.951 . S
C3283 C3281 1.388 . S
C3283 C3284 1.366 . S
C3284 C3283 1.366 . S
C3284 C3285 1.414 . S
C3284 C3287 1.499 . S
C3285 H3259 0.950 . S
C3285 C3284 1.414 . S
C3285 C3286 1.374 . S
C3286 H3260 0.950 . S
C3286 C3282 1.385 . S
C3286 C3285 1.374 . S
C3287 C3284 1.499 . S
C3287 C3288 1.373 . S
C3287 C3289 1.389 . S
C3288 H3261 0.950 . S
C3288 C3274 1.377 . S
C3288 C3287 1.373 . S
C3289 C3273 1.377 . S
C3289 C3287 1.389 . S
C3289 C3290 1.524 . S
C3290 C3289 1.524 . S
C3290 C3291 1.397 . S
C3290 C3295 1.363 . S
C3291 H3262 0.950 . S
C3291 C3290 1.397 . S
C3291 C3292 1.334 . S
C3292 H3263 0.950 . S
C3292 C3291 1.334 . S
C3292 C3293 1.287 . S
C3293 C3292 1.287 . S
C3293 C3294 1.524 . S
C3293 H3296 0.999 . S
C3294 H3264 0.950 . S
C3294 C3293 1.524 . S
C3294 C3295 1.415 . S
C3295 H3265 0.950 . S
C3295 C3290 1.363 . S
C3295 C3294 1.415 . S
H3296 C3293 0.999 . S
H3297 C3278 0.913 . S
H3298 C3316 0.951 . S
H3299 C3318 0.951 . S
H3300 C3320 0.950 . S
H3301 C3321 0.950 . S
H3302 C3323 0.950 . S
H3303 C3326 0.950 . S
H3304 C3327 0.950 . S
H3305 C3329 0.950 . S
H3306 C3330 0.950 . S
H3307 C3331 0.951 . S
H3308 C3333 0.951 . S
H3309 C3335 0.950 . S
H3310 C3336 0.950 . S
H3311 C3338 0.950 . S
H3312 C3341 0.950 . S
H3313 C3342 0.950 . S
H3314 C3344 0.950 . S
H3315 C3345 0.950 . S
C3316 H3298 0.951 . S
C3316 C3317 1.366 . S
C3316 C3318 1.388 . S
C3317 C3316 1.366 . S
C3317 C3321 1.385 . S
C3318 H3299 0.951 . S
C3318 C3316 1.388 . S
C3318 C3319 1.366 . S
C3319 C3318 1.366 . S
C3319 C3320 1.414 . S
C3319 C3322 1.499 . S
C3320 H3300 0.950 . S
C3320 C3319 1.414 . S
C3320 C3321 1.374 . S
C3321 H3301 0.950 . S
C3321 C3317 1.385 . S
C3321 C3320 1.374 . S
C3322 C3319 1.499 . S
C3322 C3323 1.373 . S
C3322 C3324 1.389 . S
C3323 H3302 0.950 . S
C3323 C3322 1.373 . S
C3323 C3339 1.377 . S
C3324 C3322 1.389 . S
C3324 C3325 1.524 . S
C3324 C3338 1.377 . S
C3325 C3324 1.524 . S
C3325 C3326 1.397 . S
C3325 C3330 1.363 . S
C3326 H3303 0.950 . S
C3326 C3325 1.397 . S
C3326 C3327 1.334 . S
C3327 H3304 0.950 . S
C3327 C3326 1.334 . S
C3327 C3328 1.287 . S
C3328 C3327 1.287 . S
C3328 C3329 1.524 . S
C3328 H3347 0.913 . S
C3329 H3305 0.950 . S
C3329 C3328 1.524 . S
C3329 C3330 1.415 . S
C3330 H3306 0.950 . S
C3330 C3325 1.363 . S
C3330 C3329 1.415 . S
C3331 H3307 0.951 . S
C3331 C3332 1.366 . S
C3331 C3333 1.388 . S
C3332 C3331 1.366 . S
C3332 C3336 1.385 . S
C3333 H3308 0.951 . S
C3333 C3331 1.388 . S
C3333 C3334 1.366 . S
C3334 C3333 1.366 . S
C3334 C3335 1.414 . S
C3334 C3337 1.499 . S
C3335 H3309 0.950 . S
C3335 C3334 1.414 . S
C3335 C3336 1.374 . S
C3336 H3310 0.950 . S
C3336 C3332 1.385 . S
C3336 C3335 1.374 . S
C3337 C3334 1.499 . S
C3337 C3338 1.373 . S
C3337 C3339 1.389 . S
C3338 H3311 0.950 . S
C3338 C3324 1.377 . S
C3338 C3337 1.373 . S
C3339 C3323 1.377 . S
C3339 C3337 1.389 . S
C3339 C3340 1.524 . S
C3340 C3339 1.524 . S
C3340 C3341 1.397 . S
C3340 C3345 1.363 . S
C3341 H3312 0.950 . S
C3341 C3340 1.397 . S
C3341 C3342 1.334 . S
C3342 H3313 0.950 . S
C3342 C3341 1.334 . S
C3342 C3343 1.287 . S
C3343 C3342 1.287 . S
C3343 C3344 1.524 . S
C3343 H3346 0.999 . S
C3344 H3314 0.950 . S
C3344 C3343 1.524 . S
C3344 C3345 1.415 . S
C3345 H3315 0.950 . S
C3345 C3340 1.363 . S
C3345 C3344 1.415 . S
H3346 C3343 0.999 . S
H3347 C3328 0.913 . S
H3348 C3366 0.951 . S
H3349 C3368 0.951 . S
H3350 C3370 0.950 . S
H3351 C3371 0.950 . S
H3352 C3373 0.950 . S
H3353 C3376 0.950 . S
H3354 C3377 0.950 . S
H3355 C3379 0.950 . S
H3356 C3380 0.950 . S
H3357 C3381 0.951 . S
H3358 C3383 0.951 . S
H3359 C3385 0.950 . S
H3360 C3386 0.950 . S
H3361 C3388 0.950 . S
H3362 C3391 0.950 . S
H3363 C3392 0.950 . S
H3364 C3394 0.950 . S
H3365 C3395 0.950 . S
C3366 H3348 0.951 . S
C3366 C3367 1.366 . S
C3366 C3368 1.388 . S
C3367 C3366 1.366 . S
C3367 C3371 1.385 . S
C3368 H3349 0.951 . S
C3368 C3366 1.388 . S
C3368 C3369 1.366 . S
C3369 C3368 1.366 . S
C3369 C3370 1.414 . S
C3369 C3372 1.499 . S
C3370 H3350 0.950 . S
C3370 C3369 1.414 . S
C3370 C3371 1.374 . S
C3371 H3351 0.950 . S
C3371 C3367 1.385 . S
C3371 C3370 1.374 . S
C3372 C3369 1.499 . S
C3372 C3373 1.373 . S
C3372 C3374 1.389 . S
C3373 H3352 0.950 . S
C3373 C3372 1.373 . S
C3373 C3389 1.377 . S
C3374 C3372 1.389 . S
C3374 C3375 1.524 . S
C3374 C3388 1.377 . S
C3375 C3374 1.524 . S
C3375 C3376 1.397 . S
C3375 C3380 1.363 . S
C3376 H3353 0.950 . S
C3376 C3375 1.397 . S
C3376 C3377 1.334 . S
C3377 H3354 0.950 . S
C3377 C3376 1.334 . S
C3377 C3378 1.287 . S
C3378 C3377 1.287 . S
C3378 C3379 1.524 . S
C3378 H3397 0.913 . S
C3379 H3355 0.950 . S
C3379 C3378 1.524 . S
C3379 C3380 1.415 . S
C3380 H3356 0.950 . S
C3380 C3375 1.363 . S
C3380 C3379 1.415 . S
C3381 H3357 0.951 . S
C3381 C3382 1.366 . S
C3381 C3383 1.388 . S
C3382 C3381 1.366 . S
C3382 C3386 1.385 . S
C3383 H3358 0.951 . S
C3383 C3381 1.388 . S
C3383 C3384 1.366 . S
C3384 C3383 1.366 . S
C3384 C3385 1.414 . S
C3384 C3387 1.499 . S
C3385 H3359 0.950 . S
C3385 C3384 1.414 . S
C3385 C3386 1.374 . S
C3386 H3360 0.950 . S
C3386 C3382 1.385 . S
C3386 C3385 1.374 . S
C3387 C3384 1.499 . S
C3387 C3388 1.373 . S
C3387 C3389 1.389 . S
C3388 H3361 0.950 . S
C3388 C3374 1.377 . S
C3388 C3387 1.373 . S
C3389 C3373 1.377 . S
C3389 C3387 1.389 . S
C3389 C3390 1.524 . S
C3390 C3389 1.524 . S
C3390 C3391 1.397 . S
C3390 C3395 1.363 . S
C3391 H3362 0.950 . S
C3391 C3390 1.397 . S
C3391 C3392 1.334 . S
C3392 H3363 0.950 . S
C3392 C3391 1.334 . S
C3392 C3393 1.287 . S
C3393 C3392 1.287 . S
C3393 C3394 1.524 . S
C3393 H3396 0.999 . S
C3394 H3364 0.950 . S
C3394 C3393 1.524 . S
C3394 C3395 1.415 . S
C3395 H3365 0.950 . S
C3395 C3390 1.363 . S
C3395 C3394 1.415 . S
H3396 C3393 0.999 . S
H3397 C3378 0.913 . S
H3398 C3416 0.951 . S
H3399 C3418 0.951 . S
H3400 C3420 0.950 . S
H3401 C3421 0.950 . S
H3402 C3423 0.950 . S
H3403 C3426 0.950 . S
H3404 C3427 0.950 . S
H3405 C3429 0.950 . S
H3406 C3430 0.950 . S
H3407 C3431 0.951 . S
H3408 C3433 0.951 . S
H3409 C3435 0.950 . S
H3410 C3436 0.950 . S
H3411 C3438 0.950 . S
H3412 C3441 0.950 . S
H3413 C3442 0.950 . S
H3414 C3444 0.950 . S
H3415 C3445 0.950 . S
C3416 H3398 0.951 . S
C3416 C3417 1.366 . S
C3416 C3418 1.388 . S
C3417 C3416 1.366 . S
C3417 C3421 1.385 . S
C3418 H3399 0.951 . S
C3418 C3416 1.388 . S
C3418 C3419 1.366 . S
C3419 C3418 1.366 . S
C3419 C3420 1.414 . S
C3419 C3422 1.499 . S
C3420 H3400 0.950 . S
C3420 C3419 1.414 . S
C3420 C3421 1.374 . S
C3421 H3401 0.950 . S
C3421 C3417 1.385 . S
C3421 C3420 1.374 . S
C3422 C3419 1.499 . S
C3422 C3423 1.373 . S
C3422 C3424 1.389 . S
C3423 H3402 0.950 . S
C3423 C3422 1.373 . S
C3423 C3439 1.377 . S
C3424 C3422 1.389 . S
C3424 C3425 1.524 . S
C3424 C3438 1.377 . S
C3425 C3424 1.524 . S
C3425 C3426 1.397 . S
C3425 C3430 1.363 . S
C3426 H3403 0.950 . S
C3426 C3425 1.397 . S
C3426 C3427 1.334 . S
C3427 H3404 0.950 . S
C3427 C3426 1.334 . S
C3427 C3428 1.287 . S
C3428 C3427 1.287 . S
C3428 C3429 1.524 . S
C3428 H3447 0.913 1_554 S
C3429 H3405 0.950 . S
C3429 C3428 1.524 . S
C3429 C3430 1.415 . S
C3430 H3406 0.950 . S
C3430 C3425 1.363 . S
C3430 C3429 1.415 . S
C3431 H3407 0.951 . S
C3431 C3432 1.366 . S
C3431 C3433 1.388 . S
C3432 C3431 1.366 . S
C3432 C3436 1.385 . S
C3433 H3408 0.951 . S
C3433 C3431 1.388 . S
C3433 C3434 1.366 . S
C3434 C3433 1.366 . S
C3434 C3435 1.414 . S
C3434 C3437 1.499 . S
C3435 H3409 0.950 . S
C3435 C3434 1.414 . S
C3435 C3436 1.374 . S
C3436 H3410 0.950 . S
C3436 C3432 1.385 . S
C3436 C3435 1.374 . S
C3437 C3434 1.499 . S
C3437 C3438 1.373 . S
C3437 C3439 1.389 . S
C3438 H3411 0.950 . S
C3438 C3424 1.377 . S
C3438 C3437 1.373 . S
C3439 C3423 1.377 . S
C3439 C3437 1.389 . S
C3439 C3440 1.524 . S
C3440 C3439 1.524 . S
C3440 C3441 1.397 . S
C3440 C3445 1.363 . S
C3441 H3412 0.950 . S
C3441 C3440 1.397 . S
C3441 C3442 1.334 . S
C3442 H3413 0.950 . S
C3442 C3441 1.334 . S
C3442 C3443 1.287 . S
C3443 C3442 1.287 . S
C3443 C3444 1.524 . S
C3443 H3446 0.999 . S
C3444 H3414 0.950 . S
C3444 C3443 1.524 . S
C3444 C3445 1.415 . S
C3445 H3415 0.950 . S
C3445 C3440 1.363 . S
C3445 C3444 1.415 . S
H3446 C3443 0.999 . S
H3447 C3428 0.913 1_556 S
H3448 C3466 0.951 . S
H3449 C3468 0.951 . S
H3450 C3470 0.950 . S
H3451 C3471 0.950 . S
H3452 C3473 0.950 . S
H3453 C3476 0.950 . S
H3454 C3477 0.950 . S
H3455 C3479 0.950 . S
H3456 C3480 0.950 . S
H3457 C3481 0.951 . S
H3458 C3483 0.951 . S
H3459 C3485 0.950 . S
H3460 C3486 0.950 . S
H3461 C3488 0.950 . S
H3462 C3491 0.950 . S
H3463 C3492 0.950 . S
H3464 C3494 0.950 . S
H3465 C3495 0.950 . S
C3466 H3448 0.951 . S
C3466 C3467 1.366 . S
C3466 C3468 1.388 . S
C3467 C3466 1.366 . S
C3467 C3471 1.385 . S
C3468 H3449 0.951 . S
C3468 C3466 1.388 . S
C3468 C3469 1.366 . S
C3469 C3468 1.366 . S
C3469 C3470 1.414 . S
C3469 C3472 1.499 . S
C3470 H3450 0.950 . S
C3470 C3469 1.414 . S
C3470 C3471 1.374 . S
C3471 H3451 0.950 . S
C3471 C3467 1.385 . S
C3471 C3470 1.374 . S
C3472 C3469 1.499 . S
C3472 C3473 1.373 . S
C3472 C3474 1.389 . S
C3473 H3452 0.950 . S
C3473 C3472 1.373 . S
C3473 C3489 1.377 . S
C3474 C3472 1.389 . S
C3474 C3475 1.524 . S
C3474 C3488 1.377 . S
C3475 C3474 1.524 . S
C3475 C3476 1.397 . S
C3475 C3480 1.363 . S
C3476 H3453 0.950 . S
C3476 C3475 1.397 . S
C3476 C3477 1.334 . S
C3477 H3454 0.950 . S
C3477 C3476 1.334 . S
C3477 C3478 1.287 . S
C3478 C3477 1.287 . S
C3478 C3479 1.524 . S
C3478 H3497 0.913 . S
C3479 H3455 0.950 . S
C3479 C3478 1.524 . S
C3479 C3480 1.415 . S
C3480 H3456 0.950 . S
C3480 C3475 1.363 . S
C3480 C3479 1.415 . S
C3481 H3457 0.951 . S
C3481 C3482 1.366 . S
C3481 C3483 1.388 . S
C3482 C3481 1.366 . S
C3482 C3486 1.385 . S
C3483 H3458 0.951 . S
C3483 C3481 1.388 . S
C3483 C3484 1.366 . S
C3484 C3483 1.366 . S
C3484 C3485 1.414 . S
C3484 C3487 1.499 . S
C3485 H3459 0.950 . S
C3485 C3484 1.414 . S
C3485 C3486 1.374 . S
C3486 H3460 0.950 . S
C3486 C3482 1.385 . S
C3486 C3485 1.374 . S
C3487 C3484 1.499 . S
C3487 C3488 1.373 . S
C3487 C3489 1.389 . S
C3488 H3461 0.950 . S
C3488 C3474 1.377 . S
C3488 C3487 1.373 . S
C3489 C3473 1.377 . S
C3489 C3487 1.389 . S
C3489 C3490 1.524 . S
C3490 C3489 1.524 . S
C3490 C3491 1.397 . S
C3490 C3495 1.363 . S
C3491 H3462 0.950 . S
C3491 C3490 1.397 . S
C3491 C3492 1.334 . S
C3492 H3463 0.950 . S
C3492 C3491 1.334 . S
C3492 C3493 1.287 . S
C3493 C3492 1.287 . S
C3493 C3494 1.524 . S
C3493 H3496 0.999 . S
C3494 H3464 0.950 . S
C3494 C3493 1.524 . S
C3494 C3495 1.415 . S
C3495 H3465 0.950 . S
C3495 C3490 1.363 . S
C3495 C3494 1.415 . S
H3496 C3493 0.999 . S
H3497 C3478 0.913 . S
H3498 C3516 0.951 . S
H3499 C3518 0.951 . S
H3500 C3520 0.950 . S
H3501 C3521 0.950 . S
H3502 C3523 0.950 . S
H3503 C3526 0.950 . S
H3504 C3527 0.950 . S
H3505 C3529 0.950 . S
H3506 C3530 0.950 . S
H3507 C3531 0.951 . S
H3508 C3533 0.951 . S
H3509 C3535 0.950 . S
H3510 C3536 0.950 . S
H3511 C3538 0.950 . S
H3512 C3541 0.950 . S
H3513 C3542 0.950 . S
H3514 C3544 0.950 . S
H3515 C3545 0.950 . S
C3516 H3498 0.951 . S
C3516 C3517 1.366 . S
C3516 C3518 1.388 . S
C3517 C3516 1.366 . S
C3517 C3521 1.385 . S
C3518 H3499 0.951 . S
C3518 C3516 1.388 . S
C3518 C3519 1.366 . S
C3519 C3518 1.366 . S
C3519 C3520 1.414 . S
C3519 C3522 1.499 . S
C3520 H3500 0.950 . S
C3520 C3519 1.414 . S
C3520 C3521 1.374 . S
C3521 H3501 0.950 . S
C3521 C3517 1.385 . S
C3521 C3520 1.374 . S
C3522 C3519 1.499 . S
C3522 C3523 1.373 . S
C3522 C3524 1.389 . S
C3523 H3502 0.950 . S
C3523 C3522 1.373 . S
C3523 C3539 1.377 . S
C3524 C3522 1.389 . S
C3524 C3525 1.524 . S
C3524 C3538 1.377 . S
C3525 C3524 1.524 . S
C3525 C3526 1.397 . S
C3525 C3530 1.363 . S
C3526 H3503 0.950 . S
C3526 C3525 1.397 . S
C3526 C3527 1.334 . S
C3527 H3504 0.950 . S
C3527 C3526 1.334 . S
C3527 C3528 1.287 . S
C3528 C3527 1.287 . S
C3528 C3529 1.524 . S
C3528 H3547 0.913 . S
C3529 H3505 0.950 . S
C3529 C3528 1.524 . S
C3529 C3530 1.415 . S
C3530 H3506 0.950 . S
C3530 C3525 1.363 . S
C3530 C3529 1.415 . S
C3531 H3507 0.951 . S
C3531 C3532 1.366 . S
C3531 C3533 1.388 . S
C3532 C3531 1.366 . S
C3532 C3536 1.385 . S
C3533 H3508 0.951 . S
C3533 C3531 1.388 . S
C3533 C3534 1.366 . S
C3534 C3533 1.366 . S
C3534 C3535 1.414 . S
C3534 C3537 1.499 . S
C3535 H3509 0.950 . S
C3535 C3534 1.414 . S
C3535 C3536 1.374 . S
C3536 H3510 0.950 . S
C3536 C3532 1.385 . S
C3536 C3535 1.374 . S
C3537 C3534 1.499 . S
C3537 C3538 1.373 . S
C3537 C3539 1.389 . S
C3538 H3511 0.950 . S
C3538 C3524 1.377 . S
C3538 C3537 1.373 . S
C3539 C3523 1.377 . S
C3539 C3537 1.389 . S
C3539 C3540 1.524 . S
C3540 C3539 1.524 . S
C3540 C3541 1.397 . S
C3540 C3545 1.363 . S
C3541 H3512 0.950 . S
C3541 C3540 1.397 . S
C3541 C3542 1.334 . S
C3542 H3513 0.950 . S
C3542 C3541 1.334 . S
C3542 C3543 1.287 . S
C3543 C3542 1.287 . S
C3543 C3544 1.524 . S
C3543 H3546 0.999 . S
C3544 H3514 0.950 . S
C3544 C3543 1.524 . S
C3544 C3545 1.415 . S
C3545 H3515 0.950 . S
C3545 C3540 1.363 . S
C3545 C3544 1.415 . S
H3546 C3543 0.999 . S
H3547 C3528 0.913 . S
H3548 C3566 0.951 . S
H3549 C3568 0.951 . S
H3550 C3570 0.950 . S
H3551 C3571 0.950 . S
H3552 C3573 0.950 . S
H3553 C3576 0.950 . S
H3554 C3577 0.950 . S
H3555 C3579 0.950 . S
H3556 C3580 0.950 . S
H3557 C3581 0.951 . S
H3558 C3583 0.951 . S
H3559 C3585 0.950 . S
H3560 C3586 0.950 . S
H3561 C3588 0.950 . S
H3562 C3591 0.950 . S
H3563 C3592 0.950 . S
H3564 C3594 0.950 . S
H3565 C3595 0.950 . S
C3566 H3548 0.951 . S
C3566 C3567 1.366 . S
C3566 C3568 1.388 . S
C3567 C3566 1.366 . S
C3567 C3571 1.385 . S
C3568 H3549 0.951 . S
C3568 C3566 1.388 . S
C3568 C3569 1.366 . S
C3569 C3568 1.366 . S
C3569 C3570 1.414 . S
C3569 C3572 1.499 . S
C3570 H3550 0.950 . S
C3570 C3569 1.414 . S
C3570 C3571 1.374 . S
C3571 H3551 0.950 . S
C3571 C3567 1.385 . S
C3571 C3570 1.374 . S
C3572 C3569 1.499 . S
C3572 C3573 1.373 . S
C3572 C3574 1.389 . S
C3573 H3552 0.950 . S
C3573 C3572 1.373 . S
C3573 C3589 1.377 . S
C3574 C3572 1.389 . S
C3574 C3575 1.524 . S
C3574 C3588 1.377 . S
C3575 C3574 1.524 . S
C3575 C3576 1.397 . S
C3575 C3580 1.363 . S
C3576 H3553 0.950 . S
C3576 C3575 1.397 . S
C3576 C3577 1.334 . S
C3577 H3554 0.950 . S
C3577 C3576 1.334 . S
C3577 C3578 1.287 . S
C3578 C3577 1.287 . S
C3578 C3579 1.524 . S
C3578 H3597 0.913 . S
C3579 H3555 0.950 . S
C3579 C3578 1.524 . S
C3579 C3580 1.415 . S
C3580 H3556 0.950 . S
C3580 C3575 1.363 . S
C3580 C3579 1.415 . S
C3581 H3557 0.951 . S
C3581 C3582 1.366 . S
C3581 C3583 1.388 . S
C3582 C3581 1.366 . S
C3582 C3586 1.385 . S
C3583 H3558 0.951 . S
C3583 C3581 1.388 . S
C3583 C3584 1.366 . S
C3584 C3583 1.366 . S
C3584 C3585 1.414 . S
C3584 C3587 1.499 . S
C3585 H3559 0.950 . S
C3585 C3584 1.414 . S
C3585 C3586 1.374 . S
C3586 H3560 0.950 . S
C3586 C3582 1.385 . S
C3586 C3585 1.374 . S
C3587 C3584 1.499 . S
C3587 C3588 1.373 . S
C3587 C3589 1.389 . S
C3588 H3561 0.950 . S
C3588 C3574 1.377 . S
C3588 C3587 1.373 . S
C3589 C3573 1.377 . S
C3589 C3587 1.389 . S
C3589 C3590 1.524 . S
C3590 C3589 1.524 . S
C3590 C3591 1.397 . S
C3590 C3595 1.363 . S
C3591 H3562 0.950 . S
C3591 C3590 1.397 . S
C3591 C3592 1.334 . S
C3592 H3563 0.950 . S
C3592 C3591 1.334 . S
C3592 C3593 1.287 . S
C3593 C3592 1.287 . S
C3593 C3594 1.524 . S
C3593 H3596 0.999 . S
C3594 H3564 0.950 . S
C3594 C3593 1.524 . S
C3594 C3595 1.415 . S
C3595 H3565 0.950 . S
C3595 C3590 1.363 . S
C3595 C3594 1.415 . S
H3596 C3593 0.999 . S
H3597 C3578 0.913 . S
H3598 C3616 0.951 . S
H3599 C3618 0.951 . S
H3600 C3620 0.950 . S
H3601 C3621 0.950 . S
H3602 C3623 0.950 . S
H3603 C3626 0.950 . S
H3604 C3627 0.950 . S
H3605 C3629 0.950 1_554 S
H3606 C3630 0.950 . S
H3607 C3631 0.951 . S
H3608 C3633 0.951 . S
H3609 C3635 0.950 . S
H3610 C3636 0.950 . S
H3611 C3638 0.950 . S
H3612 C3641 0.950 . S
H3613 C3642 0.950 . S
H3614 C3644 0.950 . S
H3615 C3645 0.950 . S
C3616 H3598 0.951 . S
C3616 C3617 1.366 . S
C3616 C3618 1.388 . S
C3617 C3616 1.366 . S
C3617 C3621 1.385 . S
C3618 H3599 0.951 . S
C3618 C3616 1.388 . S
C3618 C3619 1.366 . S
C3619 C3618 1.366 . S
C3619 C3620 1.414 . S
C3619 C3622 1.499 . S
C3620 H3600 0.950 . S
C3620 C3619 1.414 . S
C3620 C3621 1.374 . S
C3621 H3601 0.950 . S
C3621 C3617 1.385 . S
C3621 C3620 1.374 . S
C3622 C3619 1.499 . S
C3622 C3623 1.373 . S
C3622 C3624 1.389 . S
C3623 H3602 0.950 . S
C3623 C3622 1.373 . S
C3623 C3639 1.377 . S
C3624 C3622 1.389 . S
C3624 C3625 1.524 . S
C3624 C3638 1.377 . S
C3625 C3624 1.524 . S
C3625 C3626 1.397 . S
C3625 C3630 1.363 . S
C3626 H3603 0.950 . S
C3626 C3625 1.397 . S
C3626 C3627 1.334 . S
C3627 H3604 0.950 . S
C3627 C3626 1.334 . S
C3627 C3628 1.287 . S
C3628 C3627 1.287 . S
C3628 C3629 1.524 . S
C3628 H3647 0.913 . S
C3629 H3605 0.950 1_556 S
C3629 C3628 1.524 . S
C3629 C3630 1.415 . S
C3630 H3606 0.950 . S
C3630 C3625 1.363 . S
C3630 C3629 1.415 . S
C3631 H3607 0.951 . S
C3631 C3632 1.366 1_556 S
C3631 C3633 1.388 . S
C3632 C3631 1.366 1_554 S
C3632 C3636 1.385 . S
C3633 H3608 0.951 . S
C3633 C3631 1.388 . S
C3633 C3634 1.366 . S
C3634 C3633 1.366 . S
C3634 C3635 1.414 1_556 S
C3634 C3637 1.499 . S
C3635 H3609 0.950 . S
C3635 C3634 1.414 1_554 S
C3635 C3636 1.374 . S
C3636 H3610 0.950 . S
C3636 C3632 1.385 . S
C3636 C3635 1.374 . S
C3637 C3634 1.499 . S
C3637 C3638 1.373 . S
C3637 C3639 1.389 . S
C3638 H3611 0.950 . S
C3638 C3624 1.377 . S
C3638 C3637 1.373 . S
C3639 C3623 1.377 . S
C3639 C3637 1.389 . S
C3639 C3640 1.524 . S
C3640 C3639 1.524 . S
C3640 C3641 1.397 . S
C3640 C3645 1.363 . S
C3641 H3612 0.950 . S
C3641 C3640 1.397 . S
C3641 C3642 1.334 . S
C3642 H3613 0.950 . S
C3642 C3641 1.334 . S
C3642 C3643 1.287 . S
C3643 C3642 1.287 . S
C3643 C3644 1.524 . S
C3643 H3646 0.999 . S
C3644 H3614 0.950 . S
C3644 C3643 1.524 . S
C3644 C3645 1.415 . S
C3645 H3615 0.950 . S
C3645 C3640 1.363 . S
C3645 C3644 1.415 . S
H3646 C3643 0.999 . S
H3647 C3628 0.913 . S
C467 C117 1.357 . S
C482 C5 1.357 . S
C517 C19 1.357 . S
C532 C355 1.357 . S
C567 C33 1.357 . S
C582 C145 1.357 . S
C617 C47 1.357 . S
C632 C383 1.357 . S
C667 C61 1.357 . S
C682 C173 1.357 . S
C717 C411 1.357 . S
C732 C75 1.357 . S
C767 C201 1.358 . S
C782 C89 1.358 . S
C817 C439 1.357 . S
C832 C103 1.357 . S
C867 C243 1.357 . S
C882 C131 1.357 . S
C917 C159 1.357 . S
C932 C271 1.357 . S
C967 C187 1.357 . S
C982 C299 1.357 . S
C1017 C327 1.357 . S
C1032 C215 1.357 . S
C1067 C341 1.357 . S
C1082 C229 1.357 . S
C1117 C257 1.357 . S
C1132 C369 1.357 . S
C1167 C285 1.357 . S
C1182 C397 1.357 . S
C1217 C425 1.357 . S
C1232 C313 1.357 . S
C1267 C0 1.234 . S
C1282 C56 1.235 . S
C1317 C70 1.234 . S
C1332 C14 1.235 . S
C1367 C84 1.235 . S
C1382 C28 1.235 . S
C1417 C42 1.235 . S
C1432 C98 1.235 . S
C1467 C112 1.235 . S
C1482 C168 1.235 . S
C1517 C126 1.235 . S
C1532 C182 1.234 . S
C1567 C196 1.235 . S
C1582 C140 1.234 . S
C1617 C210 1.234 . S
C1632 C154 1.235 . S
C1667 C280 1.234 . S
C1682 C224 1.235 . S
C1717 C294 1.235 . S
C1732 C238 1.234 . S
C1767 C252 1.235 . S
C1782 C308 1.235 . S
C1817 C322 1.234 . S
C1832 C266 1.235 . S
C1867 C392 1.235 . S
C1882 C336 1.235 . S
C1917 C350 1.234 . S
C1932 C406 1.235 . S
C1967 C420 1.235 . S
C1982 C364 1.234 . S
C2017 C434 1.234 . S
C2032 C378 1.235 . S
C2067 C65 0.393 . S
C2082 C9 0.393 . S
C2117 C79 0.390 . S
C2132 C23 0.390 . S
C2167 C37 0.390 . S
C2182 C93 0.391 . S
C2217 C107 0.393 . S
C2232 C51 0.393 . S
C2267 C177 0.390 . S
C2282 C121 0.390 . S
C2317 C135 0.390 . S
C2332 C191 0.391 . S
C2367 C205 0.393 . S
C2382 C149 0.393 . S
C2417 C219 0.393 . S
C2432 C163 0.393 . S
C2467 C233 0.392 . S
C2482 C289 0.391 . S
C2517 C303 0.390 . S
C2532 C247 0.389 . S
C2567 C317 0.392 . S
C2582 C261 0.393 . S
C2617 C331 0.389 . S
C2632 C275 0.390 . S
C2667 C401 0.390 . S
C2682 C345 0.390 . S
C2717 C359 0.389 . S
C2732 C415 0.389 . S
C2767 C373 0.393 . S
C2782 C429 0.393 . S
C2817 C387 0.394 . S
C2832 C443 0.393 . S
C2867 C11 1.413 . S
C2882 C305 1.413 . S
C2917 C319 1.412 . S
C2932 C25 1.412 . S
C2967 C39 1.413 . S
C2982 C333 1.413 . S
C3017 C53 1.413 . S
C3032 C291 1.413 . S
C3067 C277 1.412 . S
C3082 C67 1.412 . S
C3117 C235 1.412 . S
C3132 C81 1.412 . S
C3167 C249 1.413 . S
C3182 C95 1.412 . S
C3217 C109 1.413 . S
C3232 C263 1.413 . S
C3267 C123 1.413 . S
C3282 C417 1.413 . S
C3317 C431 1.412 . S
C3332 C137 1.412 . S
C3367 C445 1.413 . S
C3382 C151 1.413 . S
C3417 C403 1.412 . S
C3432 C165 1.412 . S
C3467 C389 1.413 . S
C3482 C179 1.413 . S
C3517 C347 1.412 . S
C3532 C193 1.412 . S
C3567 C207 1.413 . S
C3582 C361 1.413 . S
C3617 C221 1.413 . S
C3632 C375 1.413 . S
