# Generated by pormake.
# Topology unj, (4)-cn, num edge types: 1
# Building blocks:
#     Node 0, Type 0, BuildingBlock: NAHDIM_clean_sbu_0, # of connection points: 4
#     Node 1, Type 0, BuildingBlock: NAHDIM_clean_sbu_0, # of connection points: 4
#     Node 2, Type 0, BuildingBlock: NAHDIM_clean_sbu_0, # of connection points: 4
#     Node 3, Type 0, BuildingBlock: NAHDIM_clean_sbu_0, # of connection points: 4
#     Node 4, Type 0, BuildingBlock: NAHDIM_clean_sbu_0, # of connection points: 4
#     Node 5, Type 0, BuildingBlock: NAHDIM_clean_sbu_0, # of connection points: 4
#     Edge 6, Type (0, 0), BuildingBlock: MIFKUJ_clean_linker_0, # of connection points: 2
#     Edge 7, Type (0, 0), BuildingBlock: MIFKUJ_clean_linker_0, # of connection points: 2
#     Edge 8, Type (0, 0), BuildingBlock: MIFKUJ_clean_linker_0, # of connection points: 2
#     Edge 9, Type (0, 0), BuildingBlock: MIFKUJ_clean_linker_0, # of connection points: 2
#     Edge 10, Type (0, 0), BuildingBlock: MIFKUJ_clean_linker_0, # of connection points: 2
#     Edge 11, Type (0, 0), BuildingBlock: MIFKUJ_clean_linker_0, # of connection points: 2
#     Edge 12, Type (0, 0), BuildingBlock: MIFKUJ_clean_linker_0, # of connection points: 2
#     Edge 13, Type (0, 0), BuildingBlock: MIFKUJ_clean_linker_0, # of connection points: 2
#     Edge 14, Type (0, 0), BuildingBlock: MIFKUJ_clean_linker_0, # of connection points: 2
#     Edge 15, Type (0, 0), BuildingBlock: MIFKUJ_clean_linker_0, # of connection points: 2
#     Edge 16, Type (0, 0), BuildingBlock: MIFKUJ_clean_linker_0, # of connection points: 2
#     Edge 17, Type (0, 0), BuildingBlock: MIFKUJ_clean_linker_0, # of connection points: 2
# Relax obj value: 0.006
# Max RMSD: 0.036
# Mean RMSD: 0.036
data_MOF--net-unj--node1-NAHDIM_clean_sbu_0--edge1-MIFKUJ_clean_linker_0
_symmetry_space_group_name_H-M    P1
_symmetry_Int_Tables_number       1
_symmetry_cell_setting            triclinic
loop_
_symmetry_equiv_pos_as_xyz
'x, y, z'
_cell_length_a     44.746648
_cell_length_b     44.778825
_cell_length_c     44.618387
_cell_angle_alpha  89.973375
_cell_angle_beta   90.012439
_cell_angle_gamma 119.96288
loop_
_atom_site_label
_atom_site_type_symbol
_atom_site_fract_x
_atom_site_fract_y
_atom_site_fract_z
_atom_type_partial_charge
C0 C 0.44251 0.27972 0.62953 0.0
O1 O 0.47341 0.29215 0.64125 0.0
O2 O 0.49422 0.27018 0.56204 0.0
Zn3 Zn 0.46512 0.24019 0.59614 0.0
O4 O 0.49479 0.24273 0.63116 0.0
C5 C 0.42564 0.18272 0.55617 0.0
O6 O 0.43018 0.20708 0.53718 0.0
O7 O 0.43281 0.25668 0.60937 0.0
C8 C 0.50634 0.22208 0.63404 0.0
O9 O 0.49946 0.19871 0.61329 0.0
C10 C 0.52334 0.27358 0.55524 0.0
O11 O 0.53553 0.25733 0.57111 0.0
O12 O 0.43789 0.19097 0.58248 0.0
C13 C 0.15644 0.43412 0.76537 0.0
O14 O 0.16052 0.44521 0.73759 0.0
O15 O 0.22848 0.50457 0.73283 0.0
Zn16 Zn 0.23084 0.47622 0.76699 0.0
O17 O 0.25829 0.50619 0.80166 0.0
C18 C 0.24275 0.43096 0.72909 0.0
O19 O 0.21664 0.42899 0.71395 0.0
O20 O 0.18285 0.4436 0.78184 0.0
C21 C 0.29079 0.51909 0.80343 0.0
O22 O 0.30726 0.51365 0.78165 0.0
C23 C 0.25319 0.53401 0.72536 0.0
O24 O 0.28206 0.54765 0.74073 0.0
O25 O 0.25301 0.4494 0.75259 0.0
C26 C 0.70802 0.16489 0.94786 0.0
O27 O 0.68697 0.17621 0.94056 0.0
O28 O 0.72506 0.22742 0.89271 0.0
Zn29 Zn 0.75667 0.23168 0.92679 0.0
O30 O 0.75522 0.26222 0.95913 0.0
C31 C 0.81366 0.26638 0.88576 0.0
O32 O 0.79038 0.26907 0.86992 0.0
O33 O 0.74025 0.18452 0.94408 0.0
C34 C 0.78005 0.27829 0.97734 0.0
O35 O 0.80763 0.27518 0.97485 0.0
C36 C 0.70586 0.24084 0.8932 0.0
O37 O 0.70577 0.25797 0.91706 0.0
O38 O 0.80528 0.25142 0.91111 0.0
C39 C 0.56321 0.72597 0.13493 0.0
O40 O 0.53574 0.71922 0.15068 0.0
O41 O 0.50934 0.73009 0.0628 0.0
Zn42 Zn 0.53787 0.76053 0.09685 0.0
O43 O 0.50684 0.75813 0.13093 0.0
C44 C 0.55098 0.81973 0.06298 0.0
O45 O 0.51859 0.79895 0.05565 0.0
O46 O 0.56971 0.74369 0.11107 0.0
C47 C 0.50046 0.78188 0.13802 0.0
O48 O 0.5147 0.81074 0.12265 0.0
C49 C 0.47733 0.70836 0.06493 0.0
O50 O 0.46158 0.70466 0.09065 0.0
O51 O 0.5656 0.80909 0.08107 0.0
C52 C 0.84765 0.57147 0.26555 0.0
O53 O 0.84303 0.56675 0.23649 0.0
O54 O 0.7773 0.49666 0.23303 0.0
Zn55 Zn 0.7742 0.52461 0.26689 0.0
O56 O 0.74547 0.49265 0.3001 0.0
C57 C 0.75865 0.56645 0.22699 0.0
O58 O 0.78038 0.56382 0.2089 0.0
O59 O 0.82179 0.55631 0.28291 0.0
C60 C 0.71397 0.48389 0.30382 0.0
O61 O 0.69944 0.49567 0.28529 0.0
C62 C 0.75152 0.47828 0.21635 0.0
O63 O 0.72224 0.47758 0.22137 0.0
O64 O 0.7526 0.55219 0.25262 0.0
C65 C 0.27089 0.82744 0.46787 0.0
O66 O 0.26777 0.80457 0.48792 0.0
O67 O 0.27722 0.77087 0.39382 0.0
Zn68 Zn 0.24623 0.76938 0.42713 0.0
O69 O 0.2481 0.74101 0.46148 0.0
C70 C 0.19207 0.75215 0.38414 0.0
O71 O 0.21839 0.76951 0.36609 0.0
O72 O 0.26289 0.81814 0.44076 0.0
C73 C 0.2238 0.71079 0.4675 0.0
O74 O 0.19614 0.6967 0.4505 0.0
C75 C 0.28172 0.74569 0.38764 0.0
O76 O 0.26601 0.71743 0.4038 0.0
O77 O 0.19767 0.74888 0.41155 0.0
H78 H 0.39723 0.15588 0.50143 0.0
H79 H 0.36917 0.09548 0.48583 0.0
H80 H 0.38496 0.0665 0.57412 0.0
H81 H 0.41339 0.12674 0.58979 0.0
H82 H 0.40342 0.03677 0.53145 0.0
H83 H 0.30557 0.05063 0.55174 0.0
H84 H 0.2694 0.07765 0.54711 0.0
H85 H 0.25766 0.05576 0.45279 0.0
H86 H 0.29417 0.02902 0.45678 0.0
H87 H 0.29421 0.85643 0.52295 0.0
H88 H 0.31901 0.91696 0.5369 0.0
H89 H 0.30411 0.94162 0.44666 0.0
H90 H 0.27897 0.88098 0.4325 0.0
H91 H 0.28538 0.97389 0.48863 0.0
H92 H 0.38258 0.95945 0.46846 0.0
H93 H 0.41869 0.93237 0.47304 0.0
H94 H 0.43176 0.95556 0.56712 0.0
H95 H 0.3953 0.98236 0.56318 0.0
C96 C 0.39459 0.13664 0.51757 0.0
C97 C 0.40753 0.14613 0.54685 0.0
C98 C 0.37843 0.10211 0.50865 0.0
C99 C 0.37475 0.07647 0.5289 0.0
C100 C 0.38754 0.08588 0.55815 0.0
C101 C 0.40369 0.12034 0.56707 0.0
C102 C 0.35843 0.03991 0.51946 0.0
C103 C 0.37743 0.02289 0.52246 0.0
C104 C 0.32489 0.02212 0.50696 0.0
C105 C 0.3029 0.03815 0.50451 0.0
C106 C 0.29552 0.05184 0.52997 0.0
C107 C 0.27491 0.06705 0.52747 0.0
C108 C 0.26132 0.06851 0.49966 0.0
C109 C 0.26825 0.05467 0.4743 0.0
C110 C 0.28887 0.03946 0.47668 0.0
C111 C 0.29607 0.87466 0.50606 0.0
C112 C 0.28478 0.8639 0.47657 0.0
C113 C 0.31037 0.90927 0.51406 0.0
C114 C 0.31376 0.93381 0.49271 0.0
C115 C 0.30178 0.92307 0.46344 0.0
C116 C 0.28753 0.88844 0.45539 0.0
C117 C 0.33026 0.97074 0.50093 0.0
C118 C 0.31136 0.98782 0.49761 0.0
C119 C 0.36392 0.98864 0.51314 0.0
C120 C 0.38592 0.97261 0.51557 0.0
C121 C 0.39292 0.95852 0.49017 0.0
C122 C 0.41349 0.94326 0.49264 0.0
C123 C 0.42743 0.94216 0.52037 0.0
C124 C 0.4209 0.95639 0.54567 0.0
C125 C 0.4003 0.97164 0.54332 0.0
H126 H 0.44337 0.93035 0.52223 0.0
H127 H 0.24536 0.08029 0.49777 0.0
H128 H 0.38057 0.26585 0.60544 0.0
H129 H 0.34335 0.28831 0.62185 0.0
H130 H 0.41517 0.34506 0.69263 0.0
H131 H 0.45249 0.32278 0.67645 0.0
H132 H 0.34736 0.31071 0.71192 0.0
H133 H 0.41444 0.38622 0.63114 0.0
H134 H 0.43732 0.39988 0.57962 0.0
H135 H 0.33425 0.354 0.54479 0.0
H136 H 0.31074 0.33962 0.59613 0.0
H137 H 0.29959 0.43281 0.75357 0.0
H138 H 0.32965 0.40332 0.73598 0.0
H139 H 0.25636 0.3576 0.6638 0.0
H140 H 0.22637 0.38759 0.68097 0.0
H141 H 0.32069 0.38205 0.64394 0.0
H142 H 0.25326 0.3096 0.72445 0.0
H143 H 0.22984 0.29544 0.77577 0.0
H144 H 0.33196 0.33403 0.81091 0.0
H145 H 0.35607 0.34889 0.75982 0.0
C146 C 0.38841 0.28305 0.62454 0.0
C147 C 0.41955 0.29265 0.63958 0.0
C148 C 0.36716 0.29592 0.63382 0.0
C149 C 0.37666 0.3185 0.65832 0.0
C150 C 0.40741 0.32764 0.67367 0.0
C151 C 0.42875 0.315 0.6643 0.0
C152 C 0.35481 0.33298 0.66787 0.0
C153 C 0.34175 0.32657 0.69719 0.0
C154 C 0.34673 0.3528 0.6483 0.0
C155 C 0.36083 0.3615 0.61744 0.0
C156 C 0.39665 0.37877 0.61248 0.0
C157 C 0.40973 0.3867 0.58331 0.0
C158 C 0.38725 0.37772 0.55894 0.0
C159 C 0.35164 0.36088 0.56369 0.0
C160 C 0.33842 0.35285 0.59281 0.0
C161 C 0.28973 0.41639 0.73402 0.0
C162 C 0.2605 0.41247 0.71872 0.0
C163 C 0.30687 0.39941 0.72407 0.0
C164 C 0.29497 0.37787 0.69882 0.0
C165 C 0.26591 0.37402 0.68339 0.0
C166 C 0.24877 0.39111 0.69328 0.0
C167 C 0.31351 0.36016 0.68818 0.0
C168 C 0.32597 0.36593 0.65865 0.0
C169 C 0.3209 0.33961 0.70753 0.0
C170 C 0.3065 0.33062 0.73831 0.0
C171 C 0.27076 0.31532 0.74314 0.0
C172 C 0.25735 0.30712 0.77218 0.0
C173 C 0.27941 0.3139 0.79659 0.0
C174 C 0.31491 0.32882 0.79199 0.0
C175 C 0.32846 0.3371 0.76298 0.0
H176 H 0.26898 0.30754 0.81906 0.0
H177 H 0.39743 0.38388 0.53637 0.0
H178 H 0.87014 0.27192 0.9149 0.0
H179 H 0.92895 0.29651 0.89543 0.0
H180 H 0.89619 0.3176 0.81101 0.0
H181 H 0.83744 0.29304 0.83017 0.0
H182 H 0.93786 0.28894 0.80387 0.0
H183 H 0.93783 0.38114 0.86001 0.0
H184 H 0.92893 0.40784 0.90492 0.0
H185 H 0.00244 0.39157 0.95351 0.0
H186 H 0.01142 0.36432 0.90897 0.0
H187 H 0.09467 0.41369 0.73777 0.0
H188 H 0.03707 0.38078 0.75943 0.0
H189 H 0.08116 0.37224 0.84277 0.0
H190 H 0.139 0.40575 0.82144 0.0
H191 H 0.03454 0.39098 0.8528 0.0
H192 H 0.03809 0.30259 0.7961 0.0
H193 H 0.04717 0.27552 0.75156 0.0
H194 H 0.96761 0.2834 0.70464 0.0
H195 H 0.95836 0.31098 0.74876 0.0
C196 C 0.87544 0.28171 0.89216 0.0
C197 C 0.84916 0.28067 0.87411 0.0
C198 C 0.90905 0.29581 0.88112 0.0
C199 C 0.91691 0.30905 0.85186 0.0
C200 C 0.89062 0.30748 0.83365 0.0
C201 C 0.8571 0.29358 0.8447 0.0
C202 C 0.95264 0.32517 0.84026 0.0
C203 C 0.959 0.31143 0.81438 0.0
C204 C 0.98029 0.35388 0.85453 0.0
C205 C 0.97499 0.37034 0.88128 0.0
C206 C 0.95187 0.38299 0.88035 0.0
C207 C 0.94686 0.39827 0.90572 0.0
C208 C 0.96503 0.4013 0.93208 0.0
C209 C 0.98833 0.38914 0.9331 0.0
C210 C 0.99341 0.3738 0.90779 0.0
C211 C 0.09215 0.4046 0.76063 0.0
C212 C 0.12144 0.41239 0.77788 0.0
C213 C 0.05915 0.38563 0.77294 0.0
C214 C 0.05477 0.37374 0.80264 0.0
C215 C 0.08395 0.38113 0.81981 0.0
C216 C 0.11698 0.40023 0.80755 0.0
C217 C 0.01983 0.35501 0.81613 0.0
C218 C 0.01356 0.36827 0.84239 0.0
C219 C 0.9923 0.32576 0.80227 0.0
C220 C 0.99774 0.30913 0.77567 0.0
C221 C 0.02271 0.2988 0.7762 0.0
C222 C 0.02786 0.28332 0.75104 0.0
C223 C 0.00803 0.27781 0.72526 0.0
C224 C 0.98296 0.28771 0.72462 0.0
C225 C 0.97773 0.30323 0.74971 0.0
H226 H 0.01205 0.26582 0.70581 0.0
H227 H 0.96111 0.41315 0.9517 0.0
H228 H 0.5241 0.85299 0.03149 0.0
H229 H 0.55443 0.91158 0.01182 0.0
H230 H 0.6504 0.92546 0.04699 0.0
H231 H 0.61992 0.86693 0.06758 0.0
H232 H 0.64576 0.98085 0.05753 0.0
H233 H 0.63136 0.9122 0.97132 0.0
H234 H 0.60019 0.86521 0.93494 0.0
H235 H 0.53579 0.90739 0.9111 0.0
H236 H 0.56626 0.9544 0.94766 0.0
H237 H 0.74406 0.13592 0.97177 0.0
H238 H 0.72063 0.07728 0.99132 0.0
H239 H 0.61759 0.05562 0.97044 0.0
H240 H 0.64066 0.11404 0.95096 0.0
H241 H 0.63093 0.00426 0.95146 0.0
H242 H 0.64468 0.0713 0.04071 0.0
H243 H 0.67752 0.11843 0.0766 0.0
H244 H 0.746 0.07913 0.09347 0.0
H245 H 0.71382 0.03201 0.05735 0.0
C246 C 0.55168 0.86842 0.03501 0.0
C247 C 0.56964 0.85525 0.05097 0.0
C248 C 0.56903 0.9019 0.02361 0.0
C249 C 0.60481 0.92274 0.02744 0.0
C250 C 0.6228 0.9098 0.04366 0.0
C251 C 0.60537 0.87634 0.05534 0.0
C252 C 0.62315 0.95817 0.01489 0.0
C253 C 0.64301 0.9859 0.0342 0.0
C254 C 0.61928 0.96486 0.98453 0.0
C255 C 0.60094 0.93668 0.96242 0.0
C256 C 0.61039 0.91133 0.95848 0.0
C257 C 0.59287 0.88471 0.9378 0.0
C258 C 0.56598 0.88328 0.92077 0.0
C259 C 0.55661 0.90852 0.92433 0.0
C260 C 0.57402 0.93518 0.945 0.0
C261 C 0.71641 0.11867 0.97137 0.0
C262 C 0.69419 0.12963 0.95986 0.0
C263 C 0.70309 0.08524 0.98261 0.0
C264 C 0.66739 0.06223 0.98242 0.0
C265 C 0.64522 0.07302 0.97075 0.0
C266 C 0.65846 0.10645 0.95973 0.0
C267 C 0.65291 0.02676 0.99421 0.0
C268 C 0.63387 -0.00093 0.97471 0.0
C269 C 0.65784 0.02014 0.02427 0.0
C270 C 0.67708 0.04837 0.04608 0.0
C271 C 0.66692 0.07288 0.05188 0.0
C272 C 0.68538 0.09956 0.0723 0.0
C273 C 0.71389 0.10184 0.08724 0.0
C274 C 0.72395 0.07737 0.08185 0.0
C275 C 0.7056 0.05066 0.06142 0.0
H276 H 0.72815 0.12251 0.10304 0.0
H277 H 0.55245 0.86264 0.90477 0.0
H278 H 0.76636 0.60109 0.17438 0.0
H279 H 0.73492 0.62995 0.15817 0.0
H280 H 0.67846 0.60216 0.24148 0.0
H281 H 0.70948 0.57304 0.25776 0.0
H282 H 0.63627 0.58838 0.19356 0.0
H283 H 0.74285 0.68388 0.22936 0.0
H284 H 0.80606 0.72112 0.23186 0.0
H285 H 0.80871 0.74586 0.13855 0.0
H286 H 0.74553 0.70837 0.1354 0.0
H287 H 0.55971 0.69239 0.18701 0.0
H288 H 0.59478 0.66711 0.20177 0.0
H289 H 0.65159 0.70163 0.11884 0.0
H290 H 0.61704 0.72773 0.10415 0.0
H291 H 0.69415 0.71178 0.16451 0.0
H292 H 0.58836 0.61754 0.12821 0.0
H293 H 0.52528 0.57996 0.12469 0.0
H294 H 0.52118 0.55202 0.2173 0.0
H295 H 0.58422 0.58982 0.22148 0.0
C296 C 0.74735 0.60123 0.1893 0.0
C297 C 0.74046 0.5848 0.21738 0.0
C298 C 0.7295 0.61784 0.18005 0.0
C299 C 0.70454 0.6184 0.19872 0.0
C300 C 0.69763 0.60203 0.22673 0.0
C301 C 0.71547 0.58549 0.23603 0.0
C302 C 0.68498 0.63534 0.18888 0.0
C303 C 0.64889 0.61547 0.18757 0.0
C304 C 0.70155 0.67041 0.18019 0.0
C305 C 0.73951 0.69304 0.18208 0.0
C306 C 0.75695 0.69703 0.20932 0.0
C307 C 0.79276 0.71823 0.21086 0.0
C308 C 0.8114 0.73577 0.18536 0.0
C309 C 0.79424 0.73222 0.15827 0.0
C310 C 0.75843 0.71102 0.1566 0.0
C311 C 0.57972 0.69472 0.17191 0.0
C312 C 0.58542 0.71187 0.1443 0.0
C313 C 0.59967 0.68012 0.18034 0.0
C314 C 0.62541 0.68195 0.16118 0.0
C315 C 0.63177 0.6998 0.13393 0.0
C316 C 0.61195 0.71463 0.12555 0.0
C317 C 0.64539 0.6649 0.16952 0.0
C318 C 0.68153 0.68468 0.17045 0.0
C319 C 0.62889 0.62965 0.1777 0.0
C320 C 0.59098 0.60676 0.17522 0.0
C321 C 0.57398 0.60358 0.14788 0.0
C322 C 0.53823 0.58221 0.14576 0.0
C323 C 0.51922 0.56368 0.17077 0.0
C324 C 0.53594 0.56642 0.19795 0.0
C325 C 0.57168 0.58779 0.2002 0.0
H326 H 0.49155 0.54714 0.16908 0.0
H327 H 0.83912 0.75218 0.1866 0.0
H328 H 0.17142 0.74828 0.32594 0.0
H329 H 0.1125 0.71999 0.30667 0.0
H330 H 0.07301 0.6915 0.39667 0.0
H331 H 0.13194 0.71905 0.41608 0.0
H332 H 0.04028 0.63855 0.36032 0.0
H333 H 0.06991 0.75712 0.35818 0.0
H334 H 0.10515 0.81883 0.34567 0.0
H335 H 0.09214 0.79439 0.25182 0.0
H336 H 0.05719 0.73246 0.26377 0.0
H337 H 0.86629 0.58397 0.32458 0.0
H338 H 0.92449 0.61712 0.34517 0.0
H339 H 0.96655 0.64033 0.2557 0.0
H340 H 0.90837 0.60746 0.23484 0.0
H341 H 0.99728 0.69673 0.29258 0.0
H342 H 0.96892 0.57793 0.29535 0.0
H343 H 0.93332 0.51636 0.30825 0.0
H344 H 0.94373 0.54193 0.40185 0.0
H345 H 0.97902 0.60373 0.38947 0.0
C346 C 0.15022 0.73615 0.34167 0.0
C347 C 0.15637 0.73596 0.37256 0.0
C348 C 0.11652 0.72012 0.33062 0.0
C349 C 0.08831 0.704 0.35026 0.0
C350 C 0.09439 0.70383 0.38111 0.0
C351 C 0.12808 0.71965 0.39217 0.0
C352 C 0.05249 0.68628 0.33852 0.0
C353 C 0.03073 0.65147 0.34591 0.0
C354 C 0.04024 0.70288 0.31915 0.0
C355 C 0.06119 0.74012 0.31189 0.0
C356 C 0.07478 0.76488 0.33487 0.0
C357 C 0.09467 0.7999 0.32788 0.0
C358 C 0.10095 0.81052 0.29797 0.0
C359 C 0.08729 0.78613 0.27498 0.0
C360 C 0.06741 0.75107 0.28185 0.0
C361 C 0.88788 0.59624 0.30924 0.0
C362 C 0.88271 0.59287 0.27805 0.0
C363 C 0.92113 0.6151 0.32107 0.0
C364 C 0.94983 0.63081 0.30195 0.0
C365 C 0.94472 0.62833 0.27083 0.0
C366 C 0.91146 0.60943 0.25896 0.0
C367 C 0.98524 0.64913 0.31443 0.0
C368 C 0.00688 0.68397 0.30713 0.0
C369 C 0.99738 0.63262 0.33397 0.0
C370 C 0.97632 0.59547 0.34146 0.0
C371 C 0.96339 0.57044 0.31867 0.0
C372 C 0.94331 0.5355 0.32589 0.0
C373 C 0.93619 0.52525 0.35585 0.0
C374 C 0.94922 0.54992 0.37865 0.0
C375 C 0.96929 0.58489 0.37155 0.0
H376 H 0.92064 0.49819 0.3614 0.0
H377 H 0.11635 0.83765 0.29261 0.0
H378 H 0.58762 0.28894 0.53636 0.0
H379 H 0.61992 0.32445 0.49351 0.0
H380 H 0.5363 0.34289 0.473 0.0
H381 H 0.50366 0.3072 0.51566 0.0
H382 H 0.56024 0.32644 0.42314 0.0
H383 H 0.60814 0.40465 0.50619 0.0
H384 H 0.63531 0.42385 0.55584 0.0
H385 H 0.72297 0.4171 0.526 0.0
H386 H 0.6961 0.39739 0.47627 0.0
H387 H 0.64813 0.46475 0.32091 0.0
H388 H 0.61589 0.42849 0.36337 0.0
H389 H 0.70227 0.41525 0.38622 0.0
H390 H 0.73497 0.45209 0.34415 0.0
H391 H 0.67698 0.42858 0.43492 0.0
H392 H 0.6298 0.35069 0.352 0.0
H393 H 0.60283 0.33087 0.30236 0.0
H394 H 0.51419 0.33612 0.33175 0.0
H395 H 0.54085 0.35643 0.38147 0.0
C396 C 0.57609 0.30057 0.52277 0.0
C397 C 0.54309 0.29531 0.52948 0.0
C398 C 0.59464 0.32095 0.49835 0.0
C399 C 0.58061 0.33654 0.48025 0.0
C400 C 0.54759 0.33111 0.48672 0.0
C401 C 0.52904 0.3108 0.51117 0.0
C402 C 0.60027 0.35829 0.4544 0.0
C403 C 0.58558 0.34905 0.42573 0.0
C404 C 0.63368 0.38724 0.45775 0.0
C405 C 0.64994 0.39921 0.48761 0.0
C406 C 0.63308 0.40699 0.51029 0.0
C407 C 0.64845 0.41802 0.53843 0.0
C408 C 0.6808 0.42161 0.5441 0.0
C409 C 0.69789 0.41426 0.5216 0.0
C410 C 0.68262 0.40319 0.49342 0.0
C411 C 0.66025 0.45404 0.3349 0.0
C412 C 0.6941 0.46126 0.32911 0.0
C413 C 0.64172 0.43319 0.3591 0.0
C414 C 0.65652 0.41881 0.37778 0.0
C415 C 0.69034 0.42604 0.37209 0.0
C416 C 0.70895 0.44704 0.34798 0.0
C417 C 0.63697 0.39677 0.40358 0.0
C418 C 0.65167 0.40595 0.43227 0.0
C419 C 0.60361 0.36768 0.40023 0.0
C420 C 0.58748 0.3554 0.37037 0.0
C421 C 0.60468 0.34788 0.34781 0.0
C422 C 0.58942 0.33651 0.31967 0.0
C423 C 0.55686 0.33232 0.31388 0.0
C424 C 0.53944 0.33941 0.33625 0.0
C425 C 0.55459 0.35082 0.36443 0.0
H426 H 0.54509 0.32351 0.29209 0.0
H427 H 0.69266 0.43015 0.5659 0.0
H428 H 0.27737 0.73275 0.50706 0.0
H429 H 0.28165 0.70194 0.55052 0.0
H430 H 0.18113 0.61551 0.53067 0.0
H431 H 0.17642 0.64632 0.48726 0.0
H432 H 0.18804 0.63152 0.58971 0.0
H433 H 0.25307 0.61177 0.51487 0.0
H434 H 0.29762 0.62817 0.47586 0.0
H435 H 0.37659 0.68802 0.54013 0.0
H436 H 0.33245 0.67236 0.57946 0.0
H437 H 0.19832 0.51146 0.68712 0.0
H438 H 0.19304 0.54127 0.64334 0.0
H439 H 0.29437 0.62776 0.66062 0.0
H440 H 0.30013 0.59788 0.70419 0.0
H441 H 0.2865 0.611 0.60247 0.0
H442 H 0.22147 0.63128 0.6772 0.0
H443 H 0.17693 0.61508 0.71619 0.0
H444 H 0.09798 0.55437 0.65218 0.0
H445 H 0.14211 0.56984 0.61288 0.0
C446 C 0.25618 0.70715 0.51186 0.0
C447 C 0.22659 0.69194 0.49362 0.0
C448 C 0.25873 0.68953 0.53667 0.0
C449 C 0.23186 0.65629 0.54364 0.0
C450 C 0.20218 0.64113 0.52564 0.0
C451 C 0.19959 0.65874 0.5008 0.0
C452 C 0.23463 0.63753 0.56993 0.0
C453 C 0.20929 0.62658 0.59232 0.0
C454 C 0.2628 0.63182 0.57361 0.0
C455 C 0.28942 0.64115 0.55004 0.0
C456 C 0.27991 0.62865 0.52063 0.0
C457 C 0.30509 0.63777 0.49847 0.0
C458 C 0.3399 0.65919 0.50549 0.0
C459 C 0.34961 0.67146 0.53472 0.0
C460 C 0.32453 0.66244 0.55696 0.0
C461 C 0.21947 0.53688 0.68169 0.0
C462 C 0.24964 0.55234 0.6992 0.0
C463 C 0.21634 0.55393 0.6567 0.0
C464 C 0.24316 0.5869 0.64889 0.0
C465 C 0.27335 0.60234 0.66626 0.0
C466 C 0.27655 0.58526 0.69121 0.0
C467 C 0.23997 0.60508 0.62234 0.0
C468 C 0.26522 0.61591 0.59987 0.0
C469 C 0.21173 0.61069 0.6186 0.0
C470 C 0.18513 0.60145 0.64217 0.0
C471 C 0.19463 0.61426 0.67149 0.0
C472 C 0.16946 0.60525 0.69364 0.0
C473 C 0.13466 0.58364 0.68669 0.0
C474 C 0.12495 0.57107 0.65754 0.0
C475 C 0.15003 0.57998 0.63532 0.0
H476 H 0.11521 0.57669 0.70387 0.0
H477 H 0.35936 0.66623 0.48831 0.0
H478 H 0.6621 0.26646 0.88665 0.0
H479 H 0.62773 0.26239 0.84265 0.0
H480 H 0.66651 0.20418 0.79629 0.0
H481 H 0.70134 0.20852 0.84002 0.0
H482 H 0.66831 0.25332 0.76087 0.0
H483 H 0.58511 0.16445 0.82413 0.0
H484 H 0.55238 0.13913 0.87065 0.0
H485 H 0.5119 0.20811 0.86704 0.0
H486 H 0.5448 0.2342 0.8207 0.0
H487 H 0.54457 0.1906 0.64253 0.0
H488 H 0.57851 0.19393 0.68673 0.0
H489 H 0.54859 0.26119 0.72984 0.0
H490 H 0.51478 0.25825 0.68567 0.0
H491 H 0.54194 0.20699 0.76665 0.0
H492 H 0.62601 0.29564 0.70283 0.0
H493 H 0.65829 0.31951 0.65585 0.0
H494 H 0.69648 0.24866 0.66015 0.0
H495 H 0.66399 0.224 0.70696 0.0
C496 C 0.66326 0.2527 0.86713 0.0
C497 C 0.68441 0.23776 0.86687 0.0
C498 C 0.64349 0.25029 0.84204 0.0
C499 C 0.64432 0.2327 0.8163 0.0
C500 C 0.66548 0.21785 0.81593 0.0
C501 C 0.68527 0.22027 0.84099 0.0
C502 C 0.62357 0.23031 0.78955 0.0
C503 C 0.6406 0.24273 0.76206 0.0
C504 C 0.58753 0.21713 0.79123 0.0
C505 C 0.56771 0.20152 0.81911 0.0
C506 C 0.56947 0.17443 0.8334 0.0
C507 C 0.55084 0.1599 0.8597 0.0
C508 C 0.53015 0.17207 0.87184 0.0
C509 C 0.52798 0.19875 0.85764 0.0
C510 C 0.5466 0.2134 0.83134 0.0
C511 C 0.54523 0.20613 0.6614 0.0
C512 C 0.52706 0.22422 0.6606 0.0
C513 C 0.5647 0.20807 0.68657 0.0
C514 C 0.56613 0.22793 0.71143 0.0
C515 C 0.54777 0.24574 0.71084 0.0
C516 C 0.52861 0.24413 0.68555 0.0
C517 C 0.58671 0.23 0.73812 0.0
C518 C 0.56964 0.21753 0.76554 0.0
C519 C 0.62266 0.24292 0.73634 0.0
C520 C 0.64226 0.25772 0.70823 0.0
C521 C 0.64103 0.28493 0.69361 0.0
C522 C 0.65942 0.29865 0.66705 0.0
C523 C 0.67934 0.28554 0.65498 0.0
C524 C 0.68099 0.25875 0.6695 0.0
C525 C 0.66261 0.24491 0.69606 0.0
H526 H 0.69357 0.29621 0.63442 0.0
H527 H 0.51573 0.16078 0.8922 0.0
H528 H 0.26412 0.52168 0.85776 0.0
H529 H 0.29559 0.55357 0.90227 0.0
H530 H 0.39156 0.59483 0.85366 0.0
H531 H 0.36028 0.56185 0.80939 0.0
H532 H 0.3996 0.57605 0.90644 0.0
H533 H 0.35105 0.64347 0.87004 0.0
H534 H 0.30481 0.65408 0.85274 0.0
H535 H 0.25355 0.61982 0.93762 0.0
H536 H 0.29927 0.60858 0.95529 0.0
H537 H 0.50229 0.71007 0.00866 0.0
H538 H 0.47011 0.67753 0.96463 0.0
H539 H 0.37651 0.62839 0.01685 0.0
H540 H 0.40845 0.66113 0.06103 0.0
H541 H 0.36716 0.65113 0.96279 0.0
H542 H 0.41749 0.58477 0.99884 0.0
H543 H 0.46504 0.57589 0.01553 0.0
H544 H 0.51465 0.61063 0.93006 0.0
H545 H 0.46762 0.62017 0.913 0.0
C546 C 0.29192 0.53767 0.85651 0.0
C547 C 0.30973 0.53935 0.83005 0.0
C548 C 0.30988 0.55604 0.88195 0.0
C549 C 0.34594 0.57708 0.88123 0.0
C550 C 0.36375 0.5788 0.85478 0.0
C551 C 0.34584 0.56001 0.82946 0.0
C552 C 0.36518 0.59665 0.90823 0.0
C553 C 0.39278 0.59285 0.91848 0.0
C554 C 0.35587 0.618 0.92441 0.0
C555 C 0.32842 0.62489 0.91388 0.0
C556 C 0.32979 0.63798 0.88494 0.0
C557 C 0.3037 0.64414 0.87508 0.0
C558 C 0.27622 0.63755 0.89404 0.0
C559 C 0.27483 0.62488 0.92294 0.0
C560 C 0.30085 0.61864 0.9329 0.0
C561 C 0.47488 0.69227 0.01085 0.0
C562 C 0.45794 0.68812 0.0384 0.0
C563 C 0.45655 0.67361 0.98567 0.0
C564 C 0.42099 0.6503 0.98756 0.0
C565 C 0.40396 0.64623 0.01495 0.0
C566 C 0.42228 0.66487 0.04019 0.0
C567 C 0.40152 0.63055 0.96081 0.0
C568 C 0.37391 0.63431 0.95067 0.0
C569 C 0.411 0.60942 0.94458 0.0
C570 C 0.43918 0.60347 0.95474 0.0
C571 C 0.43867 0.59075 0.98368 0.0
C572 C 0.4655 0.58556 0.9932 0.0
C573 C 0.49289 0.59277 0.97389 0.0
C574 C 0.49344 0.60509 0.945 0.0
C575 C 0.46668 0.61036 0.93539 0.0
H576 H 0.51364 0.58874 0.9813 0.0
H577 H 0.25604 0.64233 0.88637 0.0
H578 H 0.82911 0.31785 0.01873 0.0
H579 H 0.82439 0.35231 0.05894 0.0
H580 H 0.72056 0.32116 0.03099 0.0
H581 H 0.72527 0.28716 0.99038 0.0
H582 H 0.7554 0.3884 0.04329 0.0
H583 H 0.73593 0.28481 0.09223 0.0
H584 H 0.749 0.23937 0.1066 0.0
H585 H 0.84253 0.31485 0.14928 0.0
H586 H 0.83025 0.36084 0.13479 0.0
H587 H 0.70229 0.43814 0.17529 0.0
H588 H 0.70759 0.40478 0.13435 0.0
H589 H 0.8128 0.43939 0.16017 0.0
H590 H 0.80769 0.47259 0.2013 0.0
H591 H 0.77727 0.37054 0.149 0.0
H592 H 0.79587 0.47409 0.10008 0.0
H593 H 0.78182 0.51892 0.08599 0.0
H594 H 0.68856 0.44254 0.04359 0.0
H595 H 0.70182 0.39715 0.05781 0.0
C596 C 0.80528 0.31835 0.0211 0.0
C597 C 0.77751 0.29963 0.00143 0.0
C598 C 0.80257 0.33795 0.04418 0.0
C599 C 0.77195 0.33894 0.04822 0.0
C600 C 0.74441 0.32072 0.02832 0.0
C601 C 0.74712 0.30122 0.00517 0.0
C602 C 0.76861 0.35896 0.07318 0.0
C603 C 0.75974 0.38418 0.06644 0.0
C604 C 0.77494 0.35392 0.10333 0.0
C605 C 0.78234 0.32631 0.11216 0.0
C606 C 0.75942 0.29176 0.10447 0.0
C607 C 0.76666 0.26589 0.11268 0.0
C608 C 0.79662 0.27423 0.12878 0.0
C609 C 0.81936 0.30844 0.13677 0.0
C610 C 0.81226 0.33441 0.12859 0.0
C611 C 0.72658 0.43869 0.17226 0.0
C612 C 0.75459 0.45808 0.19152 0.0
C613 C 0.72959 0.41971 0.14879 0.0
C614 C 0.7607 0.41988 0.14406 0.0
C615 C 0.78859 0.43894 0.16341 0.0
C616 C 0.78563 0.45797 0.18685 0.0
C617 C 0.7641 0.39996 0.11909 0.0
C618 C 0.77296 0.37474 0.12583 0.0
C619 C 0.75762 0.4049 0.08897 0.0
C620 C 0.74968 0.43218 0.08027 0.0
C621 C 0.77223 0.46681 0.08796 0.0
C622 C 0.76443 0.49233 0.07992 0.0
C623 C 0.73427 0.48357 0.06397 0.0
C624 C 0.71189 0.44928 0.05597 0.0
C625 C 0.71955 0.42365 0.064 0.0
H626 H 0.72828 0.50337 0.05776 0.0
H627 H 0.80218 0.25417 0.13511 0.0
H628 H 0.31224 0.79765 0.34659 0.0
H629 H 0.34824 0.80139 0.30405 0.0
H630 H 0.33746 0.70317 0.32807 0.0
H631 H 0.30144 0.69924 0.3709 0.0
H632 H 0.40439 0.75147 0.31422 0.0
H633 H 0.29254 0.7073 0.27063 0.0
H634 H 0.23772 0.70563 0.25972 0.0
H635 H 0.2929 0.8044 0.21664 0.0
H636 H 0.34814 0.80691 0.2277 0.0
H637 H 0.47077 0.72753 0.17703 0.0
H638 H 0.43285 0.71987 0.2193 0.0
H639 H 0.43971 0.81729 0.199 0.0
H640 H 0.47751 0.82513 0.15655 0.0
H641 H 0.37344 0.76678 0.21078 0.0
H642 H 0.48529 0.8117 0.25594 0.0
H643 H 0.54013 0.81349 0.2671 0.0
H644 H 0.48472 0.71307 0.30727 0.0
H645 H 0.42948 0.71047 0.29596 0.0
C646 C 0.31752 0.77683 0.34289 0.0
C647 C 0.30389 0.74808 0.3621 0.0
C648 C 0.33799 0.77896 0.31848 0.0
C649 C 0.3452 0.75239 0.31274 0.0
C650 C 0.3321 0.7239 0.33209 0.0
C651 C 0.31146 0.72166 0.35649 0.0
C652 C 0.36658 0.75457 0.28657 0.0
C653 C 0.39738 0.75427 0.29154 0.0
C654 C 0.3577 0.75892 0.25709 0.0
C655 C 0.32451 0.75744 0.25025 0.0
C656 C 0.29302 0.7288 0.25905 0.0
C657 C 0.26186 0.72768 0.2528 0.0
C658 C 0.26183 0.75493 0.23756 0.0
C659 C 0.29297 0.78332 0.22848 0.0
C660 C 0.32421 0.7846 0.23471 0.0
C661 C 0.46421 0.74735 0.18152 0.0
C662 C 0.47728 0.77703 0.16348 0.0
C663 C 0.44262 0.74295 0.20575 0.0
C664 C 0.43374 0.76816 0.21243 0.0
C665 C 0.44631 0.79756 0.19423 0.0
C666 C 0.46801 0.80204 0.17005 0.0
C667 C 0.41138 0.76393 0.23845 0.0
C668 C 0.38038 0.76384 0.23345 0.0
C669 C 0.42007 0.7592 0.2679 0.0
C670 C 0.45324 0.76074 0.2748 0.0
C671 C 0.48478 0.78987 0.26692 0.0
C672 C 0.51594 0.79106 0.27332 0.0
C673 C 0.51591 0.76337 0.2878 0.0
C674 C 0.4847 0.73447 0.296 0.0
C675 C 0.45346 0.73314 0.28962 0.0
H676 H 0.54006 0.76434 0.29274 0.0
H677 H 0.23767 0.75401 0.23274 0.0
loop_
_geom_bond_atom_site_label_1
_geom_bond_atom_site_label_2
_geom_bond_distance
_geom_bond_site_symmetry_2
_ccdc_geom_bond_type
C0 O1 1.160 . S
C0 O7 1.185 . S
O1 C0 1.160 . S
O2 Zn3 1.899 . S
O2 C10 1.284 . S
Zn3 O2 1.899 . S
Zn3 O4 2.032 . S
Zn3 O7 2.086 . S
Zn3 O12 1.977 . S
O4 Zn3 2.032 . S
O4 C8 1.278 . S
C5 O6 1.203 . S
C5 O12 1.267 . S
O6 C5 1.203 . S
O7 C0 1.185 . S
O7 Zn3 2.086 . S
C8 O4 1.278 . S
C8 O9 1.211 . S
O9 C8 1.211 . S
C10 O2 1.284 . S
C10 O11 1.273 . S
O11 C10 1.273 . S
O12 Zn3 1.977 . S
O12 C5 1.267 . S
C13 O14 1.160 . S
C13 O20 1.185 . S
O14 C13 1.160 . S
O15 Zn16 1.899 . S
O15 C23 1.284 . S
Zn16 O15 1.899 . S
Zn16 O17 2.032 . S
Zn16 O20 2.086 . S
Zn16 O25 1.977 . S
O17 Zn16 2.032 . S
O17 C21 1.278 . S
C18 O19 1.203 . S
C18 O25 1.267 . S
O19 C18 1.203 . S
O20 C13 1.185 . S
O20 Zn16 2.086 . S
C21 O17 1.278 . S
C21 O22 1.211 . S
O22 C21 1.211 . S
C23 O15 1.284 . S
C23 O24 1.273 . S
O24 C23 1.273 . S
O25 Zn16 1.977 . S
O25 C18 1.267 . S
C26 O27 1.160 . S
C26 O33 1.185 . S
O27 C26 1.160 . S
O28 Zn29 1.899 . S
O28 C36 1.284 . S
Zn29 O28 1.899 . S
Zn29 O30 2.032 . S
Zn29 O33 2.086 . S
Zn29 O38 1.977 . S
O30 Zn29 2.032 . S
O30 C34 1.278 . S
C31 O32 1.203 . S
C31 O38 1.267 . S
O32 C31 1.203 . S
O33 C26 1.185 . S
O33 Zn29 2.086 . S
C34 O30 1.278 . S
C34 O35 1.211 . S
O35 C34 1.211 . S
C36 O28 1.284 . S
C36 O37 1.273 . S
O37 C36 1.273 . S
O38 Zn29 1.977 . S
O38 C31 1.267 . S
C39 O40 1.160 . S
C39 O46 1.185 . S
O40 C39 1.160 . S
O41 Zn42 1.899 . S
O41 C49 1.284 . S
Zn42 O41 1.899 . S
Zn42 O43 2.032 . S
Zn42 O46 2.086 . S
Zn42 O51 1.977 . S
O43 Zn42 2.032 . S
O43 C47 1.278 . S
C44 O45 1.203 . S
C44 O51 1.267 . S
O45 C44 1.203 . S
O46 C39 1.185 . S
O46 Zn42 2.086 . S
C47 O43 1.278 . S
C47 O48 1.211 . S
O48 C47 1.211 . S
C49 O41 1.284 . S
C49 O50 1.273 . S
O50 C49 1.273 . S
O51 Zn42 1.977 . S
O51 C44 1.267 . S
C52 O53 1.160 . S
C52 O59 1.185 . S
O53 C52 1.160 . S
O54 Zn55 1.899 . S
O54 C62 1.284 . S
Zn55 O54 1.899 . S
Zn55 O56 2.032 . S
Zn55 O59 2.086 . S
Zn55 O64 1.977 . S
O56 Zn55 2.032 . S
O56 C60 1.278 . S
C57 O58 1.203 . S
C57 O64 1.267 . S
O58 C57 1.203 . S
O59 C52 1.185 . S
O59 Zn55 2.086 . S
C60 O56 1.278 . S
C60 O61 1.211 . S
O61 C60 1.211 . S
C62 O54 1.284 . S
C62 O63 1.273 . S
O63 C62 1.273 . S
O64 Zn55 1.977 . S
O64 C57 1.267 . S
C65 O66 1.160 . S
C65 O72 1.185 . S
O66 C65 1.160 . S
O67 Zn68 1.899 . S
O67 C75 1.284 . S
Zn68 O67 1.899 . S
Zn68 O69 2.032 . S
Zn68 O72 2.086 . S
Zn68 O77 1.977 . S
O69 Zn68 2.032 . S
O69 C73 1.278 . S
C70 O71 1.203 . S
C70 O77 1.267 . S
O71 C70 1.203 . S
O72 C65 1.185 . S
O72 Zn68 2.086 . S
C73 O69 1.278 . S
C73 O74 1.211 . S
O74 C73 1.211 . S
C75 O67 1.284 . S
C75 O76 1.273 . S
O76 C75 1.273 . S
O77 Zn68 1.977 . S
O77 C70 1.267 . S
H78 C96 0.951 . S
H79 C98 0.951 . S
H80 C100 0.950 . S
H81 C101 0.950 . S
H82 C103 0.950 . S
H83 C106 0.950 . S
H84 C107 0.950 . S
H85 C109 0.950 . S
H86 C110 0.950 . S
H87 C111 0.951 . S
H88 C113 0.951 . S
H89 C115 0.950 . S
H90 C116 0.950 . S
H91 C118 0.950 . S
H92 C121 0.950 . S
H93 C122 0.950 . S
H94 C124 0.950 . S
H95 C125 0.950 . S
C96 H78 0.951 . S
C96 C97 1.366 . S
C96 C98 1.388 . S
C97 C96 1.366 . S
C97 C101 1.385 . S
C98 H79 0.951 . S
C98 C96 1.388 . S
C98 C99 1.366 . S
C99 C98 1.366 . S
C99 C100 1.414 . S
C99 C102 1.499 . S
C100 H80 0.950 . S
C100 C99 1.414 . S
C100 C101 1.374 . S
C101 H81 0.950 . S
C101 C97 1.385 . S
C101 C100 1.374 . S
C102 C99 1.499 . S
C102 C103 1.373 . S
C102 C104 1.389 . S
C103 H82 0.950 . S
C103 C102 1.373 . S
C103 C119 1.377 1_545 S
C104 C102 1.389 . S
C104 C105 1.524 . S
C104 C118 1.377 1_545 S
C105 C104 1.524 . S
C105 C106 1.397 . S
C105 C110 1.363 . S
C106 H83 0.950 . S
C106 C105 1.397 . S
C106 C107 1.334 . S
C107 H84 0.950 . S
C107 C106 1.334 . S
C107 C108 1.287 . S
C108 C107 1.287 . S
C108 C109 1.524 . S
C108 H127 0.913 . S
C109 H85 0.950 . S
C109 C108 1.524 . S
C109 C110 1.415 . S
C110 H86 0.950 . S
C110 C105 1.363 . S
C110 C109 1.415 . S
C111 H87 0.951 . S
C111 C112 1.366 . S
C111 C113 1.388 . S
C112 C111 1.366 . S
C112 C116 1.385 . S
C113 H88 0.951 . S
C113 C111 1.388 . S
C113 C114 1.366 . S
C114 C113 1.366 . S
C114 C115 1.414 . S
C114 C117 1.499 . S
C115 H89 0.950 . S
C115 C114 1.414 . S
C115 C116 1.374 . S
C116 H90 0.950 . S
C116 C112 1.385 . S
C116 C115 1.374 . S
C117 C114 1.499 . S
C117 C118 1.373 . S
C117 C119 1.389 . S
C118 H91 0.950 . S
C118 C104 1.377 1_565 S
C118 C117 1.373 . S
C119 C103 1.377 1_565 S
C119 C117 1.389 . S
C119 C120 1.524 . S
C120 C119 1.524 . S
C120 C121 1.397 . S
C120 C125 1.363 . S
C121 H92 0.950 . S
C121 C120 1.397 . S
C121 C122 1.334 . S
C122 H93 0.950 . S
C122 C121 1.334 . S
C122 C123 1.287 . S
C123 C122 1.287 . S
C123 C124 1.524 . S
C123 H126 0.999 . S
C124 H94 0.950 . S
C124 C123 1.524 . S
C124 C125 1.415 . S
C125 H95 0.950 . S
C125 C120 1.363 . S
C125 C124 1.415 . S
H126 C123 0.999 . S
H127 C108 0.913 . S
H128 C146 0.951 . S
H129 C148 0.951 . S
H130 C150 0.950 . S
H131 C151 0.950 . S
H132 C153 0.950 . S
H133 C156 0.950 . S
H134 C157 0.950 . S
H135 C159 0.950 . S
H136 C160 0.950 . S
H137 C161 0.951 . S
H138 C163 0.951 . S
H139 C165 0.950 . S
H140 C166 0.950 . S
H141 C168 0.950 . S
H142 C171 0.950 . S
H143 C172 0.950 . S
H144 C174 0.950 . S
H145 C175 0.950 . S
C146 H128 0.951 . S
C146 C147 1.366 . S
C146 C148 1.388 . S
C147 C146 1.366 . S
C147 C151 1.385 . S
C148 H129 0.951 . S
C148 C146 1.388 . S
C148 C149 1.366 . S
C149 C148 1.366 . S
C149 C150 1.414 . S
C149 C152 1.499 . S
C150 H130 0.950 . S
C150 C149 1.414 . S
C150 C151 1.374 . S
C151 H131 0.950 . S
C151 C147 1.385 . S
C151 C150 1.374 . S
C152 C149 1.499 . S
C152 C153 1.373 . S
C152 C154 1.389 . S
C153 H132 0.950 . S
C153 C152 1.373 . S
C153 C169 1.377 . S
C154 C152 1.389 . S
C154 C155 1.524 . S
C154 C168 1.377 . S
C155 C154 1.524 . S
C155 C156 1.397 . S
C155 C160 1.363 . S
C156 H133 0.950 . S
C156 C155 1.397 . S
C156 C157 1.334 . S
C157 H134 0.950 . S
C157 C156 1.334 . S
C157 C158 1.287 . S
C158 C157 1.287 . S
C158 C159 1.524 . S
C158 H177 0.913 . S
C159 H135 0.950 . S
C159 C158 1.524 . S
C159 C160 1.415 . S
C160 H136 0.950 . S
C160 C155 1.363 . S
C160 C159 1.415 . S
C161 H137 0.951 . S
C161 C162 1.366 . S
C161 C163 1.388 . S
C162 C161 1.366 . S
C162 C166 1.385 . S
C163 H138 0.951 . S
C163 C161 1.388 . S
C163 C164 1.366 . S
C164 C163 1.366 . S
C164 C165 1.414 . S
C164 C167 1.499 . S
C165 H139 0.950 . S
C165 C164 1.414 . S
C165 C166 1.374 . S
C166 H140 0.950 . S
C166 C162 1.385 . S
C166 C165 1.374 . S
C167 C164 1.499 . S
C167 C168 1.373 . S
C167 C169 1.389 . S
C168 H141 0.950 . S
C168 C154 1.377 . S
C168 C167 1.373 . S
C169 C153 1.377 . S
C169 C167 1.389 . S
C169 C170 1.524 . S
C170 C169 1.524 . S
C170 C171 1.397 . S
C170 C175 1.363 . S
C171 H142 0.950 . S
C171 C170 1.397 . S
C171 C172 1.334 . S
C172 H143 0.950 . S
C172 C171 1.334 . S
C172 C173 1.287 . S
C173 C172 1.287 . S
C173 C174 1.524 . S
C173 H176 0.999 . S
C174 H144 0.950 . S
C174 C173 1.524 . S
C174 C175 1.415 . S
C175 H145 0.950 . S
C175 C170 1.363 . S
C175 C174 1.415 . S
H176 C173 0.999 . S
H177 C158 0.913 . S
H178 C196 0.951 . S
H179 C198 0.951 . S
H180 C200 0.950 . S
H181 C201 0.950 . S
H182 C203 0.950 . S
H183 C206 0.950 . S
H184 C207 0.950 . S
H185 C209 0.950 1_455 S
H186 C210 0.920 1_455 S
H187 C211 0.951 . S
H188 C213 0.951 . S
H189 C215 0.950 . S
H190 C216 0.950 . S
H191 C218 0.950 . S
H192 C221 0.950 . S
H193 C222 0.950 . S
H194 C224 0.950 . S
H195 C225 0.950 . S
C196 H178 0.951 . S
C196 C197 1.366 . S
C196 C198 1.388 . S
C197 C196 1.366 . S
C197 C201 1.385 . S
C198 H179 0.951 . S
C198 C196 1.388 . S
C198 C199 1.366 . S
C199 C198 1.366 . S
C199 C200 1.414 . S
C199 C202 1.499 . S
C200 H180 0.950 . S
C200 C199 1.414 . S
C200 C201 1.374 . S
C201 H181 0.950 . S
C201 C197 1.385 . S
C201 C200 1.374 . S
C202 C199 1.499 . S
C202 C203 1.373 . S
C202 C204 1.389 . S
C203 H182 0.950 . S
C203 C202 1.373 . S
C203 C219 1.394 . S
C204 C202 1.389 . S
C204 C205 1.524 . S
C204 C218 1.377 1_655 S
C205 C204 1.524 . S
C205 C206 1.397 . S
C205 C210 1.378 . S
C206 H183 0.950 . S
C206 C205 1.397 . S
C206 C207 1.334 . S
C207 H184 0.950 . S
C207 C206 1.334 . S
C207 C208 1.287 . S
C208 C207 1.287 . S
C208 C209 1.524 . S
C208 H227 0.913 . S
C209 H185 0.950 1_655 S
C209 C208 1.524 . S
C209 C210 1.429 . S
C210 H186 0.920 1_655 S
C210 C205 1.378 . S
C210 C209 1.429 . S
C211 H187 0.951 . S
C211 C212 1.366 . S
C211 C213 1.388 . S
C212 C211 1.366 . S
C212 C216 1.385 . S
C213 H188 0.951 . S
C213 C211 1.388 . S
C213 C214 1.366 . S
C214 C213 1.366 . S
C214 C215 1.414 . S
C214 C217 1.499 . S
C215 H189 0.950 . S
C215 C214 1.414 . S
C215 C216 1.374 . S
C216 H190 0.950 . S
C216 C212 1.385 . S
C216 C215 1.374 . S
C217 C214 1.499 . S
C217 C218 1.373 . S
C217 C219 1.382 1_455 S
C218 H191 0.950 . S
C218 C204 1.377 1_455 S
C218 C217 1.373 . S
C219 C203 1.394 . S
C219 C217 1.382 1_655 S
C219 C220 1.515 1_655 S
C220 C219 1.515 1_455 S
C220 C221 1.397 . S
C220 C225 1.363 1_455 S
C221 H192 0.950 . S
C221 C220 1.397 . S
C221 C222 1.334 . S
C222 H193 0.950 . S
C222 C221 1.334 . S
C222 C223 1.287 . S
C223 C222 1.287 . S
C223 C224 1.524 1_455 S
C223 H226 0.999 . S
C224 H194 0.950 . S
C224 C223 1.524 1_655 S
C224 C225 1.415 . S
C225 H195 0.950 . S
C225 C220 1.363 1_655 S
C225 C224 1.415 . S
H226 C223 0.999 . S
H227 C208 0.913 . S
H228 C246 0.951 . S
H229 C248 0.951 . S
H230 C250 0.950 . S
H231 C251 0.950 . S
H232 C253 0.950 . S
H233 C256 0.950 . S
H234 C257 0.950 . S
H235 C259 0.950 . S
H236 C260 0.950 . S
H237 C261 0.951 . S
H238 C263 0.951 . S
H239 C265 0.950 . S
H240 C266 0.950 . S
H241 C268 0.945 1_545 S
H242 C271 0.950 . S
H243 C272 0.950 . S
H244 C274 0.950 . S
H245 C275 0.950 . S
C246 H228 0.951 . S
C246 C247 1.366 . S
C246 C248 1.388 . S
C247 C246 1.366 . S
C247 C251 1.385 . S
C248 H229 0.951 . S
C248 C246 1.388 . S
C248 C249 1.366 . S
C249 C248 1.366 . S
C249 C250 1.414 . S
C249 C252 1.499 . S
C250 H230 0.950 . S
C250 C249 1.414 . S
C250 C251 1.374 . S
C251 H231 0.950 . S
C251 C247 1.385 . S
C251 C250 1.374 . S
C252 C249 1.499 . S
C252 C253 1.373 . S
C252 C254 1.389 1_554 S
C253 H232 0.950 . S
C253 C252 1.373 . S
C253 C269 1.377 1_565 S
C254 C252 1.389 1_556 S
C254 C255 1.524 . S
C254 C268 1.388 . S
C255 C254 1.524 . S
C255 C256 1.397 . S
C255 C260 1.363 . S
C256 H233 0.950 . S
C256 C255 1.397 . S
C256 C257 1.334 . S
C257 H234 0.950 . S
C257 C256 1.334 . S
C257 C258 1.287 . S
C258 C257 1.287 . S
C258 C259 1.524 . S
C258 H277 0.913 . S
C259 H235 0.950 . S
C259 C258 1.524 . S
C259 C260 1.415 . S
C260 H236 0.950 . S
C260 C255 1.363 . S
C260 C259 1.415 . S
C261 H237 0.951 . S
C261 C262 1.366 . S
C261 C263 1.388 . S
C262 C261 1.366 . S
C262 C266 1.385 . S
C263 H238 0.951 . S
C263 C261 1.388 . S
C263 C264 1.366 . S
C264 C263 1.366 . S
C264 C265 1.414 . S
C264 C267 1.498 1_556 S
C265 H239 0.950 . S
C265 C264 1.414 . S
C265 C266 1.374 . S
C266 H240 0.950 . S
C266 C262 1.385 . S
C266 C265 1.374 . S
C267 C264 1.498 1_554 S
C267 C268 1.365 1_544 S
C267 C269 1.392 . S
C268 H241 0.945 1_565 S
C268 C254 1.388 . S
C268 C267 1.365 1_566 S
C269 C253 1.377 1_545 S
C269 C267 1.392 . S
C269 C270 1.524 . S
C270 C269 1.524 . S
C270 C271 1.397 . S
C270 C275 1.363 . S
C271 H242 0.950 . S
C271 C270 1.397 . S
C271 C272 1.334 . S
C272 H243 0.950 . S
C272 C271 1.334 . S
C272 C273 1.287 . S
C273 C272 1.287 . S
C273 C274 1.524 . S
C273 H276 0.999 . S
C274 H244 0.950 . S
C274 C273 1.524 . S
C274 C275 1.415 . S
C275 H245 0.950 . S
C275 C270 1.363 . S
C275 C274 1.415 . S
H276 C273 0.999 . S
H277 C258 0.913 . S
H278 C296 0.951 . S
H279 C298 0.951 . S
H280 C300 0.950 . S
H281 C301 0.950 . S
H282 C303 0.950 . S
H283 C306 0.950 . S
H284 C307 0.950 . S
H285 C309 0.950 . S
H286 C310 0.950 . S
H287 C311 0.951 . S
H288 C313 0.951 . S
H289 C315 0.950 . S
H290 C316 0.950 . S
H291 C318 0.950 . S
H292 C321 0.950 . S
H293 C322 0.950 . S
H294 C324 0.950 . S
H295 C325 0.950 . S
C296 H278 0.951 . S
C296 C297 1.366 . S
C296 C298 1.388 . S
C297 C296 1.366 . S
C297 C301 1.385 . S
C298 H279 0.951 . S
C298 C296 1.388 . S
C298 C299 1.366 . S
C299 C298 1.366 . S
C299 C300 1.414 . S
C299 C302 1.499 . S
C300 H280 0.950 . S
C300 C299 1.414 . S
C300 C301 1.374 . S
C301 H281 0.950 . S
C301 C297 1.385 . S
C301 C300 1.374 . S
C302 C299 1.499 . S
C302 C303 1.373 . S
C302 C304 1.389 . S
C303 H282 0.950 . S
C303 C302 1.373 . S
C303 C319 1.377 . S
C304 C302 1.389 . S
C304 C305 1.524 . S
C304 C318 1.377 . S
C305 C304 1.524 . S
C305 C306 1.397 . S
C305 C310 1.363 . S
C306 H283 0.950 . S
C306 C305 1.397 . S
C306 C307 1.334 . S
C307 H284 0.950 . S
C307 C306 1.334 . S
C307 C308 1.287 . S
C308 C307 1.287 . S
C308 C309 1.524 . S
C308 H327 0.913 . S
C309 H285 0.950 . S
C309 C308 1.524 . S
C309 C310 1.415 . S
C310 H286 0.950 . S
C310 C305 1.363 . S
C310 C309 1.415 . S
C311 H287 0.951 . S
C311 C312 1.366 . S
C311 C313 1.388 . S
C312 C311 1.366 . S
C312 C316 1.385 . S
C313 H288 0.951 . S
C313 C311 1.388 . S
C313 C314 1.366 . S
C314 C313 1.366 . S
C314 C315 1.414 . S
C314 C317 1.499 . S
C315 H289 0.950 . S
C315 C314 1.414 . S
C315 C316 1.374 . S
C316 H290 0.950 . S
C316 C312 1.385 . S
C316 C315 1.374 . S
C317 C314 1.499 . S
C317 C318 1.373 . S
C317 C319 1.389 . S
C318 H291 0.950 . S
C318 C304 1.377 . S
C318 C317 1.373 . S
C319 C303 1.377 . S
C319 C317 1.389 . S
C319 C320 1.524 . S
C320 C319 1.524 . S
C320 C321 1.397 . S
C320 C325 1.363 . S
C321 H292 0.950 . S
C321 C320 1.397 . S
C321 C322 1.334 . S
C322 H293 0.950 . S
C322 C321 1.334 . S
C322 C323 1.287 . S
C323 C322 1.287 . S
C323 C324 1.524 . S
C323 H326 0.999 . S
C324 H294 0.950 . S
C324 C323 1.524 . S
C324 C325 1.415 . S
C325 H295 0.950 . S
C325 C320 1.363 . S
C325 C324 1.415 . S
H326 C323 0.999 . S
H327 C308 0.913 . S
H328 C346 0.951 . S
H329 C348 0.951 . S
H330 C350 0.950 . S
H331 C351 0.950 . S
H332 C353 0.950 . S
H333 C356 0.950 . S
H334 C357 0.950 . S
H335 C359 0.950 . S
H336 C360 0.950 . S
H337 C361 0.951 . S
H338 C363 0.951 . S
H339 C365 0.950 . S
H340 C366 0.950 . S
H341 C368 0.950 . S
H342 C371 0.950 . S
H343 C372 0.950 . S
H344 C374 0.950 . S
H345 C375 0.950 . S
C346 H328 0.951 . S
C346 C347 1.366 . S
C346 C348 1.388 . S
C347 C346 1.366 . S
C347 C351 1.385 . S
C348 H329 0.951 . S
C348 C346 1.388 . S
C348 C349 1.366 . S
C349 C348 1.366 . S
C349 C350 1.414 . S
C349 C352 1.499 . S
C350 H330 0.950 . S
C350 C349 1.414 . S
C350 C351 1.374 . S
C351 H331 0.950 . S
C351 C347 1.385 . S
C351 C350 1.374 . S
C352 C349 1.499 . S
C352 C353 1.373 . S
C352 C354 1.389 . S
C353 H332 0.950 . S
C353 C352 1.373 . S
C353 C369 1.377 1_455 S
C354 C352 1.389 . S
C354 C355 1.524 . S
C354 C368 1.377 1_455 S
C355 C354 1.524 . S
C355 C356 1.397 . S
C355 C360 1.363 . S
C356 H333 0.950 . S
C356 C355 1.397 . S
C356 C357 1.334 . S
C357 H334 0.950 . S
C357 C356 1.334 . S
C357 C358 1.287 . S
C358 C357 1.287 . S
C358 C359 1.524 . S
C358 H377 0.913 . S
C359 H335 0.950 . S
C359 C358 1.524 . S
C359 C360 1.415 . S
C360 H336 0.950 . S
C360 C355 1.363 . S
C360 C359 1.415 . S
C361 H337 0.951 . S
C361 C362 1.366 . S
C361 C363 1.388 . S
C362 C361 1.366 . S
C362 C366 1.385 . S
C363 H338 0.951 . S
C363 C361 1.388 . S
C363 C364 1.366 . S
C364 C363 1.366 . S
C364 C365 1.414 . S
C364 C367 1.499 . S
C365 H339 0.950 . S
C365 C364 1.414 . S
C365 C366 1.374 . S
C366 H340 0.950 . S
C366 C362 1.385 . S
C366 C365 1.374 . S
C367 C364 1.499 . S
C367 C368 1.373 . S
C367 C369 1.389 . S
C368 H341 0.950 . S
C368 C354 1.377 1_655 S
C368 C367 1.373 . S
C369 C353 1.377 1_655 S
C369 C367 1.389 . S
C369 C370 1.524 . S
C370 C369 1.524 . S
C370 C371 1.397 . S
C370 C375 1.363 . S
C371 H342 0.950 . S
C371 C370 1.397 . S
C371 C372 1.334 . S
C372 H343 0.950 . S
C372 C371 1.334 . S
C372 C373 1.287 . S
C373 C372 1.287 . S
C373 C374 1.524 . S
C373 H376 0.999 . S
C374 H344 0.950 . S
C374 C373 1.524 . S
C374 C375 1.415 . S
C375 H345 0.950 . S
C375 C370 1.363 . S
C375 C374 1.415 . S
H376 C373 0.999 . S
H377 C358 0.913 . S
H378 C396 0.951 . S
H379 C398 0.951 . S
H380 C400 0.950 . S
H381 C401 0.950 . S
H382 C403 0.950 . S
H383 C406 0.950 . S
H384 C407 0.950 . S
H385 C409 0.950 . S
H386 C410 0.950 . S
H387 C411 0.951 . S
H388 C413 0.951 . S
H389 C415 0.950 . S
H390 C416 0.950 . S
H391 C418 0.950 . S
H392 C421 0.950 . S
H393 C422 0.950 . S
H394 C424 0.950 . S
H395 C425 0.950 . S
C396 H378 0.951 . S
C396 C397 1.366 . S
C396 C398 1.388 . S
C397 C396 1.366 . S
C397 C401 1.385 . S
C398 H379 0.951 . S
C398 C396 1.388 . S
C398 C399 1.366 . S
C399 C398 1.366 . S
C399 C400 1.414 . S
C399 C402 1.499 . S
C400 H380 0.950 . S
C400 C399 1.414 . S
C400 C401 1.374 . S
C401 H381 0.950 . S
C401 C397 1.385 . S
C401 C400 1.374 . S
C402 C399 1.499 . S
C402 C403 1.373 . S
C402 C404 1.389 . S
C403 H382 0.950 . S
C403 C402 1.373 . S
C403 C419 1.377 . S
C404 C402 1.389 . S
C404 C405 1.524 . S
C404 C418 1.377 . S
C405 C404 1.524 . S
C405 C406 1.397 . S
C405 C410 1.363 . S
C406 H383 0.950 . S
C406 C405 1.397 . S
C406 C407 1.334 . S
C407 H384 0.950 . S
C407 C406 1.334 . S
C407 C408 1.287 . S
C408 C407 1.287 . S
C408 C409 1.524 . S
C408 H427 0.913 . S
C409 H385 0.950 . S
C409 C408 1.524 . S
C409 C410 1.415 . S
C410 H386 0.950 . S
C410 C405 1.363 . S
C410 C409 1.415 . S
C411 H387 0.951 . S
C411 C412 1.366 . S
C411 C413 1.388 . S
C412 C411 1.366 . S
C412 C416 1.385 . S
C413 H388 0.951 . S
C413 C411 1.388 . S
C413 C414 1.366 . S
C414 C413 1.366 . S
C414 C415 1.414 . S
C414 C417 1.499 . S
C415 H389 0.950 . S
C415 C414 1.414 . S
C415 C416 1.374 . S
C416 H390 0.950 . S
C416 C412 1.385 . S
C416 C415 1.374 . S
C417 C414 1.499 . S
C417 C418 1.373 . S
C417 C419 1.389 . S
C418 H391 0.950 . S
C418 C404 1.377 . S
C418 C417 1.373 . S
C419 C403 1.377 . S
C419 C417 1.389 . S
C419 C420 1.524 . S
C420 C419 1.524 . S
C420 C421 1.397 . S
C420 C425 1.363 . S
C421 H392 0.950 . S
C421 C420 1.397 . S
C421 C422 1.334 . S
C422 H393 0.950 . S
C422 C421 1.334 . S
C422 C423 1.287 . S
C423 C422 1.287 . S
C423 C424 1.524 . S
C423 H426 0.999 . S
C424 H394 0.950 . S
C424 C423 1.524 . S
C424 C425 1.415 . S
C425 H395 0.950 . S
C425 C420 1.363 . S
C425 C424 1.415 . S
H426 C423 0.999 . S
H427 C408 0.913 . S
H428 C446 0.951 . S
H429 C448 0.951 . S
H430 C450 0.950 . S
H431 C451 0.950 . S
H432 C453 0.950 . S
H433 C456 0.950 . S
H434 C457 0.950 . S
H435 C459 0.950 . S
H436 C460 0.950 . S
H437 C461 0.951 . S
H438 C463 0.951 . S
H439 C465 0.950 . S
H440 C466 0.950 . S
H441 C468 0.950 . S
H442 C471 0.950 . S
H443 C472 0.950 . S
H444 C474 0.950 . S
H445 C475 0.950 . S
C446 H428 0.951 . S
C446 C447 1.366 . S
C446 C448 1.388 . S
C447 C446 1.366 . S
C447 C451 1.385 . S
C448 H429 0.951 . S
C448 C446 1.388 . S
C448 C449 1.366 . S
C449 C448 1.366 . S
C449 C450 1.414 . S
C449 C452 1.499 . S
C450 H430 0.950 . S
C450 C449 1.414 . S
C450 C451 1.374 . S
C451 H431 0.950 . S
C451 C447 1.385 . S
C451 C450 1.374 . S
C452 C449 1.499 . S
C452 C453 1.373 . S
C452 C454 1.389 . S
C453 H432 0.950 . S
C453 C452 1.373 . S
C453 C469 1.377 . S
C454 C452 1.389 . S
C454 C455 1.524 . S
C454 C468 1.377 . S
C455 C454 1.524 . S
C455 C456 1.397 . S
C455 C460 1.363 . S
C456 H433 0.950 . S
C456 C455 1.397 . S
C456 C457 1.334 . S
C457 H434 0.950 . S
C457 C456 1.334 . S
C457 C458 1.287 . S
C458 C457 1.287 . S
C458 C459 1.524 . S
C458 H477 0.913 . S
C459 H435 0.950 . S
C459 C458 1.524 . S
C459 C460 1.415 . S
C460 H436 0.950 . S
C460 C455 1.363 . S
C460 C459 1.415 . S
C461 H437 0.951 . S
C461 C462 1.366 . S
C461 C463 1.388 . S
C462 C461 1.366 . S
C462 C466 1.385 . S
C463 H438 0.951 . S
C463 C461 1.388 . S
C463 C464 1.366 . S
C464 C463 1.366 . S
C464 C465 1.414 . S
C464 C467 1.499 . S
C465 H439 0.950 . S
C465 C464 1.414 . S
C465 C466 1.374 . S
C466 H440 0.950 . S
C466 C462 1.385 . S
C466 C465 1.374 . S
C467 C464 1.499 . S
C467 C468 1.373 . S
C467 C469 1.389 . S
C468 H441 0.950 . S
C468 C454 1.377 . S
C468 C467 1.373 . S
C469 C453 1.377 . S
C469 C467 1.389 . S
C469 C470 1.524 . S
C470 C469 1.524 . S
C470 C471 1.397 . S
C470 C475 1.363 . S
C471 H442 0.950 . S
C471 C470 1.397 . S
C471 C472 1.334 . S
C472 H443 0.950 . S
C472 C471 1.334 . S
C472 C473 1.287 . S
C473 C472 1.287 . S
C473 C474 1.524 . S
C473 H476 0.999 . S
C474 H444 0.950 . S
C474 C473 1.524 . S
C474 C475 1.415 . S
C475 H445 0.950 . S
C475 C470 1.363 . S
C475 C474 1.415 . S
H476 C473 0.999 . S
H477 C458 0.913 . S
H478 C496 0.951 . S
H479 C498 0.951 . S
H480 C500 0.950 . S
H481 C501 0.950 . S
H482 C503 0.950 . S
H483 C506 0.950 . S
H484 C507 0.950 . S
H485 C509 0.950 . S
H486 C510 0.950 . S
H487 C511 0.951 . S
H488 C513 0.951 . S
H489 C515 0.950 . S
H490 C516 0.950 . S
H491 C518 0.950 . S
H492 C521 0.950 . S
H493 C522 0.950 . S
H494 C524 0.950 . S
H495 C525 0.950 . S
C496 H478 0.951 . S
C496 C497 1.366 . S
C496 C498 1.388 . S
C497 C496 1.366 . S
C497 C501 1.385 . S
C498 H479 0.951 . S
C498 C496 1.388 . S
C498 C499 1.366 . S
C499 C498 1.366 . S
C499 C500 1.414 . S
C499 C502 1.499 . S
C500 H480 0.950 . S
C500 C499 1.414 . S
C500 C501 1.374 . S
C501 H481 0.950 . S
C501 C497 1.385 . S
C501 C500 1.374 . S
C502 C499 1.499 . S
C502 C503 1.373 . S
C502 C504 1.389 . S
C503 H482 0.950 . S
C503 C502 1.373 . S
C503 C519 1.377 . S
C504 C502 1.389 . S
C504 C505 1.524 . S
C504 C518 1.377 . S
C505 C504 1.524 . S
C505 C506 1.397 . S
C505 C510 1.363 . S
C506 H483 0.950 . S
C506 C505 1.397 . S
C506 C507 1.334 . S
C507 H484 0.950 . S
C507 C506 1.334 . S
C507 C508 1.287 . S
C508 C507 1.287 . S
C508 C509 1.524 . S
C508 H527 0.913 . S
C509 H485 0.950 . S
C509 C508 1.524 . S
C509 C510 1.415 . S
C510 H486 0.950 . S
C510 C505 1.363 . S
C510 C509 1.415 . S
C511 H487 0.951 . S
C511 C512 1.366 . S
C511 C513 1.388 . S
C512 C511 1.366 . S
C512 C516 1.385 . S
C513 H488 0.951 . S
C513 C511 1.388 . S
C513 C514 1.366 . S
C514 C513 1.366 . S
C514 C515 1.414 . S
C514 C517 1.499 . S
C515 H489 0.950 . S
C515 C514 1.414 . S
C515 C516 1.374 . S
C516 H490 0.950 . S
C516 C512 1.385 . S
C516 C515 1.374 . S
C517 C514 1.499 . S
C517 C518 1.373 . S
C517 C519 1.389 . S
C518 H491 0.950 . S
C518 C504 1.377 . S
C518 C517 1.373 . S
C519 C503 1.377 . S
C519 C517 1.389 . S
C519 C520 1.524 . S
C520 C519 1.524 . S
C520 C521 1.397 . S
C520 C525 1.363 . S
C521 H492 0.950 . S
C521 C520 1.397 . S
C521 C522 1.334 . S
C522 H493 0.950 . S
C522 C521 1.334 . S
C522 C523 1.287 . S
C523 C522 1.287 . S
C523 C524 1.524 . S
C523 H526 0.999 . S
C524 H494 0.950 . S
C524 C523 1.524 . S
C524 C525 1.415 . S
C525 H495 0.950 . S
C525 C520 1.363 . S
C525 C524 1.415 . S
H526 C523 0.999 . S
H527 C508 0.913 . S
H528 C546 0.951 . S
H529 C548 0.951 . S
H530 C550 0.950 . S
H531 C551 0.950 . S
H532 C553 0.950 . S
H533 C556 0.950 . S
H534 C557 0.950 . S
H535 C559 0.950 . S
H536 C560 0.950 . S
H537 C561 0.951 . S
H538 C563 0.951 . S
H539 C565 0.950 . S
H540 C566 0.950 . S
H541 C568 0.950 . S
H542 C571 0.950 . S
H543 C572 0.950 . S
H544 C574 0.950 . S
H545 C575 0.950 . S
C546 H528 0.951 . S
C546 C547 1.366 . S
C546 C548 1.388 . S
C547 C546 1.366 . S
C547 C551 1.385 . S
C548 H529 0.951 . S
C548 C546 1.388 . S
C548 C549 1.366 . S
C549 C548 1.366 . S
C549 C550 1.414 . S
C549 C552 1.499 . S
C550 H530 0.950 . S
C550 C549 1.414 . S
C550 C551 1.374 . S
C551 H531 0.950 . S
C551 C547 1.385 . S
C551 C550 1.374 . S
C552 C549 1.499 . S
C552 C553 1.373 . S
C552 C554 1.389 . S
C553 H532 0.950 . S
C553 C552 1.373 . S
C553 C569 1.377 . S
C554 C552 1.389 . S
C554 C555 1.524 . S
C554 C568 1.377 . S
C555 C554 1.524 . S
C555 C556 1.397 . S
C555 C560 1.363 . S
C556 H533 0.950 . S
C556 C555 1.397 . S
C556 C557 1.334 . S
C557 H534 0.950 . S
C557 C556 1.334 . S
C557 C558 1.287 . S
C558 C557 1.287 . S
C558 C559 1.524 . S
C558 H577 0.913 . S
C559 H535 0.950 . S
C559 C558 1.524 . S
C559 C560 1.415 . S
C560 H536 0.950 . S
C560 C555 1.363 . S
C560 C559 1.415 . S
C561 H537 0.951 . S
C561 C562 1.366 1_556 S
C561 C563 1.388 . S
C562 C561 1.366 1_554 S
C562 C566 1.385 . S
C563 H538 0.951 . S
C563 C561 1.388 . S
C563 C564 1.366 . S
C564 C563 1.366 . S
C564 C565 1.414 1_556 S
C564 C567 1.499 . S
C565 H539 0.950 . S
C565 C564 1.414 1_554 S
C565 C566 1.374 . S
C566 H540 0.950 . S
C566 C562 1.385 . S
C566 C565 1.374 . S
C567 C564 1.499 . S
C567 C568 1.373 . S
C567 C569 1.389 . S
C568 H541 0.950 . S
C568 C554 1.377 . S
C568 C567 1.373 . S
C569 C553 1.377 . S
C569 C567 1.389 . S
C569 C570 1.524 . S
C570 C569 1.524 . S
C570 C571 1.397 . S
C570 C575 1.363 . S
C571 H542 0.950 . S
C571 C570 1.397 . S
C571 C572 1.334 . S
C572 H543 0.950 . S
C572 C571 1.334 . S
C572 C573 1.287 . S
C573 C572 1.287 . S
C573 C574 1.524 . S
C573 H576 0.999 . S
C574 H544 0.950 . S
C574 C573 1.524 . S
C574 C575 1.415 . S
C575 H545 0.950 . S
C575 C570 1.363 . S
C575 C574 1.415 . S
H576 C573 0.999 . S
H577 C558 0.913 . S
H578 C596 0.951 . S
H579 C598 0.951 . S
H580 C600 0.950 . S
H581 C601 0.950 1_556 S
H582 C603 0.950 . S
H583 C606 0.950 . S
H584 C607 0.950 . S
H585 C609 0.950 . S
H586 C610 0.950 . S
H587 C611 0.951 . S
H588 C613 0.951 . S
H589 C615 0.950 . S
H590 C616 0.950 . S
H591 C618 0.950 . S
H592 C621 0.950 . S
H593 C622 0.950 . S
H594 C624 0.950 . S
H595 C625 0.950 . S
C596 H578 0.951 . S
C596 C597 1.366 1_554 S
C596 C598 1.388 . S
C597 C596 1.366 1_556 S
C597 C601 1.385 1_556 S
C598 H579 0.951 . S
C598 C596 1.388 . S
C598 C599 1.366 . S
C599 C598 1.366 . S
C599 C600 1.414 . S
C599 C602 1.499 . S
C600 H580 0.950 . S
C600 C599 1.414 . S
C600 C601 1.374 . S
C601 H581 0.950 1_554 S
C601 C597 1.385 1_554 S
C601 C600 1.374 . S
C602 C599 1.499 . S
C602 C603 1.373 . S
C602 C604 1.389 . S
C603 H582 0.950 . S
C603 C602 1.373 . S
C603 C619 1.377 . S
C604 C602 1.389 . S
C604 C605 1.524 . S
C604 C618 1.377 . S
C605 C604 1.524 . S
C605 C606 1.397 . S
C605 C610 1.363 . S
C606 H583 0.950 . S
C606 C605 1.397 . S
C606 C607 1.334 . S
C607 H584 0.950 . S
C607 C606 1.334 . S
C607 C608 1.287 . S
C608 C607 1.287 . S
C608 C609 1.524 . S
C608 H627 0.913 . S
C609 H585 0.950 . S
C609 C608 1.524 . S
C609 C610 1.415 . S
C610 H586 0.950 . S
C610 C605 1.363 . S
C610 C609 1.415 . S
C611 H587 0.951 . S
C611 C612 1.366 . S
C611 C613 1.388 . S
C612 C611 1.366 . S
C612 C616 1.385 . S
C613 H588 0.951 . S
C613 C611 1.388 . S
C613 C614 1.366 . S
C614 C613 1.366 . S
C614 C615 1.414 . S
C614 C617 1.499 . S
C615 H589 0.950 . S
C615 C614 1.414 . S
C615 C616 1.374 . S
C616 H590 0.950 . S
C616 C612 1.385 . S
C616 C615 1.374 . S
C617 C614 1.499 . S
C617 C618 1.373 . S
C617 C619 1.389 . S
C618 H591 0.950 . S
C618 C604 1.377 . S
C618 C617 1.373 . S
C619 C603 1.377 . S
C619 C617 1.389 . S
C619 C620 1.524 . S
C620 C619 1.524 . S
C620 C621 1.397 . S
C620 C625 1.363 . S
C621 H592 0.950 . S
C621 C620 1.397 . S
C621 C622 1.334 . S
C622 H593 0.950 . S
C622 C621 1.334 . S
C622 C623 1.287 . S
C623 C622 1.287 . S
C623 C624 1.524 . S
C623 H626 0.999 . S
C624 H594 0.950 . S
C624 C623 1.524 . S
C624 C625 1.415 . S
C625 H595 0.950 . S
C625 C620 1.363 . S
C625 C624 1.415 . S
H626 C623 0.999 . S
H627 C608 0.913 . S
H628 C646 0.951 . S
H629 C648 0.951 . S
H630 C650 0.950 . S
H631 C651 0.950 . S
H632 C653 0.950 . S
H633 C656 0.950 . S
H634 C657 0.950 . S
H635 C659 0.950 . S
H636 C660 0.950 . S
H637 C661 0.951 . S
H638 C663 0.951 . S
H639 C665 0.950 . S
H640 C666 0.950 . S
H641 C668 0.950 . S
H642 C671 0.950 . S
H643 C672 0.950 . S
H644 C674 0.950 . S
H645 C675 0.950 . S
C646 H628 0.951 . S
C646 C647 1.366 . S
C646 C648 1.388 . S
C647 C646 1.366 . S
C647 C651 1.385 . S
C648 H629 0.951 . S
C648 C646 1.388 . S
C648 C649 1.366 . S
C649 C648 1.366 . S
C649 C650 1.414 . S
C649 C652 1.499 . S
C650 H630 0.950 . S
C650 C649 1.414 . S
C650 C651 1.374 . S
C651 H631 0.950 . S
C651 C647 1.385 . S
C651 C650 1.374 . S
C652 C649 1.499 . S
C652 C653 1.373 . S
C652 C654 1.389 . S
C653 H632 0.950 . S
C653 C652 1.373 . S
C653 C669 1.377 . S
C654 C652 1.389 . S
C654 C655 1.524 . S
C654 C668 1.377 . S
C655 C654 1.524 . S
C655 C656 1.397 . S
C655 C660 1.363 . S
C656 H633 0.950 . S
C656 C655 1.397 . S
C656 C657 1.334 . S
C657 H634 0.950 . S
C657 C656 1.334 . S
C657 C658 1.287 . S
C658 C657 1.287 . S
C658 C659 1.524 . S
C658 H677 0.913 . S
C659 H635 0.950 . S
C659 C658 1.524 . S
C659 C660 1.415 . S
C660 H636 0.950 . S
C660 C655 1.363 . S
C660 C659 1.415 . S
C661 H637 0.951 . S
C661 C662 1.366 . S
C661 C663 1.388 . S
C662 C661 1.366 . S
C662 C666 1.385 . S
C663 H638 0.951 . S
C663 C661 1.388 . S
C663 C664 1.366 . S
C664 C663 1.366 . S
C664 C665 1.414 . S
C664 C667 1.499 . S
C665 H639 0.950 . S
C665 C664 1.414 . S
C665 C666 1.374 . S
C666 H640 0.950 . S
C666 C662 1.385 . S
C666 C665 1.374 . S
C667 C664 1.499 . S
C667 C668 1.373 . S
C667 C669 1.389 . S
C668 H641 0.950 . S
C668 C654 1.377 . S
C668 C667 1.373 . S
C669 C653 1.377 . S
C669 C667 1.389 . S
C669 C670 1.524 . S
C670 C669 1.524 . S
C670 C671 1.397 . S
C670 C675 1.363 . S
C671 H642 0.950 . S
C671 C670 1.397 . S
C671 C672 1.334 . S
C672 H643 0.950 . S
C672 C671 1.334 . S
C672 C673 1.287 . S
C673 C672 1.287 . S
C673 C674 1.524 . S
C673 H676 0.999 . S
C674 H644 0.950 . S
C674 C673 1.524 . S
C674 C675 1.415 . S
C675 H645 0.950 . S
C675 C670 1.363 . S
C675 C674 1.415 . S
H676 C673 0.999 . S
H677 C658 0.913 . S
C97 C5 1.388 . S
C112 C65 1.387 . S
C147 C0 1.387 . S
C162 C18 1.388 . S
C197 C31 1.388 . S
C212 C13 1.386 . S
C247 C44 1.388 . S
C262 C26 1.386 . S
C297 C57 1.388 . S
C312 C39 1.387 . S
C347 C70 1.388 . S
C362 C52 1.387 . S
C397 C10 1.530 . S
C412 C60 1.512 . S
C447 C73 1.512 . S
C462 C23 1.530 . S
C497 C36 1.530 . S
C512 C8 1.512 . S
C547 C21 1.512 . S
C562 C49 1.530 . S
C597 C34 1.512 . S
C612 C62 1.530 . S
C647 C75 1.530 . S
C662 C47 1.513 . S
