# Generated by pormake.
# Topology qtz-x, (6)-cn, num edge types: 1
# Building blocks:
#     Node 0, Type 0, BuildingBlock: BETDEL_clean_sbu_0, # of connection points: 6
#     Node 1, Type 0, BuildingBlock: BETDEL_clean_sbu_0, # of connection points: 6
#     Node 2, Type 0, BuildingBlock: BETDEL_clean_sbu_0, # of connection points: 6
#     Edge 3, Type (0, 0), BuildingBlock: MIFKUJ_clean_linker_0, # of connection points: 2
#     Edge 4, Type (0, 0), BuildingBlock: MIFKUJ_clean_linker_0, # of connection points: 2
#     Edge 5, Type (0, 0), BuildingBlock: MIFKUJ_clean_linker_0, # of connection points: 2
#     Edge 6, Type (0, 0), BuildingBlock: MIFKUJ_clean_linker_0, # of connection points: 2
#     Edge 7, Type (0, 0), BuildingBlock: MIFKUJ_clean_linker_0, # of connection points: 2
#     Edge 8, Type (0, 0), BuildingBlock: MIFKUJ_clean_linker_0, # of connection points: 2
#     Edge 9, Type (0, 0), BuildingBlock: MIFKUJ_clean_linker_0, # of connection points: 2
#     Edge 10, Type (0, 0), BuildingBlock: MIFKUJ_clean_linker_0, # of connection points: 2
#     Edge 11, Type (0, 0), BuildingBlock: MIFKUJ_clean_linker_0, # of connection points: 2
# Relax obj value: 0.128
# Max RMSD: 0.212
# Mean RMSD: 0.209
data_MOF--net-qtz-x--node1-BETDEL_clean_sbu_0--edge1-MIFKUJ_clean_linker_0
_symmetry_space_group_name_H-M    P1
_symmetry_Int_Tables_number       1
_symmetry_cell_setting            triclinic
loop_
_symmetry_equiv_pos_as_xyz
'x, y, z'
_cell_length_a     18.782607
_cell_length_b     18.748138
_cell_length_c     54.298451
_cell_angle_alpha  86.55565
_cell_angle_beta   97.031692
_cell_angle_gamma 120.17807
loop_
_atom_site_label
_atom_site_type_symbol
_atom_site_fract_x
_atom_site_fract_y
_atom_site_fract_z
_atom_type_partial_charge
Dy0 Dy 0.96634 0.51429 0.20452 0.0
C1 C 0.21 0.64686 0.13514 0.0
C2 C 0.85018 0.44243 0.23758 0.0
Dy3 Dy 0.09425 0.57844 0.16835 0.0
O4 O 0.89409 0.52068 0.23342 0.0
O5 O 0.86742 0.40201 0.22293 0.0
O6 O 0.03033 0.64023 0.22142 0.0
O7 O 0.02647 0.62901 0.18325 0.0
C8 C 0.05297 0.67975 0.20086 0.0
C9 C 0.00578 0.41287 0.17198 0.0
O10 O 0.17488 0.61532 0.20497 0.0
O11 O 0.07358 0.51586 0.22765 0.0
O12 O 0.19359 0.58129 0.14827 0.0
O13 O 0.16643 0.67784 0.1413 0.0
O14 O 0.02745 0.45237 0.15137 0.0
O15 O 0.03396 0.46371 0.18961 0.0
O16 O 0.88397 0.4882 0.16813 0.0
O17 O 0.98876 0.57596 0.14422 0.0
C18 C 0.15186 0.57216 0.22568 0.0
C19 C 0.90942 0.52779 0.14703 0.0
Dy20 Dy 0.57943 0.10946 0.53035 0.0
C21 C 0.50278 0.83789 0.46945 0.0
C22 C 0.59935 0.22162 0.56448 0.0
Dy23 Dy 0.51512 0.94553 0.50382 0.0
O24 O 0.65726 0.22772 0.55216 0.0
O25 O 0.5298 0.15633 0.55716 0.0
O26 O 0.70657 0.15316 0.51987 0.0
O27 O 0.62825 0.02711 0.5266 0.0
C28 C 0.69574 0.0794 0.51874 0.0
C29 C 0.39777 0.97502 0.51497 0.0
O30 O 0.52808 0.90078 0.54229 0.0
O31 O 0.53875 0.01453 0.56088 0.0
O32 O 0.4453 0.82416 0.48329 0.0
O33 O 0.56815 0.90845 0.47542 0.0
O34 O 0.3867 0.90127 0.51322 0.0
O35 O 0.46603 0.02746 0.50756 0.0
O36 O 0.56711 0.15547 0.49189 0.0
O37 O 0.54894 0.03864 0.47294 0.0
C38 C 0.5275 0.93866 0.56208 0.0
C39 C 0.56203 0.11513 0.47187 0.0
Dy40 Dy 0.48933 0.57816 0.86501 0.0
C41 C 0.67478 0.48184 0.81021 0.0
C42 C 0.39437 0.60967 0.89202 0.0
Dy43 Dy 0.58218 0.51846 0.83664 0.0
O44 O 0.46131 0.66498 0.88286 0.0
O45 O 0.37639 0.53685 0.88503 0.0
O46 O 0.61093 0.67292 0.88395 0.0
O47 O 0.60463 0.63826 0.84742 0.0
C48 C 0.6526 0.68097 0.86564 0.0
C49 C 0.41877 0.41548 0.83628 0.0
O50 O 0.63042 0.5115 0.87637 0.0
O51 O 0.52129 0.50644 0.89401 0.0
O52 O 0.61452 0.42929 0.82257 0.0
O53 O 0.68818 0.55574 0.81383 0.0
O54 O 0.46024 0.42246 0.81806 0.0
O55 O 0.46736 0.45858 0.85431 0.0
O56 O 0.44658 0.59502 0.82544 0.0
O57 O 0.5452 0.58293 0.8066 0.0
C58 C 0.58798 0.49875 0.89561 0.0
C59 C 0.48386 0.59893 0.80568 0.0
H60 H 0.05231 0.75933 0.15721 0.0
H61 H 0.04834 0.88789 0.15176 0.0
H62 H 0.07882 0.91719 0.23126 0.0
H63 H 0.08384 0.78948 0.23681 0.0
H64 H 0.92911 0.90889 0.16716 0.0
H65 H 0.17012 0.12155 0.24563 0.0
H66 H 0.30691 0.15337 0.26668 0.0
H67 H 0.3605 0.07398 0.20231 0.0
H68 H 0.22465 0.04289 0.18074 0.0
H69 H 0.00491 0.33191 0.21544 0.0
H70 H 0.00771 0.20271 0.22063 0.0
H71 H 0.97767 0.17498 0.14107 0.0
H72 H 0.97392 0.30341 0.13579 0.0
H73 H 0.12726 0.18252 0.20501 0.0
H74 H 0.88636 0.97032 0.12649 0.0
H75 H 0.74976 0.93902 0.10541 0.0
H76 H 0.69591 0.01741 0.16993 0.0
H77 H 0.83164 0.04815 0.19151 0.0
C78 C 0.06028 0.79437 0.17349 0.0
C79 C 0.06766 0.76434 0.19744 0.0
C80 C 0.0575 0.86741 0.17036 0.0
C81 C 0.06291 0.91178 0.1911 0.0
C82 C 0.07525 0.88431 0.215 0.0
C83 C 0.07797 0.8113 0.21815 0.0
C84 C 0.04833 0.98247 0.18788 0.0
C85 C 0.97304 0.96922 0.17506 0.0
C86 C 0.10454 0.06015 0.19891 0.0
C87 C 0.18672 0.07906 0.21167 0.0
C88 C 0.21118 0.11113 0.23593 0.0
C89 C 0.28857 0.12902 0.24796 0.0
C90 C 0.34224 0.11543 0.23587 0.0
C91 C 0.31873 0.08414 0.2117 0.0
C92 C 0.24147 0.06624 0.19958 0.0
C93 C -0.00319 0.29711 0.19909 0.0
C94 C 0.99006 0.32786 0.17522 0.0
C95 C -0.00114 0.22367 0.20207 0.0
C96 C 0.99335 0.17961 0.18124 0.0
C97 C 0.98136 0.20766 0.1574 0.0
C98 C 0.97938 0.28109 0.15441 0.0
C99 C 0.00799 0.10892 0.18433 0.0
C100 C 0.08333 0.1222 0.19711 0.0
C101 C 0.95183 0.0313 0.17326 0.0
C102 C 0.86967 0.01242 0.16051 0.0
C103 C 0.84527 0.98063 0.13621 0.0
C104 C 0.76797 0.96298 0.12417 0.0
C105 C 0.7143 0.97647 0.1363 0.0
C106 C 0.73769 0.00735 0.16052 0.0
C107 C 0.81489 0.02506 0.17264 0.0
H108 H 0.65454 0.96291 0.12696 0.0
H109 H 0.40211 0.12933 0.24522 0.0
H110 H 0.30162 0.98126 0.47469 0.0
H111 H 0.17998 -0.00194 0.47405 0.0
H112 H 0.21778 0.01883 0.55396 0.0
H113 H 0.33834 -0.0001 0.55451 0.0
H114 H 0.05907 0.91489 0.53804 0.0
H115 H 0.26793 0.18852 0.51587 0.0
H116 H 0.3768 0.28976 0.49094 0.0
H117 H 0.20221 0.21469 0.42559 0.0
H118 H 0.09254 0.11215 0.45007 0.0
H119 H 0.79193 0.06335 0.55717 0.0
H120 H 0.91085 0.04417 0.55517 0.0
H121 H 0.86964 0.04001 0.47508 0.0
H122 H 0.75258 0.06283 0.47725 0.0
H123 H 0.02718 0.13123 0.48918 0.0
H124 H 0.81681 0.86194 0.51081 0.0
H125 H 0.70703 0.75799 0.53494 0.0
H126 H 0.88224 0.8197 0.59994 0.0
H127 H 0.99246 0.92517 0.57639 0.0
C128 C 0.28384 0.99003 0.49202 0.0
C129 C 0.32844 0.98978 0.51464 0.0
C130 C 0.21486 -0.00013 0.49167 0.0
C131 C 0.19041 0.01058 0.51395 0.0
C132 C 0.2357 0.01073 0.53658 0.0
C133 C 0.30438 0.00028 0.53692 0.0
C134 C 0.11612 0.01908 0.51375 0.0
C135 C 0.05247 0.96286 0.52763 0.0
C136 C 0.10645 0.07984 0.49943 0.0
C137 C 0.17222 0.14214 0.48477 0.0
C138 C 0.25289 0.19321 0.49616 0.0
C139 C 0.31473 0.25089 0.48211 0.0
C140 C 0.29649 0.25852 0.45669 0.0
C141 C 0.21628 0.20866 0.44528 0.0
C142 C 0.15425 0.15081 0.45923 0.0
C143 C 0.80844 0.05788 0.53922 0.0
C144 C 0.7639 0.06394 0.51736 0.0
C145 C 0.87585 0.04653 0.53805 0.0
C146 C 0.89835 0.03922 0.51497 0.0
C147 C 0.85327 0.04524 0.49308 0.0
C148 C 0.78652 0.05788 0.49428 0.0
C149 C 0.97036 0.02766 0.51378 0.0
C150 C 0.03351 0.08308 0.49956 0.0
C151 C 0.97932 0.96572 0.52766 0.0
C152 C 0.91282 0.90203 0.54186 0.0
C153 C 0.83175 0.85385 0.53031 0.0
C154 C 0.76937 0.79461 0.54389 0.0
C155 C 0.78746 0.78239 0.56899 0.0
C156 C 0.86803 0.82931 0.58054 0.0
C157 C 0.93052 0.88884 0.56708 0.0
H158 H 0.7391 0.73637 0.57945 0.0
H159 H 0.34445 0.30317 0.44585 0.0
H160 H 0.75291 0.79483 0.901 0.0
H161 H 0.88511 0.9198 0.896 0.0
H162 H 0.87646 0.84428 0.82162 0.0
H163 H 0.74266 0.72036 0.82626 0.0
H164 H 0.03537 0.95575 0.88602 0.0
H165 H 0.94684 0.01145 0.78426 0.0
H166 H 0.821 0.97388 0.75539 0.0
H167 H 0.68692 0.95415 0.81647 0.0
H168 H 0.81221 -0.00733 0.84564 0.0
H169 H 0.31747 0.30149 0.80112 0.0
H170 H 0.18552 0.17662 0.80638 0.0
H171 H 0.19661 0.25213 0.88097 0.0
H172 H 0.33039 0.37574 0.87611 0.0
H173 H 0.03628 0.14081 0.81655 0.0
H174 H 0.12549 0.08537 0.91829 0.0
H175 H 0.25162 0.12291 0.94702 0.0
H176 H 0.38463 0.1417 0.88576 0.0
H177 H 0.25905 0.1032 0.85673 0.0
C178 C 0.77971 0.80452 0.88369 0.0
C179 C 0.73736 0.74892 0.86386 0.0
C180 C 0.85525 0.87569 0.88089 0.0
C181 C 0.88949 0.89195 0.85828 0.0
C182 C 0.84999 0.83355 0.83904 0.0
C183 C 0.77399 0.7627 0.84174 0.0
C184 C 0.96375 0.97229 0.85441 0.0
C185 C 0.0354 -0.00339 0.87099 0.0
C186 C 0.96382 0.02489 0.83457 0.0
C187 C 0.88872 0.00418 0.81714 0.0
C188 C 0.89062 -0.00044 0.7915 0.0
C189 C 0.81937 0.978 0.77509 0.0
C190 C 0.74594 0.96137 0.7841 0.0
C191 C 0.74375 0.96677 0.80952 0.0
C192 C 0.81485 0.98843 0.826 0.0
C193 C 0.29128 0.2918 0.81855 0.0
C194 C 0.33425 0.34741 0.83834 0.0
C195 C 0.21587 0.22069 0.82149 0.0
C196 C 0.18229 0.20447 0.84421 0.0
C197 C 0.22251 0.26281 0.86346 0.0
C198 C 0.29847 0.33356 0.86061 0.0
C199 C 0.10793 0.12427 0.84815 0.0
C200 C 0.03625 0.09996 0.83158 0.0
C201 C 0.10786 0.07163 0.86798 0.0
C202 C 0.18307 0.09217 0.88534 0.0
C203 C 0.18154 0.09703 0.91098 0.0
C204 C 0.25295 0.11859 0.92731 0.0
C205 C 0.32616 0.13496 0.91821 0.0
C206 C 0.32797 0.12928 0.89278 0.0
C207 C 0.2567 0.10762 0.87638 0.0
H208 H 0.38145 0.15191 0.93087 0.0
H209 H 0.69079 0.94445 0.77137 0.0
H210 H 0.26623 0.49823 0.91753 0.0
H211 H 0.23547 0.5196 0.95822 0.0
H212 H 0.42409 0.77611 0.95632 0.0
H213 H 0.45396 0.75565 0.9156 0.0
H214 H 0.44466 0.69188 0.99861 0.0
H215 H 0.23258 0.72933 0.95144 0.0
H216 H 0.1084 0.69412 0.92217 0.0
H217 H 0.96252 0.48484 0.96675 0.0
H218 H 0.08621 0.5176 0.996 0.0
H219 H 0.21508 0.75774 0.09954 0.0
H220 H 0.25371 0.76781 0.05748 0.0
H221 H 0.32789 0.58571 0.07561 0.0
H222 H 0.2899 0.5759 0.11772 0.0
H223 H 0.18018 0.64353 0.0246 0.0
H224 H 0.47332 0.61288 0.03723 0.0
H225 H 0.59754 0.65245 0.06692 0.0
H226 H 0.58152 0.85656 0.09183 0.0
H227 H 0.45807 0.81903 0.06199 0.0
C228 C 0.29923 0.55967 0.92546 0.0
C229 C 0.36239 0.62529 0.9134 0.0
C230 C 0.28187 0.57173 0.94873 0.0
C231 C 0.32798 0.64932 0.96033 0.0
C232 C 0.3881 0.71571 0.94772 0.0
C233 C 0.40464 0.704 0.92438 0.0
C234 C 0.31862 0.65995 0.98637 0.0
C235 C 0.38679 0.68145 1.00432 0.0
C236 C 0.24321 0.64646 0.99375 0.0
C237 C 0.16919 0.62524 0.97573 0.0
C238 C 0.1744 0.67499 0.9548 0.0
C239 C 0.10396 0.65562 0.93825 0.0
C240 C 0.0277 0.58706 0.94253 0.0
C241 C 0.0217 0.53772 0.96339 0.0
C242 C 0.092 0.55662 0.97995 0.0
C243 C 0.24195 0.72172 0.09478 0.0
C244 C 0.24981 0.66627 0.11192 0.0
C245 C 0.26339 0.72702 0.07068 0.0
C246 C 0.29372 0.67755 0.06336 0.0
C247 C 0.30557 0.62522 0.08088 0.0
C248 C 0.28392 0.61973 0.10496 0.0
C249 C 0.30588 0.67529 0.03694 0.0
C250 C 0.23807 0.65444 0.01893 0.0
C251 C 0.38145 0.68914 0.02951 0.0
C252 C 0.45593 0.71261 0.0475 0.0
C253 C 0.49651 0.66641 0.04895 0.0
C254 C 0.5668 0.68848 0.06584 0.0
C255 C 0.59729 0.75686 0.08133 0.0
C256 C 0.55769 0.80344 0.07991 0.0
C257 C 0.48746 0.78171 0.06302 0.0
H258 H 0.65167 0.77383 0.09441 0.0
H259 H 0.97319 0.57236 0.92974 0.0
H260 H 0.49572 0.03732 0.42756 0.0
H261 H 0.52812 0.0955 0.38641 0.0
H262 H 0.68339 0.33819 0.41845 0.0
H263 H 0.64967 0.28001 0.46008 0.0
H264 H 0.59444 0.33808 0.37276 0.0
H265 H 0.76673 0.22419 0.40686 0.0
H266 H 0.78919 0.11322 0.42583 0.0
H267 H 0.65382 0.95964 0.36203 0.0
H268 H 0.6289 0.06896 0.34293 0.0
H269 H 0.85038 0.52756 0.27613 0.0
H270 H 0.78611 0.47289 0.3143 0.0
H271 H 0.67377 0.22514 0.28568 0.0
H272 H 0.74288 0.28019 0.24782 0.0
H273 H 0.73467 0.2254 0.32952 0.0
H274 H 0.5622 0.33231 0.29423 0.0
H275 H 0.52524 0.43362 0.27512 0.0
H276 H 0.64577 0.59031 0.33908 0.0
H277 H 0.68465 0.49059 0.35845 0.0
C278 C 0.53578 0.10336 0.42589 0.0
C279 C 0.57118 0.15408 0.44709 0.0
C280 C 0.55428 0.13646 0.40232 0.0
C281 C 0.60972 0.22079 0.39942 0.0
C282 C 0.64086 0.27276 0.42034 0.0
C283 C 0.62155 0.23959 0.44407 0.0
C284 C 0.63971 0.25273 0.37485 0.0
C285 C 0.62607 0.31443 0.36335 0.0
C286 C 0.67841 0.21956 0.36229 0.0
C287 C 0.69537 0.15461 0.37355 0.0
C288 C 0.74132 0.16659 0.39694 0.0
C289 C 0.75443 0.10393 0.40773 0.0
C290 C 0.72274 0.02934 0.39518 0.0
C291 C 0.67814 0.01736 0.37177 0.0
C292 C 0.66451 0.07965 0.36095 0.0
C293 C 0.81098 0.46143 0.2778 0.0
C294 C 0.80139 0.40802 0.25899 0.0
C295 C 0.77361 0.43016 0.29964 0.0
C296 C 0.72361 0.34472 0.3029 0.0
C297 C 0.7119 0.29131 0.28369 0.0
C298 C 0.75097 0.32266 0.262 0.0
C299 C 0.68935 0.31122 0.32704 0.0
C300 C 0.70263 0.24921 0.33864 0.0
C301 C 0.64915 0.34333 0.33947 0.0
C302 C 0.62706 0.40421 0.32769 0.0
C303 C 0.58159 0.38874 0.30413 0.0
C304 C 0.56015 0.44584 0.29327 0.0
C305 C 0.58333 0.51845 0.30585 0.0
C306 C 0.62798 0.53411 0.32934 0.0
C307 C 0.64969 0.47728 0.34027 0.0
H308 H 0.56653 0.5625 0.29744 0.0
H309 H 0.73285 0.98087 0.40356 0.0
H310 H 0.4648 0.73252 0.79249 0.0
H311 H 0.45314 0.78132 0.74989 0.0
H312 H 0.4337 0.56175 0.72113 0.0
H313 H 0.44855 0.51518 0.76336 0.0
H314 H 0.55016 0.68927 0.70201 0.0
H315 H 0.2701 0.60345 0.71331 0.0
H316 H 0.15632 0.59562 0.73383 0.0
H317 H 0.25694 0.85694 0.72495 0.0
H318 H 0.37207 0.86656 0.70467 0.0
H319 H 0.50275 0.78339 0.57406 0.0
H320 H 0.47795 0.71558 0.61463 0.0
H321 H 0.49553 0.93081 0.64581 0.0
H322 H 0.51959 -0.00158 0.60566 0.0
H323 H 0.37365 0.80042 0.66299 0.0
H324 H 0.65976 0.88384 0.65422 0.0
H325 H 0.77454 0.88837 0.63505 0.0
H326 H 0.65861 0.62445 0.63956 0.0
H327 H 0.54304 0.61835 0.65864 0.0
C328 C 0.45548 0.69389 0.77698 0.0
C329 C 0.45738 0.62022 0.78105 0.0
C330 C 0.44891 0.72168 0.75267 0.0
C331 C 0.44271 0.67528 0.73221 0.0
C332 C 0.43897 0.59897 0.73651 0.0
C333 C 0.44699 0.57215 0.76064 0.0
C334 C 0.44935 0.70936 0.70657 0.0
C335 C 0.51048 0.71217 0.69336 0.0
C336 C 0.3991 0.74128 0.69541 0.0
C337 C 0.33019 0.73583 0.70769 0.0
C338 C 0.26841 0.65938 0.71593 0.0
C339 C 0.20357 0.65459 0.72748 0.0
C340 C 0.19952 0.72577 0.73075 0.0
C341 C 0.26023 0.80187 0.72244 0.0
C342 C 0.32525 0.80702 0.71089 0.0
C343 C 0.5017 0.81638 0.58959 0.0
C344 C 0.51383 0.89662 0.58654 0.0
C345 C 0.48776 0.77764 0.61281 0.0
C346 C 0.48631 0.81865 0.63347 0.0
C347 C 0.49701 0.89808 0.63029 0.0
C348 C 0.51104 0.93678 0.60721 0.0
C349 C 0.47445 0.77986 0.6585 0.0
C350 C 0.41278 0.77671 0.67163 0.0
C351 C 0.52389 0.74695 0.66962 0.0
C352 C 0.59233 0.75063 0.65756 0.0
C353 C 0.65838 0.82677 0.65088 0.0
C354 C 0.72368 0.82961 0.64011 0.0
C355 C 0.7237 0.75672 0.63606 0.0
C356 C 0.65828 0.6808 0.64262 0.0
C357 C 0.59301 0.67764 0.65346 0.0
H358 H 0.77466 0.75899 0.62801 0.0
H359 H 0.14924 0.72192 0.73968 0.0
H360 H 0.49679 0.38525 0.9288 0.0
H361 H 0.53941 0.37648 0.97275 0.0
H362 H 0.78683 0.57424 0.96302 0.0
H363 H 0.74511 0.57893 0.91868 0.0
H364 H 0.8031 0.48255 0.99513 0.0
H365 H 0.62976 0.60095 0.98617 0.0
H366 H 0.50617 0.61356 0.97279 0.0
H367 H 0.35857 0.39849 1.01508 0.0
H368 H 0.48095 0.38376 0.02842 0.0
H369 H 0.92381 0.64733 0.11445 0.0
H370 H 0.85032 0.62921 0.073 0.0
H371 H 0.69143 0.37107 0.08786 0.0
H372 H 0.76528 0.389 0.12984 0.0
H373 H 0.6246 0.48576 0.05491 0.0
H374 H 0.82687 0.38159 0.06095 0.0
H375 H 0.96647 0.40778 0.07753 0.0
H376 H 0.07532 0.64651 0.04304 0.0
H377 H 0.93682 0.62075 0.02586 0.0
C378 C 0.56082 0.42517 0.936 0.0
C379 C 0.61791 0.4825 0.92046 0.0
C380 C 0.58492 0.42103 0.96119 0.0
C381 C 0.66573 0.47655 0.97154 0.0
C382 C 0.72397 0.53091 0.95565 0.0
C383 C 0.70038 0.53339 0.93026 0.0
C384 C 0.68868 0.48003 0.99893 0.0
C385 C 0.76345 0.48291 1.00801 0.0
C386 C 0.63832 0.48219 1.01611 0.0
C387 C 0.56436 0.49056 1.00801 0.0
C388 C 0.57078 0.55585 0.99243 0.0
C389 C 0.50097 0.56344 0.98486 0.0
C390 C 0.42452 0.50657 0.99296 0.0
C391 C 0.41778 0.44224 1.00873 0.0
C392 C 0.48734 0.43425 1.0163 0.0
C393 C 0.87154 0.58714 0.10921 0.0
C394 C 0.85046 0.51934 0.12524 0.0
C395 C 0.82957 0.57702 0.08555 0.0
C396 C 0.76606 0.49882 0.07738 0.0
C397 C 0.74014 0.43202 0.09397 0.0
C398 C 0.78208 0.44229 0.1179 0.0
C399 C 0.73684 0.48596 0.05058 0.0
C400 C 0.66207 0.48275 0.04175 0.0
C401 C 0.78855 0.48724 0.03352 0.0
C402 C 0.87178 0.49906 0.04203 0.0
C403 C 0.88081 0.43915 0.05667 0.0
C404 C 0.95976 0.45387 0.06614 0.0
C405 C 0.02995 0.52845 0.06115 0.0
C406 C 0.02128 0.58818 0.04656 0.0
C407 C 0.94263 0.57337 0.03683 0.0
H408 H 0.09096 0.54014 0.06868 0.0
H409 H 0.37061 0.51261 0.98717 0.0
H410 H 0.13486 0.47241 0.26554 0.0
H411 H 0.21588 0.51051 0.306 0.0
H412 H 0.38415 0.74996 0.2778 0.0
H413 H 0.30267 0.7122 0.23687 0.0
H414 H 0.45823 0.67232 0.31559 0.0
H415 H 0.24433 0.74754 0.30243 0.0
H416 H 0.10172 0.71732 0.28879 0.0
H417 H 0.00846 0.5234 0.34273 0.0
H418 H 0.15054 0.55154 0.35638 0.0
H419 H 0.59518 0.8935 0.43046 0.0
H420 H 0.55291 0.83848 0.38831 0.0
H421 H 0.33275 0.62959 0.41276 0.0
H422 H 0.37316 0.68694 0.4548 0.0
H423 H 0.28958 0.69236 0.37553 0.0
H424 H 0.49937 0.61554 0.39002 0.0
H425 H 0.639 0.63568 0.40258 0.0
H426 H 0.73816 0.82317 0.34705 0.0
H427 H 0.59919 0.80459 0.33428 0.0
C428 C 0.1901 0.53264 0.2677 0.0
C429 C 0.21161 0.58987 0.2481 0.0
C430 C 0.23653 0.5541 0.29084 0.0
C431 C 0.30526 0.6333 0.29494 0.0
C432 C 0.33126 0.68843 0.27494 0.0
C433 C 0.28461 0.66684 0.2516 0.0
C434 C 0.34138 0.66127 0.32074 0.0
C435 C 0.42213 0.67785 0.32872 0.0
C436 C 0.29319 0.66637 0.33789 0.0
C437 C 0.208 0.65121 0.33029 0.0
C438 C 0.19337 0.69815 0.31129 0.0
C439 C 0.11265 0.68141 0.30356 0.0
C440 C 0.04606 0.61837 0.31486 0.0
C441 C 0.06012 0.57217 0.33399 0.0
C442 C 0.14074 0.58854 0.34174 0.0
C443 C 0.53892 0.83464 0.42699 0.0
C444 C 0.48728 0.79444 0.44588 0.0
C445 C 0.51484 0.80302 0.40282 0.0
C446 C 0.43957 0.72956 0.39719 0.0
C447 C 0.39085 0.68658 0.41653 0.0
C448 C 0.41418 0.719 0.4406 0.0
C449 C 0.40699 0.70271 0.37092 0.0
C450 C 0.32639 0.68673 0.36267 0.0
C451 C 0.45535 0.69768 0.35368 0.0
C452 C 0.539 0.70913 0.36134 0.0
C453 C 0.55106 0.66147 0.38061 0.0
C454 C 0.63006 0.67251 0.38774 0.0
C455 C 0.69746 0.73086 0.37568 0.0
C456 C 0.68593 0.77807 0.35639 0.0
C457 C 0.60703 0.76717 0.34916 0.0
H458 H 0.75855 0.73929 0.38122 0.0
H459 H 0.9836 0.60544 0.30885 0.0
H460 H 0.7982 0.58106 0.7812 0.0
H461 H 0.81197 0.54789 0.73966 0.0
H462 H 0.61054 0.29912 0.74732 0.0
H463 H 0.60133 0.3303 0.7892 0.0
H464 H 0.70377 0.29013 0.72051 0.0
H465 H 0.59149 0.47441 0.71928 0.0
H466 H 0.59834 0.60386 0.72995 0.0
H467 H 0.81357 0.74308 0.69106 0.0
H468 H 0.80898 0.6144 0.68058 0.0
H469 H 0.49508 0.18062 0.60001 0.0
H470 H 0.52993 0.23772 0.64197 0.0
H471 H 0.77371 0.4201 0.62388 0.0
H472 H 0.73991 0.36174 0.58189 0.0
H473 H 0.68157 0.47466 0.65435 0.0
H474 H 0.776 0.27868 0.65157 0.0
H475 H 0.76142 0.14473 0.64204 0.0
H476 H 0.56452 0.02146 0.68869 0.0
H477 H 0.57679 0.1546 0.69812 0.0
C478 C 0.75903 0.5186 0.77427 0.0
C479 C 0.69834 0.45844 0.78835 0.0
C480 C 0.76597 0.49993 0.75036 0.0
C481 C 0.71012 0.42177 0.73981 0.0
C482 C 0.65406 0.36012 0.75475 0.0
C483 C 0.64884 0.37802 0.77883 0.0
C484 C 0.70473 0.40482 0.7129 0.0
C485 C 0.6986 0.33056 0.70615 0.0
C486 C 0.69938 0.45792 0.69386 0.0
C487 C 0.70045 0.53494 0.6994 0.0
C488 C 0.64038 0.53267 0.71306 0.0
C489 C 0.64393 0.60589 0.7191 0.0
C490 C 0.70644 0.68169 0.71123 0.0
C491 C 0.76545 0.68436 0.69725 0.0
C492 C 0.76239 0.61131 0.69124 0.0
C493 C 0.55546 0.23407 0.60475 0.0
C494 C 0.61486 0.26678 0.58771 0.0
C495 C 0.57539 0.26632 0.62877 0.0
C496 C 0.65458 0.33257 0.63603 0.0
C497 C 0.7123 0.3689 0.61858 0.0
C498 C 0.69287 0.33566 0.59464 0.0
C499 C 0.67829 0.35933 0.66235 0.0
C500 C 0.68779 0.43511 0.66885 0.0
C501 C 0.68491 0.30691 0.6812 0.0
C502 C 0.67686 0.22662 0.67537 0.0
C503 C 0.72894 0.22295 0.65957 0.0
C504 C 0.72123 0.14719 0.65423 0.0
C505 C 0.66215 0.0747 0.66476 0.0
C506 C 0.61035 0.07772 0.68057 0.0
C507 C 0.61764 0.15332 0.68591 0.0
H508 H 0.65666 0.01622 0.66072 0.0
H509 H 0.70896 0.73831 0.71587 0.0
loop_
_geom_bond_atom_site_label_1
_geom_bond_atom_site_label_2
_geom_bond_distance
_geom_bond_site_symmetry_2
_ccdc_geom_bond_type
Dy0 O4 2.398 . S
Dy0 O5 2.491 . S
Dy0 O6 2.403 . S
Dy0 O7 2.664 1_655 S
Dy0 O11 2.326 1_655 S
Dy0 O15 2.310 . S
Dy0 O16 2.351 . S
C1 O12 1.185 . S
C1 O13 1.355 . S
C2 O4 1.185 . S
C2 O5 1.355 . S
Dy3 O7 2.310 . S
Dy3 O10 2.351 . S
Dy3 O12 2.398 . S
Dy3 O13 2.491 . S
Dy3 O14 2.403 . S
Dy3 O15 2.664 1_455 S
Dy3 O17 2.326 1_455 S
O4 Dy0 2.398 . S
O4 C2 1.185 . S
O5 Dy0 2.491 . S
O5 C2 1.355 . S
O6 Dy0 2.403 . S
O6 C8 1.254 . S
O7 Dy0 2.664 1_455 S
O7 Dy3 2.310 . S
O7 C8 1.268 1_455 S
C8 O6 1.254 . S
C8 O7 1.268 1_655 S
C9 O14 1.254 . S
C9 O15 1.268 1_455 S
O10 Dy3 2.351 . S
O10 C18 1.249 . S
O11 Dy0 2.326 1_455 S
O11 C18 1.267 . S
O12 C1 1.185 . S
O12 Dy3 2.398 . S
O13 C1 1.355 . S
O13 Dy3 2.491 . S
O14 Dy3 2.403 . S
O14 C9 1.254 . S
O15 Dy0 2.310 . S
O15 Dy3 2.664 1_655 S
O15 C9 1.268 1_655 S
O16 Dy0 2.351 . S
O16 C19 1.249 . S
O17 Dy3 2.326 1_655 S
O17 C19 1.267 . S
C18 O10 1.249 . S
C18 O11 1.267 . S
C19 O16 1.249 . S
C19 O17 1.267 . S
Dy20 O24 2.398 . S
Dy20 O25 2.491 . S
Dy20 O26 2.403 . S
Dy20 O27 2.664 1_545 S
Dy20 O31 2.326 1_545 S
Dy20 O35 2.310 . S
Dy20 O36 2.351 . S
C21 O32 1.185 . S
C21 O33 1.355 . S
C22 O24 1.185 . S
C22 O25 1.355 . S
Dy23 O27 2.310 . S
Dy23 O30 2.351 . S
Dy23 O32 2.398 . S
Dy23 O33 2.491 . S
Dy23 O34 2.403 . S
Dy23 O35 2.664 1_565 S
Dy23 O37 2.326 1_565 S
O24 Dy20 2.398 . S
O24 C22 1.185 . S
O25 Dy20 2.491 . S
O25 C22 1.355 . S
O26 Dy20 2.403 . S
O26 C28 1.254 . S
O27 Dy20 2.664 1_565 S
O27 Dy23 2.310 . S
O27 C28 1.268 1_565 S
C28 O26 1.254 . S
C28 O27 1.268 1_545 S
C29 O34 1.254 . S
C29 O35 1.268 1_565 S
O30 Dy23 2.351 . S
O30 C38 1.249 . S
O31 Dy20 2.326 1_565 S
O31 C38 1.267 . S
O32 C21 1.185 . S
O32 Dy23 2.398 . S
O33 C21 1.355 . S
O33 Dy23 2.491 . S
O34 Dy23 2.403 . S
O34 C29 1.254 . S
O35 Dy20 2.310 . S
O35 Dy23 2.664 1_545 S
O35 C29 1.268 1_545 S
O36 Dy20 2.351 . S
O36 C39 1.249 . S
O37 Dy23 2.326 1_545 S
O37 C39 1.267 . S
C38 O30 1.249 . S
C38 O31 1.267 . S
C39 O36 1.249 . S
C39 O37 1.267 . S
Dy40 O44 2.398 . S
Dy40 O45 2.491 . S
Dy40 O46 2.403 . S
Dy40 O47 2.664 . S
Dy40 O51 2.326 . S
Dy40 O55 2.310 . S
Dy40 O56 2.351 . S
C41 O52 1.185 . S
C41 O53 1.355 . S
C42 O44 1.185 . S
C42 O45 1.355 . S
Dy43 O47 2.310 . S
Dy43 O50 2.351 . S
Dy43 O52 2.398 . S
Dy43 O53 2.491 . S
Dy43 O54 2.403 . S
Dy43 O55 2.664 . S
Dy43 O57 2.326 . S
O44 Dy40 2.398 . S
O44 C42 1.185 . S
O45 Dy40 2.491 . S
O45 C42 1.355 . S
O46 Dy40 2.403 . S
O46 C48 1.254 . S
O47 Dy40 2.664 . S
O47 Dy43 2.310 . S
O47 C48 1.268 . S
C48 O46 1.254 . S
C48 O47 1.268 . S
C49 O54 1.254 . S
C49 O55 1.268 . S
O50 Dy43 2.351 . S
O50 C58 1.249 . S
O51 Dy40 2.326 . S
O51 C58 1.267 . S
O52 C41 1.185 . S
O52 Dy43 2.398 . S
O53 C41 1.355 . S
O53 Dy43 2.491 . S
O54 Dy43 2.403 . S
O54 C49 1.254 . S
O55 Dy40 2.310 . S
O55 Dy43 2.664 . S
O55 C49 1.268 . S
O56 Dy40 2.351 . S
O56 C59 1.249 . S
O57 Dy43 2.326 . S
O57 C59 1.267 . S
C58 O50 1.249 . S
C58 O51 1.267 . S
C59 O56 1.249 . S
C59 O57 1.267 . S
H60 C78 0.951 . S
H61 C80 0.951 . S
H62 C82 0.950 . S
H63 C83 0.950 . S
H64 C85 0.950 . S
H65 C88 0.950 . S
H66 C89 0.950 . S
H67 C91 0.950 . S
H68 C92 0.950 . S
H69 C93 0.951 . S
H70 C95 0.951 . S
H71 C97 0.950 . S
H72 C98 0.950 . S
H73 C100 0.950 . S
H74 C103 0.950 . S
H75 C104 0.950 . S
H76 C106 0.950 . S
H77 C107 0.950 . S
C78 H60 0.951 . S
C78 C79 1.366 . S
C78 C80 1.388 . S
C79 C78 1.366 . S
C79 C83 1.385 1_455 S
C80 H61 0.951 . S
C80 C78 1.388 . S
C80 C81 1.366 . S
C81 C80 1.366 . S
C81 C82 1.414 1_455 S
C81 C84 1.498 . S
C82 H62 0.950 . S
C82 C81 1.414 1_655 S
C82 C83 1.374 . S
C83 H63 0.950 . S
C83 C79 1.385 1_655 S
C83 C82 1.374 . S
C84 C81 1.498 . S
C84 C85 1.373 1_455 S
C84 C86 1.389 1_565 S
C85 H64 0.950 . S
C85 C84 1.373 1_655 S
C85 C101 1.377 1_565 S
C86 C84 1.389 1_545 S
C86 C87 1.524 . S
C86 C100 1.377 . S
C87 C86 1.524 . S
C87 C88 1.397 1_545 S
C87 C92 1.363 . S
C88 H65 0.950 . S
C88 C87 1.397 1_565 S
C88 C89 1.334 . S
C89 H66 0.950 . S
C89 C88 1.334 . S
C89 C90 1.287 1_565 S
C90 C89 1.287 1_545 S
C90 C91 1.524 . S
C90 H109 0.913 . S
C91 H67 0.950 . S
C91 C90 1.524 . S
C91 C92 1.415 . S
C92 H68 0.950 . S
C92 C87 1.363 . S
C92 C91 1.415 . S
C93 H69 0.951 . S
C93 C94 1.373 . S
C93 C95 1.388 . S
C94 C93 1.373 . S
C94 C98 1.369 1_655 S
C95 H70 0.951 . S
C95 C93 1.388 . S
C95 C96 1.366 . S
C96 C95 1.366 . S
C96 C97 1.414 1_655 S
C96 C99 1.498 1_655 S
C97 H71 0.950 . S
C97 C96 1.414 1_455 S
C97 C98 1.374 . S
C98 H72 0.950 . S
C98 C94 1.369 1_455 S
C98 C97 1.374 . S
C99 C96 1.498 1_455 S
C99 C100 1.373 . S
C99 C101 1.389 1_455 S
C100 H73 0.950 . S
C100 C86 1.377 . S
C100 C99 1.373 . S
C101 C85 1.377 1_545 S
C101 C99 1.389 1_655 S
C101 C102 1.524 . S
C102 C101 1.524 . S
C102 C103 1.397 . S
C102 C107 1.363 1_545 S
C103 H74 0.950 . S
C103 C102 1.397 . S
C103 C104 1.334 . S
C104 H75 0.950 . S
C104 C103 1.334 . S
C104 C105 1.287 . S
C105 C104 1.287 . S
C105 C106 1.524 1_545 S
C105 H108 0.999 . S
C106 H76 0.950 . S
C106 C105 1.524 1_565 S
C106 C107 1.415 . S
C107 H77 0.950 . S
C107 C102 1.363 1_565 S
C107 C106 1.415 . S
H108 C105 0.999 . S
H109 C90 0.913 . S
H110 C128 0.951 . S
H111 C130 0.951 . S
H112 C132 0.950 . S
H113 C133 0.950 . S
H114 C135 0.950 . S
H115 C138 0.950 . S
H116 C139 0.950 . S
H117 C141 0.950 . S
H118 C142 0.950 . S
H119 C143 0.951 . S
H120 C145 0.951 . S
H121 C147 0.950 . S
H122 C148 0.950 . S
H123 C150 0.950 . S
H124 C153 0.950 . S
H125 C154 0.950 . S
H126 C156 0.950 . S
H127 C157 0.950 1_455 S
C128 H110 0.951 . S
C128 C129 1.366 1_565 S
C128 C130 1.388 . S
C129 C128 1.366 1_545 S
C129 C133 1.385 . S
C130 H111 0.951 . S
C130 C128 1.388 . S
C130 C131 1.366 1_565 S
C131 C130 1.366 1_545 S
C131 C132 1.414 . S
C131 C134 1.499 . S
C132 H112 0.950 . S
C132 C131 1.414 . S
C132 C133 1.374 . S
C133 H113 0.950 . S
C133 C129 1.385 . S
C133 C132 1.374 . S
C134 C131 1.499 . S
C134 C135 1.373 1_545 S
C134 C136 1.389 . S
C135 H114 0.950 . S
C135 C134 1.373 1_565 S
C135 C151 1.382 . S
C136 C134 1.389 . S
C136 C137 1.524 . S
C136 C150 1.377 . S
C137 C136 1.524 . S
C137 C138 1.397 . S
C137 C142 1.363 . S
C138 H115 0.950 . S
C138 C137 1.397 . S
C138 C139 1.334 . S
C139 H116 0.950 . S
C139 C138 1.334 . S
C139 C140 1.287 . S
C140 C139 1.287 . S
C140 C141 1.524 . S
C140 H159 0.913 . S
C141 H117 0.950 . S
C141 C140 1.524 . S
C141 C142 1.415 . S
C142 H118 0.950 . S
C142 C137 1.363 . S
C142 C141 1.415 . S
C143 H119 0.951 . S
C143 C144 1.366 . S
C143 C145 1.388 . S
C144 C143 1.366 . S
C144 C148 1.385 1_545 S
C145 H120 0.951 . S
C145 C143 1.388 . S
C145 C146 1.366 1_545 S
C146 C145 1.366 1_565 S
C146 C147 1.414 . S
C146 C149 1.499 . S
C147 H121 0.950 . S
C147 C146 1.414 . S
C147 C148 1.374 . S
C148 H122 0.950 . S
C148 C144 1.385 1_565 S
C148 C147 1.374 . S
C149 C146 1.499 . S
C149 C150 1.373 1_665 S
C149 C151 1.387 1_655 S
C150 H123 0.950 . S
C150 C136 1.377 . S
C150 C149 1.373 1_445 S
C151 C135 1.382 . S
C151 C149 1.387 1_455 S
C151 C152 1.522 1_455 S
C152 C151 1.522 1_655 S
C152 C153 1.397 . S
C152 C157 1.363 . S
C153 H124 0.950 . S
C153 C152 1.397 . S
C153 C154 1.334 . S
C154 H125 0.950 . S
C154 C153 1.334 . S
C154 C155 1.287 . S
C155 C154 1.287 . S
C155 C156 1.524 . S
C155 H158 0.999 . S
C156 H126 0.950 . S
C156 C155 1.524 . S
C156 C157 1.415 . S
C157 H127 0.950 1_655 S
C157 C152 1.363 . S
C157 C156 1.415 . S
H158 C155 0.999 . S
H159 C140 0.913 . S
H160 C178 0.951 . S
H161 C180 0.951 . S
H162 C182 0.950 . S
H163 C183 0.950 . S
H164 C185 0.950 1_565 S
H165 C188 0.950 1_565 S
H166 C189 0.950 1_565 S
H167 C191 0.950 . S
H168 C192 0.950 . S
H169 C193 0.951 . S
H170 C195 0.951 . S
H171 C197 0.950 . S
H172 C198 0.950 . S
H173 C200 0.950 . S
H174 C203 0.950 . S
H175 C204 0.950 . S
H176 C206 0.950 . S
H177 C207 0.950 . S
C178 H160 0.951 . S
C178 C179 1.366 . S
C178 C180 1.388 . S
C179 C178 1.366 . S
C179 C183 1.385 . S
C180 H161 0.951 . S
C180 C178 1.388 . S
C180 C181 1.366 . S
C181 C180 1.366 . S
C181 C182 1.414 . S
C181 C184 1.499 1_565 S
C182 H162 0.950 . S
C182 C181 1.414 . S
C182 C183 1.374 . S
C183 H163 0.950 . S
C183 C179 1.385 . S
C183 C182 1.374 . S
C184 C181 1.499 1_545 S
C184 C185 1.373 1_655 S
C184 C186 1.389 1_655 S
C185 H164 0.950 1_545 S
C185 C184 1.373 1_455 S
C185 C201 1.377 . S
C186 C184 1.389 1_455 S
C186 C187 1.524 1_455 S
C186 C200 1.377 . S
C187 C186 1.524 1_655 S
C187 C188 1.397 . S
C187 C192 1.363 . S
C188 H165 0.950 1_545 S
C188 C187 1.397 . S
C188 C189 1.334 . S
C189 H166 0.950 1_545 S
C189 C188 1.334 . S
C189 C190 1.287 . S
C190 C189 1.287 . S
C190 C191 1.524 . S
C190 H209 0.913 . S
C191 H167 0.950 . S
C191 C190 1.524 . S
C191 C192 1.415 . S
C192 H168 0.950 . S
C192 C187 1.363 . S
C192 C191 1.415 . S
C193 H169 0.951 . S
C193 C194 1.366 . S
C193 C195 1.388 . S
C194 C193 1.366 . S
C194 C198 1.385 . S
C195 H170 0.951 . S
C195 C193 1.388 . S
C195 C196 1.366 . S
C196 C195 1.366 . S
C196 C197 1.414 . S
C196 C199 1.499 . S
C197 H171 0.950 . S
C197 C196 1.414 . S
C197 C198 1.374 . S
C198 H172 0.950 . S
C198 C194 1.385 . S
C198 C197 1.374 . S
C199 C196 1.499 . S
C199 C200 1.373 . S
C199 C201 1.389 . S
C200 H173 0.950 . S
C200 C186 1.377 . S
C200 C199 1.373 . S
C201 C185 1.377 . S
C201 C199 1.389 . S
C201 C202 1.524 . S
C202 C201 1.524 . S
C202 C203 1.397 . S
C202 C207 1.363 . S
C203 H174 0.950 . S
C203 C202 1.397 . S
C203 C204 1.334 . S
C204 H175 0.950 . S
C204 C203 1.334 . S
C204 C205 1.287 . S
C205 C204 1.287 . S
C205 C206 1.524 . S
C205 H208 0.999 . S
C206 H176 0.950 . S
C206 C205 1.524 . S
C206 C207 1.415 . S
C207 H177 0.950 . S
C207 C202 1.363 . S
C207 C206 1.415 . S
H208 C205 0.999 . S
H209 C190 0.913 . S
H210 C228 0.951 . S
H211 C230 0.951 . S
H212 C232 0.950 . S
H213 C233 0.950 . S
H214 C235 0.950 . S
H215 C238 0.950 . S
H216 C239 0.950 . S
H217 C241 0.950 . S
H218 C242 0.950 . S
H219 C243 0.951 . S
H220 C245 0.951 . S
H221 C247 0.950 . S
H222 C248 0.950 . S
H223 C250 0.952 . S
H224 C253 0.950 . S
H225 C254 0.950 . S
H226 C256 0.950 . S
H227 C257 0.950 . S
C228 H210 0.951 . S
C228 C229 1.366 . S
C228 C230 1.388 . S
C229 C228 1.366 . S
C229 C233 1.385 . S
C230 H211 0.951 . S
C230 C228 1.388 . S
C230 C231 1.366 . S
C231 C230 1.366 . S
C231 C232 1.414 . S
C231 C234 1.499 . S
C232 H212 0.950 . S
C232 C231 1.414 . S
C232 C233 1.374 . S
C233 H213 0.950 . S
C233 C229 1.385 . S
C233 C232 1.374 . S
C234 C231 1.499 . S
C234 C235 1.373 . S
C234 C236 1.389 . S
C235 H214 0.950 . S
C235 C234 1.373 . S
C235 C251 1.377 1_556 S
C236 C234 1.389 . S
C236 C237 1.524 . S
C236 C250 1.368 1_556 S
C237 C236 1.524 . S
C237 C238 1.397 . S
C237 C242 1.363 . S
C238 H215 0.950 . S
C238 C237 1.397 . S
C238 C239 1.334 . S
C239 H216 0.950 . S
C239 C238 1.334 . S
C239 C240 1.287 . S
C240 C239 1.287 . S
C240 C241 1.524 . S
C240 H259 0.913 . S
C241 H217 0.950 . S
C241 C240 1.524 . S
C241 C242 1.415 . S
C242 H218 0.950 . S
C242 C237 1.363 . S
C242 C241 1.415 . S
C243 H219 0.951 . S
C243 C244 1.366 . S
C243 C245 1.388 . S
C244 C243 1.366 . S
C244 C248 1.385 . S
C245 H220 0.951 . S
C245 C243 1.388 . S
C245 C246 1.366 . S
C246 C245 1.366 . S
C246 C247 1.414 . S
C246 C249 1.499 . S
C247 H221 0.950 . S
C247 C246 1.414 . S
C247 C248 1.374 . S
C248 H222 0.950 . S
C248 C244 1.385 . S
C248 C247 1.374 . S
C249 C246 1.499 . S
C249 C250 1.381 . S
C249 C251 1.389 . S
C250 H223 0.952 . S
C250 C236 1.368 1_554 S
C250 C249 1.381 . S
C251 C235 1.377 1_554 S
C251 C249 1.389 . S
C251 C252 1.524 . S
C252 C251 1.524 . S
C252 C253 1.397 . S
C252 C257 1.363 . S
C253 H224 0.950 . S
C253 C252 1.397 . S
C253 C254 1.334 . S
C254 H225 0.950 . S
C254 C253 1.334 . S
C254 C255 1.287 . S
C255 C254 1.287 . S
C255 C256 1.524 . S
C255 H258 0.999 . S
C256 H226 0.950 . S
C256 C255 1.524 . S
C256 C257 1.415 . S
C257 H227 0.950 . S
C257 C252 1.363 . S
C257 C256 1.415 . S
H258 C255 0.999 . S
H259 C240 0.913 . S
H260 C278 0.951 . S
H261 C280 0.951 . S
H262 C282 0.950 . S
H263 C283 0.950 . S
H264 C285 0.950 . S
H265 C288 0.950 . S
H266 C289 0.950 . S
H267 C291 0.950 . S
H268 C292 0.950 . S
H269 C293 0.951 . S
H270 C295 0.951 . S
H271 C297 0.950 . S
H272 C298 0.950 . S
H273 C300 0.950 . S
H274 C303 0.950 . S
H275 C304 0.950 . S
H276 C306 0.950 . S
H277 C307 0.950 . S
C278 H260 0.951 . S
C278 C279 1.366 . S
C278 C280 1.388 . S
C279 C278 1.366 . S
C279 C283 1.385 . S
C280 H261 0.951 . S
C280 C278 1.388 . S
C280 C281 1.366 . S
C281 C280 1.366 . S
C281 C282 1.414 . S
C281 C284 1.499 . S
C282 H262 0.950 . S
C282 C281 1.414 . S
C282 C283 1.374 . S
C283 H263 0.950 . S
C283 C279 1.385 . S
C283 C282 1.374 . S
C284 C281 1.499 . S
C284 C285 1.373 . S
C284 C286 1.389 . S
C285 H264 0.950 . S
C285 C284 1.373 . S
C285 C301 1.377 . S
C286 C284 1.389 . S
C286 C287 1.524 . S
C286 C300 1.377 . S
C287 C286 1.524 . S
C287 C288 1.397 . S
C287 C292 1.363 . S
C288 H265 0.950 . S
C288 C287 1.397 . S
C288 C289 1.334 . S
C289 H266 0.950 . S
C289 C288 1.334 . S
C289 C290 1.287 . S
C290 C289 1.287 . S
C290 C291 1.524 1_545 S
C290 H309 0.913 1_545 S
C291 H267 0.950 . S
C291 C290 1.524 1_565 S
C291 C292 1.415 1_565 S
C292 H268 0.950 . S
C292 C287 1.363 . S
C292 C291 1.415 1_545 S
C293 H269 0.951 . S
C293 C294 1.366 . S
C293 C295 1.388 . S
C294 C293 1.366 . S
C294 C298 1.385 . S
C295 H270 0.951 . S
C295 C293 1.388 . S
C295 C296 1.366 . S
C296 C295 1.366 . S
C296 C297 1.414 . S
C296 C299 1.499 . S
C297 H271 0.950 . S
C297 C296 1.414 . S
C297 C298 1.374 . S
C298 H272 0.950 . S
C298 C294 1.385 . S
C298 C297 1.374 . S
C299 C296 1.499 . S
C299 C300 1.373 . S
C299 C301 1.389 . S
C300 H273 0.950 . S
C300 C286 1.377 . S
C300 C299 1.373 . S
C301 C285 1.377 . S
C301 C299 1.389 . S
C301 C302 1.524 . S
C302 C301 1.524 . S
C302 C303 1.397 . S
C302 C307 1.363 . S
C303 H274 0.950 . S
C303 C302 1.397 . S
C303 C304 1.334 . S
C304 H275 0.950 . S
C304 C303 1.334 . S
C304 C305 1.287 . S
C305 C304 1.287 . S
C305 C306 1.524 . S
C305 H308 0.999 . S
C306 H276 0.950 . S
C306 C305 1.524 . S
C306 C307 1.415 . S
C307 H277 0.950 . S
C307 C302 1.363 . S
C307 C306 1.415 . S
H308 C305 0.999 . S
H309 C290 0.913 1_565 S
H310 C328 0.951 . S
H311 C330 0.951 . S
H312 C332 0.950 . S
H313 C333 0.950 . S
H314 C335 0.950 . S
H315 C338 0.950 . S
H316 C339 0.950 . S
H317 C341 0.950 . S
H318 C342 0.950 . S
H319 C343 0.951 . S
H320 C345 0.951 . S
H321 C347 0.950 . S
H322 C348 0.950 . S
H323 C350 0.950 . S
H324 C353 0.950 . S
H325 C354 0.950 1_545 S
H326 C356 0.950 . S
H327 C357 0.950 . S
C328 H310 0.951 . S
C328 C329 1.366 . S
C328 C330 1.388 . S
C329 C328 1.366 . S
C329 C333 1.385 . S
C330 H311 0.951 . S
C330 C328 1.388 . S
C330 C331 1.366 . S
C331 C330 1.366 . S
C331 C332 1.414 . S
C331 C334 1.499 . S
C332 H312 0.950 . S
C332 C331 1.414 . S
C332 C333 1.374 . S
C333 H313 0.950 . S
C333 C329 1.385 . S
C333 C332 1.374 . S
C334 C331 1.499 . S
C334 C335 1.373 . S
C334 C336 1.389 . S
C335 H314 0.950 . S
C335 C334 1.373 . S
C335 C351 1.377 . S
C336 C334 1.389 . S
C336 C337 1.524 . S
C336 C350 1.377 . S
C337 C336 1.524 . S
C337 C338 1.397 . S
C337 C342 1.363 . S
C338 H315 0.950 . S
C338 C337 1.397 . S
C338 C339 1.334 . S
C339 H316 0.950 . S
C339 C338 1.334 . S
C339 C340 1.287 . S
C340 C339 1.287 . S
C340 C341 1.524 . S
C340 H359 0.913 . S
C341 H317 0.950 . S
C341 C340 1.524 . S
C341 C342 1.415 . S
C342 H318 0.950 . S
C342 C337 1.363 . S
C342 C341 1.415 . S
C343 H319 0.951 . S
C343 C344 1.366 . S
C343 C345 1.388 . S
C344 C343 1.366 . S
C344 C348 1.385 . S
C345 H320 0.951 . S
C345 C343 1.388 . S
C345 C346 1.366 . S
C346 C345 1.366 . S
C346 C347 1.414 . S
C346 C349 1.499 . S
C347 H321 0.950 . S
C347 C346 1.414 . S
C347 C348 1.374 . S
C348 H322 0.950 . S
C348 C344 1.385 . S
C348 C347 1.374 . S
C349 C346 1.499 . S
C349 C350 1.373 . S
C349 C351 1.389 . S
C350 H323 0.950 . S
C350 C336 1.377 . S
C350 C349 1.373 . S
C351 C335 1.377 . S
C351 C349 1.389 . S
C351 C352 1.524 . S
C352 C351 1.524 . S
C352 C353 1.397 . S
C352 C357 1.363 . S
C353 H324 0.950 . S
C353 C352 1.397 . S
C353 C354 1.334 . S
C354 H325 0.950 1_565 S
C354 C353 1.334 . S
C354 C355 1.287 . S
C355 C354 1.287 . S
C355 C356 1.524 . S
C355 H358 0.999 . S
C356 H326 0.950 . S
C356 C355 1.524 . S
C356 C357 1.415 . S
C357 H327 0.950 . S
C357 C352 1.363 . S
C357 C356 1.415 . S
H358 C355 0.999 . S
H359 C340 0.913 . S
H360 C378 0.951 . S
H361 C380 0.951 . S
H362 C382 0.950 . S
H363 C383 0.950 . S
H364 C385 0.950 . S
H365 C388 0.950 . S
H366 C389 0.950 . S
H367 C391 0.950 . S
H368 C392 0.950 1_554 S
H369 C393 0.951 . S
H370 C395 0.951 . S
H371 C397 0.950 . S
H372 C398 0.950 . S
H373 C400 0.950 . S
H374 C403 0.950 . S
H375 C404 0.950 . S
H376 C406 0.950 . S
H377 C407 0.950 1_556 S
C378 H360 0.951 . S
C378 C379 1.366 . S
C378 C380 1.388 . S
C379 C378 1.366 . S
C379 C383 1.385 . S
C380 H361 0.951 . S
C380 C378 1.388 . S
C380 C381 1.366 . S
C381 C380 1.366 . S
C381 C382 1.414 . S
C381 C384 1.499 . S
C382 H362 0.950 . S
C382 C381 1.414 . S
C382 C383 1.374 . S
C383 H363 0.950 . S
C383 C379 1.385 . S
C383 C382 1.374 . S
C384 C381 1.499 . S
C384 C385 1.373 . S
C384 C386 1.389 . S
C385 H364 0.950 . S
C385 C384 1.373 . S
C385 C401 1.377 1_556 S
C386 C384 1.389 . S
C386 C387 1.524 . S
C386 C400 1.377 1_556 S
C387 C386 1.524 . S
C387 C388 1.397 . S
C387 C392 1.363 . S
C388 H365 0.950 . S
C388 C387 1.397 . S
C388 C389 1.334 . S
C389 H366 0.950 . S
C389 C388 1.334 . S
C389 C390 1.287 . S
C390 C389 1.287 . S
C390 C391 1.524 . S
C390 H409 0.913 . S
C391 H367 0.950 . S
C391 C390 1.524 . S
C391 C392 1.415 . S
C392 H368 0.950 1_556 S
C392 C387 1.363 . S
C392 C391 1.415 . S
C393 H369 0.951 . S
C393 C394 1.366 . S
C393 C395 1.388 . S
C394 C393 1.366 . S
C394 C398 1.385 . S
C395 H370 0.951 . S
C395 C393 1.388 . S
C395 C396 1.366 . S
C396 C395 1.366 . S
C396 C397 1.414 . S
C396 C399 1.499 . S
C397 H371 0.950 . S
C397 C396 1.414 . S
C397 C398 1.374 . S
C398 H372 0.950 . S
C398 C394 1.385 . S
C398 C397 1.374 . S
C399 C396 1.499 . S
C399 C400 1.373 . S
C399 C401 1.389 . S
C400 H373 0.950 . S
C400 C386 1.377 1_554 S
C400 C399 1.373 . S
C401 C385 1.377 1_554 S
C401 C399 1.389 . S
C401 C402 1.524 . S
C402 C401 1.524 . S
C402 C403 1.397 . S
C402 C407 1.363 . S
C403 H374 0.950 . S
C403 C402 1.397 . S
C403 C404 1.334 1_655 S
C404 H375 0.950 . S
C404 C403 1.334 1_455 S
C404 C405 1.287 . S
C405 C404 1.287 . S
C405 C406 1.524 . S
C405 H408 0.999 . S
C406 H376 0.950 . S
C406 C405 1.524 . S
C406 C407 1.415 1_455 S
C407 H377 0.950 1_554 S
C407 C402 1.363 . S
C407 C406 1.415 1_655 S
H408 C405 0.999 . S
H409 C390 0.913 . S
H410 C428 0.951 . S
H411 C430 0.951 . S
H412 C432 0.950 . S
H413 C433 0.950 . S
H414 C435 0.950 . S
H415 C438 0.950 . S
H416 C439 0.950 . S
H417 C441 0.950 . S
H418 C442 0.950 . S
H419 C443 0.951 . S
H420 C445 0.951 . S
H421 C447 0.950 . S
H422 C448 0.950 . S
H423 C450 0.950 . S
H424 C453 0.950 . S
H425 C454 0.950 . S
H426 C456 0.950 . S
H427 C457 0.950 . S
C428 H410 0.951 . S
C428 C429 1.366 . S
C428 C430 1.388 . S
C429 C428 1.366 . S
C429 C433 1.385 . S
C430 H411 0.951 . S
C430 C428 1.388 . S
C430 C431 1.366 . S
C431 C430 1.366 . S
C431 C432 1.414 . S
C431 C434 1.499 . S
C432 H412 0.950 . S
C432 C431 1.414 . S
C432 C433 1.374 . S
C433 H413 0.950 . S
C433 C429 1.385 . S
C433 C432 1.374 . S
C434 C431 1.499 . S
C434 C435 1.373 . S
C434 C436 1.389 . S
C435 H414 0.950 . S
C435 C434 1.373 . S
C435 C451 1.377 . S
C436 C434 1.389 . S
C436 C437 1.524 . S
C436 C450 1.377 . S
C437 C436 1.524 . S
C437 C438 1.397 . S
C437 C442 1.363 . S
C438 H415 0.950 . S
C438 C437 1.397 . S
C438 C439 1.334 . S
C439 H416 0.950 . S
C439 C438 1.334 . S
C439 C440 1.287 . S
C440 C439 1.287 . S
C440 C441 1.524 . S
C440 H459 0.913 . S
C441 H417 0.950 . S
C441 C440 1.524 . S
C441 C442 1.415 . S
C442 H418 0.950 . S
C442 C437 1.363 . S
C442 C441 1.415 . S
C443 H419 0.951 . S
C443 C444 1.366 . S
C443 C445 1.388 . S
C444 C443 1.366 . S
C444 C448 1.385 . S
C445 H420 0.951 . S
C445 C443 1.388 . S
C445 C446 1.366 . S
C446 C445 1.366 . S
C446 C447 1.414 . S
C446 C449 1.499 . S
C447 H421 0.950 . S
C447 C446 1.414 . S
C447 C448 1.374 . S
C448 H422 0.950 . S
C448 C444 1.385 . S
C448 C447 1.374 . S
C449 C446 1.499 . S
C449 C450 1.373 . S
C449 C451 1.389 . S
C450 H423 0.950 . S
C450 C436 1.377 . S
C450 C449 1.373 . S
C451 C435 1.377 . S
C451 C449 1.389 . S
C451 C452 1.524 . S
C452 C451 1.524 . S
C452 C453 1.397 . S
C452 C457 1.363 . S
C453 H424 0.950 . S
C453 C452 1.397 . S
C453 C454 1.334 . S
C454 H425 0.950 . S
C454 C453 1.334 . S
C454 C455 1.287 . S
C455 C454 1.287 . S
C455 C456 1.524 . S
C455 H458 0.999 . S
C456 H426 0.950 . S
C456 C455 1.524 . S
C456 C457 1.415 . S
C457 H427 0.950 . S
C457 C452 1.363 . S
C457 C456 1.415 . S
H458 C455 0.999 . S
H459 C440 0.913 . S
H460 C478 0.951 . S
H461 C480 0.951 . S
H462 C482 0.950 . S
H463 C483 0.950 . S
H464 C485 0.950 . S
H465 C488 0.950 . S
H466 C489 0.950 . S
H467 C491 0.950 . S
H468 C492 0.950 . S
H469 C493 0.951 . S
H470 C495 0.951 . S
H471 C497 0.950 . S
H472 C498 0.950 . S
H473 C500 0.950 . S
H474 C503 0.950 . S
H475 C504 0.950 . S
H476 C506 0.950 . S
H477 C507 0.950 . S
C478 H460 0.951 . S
C478 C479 1.366 . S
C478 C480 1.388 . S
C479 C478 1.366 . S
C479 C483 1.385 . S
C480 H461 0.951 . S
C480 C478 1.388 . S
C480 C481 1.366 . S
C481 C480 1.366 . S
C481 C482 1.414 . S
C481 C484 1.499 . S
C482 H462 0.950 . S
C482 C481 1.414 . S
C482 C483 1.374 . S
C483 H463 0.950 . S
C483 C479 1.385 . S
C483 C482 1.374 . S
C484 C481 1.499 . S
C484 C485 1.373 . S
C484 C486 1.389 . S
C485 H464 0.950 . S
C485 C484 1.373 . S
C485 C501 1.377 . S
C486 C484 1.389 . S
C486 C487 1.524 . S
C486 C500 1.377 . S
C487 C486 1.524 . S
C487 C488 1.397 . S
C487 C492 1.363 . S
C488 H465 0.950 . S
C488 C487 1.397 . S
C488 C489 1.334 . S
C489 H466 0.950 . S
C489 C488 1.334 . S
C489 C490 1.287 . S
C490 C489 1.287 . S
C490 C491 1.524 . S
C490 H509 0.913 . S
C491 H467 0.950 . S
C491 C490 1.524 . S
C491 C492 1.415 . S
C492 H468 0.950 . S
C492 C487 1.363 . S
C492 C491 1.415 . S
C493 H469 0.951 . S
C493 C494 1.366 . S
C493 C495 1.388 . S
C494 C493 1.366 . S
C494 C498 1.385 . S
C495 H470 0.951 . S
C495 C493 1.388 . S
C495 C496 1.366 . S
C496 C495 1.366 . S
C496 C497 1.414 . S
C496 C499 1.499 . S
C497 H471 0.950 . S
C497 C496 1.414 . S
C497 C498 1.374 . S
C498 H472 0.950 . S
C498 C494 1.385 . S
C498 C497 1.374 . S
C499 C496 1.499 . S
C499 C500 1.373 . S
C499 C501 1.389 . S
C500 H473 0.950 . S
C500 C486 1.377 . S
C500 C499 1.373 . S
C501 C485 1.377 . S
C501 C499 1.389 . S
C501 C502 1.524 . S
C502 C501 1.524 . S
C502 C503 1.397 . S
C502 C507 1.363 . S
C503 H474 0.950 . S
C503 C502 1.397 . S
C503 C504 1.334 . S
C504 H475 0.950 . S
C504 C503 1.334 . S
C504 C505 1.287 . S
C505 C504 1.287 . S
C505 C506 1.524 . S
C505 H508 0.999 1_545 S
C506 H476 0.950 . S
C506 C505 1.524 . S
C506 C507 1.415 . S
C507 H477 0.950 . S
C507 C502 1.363 . S
C507 C506 1.415 . S
H508 C505 0.999 1_565 S
H509 C490 0.913 . S
C79 C8 1.067 1_455 S
C94 C9 1.071 1_655 S
C129 C29 1.088 1_545 S
C144 C28 1.088 . S
C179 C48 1.062 . S
C194 C49 1.062 . S
C229 C42 1.194 . S
C244 C1 1.178 . S
C279 C39 1.542 . S
C294 C2 1.538 . S
C329 C59 1.560 . S
C344 C38 1.538 . S
C379 C58 1.530 . S
C394 C19 1.553 . S
C429 C18 1.204 . S
C444 C21 1.201 . S
C479 C41 1.177 . S
C494 C22 1.191 . S
