# Generated by pormake.
# Topology rkf, (6)-cn, num edge types: 1
# Building blocks:
#     Node 0, Type 0, BuildingBlock: HISSIN_clean_sbu_0, # of connection points: 6
#     Node 1, Type 0, BuildingBlock: HISSIN_clean_sbu_0, # of connection points: 6
#     Node 2, Type 0, BuildingBlock: HISSIN_clean_sbu_0, # of connection points: 6
#     Node 3, Type 0, BuildingBlock: HISSIN_clean_sbu_0, # of connection points: 6
#     Node 4, Type 0, BuildingBlock: HISSIN_clean_sbu_0, # of connection points: 6
#     Node 5, Type 0, BuildingBlock: HISSIN_clean_sbu_0, # of connection points: 6
#     Edge 6, Type (0, 0), BuildingBlock: OJICUG_clean_linker_0, # of connection points: 2
#     Edge 7, Type (0, 0), BuildingBlock: OJICUG_clean_linker_0, # of connection points: 2
#     Edge 8, Type (0, 0), BuildingBlock: OJICUG_clean_linker_0, # of connection points: 2
#     Edge 9, Type (0, 0), BuildingBlock: OJICUG_clean_linker_0, # of connection points: 2
#     Edge 10, Type (0, 0), BuildingBlock: OJICUG_clean_linker_0, # of connection points: 2
#     Edge 11, Type (0, 0), BuildingBlock: OJICUG_clean_linker_0, # of connection points: 2
#     Edge 12, Type (0, 0), BuildingBlock: OJICUG_clean_linker_0, # of connection points: 2
#     Edge 13, Type (0, 0), BuildingBlock: OJICUG_clean_linker_0, # of connection points: 2
#     Edge 14, Type (0, 0), BuildingBlock: OJICUG_clean_linker_0, # of connection points: 2
#     Edge 15, Type (0, 0), BuildingBlock: OJICUG_clean_linker_0, # of connection points: 2
#     Edge 16, Type (0, 0), BuildingBlock: OJICUG_clean_linker_0, # of connection points: 2
#     Edge 17, Type (0, 0), BuildingBlock: OJICUG_clean_linker_0, # of connection points: 2
#     Edge 18, Type (0, 0), BuildingBlock: OJICUG_clean_linker_0, # of connection points: 2
#     Edge 19, Type (0, 0), BuildingBlock: OJICUG_clean_linker_0, # of connection points: 2
#     Edge 20, Type (0, 0), BuildingBlock: OJICUG_clean_linker_0, # of connection points: 2
#     Edge 21, Type (0, 0), BuildingBlock: OJICUG_clean_linker_0, # of connection points: 2
#     Edge 22, Type (0, 0), BuildingBlock: OJICUG_clean_linker_0, # of connection points: 2
#     Edge 23, Type (0, 0), BuildingBlock: OJICUG_clean_linker_0, # of connection points: 2
# Relax obj value: 1.027
# Max RMSD: 0.255
# Mean RMSD: 0.255
data_MOF--net-rkf--node1-HISSIN_clean_sbu_0--edge1-OJICUG_clean_linker_0
_symmetry_space_group_name_H-M    P1
_symmetry_Int_Tables_number       1
_symmetry_cell_setting            triclinic
loop_
_symmetry_equiv_pos_as_xyz
'x, y, z'
_cell_length_a     19.567828
_cell_length_b     19.728245
_cell_length_c     31.179943
_cell_angle_alpha  87.965475
_cell_angle_beta   89.000076
_cell_angle_gamma 120.19263
loop_
_atom_site_label
_atom_site_type_symbol
_atom_site_fract_x
_atom_site_fract_y
_atom_site_fract_z
_atom_type_partial_charge
Eu0 Eu 0.20403 0.04479 0.30989 0.0
Eu1 Eu 0.37877 0.18261 0.27325 0.0
C2 C 0.34151 0.01234 0.29834 0.0
C3 C 0.00537 0.85012 0.33081 0.0
C4 C 0.0263 0.80119 0.30984 0.0
C5 C 0.88157 0.73682 0.3558 0.0
C6 C -0.02382 0.71962 0.31353 0.0
C7 C -0.06869 0.81787 0.3518 0.0
C8 C 0.90521 0.68576 0.33904 0.0
C9 C 0.06108 0.93403 0.33404 0.0
O10 O 0.3138 0.134 1.21167 0.0
O11 O 0.21014 0.01707 1.24038 0.0
C12 C 0.25066 0.06425 1.20696 0.0
O13 O 0.19467 0.14903 0.28783 0.0
O14 O 0.49926 0.20567 0.28098 0.0
O15 O 0.47822 0.28398 1.23991 0.0
O16 O 0.31383 0.2437 1.25479 0.0
C17 C 0.23958 0.2163 0.26612 0.0
O18 O 0.23822 0.13 0.36223 0.0
O19 O 0.36744 0.21927 0.341 0.0
O20 O 0.35706 0.06086 0.26558 0.0
O21 O 0.12316 -0.04676 0.35671 0.0
O22 O 0.07768 -0.02193 0.29896 0.0
O23 O 0.29261 0.0084 0.32857 0.0
C24 C 0.56618 0.24792 1.2135 0.0
C25 C 0.63153 0.31142 1.19202 0.0
C26 C 0.53131 0.17825 1.14791 0.0
C27 C 0.64246 0.31038 1.14768 0.0
C28 C 0.52215 0.17819 1.19226 0.0
C29 C 0.58488 0.24834 1.12459 0.0
C30 C 0.52827 0.26132 1.25054 0.0
C31 C 0.30607 0.1936 0.36834 0.0
H32 H 0.08285 0.82572 0.29246 0.0
H33 H 0.82806 0.71537 0.37555 0.0
H34 H -0.00449 0.68345 0.29834 0.0
H35 H 0.91394 0.85527 0.36754 0.0
H36 H 0.66785 0.36503 1.20824 0.0
H37 H 0.4874 0.12738 1.13212 0.0
H38 H 0.68846 0.36289 1.13106 0.0
H39 H 0.47265 0.12744 1.20856 0.0
Eu40 Eu 0.24175 0.30496 0.62814 0.0
Eu41 Eu 0.25891 0.46281 0.58039 0.0
C42 C 0.40143 0.46205 0.62612 0.0
C43 C 0.25528 0.12496 0.65621 0.0
C44 C 0.32251 0.15255 0.62867 0.0
C45 C 0.27702 0.02244 0.68491 0.0
C46 C 0.36943 0.11761 0.63102 0.0
C47 C 0.23056 0.05746 0.68255 0.0
C48 C 0.35 0.05528 0.6613 0.0
C49 C 0.21725 0.17182 0.66203 0.0
O50 O 0.30278 0.41204 0.5276 0.0
O51 O 0.26402 0.29043 0.55955 0.0
C52 C 0.29163 0.33994 0.52598 0.0
O53 O 0.12657 0.30013 0.61584 0.0
O54 O 0.33954 0.58035 0.55275 0.0
O55 O 0.21418 0.54022 0.56113 0.0
O56 O 0.15796 0.36061 0.55045 0.0
C57 C 0.1068 0.30357 0.57635 0.0
O58 O 0.23314 0.37308 0.68238 0.0
O59 O 0.18752 0.443 0.64423 0.0
O60 O 0.35597 0.49294 0.6263 0.0
O61 O 0.26116 0.23926 0.6791 0.0
O62 O 0.17842 0.17695 0.62968 0.0
O63 O 0.37258 0.38837 0.61767 0.0
C64 C 0.28413 0.63036 0.5022 0.0
C65 C 0.21989 0.63881 0.49053 0.0
C66 C 0.34228 0.67634 0.42987 0.0
C67 C 0.21451 0.66115 0.4484 0.0
C68 C 0.34728 0.65321 0.47209 0.0
C69 C 0.27375 0.67629 0.41686 0.0
C70 C 0.28304 0.59567 0.5452 0.0
C71 C 0.19649 0.4135 0.68117 0.0
H72 H 0.34175 0.20446 0.60769 0.0
H73 H 0.25938 -0.02506 0.70888 0.0
H74 H 0.42421 0.14361 0.61185 0.0
H75 H 0.17868 0.03556 0.70386 0.0
H76 H 0.1714 0.6238 0.51339 0.0
H77 H 0.38993 0.68946 0.40685 0.0
H78 H 0.16036 0.65977 0.44013 0.0
H79 H 0.39902 0.64986 0.48049 0.0
Eu80 Eu 0.08256 0.3235 0.94684 0.0
Eu81 Eu 0.92141 0.32831 0.92949 0.0
C82 C 0.08348 0.4809 0.95453 0.0
C83 C 0.26223 0.29008 0.97144 0.0
C84 C 0.2944 0.24928 0.95133 0.0
C85 C 0.35563 0.32202 1.02773 0.0
C86 C 0.35782 0.24585 0.96893 0.0
C87 C 0.29247 0.32567 1.01 0.0
C88 C 0.39002 0.28334 1.00697 0.0
C89 C 0.20227 0.30009 0.9493 0.0
O90 O -0.01734 0.35114 0.86194 0.0
O91 O 0.10878 0.39265 0.88339 0.0
C92 C 0.05978 0.38421 0.8529 0.0
O93 O 0.00398 0.24295 0.8984 0.0
O94 O 0.84983 0.38455 0.93497 0.0
O95 O 0.80367 0.27395 0.90407 0.0
O96 O 0.89431 0.20264 0.93756 0.0
C97 C -0.06293 0.18483 0.91315 0.0
O98 O 0.00409 0.26357 1.0076 0.0
O99 O 0.91917 0.31212 1.00268 0.0
O100 O 0.02348 0.4521 0.92913 0.0
O101 O 0.12877 0.24298 0.95218 0.0
O102 O 0.20943 0.36964 0.94769 0.0
O103 O 0.10562 0.43612 0.97476 0.0
C104 C 0.77543 0.36548 0.87256 0.0
C105 C 0.70552 0.31607 0.85224 0.0
C106 C 0.82622 0.44831 0.80695 0.0
C107 C 0.69929 0.32841 0.80852 0.0
C108 C 0.83326 0.4349 0.85057 0.0
C109 C 0.76318 0.39068 0.78434 0.0
C110 C 0.79492 0.3341 0.91101 0.0
C111 C -0.05159 0.27474 1.02482 0.0
H112 H 0.27173 0.22171 0.92134 0.0
H113 H 0.37745 0.34946 1.05782 0.0
H114 H 0.38276 0.21556 0.95224 0.0
H115 H 0.26813 0.3572 1.02599 0.0
H116 H 0.6597 0.26264 0.86878 0.0
H117 H 0.87469 0.49931 0.79016 0.0
H118 H 0.64864 0.28283 0.79326 0.0
H119 H 0.88742 0.47493 0.86577 0.0
Eu120 Eu 0.80585 0.15883 0.3048 0.0
Eu121 Eu 0.77451 -0.00749 0.26714 0.0
C122 C 0.62836 0.01848 0.29617 0.0
C123 C 0.92272 0.37296 0.31517 0.0
C124 C -0.07003 0.44084 0.29448 0.0
C125 C 0.06519 0.43979 0.32071 0.0
C126 C 0.00471 0.50885 0.28809 0.0
C127 C -0.00855 0.37255 0.32667 0.0
C128 C 0.07307 0.51006 0.30277 0.0
C129 C 0.84494 0.30099 0.3232 0.0
O130 O 0.78332 0.05776 1.2046 0.0
O131 O 0.83216 0.1802 1.23123 0.0
C132 C 0.81682 0.13436 1.19846 0.0
O133 O 0.92302 0.16803 0.30431 0.0
O134 O 0.79931 0.91745 1.22803 0.0
O135 O 0.69873 0.86485 0.27356 0.0
O136 O 0.90424 0.08111 1.25278 0.0
C137 C -0.04966 0.14435 0.27346 0.0
O138 O 0.79156 0.08373 0.36601 0.0
O139 O 0.80976 -0.01082 0.33583 0.0
O140 O 0.6543 -0.0162 0.27076 0.0
O141 O 0.80617 0.26827 0.28919 0.0
O142 O 0.84314 0.24939 0.3513 0.0
O143 O 0.67589 0.08281 0.31488 0.0
C144 C 0.75619 0.78721 0.25623 0.0
C145 C 0.83088 0.79534 1.24837 0.0
C146 C 0.69889 0.64563 0.26477 0.0
C147 C 0.83832 0.72878 1.24586 0.0
C148 C 0.69133 0.71223 0.26697 0.0
C149 C 0.77129 0.65304 1.25119 0.0
C150 C 0.74171 0.85251 1.24606 0.0
C151 C 0.80222 0.02267 0.36994 0.0
H152 H 0.87787 0.4419 0.28423 0.0
H153 H 0.1152 0.43729 0.33317 0.0
H154 H 0.00843 0.56138 0.27363 0.0
H155 H -0.01166 0.32076 0.34176 0.0
H156 H 0.88231 0.85247 1.24055 0.0
H157 H 0.64639 0.58814 0.26934 0.0
H158 H 0.89497 0.73686 1.23505 0.0
H159 H 0.63318 0.70449 0.27349 0.0
Eu160 Eu 0.81893 0.8996 0.64622 0.0
Eu161 Eu 0.90456 0.81365 0.59798 0.0
C162 C 0.71824 0.7137 0.63227 0.0
C163 C 0.78017 0.06531 0.67332 0.0
C164 C 0.73016 0.08047 0.64791 0.0
C165 C 0.8489 0.20152 0.69231 0.0
C166 C 0.73821 0.15521 0.64566 0.0
C167 C 0.84103 0.12733 0.69439 0.0
C168 C 0.79587 0.2161 0.66919 0.0
C169 C 0.76651 -0.01532 0.68004 0.0
O170 O 0.84232 0.83684 0.5426 0.0
O171 O 0.81733 0.92641 0.5744 0.0
C172 C 0.82265 0.89211 0.53988 0.0
O173 O -0.05054 -0.02389 0.63684 0.0
O174 O -0.06765 0.72052 0.60828 0.0
O175 O -0.0231 0.7961 0.55042 0.0
O176 O -0.02437 -0.05955 0.57397 0.0
C177 C -0.01839 -0.00438 0.5982 0.0
O178 O 0.85037 0.84097 0.70008 0.0
O179 O -0.04218 0.85155 0.66385 0.0
O180 O 0.77743 0.71669 0.60998 0.0
O181 O 0.73009 0.93541 0.65029 0.0
O182 O 0.82462 -0.02218 0.69523 0.0
O183 O 0.72225 0.77505 0.64958 0.0
C184 C -0.0614 0.66329 0.54449 0.0
C185 C -0.00825 0.65821 0.51624 0.0
C186 C 0.82955 0.55183 0.51232 0.0
C187 C -0.03625 0.60397 0.48431 0.0
C188 C 0.85774 0.60695 0.54404 0.0
C189 C 0.88144 0.55419 0.47959 0.0
C190 C -0.03302 0.73239 0.57047 0.0
C191 C 0.91892 0.8436 0.70042 0.0
H192 H 0.6829 0.0339 0.63102 0.0
H193 H 0.89323 0.2455 0.71174 0.0
H194 H 0.69685 0.16408 0.62711 0.0
H195 H 0.88075 0.11793 0.71419 0.0
H196 H 0.05456 0.70028 0.51668 0.0
H197 H 0.76635 0.51244 0.51133 0.0
H198 H 0.00713 0.60812 0.4608 0.0
H199 H 0.81569 0.60875 0.56635 0.0
Eu200 Eu 0.03934 0.81392 0.97163 0.0
Eu201 Eu 0.20263 -0.0385 0.93174 0.0
C202 C 0.1869 0.80357 0.95853 0.0
C203 C 0.90996 0.62167 1.03417 0.0
C204 C -0.0397 0.64815 1.06864 0.0
C205 C 0.81124 0.51335 1.07955 0.0
C206 C -0.06628 0.61066 1.10923 0.0
C207 C 0.8377 0.55137 1.03902 0.0
C208 C 0.85603 0.5464 1.11589 0.0
C209 C -0.07388 0.67386 0.99624 0.0
O210 O 0.13859 0.92214 0.86996 0.0
O211 O 0.02254 0.81772 0.89909 0.0
C212 C 0.06569 0.86429 0.8659 0.0
O213 O -0.0002 0.90056 0.96144 0.0
O214 O 0.32906 0.01456 0.94077 0.0
O215 O 0.28703 0.06616 0.89299 0.0
O216 O 0.11757 0.00744 0.93362 0.0
C217 C 0.04163 -0.0272 0.9453 0.0
O218 O 0.08248 0.88181 1.03165 0.0
O219 O 0.20263 -0.01878 1.00332 0.0
O220 O 0.19831 0.8465 0.92358 0.0
O221 O -0.07528 0.73805 1.00359 0.0
O222 O -0.01404 0.68667 0.97103 0.0
O223 O 0.14931 0.81378 0.98983 0.0
C224 C 0.40464 0.06622 0.87583 0.0
C225 C 0.44553 0.13193 0.84755 0.0
C226 C 0.44784 -0.00566 0.83181 0.0
C227 C 0.48217 0.12705 0.81001 0.0
C228 C 0.40997 -0.00111 0.86911 0.0
C229 C 0.47841 0.05591 0.79997 0.0
C230 C 0.3483 0.06493 0.90814 0.0
C231 C 0.15144 -0.05414 1.03602 0.0
H232 H 0.01694 0.70216 1.06511 0.0
H233 H 0.75223 0.46318 1.08273 0.0
H234 H -0.02914 0.63844 1.13586 0.0
H235 H 0.79875 0.52961 1.01236 0.0
H236 H 0.44314 0.18481 0.85254 0.0
H237 H 0.44618 -0.06028 0.82614 0.0
H238 H 0.505 0.17655 0.78697 0.0
H239 H 0.37998 -0.05241 0.89099 0.0
C240 C 0.08691 0.24801 0.28956 0.0
C241 C 0.03514 0.19158 0.26178 0.0
H242 H 0.20628 0.31406 0.30859 0.0
C243 C 0.06594 0.18056 1.22342 0.0
H244 H 0.065 0.26076 0.31847 0.0
C245 C 0.14766 0.21488 1.21698 0.0
C246 C 0.19715 0.25416 1.25053 0.0
H247 H 0.02728 0.14104 1.20012 0.0
H248 H 0.16972 0.19618 1.19045 0.0
C249 C 0.16832 0.28116 0.28312 0.0
C250 C -0.04471 0.10562 0.59604 0.0
C251 C -0.00353 0.07084 0.57879 0.0
H252 H -0.0443 0.21241 0.60473 0.0
C253 C 0.05327 0.11079 0.54542 0.0
H254 H 0.90782 0.07435 0.62001 0.0
C255 C 0.07852 0.18983 0.53542 0.0
C256 C 0.04895 0.22851 0.56006 0.0
H257 H 0.0832 0.08378 0.53024 0.0
H258 H 0.12925 0.22302 0.51361 0.0
C259 C -0.01933 0.184 0.58617 0.0
C260 C 0.00555 0.04582 0.89398 0.0
C261 C -0.0006 0.01448 0.93572 0.0
H262 H -0.01691 0.1209 0.85323 0.0
C263 C -0.04677 0.02345 0.96746 0.0
H264 H 0.03885 0.03707 0.8688 0.0
C265 C 0.92137 0.07176 0.95866 0.0
C266 C -0.06528 0.10975 0.91787 0.0
H267 H -0.05325 -0.00208 0.99968 0.0
H268 H 0.89359 0.08541 0.98469 0.0
C269 C -0.02782 0.09207 0.88492 0.0
C270 C 0.51249 0.20349 1.05584 0.0
C271 C 0.56108 0.2652 1.08205 0.0
H272 H 0.41768 0.15961 1.01236 0.0
C273 C 0.56663 0.33866 1.07411 0.0
H274 H 0.50885 0.14699 1.05956 0.0
C275 C 0.51555 0.3462 1.04644 0.0
C276 C 0.45756 0.28067 1.02617 0.0
H277 H 0.60347 0.38853 1.0928 0.0
H278 H 0.51738 0.40199 1.04362 0.0
C279 C 0.46025 0.21077 1.02856 0.0
C280 C 0.27126 0.62587 0.34423 0.0
C281 C 0.25432 0.67242 0.37066 0.0
H282 H 0.22711 0.53975 0.29692 0.0
C283 C 0.19799 0.692 0.357 0.0
H284 H 0.31661 0.6119 0.35199 0.0
C285 C 0.1447 0.64799 0.32613 0.0
C286 C 0.14832 0.58502 0.30877 0.0
H287 H 0.18717 0.73233 0.37457 0.0
H288 H 0.09475 0.6559 0.32125 0.0
C289 C 0.21912 0.58358 0.31258 0.0
C290 C 0.70908 0.32922 0.71426 0.0
C291 C 0.77437 0.38093 0.73776 0.0
H292 H 0.66426 0.23388 0.67268 0.0
C293 C 0.85037 0.40093 0.7216 0.0
H294 H 0.64999 0.31687 0.72307 0.0
C295 C 0.85871 0.35528 0.6911 0.0
C296 C 0.79151 0.28789 0.67764 0.0
H297 H 0.90349 0.44339 0.73658 0.0
H298 H 0.91746 0.36584 0.68319 0.0
C299 C 0.71738 0.28174 0.68482 0.0
C300 C 0.83987 0.57919 1.23145 0.0
C301 C 0.77273 0.58752 1.23002 0.0
H302 H 0.9177 0.55283 1.19624 0.0
C303 C 0.71889 0.55091 1.19767 0.0
H304 H 0.8808 0.60379 0.25689 0.0
C305 C 0.74072 0.52363 1.16239 0.0
C306 C 0.81633 0.53158 1.1593 0.0
H307 H 0.66556 0.5545 1.1959 0.0
H308 H 0.70288 0.50765 1.13525 0.0
C309 C 0.86107 0.55023 1.19645 0.0
C310 C 0.78767 0.53263 0.42119 0.0
C311 C 0.85169 0.52567 0.43605 0.0
H312 H 0.7507 0.5852 0.37273 0.0
C313 C 0.90508 0.52779 0.40454 0.0
H314 H 0.73934 0.52337 0.4426 0.0
C315 C 0.91533 0.56979 0.36568 0.0
C316 C 0.86735 0.60276 0.35727 0.0
H317 H -0.05012 0.51335 0.413 0.0
H318 H -0.03157 0.58704 0.34679 0.0
C319 C 0.79488 0.56979 0.38097 0.0
C320 C 0.52334 0.10315 0.72362 0.0
C321 C 0.48322 0.0397 0.75387 0.0
H322 H 0.50999 0.15944 0.66757 0.0
C323 C 0.4237 -0.03205 0.73881 0.0
H324 H 0.57377 0.15734 0.73287 0.0
C325 C 0.38902 -0.03232 0.7 0.0
C326 C 0.41215 0.03938 0.67744 0.0
H327 H 0.39397 0.91532 0.75965 0.0
H328 H 0.33498 0.91499 0.69248 0.0
C329 C 0.48678 0.1039 0.68565 0.0
C330 C 0.42131 -0.04016 0.26729 0.0
C331 C 0.3956 -0.01816 0.30392 0.0
H332 H 0.51615 -0.04696 1.23623 0.0
C333 C 0.43929 -0.00182 0.34104 0.0
H334 H 0.38854 -0.0524 1.23816 0.0
C335 C 0.51309 0.00317 0.33957 0.0
C336 C 0.54311 -0.00963 0.30124 0.0
H337 H 0.42116 0.01623 0.36942 0.0
H338 H 0.54936 0.02309 0.36736 0.0
C339 C 0.49447 -0.03659 0.26606 0.0
C340 C 0.50522 0.5718 0.66406 0.0
C341 C 0.48528 0.51346 0.63453 0.0
H342 H 0.59482 0.67969 0.68718 0.0
C343 C 0.54503 0.5145 0.60846 0.0
H344 H 0.46004 0.57163 0.68477 0.0
C345 C 0.6229 0.5776 0.60926 0.0
C346 C 0.6413 0.63969 0.63632 0.0
H347 H 0.53056 0.4701 0.58525 0.0
H348 H 0.6672 0.58006 0.58692 0.0
C349 C 0.58243 0.63396 0.66516 0.0
C350 C 0.14522 0.60253 0.99534 0.0
C351 C 0.13002 0.56641 0.95608 0.0
H352 H 0.17651 0.70848 1.02679 0.0
C353 C 0.14874 0.61222 0.91752 0.0
H354 H 0.13086 0.5679 1.02536 0.0
C355 C 0.17606 0.6924 0.91816 0.0
C356 C 0.1831 0.72728 0.95746 0.0
H357 H 0.13783 0.58506 0.88685 0.0
H358 H 0.18491 0.72523 0.88797 0.0
C359 C 0.17117 0.68267 0.99604 0.0
C360 C 0.2762 0.1903 0.44676 0.0
C361 C 0.31186 0.23523 0.40859 0.0
H362 H 0.24396 0.18717 0.51251 0.0
C363 C 0.34497 0.31747 0.40915 0.0
H364 H 0.24989 0.12703 0.44761 0.0
C365 C 0.33974 0.35308 0.44691 0.0
C366 C 0.30291 0.30728 0.48509 0.0
H367 H 0.37202 0.35378 0.38005 0.0
H368 H 0.3637 0.41597 0.44605 0.0
C369 C 0.27282 0.22549 0.48425 0.0
C370 C 0.20914 0.44127 0.759 0.0
C371 C 0.1623 0.4208 0.72289 0.0
H372 H 0.21492 0.44873 0.82697 0.0
C373 C 0.08112 0.39516 0.72916 0.0
H374 H 0.27158 0.46053 0.75545 0.0
C375 C 0.04718 0.38636 0.77099 0.0
C376 C 0.09405 0.40384 0.80741 0.0
H377 H 0.04314 0.37729 0.70204 0.0
H378 H -0.01602 0.36282 0.77488 0.0
C379 C 0.17602 0.43394 0.80029 0.0
C380 C 0.88337 0.27427 1.09698 0.0
C381 C 0.91458 0.2401 1.0695 0.0
H382 H 0.83 0.26965 1.15913 0.0
C383 C 0.91151 0.17053 1.08488 0.0
H384 H 0.88447 0.32774 1.08649 0.0
C385 C 0.87775 0.13582 1.12584 0.0
C386 C 0.84777 0.17043 1.15369 0.0
H387 H -0.06576 0.14192 1.06488 0.0
H388 H 0.87685 0.08236 1.13615 0.0
C389 C 0.85192 0.24083 1.13873 0.0
C390 C 0.81479 0.92216 0.41761 0.0
C391 C 0.8061 -0.0109 0.41376 0.0
H392 H 0.8265 0.83932 0.4591 0.0
C393 C 0.80049 0.02195 0.45213 0.0
H394 H 0.81856 0.89417 0.38916 0.0
C395 C 0.8042 -0.01041 0.49263 0.0
C396 C 0.81371 0.9231 0.49641 0.0
H397 H 0.79357 0.07309 0.45096 0.0
H398 H 0.80062 0.01771 0.52111 0.0
C399 C 0.81884 0.89003 0.45804 0.0
C400 C 0.91039 0.81825 0.78129 0.0
C401 C -0.04388 0.84476 0.74249 0.0
H402 H 0.90831 0.8018 0.84991 0.0
C403 C 0.03833 0.87477 0.74459 0.0
H404 H 0.84704 0.79459 0.78118 0.0
C405 C 0.07396 0.88064 0.78429 0.0
C406 C 0.02815 0.85427 0.8231 0.0
H407 H 0.07564 0.89553 0.71552 0.0
H408 H 0.13754 0.90591 0.78457 0.0
C409 C -0.05434 0.82203 0.82083 0.0
C410 C 0.24586 0.04971 1.08472 0.0
C411 C 0.17516 -0.02197 1.0796 0.0
H412 H 0.32526 0.13312 1.12822 0.0
C413 C 0.12936 0.93622 1.11676 0.0
H414 H 0.28281 0.08396 1.05699 0.0
C415 C 0.15395 -0.03557 1.15771 0.0
C416 C 0.22504 0.03558 1.16292 0.0
H417 H 0.07483 0.88087 1.11436 0.0
H418 H 0.11695 0.92995 1.18539 0.0
C419 C 0.27036 0.07813 1.12573 0.0
loop_
_geom_bond_atom_site_label_1
_geom_bond_atom_site_label_2
_geom_bond_distance
_geom_bond_site_symmetry_2
_ccdc_geom_bond_type
Eu0 C9 2.828 . S
Eu0 O11 2.392 1_554 S
Eu0 O13 2.418 . S
Eu0 O18 2.373 . S
Eu0 O21 2.488 . S
Eu0 O22 2.471 . S
Eu0 O23 2.349 . S
Eu1 O10 2.373 . S
Eu1 O14 2.488 . S
Eu1 O15 2.471 . S
Eu1 O16 2.349 1_556 S
Eu1 O19 2.392 1_556 S
Eu1 O20 2.418 . S
Eu1 C30 2.828 . S
C2 O20 1.244 1_554 S
C2 O23 1.265 . S
C3 C4 1.379 . S
C3 C7 1.373 . S
C3 C9 1.505 . S
C4 C3 1.379 . S
C4 C6 1.369 . S
C4 H32 0.930 . S
C5 C7 1.383 . S
C5 C8 1.382 . S
C5 H33 0.930 1_545 S
C6 C4 1.369 . S
C6 C8 1.392 . S
C6 H34 0.930 . S
C7 C3 1.373 . S
C7 C5 1.383 . S
C7 H35 0.931 . S
C8 C5 1.382 . S
C8 C6 1.392 . S
C9 Eu0 2.828 . S
C9 C3 1.505 . S
C9 O21 1.249 . S
C9 O22 1.244 . S
O10 Eu1 2.373 . S
O10 C12 1.258 . S
O11 Eu0 2.392 1_556 S
O11 C12 1.242 . S
C12 O10 1.258 . S
C12 O11 1.242 . S
O13 Eu0 2.418 . S
O13 C17 1.244 . S
O14 Eu1 2.488 . S
O14 C30 1.249 . S
O15 Eu1 2.471 . S
O15 C30 1.244 . S
O16 Eu1 2.349 1_554 S
O16 C17 1.265 . S
C17 O13 1.244 . S
C17 O16 1.265 . S
O18 Eu0 2.373 . S
O18 C31 1.258 . S
O19 Eu1 2.392 1_554 S
O19 C31 1.242 . S
O20 Eu1 2.418 . S
O20 C2 1.244 1_556 S
O21 Eu0 2.488 . S
O21 C9 1.249 . S
O22 Eu0 2.471 . S
O22 C9 1.244 . S
O23 Eu0 2.349 . S
O23 C2 1.265 . S
C24 C25 1.379 . S
C24 C28 1.373 . S
C24 C30 1.505 . S
C25 C24 1.379 . S
C25 C27 1.369 . S
C25 H36 0.930 . S
C26 C28 1.383 . S
C26 C29 1.382 . S
C26 H37 0.930 . S
C27 C25 1.369 . S
C27 C29 1.392 . S
C27 H38 0.930 . S
C28 C24 1.373 . S
C28 C26 1.383 . S
C28 H39 0.931 . S
C29 C26 1.382 . S
C29 C27 1.392 . S
C30 Eu1 2.828 . S
C30 O14 1.249 . S
C30 O15 1.244 . S
C30 C24 1.505 . S
C31 O18 1.258 . S
C31 O19 1.242 . S
H32 C4 0.930 . S
H33 C5 0.930 1_565 S
H34 C6 0.930 . S
H35 C7 0.931 . S
H36 C25 0.930 . S
H37 C26 0.930 . S
H38 C27 0.930 . S
H39 C28 0.931 . S
Eu40 C49 2.828 . S
Eu40 O51 2.392 . S
Eu40 O53 2.418 . S
Eu40 O58 2.373 . S
Eu40 O61 2.488 . S
Eu40 O62 2.471 . S
Eu40 O63 2.349 . S
Eu41 O50 2.373 . S
Eu41 O54 2.488 . S
Eu41 O55 2.471 . S
Eu41 O56 2.349 . S
Eu41 O59 2.392 . S
Eu41 O60 2.418 . S
Eu41 C70 2.828 . S
C42 O60 1.244 . S
C42 O63 1.265 . S
C43 C44 1.379 . S
C43 C47 1.373 . S
C43 C49 1.505 . S
C44 C43 1.379 . S
C44 C46 1.369 . S
C44 H72 0.930 . S
C45 C47 1.383 . S
C45 C48 1.382 . S
C45 H73 0.930 . S
C46 C44 1.369 . S
C46 C48 1.392 . S
C46 H74 0.930 . S
C47 C43 1.373 . S
C47 C45 1.383 . S
C47 H75 0.931 . S
C48 C45 1.382 . S
C48 C46 1.392 . S
C49 Eu40 2.828 . S
C49 C43 1.505 . S
C49 O61 1.249 . S
C49 O62 1.244 . S
O50 Eu41 2.373 . S
O50 C52 1.258 . S
O51 Eu40 2.392 . S
O51 C52 1.242 . S
C52 O50 1.258 . S
C52 O51 1.242 . S
O53 Eu40 2.418 . S
O53 C57 1.244 . S
O54 Eu41 2.488 . S
O54 C70 1.249 . S
O55 Eu41 2.471 . S
O55 C70 1.244 . S
O56 Eu41 2.349 . S
O56 C57 1.265 . S
C57 O53 1.244 . S
C57 O56 1.265 . S
O58 Eu40 2.373 . S
O58 C71 1.258 . S
O59 Eu41 2.392 . S
O59 C71 1.242 . S
O60 Eu41 2.418 . S
O60 C42 1.244 . S
O61 Eu40 2.488 . S
O61 C49 1.249 . S
O62 Eu40 2.471 . S
O62 C49 1.244 . S
O63 Eu40 2.349 . S
O63 C42 1.265 . S
C64 C65 1.379 . S
C64 C68 1.373 . S
C64 C70 1.505 . S
C65 C64 1.379 . S
C65 C67 1.369 . S
C65 H76 0.930 . S
C66 C68 1.383 . S
C66 C69 1.382 . S
C66 H77 0.930 . S
C67 C65 1.369 . S
C67 C69 1.392 . S
C67 H78 0.930 . S
C68 C64 1.373 . S
C68 C66 1.383 . S
C68 H79 0.931 . S
C69 C66 1.382 . S
C69 C67 1.392 . S
C70 Eu41 2.828 . S
C70 O54 1.249 . S
C70 O55 1.244 . S
C70 C64 1.505 . S
C71 O58 1.258 . S
C71 O59 1.242 . S
H72 C44 0.930 . S
H73 C45 0.930 . S
H74 C46 0.930 . S
H75 C47 0.931 . S
H76 C65 0.930 . S
H77 C66 0.930 . S
H78 C67 0.930 . S
H79 C68 0.931 . S
Eu80 C89 2.828 . S
Eu80 O91 2.392 . S
Eu80 O93 2.418 . S
Eu80 O98 2.373 1_455 S
Eu80 O101 2.488 . S
Eu80 O102 2.471 . S
Eu80 O103 2.349 . S
Eu81 O90 2.371 1_655 S
Eu81 O94 2.488 . S
Eu81 O95 2.471 . S
Eu81 O96 2.349 . S
Eu81 O99 2.392 . S
Eu81 O100 2.418 . S
Eu81 C110 2.828 . S
C82 O100 1.244 . S
C82 O103 1.265 1_655 S
C83 C84 1.379 . S
C83 C87 1.373 . S
C83 C89 1.505 . S
C84 C83 1.379 . S
C84 C86 1.369 . S
C84 H112 0.930 . S
C85 C87 1.383 . S
C85 C88 1.382 . S
C85 H113 0.930 . S
C86 C84 1.369 . S
C86 C88 1.392 . S
C86 H114 0.930 . S
C87 C83 1.373 . S
C87 C85 1.383 . S
C87 H115 0.931 . S
C88 C85 1.382 . S
C88 C86 1.392 . S
C89 Eu80 2.828 . S
C89 C83 1.505 . S
C89 O101 1.249 . S
C89 O102 1.244 . S
O90 Eu81 2.371 1_455 S
O90 C92 1.261 . S
O91 Eu80 2.392 . S
O91 C92 1.242 . S
C92 O90 1.261 . S
C92 O91 1.242 . S
O93 Eu80 2.418 . S
O93 C97 1.244 . S
O94 Eu81 2.488 . S
O94 C110 1.249 . S
O95 Eu81 2.471 . S
O95 C110 1.244 . S
O96 Eu81 2.349 . S
O96 C97 1.265 1_655 S
C97 O93 1.244 . S
C97 O96 1.265 1_455 S
O98 Eu80 2.373 1_655 S
O98 C111 1.257 . S
O99 Eu81 2.392 . S
O99 C111 1.242 . S
O100 Eu81 2.418 . S
O100 C82 1.244 . S
O101 Eu80 2.488 . S
O101 C89 1.249 . S
O102 Eu80 2.471 . S
O102 C89 1.244 . S
O103 Eu80 2.349 . S
O103 C82 1.265 1_455 S
C104 C105 1.379 . S
C104 C108 1.373 . S
C104 C110 1.505 . S
C105 C104 1.379 . S
C105 C107 1.369 . S
C105 H116 0.930 . S
C106 C108 1.383 . S
C106 C109 1.382 . S
C106 H117 0.930 . S
C107 C105 1.369 . S
C107 C109 1.392 . S
C107 H118 0.930 . S
C108 C104 1.373 . S
C108 C106 1.383 . S
C108 H119 0.931 . S
C109 C106 1.382 . S
C109 C107 1.392 . S
C110 Eu81 2.828 . S
C110 O94 1.249 . S
C110 O95 1.244 . S
C110 C104 1.505 . S
C111 O98 1.257 . S
C111 O99 1.242 . S
H112 C84 0.930 . S
H113 C85 0.930 . S
H114 C86 0.930 . S
H115 C87 0.931 . S
H116 C105 0.930 . S
H117 C106 0.930 . S
H118 C107 0.930 . S
H119 C108 0.931 . S
Eu120 C129 2.828 . S
Eu120 O131 2.392 1_554 S
Eu120 O133 2.418 . S
Eu120 O138 2.373 . S
Eu120 O141 2.488 . S
Eu120 O142 2.471 . S
Eu120 O143 2.349 . S
Eu121 O130 2.373 1_565 S
Eu121 O134 2.488 . S
Eu121 O135 2.471 . S
Eu121 O136 2.349 1_566 S
Eu121 O139 2.392 1_556 S
Eu121 O140 2.418 . S
Eu121 C150 2.828 . S
C122 O140 1.244 1_554 S
C122 O143 1.265 1_565 S
C123 C124 1.379 . S
C123 C127 1.373 . S
C123 C129 1.505 . S
C124 C123 1.379 . S
C124 C126 1.369 . S
C124 H152 0.930 . S
C125 C127 1.383 . S
C125 C128 1.382 . S
C125 H153 0.930 1_655 S
C126 C124 1.369 . S
C126 C128 1.392 . S
C126 H154 0.930 . S
C127 C123 1.373 . S
C127 C125 1.383 . S
C127 H155 0.931 1_655 S
C128 C125 1.382 . S
C128 C126 1.392 . S
C129 Eu120 2.828 . S
C129 C123 1.505 . S
C129 O141 1.249 . S
C129 O142 1.244 . S
O130 Eu121 2.373 1_545 S
O130 C132 1.258 . S
O131 Eu120 2.392 1_556 S
O131 C132 1.242 . S
C132 O130 1.258 . S
C132 O131 1.242 . S
O133 Eu120 2.418 . S
O133 C137 1.244 . S
O134 Eu121 2.488 . S
O134 C150 1.249 . S
O135 Eu121 2.471 . S
O135 C150 1.244 . S
O136 Eu121 2.349 1_544 S
O136 C137 1.265 . S
C137 O133 1.244 . S
C137 O136 1.265 . S
O138 Eu120 2.373 . S
O138 C151 1.258 1_545 S
O139 Eu121 2.392 1_554 S
O139 C151 1.242 . S
O140 Eu121 2.418 . S
O140 C122 1.244 1_556 S
O141 Eu120 2.488 . S
O141 C129 1.249 . S
O142 Eu120 2.471 . S
O142 C129 1.244 . S
O143 Eu120 2.349 . S
O143 C122 1.265 1_545 S
C144 C145 1.379 . S
C144 C148 1.373 . S
C144 C150 1.505 . S
C145 C144 1.379 . S
C145 C147 1.369 . S
C145 H156 0.930 . S
C146 C148 1.383 . S
C146 C149 1.382 . S
C146 H157 0.930 . S
C147 C145 1.369 . S
C147 C149 1.392 . S
C147 H158 0.930 . S
C148 C144 1.373 . S
C148 C146 1.383 . S
C148 H159 0.931 . S
C149 C146 1.382 . S
C149 C147 1.392 . S
C150 Eu121 2.828 . S
C150 O134 1.249 . S
C150 O135 1.244 . S
C150 C144 1.505 . S
C151 O138 1.258 1_565 S
C151 O139 1.242 . S
H152 C124 0.930 . S
H153 C125 0.930 1_455 S
H154 C126 0.930 . S
H155 C127 0.931 1_455 S
H156 C145 0.930 . S
H157 C146 0.930 . S
H158 C147 0.930 . S
H159 C148 0.931 . S
Eu160 C169 2.828 . S
Eu160 O171 2.392 . S
Eu160 O173 2.418 1_665 S
Eu160 O178 2.373 . S
Eu160 O181 2.488 . S
Eu160 O182 2.471 . S
Eu160 O183 2.349 . S
Eu161 O170 2.373 1_455 S
Eu161 O174 2.488 . S
Eu161 O175 2.471 . S
Eu161 O176 2.349 . S
Eu161 O179 2.392 . S
Eu161 O180 2.418 1_455 S
Eu161 C190 2.828 . S
C162 O180 1.244 . S
C162 O183 1.265 . S
C163 C164 1.379 . S
C163 C167 1.373 . S
C163 C169 1.505 . S
C164 C163 1.379 . S
C164 C166 1.369 . S
C164 H192 0.930 . S
C165 C167 1.383 . S
C165 C168 1.382 . S
C165 H193 0.930 1_565 S
C166 C164 1.369 . S
C166 C168 1.392 . S
C166 H194 0.930 . S
C167 C163 1.373 . S
C167 C165 1.383 . S
C167 H195 0.931 1_565 S
C168 C165 1.382 . S
C168 C166 1.392 . S
C169 Eu160 2.828 . S
C169 C163 1.505 . S
C169 O181 1.249 . S
C169 O182 1.244 . S
O170 Eu161 2.373 1_655 S
O170 C172 1.258 . S
O171 Eu160 2.392 . S
O171 C172 1.242 . S
C172 O170 1.258 . S
C172 O171 1.242 . S
O173 Eu160 2.418 1_445 S
O173 C177 1.244 1_545 S
O174 Eu161 2.488 . S
O174 C190 1.249 . S
O175 Eu161 2.471 . S
O175 C190 1.244 . S
O176 Eu161 2.349 . S
O176 C177 1.265 . S
C177 O173 1.244 1_565 S
C177 O176 1.265 . S
O178 Eu160 2.373 . S
O178 C191 1.258 1_655 S
O179 Eu161 2.392 . S
O179 C191 1.242 . S
O180 Eu161 2.418 1_655 S
O180 C162 1.244 . S
O181 Eu160 2.488 . S
O181 C169 1.249 . S
O182 Eu160 2.471 . S
O182 C169 1.244 . S
O183 Eu160 2.349 . S
O183 C162 1.265 . S
C184 C185 1.379 . S
C184 C188 1.373 . S
C184 C190 1.505 . S
C185 C184 1.379 . S
C185 C187 1.369 . S
C185 H196 0.930 . S
C186 C188 1.383 . S
C186 C189 1.382 . S
C186 H197 0.930 . S
C187 C185 1.369 . S
C187 C189 1.392 . S
C187 H198 0.930 . S
C188 C184 1.373 . S
C188 C186 1.383 . S
C188 H199 0.931 . S
C189 C186 1.382 . S
C189 C187 1.392 . S
C190 Eu161 2.828 . S
C190 O174 1.249 . S
C190 O175 1.244 . S
C190 C184 1.505 . S
C191 O178 1.258 1_455 S
C191 O179 1.242 . S
H192 C164 0.930 . S
H193 C165 0.930 1_545 S
H194 C166 0.930 . S
H195 C167 0.931 1_545 S
H196 C185 0.930 . S
H197 C186 0.930 . S
H198 C187 0.930 . S
H199 C188 0.931 . S
Eu200 C209 2.828 . S
Eu200 O211 2.392 . S
Eu200 O213 2.418 1_565 S
Eu200 O218 2.370 1_565 S
Eu200 O221 2.488 . S
Eu200 O222 2.471 . S
Eu200 O223 2.349 . S
Eu201 O210 2.373 1_545 S
Eu201 O214 2.488 . S
Eu201 O215 2.471 . S
Eu201 O216 2.349 . S
Eu201 O219 2.392 . S
Eu201 O220 2.418 1_545 S
Eu201 C230 2.828 . S
C202 O220 1.244 . S
C202 O223 1.265 . S
C203 C204 1.379 . S
C203 C207 1.373 . S
C203 C209 1.505 . S
C204 C203 1.379 . S
C204 C206 1.369 . S
C204 H232 0.930 . S
C205 C207 1.383 . S
C205 C208 1.382 . S
C205 H233 0.930 1_455 S
C206 C204 1.369 . S
C206 C208 1.392 . S
C206 H234 0.930 . S
C207 C203 1.373 . S
C207 C205 1.383 . S
C207 H235 0.931 . S
C208 C205 1.382 . S
C208 C206 1.392 . S
C209 Eu200 2.828 . S
C209 C203 1.505 . S
C209 O221 1.249 . S
C209 O222 1.244 . S
O210 Eu201 2.373 1_565 S
O210 C212 1.258 . S
O211 Eu200 2.392 . S
O211 C212 1.242 . S
C212 O210 1.258 . S
C212 O211 1.242 . S
O213 Eu200 2.418 1_545 S
O213 C217 1.244 . S
O214 Eu201 2.488 . S
O214 C230 1.249 . S
O215 Eu201 2.471 . S
O215 C230 1.244 . S
O216 Eu201 2.349 . S
O216 C217 1.265 . S
C217 O213 1.244 . S
C217 O216 1.265 . S
O218 Eu200 2.370 1_545 S
O218 C231 1.256 . S
O219 Eu201 2.392 . S
O219 C231 1.242 . S
O220 Eu201 2.418 1_565 S
O220 C202 1.244 . S
O221 Eu200 2.488 . S
O221 C209 1.249 . S
O222 Eu200 2.471 . S
O222 C209 1.244 . S
O223 Eu200 2.349 . S
O223 C202 1.265 . S
C224 C225 1.379 . S
C224 C228 1.373 . S
C224 C230 1.505 . S
C225 C224 1.379 . S
C225 C227 1.369 . S
C225 H236 0.930 . S
C226 C228 1.383 . S
C226 C229 1.382 . S
C226 H237 0.930 . S
C227 C225 1.369 . S
C227 C229 1.392 . S
C227 H238 0.930 . S
C228 C224 1.373 . S
C228 C226 1.383 . S
C228 H239 0.931 . S
C229 C226 1.382 . S
C229 C227 1.392 . S
C230 Eu201 2.828 . S
C230 O214 1.249 . S
C230 O215 1.244 . S
C230 C224 1.505 . S
C231 O218 1.256 . S
C231 O219 1.242 . S
H232 C204 0.930 . S
H233 C205 0.930 1_655 S
H234 C206 0.930 . S
H235 C207 0.931 . S
H236 C225 0.930 . S
H237 C226 0.930 . S
H238 C227 0.930 . S
H239 C228 0.931 . S
C240 C241 1.387 . S
C240 H244 0.950 . S
C240 C249 1.390 . S
C241 C240 1.387 . S
C241 C243 1.387 1_554 S
H242 C249 0.950 . S
C243 C241 1.387 1_556 S
C243 C245 1.390 . S
C243 H247 0.950 . S
H244 C240 0.950 . S
C245 C243 1.390 . S
C245 C246 1.387 1_556 S
C245 H248 0.950 . S
C246 C245 1.387 1_554 S
C246 C249 1.387 . S
H247 C243 0.950 . S
H248 C245 0.950 . S
C249 C240 1.390 . S
C249 H242 0.950 . S
C249 C246 1.387 . S
C250 C251 1.387 . S
C250 H254 0.950 . S
C250 C259 1.390 . S
C251 C250 1.387 . S
C251 C253 1.387 . S
H252 C259 0.950 . S
C253 C251 1.387 . S
C253 C255 1.390 . S
C253 H257 0.950 . S
H254 C250 0.950 . S
C255 C253 1.390 . S
C255 C256 1.387 . S
C255 H258 0.950 . S
C256 C255 1.387 . S
C256 C259 1.387 . S
H257 C253 0.950 . S
H258 C255 0.950 . S
C259 C250 1.390 . S
C259 H252 0.950 . S
C259 C256 1.387 . S
C260 C261 1.387 . S
C260 H264 0.950 . S
C260 C269 1.390 . S
C261 C260 1.387 . S
C261 C263 1.387 . S
H262 C269 0.950 . S
C263 C261 1.387 . S
C263 C265 1.390 . S
C263 H267 0.950 . S
H264 C260 0.950 . S
C265 C263 1.390 . S
C265 C266 1.387 . S
C265 H268 0.950 . S
C266 C265 1.387 . S
C266 C269 1.387 . S
H267 C263 0.950 . S
H268 C265 0.950 . S
C269 C260 1.390 . S
C269 H262 0.950 . S
C269 C266 1.387 . S
C270 C271 1.387 . S
C270 H274 0.950 . S
C270 C279 1.390 . S
C271 C270 1.387 . S
C271 C273 1.387 . S
H272 C279 0.950 . S
C273 C271 1.387 . S
C273 C275 1.390 . S
C273 H277 0.950 . S
H274 C270 0.950 . S
C275 C273 1.390 . S
C275 C276 1.387 . S
C275 H278 0.950 . S
C276 C275 1.387 . S
C276 C279 1.387 . S
H277 C273 0.950 . S
H278 C275 0.950 . S
C279 C270 1.390 . S
C279 H272 0.950 . S
C279 C276 1.387 . S
C280 C281 1.387 . S
C280 H284 0.950 . S
C280 C289 1.390 1_455 S
C281 C280 1.387 . S
C281 C283 1.387 . S
H282 C289 0.950 . S
C283 C281 1.387 . S
C283 C285 1.390 1_455 S
C283 H287 0.950 . S
H284 C280 0.950 . S
C285 C283 1.390 1_655 S
C285 C286 1.387 . S
C285 H288 0.950 . S
C286 C285 1.387 . S
C286 C289 1.387 . S
H287 C283 0.950 . S
H288 C285 0.950 . S
C289 C280 1.390 1_655 S
C289 H282 0.950 . S
C289 C286 1.387 . S
C290 C291 1.387 . S
C290 H294 0.950 . S
C290 C299 1.390 1_545 S
C291 C290 1.387 . S
C291 C293 1.387 . S
H292 C299 0.950 . S
C293 C291 1.387 . S
C293 C295 1.390 1_545 S
C293 H297 0.950 . S
H294 C290 0.950 . S
C295 C293 1.390 1_565 S
C295 C296 1.387 . S
C295 H298 0.950 . S
C296 C295 1.387 . S
C296 C299 1.387 . S
H297 C293 0.950 . S
H298 C295 0.950 . S
C299 C290 1.390 1_565 S
C299 H292 0.950 . S
C299 C296 1.387 . S
C300 C301 1.387 . S
C300 H304 0.950 . S
C300 C309 1.390 . S
C301 C300 1.387 . S
C301 C303 1.387 . S
H302 C309 0.950 . S
C303 C301 1.387 . S
C303 C305 1.390 . S
C303 H307 0.950 . S
H304 C300 0.950 . S
C305 C303 1.390 . S
C305 C306 1.387 . S
C305 H308 0.950 1_655 S
C306 C305 1.387 . S
C306 C309 1.387 . S
H307 C303 0.950 . S
H308 C305 0.950 1_455 S
C309 C300 1.390 . S
C309 H302 0.950 . S
C309 C306 1.387 . S
C310 C311 1.387 . S
C310 H314 0.950 . S
C310 C319 1.390 . S
C311 C310 1.387 . S
C311 C313 1.387 . S
H312 C319 0.950 1_545 S
C313 C311 1.387 . S
C313 C315 1.390 . S
C313 H317 0.950 . S
H314 C310 0.950 . S
C315 C313 1.390 . S
C315 C316 1.387 . S
C315 H318 0.950 . S
C316 C315 1.387 . S
C316 C319 1.387 . S
H317 C313 0.950 . S
H318 C315 0.950 . S
C319 C310 1.390 . S
C319 H312 0.950 1_565 S
C319 C316 1.387 . S
C320 C321 1.387 . S
C320 H324 0.950 . S
C320 C329 1.390 . S
C321 C320 1.387 . S
C321 C323 1.387 . S
H322 C329 0.950 . S
C323 C321 1.387 . S
C323 C325 1.390 . S
C323 H327 0.950 . S
H324 C320 0.950 . S
C325 C323 1.390 . S
C325 C326 1.387 . S
C325 H328 0.950 . S
C326 C325 1.387 . S
C326 C329 1.387 . S
H327 C323 0.950 . S
H328 C325 0.950 . S
C329 C320 1.390 . S
C329 H322 0.950 . S
C329 C326 1.387 . S
C330 C331 1.387 1_556 S
C330 H334 0.950 . S
C330 C339 1.390 . S
C331 C330 1.387 1_554 S
C331 C333 1.387 . S
H332 C339 0.950 . S
C333 C331 1.387 . S
C333 C335 1.390 . S
C333 H337 0.950 . S
H334 C330 0.950 . S
C335 C333 1.390 . S
C335 C336 1.387 . S
C335 H338 0.950 . S
C336 C335 1.387 . S
C336 C339 1.387 1_554 S
H337 C333 0.950 . S
H338 C335 0.950 . S
C339 C330 1.390 . S
C339 H332 0.950 . S
C339 C336 1.387 1_556 S
C340 C341 1.387 . S
C340 H344 0.950 . S
C340 C349 1.390 . S
C341 C340 1.387 . S
C341 C343 1.387 . S
H342 C349 0.950 . S
C343 C341 1.387 . S
C343 C345 1.390 . S
C343 H347 0.950 . S
H344 C340 0.950 . S
C345 C343 1.390 . S
C345 C346 1.387 . S
C345 H348 0.950 . S
C346 C345 1.387 . S
C346 C349 1.387 . S
H347 C343 0.950 . S
H348 C345 0.950 . S
C349 C340 1.390 . S
C349 H342 0.950 . S
C349 C346 1.387 . S
C350 C351 1.387 . S
C350 H354 0.950 . S
C350 C359 1.390 . S
C351 C350 1.387 . S
C351 C353 1.387 . S
H352 C359 0.950 . S
C353 C351 1.387 . S
C353 C355 1.390 . S
C353 H357 0.950 . S
H354 C350 0.950 . S
C355 C353 1.390 . S
C355 C356 1.387 . S
C355 H358 0.950 . S
C356 C355 1.387 . S
C356 C359 1.387 . S
H357 C353 0.950 . S
H358 C355 0.950 . S
C359 C350 1.390 . S
C359 H352 0.950 . S
C359 C356 1.387 . S
C360 C361 1.387 . S
C360 H364 0.950 . S
C360 C369 1.390 . S
C361 C360 1.387 . S
C361 C363 1.387 . S
H362 C369 0.950 . S
C363 C361 1.387 . S
C363 C365 1.390 . S
C363 H367 0.950 . S
H364 C360 0.950 . S
C365 C363 1.390 . S
C365 C366 1.387 . S
C365 H368 0.950 . S
C366 C365 1.387 . S
C366 C369 1.387 . S
H367 C363 0.950 . S
H368 C365 0.950 . S
C369 C360 1.390 . S
C369 H362 0.950 . S
C369 C366 1.387 . S
C370 C371 1.387 . S
C370 H374 0.950 . S
C370 C379 1.390 . S
C371 C370 1.387 . S
C371 C373 1.387 . S
H372 C379 0.950 . S
C373 C371 1.387 . S
C373 C375 1.390 . S
C373 H377 0.950 . S
H374 C370 0.950 . S
C375 C373 1.390 . S
C375 C376 1.387 . S
C375 H378 0.950 . S
C376 C375 1.387 . S
C376 C379 1.387 . S
H377 C373 0.950 . S
H378 C375 0.950 . S
C379 C370 1.390 . S
C379 H372 0.950 . S
C379 C376 1.387 . S
C380 C381 1.387 . S
C380 H384 0.950 . S
C380 C389 1.390 . S
C381 C380 1.387 . S
C381 C383 1.387 . S
H382 C389 0.950 . S
C383 C381 1.387 . S
C383 C385 1.390 . S
C383 H387 0.950 1_655 S
H384 C380 0.950 . S
C385 C383 1.390 . S
C385 C386 1.387 . S
C385 H388 0.950 . S
C386 C385 1.387 . S
C386 C389 1.387 . S
H387 C383 0.950 1_455 S
H388 C385 0.950 . S
C389 C380 1.390 . S
C389 H382 0.950 . S
C389 C386 1.387 . S
C390 C391 1.387 . S
C390 H394 0.950 . S
C390 C399 1.390 . S
C391 C390 1.387 . S
C391 C393 1.387 . S
H392 C399 0.950 . S
C393 C391 1.387 . S
C393 C395 1.390 . S
C393 H397 0.950 1_565 S
H394 C390 0.950 . S
C395 C393 1.390 . S
C395 C396 1.387 . S
C395 H398 0.950 1_565 S
C396 C395 1.387 . S
C396 C399 1.387 . S
H397 C393 0.950 1_545 S
H398 C395 0.950 1_545 S
C399 C390 1.390 . S
C399 H392 0.950 . S
C399 C396 1.387 . S
C400 C401 1.387 . S
C400 H404 0.950 . S
C400 C409 1.390 . S
C401 C400 1.387 . S
C401 C403 1.387 . S
H402 C409 0.950 . S
C403 C401 1.387 . S
C403 C405 1.390 . S
C403 H407 0.950 . S
H404 C400 0.950 . S
C405 C403 1.390 . S
C405 C406 1.387 . S
C405 H408 0.950 . S
C406 C405 1.387 . S
C406 C409 1.387 . S
H407 C403 0.950 . S
H408 C405 0.950 . S
C409 C400 1.390 . S
C409 H402 0.950 . S
C409 C406 1.387 . S
C410 C411 1.387 . S
C410 H414 0.950 . S
C410 C419 1.390 . S
C411 C410 1.387 . S
C411 C413 1.387 . S
H412 C419 0.950 . S
C413 C411 1.387 . S
C413 C415 1.390 . S
C413 H417 0.950 . S
H414 C410 0.950 . S
C415 C413 1.390 . S
C415 C416 1.387 . S
C415 H418 0.950 . S
C416 C415 1.387 . S
C416 C419 1.387 . S
H417 C413 0.950 . S
H418 C415 0.950 . S
C419 C410 1.390 . S
C419 H412 0.950 . S
C419 C416 1.387 . S
C241 C137 1.402 1_455 S
C246 C17 1.402 . S
C251 C177 1.402 1_545 S
C256 C57 1.402 . S
C261 C217 1.408 . S
C266 C97 1.408 . S
C271 C29 1.200 . S
C276 C88 1.200 . S
C281 C69 1.205 . S
C286 C128 1.203 . S
C291 C109 1.203 . S
C296 C168 1.204 . S
C301 C149 1.200 . S
C306 C208 1.200 1_655 S
C311 C189 1.206 . S
C316 C8 1.203 1_565 S
C321 C229 1.203 . S
C326 C48 1.205 . S
C331 C2 1.990 . S
C336 C122 1.989 1_545 S
C341 C42 1.994 . S
C346 C162 1.994 . S
C351 C82 1.994 1_455 S
C356 C202 1.994 . S
C361 C31 4.208 . S
C366 C52 4.238 . S
C371 C71 4.208 . S
C376 C92 4.238 . S
C381 C111 4.208 . S
C386 C132 4.238 . S
C391 C151 4.208 . S
C396 C172 4.238 . S
C401 C191 4.208 . S
C406 C212 4.238 . S
C411 C231 4.208 . S
C416 C12 4.238 . S
