# Generated by pormake.
# Topology som, (6)-cn, num edge types: 1
# Building blocks:
#     Node 0, Type 0, BuildingBlock: JUFBIX_clean_sbu_0, # of connection points: 6
#     Node 1, Type 0, BuildingBlock: JUFBIX_clean_sbu_0, # of connection points: 6
#     Node 2, Type 0, BuildingBlock: JUFBIX_clean_sbu_0, # of connection points: 6
#     Node 3, Type 0, BuildingBlock: JUFBIX_clean_sbu_0, # of connection points: 6
#     Node 4, Type 0, BuildingBlock: JUFBIX_clean_sbu_0, # of connection points: 6
#     Node 5, Type 0, BuildingBlock: JUFBIX_clean_sbu_0, # of connection points: 6
#     Node 6, Type 0, BuildingBlock: JUFBIX_clean_sbu_0, # of connection points: 6
#     Node 7, Type 0, BuildingBlock: JUFBIX_clean_sbu_0, # of connection points: 6
#     Node 8, Type 0, BuildingBlock: JUFBIX_clean_sbu_0, # of connection points: 6
#     Node 9, Type 0, BuildingBlock: JUFBIX_clean_sbu_0, # of connection points: 6
#     Node 10, Type 0, BuildingBlock: JUFBIX_clean_sbu_0, # of connection points: 6
#     Node 11, Type 0, BuildingBlock: JUFBIX_clean_sbu_0, # of connection points: 6
#     Node 12, Type 0, BuildingBlock: JUFBIX_clean_sbu_0, # of connection points: 6
#     Node 13, Type 0, BuildingBlock: JUFBIX_clean_sbu_0, # of connection points: 6
#     Node 14, Type 0, BuildingBlock: JUFBIX_clean_sbu_0, # of connection points: 6
#     Node 15, Type 0, BuildingBlock: JUFBIX_clean_sbu_0, # of connection points: 6
#     Node 16, Type 0, BuildingBlock: JUFBIX_clean_sbu_0, # of connection points: 6
#     Node 17, Type 0, BuildingBlock: JUFBIX_clean_sbu_0, # of connection points: 6
#     Node 18, Type 0, BuildingBlock: JUFBIX_clean_sbu_0, # of connection points: 6
#     Node 19, Type 0, BuildingBlock: JUFBIX_clean_sbu_0, # of connection points: 6
#     Node 20, Type 0, BuildingBlock: JUFBIX_clean_sbu_0, # of connection points: 6
#     Node 21, Type 0, BuildingBlock: JUFBIX_clean_sbu_0, # of connection points: 6
#     Node 22, Type 0, BuildingBlock: JUFBIX_clean_sbu_0, # of connection points: 6
#     Node 23, Type 0, BuildingBlock: JUFBIX_clean_sbu_0, # of connection points: 6
#     Node 24, Type 0, BuildingBlock: JUFBIX_clean_sbu_0, # of connection points: 6
#     Node 25, Type 0, BuildingBlock: JUFBIX_clean_sbu_0, # of connection points: 6
#     Node 26, Type 0, BuildingBlock: JUFBIX_clean_sbu_0, # of connection points: 6
#     Node 27, Type 0, BuildingBlock: JUFBIX_clean_sbu_0, # of connection points: 6
#     Node 28, Type 0, BuildingBlock: JUFBIX_clean_sbu_0, # of connection points: 6
#     Node 29, Type 0, BuildingBlock: JUFBIX_clean_sbu_0, # of connection points: 6
#     Node 30, Type 0, BuildingBlock: JUFBIX_clean_sbu_0, # of connection points: 6
#     Node 31, Type 0, BuildingBlock: JUFBIX_clean_sbu_0, # of connection points: 6
#     Edge 32, Type (0, 0), BuildingBlock: XIVTED_clean_linker_0, # of connection points: 2
#     Edge 33, Type (0, 0), BuildingBlock: XIVTED_clean_linker_0, # of connection points: 2
#     Edge 34, Type (0, 0), BuildingBlock: XIVTED_clean_linker_0, # of connection points: 2
#     Edge 35, Type (0, 0), BuildingBlock: XIVTED_clean_linker_0, # of connection points: 2
#     Edge 36, Type (0, 0), BuildingBlock: XIVTED_clean_linker_0, # of connection points: 2
#     Edge 37, Type (0, 0), BuildingBlock: XIVTED_clean_linker_0, # of connection points: 2
#     Edge 38, Type (0, 0), BuildingBlock: XIVTED_clean_linker_0, # of connection points: 2
#     Edge 39, Type (0, 0), BuildingBlock: XIVTED_clean_linker_0, # of connection points: 2
#     Edge 40, Type (0, 0), BuildingBlock: XIVTED_clean_linker_0, # of connection points: 2
#     Edge 41, Type (0, 0), BuildingBlock: XIVTED_clean_linker_0, # of connection points: 2
#     Edge 42, Type (0, 0), BuildingBlock: XIVTED_clean_linker_0, # of connection points: 2
#     Edge 43, Type (0, 0), BuildingBlock: XIVTED_clean_linker_0, # of connection points: 2
#     Edge 44, Type (0, 0), BuildingBlock: XIVTED_clean_linker_0, # of connection points: 2
#     Edge 45, Type (0, 0), BuildingBlock: XIVTED_clean_linker_0, # of connection points: 2
#     Edge 46, Type (0, 0), BuildingBlock: XIVTED_clean_linker_0, # of connection points: 2
#     Edge 47, Type (0, 0), BuildingBlock: XIVTED_clean_linker_0, # of connection points: 2
#     Edge 48, Type (0, 0), BuildingBlock: XIVTED_clean_linker_0, # of connection points: 2
#     Edge 49, Type (0, 0), BuildingBlock: XIVTED_clean_linker_0, # of connection points: 2
#     Edge 50, Type (0, 0), BuildingBlock: XIVTED_clean_linker_0, # of connection points: 2
#     Edge 51, Type (0, 0), BuildingBlock: XIVTED_clean_linker_0, # of connection points: 2
#     Edge 52, Type (0, 0), BuildingBlock: XIVTED_clean_linker_0, # of connection points: 2
#     Edge 53, Type (0, 0), BuildingBlock: XIVTED_clean_linker_0, # of connection points: 2
#     Edge 54, Type (0, 0), BuildingBlock: XIVTED_clean_linker_0, # of connection points: 2
#     Edge 55, Type (0, 0), BuildingBlock: XIVTED_clean_linker_0, # of connection points: 2
#     Edge 56, Type (0, 0), BuildingBlock: XIVTED_clean_linker_0, # of connection points: 2
#     Edge 57, Type (0, 0), BuildingBlock: XIVTED_clean_linker_0, # of connection points: 2
#     Edge 58, Type (0, 0), BuildingBlock: XIVTED_clean_linker_0, # of connection points: 2
#     Edge 59, Type (0, 0), BuildingBlock: XIVTED_clean_linker_0, # of connection points: 2
#     Edge 60, Type (0, 0), BuildingBlock: XIVTED_clean_linker_0, # of connection points: 2
#     Edge 61, Type (0, 0), BuildingBlock: XIVTED_clean_linker_0, # of connection points: 2
#     Edge 62, Type (0, 0), BuildingBlock: XIVTED_clean_linker_0, # of connection points: 2
#     Edge 63, Type (0, 0), BuildingBlock: XIVTED_clean_linker_0, # of connection points: 2
#     Edge 64, Type (0, 0), BuildingBlock: XIVTED_clean_linker_0, # of connection points: 2
#     Edge 65, Type (0, 0), BuildingBlock: XIVTED_clean_linker_0, # of connection points: 2
#     Edge 66, Type (0, 0), BuildingBlock: XIVTED_clean_linker_0, # of connection points: 2
#     Edge 67, Type (0, 0), BuildingBlock: XIVTED_clean_linker_0, # of connection points: 2
#     Edge 68, Type (0, 0), BuildingBlock: XIVTED_clean_linker_0, # of connection points: 2
#     Edge 69, Type (0, 0), BuildingBlock: XIVTED_clean_linker_0, # of connection points: 2
#     Edge 70, Type (0, 0), BuildingBlock: XIVTED_clean_linker_0, # of connection points: 2
#     Edge 71, Type (0, 0), BuildingBlock: XIVTED_clean_linker_0, # of connection points: 2
#     Edge 72, Type (0, 0), BuildingBlock: XIVTED_clean_linker_0, # of connection points: 2
#     Edge 73, Type (0, 0), BuildingBlock: XIVTED_clean_linker_0, # of connection points: 2
#     Edge 74, Type (0, 0), BuildingBlock: XIVTED_clean_linker_0, # of connection points: 2
#     Edge 75, Type (0, 0), BuildingBlock: XIVTED_clean_linker_0, # of connection points: 2
#     Edge 76, Type (0, 0), BuildingBlock: XIVTED_clean_linker_0, # of connection points: 2
#     Edge 77, Type (0, 0), BuildingBlock: XIVTED_clean_linker_0, # of connection points: 2
#     Edge 78, Type (0, 0), BuildingBlock: XIVTED_clean_linker_0, # of connection points: 2
#     Edge 79, Type (0, 0), BuildingBlock: XIVTED_clean_linker_0, # of connection points: 2
#     Edge 80, Type (0, 0), BuildingBlock: XIVTED_clean_linker_0, # of connection points: 2
#     Edge 81, Type (0, 0), BuildingBlock: XIVTED_clean_linker_0, # of connection points: 2
#     Edge 82, Type (0, 0), BuildingBlock: XIVTED_clean_linker_0, # of connection points: 2
#     Edge 83, Type (0, 0), BuildingBlock: XIVTED_clean_linker_0, # of connection points: 2
#     Edge 84, Type (0, 0), BuildingBlock: XIVTED_clean_linker_0, # of connection points: 2
#     Edge 85, Type (0, 0), BuildingBlock: XIVTED_clean_linker_0, # of connection points: 2
#     Edge 86, Type (0, 0), BuildingBlock: XIVTED_clean_linker_0, # of connection points: 2
#     Edge 87, Type (0, 0), BuildingBlock: XIVTED_clean_linker_0, # of connection points: 2
#     Edge 88, Type (0, 0), BuildingBlock: XIVTED_clean_linker_0, # of connection points: 2
#     Edge 89, Type (0, 0), BuildingBlock: XIVTED_clean_linker_0, # of connection points: 2
#     Edge 90, Type (0, 0), BuildingBlock: XIVTED_clean_linker_0, # of connection points: 2
#     Edge 91, Type (0, 0), BuildingBlock: XIVTED_clean_linker_0, # of connection points: 2
#     Edge 92, Type (0, 0), BuildingBlock: XIVTED_clean_linker_0, # of connection points: 2
#     Edge 93, Type (0, 0), BuildingBlock: XIVTED_clean_linker_0, # of connection points: 2
#     Edge 94, Type (0, 0), BuildingBlock: XIVTED_clean_linker_0, # of connection points: 2
#     Edge 95, Type (0, 0), BuildingBlock: XIVTED_clean_linker_0, # of connection points: 2
#     Edge 96, Type (0, 0), BuildingBlock: XIVTED_clean_linker_0, # of connection points: 2
#     Edge 97, Type (0, 0), BuildingBlock: XIVTED_clean_linker_0, # of connection points: 2
#     Edge 98, Type (0, 0), BuildingBlock: XIVTED_clean_linker_0, # of connection points: 2
#     Edge 99, Type (0, 0), BuildingBlock: XIVTED_clean_linker_0, # of connection points: 2
#     Edge 100, Type (0, 0), BuildingBlock: XIVTED_clean_linker_0, # of connection points: 2
#     Edge 101, Type (0, 0), BuildingBlock: XIVTED_clean_linker_0, # of connection points: 2
#     Edge 102, Type (0, 0), BuildingBlock: XIVTED_clean_linker_0, # of connection points: 2
#     Edge 103, Type (0, 0), BuildingBlock: XIVTED_clean_linker_0, # of connection points: 2
#     Edge 104, Type (0, 0), BuildingBlock: XIVTED_clean_linker_0, # of connection points: 2
#     Edge 105, Type (0, 0), BuildingBlock: XIVTED_clean_linker_0, # of connection points: 2
#     Edge 106, Type (0, 0), BuildingBlock: XIVTED_clean_linker_0, # of connection points: 2
#     Edge 107, Type (0, 0), BuildingBlock: XIVTED_clean_linker_0, # of connection points: 2
#     Edge 108, Type (0, 0), BuildingBlock: XIVTED_clean_linker_0, # of connection points: 2
#     Edge 109, Type (0, 0), BuildingBlock: XIVTED_clean_linker_0, # of connection points: 2
#     Edge 110, Type (0, 0), BuildingBlock: XIVTED_clean_linker_0, # of connection points: 2
#     Edge 111, Type (0, 0), BuildingBlock: XIVTED_clean_linker_0, # of connection points: 2
#     Edge 112, Type (0, 0), BuildingBlock: XIVTED_clean_linker_0, # of connection points: 2
#     Edge 113, Type (0, 0), BuildingBlock: XIVTED_clean_linker_0, # of connection points: 2
#     Edge 114, Type (0, 0), BuildingBlock: XIVTED_clean_linker_0, # of connection points: 2
#     Edge 115, Type (0, 0), BuildingBlock: XIVTED_clean_linker_0, # of connection points: 2
#     Edge 116, Type (0, 0), BuildingBlock: XIVTED_clean_linker_0, # of connection points: 2
#     Edge 117, Type (0, 0), BuildingBlock: XIVTED_clean_linker_0, # of connection points: 2
#     Edge 118, Type (0, 0), BuildingBlock: XIVTED_clean_linker_0, # of connection points: 2
#     Edge 119, Type (0, 0), BuildingBlock: XIVTED_clean_linker_0, # of connection points: 2
#     Edge 120, Type (0, 0), BuildingBlock: XIVTED_clean_linker_0, # of connection points: 2
#     Edge 121, Type (0, 0), BuildingBlock: XIVTED_clean_linker_0, # of connection points: 2
#     Edge 122, Type (0, 0), BuildingBlock: XIVTED_clean_linker_0, # of connection points: 2
#     Edge 123, Type (0, 0), BuildingBlock: XIVTED_clean_linker_0, # of connection points: 2
#     Edge 124, Type (0, 0), BuildingBlock: XIVTED_clean_linker_0, # of connection points: 2
#     Edge 125, Type (0, 0), BuildingBlock: XIVTED_clean_linker_0, # of connection points: 2
#     Edge 126, Type (0, 0), BuildingBlock: XIVTED_clean_linker_0, # of connection points: 2
#     Edge 127, Type (0, 0), BuildingBlock: XIVTED_clean_linker_0, # of connection points: 2
# Relax obj value: 0.014
# Max RMSD: 0.055
# Mean RMSD: 0.055
data_MOF--net-som--node1-JUFBIX_clean_sbu_0--edge1-XIVTED_clean_linker_0
_symmetry_space_group_name_H-M    P1
_symmetry_Int_Tables_number       1
_symmetry_cell_setting            triclinic
loop_
_symmetry_equiv_pos_as_xyz
'x, y, z'
_cell_length_a     15.097543
_cell_length_b     78.108639
_cell_length_c     119.26934
_cell_angle_alpha  90.00871
_cell_angle_beta   89.987196
_cell_angle_gamma 89.992792
loop_
_atom_site_label
_atom_site_type_symbol
_atom_site_fract_x
_atom_site_fract_y
_atom_site_fract_z
_atom_type_partial_charge
Co0 Co 0.01041 0.54124 0.06488 0.0
C1 C -0.0014 0.5258 0.04368 0.0
Co2 Co 0.01024 0.51289 0.06497 0.0
C3 C 0.04244 0.57781 0.06902 0.0
C4 C 0.93529 0.57262 0.05776 0.0
N5 N -0.00143 0.56486 0.06392 0.0
N6 N 0.00779 0.59326 0.06634 0.0
C7 C 0.94062 0.58998 0.05924 0.0
H8 H 0.0975 0.57592 0.0747 0.0
H9 H 0.88767 0.56604 0.05253 0.0
C10 C 0.02549 0.52849 0.08613 0.0
N11 N 0.02026 0.48917 0.06589 0.0
C12 C 0.96757 0.4766 0.06183 0.0
C13 C 0.08554 0.48087 0.07138 0.0
N14 N -0.00192 0.46082 0.06452 0.0
C15 C 0.07233 0.46355 0.07052 0.0
C16 C 0.17812 0.5286 0.06342 0.0
O17 O 0.02032 0.54243 0.08067 0.0
O18 O 0.02034 0.51433 0.08088 0.0
O19 O 0.13532 0.51461 0.06371 0.0
O20 O 0.13586 0.5427 0.06371 0.0
O21 O 0.00109 0.51174 0.04906 0.0
H22 H 0.1388 0.48705 0.0759 0.0
H23 H 0.90807 0.479 0.05702 0.0
O24 O 0.00173 0.53983 0.04905 0.0
O25 O 0.88534 0.53952 0.06612 0.0
O26 O 0.88473 0.51149 0.06616 0.0
C27 C 0.84247 0.52555 0.06643 0.0
H28 H 0.89921 0.59949 0.05522 0.0
H29 H 0.11283 0.45372 0.07436 0.0
Co30 Co 0.21915 0.76362 0.06492 0.0
C31 C 0.23115 0.77873 0.04362 0.0
Co32 Co 0.21926 0.79198 0.06483 0.0
C33 C 0.1867 0.72709 0.06917 0.0
C34 C 0.29502 0.73217 0.05807 0.0
N35 N 0.23115 0.73999 0.06411 0.0
N36 N 0.22159 0.71161 0.06659 0.0
C37 C 0.28949 0.71483 0.05959 0.0
H38 H 0.13097 0.72902 0.07474 0.0
H39 H 0.3431 0.7387 0.05288 0.0
C40 C 0.20378 0.7767 0.08608 0.0
N41 N 0.20909 0.8157 0.0656 0.0
C42 C 0.26233 0.82822 0.06159 0.0
C43 C 0.14327 0.82407 0.07094 0.0
N44 N 0.23164 0.84403 0.06418 0.0
C45 C 0.1567 0.84138 0.07006 0.0
C46 C 0.05143 0.7762 0.06336 0.0
O47 O 0.20902 0.76267 0.08071 0.0
O48 O 0.209 0.79077 0.08075 0.0
O49 O 0.0942 0.79021 0.06357 0.0
O50 O 0.09371 0.76212 0.06373 0.0
O51 O 0.22854 0.79287 0.04892 0.0
H52 H 0.08953 0.81795 0.07541 0.0
H53 H 0.32243 0.82577 0.05691 0.0
O54 O 0.22805 0.76479 0.04909 0.0
O55 O 0.3442 0.76539 0.06617 0.0
O56 O 0.34478 0.79342 0.06603 0.0
C57 C 0.38706 0.77936 0.06639 0.0
H58 H 0.33121 0.70528 0.05566 0.0
H59 H 0.1159 0.85125 0.07379 0.0
Co60 Co 0.00447 0.76461 0.18822 0.0
C61 C -0.00593 0.78042 0.20938 0.0
Co62 Co 0.00708 0.79292 0.18807 0.0
C63 C 0.03961 0.7276 0.18623 0.0
C64 C 0.9234 0.73412 0.19562 0.0
N65 N 0.99 0.74109 0.18959 0.0
N66 N 0.00618 0.71264 0.19006 0.0
C67 C 0.9333 0.71673 0.19594 0.0
H68 H 0.10112 0.72876 0.18163 0.0
H69 H 0.87252 0.74129 0.19995 0.0
C70 C 0.02126 0.77679 0.16697 0.0
N71 N 0.0192 0.81653 0.18693 0.0
C72 C 0.96764 0.82922 0.19103 0.0
C73 C 0.08447 0.82462 0.18132 0.0
N74 N -0.00134 0.8449 0.18823 0.0
C75 C 0.07223 0.84199 0.18212 0.0
C76 C 0.17352 0.77669 0.18969 0.0
O77 O 0.01478 0.76293 0.1725 0.0
O78 O 0.0171 0.79104 0.17213 0.0
O79 O 0.13195 0.79082 0.18932 0.0
O80 O 0.12997 0.76274 0.18948 0.0
O81 O -0.00182 0.79446 0.204 0.0
H82 H 0.13702 0.81828 0.17676 0.0
H83 H 0.90854 0.82698 0.19596 0.0
O84 O -0.00454 0.76642 0.20399 0.0
O85 O 0.87962 0.7668 0.18686 0.0
O86 O 0.88154 0.79479 0.18687 0.0
C87 C 0.83797 0.78089 0.18656 0.0
H88 H 0.89202 0.70778 0.2005 0.0
H89 H 0.11287 0.8517 0.1782 0.0
Co90 Co 0.22411 0.54099 0.18835 0.0
C91 C 0.23476 0.52486 0.20942 0.0
Co92 Co 0.22156 0.51269 0.18805 0.0
C93 C 0.19099 0.57816 0.1865 0.0
C94 C 0.30605 0.57121 0.19597 0.0
N95 N 0.23917 0.56449 0.18988 0.0
N96 N 0.2255 0.59301 0.1904 0.0
C97 C 0.29787 0.58862 0.1963 0.0
H98 H 0.13005 0.57722 0.18176 0.0
H99 H 0.3564 0.56386 0.20026 0.0
C100 C 0.20724 0.52906 0.16704 0.0
N101 N 0.20915 0.48912 0.18679 0.0
C102 C 0.26039 0.4764 0.1909 0.0
C103 C 0.14415 0.48108 0.1811 0.0
N104 N 0.22949 0.46074 0.18803 0.0
C105 C 0.15628 0.4637 0.18187 0.0
C106 C 0.05512 0.52896 0.18978 0.0
O107 O 0.2136 0.54288 0.17261 0.0
O108 O 0.21156 0.51477 0.17215 0.0
O109 O 0.09669 0.51483 0.18933 0.0
O110 O 0.09866 0.54292 0.18965 0.0
O111 O 0.23052 0.51091 0.20395 0.0
H112 H 0.09184 0.48746 0.17653 0.0
H113 H 0.31916 0.47861 0.19589 0.0
O114 O 0.23328 0.53895 0.20412 0.0
O115 O 0.34897 0.53876 0.18694 0.0
O116 O 0.34708 0.51076 0.18683 0.0
C117 C 0.39064 0.52467 0.18657 0.0
H118 H 0.34067 0.59739 0.20077 0.0
H119 H 0.11581 0.45401 0.17789 0.0
Co120 Co 0.9644 0.54321 0.93831 0.0
C121 C 0.95124 0.52724 0.91717 0.0
Co122 Co 0.96629 0.51482 0.93843 0.0
C123 C 0.00618 0.57997 0.94022 0.0
C124 C 0.88731 0.57449 0.9311 0.0
N125 N 0.95264 0.56692 0.93704 0.0
N126 N 0.9767 0.59524 0.93637 0.0
C127 C 0.90202 0.59179 0.93066 0.0
H128 H 0.06789 0.57822 0.9447 0.0
H129 H 0.83423 0.56776 0.9269 0.0
C130 C 0.97633 0.53065 0.9596 0.0
N131 N 0.97914 0.49121 0.93958 0.0
C132 C 0.93439 0.47814 0.93475 0.0
C133 C 0.0428 0.48358 0.94575 0.0
N134 N 0.96867 0.46272 0.93761 0.0
C135 C 0.03669 0.46618 0.94455 0.0
C136 C 0.13317 0.53091 0.93694 0.0
O137 O 0.97279 0.54469 0.95419 0.0
O138 O 0.97453 0.51658 0.95426 0.0
O139 O 0.09136 0.51682 0.93723 0.0
O140 O 0.08985 0.54487 0.93719 0.0
O141 O 0.95685 0.51331 0.92264 0.0
H142 H 0.09089 0.49029 0.95084 0.0
H143 H 0.87865 0.47991 0.92916 0.0
O144 O 0.9553 0.5414 0.92242 0.0
O145 O 0.83928 0.54118 0.93951 0.0
O146 O 0.84096 0.51309 0.93957 0.0
C147 C 0.79758 0.52706 0.93981 0.0
H148 H 0.86251 0.60109 0.92615 0.0
H149 H 0.07806 0.45677 0.94867 0.0
Co150 Co 0.76139 0.26308 0.93866 0.0
C151 C 0.77521 0.27854 0.91744 0.0
Co152 Co 0.75934 0.29147 0.93864 0.0
C153 C 0.71927 0.22668 0.94181 0.0
C154 C 0.8382 0.23104 0.93247 0.0
N155 N 0.77221 0.2393 0.93785 0.0
N156 N 0.75029 0.21091 0.93915 0.0
C157 C 0.82516 0.2137 0.93329 0.0
H158 H 0.65911 0.22903 0.9465 0.0
H159 H 0.89175 0.23725 0.92802 0.0
C160 C 0.74902 0.2763 0.9599 0.0
N161 N 0.74689 0.31513 0.93948 0.0
C162 C 0.79285 0.32808 0.93469 0.0
C163 C 0.68244 0.32293 0.94543 0.0
N164 N 0.75848 0.34357 0.93734 0.0
C165 C 0.6892 0.3403 0.94412 0.0
C166 C 0.59253 0.27541 0.93719 0.0
O167 O 0.75248 0.26216 0.95461 0.0
O168 O 0.75094 0.29025 0.95444 0.0
O169 O 0.63427 0.28951 0.93744 0.0
O170 O 0.63592 0.26147 0.9375 0.0
O171 O 0.7689 0.29249 0.92287 0.0
H172 H 0.63347 0.31637 0.95047 0.0
H173 H 0.84961 0.32616 0.92928 0.0
O174 O 0.77132 0.26438 0.9227 0.0
O175 O 0.88645 0.26504 0.93987 0.0
O176 O 0.88475 0.29313 0.93976 0.0
C177 C 0.92813 0.27917 0.94009 0.0
H178 H 0.86622 0.20392 0.9295 0.0
H179 H 0.64749 0.34982 0.94808 0.0
Co180 Co 0.9676 0.26312 0.81505 0.0
C181 C 0.9533 0.27823 0.83637 0.0
Co182 Co 0.96956 0.29151 0.81527 0.0
C183 C 0.00954 0.22677 0.81172 0.0
C184 C 0.89014 0.23103 0.82098 0.0
N185 N 0.95641 0.23935 0.81571 0.0
N186 N 0.9784 0.21097 0.81426 0.0
C187 C 0.90322 0.21369 0.82008 0.0
H188 H 0.06997 0.22918 0.8071 0.0
H189 H 0.8364 0.23718 0.82543 0.0
C190 C 0.98046 0.27661 0.79391 0.0
N191 N 0.98264 0.31518 0.81457 0.0
C192 C 0.93721 0.32817 0.8194 0.0
C193 C 0.04781 0.32291 0.80871 0.0
N194 N 0.97272 0.34362 0.81687 0.0
C195 C 0.04209 0.34027 0.81013 0.0
C196 C 0.1364 0.27535 0.81666 0.0
O197 O 0.97676 0.26241 0.79913 0.0
O198 O 0.97843 0.2905 0.79945 0.0
O199 O 0.09461 0.28944 0.81651 0.0
O200 O 0.09303 0.26142 0.81623 0.0
O201 O 0.95948 0.29229 0.83106 0.0
H202 H 0.09664 0.31632 0.80367 0.0
H203 H 0.88007 0.32633 0.82475 0.0
O204 O 0.95751 0.26418 0.83099 0.0
O205 O 0.84253 0.26517 0.81382 0.0
O206 O 0.8442 0.29326 0.8141 0.0
C207 C 0.80083 0.2793 0.81368 0.0
H208 H 0.86202 0.20387 0.82379 0.0
H209 H 0.08459 0.34976 0.80627 0.0
Co210 Co 0.76364 0.54279 0.81483 0.0
C211 C 0.77717 0.52711 0.836 0.0
Co212 Co 0.76161 0.51439 0.81477 0.0
C213 C 0.7227 0.57933 0.81181 0.0
C214 C 0.84125 0.57468 0.82115 0.0
N215 N 0.77494 0.56657 0.81574 0.0
N216 N 0.75458 0.59503 0.8145 0.0
C217 C 0.82918 0.59205 0.82038 0.0
H218 H 0.66253 0.57714 0.80709 0.0
H219 H 0.89447 0.56834 0.82559 0.0
C220 C 0.75153 0.52974 0.79356 0.0
N221 N 0.74863 0.49074 0.81383 0.0
C222 C 0.79267 0.4777 0.8188 0.0
C223 C 0.68479 0.48309 0.8077 0.0
N224 N 0.75763 0.46229 0.81607 0.0
C225 C 0.68998 0.46571 0.80907 0.0
C226 C 0.59481 0.53052 0.81624 0.0
O227 O 0.75478 0.54387 0.79888 0.0
O228 O 0.75359 0.51577 0.79899 0.0
O229 O 0.63657 0.51642 0.81594 0.0
O230 O 0.63819 0.54446 0.816 0.0
O231 O 0.7708 0.51321 0.83053 0.0
H232 H 0.63706 0.48977 0.80254 0.0
H233 H 0.8483 0.47948 0.8244 0.0
O234 O 0.7735 0.54132 0.83078 0.0
O235 O 0.8887 0.54076 0.8136 0.0
O236 O 0.88702 0.51266 0.81367 0.0
C237 C 0.9304 0.52663 0.81337 0.0
H238 H 0.87078 0.60172 0.82418 0.0
H239 H 0.64819 0.45629 0.80504 0.0
Co240 Co 0.01418 0.04135 0.56485 0.0
C241 C 0.0024 1.02586 0.54367 0.0
Co242 Co 0.01387 1.01296 0.56497 0.0
C243 C 0.04768 0.07803 0.5687 0.0
C244 C 0.93837 0.07273 0.55781 0.0
N245 N 0.00249 0.06502 0.56386 0.0
N246 N 0.01301 0.09347 0.56598 0.0
C247 C 0.94447 0.09011 0.55912 0.0
H248 H 0.10384 0.0762 0.57421 0.0
H249 H 0.88982 0.06611 0.55274 0.0
C250 C 0.02892 0.02866 0.58611 0.0
N251 N 0.02394 0.98919 0.56593 0.0
C252 C 0.97178 0.97652 0.56187 0.0
C253 C 0.08939 0.98099 0.57145 0.0
N254 N 0.00291 0.96078 0.56459 0.0
C255 C 0.0769 0.96364 0.57061 0.0
C256 C 0.18182 0.02868 0.56343 0.0
O257 O 0.02396 0.04259 0.58064 0.0
O258 O 0.02381 1.01448 0.58089 0.0
O259 O 0.13899 1.01469 0.56372 0.0
O260 O 0.1396 0.04279 0.56369 0.0
O261 O 0.00484 1.0118 0.54906 0.0
H262 H 0.14238 0.98725 0.57597 0.0
H263 H 0.91231 0.9788 0.55703 0.0
O264 O 0.00554 0.03989 0.54904 0.0
O265 O 0.88906 0.03961 0.56609 0.0
O266 O 0.88839 1.01157 0.56615 0.0
C267 C 0.84618 1.02564 0.56641 0.0
H268 H 0.90268 0.09958 0.55513 0.0
H269 H 0.1178 0.9539 0.57446 0.0
Co270 Co 0.22326 0.26433 0.56501 0.0
C271 C 0.23342 0.28036 0.54392 0.0
Co272 Co 0.22124 0.29273 0.56527 0.0
C273 C 0.19251 0.22757 0.56859 0.0
C274 C 0.30018 0.23324 0.55751 0.0
N275 N 0.23641 0.24073 0.56374 0.0
N276 N 0.22755 0.21223 0.5657 0.0
C277 C 0.29507 0.21582 0.55871 0.0
H278 H 0.13705 0.22921 0.57424 0.0
H279 H 0.34786 0.24005 0.55242 0.0
C280 C 0.20775 0.27645 0.58633 0.0
N281 N 0.20937 0.31645 0.56667 0.0
C282 C 0.26239 0.32959 0.56348 0.0
C283 C 0.14412 0.32392 0.57267 0.0
N284 N 0.23265 0.34481 0.5674 0.0
C285 C 0.15834 0.34123 0.57316 0.0
C286 C 0.0545 0.27656 0.56368 0.0
O287 O 0.2138 0.26262 0.58077 0.0
O288 O 0.21173 0.2907 0.58119 0.0
O289 O 0.09617 0.29068 0.56404 0.0
O290 O 0.0979 0.26259 0.56386 0.0
O291 O 0.22991 0.29437 0.54937 0.0
H292 H 0.09133 0.31711 0.57688 0.0
H293 H 0.32385 0.32794 0.55893 0.0
O294 O 0.23153 0.26626 0.54922 0.0
O295 O 0.34829 0.26635 0.56622 0.0
O296 O 0.34669 0.2944 0.56644 0.0
C297 C 0.39006 0.28045 0.56661 0.0
H298 H 0.33687 0.2065 0.55458 0.0
H299 H 0.11864 0.35046 0.5777 0.0
Co300 Co 0.01423 0.26473 0.68861 0.0
C301 C 0.00349 0.28043 0.70981 0.0
Co302 Co 0.01633 0.29312 0.68856 0.0
C303 C 0.04468 0.22801 0.68488 0.0
C304 C 0.93585 0.23364 0.69579 0.0
N305 N 0.00047 0.24115 0.68971 0.0
N306 N 0.00901 0.21267 0.68764 0.0
C307 C 0.94075 0.21623 0.69451 0.0
H308 H 0.1009 0.22967 0.67936 0.0
H309 H 0.8878 0.24042 0.70085 0.0
C310 C 0.03024 0.27717 0.66739 0.0
N311 N 0.02891 0.31683 0.68733 0.0
C312 C 0.976 0.32997 0.69053 0.0
C313 C 0.09507 0.32431 0.6815 0.0
N314 N 0.00667 0.34522 0.68678 0.0
C315 C 0.08159 0.34164 0.68115 0.0
C316 C 0.18301 0.27682 0.6901 0.0
O317 O 0.02414 0.26325 0.67284 0.0
O318 O 0.02614 0.29134 0.67264 0.0
O319 O 0.14134 0.29095 0.68983 0.0
O320 O 0.13957 0.26287 0.6898 0.0
O321 O 0.00732 0.29453 0.70447 0.0
H322 H 0.14816 0.31752 0.67734 0.0
H323 H 0.91408 0.32831 0.69498 0.0
O324 O 0.00546 0.26643 0.7044 0.0
O325 O 0.88925 0.26688 0.68734 0.0
O326 O 0.89088 0.29492 0.68736 0.0
C327 C 0.84749 0.28097 0.68706 0.0
H328 H 0.89836 0.20689 0.69853 0.0
H329 H 0.12245 0.3509 0.6768 0.0
Co330 Co 0.21589 0.04164 0.6887 0.0
C331 C 0.22736 1.0254 0.70974 0.0
Co332 Co 0.21608 1.01326 0.68835 0.0
C333 C 0.18448 0.07838 0.68516 0.0
C334 C 0.29096 0.07273 0.69642 0.0
N335 N 0.22794 0.06523 0.69008 0.0
N336 N 0.21911 0.09372 0.68811 0.0
C337 C 0.28586 0.09014 0.69521 0.0
H338 H 0.1298 0.07672 0.67939 0.0
H339 H 0.33831 0.06593 0.70157 0.0
C340 C 0.20148 0.02969 0.66734 0.0
N341 N 0.20523 0.98957 0.68684 0.0
C342 C 0.25856 0.97648 0.69001 0.0
C343 C 0.14031 0.98208 0.6808 0.0
N344 N 0.22934 0.96126 0.68603 0.0
C345 C 0.15504 0.9648 0.68026 0.0
C346 C 0.0482 0.02903 0.69002 0.0
O347 O 0.20639 0.0435 0.67294 0.0
O348 O 0.20643 1.01543 0.67245 0.0
O349 O 0.091 1.01504 0.68961 0.0
O350 O 0.09045 0.04313 0.68986 0.0
O351 O 0.22493 1.01144 0.70423 0.0
H352 H 0.08737 0.98887 0.6766 0.0
H353 H 0.31986 0.97816 0.69459 0.0
O354 O 0.22426 0.03955 0.70449 0.0
O355 O 0.34094 0.03989 0.68747 0.0
O356 O 0.34161 1.01184 0.68716 0.0
C357 C 0.38383 1.02593 0.68703 0.0
H358 H 0.32724 0.09948 0.6994 0.0
H359 H 0.11568 0.95555 0.67568 0.0
Co360 Co 0.96726 0.04289 0.43823 0.0
C361 C 0.95231 1.02655 0.4172 0.0
Co362 Co 0.96705 1.0145 0.43853 0.0
C363 C 0.01053 0.07963 0.44 0.0
C364 C 0.89226 0.07419 0.43075 0.0
N365 N 0.95692 0.0666 0.43679 0.0
N366 N 0.98173 0.0949 0.43605 0.0
C367 C 0.90743 0.09146 0.43026 0.0
H368 H 0.07173 0.07787 0.44458 0.0
H369 H 0.8392 0.06748 0.42653 0.0
C370 C 0.97878 0.03062 0.4596 0.0
N371 N 0.97854 0.99088 0.43985 0.0
C372 C 0.9343 0.97782 0.43494 0.0
C373 C 0.04124 0.98326 0.44617 0.0
N374 N 0.96801 0.9624 0.4379 0.0
C375 C 0.03507 0.96585 0.44499 0.0
C376 C 0.13501 0.03013 0.43687 0.0
O377 O 0.97633 0.0446 0.45412 0.0
O378 O 0.97559 1.0165 0.45432 0.0
O379 O 0.09213 1.01617 0.43729 0.0
O380 O 0.09279 0.04422 0.43702 0.0
O381 O 0.95736 1.01273 0.42277 0.0
H382 H 0.08894 0.98996 0.45132 0.0
H383 H 0.87955 0.97959 0.4292 0.0
O384 O 0.95738 0.04081 0.42232 0.0
O385 O 0.84216 0.04118 0.43951 0.0
O386 O 0.84162 1.0131 0.4397 0.0
C387 C 0.79936 1.02719 0.43989 0.0
H388 H 0.86841 0.10077 0.42569 0.0
H389 H 0.07588 0.95644 0.44919 0.0
Co390 Co 0.76432 0.76267 0.43815 0.0
C391 C 0.77831 0.77838 0.41703 0.0
Co392 Co 0.76233 0.79104 0.43831 0.0
C393 C 0.72237 0.72636 0.4413 0.0
C394 C 0.84016 0.73065 0.43172 0.0
N395 N 0.77495 0.73894 0.43723 0.0
N396 N 0.75277 0.71057 0.43858 0.0
C397 C 0.82693 0.71331 0.43256 0.0
H398 H 0.66296 0.72875 0.44613 0.0
H399 H 0.89332 0.73684 0.42719 0.0
C400 C 0.75173 0.77556 0.45947 0.0
N401 N 0.74993 0.81469 0.43928 0.0
C402 C 0.79551 0.82768 0.43449 0.0
C403 C 0.68566 0.82241 0.44531 0.0
N404 N 0.76106 0.84314 0.43722 0.0
C405 C 0.69214 0.83979 0.44404 0.0
C406 C 0.59549 0.77503 0.43675 0.0
O407 O 0.75525 0.76152 0.45407 0.0
O408 O 0.7538 0.78961 0.45412 0.0
O409 O 0.63725 0.78913 0.43709 0.0
O410 O 0.63887 0.76109 0.43697 0.0
O411 O 0.77203 0.79227 0.42253 0.0
H412 H 0.63693 0.81579 0.45035 0.0
H413 H 0.85199 0.82583 0.42903 0.0
O414 O 0.77432 0.76416 0.42223 0.0
O415 O 0.8894 0.76457 0.43939 0.0
O416 O 0.88772 0.79267 0.43946 0.0
C417 C 0.93109 0.7787 0.4397 0.0
H418 H 0.86738 0.70351 0.4287 0.0
H419 H 0.65047 0.84927 0.44805 0.0
Co420 Co 0.97162 0.76297 0.31468 0.0
C421 C 0.95647 0.7782 0.33598 0.0
Co422 Co 0.97136 0.79138 0.31486 0.0
C423 C 0.01391 0.72651 0.31142 0.0
C424 C 0.89514 0.73093 0.32078 0.0
N425 N 0.96131 0.73916 0.31542 0.0
N426 N 0.98232 0.71075 0.31401 0.0
C427 C 0.9076 0.71358 0.31989 0.0
H428 H 0.0741 0.72882 0.30672 0.0
H429 H 0.84173 0.73715 0.32525 0.0
C430 C 0.98295 0.77639 0.29351 0.0
N431 N 0.98335 0.81508 0.31409 0.0
C432 C 0.93851 0.82803 0.31905 0.0
C433 C 0.04749 0.82286 0.30807 0.0
N434 N 0.97343 0.8435 0.31645 0.0
C435 C 0.04176 0.84022 0.30953 0.0
C436 C 0.13933 0.77559 0.31624 0.0
O437 O 0.98057 0.76219 0.29874 0.0
O438 O 0.97997 0.79028 0.29904 0.0
O439 O 0.09644 0.78956 0.31607 0.0
O440 O 0.09711 0.76152 0.31584 0.0
O441 O 0.96154 0.79225 0.33064 0.0
H442 H 0.0958 0.8163 0.30293 0.0
H443 H 0.88239 0.82614 0.32457 0.0
O444 O 0.96163 0.76414 0.33062 0.0
O445 O 0.84652 0.76479 0.31345 0.0
O446 O 0.84593 0.79289 0.31371 0.0
C447 C 0.80371 0.7788 0.3133 0.0
H448 H 0.86619 0.70382 0.32363 0.0
H449 H 0.08362 0.84973 0.30559 0.0
Co450 Co 0.75989 0.04262 0.31486 0.0
C451 C 0.77493 1.02724 0.33613 0.0
Co452 Co 0.76012 1.0142 0.31497 0.0
C453 C 0.71752 0.0791 0.31169 0.0
C454 C 0.83612 0.07464 0.32107 0.0
N455 N 0.77009 0.06643 0.31568 0.0
N456 N 0.74901 0.09485 0.31433 0.0
C457 C 0.82363 0.09199 0.32023 0.0
H458 H 0.65744 0.07681 0.30698 0.0
H459 H 0.88948 0.0684 0.32553 0.0
C460 C 0.74867 0.02931 0.29366 0.0
N461 N 0.74822 0.99052 0.31413 0.0
C462 C 0.79294 0.97755 0.3191 0.0
C463 C 0.68425 0.98275 0.30809 0.0
N464 N 0.75812 0.96208 0.31645 0.0
C465 C 0.68996 0.96539 0.30951 0.0
C466 C 0.59216 0.02998 0.31639 0.0
O467 O 0.75099 0.0435 0.29892 0.0
O468 O 0.75163 1.0154 0.29916 0.0
O469 O 0.63504 1.016 0.31618 0.0
O470 O 0.63438 0.04405 0.31603 0.0
O471 O 0.76981 1.01323 0.33074 0.0
H472 H 0.63603 0.98933 0.30295 0.0
H473 H 0.84889 0.97942 0.32464 0.0
O474 O 0.76984 0.04134 0.33081 0.0
O475 O 0.88498 0.04082 0.31364 0.0
O476 O 0.88557 1.01272 0.31383 0.0
C477 C 0.92779 1.02681 0.31345 0.0
H478 H 0.86495 0.10174 0.324 0.0
H479 H 0.64819 0.95589 0.30555 0.0
Co480 Co 0.50995 0.54175 0.56477 0.0
C481 C 0.49973 0.52581 0.54364 0.0
Co482 Co 0.51205 0.51335 0.56496 0.0
C483 C 0.54036 0.57854 0.56839 0.0
C484 C 0.43277 0.57283 0.55731 0.0
N485 N 0.49663 0.56536 0.56353 0.0
N486 N 0.50514 0.59387 0.5655 0.0
C487 C 0.43766 0.59025 0.55852 0.0
H488 H 0.59585 0.57692 0.57403 0.0
H489 H 0.38518 0.56601 0.55221 0.0
C490 C 0.5256 0.52957 0.58605 0.0
N491 N 0.52409 0.48962 0.56631 0.0
C492 C 0.47119 0.47647 0.5631 0.0
C493 C 0.5897 0.48215 0.57224 0.0
N494 N 0.50131 0.46123 0.56695 0.0
C495 C 0.57586 0.46482 0.57266 0.0
C496 C 0.67875 0.52955 0.56338 0.0
O497 O 0.51941 0.54341 0.58051 0.0
O498 O 0.5217 0.51533 0.58088 0.0
O499 O 0.63709 0.51543 0.5637 0.0
O500 O 0.63533 0.54352 0.56361 0.0
O501 O 0.50329 0.51176 0.54904 0.0
H502 H 0.64264 0.48895 0.57642 0.0
H503 H 0.40965 0.47812 0.55857 0.0
O504 O 0.50166 0.53987 0.54899 0.0
O505 O 0.38494 0.53969 0.56599 0.0
O506 O 0.38659 0.51165 0.56614 0.0
C507 C 0.3432 0.5256 0.56634 0.0
H508 H 0.39575 0.59956 0.55439 0.0
H509 H 0.61624 0.45558 0.5771 0.0
Co510 Co 0.71629 0.76491 0.56472 0.0
C511 C 0.72818 0.78043 0.54353 0.0
Co512 Co 0.71662 0.79332 0.56482 0.0
C513 C 0.68297 0.72821 0.56855 0.0
C514 C 0.79221 0.73355 0.55765 0.0
N515 N 0.72805 0.74124 0.56371 0.0
N516 N 0.71778 0.71278 0.56582 0.0
C517 C 0.78628 0.71617 0.55895 0.0
H518 H 0.62681 0.73001 0.57407 0.0
H519 H 0.84071 0.7402 0.55259 0.0
C520 C 0.70152 0.77763 0.58597 0.0
N521 N 0.7065 0.81708 0.56579 0.0
C522 C 0.75876 0.82976 0.56176 0.0
C523 C 0.64092 0.82527 0.5713 0.0
N524 N 0.72757 0.84549 0.56448 0.0
C525 C 0.65343 0.84262 0.57048 0.0
C526 C 0.54867 0.77757 0.56328 0.0
O527 O 0.70642 0.76368 0.5805 0.0
O528 O 0.70668 0.7918 0.58073 0.0
O529 O 0.59149 0.79157 0.56358 0.0
O530 O 0.59089 0.76347 0.56355 0.0
O531 O 0.72568 0.79448 0.54892 0.0
H532 H 0.58783 0.81901 0.5758 0.0
H533 H 0.81836 0.82748 0.55694 0.0
O534 O 0.72502 0.76639 0.5489 0.0
O535 O 0.8414 0.76666 0.56596 0.0
O536 O 0.84209 0.79471 0.566 0.0
C537 C 0.8843 0.78063 0.56627 0.0
H538 H 0.82816 0.70671 0.55495 0.0
H539 H 0.61245 0.85237 0.57431 0.0
Co540 Co 0.51535 0.76487 0.68856 0.0
C541 C 0.50406 0.78094 0.70963 0.0
Co542 Co 0.51521 0.79325 0.68827 0.0
C543 C 0.54764 0.72825 0.68489 0.0
C544 C 0.44102 0.73364 0.69619 0.0
N545 N 0.50362 0.74129 0.68985 0.0
N546 N 0.5139 0.71283 0.68782 0.0
C547 C 0.44703 0.71624 0.69495 0.0
H548 H 0.60224 0.73005 0.67912 0.0
H549 H 0.39348 0.74033 0.70137 0.0
C550 C 0.52964 0.77694 0.66722 0.0
N551 N 0.52593 0.81695 0.68684 0.0
C552 C 0.47278 0.83002 0.6901 0.0
C553 C 0.59091 0.8245 0.68084 0.0
N554 N 0.50213 0.84529 0.68621 0.0
C555 C 0.57645 0.8418 0.68043 0.0
C556 C 0.68308 0.7775 0.68988 0.0
O557 O 0.52466 0.76312 0.6728 0.0
O558 O 0.52484 0.79119 0.67235 0.0
O559 O 0.64028 0.79149 0.68952 0.0
O560 O 0.64081 0.76341 0.68968 0.0
O561 O 0.50641 0.79494 0.70417 0.0
H562 H 0.64389 0.81776 0.67662 0.0
H563 H 0.41163 0.8283 0.69471 0.0
O564 O 0.50713 0.76684 0.70434 0.0
O565 O 0.3903 0.7666 0.68736 0.0
O566 O 0.38967 0.79464 0.6871 0.0
C567 C 0.34743 0.78056 0.68695 0.0
H568 H 0.40628 0.70681 0.69914 0.0
H569 H 0.61624 0.85109 0.67595 0.0
Co570 Co 0.71981 0.54164 0.68824 0.0
C571 C 0.73188 0.52603 0.70945 0.0
Co572 Co 0.71998 0.51326 0.68821 0.0
C573 C 0.68635 0.57824 0.68448 0.0
C574 C 0.79532 0.57299 0.69544 0.0
N575 N 0.73159 0.56526 0.68933 0.0
N576 N 0.72048 0.5937 0.68725 0.0
C577 C 0.78883 0.59037 0.69416 0.0
H578 H 0.63048 0.57637 0.67892 0.0
H579 H 0.84382 0.56638 0.70051 0.0
C580 C 0.70469 0.52913 0.66703 0.0
N581 N 0.70936 0.48952 0.68699 0.0
C582 C 0.76325 0.47655 0.69022 0.0
C583 C 0.64429 0.48184 0.68107 0.0
N584 N 0.73419 0.46122 0.6864 0.0
C585 C 0.65948 0.46456 0.68067 0.0
C586 C 0.55211 0.52904 0.68976 0.0
O587 O 0.7097 0.54307 0.67248 0.0
O588 O 0.70998 0.51499 0.67229 0.0
O589 O 0.5949 0.51504 0.68949 0.0
O590 O 0.59438 0.54312 0.68945 0.0
O591 O 0.72914 0.51191 0.70412 0.0
H592 H 0.59102 0.48848 0.67685 0.0
H593 H 0.82487 0.47838 0.6947 0.0
O594 O 0.72879 0.54002 0.70403 0.0
O595 O 0.84486 0.53989 0.68696 0.0
O596 O 0.84551 0.51185 0.68701 0.0
C597 C 0.88774 0.52592 0.68668 0.0
H598 H 0.83018 0.59986 0.6982 0.0
H599 H 0.62031 0.45519 0.67618 0.0
Co600 Co 0.46876 0.54285 0.43838 0.0
C601 C 0.45468 0.52775 0.41707 0.0
Co602 Co 0.47075 0.51447 0.43818 0.0
C603 C 0.51139 0.57914 0.44168 0.0
C604 C 0.39163 0.57499 0.43248 0.0
N605 N 0.45788 0.56661 0.43773 0.0
N606 N 0.48052 0.59496 0.43915 0.0
C607 C 0.40511 0.59231 0.43337 0.0
H608 H 0.57192 0.57668 0.44627 0.0
H609 H 0.33766 0.56888 0.42806 0.0
C610 C 0.48145 0.52935 0.45953 0.0
N611 N 0.48333 0.49082 0.43887 0.0
C612 C 0.43654 0.47793 0.43414 0.0
C613 C 0.54851 0.48295 0.44464 0.0
N614 N 0.47112 0.46241 0.43667 0.0
C615 C 0.5414 0.4656 0.44329 0.0
C616 C 0.6376 0.53057 0.43679 0.0
O617 O 0.47777 0.54354 0.4543 0.0
O618 O 0.47953 0.51546 0.454 0.0
O619 O 0.59583 0.51647 0.43694 0.0
O620 O 0.59422 0.5445 0.43721 0.0
O621 O 0.46079 0.5137 0.42239 0.0
H622 H 0.59813 0.48945 0.44961 0.0
H623 H 0.37893 0.4799 0.42889 0.0
O624 O 0.45882 0.54181 0.42244 0.0
O625 O 0.34368 0.54087 0.4396 0.0
O626 O 0.34538 0.51278 0.43934 0.0
C627 C 0.30199 0.52674 0.43975 0.0
H628 H 0.36404 0.60217 0.42968 0.0
H629 H 0.58346 0.45603 0.44713 0.0
Co630 Co 0.26531 0.26297 0.43849 0.0
C631 C 0.27849 0.27914 0.41741 0.0
Co632 Co 0.26324 0.29136 0.43872 0.0
C633 C 0.22432 0.22614 0.44036 0.0
C634 C 0.34298 0.23178 0.43124 0.0
N635 N 0.27731 0.23926 0.43715 0.0
N636 N 0.25446 0.21089 0.43653 0.0
C637 C 0.32912 0.21445 0.43083 0.0
H638 H 0.16272 0.22781 0.44487 0.0
H639 H 0.396 0.23856 0.42706 0.0
C640 C 0.25329 0.27542 0.45983 0.0
N641 N 0.25026 0.31494 0.43993 0.0
C642 C 0.2942 0.328 0.43498 0.0
C643 C 0.18731 0.32255 0.44623 0.0
N644 N 0.26015 0.34342 0.4379 0.0
C645 C 0.19309 0.33996 0.44499 0.0
C646 C 0.09646 0.27525 0.43717 0.0
O647 O 0.2567 0.2614 0.4544 0.0
O648 O 0.25521 0.28951 0.45452 0.0
O649 O 0.13821 0.28935 0.43755 0.0
O650 O 0.13985 0.2613 0.43734 0.0
O651 O 0.27243 0.29299 0.42295 0.0
H652 H 0.13985 0.31584 0.45141 0.0
H653 H 0.34911 0.32623 0.42926 0.0
O654 O 0.27474 0.26491 0.42258 0.0
O655 O 0.39036 0.26503 0.43972 0.0
O656 O 0.38862 0.29311 0.43983 0.0
C657 C 0.43203 0.27915 0.44005 0.0
H658 H 0.36955 0.2052 0.42641 0.0
H659 H 0.15212 0.34936 0.44918 0.0
Co660 Co 0.46589 0.26261 0.31501 0.0
C661 C 0.45232 0.27816 0.33621 0.0
Co662 Co 0.46772 0.29103 0.31499 0.0
C663 C 0.50675 0.2261 0.31186 0.0
C664 C 0.38876 0.2307 0.32134 0.0
N665 N 0.45473 0.23883 0.31588 0.0
N666 N 0.47506 0.21039 0.31454 0.0
C667 C 0.40081 0.21334 0.3205 0.0
H668 H 0.56662 0.22833 0.30708 0.0
H669 H 0.33578 0.23701 0.32584 0.0
C670 C 0.47786 0.2757 0.29375 0.0
N671 N 0.4804 0.31469 0.31409 0.0
C672 C 0.43491 0.32771 0.31889 0.0
C673 C 0.54478 0.3224 0.30809 0.0
N674 N 0.4695 0.34317 0.31617 0.0
C675 C 0.53843 0.33979 0.30936 0.0
C676 C 0.63463 0.27492 0.31643 0.0
O677 O 0.47451 0.2616 0.29909 0.0
O678 O 0.47598 0.2897 0.29917 0.0
O679 O 0.59282 0.28902 0.31618 0.0
O680 O 0.59131 0.26097 0.31614 0.0
O681 O 0.45823 0.29212 0.33078 0.0
H682 H 0.59344 0.31577 0.30304 0.0
H683 H 0.37833 0.32588 0.32433 0.0
O684 O 0.45635 0.26401 0.33094 0.0
O685 O 0.34078 0.26462 0.31383 0.0
O686 O 0.34237 0.29272 0.31388 0.0
C687 C 0.29904 0.27875 0.31359 0.0
H688 H 0.35945 0.20364 0.32432 0.0
H689 H 0.58021 0.34925 0.30535 0.0
Co690 Co 0.26499 0.54302 0.31479 0.0
C691 C 0.27856 0.52739 0.33595 0.0
Co692 Co 0.26306 0.51462 0.3147 0.0
C693 C 0.22431 0.57952 0.31163 0.0
C694 C 0.34198 0.57493 0.32117 0.0
N695 N 0.27614 0.56679 0.31569 0.0
N696 N 0.25599 0.59524 0.31432 0.0
C697 C 0.33003 0.59229 0.32032 0.0
H698 H 0.16462 0.5773 0.30682 0.0
H699 H 0.39483 0.56862 0.32568 0.0
C700 C 0.25289 0.53001 0.2935 0.0
N701 N 0.25043 0.49095 0.31377 0.0
C702 C 0.29557 0.47794 0.31862 0.0
C703 C 0.18639 0.48324 0.30771 0.0
N704 N 0.26112 0.46248 0.31589 0.0
C705 C 0.19262 0.46586 0.30901 0.0
C706 C 0.0962 0.53071 0.31619 0.0
O707 O 0.25622 0.54408 0.29887 0.0
O708 O 0.25488 0.51599 0.29889 0.0
O709 O 0.13797 0.51661 0.31588 0.0
O710 O 0.13955 0.54466 0.31595 0.0
O711 O 0.27241 0.51347 0.33048 0.0
H712 H 0.138 0.48987 0.30263 0.0
H713 H 0.35176 0.47979 0.32413 0.0
O714 O 0.2747 0.54158 0.33073 0.0
O715 O 0.39007 0.54103 0.31358 0.0
O716 O 0.38844 0.51293 0.31359 0.0
C717 C 0.43179 0.5269 0.31332 0.0
H718 H 0.37133 0.60199 0.32414 0.0
H719 H 0.15103 0.4564 0.30497 0.0
Co720 Co 0.51008 0.04015 0.06503 0.0
C721 C 0.4979 1.02415 0.0439 0.0
Co722 Co 0.51018 1.01179 0.06522 0.0
C723 C 0.54522 0.07736 0.06693 0.0
C724 C 0.43008 0.07058 0.05743 0.0
N725 N 0.49657 0.06374 0.06355 0.0
N726 N 0.51133 0.09227 0.06303 0.0
C727 C 0.43892 0.08797 0.05711 0.0
H728 H 0.606 0.07634 0.0717 0.0
H729 H 0.37947 0.06331 0.05313 0.0
C730 C 0.52608 0.02802 0.0863 0.0
N731 N 0.52104 0.98814 0.06643 0.0
C732 C 0.46975 0.97547 0.06224 0.0
C733 C 0.58539 0.98 0.07218 0.0
N734 N 0.50009 0.95976 0.06512 0.0
C735 C 0.57289 0.96264 0.07137 0.0
C736 C 0.67788 1.02763 0.06352 0.0
O737 O 0.52098 0.04192 0.08077 0.0
O738 O 0.52037 1.01379 0.08113 0.0
O739 O 0.63517 1.01363 0.06394 0.0
O740 O 0.63553 0.04173 0.0637 0.0
O741 O 0.50104 1.01014 0.04932 0.0
H742 H 0.6376 0.98631 0.07682 0.0
H743 H 0.41143 0.97775 0.05718 0.0
O744 O 0.50055 0.03819 0.04924 0.0
O745 O 0.38511 0.03822 0.06647 0.0
O746 O 0.38465 1.01021 0.06645 0.0
C747 C 0.34229 1.02426 0.06678 0.0
H748 H 0.39647 0.0968 0.05263 0.0
H749 H 0.61293 0.95291 0.07538 0.0
Co750 Co 0.7249 0.26454 0.06529 0.0
C751 C 0.73559 0.28011 0.04404 0.0
Co752 Co 0.7225 0.2929 0.06528 0.0
C753 C 0.68947 0.22747 0.06741 0.0
C754 C 0.80627 0.23392 0.05812 0.0
N755 N 0.73928 0.24095 0.06406 0.0
N756 N 0.72328 0.21247 0.06368 0.0
C757 C 0.79649 0.21653 0.05786 0.0
H758 H 0.62761 0.22867 0.07193 0.0
H759 H 0.85735 0.24106 0.05381 0.0
C760 C 0.70807 0.27708 0.08647 0.0
N761 N 0.71048 0.31656 0.06628 0.0
C762 C 0.76203 0.32924 0.06214 0.0
C763 C 0.64517 0.32471 0.07185 0.0
N764 N 0.73094 0.34496 0.06489 0.0
C765 C 0.65736 0.34207 0.07099 0.0
C766 C 0.55597 0.27665 0.06373 0.0
O767 O 0.71426 0.26311 0.08104 0.0
O768 O 0.71257 0.29124 0.0812 0.0
O769 O 0.59756 0.29078 0.06404 0.0
O770 O 0.59947 0.26269 0.06401 0.0
O771 O 0.73137 0.29421 0.04936 0.0
H772 H 0.59262 0.31841 0.07644 0.0
H773 H 0.82119 0.32696 0.05724 0.0
O774 O 0.7342 0.26615 0.04949 0.0
O775 O 0.8498 0.26675 0.06667 0.0
O776 O 0.84799 0.29476 0.06646 0.0
C777 C 0.89149 0.28084 0.06686 0.0
H778 H 0.83804 0.20754 0.05337 0.0
H779 H 0.61664 0.35181 0.07489 0.0
Co780 Co 0.50692 0.26475 0.18861 0.0
C781 C 0.49472 0.28093 0.20966 0.0
Co782 Co 0.50722 0.29305 0.18827 0.0
C783 C 0.54328 0.22775 0.18675 0.0
C784 C 0.42812 0.23426 0.19635 0.0
N785 N 0.49382 0.24123 0.19016 0.0
N786 N 0.51064 0.2128 0.1907 0.0
C787 C 0.43842 0.21689 0.19671 0.0
H788 H 0.60401 0.22892 0.18198 0.0
H789 H 0.37743 0.24144 0.20071 0.0
C790 C 0.52316 0.27663 0.16728 0.0
N791 N 0.51796 0.31664 0.18696 0.0
C792 C 0.46609 0.3293 0.19104 0.0
C793 C 0.58267 0.32477 0.18127 0.0
N794 N 0.49644 0.345 0.18815 0.0
C795 C 0.56983 0.34213 0.18201 0.0
C796 C 0.67484 0.27728 0.19006 0.0
O797 O 0.51769 0.26281 0.17288 0.0
O798 O 0.51772 0.29093 0.17237 0.0
O799 O 0.63215 0.29128 0.18959 0.0
O800 O 0.63246 0.2632 0.18992 0.0
O801 O 0.49781 0.29487 0.20417 0.0
H802 H 0.63535 0.31846 0.17672 0.0
H803 H 0.40737 0.32704 0.19604 0.0
O804 O 0.49748 0.26683 0.20438 0.0
O805 O 0.38201 0.2666 0.18719 0.0
O806 O 0.38164 0.2946 0.18701 0.0
C807 C 0.33923 0.28055 0.18679 0.0
H808 H 0.3977 0.20794 0.20135 0.0
H809 H 0.61 0.35186 0.17802 0.0
Co810 Co 0.72827 0.04114 0.18835 0.0
C811 C 0.7388 1.0253 0.20952 0.0
Co812 Co 0.72561 1.01282 0.18822 0.0
C813 C 0.69496 0.07831 0.18646 0.0
C814 C 0.81101 0.07141 0.19575 0.0
N815 N 0.74358 0.06465 0.18976 0.0
N816 N 0.72977 0.09316 0.19029 0.0
C817 C 0.80276 0.08881 0.19607 0.0
H818 H 0.63343 0.07734 0.18185 0.0
H819 H 0.8617 0.06408 0.2 0.0
C820 C 0.71121 0.02898 0.1671 0.0
N821 N 0.71302 0.98923 0.18707 0.0
C822 C 0.76445 0.9765 0.19114 0.0
C823 C 0.6476 0.98118 0.18146 0.0
N824 N 0.73322 0.96084 0.18833 0.0
C825 C 0.65964 0.9638 0.18224 0.0
C826 C 0.55923 0.02916 0.18987 0.0
O827 O 0.71768 0.04286 0.17262 0.0
O828 O 0.71555 1.01474 0.17228 0.0
O829 O 0.60078 1.01502 0.18949 0.0
O830 O 0.6028 0.04311 0.18965 0.0
O831 O 0.73453 1.01125 0.20415 0.0
H832 H 0.5951 0.98755 0.17691 0.0
H833 H 0.82362 0.97871 0.19606 0.0
O834 O 0.73751 0.03929 0.20412 0.0
O835 O 0.85308 0.03884 0.18693 0.0
O836 O 0.85115 1.01085 0.187 0.0
C837 C 0.89474 1.02475 0.18666 0.0
H838 H 0.84581 0.0976 0.20049 0.0
H839 H 0.61886 0.95412 0.17831 0.0
Co840 Co 0.46946 0.04271 0.93851 0.0
C841 C 0.45443 1.02701 0.91737 0.0
Co842 Co 0.46923 1.01432 0.93863 0.0
C843 C 0.51249 0.0791 0.9416 0.0
C844 C 0.39464 0.07477 0.93205 0.0
N845 N 0.4598 0.06649 0.93757 0.0
N846 N 0.48208 0.09488 0.93886 0.0
C847 C 0.4079 0.0921 0.93285 0.0
H848 H 0.57193 0.07673 0.94643 0.0
H849 H 0.3414 0.06857 0.92754 0.0
C850 C 0.48076 0.02976 0.95982 0.0
N851 N 0.4807 0.99065 0.93961 0.0
C852 C 0.4359 0.97767 0.93468 0.0
C853 C 0.5444 0.98291 0.94572 0.0
N854 N 0.47041 0.96221 0.9374 0.0
C855 C 0.53844 0.96554 0.94436 0.0
C856 C 0.6372 0.02998 0.93709 0.0
O857 O 0.47849 0.04384 0.95445 0.0
O858 O 0.47764 1.01575 0.95443 0.0
O859 O 0.59434 1.01601 0.93742 0.0
O860 O 0.59497 0.04405 0.93733 0.0
O861 O 0.45966 1.0131 0.92286 0.0
H862 H 0.59264 0.98951 0.95084 0.0
H863 H 0.38018 0.97952 0.9291 0.0
O864 O 0.45939 0.04121 0.92257 0.0
O865 O 0.34435 0.04103 0.93976 0.0
O866 O 0.34378 1.01293 0.93976 0.0
C867 C 0.30155 1.02703 0.94004 0.0
H868 H 0.36742 0.10189 0.92898 0.0
H869 H 0.58 0.95604 0.94836 0.0
Co870 Co 0.26333 0.76301 0.93826 0.0
C871 C 0.27702 0.77883 0.91708 0.0
Co872 Co 0.26131 0.7914 0.93828 0.0
C873 C 0.22241 0.72623 0.94031 0.0
C874 C 0.3414 0.73172 0.93122 0.0
N875 N 0.27559 0.7393 0.93707 0.0
N876 N 0.25253 0.71093 0.93658 0.0
C877 C 0.32739 0.7144 0.9309 0.0
H878 H 0.16063 0.72797 0.94478 0.0
H879 H 0.39455 0.73845 0.92703 0.0
C880 C 0.25092 0.77575 0.9595 0.0
N881 N 0.24775 0.81501 0.93936 0.0
C882 C 0.29186 0.82814 0.93449 0.0
C883 C 0.18344 0.82256 0.94547 0.0
N884 N 0.25642 0.8435 0.93726 0.0
C885 C 0.18842 0.83996 0.94418 0.0
C886 C 0.09451 0.7752 0.93679 0.0
O887 O 0.25464 0.76166 0.95415 0.0
O888 O 0.25272 0.78976 0.9541 0.0
O889 O 0.13629 0.7893 0.93704 0.0
O890 O 0.13788 0.76125 0.9371 0.0
O891 O 0.27112 0.7928 0.9225 0.0
H892 H 0.13554 0.8158 0.95056 0.0
H893 H 0.34784 0.82644 0.92893 0.0
O894 O 0.27283 0.76471 0.92236 0.0
O895 O 0.38838 0.76514 0.93949 0.0
O896 O 0.38664 0.79323 0.93946 0.0
C897 C 0.43005 0.77927 0.93975 0.0
H898 H 0.3678 0.70508 0.92653 0.0
H899 H 0.14627 0.84932 0.94822 0.0
Co900 Co 0.47173 0.76291 0.81502 0.0
C901 C 0.45769 0.77871 0.83613 0.0
Co902 Co 0.47366 0.79132 0.81486 0.0
C903 C 0.51295 0.72639 0.81201 0.0
C904 C 0.39478 0.73102 0.82144 0.0
N905 N 0.46079 0.73913 0.81598 0.0
N906 N 0.48131 0.71068 0.81473 0.0
C907 C 0.40695 0.71365 0.82066 0.0
H908 H 0.57284 0.72859 0.80723 0.0
H909 H 0.34165 0.73735 0.8259 0.0
C910 C 0.48416 0.7758 0.7937 0.0
N911 N 0.48609 0.81497 0.81387 0.0
C912 C 0.44084 0.82797 0.81871 0.0
C913 C 0.54996 0.82269 0.80778 0.0
N914 N 0.47504 0.84343 0.81595 0.0
C915 C 0.54351 0.84008 0.80906 0.0
C916 C 0.64051 0.77527 0.81641 0.0
O917 O 0.48084 0.76174 0.79909 0.0
O918 O 0.48201 0.78984 0.79907 0.0
O919 O 0.59874 0.78936 0.81606 0.0
O920 O 0.59716 0.76131 0.81621 0.0
O921 O 0.46411 0.79258 0.83062 0.0
H922 H 0.59841 0.81606 0.8027 0.0
H923 H 0.38477 0.82611 0.82424 0.0
O924 O 0.46162 0.76447 0.83095 0.0
O925 O 0.34664 0.76486 0.81377 0.0
O926 O 0.34827 0.79296 0.81373 0.0
C927 C 0.30493 0.77899 0.81347 0.0
H928 H 0.36556 0.70396 0.82449 0.0
H929 H 0.58493 0.84954 0.805 0.0
Co930 Co 0.26227 0.04305 0.81509 0.0
C931 C 0.2776 1.02754 0.83627 0.0
Co932 Co 0.26272 1.01465 0.81504 0.0
C933 C 0.21878 0.07937 0.81191 0.0
C934 C 0.33671 0.07517 0.82147 0.0
N935 N 0.27167 0.06682 0.81597 0.0
N936 N 0.24894 0.09518 0.81461 0.0
C937 C 0.32317 0.09249 0.82062 0.0
H938 H 0.15936 0.07694 0.80709 0.0
H939 H 0.39004 0.06903 0.826 0.0
C940 C 0.25073 0.03 0.79382 0.0
N941 N 0.25164 0.99096 0.81412 0.0
C942 C 0.29759 0.97803 0.81894 0.0
C943 C 0.18784 0.98313 0.80808 0.0
N944 N 0.2638 0.96251 0.8162 0.0
C945 C 0.19495 0.96576 0.80936 0.0
C946 C 0.09463 0.03027 0.81656 0.0
O947 O 0.25317 0.04408 0.79918 0.0
O948 O 0.25393 1.01599 0.79921 0.0
O949 O 0.13756 1.0163 0.81629 0.0
O950 O 0.13679 0.04435 0.81627 0.0
O951 O 0.2727 1.01356 0.83084 0.0
H952 H 0.13896 0.98967 0.80301 0.0
H953 H 0.35383 0.97997 0.82442 0.0
O954 O 0.27228 0.04167 0.831 0.0
O955 O 0.38743 0.0414 0.81385 0.0
O956 O 0.38813 1.0133 0.81387 0.0
C957 C 0.43029 1.0274 0.81357 0.0
H958 H 0.36348 0.10233 0.82447 0.0
H959 H 0.15372 0.95623 0.80534 0.0
H960 H 0.82303 0.45368 0.0617 0.0
H961 H 0.90518 0.35225 0.06149 0.0
H962 H 0.08186 0.43031 0.06228 0.0
H963 H 0.64625 0.37548 0.06309 0.0
H964 H 0.97067 0.38073 0.05943 0.0
H965 H 0.75666 0.4252 0.05985 0.0
C966 C 0.86596 0.4426 0.06129 0.0
C967 C 0.95812 0.44439 0.06228 0.0
C968 C 0.89942 0.37959 0.06016 0.0
C969 C 0.8827 0.41173 0.06028 0.0
C970 C 0.86197 0.3633 0.06126 0.0
C971 C 0.7701 0.36146 0.0626 0.0
C972 C 0.84466 0.39416 0.06035 0.0
C973 C 0.71749 0.3763 0.06232 0.0
C974 C 0.82805 0.42632 0.06031 0.0
C975 C 0.01046 0.42953 0.06178 0.0
N976 N 0.75548 0.392 0.0613 0.0
N977 N 0.97207 0.41385 0.06088 0.0
H978 H 0.32636 0.95254 0.06128 0.0
H979 H 0.40717 0.85108 0.06175 0.0
H980 H 0.58465 0.92918 0.06358 0.0
H981 H 0.1486 0.87457 0.06168 0.0
H982 H 0.47418 0.87952 0.06005 0.0
H983 H 0.26086 0.92409 0.05906 0.0
C984 C 0.36945 0.94147 0.06118 0.0
C985 C 0.46109 0.94327 0.06276 0.0
C986 C 0.40271 0.87844 0.06033 0.0
C987 C 0.38651 0.9106 0.06033 0.0
C988 C 0.36445 0.86218 0.06122 0.0
C989 C 0.27214 0.86044 0.062 0.0
C990 C 0.34827 0.89305 0.06016 0.0
C991 C 0.22008 0.87532 0.06135 0.0
C992 C 0.33198 0.9252 0.05998 0.0
C993 C 0.51354 0.9284 0.06263 0.0
N994 N 0.25879 0.89097 0.06054 0.0
N995 N 0.47553 0.91272 0.06151 0.0
H996 H 0.90756 0.95352 0.19152 0.0
H997 H 0.82426 0.85219 0.19142 0.0
H998 H 0.64842 0.93036 0.19014 0.0
H999 H 0.08335 0.87538 0.19013 0.0
H1000 H 0.75865 0.88068 0.1934 0.0
H1001 H 0.97306 0.92502 0.19346 0.0
C1002 C 0.86433 0.94248 0.19177 0.0
C1003 C 0.7724 0.94434 0.19054 0.0
C1004 C 0.82995 0.87952 0.19276 0.0
C1005 C 0.84691 0.91164 0.19264 0.0
C1006 C 0.86745 0.86324 0.1917 0.0
C1007 C 0.9594 0.86139 0.19047 0.0
C1008 C 0.88479 0.89408 0.19263 0.0
C1009 C 0.01206 0.87621 0.19081 0.0
C1010 C 0.90178 0.92618 0.19281 0.0
C1011 C 0.71971 0.92951 0.19084 0.0
N1012 N 0.97403 0.89191 0.19179 0.0
N1013 N 0.75769 0.91381 0.19179 0.0
H1014 H 0.40363 0.45351 0.19143 0.0
H1015 H 0.32193 0.35214 0.19134 0.0
H1016 H 0.14492 0.43021 0.18972 0.0
H1017 H 0.58056 0.37552 0.19003 0.0
H1018 H 0.25574 0.38059 0.19328 0.0
H1019 H 0.46935 0.42505 0.19346 0.0
C1020 C 0.36053 0.44244 0.19163 0.0
C1021 C 0.26867 0.44425 0.19028 0.0
C1022 C 0.32705 0.37949 0.19265 0.0
C1023 C 0.34346 0.4116 0.19248 0.0
C1024 C 0.36488 0.36322 0.19161 0.0
C1025 C 0.45687 0.36145 0.19039 0.0
C1026 C 0.38163 0.39407 0.1925 0.0
C1027 C 0.50924 0.37631 0.19072 0.0
C1028 C 0.39811 0.42618 0.19271 0.0
C1029 C 0.21616 0.42941 0.19051 0.0
N1030 N 0.47091 0.39197 0.19168 0.0
N1031 N 0.25428 0.41373 0.19151 0.0
H1032 H 0.00216 0.61637 0.91893 0.0
H1033 H 0.17025 0.69621 0.95445 0.0
H1034 H 0.04965 0.61132 0.95437 0.0
H1035 H 0.23765 0.68821 0.91974 0.0
H1036 H 0.10467 0.6672 0.95498 0.0
H1037 H 0.06815 0.64492 0.91937 0.0
C1038 C 0.02678 0.62134 0.92681 0.0
C1039 C 0.02077 0.61156 0.93662 0.0
C1040 C 0.13408 0.67186 0.94728 0.0
C1041 C 0.09527 0.64432 0.93725 0.0
C1042 C 0.17059 0.68838 0.94696 0.0
C1043 C 0.20954 0.6945 0.93705 0.0
C1044 C 0.13494 0.66169 0.93755 0.0
C1045 C 0.20906 0.68389 0.92757 0.0
C1046 C 0.06455 0.63759 0.92706 0.0
C1047 C 0.05395 0.6185 0.94663 0.0
N1048 N 0.17196 0.66809 0.92803 0.0
N1049 N 0.0892 0.63459 0.94673 0.0
H1050 H 0.57513 0.20364 0.94189 0.0
H1051 H 0.65689 0.10212 0.94194 0.0
H1052 H 0.8341 0.18033 0.94126 0.0
H1053 H 0.39811 0.12545 0.94081 0.0
H1054 H 0.72293 0.13062 0.94385 0.0
H1055 H 0.50894 0.17514 0.94365 0.0
C1056 C 0.61815 0.19258 0.94227 0.0
C1057 C 0.71032 0.19441 0.9413 0.0
C1058 C 0.65161 0.12949 0.94325 0.0
C1059 C 0.63501 0.16168 0.9432 0.0
C1060 C 0.61387 0.11319 0.94224 0.0
C1061 C 0.52183 0.11136 0.94108 0.0
C1062 C 0.59696 0.14409 0.94315 0.0
C1063 C 0.46944 0.12624 0.94144 0.0
C1064 C 0.58033 0.17628 0.9432 0.0
C1065 C 0.76269 0.17954 0.94175 0.0
N1066 N 0.50768 0.14193 0.94238 0.0
N1067 N 0.72438 0.16384 0.9426 0.0
H1068 H 0.15376 0.20383 0.8116 0.0
H1069 H 0.07399 0.10228 0.8115 0.0
H1070 H 0.89517 0.18036 0.81204 0.0
H1071 H 0.3323 0.1258 0.81259 0.0
H1072 H 0.00736 0.13072 0.80956 0.0
H1073 H 0.2205 0.17539 0.80982 0.0
C1074 C 0.11093 0.19274 0.81118 0.0
C1075 C 0.0187 0.19451 0.8121 0.0
C1076 C 0.07871 0.12964 0.81015 0.0
C1077 C 0.09466 0.16184 0.81018 0.0
C1078 C 0.11679 0.11338 0.81119 0.0
C1079 C 0.20886 0.11163 0.81235 0.0
C1080 C 0.13306 0.14428 0.81023 0.0
C1081 C 0.26094 0.12654 0.81196 0.0
C1082 C 0.14907 0.17647 0.81023 0.0
C1083 C 0.9666 0.17961 0.81159 0.0
N1084 N 0.22238 0.1422 0.81101 0.0
N1085 N 0.00523 0.16394 0.81073 0.0
H1086 H 0.39485 0.68045 0.81245 0.0
H1087 H 0.84096 0.62527 0.81219 0.0
H1088 H 0.65591 0.70283 0.81203 0.0
H1089 H 0.57986 0.6029 0.81197 0.0
H1090 H 0.77462 0.65366 0.81061 0.0
H1091 H 0.46113 0.65206 0.81075 0.0
C1092 C 0.46623 0.6794 0.81197 0.0
C1093 C 0.51989 0.69408 0.81253 0.0
C1094 C 0.7317 0.64256 0.81082 0.0
C1095 C 0.59655 0.66148 0.81053 0.0
C1096 C 0.76956 0.62632 0.81178 0.0
C1097 C 0.71591 0.61164 0.81236 0.0
C1098 C 0.63918 0.64426 0.81049 0.0
C1099 C 0.62382 0.61381 0.81153 0.0
C1100 C 0.50405 0.66317 0.81095 0.0
C1101 C 0.61194 0.69192 0.81161 0.0
N1102 N 0.58839 0.62981 0.81075 0.0
N1103 N 0.64735 0.67593 0.81077 0.0
H1104 H 0.08886 0.93051 0.56225 0.0
H1105 H 0.6417 0.87576 0.56212 0.0
H1106 H 0.82829 0.95312 0.5618 0.0
H1107 H 0.90228 0.85316 0.56178 0.0
H1108 H 0.70859 0.90408 0.56041 0.0
H1109 H 0.02202 0.90219 0.56049 0.0
C1110 C 0.01748 0.92952 0.56175 0.0
C1111 C 0.96409 0.94424 0.56232 0.0
C1112 C 0.75128 0.89295 0.56062 0.0
C1113 C 0.88681 0.91172 0.56025 0.0
C1114 C 0.7131 0.87675 0.56165 0.0
C1115 C 0.76647 0.86203 0.56224 0.0
C1116 C 0.84382 0.89455 0.56023 0.0
C1117 C 0.85856 0.86411 0.56133 0.0
C1118 C 0.97933 0.91333 0.56069 0.0
C1119 C 0.87203 0.94217 0.56137 0.0
N1120 N 0.89432 0.88006 0.56049 0.0
N1121 N 0.8363 0.92621 0.5605 0.0
H1122 H 0.25716 0.36608 0.58481 0.0
H1123 H 0.4209 0.44614 0.54906 0.0
H1124 H 0.30449 0.36102 0.54935 0.0
H1125 H 0.48589 0.43869 0.58389 0.0
H1126 H 0.35713 0.41697 0.54859 0.0
H1127 H 0.32102 0.3948 0.58431 0.0
C1128 C 0.28133 0.37108 0.57691 0.0
C1129 C 0.27585 0.36123 0.56711 0.0
C1130 C 0.38557 0.42179 0.5563 0.0
C1131 C 0.34795 0.39422 0.56641 0.0
C1132 C 0.42103 0.4384 0.55659 0.0
C1133 C 0.45883 0.44473 0.56652 0.0
C1134 C 0.38632 0.41172 0.56608 0.0
C1135 C 0.45816 0.43422 0.57605 0.0
C1136 C 0.31788 0.38743 0.57662 0.0
C1137 C 0.30841 0.36823 0.55709 0.0
N1138 N 0.42214 0.41833 0.57561 0.0
N1139 N 0.34247 0.38443 0.55695 0.0
H1140 H 0.92337 0.36001 0.70457 0.0
H1141 H 0.76304 0.44035 0.66892 0.0
H1142 H -0.0058 0.36804 0.66998 0.0
H1143 H 0.8042 0.44495 0.70452 0.0
H1144 H 0.82844 0.41175 0.6694 0.0
H1145 H 0.85906 0.38914 0.70506 0.0
C1146 C 0.92474 0.36787 0.69709 0.0
C1147 C 0.96429 0.36173 0.68723 0.0
C1148 C 0.82367 0.419 0.67712 0.0
C1149 C 0.89119 0.39467 0.68769 0.0
C1150 C 0.78628 0.43527 0.67684 0.0
C1151 C 0.77862 0.44494 0.68669 0.0
C1152 C 0.8523 0.41211 0.68736 0.0
C1153 C 0.80988 0.43787 0.69675 0.0
C1154 C 0.88895 0.38446 0.6974 0.0
C1155 C 0.96514 0.37238 0.67777 0.0
N1156 N 0.84474 0.42174 0.69687 0.0
N1157 N 0.92877 0.38824 0.67821 0.0
H1158 H 0.42207 0.86022 0.70418 0.0
H1159 H 0.2541 0.94008 0.66859 0.0
H1160 H 0.48513 0.86781 0.6693 0.0
H1161 H 0.30209 0.94512 0.70403 0.0
H1162 H 0.31895 0.91145 0.66903 0.0
H1163 H 0.35717 0.8893 0.70472 0.0
C1164 C 0.42155 0.86797 0.69665 0.0
C1165 C 0.45912 0.86172 0.6867 0.0
C1166 C 0.31573 0.91879 0.67673 0.0
C1167 C 0.38537 0.89461 0.68721 0.0
C1168 C 0.2786 0.93509 0.67647 0.0
C1169 C 0.27302 0.9449 0.68628 0.0
C1170 C 0.34632 0.91203 0.68692 0.0
C1171 C 0.30607 0.93793 0.69629 0.0
C1172 C 0.38544 0.88453 0.69698 0.0
C1173 C 0.45761 0.87223 0.67717 0.0
N1174 N 0.34075 0.92178 0.69639 0.0
N1175 N 0.421 0.88807 0.67764 0.0
H1176 H 0.00897 0.11596 0.41862 0.0
H1177 H 0.17243 0.19599 0.45436 0.0
H1178 H 0.05279 0.11107 0.45415 0.0
H1179 H 0.24019 0.18823 0.41965 0.0
H1180 H 0.10785 0.16689 0.45484 0.0
H1181 H 0.07418 0.14456 0.41912 0.0
C1182 C 0.03269 0.12097 0.42653 0.0
C1183 C 0.02583 0.11122 0.43635 0.0
C1184 C 0.13711 0.17162 0.44715 0.0
C1185 C 0.09941 0.14406 0.43706 0.0
C1186 C 0.17305 0.1882 0.44686 0.0
C1187 C 0.21183 0.19441 0.43697 0.0
C1188 C 0.13841 0.16149 0.4374 0.0
C1189 C 0.21173 0.18384 0.42746 0.0
C1190 C 0.07 0.13725 0.42682 0.0
C1191 C 0.0578 0.11822 0.4464 0.0
N1192 N 0.17523 0.16799 0.42789 0.0
N1193 N 0.09261 0.13435 0.44654 0.0
H1194 H 0.57799 0.70353 0.44187 0.0
H1195 H 0.65619 0.60195 0.44162 0.0
H1196 H 0.83598 0.67989 0.4404 0.0
H1197 H 0.39805 0.62562 0.44149 0.0
H1198 H 0.72363 0.63034 0.44332 0.0
H1199 H 0.51124 0.67513 0.44388 0.0
C1200 C 0.62072 0.69241 0.44211 0.0
C1201 C 0.71273 0.69412 0.44083 0.0
C1202 C 0.65216 0.62931 0.443 0.0
C1203 C 0.63671 0.66151 0.44302 0.0
C1204 C 0.61362 0.61307 0.4421 0.0
C1205 C 0.52129 0.61138 0.44128 0.0
C1206 C 0.59803 0.64398 0.44312 0.0
C1207 C 0.46953 0.62632 0.44186 0.0
C1208 C 0.58255 0.67617 0.44319 0.0
C1209 C 0.76467 0.67919 0.44112 0.0
N1210 N 0.50853 0.64195 0.44267 0.0
N1211 N 0.726 0.66354 0.44212 0.0
H1212 H 0.34264 0.62546 0.31207 0.0
H1213 H 0.89636 0.68055 0.31137 0.0
H1214 H 0.0816 0.60307 0.31143 0.0
H1215 H 0.15728 0.70299 0.31162 0.0
H1216 H 0.96301 0.65219 0.30974 0.0
H1217 H 0.27646 0.65384 0.31028 0.0
C1218 C 0.2713 0.6265 0.31152 0.0
C1219 C 0.21759 0.61183 0.31205 0.0
C1220 C 0.00584 0.6633 0.31007 0.0
C1221 C 0.14107 0.64442 0.30993 0.0
C1222 C 0.9678 0.67952 0.31104 0.0
C1223 C 0.0213 0.6942 0.31178 0.0
C1224 C 0.09839 0.66163 0.30987 0.0
C1225 C 0.11346 0.69207 0.31106 0.0
C1226 C 0.23354 0.64274 0.31045 0.0
C1227 C 0.12561 0.61398 0.31104 0.0
N1228 N 0.14908 0.67609 0.31026 0.0
N1229 N 0.09026 0.62997 0.31014 0.0
H1230 H 0.835 0.12508 0.3118 0.0
H1231 H 0.38859 0.18014 0.31228 0.0
H1232 H 0.57411 0.10262 0.31187 0.0
H1233 H 0.64958 0.20256 0.31175 0.0
H1234 H 0.4549 0.15177 0.31055 0.0
H1235 H 0.76837 0.15344 0.31018 0.0
C1236 C 0.76358 0.1261 0.31144 0.0
C1237 C 0.71008 0.11141 0.31212 0.0
C1238 C 0.4978 0.16288 0.31073 0.0
C1239 C 0.633 0.14399 0.31021 0.0
C1240 C 0.45996 0.17911 0.31177 0.0
C1241 C 0.5136 0.1938 0.31231 0.0
C1242 C 0.59028 0.1612 0.31026 0.0
C1243 C 0.60562 0.19164 0.31135 0.0
C1244 C 0.72554 0.14233 0.31047 0.0
C1245 C 0.61794 0.11354 0.31136 0.0
N1246 N 0.64104 0.17565 0.31048 0.0
N1247 N 0.58232 0.12953 0.31056 0.0
H1248 H 0.04535 0.50098 0.10008 0.0
H1249 H 0.18302 0.55714 0.15352 0.0
H1250 H 0.05361 0.55624 0.0998 0.0
H1251 H 0.18244 0.50186 0.15295 0.0
H1252 H 0.13567 0.55726 0.1339 0.0
H1253 H 0.09204 0.50125 0.11964 0.0
C1254 C 0.05621 0.51319 0.10415 0.0
C1255 C 0.04549 0.52862 0.09827 0.0
C1256 C 0.14632 0.54511 0.13806 0.0
C1257 C 0.1001 0.52901 0.1207 0.0
C1258 C 0.17377 0.54503 0.14925 0.0
C1259 C 0.18683 0.52946 0.1549 0.0
C1260 C 0.13159 0.52951 0.13249 0.0
C1261 C 0.17336 0.51417 0.14895 0.0
C1262 C 0.08335 0.51333 0.11533 0.0
C1263 C 0.06087 0.54404 0.10401 0.0
N1264 N 0.14623 0.51459 0.1381 0.0
N1265 N 0.08768 0.54384 0.1149 0.0
H1266 H 0.18381 0.8044 0.09988 0.0
H1267 H 0.04347 0.74872 0.15342 0.0
H1268 H 0.17538 0.74914 0.09989 0.0
H1269 H 0.04816 0.80399 0.15292 0.0
H1270 H 0.09092 0.7485 0.13382 0.0
H1271 H 0.13683 0.80437 0.11945 0.0
C1272 C 0.17286 0.79224 0.10402 0.0
C1273 C 0.18362 0.77674 0.09822 0.0
C1274 C 0.08117 0.76067 0.13799 0.0
C1275 C 0.12869 0.77663 0.12064 0.0
C1276 C 0.05365 0.76081 0.14917 0.0
C1277 C 0.0417 0.7764 0.15484 0.0
C1278 C 0.09708 0.77623 0.13243 0.0
C1279 C 0.05634 0.79167 0.1489 0.0
C1280 C 0.14557 0.79223 0.1152 0.0
C1281 C 0.1681 0.76139 0.10403 0.0
N1282 N 0.08351 0.79119 0.13805 0.0
N1283 N 0.14114 0.76173 0.11491 0.0
H1284 H 0.79672 0.49909 0.84963 0.0
H1285 H 0.93451 0.55481 0.90323 0.0
H1286 H 0.80449 0.55435 0.85002 0.0
H1287 H 0.92253 0.49957 0.90343 0.0
H1288 H 0.88981 0.55471 0.8836 0.0
H1289 H 0.84218 0.49887 0.8693 0.0
C1290 C 0.80719 0.51119 0.85387 0.0
C1291 C 0.79666 0.52677 0.84816 0.0
C1292 C 0.89726 0.54259 0.88791 0.0
C1293 C 0.84972 0.52659 0.87065 0.0
C1294 C 0.92321 0.54263 0.89912 0.0
C1295 C 0.93232 0.52716 0.905 0.0
C1296 C 0.88001 0.52698 0.88249 0.0
C1297 C 0.91652 0.5118 0.89922 0.0
C1298 C 0.83356 0.51104 0.8651 0.0
C1299 C 0.81158 0.54203 0.85408 0.0
N1300 N 0.89083 0.5121 0.8883 0.0
N1301 N 0.8376 0.54155 0.86498 0.0
H1302 H 0.93158 0.25048 0.85012 0.0
H1303 H 0.79613 0.30644 0.90375 0.0
H1304 H 0.92724 0.30576 0.85027 0.0
H1305 H 0.80171 0.25117 0.90348 0.0
H1306 H 0.84217 0.30649 0.8841 0.0
H1307 H 0.88549 0.25055 0.86973 0.0
C1308 C 0.9217 0.26265 0.8543 0.0
C1309 C 0.9334 0.27815 0.84852 0.0
C1310 C 0.83296 0.29435 0.88833 0.0
C1311 C 0.87951 0.2783 0.87099 0.0
C1312 C 0.80624 0.29431 0.89954 0.0
C1313 C 0.79495 0.27877 0.90528 0.0
C1314 C 0.84869 0.27875 0.88281 0.0
C1315 C 0.80942 0.26345 0.89939 0.0
C1316 C 0.89495 0.26267 0.8655 0.0
C1317 C 0.91923 0.2935 0.85438 0.0
N1318 N 0.83578 0.26384 0.8885 0.0
N1319 N 0.89276 0.29319 0.86528 0.0
H1320 H 0.04933 1.00121 0.6001 0.0
H1321 H 0.17676 0.05772 0.6538 0.0
H1322 H 0.05469 0.05648 0.5998 0.0
H1323 H 0.18033 1.00245 0.65322 0.0
H1324 H 0.13207 0.05772 0.63407 0.0
H1325 H 0.09394 1.00161 0.61974 0.0
C1326 C 0.05915 1.01345 0.60419 0.0
C1327 C 0.04817 0.02884 0.59828 0.0
C1328 C 0.14304 0.0456 0.63825 0.0
C1329 C 0.10034 0.02938 0.6208 0.0
C1330 C 0.16895 0.04559 0.6495 0.0
C1331 C 0.18238 0.03006 0.65518 0.0
C1332 C 0.13024 0.02997 0.63265 0.0
C1333 C 0.17085 1.01474 0.64919 0.0
C1334 C 0.08509 1.01366 0.61541 0.0
C1335 C 0.0622 0.0443 0.60402 0.0
N1336 N 0.14519 1.01509 0.63829 0.0
N1337 N 0.0878 0.04418 0.61496 0.0
H1338 H 0.1841 0.2484 0.59987 0.0
H1339 H 0.05085 0.30467 0.65345 0.0
H1340 H 0.1842 0.30368 0.60042 0.0
H1341 H 0.05683 0.24939 0.65368 0.0
H1342 H 0.0967 0.30436 0.63386 0.0
H1343 H 0.13802 0.24832 0.61955 0.0
C1344 C 0.17527 0.26051 0.60415 0.0
C1345 C 0.18812 0.27607 0.59848 0.0
C1346 C 0.08769 0.29228 0.63817 0.0
C1347 C 0.13435 0.27606 0.62095 0.0
C1348 C 0.06105 0.29244 0.64936 0.0
C1349 C 0.04991 0.27702 0.65524 0.0
C1350 C 0.10354 0.27659 0.63277 0.0
C1351 C 0.06443 0.26159 0.64948 0.0
C1352 C 0.14854 0.26045 0.61537 0.0
C1353 C 0.17522 0.29137 0.60444 0.0
N1354 N 0.09077 0.26176 0.63857 0.0
N1355 N 0.1488 0.29097 0.61532 0.0
H1356 H 0.92719 0.99854 0.40366 0.0
H1357 H 0.79715 0.05484 0.34997 0.0
H1358 H 0.93022 0.05381 0.40309 0.0
H1359 H 0.80015 0.99956 0.34992 0.0
H1360 H 0.84305 0.05458 0.36958 0.0
H1361 H 0.88126 0.99851 0.38399 0.0
C1362 C 0.91902 1.01067 0.39938 0.0
C1363 C 0.93266 1.0262 0.40504 0.0
C1364 C 0.83336 0.0425 0.36531 0.0
C1365 C 0.87906 1.02626 0.38257 0.0
C1366 C 0.80668 0.04263 0.35411 0.0
C1367 C 0.79468 1.0272 0.34828 0.0
C1368 C 0.84834 1.02681 0.37075 0.0
C1369 C 0.80843 1.01178 0.35408 0.0
C1370 C 0.89238 1.01064 0.38816 0.0
C1371 C 0.92062 0.04152 0.39907 0.0
N1372 N 0.83478 1.01198 0.36499 0.0
N1373 N 0.89425 0.04116 0.38819 0.0
H1374 H 0.93576 0.75048 0.34976 0.0
H1375 H 0.80017 0.80637 0.40342 0.0
H1376 H 0.92968 0.80575 0.34984 0.0
H1377 H 0.80405 0.75109 0.403 0.0
H1378 H 0.84635 0.80649 0.38378 0.0
H1379 H 0.88974 0.75055 0.36937 0.0
C1380 C 0.92552 0.76265 0.35393 0.0
C1381 C 0.93669 0.77814 0.34813 0.0
C1382 C 0.83672 0.79433 0.38797 0.0
C1383 C 0.88288 0.7783 0.3706 0.0
C1384 C 0.80993 0.79425 0.39918 0.0
C1385 C 0.79813 0.77869 0.40488 0.0
C1386 C 0.85202 0.77875 0.38241 0.0
C1387 C 0.81217 0.7634 0.39895 0.0
C1388 C 0.89879 0.76268 0.36512 0.0
C1389 C 0.92207 0.7935 0.35397 0.0
N1390 N 0.83862 0.76382 0.38807 0.0
N1391 N 0.89565 0.79319 0.36487 0.0
H1392 H 0.54793 0.55761 0.59962 0.0
H1393 H 0.68536 0.50157 0.65311 0.0
H1394 H 0.55088 0.50233 0.60009 0.0
H1395 H 0.67639 0.55683 0.65333 0.0
H1396 H 0.63909 0.50177 0.63353 0.0
H1397 H 0.59439 0.55774 0.61927 0.0
C1398 C 0.55751 0.5455 0.60388 0.0
C1399 C 0.5454 0.52993 0.59819 0.0
C1400 C 0.64754 0.51387 0.63783 0.0
C1401 C 0.59963 0.53 0.62064 0.0
C1402 C 0.67443 0.51377 0.64902 0.0
C1403 C 0.68484 0.52921 0.65489 0.0
C1404 C 0.63073 0.52952 0.63244 0.0
C1405 C 0.66937 0.54462 0.64913 0.0
C1406 C 0.58446 0.54559 0.61508 0.0
C1407 C 0.55924 0.51464 0.60413 0.0
N1408 N 0.64281 0.54438 0.63824 0.0
N1409 N 0.58588 0.51507 0.615 0.0
H1410 H 0.68204 0.80514 0.59993 0.0
H1411 H 0.55295 0.74889 0.65367 0.0
H1412 H 0.67497 0.74987 0.59968 0.0
H1413 H 0.55193 0.80417 0.65311 0.0
H1414 H 0.59743 0.74881 0.63394 0.0
H1415 H 0.63756 0.80485 0.61958 0.0
C1416 C 0.67186 0.79292 0.60403 0.0
C1417 C 0.68233 0.7775 0.59813 0.0
C1418 C 0.58707 0.76095 0.63812 0.0
C1419 C 0.63033 0.77708 0.62066 0.0
C1420 C 0.56129 0.76101 0.64938 0.0
C1421 C 0.54862 0.77656 0.65506 0.0
C1422 C 0.60053 0.77656 0.63252 0.0
C1423 C 0.5608 0.79187 0.64908 0.0
C1424 C 0.64601 0.79277 0.61525 0.0
C1425 C 0.66787 0.76207 0.6039 0.0
N1426 N 0.58633 0.79147 0.63816 0.0
N1427 N 0.64236 0.76225 0.61484 0.0
H1428 H 0.30022 0.49945 0.3496 0.0
H1429 H 0.43286 0.55547 0.40331 0.0
H1430 H 0.30371 0.55473 0.34996 0.0
H1431 H 0.42929 0.50019 0.40318 0.0
H1432 H 0.38726 0.55536 0.38368 0.0
H1433 H 0.34577 0.49939 0.36926 0.0
C1434 C 0.30976 0.51158 0.35383 0.0
C1435 C 0.29804 0.52712 0.34811 0.0
C1436 C 0.39678 0.54325 0.38792 0.0
C1437 C 0.35121 0.52713 0.3706 0.0
C1438 C 0.42325 0.54329 0.39913 0.0
C1439 C 0.43502 0.52781 0.40491 0.0
C1440 C 0.38171 0.52761 0.38243 0.0
C1441 C 0.42121 0.51244 0.39906 0.0
C1442 C 0.3362 0.51153 0.36505 0.0
C1443 C 0.31179 0.54244 0.35403 0.0
N1444 N 0.39502 0.51273 0.38815 0.0
N1445 N 0.33789 0.54205 0.36493 0.0
H1446 H 0.3018 0.30712 0.4038 0.0
H1447 H 0.43117 0.25065 0.35015 0.0
H1448 H 0.30131 0.25184 0.40335 0.0
H1449 H 0.4271 0.30593 0.34995 0.0
H1450 H 0.38619 0.251 0.36978 0.0
H1451 H 0.34684 0.30711 0.38409 0.0
C1452 C 0.31034 0.29498 0.39954 0.0
C1453 C 0.29768 0.27945 0.40524 0.0
C1454 C 0.39543 0.26307 0.36547 0.0
C1455 C 0.35024 0.27936 0.38273 0.0
C1456 C 0.42157 0.26288 0.35425 0.0
C1457 C 0.43302 0.27829 0.34838 0.0
C1458 C 0.3804 0.27878 0.37088 0.0
C1459 C 0.41925 0.29374 0.35415 0.0
C1460 C 0.33648 0.29499 0.3883 0.0
C1461 C 0.31017 0.26413 0.3993 0.0
N1462 N 0.3934 0.29359 0.36508 0.0
N1463 N 0.336 0.26447 0.3884 0.0
H1464 H 0.68797 0.05697 0.15349 0.0
H1465 H 0.54526 1.00062 0.10035 0.0
H1466 H 0.6847 1.00169 0.15313 0.0
H1467 H 0.55623 0.05586 0.09985 0.0
H1468 H 0.59292 1.00097 0.11987 0.0
H1469 H 0.63993 0.057 0.1339 0.0
C1470 C 0.67799 0.04484 0.14927 0.0
C1471 C 0.6905 0.0293 0.15497 0.0
C1472 C 0.58461 1.01304 0.11552 0.0
C1473 C 0.63444 0.02926 0.13259 0.0
C1474 C 0.55691 1.01285 0.10437 0.0
C1475 C 0.54664 0.02824 0.09843 0.0
C1476 C 0.6024 0.02872 0.12082 0.0
C1477 C 0.56309 0.04368 0.1041 0.0
C1478 C 0.65014 0.04487 0.1381 0.0
C1479 C 0.67609 1.01398 0.14908 0.0
N1480 N 0.59042 0.04353 0.11497 0.0
N1481 N 0.64857 1.01436 0.13825 0.0
H1482 H 0.68606 0.30463 0.10034 0.0
H1483 H 0.54919 0.24853 0.15384 0.0
H1484 H 0.68093 0.24935 0.1002 0.0
H1485 H 0.54696 0.3038 0.15315 0.0
H1486 H 0.59723 0.24839 0.13424 0.0
H1487 H 0.63848 0.30439 0.11987 0.0
C1488 C 0.67571 0.29242 0.10444 0.0
C1489 C 0.68759 0.27698 0.0986 0.0
C1490 C 0.58582 0.26054 0.13837 0.0
C1491 C 0.63194 0.27662 0.121 0.0
C1492 C 0.55796 0.26063 0.14954 0.0
C1493 C 0.54392 0.2762 0.15515 0.0
C1494 C 0.59997 0.27613 0.13277 0.0
C1495 C 0.5568 0.29148 0.14917 0.0
C1496 C 0.64806 0.29229 0.1156 0.0
C1497 C 0.67279 0.26156 0.10437 0.0
N1498 N 0.58435 0.29105 0.13834 0.0
N1499 N 0.64546 0.26178 0.11524 0.0
H1500 H 0.29693 0.05513 0.85018 0.0
H1501 H 0.43232 0.99905 0.90373 0.0
H1502 H 0.30537 0.99987 0.85002 0.0
H1503 H 0.42919 0.05433 0.90335 0.0
H1504 H 0.38647 0.99898 0.88407 0.0
H1505 H 0.34254 0.05495 0.86979 0.0
C1506 C 0.30762 0.04294 0.85429 0.0
C1507 C 0.29722 1.02748 0.84843 0.0
C1508 C 0.3962 1.01112 0.88828 0.0
C1509 C 0.35056 1.02721 0.87091 0.0
C1510 C 0.42279 1.01118 0.89949 0.0
C1511 C 0.43473 1.02672 0.90521 0.0
C1512 C 0.38119 1.02672 0.88273 0.0
C1513 C 0.42098 0.04203 0.89929 0.0
C1514 C 0.33412 0.04285 0.86549 0.0
C1515 C 0.31238 1.01209 0.8542 0.0
N1516 N 0.39469 0.04164 0.8884 0.0
N1517 N 0.33855 1.01235 0.86511 0.0
H1518 H 0.43644 0.80679 0.84968 0.0
H1519 H 0.29556 0.75121 0.90321 0.0
H1520 H 0.43049 0.75152 0.85019 0.0
H1521 H 0.3059 0.80645 0.9033 0.0
H1522 H 0.34205 0.75125 0.88364 0.0
H1523 H 0.38935 0.80707 0.8693 0.0
C1524 C 0.42606 0.79471 0.85394 0.0
C1525 C 0.43754 0.7791 0.84827 0.0
C1526 C 0.33385 0.76338 0.88791 0.0
C1527 C 0.38258 0.77935 0.87069 0.0
C1528 C 0.30684 0.76337 0.89909 0.0
C1529 C 0.29676 0.77886 0.90492 0.0
C1530 C 0.35116 0.77898 0.88249 0.0
C1531 C 0.31264 0.79421 0.89913 0.0
C1532 C 0.39875 0.79488 0.86513 0.0
C1533 C 0.42267 0.76386 0.85421 0.0
N1534 N 0.33935 0.79388 0.88824 0.0
N1535 N 0.39571 0.76437 0.86507 0.0
H1536 H 0.3228 0.68359 0.07013 0.0
H1537 H 0.90599 0.6213 0.06957 0.0
H1538 H 0.05254 0.70136 0.07055 0.0
H1539 H 0.17615 0.60354 0.0707 0.0
H1540 H 0.95777 0.65057 0.07246 0.0
H1541 H 0.27052 0.65433 0.07289 0.0
C1542 C 0.25233 0.68131 0.0709 0.0
C1543 C 0.19174 0.69487 0.06993 0.0
C1544 C 0.00584 0.64028 0.07222 0.0
C1545 C 0.13122 0.66136 0.07306 0.0
C1546 C 0.97632 0.62358 0.07052 0.0
C1547 C 0.03707 0.61003 0.06971 0.0
C1548 C 0.09702 0.64353 0.07301 0.0
C1549 C 0.12721 0.61362 0.07125 0.0
C1550 C 0.22252 0.66461 0.07252 0.0
C1551 C 0.10136 0.69128 0.07124 0.0
N1552 N 0.15462 0.63008 0.07267 0.0
N1553 N 0.0737 0.67482 0.07257 0.0
H1554 H 0.03725 0.69257 0.20775 0.0
H1555 H 0.15269 0.60891 0.17231 0.0
H1556 H 0.06145 0.69477 0.17182 0.0
H1557 H 0.21682 0.61569 0.20723 0.0
H1558 H 0.10234 0.63902 0.17159 0.0
H1559 H 0.08877 0.66301 0.20745 0.0
C1560 C 0.05433 0.68675 0.1998 0.0
C1561 C 0.04565 0.69597 0.18981 0.0
C1562 C 0.12762 0.63384 0.17938 0.0
C1563 C 0.10334 0.66208 0.18931 0.0
C1564 C 0.15533 0.61671 0.17981 0.0
C1565 C 0.18912 0.60996 0.18983 0.0
C1566 C 0.1326 0.64399 0.1891 0.0
C1567 C 0.1921 0.62051 0.19932 0.0
C1568 C 0.08363 0.66991 0.1996 0.0
C1569 C 0.06836 0.68798 0.17968 0.0
N1570 N 0.16408 0.63693 0.19873 0.0
N1571 N 0.09559 0.67133 0.17965 0.0
H1572 H 0.92858 0.35331 0.93345 0.0
H1573 H 0.79992 0.45285 0.93298 0.0
H1574 H 0.66035 0.37221 0.93439 0.0
H1575 H 0.06777 0.43403 0.93533 0.0
H1576 H 0.74816 0.42341 0.93024 0.0
H1577 H 0.98138 0.38274 0.93088 0.0
C1578 C 0.88079 0.36361 0.93293 0.0
C1579 C 0.79012 0.36035 0.93431 0.0
C1580 C 0.8184 0.42574 0.93125 0.0
C1581 C 0.84972 0.39403 0.93148 0.0
C1582 C 0.84792 0.44257 0.93274 0.0
C1583 C 0.93807 0.44586 0.93456 0.0
C1584 C 0.87957 0.41215 0.93154 0.0
C1585 C -0.00256 0.43202 0.93422 0.0
C1586 C 0.91087 0.38042 0.93154 0.0
C1587 C 0.73098 0.3742 0.93362 0.0
N1588 N 0.96713 0.41578 0.93285 0.0
N1589 N 0.76179 0.39042 0.93235 0.0
H1590 H 0.65591 0.43414 0.81902 0.0
H1591 H 0.07311 0.37175 0.82045 0.0
H1592 H 0.926 0.4519 0.82043 0.0
H1593 H 0.80286 0.35397 0.82022 0.0
H1594 H 0.02032 0.40106 0.82284 0.0
H1595 H 0.70762 0.40485 0.82183 0.0
C1596 C 0.7262 0.43186 0.82 0.0
C1597 C 0.78693 0.44544 0.81931 0.0
C1598 C 0.9724 0.39076 0.8224 0.0
C1599 C 0.8468 0.41187 0.82253 0.0
C1600 C 0.00251 0.37403 0.82099 0.0
C1601 C 0.94216 0.36044 0.81996 0.0
C1602 C 0.88103 0.39402 0.82269 0.0
C1603 C 0.85155 0.36407 0.82097 0.0
C1604 C 0.75568 0.41513 0.82165 0.0
C1605 C 0.87702 0.44181 0.82089 0.0
N1606 N 0.82365 0.38055 0.82212 0.0
N1607 N 0.90437 0.42534 0.82228 0.0
H1608 H 0.91238 0.12162 0.56936 0.0
H1609 H 0.32936 0.18401 0.56834 0.0
H1610 H 0.18253 0.10379 0.5696 0.0
H1611 H 0.05934 0.20176 0.57006 0.0
H1612 H 0.27771 0.15468 0.57099 0.0
H1613 H 0.96502 0.15092 0.57185 0.0
C1614 C 0.98292 0.12389 0.57002 0.0
C1615 C 0.04332 0.1103 0.5691 0.0
C1616 C 0.22967 0.16497 0.57091 0.0
C1617 C 0.1043 0.14386 0.57193 0.0
C1618 C 0.2591 0.18172 0.56935 0.0
C1619 C 0.19836 0.19531 0.5688 0.0
C1620 C 0.13857 0.1617 0.57185 0.0
C1621 C 0.10832 0.19167 0.57042 0.0
C1622 C 0.01295 0.14062 0.57149 0.0
C1623 C 0.13383 0.1139 0.57026 0.0
N1624 N 0.08101 0.17518 0.57171 0.0
N1625 N 0.16169 0.13038 0.57145 0.0
H1626 H 0.90702 0.18463 0.68447 0.0
H1627 H 0.32177 0.12177 0.68537 0.0
H1628 H 0.17781 0.20208 0.68385 0.0
H1629 H 0.05132 0.10429 0.68366 0.0
H1630 H 0.27099 0.15113 0.68262 0.0
H1631 H 0.95844 0.15525 0.68197 0.0
C1632 C 0.97742 0.18226 0.68372 0.0
C1633 C 0.0384 0.19577 0.68455 0.0
C1634 C 0.22265 0.14089 0.68271 0.0
C1635 C 0.09794 0.16213 0.68169 0.0
C1636 C 0.25159 0.12413 0.68433 0.0
C1637 C 0.19046 0.11061 0.68492 0.0
C1638 C 0.13164 0.14425 0.68178 0.0
C1639 C 0.10055 0.11433 0.68327 0.0
C1640 C 0.00674 0.16549 0.68225 0.0
C1641 C 0.12868 0.19204 0.68328 0.0
N1642 N 0.07369 0.13084 0.68194 0.0
N1643 N 0.15584 0.17553 0.68207 0.0
H1644 H 0.93085 0.85303 0.4333 0.0
H1645 H 0.79995 0.95246 0.43298 0.0
H1646 H 0.66222 0.87169 0.43433 0.0
H1647 H 0.06791 0.93382 0.43568 0.0
H1648 H 0.74901 0.92299 0.43009 0.0
H1649 H 0.98298 0.88251 0.43078 0.0
C1650 C 0.88284 0.86329 0.43281 0.0
C1651 C 0.79226 0.85995 0.4342 0.0
C1652 C 0.8191 0.92537 0.43121 0.0
C1653 C 0.85107 0.89368 0.43143 0.0
C1654 C 0.84814 0.94221 0.43279 0.0
C1655 C 0.93805 0.94555 0.43475 0.0
C1656 C 0.88052 0.91183 0.43155 0.0
C1657 C -0.00227 0.93176 0.43446 0.0
C1658 C 0.91252 0.88013 0.43144 0.0
C1659 C 0.7328 0.87375 0.43354 0.0
N1660 N 0.96789 0.91551 0.433 0.0
N1661 N 0.76323 0.89 0.4323 0.0
H1662 H 0.07442 0.87161 0.31984 0.0
H1663 H 0.65701 0.93396 0.31976 0.0
H1664 H 0.80422 0.85382 0.32035 0.0
H1665 H 0.92719 0.95175 0.32042 0.0
H1666 H 0.70927 0.90468 0.32243 0.0
H1667 H 0.02207 0.9009 0.3225 0.0
C1668 C 0.00394 0.87388 0.3206 0.0
C1669 C 0.94342 0.8603 0.31969 0.0
C1670 C 0.75726 0.91497 0.32212 0.0
C1671 C 0.8828 0.89386 0.32273 0.0
C1672 C 0.72746 0.93169 0.32055 0.0
C1673 C 0.78801 0.94527 0.31969 0.0
C1674 C 0.84853 0.91171 0.32273 0.0
C1675 C 0.87836 0.94166 0.32102 0.0
C1676 C 0.97409 0.89061 0.32216 0.0
C1677 C 0.85303 0.86391 0.32099 0.0
N1678 N 0.906 0.92519 0.32232 0.0
N1679 N 0.82534 0.88039 0.32228 0.0
H1680 H 0.40288 0.62203 0.56817 0.0
H1681 H 0.81883 0.68468 0.56919 0.0
H1682 H 0.67319 0.60444 0.56985 0.0
H1683 H 0.54839 0.70235 0.56942 0.0
H1684 H 0.76666 0.65535 0.57167 0.0
H1685 H 0.45404 0.65139 0.57082 0.0
C1686 C 0.4731 0.62436 0.56917 0.0
C1687 C 0.53406 0.6108 0.56861 0.0
C1688 C 0.71856 0.66562 0.57131 0.0
C1689 C 0.5933 0.64445 0.57166 0.0
C1690 C 0.74832 0.68237 0.56985 0.0
C1691 C 0.68771 0.69593 0.56893 0.0
C1692 C 0.62727 0.66232 0.57174 0.0
C1693 C 0.59725 0.69227 0.57008 0.0
C1694 C 0.50226 0.64113 0.57073 0.0
C1695 C 0.62404 0.61451 0.57022 0.0
N1696 N 0.56966 0.67577 0.57127 0.0
N1697 N 0.65108 0.63101 0.57151 0.0
H1698 H 0.55103 0.60354 0.6831 0.0
H1699 H 0.68187 0.70293 0.68283 0.0
H1700 H 0.81954 0.62222 0.68439 0.0
H1701 H 0.41394 0.68428 0.68553 0.0
H1702 H 0.73284 0.67348 0.67987 0.0
H1703 H 0.49902 0.63301 0.68046 0.0
C1704 C 0.59905 0.61381 0.68264 0.0
C1705 C 0.68952 0.61049 0.68415 0.0
C1706 C 0.66274 0.67586 0.681 0.0
C1707 C 0.63086 0.64418 0.68124 0.0
C1708 C 0.63369 0.69268 0.68262 0.0
C1709 C 0.5438 0.69601 0.68461 0.0
C1710 C 0.60134 0.66231 0.68134 0.0
C1711 C 0.48411 0.68222 0.68429 0.0
C1712 C 0.56943 0.63063 0.68121 0.0
C1713 C 0.74902 0.62428 0.68352 0.0
N1714 N 0.51397 0.66598 0.6828 0.0
N1715 N 0.71865 0.64051 0.68221 0.0
H1716 H 0.30014 0.45277 0.43338 0.0
H1717 H 0.42785 0.35322 0.43265 0.0
H1718 H 0.56826 0.43377 0.4333 0.0
H1719 H 0.1607 0.37212 0.43592 0.0
H1720 H 0.47909 0.38262 0.42962 0.0
H1721 H 0.24642 0.42335 0.43103 0.0
C1722 C 0.34765 0.44244 0.43267 0.0
C1723 C 0.43865 0.44566 0.43371 0.0
C1724 C 0.40909 0.38031 0.43089 0.0
C1725 C 0.37806 0.41202 0.43114 0.0
C1726 C 0.37985 0.36352 0.43256 0.0
C1727 C 0.29013 0.36025 0.43472 0.0
C1728 C 0.34809 0.39391 0.43136 0.0
C1729 C 0.23077 0.37411 0.43455 0.0
C1730 C 0.31709 0.42565 0.43141 0.0
C1731 C 0.49745 0.4318 0.43279 0.0
N1732 N 0.26085 0.39032 0.43301 0.0
N1733 N 0.46619 0.41559 0.43166 0.0
H1734 H 0.2999 0.35309 0.32025 0.0
H1735 H 0.43031 0.45257 0.32023 0.0
H1736 H 0.56842 0.37176 0.31891 0.0
H1737 H 0.16191 0.4339 0.31852 0.0
H1738 H 0.48199 0.4231 0.32294 0.0
H1739 H 0.24792 0.38258 0.32282 0.0
C1740 C 0.34794 0.36336 0.32068 0.0
C1741 C 0.43843 0.36001 0.31919 0.0
C1742 C 0.41166 0.42547 0.32208 0.0
C1743 C 0.37975 0.39376 0.32201 0.0
C1744 C 0.38221 0.44231 0.32061 0.0
C1745 C 0.29188 0.44565 0.31897 0.0
C1746 C 0.35024 0.41192 0.32196 0.0
C1747 C 0.23235 0.43185 0.31949 0.0
C1748 C 0.31834 0.3802 0.32207 0.0
C1749 C 0.49789 0.37382 0.31977 0.0
N1750 N 0.26258 0.4156 0.32084 0.0
N1751 N 0.46752 0.39007 0.32103 0.0
H1752 H 0.5817 0.10833 0.08123 0.0
H1753 H 0.6895 0.19271 0.04592 0.0
H1754 H 0.52236 0.11484 0.04616 0.0
H1755 H 0.67165 0.19419 0.08192 0.0
H1756 H 0.64035 0.163 0.04612 0.0
H1757 H 0.63 0.13857 0.08203 0.0
C1758 C 0.57983 0.11609 0.07372 0.0
C1759 C 0.54785 0.10922 0.06363 0.0
C1760 C 0.64628 0.16977 0.05402 0.0
C1761 C 0.60187 0.14344 0.06445 0.0
C1762 C 0.67411 0.1867 0.05387 0.0
C1763 C 0.68393 0.19578 0.06391 0.0
C1764 C 0.62918 0.16167 0.0643 0.0
C1765 C 0.66369 0.18754 0.07403 0.0
C1766 C 0.60634 0.1333 0.07419 0.0
C1767 C 0.54574 0.11973 0.05412 0.0
N1768 N 0.63786 0.17079 0.074 0.0
N1769 N 0.5724 0.13624 0.05476 0.0
H1770 H 0.542 0.19248 0.20827 0.0
H1771 H 0.65637 0.10926 0.17232 0.0
H1772 H 0.56521 0.19514 0.17234 0.0
H1773 H 0.72085 0.11558 0.20726 0.0
H1774 H 0.60583 0.13938 0.17178 0.0
H1775 H 0.59308 0.16291 0.20778 0.0
C1776 C 0.55875 0.18676 0.20027 0.0
C1777 C 0.54991 0.19611 0.19034 0.0
C1778 C 0.6312 0.13409 0.17953 0.0
C1779 C 0.60715 0.1622 0.18963 0.0
C1780 C 0.659 0.11696 0.17986 0.0
C1781 C 0.69296 0.11009 0.18983 0.0
C1782 C 0.63628 0.14412 0.18931 0.0
C1783 C 0.69595 0.1205 0.19939 0.0
C1784 C 0.5878 0.16991 0.19998 0.0
C1785 C 0.57225 0.18825 0.18016 0.0
N1786 N 0.66788 0.13693 0.19889 0.0
N1787 N 0.59927 0.17158 0.18003 0.0
H1788 H 0.1547 0.87166 0.93435 0.0
H1789 H 0.57147 0.9341 0.93407 0.0
H1790 H 0.42499 0.85397 0.93315 0.0
H1791 H 0.30127 0.95189 0.93352 0.0
H1792 H 0.51921 0.90482 0.93142 0.0
H1793 H 0.20646 0.901 0.93176 0.0
C1794 C 0.22505 0.87396 0.93346 0.0
C1795 C 0.28581 0.86039 0.93415 0.0
C1796 C 0.4712 0.9151 0.93175 0.0
C1797 C 0.34573 0.894 0.93118 0.0
C1798 C 0.50101 0.93183 0.9333 0.0
C1799 C 0.44045 0.9454 0.93419 0.0
C1800 C 0.37991 0.91185 0.93118 0.0
C1801 C 0.35007 0.94179 0.93289 0.0
C1802 C 0.25456 0.89072 0.93193 0.0
C1803 C 0.376 0.86405 0.93269 0.0
N1804 N 0.32241 0.92532 0.93161 0.0
N1805 N 0.40336 0.88054 0.93143 0.0
H1806 H 0.30582 0.85322 0.8204 0.0
H1807 H 0.43371 0.9528 0.82027 0.0
H1808 H 0.5737 0.87212 0.81847 0.0
H1809 H 0.1657 0.93385 0.81904 0.0
H1810 H 0.48656 0.92337 0.82286 0.0
H1811 H 0.25357 0.88264 0.82314 0.0
C1812 C 0.3537 0.86352 0.82073 0.0
C1813 C 0.44403 0.86025 0.81903 0.0
C1814 C 0.41607 0.92568 0.82213 0.0
C1815 C 0.385 0.89393 0.82205 0.0
C1816 C 0.38597 0.94249 0.82073 0.0
C1817 C 0.29537 0.94573 0.81926 0.0
C1818 C 0.35502 0.91206 0.8221 0.0
C1819 C 0.2363 0.93187 0.81988 0.0
C1820 C 0.32391 0.88032 0.82222 0.0
C1821 C 0.50326 0.87411 0.81949 0.0
N1822 N 0.26713 0.91565 0.82116 0.0
N1823 N 0.4727 0.89033 0.82086 0.0
H1824 H 0.73564 0.55372 0.06732 0.0
H1825 H 0.285 0.50044 0.06248 0.0
H1826 H 0.72582 0.49854 0.06553 0.0
H1827 H 0.29474 0.55562 0.06438 0.0
H1828 H 0.44609 0.49955 0.06344 0.0
H1829 H 0.57453 0.55462 0.06637 0.0
C1830 C 0.6996 0.54176 0.06678 0.0
C1831 C 0.74449 0.526 0.06651 0.0
C1832 C 0.41317 0.51186 0.06362 0.0
C1833 C 0.55936 0.527 0.06534 0.0
C1834 C 0.32101 0.51241 0.06304 0.0
C1835 C 0.2761 0.52816 0.06335 0.0
C1836 C 0.46123 0.52717 0.06452 0.0
C1837 C 0.32651 0.54321 0.0641 0.0
C1838 C 0.60744 0.54231 0.06621 0.0
C1839 C 0.69406 0.51096 0.06579 0.0
N1840 N 0.4164 0.54233 0.06468 0.0
N1841 N 0.60417 0.51183 0.06521 0.0
H1842 H 0.49384 0.7512 0.0675 0.0
H1843 H 0.94458 0.80435 0.06219 0.0
H1844 H 0.50376 0.80635 0.06528 0.0
H1845 H 0.93475 0.74921 0.06453 0.0
H1846 H 0.7835 0.80527 0.06316 0.0
H1847 H 0.65495 0.75027 0.06654 0.0
C1848 C 0.5299 0.76316 0.06687 0.0
C1849 C 0.48504 0.77891 0.06647 0.0
C1850 C 0.8164 0.79296 0.06343 0.0
C1851 C 0.67017 0.77788 0.06529 0.0
C1852 C 0.90855 0.7924 0.06285 0.0
C1853 C 0.95344 0.77665 0.06328 0.0
C1854 C 0.76831 0.77768 0.06446 0.0
C1855 C 0.90299 0.76162 0.06415 0.0
C1856 C 0.62206 0.76259 0.06629 0.0
C1857 C 0.53551 0.79394 0.06563 0.0
N1858 N 0.8131 0.76252 0.06474 0.0
N1859 N 0.62539 0.79304 0.06505 0.0
H1860 H 0.72353 0.80827 0.18739 0.0
H1861 H 0.28802 0.7493 0.18893 0.0
H1862 H 0.72883 0.75305 0.18577 0.0
H1863 H 0.28265 0.80453 0.1904 0.0
H1864 H 0.44997 0.75037 0.18794 0.0
H1865 H 0.56157 0.8072 0.18837 0.0
C1866 C 0.6907 0.79595 0.18717 0.0
C1867 C 0.73991 0.78075 0.18649 0.0
C1868 C 0.41327 0.76225 0.18851 0.0
C1869 C 0.55474 0.7794 0.18771 0.0
C1870 C 0.32082 0.76163 0.18911 0.0
C1871 C 0.27159 0.77683 0.18975 0.0
C1872 C 0.45677 0.77819 0.18853 0.0
C1873 C 0.31773 0.79247 0.18991 0.0
C1874 C 0.59826 0.79533 0.18777 0.0
C1875 C 0.69376 0.76512 0.18629 0.0
N1876 N 0.40752 0.79273 0.18929 0.0
N1877 N 0.60397 0.76485 0.18692 0.0
H1878 H 0.94047 0.55633 0.18913 0.0
H1879 H 0.50522 0.49729 0.18731 0.0
H1880 H 0.94608 0.50109 0.19038 0.0
H1881 H 0.49969 0.55253 0.18588 0.0
H1882 H 0.66717 0.49839 0.18832 0.0
H1883 H 0.77852 0.55524 0.18811 0.0
C1884 C 0.90772 0.544 0.18926 0.0
C1885 C 0.95703 0.5288 0.18984 0.0
C1886 C 0.63044 0.51026 0.18775 0.0
C1887 C 0.77185 0.52742 0.18859 0.0
C1888 C 0.53799 0.50963 0.18714 0.0
C1889 C 0.48872 0.52482 0.18651 0.0
C1890 C 0.67388 0.5262 0.18775 0.0
C1891 C 0.53481 0.54046 0.18636 0.0
C1892 C 0.81528 0.54336 0.18864 0.0
C1893 C 0.91095 0.51316 0.18994 0.0
N1894 N 0.62459 0.54074 0.187 0.0
N1895 N 0.82117 0.51288 0.1893 0.0
H1896 H 0.68356 0.49963 0.93918 0.0
H1897 H 0.24732 0.55833 0.93747 0.0
H1898 H 0.68811 0.55488 0.94035 0.0
H1899 H 0.24254 0.50307 0.93644 0.0
H1900 H 0.40924 0.55735 0.93836 0.0
H1901 H 0.52163 0.50059 0.93827 0.0
C1902 C 0.65058 0.51194 0.93931 0.0
C1903 C 0.69955 0.52718 0.93985 0.0
C1904 C 0.37269 0.54544 0.93791 0.0
C1905 C 0.51439 0.5284 0.93872 0.0
C1906 C 0.28025 0.546 0.93737 0.0
C1907 C 0.23121 0.53077 0.93687 0.0
C1908 C 0.41639 0.52953 0.93797 0.0
C1909 C 0.27751 0.51516 0.9368 0.0
C1910 C 0.55814 0.5125 0.93875 0.0
C1911 C 0.6532 0.54279 0.93994 0.0
N1912 N 0.36733 0.51495 0.93737 0.0
N1913 N 0.56339 0.54299 0.93937 0.0
H1914 H 0.4786 0.24798 0.9379 0.0
H1915 H 0.04202 0.3066 0.93929 0.0
H1916 H 0.48298 0.30322 0.93652 0.0
H1917 H 0.03773 0.25137 0.94081 0.0
H1918 H 0.20394 0.30565 0.93836 0.0
H1919 H 0.31667 0.24892 0.9388 0.0
C1920 C 0.44557 0.26029 0.93772 0.0
C1921 C 0.4945 0.27553 0.93713 0.0
C1922 C 0.1675 0.29375 0.93893 0.0
C1923 C 0.30932 0.27673 0.93824 0.0
C1924 C 0.07506 0.29429 0.93949 0.0
C1925 C 0.02616 0.27905 0.94014 0.0
C1926 C 0.21133 0.27785 0.939 0.0
C1927 C 0.07258 0.26346 0.94033 0.0
C1928 C 0.35313 0.26083 0.93827 0.0
C1929 C 0.4481 0.29113 0.93696 0.0
N1930 N 0.1624 0.26326 0.93974 0.0
N1931 N 0.35828 0.29132 0.93754 0.0
H1932 H 0.68672 0.3067 0.81469 0.0
H1933 H 0.25053 0.24795 0.81568 0.0
H1934 H 0.69139 0.2515 0.81272 0.0
H1935 H 0.24579 0.30315 0.81758 0.0
H1936 H 0.41246 0.24896 0.81474 0.0
H1937 H 0.5248 0.3057 0.81564 0.0
C1938 C 0.65376 0.29439 0.81439 0.0
C1939 C 0.70278 0.27918 0.81362 0.0
C1940 C 0.37592 0.26084 0.8154 0.0
C1941 C 0.51761 0.27791 0.81478 0.0
C1942 C 0.28348 0.26026 0.81597 0.0
C1943 C 0.23444 0.27548 0.81672 0.0
C1944 C 0.41962 0.27675 0.81556 0.0
C1945 C 0.28075 0.29108 0.81701 0.0
C1946 C 0.56133 0.29381 0.81497 0.0
C1947 C 0.65645 0.26358 0.81331 0.0
N1948 N 0.37056 0.29131 0.81642 0.0
N1949 N 0.56665 0.26335 0.81391 0.0
H1950 H 0.04451 0.49921 0.81411 0.0
H1951 H 0.48068 0.55794 0.8156 0.0
H1952 H 0.03981 0.55445 0.81268 0.0
H1953 H 0.48546 0.50269 0.81683 0.0
H1954 H 0.31874 0.55696 0.8147 0.0
H1955 H 0.20644 0.50019 0.81502 0.0
C1956 C 0.07746 0.51153 0.81393 0.0
C1957 C 0.02843 0.52676 0.81332 0.0
C1958 C 0.35529 0.54505 0.8152 0.0
C1959 C 0.21361 0.528 0.81444 0.0
C1960 C 0.44774 0.54562 0.81575 0.0
C1961 C 0.49678 0.53039 0.8163 0.0
C1962 C 0.31161 0.52914 0.81519 0.0
C1963 C 0.45049 0.51478 0.81642 0.0
C1964 C 0.1699 0.51209 0.81448 0.0
C1965 C 0.07475 0.54237 0.81315 0.0
N1966 N 0.36068 0.51456 0.81585 0.0
N1967 N 0.16456 0.54258 0.81372 0.0
H1968 H 0.28869 1.00052 0.56254 0.0
H1969 H 0.73934 0.05382 0.56727 0.0
H1970 H 0.29844 0.0557 0.56434 0.0
H1971 H 0.72953 0.99863 0.56555 0.0
H1972 H 0.57822 0.05471 0.56634 0.0
H1973 H 0.44979 0.99962 0.5635 0.0
C1974 C 0.3247 1.01248 0.56308 0.0
C1975 C 0.2798 0.02824 0.56336 0.0
C1976 C 0.61114 0.0424 0.56619 0.0
C1977 C 0.46492 1.02725 0.56453 0.0
C1978 C 0.70331 0.04185 0.56675 0.0
C1979 C 0.74819 1.0261 0.56649 0.0
C1980 C 0.56306 1.02708 0.56534 0.0
C1981 C 0.69776 1.01105 0.5658 0.0
C1982 C 0.41686 1.01194 0.56366 0.0
C1983 C 0.33021 0.04328 0.56408 0.0
N1984 N 0.60787 1.01192 0.56522 0.0
N1985 N 0.4201 0.04241 0.56467 0.0
H1986 H 0.50426 0.30786 0.56619 0.0
H1987 H 0.94039 0.24913 0.5642 0.0
H1988 H 0.49938 0.25259 0.56699 0.0
H1989 H 0.94508 0.30439 0.56324 0.0
H1990 H 0.77845 0.2501 0.56513 0.0
H1991 H 0.6662 0.30688 0.56528 0.0
C1992 C 0.53717 0.29554 0.56624 0.0
C1993 C 0.4881 0.2803 0.56667 0.0
C1994 C 0.81499 0.26201 0.56469 0.0
C1995 C 0.67328 0.27906 0.56555 0.0
C1996 C 0.90744 0.26145 0.56412 0.0
C1997 C 0.95646 0.27669 0.56363 0.0
C1998 C 0.77128 0.27792 0.56478 0.0
C1999 C 0.91014 0.2923 0.5636 0.0
C2000 C 0.62962 0.29497 0.56568 0.0
C2001 C 0.53437 0.26468 0.56667 0.0
N2002 N 0.82033 0.29251 0.56419 0.0
N2003 N 0.62419 0.26447 0.5661 0.0
H2004 H 0.73301 0.30835 0.68781 0.0
H2005 H 0.29738 0.24943 0.68926 0.0
H2006 H 0.73836 0.25312 0.68635 0.0
H2007 H 0.29223 0.30466 0.69087 0.0
H2008 H 0.45932 0.25048 0.68829 0.0
H2009 H 0.57106 0.30729 0.68875 0.0
C2010 C 0.7002 0.29602 0.68762 0.0
C2011 C 0.74942 0.28082 0.687 0.0
C2012 C 0.42267 0.26236 0.68888 0.0
C2013 C 0.56423 0.27948 0.68816 0.0
C2014 C 0.33023 0.26176 0.68947 0.0
C2015 C 0.28107 0.27696 0.69015 0.0
C2016 C 0.46624 0.27829 0.68895 0.0
C2017 C 0.32726 0.29259 0.69036 0.0
C2018 C 0.60775 0.29541 0.6882 0.0
C2019 C 0.70327 0.26519 0.68682 0.0
N2020 N 0.41706 0.29284 0.68974 0.0
N2021 N 0.61346 0.26493 0.68742 0.0
H2022 H 0.94146 1.00085 0.69069 0.0
H2023 H 0.49047 0.05413 0.68642 0.0
H2024 H 0.93143 0.05606 0.68931 0.0
H2025 H 0.5007 0.99892 0.68765 0.0
H2026 H 0.65158 0.05505 0.68735 0.0
H2027 H 0.7804 0.99995 0.68973 0.0
C2028 C 0.90539 1.01282 0.69024 0.0
C2029 C 0.95022 0.02858 0.69008 0.0
C2030 C 0.61876 0.04272 0.68739 0.0
C2031 C 0.7651 1.02758 0.68891 0.0
C2032 C 0.52659 0.04217 0.68683 0.0
C2033 C 0.48182 1.02639 0.68695 0.0
C2034 C 0.66695 1.02741 0.6881 0.0
C2035 C 0.53237 1.01135 0.68751 0.0
C2036 C 0.81325 1.01227 0.68966 0.0
C2037 C 0.89972 0.04363 0.68947 0.0
N2038 N 0.62226 1.01223 0.68809 0.0
N2039 N 0.80983 0.04276 0.68889 0.0
H2040 H 0.69242 0.05536 0.44057 0.0
H2041 H 0.24187 1.00194 0.43626 0.0
H2042 H 0.68283 1.00015 0.43917 0.0
H2043 H 0.25165 0.05717 0.4375 0.0
H2044 H 0.403 1.00107 0.4372 0.0
H2045 H 0.53132 0.05622 0.43961 0.0
C2046 C 0.65644 0.04338 0.44012 0.0
C2047 C 0.70139 1.02763 0.43996 0.0
C2048 C 0.37007 1.01339 0.43724 0.0
C2049 C 0.51627 0.02858 0.43877 0.0
C2050 C 0.27789 1.01392 0.43667 0.0
C2051 C 0.233 0.02968 0.4368 0.0
C2052 C 0.41813 0.02872 0.43796 0.0
C2053 C 0.28342 0.04474 0.43736 0.0
C2054 C 0.56428 0.04391 0.43954 0.0
C2055 C 0.65102 1.01257 0.43934 0.0
N2056 N 0.37331 0.04388 0.43795 0.0
N2057 N 0.56113 1.01342 0.43875 0.0
H2058 H 0.48161 0.74759 0.43729 0.0
H2059 H 0.04493 0.80615 0.4391 0.0
H2060 H 0.48589 0.80285 0.43627 0.0
H2061 H 0.04073 0.75089 0.44022 0.0
H2062 H 0.20685 0.80523 0.43817 0.0
H2063 H 0.31969 0.74851 0.43821 0.0
C2064 C 0.44856 0.7599 0.43719 0.0
C2065 C 0.49746 0.77515 0.43669 0.0
C2066 C 0.17043 0.79331 0.43865 0.0
C2067 C 0.31228 0.77632 0.43783 0.0
C2068 C 0.07799 0.79384 0.43922 0.0
C2069 C 0.02911 0.77859 0.43975 0.0
C2070 C 0.21429 0.77742 0.4386 0.0
C2071 C 0.07557 0.76299 0.43983 0.0
C2072 C 0.35612 0.76043 0.43776 0.0
C2073 C 0.45102 0.79075 0.43664 0.0
N2074 N 0.16538 0.76282 0.43924 0.0
N2075 N 0.36121 0.79092 0.43722 0.0
H2076 H 0.24602 0.80375 0.31743 0.0
H2077 H 0.69695 0.75066 0.31207 0.0
H2078 H 0.25613 0.74861 0.31507 0.0
H2079 H 0.68695 0.80578 0.31454 0.0
H2080 H 0.53586 0.74972 0.31301 0.0
H2081 H 0.40713 0.80469 0.3165 0.0
C2082 C 0.28211 0.7918 0.31677 0.0
C2083 C 0.23731 0.77605 0.31633 0.0
C2084 C 0.56873 0.76203 0.31332 0.0
C2085 C 0.42245 0.7771 0.31519 0.0
C2086 C 0.66088 0.7626 0.31276 0.0
C2087 C 0.70572 0.77835 0.31322 0.0
C2088 C 0.52059 0.7773 0.31438 0.0
C2089 C 0.65523 0.79337 0.31412 0.0
C2090 C 0.37428 0.79238 0.31622 0.0
C2091 C 0.28783 0.76103 0.31546 0.0
N2092 N 0.56534 0.79247 0.3147 0.0
N2093 N 0.37772 0.76193 0.3149 0.0
H2094 H 0.03458 0.05496 0.3123 0.0
H2095 H 0.48543 1.00182 0.31751 0.0
H2096 H 0.04452 0.99982 0.31462 0.0
H2097 H 0.4754 0.05697 0.3153 0.0
H2098 H 0.32432 1.00089 0.31659 0.0
H2099 H 0.19567 0.05589 0.31325 0.0
C2100 C 0.07063 0.04301 0.31296 0.0
C2101 C 0.02578 1.02726 0.31338 0.0
C2102 C 0.35719 1.0132 0.31634 0.0
C2103 C 0.2109 0.02829 0.31454 0.0
C2104 C 0.44935 1.01377 0.31689 0.0
C2105 C 0.49418 0.02952 0.31648 0.0
C2106 C 0.30904 0.02849 0.31535 0.0
C2107 C 0.44369 0.04455 0.31566 0.0
C2108 C 0.16279 0.04358 0.31353 0.0
C2109 C 0.07625 1.01224 0.31424 0.0
N2110 N 0.3538 0.04366 0.3151 0.0
N2111 N 0.16614 1.01313 0.31482 0.0
H2112 H 0.22894 0.49819 0.56582 0.0
H2113 H 0.79292 0.55697 0.56401 0.0
H2114 H 0.2339 0.55345 0.56683 0.0
H2115 H 0.78813 0.50172 0.56283 0.0
H2116 H 0.95486 0.55597 0.56495 0.0
H2117 H 0.067 0.49919 0.5649 0.0
C2118 C 0.19604 0.51051 0.56592 0.0
C2119 C 0.24515 0.52574 0.56641 0.0
C2120 C 0.91829 0.54407 0.56446 0.0
C2121 C 0.05996 0.52701 0.56527 0.0
C2122 C 0.82585 0.54465 0.56388 0.0
C2123 C 0.7768 0.52942 0.56333 0.0
C2124 C 0.96197 0.52816 0.5645 0.0
C2125 C 0.82309 0.5138 0.56324 0.0
C2126 C 0.1036 0.51109 0.56535 0.0
C2127 C 0.1989 0.54136 0.56646 0.0
N2128 N 0.91289 0.51358 0.56384 0.0
N2129 N 0.10908 0.54159 0.56588 0.0
H2130 H 0.4418 0.80574 0.56238 0.0
H2131 H -0.00889 0.75245 0.56715 0.0
H2132 H 0.43204 0.75055 0.56422 0.0
H2133 H 0.00097 0.80764 0.56539 0.0
H2134 H 0.15223 0.75155 0.56622 0.0
H2135 H 0.2807 0.80663 0.56334 0.0
C2136 C 0.40579 0.79377 0.56293 0.0
C2137 C 0.45069 0.77802 0.56322 0.0
C2138 C 0.11932 0.76387 0.56606 0.0
C2139 C 0.26556 0.77901 0.56439 0.0
C2140 C 0.02715 0.76442 0.56662 0.0
C2141 C 0.98228 0.78017 0.56635 0.0
C2142 C 0.16742 0.77918 0.5652 0.0
C2143 C 0.03272 0.79522 0.56565 0.0
C2144 C 0.31363 0.79432 0.56351 0.0
C2145 C 0.40027 0.76297 0.56395 0.0
N2146 N 0.12262 0.79434 0.56507 0.0
N2147 N 0.31038 0.76385 0.56453 0.0
H2148 H 0.78984 0.80567 0.69061 0.0
H2149 H 0.24075 0.75236 0.68629 0.0
H2150 H 0.79978 0.75047 0.68911 0.0
H2151 H 0.23064 0.80758 0.68761 0.0
H2152 H 0.07963 0.75146 0.68721 0.0
H2153 H 0.95092 0.80657 0.68967 0.0
C2154 C 0.82589 0.7937 0.69014 0.0
C2155 C 0.78105 0.77794 0.68994 0.0
C2156 C 0.11248 0.76378 0.68727 0.0
C2157 C 0.96617 0.77893 0.68879 0.0
C2158 C 0.20465 0.76434 0.68672 0.0
C2159 C 0.24945 0.7801 0.68687 0.0
C2160 C 0.06432 0.7791 0.688 0.0
C2161 C 0.19894 0.79515 0.68745 0.0
C2162 C 0.91805 0.79425 0.68957 0.0
C2163 C 0.83151 0.76289 0.68931 0.0
N2164 N 0.10904 0.79427 0.68802 0.0
N2165 N 0.92141 0.76376 0.68874 0.0
H2166 H -0.0055 0.55409 0.68569 0.0
H2167 H 0.44526 0.50089 0.69078 0.0
H2168 H 0.00452 0.49892 0.68766 0.0
H2169 H 0.43544 0.55605 0.68872 0.0
H2170 H 0.2842 0.49998 0.68979 0.0
H2171 H 0.15561 0.55502 0.68666 0.0
C2172 C 0.03057 0.54214 0.68627 0.0
C2173 C 0.98574 0.52638 0.6866 0.0
C2174 C 0.31709 0.51229 0.68958 0.0
C2175 C 0.17087 0.5274 0.68778 0.0
C2176 C 0.40924 0.51285 0.69018 0.0
C2177 C 0.45412 0.5286 0.68984 0.0
C2178 C 0.269 0.52759 0.68862 0.0
C2179 C 0.40368 0.54363 0.68903 0.0
C2180 C 0.12274 0.5427 0.68685 0.0
C2181 C 0.03623 0.51134 0.68736 0.0
N2182 N 0.3138 0.54275 0.68843 0.0
N2183 N 0.12612 0.51223 0.68796 0.0
H2184 H 0.75155 0.55798 0.43774 0.0
H2185 H 0.18807 0.49932 0.43876 0.0
H2186 H 0.74714 0.50277 0.43589 0.0
H2187 H 0.1924 0.55452 0.44068 0.0
H2188 H 0.02616 0.50029 0.43782 0.0
H2189 H 0.91347 0.55701 0.43867 0.0
C2190 C 0.78457 0.54567 0.43746 0.0
C2191 C 0.73563 0.53045 0.43673 0.0
C2192 C 0.0626 0.51218 0.43848 0.0
C2193 C 0.9208 0.52922 0.43787 0.0
C2194 C 0.15504 0.51162 0.43905 0.0
C2195 C 0.20396 0.52685 0.4398 0.0
C2196 C 0.01879 0.52808 0.43865 0.0
C2197 C 0.15754 0.54244 0.4401 0.0
C2198 C 0.877 0.54511 0.43803 0.0
C2199 C 0.78203 0.51485 0.43645 0.0
N2200 N 0.06773 0.54265 0.4395 0.0
N2201 N 0.87184 0.51464 0.43704 0.0
H2202 H 0.98225 0.24784 0.43762 0.0
H2203 H 0.54613 0.30657 0.43948 0.0
H2204 H 0.98715 0.3031 0.43677 0.0
H2205 H 0.54144 0.25132 0.44054 0.0
H2206 H 0.70807 0.3056 0.43857 0.0
H2207 H 0.82031 0.24882 0.43851 0.0
C2208 C 0.94934 0.26016 0.43756 0.0
C2209 C -0.00158 0.27539 0.43711 0.0
C2210 C 0.67153 0.29369 0.43903 0.0
C2211 C 0.81324 0.27664 0.43822 0.0
C2212 C 0.57908 0.29426 0.43959 0.0
C2213 C 0.53006 0.27902 0.4401 0.0
C2214 C 0.71524 0.27778 0.43897 0.0
C2215 C 0.57638 0.26341 0.44016 0.0
C2216 C 0.8569 0.26073 0.4381 0.0
C2217 C 0.95216 0.29101 0.4371 0.0
N2218 N 0.66619 0.2632 0.43958 0.0
N2219 N 0.86234 0.29123 0.43766 0.0
H2220 H 0.18501 0.30617 0.31432 0.0
H2221 H 0.74871 0.2475 0.31577 0.0
H2222 H 0.18957 0.25093 0.31293 0.0
H2223 H 0.74403 0.30274 0.31706 0.0
H2224 H 0.91064 0.24847 0.31489 0.0
H2225 H 0.02309 0.30521 0.31524 0.0
C2226 C 0.15203 0.29386 0.31415 0.0
C2227 C 0.20101 0.27863 0.31354 0.0
C2228 C 0.87411 0.26037 0.3154 0.0
C2229 C 0.01584 0.27741 0.31466 0.0
C2230 C 0.78167 0.25982 0.31593 0.0
C2231 C 0.73266 0.27505 0.31649 0.0
C2232 C 0.91784 0.27628 0.31541 0.0
C2233 C 0.77898 0.29066 0.31664 0.0
C2234 C 0.05959 0.29331 0.3147 0.0
C2235 C 0.15466 0.26302 0.31338 0.0
N2236 N 0.8688 0.29086 0.31608 0.0
N2237 N 0.06485 0.26282 0.31396 0.0
H2238 H 0.98213 0.55814 0.31558 0.0
H2239 H 0.54581 0.49947 0.31401 0.0
H2240 H 0.98677 0.50289 0.31675 0.0
H2241 H 0.54127 0.55472 0.3127 0.0
H2242 H 0.70773 0.50043 0.31493 0.0
H2243 H 0.8202 0.55718 0.31469 0.0
C2244 C 0.94916 0.54582 0.31571 0.0
C2245 C -0.00183 0.53059 0.31625 0.0
C2246 C 0.67123 0.51234 0.31441 0.0
C2247 C 0.81299 0.52937 0.31515 0.0
C2248 C 0.5788 0.51179 0.31385 0.0
C2249 C 0.52982 0.52702 0.31327 0.0
C2250 C 0.71499 0.52824 0.3144 0.0
C2251 C 0.57618 0.54263 0.31313 0.0
C2252 C 0.85672 0.54527 0.31517 0.0
C2253 C 0.95183 0.51498 0.31635 0.0
N2254 N 0.66599 0.54283 0.31371 0.0
N2255 N 0.86201 0.51478 0.31579 0.0
H2256 H 0.78449 0.99945 0.06255 0.0
H2257 H 0.23569 0.05244 0.06785 0.0
H2258 H 0.79491 0.05462 0.06449 0.0
H2259 H 0.22531 0.99729 0.0657 0.0
H2260 H 0.07465 0.05343 0.06681 0.0
H2261 H 0.94551 0.99846 0.06359 0.0
C2262 C 0.82063 1.0114 0.06313 0.0
C2263 C 0.7759 1.02717 0.06343 0.0
C2264 C 0.10741 0.0411 0.0666 0.0
C2265 C 0.96103 1.02607 0.0647 0.0
C2266 C 0.19954 0.0405 0.06722 0.0
C2267 C 0.24428 1.02472 0.06686 0.0
C2268 C 0.05916 1.02583 0.06559 0.0
C2269 C 0.19368 1.00972 0.06603 0.0
C2270 C 0.91277 1.01079 0.06376 0.0
C2271 C 0.82652 0.04218 0.06421 0.0
N2272 N 0.1038 1.01064 0.0654 0.0
N2273 N 0.9164 0.04126 0.06485 0.0
H2274 H 0.00586 0.30822 0.06588 0.0
H2275 H 0.44155 0.24927 0.06461 0.0
H2276 H 0.00073 0.25302 0.0678 0.0
H2277 H 0.44675 0.30448 0.0629 0.0
H2278 H 0.2796 0.25034 0.0656 0.0
H2279 H 0.1678 0.30715 0.06489 0.0
C2280 C 0.03872 0.2959 0.06617 0.0
C2281 C 0.98956 0.2807 0.06693 0.0
C2282 C 0.31626 0.26221 0.06498 0.0
C2283 C 0.17473 0.27935 0.06571 0.0
C2284 C 0.40871 0.2616 0.06437 0.0
C2285 C 0.45789 0.27679 0.06367 0.0
C2286 C 0.27271 0.27814 0.06489 0.0
C2287 C 0.4117 0.29242 0.06344 0.0
C2288 C 0.13116 0.29528 0.06556 0.0
C2289 C 0.03576 0.26508 0.06722 0.0
N2290 N 0.32191 0.29268 0.06407 0.0
N2291 N 0.12556 0.26481 0.06658 0.0
H2292 H 0.78148 0.30547 0.19091 0.0
H2293 H 0.2326 0.25237 0.1859 0.0
H2294 H 0.79182 0.25028 0.18921 0.0
H2295 H 0.22229 0.30755 0.1877 0.0
H2296 H 0.07157 0.25141 0.18694 0.0
H2297 H 0.9425 0.30643 0.18987 0.0
C2298 C 0.81761 0.29351 0.19038 0.0
C2299 C 0.77286 0.27774 0.19015 0.0
C2300 C 0.10434 0.26374 0.18708 0.0
C2301 C 0.95798 0.27881 0.18887 0.0
C2302 C 0.19647 0.26433 0.18645 0.0
C2303 C 0.24122 0.2801 0.1867 0.0
C2304 C 0.05611 0.27903 0.18798 0.0
C2305 C 0.19064 0.29512 0.18745 0.0
C2306 C 0.90974 0.2941 0.18976 0.0
C2307 C 0.82346 0.26271 0.18944 0.0
N2308 N 0.10077 0.29421 0.18809 0.0
N2309 N 0.91334 0.26363 0.1888 0.0
H2310 H 0.4445 0.05652 0.18901 0.0
H2311 H 0.00939 0.9974 0.18761 0.0
H2312 H 0.45025 1.0013 0.19068 0.0
H2313 H 0.00373 0.0526 0.18574 0.0
H2314 H 0.17135 0.99852 0.18863 0.0
H2315 H 0.28254 0.05539 0.188 0.0
C2316 C 0.41178 0.04418 0.18924 0.0
C2317 C 0.46113 0.029 0.18993 0.0
C2318 C 0.13458 1.01038 0.18797 0.0
C2319 C 0.27595 1.02758 0.18869 0.0
C2320 C 0.04214 1.00973 0.18734 0.0
C2321 C -0.00718 1.0249 0.18659 0.0
C2322 C 0.17799 1.02633 0.18784 0.0
C2323 C 0.03888 0.04055 0.18632 0.0
C2324 C 0.31934 0.04352 0.18862 0.0
C2325 C 0.41509 1.01335 0.19015 0.0
N2326 N 0.12865 0.04085 0.18697 0.0
N2327 N 0.32531 1.01305 0.1895 0.0
H2328 H 0.74411 1.00181 0.93625 0.0
H2329 H 0.19458 0.05519 0.94091 0.0
H2330 H 0.75375 0.05701 0.93792 0.0
H2331 H 0.18504 1.0 0.93913 0.0
H2332 H 0.03347 0.05605 0.93996 0.0
H2333 H 0.90525 1.00094 0.93718 0.0
C2334 C 0.78011 1.01378 0.93676 0.0
C2335 C 0.73518 0.02953 0.93701 0.0
C2336 C 0.06645 0.04374 0.93981 0.0
C2337 C 0.92031 0.02858 0.93814 0.0
C2338 C 0.15861 0.04321 0.94038 0.0
C2339 C 0.20357 1.02747 0.9401 0.0
C2340 C 0.01845 0.02842 0.93894 0.0
C2341 C 0.15322 1.01241 0.93939 0.0
C2342 C 0.87228 1.01325 0.93731 0.0
C2343 C 0.78555 0.04459 0.93768 0.0
N2344 N 0.06333 1.01327 0.93881 0.0
N2345 N 0.87545 0.04373 0.93825 0.0
H2346 H 0.98017 0.74782 0.93751 0.0
H2347 H 0.54429 0.80667 0.93894 0.0
H2348 H 0.98529 0.80305 0.9361 0.0
H2349 H 0.53937 0.75144 0.94048 0.0
H2350 H 0.70623 0.80565 0.938 0.0
H2351 H 0.81823 0.74885 0.93843 0.0
C2352 C 0.94731 0.76014 0.93733 0.0
C2353 C -0.00354 0.77535 0.93673 0.0
C2354 C 0.66964 0.79376 0.93857 0.0
C2355 C 0.81127 0.77666 0.93786 0.0
C2356 C 0.57719 0.79435 0.93915 0.0
C2357 C 0.5281 0.77913 0.9398 0.0
C2358 C 0.71328 0.77784 0.93863 0.0
C2359 C 0.57436 0.76351 0.93999 0.0
C2360 C 0.85486 0.76074 0.93789 0.0
C2361 C 0.95025 0.79098 0.93656 0.0
N2362 N 0.66416 0.76328 0.93939 0.0
N2363 N 0.86043 0.79122 0.93714 0.0
H2364 H 0.19097 0.80643 0.8141 0.0
H2365 H 0.7545 0.74783 0.81589 0.0
H2366 H 0.19537 0.75118 0.81292 0.0
H2367 H 0.75001 0.80308 0.81689 0.0
H2368 H 0.91643 0.74876 0.81497 0.0
H2369 H 0.02906 0.8055 0.81503 0.0
C2370 C 0.15796 0.79412 0.81397 0.0
C2371 C 0.20689 0.77888 0.81342 0.0
C2372 C 0.87994 0.76068 0.81542 0.0
C2373 C 0.02172 0.77769 0.81458 0.0
C2374 C 0.7875 0.76014 0.81598 0.0
C2375 C 0.73854 0.77539 0.81647 0.0
C2376 C 0.92372 0.77658 0.81534 0.0
C2377 C 0.78492 0.79099 0.81652 0.0
C2378 C 0.06552 0.79358 0.81454 0.0
C2379 C 0.16049 0.76327 0.81333 0.0
N2380 N 0.87474 0.79118 0.81595 0.0
N2381 N 0.07068 0.76309 0.81392 0.0
H2382 H 0.53732 0.05555 0.81268 0.0
H2383 H 0.98765 1.00212 0.81743 0.0
H2384 H 0.54673 1.00036 0.81449 0.0
H2385 H 0.97815 0.05731 0.81568 0.0
H2386 H 0.8265 1.00127 0.81649 0.0
H2387 H 0.69845 0.05639 0.81363 0.0
C2388 C 0.57326 0.04357 0.81322 0.0
C2389 C 0.52827 1.02784 0.8135 0.0
C2390 C 0.8595 1.01357 0.81634 0.0
C2391 C 0.71339 0.02876 0.81467 0.0
C2392 C 0.95168 1.01409 0.81691 0.0
C2393 C -0.00335 0.02983 0.81664 0.0
C2394 C 0.81152 0.0289 0.81548 0.0
C2395 C 0.94632 0.04489 0.81594 0.0
C2396 C 0.66543 0.04409 0.81379 0.0
C2397 C 0.57858 1.01277 0.81423 0.0
N2398 N 0.85643 0.04405 0.81536 0.0
N2399 N 0.66847 1.01362 0.81481 0.0
H2400 H -0.0032 0.49858 0.02907 0.0
H2401 H 0.97686 0.55791 0.9742 0.0
H2402 H 0.98959 0.55383 0.03005 0.0
H2403 H 0.98611 0.50267 0.97326 0.0
H2404 H 0.98154 0.55672 0.9947 0.0
H2405 H -0.00803 0.49981 0.00858 0.0
C2406 C -0.00596 0.51096 0.02499 0.0
C2407 C -0.00627 0.52612 0.03129 0.0
C2408 C 0.9826 0.54487 0.99 0.0
C2409 C 0.98837 0.52763 0.00785 0.0
C2410 C 0.98002 0.54555 0.97829 0.0
C2411 C 0.98097 0.53039 0.97199 0.0
C2412 C 0.98613 0.5289 0.99544 0.0
C2413 C 0.9851 0.51471 0.97776 0.0
C2414 C -0.00861 0.51166 0.01328 0.0
C2415 C 0.9901 0.5418 0.02554 0.0
N2416 N 0.98744 0.51439 0.98913 0.0
N2417 N 0.98764 0.54215 0.01416 0.0
H2418 H 0.2391 0.80388 0.97299 0.0
H2419 H 0.24172 0.75049 0.03019 0.0
H2420 H 0.25245 0.74869 0.97428 0.0
H2421 H 0.23106 0.8057 0.02881 0.0
H2422 H 0.24574 0.74958 0.00977 0.0
H2423 H 0.23515 0.80472 0.99339 0.0
C2424 C 0.24109 0.7919 0.97756 0.0
C2425 C 0.24627 0.77617 0.97189 0.0
C2426 C 0.2426 0.7619 0.01392 0.0
C2427 C 0.24188 0.77708 0.99534 0.0
C2428 C 0.24035 0.76245 0.0256 0.0
C2429 C 0.23591 0.77822 0.03124 0.0
C2430 C 0.24035 0.77722 0.00779 0.0
C2431 C 0.23447 0.79326 0.02482 0.0
C2432 C 0.23889 0.79241 0.98923 0.0
C2433 C 0.24848 0.7611 0.97829 0.0
N2434 N 0.23656 0.79239 0.01344 0.0
N2435 N 0.24637 0.76193 0.98968 0.0
H2436 H -0.0059 0.8048 0.28025 0.0
H2437 H 0.9808 0.75224 0.22276 0.0
H2438 H 0.98037 0.74964 0.27852 0.0
H2439 H -0.00119 0.80737 0.22427 0.0
H2440 H 0.97924 0.75118 0.24314 0.0
H2441 H -0.00417 0.80602 0.25983 0.0
C2442 C -0.00839 0.79292 0.27558 0.0
C2443 C 0.98692 0.77707 0.28112 0.0
C2444 C 0.98346 0.76352 0.23904 0.0
C2445 C 0.98867 0.77843 0.25767 0.0
C2446 C 0.98425 0.76416 0.22737 0.0
C2447 C 0.99009 0.77995 0.22177 0.0
C2448 C 0.98852 0.77876 0.24523 0.0
C2449 C -0.00577 0.79493 0.22824 0.0
C2450 C -0.00746 0.79365 0.2639 0.0
C2451 C 0.98403 0.76213 0.27461 0.0
N2452 N -0.00652 0.79396 0.23963 0.0
N2453 N 0.98479 0.76319 0.26322 0.0
H2454 H 0.23264 0.49759 0.22402 0.0
H2455 H 0.25389 0.55713 0.27882 0.0
H2456 H 0.24681 0.55279 0.22306 0.0
H2457 H 0.24231 0.50191 0.27993 0.0
H2458 H 0.25028 0.55578 0.25833 0.0
H2459 H 0.23626 0.49882 0.24455 0.0
C2460 C 0.23673 0.50994 0.22812 0.0
C2461 C 0.23931 0.52509 0.22181 0.0
C2462 C 0.24848 0.54396 0.26306 0.0
C2463 C 0.24319 0.52663 0.24526 0.0
C2464 C 0.2504 0.54474 0.27477 0.0
C2465 C 0.24854 0.52963 0.28111 0.0
C2466 C 0.24462 0.52796 0.25767 0.0
C2467 C 0.24404 0.51391 0.27539 0.0
C2468 C 0.23866 0.51066 0.23983 0.0
C2469 C 0.24453 0.54076 0.22757 0.0
N2470 N 0.24232 0.51349 0.26402 0.0
N2471 N 0.24619 0.54112 0.23894 0.0
H2472 H 0.73636 0.30459 0.97325 0.0
H2473 H 0.74881 0.25186 0.03068 0.0
H2474 H 0.75265 0.24944 0.97482 0.0
H2475 H 0.73144 0.307 0.02913 0.0
H2476 H 0.75103 0.25079 0.01028 0.0
H2477 H 0.73404 0.30568 0.99365 0.0
C2478 C 0.73931 0.29267 0.97788 0.0
C2479 C 0.74487 0.27687 0.97229 0.0
C2480 C 0.74682 0.26313 0.01438 0.0
C2481 C 0.74242 0.27809 0.99575 0.0
C2482 C 0.74563 0.26378 0.02605 0.0
C2483 C 0.7398 0.27957 0.03165 0.0
C2484 C 0.74213 0.27838 0.00819 0.0
C2485 C 0.736 0.29455 0.02518 0.0
C2486 C 0.73804 0.29333 0.98956 0.0
C2487 C 0.74832 0.26189 0.97877 0.0
N2488 N 0.73712 0.29358 0.01379 0.0
N2489 N 0.74717 0.26288 0.99016 0.0
H2490 H -0.00739 0.30501 0.78063 0.0
H2491 H 0.99019 0.25223 0.72319 0.0
H2492 H 0.97932 0.24984 0.77895 0.0
H2493 H 0.00524 0.3074 0.72469 0.0
H2494 H 0.98526 0.25122 0.74357 0.0
H2495 H -0.00268 0.30615 0.76022 0.0
C2496 C -0.00921 0.2931 0.77597 0.0
C2497 C 0.98544 0.27727 0.78153 0.0
C2498 C 0.98959 0.26356 0.73947 0.0
C2499 C 0.99069 0.27855 0.75808 0.0
C2500 C -0.00763 0.26417 0.7278 0.0
C2501 C -0.00168 0.27995 0.7222 0.0
C2502 C -0.00722 0.27883 0.74564 0.0
C2503 C 0.00069 0.29496 0.72865 0.0
C2504 C -0.00656 0.29379 0.7643 0.0
C2505 C 0.98344 0.26231 0.77503 0.0
N2506 N -0.00198 0.29402 0.74004 0.0
N2507 N 0.98596 0.26333 0.76365 0.0
H2508 H 0.73996 0.50148 0.7802 0.0
H2509 H 0.74387 0.5543 0.72281 0.0
H2510 H 0.75337 0.55665 0.77866 0.0
H2511 H 0.73104 0.49912 0.72435 0.0
H2512 H 0.74811 0.55536 0.7432 0.0
H2513 H 0.73635 0.50041 0.7598 0.0
C2514 C 0.74204 0.51341 0.77557 0.0
C2515 C 0.74711 0.52921 0.78117 0.0
C2516 C 0.74444 0.54301 0.7391 0.0
C2517 C 0.7431 0.52802 0.75772 0.0
C2518 C 0.74205 0.54237 0.72743 0.0
C2519 C 0.7369 0.52656 0.72183 0.0
C2520 C 0.74162 0.52775 0.74528 0.0
C2521 C 0.73498 0.51157 0.7283 0.0
C2522 C 0.74003 0.51276 0.7639 0.0
C2523 C 0.74945 0.5442 0.7747 0.0
N2524 N 0.7372 0.51254 0.73969 0.0
N2525 N 0.74752 0.54323 0.76332 0.0
H2526 H 5e-05 0.99865 0.52905 0.0
H2527 H 0.98092 0.05796 0.47415 0.0
H2528 H -0.00607 0.05391 0.53005 0.0
H2529 H 0.98785 1.00271 0.47329 0.0
H2530 H 0.98611 0.05682 0.49467 0.0
H2531 H -0.00496 0.9999 0.50856 0.0
C2532 C -0.0025 1.01103 0.52497 0.0
C2533 C -0.00248 1.02618 0.53128 0.0
C2534 C 0.98654 0.04495 0.48997 0.0
C2535 C -0.00803 1.02773 0.50784 0.0
C2536 C 0.98369 0.04561 0.47826 0.0
C2537 C 0.9838 0.03043 0.47198 0.0
C2538 C 0.98955 0.029 0.49543 0.0
C2539 C 0.98745 1.01476 0.47777 0.0
C2540 C -0.00525 1.01175 0.51327 0.0
C2541 C -0.00583 0.04188 0.52553 0.0
N2542 N 0.99009 1.01446 0.48914 0.0
N2543 N -0.0084 0.04224 0.51416 0.0
H2544 H 0.25431 0.24819 0.47446 0.0
H2545 H 0.23221 0.30762 0.52931 0.0
H2546 H 0.24225 0.30341 0.47346 0.0
H2547 H 0.24466 0.2524 0.53028 0.0
H2548 H 0.23631 0.30638 0.5088 0.0
H2549 H 0.25019 0.24944 0.49496 0.0
C2550 C 0.25062 0.26055 0.47854 0.0
C2551 C 0.24877 0.27569 0.47223 0.0
C2552 C 0.23821 0.29454 0.51351 0.0
C2553 C 0.24425 0.27726 0.49567 0.0
C2554 C 0.23599 0.29526 0.52522 0.0
C2555 C 0.23796 0.28011 0.53153 0.0
C2556 C 0.24244 0.27857 0.50808 0.0
C2557 C 0.24282 0.26443 0.52577 0.0
C2558 C 0.24839 0.26128 0.49025 0.0
C2559 C 0.244 0.29138 0.47797 0.0
N2560 N 0.24481 0.26408 0.5144 0.0
N2561 N 0.24199 0.29175 0.48935 0.0
H2562 H 0.248 0.05719 0.77922 0.0
H2563 H 0.22941 0.998 0.72425 0.0
H2564 H 0.24256 1.00193 0.78019 0.0
H2565 H 0.23623 0.05326 0.72348 0.0
H2566 H 0.23447 0.99907 0.74477 0.0
H2567 H 0.24297 0.05596 0.75873 0.0
C2568 C 0.24559 0.04481 0.77513 0.0
C2569 C 0.24582 0.02966 0.78143 0.0
C2570 C 0.23491 1.01096 0.74009 0.0
C2571 C 0.24025 0.02813 0.75799 0.0
C2572 C 0.23212 1.01034 0.72838 0.0
C2573 C 0.23226 1.02555 0.72213 0.0
C2574 C 0.23785 1.02689 0.74558 0.0
C2575 C 0.23583 0.04119 0.72794 0.0
C2576 C 0.24283 0.04411 0.76343 0.0
C2577 C 0.24264 1.01396 0.77568 0.0
N2578 N 0.2384 0.04145 0.73931 0.0
N2579 N 0.24006 1.01361 0.7643 0.0
H2580 H 0.75058 0.74831 0.47406 0.0
H2581 H 0.73031 0.80765 0.52894 0.0
H2582 H 0.74205 0.80355 0.47312 0.0
H2583 H 0.73711 0.7524 0.5299 0.0
H2584 H 0.73545 0.80643 0.50844 0.0
H2585 H 0.74556 0.74951 0.49456 0.0
C2586 C 0.7475 0.76067 0.47815 0.0
C2587 C 0.74685 0.77584 0.47186 0.0
C2588 C 0.73586 0.79458 0.51315 0.0
C2589 C 0.74129 0.77733 0.4953 0.0
C2590 C 0.73304 0.79528 0.52485 0.0
C2591 C 0.73315 0.78012 0.53115 0.0
C2592 C 0.73885 0.7786 0.50771 0.0
C2593 C 0.73674 0.76443 0.52539 0.0
C2594 C 0.74473 0.76136 0.48986 0.0
C2595 C 0.74282 0.79152 0.47762 0.0
N2596 N 0.73937 0.76409 0.51402 0.0
N2597 N 0.74027 0.79185 0.48899 0.0
H2598 H 0.75256 0.05348 0.22289 0.0
H2599 H 0.73713 1.00093 0.28037 0.0
H2600 H 0.73342 0.99837 0.22442 0.0
H2601 H 0.75196 0.05608 0.27868 0.0
H2602 H 0.73578 0.99973 0.25996 0.0
H2603 H 0.7538 0.05456 0.24328 0.0
C2604 C 0.7488 0.04156 0.22751 0.0
C2605 C 0.74273 1.02578 0.22191 0.0
C2606 C 0.73922 1.0121 0.26403 0.0
C2607 C 0.74392 1.02699 0.24537 0.0
C2608 C 0.73994 1.01283 0.27571 0.0
C2609 C 0.74483 0.02866 0.28127 0.0
C2610 C 0.74352 1.02732 0.25782 0.0
C2611 C 0.74812 0.04361 0.27476 0.0
C2612 C 0.74941 0.04222 0.23918 0.0
C2613 C 0.73821 1.0108 0.22838 0.0
N2614 N 0.74757 0.04256 0.26338 0.0
N2615 N 0.73877 1.01178 0.23977 0.0
H2616 H 0.48648 0.55392 0.53019 0.0
H2617 H 0.49357 0.50098 0.47283 0.0
H2618 H 0.5028 0.49876 0.52882 0.0
H2619 H 0.47935 0.55614 0.47446 0.0
H2620 H 0.49715 0.49986 0.49325 0.0
H2621 H 0.48289 0.55483 0.50981 0.0
C2622 C 0.48921 0.54196 0.52561 0.0
C2623 C 0.49513 0.52621 0.53125 0.0
C2624 C 0.49332 0.51221 0.48916 0.0
C2625 C 0.49115 0.52722 0.5078 0.0
C2626 C 0.49133 0.51288 0.47748 0.0
C2627 C 0.48602 0.5287 0.47191 0.0
C2628 C 0.48993 0.52746 0.49536 0.0
C2629 C 0.48346 0.54367 0.4784 0.0
C2630 C 0.4872 0.54251 0.51394 0.0
C2631 C 0.49822 0.51117 0.52483 0.0
N2632 N 0.48532 0.54268 0.48978 0.0
N2633 N 0.49631 0.51205 0.51343 0.0
H2634 H 0.48411 0.74864 0.77903 0.0
H2635 H 0.50348 0.80821 0.72425 0.0
H2636 H 0.49413 0.80387 0.78012 0.0
H2637 H 0.49434 0.75297 0.72326 0.0
H2638 H 0.49927 0.80695 0.74476 0.0
H2639 H 0.48812 0.74997 0.75853 0.0
C2640 C 0.48734 0.76102 0.77497 0.0
C2641 C 0.48867 0.77614 0.78131 0.0
C2642 C 0.49813 0.79512 0.74004 0.0
C2643 C 0.49304 0.77779 0.75787 0.0
C2644 C 0.50041 0.79584 0.72833 0.0
C2645 C 0.49942 0.78069 0.72202 0.0
C2646 C 0.4948 0.77913 0.74546 0.0
C2647 C 0.49542 0.765 0.72777 0.0
C2648 C 0.4895 0.76179 0.76327 0.0
C2649 C 0.49283 0.79186 0.77559 0.0
N2650 N 0.49335 0.76464 0.73914 0.0
N2651 N 0.49478 0.79227 0.76421 0.0
H2652 H 0.47718 0.24862 0.27904 0.0
H2653 H 0.4954 0.30822 0.22426 0.0
H2654 H 0.48754 0.30384 0.2802 0.0
H2655 H 0.48401 0.253 0.22331 0.0
H2656 H 0.49199 0.30699 0.24479 0.0
H2657 H 0.48031 0.25 0.25855 0.0
C2658 C 0.4803 0.26102 0.275 0.0
C2659 C 0.48198 0.27612 0.28136 0.0
C2660 C 0.49015 0.29515 0.24007 0.0
C2661 C 0.48532 0.27783 0.25791 0.0
C2662 C 0.49194 0.29586 0.22836 0.0
C2663 C 0.49011 0.28071 0.22205 0.0
C2664 C 0.48649 0.27917 0.2455 0.0
C2665 C 0.48572 0.26503 0.22781 0.0
C2666 C 0.48196 0.26182 0.2633 0.0
C2667 C 0.48599 0.29185 0.27565 0.0
N2668 N 0.48416 0.26468 0.23918 0.0
N2669 N 0.48744 0.29229 0.26427 0.0
H2670 H 0.49801 0.99698 0.02921 0.0
H2671 H 0.48138 0.05686 0.97454 0.0
H2672 H 0.48793 0.0522 0.03034 0.0
H2673 H 0.48956 1.00162 0.97334 0.0
H2674 H 0.48467 0.05542 0.99505 0.0
H2675 H 0.49464 0.99836 0.00869 0.0
C2676 C 0.49486 1.00937 0.02516 0.0
C2677 C 0.49337 1.02448 0.03151 0.0
C2678 C 0.48581 0.04362 0.99028 0.0
C2679 C 0.48978 1.02618 0.00806 0.0
C2680 C 0.48407 0.04445 0.97858 0.0
C2681 C 0.48506 0.02936 0.97221 0.0
C2682 C 0.48859 1.02759 0.99565 0.0
C2683 C 0.48853 1.01361 0.9779 0.0
C2684 C 0.49307 1.01017 0.01345 0.0
C2685 C 0.48935 0.0402 0.0258 0.0
N2686 N 0.49008 1.01314 0.98928 0.0
N2687 N 0.4878 0.04064 0.01442 0.0
loop_
_geom_bond_atom_site_label_1
_geom_bond_atom_site_label_2
_geom_bond_distance
_geom_bond_site_symmetry_2
_ccdc_geom_bond_type
Co0 N5 2.057 . S
Co0 O17 2.021 . S
Co0 O20 2.062 . S
Co0 O24 2.117 . S
Co0 O25 2.020 1_455 S
C1 O21 1.259 . S
C1 O24 1.258 . S
Co2 N11 2.057 . S
Co2 O18 2.117 . S
Co2 O19 2.020 . S
Co2 O21 2.021 . S
Co2 O26 2.062 1_455 S
C3 N5 1.316 . S
C3 N6 1.347 . S
C3 H8 0.931 . S
C4 N5 1.375 . S
C4 C7 1.350 . S
C4 H9 0.930 . S
N5 Co0 2.057 . S
N5 C3 1.316 . S
N5 C4 1.375 . S
N6 C3 1.347 . S
N6 C7 1.373 . S
C7 C4 1.350 . S
C7 N6 1.373 . S
C7 H28 0.931 . S
H8 C3 0.931 . S
H9 C4 0.930 . S
C10 O17 1.259 . S
C10 O18 1.258 . S
N11 Co2 2.057 . S
N11 C12 1.316 1_455 S
N11 C13 1.375 . S
C12 N11 1.316 1_655 S
C12 N14 1.347 . S
C12 H23 0.931 . S
C13 N11 1.375 . S
C13 C15 1.351 . S
C13 H22 0.930 . S
N14 C12 1.347 . S
N14 C15 1.373 1_655 S
C15 C13 1.351 . S
C15 N14 1.373 1_455 S
C15 H29 0.930 1_455 S
C16 O19 1.256 . S
C16 O20 1.255 . S
O17 Co0 2.021 . S
O17 C10 1.259 . S
O18 Co2 2.117 . S
O18 C10 1.258 . S
O19 Co2 2.020 . S
O19 C16 1.256 . S
O20 Co0 2.062 . S
O20 C16 1.255 . S
O21 C1 1.259 . S
O21 Co2 2.021 . S
H22 C13 0.930 . S
H23 C12 0.931 . S
O24 Co0 2.117 . S
O24 C1 1.258 . S
O25 Co0 2.020 1_655 S
O25 C27 1.256 . S
O26 Co2 2.062 1_655 S
O26 C27 1.255 . S
C27 O25 1.256 . S
C27 O26 1.255 . S
H28 C7 0.931 . S
H29 C15 0.930 1_655 S
Co30 N35 2.057 . S
Co30 O47 2.021 . S
Co30 O50 2.062 . S
Co30 O54 2.117 . S
Co30 O55 2.020 . S
C31 O51 1.259 . S
C31 O54 1.258 . S
Co32 N41 2.057 . S
Co32 O48 2.117 . S
Co32 O49 2.020 . S
Co32 O51 2.021 . S
Co32 O56 2.062 . S
C33 N35 1.316 . S
C33 N36 1.347 . S
C33 H38 0.931 . S
C34 N35 1.375 . S
C34 C37 1.350 . S
C34 H39 0.930 . S
N35 Co30 2.057 . S
N35 C33 1.316 . S
N35 C34 1.375 . S
N36 C33 1.347 . S
N36 C37 1.373 . S
C37 C34 1.350 . S
C37 N36 1.373 . S
C37 H58 0.931 . S
H38 C33 0.931 . S
H39 C34 0.930 . S
C40 O47 1.259 . S
C40 O48 1.258 . S
N41 Co32 2.057 . S
N41 C42 1.316 . S
N41 C43 1.375 . S
C42 N41 1.316 . S
C42 N44 1.347 . S
C42 H53 0.931 . S
C43 N41 1.375 . S
C43 C45 1.350 . S
C43 H52 0.930 . S
N44 C42 1.347 . S
N44 C45 1.373 . S
C45 C43 1.350 . S
C45 N44 1.373 . S
C45 H59 0.931 . S
C46 O49 1.256 . S
C46 O50 1.255 . S
O47 Co30 2.021 . S
O47 C40 1.259 . S
O48 Co32 2.117 . S
O48 C40 1.258 . S
O49 Co32 2.020 . S
O49 C46 1.256 . S
O50 Co30 2.062 . S
O50 C46 1.255 . S
O51 C31 1.259 . S
O51 Co32 2.021 . S
H52 C43 0.930 . S
H53 C42 0.931 . S
O54 Co30 2.117 . S
O54 C31 1.258 . S
O55 Co30 2.020 . S
O55 C57 1.256 . S
O56 Co32 2.062 . S
O56 C57 1.255 . S
C57 O55 1.256 . S
C57 O56 1.255 . S
H58 C37 0.931 . S
H59 C45 0.931 . S
Co60 N65 2.057 . S
Co60 O77 2.021 . S
Co60 O80 2.062 . S
Co60 O84 2.117 . S
Co60 O85 2.020 1_455 S
C61 O81 1.259 . S
C61 O84 1.258 . S
Co62 N71 2.057 . S
Co62 O78 2.117 . S
Co62 O79 2.020 . S
Co62 O81 2.021 . S
Co62 O86 2.062 1_455 S
C63 N65 1.316 . S
C63 N66 1.347 . S
C63 H68 0.931 . S
C64 N65 1.375 . S
C64 C67 1.350 . S
C64 H69 0.930 . S
N65 Co60 2.057 . S
N65 C63 1.316 . S
N65 C64 1.375 . S
N66 C63 1.347 . S
N66 C67 1.373 . S
C67 C64 1.350 . S
C67 N66 1.373 . S
C67 H88 0.931 . S
H68 C63 0.931 . S
H69 C64 0.930 . S
C70 O77 1.259 . S
C70 O78 1.258 . S
N71 Co62 2.057 . S
N71 C72 1.316 1_455 S
N71 C73 1.375 . S
C72 N71 1.316 1_655 S
C72 N74 1.347 . S
C72 H83 0.931 . S
C73 N71 1.375 . S
C73 C75 1.351 . S
C73 H82 0.930 . S
N74 C72 1.347 . S
N74 C75 1.372 1_655 S
C75 C73 1.351 . S
C75 N74 1.372 1_455 S
C75 H89 0.930 1_455 S
C76 O79 1.256 . S
C76 O80 1.255 . S
O77 Co60 2.021 . S
O77 C70 1.259 . S
O78 Co62 2.117 . S
O78 C70 1.258 . S
O79 Co62 2.020 . S
O79 C76 1.256 . S
O80 Co60 2.062 . S
O80 C76 1.255 . S
O81 C61 1.259 . S
O81 Co62 2.021 . S
H82 C73 0.930 . S
H83 C72 0.931 . S
O84 Co60 2.117 . S
O84 C61 1.258 . S
O85 Co60 2.020 1_655 S
O85 C87 1.256 . S
O86 Co62 2.062 1_655 S
O86 C87 1.255 . S
C87 O85 1.256 . S
C87 O86 1.255 . S
H88 C67 0.931 . S
H89 C75 0.930 1_655 S
Co90 N95 2.057 . S
Co90 O107 2.021 . S
Co90 O110 2.062 . S
Co90 O114 2.117 . S
Co90 O115 2.020 . S
C91 O111 1.259 . S
C91 O114 1.258 . S
Co92 N101 2.057 . S
Co92 O108 2.117 . S
Co92 O109 2.020 . S
Co92 O111 2.021 . S
Co92 O116 2.062 . S
C93 N95 1.316 . S
C93 N96 1.347 . S
C93 H98 0.931 . S
C94 N95 1.375 . S
C94 C97 1.350 . S
C94 H99 0.930 . S
N95 Co90 2.057 . S
N95 C93 1.316 . S
N95 C94 1.375 . S
N96 C93 1.347 . S
N96 C97 1.373 . S
C97 C94 1.350 . S
C97 N96 1.373 . S
C97 H118 0.931 . S
H98 C93 0.931 . S
H99 C94 0.930 . S
C100 O107 1.259 . S
C100 O108 1.258 . S
N101 Co92 2.057 . S
N101 C102 1.316 . S
N101 C103 1.375 . S
C102 N101 1.316 . S
C102 N104 1.347 . S
C102 H113 0.931 . S
C103 N101 1.375 . S
C103 C105 1.350 . S
C103 H112 0.930 . S
N104 C102 1.347 . S
N104 C105 1.373 . S
C105 C103 1.350 . S
C105 N104 1.373 . S
C105 H119 0.931 . S
C106 O109 1.256 . S
C106 O110 1.255 . S
O107 Co90 2.021 . S
O107 C100 1.259 . S
O108 Co92 2.117 . S
O108 C100 1.258 . S
O109 Co92 2.020 . S
O109 C106 1.256 . S
O110 Co90 2.062 . S
O110 C106 1.255 . S
O111 C91 1.259 . S
O111 Co92 2.021 . S
H112 C103 0.930 . S
H113 C102 0.931 . S
O114 Co90 2.117 . S
O114 C91 1.258 . S
O115 Co90 2.020 . S
O115 C117 1.256 . S
O116 Co92 2.062 . S
O116 C117 1.255 . S
C117 O115 1.256 . S
C117 O116 1.255 . S
H118 C97 0.931 . S
H119 C105 0.931 . S
Co120 N125 2.057 . S
Co120 O137 2.021 . S
Co120 O140 2.062 1_655 S
Co120 O144 2.117 . S
Co120 O145 2.020 . S
C121 O141 1.259 . S
C121 O144 1.258 . S
Co122 N131 2.057 . S
Co122 O138 2.117 . S
Co122 O139 2.020 1_655 S
Co122 O141 2.021 . S
Co122 O146 2.062 . S
C123 N125 1.316 1_455 S
C123 N126 1.347 . S
C123 H128 0.931 . S
C124 N125 1.375 . S
C124 C127 1.351 . S
C124 H129 0.930 . S
N125 Co120 2.057 . S
N125 C123 1.316 1_655 S
N125 C124 1.375 . S
N126 C123 1.347 . S
N126 C127 1.373 1_455 S
C127 C124 1.351 . S
C127 N126 1.373 1_655 S
C127 H148 0.930 1_655 S
H128 C123 0.931 . S
H129 C124 0.930 . S
C130 O137 1.259 . S
C130 O138 1.258 . S
N131 Co122 2.057 . S
N131 C132 1.316 . S
N131 C133 1.375 . S
C132 N131 1.316 . S
C132 N134 1.347 . S
C132 H143 0.931 . S
C133 N131 1.375 . S
C133 C135 1.350 . S
C133 H142 0.930 . S
N134 C132 1.347 . S
N134 C135 1.373 . S
C135 C133 1.350 . S
C135 N134 1.373 . S
C135 H149 0.931 . S
C136 O139 1.256 . S
C136 O140 1.255 . S
O137 Co120 2.021 . S
O137 C130 1.259 . S
O138 Co122 2.117 . S
O138 C130 1.258 . S
O139 Co122 2.020 1_455 S
O139 C136 1.256 . S
O140 Co120 2.062 1_455 S
O140 C136 1.255 . S
O141 C121 1.259 . S
O141 Co122 2.021 . S
H142 C133 0.930 . S
H143 C132 0.931 . S
O144 Co120 2.117 . S
O144 C121 1.258 . S
O145 Co120 2.020 . S
O145 C147 1.256 . S
O146 Co122 2.062 . S
O146 C147 1.255 . S
C147 O145 1.256 . S
C147 O146 1.255 . S
H148 C127 0.930 1_455 S
H149 C135 0.931 . S
Co150 N155 2.057 . S
Co150 O167 2.021 . S
Co150 O170 2.062 . S
Co150 O174 2.117 . S
Co150 O175 2.020 . S
C151 O171 1.259 . S
C151 O174 1.258 . S
Co152 N161 2.057 . S
Co152 O168 2.117 . S
Co152 O169 2.020 . S
Co152 O171 2.021 . S
Co152 O176 2.062 . S
C153 N155 1.316 . S
C153 N156 1.347 . S
C153 H158 0.931 . S
C154 N155 1.375 . S
C154 C157 1.350 . S
C154 H159 0.930 . S
N155 Co150 2.057 . S
N155 C153 1.316 . S
N155 C154 1.375 . S
N156 C153 1.347 . S
N156 C157 1.373 . S
C157 C154 1.350 . S
C157 N156 1.373 . S
C157 H178 0.931 . S
H158 C153 0.931 . S
H159 C154 0.930 . S
C160 O167 1.259 . S
C160 O168 1.258 . S
N161 Co152 2.057 . S
N161 C162 1.316 . S
N161 C163 1.375 . S
C162 N161 1.316 . S
C162 N164 1.347 . S
C162 H173 0.931 . S
C163 N161 1.375 . S
C163 C165 1.350 . S
C163 H172 0.930 . S
N164 C162 1.347 . S
N164 C165 1.373 . S
C165 C163 1.350 . S
C165 N164 1.373 . S
C165 H179 0.931 . S
C166 O169 1.256 . S
C166 O170 1.255 . S
O167 Co150 2.021 . S
O167 C160 1.259 . S
O168 Co152 2.117 . S
O168 C160 1.258 . S
O169 Co152 2.020 . S
O169 C166 1.256 . S
O170 Co150 2.062 . S
O170 C166 1.255 . S
O171 C151 1.259 . S
O171 Co152 2.021 . S
H172 C163 0.930 . S
H173 C162 0.931 . S
O174 Co150 2.117 . S
O174 C151 1.258 . S
O175 Co150 2.020 . S
O175 C177 1.256 . S
O176 Co152 2.062 . S
O176 C177 1.255 . S
C177 O175 1.256 . S
C177 O176 1.255 . S
H178 C157 0.931 . S
H179 C165 0.931 . S
Co180 N185 2.057 . S
Co180 O197 2.021 . S
Co180 O200 2.062 1_655 S
Co180 O204 2.117 . S
Co180 O205 2.020 . S
C181 O201 1.259 . S
C181 O204 1.258 . S
Co182 N191 2.057 . S
Co182 O198 2.117 . S
Co182 O199 2.020 1_655 S
Co182 O201 2.021 . S
Co182 O206 2.062 . S
C183 N185 1.316 1_455 S
C183 N186 1.347 . S
C183 H188 0.931 . S
C184 N185 1.375 . S
C184 C187 1.351 . S
C184 H189 0.930 . S
N185 Co180 2.057 . S
N185 C183 1.316 1_655 S
N185 C184 1.375 . S
N186 C183 1.347 . S
N186 C187 1.372 1_455 S
C187 C184 1.351 . S
C187 N186 1.372 1_655 S
C187 H208 0.930 1_655 S
H188 C183 0.931 . S
H189 C184 0.930 . S
C190 O197 1.259 . S
C190 O198 1.258 . S
N191 Co182 2.057 . S
N191 C192 1.316 . S
N191 C193 1.375 . S
C192 N191 1.316 . S
C192 N194 1.347 . S
C192 H203 0.931 . S
C193 N191 1.375 . S
C193 C195 1.350 . S
C193 H202 0.930 . S
N194 C192 1.347 . S
N194 C195 1.373 . S
C195 C193 1.350 . S
C195 N194 1.373 . S
C195 H209 0.931 . S
C196 O199 1.256 . S
C196 O200 1.255 . S
O197 Co180 2.021 . S
O197 C190 1.259 . S
O198 Co182 2.117 . S
O198 C190 1.258 . S
O199 Co182 2.020 1_455 S
O199 C196 1.256 . S
O200 Co180 2.062 1_455 S
O200 C196 1.255 . S
O201 C181 1.259 . S
O201 Co182 2.021 . S
H202 C193 0.930 . S
H203 C192 0.931 . S
O204 Co180 2.117 . S
O204 C181 1.258 . S
O205 Co180 2.020 . S
O205 C207 1.256 . S
O206 Co182 2.062 . S
O206 C207 1.255 . S
C207 O205 1.256 . S
C207 O206 1.255 . S
H208 C187 0.930 1_455 S
H209 C195 0.931 . S
Co210 N215 2.057 . S
Co210 O227 2.021 . S
Co210 O230 2.062 . S
Co210 O234 2.117 . S
Co210 O235 2.020 . S
C211 O231 1.259 . S
C211 O234 1.258 . S
Co212 N221 2.057 . S
Co212 O228 2.117 . S
Co212 O229 2.020 . S
Co212 O231 2.021 . S
Co212 O236 2.062 . S
C213 N215 1.316 . S
C213 N216 1.347 . S
C213 H218 0.931 . S
C214 N215 1.375 . S
C214 C217 1.350 . S
C214 H219 0.930 . S
N215 Co210 2.057 . S
N215 C213 1.316 . S
N215 C214 1.375 . S
N216 C213 1.347 . S
N216 C217 1.373 . S
C217 C214 1.350 . S
C217 N216 1.373 . S
C217 H238 0.931 . S
H218 C213 0.931 . S
H219 C214 0.930 . S
C220 O227 1.259 . S
C220 O228 1.258 . S
N221 Co212 2.057 . S
N221 C222 1.316 . S
N221 C223 1.375 . S
C222 N221 1.316 . S
C222 N224 1.347 . S
C222 H233 0.931 . S
C223 N221 1.375 . S
C223 C225 1.350 . S
C223 H232 0.930 . S
N224 C222 1.347 . S
N224 C225 1.373 . S
C225 C223 1.350 . S
C225 N224 1.373 . S
C225 H239 0.931 . S
C226 O229 1.256 . S
C226 O230 1.255 . S
O227 Co210 2.021 . S
O227 C220 1.259 . S
O228 Co212 2.117 . S
O228 C220 1.258 . S
O229 Co212 2.020 . S
O229 C226 1.256 . S
O230 Co210 2.062 . S
O230 C226 1.255 . S
O231 C211 1.259 . S
O231 Co212 2.021 . S
H232 C223 0.930 . S
H233 C222 0.931 . S
O234 Co210 2.117 . S
O234 C211 1.258 . S
O235 Co210 2.020 . S
O235 C237 1.256 . S
O236 Co212 2.062 . S
O236 C237 1.255 . S
C237 O235 1.256 . S
C237 O236 1.255 . S
H238 C217 0.931 . S
H239 C225 0.931 . S
Co240 N245 2.057 . S
Co240 O257 2.021 . S
Co240 O260 2.062 . S
Co240 O264 2.117 . S
Co240 O265 2.020 1_455 S
C241 O261 1.259 . S
C241 O264 1.258 1_565 S
Co242 N251 2.057 . S
Co242 O258 2.117 . S
Co242 O259 2.020 . S
Co242 O261 2.021 . S
Co242 O266 2.062 1_455 S
C243 N245 1.316 . S
C243 N246 1.347 . S
C243 H248 0.931 . S
C244 N245 1.375 . S
C244 C247 1.350 . S
C244 H249 0.930 . S
N245 Co240 2.057 . S
N245 C243 1.316 . S
N245 C244 1.375 . S
N246 C243 1.347 . S
N246 C247 1.373 . S
C247 C244 1.350 . S
C247 N246 1.373 . S
C247 H268 0.931 . S
H248 C243 0.931 . S
H249 C244 0.930 . S
C250 O257 1.259 . S
C250 O258 1.258 1_545 S
N251 Co242 2.057 . S
N251 C252 1.316 1_455 S
N251 C253 1.375 . S
C252 N251 1.316 1_655 S
C252 N254 1.347 . S
C252 H263 0.931 . S
C253 N251 1.375 . S
C253 C255 1.351 . S
C253 H262 0.930 . S
N254 C252 1.347 . S
N254 C255 1.373 1_655 S
C255 C253 1.351 . S
C255 N254 1.373 1_455 S
C255 H269 0.931 1_455 S
C256 O259 1.293 . S
C256 O260 1.217 1_565 S
O257 Co240 2.021 . S
O257 C250 1.259 . S
O258 Co242 2.117 . S
O258 C250 1.258 1_565 S
O259 Co242 2.020 . S
O259 C256 1.293 . S
O260 Co240 2.062 . S
O260 C256 1.217 1_545 S
O261 C241 1.259 . S
O261 Co242 2.021 . S
H262 C253 0.930 . S
H263 C252 0.931 . S
O264 Co240 2.117 . S
O264 C241 1.258 1_545 S
O265 Co240 2.020 1_655 S
O265 C267 1.279 . S
O266 Co242 2.062 1_655 S
O266 C267 1.232 1_565 S
C267 O265 1.279 . S
C267 O266 1.232 1_545 S
H268 C247 0.931 . S
H269 C255 0.931 1_655 S
Co270 N275 2.057 . S
Co270 O287 2.021 . S
Co270 O290 2.062 . S
Co270 O294 2.117 . S
Co270 O295 2.020 . S
C271 O291 1.259 . S
C271 O294 1.258 . S
Co272 N281 2.057 . S
Co272 O288 2.117 . S
Co272 O289 2.020 . S
Co272 O291 2.021 . S
Co272 O296 2.062 . S
C273 N275 1.316 . S
C273 N276 1.347 . S
C273 H278 0.931 . S
C274 N275 1.375 . S
C274 C277 1.350 . S
C274 H279 0.930 . S
N275 Co270 2.057 . S
N275 C273 1.316 . S
N275 C274 1.375 . S
N276 C273 1.347 . S
N276 C277 1.373 . S
C277 C274 1.350 . S
C277 N276 1.373 . S
C277 H298 0.931 . S
H278 C273 0.931 . S
H279 C274 0.930 . S
C280 O287 1.259 . S
C280 O288 1.258 . S
N281 Co272 2.057 . S
N281 C282 1.316 . S
N281 C283 1.375 . S
C282 N281 1.316 . S
C282 N284 1.347 . S
C282 H293 0.931 . S
C283 N281 1.375 . S
C283 C285 1.350 . S
C283 H292 0.930 . S
N284 C282 1.347 . S
N284 C285 1.373 . S
C285 C283 1.350 . S
C285 N284 1.373 . S
C285 H299 0.931 . S
C286 O289 1.256 . S
C286 O290 1.255 . S
O287 Co270 2.021 . S
O287 C280 1.259 . S
O288 Co272 2.117 . S
O288 C280 1.258 . S
O289 Co272 2.020 . S
O289 C286 1.256 . S
O290 Co270 2.062 . S
O290 C286 1.255 . S
O291 C271 1.259 . S
O291 Co272 2.021 . S
H292 C283 0.930 . S
H293 C282 0.931 . S
O294 Co270 2.117 . S
O294 C271 1.258 . S
O295 Co270 2.020 . S
O295 C297 1.256 . S
O296 Co272 2.062 . S
O296 C297 1.255 . S
C297 O295 1.256 . S
C297 O296 1.255 . S
H298 C277 0.931 . S
H299 C285 0.931 . S
Co300 N305 2.057 . S
Co300 O317 2.021 . S
Co300 O320 2.062 . S
Co300 O324 2.117 . S
Co300 O325 2.020 1_455 S
C301 O321 1.259 . S
C301 O324 1.258 . S
Co302 N311 2.057 . S
Co302 O318 2.117 . S
Co302 O319 2.020 . S
Co302 O321 2.021 . S
Co302 O326 2.062 1_455 S
C303 N305 1.316 . S
C303 N306 1.347 . S
C303 H308 0.931 . S
C304 N305 1.375 . S
C304 C307 1.350 . S
C304 H309 0.930 . S
N305 Co300 2.057 . S
N305 C303 1.316 . S
N305 C304 1.375 . S
N306 C303 1.347 . S
N306 C307 1.373 . S
C307 C304 1.350 . S
C307 N306 1.373 . S
C307 H328 0.931 . S
H308 C303 0.931 . S
H309 C304 0.930 . S
C310 O317 1.259 . S
C310 O318 1.258 . S
N311 Co302 2.057 . S
N311 C312 1.316 1_455 S
N311 C313 1.375 . S
C312 N311 1.316 1_655 S
C312 N314 1.347 . S
C312 H323 0.931 . S
C313 N311 1.375 . S
C313 C315 1.350 . S
C313 H322 0.930 . S
N314 C312 1.347 . S
N314 C315 1.373 1_655 S
C315 C313 1.350 . S
C315 N314 1.373 1_455 S
C315 H329 0.931 1_455 S
C316 O319 1.256 . S
C316 O320 1.255 . S
O317 Co300 2.021 . S
O317 C310 1.259 . S
O318 Co302 2.117 . S
O318 C310 1.258 . S
O319 Co302 2.020 . S
O319 C316 1.256 . S
O320 Co300 2.062 . S
O320 C316 1.255 . S
O321 C301 1.259 . S
O321 Co302 2.021 . S
H322 C313 0.930 . S
H323 C312 0.931 . S
O324 Co300 2.117 . S
O324 C301 1.258 . S
O325 Co300 2.020 1_655 S
O325 C327 1.256 . S
O326 Co302 2.062 1_655 S
O326 C327 1.255 . S
C327 O325 1.256 . S
C327 O326 1.255 . S
H328 C307 0.931 . S
H329 C315 0.931 1_655 S
Co330 N335 2.057 . S
Co330 O347 2.021 . S
Co330 O350 2.062 . S
Co330 O354 2.117 . S
Co330 O355 2.020 . S
C331 O351 1.259 . S
C331 O354 1.258 1_565 S
Co332 N341 2.057 . S
Co332 O348 2.117 . S
Co332 O349 2.020 . S
Co332 O351 2.021 . S
Co332 O356 2.062 . S
C333 N335 1.316 . S
C333 N336 1.347 . S
C333 H338 0.931 . S
C334 N335 1.375 . S
C334 C337 1.350 . S
C334 H339 0.930 . S
N335 Co330 2.057 . S
N335 C333 1.316 . S
N335 C334 1.375 . S
N336 C333 1.347 . S
N336 C337 1.373 . S
C337 C334 1.350 . S
C337 N336 1.373 . S
C337 H358 0.931 . S
H338 C333 0.931 . S
H339 C334 0.930 . S
C340 O347 1.259 . S
C340 O348 1.258 1_545 S
N341 Co332 2.057 . S
N341 C342 1.316 . S
N341 C343 1.375 . S
C342 N341 1.316 . S
C342 N344 1.347 . S
C342 H353 0.931 . S
C343 N341 1.375 . S
C343 C345 1.350 . S
C343 H352 0.930 . S
N344 C342 1.347 . S
N344 C345 1.373 . S
C345 C343 1.350 . S
C345 N344 1.373 . S
C345 H359 0.931 . S
C346 O349 1.293 . S
C346 O350 1.217 1_565 S
O347 Co330 2.021 . S
O347 C340 1.259 . S
O348 Co332 2.117 . S
O348 C340 1.258 1_565 S
O349 Co332 2.020 . S
O349 C346 1.293 . S
O350 Co330 2.062 . S
O350 C346 1.217 1_545 S
O351 C331 1.259 . S
O351 Co332 2.021 . S
H352 C343 0.930 . S
H353 C342 0.931 . S
O354 Co330 2.117 . S
O354 C331 1.258 1_545 S
O355 Co330 2.020 . S
O355 C357 1.279 . S
O356 Co332 2.062 . S
O356 C357 1.232 1_565 S
C357 O355 1.279 . S
C357 O356 1.232 1_545 S
H358 C337 0.931 . S
H359 C345 0.931 . S
Co360 N365 2.057 . S
Co360 O377 2.021 . S
Co360 O380 2.062 1_655 S
Co360 O384 2.117 . S
Co360 O385 2.020 . S
C361 O381 1.259 . S
C361 O384 1.258 1_565 S
Co362 N371 2.057 . S
Co362 O378 2.117 . S
Co362 O379 2.020 1_655 S
Co362 O381 2.021 . S
Co362 O386 2.062 . S
C363 N365 1.316 1_455 S
C363 N366 1.347 . S
C363 H368 0.931 . S
C364 N365 1.375 . S
C364 C367 1.351 . S
C364 H369 0.930 . S
N365 Co360 2.057 . S
N365 C363 1.316 1_655 S
N365 C364 1.375 . S
N366 C363 1.347 . S
N366 C367 1.373 1_455 S
C367 C364 1.351 . S
C367 N366 1.373 1_655 S
C367 H388 0.931 1_655 S
H368 C363 0.931 . S
H369 C364 0.930 . S
C370 O377 1.259 . S
C370 O378 1.258 1_545 S
N371 Co362 2.057 . S
N371 C372 1.316 . S
N371 C373 1.375 . S
C372 N371 1.316 . S
C372 N374 1.347 . S
C372 H383 0.931 . S
C373 N371 1.375 . S
C373 C375 1.350 . S
C373 H382 0.930 . S
N374 C372 1.347 . S
N374 C375 1.373 . S
C375 C373 1.350 . S
C375 N374 1.373 . S
C375 H389 0.931 . S
C376 O379 1.279 . S
C376 O380 1.232 1_565 S
O377 Co360 2.021 . S
O377 C370 1.259 . S
O378 Co362 2.117 . S
O378 C370 1.258 1_565 S
O379 Co362 2.020 1_455 S
O379 C376 1.279 . S
O380 Co360 2.062 1_455 S
O380 C376 1.232 1_545 S
O381 C361 1.259 . S
O381 Co362 2.021 . S
H382 C373 0.930 . S
H383 C372 0.931 . S
O384 Co360 2.117 . S
O384 C361 1.258 1_545 S
O385 Co360 2.020 . S
O385 C387 1.293 . S
O386 Co362 2.062 . S
O386 C387 1.217 1_565 S
C387 O385 1.293 . S
C387 O386 1.217 1_545 S
H388 C367 0.931 1_455 S
H389 C375 0.931 . S
Co390 N395 2.057 . S
Co390 O407 2.021 . S
Co390 O410 2.062 . S
Co390 O414 2.117 . S
Co390 O415 2.020 . S
C391 O411 1.259 . S
C391 O414 1.258 . S
Co392 N401 2.057 . S
Co392 O408 2.117 . S
Co392 O409 2.020 . S
Co392 O411 2.021 . S
Co392 O416 2.062 . S
C393 N395 1.316 . S
C393 N396 1.347 . S
C393 H398 0.931 . S
C394 N395 1.375 . S
C394 C397 1.350 . S
C394 H399 0.930 . S
N395 Co390 2.057 . S
N395 C393 1.316 . S
N395 C394 1.375 . S
N396 C393 1.347 . S
N396 C397 1.373 . S
C397 C394 1.350 . S
C397 N396 1.373 . S
C397 H418 0.931 . S
H398 C393 0.931 . S
H399 C394 0.930 . S
C400 O407 1.259 . S
C400 O408 1.258 . S
N401 Co392 2.057 . S
N401 C402 1.316 . S
N401 C403 1.375 . S
C402 N401 1.316 . S
C402 N404 1.347 . S
C402 H413 0.931 . S
C403 N401 1.375 . S
C403 C405 1.350 . S
C403 H412 0.930 . S
N404 C402 1.347 . S
N404 C405 1.373 . S
C405 C403 1.350 . S
C405 N404 1.373 . S
C405 H419 0.931 . S
C406 O409 1.256 . S
C406 O410 1.255 . S
O407 Co390 2.021 . S
O407 C400 1.259 . S
O408 Co392 2.117 . S
O408 C400 1.258 . S
O409 Co392 2.020 . S
O409 C406 1.256 . S
O410 Co390 2.062 . S
O410 C406 1.255 . S
O411 C391 1.259 . S
O411 Co392 2.021 . S
H412 C403 0.930 . S
H413 C402 0.931 . S
O414 Co390 2.117 . S
O414 C391 1.258 . S
O415 Co390 2.020 . S
O415 C417 1.256 . S
O416 Co392 2.062 . S
O416 C417 1.255 . S
C417 O415 1.256 . S
C417 O416 1.255 . S
H418 C397 0.931 . S
H419 C405 0.931 . S
Co420 N425 2.057 . S
Co420 O437 2.021 . S
Co420 O440 2.062 1_655 S
Co420 O444 2.117 . S
Co420 O445 2.020 . S
C421 O441 1.259 . S
C421 O444 1.258 . S
Co422 N431 2.057 . S
Co422 O438 2.117 . S
Co422 O439 2.020 1_655 S
Co422 O441 2.021 . S
Co422 O446 2.062 . S
C423 N425 1.316 1_455 S
C423 N426 1.347 . S
C423 H428 0.931 . S
C424 N425 1.375 . S
C424 C427 1.350 . S
C424 H429 0.930 . S
N425 Co420 2.057 . S
N425 C423 1.316 1_655 S
N425 C424 1.375 . S
N426 C423 1.347 . S
N426 C427 1.373 1_455 S
C427 C424 1.350 . S
C427 N426 1.373 1_655 S
C427 H448 0.931 1_655 S
H428 C423 0.931 . S
H429 C424 0.930 . S
C430 O437 1.259 . S
C430 O438 1.258 . S
N431 Co422 2.057 . S
N431 C432 1.316 . S
N431 C433 1.375 . S
C432 N431 1.316 . S
C432 N434 1.347 . S
C432 H443 0.931 . S
C433 N431 1.375 . S
C433 C435 1.350 . S
C433 H442 0.930 . S
N434 C432 1.347 . S
N434 C435 1.373 . S
C435 C433 1.350 . S
C435 N434 1.373 . S
C435 H449 0.931 . S
C436 O439 1.256 . S
C436 O440 1.255 . S
O437 Co420 2.021 . S
O437 C430 1.259 . S
O438 Co422 2.117 . S
O438 C430 1.258 . S
O439 Co422 2.020 1_455 S
O439 C436 1.256 . S
O440 Co420 2.062 1_455 S
O440 C436 1.255 . S
O441 C421 1.259 . S
O441 Co422 2.021 . S
H442 C433 0.930 . S
H443 C432 0.931 . S
O444 Co420 2.117 . S
O444 C421 1.258 . S
O445 Co420 2.020 . S
O445 C447 1.256 . S
O446 Co422 2.062 . S
O446 C447 1.255 . S
C447 O445 1.256 . S
C447 O446 1.255 . S
H448 C427 0.931 1_455 S
H449 C435 0.931 . S
Co450 N455 2.057 . S
Co450 O467 2.021 . S
Co450 O470 2.062 . S
Co450 O474 2.117 . S
Co450 O475 2.020 . S
C451 O471 1.259 . S
C451 O474 1.258 1_565 S
Co452 N461 2.057 . S
Co452 O468 2.117 . S
Co452 O469 2.020 . S
Co452 O471 2.021 . S
Co452 O476 2.062 . S
C453 N455 1.316 . S
C453 N456 1.347 . S
C453 H458 0.931 . S
C454 N455 1.375 . S
C454 C457 1.350 . S
C454 H459 0.930 . S
N455 Co450 2.057 . S
N455 C453 1.316 . S
N455 C454 1.375 . S
N456 C453 1.347 . S
N456 C457 1.373 . S
C457 C454 1.350 . S
C457 N456 1.373 . S
C457 H478 0.931 . S
H458 C453 0.931 . S
H459 C454 0.930 . S
C460 O467 1.259 . S
C460 O468 1.258 1_545 S
N461 Co452 2.057 . S
N461 C462 1.316 . S
N461 C463 1.375 . S
C462 N461 1.316 . S
C462 N464 1.347 . S
C462 H473 0.931 . S
C463 N461 1.375 . S
C463 C465 1.350 . S
C463 H472 0.930 . S
N464 C462 1.347 . S
N464 C465 1.373 . S
C465 C463 1.350 . S
C465 N464 1.373 . S
C465 H479 0.931 . S
C466 O469 1.279 . S
C466 O470 1.232 1_565 S
O467 Co450 2.021 . S
O467 C460 1.259 . S
O468 Co452 2.117 . S
O468 C460 1.258 1_565 S
O469 Co452 2.020 . S
O469 C466 1.279 . S
O470 Co450 2.062 . S
O470 C466 1.232 1_545 S
O471 C451 1.259 . S
O471 Co452 2.021 . S
H472 C463 0.930 . S
H473 C462 0.931 . S
O474 Co450 2.117 . S
O474 C451 1.258 1_545 S
O475 Co450 2.020 . S
O475 C477 1.293 . S
O476 Co452 2.062 . S
O476 C477 1.217 1_565 S
C477 O475 1.293 . S
C477 O476 1.217 1_545 S
H478 C457 0.931 . S
H479 C465 0.931 . S
Co480 N485 2.057 . S
Co480 O497 2.021 . S
Co480 O500 2.062 . S
Co480 O504 2.117 . S
Co480 O505 2.020 . S
C481 O501 1.259 . S
C481 O504 1.258 . S
Co482 N491 2.057 . S
Co482 O498 2.117 . S
Co482 O499 2.020 . S
Co482 O501 2.021 . S
Co482 O506 2.062 . S
C483 N485 1.316 . S
C483 N486 1.347 . S
C483 H488 0.931 . S
C484 N485 1.375 . S
C484 C487 1.350 . S
C484 H489 0.930 . S
N485 Co480 2.057 . S
N485 C483 1.316 . S
N485 C484 1.375 . S
N486 C483 1.347 . S
N486 C487 1.373 . S
C487 C484 1.350 . S
C487 N486 1.373 . S
C487 H508 0.931 . S
H488 C483 0.931 . S
H489 C484 0.930 . S
C490 O497 1.259 . S
C490 O498 1.258 . S
N491 Co482 2.057 . S
N491 C492 1.316 . S
N491 C493 1.375 . S
C492 N491 1.316 . S
C492 N494 1.347 . S
C492 H503 0.931 . S
C493 N491 1.375 . S
C493 C495 1.350 . S
C493 H502 0.930 . S
N494 C492 1.347 . S
N494 C495 1.373 . S
C495 C493 1.350 . S
C495 N494 1.373 . S
C495 H509 0.931 . S
C496 O499 1.256 . S
C496 O500 1.255 . S
O497 Co480 2.021 . S
O497 C490 1.259 . S
O498 Co482 2.117 . S
O498 C490 1.258 . S
O499 Co482 2.020 . S
O499 C496 1.256 . S
O500 Co480 2.062 . S
O500 C496 1.255 . S
O501 C481 1.259 . S
O501 Co482 2.021 . S
H502 C493 0.930 . S
H503 C492 0.931 . S
O504 Co480 2.117 . S
O504 C481 1.258 . S
O505 Co480 2.020 . S
O505 C507 1.256 . S
O506 Co482 2.062 . S
O506 C507 1.255 . S
C507 O505 1.256 . S
C507 O506 1.255 . S
H508 C487 0.931 . S
H509 C495 0.931 . S
Co510 N515 2.057 . S
Co510 O527 2.021 . S
Co510 O530 2.062 . S
Co510 O534 2.117 . S
Co510 O535 2.020 . S
C511 O531 1.259 . S
C511 O534 1.258 . S
Co512 N521 2.057 . S
Co512 O528 2.117 . S
Co512 O529 2.020 . S
Co512 O531 2.021 . S
Co512 O536 2.062 . S
C513 N515 1.316 . S
C513 N516 1.347 . S
C513 H518 0.931 . S
C514 N515 1.375 . S
C514 C517 1.350 . S
C514 H519 0.930 . S
N515 Co510 2.057 . S
N515 C513 1.316 . S
N515 C514 1.375 . S
N516 C513 1.347 . S
N516 C517 1.373 . S
C517 C514 1.350 . S
C517 N516 1.373 . S
C517 H538 0.931 . S
H518 C513 0.931 . S
H519 C514 0.930 . S
C520 O527 1.259 . S
C520 O528 1.258 . S
N521 Co512 2.057 . S
N521 C522 1.316 . S
N521 C523 1.375 . S
C522 N521 1.316 . S
C522 N524 1.347 . S
C522 H533 0.931 . S
C523 N521 1.375 . S
C523 C525 1.350 . S
C523 H532 0.930 . S
N524 C522 1.347 . S
N524 C525 1.373 . S
C525 C523 1.350 . S
C525 N524 1.373 . S
C525 H539 0.931 . S
C526 O529 1.256 . S
C526 O530 1.255 . S
O527 Co510 2.021 . S
O527 C520 1.259 . S
O528 Co512 2.117 . S
O528 C520 1.258 . S
O529 Co512 2.020 . S
O529 C526 1.256 . S
O530 Co510 2.062 . S
O530 C526 1.255 . S
O531 C511 1.259 . S
O531 Co512 2.021 . S
H532 C523 0.930 . S
H533 C522 0.931 . S
O534 Co510 2.117 . S
O534 C511 1.258 . S
O535 Co510 2.020 . S
O535 C537 1.256 . S
O536 Co512 2.062 . S
O536 C537 1.255 . S
C537 O535 1.256 . S
C537 O536 1.255 . S
H538 C517 0.931 . S
H539 C525 0.931 . S
Co540 N545 2.057 . S
Co540 O557 2.021 . S
Co540 O560 2.062 . S
Co540 O564 2.117 . S
Co540 O565 2.020 . S
C541 O561 1.259 . S
C541 O564 1.258 . S
Co542 N551 2.057 . S
Co542 O558 2.117 . S
Co542 O559 2.020 . S
Co542 O561 2.021 . S
Co542 O566 2.062 . S
C543 N545 1.316 . S
C543 N546 1.347 . S
C543 H548 0.931 . S
C544 N545 1.375 . S
C544 C547 1.350 . S
C544 H549 0.930 . S
N545 Co540 2.057 . S
N545 C543 1.316 . S
N545 C544 1.375 . S
N546 C543 1.347 . S
N546 C547 1.373 . S
C547 C544 1.350 . S
C547 N546 1.373 . S
C547 H568 0.931 . S
H548 C543 0.931 . S
H549 C544 0.930 . S
C550 O557 1.259 . S
C550 O558 1.258 . S
N551 Co542 2.057 . S
N551 C552 1.316 . S
N551 C553 1.375 . S
C552 N551 1.316 . S
C552 N554 1.347 . S
C552 H563 0.931 . S
C553 N551 1.375 . S
C553 C555 1.350 . S
C553 H562 0.930 . S
N554 C552 1.347 . S
N554 C555 1.373 . S
C555 C553 1.350 . S
C555 N554 1.373 . S
C555 H569 0.931 . S
C556 O559 1.256 . S
C556 O560 1.255 . S
O557 Co540 2.021 . S
O557 C550 1.259 . S
O558 Co542 2.117 . S
O558 C550 1.258 . S
O559 Co542 2.020 . S
O559 C556 1.256 . S
O560 Co540 2.062 . S
O560 C556 1.255 . S
O561 C541 1.259 . S
O561 Co542 2.021 . S
H562 C553 0.930 . S
H563 C552 0.931 . S
O564 Co540 2.117 . S
O564 C541 1.258 . S
O565 Co540 2.020 . S
O565 C567 1.256 . S
O566 Co542 2.062 . S
O566 C567 1.255 . S
C567 O565 1.256 . S
C567 O566 1.255 . S
H568 C547 0.931 . S
H569 C555 0.931 . S
Co570 N575 2.057 . S
Co570 O587 2.021 . S
Co570 O590 2.062 . S
Co570 O594 2.117 . S
Co570 O595 2.020 . S
C571 O591 1.259 . S
C571 O594 1.258 . S
Co572 N581 2.057 . S
Co572 O588 2.117 . S
Co572 O589 2.020 . S
Co572 O591 2.021 . S
Co572 O596 2.062 . S
C573 N575 1.316 . S
C573 N576 1.347 . S
C573 H578 0.931 . S
C574 N575 1.375 . S
C574 C577 1.350 . S
C574 H579 0.930 . S
N575 Co570 2.057 . S
N575 C573 1.316 . S
N575 C574 1.375 . S
N576 C573 1.347 . S
N576 C577 1.373 . S
C577 C574 1.350 . S
C577 N576 1.373 . S
C577 H598 0.931 . S
H578 C573 0.931 . S
H579 C574 0.930 . S
C580 O587 1.259 . S
C580 O588 1.258 . S
N581 Co572 2.057 . S
N581 C582 1.316 . S
N581 C583 1.375 . S
C582 N581 1.316 . S
C582 N584 1.347 . S
C582 H593 0.931 . S
C583 N581 1.375 . S
C583 C585 1.350 . S
C583 H592 0.930 . S
N584 C582 1.347 . S
N584 C585 1.373 . S
C585 C583 1.350 . S
C585 N584 1.373 . S
C585 H599 0.931 . S
C586 O589 1.256 . S
C586 O590 1.255 . S
O587 Co570 2.021 . S
O587 C580 1.259 . S
O588 Co572 2.117 . S
O588 C580 1.258 . S
O589 Co572 2.020 . S
O589 C586 1.256 . S
O590 Co570 2.062 . S
O590 C586 1.255 . S
O591 C571 1.259 . S
O591 Co572 2.021 . S
H592 C583 0.930 . S
H593 C582 0.931 . S
O594 Co570 2.117 . S
O594 C571 1.258 . S
O595 Co570 2.020 . S
O595 C597 1.256 . S
O596 Co572 2.062 . S
O596 C597 1.255 . S
C597 O595 1.256 . S
C597 O596 1.255 . S
H598 C577 0.931 . S
H599 C585 0.931 . S
Co600 N605 2.057 . S
Co600 O617 2.021 . S
Co600 O620 2.062 . S
Co600 O624 2.117 . S
Co600 O625 2.020 . S
C601 O621 1.259 . S
C601 O624 1.258 . S
Co602 N611 2.057 . S
Co602 O618 2.117 . S
Co602 O619 2.020 . S
Co602 O621 2.021 . S
Co602 O626 2.062 . S
C603 N605 1.316 . S
C603 N606 1.347 . S
C603 H608 0.931 . S
C604 N605 1.375 . S
C604 C607 1.350 . S
C604 H609 0.930 . S
N605 Co600 2.057 . S
N605 C603 1.316 . S
N605 C604 1.375 . S
N606 C603 1.347 . S
N606 C607 1.373 . S
C607 C604 1.350 . S
C607 N606 1.373 . S
C607 H628 0.931 . S
H608 C603 0.931 . S
H609 C604 0.930 . S
C610 O617 1.259 . S
C610 O618 1.258 . S
N611 Co602 2.057 . S
N611 C612 1.316 . S
N611 C613 1.375 . S
C612 N611 1.316 . S
C612 N614 1.347 . S
C612 H623 0.931 . S
C613 N611 1.375 . S
C613 C615 1.350 . S
C613 H622 0.930 . S
N614 C612 1.347 . S
N614 C615 1.373 . S
C615 C613 1.350 . S
C615 N614 1.373 . S
C615 H629 0.931 . S
C616 O619 1.256 . S
C616 O620 1.255 . S
O617 Co600 2.021 . S
O617 C610 1.259 . S
O618 Co602 2.117 . S
O618 C610 1.258 . S
O619 Co602 2.020 . S
O619 C616 1.256 . S
O620 Co600 2.062 . S
O620 C616 1.255 . S
O621 C601 1.259 . S
O621 Co602 2.021 . S
H622 C613 0.930 . S
H623 C612 0.931 . S
O624 Co600 2.117 . S
O624 C601 1.258 . S
O625 Co600 2.020 . S
O625 C627 1.256 . S
O626 Co602 2.062 . S
O626 C627 1.255 . S
C627 O625 1.256 . S
C627 O626 1.255 . S
H628 C607 0.931 . S
H629 C615 0.931 . S
Co630 N635 2.057 . S
Co630 O647 2.021 . S
Co630 O650 2.062 . S
Co630 O654 2.117 . S
Co630 O655 2.020 . S
C631 O651 1.259 . S
C631 O654 1.258 . S
Co632 N641 2.057 . S
Co632 O648 2.117 . S
Co632 O649 2.020 . S
Co632 O651 2.021 . S
Co632 O656 2.062 . S
C633 N635 1.316 . S
C633 N636 1.347 . S
C633 H638 0.931 . S
C634 N635 1.375 . S
C634 C637 1.350 . S
C634 H639 0.930 . S
N635 Co630 2.057 . S
N635 C633 1.316 . S
N635 C634 1.375 . S
N636 C633 1.347 . S
N636 C637 1.373 . S
C637 C634 1.350 . S
C637 N636 1.373 . S
C637 H658 0.931 . S
H638 C633 0.931 . S
H639 C634 0.930 . S
C640 O647 1.259 . S
C640 O648 1.258 . S
N641 Co632 2.057 . S
N641 C642 1.316 . S
N641 C643 1.375 . S
C642 N641 1.316 . S
C642 N644 1.347 . S
C642 H653 0.931 . S
C643 N641 1.375 . S
C643 C645 1.350 . S
C643 H652 0.930 . S
N644 C642 1.347 . S
N644 C645 1.373 . S
C645 C643 1.350 . S
C645 N644 1.373 . S
C645 H659 0.931 . S
C646 O649 1.256 . S
C646 O650 1.255 . S
O647 Co630 2.021 . S
O647 C640 1.259 . S
O648 Co632 2.117 . S
O648 C640 1.258 . S
O649 Co632 2.020 . S
O649 C646 1.256 . S
O650 Co630 2.062 . S
O650 C646 1.255 . S
O651 C631 1.259 . S
O651 Co632 2.021 . S
H652 C643 0.930 . S
H653 C642 0.931 . S
O654 Co630 2.117 . S
O654 C631 1.258 . S
O655 Co630 2.020 . S
O655 C657 1.256 . S
O656 Co632 2.062 . S
O656 C657 1.255 . S
C657 O655 1.256 . S
C657 O656 1.255 . S
H658 C637 0.931 . S
H659 C645 0.931 . S
Co660 N665 2.057 . S
Co660 O677 2.021 . S
Co660 O680 2.062 . S
Co660 O684 2.117 . S
Co660 O685 2.020 . S
C661 O681 1.259 . S
C661 O684 1.258 . S
Co662 N671 2.057 . S
Co662 O678 2.117 . S
Co662 O679 2.020 . S
Co662 O681 2.021 . S
Co662 O686 2.062 . S
C663 N665 1.316 . S
C663 N666 1.347 . S
C663 H668 0.931 . S
C664 N665 1.375 . S
C664 C667 1.350 . S
C664 H669 0.930 . S
N665 Co660 2.057 . S
N665 C663 1.316 . S
N665 C664 1.375 . S
N666 C663 1.347 . S
N666 C667 1.373 . S
C667 C664 1.350 . S
C667 N666 1.373 . S
C667 H688 0.931 . S
H668 C663 0.931 . S
H669 C664 0.930 . S
C670 O677 1.259 . S
C670 O678 1.258 . S
N671 Co662 2.057 . S
N671 C672 1.316 . S
N671 C673 1.375 . S
C672 N671 1.316 . S
C672 N674 1.347 . S
C672 H683 0.931 . S
C673 N671 1.375 . S
C673 C675 1.350 . S
C673 H682 0.930 . S
N674 C672 1.347 . S
N674 C675 1.373 . S
C675 C673 1.350 . S
C675 N674 1.373 . S
C675 H689 0.931 . S
C676 O679 1.256 . S
C676 O680 1.255 . S
O677 Co660 2.021 . S
O677 C670 1.259 . S
O678 Co662 2.117 . S
O678 C670 1.258 . S
O679 Co662 2.020 . S
O679 C676 1.256 . S
O680 Co660 2.062 . S
O680 C676 1.255 . S
O681 C661 1.259 . S
O681 Co662 2.021 . S
H682 C673 0.930 . S
H683 C672 0.931 . S
O684 Co660 2.117 . S
O684 C661 1.258 . S
O685 Co660 2.020 . S
O685 C687 1.256 . S
O686 Co662 2.062 . S
O686 C687 1.255 . S
C687 O685 1.256 . S
C687 O686 1.255 . S
H688 C667 0.931 . S
H689 C675 0.931 . S
Co690 N695 2.057 . S
Co690 O707 2.021 . S
Co690 O710 2.062 . S
Co690 O714 2.117 . S
Co690 O715 2.020 . S
C691 O711 1.259 . S
C691 O714 1.258 . S
Co692 N701 2.057 . S
Co692 O708 2.117 . S
Co692 O709 2.020 . S
Co692 O711 2.021 . S
Co692 O716 2.062 . S
C693 N695 1.316 . S
C693 N696 1.347 . S
C693 H698 0.931 . S
C694 N695 1.375 . S
C694 C697 1.350 . S
C694 H699 0.930 . S
N695 Co690 2.057 . S
N695 C693 1.316 . S
N695 C694 1.375 . S
N696 C693 1.347 . S
N696 C697 1.373 . S
C697 C694 1.350 . S
C697 N696 1.373 . S
C697 H718 0.931 . S
H698 C693 0.931 . S
H699 C694 0.930 . S
C700 O707 1.259 . S
C700 O708 1.258 . S
N701 Co692 2.057 . S
N701 C702 1.316 . S
N701 C703 1.375 . S
C702 N701 1.316 . S
C702 N704 1.347 . S
C702 H713 0.931 . S
C703 N701 1.375 . S
C703 C705 1.350 . S
C703 H712 0.930 . S
N704 C702 1.347 . S
N704 C705 1.373 . S
C705 C703 1.350 . S
C705 N704 1.373 . S
C705 H719 0.931 . S
C706 O709 1.256 . S
C706 O710 1.255 . S
O707 Co690 2.021 . S
O707 C700 1.259 . S
O708 Co692 2.117 . S
O708 C700 1.258 . S
O709 Co692 2.020 . S
O709 C706 1.256 . S
O710 Co690 2.062 . S
O710 C706 1.255 . S
O711 C691 1.259 . S
O711 Co692 2.021 . S
H712 C703 0.930 . S
H713 C702 0.931 . S
O714 Co690 2.117 . S
O714 C691 1.258 . S
O715 Co690 2.020 . S
O715 C717 1.256 . S
O716 Co692 2.062 . S
O716 C717 1.255 . S
C717 O715 1.256 . S
C717 O716 1.255 . S
H718 C697 0.931 . S
H719 C705 0.931 . S
Co720 N725 2.057 . S
Co720 O737 2.021 . S
Co720 O740 2.062 . S
Co720 O744 2.117 . S
Co720 O745 2.020 . S
C721 O741 1.259 . S
C721 O744 1.258 1_565 S
Co722 N731 2.057 . S
Co722 O738 2.117 . S
Co722 O739 2.020 . S
Co722 O741 2.021 . S
Co722 O746 2.062 . S
C723 N725 1.316 . S
C723 N726 1.347 . S
C723 H728 0.931 . S
C724 N725 1.375 . S
C724 C727 1.350 . S
C724 H729 0.930 . S
N725 Co720 2.057 . S
N725 C723 1.316 . S
N725 C724 1.375 . S
N726 C723 1.347 . S
N726 C727 1.373 . S
C727 C724 1.350 . S
C727 N726 1.373 . S
C727 H748 0.931 . S
H728 C723 0.931 . S
H729 C724 0.930 . S
C730 O737 1.259 . S
C730 O738 1.258 1_545 S
N731 Co722 2.057 . S
N731 C732 1.316 . S
N731 C733 1.375 . S
C732 N731 1.316 . S
C732 N734 1.347 . S
C732 H743 0.931 . S
C733 N731 1.375 . S
C733 C735 1.350 . S
C733 H742 0.930 . S
N734 C732 1.347 . S
N734 C735 1.373 . S
C735 C733 1.350 . S
C735 N734 1.373 . S
C735 H749 0.931 . S
C736 O739 1.293 . S
C736 O740 1.217 1_565 S
O737 Co720 2.021 . S
O737 C730 1.259 . S
O738 Co722 2.117 . S
O738 C730 1.258 1_565 S
O739 Co722 2.020 . S
O739 C736 1.293 . S
O740 Co720 2.062 . S
O740 C736 1.217 1_545 S
O741 C721 1.259 . S
O741 Co722 2.021 . S
H742 C733 0.930 . S
H743 C732 0.931 . S
O744 Co720 2.117 . S
O744 C721 1.258 1_545 S
O745 Co720 2.020 . S
O745 C747 1.279 . S
O746 Co722 2.062 . S
O746 C747 1.232 1_565 S
C747 O745 1.279 . S
C747 O746 1.232 1_545 S
H748 C727 0.931 . S
H749 C735 0.931 . S
Co750 N755 2.057 . S
Co750 O767 2.021 . S
Co750 O770 2.062 . S
Co750 O774 2.117 . S
Co750 O775 2.020 . S
C751 O771 1.259 . S
C751 O774 1.258 . S
Co752 N761 2.057 . S
Co752 O768 2.117 . S
Co752 O769 2.020 . S
Co752 O771 2.021 . S
Co752 O776 2.062 . S
C753 N755 1.316 . S
C753 N756 1.347 . S
C753 H758 0.931 . S
C754 N755 1.375 . S
C754 C757 1.350 . S
C754 H759 0.930 . S
N755 Co750 2.057 . S
N755 C753 1.316 . S
N755 C754 1.375 . S
N756 C753 1.347 . S
N756 C757 1.373 . S
C757 C754 1.350 . S
C757 N756 1.373 . S
C757 H778 0.931 . S
H758 C753 0.931 . S
H759 C754 0.930 . S
C760 O767 1.259 . S
C760 O768 1.258 . S
N761 Co752 2.057 . S
N761 C762 1.316 . S
N761 C763 1.375 . S
C762 N761 1.316 . S
C762 N764 1.347 . S
C762 H773 0.931 . S
C763 N761 1.375 . S
C763 C765 1.350 . S
C763 H772 0.930 . S
N764 C762 1.347 . S
N764 C765 1.373 . S
C765 C763 1.350 . S
C765 N764 1.373 . S
C765 H779 0.931 . S
C766 O769 1.256 . S
C766 O770 1.255 . S
O767 Co750 2.021 . S
O767 C760 1.259 . S
O768 Co752 2.117 . S
O768 C760 1.258 . S
O769 Co752 2.020 . S
O769 C766 1.256 . S
O770 Co750 2.062 . S
O770 C766 1.255 . S
O771 C751 1.259 . S
O771 Co752 2.021 . S
H772 C763 0.930 . S
H773 C762 0.931 . S
O774 Co750 2.117 . S
O774 C751 1.258 . S
O775 Co750 2.020 . S
O775 C777 1.256 . S
O776 Co752 2.062 . S
O776 C777 1.255 . S
C777 O775 1.256 . S
C777 O776 1.255 . S
H778 C757 0.931 . S
H779 C765 0.931 . S
Co780 N785 2.057 . S
Co780 O797 2.021 . S
Co780 O800 2.062 . S
Co780 O804 2.117 . S
Co780 O805 2.020 . S
C781 O801 1.259 . S
C781 O804 1.258 . S
Co782 N791 2.057 . S
Co782 O798 2.117 . S
Co782 O799 2.020 . S
Co782 O801 2.021 . S
Co782 O806 2.062 . S
C783 N785 1.316 . S
C783 N786 1.347 . S
C783 H788 0.931 . S
C784 N785 1.375 . S
C784 C787 1.350 . S
C784 H789 0.930 . S
N785 Co780 2.057 . S
N785 C783 1.316 . S
N785 C784 1.375 . S
N786 C783 1.347 . S
N786 C787 1.373 . S
C787 C784 1.350 . S
C787 N786 1.373 . S
C787 H808 0.931 . S
H788 C783 0.931 . S
H789 C784 0.930 . S
C790 O797 1.259 . S
C790 O798 1.258 . S
N791 Co782 2.057 . S
N791 C792 1.316 . S
N791 C793 1.375 . S
C792 N791 1.316 . S
C792 N794 1.347 . S
C792 H803 0.931 . S
C793 N791 1.375 . S
C793 C795 1.350 . S
C793 H802 0.930 . S
N794 C792 1.347 . S
N794 C795 1.373 . S
C795 C793 1.350 . S
C795 N794 1.373 . S
C795 H809 0.931 . S
C796 O799 1.256 . S
C796 O800 1.255 . S
O797 Co780 2.021 . S
O797 C790 1.259 . S
O798 Co782 2.117 . S
O798 C790 1.258 . S
O799 Co782 2.020 . S
O799 C796 1.256 . S
O800 Co780 2.062 . S
O800 C796 1.255 . S
O801 C781 1.259 . S
O801 Co782 2.021 . S
H802 C793 0.930 . S
H803 C792 0.931 . S
O804 Co780 2.117 . S
O804 C781 1.258 . S
O805 Co780 2.020 . S
O805 C807 1.256 . S
O806 Co782 2.062 . S
O806 C807 1.255 . S
C807 O805 1.256 . S
C807 O806 1.255 . S
H808 C787 0.931 . S
H809 C795 0.931 . S
Co810 N815 2.057 . S
Co810 O827 2.021 . S
Co810 O830 2.062 . S
Co810 O834 2.117 . S
Co810 O835 2.020 . S
C811 O831 1.259 . S
C811 O834 1.258 1_565 S
Co812 N821 2.057 . S
Co812 O828 2.117 . S
Co812 O829 2.020 . S
Co812 O831 2.021 . S
Co812 O836 2.062 . S
C813 N815 1.316 . S
C813 N816 1.347 . S
C813 H818 0.931 . S
C814 N815 1.375 . S
C814 C817 1.350 . S
C814 H819 0.930 . S
N815 Co810 2.057 . S
N815 C813 1.316 . S
N815 C814 1.375 . S
N816 C813 1.347 . S
N816 C817 1.373 . S
C817 C814 1.350 . S
C817 N816 1.373 . S
C817 H838 0.931 . S
H818 C813 0.931 . S
H819 C814 0.930 . S
C820 O827 1.259 . S
C820 O828 1.258 1_545 S
N821 Co812 2.057 . S
N821 C822 1.316 . S
N821 C823 1.375 . S
C822 N821 1.316 . S
C822 N824 1.347 . S
C822 H833 0.931 . S
C823 N821 1.375 . S
C823 C825 1.350 . S
C823 H832 0.930 . S
N824 C822 1.347 . S
N824 C825 1.373 . S
C825 C823 1.350 . S
C825 N824 1.373 . S
C825 H839 0.931 . S
C826 O829 1.293 . S
C826 O830 1.217 1_565 S
O827 Co810 2.021 . S
O827 C820 1.259 . S
O828 Co812 2.117 . S
O828 C820 1.258 1_565 S
O829 Co812 2.020 . S
O829 C826 1.293 . S
O830 Co810 2.062 . S
O830 C826 1.217 1_545 S
O831 C811 1.259 . S
O831 Co812 2.021 . S
H832 C823 0.930 . S
H833 C822 0.931 . S
O834 Co810 2.117 . S
O834 C811 1.258 1_545 S
O835 Co810 2.020 . S
O835 C837 1.279 . S
O836 Co812 2.062 . S
O836 C837 1.232 1_565 S
C837 O835 1.279 . S
C837 O836 1.232 1_545 S
H838 C817 0.931 . S
H839 C825 0.931 . S
Co840 N845 2.057 . S
Co840 O857 2.021 . S
Co840 O860 2.062 . S
Co840 O864 2.117 . S
Co840 O865 2.020 . S
C841 O861 1.259 . S
C841 O864 1.258 1_565 S
Co842 N851 2.057 . S
Co842 O858 2.117 . S
Co842 O859 2.020 . S
Co842 O861 2.021 . S
Co842 O866 2.062 . S
C843 N845 1.316 . S
C843 N846 1.347 . S
C843 H848 0.931 . S
C844 N845 1.375 . S
C844 C847 1.350 . S
C844 H849 0.930 . S
N845 Co840 2.057 . S
N845 C843 1.316 . S
N845 C844 1.375 . S
N846 C843 1.347 . S
N846 C847 1.373 . S
C847 C844 1.350 . S
C847 N846 1.373 . S
C847 H868 0.931 . S
H848 C843 0.931 . S
H849 C844 0.930 . S
C850 O857 1.259 . S
C850 O858 1.258 1_545 S
N851 Co842 2.057 . S
N851 C852 1.316 . S
N851 C853 1.375 . S
C852 N851 1.316 . S
C852 N854 1.347 . S
C852 H863 0.931 . S
C853 N851 1.375 . S
C853 C855 1.350 . S
C853 H862 0.930 . S
N854 C852 1.347 . S
N854 C855 1.373 . S
C855 C853 1.350 . S
C855 N854 1.373 . S
C855 H869 0.931 . S
C856 O859 1.279 . S
C856 O860 1.232 1_565 S
O857 Co840 2.021 . S
O857 C850 1.259 . S
O858 Co842 2.117 . S
O858 C850 1.258 1_565 S
O859 Co842 2.020 . S
O859 C856 1.279 . S
O860 Co840 2.062 . S
O860 C856 1.232 1_545 S
O861 C841 1.259 . S
O861 Co842 2.021 . S
H862 C853 0.930 . S
H863 C852 0.931 . S
O864 Co840 2.117 . S
O864 C841 1.258 1_545 S
O865 Co840 2.020 . S
O865 C867 1.293 . S
O866 Co842 2.062 . S
O866 C867 1.217 1_565 S
C867 O865 1.293 . S
C867 O866 1.217 1_545 S
H868 C847 0.931 . S
H869 C855 0.931 . S
Co870 N875 2.057 . S
Co870 O887 2.021 . S
Co870 O890 2.062 . S
Co870 O894 2.117 . S
Co870 O895 2.020 . S
C871 O891 1.259 . S
C871 O894 1.258 . S
Co872 N881 2.057 . S
Co872 O888 2.117 . S
Co872 O889 2.020 . S
Co872 O891 2.021 . S
Co872 O896 2.062 . S
C873 N875 1.316 . S
C873 N876 1.347 . S
C873 H878 0.931 . S
C874 N875 1.375 . S
C874 C877 1.350 . S
C874 H879 0.930 . S
N875 Co870 2.057 . S
N875 C873 1.316 . S
N875 C874 1.375 . S
N876 C873 1.347 . S
N876 C877 1.373 . S
C877 C874 1.350 . S
C877 N876 1.373 . S
C877 H898 0.931 . S
H878 C873 0.931 . S
H879 C874 0.930 . S
C880 O887 1.259 . S
C880 O888 1.258 . S
N881 Co872 2.057 . S
N881 C882 1.316 . S
N881 C883 1.375 . S
C882 N881 1.316 . S
C882 N884 1.347 . S
C882 H893 0.931 . S
C883 N881 1.375 . S
C883 C885 1.350 . S
C883 H892 0.930 . S
N884 C882 1.347 . S
N884 C885 1.373 . S
C885 C883 1.350 . S
C885 N884 1.373 . S
C885 H899 0.931 . S
C886 O889 1.256 . S
C886 O890 1.255 . S
O887 Co870 2.021 . S
O887 C880 1.259 . S
O888 Co872 2.117 . S
O888 C880 1.258 . S
O889 Co872 2.020 . S
O889 C886 1.256 . S
O890 Co870 2.062 . S
O890 C886 1.255 . S
O891 C871 1.259 . S
O891 Co872 2.021 . S
H892 C883 0.930 . S
H893 C882 0.931 . S
O894 Co870 2.117 . S
O894 C871 1.258 . S
O895 Co870 2.020 . S
O895 C897 1.256 . S
O896 Co872 2.062 . S
O896 C897 1.255 . S
C897 O895 1.256 . S
C897 O896 1.255 . S
H898 C877 0.931 . S
H899 C885 0.931 . S
Co900 N905 2.057 . S
Co900 O917 2.021 . S
Co900 O920 2.062 . S
Co900 O924 2.117 . S
Co900 O925 2.020 . S
C901 O921 1.259 . S
C901 O924 1.258 . S
Co902 N911 2.057 . S
Co902 O918 2.117 . S
Co902 O919 2.020 . S
Co902 O921 2.021 . S
Co902 O926 2.062 . S
C903 N905 1.316 . S
C903 N906 1.347 . S
C903 H908 0.931 . S
C904 N905 1.375 . S
C904 C907 1.350 . S
C904 H909 0.930 . S
N905 Co900 2.057 . S
N905 C903 1.316 . S
N905 C904 1.375 . S
N906 C903 1.347 . S
N906 C907 1.373 . S
C907 C904 1.350 . S
C907 N906 1.373 . S
C907 H928 0.931 . S
H908 C903 0.931 . S
H909 C904 0.930 . S
C910 O917 1.259 . S
C910 O918 1.258 . S
N911 Co902 2.057 . S
N911 C912 1.316 . S
N911 C913 1.375 . S
C912 N911 1.316 . S
C912 N914 1.347 . S
C912 H923 0.931 . S
C913 N911 1.375 . S
C913 C915 1.350 . S
C913 H922 0.930 . S
N914 C912 1.347 . S
N914 C915 1.373 . S
C915 C913 1.350 . S
C915 N914 1.373 . S
C915 H929 0.931 . S
C916 O919 1.256 . S
C916 O920 1.255 . S
O917 Co900 2.021 . S
O917 C910 1.259 . S
O918 Co902 2.117 . S
O918 C910 1.258 . S
O919 Co902 2.020 . S
O919 C916 1.256 . S
O920 Co900 2.062 . S
O920 C916 1.255 . S
O921 C901 1.259 . S
O921 Co902 2.021 . S
H922 C913 0.930 . S
H923 C912 0.931 . S
O924 Co900 2.117 . S
O924 C901 1.258 . S
O925 Co900 2.020 . S
O925 C927 1.256 . S
O926 Co902 2.062 . S
O926 C927 1.255 . S
C927 O925 1.256 . S
C927 O926 1.255 . S
H928 C907 0.931 . S
H929 C915 0.931 . S
Co930 N935 2.057 . S
Co930 O947 2.021 . S
Co930 O950 2.062 . S
Co930 O954 2.117 . S
Co930 O955 2.020 . S
C931 O951 1.259 . S
C931 O954 1.258 1_565 S
Co932 N941 2.057 . S
Co932 O948 2.117 . S
Co932 O949 2.020 . S
Co932 O951 2.021 . S
Co932 O956 2.062 . S
C933 N935 1.316 . S
C933 N936 1.347 . S
C933 H938 0.931 . S
C934 N935 1.375 . S
C934 C937 1.350 . S
C934 H939 0.930 . S
N935 Co930 2.057 . S
N935 C933 1.316 . S
N935 C934 1.375 . S
N936 C933 1.347 . S
N936 C937 1.373 . S
C937 C934 1.350 . S
C937 N936 1.373 . S
C937 H958 0.931 . S
H938 C933 0.931 . S
H939 C934 0.930 . S
C940 O947 1.259 . S
C940 O948 1.258 1_545 S
N941 Co932 2.057 . S
N941 C942 1.316 . S
N941 C943 1.375 . S
C942 N941 1.316 . S
C942 N944 1.347 . S
C942 H953 0.931 . S
C943 N941 1.375 . S
C943 C945 1.350 . S
C943 H952 0.930 . S
N944 C942 1.347 . S
N944 C945 1.373 . S
C945 C943 1.350 . S
C945 N944 1.373 . S
C945 H959 0.931 . S
C946 O949 1.279 . S
C946 O950 1.232 1_565 S
O947 Co930 2.021 . S
O947 C940 1.259 . S
O948 Co932 2.117 . S
O948 C940 1.258 1_565 S
O949 Co932 2.020 . S
O949 C946 1.279 . S
O950 Co930 2.062 . S
O950 C946 1.232 1_545 S
O951 C931 1.259 . S
O951 Co932 2.021 . S
H952 C943 0.930 . S
H953 C942 0.931 . S
O954 Co930 2.117 . S
O954 C931 1.258 1_545 S
O955 Co930 2.020 . S
O955 C957 1.293 . S
O956 Co932 2.062 . S
O956 C957 1.217 1_565 S
C957 O955 1.293 . S
C957 O956 1.217 1_545 S
H958 C937 0.931 . S
H959 C945 0.931 . S
H960 C966 0.930 . S
H961 C970 0.930 . S
H962 C975 0.929 1_455 S
H963 C973 0.929 . S
H964 C968 0.929 . S
H965 C974 0.929 . S
C966 H960 0.930 . S
C966 C967 1.367 . S
C966 C974 1.378 . S
C967 C966 1.367 . S
C967 C975 1.433 . S
C968 H964 0.929 . S
C968 C970 1.378 . S
C968 C972 1.350 . S
C969 C972 1.463 . S
C969 C974 1.350 . S
C969 N977 1.427 . S
C970 H961 0.930 . S
C970 C968 1.378 . S
C970 C971 1.367 . S
C971 C970 1.367 . S
C971 C973 1.433 . S
C972 C968 1.350 . S
C972 C969 1.463 . S
C972 N976 1.427 . S
C973 H963 0.929 . S
C973 C971 1.433 . S
C973 N976 1.384 . S
C974 H965 0.929 . S
C974 C966 1.378 . S
C974 C969 1.350 . S
C975 H962 0.929 1_655 S
C975 C967 1.433 . S
C975 N977 1.384 . S
N976 C972 1.427 . S
N976 C973 1.384 . S
N977 C969 1.427 . S
N977 C975 1.384 . S
H978 C984 0.930 . S
H979 C988 0.930 . S
H980 C993 0.929 . S
H981 C991 0.929 . S
H982 C986 0.929 . S
H983 C992 0.929 . S
C984 H978 0.930 . S
C984 C985 1.367 . S
C984 C992 1.378 . S
C985 C984 1.367 . S
C985 C993 1.433 . S
C986 H982 0.929 . S
C986 C988 1.378 . S
C986 C990 1.350 . S
C987 C990 1.463 . S
C987 C992 1.350 . S
C987 N995 1.427 . S
C988 H979 0.930 . S
C988 C986 1.378 . S
C988 C989 1.367 . S
C989 C988 1.367 . S
C989 C991 1.433 . S
C990 C986 1.350 . S
C990 C987 1.463 . S
C990 N994 1.427 . S
C991 H981 0.929 . S
C991 C989 1.433 . S
C991 N994 1.384 . S
C992 H983 0.929 . S
C992 C984 1.378 . S
C992 C987 1.350 . S
C993 H980 0.929 . S
C993 C985 1.433 . S
C993 N995 1.384 . S
N994 C990 1.427 . S
N994 C991 1.384 . S
N995 C987 1.427 . S
N995 C993 1.384 . S
H996 C1002 0.930 . S
H997 C1006 0.930 . S
H998 C1011 0.929 . S
H999 C1009 0.929 1_455 S
H1000 C1004 0.929 . S
H1001 C1010 0.929 . S
C1002 H996 0.930 . S
C1002 C1003 1.367 . S
C1002 C1010 1.378 . S
C1003 C1002 1.367 . S
C1003 C1011 1.433 . S
C1004 H1000 0.929 . S
C1004 C1006 1.378 . S
C1004 C1008 1.350 . S
C1005 C1008 1.463 . S
C1005 C1010 1.350 . S
C1005 N1013 1.427 . S
C1006 H997 0.930 . S
C1006 C1004 1.378 . S
C1006 C1007 1.367 . S
C1007 C1006 1.367 . S
C1007 C1009 1.433 . S
C1008 C1004 1.350 . S
C1008 C1005 1.463 . S
C1008 N1012 1.427 . S
C1009 H999 0.929 1_655 S
C1009 C1007 1.433 . S
C1009 N1012 1.384 . S
C1010 H1001 0.929 . S
C1010 C1002 1.378 . S
C1010 C1005 1.350 . S
C1011 H998 0.929 . S
C1011 C1003 1.433 . S
C1011 N1013 1.384 . S
N1012 C1008 1.427 . S
N1012 C1009 1.384 . S
N1013 C1005 1.427 . S
N1013 C1011 1.384 . S
H1014 C1020 0.930 . S
H1015 C1024 0.930 . S
H1016 C1029 0.929 . S
H1017 C1027 0.929 . S
H1018 C1022 0.929 . S
H1019 C1028 0.929 . S
C1020 H1014 0.930 . S
C1020 C1021 1.367 . S
C1020 C1028 1.378 . S
C1021 C1020 1.367 . S
C1021 C1029 1.433 . S
C1022 H1018 0.929 . S
C1022 C1024 1.378 . S
C1022 C1026 1.350 . S
C1023 C1026 1.463 . S
C1023 C1028 1.350 . S
C1023 N1031 1.427 . S
C1024 H1015 0.930 . S
C1024 C1022 1.378 . S
C1024 C1025 1.367 . S
C1025 C1024 1.367 . S
C1025 C1027 1.433 . S
C1026 C1022 1.350 . S
C1026 C1023 1.463 . S
C1026 N1030 1.427 . S
C1027 H1017 0.929 . S
C1027 C1025 1.433 . S
C1027 N1030 1.384 . S
C1028 H1019 0.929 . S
C1028 C1020 1.378 . S
C1028 C1023 1.350 . S
C1029 H1016 0.929 . S
C1029 C1021 1.433 . S
C1029 N1031 1.384 . S
N1030 C1026 1.427 . S
N1030 C1027 1.384 . S
N1031 C1023 1.427 . S
N1031 C1029 1.384 . S
H1032 C1038 0.930 . S
H1033 C1042 0.930 . S
H1034 C1047 0.929 . S
H1035 C1045 0.929 . S
H1036 C1040 0.929 . S
H1037 C1046 0.929 . S
C1038 H1032 0.930 . S
C1038 C1039 1.367 . S
C1038 C1046 1.378 . S
C1039 C1038 1.367 . S
C1039 C1047 1.433 . S
C1040 H1036 0.929 . S
C1040 C1042 1.378 . S
C1040 C1044 1.350 . S
C1041 C1044 1.463 . S
C1041 C1046 1.350 . S
C1041 N1049 1.427 . S
C1042 H1033 0.930 . S
C1042 C1040 1.378 . S
C1042 C1043 1.367 . S
C1043 C1042 1.367 . S
C1043 C1045 1.433 . S
C1044 C1040 1.350 . S
C1044 C1041 1.463 . S
C1044 N1048 1.427 . S
C1045 H1035 0.929 . S
C1045 C1043 1.433 . S
C1045 N1048 1.384 . S
C1046 H1037 0.929 . S
C1046 C1038 1.378 . S
C1046 C1041 1.350 . S
C1047 H1034 0.929 . S
C1047 C1039 1.433 . S
C1047 N1049 1.384 . S
N1048 C1044 1.427 . S
N1048 C1045 1.384 . S
N1049 C1041 1.427 . S
N1049 C1047 1.384 . S
H1050 C1056 0.930 . S
H1051 C1060 0.930 . S
H1052 C1065 0.929 . S
H1053 C1063 0.929 . S
H1054 C1058 0.929 . S
H1055 C1064 0.929 . S
C1056 H1050 0.930 . S
C1056 C1057 1.367 . S
C1056 C1064 1.378 . S
C1057 C1056 1.367 . S
C1057 C1065 1.433 . S
C1058 H1054 0.929 . S
C1058 C1060 1.378 . S
C1058 C1062 1.350 . S
C1059 C1062 1.463 . S
C1059 C1064 1.350 . S
C1059 N1067 1.427 . S
C1060 H1051 0.930 . S
C1060 C1058 1.378 . S
C1060 C1061 1.367 . S
C1061 C1060 1.367 . S
C1061 C1063 1.433 . S
C1062 C1058 1.350 . S
C1062 C1059 1.463 . S
C1062 N1066 1.427 . S
C1063 H1053 0.929 . S
C1063 C1061 1.433 . S
C1063 N1066 1.384 . S
C1064 H1055 0.929 . S
C1064 C1056 1.378 . S
C1064 C1059 1.350 . S
C1065 H1052 0.929 . S
C1065 C1057 1.433 . S
C1065 N1067 1.384 . S
N1066 C1062 1.427 . S
N1066 C1063 1.384 . S
N1067 C1059 1.427 . S
N1067 C1065 1.384 . S
H1068 C1074 0.930 . S
H1069 C1078 0.930 . S
H1070 C1083 0.929 . S
H1071 C1081 0.929 . S
H1072 C1076 0.929 . S
H1073 C1082 0.929 . S
C1074 H1068 0.930 . S
C1074 C1075 1.367 . S
C1074 C1082 1.378 . S
C1075 C1074 1.367 . S
C1075 C1083 1.433 1_455 S
C1076 H1072 0.929 . S
C1076 C1078 1.378 . S
C1076 C1080 1.350 . S
C1077 C1080 1.463 . S
C1077 C1082 1.350 . S
C1077 N1085 1.427 . S
C1078 H1069 0.930 . S
C1078 C1076 1.378 . S
C1078 C1079 1.367 . S
C1079 C1078 1.367 . S
C1079 C1081 1.433 . S
C1080 C1076 1.350 . S
C1080 C1077 1.463 . S
C1080 N1084 1.427 . S
C1081 H1071 0.929 . S
C1081 C1079 1.433 . S
C1081 N1084 1.384 . S
C1082 H1073 0.929 . S
C1082 C1074 1.378 . S
C1082 C1077 1.350 . S
C1083 H1070 0.929 . S
C1083 C1075 1.433 1_655 S
C1083 N1085 1.384 1_655 S
N1084 C1080 1.427 . S
N1084 C1081 1.384 . S
N1085 C1077 1.427 . S
N1085 C1083 1.384 1_455 S
H1086 C1092 0.930 . S
H1087 C1096 0.930 . S
H1088 C1101 0.929 . S
H1089 C1099 0.929 . S
H1090 C1094 0.929 . S
H1091 C1100 0.929 . S
C1092 H1086 0.930 . S
C1092 C1093 1.367 . S
C1092 C1100 1.378 . S
C1093 C1092 1.367 . S
C1093 C1101 1.433 . S
C1094 H1090 0.929 . S
C1094 C1096 1.378 . S
C1094 C1098 1.350 . S
C1095 C1098 1.463 . S
C1095 C1100 1.350 . S
C1095 N1103 1.427 . S
C1096 H1087 0.930 . S
C1096 C1094 1.378 . S
C1096 C1097 1.367 . S
C1097 C1096 1.367 . S
C1097 C1099 1.433 . S
C1098 C1094 1.350 . S
C1098 C1095 1.463 . S
C1098 N1102 1.427 . S
C1099 H1089 0.929 . S
C1099 C1097 1.433 . S
C1099 N1102 1.384 . S
C1100 H1091 0.929 . S
C1100 C1092 1.378 . S
C1100 C1095 1.350 . S
C1101 H1088 0.929 . S
C1101 C1093 1.433 . S
C1101 N1103 1.384 . S
N1102 C1098 1.427 . S
N1102 C1099 1.384 . S
N1103 C1095 1.427 . S
N1103 C1101 1.384 . S
H1104 C1110 0.930 1_455 S
H1105 C1114 0.930 . S
H1106 C1119 0.929 . S
H1107 C1117 0.929 . S
H1108 C1112 0.929 . S
H1109 C1118 0.929 . S
C1110 H1104 0.930 1_655 S
C1110 C1111 1.367 . S
C1110 C1118 1.378 . S
C1111 C1110 1.367 . S
C1111 C1119 1.433 . S
C1112 H1108 0.929 . S
C1112 C1114 1.378 . S
C1112 C1116 1.350 . S
C1113 C1116 1.463 . S
C1113 C1118 1.350 . S
C1113 N1121 1.427 . S
C1114 H1105 0.930 . S
C1114 C1112 1.378 . S
C1114 C1115 1.367 . S
C1115 C1114 1.367 . S
C1115 C1117 1.433 . S
C1116 C1112 1.350 . S
C1116 C1113 1.463 . S
C1116 N1120 1.427 . S
C1117 H1107 0.929 . S
C1117 C1115 1.433 . S
C1117 N1120 1.384 . S
C1118 H1109 0.929 . S
C1118 C1110 1.378 . S
C1118 C1113 1.350 . S
C1119 H1106 0.929 . S
C1119 C1111 1.433 . S
C1119 N1121 1.384 . S
N1120 C1116 1.427 . S
N1120 C1117 1.384 . S
N1121 C1113 1.427 . S
N1121 C1119 1.384 . S
H1122 C1128 0.930 . S
H1123 C1132 0.930 . S
H1124 C1137 0.929 . S
H1125 C1135 0.929 . S
H1126 C1130 0.929 . S
H1127 C1136 0.929 . S
C1128 H1122 0.930 . S
C1128 C1129 1.367 . S
C1128 C1136 1.378 . S
C1129 C1128 1.367 . S
C1129 C1137 1.433 . S
C1130 H1126 0.929 . S
C1130 C1132 1.378 . S
C1130 C1134 1.350 . S
C1131 C1134 1.463 . S
C1131 C1136 1.350 . S
C1131 N1139 1.427 . S
C1132 H1123 0.930 . S
C1132 C1130 1.378 . S
C1132 C1133 1.367 . S
C1133 C1132 1.367 . S
C1133 C1135 1.433 . S
C1134 C1130 1.350 . S
C1134 C1131 1.463 . S
C1134 N1138 1.427 . S
C1135 H1125 0.929 . S
C1135 C1133 1.433 . S
C1135 N1138 1.384 . S
C1136 H1127 0.929 . S
C1136 C1128 1.378 . S
C1136 C1131 1.350 . S
C1137 H1124 0.929 . S
C1137 C1129 1.433 . S
C1137 N1139 1.384 . S
N1138 C1134 1.427 . S
N1138 C1135 1.384 . S
N1139 C1131 1.427 . S
N1139 C1137 1.384 . S
H1140 C1146 0.930 . S
H1141 C1150 0.930 . S
H1142 C1155 0.929 . S
H1143 C1153 0.929 . S
H1144 C1148 0.929 . S
H1145 C1154 0.929 . S
C1146 H1140 0.930 . S
C1146 C1147 1.367 . S
C1146 C1154 1.378 . S
C1147 C1146 1.367 . S
C1147 C1155 1.433 . S
C1148 H1144 0.929 . S
C1148 C1150 1.378 . S
C1148 C1152 1.350 . S
C1149 C1152 1.463 . S
C1149 C1154 1.350 . S
C1149 N1157 1.427 . S
C1150 H1141 0.930 . S
C1150 C1148 1.378 . S
C1150 C1151 1.367 . S
C1151 C1150 1.367 . S
C1151 C1153 1.433 . S
C1152 C1148 1.350 . S
C1152 C1149 1.463 . S
C1152 N1156 1.427 . S
C1153 H1143 0.929 . S
C1153 C1151 1.433 . S
C1153 N1156 1.384 . S
C1154 H1145 0.929 . S
C1154 C1146 1.378 . S
C1154 C1149 1.350 . S
C1155 H1142 0.929 . S
C1155 C1147 1.433 . S
C1155 N1157 1.384 . S
N1156 C1152 1.427 . S
N1156 C1153 1.384 . S
N1157 C1149 1.427 . S
N1157 C1155 1.384 . S
H1158 C1164 0.930 . S
H1159 C1168 0.930 . S
H1160 C1173 0.929 . S
H1161 C1171 0.929 . S
H1162 C1166 0.929 . S
H1163 C1172 0.929 . S
C1164 H1158 0.930 . S
C1164 C1165 1.367 . S
C1164 C1172 1.378 . S
C1165 C1164 1.367 . S
C1165 C1173 1.433 . S
C1166 H1162 0.929 . S
C1166 C1168 1.378 . S
C1166 C1170 1.350 . S
C1167 C1170 1.463 . S
C1167 C1172 1.350 . S
C1167 N1175 1.427 . S
C1168 H1159 0.930 . S
C1168 C1166 1.378 . S
C1168 C1169 1.367 . S
C1169 C1168 1.367 . S
C1169 C1171 1.433 . S
C1170 C1166 1.350 . S
C1170 C1167 1.463 . S
C1170 N1174 1.427 . S
C1171 H1161 0.929 . S
C1171 C1169 1.433 . S
C1171 N1174 1.384 . S
C1172 H1163 0.929 . S
C1172 C1164 1.378 . S
C1172 C1167 1.350 . S
C1173 H1160 0.929 . S
C1173 C1165 1.433 . S
C1173 N1175 1.384 . S
N1174 C1170 1.427 . S
N1174 C1171 1.384 . S
N1175 C1167 1.427 . S
N1175 C1173 1.384 . S
H1176 C1182 0.930 . S
H1177 C1186 0.930 . S
H1178 C1191 0.929 . S
H1179 C1189 0.929 . S
H1180 C1184 0.929 . S
H1181 C1190 0.929 . S
C1182 H1176 0.930 . S
C1182 C1183 1.367 . S
C1182 C1190 1.378 . S
C1183 C1182 1.367 . S
C1183 C1191 1.433 . S
C1184 H1180 0.929 . S
C1184 C1186 1.378 . S
C1184 C1188 1.350 . S
C1185 C1188 1.463 . S
C1185 C1190 1.350 . S
C1185 N1193 1.427 . S
C1186 H1177 0.930 . S
C1186 C1184 1.378 . S
C1186 C1187 1.367 . S
C1187 C1186 1.367 . S
C1187 C1189 1.433 . S
C1188 C1184 1.350 . S
C1188 C1185 1.463 . S
C1188 N1192 1.427 . S
C1189 H1179 0.929 . S
C1189 C1187 1.433 . S
C1189 N1192 1.384 . S
C1190 H1181 0.929 . S
C1190 C1182 1.378 . S
C1190 C1185 1.350 . S
C1191 H1178 0.929 . S
C1191 C1183 1.433 . S
C1191 N1193 1.384 . S
N1192 C1188 1.427 . S
N1192 C1189 1.384 . S
N1193 C1185 1.427 . S
N1193 C1191 1.384 . S
H1194 C1200 0.930 . S
H1195 C1204 0.930 . S
H1196 C1209 0.929 . S
H1197 C1207 0.929 . S
H1198 C1202 0.929 . S
H1199 C1208 0.929 . S
C1200 H1194 0.930 . S
C1200 C1201 1.367 . S
C1200 C1208 1.378 . S
C1201 C1200 1.367 . S
C1201 C1209 1.433 . S
C1202 H1198 0.929 . S
C1202 C1204 1.378 . S
C1202 C1206 1.350 . S
C1203 C1206 1.463 . S
C1203 C1208 1.350 . S
C1203 N1211 1.427 . S
C1204 H1195 0.930 . S
C1204 C1202 1.378 . S
C1204 C1205 1.367 . S
C1205 C1204 1.367 . S
C1205 C1207 1.433 . S
C1206 C1202 1.350 . S
C1206 C1203 1.463 . S
C1206 N1210 1.427 . S
C1207 H1197 0.929 . S
C1207 C1205 1.433 . S
C1207 N1210 1.384 . S
C1208 H1199 0.929 . S
C1208 C1200 1.378 . S
C1208 C1203 1.350 . S
C1209 H1196 0.929 . S
C1209 C1201 1.433 . S
C1209 N1211 1.384 . S
N1210 C1206 1.427 . S
N1210 C1207 1.384 . S
N1211 C1203 1.427 . S
N1211 C1209 1.384 . S
H1212 C1218 0.930 . S
H1213 C1222 0.930 1_655 S
H1214 C1227 0.929 . S
H1215 C1225 0.929 . S
H1216 C1220 0.929 . S
H1217 C1226 0.929 . S
C1218 H1212 0.930 . S
C1218 C1219 1.367 . S
C1218 C1226 1.378 . S
C1219 C1218 1.367 . S
C1219 C1227 1.433 . S
C1220 H1216 0.929 . S
C1220 C1222 1.378 . S
C1220 C1224 1.350 . S
C1221 C1224 1.463 . S
C1221 C1226 1.350 . S
C1221 N1229 1.427 . S
C1222 H1213 0.930 1_455 S
C1222 C1220 1.378 . S
C1222 C1223 1.367 . S
C1223 C1222 1.367 . S
C1223 C1225 1.433 . S
C1224 C1220 1.350 . S
C1224 C1221 1.463 . S
C1224 N1228 1.427 . S
C1225 H1215 0.929 . S
C1225 C1223 1.433 . S
C1225 N1228 1.384 . S
C1226 H1217 0.929 . S
C1226 C1218 1.378 . S
C1226 C1221 1.350 . S
C1227 H1214 0.929 . S
C1227 C1219 1.433 . S
C1227 N1229 1.384 . S
N1228 C1224 1.427 . S
N1228 C1225 1.384 . S
N1229 C1221 1.427 . S
N1229 C1227 1.384 . S
H1230 C1236 0.930 . S
H1231 C1240 0.930 . S
H1232 C1245 0.929 . S
H1233 C1243 0.929 . S
H1234 C1238 0.929 . S
H1235 C1244 0.929 . S
C1236 H1230 0.930 . S
C1236 C1237 1.367 . S
C1236 C1244 1.378 . S
C1237 C1236 1.367 . S
C1237 C1245 1.433 . S
C1238 H1234 0.929 . S
C1238 C1240 1.378 . S
C1238 C1242 1.350 . S
C1239 C1242 1.463 . S
C1239 C1244 1.350 . S
C1239 N1247 1.427 . S
C1240 H1231 0.930 . S
C1240 C1238 1.378 . S
C1240 C1241 1.367 . S
C1241 C1240 1.367 . S
C1241 C1243 1.433 . S
C1242 C1238 1.350 . S
C1242 C1239 1.463 . S
C1242 N1246 1.427 . S
C1243 H1233 0.929 . S
C1243 C1241 1.433 . S
C1243 N1246 1.384 . S
C1244 H1235 0.929 . S
C1244 C1236 1.378 . S
C1244 C1239 1.350 . S
C1245 H1232 0.929 . S
C1245 C1237 1.433 . S
C1245 N1247 1.384 . S
N1246 C1242 1.427 . S
N1246 C1243 1.384 . S
N1247 C1239 1.427 . S
N1247 C1245 1.384 . S
H1248 C1254 0.930 1_655 S
H1249 C1258 0.930 . S
H1250 C1263 0.929 . S
H1251 C1261 0.929 . S
H1252 C1256 0.929 . S
H1253 C1262 0.929 . S
C1254 H1248 0.930 1_455 S
C1254 C1255 1.367 . S
C1254 C1262 1.378 . S
C1255 C1254 1.367 . S
C1255 C1263 1.433 . S
C1256 H1252 0.929 . S
C1256 C1258 1.378 . S
C1256 C1260 1.350 . S
C1257 C1260 1.463 . S
C1257 C1262 1.350 . S
C1257 N1265 1.427 . S
C1258 H1249 0.930 . S
C1258 C1256 1.378 . S
C1258 C1259 1.367 . S
C1259 C1258 1.367 . S
C1259 C1261 1.433 . S
C1260 C1256 1.350 . S
C1260 C1257 1.463 . S
C1260 N1264 1.427 . S
C1261 H1251 0.929 . S
C1261 C1259 1.433 . S
C1261 N1264 1.384 . S
C1262 H1253 0.929 . S
C1262 C1254 1.378 . S
C1262 C1257 1.350 . S
C1263 H1250 0.929 . S
C1263 C1255 1.433 . S
C1263 N1265 1.384 . S
N1264 C1260 1.427 . S
N1264 C1261 1.384 . S
N1265 C1257 1.427 . S
N1265 C1263 1.384 . S
H1266 C1272 0.930 . S
H1267 C1276 0.930 . S
H1268 C1281 0.929 . S
H1269 C1279 0.929 1_655 S
H1270 C1274 0.929 . S
H1271 C1280 0.929 . S
C1272 H1266 0.930 . S
C1272 C1273 1.367 . S
C1272 C1280 1.378 . S
C1273 C1272 1.367 . S
C1273 C1281 1.433 . S
C1274 H1270 0.929 . S
C1274 C1276 1.378 . S
C1274 C1278 1.350 . S
C1275 C1278 1.463 . S
C1275 C1280 1.350 . S
C1275 N1283 1.427 . S
C1276 H1267 0.930 . S
C1276 C1274 1.378 . S
C1276 C1277 1.367 . S
C1277 C1276 1.367 . S
C1277 C1279 1.433 . S
C1278 C1274 1.350 . S
C1278 C1275 1.463 . S
C1278 N1282 1.427 . S
C1279 H1269 0.929 1_455 S
C1279 C1277 1.433 . S
C1279 N1282 1.384 . S
C1280 H1271 0.929 . S
C1280 C1272 1.378 . S
C1280 C1275 1.350 . S
C1281 H1268 0.929 . S
C1281 C1273 1.433 . S
C1281 N1283 1.384 . S
N1282 C1278 1.427 . S
N1282 C1279 1.384 . S
N1283 C1275 1.427 . S
N1283 C1281 1.384 . S
H1284 C1290 0.930 . S
H1285 C1294 0.930 . S
H1286 C1299 0.929 . S
H1287 C1297 0.929 1_455 S
H1288 C1292 0.929 . S
H1289 C1298 0.929 . S
C1290 H1284 0.930 . S
C1290 C1291 1.367 . S
C1290 C1298 1.378 . S
C1291 C1290 1.367 . S
C1291 C1299 1.433 . S
C1292 H1288 0.929 . S
C1292 C1294 1.378 . S
C1292 C1296 1.350 . S
C1293 C1296 1.463 . S
C1293 C1298 1.350 . S
C1293 N1301 1.427 . S
C1294 H1285 0.930 . S
C1294 C1292 1.378 . S
C1294 C1295 1.367 . S
C1295 C1294 1.367 . S
C1295 C1297 1.433 . S
C1296 C1292 1.350 . S
C1296 C1293 1.463 . S
C1296 N1300 1.427 . S
C1297 H1287 0.929 1_655 S
C1297 C1295 1.433 . S
C1297 N1300 1.384 . S
C1298 H1289 0.929 . S
C1298 C1290 1.378 . S
C1298 C1293 1.350 . S
C1299 H1286 0.929 . S
C1299 C1291 1.433 . S
C1299 N1301 1.384 . S
N1300 C1296 1.427 . S
N1300 C1297 1.384 . S
N1301 C1293 1.427 . S
N1301 C1299 1.384 . S
H1302 C1308 0.930 1_455 S
H1303 C1312 0.930 . S
H1304 C1317 0.929 . S
H1305 C1315 0.929 . S
H1306 C1310 0.929 . S
H1307 C1316 0.929 . S
C1308 H1302 0.930 1_655 S
C1308 C1309 1.367 . S
C1308 C1316 1.378 . S
C1309 C1308 1.367 . S
C1309 C1317 1.433 . S
C1310 H1306 0.929 . S
C1310 C1312 1.378 . S
C1310 C1314 1.350 . S
C1311 C1314 1.463 . S
C1311 C1316 1.350 . S
C1311 N1319 1.427 . S
C1312 H1303 0.930 . S
C1312 C1310 1.378 . S
C1312 C1313 1.367 . S
C1313 C1312 1.367 . S
C1313 C1315 1.433 . S
C1314 C1310 1.350 . S
C1314 C1311 1.463 . S
C1314 N1318 1.427 . S
C1315 H1305 0.929 . S
C1315 C1313 1.433 . S
C1315 N1318 1.384 . S
C1316 H1307 0.929 . S
C1316 C1308 1.378 . S
C1316 C1311 1.350 . S
C1317 H1304 0.929 . S
C1317 C1309 1.433 . S
C1317 N1319 1.384 . S
N1318 C1314 1.427 . S
N1318 C1315 1.384 . S
N1319 C1311 1.427 . S
N1319 C1317 1.384 . S
H1320 C1326 0.930 . S
H1321 C1330 0.930 . S
H1322 C1335 0.929 . S
H1323 C1333 0.929 . S
H1324 C1328 0.929 . S
H1325 C1334 0.929 . S
C1326 H1320 0.930 . S
C1326 C1327 1.356 1_565 S
C1326 C1334 1.378 . S
C1327 C1326 1.356 1_545 S
C1327 C1335 1.444 . S
C1328 H1324 0.929 . S
C1328 C1330 1.378 . S
C1328 C1332 1.350 . S
C1329 C1332 1.462 . S
C1329 C1334 1.351 1_545 S
C1329 N1337 1.427 . S
C1330 H1321 0.930 . S
C1330 C1328 1.378 . S
C1330 C1331 1.427 . S
C1331 C1330 1.427 . S
C1331 C1333 1.373 1_545 S
C1332 C1328 1.350 . S
C1332 C1329 1.462 . S
C1332 N1336 1.427 1_545 S
C1333 H1323 0.929 . S
C1333 C1331 1.373 1_565 S
C1333 N1336 1.384 . S
C1334 H1325 0.929 . S
C1334 C1326 1.378 . S
C1334 C1329 1.351 1_565 S
C1335 H1322 0.929 . S
C1335 C1327 1.444 . S
C1335 N1337 1.384 . S
N1336 C1332 1.427 1_565 S
N1336 C1333 1.384 . S
N1337 C1329 1.427 . S
N1337 C1335 1.384 . S
H1338 C1344 0.930 . S
H1339 C1348 0.930 1_655 S
H1340 C1353 0.929 . S
H1341 C1351 0.929 . S
H1342 C1346 0.929 . S
H1343 C1352 0.929 . S
C1344 H1338 0.930 . S
C1344 C1345 1.367 . S
C1344 C1352 1.378 . S
C1345 C1344 1.367 . S
C1345 C1353 1.433 . S
C1346 H1342 0.929 . S
C1346 C1348 1.378 . S
C1346 C1350 1.350 . S
C1347 C1350 1.463 . S
C1347 C1352 1.350 . S
C1347 N1355 1.427 . S
C1348 H1339 0.930 1_455 S
C1348 C1346 1.378 . S
C1348 C1349 1.367 . S
C1349 C1348 1.367 . S
C1349 C1351 1.433 . S
C1350 C1346 1.350 . S
C1350 C1347 1.463 . S
C1350 N1354 1.427 . S
C1351 H1341 0.929 . S
C1351 C1349 1.433 . S
C1351 N1354 1.384 . S
C1352 H1343 0.929 . S
C1352 C1344 1.378 . S
C1352 C1347 1.350 . S
C1353 H1340 0.929 . S
C1353 C1345 1.433 . S
C1353 N1355 1.384 . S
N1354 C1350 1.427 . S
N1354 C1351 1.384 . S
N1355 C1347 1.427 . S
N1355 C1353 1.384 . S
H1356 C1362 0.930 . S
H1357 C1366 0.930 . S
H1358 C1371 0.929 1_455 S
H1359 C1369 0.929 . S
H1360 C1364 0.929 . S
H1361 C1370 0.929 . S
C1362 H1356 0.930 . S
C1362 C1363 1.410 . S
C1362 C1370 1.378 . S
C1363 C1362 1.410 . S
C1363 C1371 1.390 1_565 S
C1364 H1360 0.929 . S
C1364 C1366 1.378 . S
C1364 C1368 1.344 1_545 S
C1365 C1368 1.461 . S
C1365 C1370 1.401 . S
C1365 N1373 1.378 1_565 S
C1366 H1357 0.930 . S
C1366 C1364 1.378 . S
C1366 C1367 1.354 1_545 S
C1367 C1366 1.354 1_565 S
C1367 C1369 1.446 . S
C1368 C1364 1.344 1_565 S
C1368 C1365 1.461 . S
C1368 N1372 1.433 . S
C1369 H1359 0.929 . S
C1369 C1367 1.446 . S
C1369 N1372 1.384 . S
C1370 H1361 0.929 . S
C1370 C1362 1.378 . S
C1370 C1365 1.401 . S
C1371 H1358 0.929 1_655 S
C1371 C1363 1.390 1_545 S
C1371 N1373 1.384 . S
N1372 C1368 1.433 . S
N1372 C1369 1.384 . S
N1373 C1365 1.378 1_545 S
N1373 C1371 1.384 . S
H1374 C1380 0.930 . S
H1375 C1384 0.930 . S
H1376 C1389 0.929 . S
H1377 C1387 0.929 . S
H1378 C1382 0.929 . S
H1379 C1388 0.929 . S
C1380 H1374 0.930 . S
C1380 C1381 1.367 . S
C1380 C1388 1.378 . S
C1381 C1380 1.367 . S
C1381 C1389 1.433 . S
C1382 H1378 0.929 . S
C1382 C1384 1.378 . S
C1382 C1386 1.350 . S
C1383 C1386 1.463 . S
C1383 C1388 1.350 . S
C1383 N1391 1.427 . S
C1384 H1375 0.930 . S
C1384 C1382 1.378 . S
C1384 C1385 1.367 . S
C1385 C1384 1.367 . S
C1385 C1387 1.433 . S
C1386 C1382 1.350 . S
C1386 C1383 1.463 . S
C1386 N1390 1.427 . S
C1387 H1377 0.929 . S
C1387 C1385 1.433 . S
C1387 N1390 1.384 . S
C1388 H1379 0.929 . S
C1388 C1380 1.378 . S
C1388 C1383 1.350 . S
C1389 H1376 0.929 . S
C1389 C1381 1.433 . S
C1389 N1391 1.384 . S
N1390 C1386 1.427 . S
N1390 C1387 1.384 . S
N1391 C1383 1.427 . S
N1391 C1389 1.384 . S
H1392 C1398 0.930 . S
H1393 C1402 0.930 . S
H1394 C1407 0.929 . S
H1395 C1405 0.929 . S
H1396 C1400 0.929 . S
H1397 C1406 0.929 . S
C1398 H1392 0.930 . S
C1398 C1399 1.367 . S
C1398 C1406 1.378 . S
C1399 C1398 1.367 . S
C1399 C1407 1.433 . S
C1400 H1396 0.929 . S
C1400 C1402 1.378 . S
C1400 C1404 1.350 . S
C1401 C1404 1.463 . S
C1401 C1406 1.350 . S
C1401 N1409 1.427 . S
C1402 H1393 0.930 . S
C1402 C1400 1.378 . S
C1402 C1403 1.367 . S
C1403 C1402 1.367 . S
C1403 C1405 1.433 . S
C1404 C1400 1.350 . S
C1404 C1401 1.463 . S
C1404 N1408 1.427 . S
C1405 H1395 0.929 . S
C1405 C1403 1.433 . S
C1405 N1408 1.384 . S
C1406 H1397 0.929 . S
C1406 C1398 1.378 . S
C1406 C1401 1.350 . S
C1407 H1394 0.929 . S
C1407 C1399 1.433 . S
C1407 N1409 1.384 . S
N1408 C1404 1.427 . S
N1408 C1405 1.384 . S
N1409 C1401 1.427 . S
N1409 C1407 1.384 . S
H1410 C1416 0.930 . S
H1411 C1420 0.930 . S
H1412 C1425 0.929 . S
H1413 C1423 0.929 . S
H1414 C1418 0.929 . S
H1415 C1424 0.929 . S
C1416 H1410 0.930 . S
C1416 C1417 1.367 . S
C1416 C1424 1.378 . S
C1417 C1416 1.367 . S
C1417 C1425 1.433 . S
C1418 H1414 0.929 . S
C1418 C1420 1.378 . S
C1418 C1422 1.350 . S
C1419 C1422 1.463 . S
C1419 C1424 1.350 . S
C1419 N1427 1.427 . S
C1420 H1411 0.930 . S
C1420 C1418 1.378 . S
C1420 C1421 1.367 . S
C1421 C1420 1.367 . S
C1421 C1423 1.433 . S
C1422 C1418 1.350 . S
C1422 C1419 1.463 . S
C1422 N1426 1.427 . S
C1423 H1413 0.929 . S
C1423 C1421 1.433 . S
C1423 N1426 1.384 . S
C1424 H1415 0.929 . S
C1424 C1416 1.378 . S
C1424 C1419 1.350 . S
C1425 H1412 0.929 . S
C1425 C1417 1.433 . S
C1425 N1427 1.384 . S
N1426 C1422 1.427 . S
N1426 C1423 1.384 . S
N1427 C1419 1.427 . S
N1427 C1425 1.384 . S
H1428 C1434 0.930 . S
H1429 C1438 0.930 . S
H1430 C1443 0.929 . S
H1431 C1441 0.929 . S
H1432 C1436 0.929 . S
H1433 C1442 0.929 . S
C1434 H1428 0.930 . S
C1434 C1435 1.367 . S
C1434 C1442 1.378 . S
C1435 C1434 1.367 . S
C1435 C1443 1.433 . S
C1436 H1432 0.929 . S
C1436 C1438 1.378 . S
C1436 C1440 1.350 . S
C1437 C1440 1.463 . S
C1437 C1442 1.350 . S
C1437 N1445 1.427 . S
C1438 H1429 0.930 . S
C1438 C1436 1.378 . S
C1438 C1439 1.367 . S
C1439 C1438 1.367 . S
C1439 C1441 1.433 . S
C1440 C1436 1.350 . S
C1440 C1437 1.463 . S
C1440 N1444 1.427 . S
C1441 H1431 0.929 . S
C1441 C1439 1.433 . S
C1441 N1444 1.384 . S
C1442 H1433 0.929 . S
C1442 C1434 1.378 . S
C1442 C1437 1.350 . S
C1443 H1430 0.929 . S
C1443 C1435 1.433 . S
C1443 N1445 1.384 . S
N1444 C1440 1.427 . S
N1444 C1441 1.384 . S
N1445 C1437 1.427 . S
N1445 C1443 1.384 . S
H1446 C1452 0.930 . S
H1447 C1456 0.930 . S
H1448 C1461 0.929 . S
H1449 C1459 0.929 . S
H1450 C1454 0.929 . S
H1451 C1460 0.929 . S
C1452 H1446 0.930 . S
C1452 C1453 1.367 . S
C1452 C1460 1.378 . S
C1453 C1452 1.367 . S
C1453 C1461 1.433 . S
C1454 H1450 0.929 . S
C1454 C1456 1.378 . S
C1454 C1458 1.350 . S
C1455 C1458 1.463 . S
C1455 C1460 1.350 . S
C1455 N1463 1.427 . S
C1456 H1447 0.930 . S
C1456 C1454 1.378 . S
C1456 C1457 1.367 . S
C1457 C1456 1.367 . S
C1457 C1459 1.433 . S
C1458 C1454 1.350 . S
C1458 C1455 1.463 . S
C1458 N1462 1.427 . S
C1459 H1449 0.929 . S
C1459 C1457 1.433 . S
C1459 N1462 1.384 . S
C1460 H1451 0.929 . S
C1460 C1452 1.378 . S
C1460 C1455 1.350 . S
C1461 H1448 0.929 . S
C1461 C1453 1.433 . S
C1461 N1463 1.384 . S
N1462 C1458 1.427 . S
N1462 C1459 1.384 . S
N1463 C1455 1.427 . S
N1463 C1461 1.384 . S
H1464 C1470 0.930 . S
H1465 C1474 0.930 . S
H1466 C1479 0.929 . S
H1467 C1477 0.929 . S
H1468 C1472 0.929 . S
H1469 C1478 0.929 . S
C1470 H1464 0.930 . S
C1470 C1471 1.412 . S
C1470 C1478 1.378 . S
C1471 C1470 1.412 . S
C1471 C1479 1.389 1_545 S
C1472 H1468 0.929 . S
C1472 C1474 1.378 . S
C1472 C1476 1.345 1_565 S
C1473 C1476 1.461 . S
C1473 C1478 1.403 . S
C1473 N1481 1.376 1_545 S
C1474 H1465 0.930 . S
C1474 C1472 1.378 . S
C1474 C1475 1.355 1_565 S
C1475 C1474 1.355 1_545 S
C1475 C1477 1.446 . S
C1476 C1472 1.345 1_545 S
C1476 C1473 1.461 . S
C1476 N1480 1.432 . S
C1477 H1467 0.929 . S
C1477 C1475 1.446 . S
C1477 N1480 1.384 . S
C1478 H1469 0.929 . S
C1478 C1470 1.378 . S
C1478 C1473 1.403 . S
C1479 H1466 0.929 . S
C1479 C1471 1.389 1_565 S
C1479 N1481 1.384 . S
N1480 C1476 1.432 . S
N1480 C1477 1.384 . S
N1481 C1473 1.376 1_565 S
N1481 C1479 1.384 . S
H1482 C1488 0.930 . S
H1483 C1492 0.930 . S
H1484 C1497 0.929 . S
H1485 C1495 0.929 . S
H1486 C1490 0.929 . S
H1487 C1496 0.929 . S
C1488 H1482 0.930 . S
C1488 C1489 1.367 . S
C1488 C1496 1.378 . S
C1489 C1488 1.367 . S
C1489 C1497 1.433 . S
C1490 H1486 0.929 . S
C1490 C1492 1.378 . S
C1490 C1494 1.350 . S
C1491 C1494 1.463 . S
C1491 C1496 1.350 . S
C1491 N1499 1.427 . S
C1492 H1483 0.930 . S
C1492 C1490 1.378 . S
C1492 C1493 1.367 . S
C1493 C1492 1.367 . S
C1493 C1495 1.433 . S
C1494 C1490 1.350 . S
C1494 C1491 1.463 . S
C1494 N1498 1.427 . S
C1495 H1485 0.929 . S
C1495 C1493 1.433 . S
C1495 N1498 1.384 . S
C1496 H1487 0.929 . S
C1496 C1488 1.378 . S
C1496 C1491 1.350 . S
C1497 H1484 0.929 . S
C1497 C1489 1.433 . S
C1497 N1499 1.384 . S
N1498 C1494 1.427 . S
N1498 C1495 1.384 . S
N1499 C1491 1.427 . S
N1499 C1497 1.384 . S
H1500 C1506 0.930 . S
H1501 C1510 0.930 . S
H1502 C1515 0.929 . S
H1503 C1513 0.929 . S
H1504 C1508 0.929 . S
H1505 C1514 0.929 . S
C1506 H1500 0.930 . S
C1506 C1507 1.361 1_545 S
C1506 C1514 1.378 . S
C1507 C1506 1.361 1_565 S
C1507 C1515 1.440 . S
C1508 H1504 0.929 . S
C1508 C1510 1.378 . S
C1508 C1512 1.360 . S
C1509 C1512 1.462 . S
C1509 C1514 1.344 1_565 S
C1509 N1517 1.434 . S
C1510 H1501 0.930 . S
C1510 C1508 1.378 . S
C1510 C1511 1.376 . S
C1511 C1510 1.376 . S
C1511 C1513 1.425 1_565 S
C1512 C1508 1.360 . S
C1512 C1509 1.462 . S
C1512 N1516 1.419 1_565 S
C1513 H1503 0.929 . S
C1513 C1511 1.425 1_545 S
C1513 N1516 1.384 . S
C1514 H1505 0.929 . S
C1514 C1506 1.378 . S
C1514 C1509 1.344 1_545 S
C1515 H1502 0.929 . S
C1515 C1507 1.440 . S
C1515 N1517 1.384 . S
N1516 C1512 1.419 1_545 S
N1516 C1513 1.384 . S
N1517 C1509 1.434 . S
N1517 C1515 1.384 . S
H1518 C1524 0.930 . S
H1519 C1528 0.930 . S
H1520 C1533 0.929 . S
H1521 C1531 0.929 . S
H1522 C1526 0.929 . S
H1523 C1532 0.929 . S
C1524 H1518 0.930 . S
C1524 C1525 1.367 . S
C1524 C1532 1.378 . S
C1525 C1524 1.367 . S
C1525 C1533 1.433 . S
C1526 H1522 0.929 . S
C1526 C1528 1.378 . S
C1526 C1530 1.350 . S
C1527 C1530 1.463 . S
C1527 C1532 1.350 . S
C1527 N1535 1.427 . S
C1528 H1519 0.930 . S
C1528 C1526 1.378 . S
C1528 C1529 1.367 . S
C1529 C1528 1.367 . S
C1529 C1531 1.433 . S
C1530 C1526 1.350 . S
C1530 C1527 1.463 . S
C1530 N1534 1.427 . S
C1531 H1521 0.929 . S
C1531 C1529 1.433 . S
C1531 N1534 1.384 . S
C1532 H1523 0.929 . S
C1532 C1524 1.378 . S
C1532 C1527 1.350 . S
C1533 H1520 0.929 . S
C1533 C1525 1.433 . S
C1533 N1535 1.384 . S
N1534 C1530 1.427 . S
N1534 C1531 1.384 . S
N1535 C1527 1.427 . S
N1535 C1533 1.384 . S
H1536 C1542 0.930 . S
H1537 C1546 0.930 . S
H1538 C1551 0.929 . S
H1539 C1549 0.929 . S
H1540 C1544 0.929 . S
H1541 C1550 0.929 . S
C1542 H1536 0.930 . S
C1542 C1543 1.367 . S
C1542 C1550 1.378 . S
C1543 C1542 1.367 . S
C1543 C1551 1.433 . S
C1544 H1540 0.929 . S
C1544 C1546 1.378 . S
C1544 C1548 1.350 . S
C1545 C1548 1.463 . S
C1545 C1550 1.350 . S
C1545 N1553 1.427 . S
C1546 H1537 0.930 . S
C1546 C1544 1.378 . S
C1546 C1547 1.367 . S
C1547 C1546 1.367 . S
C1547 C1549 1.433 . S
C1548 C1544 1.350 . S
C1548 C1545 1.463 . S
C1548 N1552 1.427 . S
C1549 H1539 0.929 . S
C1549 C1547 1.433 . S
C1549 N1552 1.384 . S
C1550 H1541 0.929 . S
C1550 C1542 1.378 . S
C1550 C1545 1.350 . S
C1551 H1538 0.929 . S
C1551 C1543 1.433 . S
C1551 N1553 1.384 . S
N1552 C1548 1.427 . S
N1552 C1549 1.384 . S
N1553 C1545 1.427 . S
N1553 C1551 1.384 . S
H1554 C1560 0.930 . S
H1555 C1564 0.930 . S
H1556 C1569 0.929 . S
H1557 C1567 0.929 . S
H1558 C1562 0.929 . S
H1559 C1568 0.929 . S
C1560 H1554 0.930 . S
C1560 C1561 1.367 . S
C1560 C1568 1.378 . S
C1561 C1560 1.367 . S
C1561 C1569 1.433 . S
C1562 H1558 0.929 . S
C1562 C1564 1.378 . S
C1562 C1566 1.350 . S
C1563 C1566 1.463 . S
C1563 C1568 1.350 . S
C1563 N1571 1.427 . S
C1564 H1555 0.930 . S
C1564 C1562 1.378 . S
C1564 C1565 1.367 . S
C1565 C1564 1.367 . S
C1565 C1567 1.433 . S
C1566 C1562 1.350 . S
C1566 C1563 1.463 . S
C1566 N1570 1.427 . S
C1567 H1557 0.929 . S
C1567 C1565 1.433 . S
C1567 N1570 1.384 . S
C1568 H1559 0.929 . S
C1568 C1560 1.378 . S
C1568 C1563 1.350 . S
C1569 H1556 0.929 . S
C1569 C1561 1.433 . S
C1569 N1571 1.384 . S
N1570 C1566 1.427 . S
N1570 C1567 1.384 . S
N1571 C1563 1.427 . S
N1571 C1569 1.384 . S
H1572 C1578 0.930 . S
H1573 C1582 0.930 . S
H1574 C1587 0.929 . S
H1575 C1585 0.929 . S
H1576 C1580 0.929 . S
H1577 C1586 0.929 . S
C1578 H1572 0.930 . S
C1578 C1579 1.367 . S
C1578 C1586 1.378 . S
C1579 C1578 1.367 . S
C1579 C1587 1.433 . S
C1580 H1576 0.929 . S
C1580 C1582 1.378 . S
C1580 C1584 1.350 . S
C1581 C1584 1.463 . S
C1581 C1586 1.350 . S
C1581 N1589 1.427 . S
C1582 H1573 0.930 . S
C1582 C1580 1.378 . S
C1582 C1583 1.367 . S
C1583 C1582 1.367 . S
C1583 C1585 1.433 . S
C1584 C1580 1.350 . S
C1584 C1581 1.463 . S
C1584 N1588 1.427 . S
C1585 H1575 0.929 . S
C1585 C1583 1.433 . S
C1585 N1588 1.384 . S
C1586 H1577 0.929 . S
C1586 C1578 1.378 . S
C1586 C1581 1.350 . S
C1587 H1574 0.929 . S
C1587 C1579 1.433 . S
C1587 N1589 1.384 . S
N1588 C1584 1.427 . S
N1588 C1585 1.384 . S
N1589 C1581 1.427 . S
N1589 C1587 1.384 . S
H1590 C1596 0.930 . S
H1591 C1600 0.930 . S
H1592 C1605 0.929 . S
H1593 C1603 0.929 . S
H1594 C1598 0.929 . S
H1595 C1604 0.929 . S
C1596 H1590 0.930 . S
C1596 C1597 1.367 . S
C1596 C1604 1.378 . S
C1597 C1596 1.367 . S
C1597 C1605 1.433 . S
C1598 H1594 0.929 . S
C1598 C1600 1.378 . S
C1598 C1602 1.350 . S
C1599 C1602 1.463 . S
C1599 C1604 1.350 . S
C1599 N1607 1.427 . S
C1600 H1591 0.930 . S
C1600 C1598 1.378 . S
C1600 C1601 1.367 . S
C1601 C1600 1.367 . S
C1601 C1603 1.433 . S
C1602 C1598 1.350 . S
C1602 C1599 1.463 . S
C1602 N1606 1.427 . S
C1603 H1593 0.929 . S
C1603 C1601 1.433 . S
C1603 N1606 1.384 . S
C1604 H1595 0.929 . S
C1604 C1596 1.378 . S
C1604 C1599 1.350 . S
C1605 H1592 0.929 . S
C1605 C1597 1.433 . S
C1605 N1607 1.384 . S
N1606 C1602 1.427 . S
N1606 C1603 1.384 . S
N1607 C1599 1.427 . S
N1607 C1605 1.384 . S
H1608 C1614 0.930 . S
H1609 C1618 0.930 . S
H1610 C1623 0.929 . S
H1611 C1621 0.929 . S
H1612 C1616 0.929 . S
H1613 C1622 0.929 . S
C1614 H1608 0.930 . S
C1614 C1615 1.367 . S
C1614 C1622 1.378 . S
C1615 C1614 1.367 . S
C1615 C1623 1.433 . S
C1616 H1612 0.929 . S
C1616 C1618 1.378 . S
C1616 C1620 1.350 . S
C1617 C1620 1.463 . S
C1617 C1622 1.350 . S
C1617 N1625 1.427 . S
C1618 H1609 0.930 . S
C1618 C1616 1.378 . S
C1618 C1619 1.367 . S
C1619 C1618 1.367 . S
C1619 C1621 1.433 . S
C1620 C1616 1.350 . S
C1620 C1617 1.463 . S
C1620 N1624 1.427 . S
C1621 H1611 0.929 . S
C1621 C1619 1.433 . S
C1621 N1624 1.384 . S
C1622 H1613 0.929 . S
C1622 C1614 1.378 . S
C1622 C1617 1.350 . S
C1623 H1610 0.929 . S
C1623 C1615 1.433 . S
C1623 N1625 1.384 . S
N1624 C1620 1.427 . S
N1624 C1621 1.384 . S
N1625 C1617 1.427 . S
N1625 C1623 1.384 . S
H1626 C1632 0.930 1_655 S
H1627 C1636 0.930 . S
H1628 C1641 0.929 . S
H1629 C1639 0.929 . S
H1630 C1634 0.929 . S
H1631 C1640 0.929 1_655 S
C1632 H1626 0.930 1_455 S
C1632 C1633 1.367 . S
C1632 C1640 1.378 . S
C1633 C1632 1.367 . S
C1633 C1641 1.433 . S
C1634 H1630 0.929 . S
C1634 C1636 1.378 . S
C1634 C1638 1.350 . S
C1635 C1638 1.463 . S
C1635 C1640 1.350 . S
C1635 N1643 1.427 . S
C1636 H1627 0.930 . S
C1636 C1634 1.378 . S
C1636 C1637 1.367 . S
C1637 C1636 1.367 . S
C1637 C1639 1.433 . S
C1638 C1634 1.350 . S
C1638 C1635 1.463 . S
C1638 N1642 1.427 . S
C1639 H1629 0.929 . S
C1639 C1637 1.433 . S
C1639 N1642 1.384 . S
C1640 H1631 0.929 1_455 S
C1640 C1632 1.378 . S
C1640 C1635 1.350 . S
C1641 H1628 0.929 . S
C1641 C1633 1.433 . S
C1641 N1643 1.384 . S
N1642 C1638 1.427 . S
N1642 C1639 1.384 . S
N1643 C1635 1.427 . S
N1643 C1641 1.384 . S
H1644 C1650 0.930 . S
H1645 C1654 0.930 . S
H1646 C1659 0.929 . S
H1647 C1657 0.929 1_455 S
H1648 C1652 0.929 . S
H1649 C1658 0.929 . S
C1650 H1644 0.930 . S
C1650 C1651 1.367 . S
C1650 C1658 1.378 . S
C1651 C1650 1.367 . S
C1651 C1659 1.433 . S
C1652 H1648 0.929 . S
C1652 C1654 1.378 . S
C1652 C1656 1.350 . S
C1653 C1656 1.463 . S
C1653 C1658 1.350 . S
C1653 N1661 1.427 . S
C1654 H1645 0.930 . S
C1654 C1652 1.378 . S
C1654 C1655 1.367 . S
C1655 C1654 1.367 . S
C1655 C1657 1.433 . S
C1656 C1652 1.350 . S
C1656 C1653 1.463 . S
C1656 N1660 1.427 . S
C1657 H1647 0.929 1_655 S
C1657 C1655 1.433 . S
C1657 N1660 1.384 . S
C1658 H1649 0.929 . S
C1658 C1650 1.378 . S
C1658 C1653 1.350 . S
C1659 H1646 0.929 . S
C1659 C1651 1.433 . S
C1659 N1661 1.384 . S
N1660 C1656 1.427 . S
N1660 C1657 1.384 . S
N1661 C1653 1.427 . S
N1661 C1659 1.384 . S
H1662 C1668 0.930 1_455 S
H1663 C1672 0.930 . S
H1664 C1677 0.929 . S
H1665 C1675 0.929 . S
H1666 C1670 0.929 . S
H1667 C1676 0.929 1_455 S
C1668 H1662 0.930 1_655 S
C1668 C1669 1.367 . S
C1668 C1676 1.378 . S
C1669 C1668 1.367 . S
C1669 C1677 1.433 . S
C1670 H1666 0.929 . S
C1670 C1672 1.378 . S
C1670 C1674 1.350 . S
C1671 C1674 1.463 . S
C1671 C1676 1.350 . S
C1671 N1679 1.427 . S
C1672 H1663 0.930 . S
C1672 C1670 1.378 . S
C1672 C1673 1.367 . S
C1673 C1672 1.367 . S
C1673 C1675 1.433 . S
C1674 C1670 1.350 . S
C1674 C1671 1.463 . S
C1674 N1678 1.427 . S
C1675 H1665 0.929 . S
C1675 C1673 1.433 . S
C1675 N1678 1.384 . S
C1676 H1667 0.929 1_655 S
C1676 C1668 1.378 . S
C1676 C1671 1.350 . S
C1677 H1664 0.929 . S
C1677 C1669 1.433 . S
C1677 N1679 1.384 . S
N1678 C1674 1.427 . S
N1678 C1675 1.384 . S
N1679 C1671 1.427 . S
N1679 C1677 1.384 . S
H1680 C1686 0.930 . S
H1681 C1690 0.930 . S
H1682 C1695 0.929 . S
H1683 C1693 0.929 . S
H1684 C1688 0.929 . S
H1685 C1694 0.929 . S
C1686 H1680 0.930 . S
C1686 C1687 1.367 . S
C1686 C1694 1.378 . S
C1687 C1686 1.367 . S
C1687 C1695 1.433 . S
C1688 H1684 0.929 . S
C1688 C1690 1.378 . S
C1688 C1692 1.350 . S
C1689 C1692 1.463 . S
C1689 C1694 1.350 . S
C1689 N1697 1.427 . S
C1690 H1681 0.930 . S
C1690 C1688 1.378 . S
C1690 C1691 1.367 . S
C1691 C1690 1.367 . S
C1691 C1693 1.433 . S
C1692 C1688 1.350 . S
C1692 C1689 1.463 . S
C1692 N1696 1.427 . S
C1693 H1683 0.929 . S
C1693 C1691 1.433 . S
C1693 N1696 1.384 . S
C1694 H1685 0.929 . S
C1694 C1686 1.378 . S
C1694 C1689 1.350 . S
C1695 H1682 0.929 . S
C1695 C1687 1.433 . S
C1695 N1697 1.384 . S
N1696 C1692 1.427 . S
N1696 C1693 1.384 . S
N1697 C1689 1.427 . S
N1697 C1695 1.384 . S
H1698 C1704 0.930 . S
H1699 C1708 0.930 . S
H1700 C1713 0.929 . S
H1701 C1711 0.929 . S
H1702 C1706 0.929 . S
H1703 C1712 0.929 . S
C1704 H1698 0.930 . S
C1704 C1705 1.367 . S
C1704 C1712 1.378 . S
C1705 C1704 1.367 . S
C1705 C1713 1.433 . S
C1706 H1702 0.929 . S
C1706 C1708 1.378 . S
C1706 C1710 1.350 . S
C1707 C1710 1.463 . S
C1707 C1712 1.350 . S
C1707 N1715 1.427 . S
C1708 H1699 0.930 . S
C1708 C1706 1.378 . S
C1708 C1709 1.367 . S
C1709 C1708 1.367 . S
C1709 C1711 1.433 . S
C1710 C1706 1.350 . S
C1710 C1707 1.463 . S
C1710 N1714 1.427 . S
C1711 H1701 0.929 . S
C1711 C1709 1.433 . S
C1711 N1714 1.384 . S
C1712 H1703 0.929 . S
C1712 C1704 1.378 . S
C1712 C1707 1.350 . S
C1713 H1700 0.929 . S
C1713 C1705 1.433 . S
C1713 N1715 1.384 . S
N1714 C1710 1.427 . S
N1714 C1711 1.384 . S
N1715 C1707 1.427 . S
N1715 C1713 1.384 . S
H1716 C1722 0.930 . S
H1717 C1726 0.930 . S
H1718 C1731 0.929 . S
H1719 C1729 0.929 . S
H1720 C1724 0.929 . S
H1721 C1730 0.929 . S
C1722 H1716 0.930 . S
C1722 C1723 1.367 . S
C1722 C1730 1.378 . S
C1723 C1722 1.367 . S
C1723 C1731 1.433 . S
C1724 H1720 0.929 . S
C1724 C1726 1.378 . S
C1724 C1728 1.350 . S
C1725 C1728 1.463 . S
C1725 C1730 1.350 . S
C1725 N1733 1.427 . S
C1726 H1717 0.930 . S
C1726 C1724 1.378 . S
C1726 C1727 1.367 . S
C1727 C1726 1.367 . S
C1727 C1729 1.433 . S
C1728 C1724 1.350 . S
C1728 C1725 1.463 . S
C1728 N1732 1.427 . S
C1729 H1719 0.929 . S
C1729 C1727 1.433 . S
C1729 N1732 1.384 . S
C1730 H1721 0.929 . S
C1730 C1722 1.378 . S
C1730 C1725 1.350 . S
C1731 H1718 0.929 . S
C1731 C1723 1.433 . S
C1731 N1733 1.384 . S
N1732 C1728 1.427 . S
N1732 C1729 1.384 . S
N1733 C1725 1.427 . S
N1733 C1731 1.384 . S
H1734 C1740 0.930 . S
H1735 C1744 0.930 . S
H1736 C1749 0.929 . S
H1737 C1747 0.929 . S
H1738 C1742 0.929 . S
H1739 C1748 0.929 . S
C1740 H1734 0.930 . S
C1740 C1741 1.367 . S
C1740 C1748 1.378 . S
C1741 C1740 1.367 . S
C1741 C1749 1.433 . S
C1742 H1738 0.929 . S
C1742 C1744 1.378 . S
C1742 C1746 1.350 . S
C1743 C1746 1.463 . S
C1743 C1748 1.350 . S
C1743 N1751 1.427 . S
C1744 H1735 0.930 . S
C1744 C1742 1.378 . S
C1744 C1745 1.367 . S
C1745 C1744 1.367 . S
C1745 C1747 1.433 . S
C1746 C1742 1.350 . S
C1746 C1743 1.463 . S
C1746 N1750 1.427 . S
C1747 H1737 0.929 . S
C1747 C1745 1.433 . S
C1747 N1750 1.384 . S
C1748 H1739 0.929 . S
C1748 C1740 1.378 . S
C1748 C1743 1.350 . S
C1749 H1736 0.929 . S
C1749 C1741 1.433 . S
C1749 N1751 1.384 . S
N1750 C1746 1.427 . S
N1750 C1747 1.384 . S
N1751 C1743 1.427 . S
N1751 C1749 1.384 . S
H1752 C1758 0.930 . S
H1753 C1762 0.930 . S
H1754 C1767 0.929 . S
H1755 C1765 0.929 . S
H1756 C1760 0.929 . S
H1757 C1766 0.929 . S
C1758 H1752 0.930 . S
C1758 C1759 1.367 . S
C1758 C1766 1.378 . S
C1759 C1758 1.367 . S
C1759 C1767 1.433 . S
C1760 H1756 0.929 . S
C1760 C1762 1.378 . S
C1760 C1764 1.350 . S
C1761 C1764 1.463 . S
C1761 C1766 1.350 . S
C1761 N1769 1.427 . S
C1762 H1753 0.930 . S
C1762 C1760 1.378 . S
C1762 C1763 1.367 . S
C1763 C1762 1.367 . S
C1763 C1765 1.433 . S
C1764 C1760 1.350 . S
C1764 C1761 1.463 . S
C1764 N1768 1.427 . S
C1765 H1755 0.929 . S
C1765 C1763 1.433 . S
C1765 N1768 1.384 . S
C1766 H1757 0.929 . S
C1766 C1758 1.378 . S
C1766 C1761 1.350 . S
C1767 H1754 0.929 . S
C1767 C1759 1.433 . S
C1767 N1769 1.384 . S
N1768 C1764 1.427 . S
N1768 C1765 1.384 . S
N1769 C1761 1.427 . S
N1769 C1767 1.384 . S
H1770 C1776 0.930 . S
H1771 C1780 0.930 . S
H1772 C1785 0.929 . S
H1773 C1783 0.929 . S
H1774 C1778 0.929 . S
H1775 C1784 0.929 . S
C1776 H1770 0.930 . S
C1776 C1777 1.367 . S
C1776 C1784 1.378 . S
C1777 C1776 1.367 . S
C1777 C1785 1.433 . S
C1778 H1774 0.929 . S
C1778 C1780 1.378 . S
C1778 C1782 1.350 . S
C1779 C1782 1.463 . S
C1779 C1784 1.350 . S
C1779 N1787 1.427 . S
C1780 H1771 0.930 . S
C1780 C1778 1.378 . S
C1780 C1781 1.367 . S
C1781 C1780 1.367 . S
C1781 C1783 1.433 . S
C1782 C1778 1.350 . S
C1782 C1779 1.463 . S
C1782 N1786 1.427 . S
C1783 H1773 0.929 . S
C1783 C1781 1.433 . S
C1783 N1786 1.384 . S
C1784 H1775 0.929 . S
C1784 C1776 1.378 . S
C1784 C1779 1.350 . S
C1785 H1772 0.929 . S
C1785 C1777 1.433 . S
C1785 N1787 1.384 . S
N1786 C1782 1.427 . S
N1786 C1783 1.384 . S
N1787 C1779 1.427 . S
N1787 C1785 1.384 . S
H1788 C1794 0.930 . S
H1789 C1798 0.930 . S
H1790 C1803 0.929 . S
H1791 C1801 0.929 . S
H1792 C1796 0.929 . S
H1793 C1802 0.929 . S
C1794 H1788 0.930 . S
C1794 C1795 1.367 . S
C1794 C1802 1.378 . S
C1795 C1794 1.367 . S
C1795 C1803 1.433 . S
C1796 H1792 0.929 . S
C1796 C1798 1.378 . S
C1796 C1800 1.350 . S
C1797 C1800 1.463 . S
C1797 C1802 1.350 . S
C1797 N1805 1.427 . S
C1798 H1789 0.930 . S
C1798 C1796 1.378 . S
C1798 C1799 1.367 . S
C1799 C1798 1.367 . S
C1799 C1801 1.433 . S
C1800 C1796 1.350 . S
C1800 C1797 1.463 . S
C1800 N1804 1.427 . S
C1801 H1791 0.929 . S
C1801 C1799 1.433 . S
C1801 N1804 1.384 . S
C1802 H1793 0.929 . S
C1802 C1794 1.378 . S
C1802 C1797 1.350 . S
C1803 H1790 0.929 . S
C1803 C1795 1.433 . S
C1803 N1805 1.384 . S
N1804 C1800 1.427 . S
N1804 C1801 1.384 . S
N1805 C1797 1.427 . S
N1805 C1803 1.384 . S
H1806 C1812 0.930 . S
H1807 C1816 0.930 . S
H1808 C1821 0.929 . S
H1809 C1819 0.929 . S
H1810 C1814 0.929 . S
H1811 C1820 0.929 . S
C1812 H1806 0.930 . S
C1812 C1813 1.367 . S
C1812 C1820 1.378 . S
C1813 C1812 1.367 . S
C1813 C1821 1.433 . S
C1814 H1810 0.929 . S
C1814 C1816 1.378 . S
C1814 C1818 1.350 . S
C1815 C1818 1.463 . S
C1815 C1820 1.350 . S
C1815 N1823 1.427 . S
C1816 H1807 0.930 . S
C1816 C1814 1.378 . S
C1816 C1817 1.367 . S
C1817 C1816 1.367 . S
C1817 C1819 1.433 . S
C1818 C1814 1.350 . S
C1818 C1815 1.463 . S
C1818 N1822 1.427 . S
C1819 H1809 0.929 . S
C1819 C1817 1.433 . S
C1819 N1822 1.384 . S
C1820 H1811 0.929 . S
C1820 C1812 1.378 . S
C1820 C1815 1.350 . S
C1821 H1808 0.929 . S
C1821 C1813 1.433 . S
C1821 N1823 1.384 . S
N1822 C1818 1.427 . S
N1822 C1819 1.384 . S
N1823 C1815 1.427 . S
N1823 C1821 1.384 . S
H1824 C1830 0.930 . S
H1825 C1834 0.930 . S
H1826 C1839 0.929 . S
H1827 C1837 0.929 . S
H1828 C1832 0.929 . S
H1829 C1838 0.929 . S
C1830 H1824 0.930 . S
C1830 C1831 1.367 . S
C1830 C1838 1.378 . S
C1831 C1830 1.367 . S
C1831 C1839 1.433 . S
C1832 H1828 0.929 . S
C1832 C1834 1.378 . S
C1832 C1836 1.350 . S
C1833 C1836 1.463 . S
C1833 C1838 1.350 . S
C1833 N1841 1.427 . S
C1834 H1825 0.930 . S
C1834 C1832 1.378 . S
C1834 C1835 1.367 . S
C1835 C1834 1.367 . S
C1835 C1837 1.433 . S
C1836 C1832 1.350 . S
C1836 C1833 1.463 . S
C1836 N1840 1.427 . S
C1837 H1827 0.929 . S
C1837 C1835 1.433 . S
C1837 N1840 1.384 . S
C1838 H1829 0.929 . S
C1838 C1830 1.378 . S
C1838 C1833 1.350 . S
C1839 H1826 0.929 . S
C1839 C1831 1.433 . S
C1839 N1841 1.384 . S
N1840 C1836 1.427 . S
N1840 C1837 1.384 . S
N1841 C1833 1.427 . S
N1841 C1839 1.384 . S
H1842 C1848 0.930 . S
H1843 C1852 0.930 . S
H1844 C1857 0.929 . S
H1845 C1855 0.929 . S
H1846 C1850 0.929 . S
H1847 C1856 0.929 . S
C1848 H1842 0.930 . S
C1848 C1849 1.367 . S
C1848 C1856 1.378 . S
C1849 C1848 1.367 . S
C1849 C1857 1.433 . S
C1850 H1846 0.929 . S
C1850 C1852 1.378 . S
C1850 C1854 1.350 . S
C1851 C1854 1.463 . S
C1851 C1856 1.350 . S
C1851 N1859 1.427 . S
C1852 H1843 0.930 . S
C1852 C1850 1.378 . S
C1852 C1853 1.367 . S
C1853 C1852 1.367 . S
C1853 C1855 1.433 . S
C1854 C1850 1.350 . S
C1854 C1851 1.463 . S
C1854 N1858 1.427 . S
C1855 H1845 0.929 . S
C1855 C1853 1.433 . S
C1855 N1858 1.384 . S
C1856 H1847 0.929 . S
C1856 C1848 1.378 . S
C1856 C1851 1.350 . S
C1857 H1844 0.929 . S
C1857 C1849 1.433 . S
C1857 N1859 1.384 . S
N1858 C1854 1.427 . S
N1858 C1855 1.384 . S
N1859 C1851 1.427 . S
N1859 C1857 1.384 . S
H1860 C1866 0.930 . S
H1861 C1870 0.930 . S
H1862 C1875 0.929 . S
H1863 C1873 0.929 . S
H1864 C1868 0.929 . S
H1865 C1874 0.929 . S
C1866 H1860 0.930 . S
C1866 C1867 1.367 . S
C1866 C1874 1.378 . S
C1867 C1866 1.367 . S
C1867 C1875 1.433 . S
C1868 H1864 0.929 . S
C1868 C1870 1.378 . S
C1868 C1872 1.350 . S
C1869 C1872 1.463 . S
C1869 C1874 1.350 . S
C1869 N1877 1.427 . S
C1870 H1861 0.930 . S
C1870 C1868 1.378 . S
C1870 C1871 1.367 . S
C1871 C1870 1.367 . S
C1871 C1873 1.433 . S
C1872 C1868 1.350 . S
C1872 C1869 1.463 . S
C1872 N1876 1.427 . S
C1873 H1863 0.929 . S
C1873 C1871 1.433 . S
C1873 N1876 1.384 . S
C1874 H1865 0.929 . S
C1874 C1866 1.378 . S
C1874 C1869 1.350 . S
C1875 H1862 0.929 . S
C1875 C1867 1.433 . S
C1875 N1877 1.384 . S
N1876 C1872 1.427 . S
N1876 C1873 1.384 . S
N1877 C1869 1.427 . S
N1877 C1875 1.384 . S
H1878 C1884 0.930 . S
H1879 C1888 0.930 . S
H1880 C1893 0.929 . S
H1881 C1891 0.929 . S
H1882 C1886 0.929 . S
H1883 C1892 0.929 . S
C1884 H1878 0.930 . S
C1884 C1885 1.367 . S
C1884 C1892 1.378 . S
C1885 C1884 1.367 . S
C1885 C1893 1.433 . S
C1886 H1882 0.929 . S
C1886 C1888 1.378 . S
C1886 C1890 1.350 . S
C1887 C1890 1.463 . S
C1887 C1892 1.350 . S
C1887 N1895 1.427 . S
C1888 H1879 0.930 . S
C1888 C1886 1.378 . S
C1888 C1889 1.367 . S
C1889 C1888 1.367 . S
C1889 C1891 1.433 . S
C1890 C1886 1.350 . S
C1890 C1887 1.463 . S
C1890 N1894 1.427 . S
C1891 H1881 0.929 . S
C1891 C1889 1.433 . S
C1891 N1894 1.384 . S
C1892 H1883 0.929 . S
C1892 C1884 1.378 . S
C1892 C1887 1.350 . S
C1893 H1880 0.929 . S
C1893 C1885 1.433 . S
C1893 N1895 1.384 . S
N1894 C1890 1.427 . S
N1894 C1891 1.384 . S
N1895 C1887 1.427 . S
N1895 C1893 1.384 . S
H1896 C1902 0.930 . S
H1897 C1906 0.930 . S
H1898 C1911 0.929 . S
H1899 C1909 0.929 . S
H1900 C1904 0.929 . S
H1901 C1910 0.929 . S
C1902 H1896 0.930 . S
C1902 C1903 1.367 . S
C1902 C1910 1.378 . S
C1903 C1902 1.367 . S
C1903 C1911 1.433 . S
C1904 H1900 0.929 . S
C1904 C1906 1.378 . S
C1904 C1908 1.350 . S
C1905 C1908 1.463 . S
C1905 C1910 1.350 . S
C1905 N1913 1.427 . S
C1906 H1897 0.930 . S
C1906 C1904 1.378 . S
C1906 C1907 1.367 . S
C1907 C1906 1.367 . S
C1907 C1909 1.433 . S
C1908 C1904 1.350 . S
C1908 C1905 1.463 . S
C1908 N1912 1.427 . S
C1909 H1899 0.929 . S
C1909 C1907 1.433 . S
C1909 N1912 1.384 . S
C1910 H1901 0.929 . S
C1910 C1902 1.378 . S
C1910 C1905 1.350 . S
C1911 H1898 0.929 . S
C1911 C1903 1.433 . S
C1911 N1913 1.384 . S
N1912 C1908 1.427 . S
N1912 C1909 1.384 . S
N1913 C1905 1.427 . S
N1913 C1911 1.384 . S
H1914 C1920 0.930 . S
H1915 C1924 0.930 . S
H1916 C1929 0.929 . S
H1917 C1927 0.929 . S
H1918 C1922 0.929 . S
H1919 C1928 0.929 . S
C1920 H1914 0.930 . S
C1920 C1921 1.367 . S
C1920 C1928 1.378 . S
C1921 C1920 1.367 . S
C1921 C1929 1.433 . S
C1922 H1918 0.929 . S
C1922 C1924 1.378 . S
C1922 C1926 1.350 . S
C1923 C1926 1.463 . S
C1923 C1928 1.350 . S
C1923 N1931 1.427 . S
C1924 H1915 0.930 . S
C1924 C1922 1.378 . S
C1924 C1925 1.367 . S
C1925 C1924 1.367 . S
C1925 C1927 1.433 . S
C1926 C1922 1.350 . S
C1926 C1923 1.463 . S
C1926 N1930 1.427 . S
C1927 H1917 0.929 . S
C1927 C1925 1.433 . S
C1927 N1930 1.384 . S
C1928 H1919 0.929 . S
C1928 C1920 1.378 . S
C1928 C1923 1.350 . S
C1929 H1916 0.929 . S
C1929 C1921 1.433 . S
C1929 N1931 1.384 . S
N1930 C1926 1.427 . S
N1930 C1927 1.384 . S
N1931 C1923 1.427 . S
N1931 C1929 1.384 . S
H1932 C1938 0.930 . S
H1933 C1942 0.930 . S
H1934 C1947 0.929 . S
H1935 C1945 0.929 . S
H1936 C1940 0.929 . S
H1937 C1946 0.929 . S
C1938 H1932 0.930 . S
C1938 C1939 1.367 . S
C1938 C1946 1.378 . S
C1939 C1938 1.367 . S
C1939 C1947 1.433 . S
C1940 H1936 0.929 . S
C1940 C1942 1.378 . S
C1940 C1944 1.350 . S
C1941 C1944 1.463 . S
C1941 C1946 1.350 . S
C1941 N1949 1.427 . S
C1942 H1933 0.930 . S
C1942 C1940 1.378 . S
C1942 C1943 1.367 . S
C1943 C1942 1.367 . S
C1943 C1945 1.433 . S
C1944 C1940 1.350 . S
C1944 C1941 1.463 . S
C1944 N1948 1.427 . S
C1945 H1935 0.929 . S
C1945 C1943 1.433 . S
C1945 N1948 1.384 . S
C1946 H1937 0.929 . S
C1946 C1938 1.378 . S
C1946 C1941 1.350 . S
C1947 H1934 0.929 . S
C1947 C1939 1.433 . S
C1947 N1949 1.384 . S
N1948 C1944 1.427 . S
N1948 C1945 1.384 . S
N1949 C1941 1.427 . S
N1949 C1947 1.384 . S
H1950 C1956 0.930 . S
H1951 C1960 0.930 . S
H1952 C1965 0.929 . S
H1953 C1963 0.929 . S
H1954 C1958 0.929 . S
H1955 C1964 0.929 . S
C1956 H1950 0.930 . S
C1956 C1957 1.367 . S
C1956 C1964 1.378 . S
C1957 C1956 1.367 . S
C1957 C1965 1.433 . S
C1958 H1954 0.929 . S
C1958 C1960 1.378 . S
C1958 C1962 1.350 . S
C1959 C1962 1.463 . S
C1959 C1964 1.350 . S
C1959 N1967 1.427 . S
C1960 H1951 0.930 . S
C1960 C1958 1.378 . S
C1960 C1961 1.367 . S
C1961 C1960 1.367 . S
C1961 C1963 1.433 . S
C1962 C1958 1.350 . S
C1962 C1959 1.463 . S
C1962 N1966 1.427 . S
C1963 H1953 0.929 . S
C1963 C1961 1.433 . S
C1963 N1966 1.384 . S
C1964 H1955 0.929 . S
C1964 C1956 1.378 . S
C1964 C1959 1.350 . S
C1965 H1952 0.929 . S
C1965 C1957 1.433 . S
C1965 N1967 1.384 . S
N1966 C1962 1.427 . S
N1966 C1963 1.384 . S
N1967 C1959 1.427 . S
N1967 C1965 1.384 . S
H1968 C1974 0.930 . S
H1969 C1978 0.930 . S
H1970 C1983 0.929 . S
H1971 C1981 0.929 . S
H1972 C1976 0.929 . S
H1973 C1982 0.929 . S
C1974 H1968 0.930 . S
C1974 C1975 1.407 . S
C1974 C1982 1.378 . S
C1975 C1974 1.407 . S
C1975 C1983 1.393 1_565 S
C1976 H1972 0.929 . S
C1976 C1978 1.378 . S
C1976 C1980 1.366 . S
C1977 C1980 1.460 1_565 S
C1977 C1982 1.377 . S
C1977 N1985 1.400 1_565 S
C1978 H1969 0.930 . S
C1978 C1976 1.378 . S
C1978 C1979 1.396 . S
C1979 C1978 1.396 . S
C1979 C1981 1.404 1_545 S
C1980 C1976 1.366 . S
C1980 C1977 1.460 1_545 S
C1980 N1984 1.411 1_545 S
C1981 H1971 0.929 . S
C1981 C1979 1.404 1_565 S
C1981 N1984 1.384 . S
C1982 H1973 0.929 . S
C1982 C1974 1.378 . S
C1982 C1977 1.377 . S
C1983 H1970 0.929 . S
C1983 C1975 1.393 1_545 S
C1983 N1985 1.384 . S
N1984 C1980 1.411 1_565 S
N1984 C1981 1.384 . S
N1985 C1977 1.400 1_545 S
N1985 C1983 1.384 . S
H1986 C1992 0.930 . S
H1987 C1996 0.930 . S
H1988 C2001 0.929 . S
H1989 C1999 0.929 . S
H1990 C1994 0.929 . S
H1991 C2000 0.929 . S
C1992 H1986 0.930 . S
C1992 C1993 1.367 . S
C1992 C2000 1.378 . S
C1993 C1992 1.367 . S
C1993 C2001 1.433 . S
C1994 H1990 0.929 . S
C1994 C1996 1.378 . S
C1994 C1998 1.350 . S
C1995 C1998 1.463 . S
C1995 C2000 1.350 . S
C1995 N2003 1.427 . S
C1996 H1987 0.930 . S
C1996 C1994 1.378 . S
C1996 C1997 1.367 . S
C1997 C1996 1.367 . S
C1997 C1999 1.433 . S
C1998 C1994 1.350 . S
C1998 C1995 1.463 . S
C1998 N2002 1.427 . S
C1999 H1989 0.929 . S
C1999 C1997 1.433 . S
C1999 N2002 1.384 . S
C2000 H1991 0.929 . S
C2000 C1992 1.378 . S
C2000 C1995 1.350 . S
C2001 H1988 0.929 . S
C2001 C1993 1.433 . S
C2001 N2003 1.384 . S
N2002 C1998 1.427 . S
N2002 C1999 1.384 . S
N2003 C1995 1.427 . S
N2003 C2001 1.384 . S
H2004 C2010 0.930 . S
H2005 C2014 0.930 . S
H2006 C2019 0.929 . S
H2007 C2017 0.929 . S
H2008 C2012 0.929 . S
H2009 C2018 0.929 . S
C2010 H2004 0.930 . S
C2010 C2011 1.367 . S
C2010 C2018 1.378 . S
C2011 C2010 1.367 . S
C2011 C2019 1.433 . S
C2012 H2008 0.929 . S
C2012 C2014 1.378 . S
C2012 C2016 1.350 . S
C2013 C2016 1.463 . S
C2013 C2018 1.350 . S
C2013 N2021 1.427 . S
C2014 H2005 0.930 . S
C2014 C2012 1.378 . S
C2014 C2015 1.367 . S
C2015 C2014 1.367 . S
C2015 C2017 1.433 . S
C2016 C2012 1.350 . S
C2016 C2013 1.463 . S
C2016 N2020 1.427 . S
C2017 H2007 0.929 . S
C2017 C2015 1.433 . S
C2017 N2020 1.384 . S
C2018 H2009 0.929 . S
C2018 C2010 1.378 . S
C2018 C2013 1.350 . S
C2019 H2006 0.929 . S
C2019 C2011 1.433 . S
C2019 N2021 1.384 . S
N2020 C2016 1.427 . S
N2020 C2017 1.384 . S
N2021 C2013 1.427 . S
N2021 C2019 1.384 . S
H2022 C2028 0.930 . S
H2023 C2032 0.930 . S
H2024 C2037 0.929 . S
H2025 C2035 0.929 . S
H2026 C2030 0.929 . S
H2027 C2036 0.929 . S
C2028 H2022 0.930 . S
C2028 C2029 1.405 . S
C2028 C2036 1.378 . S
C2029 C2028 1.405 . S
C2029 C2037 1.395 1_565 S
C2030 H2026 0.929 . S
C2030 C2032 1.378 . S
C2030 C2034 1.364 . S
C2031 C2034 1.461 1_565 S
C2031 C2036 1.375 . S
C2031 N2039 1.403 1_565 S
C2032 H2023 0.930 . S
C2032 C2030 1.378 . S
C2032 C2033 1.394 . S
C2033 C2032 1.394 . S
C2033 C2035 1.406 1_545 S
C2034 C2030 1.364 . S
C2034 C2031 1.461 1_545 S
C2034 N2038 1.413 1_545 S
C2035 H2025 0.929 . S
C2035 C2033 1.406 1_565 S
C2035 N2038 1.384 . S
C2036 H2027 0.929 . S
C2036 C2028 1.378 . S
C2036 C2031 1.375 . S
C2037 H2024 0.929 . S
C2037 C2029 1.395 1_545 S
C2037 N2039 1.384 . S
N2038 C2034 1.413 1_565 S
N2038 C2035 1.384 . S
N2039 C2031 1.403 1_545 S
N2039 C2037 1.384 . S
H2040 C2046 0.930 . S
H2041 C2050 0.930 . S
H2042 C2055 0.929 . S
H2043 C2053 0.929 . S
H2044 C2048 0.929 . S
H2045 C2054 0.929 . S
C2046 H2040 0.930 . S
C2046 C2047 1.374 . S
C2046 C2054 1.378 . S
C2047 C2046 1.374 . S
C2047 C2055 1.427 1_545 S
C2048 H2044 0.929 . S
C2048 C2050 1.378 . S
C2048 C2052 1.350 . S
C2049 C2052 1.462 1_545 S
C2049 C2054 1.353 . S
C2049 N2057 1.425 1_545 S
C2050 H2041 0.930 . S
C2050 C2048 1.378 . S
C2050 C2051 1.371 . S
C2051 C2050 1.371 . S
C2051 C2053 1.429 1_565 S
C2052 C2048 1.350 . S
C2052 C2049 1.462 1_565 S
C2052 N2056 1.427 1_565 S
C2053 H2043 0.929 . S
C2053 C2051 1.429 1_545 S
C2053 N2056 1.384 . S
C2054 H2045 0.929 . S
C2054 C2046 1.378 . S
C2054 C2049 1.353 . S
C2055 H2042 0.929 . S
C2055 C2047 1.427 1_565 S
C2055 N2057 1.384 . S
N2056 C2052 1.427 1_545 S
N2056 C2053 1.384 . S
N2057 C2049 1.425 1_565 S
N2057 C2055 1.384 . S
H2058 C2064 0.930 . S
H2059 C2068 0.930 . S
H2060 C2073 0.929 . S
H2061 C2071 0.929 . S
H2062 C2066 0.929 . S
H2063 C2072 0.929 . S
C2064 H2058 0.930 . S
C2064 C2065 1.367 . S
C2064 C2072 1.378 . S
C2065 C2064 1.367 . S
C2065 C2073 1.433 . S
C2066 H2062 0.929 . S
C2066 C2068 1.378 . S
C2066 C2070 1.350 . S
C2067 C2070 1.463 . S
C2067 C2072 1.350 . S
C2067 N2075 1.427 . S
C2068 H2059 0.930 . S
C2068 C2066 1.378 . S
C2068 C2069 1.367 . S
C2069 C2068 1.367 . S
C2069 C2071 1.433 . S
C2070 C2066 1.350 . S
C2070 C2067 1.463 . S
C2070 N2074 1.427 . S
C2071 H2061 0.929 . S
C2071 C2069 1.433 . S
C2071 N2074 1.384 . S
C2072 H2063 0.929 . S
C2072 C2064 1.378 . S
C2072 C2067 1.350 . S
C2073 H2060 0.929 . S
C2073 C2065 1.433 . S
C2073 N2075 1.384 . S
N2074 C2070 1.427 . S
N2074 C2071 1.384 . S
N2075 C2067 1.427 . S
N2075 C2073 1.384 . S
H2076 C2082 0.930 . S
H2077 C2086 0.930 . S
H2078 C2091 0.929 . S
H2079 C2089 0.929 . S
H2080 C2084 0.929 . S
H2081 C2090 0.929 . S
C2082 H2076 0.930 . S
C2082 C2083 1.367 . S
C2082 C2090 1.378 . S
C2083 C2082 1.367 . S
C2083 C2091 1.433 . S
C2084 H2080 0.929 . S
C2084 C2086 1.378 . S
C2084 C2088 1.350 . S
C2085 C2088 1.463 . S
C2085 C2090 1.350 . S
C2085 N2093 1.427 . S
C2086 H2077 0.930 . S
C2086 C2084 1.378 . S
C2086 C2087 1.367 . S
C2087 C2086 1.367 . S
C2087 C2089 1.433 . S
C2088 C2084 1.350 . S
C2088 C2085 1.463 . S
C2088 N2092 1.427 . S
C2089 H2079 0.929 . S
C2089 C2087 1.433 . S
C2089 N2092 1.384 . S
C2090 H2081 0.929 . S
C2090 C2082 1.378 . S
C2090 C2085 1.350 . S
C2091 H2078 0.929 . S
C2091 C2083 1.433 . S
C2091 N2093 1.384 . S
N2092 C2088 1.427 . S
N2092 C2089 1.384 . S
N2093 C2085 1.427 . S
N2093 C2091 1.384 . S
H2094 C2100 0.930 . S
H2095 C2104 0.930 . S
H2096 C2109 0.929 . S
H2097 C2107 0.929 . S
H2098 C2102 0.929 . S
H2099 C2108 0.929 . S
C2100 H2094 0.930 . S
C2100 C2101 1.424 . S
C2100 C2108 1.378 . S
C2101 C2100 1.424 . S
C2101 C2109 1.376 1_545 S
C2102 H2098 0.929 . S
C2102 C2104 1.378 . S
C2102 C2106 1.378 . S
C2103 C2106 1.459 1_545 S
C2103 C2108 1.393 . S
C2103 N2111 1.385 1_545 S
C2104 H2095 0.930 . S
C2104 C2102 1.378 . S
C2104 C2105 1.409 . S
C2105 C2104 1.409 . S
C2105 C2107 1.390 1_565 S
C2106 C2102 1.378 . S
C2106 C2103 1.459 1_565 S
C2106 N2110 1.399 1_565 S
C2107 H2097 0.929 . S
C2107 C2105 1.390 1_545 S
C2107 N2110 1.384 . S
C2108 H2099 0.929 . S
C2108 C2100 1.378 . S
C2108 C2103 1.393 . S
C2109 H2096 0.929 . S
C2109 C2101 1.376 1_565 S
C2109 N2111 1.384 . S
N2110 C2106 1.399 1_545 S
N2110 C2107 1.384 . S
N2111 C2103 1.385 1_565 S
N2111 C2109 1.384 . S
H2112 C2118 0.930 . S
H2113 C2122 0.930 . S
H2114 C2127 0.929 . S
H2115 C2125 0.929 . S
H2116 C2120 0.929 . S
H2117 C2126 0.929 . S
C2118 H2112 0.930 . S
C2118 C2119 1.367 . S
C2118 C2126 1.378 . S
C2119 C2118 1.367 . S
C2119 C2127 1.433 . S
C2120 H2116 0.929 . S
C2120 C2122 1.378 . S
C2120 C2124 1.350 . S
C2121 C2124 1.463 1_455 S
C2121 C2126 1.350 . S
C2121 N2129 1.427 . S
C2122 H2113 0.930 . S
C2122 C2120 1.378 . S
C2122 C2123 1.367 . S
C2123 C2122 1.367 . S
C2123 C2125 1.433 . S
C2124 C2120 1.350 . S
C2124 C2121 1.463 1_655 S
C2124 N2128 1.427 . S
C2125 H2115 0.929 . S
C2125 C2123 1.433 . S
C2125 N2128 1.384 . S
C2126 H2117 0.929 . S
C2126 C2118 1.378 . S
C2126 C2121 1.350 . S
C2127 H2114 0.929 . S
C2127 C2119 1.433 . S
C2127 N2129 1.384 . S
N2128 C2124 1.427 . S
N2128 C2125 1.384 . S
N2129 C2121 1.427 . S
N2129 C2127 1.384 . S
H2130 C2136 0.930 . S
H2131 C2140 0.930 1_655 S
H2132 C2145 0.929 . S
H2133 C2143 0.929 . S
H2134 C2138 0.929 . S
H2135 C2144 0.929 . S
C2136 H2130 0.930 . S
C2136 C2137 1.367 . S
C2136 C2144 1.378 . S
C2137 C2136 1.367 . S
C2137 C2145 1.433 . S
C2138 H2134 0.929 . S
C2138 C2140 1.378 . S
C2138 C2142 1.350 . S
C2139 C2142 1.463 . S
C2139 C2144 1.350 . S
C2139 N2147 1.427 . S
C2140 H2131 0.930 1_455 S
C2140 C2138 1.378 . S
C2140 C2141 1.367 1_455 S
C2141 C2140 1.367 1_655 S
C2141 C2143 1.433 1_655 S
C2142 C2138 1.350 . S
C2142 C2139 1.463 . S
C2142 N2146 1.427 . S
C2143 H2133 0.929 . S
C2143 C2141 1.433 1_455 S
C2143 N2146 1.384 . S
C2144 H2135 0.929 . S
C2144 C2136 1.378 . S
C2144 C2139 1.350 . S
C2145 H2132 0.929 . S
C2145 C2137 1.433 . S
C2145 N2147 1.384 . S
N2146 C2142 1.427 . S
N2146 C2143 1.384 . S
N2147 C2139 1.427 . S
N2147 C2145 1.384 . S
H2148 C2154 0.930 . S
H2149 C2158 0.930 . S
H2150 C2163 0.929 . S
H2151 C2161 0.929 . S
H2152 C2156 0.929 . S
H2153 C2162 0.929 . S
C2154 H2148 0.930 . S
C2154 C2155 1.367 . S
C2154 C2162 1.378 . S
C2155 C2154 1.367 . S
C2155 C2163 1.433 . S
C2156 H2152 0.929 . S
C2156 C2158 1.378 . S
C2156 C2160 1.350 . S
C2157 C2160 1.463 1_655 S
C2157 C2162 1.350 . S
C2157 N2165 1.427 . S
C2158 H2149 0.930 . S
C2158 C2156 1.378 . S
C2158 C2159 1.367 . S
C2159 C2158 1.367 . S
C2159 C2161 1.433 . S
C2160 C2156 1.350 . S
C2160 C2157 1.463 1_455 S
C2160 N2164 1.427 . S
C2161 H2151 0.929 . S
C2161 C2159 1.433 . S
C2161 N2164 1.384 . S
C2162 H2153 0.929 . S
C2162 C2154 1.378 . S
C2162 C2157 1.350 . S
C2163 H2150 0.929 . S
C2163 C2155 1.433 . S
C2163 N2165 1.384 . S
N2164 C2160 1.427 . S
N2164 C2161 1.384 . S
N2165 C2157 1.427 . S
N2165 C2163 1.384 . S
H2166 C2172 0.930 . S
H2167 C2176 0.930 . S
H2168 C2181 0.929 . S
H2169 C2179 0.929 . S
H2170 C2174 0.929 . S
H2171 C2180 0.929 . S
C2172 H2166 0.930 . S
C2172 C2173 1.367 1_455 S
C2172 C2180 1.378 . S
C2173 C2172 1.367 1_655 S
C2173 C2181 1.433 1_655 S
C2174 H2170 0.929 . S
C2174 C2176 1.378 . S
C2174 C2178 1.350 . S
C2175 C2178 1.463 . S
C2175 C2180 1.350 . S
C2175 N2183 1.427 . S
C2176 H2167 0.930 . S
C2176 C2174 1.378 . S
C2176 C2177 1.367 . S
C2177 C2176 1.367 . S
C2177 C2179 1.433 . S
C2178 C2174 1.350 . S
C2178 C2175 1.463 . S
C2178 N2182 1.427 . S
C2179 H2169 0.929 . S
C2179 C2177 1.433 . S
C2179 N2182 1.384 . S
C2180 H2171 0.929 . S
C2180 C2172 1.378 . S
C2180 C2175 1.350 . S
C2181 H2168 0.929 . S
C2181 C2173 1.433 1_455 S
C2181 N2183 1.384 . S
N2182 C2178 1.427 . S
N2182 C2179 1.384 . S
N2183 C2175 1.427 . S
N2183 C2181 1.384 . S
H2184 C2190 0.930 . S
H2185 C2194 0.930 . S
H2186 C2199 0.929 . S
H2187 C2197 0.929 . S
H2188 C2192 0.929 . S
H2189 C2198 0.929 . S
C2190 H2184 0.930 . S
C2190 C2191 1.367 . S
C2190 C2198 1.378 . S
C2191 C2190 1.367 . S
C2191 C2199 1.433 . S
C2192 H2188 0.929 . S
C2192 C2194 1.378 . S
C2192 C2196 1.350 . S
C2193 C2196 1.463 1_655 S
C2193 C2198 1.350 . S
C2193 N2201 1.427 . S
C2194 H2185 0.930 . S
C2194 C2192 1.378 . S
C2194 C2195 1.367 . S
C2195 C2194 1.367 . S
C2195 C2197 1.433 . S
C2196 C2192 1.350 . S
C2196 C2193 1.463 1_455 S
C2196 N2200 1.427 . S
C2197 H2187 0.929 . S
C2197 C2195 1.433 . S
C2197 N2200 1.384 . S
C2198 H2189 0.929 . S
C2198 C2190 1.378 . S
C2198 C2193 1.350 . S
C2199 H2186 0.929 . S
C2199 C2191 1.433 . S
C2199 N2201 1.384 . S
N2200 C2196 1.427 . S
N2200 C2197 1.384 . S
N2201 C2193 1.427 . S
N2201 C2199 1.384 . S
H2202 C2208 0.930 . S
H2203 C2212 0.930 . S
H2204 C2217 0.926 1_455 S
H2205 C2215 0.929 . S
H2206 C2210 0.929 . S
H2207 C2216 0.929 . S
C2208 H2202 0.930 . S
C2208 C2209 1.367 1_655 S
C2208 C2216 1.378 . S
C2209 C2208 1.367 1_455 S
C2209 C2217 1.433 1_455 S
C2210 H2206 0.929 . S
C2210 C2212 1.378 . S
C2210 C2214 1.350 . S
C2211 C2214 1.463 . S
C2211 C2216 1.350 . S
C2211 N2219 1.427 . S
C2212 H2203 0.930 . S
C2212 C2210 1.378 . S
C2212 C2213 1.367 . S
C2213 C2212 1.367 . S
C2213 C2215 1.433 . S
C2214 C2210 1.350 . S
C2214 C2211 1.463 . S
C2214 N2218 1.427 . S
C2215 H2205 0.929 . S
C2215 C2213 1.433 . S
C2215 N2218 1.384 . S
C2216 H2207 0.929 . S
C2216 C2208 1.378 . S
C2216 C2211 1.350 . S
C2217 H2204 0.926 1_655 S
C2217 C2209 1.433 1_655 S
C2217 N2219 1.384 . S
N2218 C2214 1.427 . S
N2218 C2215 1.384 . S
N2219 C2211 1.427 . S
N2219 C2217 1.384 . S
H2220 C2226 0.930 . S
H2221 C2230 0.930 . S
H2222 C2235 0.929 . S
H2223 C2233 0.929 . S
H2224 C2228 0.929 . S
H2225 C2234 0.929 . S
C2226 H2220 0.930 . S
C2226 C2227 1.367 . S
C2226 C2234 1.378 . S
C2227 C2226 1.367 . S
C2227 C2235 1.433 . S
C2228 H2224 0.929 . S
C2228 C2230 1.378 . S
C2228 C2232 1.350 . S
C2229 C2232 1.463 1_455 S
C2229 C2234 1.350 . S
C2229 N2237 1.427 . S
C2230 H2221 0.930 . S
C2230 C2228 1.378 . S
C2230 C2231 1.367 . S
C2231 C2230 1.367 . S
C2231 C2233 1.433 . S
C2232 C2228 1.350 . S
C2232 C2229 1.463 1_655 S
C2232 N2236 1.427 . S
C2233 H2223 0.929 . S
C2233 C2231 1.433 . S
C2233 N2236 1.384 . S
C2234 H2225 0.929 . S
C2234 C2226 1.378 . S
C2234 C2229 1.350 . S
C2235 H2222 0.929 . S
C2235 C2227 1.433 . S
C2235 N2237 1.384 . S
N2236 C2232 1.427 . S
N2236 C2233 1.384 . S
N2237 C2229 1.427 . S
N2237 C2235 1.384 . S
H2238 C2244 0.930 1_455 S
H2239 C2248 0.930 . S
H2240 C2253 0.929 . S
H2241 C2251 0.929 . S
H2242 C2246 0.929 . S
H2243 C2252 0.929 . S
C2244 H2238 0.930 1_655 S
C2244 C2245 1.367 1_655 S
C2244 C2252 1.378 . S
C2245 C2244 1.367 1_455 S
C2245 C2253 1.433 1_455 S
C2246 H2242 0.929 . S
C2246 C2248 1.378 . S
C2246 C2250 1.350 . S
C2247 C2250 1.463 . S
C2247 C2252 1.350 . S
C2247 N2255 1.427 . S
C2248 H2239 0.930 . S
C2248 C2246 1.378 . S
C2248 C2249 1.367 . S
C2249 C2248 1.367 . S
C2249 C2251 1.433 . S
C2250 C2246 1.350 . S
C2250 C2247 1.463 . S
C2250 N2254 1.427 . S
C2251 H2241 0.929 . S
C2251 C2249 1.433 . S
C2251 N2254 1.384 . S
C2252 H2243 0.929 . S
C2252 C2244 1.378 . S
C2252 C2247 1.350 . S
C2253 H2240 0.929 . S
C2253 C2245 1.433 1_655 S
C2253 N2255 1.384 . S
N2254 C2250 1.427 . S
N2254 C2251 1.384 . S
N2255 C2247 1.427 . S
N2255 C2253 1.384 . S
H2256 C2262 0.930 . S
H2257 C2266 0.930 . S
H2258 C2271 0.929 . S
H2259 C2269 0.929 . S
H2260 C2264 0.929 . S
H2261 C2270 0.929 . S
C2262 H2256 0.930 . S
C2262 C2263 1.407 . S
C2262 C2270 1.378 . S
C2263 C2262 1.407 . S
C2263 C2271 1.393 1_565 S
C2264 H2260 0.929 . S
C2264 C2266 1.378 . S
C2264 C2268 1.366 . S
C2265 C2268 1.460 1_665 S
C2265 C2270 1.377 . S
C2265 N2273 1.401 1_565 S
C2266 H2257 0.930 . S
C2266 C2264 1.378 . S
C2266 C2267 1.396 . S
C2267 C2266 1.396 . S
C2267 C2269 1.404 1_545 S
C2268 C2264 1.366 . S
C2268 C2265 1.460 1_445 S
C2268 N2272 1.412 1_545 S
C2269 H2259 0.929 . S
C2269 C2267 1.404 1_565 S
C2269 N2272 1.384 . S
C2270 H2261 0.929 . S
C2270 C2262 1.378 . S
C2270 C2265 1.377 . S
C2271 H2258 0.929 . S
C2271 C2263 1.393 1_545 S
C2271 N2273 1.384 . S
N2272 C2268 1.412 1_565 S
N2272 C2269 1.384 . S
N2273 C2265 1.401 1_545 S
N2273 C2271 1.384 . S
H2274 C2280 0.934 . S
H2275 C2284 0.930 . S
H2276 C2289 0.929 . S
H2277 C2287 0.929 . S
H2278 C2282 0.929 . S
H2279 C2288 0.929 . S
C2280 H2274 0.934 . S
C2280 C2281 1.367 1_455 S
C2280 C2288 1.378 . S
C2281 C2280 1.367 1_655 S
C2281 C2289 1.433 1_655 S
C2282 H2278 0.929 . S
C2282 C2284 1.378 . S
C2282 C2286 1.350 . S
C2283 C2286 1.463 . S
C2283 C2288 1.350 . S
C2283 N2291 1.427 . S
C2284 H2275 0.930 . S
C2284 C2282 1.378 . S
C2284 C2285 1.367 . S
C2285 C2284 1.367 . S
C2285 C2287 1.433 . S
C2286 C2282 1.350 . S
C2286 C2283 1.463 . S
C2286 N2290 1.427 . S
C2287 H2277 0.929 . S
C2287 C2285 1.433 . S
C2287 N2290 1.384 . S
C2288 H2279 0.929 . S
C2288 C2280 1.378 . S
C2288 C2283 1.350 . S
C2289 H2276 0.929 . S
C2289 C2281 1.433 1_455 S
C2289 N2291 1.384 . S
N2290 C2286 1.427 . S
N2290 C2287 1.384 . S
N2291 C2283 1.427 . S
N2291 C2289 1.384 . S
H2292 C2298 0.930 . S
H2293 C2302 0.930 . S
H2294 C2307 0.929 . S
H2295 C2305 0.929 . S
H2296 C2300 0.929 . S
H2297 C2306 0.929 . S
C2298 H2292 0.930 . S
C2298 C2299 1.367 . S
C2298 C2306 1.378 . S
C2299 C2298 1.367 . S
C2299 C2307 1.433 . S
C2300 H2296 0.929 . S
C2300 C2302 1.378 . S
C2300 C2304 1.350 . S
C2301 C2304 1.463 1_655 S
C2301 C2306 1.350 . S
C2301 N2309 1.427 . S
C2302 H2293 0.930 . S
C2302 C2300 1.378 . S
C2302 C2303 1.367 . S
C2303 C2302 1.367 . S
C2303 C2305 1.433 . S
C2304 C2300 1.350 . S
C2304 C2301 1.463 1_455 S
C2304 N2308 1.427 . S
C2305 H2295 0.929 . S
C2305 C2303 1.433 . S
C2305 N2308 1.384 . S
C2306 H2297 0.929 . S
C2306 C2298 1.378 . S
C2306 C2301 1.350 . S
C2307 H2294 0.929 . S
C2307 C2299 1.433 . S
C2307 N2309 1.384 . S
N2308 C2304 1.427 . S
N2308 C2305 1.384 . S
N2309 C2301 1.427 . S
N2309 C2307 1.384 . S
H2310 C2316 0.930 . S
H2311 C2320 0.936 . S
H2312 C2325 0.929 . S
H2313 C2323 0.929 . S
H2314 C2318 0.929 . S
H2315 C2324 0.929 . S
C2316 H2310 0.930 . S
C2316 C2317 1.358 1_545 S
C2316 C2324 1.378 . S
C2317 C2316 1.358 1_565 S
C2317 C2325 1.442 . S
C2318 H2314 0.929 . S
C2318 C2320 1.378 . S
C2318 C2322 1.377 . S
C2319 C2322 1.461 1_545 S
C2319 C2324 1.363 . S
C2319 N2327 1.414 1_545 S
C2320 H2311 0.936 . S
C2320 C2318 1.378 . S
C2320 C2321 1.372 1_465 S
C2321 C2320 1.372 1_645 S
C2321 C2323 1.428 1_655 S
C2322 C2318 1.377 . S
C2322 C2319 1.461 1_565 S
C2322 N2326 1.399 1_565 S
C2323 H2313 0.929 . S
C2323 C2321 1.428 1_455 S
C2323 N2326 1.384 . S
C2324 H2315 0.929 . S
C2324 C2316 1.378 . S
C2324 C2319 1.363 . S
C2325 H2312 0.929 . S
C2325 C2317 1.442 . S
C2325 N2327 1.384 . S
N2326 C2322 1.399 1_545 S
N2326 C2323 1.384 . S
N2327 C2319 1.414 1_565 S
N2327 C2325 1.384 . S
H2328 C2334 0.930 . S
H2329 C2338 0.930 . S
H2330 C2343 0.929 . S
H2331 C2341 0.929 . S
H2332 C2336 0.929 . S
H2333 C2342 0.929 . S
C2334 H2328 0.930 . S
C2334 C2335 1.400 . S
C2334 C2342 1.378 . S
C2335 C2334 1.400 . S
C2335 C2343 1.400 1_565 S
C2336 H2332 0.929 . S
C2336 C2338 1.378 . S
C2336 C2340 1.382 . S
C2337 C2340 1.460 1_665 S
C2337 C2342 1.370 . S
C2337 N2345 1.408 1_565 S
C2338 H2329 0.930 . S
C2338 C2336 1.378 . S
C2338 C2339 1.412 . S
C2339 C2338 1.412 . S
C2339 C2341 1.388 1_545 S
C2340 C2336 1.382 . S
C2340 C2337 1.460 1_445 S
C2340 N2344 1.396 1_545 S
C2341 H2331 0.929 . S
C2341 C2339 1.388 1_565 S
C2341 N2344 1.384 . S
C2342 H2333 0.929 . S
C2342 C2334 1.378 . S
C2342 C2337 1.370 . S
C2343 H2330 0.929 . S
C2343 C2335 1.400 1_545 S
C2343 N2345 1.384 . S
N2344 C2340 1.396 1_565 S
N2344 C2341 1.384 . S
N2345 C2337 1.408 1_545 S
N2345 C2343 1.384 . S
H2346 C2352 0.930 1_455 S
H2347 C2356 0.930 . S
H2348 C2361 0.929 . S
H2349 C2359 0.929 . S
H2350 C2354 0.929 . S
H2351 C2360 0.929 . S
C2352 H2346 0.930 1_655 S
C2352 C2353 1.367 1_655 S
C2352 C2360 1.378 . S
C2353 C2352 1.367 1_455 S
C2353 C2361 1.433 1_455 S
C2354 H2350 0.929 . S
C2354 C2356 1.378 . S
C2354 C2358 1.350 . S
C2355 C2358 1.463 . S
C2355 C2360 1.350 . S
C2355 N2363 1.427 . S
C2356 H2347 0.930 . S
C2356 C2354 1.378 . S
C2356 C2357 1.367 . S
C2357 C2356 1.367 . S
C2357 C2359 1.433 . S
C2358 C2354 1.350 . S
C2358 C2355 1.463 . S
C2358 N2362 1.427 . S
C2359 H2349 0.929 . S
C2359 C2357 1.433 . S
C2359 N2362 1.384 . S
C2360 H2351 0.929 . S
C2360 C2352 1.378 . S
C2360 C2355 1.350 . S
C2361 H2348 0.929 . S
C2361 C2353 1.433 1_655 S
C2361 N2363 1.384 . S
N2362 C2358 1.427 . S
N2362 C2359 1.384 . S
N2363 C2355 1.427 . S
N2363 C2361 1.384 . S
H2364 C2370 0.930 . S
H2365 C2374 0.930 . S
H2366 C2379 0.929 . S
H2367 C2377 0.929 . S
H2368 C2372 0.929 . S
H2369 C2378 0.929 . S
C2370 H2364 0.930 . S
C2370 C2371 1.367 . S
C2370 C2378 1.378 . S
C2371 C2370 1.367 . S
C2371 C2379 1.433 . S
C2372 H2368 0.929 . S
C2372 C2374 1.378 . S
C2372 C2376 1.350 . S
C2373 C2376 1.463 1_455 S
C2373 C2378 1.350 . S
C2373 N2381 1.427 . S
C2374 H2365 0.930 . S
C2374 C2372 1.378 . S
C2374 C2375 1.367 . S
C2375 C2374 1.367 . S
C2375 C2377 1.433 . S
C2376 C2372 1.350 . S
C2376 C2373 1.463 1_655 S
C2376 N2380 1.427 . S
C2377 H2367 0.929 . S
C2377 C2375 1.433 . S
C2377 N2380 1.384 . S
C2378 H2369 0.929 . S
C2378 C2370 1.378 . S
C2378 C2373 1.350 . S
C2379 H2366 0.929 . S
C2379 C2371 1.433 . S
C2379 N2381 1.384 . S
N2380 C2376 1.427 . S
N2380 C2377 1.384 . S
N2381 C2373 1.427 . S
N2381 C2379 1.384 . S
H2382 C2388 0.930 . S
H2383 C2392 0.928 1_455 S
H2384 C2397 0.929 . S
H2385 C2395 0.929 . S
H2386 C2390 0.929 . S
H2387 C2396 0.929 . S
C2388 H2382 0.930 . S
C2388 C2389 1.403 . S
C2388 C2396 1.378 . S
C2389 C2388 1.403 . S
C2389 C2397 1.397 1_545 S
C2390 H2386 0.929 . S
C2390 C2392 1.378 . S
C2390 C2394 1.363 . S
C2391 C2394 1.461 1_545 S
C2391 C2396 1.374 . S
C2391 N2399 1.404 1_545 S
C2392 H2383 0.928 1_655 S
C2392 C2390 1.378 . S
C2392 C2393 1.393 1_655 S
C2393 C2392 1.393 1_455 S
C2393 C2395 1.407 1_465 S
C2394 C2390 1.363 . S
C2394 C2391 1.461 1_565 S
C2394 N2398 1.414 1_565 S
C2395 H2385 0.929 . S
C2395 C2393 1.407 1_645 S
C2395 N2398 1.384 . S
C2396 H2387 0.929 . S
C2396 C2388 1.378 . S
C2396 C2391 1.374 . S
C2397 H2384 0.929 . S
C2397 C2389 1.397 1_565 S
C2397 N2399 1.384 . S
N2398 C2394 1.414 1_545 S
N2398 C2395 1.384 . S
N2399 C2391 1.404 1_565 S
N2399 C2397 1.384 . S
H2400 C2406 0.930 . S
H2401 C2410 0.930 . S
H2402 C2415 0.929 . S
H2403 C2413 0.929 . S
H2404 C2408 0.929 . S
H2405 C2414 0.929 . S
C2406 H2400 0.930 . S
C2406 C2407 1.367 1_655 S
C2406 C2414 1.378 . S
C2407 C2406 1.367 1_455 S
C2407 C2415 1.433 . S
C2408 H2404 0.929 . S
C2408 C2410 1.378 . S
C2408 C2412 1.350 . S
C2409 C2412 1.463 1_654 S
C2409 C2414 1.350 . S
C2409 N2417 1.427 1_655 S
C2410 H2401 0.930 . S
C2410 C2408 1.378 . S
C2410 C2411 1.367 1_455 S
C2411 C2410 1.367 1_655 S
C2411 C2413 1.433 . S
C2412 C2408 1.350 . S
C2412 C2409 1.463 1_456 S
C2412 N2416 1.427 1_455 S
C2413 H2403 0.929 . S
C2413 C2411 1.433 . S
C2413 N2416 1.384 . S
C2414 H2405 0.929 . S
C2414 C2406 1.378 . S
C2414 C2409 1.350 . S
C2415 H2402 0.929 . S
C2415 C2407 1.433 . S
C2415 N2417 1.384 . S
N2416 C2412 1.427 1_655 S
N2416 C2413 1.384 . S
N2417 C2409 1.427 1_455 S
N2417 C2415 1.384 . S
H2418 C2424 0.930 . S
H2419 C2428 0.930 . S
H2420 C2433 0.929 . S
H2421 C2431 0.929 . S
H2422 C2426 0.929 . S
H2423 C2432 0.929 . S
C2424 H2418 0.930 . S
C2424 C2425 1.367 . S
C2424 C2432 1.378 . S
C2425 C2424 1.367 . S
C2425 C2433 1.433 . S
C2426 H2422 0.929 . S
C2426 C2428 1.378 . S
C2426 C2430 1.350 . S
C2427 C2430 1.463 1_556 S
C2427 C2432 1.350 . S
C2427 N2435 1.427 . S
C2428 H2419 0.930 . S
C2428 C2426 1.378 . S
C2428 C2429 1.367 . S
C2429 C2428 1.367 . S
C2429 C2431 1.433 . S
C2430 C2426 1.350 . S
C2430 C2427 1.463 1_554 S
C2430 N2434 1.427 . S
C2431 H2421 0.929 . S
C2431 C2429 1.433 . S
C2431 N2434 1.384 . S
C2432 H2423 0.929 . S
C2432 C2424 1.378 . S
C2432 C2427 1.350 . S
C2433 H2420 0.929 . S
C2433 C2425 1.433 . S
C2433 N2435 1.384 . S
N2434 C2430 1.427 . S
N2434 C2431 1.384 . S
N2435 C2427 1.427 . S
N2435 C2433 1.384 . S
H2436 C2442 0.930 . S
H2437 C2446 0.930 . S
H2438 C2451 0.929 . S
H2439 C2449 0.929 . S
H2440 C2444 0.929 . S
H2441 C2450 0.929 . S
C2442 H2436 0.930 . S
C2442 C2443 1.367 1_455 S
C2442 C2450 1.378 . S
C2443 C2442 1.367 1_655 S
C2443 C2451 1.433 . S
C2444 H2440 0.929 . S
C2444 C2446 1.378 . S
C2444 C2448 1.350 . S
C2445 C2448 1.462 1_455 S
C2445 C2450 1.352 . S
C2445 N2453 1.426 1_455 S
C2446 H2437 0.930 . S
C2446 C2444 1.378 . S
C2446 C2447 1.367 1_655 S
C2447 C2446 1.367 1_455 S
C2447 C2449 1.433 . S
C2448 C2444 1.350 . S
C2448 C2445 1.462 1_655 S
C2448 N2452 1.428 1_655 S
C2449 H2439 0.929 . S
C2449 C2447 1.433 . S
C2449 N2452 1.384 . S
C2450 H2441 0.929 . S
C2450 C2442 1.378 . S
C2450 C2445 1.352 . S
C2451 H2438 0.929 . S
C2451 C2443 1.433 . S
C2451 N2453 1.384 . S
N2452 C2448 1.428 1_455 S
N2452 C2449 1.384 . S
N2453 C2445 1.426 1_655 S
N2453 C2451 1.384 . S
H2454 C2460 0.930 . S
H2455 C2464 0.930 . S
H2456 C2469 0.929 . S
H2457 C2467 0.929 . S
H2458 C2462 0.929 . S
H2459 C2468 0.929 . S
C2460 H2454 0.930 . S
C2460 C2461 1.367 . S
C2460 C2468 1.378 . S
C2461 C2460 1.367 . S
C2461 C2469 1.433 . S
C2462 H2458 0.929 . S
C2462 C2464 1.378 . S
C2462 C2466 1.350 . S
C2463 C2466 1.463 . S
C2463 C2468 1.350 . S
C2463 N2471 1.427 . S
C2464 H2455 0.930 . S
C2464 C2462 1.378 . S
C2464 C2465 1.367 . S
C2465 C2464 1.367 . S
C2465 C2467 1.433 . S
C2466 C2462 1.350 . S
C2466 C2463 1.463 . S
C2466 N2470 1.427 . S
C2467 H2457 0.929 . S
C2467 C2465 1.433 . S
C2467 N2470 1.384 . S
C2468 H2459 0.929 . S
C2468 C2460 1.378 . S
C2468 C2463 1.350 . S
C2469 H2456 0.929 . S
C2469 C2461 1.433 . S
C2469 N2471 1.384 . S
N2470 C2466 1.427 . S
N2470 C2467 1.384 . S
N2471 C2463 1.427 . S
N2471 C2469 1.384 . S
H2472 C2478 0.930 . S
H2473 C2482 0.930 . S
H2474 C2487 0.929 . S
H2475 C2485 0.929 . S
H2476 C2480 0.929 . S
H2477 C2486 0.929 . S
C2478 H2472 0.930 . S
C2478 C2479 1.367 . S
C2478 C2486 1.378 . S
C2479 C2478 1.367 . S
C2479 C2487 1.433 . S
C2480 H2476 0.929 . S
C2480 C2482 1.378 . S
C2480 C2484 1.350 . S
C2481 C2484 1.463 1_556 S
C2481 C2486 1.350 . S
C2481 N2489 1.427 . S
C2482 H2473 0.930 . S
C2482 C2480 1.378 . S
C2482 C2483 1.367 . S
C2483 C2482 1.367 . S
C2483 C2485 1.433 . S
C2484 C2480 1.350 . S
C2484 C2481 1.463 1_554 S
C2484 N2488 1.427 . S
C2485 H2475 0.929 . S
C2485 C2483 1.433 . S
C2485 N2488 1.384 . S
C2486 H2477 0.929 . S
C2486 C2478 1.378 . S
C2486 C2481 1.350 . S
C2487 H2474 0.929 . S
C2487 C2479 1.433 . S
C2487 N2489 1.384 . S
N2488 C2484 1.427 . S
N2488 C2485 1.384 . S
N2489 C2481 1.427 . S
N2489 C2487 1.384 . S
H2490 C2496 0.930 . S
H2491 C2500 0.930 . S
H2492 C2505 0.929 . S
H2493 C2503 0.929 . S
H2494 C2498 0.929 . S
H2495 C2504 0.929 . S
C2496 H2490 0.930 . S
C2496 C2497 1.367 1_455 S
C2496 C2504 1.378 . S
C2497 C2496 1.367 1_655 S
C2497 C2505 1.433 . S
C2498 H2494 0.929 . S
C2498 C2500 1.378 . S
C2498 C2502 1.350 1_655 S
C2499 C2502 1.462 1_655 S
C2499 C2504 1.348 1_655 S
C2499 N2507 1.429 . S
C2500 H2491 0.930 . S
C2500 C2498 1.378 . S
C2500 C2501 1.367 1_655 S
C2501 C2500 1.367 1_455 S
C2501 C2503 1.433 . S
C2502 C2498 1.350 1_455 S
C2502 C2499 1.462 1_455 S
C2502 N2506 1.427 . S
C2503 H2493 0.929 . S
C2503 C2501 1.433 . S
C2503 N2506 1.384 . S
C2504 H2495 0.929 . S
C2504 C2496 1.378 . S
C2504 C2499 1.348 1_455 S
C2505 H2492 0.929 . S
C2505 C2497 1.433 . S
C2505 N2507 1.384 . S
N2506 C2502 1.427 . S
N2506 C2503 1.384 . S
N2507 C2499 1.429 . S
N2507 C2505 1.384 . S
H2508 C2514 0.930 . S
H2509 C2518 0.930 . S
H2510 C2523 0.929 . S
H2511 C2521 0.929 . S
H2512 C2516 0.929 . S
H2513 C2522 0.929 . S
C2514 H2508 0.930 . S
C2514 C2515 1.367 . S
C2514 C2522 1.378 . S
C2515 C2514 1.367 . S
C2515 C2523 1.433 . S
C2516 H2512 0.929 . S
C2516 C2518 1.378 . S
C2516 C2520 1.350 . S
C2517 C2520 1.463 . S
C2517 C2522 1.350 . S
C2517 N2525 1.427 . S
C2518 H2509 0.930 . S
C2518 C2516 1.378 . S
C2518 C2519 1.367 . S
C2519 C2518 1.367 . S
C2519 C2521 1.433 . S
C2520 C2516 1.350 . S
C2520 C2517 1.463 . S
C2520 N2524 1.427 . S
C2521 H2511 0.929 . S
C2521 C2519 1.433 . S
C2521 N2524 1.384 . S
C2522 H2513 0.929 . S
C2522 C2514 1.378 . S
C2522 C2517 1.350 . S
C2523 H2510 0.929 . S
C2523 C2515 1.433 . S
C2523 N2525 1.384 . S
N2524 C2520 1.427 . S
N2524 C2521 1.384 . S
N2525 C2517 1.427 . S
N2525 C2523 1.384 . S
H2526 C2532 0.930 . S
H2527 C2536 0.930 . S
H2528 C2541 0.929 . S
H2529 C2539 0.929 . S
H2530 C2534 0.929 . S
H2531 C2540 0.929 . S
C2532 H2526 0.930 . S
C2532 C2533 1.410 1_655 S
C2532 C2540 1.378 . S
C2533 C2532 1.410 1_455 S
C2533 C2541 1.390 1_565 S
C2534 H2530 0.929 . S
C2534 C2536 1.378 . S
C2534 C2538 1.370 . S
C2535 C2538 1.460 1_665 S
C2535 C2540 1.373 . S
C2535 N2543 1.405 1_665 S
C2536 H2527 0.930 . S
C2536 C2534 1.378 . S
C2536 C2537 1.407 1_455 S
C2537 C2536 1.407 1_655 S
C2537 C2539 1.393 1_545 S
C2538 C2534 1.370 . S
C2538 C2535 1.460 1_445 S
C2538 N2542 1.408 1_445 S
C2539 H2529 0.929 . S
C2539 C2537 1.393 1_565 S
C2539 N2542 1.384 . S
C2540 H2531 0.929 . S
C2540 C2532 1.378 . S
C2540 C2535 1.373 . S
C2541 H2528 0.929 . S
C2541 C2533 1.390 1_545 S
C2541 N2543 1.384 . S
N2542 C2538 1.408 1_665 S
N2542 C2539 1.384 . S
N2543 C2535 1.405 1_445 S
N2543 C2541 1.384 . S
H2544 C2550 0.930 . S
H2545 C2554 0.930 . S
H2546 C2559 0.929 . S
H2547 C2557 0.929 . S
H2548 C2552 0.929 . S
H2549 C2558 0.929 . S
C2550 H2544 0.930 . S
C2550 C2551 1.367 . S
C2550 C2558 1.378 . S
C2551 C2550 1.367 . S
C2551 C2559 1.433 . S
C2552 H2548 0.929 . S
C2552 C2554 1.378 . S
C2552 C2556 1.350 . S
C2553 C2556 1.463 . S
C2553 C2558 1.350 . S
C2553 N2561 1.427 . S
C2554 H2545 0.930 . S
C2554 C2552 1.378 . S
C2554 C2555 1.367 . S
C2555 C2554 1.367 . S
C2555 C2557 1.433 . S
C2556 C2552 1.350 . S
C2556 C2553 1.463 . S
C2556 N2560 1.427 . S
C2557 H2547 0.929 . S
C2557 C2555 1.433 . S
C2557 N2560 1.384 . S
C2558 H2549 0.929 . S
C2558 C2550 1.378 . S
C2558 C2553 1.350 . S
C2559 H2546 0.929 . S
C2559 C2551 1.433 . S
C2559 N2561 1.384 . S
N2560 C2556 1.427 . S
N2560 C2557 1.384 . S
N2561 C2553 1.427 . S
N2561 C2559 1.384 . S
H2562 C2568 0.930 . S
H2563 C2572 0.930 . S
H2564 C2577 0.929 . S
H2565 C2575 0.929 . S
H2566 C2570 0.929 . S
H2567 C2576 0.929 . S
C2568 H2562 0.930 . S
C2568 C2569 1.401 . S
C2568 C2576 1.378 . S
C2569 C2568 1.401 . S
C2569 C2577 1.399 1_545 S
C2570 H2566 0.929 . S
C2570 C2572 1.378 . S
C2570 C2574 1.364 . S
C2571 C2574 1.461 1_545 S
C2571 C2576 1.367 . S
C2571 N2579 1.411 1_545 S
C2572 H2563 0.930 . S
C2572 C2570 1.378 . S
C2572 C2573 1.399 . S
C2573 C2572 1.399 . S
C2573 C2575 1.402 1_565 S
C2574 C2570 1.364 . S
C2574 C2571 1.461 1_565 S
C2574 N2578 1.414 1_565 S
C2575 H2565 0.929 . S
C2575 C2573 1.402 1_545 S
C2575 N2578 1.384 . S
C2576 H2567 0.929 . S
C2576 C2568 1.378 . S
C2576 C2571 1.367 . S
C2577 H2564 0.929 . S
C2577 C2569 1.399 1_565 S
C2577 N2579 1.384 . S
N2578 C2574 1.414 1_545 S
N2578 C2575 1.384 . S
N2579 C2571 1.411 1_565 S
N2579 C2577 1.384 . S
H2580 C2586 0.930 . S
H2581 C2590 0.930 . S
H2582 C2595 0.929 . S
H2583 C2593 0.929 . S
H2584 C2588 0.929 . S
H2585 C2594 0.929 . S
C2586 H2580 0.930 . S
C2586 C2587 1.367 . S
C2586 C2594 1.378 . S
C2587 C2586 1.367 . S
C2587 C2595 1.433 . S
C2588 H2584 0.929 . S
C2588 C2590 1.378 . S
C2588 C2592 1.350 . S
C2589 C2592 1.463 . S
C2589 C2594 1.350 . S
C2589 N2597 1.427 . S
C2590 H2581 0.930 . S
C2590 C2588 1.378 . S
C2590 C2591 1.367 . S
C2591 C2590 1.367 . S
C2591 C2593 1.433 . S
C2592 C2588 1.350 . S
C2592 C2589 1.463 . S
C2592 N2596 1.427 . S
C2593 H2583 0.929 . S
C2593 C2591 1.433 . S
C2593 N2596 1.384 . S
C2594 H2585 0.929 . S
C2594 C2586 1.378 . S
C2594 C2589 1.350 . S
C2595 H2582 0.929 . S
C2595 C2587 1.433 . S
C2595 N2597 1.384 . S
N2596 C2592 1.427 . S
N2596 C2593 1.384 . S
N2597 C2589 1.427 . S
N2597 C2595 1.384 . S
H2598 C2604 0.930 . S
H2599 C2608 0.930 . S
H2600 C2613 0.929 . S
H2601 C2611 0.929 . S
H2602 C2606 0.929 . S
H2603 C2612 0.929 . S
C2604 H2598 0.930 . S
C2604 C2605 1.351 1_545 S
C2604 C2612 1.378 . S
C2605 C2604 1.351 1_565 S
C2605 C2613 1.449 . S
C2606 H2602 0.929 . S
C2606 C2608 1.378 . S
C2606 C2610 1.366 . S
C2607 C2610 1.462 1_545 S
C2607 C2612 1.362 . S
C2607 N2615 1.414 1_545 S
C2608 H2599 0.930 . S
C2608 C2606 1.378 . S
C2608 C2609 1.354 1_565 S
C2609 C2608 1.354 1_545 S
C2609 C2611 1.446 . S
C2610 C2606 1.366 . S
C2610 C2607 1.462 1_565 S
C2610 N2614 1.411 1_565 S
C2611 H2601 0.929 . S
C2611 C2609 1.446 . S
C2611 N2614 1.384 . S
C2612 H2603 0.929 . S
C2612 C2604 1.378 . S
C2612 C2607 1.362 . S
C2613 H2600 0.929 . S
C2613 C2605 1.449 . S
C2613 N2615 1.384 . S
N2614 C2610 1.411 1_545 S
N2614 C2611 1.384 . S
N2615 C2607 1.414 1_565 S
N2615 C2613 1.384 . S
H2616 C2622 0.930 . S
H2617 C2626 0.930 . S
H2618 C2631 0.929 . S
H2619 C2629 0.929 . S
H2620 C2624 0.929 . S
H2621 C2630 0.929 . S
C2622 H2616 0.930 . S
C2622 C2623 1.367 . S
C2622 C2630 1.378 . S
C2623 C2622 1.367 . S
C2623 C2631 1.433 . S
C2624 H2620 0.929 . S
C2624 C2626 1.378 . S
C2624 C2628 1.350 . S
C2625 C2628 1.463 . S
C2625 C2630 1.350 . S
C2625 N2633 1.427 . S
C2626 H2617 0.930 . S
C2626 C2624 1.378 . S
C2626 C2627 1.367 . S
C2627 C2626 1.367 . S
C2627 C2629 1.433 . S
C2628 C2624 1.350 . S
C2628 C2625 1.463 . S
C2628 N2632 1.427 . S
C2629 H2619 0.929 . S
C2629 C2627 1.433 . S
C2629 N2632 1.384 . S
C2630 H2621 0.929 . S
C2630 C2622 1.378 . S
C2630 C2625 1.350 . S
C2631 H2618 0.929 . S
C2631 C2623 1.433 . S
C2631 N2633 1.384 . S
N2632 C2628 1.427 . S
N2632 C2629 1.384 . S
N2633 C2625 1.427 . S
N2633 C2631 1.384 . S
H2634 C2640 0.930 . S
H2635 C2644 0.930 . S
H2636 C2649 0.929 . S
H2637 C2647 0.929 . S
H2638 C2642 0.929 . S
H2639 C2648 0.929 . S
C2640 H2634 0.930 . S
C2640 C2641 1.367 . S
C2640 C2648 1.378 . S
C2641 C2640 1.367 . S
C2641 C2649 1.433 . S
C2642 H2638 0.929 . S
C2642 C2644 1.378 . S
C2642 C2646 1.350 . S
C2643 C2646 1.463 . S
C2643 C2648 1.350 . S
C2643 N2651 1.427 . S
C2644 H2635 0.930 . S
C2644 C2642 1.378 . S
C2644 C2645 1.367 . S
C2645 C2644 1.367 . S
C2645 C2647 1.433 . S
C2646 C2642 1.350 . S
C2646 C2643 1.463 . S
C2646 N2650 1.427 . S
C2647 H2637 0.929 . S
C2647 C2645 1.433 . S
C2647 N2650 1.384 . S
C2648 H2639 0.929 . S
C2648 C2640 1.378 . S
C2648 C2643 1.350 . S
C2649 H2636 0.929 . S
C2649 C2641 1.433 . S
C2649 N2651 1.384 . S
N2650 C2646 1.427 . S
N2650 C2647 1.384 . S
N2651 C2643 1.427 . S
N2651 C2649 1.384 . S
H2652 C2658 0.930 . S
H2653 C2662 0.930 . S
H2654 C2667 0.929 . S
H2655 C2665 0.929 . S
H2656 C2660 0.929 . S
H2657 C2666 0.929 . S
C2658 H2652 0.930 . S
C2658 C2659 1.367 . S
C2658 C2666 1.378 . S
C2659 C2658 1.367 . S
C2659 C2667 1.433 . S
C2660 H2656 0.929 . S
C2660 C2662 1.378 . S
C2660 C2664 1.350 . S
C2661 C2664 1.463 . S
C2661 C2666 1.350 . S
C2661 N2669 1.427 . S
C2662 H2653 0.930 . S
C2662 C2660 1.378 . S
C2662 C2663 1.367 . S
C2663 C2662 1.367 . S
C2663 C2665 1.433 . S
C2664 C2660 1.350 . S
C2664 C2661 1.463 . S
C2664 N2668 1.427 . S
C2665 H2655 0.929 . S
C2665 C2663 1.433 . S
C2665 N2668 1.384 . S
C2666 H2657 0.929 . S
C2666 C2658 1.378 . S
C2666 C2661 1.350 . S
C2667 H2654 0.929 . S
C2667 C2659 1.433 . S
C2667 N2669 1.384 . S
N2668 C2664 1.427 . S
N2668 C2665 1.384 . S
N2669 C2661 1.427 . S
N2669 C2667 1.384 . S
H2670 C2676 0.930 . S
H2671 C2680 0.930 . S
H2672 C2685 0.929 . S
H2673 C2683 0.929 . S
H2674 C2678 0.929 . S
H2675 C2684 0.929 . S
C2676 H2670 0.930 . S
C2676 C2677 1.427 . S
C2676 C2684 1.378 . S
C2677 C2676 1.427 . S
C2677 C2685 1.372 1_565 S
C2678 H2674 0.929 . S
C2678 C2680 1.378 . S
C2678 C2682 1.384 . S
C2679 C2682 1.459 1_564 S
C2679 C2684 1.387 . S
C2679 N2687 1.391 1_565 S
C2680 H2671 0.930 . S
C2680 C2678 1.378 . S
C2680 C2681 1.424 . S
C2681 C2680 1.424 . S
C2681 C2683 1.375 1_545 S
C2682 C2678 1.384 . S
C2682 C2679 1.459 1_546 S
C2682 N2686 1.393 1_545 S
C2683 H2673 0.929 . S
C2683 C2681 1.375 1_565 S
C2683 N2686 1.384 . S
C2684 H2675 0.929 . S
C2684 C2676 1.378 . S
C2684 C2679 1.387 . S
C2685 H2672 0.929 . S
C2685 C2677 1.372 1_545 S
C2685 N2687 1.384 . S
N2686 C2682 1.393 1_565 S
N2686 C2683 1.384 . S
N2687 C2679 1.391 1_545 S
N2687 C2685 1.384 . S
C967 N14 1.569 . S
C971 N764 1.577 . S
C985 N734 1.574 . S
C989 N44 1.572 . S
C1003 N824 1.570 . S
C1007 N74 1.576 . S
C1021 N104 1.570 . S
C1025 N794 1.577 . S
C1039 N126 1.567 . S
C1043 N876 1.577 . S
C1057 N156 1.577 . S
C1061 N846 1.568 . S
C1075 N186 1.575 . S
C1079 N936 1.571 . S
C1093 N906 1.568 . S
C1097 N216 1.574 . S
C1111 N254 1.575 . S
C1115 N524 1.566 . S
C1129 N284 1.567 . S
C1133 N494 1.577 . S
C1147 N314 1.578 . S
C1151 N584 1.568 . S
C1165 N554 1.577 . S
C1169 N344 1.565 . S
C1183 N366 1.567 . S
C1187 N636 1.575 . S
C1201 N396 1.577 . S
C1205 N606 1.569 . S
C1219 N696 1.575 . S
C1223 N426 1.568 . S
C1237 N456 1.568 . S
C1241 N666 1.572 . S
C1255 C10 1.536 . S
C1259 C100 1.533 . S
C1273 C40 1.533 . S
C1277 C70 1.530 . S
C1291 C211 1.531 . S
C1295 C121 1.533 . S
C1309 C181 1.535 . S
C1313 C151 1.532 . S
C1327 C250 1.536 . S
C1331 C340 1.536 . S
C1345 C280 1.533 . S
C1349 C310 1.535 . S
C1363 C361 1.535 . S
C1367 C451 1.535 . S
C1381 C421 1.535 . S
C1385 C391 1.532 . S
C1399 C490 1.531 . S
C1403 C580 1.533 . S
C1417 C520 1.533 . S
C1421 C550 1.531 . S
C1435 C691 1.534 . S
C1439 C601 1.536 . S
C1453 C631 1.531 . S
C1457 C661 1.534 . S
C1471 C820 1.535 . S
C1475 C730 1.535 . S
C1489 C760 1.533 . S
C1493 C790 1.530 . S
C1507 C931 1.538 . S
C1511 C841 1.538 . S
C1525 C901 1.530 . S
C1529 C871 1.533 . S
C1543 N36 1.391 . S
C1547 N6 1.401 . S
C1561 N66 1.393 . S
C1565 N96 1.403 . S
C1579 N164 1.395 . S
C1583 N134 1.404 . S
C1597 N224 1.390 . S
C1601 N194 1.400 . S
C1615 N246 1.390 . S
C1619 N276 1.401 . S
C1633 N306 1.392 . S
C1637 N336 1.396 . S
C1651 N404 1.399 . S
C1655 N374 1.406 . S
C1669 N434 1.391 . S
C1673 N464 1.397 . S
C1687 N486 1.392 . S
C1691 N516 1.394 . S
C1705 N576 1.397 . S
C1709 N546 1.404 . S
C1723 N614 1.393 . S
C1727 N644 1.404 . S
C1741 N674 1.396 . S
C1745 N704 1.404 . S
C1759 N726 1.404 . S
C1763 N756 1.395 . S
C1777 N786 1.393 . S
C1781 N816 1.405 . S
C1795 N884 1.399 . S
C1799 N854 1.392 . S
C1813 N914 1.396 . S
C1817 N944 1.406 . S
C1831 C27 1.382 . S
C1835 C16 1.382 . S
C1849 C57 1.382 . S
C1853 C46 1.382 1_655 S
C1867 C87 1.384 . S
C1871 C76 1.384 . S
C1885 C106 1.382 1_655 S
C1889 C117 1.382 . S
C1903 C147 1.382 . S
C1907 C136 1.382 . S
C1921 C166 1.383 . S
C1925 C177 1.383 1_455 S
C1939 C207 1.384 . S
C1943 C196 1.384 . S
C1957 C237 1.384 1_455 S
C1961 C226 1.384 . S
C1975 C256 1.382 . S
C1979 C267 1.382 . S
C1993 C297 1.384 . S
C1997 C286 1.384 1_655 S
C2011 C327 1.384 . S
C2015 C316 1.384 . S
C2029 C346 1.382 1_655 S
C2033 C357 1.382 . S
C2047 C387 1.382 . S
C2051 C376 1.382 . S
C2065 C406 1.382 . S
C2069 C417 1.382 1_455 S
C2083 C436 1.383 . S
C2087 C447 1.383 . S
C2101 C477 1.383 1_455 S
C2105 C466 1.383 . S
C2119 C507 1.384 . S
C2123 C496 1.384 . S
C2137 C526 1.383 . S
C2141 C537 1.383 . S
C2155 C556 1.382 . S
C2159 C567 1.382 . S
C2173 C597 1.383 . S
C2177 C586 1.383 . S
C2191 C616 1.382 . S
C2195 C627 1.382 . S
C2209 C646 1.384 . S
C2213 C657 1.384 . S
C2227 C687 1.383 . S
C2231 C676 1.383 . S
C2245 C706 1.383 . S
C2249 C717 1.383 . S
C2263 C736 1.382 . S
C2267 C747 1.382 . S
C2281 C777 1.383 . S
C2285 C766 1.383 . S
C2299 C796 1.382 . S
C2303 C807 1.382 . S
C2317 C826 1.383 . S
C2321 C837 1.383 . S
C2335 C856 1.384 . S
C2339 C867 1.384 . S
C2353 C886 1.382 . S
C2357 C897 1.382 . S
C2371 C927 1.383 . S
C2375 C916 1.383 . S
C2389 C957 1.382 . S
C2393 C946 1.382 . S
C2407 C1 1.508 . S
C2411 C130 1.508 . S
C2425 C880 1.511 . S
C2429 C31 1.511 . S
C2443 C430 1.511 . S
C2447 C61 1.511 . S
C2461 C91 1.508 . S
C2465 C700 1.508 . S
C2479 C160 1.511 . S
C2483 C751 1.511 . S
C2497 C190 1.511 . S
C2501 C301 1.511 . S
C2515 C220 1.511 . S
C2519 C571 1.511 . S
C2533 C241 1.513 . S
C2537 C370 1.513 . S
C2551 C640 1.507 . S
C2555 C271 1.507 . S
C2569 C940 1.512 . S
C2573 C331 1.512 . S
C2587 C400 1.507 . S
C2591 C511 1.507 . S
C2605 C811 1.511 . S
C2609 C460 1.511 . S
C2623 C481 1.510 . S
C2627 C610 1.510 . S
C2641 C910 1.509 . S
C2645 C541 1.509 . S
C2659 C670 1.507 . S
C2663 C781 1.507 . S
C2677 C721 1.513 . S
C2681 C850 1.513 . S
