# Generated by pormake.
# Topology thp-x, (12)-cn, num edge types: 1
# Building blocks:
#     Node 0, Type 0, BuildingBlock: ENOWUB_clean_sbu_0, # of connection points: 12
#     Node 1, Type 0, BuildingBlock: ENOWUB_clean_sbu_0, # of connection points: 12
#     Node 2, Type 0, BuildingBlock: ENOWUB_clean_sbu_0, # of connection points: 12
#     Node 3, Type 0, BuildingBlock: ENOWUB_clean_sbu_0, # of connection points: 12
#     Node 4, Type 0, BuildingBlock: ENOWUB_clean_sbu_0, # of connection points: 12
#     Node 5, Type 0, BuildingBlock: ENOWUB_clean_sbu_0, # of connection points: 12
#     Node 6, Type 0, BuildingBlock: ENOWUB_clean_sbu_0, # of connection points: 12
#     Node 7, Type 0, BuildingBlock: ENOWUB_clean_sbu_0, # of connection points: 12
#     Node 8, Type 0, BuildingBlock: ENOWUB_clean_sbu_0, # of connection points: 12
#     Node 9, Type 0, BuildingBlock: ENOWUB_clean_sbu_0, # of connection points: 12
#     Node 10, Type 0, BuildingBlock: ENOWUB_clean_sbu_0, # of connection points: 12
#     Node 11, Type 0, BuildingBlock: ENOWUB_clean_sbu_0, # of connection points: 12
#     Edge 12, Type (0, 0), BuildingBlock: XIVTED_clean_linker_0, # of connection points: 2
#     Edge 13, Type (0, 0), BuildingBlock: XIVTED_clean_linker_0, # of connection points: 2
#     Edge 14, Type (0, 0), BuildingBlock: XIVTED_clean_linker_0, # of connection points: 2
#     Edge 15, Type (0, 0), BuildingBlock: XIVTED_clean_linker_0, # of connection points: 2
#     Edge 16, Type (0, 0), BuildingBlock: XIVTED_clean_linker_0, # of connection points: 2
#     Edge 17, Type (0, 0), BuildingBlock: XIVTED_clean_linker_0, # of connection points: 2
#     Edge 18, Type (0, 0), BuildingBlock: XIVTED_clean_linker_0, # of connection points: 2
#     Edge 19, Type (0, 0), BuildingBlock: XIVTED_clean_linker_0, # of connection points: 2
#     Edge 20, Type (0, 0), BuildingBlock: XIVTED_clean_linker_0, # of connection points: 2
#     Edge 21, Type (0, 0), BuildingBlock: XIVTED_clean_linker_0, # of connection points: 2
#     Edge 22, Type (0, 0), BuildingBlock: XIVTED_clean_linker_0, # of connection points: 2
#     Edge 23, Type (0, 0), BuildingBlock: XIVTED_clean_linker_0, # of connection points: 2
#     Edge 24, Type (0, 0), BuildingBlock: XIVTED_clean_linker_0, # of connection points: 2
#     Edge 25, Type (0, 0), BuildingBlock: XIVTED_clean_linker_0, # of connection points: 2
#     Edge 26, Type (0, 0), BuildingBlock: XIVTED_clean_linker_0, # of connection points: 2
#     Edge 27, Type (0, 0), BuildingBlock: XIVTED_clean_linker_0, # of connection points: 2
#     Edge 28, Type (0, 0), BuildingBlock: XIVTED_clean_linker_0, # of connection points: 2
#     Edge 29, Type (0, 0), BuildingBlock: XIVTED_clean_linker_0, # of connection points: 2
#     Edge 30, Type (0, 0), BuildingBlock: XIVTED_clean_linker_0, # of connection points: 2
#     Edge 31, Type (0, 0), BuildingBlock: XIVTED_clean_linker_0, # of connection points: 2
#     Edge 32, Type (0, 0), BuildingBlock: XIVTED_clean_linker_0, # of connection points: 2
#     Edge 33, Type (0, 0), BuildingBlock: XIVTED_clean_linker_0, # of connection points: 2
#     Edge 34, Type (0, 0), BuildingBlock: XIVTED_clean_linker_0, # of connection points: 2
#     Edge 35, Type (0, 0), BuildingBlock: XIVTED_clean_linker_0, # of connection points: 2
#     Edge 36, Type (0, 0), BuildingBlock: XIVTED_clean_linker_0, # of connection points: 2
#     Edge 37, Type (0, 0), BuildingBlock: XIVTED_clean_linker_0, # of connection points: 2
#     Edge 38, Type (0, 0), BuildingBlock: XIVTED_clean_linker_0, # of connection points: 2
#     Edge 39, Type (0, 0), BuildingBlock: XIVTED_clean_linker_0, # of connection points: 2
#     Edge 40, Type (0, 0), BuildingBlock: XIVTED_clean_linker_0, # of connection points: 2
#     Edge 41, Type (0, 0), BuildingBlock: XIVTED_clean_linker_0, # of connection points: 2
#     Edge 42, Type (0, 0), BuildingBlock: XIVTED_clean_linker_0, # of connection points: 2
#     Edge 43, Type (0, 0), BuildingBlock: XIVTED_clean_linker_0, # of connection points: 2
#     Edge 44, Type (0, 0), BuildingBlock: XIVTED_clean_linker_0, # of connection points: 2
#     Edge 45, Type (0, 0), BuildingBlock: XIVTED_clean_linker_0, # of connection points: 2
#     Edge 46, Type (0, 0), BuildingBlock: XIVTED_clean_linker_0, # of connection points: 2
#     Edge 47, Type (0, 0), BuildingBlock: XIVTED_clean_linker_0, # of connection points: 2
#     Edge 48, Type (0, 0), BuildingBlock: XIVTED_clean_linker_0, # of connection points: 2
#     Edge 49, Type (0, 0), BuildingBlock: XIVTED_clean_linker_0, # of connection points: 2
#     Edge 50, Type (0, 0), BuildingBlock: XIVTED_clean_linker_0, # of connection points: 2
#     Edge 51, Type (0, 0), BuildingBlock: XIVTED_clean_linker_0, # of connection points: 2
#     Edge 52, Type (0, 0), BuildingBlock: XIVTED_clean_linker_0, # of connection points: 2
#     Edge 53, Type (0, 0), BuildingBlock: XIVTED_clean_linker_0, # of connection points: 2
#     Edge 54, Type (0, 0), BuildingBlock: XIVTED_clean_linker_0, # of connection points: 2
#     Edge 55, Type (0, 0), BuildingBlock: XIVTED_clean_linker_0, # of connection points: 2
#     Edge 56, Type (0, 0), BuildingBlock: XIVTED_clean_linker_0, # of connection points: 2
#     Edge 57, Type (0, 0), BuildingBlock: XIVTED_clean_linker_0, # of connection points: 2
#     Edge 58, Type (0, 0), BuildingBlock: XIVTED_clean_linker_0, # of connection points: 2
#     Edge 59, Type (0, 0), BuildingBlock: XIVTED_clean_linker_0, # of connection points: 2
#     Edge 60, Type (0, 0), BuildingBlock: XIVTED_clean_linker_0, # of connection points: 2
#     Edge 61, Type (0, 0), BuildingBlock: XIVTED_clean_linker_0, # of connection points: 2
#     Edge 62, Type (0, 0), BuildingBlock: XIVTED_clean_linker_0, # of connection points: 2
#     Edge 63, Type (0, 0), BuildingBlock: XIVTED_clean_linker_0, # of connection points: 2
#     Edge 64, Type (0, 0), BuildingBlock: XIVTED_clean_linker_0, # of connection points: 2
#     Edge 65, Type (0, 0), BuildingBlock: XIVTED_clean_linker_0, # of connection points: 2
#     Edge 66, Type (0, 0), BuildingBlock: XIVTED_clean_linker_0, # of connection points: 2
#     Edge 67, Type (0, 0), BuildingBlock: XIVTED_clean_linker_0, # of connection points: 2
#     Edge 68, Type (0, 0), BuildingBlock: XIVTED_clean_linker_0, # of connection points: 2
#     Edge 69, Type (0, 0), BuildingBlock: XIVTED_clean_linker_0, # of connection points: 2
#     Edge 70, Type (0, 0), BuildingBlock: XIVTED_clean_linker_0, # of connection points: 2
#     Edge 71, Type (0, 0), BuildingBlock: XIVTED_clean_linker_0, # of connection points: 2
#     Edge 72, Type (0, 0), BuildingBlock: XIVTED_clean_linker_0, # of connection points: 2
#     Edge 73, Type (0, 0), BuildingBlock: XIVTED_clean_linker_0, # of connection points: 2
#     Edge 74, Type (0, 0), BuildingBlock: XIVTED_clean_linker_0, # of connection points: 2
#     Edge 75, Type (0, 0), BuildingBlock: XIVTED_clean_linker_0, # of connection points: 2
#     Edge 76, Type (0, 0), BuildingBlock: XIVTED_clean_linker_0, # of connection points: 2
#     Edge 77, Type (0, 0), BuildingBlock: XIVTED_clean_linker_0, # of connection points: 2
#     Edge 78, Type (0, 0), BuildingBlock: XIVTED_clean_linker_0, # of connection points: 2
#     Edge 79, Type (0, 0), BuildingBlock: XIVTED_clean_linker_0, # of connection points: 2
#     Edge 80, Type (0, 0), BuildingBlock: XIVTED_clean_linker_0, # of connection points: 2
#     Edge 81, Type (0, 0), BuildingBlock: XIVTED_clean_linker_0, # of connection points: 2
#     Edge 82, Type (0, 0), BuildingBlock: XIVTED_clean_linker_0, # of connection points: 2
#     Edge 83, Type (0, 0), BuildingBlock: XIVTED_clean_linker_0, # of connection points: 2
# Relax obj value: 0.246
# Max RMSD: 0.289
# Mean RMSD: 0.289
data_MOF--net-thp-x--node1-ENOWUB_clean_sbu_0--edge1-XIVTED_clean_linker_0
_symmetry_space_group_name_H-M    P1
_symmetry_Int_Tables_number       1
_symmetry_cell_setting            triclinic
loop_
_symmetry_equiv_pos_as_xyz
'x, y, z'
_cell_length_a     34.881741
_cell_length_b     34.915187
_cell_length_c     34.919829
_cell_angle_alpha  89.928207
_cell_angle_beta   90.085865
_cell_angle_gamma 90.030186
loop_
_atom_site_label
_atom_site_type_symbol
_atom_site_fract_x
_atom_site_fract_y
_atom_site_fract_z
_atom_type_partial_charge
O0 O 0.91322 0.26936 0.32452 0.0
O1 O 0.99199 0.30629 0.34653 0.0
O2 O 0.97824 0.23489 0.42758 0.0
O3 O 0.98036 0.23059 0.34772 0.0
O4 O 0.98885 0.31036 0.42528 0.0
Zr5 Zr 0.94675 0.27569 0.38522 0.0
Zr6 Zr 0.03454 0.3396 0.386 0.0
Zr7 Zr 0.0249 0.26249 0.30722 0.0
O8 O 0.06501 0.29771 0.42749 0.0
O9 O 0.05455 0.21945 0.35034 0.0
O10 O 0.06752 0.29544 0.34757 0.0
Zr11 Zr 0.01977 0.26897 0.46871 0.0
Zr12 Zr 1.01082 0.18924 0.39124 0.0
Zr13 Zr 0.09675 0.25241 0.38935 0.0
O14 O 0.05323 0.22342 0.4311 0.0
O15 O 0.13412 0.25618 0.4458 0.0
O16 O 0.13002 0.23768 0.33031 0.0
O17 O 0.90789 0.28097 0.44129 0.0
O18 O 0.98819 0.20817 0.47969 0.0
O19 O 0.03272 0.33239 0.27886 0.0
O20 O 0.01808 0.19095 0.28347 0.0
O21 O 0.028 0.33262 0.49364 0.0
O22 O 0.10099 0.35735 0.37644 0.0
O23 O 0.94514 0.16895 0.38888 0.0
O24 O 0.06518 0.14734 0.39868 0.0
O25 O 0.97963 0.38192 0.38401 0.0
O26 O 0.09098 0.26188 0.49547 0.0
O27 O 0.96327 0.29119 0.29419 0.0
O28 O 0.08764 0.25054 0.2816 0.0
O29 O 0.94855 0.2772 0.49325 0.0
O30 O 0.92777 0.34182 0.38381 0.0
O31 O 0.11646 0.18763 0.40298 0.0
O32 O 0.14019 0.30507 0.37989 0.0
O33 O 0.90507 0.22057 0.39045 0.0
C34 C 0.93318 0.27092 0.29386 0.0
O35 O 0.04153 0.37512 0.44528 0.0
O36 O 0.03588 0.37591 0.32835 0.0
C37 C 0.12661 0.259 0.48145 0.0
C38 C 0.12056 0.23988 0.29473 0.0
C39 C 0.91372 0.28014 0.4775 0.0
C40 C 1.00712 0.17734 0.48245 0.0
C41 C 0.03495 0.36804 0.29261 0.0
C42 C 1.01455 0.15622 0.29914 0.0
C43 C 0.03721 0.36606 0.48078 0.0
C44 C 0.13402 0.3409 0.37457 0.0
C45 C 0.9117 0.18438 0.38964 0.0
C46 C 0.10081 0.15431 0.40467 0.0
C47 C 0.94338 0.37523 0.38417 0.0
O48 O 1.0113 0.15041 0.33518 0.0
O49 O 1.0097 0.15639 0.45256 0.0
O50 O 0.40476 0.78829 0.83319 0.0
O51 O 0.47998 0.80876 0.85307 0.0
O52 O 0.47009 0.73373 0.93213 0.0
O53 O 0.46759 0.73266 0.85366 0.0
O54 O 0.48048 0.8104 0.93315 0.0
Zr55 Zr 0.43693 0.77776 0.89345 0.0
Zr56 Zr 0.52421 0.84026 0.89249 0.0
Zr57 Zr 0.51047 0.76426 0.81237 0.0
O58 O 0.55563 0.7971 0.93128 0.0
O59 O 0.54365 0.72105 0.85254 0.0
O60 O 0.55481 0.79701 0.85159 0.0
Zr61 Zr 0.51238 0.76676 0.97335 0.0
Zr62 Zr 0.5007 0.68824 0.89272 0.0
Zr63 Zr 0.58694 0.75361 0.89129 0.0
O64 O 0.54412 0.72257 0.93244 0.0
O65 O 0.62653 0.75497 0.94664 0.0
O66 O 0.61671 0.74029 0.83006 0.0
O67 O 0.39977 0.78047 0.95043 0.0
O68 O 0.47925 0.70591 0.97875 0.0
O69 O 0.51699 0.83584 0.78669 0.0
O70 O 0.50515 0.6919 0.78788 0.0
O71 O 0.52477 0.82947 0.99972 0.0
O72 O 0.59044 0.85838 0.88369 0.0
O73 O 0.43586 0.69138 0.86877 0.0
O74 O 0.55604 0.64865 0.88079 0.0
O75 O 0.47047 0.88319 0.90083 0.0
O76 O 0.5843 0.75853 0.99747 0.0
O77 O 0.44811 0.77792 0.78474 0.0
O78 O 0.57162 0.75153 0.78322 0.0
O79 O 0.44223 0.77618 1.00089 0.0
O80 O 0.4185 0.84354 0.90379 0.0
O81 O 0.59253 0.68817 0.91317 0.0
O82 O 0.63053 0.80682 0.88681 0.0
O83 O 0.3935 0.72396 0.90011 0.0
C84 C 0.41471 0.78733 0.79775 0.0
O85 O 0.53832 0.87269 0.95205 0.0
O86 O 0.52259 0.87857 0.83662 0.0
C87 C 0.61966 0.75649 0.98261 0.0
C88 C 0.60538 0.74188 0.79493 0.0
C89 C 0.40686 0.77939 0.98634 0.0
C90 C 0.49722 0.67463 0.98239 0.0
C91 C 0.52004 0.87133 0.80089 0.0
C92 C 0.50083 0.65637 0.80194 0.0
C93 C 0.53577 0.86265 0.98743 0.0
C94 C 0.62393 0.8428 0.88306 0.0
C95 C 0.4077 0.69142 0.89153 0.0
C96 C 0.58949 0.66019 0.89016 0.0
C97 C 0.43453 0.87668 0.9057 0.0
O98 O 0.49712 0.64909 0.83768 0.0
O99 O 0.49917 0.6532 0.95282 0.0
O100 O 0.02515 0.70784 0.02875 0.0
O101 O 0.06094 0.73675 0.09632 0.0
O102 O 0.97013 0.7952 0.10355 0.0
O103 O 0.98519 0.72199 0.10057 0.0
O104 O 0.04626 0.81147 0.09916 0.0
Zr105 Zr 1.01365 0.76788 0.05978 0.0
Zr106 Zr 0.0933 0.78106 0.13603 0.0
Zr107 Zr 0.03267 0.69047 0.13556 0.0
O108 O 0.05073 0.80942 0.17786 0.0
O109 O 0.99057 0.71824 0.17969 0.0
O110 O 0.0663 0.73354 0.17527 0.0
Zr111 Zr 1.0027 0.83909 0.14158 0.0
Zr112 Zr 0.9427 0.74893 0.14491 0.0
Zr113 Zr 0.02435 0.76254 0.21864 0.0
O114 O 0.97637 0.7931 0.18272 0.0
O115 O 0.02087 0.83441 0.24418 0.0
O116 O 0.03074 0.68955 0.24019 0.0
O117 O 0.99685 0.82961 0.03398 0.0
O118 O 0.94122 0.834 0.17356 0.0
O119 O 0.09807 0.69344 0.15856 0.0
O120 O 0.98038 0.64507 0.13172 0.0
O121 O 0.05311 0.88536 0.13283 0.0
O122 O 0.12782 0.7916 0.1951 0.0
O123 O 0.90225 0.74859 0.08928 0.0
O124 O 0.91623 0.74429 0.20957 0.0
O125 O 0.12834 0.78673 0.0789 0.0
O126 O 1.00744 0.87816 0.19635 0.0
O127 O 0.04277 0.66194 0.07265 0.0
O128 O 0.03569 0.6484 0.18871 0.0
O129 O 0.98201 0.87062 0.08319 0.0
O130 O 0.08401 0.77681 0.03101 0.0
O131 O 0.96557 0.75331 0.2524 0.0
O132 O 0.08697 0.77726 0.2447 0.0
O133 O 0.94143 0.76092 0.03761 0.0
C134 C 0.03701 0.67417 0.03821 0.0
O135 O 0.10678 0.84848 0.12637 0.0
O136 O 0.13845 0.72911 0.12743 0.0
C137 C 0.01518 0.87012 0.23122 0.0
C138 C 0.03378 0.65454 0.22478 0.0
C139 C 0.98426 0.86162 0.04746 0.0
C140 C 0.90977 0.83298 0.15525 0.0
C141 C 0.12616 0.69567 0.13567 0.0
C142 C 0.9439 0.65019 0.13081 0.0
C143 C 0.08899 0.88084 0.1261 0.0
C144 C 0.11929 0.78891 0.23083 0.0
C145 C 0.90714 0.75454 0.05334 0.0
C146 C 0.93023 0.74693 0.24377 0.0
C147 C 0.1198 0.78295 0.04363 0.0
O148 O 0.92666 0.6824 0.13577 0.0
O149 O 0.89641 0.80012 0.14657 0.0
O150 O 0.27043 1.00498 0.19326 0.0
O151 O 0.34241 0.04722 0.22131 0.0
O152 O 0.34445 0.97922 0.30162 0.0
O153 O 0.3393 0.97026 0.22699 0.0
O154 O 0.34425 0.0551 0.29453 0.0
Zr155 Zr 0.30046 1.01353 0.26246 0.0
Zr156 Zr 0.38417 0.09029 0.25248 0.0
Zr157 Zr 0.37882 1.00432 0.18448 0.0
O158 O 0.42531 0.05561 0.29253 0.0
O159 O 0.42023 0.97037 0.22408 0.0
O160 O 0.42091 0.04749 0.21521 0.0
Zr161 Zr 0.38631 0.02061 0.33382 0.0
Zr162 Zr 0.38198 0.93577 0.26703 0.0
Zr163 Zr 0.46264 1.01303 0.25515 0.0
O164 O 0.42374 0.97835 0.29813 0.0
O165 O 0.49438 0.01751 0.31562 0.0
O166 O 0.48718 0.9993 0.19183 0.0
O167 O 0.2767 0.02311 0.33334 0.0
O168 O 0.39245 0.96491 0.37379 0.0
O169 O 0.37226 0.05963 0.14334 0.0
O170 O 0.37097 0.94002 0.16101 0.0
O171 O 0.38093 0.08444 0.35918 0.0
O172 O 0.43972 0.12887 0.25146 0.0
O173 O 0.32355 0.8983 0.26608 0.0
O174 O 0.4393 0.89888 0.26544 0.0
O175 O 0.32717 0.12969 0.25268 0.0
O176 O 0.4496 0.02147 0.36363 0.0
O177 O 0.32026 1.00298 0.14997 0.0
O178 O 0.43729 0.99336 0.14921 0.0
O179 O 0.32976 0.02099 0.37296 0.0
O180 O 0.30539 0.076 0.23309 0.0
O181 O 0.48896 0.94196 0.25919 0.0
O182 O 0.48889 0.08475 0.25113 0.0
O183 O 0.30328 0.95048 0.29092 0.0
C184 C 0.28448 1.00328 0.15763 0.0
O185 O 0.3851 0.12778 0.31041 0.0
O186 O 0.40412 0.09193 0.18606 0.0
C187 C 0.48433 0.02005 0.35098 0.0
C188 C 0.47294 0.99161 0.1585 0.0
C189 C 0.29337 0.0229 0.36782 0.0
C190 C 0.39522 0.92916 0.36589 0.0
C191 C 0.3803 0.09184 0.15857 0.0
C192 C 0.37573 0.90596 0.17422 0.0
C193 C 0.38103 0.11876 0.34581 0.0
C194 C 0.47538 0.1207 0.25097 0.0
C195 C 0.29528 0.92019 0.27285 0.0
C196 C 0.47502 0.90644 0.26231 0.0
C197 C 0.29863 0.10729 0.24991 0.0
O198 O 0.38186 0.89782 0.20956 0.0
O199 O 0.39137 0.91421 0.33236 0.0
O200 O 0.18859 0.28017 0.01572 0.0
O201 O 0.21575 0.34841 0.04971 0.0
O202 O 0.30398 0.34435 0.98929 0.0
O203 O 0.22852 0.34392 0.97604 0.0
O204 O 0.29145 0.34761 0.06434 0.0
Zr205 Zr 0.25994 0.30529 0.02255 0.0
Zr206 Zr 0.24686 0.38842 0.09268 0.0
Zr207 Zr 0.18552 0.3875 1.00326 0.0
O208 O 0.29223 0.42638 0.06119 0.0
O209 O 0.23116 0.42438 0.9719 0.0
O210 O 0.21687 0.42786 0.04705 0.0
Zr211 Zr 0.33518 0.38625 0.03096 0.0
Zr212 Zr 0.27353 0.3815 0.9428 0.0
Zr213 Zr 0.26244 0.4658 0.01541 0.0
O214 O 0.30558 0.42413 0.98434 0.0
O215 O 0.32388 0.49476 0.02825 0.0
O216 O 0.20205 0.49584 1.00071 0.0
O217 O 0.33036 0.27919 0.03292 0.0
O218 O 0.37904 0.38591 0.97736 0.0
O219 O 0.13932 0.3884 0.05448 0.0
O220 O 0.16773 0.37867 0.93728 0.0
O221 O 0.35297 0.38106 0.09737 0.0
O222 O 0.24699 0.44339 0.13139 0.0
O223 O 0.26855 0.31957 0.91118 0.0
O224 O 0.27657 0.43691 0.90311 0.0
O225 O 0.22952 0.32973 0.12559 0.0
O226 O 0.36767 0.44707 0.04016 0.0
O227 O 0.14774 0.33066 1.00372 0.0
O228 O 0.15621 0.44951 0.9908 0.0
O229 O 0.3728 0.32977 0.03512 0.0
O230 O 0.24574 0.28036 0.08514 0.0
O231 O 0.26933 0.48857 0.94346 0.0
O232 O 0.25717 0.49164 0.08723 0.0
O233 O 0.2884 0.28836 0.96188 0.0
C234 C 0.15377 0.295 1.00978 0.0
O235 O 0.3008 0.3872 0.13628 0.0
O236 O 0.18377 0.4174 0.08702 0.0
C237 C 0.35738 0.48245 0.03807 0.0
C238 C 0.16812 0.4845 0.99117 0.0
C239 C 0.36567 0.29387 0.03535 0.0
C240 C 0.37305 0.38459 0.94106 0.0
C241 C 0.15288 0.39809 0.08694 0.0
C242 C 0.18406 0.3783 0.90428 0.0
C243 C 0.33694 0.38277 0.13051 0.0
C244 C 0.25218 0.47863 0.12306 0.0
C245 C 0.2688 0.28886 0.93129 0.0
C246 C 0.27354 0.47296 0.90883 0.0
C247 C 0.23286 0.29399 0.11694 0.0
O248 O 0.22031 0.38126 0.89869 0.0
O249 O 0.33998 0.38189 0.9249 0.0
O250 O 0.58398 0.39928 0.24993 0.0
O251 O 0.60005 0.47017 0.29008 0.0
O252 O 0.67828 0.48085 0.2141 0.0
O253 O 0.59818 0.48024 0.21616 0.0
O254 O 0.67985 0.46996 0.2899 0.0
Zr255 Zr 0.64007 0.43786 0.24715 0.0
Zr256 Zr 0.63941 0.50334 0.33175 0.0
Zr257 Zr 0.55872 0.51369 0.25932 0.0
O258 O 0.67892 0.54609 0.29922 0.0
O259 O 0.59802 0.55723 0.22525 0.0
O260 O 0.59951 0.54769 0.30098 0.0
Zr261 Zr 0.71982 0.51293 0.25721 0.0
Zr262 Zr 0.63648 0.5233 0.18265 0.0
Zr263 Zr 0.63995 0.58966 0.2666 0.0
O264 O 0.67865 0.55515 0.22378 0.0
O265 O 0.70052 0.62407 0.26174 0.0
O266 O 0.58365 0.62789 0.26655 0.0
O267 O 0.70116 0.40544 0.23845 0.0
O268 O 0.74438 0.52266 0.18597 0.0
O269 O 0.53078 0.49864 0.32098 0.0
O270 O 0.52885 0.52166 0.19797 0.0
O271 O 0.74657 0.5081 0.32811 0.0
O272 O 0.63482 0.55852 0.3731 0.0
O273 O 0.62681 0.46879 0.14126 0.0
O274 O 0.6487 0.58759 0.16064 0.0
O275 O 0.65172 0.43879 0.35305 0.0
O276 O 0.72628 0.57422 0.28819 0.0
O277 O 0.53379 0.4419 0.25508 0.0
O278 O 0.53333 0.58524 0.26341 0.0
O279 O 0.74763 0.45069 0.24979 0.0
O280 O 0.6469 0.39715 0.30288 0.0
O281 O 0.64725 0.62954 0.21067 0.0
O282 O 0.63841 0.60979 0.33246 0.0
O283 O 0.62709 0.41781 0.18229 0.0
C284 C 0.54814 0.40646 0.25258 0.0
O285 O 0.69573 0.50551 0.37014 0.0
O286 O 0.57999 0.48773 0.36333 0.0
C287 C 0.7305 0.60419 0.26841 0.0
C288 C 0.54776 0.6207 0.26508 0.0
C289 C 0.73628 0.41651 0.24167 0.0
C290 C 0.7291 0.52263 0.15076 0.0
C291 C 0.54438 0.48792 0.35374 0.0
C292 C 0.53949 0.52896 0.16337 0.0
C293 C 0.73172 0.5069 0.3634 0.0
C294 C 0.6354 0.59465 0.36598 0.0
C295 C 0.6226 0.43307 0.14899 0.0
C296 C 0.65216 0.62125 0.17521 0.0
C297 C 0.65274 0.40502 0.33837 0.0
O298 O 0.57443 0.53156 0.15157 0.0
O299 O 0.69298 0.52108 0.14423 0.0
O300 O 0.74702 0.08449 0.90911 0.0
O301 O 0.79005 0.09802 0.98266 0.0
O302 O 0.71684 0.17826 0.99288 0.0
O303 O 0.7142 0.09955 0.99056 0.0
O304 O 0.79101 0.17661 0.98541 0.0
Zr305 Zr 0.74847 0.13963 0.94893 0.0
Zr306 Zr 0.83189 0.13528 0.01879 0.0
Zr307 Zr 0.75511 0.05747 0.02387 0.0
O308 O 0.79975 0.17435 0.0626 0.0
O309 O 0.72151 0.09693 0.06743 0.0
O310 O 0.79676 0.09609 0.06006 0.0
Zr311 Zr 0.75943 0.21716 0.02842 0.0
Zr312 Zr 0.68061 0.13844 0.03372 0.0
Zr313 Zr 0.76444 0.13514 0.10408 0.0
O314 O 0.72357 0.17647 0.06888 0.0
O315 O 0.75976 0.19481 0.13966 0.0
O316 O 0.76599 0.07692 0.13892 0.0
O317 O 0.74187 0.20245 0.9195 0.0
O318 O 0.68785 0.2433 0.03697 0.0
O319 O 0.81616 0.02816 1.01088 0.0
O320 O 0.69186 0.03068 0.02864 0.0
O321 O 0.83163 0.24092 0.02289 0.0
O322 O 0.87113 0.12353 0.0743 0.0
O323 O 0.64206 0.15372 0.97814 0.0
O324 O 0.67834 0.15934 0.0997 0.0
O325 O 0.83452 0.16351 0.95533 0.0
O326 O 0.78779 0.22217 0.09141 0.0
O327 O 0.75072 0.0339 0.95158 0.0
O328 O 0.76128 0.02868 0.09417 0.0
O329 O 0.75269 0.24702 0.96687 0.0
O330 O 0.80374 0.13697 0.90806 0.0
O331 O 0.70845 0.12751 0.14372 0.0
O332 O 0.82987 0.12507 0.12518 0.0
O333 O 0.68229 0.11996 0.94464 0.0
C334 C 0.74853 0.04851 0.91618 0.0
O335 O 0.87306 0.18929 0.0226 0.0
O336 O 0.86162 0.07492 1.00207 0.0
C337 C 0.76676 0.22533 0.1207 0.0
C338 C 0.76436 0.04147 0.13016 0.0
C339 C 0.74508 0.23703 0.93213 0.0
C340 C 0.6518 0.22983 0.03879 0.0
C341 C 0.85014 0.03983 1.00207 0.0
C342 C 0.65708 0.04264 0.03237 0.0
C343 C 0.86678 0.22544 0.02266 0.0
C344 C 0.8632 0.12004 0.11005 0.0
C345 C 0.65569 0.14465 0.94551 0.0
C346 C 0.67691 0.13571 0.12723 0.0
C347 C 0.83549 0.14364 0.92488 0.0
O348 O 0.64631 0.0779 0.03476 0.0
O349 O 0.6432 0.19425 0.03823 0.0
O350 O 0.2606 0.57739 0.40256 0.0
O351 O 0.30219 0.59575 0.47976 0.0
O352 O 0.22678 0.67461 0.48023 0.0
O353 O 0.225 0.59515 0.47935 0.0
O354 O 0.3012 0.67532 0.4797 0.0
Zr355 Zr 0.2634 0.63417 0.43994 0.0
Zr356 Zr 0.34173 0.63626 0.51702 0.0
Zr357 Zr 0.26398 0.55237 0.51588 0.0
O358 O 0.30108 0.67291 0.55667 0.0
O359 O 0.22578 0.59439 0.55335 0.0
O360 O 0.30271 0.59372 0.55408 0.0
Zr361 Zr 0.26372 0.71631 0.5195 0.0
Zr362 Zr 0.18574 0.63621 0.51784 0.0
Zr363 Zr 0.2642 0.63075 0.59529 0.0
O364 O 0.22598 0.67357 0.55736 0.0
O365 O 0.25866 0.68569 0.63659 0.0
O366 O 0.26779 0.5726 0.63022 0.0
O367 O 0.26849 0.69161 0.40203 0.0
O368 O 0.19315 0.74377 0.52756 0.0
O369 O 0.32957 0.55734 0.49414 0.0
O370 O 0.19807 0.55802 0.53614 0.0
O371 O 0.33415 0.74447 0.51319 0.0
O372 O 0.37628 0.64487 0.57601 0.0
O373 O 0.15358 0.6521 0.4589 0.0
O374 O 0.17098 0.64618 0.5848 0.0
O375 O 0.35526 0.65173 0.45087 0.0
O376 O 0.28412 0.70538 0.58463 0.0
O377 O 0.25679 0.52647 0.44479 0.0
O378 O 0.27101 0.52345 0.58601 0.0
O379 O 0.24254 0.71182 0.45376 0.0
O380 O 0.32235 0.62178 0.4066 0.0
O381 O 0.20501 0.61376 0.62658 0.0
O382 O 0.33089 0.61514 0.60728 0.0
O383 O 0.19678 0.61913 0.42808 0.0
C384 C 0.25759 0.5415 0.40946 0.0
O385 O 0.37746 0.6944 0.51496 0.0
O386 O 0.38058 0.57935 0.52057 0.0
C387 C 0.26555 0.71377 0.6146 0.0
C388 C 0.27065 0.53705 0.62192 0.0
C389 C 0.26257 0.71953 0.4245 0.0
C390 C 0.15742 0.72959 0.52641 0.0
C391 C 0.35905 0.55068 0.51433 0.0
C392 C 0.16892 0.55092 0.51568 0.0
C393 C 0.36983 0.73021 0.513 0.0
C394 C 0.3578 0.63975 0.60708 0.0
C395 C 0.17096 0.64474 0.42768 0.0
C396 C 0.17308 0.61958 0.60965 0.0
C397 C 0.354 0.62707 0.42415 0.0
O398 O 0.14725 0.5794 0.5091 0.0
O399 O 0.14975 0.69395 0.52242 0.0
O400 O 0.77976 0.51621 0.68647 0.0
O401 O 0.84804 0.55367 0.71313 0.0
O402 O 0.84826 0.49172 0.79892 0.0
O403 O 0.84434 0.47957 0.72402 0.0
O404 O 0.8493 0.56752 0.78805 0.0
Zr405 Zr 0.80646 0.52491 0.75748 0.0
Zr406 Zr 0.88913 0.59621 0.74264 0.0
Zr407 Zr 0.88608 0.50938 0.68091 0.0
O408 O 0.92995 0.5639 0.78476 0.0
O409 O 0.92487 0.47617 0.72309 0.0
O410 O 0.92848 0.55291 0.70912 0.0
Zr411 Zr 0.89075 0.53343 0.829 0.0
Zr412 Zr 0.88436 0.44571 0.76673 0.0
Zr413 Zr 0.96798 0.51884 0.75221 0.0
O414 O 0.92766 0.48776 0.79685 0.0
O415 O 0.99861 0.52704 0.81312 0.0
O416 O 0.99423 0.49971 0.69092 0.0
O417 O 0.78248 0.53149 0.82885 0.0
O418 O 0.89 0.4796 0.87228 0.0
O419 O 0.88776 0.56308 0.63728 0.0
O420 O 0.87462 0.44452 0.66083 0.0
O421 O 0.88959 0.5991 0.84897 0.0
O422 O 0.94572 0.63319 0.739 0.0
O423 O 0.82301 0.41284 0.76424 0.0
O424 O 0.9402 0.40647 0.76933 0.0
O425 O 0.82951 0.63035 0.73283 0.0
O426 O 0.95326 0.53608 0.85983 0.0
O427 O 0.82959 0.51011 0.64363 0.0
O428 O 0.94445 0.49096 0.64872 0.0
O429 O 0.83493 0.53649 0.86876 0.0
O430 O 0.78068 0.58787 0.74513 0.0
O431 O 0.99131 0.44696 0.75892 0.0
O432 O 0.99501 0.58985 0.74602 0.0
O433 O 0.79576 0.46361 0.78795 0.0
C434 C 0.79388 0.51263 0.65098 0.0
O435 O 0.89137 0.63902 0.79721 0.0
O436 O 0.89177 0.61516 0.67644 0.0
C437 C 0.98813 0.53324 0.84794 0.0
C438 C 0.97996 0.4889 0.65847 0.0
C439 C 0.79861 0.53445 0.86344 0.0
C440 C 0.88881 0.44337 0.86618 0.0
C441 C 0.88978 0.59934 0.64323 0.0
C442 C 0.88008 0.41118 0.67552 0.0
C443 C 0.8904 0.63249 0.83345 0.0
C444 C 0.98135 0.62545 0.74193 0.0
C445 C 0.79294 0.43338 0.76818 0.0
C446 C 0.97611 0.4123 0.76461 0.0
C447 C 0.79389 0.62091 0.73485 0.0
O448 O 0.88629 0.40474 0.71122 0.0
O449 O 0.88634 0.42732 0.8331 0.0
O450 O 0.69207 0.78175 0.51571 0.0
O451 O 0.71778 0.8477 0.55212 0.0
O452 O 0.80935 0.84723 0.49458 0.0
O453 O 0.73318 0.8462 0.47733 0.0
O454 O 0.79393 0.84797 0.5677 0.0
Zr455 Zr 0.76341 0.80728 0.52347 0.0
Zr456 Zr 0.7482 0.88655 0.59732 0.0
Zr457 Zr 0.68872 0.88794 0.50574 0.0
O458 O 0.79367 0.92685 0.56879 0.0
O459 O 0.73498 0.9261 0.47711 0.0
O460 O 0.71854 0.9266 0.55202 0.0
Zr461 Zr 0.83848 0.88875 0.53841 0.0
Zr462 Zr 0.77973 0.88501 0.44894 0.0
Zr463 Zr 0.7637 0.96645 0.52294 0.0
O464 O 0.80917 0.92722 0.49229 0.0
O465 O 0.82421 0.99664 0.53424 0.0
O466 O 0.7029 0.99555 0.50944 0.0
O467 O 0.83514 0.78254 0.5295 0.0
O468 O 0.88397 0.89073 0.48627 0.0
O469 O 0.64139 0.88806 0.55607 0.0
O470 O 0.67458 0.87993 0.4387 0.0
O471 O 0.85426 0.87932 0.60488 0.0
O472 O 0.74752 0.94064 0.63792 0.0
O473 O 0.79089 0.82345 0.41855 0.0
O474 O 0.78023 0.94074 0.40995 0.0
O475 O 0.73243 0.82591 0.62798 0.0
O476 O 0.86962 0.95069 0.54674 0.0
O477 O 0.65058 0.83156 0.50354 0.0
O478 O 0.65796 0.94956 0.49515 0.0
O479 O 0.877 0.83257 0.53989 0.0
O480 O 0.74965 0.77937 0.58483 0.0
O481 O 0.76827 0.99077 0.45115 0.0
O482 O 0.75754 0.99025 0.59527 0.0
O483 O 0.7772 0.77735 0.46338 0.0
C484 C 0.65709 0.79595 0.50908 0.0
O485 O 0.80075 0.8813 0.64251 0.0
O486 O 0.68551 0.91589 0.58981 0.0
C487 C 0.85827 0.98572 0.5435 0.0
C488 C 0.66938 0.98453 0.49827 0.0
C489 C 0.87028 0.7969 0.53491 0.0
C490 C 0.87906 0.89281 0.44985 0.0
C491 C 0.65474 0.89649 0.589 0.0
C492 C 0.69237 0.87759 0.40652 0.0
C493 C 0.83702 0.87717 0.63738 0.0
C494 C 0.75241 0.97623 0.63067 0.0
C495 C 0.7879 0.78841 0.42981 0.0
C496 C 0.77408 0.97625 0.41625 0.0
C497 C 0.7369 0.79074 0.61759 0.0
O498 O 0.72886 0.87996 0.4023 0.0
O499 O 0.84637 0.89182 0.43275 0.0
O500 O 0.0796 0.90481 0.74916 0.0
O501 O 0.09629 0.97681 0.79384 0.0
O502 O 0.17616 0.98388 0.71975 0.0
O503 O 0.09635 0.98316 0.71998 0.0
O504 O 0.17609 0.97669 0.79578 0.0
Zr505 Zr 0.13702 0.94104 0.75351 0.0
Zr506 Zr 0.13481 1.01039 0.83635 0.0
Zr507 Zr 0.05518 0.01883 0.76044 0.0
O508 O 0.17552 0.05219 0.8035 0.0
O509 O 0.09682 0.06026 0.72654 0.0
O510 O 0.09574 0.05221 0.80246 0.0
Zr511 Zr 0.21682 0.01859 0.76174 0.0
Zr512 Zr 0.13607 0.02517 0.6852 0.0
Zr513 Zr 0.13677 0.09339 0.76915 0.0
O514 O 0.17606 0.05957 0.72724 0.0
O515 O 0.19738 0.12474 0.78325 0.0
O516 O 0.08063 0.13191 0.76394 0.0
O517 O 0.19774 0.90823 0.76471 0.0
O518 O 0.24374 0.02407 0.69104 0.0
O519 O 0.02685 1.00853 0.82275 0.0
O520 O 0.04855 0.04805 0.69823 0.0
O521 O 0.24012 1.01054 0.83432 0.0
O522 O 0.12326 0.06605 0.87559 0.0
O523 O 0.13469 0.96875 0.64582 0.0
O524 O 0.1462 0.08999 0.66291 0.0
O525 O 0.15678 0.94529 0.8446 0.0
O526 O 0.24509 0.08058 0.77264 0.0
O527 O 0.02933 0.94785 0.75028 0.0
O528 O 0.02943 0.09004 0.76475 0.0
O529 O 0.22673 0.95539 0.73587 0.0
O530 O 0.12463 0.90365 0.81029 0.0
O531 O 0.14955 0.13181 0.71324 0.0
O532 O 0.1216 0.11564 0.83291 0.0
O533 O 0.13429 0.91861 0.68811 0.0
C534 C 0.04374 0.91231 0.74846 0.0
O535 O 0.18915 1.01378 0.87645 0.0
O536 O 0.07441 0.99597 0.86672 0.0
C537 C 0.23277 0.11412 0.78208 0.0
C538 C 0.04454 0.12527 0.76411 0.0
C539 C 0.22866 0.9268 0.75804 0.0
C540 C 0.2292 0.02411 0.65557 0.0
C541 C 0.03912 0.99839 0.85619 0.0
C542 C 0.04513 0.02726 0.66887 0.0
C543 C 0.22507 1.01153 0.86971 0.0
C544 C 0.11761 0.10135 0.86671 0.0
C545 C 0.13254 0.93304 0.65416 0.0
C546 C 0.15245 0.12329 0.67759 0.0
C547 C 0.13376 0.91715 0.84304 0.0
O548 O 0.07567 0.01939 0.65036 0.0
O549 O 0.19327 0.02372 0.64831 0.0
O550 O 0.55065 0.20123 0.55609 0.0
O551 O 0.56341 0.23263 0.59773 0.0
O552 O 0.47912 0.29586 0.59794 0.0
O553 O 0.49035 0.21967 0.59713 0.0
O554 O 0.55302 0.30757 0.59545 0.0
Zr555 Zr 0.52068 0.26366 0.55491 0.0
Zr556 Zr 0.59661 0.27631 0.63603 0.0
Zr557 Zr 0.53457 0.18694 0.63754 0.0
O558 O 0.55483 0.30909 0.67618 0.0
O559 O 0.49184 0.22026 0.67766 0.0
O560 O 0.56746 0.23128 0.67664 0.0
Zr561 Zr 0.51058 0.34057 0.63631 0.0
Zr562 Zr 0.44824 0.25223 0.63812 0.0
Zr563 Zr 0.52447 0.26426 0.71695 0.0
O564 O 0.48059 0.29635 0.67684 0.0
O565 O 0.51831 0.33544 0.74287 0.0
O566 O 0.52925 0.19294 0.7437 0.0
O567 O 0.48915 0.32526 0.55454 0.0
O568 O 0.44371 0.35759 0.64504 0.0
O569 O 0.60164 0.17029 0.6369 0.0
O570 O 0.47948 0.14701 0.65042 0.0
O571 O 0.56515 0.38166 0.62737 0.0
O572 O 0.62976 0.288 0.69637 0.0
O573 O 0.40853 0.2541 0.58244 0.0
O574 O 0.41735 0.24141 0.69964 0.0
O575 O 0.6328 0.27616 0.57787 0.0
O576 O 0.51266 0.3781 0.69283 0.0
O577 O 0.52819 0.14915 0.57979 0.0
O578 O 0.54096 0.15071 0.69458 0.0
O579 O 0.50965 0.37824 0.57797 0.0
O580 O 0.5903 0.27457 0.52709 0.0
O581 O 0.46296 0.25376 0.74562 0.0
O582 O 0.58633 0.27715 0.74459 0.0
O583 O 0.44944 0.25448 0.53033 0.0
C584 C 0.53238 0.17049 0.55056 0.0
O585 O 0.61629 0.34127 0.62253 0.0
O586 O 0.64054 0.22301 0.63712 0.0
C587 C 0.51527 0.37087 0.72859 0.0
C588 C 0.53546 0.15768 0.73005 0.0
C589 C 0.5063 0.35664 0.54885 0.0
C590 C 0.41085 0.34093 0.64841 0.0
C591 C 0.63475 0.18669 0.63758 0.0
C592 C 0.44633 0.15921 0.64089 0.0
C593 C 0.60055 0.37454 0.62054 0.0
C594 C 0.61973 0.28662 0.73188 0.0
C595 C 0.41449 0.25412 0.54621 0.0
C596 C 0.42888 0.24454 0.73462 0.0
C597 C 0.6257 0.27621 0.54185 0.0
O598 O 0.44427 0.18655 0.61703 0.0
O599 O 0.40464 0.30488 0.64502 0.0
H600 H 0.17336 0.41048 0.16058 0.0
H601 H 0.12244 0.20031 0.22744 0.0
H602 H 0.12034 0.32668 0.08672 0.0
H603 H 0.18659 0.28042 0.29553 0.0
H604 H 0.13073 0.24152 0.1718 0.0
H605 H 0.17943 0.36193 0.21032 0.0
C606 C 0.16241 0.38194 0.15514 0.0
C607 C 0.14702 0.37221 0.11937 0.0
C608 C 0.14391 0.2497 0.19867 0.0
C609 C 0.15476 0.31649 0.17546 0.0
C610 C 0.14045 0.22548 0.23007 0.0
C611 C 0.15096 0.23914 0.2663 0.0
C612 C 0.16013 0.2861 0.20402 0.0
C613 C 0.1759 0.27041 0.26816 0.0
C614 C 0.16635 0.35415 0.18328 0.0
C615 C 0.13282 0.3351 0.11378 0.0
N616 N 0.17794 0.29436 0.23773 0.0
N617 N 0.13742 0.30832 0.1415 0.0
H618 H 0.69065 0.62024 0.10751 0.0
H619 H 0.50115 0.71565 0.04734 0.0
H620 H 0.62234 0.69338 0.17952 0.0
H621 H 0.56764 0.63904 0.9767 0.0
H622 H 0.55662 0.72565 0.08796 0.0
H623 H 0.66279 0.65023 0.05135 0.0
C624 C 0.67122 0.64413 0.11143 0.0
C625 C 0.65618 0.65248 0.14767 0.0
C626 C 0.55931 0.70683 0.06347 0.0
C627 C 0.62415 0.68626 0.0843 0.0
C628 C 0.52748 0.70064 0.04059 0.0
C629 C 0.52971 0.67601 1.00898 0.0
C630 C 0.59356 0.68757 0.05532 0.0
C631 C 0.56453 0.6577 1.00122 0.0
C632 C 0.65508 0.66112 0.07931 0.0
C633 C 0.63286 0.68472 0.15169 0.0
N634 N 0.59509 0.66357 0.02458 0.0
N635 N 0.61609 0.69962 0.12004 0.0
H636 H 0.97404 0.26268 0.22875 0.0
H637 H 0.86185 0.08424 0.17938 0.0
H638 H 0.89871 0.20079 0.30505 0.0
H639 H 0.9374 0.14369 0.10188 0.0
H640 H 0.90121 0.10489 0.23283 0.0
H641 H 0.98162 0.20525 0.19053 0.0
C642 C 0.95889 0.23696 0.23735 0.0
C643 C 0.93495 0.23673 0.2696 0.0
C644 C 0.91012 0.11235 0.20406 0.0
C645 C 0.94358 0.17075 0.2259 0.0
C646 C 0.88768 0.10037 0.17351 0.0
C647 C 0.89502 0.11481 0.13679 0.0
C648 C 0.93828 0.14026 0.19737 0.0
C649 C 0.92962 0.13393 0.13027 0.0
C650 C 0.96375 0.204 0.21584 0.0
C651 C 0.91668 0.20252 0.27988 0.0
N652 N 0.94937 0.14764 0.16069 0.0
N653 N 0.92094 0.17101 0.25769 0.0
H654 H 0.35185 0.89865 0.09931 0.0
H655 H 0.57182 0.865 0.05782 0.0
H656 H 0.42859 0.84874 0.18186 0.0
H657 H 0.49683 0.93006 0.98529 0.0
H658 H 0.52313 0.8652 0.10784 0.0
H659 H 0.40449 0.90285 0.05375 0.0
C660 C 0.37946 0.88678 0.10725 0.0
C661 C 0.38747 0.87768 0.14558 0.0
C662 C 0.51746 0.88012 0.08122 0.0
C663 C 0.44714 0.88261 0.09468 0.0
C664 C 0.54582 0.88136 0.05322 0.0
C665 C 0.53553 0.89297 0.01616 0.0
C666 C 0.48068 0.89356 0.07186 0.0
C667 C 0.50378 0.91713 1.01265 0.0
C668 C 0.40984 0.89075 0.08182 0.0
C669 C 0.42242 0.85952 0.15343 0.0
N670 N 0.47568 0.91435 0.03922 0.0
N671 N 0.45205 0.86464 0.12892 0.0
H672 H 0.20406 0.64118 0.35759 0.0
H673 H 0.11617 0.82722 0.29843 0.0
H674 H 0.15087 0.71987 0.43652 0.0
H675 H 0.19231 0.7625 0.22629 0.0
H676 H 0.15118 0.80504 0.35439 0.0
H677 H 0.21695 0.69433 0.31439 0.0
C678 C 0.19485 0.66969 0.36565 0.0
C679 C 0.17556 0.6761 0.40018 0.0
C680 C 0.16135 0.79669 0.32633 0.0
C681 C 0.19064 0.73722 0.35127 0.0
C682 C 0.14144 0.80962 0.2944 0.0
C683 C 0.15012 0.79441 0.25843 0.0
C684 C 0.18822 0.7671 0.32161 0.0
C685 C 0.18377 0.77318 0.2541 0.0
C686 C 0.2029 0.70019 0.34138 0.0
C687 C 0.16484 0.71357 0.40967 0.0
N688 N 0.20084 0.75854 0.28573 0.0
N689 N 0.17222 0.7427 0.38514 0.0
H690 H 0.07598 0.67436 0.97035 0.0
H691 H 0.86059 0.6495 0.90383 0.0
H692 H 0.9896 0.61338 0.03334 0.0
H693 H 0.94866 0.68317 0.82494 0.0
H694 H 0.90769 0.64862 0.95537 0.0
H695 H 0.03306 0.67716 0.91504 0.0
C696 C 0.04878 0.65942 0.97172 0.0
C697 C 0.03463 0.64658 1.00708 0.0
C698 C 0.9168 0.65667 0.92683 0.0
C699 C 0.98567 0.65035 0.94533 0.0
C700 C 0.88961 0.65882 0.89774 0.0
C701 C 0.90199 0.66287 0.85977 0.0
C702 C 0.95573 0.66097 0.91756 0.0
C703 C 0.93904 0.67694 0.85368 0.0
C704 C 0.02377 0.66234 0.94067 0.0
C705 C 1.00042 0.62575 1.00701 0.0
N706 N 0.96555 0.67349 0.88197 0.0
N707 N 0.97584 0.63019 0.97726 0.0
H708 H 0.87342 0.79895 0.2454 0.0
H709 H 0.93532 0.84004 0.45986 0.0
H710 H 0.93088 0.71498 0.31519 0.0
H711 H 0.89645 0.92595 0.38077 0.0
H712 H 0.93936 0.79414 0.4073 0.0
H713 H 0.87436 0.84331 0.29905 0.0
C714 C 0.88422 0.78898 0.27278 0.0
C715 C 0.9042 0.75433 0.27549 0.0
C716 C 0.93059 0.82327 0.40126 0.0
C717 C 0.90677 0.80491 0.33609 0.0
C718 C 0.92951 0.84982 0.431 0.0
C719 C 0.91168 0.88519 0.42477 0.0
C720 C 0.91578 0.83382 0.36536 0.0
C721 C 0.90776 0.89768 0.38681 0.0
C722 C 0.8862 0.8149 0.30293 0.0
C723 C 0.91656 0.74231 0.31182 0.0
N724 N 0.90736 0.87126 0.35846 0.0
N725 N 0.9193 0.76828 0.34051 0.0
H726 H 0.14244 0.94059 0.91666 0.0
H727 H 1.01004 0.93497 0.05213 0.0
H728 H 0.06101 0.8888 0.83948 0.0
H729 H 0.94967 0.85745 0.97759 0.0
H730 H 0.04072 0.96371 0.99653 0.0
H731 H 0.09247 0.94663 0.96436 0.0
C732 C 0.1139 0.93031 0.90989 0.0
C733 C 0.10568 0.91419 0.87408 0.0
C734 C 0.02057 0.94058 0.99216 0.0
C735 C 0.04753 0.92274 0.92784 0.0
C736 C 1.00205 0.92504 0.02383 0.0
C737 C 0.97979 0.89203 0.01915 0.0
C738 C 0.01692 0.92189 0.95669 0.0
C739 C 0.9687 0.88156 0.9821 0.0
C740 C 0.08498 0.93471 0.93681 0.0
C741 C 0.06842 0.90121 0.86678 0.0
N742 N 0.98893 0.89518 0.95202 0.0
N743 N 0.04068 0.90571 0.89348 0.0
H744 H 0.1679 0.14991 0.44441 0.0
H745 H 0.2323 0.06838 0.24785 0.0
H746 H 0.09522 0.08563 0.36812 0.0
H747 H 0.30082 0.14069 0.3212 0.0
H748 H 0.18823 0.05719 0.30062 0.0
H749 H 0.2239 0.12297 0.41335 0.0
C750 C 0.16378 0.12838 0.42247 0.0
C751 C 0.12741 0.12206 0.40657 0.0
C752 C 0.21296 0.07538 0.30532 0.0
C753 C 0.19057 0.09184 0.37085 0.0
C754 C 0.23773 0.08228 0.27508 0.0
C755 C 0.26974 0.10601 0.28014 0.0
C756 C 0.2201 0.0926 0.34087 0.0
C757 C 0.27603 0.12279 0.31598 0.0
C758 C 0.19579 0.11329 0.4044 0.0
C759 C 0.12316 0.09276 0.37966 0.0
N760 N 0.25119 0.11592 0.34503 0.0
N761 N 0.15468 0.07982 0.3612 0.0
H762 H 0.435 0.61922 0.88378 0.0
H763 H 0.35366 0.55037 0.07577 0.0
H764 H 0.38277 0.69528 0.96523 0.0
H765 H 0.42757 0.48182 1.00488 0.0
H766 H 0.38117 0.60806 0.04793 0.0
H767 H 0.44358 0.57182 0.93409 0.0
C768 C 0.42506 0.62582 0.91241 0.0
C769 C 0.40779 0.6611 0.92062 0.0
C770 C 0.39254 0.58052 0.03939 0.0
C771 C 0.41816 0.60731 0.97861 0.0
C772 C 0.37716 0.54761 0.05568 0.0
C773 C 0.38706 0.51175 0.04078 0.0
C774 C 0.41698 0.57678 1.00771 0.0
C775 C 0.41824 0.50927 0.01586 0.0
C776 C 0.43056 0.59902 0.94129 0.0
C777 C 0.39566 0.66826 0.95803 0.0
N778 N 0.43111 0.54158 0.99863 0.0
N779 N 0.40085 0.64151 0.98574 0.0
H780 H 0.80385 0.40986 0.20274 0.0
H781 H 0.87505 0.39353 0.4177 0.0
H782 H 0.73843 0.36017 0.29441 0.0
H783 H 0.95006 0.42578 0.32578 0.0
H784 H 0.82126 0.39282 0.37317 0.0
H785 H 0.8594 0.41397 0.24508 0.0
C786 C 0.8019 0.39754 0.23118 0.0
C787 C 0.76604 0.38774 0.24645 0.0
C788 C 0.84941 0.40062 0.36268 0.0
C789 C 0.82815 0.39307 0.29477 0.0
C790 C 0.87981 0.40265 0.3884 0.0
C791 C 0.91719 0.40617 0.37415 0.0
C792 C 0.85698 0.40436 0.32335 0.0
C793 C 0.9217 0.42003 0.33685 0.0
C794 C 0.83313 0.40138 0.25577 0.0
C795 C 0.76528 0.37019 0.28245 0.0
N796 N 0.89219 0.41651 0.31178 0.0
N797 N 0.79537 0.37542 0.30646 0.0
H798 H 0.64015 0.91115 0.84697 0.0
H799 H 0.64552 0.97238 0.0654 0.0
H800 H 0.67927 0.83771 0.93762 0.0
H801 H 0.60575 0.04558 0.97464 0.0
H802 H 0.65177 0.91997 0.01987 0.0
H803 H 0.6355 0.96399 0.89227 0.0
C804 C 0.64992 0.90669 0.87612 0.0
C805 C 0.65546 0.86941 0.89009 0.0
C806 C 0.64106 0.94735 1.00992 0.0
C807 C 0.65011 0.92842 0.94148 0.0
C808 C 0.6359 0.97679 0.03621 0.0
C809 C 0.62848 1.01386 0.02267 0.0
C810 C 0.63658 0.95538 0.97076 0.0
C811 C 0.61412 0.0177 0.98545 0.0
C812 C 0.64563 0.93642 0.90228 0.0
C813 C 0.67116 0.86565 0.9268 0.0
N814 N 0.62077 0.98933 0.95988 0.0
N815 N 0.66546 0.89425 0.95235 0.0
H816 H 0.15251 0.89283 0.08264 0.0
H817 H 0.22929 0.95889 0.28217 0.0
H818 H 0.08278 0.94528 0.16951 0.0
H819 H 0.29143 0.89084 0.19987 0.0
H820 H 0.18097 0.97269 0.23362 0.0
H821 H 0.20951 0.91749 0.11388 0.0
C822 C 0.14913 0.91156 0.10709 0.0
C823 C 0.11362 0.91468 0.12548 0.0
C824 C 0.20521 0.95485 0.22613 0.0
C825 C 0.17797 0.94243 0.16136 0.0
C826 C 0.23242 0.94645 0.25392 0.0
C827 C 0.2639 0.9231 0.24512 0.0
C828 C 0.20945 0.93966 0.18925 0.0
C829 C 0.26715 0.90827 0.20804 0.0
C830 C 0.18176 0.92525 0.12528 0.0
C831 C 0.11021 0.94048 0.15586 0.0
N832 N 0.24005 0.91669 0.18144 0.0
N833 N 0.14242 0.95205 0.17423 0.0
H834 H 0.09672 0.4878 0.02181 0.0
H835 H 0.15613 0.70073 0.06376 0.0
H836 H 0.17616 0.55145 0.95206 0.0
H837 H 0.10025 0.62262 0.14114 0.0
H838 H 0.14711 0.65444 1.01159 0.0
H839 H 0.07384 0.54775 0.04913 0.0
C840 C 0.10786 0.51457 1.01067 0.0
C841 C 0.13993 0.51506 0.9867 0.0
C842 C 0.1365 0.64774 0.03995 0.0
C843 C 0.11559 0.58262 0.01873 0.0
C844 C 0.14206 0.67386 0.06955 0.0
C845 C 0.12828 0.66578 0.10627 0.0
C846 C 0.11746 0.61315 0.04753 0.0
C847 C 0.111 0.63016 0.11305 0.0
C848 C 0.09535 0.54875 0.02681 0.0
C849 C 0.15258 0.55027 0.97217 0.0
N850 N 0.10602 0.60517 0.0839 0.0
N851 N 0.14161 0.58296 0.98979 0.0
H852 H 0.73595 0.64182 0.19893 0.0
H853 H 0.94722 0.58584 0.17434 0.0
H854 H 0.79468 0.56142 0.27268 0.0
H855 H 0.88174 0.64052 0.08518 0.0
H856 H 0.88829 0.55938 0.20046 0.0
H857 H 0.78621 0.63281 0.15106 0.0
C858 C 0.75931 0.6223 0.20501 0.0
C859 C 0.7614 0.60271 0.23994 0.0
C860 C 0.88673 0.57598 0.17428 0.0
C861 C 0.81766 0.59061 0.18474 0.0
C862 C 0.9206 0.59045 0.15897 0.0
C863 C 0.91858 0.617 0.12909 0.0
C864 C 0.85145 0.58906 0.15959 0.0
C865 C 0.88375 0.62139 0.10953 0.0
C866 C 0.7875 0.61641 0.17736 0.0
C867 C 0.79206 0.57735 0.24618 0.0
N868 N 0.85097 0.60915 0.12622 0.0
N869 N 0.81897 0.57212 0.21891 0.0
H870 H 0.92357 0.04233 0.02859 0.0
H871 H 0.93014 0.90722 0.16466 0.0
H872 H 0.84302 0.96839 0.9713 0.0
H873 H 0.87495 0.83035 0.08536 0.0
H874 H 0.93163 0.95621 0.11538 0.0
H875 H 0.94889 0.98728 0.06293 0.0
C876 C 0.9122 1.01418 0.02213 0.0
C877 C 0.87915 1.00986 0.99979 0.0
C878 C 0.92 0.92845 0.10818 0.0
C879 C 0.90561 0.94811 0.04046 0.0
C880 C 0.91823 0.9008 0.1367 0.0
C881 C 0.90298 0.86459 0.12861 0.0
C882 C 0.90666 0.91954 0.07124 0.0
C883 C 0.8874 0.85777 0.09234 0.0
C884 C 0.92574 0.98293 0.04276 0.0
C885 C 0.86704 0.9728 0.99049 0.0
N886 N 0.88984 0.88498 0.0648 0.0
N887 N 0.87903 0.9432 1.01241 0.0
H888 H 0.19302 0.2274 0.11314 0.0
H889 H 0.38725 0.16419 0.18487 0.0
H890 H 0.26282 0.29562 0.18855 0.0
H891 H 0.30493 0.08493 0.13778 0.0
H892 H 0.33574 0.20918 0.1975 0.0
H893 H 0.22032 0.16962 0.14085 0.0
C894 C 0.21272 0.23002 0.13704 0.0
C895 C 0.22788 0.26575 0.14709 0.0
C896 C 0.32868 0.18178 0.18483 0.0
C897 C 0.26047 0.20084 0.17696 0.0
C898 C 0.35822 0.15644 0.17692 0.0
C899 C 0.35016 0.12092 0.16019 0.0
C900 C 0.29081 0.1717 0.17552 0.0
C901 C 0.31219 0.11215 0.15048 0.0
C902 C 0.22866 0.19708 0.15261 0.0
C903 C 0.25202 0.26818 0.17891 0.0
N904 N 0.28382 0.13747 0.15821 0.0
N905 N 0.26916 0.23587 0.19178 0.0
H906 H 0.2565 0.78447 0.46585 0.0
H907 H 0.43841 0.86459 0.36953 0.0
H908 H 0.33463 0.72162 0.39362 0.0
H909 H 0.35795 0.93229 0.43401 0.0
H910 H 0.41814 0.80787 0.40469 0.0
H911 H 0.30557 0.83337 0.47525 0.0
C912 C 0.28401 0.78116 0.45184 0.0
C913 C 0.29135 0.74968 0.42811 0.0
C914 C 0.40578 0.83531 0.41219 0.0
C915 C 0.34762 0.80489 0.43921 0.0
C916 C 0.41754 0.86765 0.39228 0.0
C917 C 0.39807 0.90225 0.39765 0.0
C918 C 0.37346 0.83797 0.43596 0.0
C919 C 0.3724 0.90548 0.42815 0.0
C920 C 0.31214 0.8087 0.45768 0.0
C921 C 0.32752 0.74606 0.41128 0.0
N922 N 0.35951 0.87317 0.44531 0.0
N923 N 0.35419 0.77368 0.41679 0.0
H924 H 0.98426 0.4838 0.90721 0.0
H925 H 0.19471 0.42668 0.84397 0.0
H926 H 0.06116 0.56186 0.85073 0.0
H927 H 0.11261 0.34787 0.89072 0.0
H928 H 0.1448 0.47545 0.83968 0.0
H929 H 0.0346 0.43569 0.90823 0.0
C930 C 1.01252 0.49165 0.89697 0.0
C931 C 0.01802 0.52542 0.87605 0.0
C932 C 0.1375 0.44727 0.85042 0.0
C933 C 0.07486 0.47086 0.87604 0.0
C934 C 0.16564 0.41904 0.85168 0.0
C935 C 0.15821 0.38528 0.87201 0.0
C936 C 0.1018 0.43975 0.86738 0.0
C937 C 0.11977 0.37517 0.87777 0.0
C938 C 0.04078 0.4636 0.89614 0.0
C939 C 0.0555 0.53499 0.8652 0.0
N940 N 0.09302 0.40325 0.87795 0.0
N941 N 0.08229 0.50698 0.8634 0.0
H942 H 0.60716 0.66675 0.37774 0.0
H943 H 0.82185 0.71761 0.4306 0.0
H944 H 0.68466 0.58365 0.42519 0.0
H945 H 0.74693 0.78932 0.36408 0.0
H946 H 0.77483 0.66598 0.42708 0.0
H947 H 0.65649 0.71569 0.38405 0.0
C948 C 0.63403 0.65926 0.39148 0.0
C949 C 0.6437 0.62078 0.39747 0.0
C950 C 0.76897 0.69276 0.41253 0.0
C951 C 0.69994 0.67539 0.40375 0.0
C952 C 0.79643 0.72169 0.41318 0.0
C953 C 0.7861 0.75852 0.40081 0.0
C954 C 0.73269 0.70094 0.39718 0.0
C955 C 0.75443 0.76186 0.37647 0.0
C956 C 0.66269 0.68681 0.39357 0.0
C957 C 0.6776 0.6128 0.41738 0.0
N958 N 0.72736 0.73408 0.37729 0.0
N959 N 0.70577 0.63954 0.41792 0.0
H960 H 0.42471 0.62515 0.4569 0.0
H961 H 0.47479 0.45313 0.34677 0.0
H962 H 0.3409 0.55384 0.40055 0.0
H963 H 0.55087 0.50382 0.42985 0.0
H964 H 0.42062 0.46905 0.38731 0.0
H965 H 0.46594 0.56945 0.46464 0.0
C966 C 0.4151 0.59772 0.44602 0.0
C967 C 0.37989 0.59419 0.4271 0.0
C968 C 0.4492 0.47566 0.39753 0.0
C969 C 0.42655 0.53021 0.43609 0.0
C970 C 0.48008 0.46653 0.37426 0.0
C971 C 0.51658 0.48002 0.38389 0.0
C972 C 0.45534 0.50036 0.42871 0.0
C973 C 0.52256 0.49513 0.42051 0.0
C974 C 0.43822 0.56571 0.45114 0.0
C975 C 0.36832 0.55796 0.41429 0.0
N976 N 0.49183 0.50655 0.44116 0.0
N977 N 0.39178 0.52744 0.41864 0.0
H978 H 0.17839 0.93328 0.59145 0.0
H979 H 0.19534 0.72117 0.64858 0.0
H980 H 0.08842 0.86969 0.64688 0.0
H981 H 0.27573 0.77858 0.57409 0.0
H982 H 0.14968 0.77277 0.63769 0.0
H983 H 0.20376 0.87369 0.56572 0.0
C984 C 0.16283 0.90689 0.59652 0.0
C985 C 0.13286 0.90549 0.62298 0.0
C986 C 0.17699 0.77373 0.62304 0.0
C987 C 0.16213 0.83796 0.59554 0.0
C988 C 0.20336 0.74479 0.63011 0.0
C989 C 0.23929 0.74611 0.61254 0.0
C990 C 0.1867 0.80395 0.59819 0.0
C991 C 0.24822 0.77689 0.58835 0.0
C992 C 0.17755 0.87276 0.58228 0.0
C993 C 0.11283 0.87116 0.6279 0.0
N994 N 0.22209 0.80478 0.58198 0.0
N995 N 0.12874 0.83818 0.61554 0.0
H996 H 0.97748 0.50472 0.58197 0.0
H997 H 0.1873 0.54502 0.62896 0.0
H998 H 0.0446 0.44587 0.66732 0.0
H999 H 0.10273 0.61817 0.57613 0.0
H1000 H 0.14739 0.48944 0.61458 0.0
H1001 H 0.03585 0.51733 0.54585 0.0
C1002 C 1.00433 0.49293 0.59224 0.0
C1003 C 1.00734 0.47742 0.62909 0.0
C1004 C 0.13801 0.5176 0.60549 0.0
C1005 C 0.07314 0.49303 0.58938 0.0
C1006 C 0.16025 0.54938 0.61456 0.0
C1007 C 0.14793 0.58628 0.60438 0.0
C1008 C 0.10269 0.52288 0.58703 0.0
C1009 C 0.113 0.59028 0.58505 0.0
C1010 C 0.03766 0.50008 0.57161 0.0
C1011 C 0.04206 0.46074 0.64019 0.0
N1012 N 0.09143 0.55897 0.57733 0.0
N1013 N 0.07433 0.47019 0.62097 0.0
H1014 H 0.97678 0.03768 0.70265 0.0
H1015 H 0.901 0.83409 0.64805 0.0
H1016 H 0.04302 0.95268 0.64203 0.0
H1017 H 0.83295 0.92207 0.70089 0.0
H1018 H 0.95879 0.86773 0.66698 0.0
H1019 H 0.92917 0.98942 0.71766 0.0
C1020 C 0.981 1.00885 0.69197 0.0
C1021 C 1.01375 0.99925 0.67074 0.0
C1022 C 0.93142 0.87886 0.67627 0.0
C1023 C 0.95921 0.94361 0.68815 0.0
C1024 C 0.8983 0.85925 0.666 0.0
C1025 C 0.8626 0.87716 0.67054 0.0
C1026 C 0.92801 0.91546 0.69235 0.0
C1027 C 0.86028 0.90861 0.69509 0.0
C1028 C 0.95404 0.98118 0.70108 0.0
C1029 C 0.01788 0.96148 0.65789 0.0
N1030 N 0.89282 0.92801 0.70372 0.0
N1031 N 0.99064 0.93501 0.66658 0.0
H1032 H 0.67728 0.90437 0.66274 0.0
H1033 H 0.60082 0.70584 0.72604 0.0
H1034 H 0.62216 0.8257 0.58527 0.0
H1035 H 0.67519 0.77573 0.79539 0.0
H1036 H 0.62342 0.73912 0.6691 0.0
H1037 H 0.68302 0.85328 0.70981 0.0
C1038 C 0.66604 0.87626 0.65585 0.0
C1039 C 0.64984 0.86872 0.61992 0.0
C1040 C 0.63585 0.7464 0.69659 0.0
C1041 C 0.65729 0.80998 0.67292 0.0
C1042 C 0.62346 0.72692 0.72895 0.0
C1043 C 0.63438 0.74028 0.76513 0.0
C1044 C 0.6586 0.77918 0.70147 0.0
C1045 C 0.66474 0.76623 0.76777 0.0
C1046 C 0.66991 0.84697 0.68241 0.0
C1047 C 0.63534 0.83216 0.61246 0.0
N1048 N 0.67466 0.78644 0.73625 0.0
N1049 N 0.63959 0.8039 0.63871 0.0
H1050 H 0.07415 0.136 0.47929 0.0
H1051 H 0.12528 0.19642 0.68067 0.0
H1052 H 0.01516 0.22291 0.54453 0.0
H1053 H 0.19434 0.12079 0.61205 0.0
H1054 H 0.10436 0.22889 0.62275 0.0
H1055 H 0.13033 0.14497 0.51954 0.0
C1056 C 0.07313 0.15714 0.50188 0.0
C1057 C 0.04005 0.17879 0.5085 0.0
C1058 C 0.12526 0.20609 0.62026 0.0
C1059 C 0.10429 0.18965 0.5545 0.0
C1060 C 0.13753 0.18786 0.6535 0.0
C1061 C 0.15899 0.15423 0.65031 0.0
C1062 C 0.13366 0.1891 0.58471 0.0
C1063 C 0.17554 0.14527 0.61495 0.0
C1064 C 0.10541 0.16275 0.52454 0.0
C1065 C 0.0401 0.20548 0.53851 0.0
N1066 N 0.16113 0.16156 0.58291 0.0
N1067 N 0.07164 0.20994 0.56055 0.0
H1068 H 0.34053 0.76388 0.803 0.0
H1069 H 0.378 0.7135 0.5919 0.0
H1070 H 0.41965 0.82188 0.72799 0.0
H1071 H 0.32606 0.64197 0.67812 0.0
H1072 H 0.36651 0.76945 0.63165 0.0
H1073 H 0.30439 0.74231 0.74731 0.0
C1074 C 0.34923 0.77364 0.77486 0.0
C1075 C 0.38439 0.7922 0.76938 0.0
C1076 C 0.35711 0.7416 0.64163 0.0
C1077 C 0.34437 0.76701 0.70654 0.0
C1078 C 0.36442 0.70961 0.61934 0.0
C1079 C 0.35359 0.67311 0.63208 0.0
C1080 C 0.34017 0.73687 0.67766 0.0
C1081 C 0.3354 0.66962 0.66758 0.0
C1082 C 0.32866 0.76122 0.74308 0.0
C1083 C 0.39375 0.80546 0.73281 0.0
N1084 N 0.32971 0.70114 0.68944 0.0
N1085 N 0.37446 0.79146 0.70229 0.0
H1086 H 0.98992 0.42709 0.47528 0.0
H1087 H 0.93626 0.35783 0.68468 0.0
H1088 H 0.071 0.37425 0.55145 0.0
H1089 H 0.8547 0.39911 0.60188 0.0
H1090 H 0.98626 0.36066 0.63619 0.0
H1091 H 0.94272 0.4276 0.52651 0.0
C1092 C 0.99862 0.41759 0.50356 0.0
C1093 C 0.03256 0.39682 0.50855 0.0
C1094 C 0.95728 0.36868 0.62846 0.0
C1095 C 0.97951 0.39674 0.56642 0.0
C1096 C 0.92838 0.36576 0.65573 0.0
C1097 C 0.89252 0.38217 0.64796 0.0
C1098 C 0.94886 0.38578 0.59306 0.0
C1099 C 0.88303 0.38888 0.60949 0.0
C1100 C 0.97109 0.41643 0.53233 0.0
C1101 C 0.0436 0.38783 0.5461 0.0
N1102 N 0.91167 0.39291 0.58364 0.0
N1103 N 0.01619 0.38547 0.57345 0.0
H1104 H 0.63248 0.21951 0.94945 0.0
H1105 H 0.68861 0.25077 0.73396 0.0
H1106 H 0.68276 0.13634 0.87339 0.0
H1107 H 0.61674 0.32805 0.7976 0.0
H1108 H 0.71153 0.22354 0.79406 0.0
H1109 H 0.6439 0.26937 0.90139 0.0
C1110 C 0.6455 0.21177 0.92252 0.0
C1111 C 0.65645 0.17387 0.91526 0.0
C1112 C 0.6918 0.24747 0.79499 0.0
C1113 C 0.67086 0.23051 0.86096 0.0
C1114 C 0.67934 0.26355 0.76066 0.0
C1115 C 0.6493 0.29002 0.76128 0.0
C1116 C 0.67351 0.25809 0.82923 0.0
C1117 C 0.63883 0.3063 0.79639 0.0
C1118 C 0.65265 0.24022 0.89545 0.0
C1119 C 0.67371 0.16523 0.88008 0.0
N1120 N 0.64963 0.28884 0.82932 0.0
N1121 N 0.68037 0.19335 0.85426 0.0
H1122 H 0.53425 0.2114 0.48525 0.0
H1123 H 0.3437 0.12079 0.41387 0.0
H1124 H 0.46156 0.13567 0.55081 0.0
H1125 H 0.42155 0.18541 0.34311 0.0
H1126 H 0.37149 0.1501 0.47048 0.0
H1127 H 0.48244 0.22087 0.43962 0.0
C1128 C 0.50739 0.19646 0.48979 0.0
C1129 C 0.50234 0.17205 0.52131 0.0
C1130 C 0.38156 0.15913 0.44258 0.0
C1131 C 0.44279 0.18325 0.46957 0.0
C1132 C 0.3655 0.14256 0.41025 0.0
C1133 C 0.3821 0.1492 0.37435 0.0
C1134 C 0.41454 0.18172 0.43839 0.0
C1135 C 0.40917 0.17847 0.37068 0.0
C1136 C 0.47767 0.20237 0.46408 0.0
C1137 C 0.46688 0.154 0.52637 0.0
N1138 N 0.42577 0.19276 0.40269 0.0
N1139 N 0.43848 0.1597 0.50044 0.0
H1140 H 0.39064 0.41843 0.87284 0.0
H1141 H 0.42637 0.20595 0.80262 0.0
H1142 H 0.42691 0.32944 0.94964 0.0
H1143 H 0.36882 0.2929 0.73695 0.0
H1144 H 0.42562 0.24802 0.85837 0.0
H1145 H 0.39475 0.37373 0.81954 0.0
C1146 C 0.40159 0.38986 0.87815 0.0
C1147 C 0.40505 0.37611 0.91571 0.0
C1148 C 0.41234 0.25762 0.832 0.0
C1149 C 0.4086 0.32501 0.85604 0.0
C1150 C 0.41139 0.23307 0.80063 0.0
C1151 C 0.40037 0.24756 0.76479 0.0
C1152 C 0.40035 0.29565 0.82708 0.0
C1153 C 0.37963 0.28176 0.76386 0.0
C1154 C 0.40234 0.36393 0.848 0.0
C1155 C 0.42119 0.33986 0.92105 0.0
N1156 N 0.38211 0.30587 0.79412 0.0
N1157 N 0.42038 0.31446 0.89171 0.0
H1158 H 0.69764 0.39869 0.40181 0.0
H1159 H 0.57236 0.3998 0.54571 0.0
H1160 H 0.60777 0.34159 0.33928 0.0
H1161 H 0.5087 0.31246 0.4855 0.0
H1162 H 0.62361 0.39371 0.49909 0.0
H1163 H 0.67117 0.37422 0.46138 0.0
C1164 C 0.67326 0.37947 0.40062 0.0
C1165 C 0.65339 0.37379 0.36617 0.0
C1166 C 0.59906 0.37498 0.49652 0.0
C1167 C 0.62174 0.34792 0.43366 0.0
C1168 C 0.56938 0.37912 0.52283 0.0
C1169 C 0.53636 0.35657 0.51948 0.0
C1170 C 0.59542 0.34827 0.46651 0.0
C1171 C 0.53373 0.33049 0.48906 0.0
C1172 C 0.65753 0.3663 0.43473 0.0
C1173 C 0.62298 0.34774 0.36564 0.0
N1174 N 0.56274 0.32728 0.46362 0.0
N1175 N 0.60697 0.33689 0.39926 0.0
H1176 H 0.79567 0.69016 0.76968 0.0
H1177 H 0.58525 0.62664 0.81964 0.0
H1178 H 0.72619 0.6201 0.69578 0.0
H1179 H 0.66315 0.68517 0.89582 0.0
H1180 H 0.63097 0.63519 0.7675 0.0
H1181 H 0.73839 0.70891 0.80462 0.0
C1182 C 0.768 0.68047 0.75937 0.0
C1183 C 0.76539 0.65125 0.73216 0.0
C1184 C 0.63797 0.64619 0.79563 0.0
C1185 C 0.70099 0.67085 0.77233 0.0
C1186 C 0.61215 0.64085 0.82543 0.0
C1187 C 0.62009 0.65593 0.86174 0.0
C1188 C 0.67206 0.66641 0.80247 0.0
C1189 C 0.65569 0.67351 0.86806 0.0
C1190 C 0.73541 0.69032 0.77999 0.0
C1191 C 0.72907 0.64099 0.71851 0.0
N1192 N 0.68028 0.67854 0.83856 0.0
N1193 N 0.69802 0.64911 0.74018 0.0
H1194 H 0.89626 0.11279 0.36207 0.0
H1195 H 0.86031 0.05576 0.57848 0.0
H1196 H 0.85931 0.19484 0.4458 0.0
H1197 H 0.91961 0.9857 0.49658 0.0
H1198 H 0.86129 0.10895 0.53311 0.0
H1199 H 0.89336 0.06263 0.41051 0.0
C1200 C 0.88549 0.11986 0.3903 0.0
C1201 C 0.88125 0.15821 0.40131 0.0
C1202 C 0.87491 0.0822 0.52535 0.0
C1203 C 0.87906 0.10208 0.45659 0.0
C1204 C 0.87573 0.05232 0.55178 0.0
C1205 C 0.887 0.01573 0.5396 0.0
C1206 C 0.88743 0.07515 0.48786 0.0
C1207 C 0.90843 1.01308 0.50591 0.0
C1208 C 0.88538 0.09156 0.41831 0.0
C1209 C 0.86543 0.16572 0.43731 0.0
N1210 N 0.90609 0.04185 0.47997 0.0
N1211 N 0.86679 0.13816 0.46467 0.0
H1212 H 0.29407 0.96826 0.75502 0.0
H1213 H 0.369 0.88283 0.94714 0.0
H1214 H 0.23024 0.89254 0.82938 0.0
H1215 H 0.43865 0.9432 0.86521 0.0
H1216 H 0.31187 0.91101 0.91894 0.0
H1217 H 0.34031 0.97861 0.80581 0.0
C1218 C 0.28989 0.95352 0.78202 0.0
C1219 C 0.25843 0.92904 0.7878 0.0
C1220 C 0.33968 0.91943 0.90804 0.0
C1221 C 0.3116 0.94091 0.84616 0.0
C1222 C 0.37236 0.90374 0.92451 0.0
C1223 C 0.40803 0.90906 0.90683 0.0
C1224 C 0.34337 0.94025 0.8739 0.0
C1225 C 0.41128 0.93719 0.87853 0.0
C1226 C 0.31611 0.95992 0.81116 0.0
C1227 C 0.25439 0.91109 0.82344 0.0
N1228 N 0.37898 0.95068 0.86168 0.0
N1229 N 0.28108 0.91699 0.85116 0.0
H1230 H 0.13632 0.54655 0.44437 0.0
H1231 H 0.19865 0.33742 0.41777 0.0
H1232 H 0.21033 0.4862 0.5232 0.0
H1233 H 0.14353 0.40398 0.32963 0.0
H1234 H 0.22324 0.39603 0.44595 0.0
H1235 H 0.14903 0.49767 0.39631 0.0
C1236 C 0.15515 0.52293 0.45152 0.0
C1237 C 0.17215 0.52009 0.48769 0.0
C1238 C 0.20702 0.39794 0.41954 0.0
C1239 C 0.18866 0.46548 0.43236 0.0
C1240 C 0.19358 0.36429 0.403 0.0
C1241 C 0.16691 0.36664 0.37314 0.0
C1242 C 0.19299 0.43313 0.40583 0.0
C1243 C 0.16236 0.40168 0.3542 0.0
C1244 C 0.16323 0.49557 0.42382 0.0
C1245 C 0.19661 0.4892 0.49551 0.0
N1246 N 0.17368 0.43415 0.37199 0.0
N1247 N 0.20409 0.46298 0.46804 0.0
H1248 H 0.66718 0.37633 0.58018 0.0
H1249 H 0.72772 0.47486 0.76558 0.0
H1250 H 0.59359 0.44685 0.64948 0.0
H1251 H 0.79782 0.39929 0.69726 0.0
H1252 H 0.68625 0.48535 0.71072 0.0
H1253 H 0.72238 0.41141 0.60353 0.0
C1254 C 0.66254 0.40049 0.59895 0.0
C1255 C 0.62658 0.40691 0.61551 0.0
C1256 C 0.71087 0.46674 0.70754 0.0
C1257 C 0.68896 0.44579 0.64323 0.0
C1258 C 0.73422 0.46023 0.73901 0.0
C1259 C 0.76589 0.43566 0.73611 0.0
C1260 C 0.71863 0.44781 0.67305 0.0
C1261 C 0.77332 0.4179 0.70097 0.0
C1262 C 0.69411 0.42048 0.6125 0.0
C1263 C 0.62147 0.43959 0.63798 0.0
N1264 N 0.74951 0.424 0.67089 0.0
N1265 N 0.65281 0.45705 0.65271 0.0
H1266 H 0.65489 0.11784 0.6698 0.0
H1267 H 0.66787 0.05011 0.45466 0.0
H1268 H 0.68649 0.19596 0.58035 0.0
H1269 H 0.60682 0.99112 0.54352 0.0
H1270 H 0.67497 0.10558 0.49663 0.0
H1271 H 0.65132 0.06623 0.62305 0.0
C1272 C 0.66323 0.12369 0.64048 0.0
C1273 C 0.66655 0.16155 0.62755 0.0
C1274 C 0.65928 0.08079 0.50674 0.0
C1275 C 0.66206 0.10395 0.57449 0.0
C1276 C 0.6538 0.04971 0.48231 0.0
C1277 C 0.64085 0.01495 0.49785 0.0
C1278 C 0.64864 0.07691 0.54528 0.0
C1279 C 0.62022 0.01667 0.53204 0.0
C1280 C 0.65948 0.09463 0.61356 0.0
C1281 C 0.68019 0.16731 0.59032 0.0
N1282 N 0.627 0.04629 0.55613 0.0
N1283 N 0.67506 0.13919 0.56403 0.0
H1284 H 0.23427 0.18405 0.74834 0.0
H1285 H 0.44999 0.13082 0.71377 0.0
H1286 H 0.29934 0.10952 0.82224 0.0
H1287 H 0.37321 0.18447 0.63303 0.0
H1288 H 0.40203 0.13945 0.76407 0.0
H1289 H 0.29397 0.20845 0.72158 0.0
C1290 C 0.26122 0.17442 0.76049 0.0
C1291 C 0.26238 0.14334 0.78575 0.0
C1292 C 0.39589 0.14957 0.73538 0.0
C1293 C 0.32977 0.1693 0.75435 0.0
C1294 C 0.42294 0.14407 0.70667 0.0
C1295 C 0.41561 0.1571 0.66943 0.0
C1296 C 0.36122 0.16796 0.72652 0.0
C1297 C 0.38005 0.17403 0.66145 0.0
C1298 C 0.29529 0.18777 0.74469 0.0
C1299 C 0.29773 0.13242 0.80134 0.0
N1300 N 0.35419 0.17903 0.68982 0.0
N1301 N 0.3304 0.14419 0.78413 0.0
H1302 H 0.39088 0.54919 0.58601 0.0
H1303 H 0.34403 0.33654 0.60868 0.0
H1304 H 0.31873 0.48495 0.50863 0.0
H1305 H 0.40331 0.40364 0.69366 0.0
H1306 H 0.31209 0.3942 0.58612 0.0
H1307 H 0.38115 0.50022 0.63459 0.0
C1308 C 0.37306 0.52468 0.57928 0.0
C1309 C 0.35611 0.52057 0.5432 0.0
C1310 C 0.33091 0.39626 0.61073 0.0
C1311 C 0.34342 0.46532 0.59906 0.0
C1312 C 0.34875 0.36316 0.62392 0.0
C1313 C 0.37791 0.36634 0.65123 0.0
C1314 C 0.34352 0.43189 0.62468 0.0
C1315 C 0.38228 0.4009 0.67096 0.0
C1316 C 0.36673 0.49715 0.60729 0.0
C1317 C 0.33269 0.48874 0.53609 0.0
N1318 N 0.36639 0.433 0.65624 0.0
N1319 N 0.32728 0.4621 0.56373 0.0
H1320 H 0.695 0.72357 0.62025 0.0
H1321 H 0.91489 0.67186 0.62436 0.0
H1322 H 0.78051 0.7864 0.682 0.0
H1323 H 0.83052 0.58771 0.59386 0.0
H1324 H 0.86402 0.71878 0.63347 0.0
H1325 H 0.74017 0.67063 0.61224 0.0
C1326 C 0.72275 0.72534 0.63413 0.0
C1327 C 0.73657 0.76088 0.6469 0.0
C1328 C 0.85654 0.69004 0.6245 0.0
C1329 C 0.78737 0.70176 0.63859 0.0
C1330 C 0.88568 0.66374 0.61751 0.0
C1331 C 0.87597 0.62502 0.61304 0.0
C1332 C 0.81826 0.67751 0.62344 0.0
C1333 C 0.83847 0.61676 0.60113 0.0
C1334 C 0.74894 0.69573 0.62822 0.0
C1335 C 0.77057 0.76052 0.66808 0.0
N1336 N 0.81016 0.64217 0.60914 0.0
N1337 N 0.79647 0.73253 0.66078 0.0
H1338 H 0.70981 0.30653 0.93179 0.0
H1339 H 0.9208 0.37449 0.88378 0.0
H1340 H 0.79384 0.23872 0.87255 0.0
H1341 H 0.833 0.45351 0.91858 0.0
H1342 H 0.87595 0.32172 0.89226 0.0
H1343 H 0.75207 0.36209 0.92713 0.0
C1344 C 0.73626 0.304 0.91572 0.0
C1345 C 0.74977 0.26788 0.90459 0.0
C1346 C 0.86658 0.35057 0.89871 0.0
C1347 C 0.79824 0.32987 0.90054 0.0
C1348 C 0.89261 0.38047 0.89537 0.0
C1349 C 0.87935 0.41821 0.89798 0.0
C1350 C 0.82796 0.35908 0.90604 0.0
C1351 C 0.84335 0.42461 0.91438 0.0
C1352 C 0.7609 0.33528 0.9143 0.0
C1353 C 0.78333 0.26599 0.88294 0.0
N1354 N 0.81789 0.39534 0.91607 0.0
N1355 N 0.80755 0.29627 0.88315 0.0
H1356 H 0.4825 0.96183 0.40134 0.0
H1357 H 0.70109 0.9288 0.34878 0.0
H1358 H 0.55614 0.05028 0.35684 0.0
H1359 H 0.62574 0.83996 0.38841 0.0
H1360 H 0.64637 0.97173 0.34229 0.0
H1361 H 0.53614 0.91736 0.40022 0.0
C1362 C 0.51059 0.97256 0.39347 0.0
C1363 C 0.51475 1.00905 0.37733 0.0
C1364 C 0.64158 0.94256 0.35172 0.0
C1365 C 0.57544 0.9584 0.37444 0.0
C1366 C 0.67264 0.91764 0.35415 0.0
C1367 C 0.66786 0.88257 0.37298 0.0
C1368 C 0.60594 0.93059 0.36611 0.0
C1369 C 0.6305 0.86818 0.37638 0.0
C1370 C 0.54084 0.94672 0.39136 0.0
C1371 C 0.55178 0.02179 0.36835 0.0
N1372 N 0.60076 0.89308 0.37543 0.0
N1373 N 0.58062 0.99598 0.3655 0.0
H1374 H 0.14082 0.09635 0.94145 0.0
H1375 H 0.20096 0.30001 0.89225 0.0
H1376 H 0.08009 0.16978 0.86276 0.0
H1377 H 0.25693 0.22462 0.97302 0.0
H1378 H 0.14259 0.2622 0.8986 0.0
H1379 H 0.16191 0.1526 0.97658 0.0
C1380 C 0.13052 0.12424 0.9325 0.0
C1381 C 0.11145 0.12903 0.89755 0.0
C1382 C 0.16745 0.25436 0.9155 0.0
C1383 C 0.137 0.19283 0.93584 0.0
C1384 C 0.20095 0.27563 0.91139 0.0
C1385 C 0.23396 0.26521 0.9318 0.0
C1386 C 0.16727 0.22198 0.93951 0.0
C1387 C 0.23227 0.23341 0.95632 0.0
C1388 C 0.14286 0.1565 0.95236 0.0
C1389 C 0.09722 0.16542 0.88828 0.0
N1390 N 0.19962 0.21276 0.95919 0.0
N1391 N 0.11175 0.19643 0.90636 0.0
H1392 H 0.90696 0.14679 0.95539 0.0
H1393 H 0.96956 0.96363 0.85162 0.0
H1394 H 0.83117 0.07383 0.89041 0.0
H1395 H 0.04277 0.02717 0.92812 0.0
H1396 H 0.91373 0.98818 0.88528 0.0
H1397 H 0.95322 0.09466 0.95894 0.0
C1398 C 0.90024 0.11979 0.94163 0.0
C1399 C 0.86535 0.11443 0.92245 0.0
C1400 C 0.94198 0.9959 0.89561 0.0
C1401 C 0.9176 0.05462 0.92691 0.0
C1402 C 0.97375 0.98163 0.87655 0.0
C1403 C 1.01014 0.99557 0.8859 0.0
C1404 C 0.94736 0.02527 0.92252 0.0
C1405 C 1.0147 0.01739 0.91912 0.0
C1406 C 0.9263 0.08986 0.94422 0.0
C1407 C 0.8578 0.07901 0.90533 0.0
N1408 N 0.98333 0.0331 0.93549 0.0
N1409 N 0.88382 0.05042 0.90784 0.0
H1410 H 0.6606 0.43345 0.0811 0.0
H1411 H 0.69442 0.2263 0.15286 0.0
H1412 H 0.57723 0.36964 0.14574 0.0
H1413 H 0.77152 0.29138 0.08106 0.0
H1414 H 0.64403 0.27306 0.13918 0.0
H1415 H 0.68851 0.37364 0.05932 0.0
C1416 C 0.64675 0.40679 0.08898 0.0
C1417 C 0.6187 0.4059 0.11749 0.0
C1418 C 0.67176 0.27652 0.12576 0.0
C1419 C 0.65143 0.33822 0.09497 0.0
C1420 C 0.70075 0.25041 0.13437 0.0
C1421 C 0.73717 0.25508 0.11816 0.0
C1422 C 0.67926 0.30705 0.10048 0.0
C1423 C 0.74379 0.28667 0.09416 0.0
C1424 C 0.66324 0.37249 0.07727 0.0
C1425 C 0.60066 0.37092 0.12549 0.0
N1426 N 0.71511 0.31133 0.08599 0.0
N1427 N 0.61872 0.33798 0.11608 0.0
H1428 H 0.68432 0.06068 0.14662 0.0
H1429 H 0.47213 0.02394 0.08772 0.0
H1430 H 0.60515 0.14195 0.09806 0.0
H1431 H 0.53774 0.94804 0.15958 0.0
H1432 H 0.53154 0.05088 0.06304 0.0
H1433 H 0.63949 1.0089 0.13203 0.0
C1434 C 0.65726 0.06749 0.1334 0.0
C1435 C 0.64819 0.10535 0.12393 0.0
C1436 C 0.53303 0.02725 0.08313 0.0
C1437 C 0.5975 0.04674 0.10578 0.0
C1438 C 0.4991 1.0114 0.09672 0.0
C1439 C 0.50073 0.98625 0.12786 0.0
C1440 C 0.56754 0.0176 0.10154 0.0
C1441 C 0.53594 0.96953 0.13725 0.0
C1442 C 0.63207 0.03804 0.12437 0.0
C1443 C 0.61306 0.11302 0.10606 0.0
N1444 N 0.56852 0.98691 0.12554 0.0
N1445 N 0.58886 0.0839 0.09767 0.0
H1446 H 0.4705 0.56615 0.15741 0.0
H1447 H 0.40608 0.34867 0.14772 0.0
H1448 H 0.53737 0.47602 0.10717 0.0
H1449 H 0.3309 0.43826 0.18489 0.0
H1450 H 0.45835 0.39471 0.14319 0.0
H1451 H 0.41663 0.52202 0.16401 0.0
C1452 C 0.47307 0.53758 0.14559 0.0
C1453 C 0.50918 0.52331 0.13519 0.0
C1454 C 0.43047 0.40444 0.1527 0.0
C1455 C 0.44904 0.47301 0.1433 0.0
C1456 C 0.40104 0.37786 0.15698 0.0
C1457 C 0.36346 0.39128 0.16186 0.0
C1458 C 0.42195 0.44358 0.15661 0.0
C1459 C 0.35904 0.4281 0.17692 0.0
C1460 C 0.44287 0.512 0.15086 0.0
C1461 C 0.5105 0.48719 0.11796 0.0
N1462 N 0.38741 0.45409 0.17134 0.0
N1463 N 0.48154 0.46219 0.12468 0.0
H1464 H 0.97207 0.60864 0.24483 0.0
H1465 H 0.09753 0.41373 0.27587 0.0
H1466 H 0.09513 0.60806 0.24582 0.0
H1467 H 0.97514 0.41246 0.26314 0.0
H1468 H 0.09741 0.48343 0.26489 0.0
H1469 H 0.97231 0.53867 0.25479 0.0
C1470 C 0.99931 0.5944 0.24917 0.0
C1471 C 0.03361 0.61611 0.24669 0.0
C1472 C 0.07047 0.46807 0.2636 0.0
C1473 C 0.03424 0.533 0.25577 0.0
C1474 C 0.0706 0.42755 0.26904 0.0
C1475 C 0.03646 0.40542 0.26902 0.0
C1476 C 0.03572 0.48839 0.25882 0.0
C1477 C 1.00255 0.42695 0.26223 0.0
C1478 C 0.99942 0.55374 0.25393 0.0
C1479 C 0.06772 0.59401 0.24959 0.0
N1480 N 1.00304 0.4664 0.25781 0.0
N1481 N 0.06712 0.55459 0.25393 0.0
H1482 H 0.66393 0.81727 1.00985 0.0
H1483 H 0.8591 0.69292 0.04173 0.0
H1484 H 0.66742 0.69511 0.99742 0.0
H1485 H 0.86223 0.81422 0.02141 0.0
H1486 H 0.78959 0.69321 0.02979 0.0
H1487 H 0.73395 0.81732 0.02116 0.0
C1488 C 0.67872 0.79006 1.01163 0.0
C1489 C 0.65778 0.75579 1.00518 0.0
C1490 C 0.80528 0.71986 0.02729 0.0
C1491 C 0.74083 0.75579 0.01614 0.0
C1492 C 0.84568 0.71962 0.03344 0.0
C1493 C 0.86832 0.75336 0.03169 0.0
C1494 C 0.78543 0.75444 0.02026 0.0
C1495 C 0.84734 0.78708 0.02257 0.0
C1496 C 0.7194 0.79022 0.01718 0.0
C1497 C 0.68068 0.72212 1.00485 0.0
N1498 N 0.80783 0.78678 0.01773 0.0
N1499 N 0.71994 0.72297 1.01038 0.0
H1500 H 0.07492 0.11461 0.26631 0.0
H1501 H 0.95747 0.91189 0.26613 0.0
H1502 H 0.95474 0.10533 0.29116 0.0
H1503 H 0.07773 0.9183 0.24089 0.0
H1504 H 0.95688 0.98155 0.27728 0.0
H1505 H 0.07703 0.04459 0.25551 0.0
C1506 C 0.04841 0.0985 0.26759 0.0
C1507 C 1.01403 0.11768 0.27756 0.0
C1508 C 0.9838 0.96784 0.2703 0.0
C1509 C 0.0168 0.03481 0.26769 0.0
C1510 C 0.98437 0.92735 0.26486 0.0
C1511 C 0.01819 0.90739 0.25457 0.0
C1512 C 0.01718 0.99024 0.26469 0.0
C1513 C 0.05121 0.93102 0.2507 0.0
C1514 C 0.04985 0.05786 0.26231 0.0
C1515 C 0.98161 0.09327 0.28152 0.0
N1516 N 0.04983 0.97035 0.25551 0.0
N1517 N 0.98381 0.05409 0.27672 0.0
H1518 H 0.36303 0.84361 1.00175 0.0
H1519 H 0.16149 0.72598 1.00403 0.0
H1520 H 0.35924 0.72171 0.01706 0.0
H1521 H 0.16787 0.84488 0.03445 0.0
H1522 H 0.2322 0.72467 0.99864 0.0
H1523 H 0.29269 0.84583 1.00803 0.0
C1524 C 0.34787 0.81721 1.00752 0.0
C1525 C 0.36883 0.78241 1.00888 0.0
C1526 C 0.21821 0.75135 1.00588 0.0
C1527 C 0.28529 0.7844 1.01359 0.0
C1528 C 0.17724 0.75226 1.00851 0.0
C1529 C 0.15707 0.7856 0.01984 0.0
C1530 C 0.24055 0.78439 1.01366 0.0
C1531 C 0.18082 0.81843 0.0249 0.0
C1532 C 0.30706 0.81845 1.01036 0.0
C1533 C 0.34572 0.74942 0.0152 0.0
N1534 N 0.2203 0.81696 0.02197 0.0
N1535 N 0.30607 0.75114 0.01666 0.0
H1536 H 0.26285 0.96384 0.41208 0.0
H1537 H 0.25776 0.08511 0.61229 0.0
H1538 H 0.28475 0.08465 0.41687 0.0
H1539 H 0.24397 0.96303 0.60754 0.0
H1540 H 0.26805 0.08595 0.54231 0.0
H1541 H 0.25309 0.96354 0.48211 0.0
C1542 C 0.26373 0.99085 0.42727 0.0
C1543 C 0.2725 0.0248 0.40677 0.0
C1544 C 0.26376 0.0587 0.55649 0.0
C1545 C 0.26378 0.02428 0.4899 0.0
C1546 C 0.25875 0.05809 0.59715 0.0
C1547 C 0.25193 0.02367 0.61767 0.0
C1548 C 0.26114 0.02467 0.53456 0.0
C1549 C 0.25096 0.99024 0.59441 0.0
C1550 C 0.25904 0.99049 0.46795 0.0
C1551 C 0.27611 0.05799 0.43006 0.0
N1552 N 0.25524 0.99162 0.55504 0.0
N1553 N 0.27177 0.05691 0.46944 0.0
H1554 H 0.33561 0.49464 0.86412 0.0
H1555 H 0.21572 0.49528 0.66367 0.0
H1556 H 0.21265 0.49266 0.86131 0.0
H1557 H 0.33221 0.53439 0.6711 0.0
H1558 H 0.21552 0.48596 0.73379 0.0
H1559 H 0.33633 0.50422 0.79415 0.0
C1560 C 0.30852 0.49797 0.8493 0.0
C1561 C 0.27392 0.49462 0.87031 0.0
C1562 C 0.24162 0.49555 0.72005 0.0
C1563 C 0.27455 0.5024 0.78718 0.0
C1564 C 0.24204 0.50018 0.67931 0.0
C1565 C 0.27475 0.51393 0.65945 0.0
C1566 C 0.27421 0.50462 0.74257 0.0
C1567 C 0.30693 0.52142 0.68344 0.0
C1568 C 0.30898 0.50253 0.80867 0.0
C1569 C 0.24015 0.49647 0.84757 0.0
N1570 N 0.30585 0.51668 0.72271 0.0
N1571 N 0.24131 0.49977 0.80805 0.0
H1572 H 0.75966 0.57082 0.60709 0.0
H1573 H 0.75434 0.4459 0.40928 0.0
H1574 H 0.78505 0.45061 0.60326 0.0
H1575 H 0.75207 0.56879 0.40932 0.0
H1576 H 0.7632 0.44662 0.47933 0.0
H1577 H 0.75089 0.5703 0.53675 0.0
C1578 C 0.76139 0.54373 0.59213 0.0
C1579 C 0.77116 0.51025 0.61302 0.0
C1580 C 0.76162 0.47365 0.46419 0.0
C1581 C 0.76309 0.50976 0.52967 0.0
C1582 C 0.75747 0.47328 0.42349 0.0
C1583 C 0.7541 0.50737 0.40161 0.0
C1584 C 0.76137 0.50848 0.48495 0.0
C1585 C 0.75588 0.54157 0.42366 0.0
C1586 C 0.75729 0.54364 0.55127 0.0
C1587 C 0.77543 0.47692 0.58995 0.0
N1588 N 0.75898 0.54122 0.46323 0.0
N1589 N 0.77142 0.47755 0.55057 0.0
H1590 H 0.68698 0.03807 0.86782 0.0
H1591 H 0.81448 0.99212 0.67766 0.0
H1592 H 0.80742 1.01321 0.87364 0.0
H1593 H 0.69203 1.00405 0.67464 0.0
H1594 H 0.81331 1.00339 0.74739 0.0
H1595 H 0.68827 0.02596 0.79843 0.0
C1596 C 0.71358 0.02848 0.85506 0.0
C1597 C 0.7468 0.02552 0.8784 0.0
C1598 C 0.78664 1.00464 0.73155 0.0
C1599 C 0.74918 1.01392 0.79571 0.0
C1600 C 0.78737 0.99912 0.69102 0.0
C1601 C 0.75355 0.99918 0.66838 0.0
C1602 C 0.7516 1.00994 0.75123 0.0
C1603 C 0.71929 1.00562 0.6894 0.0
C1604 C 0.71446 0.02237 0.81472 0.0
C1605 C 0.78059 0.01511 0.85822 0.0
N1606 N 0.71927 1.01066 0.72873 0.0
N1607 N 0.7809 1.01009 0.81883 0.0
H1608 H 0.24489 0.06068 0.11693 0.0
H1609 H 0.24777 0.94803 0.91237 0.0
H1610 H 0.28001 0.94326 0.10687 0.0
H1611 H 0.24157 0.07047 0.91999 0.0
H1612 H 0.25684 0.94465 0.98223 0.0
H1613 H 0.23703 0.06345 0.04662 0.0
C1614 C 0.24931 0.03478 0.10054 0.0
C1615 C 0.26177 1.00113 0.11965 0.0
C1616 C 0.25465 0.9725 0.96875 0.0
C1617 C 0.25426 1.00463 0.03634 0.0
C1618 C 0.25074 0.97454 0.92805 0.0
C1619 C 0.24686 1.00982 0.90821 0.0
C1620 C 0.25304 1.00593 0.99163 0.0
C1621 C 0.2468 0.04257 0.93251 0.0
C1622 C 0.24556 0.03666 0.05972 0.0
C1623 C 0.26866 0.96952 0.09484 0.0
N1624 N 0.24949 0.03983 0.97199 0.0
N1625 N 0.26488 0.97202 0.0555 0.0
H1626 H 0.1946 0.53757 0.36237 0.0
H1627 H 0.31468 0.50358 0.16615 0.0
H1628 H 0.3132 0.50497 0.364 0.0
H1629 H 0.19174 0.49954 0.16964 0.0
H1630 H 0.3157 0.51175 0.23647 0.0
H1631 H 0.19305 0.52748 0.29291 0.0
C1632 C 0.21993 0.526 0.34882 0.0
C1633 C 0.25335 0.51973 0.37121 0.0
C1634 C 0.28833 0.51008 0.22192 0.0
C1635 C 0.25303 0.51218 0.28799 0.0
C1636 C 0.28768 0.50628 0.18114 0.0
C1637 C 0.25301 0.50227 0.16026 0.0
C1638 C 0.25392 0.51024 0.24339 0.0
C1639 C 0.21934 0.50414 0.1831 0.0
C1640 C 0.21934 0.52148 0.3083 0.0
C1641 C 0.28605 0.50874 0.34954 0.0
N1642 N 0.22067 0.50794 0.22248 0.0
N1643 N 0.28513 0.50575 0.30995 0.0
H1644 H 0.75671 0.58556 0.10954 0.0
H1645 H 0.76267 0.47462 0.90354 0.0
H1646 H 0.74284 0.46391 0.09943 0.0
H1647 H 0.79304 0.59315 0.91627 0.0
H1648 H 0.75131 0.47092 0.97336 0.0
H1649 H 0.76912 0.58937 0.0402 0.0
C1650 C 0.75842 0.55919 0.0935 0.0
C1651 C 0.75129 0.52396 0.11244 0.0
C1652 C 0.75954 0.49813 0.96095 0.0
C1653 C 0.76216 0.52852 0.02958 0.0
C1654 C 0.76523 0.50051 0.9204 0.0
C1655 C 0.77719 0.53483 0.90225 0.0
C1656 C 0.76598 0.53023 0.98501 0.0
C1657 C 0.78226 0.56635 0.92759 0.0
C1658 C 0.76446 0.56153 0.05306 0.0
C1659 C 0.75033 0.49162 0.08765 0.0
N1660 N 0.7767 0.56331 0.96669 0.0
N1661 N 0.75544 0.49467 0.04845 0.0
H1662 H 0.82852 0.02461 0.17318 0.0
H1663 H 0.71064 0.99938 0.3734 0.0
H1664 H 0.70649 1.00888 0.17645 0.0
H1665 H 0.83348 0.99522 0.36731 0.0
H1666 H 0.70817 1.00804 0.30317 0.0
H1667 H 0.831 0.01514 0.24301 0.0
C1668 C 0.80218 0.01779 0.18805 0.0
C1669 C 0.7673 0.01717 0.16708 0.0
C1670 C 0.73585 1.00626 0.3171 0.0
C1671 C 0.76962 1.00835 0.2502 0.0
C1672 C 0.73733 1.00223 0.35785 0.0
C1673 C 0.77244 0.9983 0.37798 0.0
C1674 C 0.76979 1.00626 0.29486 0.0
C1675 C 0.80562 0.9998 0.3544 0.0
C1676 C 0.80356 1.01316 0.22863 0.0
C1677 C 0.73435 1.00972 0.18989 0.0
N1678 N 0.80347 1.00359 0.31503 0.0
N1679 N 0.73628 1.0061 0.22936 0.0
H1680 H 0.61101 0.2719 0.98325 0.0
H1681 H 0.40899 0.27514 0.09938 0.0
H1682 H 0.60235 0.23367 0.09986 0.0
H1683 H 0.41328 0.26918 0.9767 0.0
H1684 H 0.47903 0.26581 0.10173 0.0
H1685 H 0.54069 0.28049 0.98186 0.0
C1686 C 0.59499 0.26687 1.00926 0.0
C1687 C 0.61446 0.25327 0.04224 0.0
C1688 C 0.46479 0.26573 0.07416 0.0
C1689 C 0.53133 0.26219 0.04051 0.0
C1690 C 0.42413 0.27008 0.0728 0.0
C1691 C 0.40352 0.27129 0.03778 0.0
C1692 C 0.4867 0.26399 0.04013 0.0
C1693 C 0.42669 0.26728 1.00458 0.0
C1694 C 0.55419 0.27116 1.0082 0.0
C1695 C 0.59017 0.24617 0.07423 0.0
N1696 N 0.46623 0.26436 1.00653 0.0
N1697 N 0.55087 0.25067 0.07257 0.0
H1698 H 0.61018 0.78358 0.4468 0.0
H1699 H 0.41414 0.76472 0.57061 0.0
H1700 H 0.61236 0.76273 0.56804 0.0
H1701 H 0.41722 0.73995 0.45023 0.0
H1702 H 0.48432 0.77322 0.5699 0.0
H1703 H 0.5404 0.77322 0.44675 0.0
C1704 C 0.59651 0.77536 0.47342 0.0
C1705 C 0.61898 0.77324 0.50731 0.0
C1706 C 0.46968 0.76687 0.5433 0.0
C1707 C 0.53578 0.76414 0.50797 0.0
C1708 C 0.42887 0.76266 0.54349 0.0
C1709 C 0.40773 0.75306 0.51006 0.0
C1710 C 0.49109 0.76173 0.50929 0.0
C1711 C 0.43062 0.74934 0.47655 0.0
C1712 C 0.55595 0.77028 0.47345 0.0
C1713 C 0.59762 0.76445 0.54085 0.0
N1714 N 0.47004 0.75375 0.47703 0.0
N1715 N 0.55799 0.7609 0.54039 0.0
H1716 H 0.98898 0.36498 0.82658 0.0
H1717 H 0.02923 0.17175 0.70183 0.0
H1718 H 1.00612 0.36757 0.70491 0.0
H1719 H 0.01755 0.17071 0.82418 0.0
H1720 H 0.0184 0.24151 0.70185 0.0
H1721 H 1.00015 0.29539 0.8263 0.0
C1722 C 0.99682 0.35144 0.79982 0.0
C1723 C 0.99819 0.37395 0.76596 0.0
C1724 C 0.01714 0.22614 0.72877 0.0
C1725 C 1.00867 0.29104 0.76497 0.0
C1726 C 0.02241 0.18559 0.72871 0.0
C1727 C 0.0222 0.16343 0.76283 0.0
C1728 C 1.0122 0.24645 0.76342 0.0
C1729 C 0.0161 0.18507 0.79674 0.0
C1730 C 1.00237 0.31099 0.79959 0.0
C1731 C 1.00613 0.35281 0.73215 0.0
N1732 N 1.01147 0.22448 0.79611 0.0
N1733 N 1.01076 0.31335 0.73253 0.0
H1734 H 0.52325 0.66422 0.20288 0.0
H1735 H 0.4984 0.86264 0.32428 0.0
H1736 H 0.52886 0.6686 0.32561 0.0
H1737 H 0.49731 0.85981 0.2014 0.0
H1738 H 0.51048 0.79309 0.32525 0.0
H1739 H 0.51147 0.73393 0.20156 0.0
C1740 C 0.52 0.67917 0.22983 0.0
C1741 C 0.52483 0.65856 0.26457 0.0
C1742 C 0.50853 0.80754 0.29788 0.0
C1743 C 0.51385 0.74151 0.26318 0.0
C1744 C 0.50247 0.84799 0.29727 0.0
C1745 C 0.49851 0.86895 0.26265 0.0
C1746 C 0.50995 0.78611 0.26352 0.0
C1747 C 0.50163 0.84632 0.22897 0.0
C1748 C 0.51419 0.71972 0.22899 0.0
C1749 C 0.52326 0.68169 0.29805 0.0
N1750 N 0.50688 0.80699 0.23027 0.0
N1751 N 0.51803 0.72097 0.29649 0.0
H1752 H 0.91315 0.77142 0.47258 0.0
H1753 H 0.11201 0.73837 0.59057 0.0
H1754 H 0.91895 0.7786 0.59514 0.0
H1755 H 0.11075 0.76295 0.4702 0.0
H1756 H 0.04263 0.75009 0.59312 0.0
H1757 H 0.98337 0.76179 0.47076 0.0
C1758 C 0.92862 0.76916 0.49939 0.0
C1759 C 0.90839 0.77434 0.53418 0.0
C1760 C 0.05742 0.75404 0.56616 0.0
C1761 C 0.99154 0.76476 0.5323 0.0
C1762 C 0.09794 0.74855 0.56491 0.0
C1763 C 0.11953 0.75222 0.53066 0.0
C1764 C 0.03626 0.76175 0.53245 0.0
C1765 C 0.09702 0.76148 0.49789 0.0
C1766 C 0.96936 0.76448 0.49826 0.0
C1767 C 0.93188 0.77319 0.56751 0.0
N1768 N 0.05751 0.76552 0.49956 0.0
N1769 N 0.97124 0.76854 0.56573 0.0
H1770 H 0.03228 0.86773 0.68429 0.0
H1771 H 1.01196 0.66768 0.80266 0.0
H1772 H 1.01088 0.8655 0.80519 0.0
H1773 H 0.99588 0.67389 0.6809 0.0
H1774 H 0.0198 0.73806 0.80426 0.0
H1775 H 0.02345 0.79786 0.68204 0.0
C1776 C 0.02421 0.85307 0.71035 0.0
C1777 C 0.02108 0.87444 0.74473 0.0
C1778 C 0.01552 0.72411 0.77692 0.0
C1779 C 1.01389 0.79109 0.74301 0.0
C1780 C 1.01186 0.68329 0.77585 0.0
C1781 C 1.00456 0.66311 0.74138 0.0
C1782 C 1.01226 0.74639 0.74313 0.0
C1783 C 1.00305 0.68677 0.70818 0.0
C1784 C 0.01998 0.81245 0.70915 0.0
C1785 C 1.01282 0.85176 0.77758 0.0
N1786 N 1.00681 0.72617 0.70989 0.0
N1787 N 1.01001 0.81217 0.77598 0.0
H1788 H 0.47765 0.12071 0.77422 0.0
H1789 H 0.58044 0.90989 0.76486 0.0
H1790 H 0.59212 0.10306 0.73248 0.0
H1791 H 0.46172 0.92434 0.79368 0.0
H1792 H 0.5853 0.97955 0.7535 0.0
H1793 H 0.4721 0.05082 0.78527 0.0
C1794 C 0.50225 0.10276 0.76854 0.0
C1795 C 0.53582 0.11949 0.75287 0.0
C1796 C 0.55777 0.9676 0.76135 0.0
C1797 C 0.52911 0.03682 0.76461 0.0
C1798 C 0.5547 0.92709 0.76692 0.0
C1799 C 0.51991 0.90935 0.77814 0.0
C1800 C 0.52614 0.99224 0.76798 0.0
C1801 C 0.48877 0.93528 0.78312 0.0
C1802 C 0.49881 0.06219 0.77433 0.0
C1803 C 0.56588 0.09285 0.74551 0.0
N1804 N 0.49262 0.97446 0.77829 0.0
N1805 N 0.56179 0.0539 0.75114 0.0
H1806 H 0.17168 0.32001 0.50672 0.0
H1807 H 0.36747 0.19303 0.52705 0.0
H1808 H 0.17348 0.19745 0.49852 0.0
H1809 H 0.36849 0.31588 0.52588 0.0
H1810 H 0.2976 0.19407 0.51664 0.0
H1811 H 0.24179 0.31946 0.51696 0.0
C1812 C 0.18608 0.29265 0.50932 0.0
C1813 C 0.16455 0.25849 0.50435 0.0
C1814 C 0.31298 0.22099 0.51753 0.0
C1815 C 0.24787 0.25771 0.51345 0.0
C1816 C 0.35363 0.22037 0.5224 0.0
C1817 C 0.37583 0.25432 0.52464 0.0
C1818 C 0.29256 0.25602 0.51612 0.0
C1819 C 0.35406 0.28869 0.52204 0.0
C1820 C 0.22684 0.29242 0.51417 0.0
C1821 C 0.18708 0.22452 0.50478 0.0
N1822 N 0.31453 0.28861 0.51812 0.0
N1823 N 0.22648 0.22503 0.50916 0.0
H1824 H 0.55788 0.61993 0.7569 0.0
H1825 H 0.4557 0.40869 0.76685 0.0
H1826 H 0.44418 0.60171 0.80046 0.0
H1827 H 0.57325 0.42432 0.73394 0.0
H1828 H 0.45091 0.47822 0.77903 0.0
H1829 H 0.56317 0.5502 0.74496 0.0
C1830 C 0.53333 0.60189 0.76269 0.0
C1831 C 0.50002 0.61838 0.77901 0.0
C1832 C 0.47819 0.46653 0.77007 0.0
C1833 C 0.50652 0.53593 0.76649 0.0
C1834 C 0.48124 0.42611 0.76399 0.0
C1835 C 0.51572 0.40879 0.75136 0.0
C1836 C 0.50948 0.49143 0.7626 0.0
C1837 C 0.54654 0.43494 0.74556 0.0
C1838 C 0.53665 0.56142 0.75645 0.0
C1839 C 0.47013 0.59165 0.78681 0.0
N1840 N 0.54269 0.47401 0.75094 0.0
N1841 N 0.47411 0.55277 0.78077 0.0
H1842 H 0.67103 0.21638 0.51508 0.0
H1843 H 0.86615 0.34258 0.48872 0.0
H1844 H 0.67192 0.33881 0.52459 0.0
H1845 H 0.8686 0.22119 0.50823 0.0
H1846 H 0.79622 0.34217 0.4987 0.0
H1847 H 0.74126 0.21738 0.50606 0.0
C1848 C 0.68542 0.24382 0.51355 0.0
C1849 C 0.66373 0.27771 0.51918 0.0
C1850 C 0.81187 0.31555 0.50163 0.0
C1851 C 0.74705 0.27909 0.51033 0.0
C1852 C 0.85252 0.31589 0.49678 0.0
C1853 C 0.8751 0.28214 0.49917 0.0
C1854 C 0.7918 0.28088 0.5078 0.0
C1855 C 0.85376 0.24838 0.50724 0.0
C1856 C 0.7262 0.24429 0.50918 0.0
C1857 C 0.68596 0.31186 0.51888 0.0
N1858 N 0.81416 0.24859 0.5108 0.0
N1859 N 0.72541 0.31166 0.51456 0.0
H1860 H 0.11551 0.25539 0.06926 0.0
H1861 H 0.90607 0.26179 0.96272 0.0
H1862 H 0.09976 0.29127 0.95254 0.0
H1863 H 0.91971 0.23098 0.08106 0.0
H1864 H 0.97588 0.27324 0.95873 0.0
H1865 H 0.0456 0.2437 0.07377 0.0
C1866 C 0.098 0.2592 0.04391 0.0
C1867 C 0.11524 0.27302 1.00986 0.0
C1868 C 0.96368 0.26489 0.98598 0.0
C1869 C 0.0326 0.26142 0.01552 0.0
C1870 C 0.92314 0.25922 0.98852 0.0
C1871 C 0.90524 0.24737 0.02296 0.0
C1872 C 0.98805 0.25789 0.01781 0.0
C1873 C 0.93087 0.24194 0.05428 0.0
C1874 C 0.05743 0.25329 0.04677 0.0
C1875 C 0.08914 0.27922 0.97906 0.0
N1876 N 0.97004 0.24702 0.05096 0.0
N1877 N 0.05014 0.27362 0.98263 0.0
H1878 H 0.49755 0.16576 0.1892 0.0
H1879 H 0.52896 0.36075 0.31476 0.0
H1880 H 0.4982 0.16622 0.31212 0.0
H1881 H 0.52329 0.36091 0.19196 0.0
H1882 H 0.51713 0.29108 0.3146 0.0
H1883 H 0.50951 0.23541 0.1895 0.0
C1884 C 0.50227 0.17982 0.21644 0.0
C1885 C 0.49911 0.15808 0.25067 0.0
C1886 C 0.51745 0.30625 0.28755 0.0
C1887 C 0.51025 0.24107 0.25136 0.0
C1888 C 0.5233 0.34678 0.28766 0.0
C1889 C 0.52513 0.36863 0.25342 0.0
C1890 C 0.51414 0.28567 0.25278 0.0
C1891 C 0.52042 0.34675 0.21938 0.0
C1892 C 0.50816 0.22035 0.21658 0.0
C1893 C 0.50253 0.18015 0.28475 0.0
N1894 N 0.51535 0.3074 0.21997 0.0
N1895 N 0.50774 0.21948 0.28418 0.0
loop_
_geom_bond_atom_site_label_1
_geom_bond_atom_site_label_2
_geom_bond_distance
_geom_bond_site_symmetry_2
_ccdc_geom_bond_type
O0 Zr5 2.207 . S
O0 C34 1.295 . S
O1 Zr5 2.133 . S
O1 Zr6 2.133 . S
O1 Zr7 2.133 1_655 S
O2 Zr5 2.133 . S
O2 Zr11 2.133 1_655 S
O2 Zr12 2.133 1_655 S
O3 Zr5 2.133 . S
O3 Zr7 2.133 1_655 S
O3 Zr12 2.133 1_655 S
O4 Zr5 2.133 . S
O4 Zr6 2.133 . S
O4 Zr11 2.133 1_655 S
Zr5 O0 2.207 . S
Zr5 O1 2.133 . S
Zr5 O2 2.133 . S
Zr5 O3 2.133 . S
Zr5 O4 2.133 . S
Zr5 O17 2.207 . S
Zr5 O30 2.207 . S
Zr5 O33 2.207 . S
Zr6 O1 2.133 . S
Zr6 O4 2.133 . S
Zr6 O8 2.133 1_655 S
Zr6 O10 2.133 1_655 S
Zr6 O22 2.207 1_655 S
Zr6 O25 2.207 . S
Zr6 O35 2.207 . S
Zr6 O36 2.207 . S
Zr7 O1 2.133 1_455 S
Zr7 O3 2.133 1_455 S
Zr7 O9 2.133 . S
Zr7 O10 2.133 . S
Zr7 O19 2.207 1_455 S
Zr7 O20 2.207 . S
Zr7 O27 2.207 1_455 S
Zr7 O28 2.207 . S
O8 Zr6 2.133 1_455 S
O8 Zr11 2.133 . S
O8 Zr13 2.133 . S
O9 Zr7 2.133 . S
O9 Zr12 2.133 . S
O9 Zr13 2.133 . S
O10 Zr6 2.133 1_455 S
O10 Zr7 2.133 . S
O10 Zr13 2.133 . S
Zr11 O2 2.133 1_455 S
Zr11 O4 2.133 1_455 S
Zr11 O8 2.133 . S
Zr11 O14 2.133 . S
Zr11 O18 2.207 . S
Zr11 O21 2.207 1_455 S
Zr11 O26 2.207 . S
Zr11 O29 2.207 1_455 S
Zr12 O2 2.133 1_455 S
Zr12 O3 2.133 1_455 S
Zr12 O9 2.133 . S
Zr12 O14 2.133 . S
Zr12 O23 2.207 1_455 S
Zr12 O24 2.207 . S
Zr12 O48 2.207 . S
Zr12 O49 2.207 . S
Zr13 O8 2.133 . S
Zr13 O9 2.133 . S
Zr13 O10 2.133 . S
Zr13 O14 2.133 . S
Zr13 O15 2.207 . S
Zr13 O16 2.207 . S
Zr13 O31 2.207 . S
Zr13 O32 2.207 . S
O14 Zr11 2.133 . S
O14 Zr12 2.133 . S
O14 Zr13 2.133 . S
O15 Zr13 2.207 . S
O15 C37 1.295 . S
O16 Zr13 2.207 . S
O16 C38 1.295 . S
O17 Zr5 2.207 . S
O17 C39 1.295 . S
O18 Zr11 2.207 . S
O18 C40 1.295 . S
O19 Zr7 2.207 1_655 S
O19 C41 1.295 . S
O20 Zr7 2.207 . S
O20 C42 1.295 . S
O21 Zr11 2.207 1_655 S
O21 C43 1.295 . S
O22 Zr6 2.207 1_455 S
O22 C44 1.295 . S
O23 Zr12 2.207 1_655 S
O23 C45 1.295 . S
O24 Zr12 2.207 . S
O24 C46 1.295 . S
O25 Zr6 2.207 . S
O25 C47 1.295 . S
O26 Zr11 2.207 . S
O26 C37 1.295 . S
O27 Zr7 2.207 1_655 S
O27 C34 1.295 . S
O28 Zr7 2.207 . S
O28 C38 1.295 . S
O29 Zr11 2.207 1_655 S
O29 C39 1.295 . S
O30 Zr5 2.207 . S
O30 C47 1.295 . S
O31 Zr13 2.207 . S
O31 C46 1.295 . S
O32 Zr13 2.207 . S
O32 C44 1.295 . S
O33 Zr5 2.207 . S
O33 C45 1.295 . S
C34 O0 1.295 . S
C34 O27 1.295 . S
O35 Zr6 2.207 . S
O35 C43 1.295 . S
O36 Zr6 2.207 . S
O36 C41 1.295 . S
C37 O15 1.295 . S
C37 O26 1.295 . S
C38 O16 1.295 . S
C38 O28 1.295 . S
C39 O17 1.295 . S
C39 O29 1.295 . S
C40 O18 1.295 . S
C40 O49 1.295 . S
C41 O19 1.295 . S
C41 O36 1.295 . S
C42 O20 1.295 . S
C42 O48 1.295 . S
C43 O21 1.295 . S
C43 O35 1.295 . S
C44 O22 1.295 . S
C44 O32 1.295 . S
C45 O23 1.295 . S
C45 O33 1.295 . S
C46 O24 1.295 . S
C46 O31 1.295 . S
C47 O25 1.295 . S
C47 O30 1.295 . S
O48 Zr12 2.207 . S
O48 C42 1.295 . S
O49 Zr12 2.207 . S
O49 C40 1.295 . S
O50 Zr55 2.207 . S
O50 C84 1.295 . S
O51 Zr55 2.133 . S
O51 Zr56 2.133 . S
O51 Zr57 2.133 . S
O52 Zr55 2.133 . S
O52 Zr61 2.133 . S
O52 Zr62 2.133 . S
O53 Zr55 2.133 . S
O53 Zr57 2.133 . S
O53 Zr62 2.133 . S
O54 Zr55 2.133 . S
O54 Zr56 2.133 . S
O54 Zr61 2.133 . S
Zr55 O50 2.207 . S
Zr55 O51 2.133 . S
Zr55 O52 2.133 . S
Zr55 O53 2.133 . S
Zr55 O54 2.133 . S
Zr55 O67 2.207 . S
Zr55 O80 2.207 . S
Zr55 O83 2.207 . S
Zr56 O51 2.133 . S
Zr56 O54 2.133 . S
Zr56 O58 2.133 . S
Zr56 O60 2.133 . S
Zr56 O72 2.207 . S
Zr56 O75 2.207 . S
Zr56 O85 2.207 . S
Zr56 O86 2.207 . S
Zr57 O51 2.133 . S
Zr57 O53 2.133 . S
Zr57 O59 2.133 . S
Zr57 O60 2.133 . S
Zr57 O69 2.207 . S
Zr57 O70 2.207 . S
Zr57 O77 2.207 . S
Zr57 O78 2.207 . S
O58 Zr56 2.133 . S
O58 Zr61 2.133 . S
O58 Zr63 2.133 . S
O59 Zr57 2.133 . S
O59 Zr62 2.133 . S
O59 Zr63 2.133 . S
O60 Zr56 2.133 . S
O60 Zr57 2.133 . S
O60 Zr63 2.133 . S
Zr61 O52 2.133 . S
Zr61 O54 2.133 . S
Zr61 O58 2.133 . S
Zr61 O64 2.133 . S
Zr61 O68 2.207 . S
Zr61 O71 2.207 . S
Zr61 O76 2.207 . S
Zr61 O79 2.207 . S
Zr62 O52 2.133 . S
Zr62 O53 2.133 . S
Zr62 O59 2.133 . S
Zr62 O64 2.133 . S
Zr62 O73 2.207 . S
Zr62 O74 2.207 . S
Zr62 O98 2.207 . S
Zr62 O99 2.207 . S
Zr63 O58 2.133 . S
Zr63 O59 2.133 . S
Zr63 O60 2.133 . S
Zr63 O64 2.133 . S
Zr63 O65 2.207 . S
Zr63 O66 2.207 . S
Zr63 O81 2.207 . S
Zr63 O82 2.207 . S
O64 Zr61 2.133 . S
O64 Zr62 2.133 . S
O64 Zr63 2.133 . S
O65 Zr63 2.207 . S
O65 C87 1.295 . S
O66 Zr63 2.207 . S
O66 C88 1.295 . S
O67 Zr55 2.207 . S
O67 C89 1.295 . S
O68 Zr61 2.207 . S
O68 C90 1.295 . S
O69 Zr57 2.207 . S
O69 C91 1.295 . S
O70 Zr57 2.207 . S
O70 C92 1.295 . S
O71 Zr61 2.207 . S
O71 C93 1.295 . S
O72 Zr56 2.207 . S
O72 C94 1.295 . S
O73 Zr62 2.207 . S
O73 C95 1.295 . S
O74 Zr62 2.207 . S
O74 C96 1.295 . S
O75 Zr56 2.207 . S
O75 C97 1.295 . S
O76 Zr61 2.207 . S
O76 C87 1.295 . S
O77 Zr57 2.207 . S
O77 C84 1.295 . S
O78 Zr57 2.207 . S
O78 C88 1.295 . S
O79 Zr61 2.207 . S
O79 C89 1.295 . S
O80 Zr55 2.207 . S
O80 C97 1.295 . S
O81 Zr63 2.207 . S
O81 C96 1.295 . S
O82 Zr63 2.207 . S
O82 C94 1.295 . S
O83 Zr55 2.207 . S
O83 C95 1.295 . S
C84 O50 1.295 . S
C84 O77 1.295 . S
O85 Zr56 2.207 . S
O85 C93 1.295 . S
O86 Zr56 2.207 . S
O86 C91 1.295 . S
C87 O65 1.295 . S
C87 O76 1.295 . S
C88 O66 1.295 . S
C88 O78 1.295 . S
C89 O67 1.295 . S
C89 O79 1.295 . S
C90 O68 1.295 . S
C90 O99 1.295 . S
C91 O69 1.295 . S
C91 O86 1.295 . S
C92 O70 1.295 . S
C92 O98 1.295 . S
C93 O71 1.295 . S
C93 O85 1.295 . S
C94 O72 1.295 . S
C94 O82 1.295 . S
C95 O73 1.295 . S
C95 O83 1.295 . S
C96 O74 1.295 . S
C96 O81 1.295 . S
C97 O75 1.295 . S
C97 O80 1.295 . S
O98 Zr62 2.207 . S
O98 C92 1.295 . S
O99 Zr62 2.207 . S
O99 C90 1.295 . S
O100 Zr105 2.207 1_655 S
O100 C134 1.295 . S
O101 Zr105 2.133 . S
O101 Zr106 2.133 . S
O101 Zr107 2.133 1_455 S
O102 Zr105 2.133 1_655 S
O102 Zr111 2.133 1_655 S
O102 Zr112 2.133 . S
O103 Zr105 2.133 1_655 S
O103 Zr107 2.133 . S
O103 Zr112 2.133 . S
O104 Zr105 2.133 . S
O104 Zr106 2.133 . S
O104 Zr111 2.133 . S
Zr105 O100 2.207 1_455 S
Zr105 O101 2.133 . S
Zr105 O102 2.133 1_455 S
Zr105 O103 2.133 1_455 S
Zr105 O104 2.133 . S
Zr105 O117 2.207 . S
Zr105 O130 2.207 . S
Zr105 O133 2.207 1_455 S
Zr106 O101 2.133 . S
Zr106 O104 2.133 . S
Zr106 O108 2.133 . S
Zr106 O110 2.133 . S
Zr106 O122 2.207 . S
Zr106 O125 2.207 . S
Zr106 O135 2.207 . S
Zr106 O136 2.207 . S
Zr107 O101 2.133 1_655 S
Zr107 O103 2.133 . S
Zr107 O109 2.133 . S
Zr107 O110 2.133 1_655 S
Zr107 O119 2.207 1_655 S
Zr107 O120 2.207 . S
Zr107 O127 2.207 . S
Zr107 O128 2.207 . S
O108 Zr106 2.133 . S
O108 Zr111 2.133 . S
O108 Zr113 2.133 . S
O109 Zr107 2.133 . S
O109 Zr112 2.133 . S
O109 Zr113 2.133 1_655 S
O110 Zr106 2.133 . S
O110 Zr107 2.133 1_455 S
O110 Zr113 2.133 . S
Zr111 O102 2.133 1_455 S
Zr111 O104 2.133 . S
Zr111 O108 2.133 . S
Zr111 O114 2.133 1_455 S
Zr111 O118 2.207 1_455 S
Zr111 O121 2.207 . S
Zr111 O126 2.207 . S
Zr111 O129 2.207 . S
Zr112 O102 2.133 . S
Zr112 O103 2.133 . S
Zr112 O109 2.133 . S
Zr112 O114 2.133 . S
Zr112 O123 2.207 . S
Zr112 O124 2.207 . S
Zr112 O148 2.207 . S
Zr112 O149 2.207 . S
Zr113 O108 2.133 . S
Zr113 O109 2.133 1_455 S
Zr113 O110 2.133 . S
Zr113 O114 2.133 1_455 S
Zr113 O115 2.207 . S
Zr113 O116 2.207 1_455 S
Zr113 O131 2.207 1_455 S
Zr113 O132 2.207 . S
O114 Zr111 2.133 1_655 S
O114 Zr112 2.133 . S
O114 Zr113 2.133 1_655 S
O115 Zr113 2.207 . S
O115 C137 1.295 . S
O116 Zr113 2.207 1_655 S
O116 C138 1.295 . S
O117 Zr105 2.207 . S
O117 C139 1.295 . S
O118 Zr111 2.207 1_655 S
O118 C140 1.295 . S
O119 Zr107 2.207 1_455 S
O119 C141 1.295 . S
O120 Zr107 2.207 . S
O120 C142 1.295 . S
O121 Zr111 2.207 . S
O121 C143 1.295 . S
O122 Zr106 2.207 . S
O122 C144 1.295 . S
O123 Zr112 2.207 . S
O123 C145 1.295 . S
O124 Zr112 2.207 . S
O124 C146 1.295 . S
O125 Zr106 2.207 . S
O125 C147 1.295 . S
O126 Zr111 2.207 . S
O126 C137 1.295 . S
O127 Zr107 2.207 . S
O127 C134 1.295 . S
O128 Zr107 2.207 . S
O128 C138 1.295 . S
O129 Zr111 2.207 . S
O129 C139 1.295 . S
O130 Zr105 2.207 . S
O130 C147 1.295 . S
O131 Zr113 2.207 1_655 S
O131 C146 1.295 . S
O132 Zr113 2.207 . S
O132 C144 1.295 . S
O133 Zr105 2.207 1_655 S
O133 C145 1.295 . S
C134 O100 1.295 . S
C134 O127 1.295 . S
O135 Zr106 2.207 . S
O135 C143 1.295 . S
O136 Zr106 2.207 . S
O136 C141 1.295 . S
C137 O115 1.295 . S
C137 O126 1.295 . S
C138 O116 1.295 . S
C138 O128 1.295 . S
C139 O117 1.295 . S
C139 O129 1.295 . S
C140 O118 1.295 . S
C140 O149 1.295 . S
C141 O119 1.295 . S
C141 O136 1.295 . S
C142 O120 1.295 . S
C142 O148 1.295 . S
C143 O121 1.295 . S
C143 O135 1.295 . S
C144 O122 1.295 . S
C144 O132 1.295 . S
C145 O123 1.295 . S
C145 O133 1.295 . S
C146 O124 1.295 . S
C146 O131 1.295 . S
C147 O125 1.295 . S
C147 O130 1.295 . S
O148 Zr112 2.207 . S
O148 C142 1.295 . S
O149 Zr112 2.207 . S
O149 C140 1.295 . S
O150 Zr155 2.207 . S
O150 C184 1.295 . S
O151 Zr155 2.133 . S
O151 Zr156 2.133 . S
O151 Zr157 2.133 . S
O152 Zr155 2.133 1_565 S
O152 Zr161 2.133 . S
O152 Zr162 2.133 . S
O153 Zr155 2.133 1_565 S
O153 Zr157 2.133 1_565 S
O153 Zr162 2.133 . S
O154 Zr155 2.133 . S
O154 Zr156 2.133 . S
O154 Zr161 2.133 1_545 S
Zr155 O150 2.207 . S
Zr155 O151 2.133 . S
Zr155 O152 2.133 1_545 S
Zr155 O153 2.133 1_545 S
Zr155 O154 2.133 . S
Zr155 O167 2.207 1_545 S
Zr155 O180 2.207 . S
Zr155 O183 2.207 1_545 S
Zr156 O151 2.133 . S
Zr156 O154 2.133 . S
Zr156 O158 2.133 . S
Zr156 O160 2.133 . S
Zr156 O172 2.207 . S
Zr156 O175 2.207 . S
Zr156 O185 2.207 . S
Zr156 O186 2.207 . S
Zr157 O151 2.133 . S
Zr157 O153 2.133 1_545 S
Zr157 O159 2.133 1_545 S
Zr157 O160 2.133 . S
Zr157 O169 2.207 . S
Zr157 O170 2.207 1_545 S
Zr157 O177 2.207 . S
Zr157 O178 2.207 . S
O158 Zr156 2.133 . S
O158 Zr161 2.133 1_545 S
O158 Zr163 2.133 . S
O159 Zr157 2.133 1_565 S
O159 Zr162 2.133 . S
O159 Zr163 2.133 1_565 S
O160 Zr156 2.133 . S
O160 Zr157 2.133 . S
O160 Zr163 2.133 . S
Zr161 O152 2.133 . S
Zr161 O154 2.133 1_565 S
Zr161 O158 2.133 1_565 S
Zr161 O164 2.133 . S
Zr161 O168 2.207 . S
Zr161 O171 2.207 1_565 S
Zr161 O176 2.207 . S
Zr161 O179 2.207 . S
Zr162 O152 2.133 . S
Zr162 O153 2.133 . S
Zr162 O159 2.133 . S
Zr162 O164 2.133 . S
Zr162 O173 2.207 . S
Zr162 O174 2.207 . S
Zr162 O198 2.207 . S
Zr162 O199 2.207 . S
Zr163 O158 2.133 . S
Zr163 O159 2.133 1_545 S
Zr163 O160 2.133 . S
Zr163 O164 2.133 1_545 S
Zr163 O165 2.207 1_545 S
Zr163 O166 2.207 . S
Zr163 O181 2.207 1_545 S
Zr163 O182 2.207 . S
O164 Zr161 2.133 . S
O164 Zr162 2.133 . S
O164 Zr163 2.133 1_565 S
O165 Zr163 2.207 1_565 S
O165 C187 1.295 . S
O166 Zr163 2.207 . S
O166 C188 1.295 . S
O167 Zr155 2.207 1_565 S
O167 C189 1.295 . S
O168 Zr161 2.207 . S
O168 C190 1.295 . S
O169 Zr157 2.207 . S
O169 C191 1.295 . S
O170 Zr157 2.207 1_565 S
O170 C192 1.295 . S
O171 Zr161 2.207 1_545 S
O171 C193 1.295 . S
O172 Zr156 2.207 . S
O172 C194 1.295 . S
O173 Zr162 2.207 . S
O173 C195 1.295 . S
O174 Zr162 2.207 . S
O174 C196 1.295 . S
O175 Zr156 2.207 . S
O175 C197 1.295 . S
O176 Zr161 2.207 . S
O176 C187 1.295 . S
O177 Zr157 2.207 . S
O177 C184 1.295 . S
O178 Zr157 2.207 . S
O178 C188 1.295 . S
O179 Zr161 2.207 . S
O179 C189 1.295 . S
O180 Zr155 2.207 . S
O180 C197 1.295 . S
O181 Zr163 2.207 1_565 S
O181 C196 1.295 . S
O182 Zr163 2.207 . S
O182 C194 1.295 . S
O183 Zr155 2.207 1_565 S
O183 C195 1.295 . S
C184 O150 1.295 . S
C184 O177 1.295 . S
O185 Zr156 2.207 . S
O185 C193 1.295 . S
O186 Zr156 2.207 . S
O186 C191 1.295 . S
C187 O165 1.295 . S
C187 O176 1.295 . S
C188 O166 1.295 . S
C188 O178 1.295 . S
C189 O167 1.295 . S
C189 O179 1.295 . S
C190 O168 1.295 . S
C190 O199 1.295 . S
C191 O169 1.295 . S
C191 O186 1.295 . S
C192 O170 1.295 . S
C192 O198 1.295 . S
C193 O171 1.295 . S
C193 O185 1.295 . S
C194 O172 1.295 . S
C194 O182 1.295 . S
C195 O173 1.295 . S
C195 O183 1.295 . S
C196 O174 1.295 . S
C196 O181 1.295 . S
C197 O175 1.295 . S
C197 O180 1.295 . S
O198 Zr162 2.207 . S
O198 C192 1.295 . S
O199 Zr162 2.207 . S
O199 C190 1.295 . S
O200 Zr205 2.207 . S
O200 C234 1.295 . S
O201 Zr205 2.133 . S
O201 Zr206 2.133 . S
O201 Zr207 2.133 . S
O202 Zr205 2.133 1_556 S
O202 Zr211 2.133 . S
O202 Zr212 2.133 . S
O203 Zr205 2.133 1_556 S
O203 Zr207 2.133 1_556 S
O203 Zr212 2.133 . S
O204 Zr205 2.133 . S
O204 Zr206 2.133 . S
O204 Zr211 2.133 1_554 S
Zr205 O200 2.207 . S
Zr205 O201 2.133 . S
Zr205 O202 2.133 1_554 S
Zr205 O203 2.133 1_554 S
Zr205 O204 2.133 . S
Zr205 O217 2.207 1_554 S
Zr205 O230 2.207 . S
Zr205 O233 2.207 1_554 S
Zr206 O201 2.133 . S
Zr206 O204 2.133 . S
Zr206 O208 2.133 . S
Zr206 O210 2.133 . S
Zr206 O222 2.207 . S
Zr206 O225 2.207 . S
Zr206 O235 2.207 . S
Zr206 O236 2.207 . S
Zr207 O201 2.133 . S
Zr207 O203 2.133 1_554 S
Zr207 O209 2.133 1_554 S
Zr207 O210 2.133 . S
Zr207 O219 2.207 . S
Zr207 O220 2.207 1_554 S
Zr207 O227 2.207 . S
Zr207 O228 2.207 . S
O208 Zr206 2.133 . S
O208 Zr211 2.133 1_554 S
O208 Zr213 2.133 . S
O209 Zr207 2.133 1_556 S
O209 Zr212 2.133 . S
O209 Zr213 2.133 1_556 S
O210 Zr206 2.133 . S
O210 Zr207 2.133 . S
O210 Zr213 2.133 . S
Zr211 O202 2.133 . S
Zr211 O204 2.133 1_556 S
Zr211 O208 2.133 1_556 S
Zr211 O214 2.133 . S
Zr211 O218 2.207 . S
Zr211 O221 2.207 1_556 S
Zr211 O226 2.207 . S
Zr211 O229 2.207 . S
Zr212 O202 2.133 . S
Zr212 O203 2.133 . S
Zr212 O209 2.133 . S
Zr212 O214 2.133 . S
Zr212 O223 2.207 . S
Zr212 O224 2.207 . S
Zr212 O248 2.207 . S
Zr212 O249 2.207 . S
Zr213 O208 2.133 . S
Zr213 O209 2.133 1_554 S
Zr213 O210 2.133 . S
Zr213 O214 2.133 1_554 S
Zr213 O215 2.207 1_554 S
Zr213 O216 2.207 . S
Zr213 O231 2.207 1_554 S
Zr213 O232 2.207 . S
O214 Zr211 2.133 . S
O214 Zr212 2.133 . S
O214 Zr213 2.133 1_556 S
O215 Zr213 2.207 1_556 S
O215 C237 1.295 . S
O216 Zr213 2.207 . S
O216 C238 1.295 . S
O217 Zr205 2.207 1_556 S
O217 C239 1.295 . S
O218 Zr211 2.207 . S
O218 C240 1.295 . S
O219 Zr207 2.207 . S
O219 C241 1.295 . S
O220 Zr207 2.207 1_556 S
O220 C242 1.295 . S
O221 Zr211 2.207 1_554 S
O221 C243 1.295 . S
O222 Zr206 2.207 . S
O222 C244 1.295 . S
O223 Zr212 2.207 . S
O223 C245 1.295 . S
O224 Zr212 2.207 . S
O224 C246 1.295 . S
O225 Zr206 2.207 . S
O225 C247 1.295 . S
O226 Zr211 2.207 . S
O226 C237 1.295 . S
O227 Zr207 2.207 . S
O227 C234 1.295 . S
O228 Zr207 2.207 . S
O228 C238 1.295 . S
O229 Zr211 2.207 . S
O229 C239 1.295 . S
O230 Zr205 2.207 . S
O230 C247 1.295 . S
O231 Zr213 2.207 1_556 S
O231 C246 1.295 . S
O232 Zr213 2.207 . S
O232 C244 1.295 . S
O233 Zr205 2.207 1_556 S
O233 C245 1.295 . S
C234 O200 1.295 . S
C234 O227 1.295 . S
O235 Zr206 2.207 . S
O235 C243 1.295 . S
O236 Zr206 2.207 . S
O236 C241 1.295 . S
C237 O215 1.295 . S
C237 O226 1.295 . S
C238 O216 1.295 . S
C238 O228 1.295 . S
C239 O217 1.295 . S
C239 O229 1.295 . S
C240 O218 1.295 . S
C240 O249 1.295 . S
C241 O219 1.295 . S
C241 O236 1.295 . S
C242 O220 1.295 . S
C242 O248 1.295 . S
C243 O221 1.295 . S
C243 O235 1.295 . S
C244 O222 1.295 . S
C244 O232 1.295 . S
C245 O223 1.295 . S
C245 O233 1.295 . S
C246 O224 1.295 . S
C246 O231 1.295 . S
C247 O225 1.295 . S
C247 O230 1.295 . S
O248 Zr212 2.207 . S
O248 C242 1.295 . S
O249 Zr212 2.207 . S
O249 C240 1.295 . S
O250 Zr255 2.207 . S
O250 C284 1.295 . S
O251 Zr255 2.133 . S
O251 Zr256 2.133 . S
O251 Zr257 2.133 . S
O252 Zr255 2.133 . S
O252 Zr261 2.133 . S
O252 Zr262 2.133 . S
O253 Zr255 2.133 . S
O253 Zr257 2.133 . S
O253 Zr262 2.133 . S
O254 Zr255 2.133 . S
O254 Zr256 2.133 . S
O254 Zr261 2.133 . S
Zr255 O250 2.207 . S
Zr255 O251 2.133 . S
Zr255 O252 2.133 . S
Zr255 O253 2.133 . S
Zr255 O254 2.133 . S
Zr255 O267 2.207 . S
Zr255 O280 2.207 . S
Zr255 O283 2.207 . S
Zr256 O251 2.133 . S
Zr256 O254 2.133 . S
Zr256 O258 2.133 . S
Zr256 O260 2.133 . S
Zr256 O272 2.207 . S
Zr256 O275 2.207 . S
Zr256 O285 2.207 . S
Zr256 O286 2.207 . S
Zr257 O251 2.133 . S
Zr257 O253 2.133 . S
Zr257 O259 2.133 . S
Zr257 O260 2.133 . S
Zr257 O269 2.207 . S
Zr257 O270 2.207 . S
Zr257 O277 2.207 . S
Zr257 O278 2.207 . S
O258 Zr256 2.133 . S
O258 Zr261 2.133 . S
O258 Zr263 2.133 . S
O259 Zr257 2.133 . S
O259 Zr262 2.133 . S
O259 Zr263 2.133 . S
O260 Zr256 2.133 . S
O260 Zr257 2.133 . S
O260 Zr263 2.133 . S
Zr261 O252 2.133 . S
Zr261 O254 2.133 . S
Zr261 O258 2.133 . S
Zr261 O264 2.133 . S
Zr261 O268 2.207 . S
Zr261 O271 2.207 . S
Zr261 O276 2.207 . S
Zr261 O279 2.207 . S
Zr262 O252 2.133 . S
Zr262 O253 2.133 . S
Zr262 O259 2.133 . S
Zr262 O264 2.133 . S
Zr262 O273 2.207 . S
Zr262 O274 2.207 . S
Zr262 O298 2.207 . S
Zr262 O299 2.207 . S
Zr263 O258 2.133 . S
Zr263 O259 2.133 . S
Zr263 O260 2.133 . S
Zr263 O264 2.133 . S
Zr263 O265 2.207 . S
Zr263 O266 2.207 . S
Zr263 O281 2.207 . S
Zr263 O282 2.207 . S
O264 Zr261 2.133 . S
O264 Zr262 2.133 . S
O264 Zr263 2.133 . S
O265 Zr263 2.207 . S
O265 C287 1.295 . S
O266 Zr263 2.207 . S
O266 C288 1.295 . S
O267 Zr255 2.207 . S
O267 C289 1.295 . S
O268 Zr261 2.207 . S
O268 C290 1.295 . S
O269 Zr257 2.207 . S
O269 C291 1.295 . S
O270 Zr257 2.207 . S
O270 C292 1.295 . S
O271 Zr261 2.207 . S
O271 C293 1.295 . S
O272 Zr256 2.207 . S
O272 C294 1.295 . S
O273 Zr262 2.207 . S
O273 C295 1.295 . S
O274 Zr262 2.207 . S
O274 C296 1.295 . S
O275 Zr256 2.207 . S
O275 C297 1.295 . S
O276 Zr261 2.207 . S
O276 C287 1.295 . S
O277 Zr257 2.207 . S
O277 C284 1.295 . S
O278 Zr257 2.207 . S
O278 C288 1.295 . S
O279 Zr261 2.207 . S
O279 C289 1.295 . S
O280 Zr255 2.207 . S
O280 C297 1.295 . S
O281 Zr263 2.207 . S
O281 C296 1.295 . S
O282 Zr263 2.207 . S
O282 C294 1.295 . S
O283 Zr255 2.207 . S
O283 C295 1.295 . S
C284 O250 1.295 . S
C284 O277 1.295 . S
O285 Zr256 2.207 . S
O285 C293 1.295 . S
O286 Zr256 2.207 . S
O286 C291 1.295 . S
C287 O265 1.295 . S
C287 O276 1.295 . S
C288 O266 1.295 . S
C288 O278 1.295 . S
C289 O267 1.295 . S
C289 O279 1.295 . S
C290 O268 1.295 . S
C290 O299 1.295 . S
C291 O269 1.295 . S
C291 O286 1.295 . S
C292 O270 1.295 . S
C292 O298 1.295 . S
C293 O271 1.295 . S
C293 O285 1.295 . S
C294 O272 1.295 . S
C294 O282 1.295 . S
C295 O273 1.295 . S
C295 O283 1.295 . S
C296 O274 1.295 . S
C296 O281 1.295 . S
C297 O275 1.295 . S
C297 O280 1.295 . S
O298 Zr262 2.207 . S
O298 C292 1.295 . S
O299 Zr262 2.207 . S
O299 C290 1.295 . S
O300 Zr305 2.207 . S
O300 C334 1.295 . S
O301 Zr305 2.133 . S
O301 Zr306 2.133 1_556 S
O301 Zr307 2.133 1_556 S
O302 Zr305 2.133 . S
O302 Zr311 2.133 1_556 S
O302 Zr312 2.133 . S
O303 Zr305 2.133 . S
O303 Zr307 2.133 1_556 S
O303 Zr312 2.133 . S
O304 Zr305 2.133 . S
O304 Zr306 2.133 1_556 S
O304 Zr311 2.133 1_556 S
Zr305 O300 2.207 . S
Zr305 O301 2.133 . S
Zr305 O302 2.133 . S
Zr305 O303 2.133 . S
Zr305 O304 2.133 . S
Zr305 O317 2.207 . S
Zr305 O330 2.207 . S
Zr305 O333 2.207 . S
Zr306 O301 2.133 1_554 S
Zr306 O304 2.133 1_554 S
Zr306 O308 2.133 . S
Zr306 O310 2.133 . S
Zr306 O322 2.207 . S
Zr306 O325 2.207 1_554 S
Zr306 O335 2.207 . S
Zr306 O336 2.207 . S
Zr307 O301 2.133 1_554 S
Zr307 O303 2.133 1_554 S
Zr307 O309 2.133 . S
Zr307 O310 2.133 . S
Zr307 O319 2.207 . S
Zr307 O320 2.207 1_554 S
Zr307 O327 2.207 1_554 S
Zr307 O328 2.207 . S
O308 Zr306 2.133 . S
O308 Zr311 2.133 . S
O308 Zr313 2.133 . S
O309 Zr307 2.133 . S
O309 Zr312 2.133 1_554 S
O309 Zr313 2.133 . S
O310 Zr306 2.133 . S
O310 Zr307 2.133 . S
O310 Zr313 2.133 . S
Zr311 O302 2.133 1_554 S
Zr311 O304 2.133 1_554 S
Zr311 O308 2.133 . S
Zr311 O314 2.133 . S
Zr311 O318 2.207 1_554 S
Zr311 O321 2.207 . S
Zr311 O326 2.207 . S
Zr311 O329 2.207 1_554 S
Zr312 O302 2.133 . S
Zr312 O303 2.133 . S
Zr312 O309 2.133 1_556 S
Zr312 O314 2.133 1_556 S
Zr312 O323 2.207 . S
Zr312 O324 2.207 1_556 S
Zr312 O348 2.207 . S
Zr312 O349 2.207 . S
Zr313 O308 2.133 . S
Zr313 O309 2.133 . S
Zr313 O310 2.133 . S
Zr313 O314 2.133 . S
Zr313 O315 2.207 . S
Zr313 O316 2.207 . S
Zr313 O331 2.207 . S
Zr313 O332 2.207 . S
O314 Zr311 2.133 . S
O314 Zr312 2.133 1_554 S
O314 Zr313 2.133 . S
O315 Zr313 2.207 . S
O315 C337 1.295 . S
O316 Zr313 2.207 . S
O316 C338 1.295 . S
O317 Zr305 2.207 . S
O317 C339 1.295 . S
O318 Zr311 2.207 1_556 S
O318 C340 1.295 . S
O319 Zr307 2.207 . S
O319 C341 1.295 . S
O320 Zr307 2.207 1_556 S
O320 C342 1.295 . S
O321 Zr311 2.207 . S
O321 C343 1.295 . S
O322 Zr306 2.207 . S
O322 C344 1.295 . S
O323 Zr312 2.207 . S
O323 C345 1.295 . S
O324 Zr312 2.207 1_554 S
O324 C346 1.295 . S
O325 Zr306 2.207 1_556 S
O325 C347 1.295 . S
O326 Zr311 2.207 . S
O326 C337 1.295 . S
O327 Zr307 2.207 1_556 S
O327 C334 1.295 . S
O328 Zr307 2.207 . S
O328 C338 1.295 . S
O329 Zr311 2.207 1_556 S
O329 C339 1.295 . S
O330 Zr305 2.207 . S
O330 C347 1.295 . S
O331 Zr313 2.207 . S
O331 C346 1.295 . S
O332 Zr313 2.207 . S
O332 C344 1.295 . S
O333 Zr305 2.207 . S
O333 C345 1.295 . S
C334 O300 1.295 . S
C334 O327 1.295 . S
O335 Zr306 2.207 . S
O335 C343 1.295 . S
O336 Zr306 2.207 . S
O336 C341 1.295 . S
C337 O315 1.295 . S
C337 O326 1.295 . S
C338 O316 1.295 . S
C338 O328 1.295 . S
C339 O317 1.295 . S
C339 O329 1.295 . S
C340 O318 1.295 . S
C340 O349 1.295 . S
C341 O319 1.295 . S
C341 O336 1.295 . S
C342 O320 1.295 . S
C342 O348 1.295 . S
C343 O321 1.295 . S
C343 O335 1.295 . S
C344 O322 1.295 . S
C344 O332 1.295 . S
C345 O323 1.295 . S
C345 O333 1.295 . S
C346 O324 1.295 . S
C346 O331 1.295 . S
C347 O325 1.295 . S
C347 O330 1.295 . S
O348 Zr312 2.207 . S
O348 C342 1.295 . S
O349 Zr312 2.207 . S
O349 C340 1.295 . S
O350 Zr355 2.207 . S
O350 C384 1.295 . S
O351 Zr355 2.133 . S
O351 Zr356 2.133 . S
O351 Zr357 2.133 . S
O352 Zr355 2.133 . S
O352 Zr361 2.133 . S
O352 Zr362 2.133 . S
O353 Zr355 2.133 . S
O353 Zr357 2.133 . S
O353 Zr362 2.133 . S
O354 Zr355 2.133 . S
O354 Zr356 2.133 . S
O354 Zr361 2.133 . S
Zr355 O350 2.207 . S
Zr355 O351 2.133 . S
Zr355 O352 2.133 . S
Zr355 O353 2.133 . S
Zr355 O354 2.133 . S
Zr355 O367 2.207 . S
Zr355 O380 2.207 . S
Zr355 O383 2.207 . S
Zr356 O351 2.133 . S
Zr356 O354 2.133 . S
Zr356 O358 2.133 . S
Zr356 O360 2.133 . S
Zr356 O372 2.207 . S
Zr356 O375 2.207 . S
Zr356 O385 2.207 . S
Zr356 O386 2.207 . S
Zr357 O351 2.133 . S
Zr357 O353 2.133 . S
Zr357 O359 2.133 . S
Zr357 O360 2.133 . S
Zr357 O369 2.207 . S
Zr357 O370 2.207 . S
Zr357 O377 2.207 . S
Zr357 O378 2.207 . S
O358 Zr356 2.133 . S
O358 Zr361 2.133 . S
O358 Zr363 2.133 . S
O359 Zr357 2.133 . S
O359 Zr362 2.133 . S
O359 Zr363 2.133 . S
O360 Zr356 2.133 . S
O360 Zr357 2.133 . S
O360 Zr363 2.133 . S
Zr361 O352 2.133 . S
Zr361 O354 2.133 . S
Zr361 O358 2.133 . S
Zr361 O364 2.133 . S
Zr361 O368 2.207 . S
Zr361 O371 2.207 . S
Zr361 O376 2.207 . S
Zr361 O379 2.207 . S
Zr362 O352 2.133 . S
Zr362 O353 2.133 . S
Zr362 O359 2.133 . S
Zr362 O364 2.133 . S
Zr362 O373 2.207 . S
Zr362 O374 2.207 . S
Zr362 O398 2.207 . S
Zr362 O399 2.207 . S
Zr363 O358 2.133 . S
Zr363 O359 2.133 . S
Zr363 O360 2.133 . S
Zr363 O364 2.133 . S
Zr363 O365 2.207 . S
Zr363 O366 2.207 . S
Zr363 O381 2.207 . S
Zr363 O382 2.207 . S
O364 Zr361 2.133 . S
O364 Zr362 2.133 . S
O364 Zr363 2.133 . S
O365 Zr363 2.207 . S
O365 C387 1.295 . S
O366 Zr363 2.207 . S
O366 C388 1.295 . S
O367 Zr355 2.207 . S
O367 C389 1.295 . S
O368 Zr361 2.207 . S
O368 C390 1.295 . S
O369 Zr357 2.207 . S
O369 C391 1.295 . S
O370 Zr357 2.207 . S
O370 C392 1.295 . S
O371 Zr361 2.207 . S
O371 C393 1.295 . S
O372 Zr356 2.207 . S
O372 C394 1.295 . S
O373 Zr362 2.207 . S
O373 C395 1.295 . S
O374 Zr362 2.207 . S
O374 C396 1.295 . S
O375 Zr356 2.207 . S
O375 C397 1.295 . S
O376 Zr361 2.207 . S
O376 C387 1.295 . S
O377 Zr357 2.207 . S
O377 C384 1.295 . S
O378 Zr357 2.207 . S
O378 C388 1.295 . S
O379 Zr361 2.207 . S
O379 C389 1.295 . S
O380 Zr355 2.207 . S
O380 C397 1.295 . S
O381 Zr363 2.207 . S
O381 C396 1.295 . S
O382 Zr363 2.207 . S
O382 C394 1.295 . S
O383 Zr355 2.207 . S
O383 C395 1.295 . S
C384 O350 1.295 . S
C384 O377 1.295 . S
O385 Zr356 2.207 . S
O385 C393 1.295 . S
O386 Zr356 2.207 . S
O386 C391 1.295 . S
C387 O365 1.295 . S
C387 O376 1.295 . S
C388 O366 1.295 . S
C388 O378 1.295 . S
C389 O367 1.295 . S
C389 O379 1.295 . S
C390 O368 1.295 . S
C390 O399 1.295 . S
C391 O369 1.295 . S
C391 O386 1.295 . S
C392 O370 1.295 . S
C392 O398 1.295 . S
C393 O371 1.295 . S
C393 O385 1.295 . S
C394 O372 1.295 . S
C394 O382 1.295 . S
C395 O373 1.295 . S
C395 O383 1.295 . S
C396 O374 1.295 . S
C396 O381 1.295 . S
C397 O375 1.295 . S
C397 O380 1.295 . S
O398 Zr362 2.207 . S
O398 C392 1.295 . S
O399 Zr362 2.207 . S
O399 C390 1.295 . S
O400 Zr405 2.207 . S
O400 C434 1.295 . S
O401 Zr405 2.133 . S
O401 Zr406 2.133 . S
O401 Zr407 2.133 . S
O402 Zr405 2.133 . S
O402 Zr411 2.133 . S
O402 Zr412 2.133 . S
O403 Zr405 2.133 . S
O403 Zr407 2.133 . S
O403 Zr412 2.133 . S
O404 Zr405 2.133 . S
O404 Zr406 2.133 . S
O404 Zr411 2.133 . S
Zr405 O400 2.207 . S
Zr405 O401 2.133 . S
Zr405 O402 2.133 . S
Zr405 O403 2.133 . S
Zr405 O404 2.133 . S
Zr405 O417 2.207 . S
Zr405 O430 2.207 . S
Zr405 O433 2.207 . S
Zr406 O401 2.133 . S
Zr406 O404 2.133 . S
Zr406 O408 2.133 . S
Zr406 O410 2.133 . S
Zr406 O422 2.207 . S
Zr406 O425 2.207 . S
Zr406 O435 2.207 . S
Zr406 O436 2.207 . S
Zr407 O401 2.133 . S
Zr407 O403 2.133 . S
Zr407 O409 2.133 . S
Zr407 O410 2.133 . S
Zr407 O419 2.207 . S
Zr407 O420 2.207 . S
Zr407 O427 2.207 . S
Zr407 O428 2.207 . S
O408 Zr406 2.133 . S
O408 Zr411 2.133 . S
O408 Zr413 2.133 . S
O409 Zr407 2.133 . S
O409 Zr412 2.133 . S
O409 Zr413 2.133 . S
O410 Zr406 2.133 . S
O410 Zr407 2.133 . S
O410 Zr413 2.133 . S
Zr411 O402 2.133 . S
Zr411 O404 2.133 . S
Zr411 O408 2.133 . S
Zr411 O414 2.133 . S
Zr411 O418 2.207 . S
Zr411 O421 2.207 . S
Zr411 O426 2.207 . S
Zr411 O429 2.207 . S
Zr412 O402 2.133 . S
Zr412 O403 2.133 . S
Zr412 O409 2.133 . S
Zr412 O414 2.133 . S
Zr412 O423 2.207 . S
Zr412 O424 2.207 . S
Zr412 O448 2.207 . S
Zr412 O449 2.207 . S
Zr413 O408 2.133 . S
Zr413 O409 2.133 . S
Zr413 O410 2.133 . S
Zr413 O414 2.133 . S
Zr413 O415 2.207 . S
Zr413 O416 2.207 . S
Zr413 O431 2.207 . S
Zr413 O432 2.207 . S
O414 Zr411 2.133 . S
O414 Zr412 2.133 . S
O414 Zr413 2.133 . S
O415 Zr413 2.207 . S
O415 C437 1.295 . S
O416 Zr413 2.207 . S
O416 C438 1.295 . S
O417 Zr405 2.207 . S
O417 C439 1.295 . S
O418 Zr411 2.207 . S
O418 C440 1.295 . S
O419 Zr407 2.207 . S
O419 C441 1.295 . S
O420 Zr407 2.207 . S
O420 C442 1.295 . S
O421 Zr411 2.207 . S
O421 C443 1.295 . S
O422 Zr406 2.207 . S
O422 C444 1.295 . S
O423 Zr412 2.207 . S
O423 C445 1.295 . S
O424 Zr412 2.207 . S
O424 C446 1.295 . S
O425 Zr406 2.207 . S
O425 C447 1.295 . S
O426 Zr411 2.207 . S
O426 C437 1.295 . S
O427 Zr407 2.207 . S
O427 C434 1.295 . S
O428 Zr407 2.207 . S
O428 C438 1.295 . S
O429 Zr411 2.207 . S
O429 C439 1.295 . S
O430 Zr405 2.207 . S
O430 C447 1.295 . S
O431 Zr413 2.207 . S
O431 C446 1.295 . S
O432 Zr413 2.207 . S
O432 C444 1.295 . S
O433 Zr405 2.207 . S
O433 C445 1.295 . S
C434 O400 1.295 . S
C434 O427 1.295 . S
O435 Zr406 2.207 . S
O435 C443 1.295 . S
O436 Zr406 2.207 . S
O436 C441 1.295 . S
C437 O415 1.295 . S
C437 O426 1.295 . S
C438 O416 1.295 . S
C438 O428 1.295 . S
C439 O417 1.295 . S
C439 O429 1.295 . S
C440 O418 1.295 . S
C440 O449 1.295 . S
C441 O419 1.295 . S
C441 O436 1.295 . S
C442 O420 1.295 . S
C442 O448 1.295 . S
C443 O421 1.295 . S
C443 O435 1.295 . S
C444 O422 1.295 . S
C444 O432 1.295 . S
C445 O423 1.295 . S
C445 O433 1.295 . S
C446 O424 1.295 . S
C446 O431 1.295 . S
C447 O425 1.295 . S
C447 O430 1.295 . S
O448 Zr412 2.207 . S
O448 C442 1.295 . S
O449 Zr412 2.207 . S
O449 C440 1.295 . S
O450 Zr455 2.207 . S
O450 C484 1.295 . S
O451 Zr455 2.133 . S
O451 Zr456 2.133 . S
O451 Zr457 2.133 . S
O452 Zr455 2.133 . S
O452 Zr461 2.133 . S
O452 Zr462 2.133 . S
O453 Zr455 2.133 . S
O453 Zr457 2.133 . S
O453 Zr462 2.133 . S
O454 Zr455 2.133 . S
O454 Zr456 2.133 . S
O454 Zr461 2.133 . S
Zr455 O450 2.207 . S
Zr455 O451 2.133 . S
Zr455 O452 2.133 . S
Zr455 O453 2.133 . S
Zr455 O454 2.133 . S
Zr455 O467 2.207 . S
Zr455 O480 2.207 . S
Zr455 O483 2.207 . S
Zr456 O451 2.133 . S
Zr456 O454 2.133 . S
Zr456 O458 2.133 . S
Zr456 O460 2.133 . S
Zr456 O472 2.207 . S
Zr456 O475 2.207 . S
Zr456 O485 2.207 . S
Zr456 O486 2.207 . S
Zr457 O451 2.133 . S
Zr457 O453 2.133 . S
Zr457 O459 2.133 . S
Zr457 O460 2.133 . S
Zr457 O469 2.207 . S
Zr457 O470 2.207 . S
Zr457 O477 2.207 . S
Zr457 O478 2.207 . S
O458 Zr456 2.133 . S
O458 Zr461 2.133 . S
O458 Zr463 2.133 . S
O459 Zr457 2.133 . S
O459 Zr462 2.133 . S
O459 Zr463 2.133 . S
O460 Zr456 2.133 . S
O460 Zr457 2.133 . S
O460 Zr463 2.133 . S
Zr461 O452 2.133 . S
Zr461 O454 2.133 . S
Zr461 O458 2.133 . S
Zr461 O464 2.133 . S
Zr461 O468 2.207 . S
Zr461 O471 2.207 . S
Zr461 O476 2.207 . S
Zr461 O479 2.207 . S
Zr462 O452 2.133 . S
Zr462 O453 2.133 . S
Zr462 O459 2.133 . S
Zr462 O464 2.133 . S
Zr462 O473 2.207 . S
Zr462 O474 2.207 . S
Zr462 O498 2.207 . S
Zr462 O499 2.207 . S
Zr463 O458 2.133 . S
Zr463 O459 2.133 . S
Zr463 O460 2.133 . S
Zr463 O464 2.133 . S
Zr463 O465 2.207 . S
Zr463 O466 2.207 . S
Zr463 O481 2.207 . S
Zr463 O482 2.207 . S
O464 Zr461 2.133 . S
O464 Zr462 2.133 . S
O464 Zr463 2.133 . S
O465 Zr463 2.207 . S
O465 C487 1.295 . S
O466 Zr463 2.207 . S
O466 C488 1.295 . S
O467 Zr455 2.207 . S
O467 C489 1.295 . S
O468 Zr461 2.207 . S
O468 C490 1.295 . S
O469 Zr457 2.207 . S
O469 C491 1.295 . S
O470 Zr457 2.207 . S
O470 C492 1.295 . S
O471 Zr461 2.207 . S
O471 C493 1.295 . S
O472 Zr456 2.207 . S
O472 C494 1.295 . S
O473 Zr462 2.207 . S
O473 C495 1.295 . S
O474 Zr462 2.207 . S
O474 C496 1.295 . S
O475 Zr456 2.207 . S
O475 C497 1.295 . S
O476 Zr461 2.207 . S
O476 C487 1.295 . S
O477 Zr457 2.207 . S
O477 C484 1.295 . S
O478 Zr457 2.207 . S
O478 C488 1.295 . S
O479 Zr461 2.207 . S
O479 C489 1.295 . S
O480 Zr455 2.207 . S
O480 C497 1.295 . S
O481 Zr463 2.207 . S
O481 C496 1.295 . S
O482 Zr463 2.207 . S
O482 C494 1.295 . S
O483 Zr455 2.207 . S
O483 C495 1.295 . S
C484 O450 1.295 . S
C484 O477 1.295 . S
O485 Zr456 2.207 . S
O485 C493 1.295 . S
O486 Zr456 2.207 . S
O486 C491 1.295 . S
C487 O465 1.295 . S
C487 O476 1.295 . S
C488 O466 1.295 . S
C488 O478 1.295 . S
C489 O467 1.295 . S
C489 O479 1.295 . S
C490 O468 1.295 . S
C490 O499 1.295 . S
C491 O469 1.295 . S
C491 O486 1.295 . S
C492 O470 1.295 . S
C492 O498 1.295 . S
C493 O471 1.295 . S
C493 O485 1.295 . S
C494 O472 1.295 . S
C494 O482 1.295 . S
C495 O473 1.295 . S
C495 O483 1.295 . S
C496 O474 1.295 . S
C496 O481 1.295 . S
C497 O475 1.295 . S
C497 O480 1.295 . S
O498 Zr462 2.207 . S
O498 C492 1.295 . S
O499 Zr462 2.207 . S
O499 C490 1.295 . S
O500 Zr505 2.207 . S
O500 C534 1.295 . S
O501 Zr505 2.133 . S
O501 Zr506 2.133 1_565 S
O501 Zr507 2.133 1_565 S
O502 Zr505 2.133 . S
O502 Zr511 2.133 1_565 S
O502 Zr512 2.133 . S
O503 Zr505 2.133 . S
O503 Zr507 2.133 1_565 S
O503 Zr512 2.133 . S
O504 Zr505 2.133 . S
O504 Zr506 2.133 1_565 S
O504 Zr511 2.133 1_565 S
Zr505 O500 2.207 . S
Zr505 O501 2.133 . S
Zr505 O502 2.133 . S
Zr505 O503 2.133 . S
Zr505 O504 2.133 . S
Zr505 O517 2.207 . S
Zr505 O530 2.207 . S
Zr505 O533 2.207 . S
Zr506 O501 2.133 1_545 S
Zr506 O504 2.133 1_545 S
Zr506 O508 2.133 . S
Zr506 O510 2.133 . S
Zr506 O522 2.207 . S
Zr506 O525 2.207 1_545 S
Zr506 O535 2.207 . S
Zr506 O536 2.207 . S
Zr507 O501 2.133 1_545 S
Zr507 O503 2.133 1_545 S
Zr507 O509 2.133 . S
Zr507 O510 2.133 . S
Zr507 O519 2.207 . S
Zr507 O520 2.207 1_545 S
Zr507 O527 2.207 1_545 S
Zr507 O528 2.207 . S
O508 Zr506 2.133 . S
O508 Zr511 2.133 . S
O508 Zr513 2.133 . S
O509 Zr507 2.133 . S
O509 Zr512 2.133 1_545 S
O509 Zr513 2.133 . S
O510 Zr506 2.133 . S
O510 Zr507 2.133 . S
O510 Zr513 2.133 . S
Zr511 O502 2.133 1_545 S
Zr511 O504 2.133 1_545 S
Zr511 O508 2.133 . S
Zr511 O514 2.133 . S
Zr511 O518 2.207 1_545 S
Zr511 O521 2.207 . S
Zr511 O526 2.207 . S
Zr511 O529 2.207 1_545 S
Zr512 O502 2.133 . S
Zr512 O503 2.133 . S
Zr512 O509 2.133 1_565 S
Zr512 O514 2.133 1_565 S
Zr512 O523 2.207 . S
Zr512 O524 2.207 1_565 S
Zr512 O548 2.207 . S
Zr512 O549 2.207 . S
Zr513 O508 2.133 . S
Zr513 O509 2.133 . S
Zr513 O510 2.133 . S
Zr513 O514 2.133 . S
Zr513 O515 2.207 . S
Zr513 O516 2.207 . S
Zr513 O531 2.207 . S
Zr513 O532 2.207 . S
O514 Zr511 2.133 . S
O514 Zr512 2.133 1_545 S
O514 Zr513 2.133 . S
O515 Zr513 2.207 . S
O515 C537 1.295 . S
O516 Zr513 2.207 . S
O516 C538 1.295 . S
O517 Zr505 2.207 . S
O517 C539 1.295 . S
O518 Zr511 2.207 1_565 S
O518 C540 1.295 . S
O519 Zr507 2.207 . S
O519 C541 1.295 . S
O520 Zr507 2.207 1_565 S
O520 C542 1.295 . S
O521 Zr511 2.207 . S
O521 C543 1.295 . S
O522 Zr506 2.207 . S
O522 C544 1.295 . S
O523 Zr512 2.207 . S
O523 C545 1.295 . S
O524 Zr512 2.207 1_545 S
O524 C546 1.295 . S
O525 Zr506 2.207 1_565 S
O525 C547 1.295 . S
O526 Zr511 2.207 . S
O526 C537 1.295 . S
O527 Zr507 2.207 1_565 S
O527 C534 1.295 . S
O528 Zr507 2.207 . S
O528 C538 1.295 . S
O529 Zr511 2.207 1_565 S
O529 C539 1.295 . S
O530 Zr505 2.207 . S
O530 C547 1.295 . S
O531 Zr513 2.207 . S
O531 C546 1.295 . S
O532 Zr513 2.207 . S
O532 C544 1.295 . S
O533 Zr505 2.207 . S
O533 C545 1.295 . S
C534 O500 1.295 . S
C534 O527 1.295 . S
O535 Zr506 2.207 . S
O535 C543 1.295 . S
O536 Zr506 2.207 . S
O536 C541 1.295 . S
C537 O515 1.295 . S
C537 O526 1.295 . S
C538 O516 1.295 . S
C538 O528 1.295 . S
C539 O517 1.295 . S
C539 O529 1.295 . S
C540 O518 1.295 . S
C540 O549 1.295 . S
C541 O519 1.295 . S
C541 O536 1.295 . S
C542 O520 1.295 . S
C542 O548 1.295 . S
C543 O521 1.295 . S
C543 O535 1.295 . S
C544 O522 1.295 . S
C544 O532 1.295 . S
C545 O523 1.295 . S
C545 O533 1.295 . S
C546 O524 1.295 . S
C546 O531 1.295 . S
C547 O525 1.295 . S
C547 O530 1.295 . S
O548 Zr512 2.207 . S
O548 C542 1.295 . S
O549 Zr512 2.207 . S
O549 C540 1.295 . S
O550 Zr555 2.207 . S
O550 C584 1.295 . S
O551 Zr555 2.133 . S
O551 Zr556 2.133 . S
O551 Zr557 2.133 . S
O552 Zr555 2.133 . S
O552 Zr561 2.133 . S
O552 Zr562 2.133 . S
O553 Zr555 2.133 . S
O553 Zr557 2.133 . S
O553 Zr562 2.133 . S
O554 Zr555 2.133 . S
O554 Zr556 2.133 . S
O554 Zr561 2.133 . S
Zr555 O550 2.207 . S
Zr555 O551 2.133 . S
Zr555 O552 2.133 . S
Zr555 O553 2.133 . S
Zr555 O554 2.133 . S
Zr555 O567 2.207 . S
Zr555 O580 2.207 . S
Zr555 O583 2.207 . S
Zr556 O551 2.133 . S
Zr556 O554 2.133 . S
Zr556 O558 2.133 . S
Zr556 O560 2.133 . S
Zr556 O572 2.207 . S
Zr556 O575 2.207 . S
Zr556 O585 2.207 . S
Zr556 O586 2.207 . S
Zr557 O551 2.133 . S
Zr557 O553 2.133 . S
Zr557 O559 2.133 . S
Zr557 O560 2.133 . S
Zr557 O569 2.207 . S
Zr557 O570 2.207 . S
Zr557 O577 2.207 . S
Zr557 O578 2.207 . S
O558 Zr556 2.133 . S
O558 Zr561 2.133 . S
O558 Zr563 2.133 . S
O559 Zr557 2.133 . S
O559 Zr562 2.133 . S
O559 Zr563 2.133 . S
O560 Zr556 2.133 . S
O560 Zr557 2.133 . S
O560 Zr563 2.133 . S
Zr561 O552 2.133 . S
Zr561 O554 2.133 . S
Zr561 O558 2.133 . S
Zr561 O564 2.133 . S
Zr561 O568 2.207 . S
Zr561 O571 2.207 . S
Zr561 O576 2.207 . S
Zr561 O579 2.207 . S
Zr562 O552 2.133 . S
Zr562 O553 2.133 . S
Zr562 O559 2.133 . S
Zr562 O564 2.133 . S
Zr562 O573 2.207 . S
Zr562 O574 2.207 . S
Zr562 O598 2.207 . S
Zr562 O599 2.207 . S
Zr563 O558 2.133 . S
Zr563 O559 2.133 . S
Zr563 O560 2.133 . S
Zr563 O564 2.133 . S
Zr563 O565 2.207 . S
Zr563 O566 2.207 . S
Zr563 O581 2.207 . S
Zr563 O582 2.207 . S
O564 Zr561 2.133 . S
O564 Zr562 2.133 . S
O564 Zr563 2.133 . S
O565 Zr563 2.207 . S
O565 C587 1.295 . S
O566 Zr563 2.207 . S
O566 C588 1.295 . S
O567 Zr555 2.207 . S
O567 C589 1.295 . S
O568 Zr561 2.207 . S
O568 C590 1.295 . S
O569 Zr557 2.207 . S
O569 C591 1.295 . S
O570 Zr557 2.207 . S
O570 C592 1.295 . S
O571 Zr561 2.207 . S
O571 C593 1.295 . S
O572 Zr556 2.207 . S
O572 C594 1.295 . S
O573 Zr562 2.207 . S
O573 C595 1.295 . S
O574 Zr562 2.207 . S
O574 C596 1.295 . S
O575 Zr556 2.207 . S
O575 C597 1.295 . S
O576 Zr561 2.207 . S
O576 C587 1.295 . S
O577 Zr557 2.207 . S
O577 C584 1.295 . S
O578 Zr557 2.207 . S
O578 C588 1.295 . S
O579 Zr561 2.207 . S
O579 C589 1.295 . S
O580 Zr555 2.207 . S
O580 C597 1.295 . S
O581 Zr563 2.207 . S
O581 C596 1.295 . S
O582 Zr563 2.207 . S
O582 C594 1.295 . S
O583 Zr555 2.207 . S
O583 C595 1.295 . S
C584 O550 1.295 . S
C584 O577 1.295 . S
O585 Zr556 2.207 . S
O585 C593 1.295 . S
O586 Zr556 2.207 . S
O586 C591 1.295 . S
C587 O565 1.295 . S
C587 O576 1.295 . S
C588 O566 1.295 . S
C588 O578 1.295 . S
C589 O567 1.295 . S
C589 O579 1.295 . S
C590 O568 1.295 . S
C590 O599 1.295 . S
C591 O569 1.295 . S
C591 O586 1.295 . S
C592 O570 1.295 . S
C592 O598 1.295 . S
C593 O571 1.295 . S
C593 O585 1.295 . S
C594 O572 1.295 . S
C594 O582 1.295 . S
C595 O573 1.295 . S
C595 O583 1.295 . S
C596 O574 1.295 . S
C596 O581 1.295 . S
C597 O575 1.295 . S
C597 O580 1.295 . S
O598 Zr562 2.207 . S
O598 C592 1.295 . S
O599 Zr562 2.207 . S
O599 C590 1.295 . S
H600 C606 0.930 . S
H601 C610 0.930 . S
H602 C615 0.929 . S
H603 C613 0.929 . S
H604 C608 0.929 . S
H605 C614 0.929 . S
C606 H600 0.930 . S
C606 C607 1.367 . S
C606 C614 1.378 . S
C607 C606 1.367 . S
C607 C615 1.433 . S
C608 H604 0.929 . S
C608 C610 1.378 . S
C608 C612 1.350 . S
C609 C612 1.463 . S
C609 C614 1.350 . S
C609 N617 1.427 . S
C610 H601 0.930 . S
C610 C608 1.378 . S
C610 C611 1.367 . S
C611 C610 1.367 . S
C611 C613 1.433 . S
C612 C608 1.350 . S
C612 C609 1.463 . S
C612 N616 1.427 . S
C613 H603 0.929 . S
C613 C611 1.433 . S
C613 N616 1.384 . S
C614 H605 0.929 . S
C614 C606 1.378 . S
C614 C609 1.350 . S
C615 H602 0.929 . S
C615 C607 1.433 . S
C615 N617 1.384 . S
N616 C612 1.427 . S
N616 C613 1.384 . S
N617 C609 1.427 . S
N617 C615 1.384 . S
H618 C624 0.930 . S
H619 C628 0.930 . S
H620 C633 0.929 . S
H621 C631 0.929 . S
H622 C626 0.929 . S
H623 C632 0.929 . S
C624 H618 0.930 . S
C624 C625 1.367 . S
C624 C632 1.378 . S
C625 C624 1.367 . S
C625 C633 1.433 . S
C626 H622 0.929 . S
C626 C628 1.378 1_554 S
C626 C630 1.350 . S
C627 C630 1.463 . S
C627 C632 1.350 . S
C627 N635 1.427 . S
C628 H619 0.930 . S
C628 C626 1.378 1_556 S
C628 C629 1.367 . S
C629 C628 1.367 . S
C629 C631 1.433 . S
C630 C626 1.350 . S
C630 C627 1.463 . S
C630 N634 1.427 . S
C631 H621 0.929 . S
C631 C629 1.433 . S
C631 N634 1.384 1_556 S
C632 H623 0.929 . S
C632 C624 1.378 . S
C632 C627 1.350 . S
C633 H620 0.929 . S
C633 C625 1.433 . S
C633 N635 1.384 . S
N634 C630 1.427 . S
N634 C631 1.384 1_554 S
N635 C627 1.427 . S
N635 C633 1.384 . S
H636 C642 0.930 . S
H637 C646 0.930 . S
H638 C651 0.929 . S
H639 C649 0.929 . S
H640 C644 0.929 . S
H641 C650 0.929 . S
C642 H636 0.930 . S
C642 C643 1.367 . S
C642 C650 1.378 . S
C643 C642 1.367 . S
C643 C651 1.433 . S
C644 H640 0.929 . S
C644 C646 1.378 . S
C644 C648 1.350 . S
C645 C648 1.463 . S
C645 C650 1.350 . S
C645 N653 1.427 . S
C646 H637 0.930 . S
C646 C644 1.378 . S
C646 C647 1.367 . S
C647 C646 1.367 . S
C647 C649 1.433 . S
C648 C644 1.350 . S
C648 C645 1.463 . S
C648 N652 1.427 . S
C649 H639 0.929 . S
C649 C647 1.433 . S
C649 N652 1.384 . S
C650 H641 0.929 . S
C650 C642 1.378 . S
C650 C645 1.350 . S
C651 H638 0.929 . S
C651 C643 1.433 . S
C651 N653 1.384 . S
N652 C648 1.427 . S
N652 C649 1.384 . S
N653 C645 1.427 . S
N653 C651 1.384 . S
H654 C660 0.930 . S
H655 C664 0.930 . S
H656 C669 0.929 . S
H657 C667 0.929 . S
H658 C662 0.929 . S
H659 C668 0.929 . S
C660 H654 0.930 . S
C660 C661 1.367 . S
C660 C668 1.378 . S
C661 C660 1.367 . S
C661 C669 1.433 . S
C662 H658 0.929 . S
C662 C664 1.378 . S
C662 C666 1.350 . S
C663 C666 1.463 . S
C663 C668 1.350 . S
C663 N671 1.427 . S
C664 H655 0.930 . S
C664 C662 1.378 . S
C664 C665 1.367 1_554 S
C665 C664 1.367 1_556 S
C665 C667 1.433 . S
C666 C662 1.350 . S
C666 C663 1.463 . S
C666 N670 1.427 . S
C667 H657 0.929 . S
C667 C665 1.433 . S
C667 N670 1.384 1_556 S
C668 H659 0.929 . S
C668 C660 1.378 . S
C668 C663 1.350 . S
C669 H656 0.929 . S
C669 C661 1.433 . S
C669 N671 1.384 . S
N670 C666 1.427 . S
N670 C667 1.384 1_554 S
N671 C663 1.427 . S
N671 C669 1.384 . S
H672 C678 0.930 . S
H673 C682 0.930 . S
H674 C687 0.929 . S
H675 C685 0.929 . S
H676 C680 0.929 . S
H677 C686 0.929 . S
C678 H672 0.930 . S
C678 C679 1.367 . S
C678 C686 1.378 . S
C679 C678 1.367 . S
C679 C687 1.433 . S
C680 H676 0.929 . S
C680 C682 1.378 . S
C680 C684 1.350 . S
C681 C684 1.463 . S
C681 C686 1.350 . S
C681 N689 1.427 . S
C682 H673 0.930 . S
C682 C680 1.378 . S
C682 C683 1.367 . S
C683 C682 1.367 . S
C683 C685 1.433 . S
C684 C680 1.350 . S
C684 C681 1.463 . S
C684 N688 1.427 . S
C685 H675 0.929 . S
C685 C683 1.433 . S
C685 N688 1.384 . S
C686 H677 0.929 . S
C686 C678 1.378 . S
C686 C681 1.350 . S
C687 H674 0.929 . S
C687 C679 1.433 . S
C687 N689 1.384 . S
N688 C684 1.427 . S
N688 C685 1.384 . S
N689 C681 1.427 . S
N689 C687 1.384 . S
H690 C696 0.930 . S
H691 C700 0.930 . S
H692 C705 0.929 . S
H693 C703 0.929 . S
H694 C698 0.929 . S
H695 C704 0.929 . S
C696 H690 0.930 . S
C696 C697 1.367 1_556 S
C696 C704 1.378 . S
C697 C696 1.367 1_554 S
C697 C705 1.433 . S
C698 H694 0.929 . S
C698 C700 1.378 . S
C698 C702 1.350 . S
C699 C702 1.463 . S
C699 C704 1.350 . S
C699 N707 1.427 . S
C700 H691 0.930 . S
C700 C698 1.378 . S
C700 C701 1.367 . S
C701 C700 1.367 . S
C701 C703 1.433 . S
C702 C698 1.350 . S
C702 C699 1.463 . S
C702 N706 1.427 . S
C703 H693 0.929 . S
C703 C701 1.433 . S
C703 N706 1.384 . S
C704 H695 0.929 . S
C704 C696 1.378 . S
C704 C699 1.350 . S
C705 H692 0.929 . S
C705 C697 1.433 . S
C705 N707 1.384 1_554 S
N706 C702 1.427 . S
N706 C703 1.384 . S
N707 C699 1.427 . S
N707 C705 1.384 1_556 S
H708 C714 0.930 . S
H709 C718 0.930 . S
H710 C723 0.929 . S
H711 C721 0.929 . S
H712 C716 0.929 . S
H713 C722 0.929 . S
C714 H708 0.930 . S
C714 C715 1.367 . S
C714 C722 1.378 . S
C715 C714 1.367 . S
C715 C723 1.433 . S
C716 H712 0.929 . S
C716 C718 1.378 . S
C716 C720 1.350 . S
C717 C720 1.463 . S
C717 C722 1.350 . S
C717 N725 1.427 . S
C718 H709 0.930 . S
C718 C716 1.378 . S
C718 C719 1.367 . S
C719 C718 1.367 . S
C719 C721 1.433 . S
C720 C716 1.350 . S
C720 C717 1.463 . S
C720 N724 1.427 . S
C721 H711 0.929 . S
C721 C719 1.433 . S
C721 N724 1.384 . S
C722 H713 0.929 . S
C722 C714 1.378 . S
C722 C717 1.350 . S
C723 H710 0.929 . S
C723 C715 1.433 . S
C723 N725 1.384 . S
N724 C720 1.427 . S
N724 C721 1.384 . S
N725 C717 1.427 . S
N725 C723 1.384 . S
H726 C732 0.930 . S
H727 C736 0.930 . S
H728 C741 0.929 . S
H729 C739 0.929 1_655 S
H730 C734 0.929 . S
H731 C740 0.929 . S
C732 H726 0.930 . S
C732 C733 1.367 . S
C732 C740 1.378 . S
C733 C732 1.367 . S
C733 C741 1.433 . S
C734 H730 0.929 . S
C734 C736 1.378 1_556 S
C734 C738 1.350 . S
C735 C738 1.463 . S
C735 C740 1.350 . S
C735 N743 1.427 . S
C736 H727 0.930 . S
C736 C734 1.378 1_554 S
C736 C737 1.367 . S
C737 C736 1.367 . S
C737 C739 1.433 . S
C738 C734 1.350 . S
C738 C735 1.463 . S
C738 N742 1.427 . S
C739 H729 0.929 1_455 S
C739 C737 1.433 . S
C739 N742 1.384 1_554 S
C740 H731 0.929 . S
C740 C732 1.378 . S
C740 C735 1.350 . S
C741 H728 0.929 . S
C741 C733 1.433 . S
C741 N743 1.384 . S
N742 C738 1.427 . S
N742 C739 1.384 1_556 S
N743 C735 1.427 . S
N743 C741 1.384 . S
H744 C750 0.930 . S
H745 C754 0.930 . S
H746 C759 0.929 . S
H747 C757 0.929 . S
H748 C752 0.929 . S
H749 C758 0.929 . S
C750 H744 0.930 . S
C750 C751 1.367 . S
C750 C758 1.378 . S
C751 C750 1.367 . S
C751 C759 1.433 . S
C752 H748 0.929 . S
C752 C754 1.378 . S
C752 C756 1.350 . S
C753 C756 1.463 . S
C753 C758 1.350 . S
C753 N761 1.427 . S
C754 H745 0.930 . S
C754 C752 1.378 . S
C754 C755 1.367 . S
C755 C754 1.367 . S
C755 C757 1.433 . S
C756 C752 1.350 . S
C756 C753 1.463 . S
C756 N760 1.427 . S
C757 H747 0.929 . S
C757 C755 1.433 . S
C757 N760 1.384 . S
C758 H749 0.929 . S
C758 C750 1.378 . S
C758 C753 1.350 . S
C759 H746 0.929 . S
C759 C751 1.433 . S
C759 N761 1.384 . S
N760 C756 1.427 . S
N760 C757 1.384 . S
N761 C753 1.427 . S
N761 C759 1.384 . S
H762 C768 0.930 . S
H763 C772 0.930 1_554 S
H764 C777 0.929 . S
H765 C775 0.929 . S
H766 C770 0.929 . S
H767 C776 0.929 . S
C768 H762 0.930 . S
C768 C769 1.367 . S
C768 C776 1.378 . S
C769 C768 1.367 . S
C769 C777 1.433 . S
C770 H766 0.929 . S
C770 C772 1.378 . S
C770 C774 1.350 . S
C771 C774 1.463 . S
C771 C776 1.350 . S
C771 N779 1.427 . S
C772 H763 0.930 1_556 S
C772 C770 1.378 . S
C772 C773 1.367 . S
C773 C772 1.367 . S
C773 C775 1.433 . S
C774 C770 1.350 . S
C774 C771 1.463 . S
C774 N778 1.427 . S
C775 H765 0.929 . S
C775 C773 1.433 . S
C775 N778 1.384 . S
C776 H767 0.929 . S
C776 C768 1.378 . S
C776 C771 1.350 . S
C777 H764 0.929 . S
C777 C769 1.433 . S
C777 N779 1.384 . S
N778 C774 1.427 . S
N778 C775 1.384 . S
N779 C771 1.427 . S
N779 C777 1.384 . S
H780 C786 0.930 . S
H781 C790 0.930 . S
H782 C795 0.929 . S
H783 C793 0.929 . S
H784 C788 0.929 . S
H785 C794 0.929 . S
C786 H780 0.930 . S
C786 C787 1.367 . S
C786 C794 1.378 . S
C787 C786 1.367 . S
C787 C795 1.433 . S
C788 H784 0.929 . S
C788 C790 1.378 . S
C788 C792 1.350 . S
C789 C792 1.463 . S
C789 C794 1.350 . S
C789 N797 1.427 . S
C790 H781 0.930 . S
C790 C788 1.378 . S
C790 C791 1.367 . S
C791 C790 1.367 . S
C791 C793 1.433 . S
C792 C788 1.350 . S
C792 C789 1.463 . S
C792 N796 1.427 . S
C793 H783 0.929 . S
C793 C791 1.433 . S
C793 N796 1.384 . S
C794 H785 0.929 . S
C794 C786 1.378 . S
C794 C789 1.350 . S
C795 H782 0.929 . S
C795 C787 1.433 . S
C795 N797 1.384 . S
N796 C792 1.427 . S
N796 C793 1.384 . S
N797 C789 1.427 . S
N797 C795 1.384 . S
H798 C804 0.930 . S
H799 C808 0.930 1_554 S
H800 C813 0.929 . S
H801 C811 0.929 . S
H802 C806 0.929 . S
H803 C812 0.929 . S
C804 H798 0.930 . S
C804 C805 1.367 . S
C804 C812 1.378 . S
C805 C804 1.367 . S
C805 C813 1.433 . S
C806 H802 0.929 . S
C806 C808 1.378 . S
C806 C810 1.350 . S
C807 C810 1.463 . S
C807 C812 1.350 . S
C807 N815 1.427 . S
C808 H799 0.930 1_556 S
C808 C806 1.378 . S
C808 C809 1.367 1_565 S
C809 C808 1.367 1_545 S
C809 C811 1.433 . S
C810 C806 1.350 . S
C810 C807 1.463 . S
C810 N814 1.427 . S
C811 H801 0.929 . S
C811 C809 1.433 . S
C811 N814 1.384 1_545 S
C812 H803 0.929 . S
C812 C804 1.378 . S
C812 C807 1.350 . S
C813 H800 0.929 . S
C813 C805 1.433 . S
C813 N815 1.384 . S
N814 C810 1.427 . S
N814 C811 1.384 1_565 S
N815 C807 1.427 . S
N815 C813 1.384 . S
H816 C822 0.930 . S
H817 C826 0.930 . S
H818 C831 0.929 . S
H819 C829 0.929 . S
H820 C824 0.929 . S
H821 C830 0.929 . S
C822 H816 0.930 . S
C822 C823 1.367 . S
C822 C830 1.378 . S
C823 C822 1.367 . S
C823 C831 1.433 . S
C824 H820 0.929 . S
C824 C826 1.378 . S
C824 C828 1.350 . S
C825 C828 1.463 . S
C825 C830 1.350 . S
C825 N833 1.427 . S
C826 H817 0.930 . S
C826 C824 1.378 . S
C826 C827 1.367 . S
C827 C826 1.367 . S
C827 C829 1.433 . S
C828 C824 1.350 . S
C828 C825 1.463 . S
C828 N832 1.427 . S
C829 H819 0.929 . S
C829 C827 1.433 . S
C829 N832 1.384 . S
C830 H821 0.929 . S
C830 C822 1.378 . S
C830 C825 1.350 . S
C831 H818 0.929 . S
C831 C823 1.433 . S
C831 N833 1.384 . S
N832 C828 1.427 . S
N832 C829 1.384 . S
N833 C825 1.427 . S
N833 C831 1.384 . S
H834 C840 0.930 . S
H835 C844 0.930 . S
H836 C849 0.929 1_556 S
H837 C847 0.929 . S
H838 C842 0.929 . S
H839 C848 0.929 . S
C840 H834 0.930 . S
C840 C841 1.367 . S
C840 C848 1.378 . S
C841 C840 1.367 . S
C841 C849 1.433 . S
C842 H838 0.929 . S
C842 C844 1.378 . S
C842 C846 1.350 . S
C843 C846 1.463 . S
C843 C848 1.350 . S
C843 N851 1.427 . S
C844 H835 0.930 . S
C844 C842 1.378 . S
C844 C845 1.367 . S
C845 C844 1.367 . S
C845 C847 1.433 . S
C846 C842 1.350 . S
C846 C843 1.463 . S
C846 N850 1.427 . S
C847 H837 0.929 . S
C847 C845 1.433 . S
C847 N850 1.384 . S
C848 H839 0.929 . S
C848 C840 1.378 . S
C848 C843 1.350 . S
C849 H836 0.929 1_554 S
C849 C841 1.433 . S
C849 N851 1.384 . S
N850 C846 1.427 . S
N850 C847 1.384 . S
N851 C843 1.427 . S
N851 C849 1.384 . S
H852 C858 0.930 . S
H853 C862 0.930 . S
H854 C867 0.929 . S
H855 C865 0.929 . S
H856 C860 0.929 . S
H857 C866 0.929 . S
C858 H852 0.930 . S
C858 C859 1.367 . S
C858 C866 1.378 . S
C859 C858 1.367 . S
C859 C867 1.433 . S
C860 H856 0.929 . S
C860 C862 1.378 . S
C860 C864 1.350 . S
C861 C864 1.463 . S
C861 C866 1.350 . S
C861 N869 1.427 . S
C862 H853 0.930 . S
C862 C860 1.378 . S
C862 C863 1.367 . S
C863 C862 1.367 . S
C863 C865 1.433 . S
C864 C860 1.350 . S
C864 C861 1.463 . S
C864 N868 1.427 . S
C865 H855 0.929 . S
C865 C863 1.433 . S
C865 N868 1.384 . S
C866 H857 0.929 . S
C866 C858 1.378 . S
C866 C861 1.350 . S
C867 H854 0.929 . S
C867 C859 1.433 . S
C867 N869 1.384 . S
N868 C864 1.427 . S
N868 C865 1.384 . S
N869 C861 1.427 . S
N869 C867 1.384 . S
H870 C876 0.930 . S
H871 C880 0.930 . S
H872 C885 0.929 1_556 S
H873 C883 0.929 . S
H874 C878 0.929 . S
H875 C884 0.929 . S
C876 H870 0.930 . S
C876 C877 1.367 . S
C876 C884 1.378 1_545 S
C877 C876 1.367 . S
C877 C885 1.433 . S
C878 H874 0.929 . S
C878 C880 1.378 . S
C878 C882 1.350 . S
C879 C882 1.463 . S
C879 C884 1.350 . S
C879 N887 1.427 . S
C880 H871 0.930 . S
C880 C878 1.378 . S
C880 C881 1.367 . S
C881 C880 1.367 . S
C881 C883 1.433 . S
C882 C878 1.350 . S
C882 C879 1.463 . S
C882 N886 1.427 . S
C883 H873 0.929 . S
C883 C881 1.433 . S
C883 N886 1.384 . S
C884 H875 0.929 . S
C884 C876 1.378 1_565 S
C884 C879 1.350 . S
C885 H872 0.929 1_554 S
C885 C877 1.433 . S
C885 N887 1.384 1_545 S
N886 C882 1.427 . S
N886 C883 1.384 . S
N887 C879 1.427 . S
N887 C885 1.384 1_565 S
H888 C894 0.930 . S
H889 C898 0.930 . S
H890 C903 0.929 . S
H891 C901 0.929 . S
H892 C896 0.929 . S
H893 C902 0.929 . S
C894 H888 0.930 . S
C894 C895 1.367 . S
C894 C902 1.378 . S
C895 C894 1.367 . S
C895 C903 1.433 . S
C896 H892 0.929 . S
C896 C898 1.378 . S
C896 C900 1.350 . S
C897 C900 1.463 . S
C897 C902 1.350 . S
C897 N905 1.427 . S
C898 H889 0.930 . S
C898 C896 1.378 . S
C898 C899 1.367 . S
C899 C898 1.367 . S
C899 C901 1.433 . S
C900 C896 1.350 . S
C900 C897 1.463 . S
C900 N904 1.427 . S
C901 H891 0.929 . S
C901 C899 1.433 . S
C901 N904 1.384 . S
C902 H893 0.929 . S
C902 C894 1.378 . S
C902 C897 1.350 . S
C903 H890 0.929 . S
C903 C895 1.433 . S
C903 N905 1.384 . S
N904 C900 1.427 . S
N904 C901 1.384 . S
N905 C897 1.427 . S
N905 C903 1.384 . S
H906 C912 0.930 . S
H907 C916 0.930 . S
H908 C921 0.929 . S
H909 C919 0.929 . S
H910 C914 0.929 . S
H911 C920 0.929 . S
C912 H906 0.930 . S
C912 C913 1.367 . S
C912 C920 1.378 . S
C913 C912 1.367 . S
C913 C921 1.433 . S
C914 H910 0.929 . S
C914 C916 1.378 . S
C914 C918 1.350 . S
C915 C918 1.463 . S
C915 C920 1.350 . S
C915 N923 1.427 . S
C916 H907 0.930 . S
C916 C914 1.378 . S
C916 C917 1.367 . S
C917 C916 1.367 . S
C917 C919 1.433 . S
C918 C914 1.350 . S
C918 C915 1.463 . S
C918 N922 1.427 . S
C919 H909 0.929 . S
C919 C917 1.433 . S
C919 N922 1.384 . S
C920 H911 0.929 . S
C920 C912 1.378 . S
C920 C915 1.350 . S
C921 H908 0.929 . S
C921 C913 1.433 . S
C921 N923 1.384 . S
N922 C918 1.427 . S
N922 C919 1.384 . S
N923 C915 1.427 . S
N923 C921 1.384 . S
H924 C930 0.930 . S
H925 C934 0.930 . S
H926 C939 0.929 . S
H927 C937 0.929 . S
H928 C932 0.929 . S
H929 C938 0.929 1_655 S
C930 H924 0.930 . S
C930 C931 1.367 . S
C930 C938 1.378 1_655 S
C931 C930 1.367 . S
C931 C939 1.433 1_655 S
C932 H928 0.929 . S
C932 C934 1.378 . S
C932 C936 1.350 . S
C933 C936 1.463 . S
C933 C938 1.350 . S
C933 N941 1.427 . S
C934 H925 0.930 . S
C934 C932 1.378 . S
C934 C935 1.367 . S
C935 C934 1.367 . S
C935 C937 1.433 . S
C936 C932 1.350 . S
C936 C933 1.463 . S
C936 N940 1.427 . S
C937 H927 0.929 . S
C937 C935 1.433 . S
C937 N940 1.384 . S
C938 H929 0.929 1_455 S
C938 C930 1.378 1_455 S
C938 C933 1.350 . S
C939 H926 0.929 . S
C939 C931 1.433 1_455 S
C939 N941 1.384 . S
N940 C936 1.427 . S
N940 C937 1.384 . S
N941 C933 1.427 . S
N941 C939 1.384 . S
H942 C948 0.930 . S
H943 C952 0.930 . S
H944 C957 0.929 . S
H945 C955 0.929 . S
H946 C950 0.929 . S
H947 C956 0.929 . S
C948 H942 0.930 . S
C948 C949 1.367 . S
C948 C956 1.378 . S
C949 C948 1.367 . S
C949 C957 1.433 . S
C950 H946 0.929 . S
C950 C952 1.378 . S
C950 C954 1.350 . S
C951 C954 1.463 . S
C951 C956 1.350 . S
C951 N959 1.427 . S
C952 H943 0.930 . S
C952 C950 1.378 . S
C952 C953 1.367 . S
C953 C952 1.367 . S
C953 C955 1.433 . S
C954 C950 1.350 . S
C954 C951 1.463 . S
C954 N958 1.427 . S
C955 H945 0.929 . S
C955 C953 1.433 . S
C955 N958 1.384 . S
C956 H947 0.929 . S
C956 C948 1.378 . S
C956 C951 1.350 . S
C957 H944 0.929 . S
C957 C949 1.433 . S
C957 N959 1.384 . S
N958 C954 1.427 . S
N958 C955 1.384 . S
N959 C951 1.427 . S
N959 C957 1.384 . S
H960 C966 0.930 . S
H961 C970 0.930 . S
H962 C975 0.929 . S
H963 C973 0.929 . S
H964 C968 0.929 . S
H965 C974 0.929 . S
C966 H960 0.930 . S
C966 C967 1.367 . S
C966 C974 1.378 . S
C967 C966 1.367 . S
C967 C975 1.433 . S
C968 H964 0.929 . S
C968 C970 1.378 . S
C968 C972 1.350 . S
C969 C972 1.463 . S
C969 C974 1.350 . S
C969 N977 1.427 . S
C970 H961 0.930 . S
C970 C968 1.378 . S
C970 C971 1.367 . S
C971 C970 1.367 . S
C971 C973 1.433 . S
C972 C968 1.350 . S
C972 C969 1.463 . S
C972 N976 1.427 . S
C973 H963 0.929 . S
C973 C971 1.433 . S
C973 N976 1.384 . S
C974 H965 0.929 . S
C974 C966 1.378 . S
C974 C969 1.350 . S
C975 H962 0.929 . S
C975 C967 1.433 . S
C975 N977 1.384 . S
N976 C972 1.427 . S
N976 C973 1.384 . S
N977 C969 1.427 . S
N977 C975 1.384 . S
H978 C984 0.930 . S
H979 C988 0.930 . S
H980 C993 0.929 . S
H981 C991 0.929 . S
H982 C986 0.929 . S
H983 C992 0.929 . S
C984 H978 0.930 . S
C984 C985 1.367 . S
C984 C992 1.378 . S
C985 C984 1.367 . S
C985 C993 1.433 . S
C986 H982 0.929 . S
C986 C988 1.378 . S
C986 C990 1.350 . S
C987 C990 1.463 . S
C987 C992 1.350 . S
C987 N995 1.427 . S
C988 H979 0.930 . S
C988 C986 1.378 . S
C988 C989 1.367 . S
C989 C988 1.367 . S
C989 C991 1.433 . S
C990 C986 1.350 . S
C990 C987 1.463 . S
C990 N994 1.427 . S
C991 H981 0.929 . S
C991 C989 1.433 . S
C991 N994 1.384 . S
C992 H983 0.929 . S
C992 C984 1.378 . S
C992 C987 1.350 . S
C993 H980 0.929 . S
C993 C985 1.433 . S
C993 N995 1.384 . S
N994 C990 1.427 . S
N994 C991 1.384 . S
N995 C987 1.427 . S
N995 C993 1.384 . S
H996 C1002 0.930 . S
H997 C1006 0.930 . S
H998 C1011 0.929 . S
H999 C1009 0.929 . S
H1000 C1004 0.929 . S
H1001 C1010 0.929 . S
C1002 H996 0.930 . S
C1002 C1003 1.367 . S
C1002 C1010 1.378 1_655 S
C1003 C1002 1.367 . S
C1003 C1011 1.433 1_655 S
C1004 H1000 0.929 . S
C1004 C1006 1.378 . S
C1004 C1008 1.350 . S
C1005 C1008 1.463 . S
C1005 C1010 1.350 . S
C1005 N1013 1.427 . S
C1006 H997 0.930 . S
C1006 C1004 1.378 . S
C1006 C1007 1.367 . S
C1007 C1006 1.367 . S
C1007 C1009 1.433 . S
C1008 C1004 1.350 . S
C1008 C1005 1.463 . S
C1008 N1012 1.427 . S
C1009 H999 0.929 . S
C1009 C1007 1.433 . S
C1009 N1012 1.384 . S
C1010 H1001 0.929 . S
C1010 C1002 1.378 1_455 S
C1010 C1005 1.350 . S
C1011 H998 0.929 . S
C1011 C1003 1.433 1_455 S
C1011 N1013 1.384 . S
N1012 C1008 1.427 . S
N1012 C1009 1.384 . S
N1013 C1005 1.427 . S
N1013 C1011 1.384 . S
H1014 C1020 0.930 . S
H1015 C1024 0.930 . S
H1016 C1029 0.929 . S
H1017 C1027 0.929 . S
H1018 C1022 0.929 . S
H1019 C1028 0.929 . S
C1020 H1014 0.930 . S
C1020 C1021 1.367 1_655 S
C1020 C1028 1.378 . S
C1021 C1020 1.367 1_455 S
C1021 C1029 1.433 . S
C1022 H1018 0.929 . S
C1022 C1024 1.378 . S
C1022 C1026 1.350 . S
C1023 C1026 1.463 . S
C1023 C1028 1.350 . S
C1023 N1031 1.427 . S
C1024 H1015 0.930 . S
C1024 C1022 1.378 . S
C1024 C1025 1.367 . S
C1025 C1024 1.367 . S
C1025 C1027 1.433 . S
C1026 C1022 1.350 . S
C1026 C1023 1.463 . S
C1026 N1030 1.427 . S
C1027 H1017 0.929 . S
C1027 C1025 1.433 . S
C1027 N1030 1.384 . S
C1028 H1019 0.929 . S
C1028 C1020 1.378 . S
C1028 C1023 1.350 . S
C1029 H1016 0.929 . S
C1029 C1021 1.433 . S
C1029 N1031 1.384 1_455 S
N1030 C1026 1.427 . S
N1030 C1027 1.384 . S
N1031 C1023 1.427 . S
N1031 C1029 1.384 1_655 S
H1032 C1038 0.930 . S
H1033 C1042 0.930 . S
H1034 C1047 0.929 . S
H1035 C1045 0.929 . S
H1036 C1040 0.929 . S
H1037 C1046 0.929 . S
C1038 H1032 0.930 . S
C1038 C1039 1.367 . S
C1038 C1046 1.378 . S
C1039 C1038 1.367 . S
C1039 C1047 1.433 . S
C1040 H1036 0.929 . S
C1040 C1042 1.378 . S
C1040 C1044 1.350 . S
C1041 C1044 1.463 . S
C1041 C1046 1.350 . S
C1041 N1049 1.427 . S
C1042 H1033 0.930 . S
C1042 C1040 1.378 . S
C1042 C1043 1.367 . S
C1043 C1042 1.367 . S
C1043 C1045 1.433 . S
C1044 C1040 1.350 . S
C1044 C1041 1.463 . S
C1044 N1048 1.427 . S
C1045 H1035 0.929 . S
C1045 C1043 1.433 . S
C1045 N1048 1.384 . S
C1046 H1037 0.929 . S
C1046 C1038 1.378 . S
C1046 C1041 1.350 . S
C1047 H1034 0.929 . S
C1047 C1039 1.433 . S
C1047 N1049 1.384 . S
N1048 C1044 1.427 . S
N1048 C1045 1.384 . S
N1049 C1041 1.427 . S
N1049 C1047 1.384 . S
H1050 C1056 0.930 1_655 S
H1051 C1060 0.930 . S
H1052 C1065 0.929 . S
H1053 C1063 0.929 . S
H1054 C1058 0.929 . S
H1055 C1064 0.929 . S
C1056 H1050 0.930 1_455 S
C1056 C1057 1.367 . S
C1056 C1064 1.378 . S
C1057 C1056 1.367 . S
C1057 C1065 1.433 . S
C1058 H1054 0.929 . S
C1058 C1060 1.378 . S
C1058 C1062 1.350 . S
C1059 C1062 1.463 . S
C1059 C1064 1.350 . S
C1059 N1067 1.427 . S
C1060 H1051 0.930 . S
C1060 C1058 1.378 . S
C1060 C1061 1.367 . S
C1061 C1060 1.367 . S
C1061 C1063 1.433 . S
C1062 C1058 1.350 . S
C1062 C1059 1.463 . S
C1062 N1066 1.427 . S
C1063 H1053 0.929 . S
C1063 C1061 1.433 . S
C1063 N1066 1.384 . S
C1064 H1055 0.929 . S
C1064 C1056 1.378 . S
C1064 C1059 1.350 . S
C1065 H1052 0.929 . S
C1065 C1057 1.433 . S
C1065 N1067 1.384 . S
N1066 C1062 1.427 . S
N1066 C1063 1.384 . S
N1067 C1059 1.427 . S
N1067 C1065 1.384 . S
H1068 C1074 0.930 . S
H1069 C1078 0.930 . S
H1070 C1083 0.929 . S
H1071 C1081 0.929 . S
H1072 C1076 0.929 . S
H1073 C1082 0.929 . S
C1074 H1068 0.930 . S
C1074 C1075 1.367 . S
C1074 C1082 1.378 . S
C1075 C1074 1.367 . S
C1075 C1083 1.433 . S
C1076 H1072 0.929 . S
C1076 C1078 1.378 . S
C1076 C1080 1.350 . S
C1077 C1080 1.463 . S
C1077 C1082 1.350 . S
C1077 N1085 1.427 . S
C1078 H1069 0.930 . S
C1078 C1076 1.378 . S
C1078 C1079 1.367 . S
C1079 C1078 1.367 . S
C1079 C1081 1.433 . S
C1080 C1076 1.350 . S
C1080 C1077 1.463 . S
C1080 N1084 1.427 . S
C1081 H1071 0.929 . S
C1081 C1079 1.433 . S
C1081 N1084 1.384 . S
C1082 H1073 0.929 . S
C1082 C1074 1.378 . S
C1082 C1077 1.350 . S
C1083 H1070 0.929 . S
C1083 C1075 1.433 . S
C1083 N1085 1.384 . S
N1084 C1080 1.427 . S
N1084 C1081 1.384 . S
N1085 C1077 1.427 . S
N1085 C1083 1.384 . S
H1086 C1092 0.930 . S
H1087 C1096 0.930 . S
H1088 C1101 0.929 . S
H1089 C1099 0.929 . S
H1090 C1094 0.929 . S
H1091 C1100 0.929 . S
C1092 H1086 0.930 . S
C1092 C1093 1.367 . S
C1092 C1100 1.378 . S
C1093 C1092 1.367 . S
C1093 C1101 1.433 . S
C1094 H1090 0.929 . S
C1094 C1096 1.378 . S
C1094 C1098 1.350 . S
C1095 C1098 1.463 . S
C1095 C1100 1.350 . S
C1095 N1103 1.427 . S
C1096 H1087 0.930 . S
C1096 C1094 1.378 . S
C1096 C1097 1.367 . S
C1097 C1096 1.367 . S
C1097 C1099 1.433 . S
C1098 C1094 1.350 . S
C1098 C1095 1.463 . S
C1098 N1102 1.427 . S
C1099 H1089 0.929 . S
C1099 C1097 1.433 . S
C1099 N1102 1.384 . S
C1100 H1091 0.929 . S
C1100 C1092 1.378 . S
C1100 C1095 1.350 . S
C1101 H1088 0.929 . S
C1101 C1093 1.433 . S
C1101 N1103 1.384 . S
N1102 C1098 1.427 . S
N1102 C1099 1.384 . S
N1103 C1095 1.427 . S
N1103 C1101 1.384 . S
H1104 C1110 0.930 . S
H1105 C1114 0.930 . S
H1106 C1119 0.929 . S
H1107 C1117 0.929 . S
H1108 C1112 0.929 . S
H1109 C1118 0.929 . S
C1110 H1104 0.930 . S
C1110 C1111 1.367 . S
C1110 C1118 1.378 . S
C1111 C1110 1.367 . S
C1111 C1119 1.433 . S
C1112 H1108 0.929 . S
C1112 C1114 1.378 . S
C1112 C1116 1.350 . S
C1113 C1116 1.463 . S
C1113 C1118 1.350 . S
C1113 N1121 1.427 . S
C1114 H1105 0.930 . S
C1114 C1112 1.378 . S
C1114 C1115 1.367 . S
C1115 C1114 1.367 . S
C1115 C1117 1.433 . S
C1116 C1112 1.350 . S
C1116 C1113 1.463 . S
C1116 N1120 1.427 . S
C1117 H1107 0.929 . S
C1117 C1115 1.433 . S
C1117 N1120 1.384 . S
C1118 H1109 0.929 . S
C1118 C1110 1.378 . S
C1118 C1113 1.350 . S
C1119 H1106 0.929 . S
C1119 C1111 1.433 . S
C1119 N1121 1.384 . S
N1120 C1116 1.427 . S
N1120 C1117 1.384 . S
N1121 C1113 1.427 . S
N1121 C1119 1.384 . S
H1122 C1128 0.930 . S
H1123 C1132 0.930 . S
H1124 C1137 0.929 . S
H1125 C1135 0.929 . S
H1126 C1130 0.929 . S
H1127 C1136 0.929 . S
C1128 H1122 0.930 . S
C1128 C1129 1.367 . S
C1128 C1136 1.378 . S
C1129 C1128 1.367 . S
C1129 C1137 1.433 . S
C1130 H1126 0.929 . S
C1130 C1132 1.378 . S
C1130 C1134 1.350 . S
C1131 C1134 1.463 . S
C1131 C1136 1.350 . S
C1131 N1139 1.427 . S
C1132 H1123 0.930 . S
C1132 C1130 1.378 . S
C1132 C1133 1.367 . S
C1133 C1132 1.367 . S
C1133 C1135 1.433 . S
C1134 C1130 1.350 . S
C1134 C1131 1.463 . S
C1134 N1138 1.427 . S
C1135 H1125 0.929 . S
C1135 C1133 1.433 . S
C1135 N1138 1.384 . S
C1136 H1127 0.929 . S
C1136 C1128 1.378 . S
C1136 C1131 1.350 . S
C1137 H1124 0.929 . S
C1137 C1129 1.433 . S
C1137 N1139 1.384 . S
N1138 C1134 1.427 . S
N1138 C1135 1.384 . S
N1139 C1131 1.427 . S
N1139 C1137 1.384 . S
H1140 C1146 0.930 . S
H1141 C1150 0.930 . S
H1142 C1155 0.929 . S
H1143 C1153 0.929 . S
H1144 C1148 0.929 . S
H1145 C1154 0.929 . S
C1146 H1140 0.930 . S
C1146 C1147 1.367 . S
C1146 C1154 1.378 . S
C1147 C1146 1.367 . S
C1147 C1155 1.433 . S
C1148 H1144 0.929 . S
C1148 C1150 1.378 . S
C1148 C1152 1.350 . S
C1149 C1152 1.463 . S
C1149 C1154 1.350 . S
C1149 N1157 1.427 . S
C1150 H1141 0.930 . S
C1150 C1148 1.378 . S
C1150 C1151 1.367 . S
C1151 C1150 1.367 . S
C1151 C1153 1.433 . S
C1152 C1148 1.350 . S
C1152 C1149 1.463 . S
C1152 N1156 1.427 . S
C1153 H1143 0.929 . S
C1153 C1151 1.433 . S
C1153 N1156 1.384 . S
C1154 H1145 0.929 . S
C1154 C1146 1.378 . S
C1154 C1149 1.350 . S
C1155 H1142 0.929 . S
C1155 C1147 1.433 . S
C1155 N1157 1.384 . S
N1156 C1152 1.427 . S
N1156 C1153 1.384 . S
N1157 C1149 1.427 . S
N1157 C1155 1.384 . S
H1158 C1164 0.930 . S
H1159 C1168 0.930 . S
H1160 C1173 0.929 . S
H1161 C1171 0.929 . S
H1162 C1166 0.929 . S
H1163 C1172 0.929 . S
C1164 H1158 0.930 . S
C1164 C1165 1.367 . S
C1164 C1172 1.378 . S
C1165 C1164 1.367 . S
C1165 C1173 1.433 . S
C1166 H1162 0.929 . S
C1166 C1168 1.378 . S
C1166 C1170 1.350 . S
C1167 C1170 1.463 . S
C1167 C1172 1.350 . S
C1167 N1175 1.427 . S
C1168 H1159 0.930 . S
C1168 C1166 1.378 . S
C1168 C1169 1.367 . S
C1169 C1168 1.367 . S
C1169 C1171 1.433 . S
C1170 C1166 1.350 . S
C1170 C1167 1.463 . S
C1170 N1174 1.427 . S
C1171 H1161 0.929 . S
C1171 C1169 1.433 . S
C1171 N1174 1.384 . S
C1172 H1163 0.929 . S
C1172 C1164 1.378 . S
C1172 C1167 1.350 . S
C1173 H1160 0.929 . S
C1173 C1165 1.433 . S
C1173 N1175 1.384 . S
N1174 C1170 1.427 . S
N1174 C1171 1.384 . S
N1175 C1167 1.427 . S
N1175 C1173 1.384 . S
H1176 C1182 0.930 . S
H1177 C1186 0.930 . S
H1178 C1191 0.929 . S
H1179 C1189 0.929 . S
H1180 C1184 0.929 . S
H1181 C1190 0.929 . S
C1182 H1176 0.930 . S
C1182 C1183 1.367 . S
C1182 C1190 1.378 . S
C1183 C1182 1.367 . S
C1183 C1191 1.433 . S
C1184 H1180 0.929 . S
C1184 C1186 1.378 . S
C1184 C1188 1.350 . S
C1185 C1188 1.463 . S
C1185 C1190 1.350 . S
C1185 N1193 1.427 . S
C1186 H1177 0.930 . S
C1186 C1184 1.378 . S
C1186 C1187 1.367 . S
C1187 C1186 1.367 . S
C1187 C1189 1.433 . S
C1188 C1184 1.350 . S
C1188 C1185 1.463 . S
C1188 N1192 1.427 . S
C1189 H1179 0.929 . S
C1189 C1187 1.433 . S
C1189 N1192 1.384 . S
C1190 H1181 0.929 . S
C1190 C1182 1.378 . S
C1190 C1185 1.350 . S
C1191 H1178 0.929 . S
C1191 C1183 1.433 . S
C1191 N1193 1.384 . S
N1192 C1188 1.427 . S
N1192 C1189 1.384 . S
N1193 C1185 1.427 . S
N1193 C1191 1.384 . S
H1194 C1200 0.930 . S
H1195 C1204 0.930 . S
H1196 C1209 0.929 . S
H1197 C1207 0.929 . S
H1198 C1202 0.929 . S
H1199 C1208 0.929 . S
C1200 H1194 0.930 . S
C1200 C1201 1.367 . S
C1200 C1208 1.378 . S
C1201 C1200 1.367 . S
C1201 C1209 1.433 . S
C1202 H1198 0.929 . S
C1202 C1204 1.378 . S
C1202 C1206 1.350 . S
C1203 C1206 1.463 . S
C1203 C1208 1.350 . S
C1203 N1211 1.427 . S
C1204 H1195 0.930 . S
C1204 C1202 1.378 . S
C1204 C1205 1.367 1_545 S
C1205 C1204 1.367 1_565 S
C1205 C1207 1.433 . S
C1206 C1202 1.350 . S
C1206 C1203 1.463 . S
C1206 N1210 1.427 . S
C1207 H1197 0.929 . S
C1207 C1205 1.433 . S
C1207 N1210 1.384 1_565 S
C1208 H1199 0.929 . S
C1208 C1200 1.378 . S
C1208 C1203 1.350 . S
C1209 H1196 0.929 . S
C1209 C1201 1.433 . S
C1209 N1211 1.384 . S
N1210 C1206 1.427 . S
N1210 C1207 1.384 1_545 S
N1211 C1203 1.427 . S
N1211 C1209 1.384 . S
H1212 C1218 0.930 . S
H1213 C1222 0.930 . S
H1214 C1227 0.929 . S
H1215 C1225 0.929 . S
H1216 C1220 0.929 . S
H1217 C1226 0.929 . S
C1218 H1212 0.930 . S
C1218 C1219 1.367 . S
C1218 C1226 1.378 . S
C1219 C1218 1.367 . S
C1219 C1227 1.433 . S
C1220 H1216 0.929 . S
C1220 C1222 1.378 . S
C1220 C1224 1.350 . S
C1221 C1224 1.463 . S
C1221 C1226 1.350 . S
C1221 N1229 1.427 . S
C1222 H1213 0.930 . S
C1222 C1220 1.378 . S
C1222 C1223 1.367 . S
C1223 C1222 1.367 . S
C1223 C1225 1.433 . S
C1224 C1220 1.350 . S
C1224 C1221 1.463 . S
C1224 N1228 1.427 . S
C1225 H1215 0.929 . S
C1225 C1223 1.433 . S
C1225 N1228 1.384 . S
C1226 H1217 0.929 . S
C1226 C1218 1.378 . S
C1226 C1221 1.350 . S
C1227 H1214 0.929 . S
C1227 C1219 1.433 . S
C1227 N1229 1.384 . S
N1228 C1224 1.427 . S
N1228 C1225 1.384 . S
N1229 C1221 1.427 . S
N1229 C1227 1.384 . S
H1230 C1236 0.930 . S
H1231 C1240 0.930 . S
H1232 C1245 0.929 . S
H1233 C1243 0.929 . S
H1234 C1238 0.929 . S
H1235 C1244 0.929 . S
C1236 H1230 0.930 . S
C1236 C1237 1.367 . S
C1236 C1244 1.378 . S
C1237 C1236 1.367 . S
C1237 C1245 1.433 . S
C1238 H1234 0.929 . S
C1238 C1240 1.378 . S
C1238 C1242 1.350 . S
C1239 C1242 1.463 . S
C1239 C1244 1.350 . S
C1239 N1247 1.427 . S
C1240 H1231 0.930 . S
C1240 C1238 1.378 . S
C1240 C1241 1.367 . S
C1241 C1240 1.367 . S
C1241 C1243 1.433 . S
C1242 C1238 1.350 . S
C1242 C1239 1.463 . S
C1242 N1246 1.427 . S
C1243 H1233 0.929 . S
C1243 C1241 1.433 . S
C1243 N1246 1.384 . S
C1244 H1235 0.929 . S
C1244 C1236 1.378 . S
C1244 C1239 1.350 . S
C1245 H1232 0.929 . S
C1245 C1237 1.433 . S
C1245 N1247 1.384 . S
N1246 C1242 1.427 . S
N1246 C1243 1.384 . S
N1247 C1239 1.427 . S
N1247 C1245 1.384 . S
H1248 C1254 0.930 . S
H1249 C1258 0.930 . S
H1250 C1263 0.929 . S
H1251 C1261 0.929 . S
H1252 C1256 0.929 . S
H1253 C1262 0.929 . S
C1254 H1248 0.930 . S
C1254 C1255 1.367 . S
C1254 C1262 1.378 . S
C1255 C1254 1.367 . S
C1255 C1263 1.433 . S
C1256 H1252 0.929 . S
C1256 C1258 1.378 . S
C1256 C1260 1.350 . S
C1257 C1260 1.463 . S
C1257 C1262 1.350 . S
C1257 N1265 1.427 . S
C1258 H1249 0.930 . S
C1258 C1256 1.378 . S
C1258 C1259 1.367 . S
C1259 C1258 1.367 . S
C1259 C1261 1.433 . S
C1260 C1256 1.350 . S
C1260 C1257 1.463 . S
C1260 N1264 1.427 . S
C1261 H1251 0.929 . S
C1261 C1259 1.433 . S
C1261 N1264 1.384 . S
C1262 H1253 0.929 . S
C1262 C1254 1.378 . S
C1262 C1257 1.350 . S
C1263 H1250 0.929 . S
C1263 C1255 1.433 . S
C1263 N1265 1.384 . S
N1264 C1260 1.427 . S
N1264 C1261 1.384 . S
N1265 C1257 1.427 . S
N1265 C1263 1.384 . S
H1266 C1272 0.930 . S
H1267 C1276 0.930 . S
H1268 C1281 0.929 . S
H1269 C1279 0.929 . S
H1270 C1274 0.929 . S
H1271 C1280 0.929 . S
C1272 H1266 0.930 . S
C1272 C1273 1.367 . S
C1272 C1280 1.378 . S
C1273 C1272 1.367 . S
C1273 C1281 1.433 . S
C1274 H1270 0.929 . S
C1274 C1276 1.378 . S
C1274 C1278 1.350 . S
C1275 C1278 1.463 . S
C1275 C1280 1.350 . S
C1275 N1283 1.427 . S
C1276 H1267 0.930 . S
C1276 C1274 1.378 . S
C1276 C1277 1.367 1_545 S
C1277 C1276 1.367 1_565 S
C1277 C1279 1.433 . S
C1278 C1274 1.350 . S
C1278 C1275 1.463 . S
C1278 N1282 1.427 . S
C1279 H1269 0.929 . S
C1279 C1277 1.433 . S
C1279 N1282 1.384 1_565 S
C1280 H1271 0.929 . S
C1280 C1272 1.378 . S
C1280 C1275 1.350 . S
C1281 H1268 0.929 . S
C1281 C1273 1.433 . S
C1281 N1283 1.384 . S
N1282 C1278 1.427 . S
N1282 C1279 1.384 1_545 S
N1283 C1275 1.427 . S
N1283 C1281 1.384 . S
H1284 C1290 0.930 . S
H1285 C1294 0.930 . S
H1286 C1299 0.929 . S
H1287 C1297 0.929 . S
H1288 C1292 0.929 . S
H1289 C1298 0.929 . S
C1290 H1284 0.930 . S
C1290 C1291 1.367 . S
C1290 C1298 1.378 . S
C1291 C1290 1.367 . S
C1291 C1299 1.433 . S
C1292 H1288 0.929 . S
C1292 C1294 1.378 . S
C1292 C1296 1.350 . S
C1293 C1296 1.463 . S
C1293 C1298 1.350 . S
C1293 N1301 1.427 . S
C1294 H1285 0.930 . S
C1294 C1292 1.378 . S
C1294 C1295 1.367 . S
C1295 C1294 1.367 . S
C1295 C1297 1.433 . S
C1296 C1292 1.350 . S
C1296 C1293 1.463 . S
C1296 N1300 1.427 . S
C1297 H1287 0.929 . S
C1297 C1295 1.433 . S
C1297 N1300 1.384 . S
C1298 H1289 0.929 . S
C1298 C1290 1.378 . S
C1298 C1293 1.350 . S
C1299 H1286 0.929 . S
C1299 C1291 1.433 . S
C1299 N1301 1.384 . S
N1300 C1296 1.427 . S
N1300 C1297 1.384 . S
N1301 C1293 1.427 . S
N1301 C1299 1.384 . S
H1302 C1308 0.930 . S
H1303 C1312 0.930 . S
H1304 C1317 0.929 . S
H1305 C1315 0.929 . S
H1306 C1310 0.929 . S
H1307 C1316 0.929 . S
C1308 H1302 0.930 . S
C1308 C1309 1.367 . S
C1308 C1316 1.378 . S
C1309 C1308 1.367 . S
C1309 C1317 1.433 . S
C1310 H1306 0.929 . S
C1310 C1312 1.378 . S
C1310 C1314 1.350 . S
C1311 C1314 1.463 . S
C1311 C1316 1.350 . S
C1311 N1319 1.427 . S
C1312 H1303 0.930 . S
C1312 C1310 1.378 . S
C1312 C1313 1.367 . S
C1313 C1312 1.367 . S
C1313 C1315 1.433 . S
C1314 C1310 1.350 . S
C1314 C1311 1.463 . S
C1314 N1318 1.427 . S
C1315 H1305 0.929 . S
C1315 C1313 1.433 . S
C1315 N1318 1.384 . S
C1316 H1307 0.929 . S
C1316 C1308 1.378 . S
C1316 C1311 1.350 . S
C1317 H1304 0.929 . S
C1317 C1309 1.433 . S
C1317 N1319 1.384 . S
N1318 C1314 1.427 . S
N1318 C1315 1.384 . S
N1319 C1311 1.427 . S
N1319 C1317 1.384 . S
H1320 C1326 0.930 . S
H1321 C1330 0.930 . S
H1322 C1335 0.929 . S
H1323 C1333 0.929 . S
H1324 C1328 0.929 . S
H1325 C1334 0.929 . S
C1326 H1320 0.930 . S
C1326 C1327 1.367 . S
C1326 C1334 1.378 . S
C1327 C1326 1.367 . S
C1327 C1335 1.433 . S
C1328 H1324 0.929 . S
C1328 C1330 1.378 . S
C1328 C1332 1.350 . S
C1329 C1332 1.463 . S
C1329 C1334 1.350 . S
C1329 N1337 1.427 . S
C1330 H1321 0.930 . S
C1330 C1328 1.378 . S
C1330 C1331 1.367 . S
C1331 C1330 1.367 . S
C1331 C1333 1.433 . S
C1332 C1328 1.350 . S
C1332 C1329 1.463 . S
C1332 N1336 1.427 . S
C1333 H1323 0.929 . S
C1333 C1331 1.433 . S
C1333 N1336 1.384 . S
C1334 H1325 0.929 . S
C1334 C1326 1.378 . S
C1334 C1329 1.350 . S
C1335 H1322 0.929 . S
C1335 C1327 1.433 . S
C1335 N1337 1.384 . S
N1336 C1332 1.427 . S
N1336 C1333 1.384 . S
N1337 C1329 1.427 . S
N1337 C1335 1.384 . S
H1338 C1344 0.930 . S
H1339 C1348 0.930 . S
H1340 C1353 0.929 . S
H1341 C1351 0.929 . S
H1342 C1346 0.929 . S
H1343 C1352 0.929 . S
C1344 H1338 0.930 . S
C1344 C1345 1.367 . S
C1344 C1352 1.378 . S
C1345 C1344 1.367 . S
C1345 C1353 1.433 . S
C1346 H1342 0.929 . S
C1346 C1348 1.378 . S
C1346 C1350 1.350 . S
C1347 C1350 1.463 . S
C1347 C1352 1.350 . S
C1347 N1355 1.427 . S
C1348 H1339 0.930 . S
C1348 C1346 1.378 . S
C1348 C1349 1.367 . S
C1349 C1348 1.367 . S
C1349 C1351 1.433 . S
C1350 C1346 1.350 . S
C1350 C1347 1.463 . S
C1350 N1354 1.427 . S
C1351 H1341 0.929 . S
C1351 C1349 1.433 . S
C1351 N1354 1.384 . S
C1352 H1343 0.929 . S
C1352 C1344 1.378 . S
C1352 C1347 1.350 . S
C1353 H1340 0.929 . S
C1353 C1345 1.433 . S
C1353 N1355 1.384 . S
N1354 C1350 1.427 . S
N1354 C1351 1.384 . S
N1355 C1347 1.427 . S
N1355 C1353 1.384 . S
H1356 C1362 0.930 . S
H1357 C1366 0.930 . S
H1358 C1371 0.929 1_545 S
H1359 C1369 0.929 . S
H1360 C1364 0.929 . S
H1361 C1370 0.929 . S
C1362 H1356 0.930 . S
C1362 C1363 1.367 . S
C1362 C1370 1.378 . S
C1363 C1362 1.367 . S
C1363 C1371 1.433 . S
C1364 H1360 0.929 . S
C1364 C1366 1.378 . S
C1364 C1368 1.350 . S
C1365 C1368 1.463 . S
C1365 C1370 1.350 . S
C1365 N1373 1.427 . S
C1366 H1357 0.930 . S
C1366 C1364 1.378 . S
C1366 C1367 1.367 . S
C1367 C1366 1.367 . S
C1367 C1369 1.433 . S
C1368 C1364 1.350 . S
C1368 C1365 1.463 . S
C1368 N1372 1.427 . S
C1369 H1359 0.929 . S
C1369 C1367 1.433 . S
C1369 N1372 1.384 . S
C1370 H1361 0.929 . S
C1370 C1362 1.378 . S
C1370 C1365 1.350 . S
C1371 H1358 0.929 1_565 S
C1371 C1363 1.433 . S
C1371 N1373 1.384 . S
N1372 C1368 1.427 . S
N1372 C1369 1.384 . S
N1373 C1365 1.427 . S
N1373 C1371 1.384 . S
H1374 C1380 0.930 . S
H1375 C1384 0.930 . S
H1376 C1389 0.929 . S
H1377 C1387 0.929 . S
H1378 C1382 0.929 . S
H1379 C1388 0.929 . S
C1380 H1374 0.930 . S
C1380 C1381 1.367 . S
C1380 C1388 1.378 . S
C1381 C1380 1.367 . S
C1381 C1389 1.433 . S
C1382 H1378 0.929 . S
C1382 C1384 1.378 . S
C1382 C1386 1.350 . S
C1383 C1386 1.463 . S
C1383 C1388 1.350 . S
C1383 N1391 1.427 . S
C1384 H1375 0.930 . S
C1384 C1382 1.378 . S
C1384 C1385 1.367 . S
C1385 C1384 1.367 . S
C1385 C1387 1.433 . S
C1386 C1382 1.350 . S
C1386 C1383 1.463 . S
C1386 N1390 1.427 . S
C1387 H1377 0.929 . S
C1387 C1385 1.433 . S
C1387 N1390 1.384 . S
C1388 H1379 0.929 . S
C1388 C1380 1.378 . S
C1388 C1383 1.350 . S
C1389 H1376 0.929 . S
C1389 C1381 1.433 . S
C1389 N1391 1.384 . S
N1390 C1386 1.427 . S
N1390 C1387 1.384 . S
N1391 C1383 1.427 . S
N1391 C1389 1.384 . S
H1392 C1398 0.930 . S
H1393 C1402 0.930 1_565 S
H1394 C1407 0.929 . S
H1395 C1405 0.929 . S
H1396 C1400 0.929 . S
H1397 C1406 0.929 . S
C1398 H1392 0.930 . S
C1398 C1399 1.367 . S
C1398 C1406 1.378 . S
C1399 C1398 1.367 . S
C1399 C1407 1.433 . S
C1400 H1396 0.929 . S
C1400 C1402 1.378 . S
C1400 C1404 1.350 . S
C1401 C1404 1.463 . S
C1401 C1406 1.350 . S
C1401 N1409 1.427 . S
C1402 H1393 0.930 1_545 S
C1402 C1400 1.378 . S
C1402 C1403 1.367 1_655 S
C1403 C1402 1.367 1_455 S
C1403 C1405 1.433 . S
C1404 C1400 1.350 . S
C1404 C1401 1.463 . S
C1404 N1408 1.427 . S
C1405 H1395 0.929 . S
C1405 C1403 1.433 . S
C1405 N1408 1.384 1_455 S
C1406 H1397 0.929 . S
C1406 C1398 1.378 . S
C1406 C1401 1.350 . S
C1407 H1394 0.929 . S
C1407 C1399 1.433 . S
C1407 N1409 1.384 . S
N1408 C1404 1.427 . S
N1408 C1405 1.384 1_655 S
N1409 C1401 1.427 . S
N1409 C1407 1.384 . S
H1410 C1416 0.930 . S
H1411 C1420 0.930 . S
H1412 C1425 0.929 . S
H1413 C1423 0.929 . S
H1414 C1418 0.929 . S
H1415 C1424 0.929 . S
C1416 H1410 0.930 . S
C1416 C1417 1.367 . S
C1416 C1424 1.378 . S
C1417 C1416 1.367 . S
C1417 C1425 1.433 . S
C1418 H1414 0.929 . S
C1418 C1420 1.378 . S
C1418 C1422 1.350 . S
C1419 C1422 1.463 . S
C1419 C1424 1.350 . S
C1419 N1427 1.427 . S
C1420 H1411 0.930 . S
C1420 C1418 1.378 . S
C1420 C1421 1.367 . S
C1421 C1420 1.367 . S
C1421 C1423 1.433 . S
C1422 C1418 1.350 . S
C1422 C1419 1.463 . S
C1422 N1426 1.427 . S
C1423 H1413 0.929 . S
C1423 C1421 1.433 . S
C1423 N1426 1.384 . S
C1424 H1415 0.929 . S
C1424 C1416 1.378 . S
C1424 C1419 1.350 . S
C1425 H1412 0.929 . S
C1425 C1417 1.433 . S
C1425 N1427 1.384 . S
N1426 C1422 1.427 . S
N1426 C1423 1.384 . S
N1427 C1419 1.427 . S
N1427 C1425 1.384 . S
H1428 C1434 0.930 . S
H1429 C1438 0.930 . S
H1430 C1443 0.929 . S
H1431 C1441 0.929 1_565 S
H1432 C1436 0.929 . S
H1433 C1442 0.929 . S
C1434 H1428 0.930 . S
C1434 C1435 1.367 . S
C1434 C1442 1.378 . S
C1435 C1434 1.367 . S
C1435 C1443 1.433 . S
C1436 H1432 0.929 . S
C1436 C1438 1.378 . S
C1436 C1440 1.350 . S
C1437 C1440 1.463 . S
C1437 C1442 1.350 . S
C1437 N1445 1.427 . S
C1438 H1429 0.930 . S
C1438 C1436 1.378 . S
C1438 C1439 1.367 . S
C1439 C1438 1.367 . S
C1439 C1441 1.433 . S
C1440 C1436 1.350 . S
C1440 C1437 1.463 . S
C1440 N1444 1.427 . S
C1441 H1431 0.929 1_545 S
C1441 C1439 1.433 . S
C1441 N1444 1.384 . S
C1442 H1433 0.929 . S
C1442 C1434 1.378 . S
C1442 C1437 1.350 . S
C1443 H1430 0.929 . S
C1443 C1435 1.433 . S
C1443 N1445 1.384 . S
N1444 C1440 1.427 . S
N1444 C1441 1.384 . S
N1445 C1437 1.427 . S
N1445 C1443 1.384 . S
H1446 C1452 0.930 . S
H1447 C1456 0.930 . S
H1448 C1461 0.929 . S
H1449 C1459 0.929 . S
H1450 C1454 0.929 . S
H1451 C1460 0.929 . S
C1452 H1446 0.930 . S
C1452 C1453 1.367 . S
C1452 C1460 1.378 . S
C1453 C1452 1.367 . S
C1453 C1461 1.433 . S
C1454 H1450 0.929 . S
C1454 C1456 1.378 . S
C1454 C1458 1.350 . S
C1455 C1458 1.463 . S
C1455 C1460 1.350 . S
C1455 N1463 1.427 . S
C1456 H1447 0.930 . S
C1456 C1454 1.378 . S
C1456 C1457 1.367 . S
C1457 C1456 1.367 . S
C1457 C1459 1.433 . S
C1458 C1454 1.350 . S
C1458 C1455 1.463 . S
C1458 N1462 1.427 . S
C1459 H1449 0.929 . S
C1459 C1457 1.433 . S
C1459 N1462 1.384 . S
C1460 H1451 0.929 . S
C1460 C1452 1.378 . S
C1460 C1455 1.350 . S
C1461 H1448 0.929 . S
C1461 C1453 1.433 . S
C1461 N1463 1.384 . S
N1462 C1458 1.427 . S
N1462 C1459 1.384 . S
N1463 C1455 1.427 . S
N1463 C1461 1.384 . S
H1464 C1470 0.930 . S
H1465 C1474 0.930 . S
H1466 C1479 0.929 . S
H1467 C1477 0.929 . S
H1468 C1472 0.929 . S
H1469 C1478 0.929 . S
C1470 H1464 0.930 . S
C1470 C1471 1.367 . S
C1470 C1478 1.378 . S
C1471 C1470 1.367 . S
C1471 C1479 1.433 1_655 S
C1472 H1468 0.929 . S
C1472 C1474 1.378 . S
C1472 C1476 1.350 1_455 S
C1473 C1476 1.463 . S
C1473 C1478 1.350 . S
C1473 N1481 1.427 1_655 S
C1474 H1465 0.930 . S
C1474 C1472 1.378 . S
C1474 C1475 1.367 1_455 S
C1475 C1474 1.367 1_655 S
C1475 C1477 1.433 . S
C1476 C1472 1.350 1_655 S
C1476 C1473 1.463 . S
C1476 N1480 1.427 . S
C1477 H1467 0.929 . S
C1477 C1475 1.433 . S
C1477 N1480 1.384 . S
C1478 H1469 0.929 . S
C1478 C1470 1.378 . S
C1478 C1473 1.350 . S
C1479 H1466 0.929 . S
C1479 C1471 1.433 1_455 S
C1479 N1481 1.384 . S
N1480 C1476 1.427 . S
N1480 C1477 1.384 . S
N1481 C1473 1.427 1_455 S
N1481 C1479 1.384 . S
H1482 C1488 0.930 . S
H1483 C1492 0.930 . S
H1484 C1497 0.929 . S
H1485 C1495 0.929 . S
H1486 C1490 0.929 . S
H1487 C1496 0.929 . S
C1488 H1482 0.930 . S
C1488 C1489 1.367 . S
C1488 C1496 1.378 . S
C1489 C1488 1.367 . S
C1489 C1497 1.433 . S
C1490 H1486 0.929 . S
C1490 C1492 1.378 . S
C1490 C1494 1.350 . S
C1491 C1494 1.463 1_556 S
C1491 C1496 1.350 . S
C1491 N1499 1.427 1_556 S
C1492 H1483 0.930 . S
C1492 C1490 1.378 . S
C1492 C1493 1.367 . S
C1493 C1492 1.367 . S
C1493 C1495 1.433 . S
C1494 C1490 1.350 . S
C1494 C1491 1.463 1_554 S
C1494 N1498 1.427 1_554 S
C1495 H1485 0.929 . S
C1495 C1493 1.433 . S
C1495 N1498 1.384 1_554 S
C1496 H1487 0.929 . S
C1496 C1488 1.378 . S
C1496 C1491 1.350 . S
C1497 H1484 0.929 . S
C1497 C1489 1.433 . S
C1497 N1499 1.384 1_556 S
N1498 C1494 1.427 1_556 S
N1498 C1495 1.384 1_556 S
N1499 C1491 1.427 1_554 S
N1499 C1497 1.384 1_554 S
H1500 C1506 0.930 . S
H1501 C1510 0.930 . S
H1502 C1515 0.929 . S
H1503 C1513 0.929 . S
H1504 C1508 0.929 . S
H1505 C1514 0.929 . S
C1506 H1500 0.930 . S
C1506 C1507 1.367 . S
C1506 C1514 1.378 . S
C1507 C1506 1.367 . S
C1507 C1515 1.433 1_455 S
C1508 H1504 0.929 . S
C1508 C1510 1.378 . S
C1508 C1512 1.350 1_655 S
C1509 C1512 1.463 1_545 S
C1509 C1514 1.350 . S
C1509 N1517 1.427 1_455 S
C1510 H1501 0.930 . S
C1510 C1508 1.378 . S
C1510 C1511 1.367 1_655 S
C1511 C1510 1.367 1_455 S
C1511 C1513 1.433 . S
C1512 C1508 1.350 1_455 S
C1512 C1509 1.463 1_565 S
C1512 N1516 1.427 . S
C1513 H1503 0.929 . S
C1513 C1511 1.433 . S
C1513 N1516 1.384 . S
C1514 H1505 0.929 . S
C1514 C1506 1.378 . S
C1514 C1509 1.350 . S
C1515 H1502 0.929 . S
C1515 C1507 1.433 1_655 S
C1515 N1517 1.384 . S
N1516 C1512 1.427 . S
N1516 C1513 1.384 . S
N1517 C1509 1.427 1_655 S
N1517 C1515 1.384 . S
H1518 C1524 0.930 . S
H1519 C1528 0.930 . S
H1520 C1533 0.930 1_554 S
H1521 C1531 0.930 1_556 S
H1522 C1526 0.929 . S
H1523 C1532 0.929 . S
C1524 H1518 0.930 . S
C1524 C1525 1.367 . S
C1524 C1532 1.378 . S
C1525 C1524 1.367 . S
C1525 C1533 1.433 . S
C1526 H1522 0.929 . S
C1526 C1528 1.378 . S
C1526 C1530 1.350 . S
C1527 C1530 1.463 1_556 S
C1527 C1532 1.350 . S
C1527 N1535 1.427 1_556 S
C1528 H1519 0.930 . S
C1528 C1526 1.378 . S
C1528 C1529 1.367 . S
C1529 C1528 1.367 . S
C1529 C1531 1.433 . S
C1530 C1526 1.350 . S
C1530 C1527 1.463 1_554 S
C1530 N1534 1.427 1_554 S
C1531 H1521 0.930 1_554 S
C1531 C1529 1.433 . S
C1531 N1534 1.384 1_554 S
C1532 H1523 0.929 . S
C1532 C1524 1.378 . S
C1532 C1527 1.350 . S
C1533 H1520 0.930 1_556 S
C1533 C1525 1.433 . S
C1533 N1535 1.384 1_556 S
N1534 C1530 1.427 1_556 S
N1534 C1531 1.384 1_556 S
N1535 C1527 1.427 1_554 S
N1535 C1533 1.384 1_554 S
H1536 C1542 0.930 . S
H1537 C1546 0.930 . S
H1538 C1551 0.929 . S
H1539 C1549 0.929 . S
H1540 C1544 0.929 . S
H1541 C1550 0.929 . S
C1542 H1536 0.930 . S
C1542 C1543 1.367 . S
C1542 C1550 1.378 . S
C1543 C1542 1.367 . S
C1543 C1551 1.433 1_565 S
C1544 H1540 0.929 . S
C1544 C1546 1.378 . S
C1544 C1548 1.350 1_545 S
C1545 C1548 1.463 . S
C1545 C1550 1.350 . S
C1545 N1553 1.427 1_565 S
C1546 H1537 0.930 . S
C1546 C1544 1.378 . S
C1546 C1547 1.367 1_545 S
C1547 C1546 1.367 1_565 S
C1547 C1549 1.433 . S
C1548 C1544 1.350 1_565 S
C1548 C1545 1.463 . S
C1548 N1552 1.427 . S
C1549 H1539 0.929 . S
C1549 C1547 1.433 . S
C1549 N1552 1.384 . S
C1550 H1541 0.929 . S
C1550 C1542 1.378 . S
C1550 C1545 1.350 . S
C1551 H1538 0.929 . S
C1551 C1543 1.433 1_545 S
C1551 N1553 1.384 . S
N1552 C1548 1.427 . S
N1552 C1549 1.384 . S
N1553 C1545 1.427 1_545 S
N1553 C1551 1.384 . S
H1554 C1560 0.930 . S
H1555 C1564 0.930 . S
H1556 C1569 0.929 . S
H1557 C1567 0.929 . S
H1558 C1562 0.929 . S
H1559 C1568 0.929 . S
C1560 H1554 0.930 . S
C1560 C1561 1.367 . S
C1560 C1568 1.378 . S
C1561 C1560 1.367 . S
C1561 C1569 1.433 . S
C1562 H1558 0.929 . S
C1562 C1564 1.378 . S
C1562 C1566 1.350 . S
C1563 C1566 1.463 . S
C1563 C1568 1.350 . S
C1563 N1571 1.427 . S
C1564 H1555 0.930 . S
C1564 C1562 1.378 . S
C1564 C1565 1.367 . S
C1565 C1564 1.367 . S
C1565 C1567 1.433 . S
C1566 C1562 1.350 . S
C1566 C1563 1.463 . S
C1566 N1570 1.427 . S
C1567 H1557 0.929 . S
C1567 C1565 1.433 . S
C1567 N1570 1.384 . S
C1568 H1559 0.929 . S
C1568 C1560 1.378 . S
C1568 C1563 1.350 . S
C1569 H1556 0.929 . S
C1569 C1561 1.433 . S
C1569 N1571 1.384 . S
N1570 C1566 1.427 . S
N1570 C1567 1.384 . S
N1571 C1563 1.427 . S
N1571 C1569 1.384 . S
H1572 C1578 0.930 . S
H1573 C1582 0.930 . S
H1574 C1587 0.929 . S
H1575 C1585 0.929 . S
H1576 C1580 0.929 . S
H1577 C1586 0.929 . S
C1578 H1572 0.930 . S
C1578 C1579 1.367 . S
C1578 C1586 1.378 . S
C1579 C1578 1.367 . S
C1579 C1587 1.433 . S
C1580 H1576 0.929 . S
C1580 C1582 1.378 . S
C1580 C1584 1.350 . S
C1581 C1584 1.463 . S
C1581 C1586 1.350 . S
C1581 N1589 1.427 . S
C1582 H1573 0.930 . S
C1582 C1580 1.378 . S
C1582 C1583 1.367 . S
C1583 C1582 1.367 . S
C1583 C1585 1.433 . S
C1584 C1580 1.350 . S
C1584 C1581 1.463 . S
C1584 N1588 1.427 . S
C1585 H1575 0.929 . S
C1585 C1583 1.433 . S
C1585 N1588 1.384 . S
C1586 H1577 0.929 . S
C1586 C1578 1.378 . S
C1586 C1581 1.350 . S
C1587 H1574 0.929 . S
C1587 C1579 1.433 . S
C1587 N1589 1.384 . S
N1588 C1584 1.427 . S
N1588 C1585 1.384 . S
N1589 C1581 1.427 . S
N1589 C1587 1.384 . S
H1590 C1596 0.930 . S
H1591 C1600 0.930 . S
H1592 C1605 0.929 . S
H1593 C1603 0.929 . S
H1594 C1598 0.929 . S
H1595 C1604 0.929 . S
C1596 H1590 0.930 . S
C1596 C1597 1.367 1_565 S
C1596 C1604 1.378 . S
C1597 C1596 1.367 1_545 S
C1597 C1605 1.433 . S
C1598 H1594 0.929 . S
C1598 C1600 1.378 . S
C1598 C1602 1.350 1_545 S
C1599 C1602 1.463 1_545 S
C1599 C1604 1.350 1_545 S
C1599 N1607 1.427 . S
C1600 H1591 0.930 . S
C1600 C1598 1.378 . S
C1600 C1601 1.367 1_545 S
C1601 C1600 1.367 1_565 S
C1601 C1603 1.433 . S
C1602 C1598 1.350 1_565 S
C1602 C1599 1.463 1_565 S
C1602 N1606 1.427 . S
C1603 H1593 0.929 . S
C1603 C1601 1.433 . S
C1603 N1606 1.384 . S
C1604 H1595 0.929 . S
C1604 C1596 1.378 . S
C1604 C1599 1.350 1_565 S
C1605 H1592 0.929 . S
C1605 C1597 1.433 . S
C1605 N1607 1.384 . S
N1606 C1602 1.427 . S
N1606 C1603 1.384 . S
N1607 C1599 1.427 . S
N1607 C1605 1.384 . S
H1608 C1614 0.930 . S
H1609 C1618 0.930 . S
H1610 C1623 0.929 . S
H1611 C1621 0.929 . S
H1612 C1616 0.929 . S
H1613 C1622 0.929 . S
C1614 H1608 0.930 . S
C1614 C1615 1.367 . S
C1614 C1622 1.378 . S
C1615 C1614 1.367 . S
C1615 C1623 1.433 1_545 S
C1616 H1612 0.929 . S
C1616 C1618 1.378 . S
C1616 C1620 1.350 1_565 S
C1617 C1620 1.463 1_554 S
C1617 C1622 1.350 . S
C1617 N1625 1.427 1_545 S
C1618 H1609 0.930 . S
C1618 C1616 1.378 . S
C1618 C1619 1.367 1_565 S
C1619 C1618 1.367 1_545 S
C1619 C1621 1.433 . S
C1620 C1616 1.350 1_545 S
C1620 C1617 1.463 1_556 S
C1620 N1624 1.427 . S
C1621 H1611 0.929 . S
C1621 C1619 1.433 . S
C1621 N1624 1.384 . S
C1622 H1613 0.929 . S
C1622 C1614 1.378 . S
C1622 C1617 1.350 . S
C1623 H1610 0.929 . S
C1623 C1615 1.433 1_565 S
C1623 N1625 1.384 . S
N1624 C1620 1.427 . S
N1624 C1621 1.384 . S
N1625 C1617 1.427 1_565 S
N1625 C1623 1.384 . S
H1626 C1632 0.930 . S
H1627 C1636 0.930 . S
H1628 C1641 0.929 . S
H1629 C1639 0.929 . S
H1630 C1634 0.929 . S
H1631 C1640 0.929 . S
C1632 H1626 0.930 . S
C1632 C1633 1.367 . S
C1632 C1640 1.378 . S
C1633 C1632 1.367 . S
C1633 C1641 1.433 . S
C1634 H1630 0.929 . S
C1634 C1636 1.378 . S
C1634 C1638 1.350 . S
C1635 C1638 1.463 . S
C1635 C1640 1.350 . S
C1635 N1643 1.427 . S
C1636 H1627 0.930 . S
C1636 C1634 1.378 . S
C1636 C1637 1.367 . S
C1637 C1636 1.367 . S
C1637 C1639 1.433 . S
C1638 C1634 1.350 . S
C1638 C1635 1.463 . S
C1638 N1642 1.427 . S
C1639 H1629 0.929 . S
C1639 C1637 1.433 . S
C1639 N1642 1.384 . S
C1640 H1631 0.929 . S
C1640 C1632 1.378 . S
C1640 C1635 1.350 . S
C1641 H1628 0.929 . S
C1641 C1633 1.433 . S
C1641 N1643 1.384 . S
N1642 C1638 1.427 . S
N1642 C1639 1.384 . S
N1643 C1635 1.427 . S
N1643 C1641 1.384 . S
H1644 C1650 0.930 . S
H1645 C1654 0.930 . S
H1646 C1659 0.929 . S
H1647 C1657 0.929 . S
H1648 C1652 0.929 . S
H1649 C1658 0.929 . S
C1650 H1644 0.930 . S
C1650 C1651 1.367 . S
C1650 C1658 1.378 . S
C1651 C1650 1.367 . S
C1651 C1659 1.433 . S
C1652 H1648 0.929 . S
C1652 C1654 1.378 . S
C1652 C1656 1.350 . S
C1653 C1656 1.463 1_554 S
C1653 C1658 1.350 . S
C1653 N1661 1.427 . S
C1654 H1645 0.930 . S
C1654 C1652 1.378 . S
C1654 C1655 1.367 . S
C1655 C1654 1.367 . S
C1655 C1657 1.433 . S
C1656 C1652 1.350 . S
C1656 C1653 1.463 1_556 S
C1656 N1660 1.427 . S
C1657 H1647 0.929 . S
C1657 C1655 1.433 . S
C1657 N1660 1.384 . S
C1658 H1649 0.929 . S
C1658 C1650 1.378 . S
C1658 C1653 1.350 . S
C1659 H1646 0.929 . S
C1659 C1651 1.433 . S
C1659 N1661 1.384 . S
N1660 C1656 1.427 . S
N1660 C1657 1.384 . S
N1661 C1653 1.427 . S
N1661 C1659 1.384 . S
H1662 C1668 0.930 . S
H1663 C1672 0.930 . S
H1664 C1677 0.929 . S
H1665 C1675 0.929 . S
H1666 C1670 0.929 . S
H1667 C1676 0.929 . S
C1668 H1662 0.930 . S
C1668 C1669 1.367 1_565 S
C1668 C1676 1.378 . S
C1669 C1668 1.367 1_545 S
C1669 C1677 1.433 . S
C1670 H1666 0.929 . S
C1670 C1672 1.378 . S
C1670 C1674 1.350 1_545 S
C1671 C1674 1.463 1_545 S
C1671 C1676 1.350 1_545 S
C1671 N1679 1.427 . S
C1672 H1663 0.930 . S
C1672 C1670 1.378 . S
C1672 C1673 1.367 1_545 S
C1673 C1672 1.367 1_565 S
C1673 C1675 1.433 . S
C1674 C1670 1.350 1_565 S
C1674 C1671 1.463 1_565 S
C1674 N1678 1.427 . S
C1675 H1665 0.929 . S
C1675 C1673 1.433 . S
C1675 N1678 1.384 . S
C1676 H1667 0.929 . S
C1676 C1668 1.378 . S
C1676 C1671 1.350 1_565 S
C1677 H1664 0.929 . S
C1677 C1669 1.433 . S
C1677 N1679 1.384 . S
N1678 C1674 1.427 . S
N1678 C1675 1.384 . S
N1679 C1671 1.427 . S
N1679 C1677 1.384 . S
H1680 C1686 0.930 . S
H1681 C1690 0.930 . S
H1682 C1695 0.929 . S
H1683 C1693 0.929 . S
H1684 C1688 0.929 . S
H1685 C1694 0.929 . S
C1686 H1680 0.930 . S
C1686 C1687 1.367 . S
C1686 C1694 1.378 . S
C1687 C1686 1.367 . S
C1687 C1695 1.433 1_556 S
C1688 H1684 0.929 . S
C1688 C1690 1.378 . S
C1688 C1692 1.350 1_554 S
C1689 C1692 1.463 . S
C1689 C1694 1.350 . S
C1689 N1697 1.427 1_556 S
C1690 H1681 0.930 . S
C1690 C1688 1.378 . S
C1690 C1691 1.367 1_554 S
C1691 C1690 1.367 1_556 S
C1691 C1693 1.433 . S
C1692 C1688 1.350 1_556 S
C1692 C1689 1.463 . S
C1692 N1696 1.427 . S
C1693 H1683 0.929 . S
C1693 C1691 1.433 . S
C1693 N1696 1.384 . S
C1694 H1685 0.929 . S
C1694 C1686 1.378 . S
C1694 C1689 1.350 . S
C1695 H1682 0.929 . S
C1695 C1687 1.433 1_554 S
C1695 N1697 1.384 . S
N1696 C1692 1.427 . S
N1696 C1693 1.384 . S
N1697 C1689 1.427 1_554 S
N1697 C1695 1.384 . S
H1698 C1704 0.930 . S
H1699 C1708 0.930 . S
H1700 C1713 0.929 . S
H1701 C1711 0.929 . S
H1702 C1706 0.929 . S
H1703 C1712 0.929 . S
C1704 H1698 0.930 . S
C1704 C1705 1.367 . S
C1704 C1712 1.378 . S
C1705 C1704 1.367 . S
C1705 C1713 1.433 . S
C1706 H1702 0.929 . S
C1706 C1708 1.378 . S
C1706 C1710 1.350 . S
C1707 C1710 1.463 . S
C1707 C1712 1.350 . S
C1707 N1715 1.427 . S
C1708 H1699 0.930 . S
C1708 C1706 1.378 . S
C1708 C1709 1.367 . S
C1709 C1708 1.367 . S
C1709 C1711 1.433 . S
C1710 C1706 1.350 . S
C1710 C1707 1.463 . S
C1710 N1714 1.427 . S
C1711 H1701 0.929 . S
C1711 C1709 1.433 . S
C1711 N1714 1.384 . S
C1712 H1703 0.929 . S
C1712 C1704 1.378 . S
C1712 C1707 1.350 . S
C1713 H1700 0.929 . S
C1713 C1705 1.433 . S
C1713 N1715 1.384 . S
N1714 C1710 1.427 . S
N1714 C1711 1.384 . S
N1715 C1707 1.427 . S
N1715 C1713 1.384 . S
H1716 C1722 0.930 . S
H1717 C1726 0.930 . S
H1718 C1731 0.929 . S
H1719 C1729 0.929 . S
H1720 C1724 0.929 . S
H1721 C1730 0.929 . S
C1722 H1716 0.930 . S
C1722 C1723 1.367 . S
C1722 C1730 1.378 . S
C1723 C1722 1.367 . S
C1723 C1731 1.433 1_655 S
C1724 H1720 0.929 . S
C1724 C1726 1.378 . S
C1724 C1728 1.350 . S
C1725 C1728 1.463 1_655 S
C1725 C1730 1.350 . S
C1725 N1733 1.427 1_655 S
C1726 H1717 0.930 . S
C1726 C1724 1.378 . S
C1726 C1727 1.367 . S
C1727 C1726 1.367 . S
C1727 C1729 1.433 1_455 S
C1728 C1724 1.350 . S
C1728 C1725 1.463 1_455 S
C1728 N1732 1.427 1_455 S
C1729 H1719 0.929 . S
C1729 C1727 1.433 1_655 S
C1729 N1732 1.384 . S
C1730 H1721 0.929 . S
C1730 C1722 1.378 . S
C1730 C1725 1.350 . S
C1731 H1718 0.929 . S
C1731 C1723 1.433 1_455 S
C1731 N1733 1.384 . S
N1732 C1728 1.427 1_655 S
N1732 C1729 1.384 . S
N1733 C1725 1.427 1_455 S
N1733 C1731 1.384 . S
H1734 C1740 0.930 . S
H1735 C1744 0.930 . S
H1736 C1749 0.929 . S
H1737 C1747 0.929 . S
H1738 C1742 0.929 . S
H1739 C1748 0.929 . S
C1740 H1734 0.930 . S
C1740 C1741 1.367 . S
C1740 C1748 1.378 . S
C1741 C1740 1.367 . S
C1741 C1749 1.433 . S
C1742 H1738 0.929 . S
C1742 C1744 1.378 . S
C1742 C1746 1.350 . S
C1743 C1746 1.463 . S
C1743 C1748 1.350 . S
C1743 N1751 1.427 . S
C1744 H1735 0.930 . S
C1744 C1742 1.378 . S
C1744 C1745 1.367 . S
C1745 C1744 1.367 . S
C1745 C1747 1.433 . S
C1746 C1742 1.350 . S
C1746 C1743 1.463 . S
C1746 N1750 1.427 . S
C1747 H1737 0.929 . S
C1747 C1745 1.433 . S
C1747 N1750 1.384 . S
C1748 H1739 0.929 . S
C1748 C1740 1.378 . S
C1748 C1743 1.350 . S
C1749 H1736 0.929 . S
C1749 C1741 1.433 . S
C1749 N1751 1.384 . S
N1750 C1746 1.427 . S
N1750 C1747 1.384 . S
N1751 C1743 1.427 . S
N1751 C1749 1.384 . S
H1752 C1758 0.930 . S
H1753 C1762 0.930 . S
H1754 C1767 0.929 . S
H1755 C1765 0.929 . S
H1756 C1760 0.929 . S
H1757 C1766 0.929 . S
C1758 H1752 0.930 . S
C1758 C1759 1.367 . S
C1758 C1766 1.378 . S
C1759 C1758 1.367 . S
C1759 C1767 1.433 . S
C1760 H1756 0.929 . S
C1760 C1762 1.378 . S
C1760 C1764 1.350 . S
C1761 C1764 1.463 1_655 S
C1761 C1766 1.350 . S
C1761 N1769 1.427 . S
C1762 H1753 0.930 . S
C1762 C1760 1.378 . S
C1762 C1763 1.367 . S
C1763 C1762 1.367 . S
C1763 C1765 1.433 . S
C1764 C1760 1.350 . S
C1764 C1761 1.463 1_455 S
C1764 N1768 1.427 . S
C1765 H1755 0.929 . S
C1765 C1763 1.433 . S
C1765 N1768 1.384 . S
C1766 H1757 0.929 . S
C1766 C1758 1.378 . S
C1766 C1761 1.350 . S
C1767 H1754 0.929 . S
C1767 C1759 1.433 . S
C1767 N1769 1.384 . S
N1768 C1764 1.427 . S
N1768 C1765 1.384 . S
N1769 C1761 1.427 . S
N1769 C1767 1.384 . S
H1770 C1776 0.930 . S
H1771 C1780 0.930 . S
H1772 C1785 0.929 . S
H1773 C1783 0.929 . S
H1774 C1778 0.929 . S
H1775 C1784 0.929 . S
C1776 H1770 0.930 . S
C1776 C1777 1.367 . S
C1776 C1784 1.378 . S
C1777 C1776 1.367 . S
C1777 C1785 1.433 1_455 S
C1778 H1774 0.929 . S
C1778 C1780 1.378 . S
C1778 C1782 1.350 . S
C1779 C1782 1.463 1_455 S
C1779 C1784 1.350 . S
C1779 N1787 1.427 1_455 S
C1780 H1771 0.930 . S
C1780 C1778 1.378 . S
C1780 C1781 1.367 . S
C1781 C1780 1.367 . S
C1781 C1783 1.433 1_655 S
C1782 C1778 1.350 . S
C1782 C1779 1.463 1_655 S
C1782 N1786 1.427 1_655 S
C1783 H1773 0.929 . S
C1783 C1781 1.433 1_455 S
C1783 N1786 1.384 . S
C1784 H1775 0.929 . S
C1784 C1776 1.378 . S
C1784 C1779 1.350 . S
C1785 H1772 0.929 . S
C1785 C1777 1.433 1_655 S
C1785 N1787 1.384 . S
N1786 C1782 1.427 1_455 S
N1786 C1783 1.384 . S
N1787 C1779 1.427 1_655 S
N1787 C1785 1.384 . S
H1788 C1794 0.930 . S
H1789 C1798 0.930 . S
H1790 C1803 0.929 . S
H1791 C1801 0.929 . S
H1792 C1796 0.929 . S
H1793 C1802 0.929 . S
C1794 H1788 0.930 . S
C1794 C1795 1.367 . S
C1794 C1802 1.378 . S
C1795 C1794 1.367 . S
C1795 C1803 1.433 . S
C1796 H1792 0.929 . S
C1796 C1798 1.378 . S
C1796 C1800 1.350 . S
C1797 C1800 1.463 1_545 S
C1797 C1802 1.350 . S
C1797 N1805 1.427 . S
C1798 H1789 0.930 . S
C1798 C1796 1.378 . S
C1798 C1799 1.367 . S
C1799 C1798 1.367 . S
C1799 C1801 1.433 . S
C1800 C1796 1.350 . S
C1800 C1797 1.463 1_565 S
C1800 N1804 1.427 . S
C1801 H1791 0.929 . S
C1801 C1799 1.433 . S
C1801 N1804 1.384 . S
C1802 H1793 0.929 . S
C1802 C1794 1.378 . S
C1802 C1797 1.350 . S
C1803 H1790 0.929 . S
C1803 C1795 1.433 . S
C1803 N1805 1.384 . S
N1804 C1800 1.427 . S
N1804 C1801 1.384 . S
N1805 C1797 1.427 . S
N1805 C1803 1.384 . S
H1806 C1812 0.930 . S
H1807 C1816 0.930 . S
H1808 C1821 0.929 . S
H1809 C1819 0.929 . S
H1810 C1814 0.929 . S
H1811 C1820 0.929 . S
C1812 H1806 0.930 . S
C1812 C1813 1.367 . S
C1812 C1820 1.378 . S
C1813 C1812 1.367 . S
C1813 C1821 1.433 . S
C1814 H1810 0.929 . S
C1814 C1816 1.378 . S
C1814 C1818 1.350 . S
C1815 C1818 1.463 . S
C1815 C1820 1.350 . S
C1815 N1823 1.427 . S
C1816 H1807 0.930 . S
C1816 C1814 1.378 . S
C1816 C1817 1.367 . S
C1817 C1816 1.367 . S
C1817 C1819 1.433 . S
C1818 C1814 1.350 . S
C1818 C1815 1.463 . S
C1818 N1822 1.427 . S
C1819 H1809 0.929 . S
C1819 C1817 1.433 . S
C1819 N1822 1.384 . S
C1820 H1811 0.929 . S
C1820 C1812 1.378 . S
C1820 C1815 1.350 . S
C1821 H1808 0.929 . S
C1821 C1813 1.433 . S
C1821 N1823 1.384 . S
N1822 C1818 1.427 . S
N1822 C1819 1.384 . S
N1823 C1815 1.427 . S
N1823 C1821 1.384 . S
H1824 C1830 0.930 . S
H1825 C1834 0.930 . S
H1826 C1839 0.929 . S
H1827 C1837 0.929 . S
H1828 C1832 0.929 . S
H1829 C1838 0.929 . S
C1830 H1824 0.930 . S
C1830 C1831 1.367 . S
C1830 C1838 1.378 . S
C1831 C1830 1.367 . S
C1831 C1839 1.433 . S
C1832 H1828 0.929 . S
C1832 C1834 1.378 . S
C1832 C1836 1.350 . S
C1833 C1836 1.463 . S
C1833 C1838 1.350 . S
C1833 N1841 1.427 . S
C1834 H1825 0.930 . S
C1834 C1832 1.378 . S
C1834 C1835 1.367 . S
C1835 C1834 1.367 . S
C1835 C1837 1.433 . S
C1836 C1832 1.350 . S
C1836 C1833 1.463 . S
C1836 N1840 1.427 . S
C1837 H1827 0.929 . S
C1837 C1835 1.433 . S
C1837 N1840 1.384 . S
C1838 H1829 0.929 . S
C1838 C1830 1.378 . S
C1838 C1833 1.350 . S
C1839 H1826 0.929 . S
C1839 C1831 1.433 . S
C1839 N1841 1.384 . S
N1840 C1836 1.427 . S
N1840 C1837 1.384 . S
N1841 C1833 1.427 . S
N1841 C1839 1.384 . S
H1842 C1848 0.930 . S
H1843 C1852 0.930 . S
H1844 C1857 0.929 . S
H1845 C1855 0.929 . S
H1846 C1850 0.929 . S
H1847 C1856 0.929 . S
C1848 H1842 0.930 . S
C1848 C1849 1.367 . S
C1848 C1856 1.378 . S
C1849 C1848 1.367 . S
C1849 C1857 1.433 . S
C1850 H1846 0.929 . S
C1850 C1852 1.378 . S
C1850 C1854 1.350 . S
C1851 C1854 1.463 . S
C1851 C1856 1.350 . S
C1851 N1859 1.427 . S
C1852 H1843 0.930 . S
C1852 C1850 1.378 . S
C1852 C1853 1.367 . S
C1853 C1852 1.367 . S
C1853 C1855 1.433 . S
C1854 C1850 1.350 . S
C1854 C1851 1.463 . S
C1854 N1858 1.427 . S
C1855 H1845 0.929 . S
C1855 C1853 1.433 . S
C1855 N1858 1.384 . S
C1856 H1847 0.929 . S
C1856 C1848 1.378 . S
C1856 C1851 1.350 . S
C1857 H1844 0.929 . S
C1857 C1849 1.433 . S
C1857 N1859 1.384 . S
N1858 C1854 1.427 . S
N1858 C1855 1.384 . S
N1859 C1851 1.427 . S
N1859 C1857 1.384 . S
H1860 C1866 0.930 . S
H1861 C1870 0.930 . S
H1862 C1875 0.929 . S
H1863 C1873 0.929 . S
H1864 C1868 0.929 . S
H1865 C1874 0.929 . S
C1866 H1860 0.930 . S
C1866 C1867 1.367 . S
C1866 C1874 1.378 . S
C1867 C1866 1.367 . S
C1867 C1875 1.433 1_554 S
C1868 H1864 0.929 . S
C1868 C1870 1.378 . S
C1868 C1872 1.350 1_556 S
C1869 C1872 1.463 1_455 S
C1869 C1874 1.350 . S
C1869 N1877 1.427 1_554 S
C1870 H1861 0.930 . S
C1870 C1868 1.378 . S
C1870 C1871 1.367 1_556 S
C1871 C1870 1.367 1_554 S
C1871 C1873 1.433 . S
C1872 C1868 1.350 1_554 S
C1872 C1869 1.463 1_655 S
C1872 N1876 1.427 . S
C1873 H1863 0.929 . S
C1873 C1871 1.433 . S
C1873 N1876 1.384 . S
C1874 H1865 0.929 . S
C1874 C1866 1.378 . S
C1874 C1869 1.350 . S
C1875 H1862 0.929 . S
C1875 C1867 1.433 1_556 S
C1875 N1877 1.384 . S
N1876 C1872 1.427 . S
N1876 C1873 1.384 . S
N1877 C1869 1.427 1_556 S
N1877 C1875 1.384 . S
H1878 C1884 0.930 . S
H1879 C1888 0.930 . S
H1880 C1893 0.929 . S
H1881 C1891 0.929 . S
H1882 C1886 0.929 . S
H1883 C1892 0.929 . S
C1884 H1878 0.930 . S
C1884 C1885 1.367 . S
C1884 C1892 1.378 . S
C1885 C1884 1.367 . S
C1885 C1893 1.433 . S
C1886 H1882 0.929 . S
C1886 C1888 1.378 . S
C1886 C1890 1.350 . S
C1887 C1890 1.463 . S
C1887 C1892 1.350 . S
C1887 N1895 1.427 . S
C1888 H1879 0.930 . S
C1888 C1886 1.378 . S
C1888 C1889 1.367 . S
C1889 C1888 1.367 . S
C1889 C1891 1.433 . S
C1890 C1886 1.350 . S
C1890 C1887 1.463 . S
C1890 N1894 1.427 . S
C1891 H1881 0.929 . S
C1891 C1889 1.433 . S
C1891 N1894 1.384 . S
C1892 H1883 0.929 . S
C1892 C1884 1.378 . S
C1892 C1887 1.350 . S
C1893 H1880 0.929 . S
C1893 C1885 1.433 . S
C1893 N1895 1.384 . S
N1894 C1890 1.427 . S
N1894 C1891 1.384 . S
N1895 C1887 1.427 . S
N1895 C1893 1.384 . S
C607 C241 0.872 . S
C611 C38 0.867 . S
C625 C296 0.847 . S
C629 C90 0.848 . S
C643 C34 0.852 . S
C647 C344 0.852 . S
C661 C192 0.859 . S
C665 C93 0.859 . S
C679 C395 0.872 . S
C683 C144 0.869 . S
C697 C134 0.857 . S
C701 C443 0.859 . S
C715 C146 0.860 . S
C719 C490 0.854 . S
C733 C547 0.846 . S
C737 C139 0.850 . S
C751 C46 0.848 . S
C755 C197 0.844 . S
C769 C95 0.871 . S
C773 C237 0.872 . S
C787 C289 0.869 . S
C791 C47 0.873 . S
C805 C94 0.866 . S
C809 C342 0.864 . S
C823 C143 0.849 . S
C827 C195 0.849 . S
C841 C238 0.851 . S
C845 C141 0.843 . S
C859 C287 0.873 . S
C863 C142 0.873 . S
C877 C341 0.848 . S
C881 C140 0.847 . S
C895 C247 0.873 . S
C899 C191 0.867 . S
C913 C389 0.849 . S
C917 C190 0.851 . S
C931 C437 0.861 . S
C935 C242 0.855 . S
C949 C294 0.869 . S
C953 C495 0.868 . S
C967 C397 0.859 . S
C971 C291 0.856 . S
C985 C545 0.870 . S
C989 C387 0.876 . S
C1003 C438 0.849 . S
C1007 C396 0.845 . S
C1021 C542 0.852 . S
C1025 C493 0.854 . S
C1039 C491 0.872 . S
C1043 C88 0.871 . S
C1057 C40 0.873 . S
C1061 C546 0.867 . S
C1075 C84 0.848 . S
C1079 C394 0.846 . S
C1093 C43 0.864 . S
C1097 C442 0.856 . S
C1111 C345 0.845 . S
C1115 C594 0.852 . S
C1129 C584 0.853 . S
C1133 C193 0.853 . S
C1147 C240 0.871 . S
C1151 C596 0.873 . S
C1165 C297 0.871 . S
C1169 C589 0.873 . S
C1183 C447 0.849 . S
C1187 C96 0.845 . S
C1201 C45 0.866 . S
C1205 C487 0.866 . S
C1219 C539 0.849 . S
C1223 C97 0.849 . S
C1237 C392 0.873 . S
C1241 C44 0.868 . S
C1255 C593 0.848 . S
C1259 C445 0.849 . S
C1273 C591 0.863 . S
C1277 C488 0.860 . S
C1291 C537 0.849 . S
C1295 C592 0.843 . S
C1309 C391 0.873 . S
C1313 C590 0.868 . S
C1327 C497 0.865 . S
C1331 C441 0.867 . S
C1345 C339 0.860 . S
C1349 C440 0.865 . S
C1363 C187 0.861 . S
C1367 C492 0.853 . S
C1381 C544 0.865 . S
C1385 C245 0.871 . S
C1399 C347 0.872 . S
C1403 C541 0.874 . S
C1417 C295 0.862 . S
C1421 C337 0.866 . S
C1435 C346 0.846 . S
C1439 C188 0.850 . S
C1453 C292 0.860 . S
C1457 C243 0.861 . S
C1471 C138 2.642 . S
C1475 C41 2.640 . S
C1489 C87 2.638 . S
C1493 C145 2.640 . S
C1507 C42 2.641 . S
C1511 C137 2.639 . S
C1525 C89 2.636 . S
C1529 C147 2.634 . S
C1543 C189 2.636 . S
C1547 C540 2.634 . S
C1561 C246 2.643 . S
C1565 C388 2.646 . S
C1579 C434 2.642 . S
C1583 C293 2.640 . S
C1597 C334 2.643 . S
C1601 C494 2.646 . S
C1615 C184 2.636 . S
C1619 C543 2.634 . S
C1633 C384 2.642 . S
C1637 C244 2.640 . S
C1651 C290 2.637 . S
C1655 C439 2.639 . S
C1669 C338 2.639 . S
C1673 C496 2.638 . S
C1687 C340 2.638 . S
C1691 C239 2.636 . S
C1705 C484 2.640 . S
C1709 C393 2.642 . S
C1723 C446 2.635 . S
C1727 C538 2.634 . S
C1741 C288 2.641 . S
C1745 C196 2.642 . S
C1759 C489 2.643 . S
C1763 C390 2.642 . S
C1777 C534 2.635 . S
C1781 C444 2.640 . S
C1795 C588 2.642 . S
C1799 C91 2.641 . S
C1813 C37 2.642 . S
C1817 C595 2.637 . S
C1831 C92 2.642 . S
C1835 C587 2.641 . S
C1849 C597 2.643 . S
C1853 C39 2.646 . S
C1867 C234 2.636 . S
C1871 C343 2.634 . S
C1885 C194 2.635 . S
C1889 C284 2.633 . S
