# Generated by pormake.
# Topology uky, (4)-cn, num edge types: 1
# Building blocks:
#     Node 0, Type 0, BuildingBlock: QUQFOY_clean_sbu_3, # of connection points: 4
#     Node 1, Type 0, BuildingBlock: QUQFOY_clean_sbu_3, # of connection points: 4
#     Node 2, Type 0, BuildingBlock: QUQFOY_clean_sbu_3, # of connection points: 4
#     Node 3, Type 0, BuildingBlock: QUQFOY_clean_sbu_3, # of connection points: 4
#     Node 4, Type 0, BuildingBlock: QUQFOY_clean_sbu_3, # of connection points: 4
#     Node 5, Type 0, BuildingBlock: QUQFOY_clean_sbu_3, # of connection points: 4
#     Node 6, Type 0, BuildingBlock: QUQFOY_clean_sbu_3, # of connection points: 4
#     Node 7, Type 0, BuildingBlock: QUQFOY_clean_sbu_3, # of connection points: 4
#     Node 8, Type 0, BuildingBlock: QUQFOY_clean_sbu_3, # of connection points: 4
#     Node 9, Type 0, BuildingBlock: QUQFOY_clean_sbu_3, # of connection points: 4
#     Node 10, Type 0, BuildingBlock: QUQFOY_clean_sbu_3, # of connection points: 4
#     Node 11, Type 0, BuildingBlock: QUQFOY_clean_sbu_3, # of connection points: 4
#     Node 12, Type 0, BuildingBlock: QUQFOY_clean_sbu_3, # of connection points: 4
#     Node 13, Type 0, BuildingBlock: QUQFOY_clean_sbu_3, # of connection points: 4
#     Node 14, Type 0, BuildingBlock: QUQFOY_clean_sbu_3, # of connection points: 4
#     Node 15, Type 0, BuildingBlock: QUQFOY_clean_sbu_3, # of connection points: 4
#     Node 16, Type 0, BuildingBlock: QUQFOY_clean_sbu_3, # of connection points: 4
#     Node 17, Type 0, BuildingBlock: QUQFOY_clean_sbu_3, # of connection points: 4
#     Node 18, Type 0, BuildingBlock: QUQFOY_clean_sbu_3, # of connection points: 4
#     Node 19, Type 0, BuildingBlock: QUQFOY_clean_sbu_3, # of connection points: 4
#     Node 20, Type 0, BuildingBlock: QUQFOY_clean_sbu_3, # of connection points: 4
#     Node 21, Type 0, BuildingBlock: QUQFOY_clean_sbu_3, # of connection points: 4
#     Node 22, Type 0, BuildingBlock: QUQFOY_clean_sbu_3, # of connection points: 4
#     Node 23, Type 0, BuildingBlock: QUQFOY_clean_sbu_3, # of connection points: 4
#     Node 24, Type 0, BuildingBlock: QUQFOY_clean_sbu_3, # of connection points: 4
#     Node 25, Type 0, BuildingBlock: QUQFOY_clean_sbu_3, # of connection points: 4
#     Node 26, Type 0, BuildingBlock: QUQFOY_clean_sbu_3, # of connection points: 4
#     Node 27, Type 0, BuildingBlock: QUQFOY_clean_sbu_3, # of connection points: 4
#     Node 28, Type 0, BuildingBlock: QUQFOY_clean_sbu_3, # of connection points: 4
#     Node 29, Type 0, BuildingBlock: QUQFOY_clean_sbu_3, # of connection points: 4
#     Node 30, Type 0, BuildingBlock: QUQFOY_clean_sbu_3, # of connection points: 4
#     Node 31, Type 0, BuildingBlock: QUQFOY_clean_sbu_3, # of connection points: 4
#     Node 32, Type 0, BuildingBlock: QUQFOY_clean_sbu_3, # of connection points: 4
#     Node 33, Type 0, BuildingBlock: QUQFOY_clean_sbu_3, # of connection points: 4
#     Node 34, Type 0, BuildingBlock: QUQFOY_clean_sbu_3, # of connection points: 4
#     Node 35, Type 0, BuildingBlock: QUQFOY_clean_sbu_3, # of connection points: 4
#     Node 36, Type 0, BuildingBlock: QUQFOY_clean_sbu_3, # of connection points: 4
#     Node 37, Type 0, BuildingBlock: QUQFOY_clean_sbu_3, # of connection points: 4
#     Node 38, Type 0, BuildingBlock: QUQFOY_clean_sbu_3, # of connection points: 4
#     Node 39, Type 0, BuildingBlock: QUQFOY_clean_sbu_3, # of connection points: 4
#     Node 40, Type 0, BuildingBlock: QUQFOY_clean_sbu_3, # of connection points: 4
#     Node 41, Type 0, BuildingBlock: QUQFOY_clean_sbu_3, # of connection points: 4
#     Node 42, Type 0, BuildingBlock: QUQFOY_clean_sbu_3, # of connection points: 4
#     Node 43, Type 0, BuildingBlock: QUQFOY_clean_sbu_3, # of connection points: 4
#     Node 44, Type 0, BuildingBlock: QUQFOY_clean_sbu_3, # of connection points: 4
#     Node 45, Type 0, BuildingBlock: QUQFOY_clean_sbu_3, # of connection points: 4
#     Node 46, Type 0, BuildingBlock: QUQFOY_clean_sbu_3, # of connection points: 4
#     Node 47, Type 0, BuildingBlock: QUQFOY_clean_sbu_3, # of connection points: 4
#     Edge 48, Type (0, 0), BuildingBlock: MIFKUJ_clean_linker_0, # of connection points: 2
#     Edge 49, Type (0, 0), BuildingBlock: MIFKUJ_clean_linker_0, # of connection points: 2
#     Edge 50, Type (0, 0), BuildingBlock: MIFKUJ_clean_linker_0, # of connection points: 2
#     Edge 51, Type (0, 0), BuildingBlock: MIFKUJ_clean_linker_0, # of connection points: 2
#     Edge 52, Type (0, 0), BuildingBlock: MIFKUJ_clean_linker_0, # of connection points: 2
#     Edge 53, Type (0, 0), BuildingBlock: MIFKUJ_clean_linker_0, # of connection points: 2
#     Edge 54, Type (0, 0), BuildingBlock: MIFKUJ_clean_linker_0, # of connection points: 2
#     Edge 55, Type (0, 0), BuildingBlock: MIFKUJ_clean_linker_0, # of connection points: 2
#     Edge 56, Type (0, 0), BuildingBlock: MIFKUJ_clean_linker_0, # of connection points: 2
#     Edge 57, Type (0, 0), BuildingBlock: MIFKUJ_clean_linker_0, # of connection points: 2
#     Edge 58, Type (0, 0), BuildingBlock: MIFKUJ_clean_linker_0, # of connection points: 2
#     Edge 59, Type (0, 0), BuildingBlock: MIFKUJ_clean_linker_0, # of connection points: 2
#     Edge 60, Type (0, 0), BuildingBlock: MIFKUJ_clean_linker_0, # of connection points: 2
#     Edge 61, Type (0, 0), BuildingBlock: MIFKUJ_clean_linker_0, # of connection points: 2
#     Edge 62, Type (0, 0), BuildingBlock: MIFKUJ_clean_linker_0, # of connection points: 2
#     Edge 63, Type (0, 0), BuildingBlock: MIFKUJ_clean_linker_0, # of connection points: 2
#     Edge 64, Type (0, 0), BuildingBlock: MIFKUJ_clean_linker_0, # of connection points: 2
#     Edge 65, Type (0, 0), BuildingBlock: MIFKUJ_clean_linker_0, # of connection points: 2
#     Edge 66, Type (0, 0), BuildingBlock: MIFKUJ_clean_linker_0, # of connection points: 2
#     Edge 67, Type (0, 0), BuildingBlock: MIFKUJ_clean_linker_0, # of connection points: 2
#     Edge 68, Type (0, 0), BuildingBlock: MIFKUJ_clean_linker_0, # of connection points: 2
#     Edge 69, Type (0, 0), BuildingBlock: MIFKUJ_clean_linker_0, # of connection points: 2
#     Edge 70, Type (0, 0), BuildingBlock: MIFKUJ_clean_linker_0, # of connection points: 2
#     Edge 71, Type (0, 0), BuildingBlock: MIFKUJ_clean_linker_0, # of connection points: 2
#     Edge 72, Type (0, 0), BuildingBlock: MIFKUJ_clean_linker_0, # of connection points: 2
#     Edge 73, Type (0, 0), BuildingBlock: MIFKUJ_clean_linker_0, # of connection points: 2
#     Edge 74, Type (0, 0), BuildingBlock: MIFKUJ_clean_linker_0, # of connection points: 2
#     Edge 75, Type (0, 0), BuildingBlock: MIFKUJ_clean_linker_0, # of connection points: 2
#     Edge 76, Type (0, 0), BuildingBlock: MIFKUJ_clean_linker_0, # of connection points: 2
#     Edge 77, Type (0, 0), BuildingBlock: MIFKUJ_clean_linker_0, # of connection points: 2
#     Edge 78, Type (0, 0), BuildingBlock: MIFKUJ_clean_linker_0, # of connection points: 2
#     Edge 79, Type (0, 0), BuildingBlock: MIFKUJ_clean_linker_0, # of connection points: 2
#     Edge 80, Type (0, 0), BuildingBlock: MIFKUJ_clean_linker_0, # of connection points: 2
#     Edge 81, Type (0, 0), BuildingBlock: MIFKUJ_clean_linker_0, # of connection points: 2
#     Edge 82, Type (0, 0), BuildingBlock: MIFKUJ_clean_linker_0, # of connection points: 2
#     Edge 83, Type (0, 0), BuildingBlock: MIFKUJ_clean_linker_0, # of connection points: 2
#     Edge 84, Type (0, 0), BuildingBlock: MIFKUJ_clean_linker_0, # of connection points: 2
#     Edge 85, Type (0, 0), BuildingBlock: MIFKUJ_clean_linker_0, # of connection points: 2
#     Edge 86, Type (0, 0), BuildingBlock: MIFKUJ_clean_linker_0, # of connection points: 2
#     Edge 87, Type (0, 0), BuildingBlock: MIFKUJ_clean_linker_0, # of connection points: 2
#     Edge 88, Type (0, 0), BuildingBlock: MIFKUJ_clean_linker_0, # of connection points: 2
#     Edge 89, Type (0, 0), BuildingBlock: MIFKUJ_clean_linker_0, # of connection points: 2
#     Edge 90, Type (0, 0), BuildingBlock: MIFKUJ_clean_linker_0, # of connection points: 2
#     Edge 91, Type (0, 0), BuildingBlock: MIFKUJ_clean_linker_0, # of connection points: 2
#     Edge 92, Type (0, 0), BuildingBlock: MIFKUJ_clean_linker_0, # of connection points: 2
#     Edge 93, Type (0, 0), BuildingBlock: MIFKUJ_clean_linker_0, # of connection points: 2
#     Edge 94, Type (0, 0), BuildingBlock: MIFKUJ_clean_linker_0, # of connection points: 2
#     Edge 95, Type (0, 0), BuildingBlock: MIFKUJ_clean_linker_0, # of connection points: 2
#     Edge 96, Type (0, 0), BuildingBlock: MIFKUJ_clean_linker_0, # of connection points: 2
#     Edge 97, Type (0, 0), BuildingBlock: MIFKUJ_clean_linker_0, # of connection points: 2
#     Edge 98, Type (0, 0), BuildingBlock: MIFKUJ_clean_linker_0, # of connection points: 2
#     Edge 99, Type (0, 0), BuildingBlock: MIFKUJ_clean_linker_0, # of connection points: 2
#     Edge 100, Type (0, 0), BuildingBlock: MIFKUJ_clean_linker_0, # of connection points: 2
#     Edge 101, Type (0, 0), BuildingBlock: MIFKUJ_clean_linker_0, # of connection points: 2
#     Edge 102, Type (0, 0), BuildingBlock: MIFKUJ_clean_linker_0, # of connection points: 2
#     Edge 103, Type (0, 0), BuildingBlock: MIFKUJ_clean_linker_0, # of connection points: 2
#     Edge 104, Type (0, 0), BuildingBlock: MIFKUJ_clean_linker_0, # of connection points: 2
#     Edge 105, Type (0, 0), BuildingBlock: MIFKUJ_clean_linker_0, # of connection points: 2
#     Edge 106, Type (0, 0), BuildingBlock: MIFKUJ_clean_linker_0, # of connection points: 2
#     Edge 107, Type (0, 0), BuildingBlock: MIFKUJ_clean_linker_0, # of connection points: 2
#     Edge 108, Type (0, 0), BuildingBlock: MIFKUJ_clean_linker_0, # of connection points: 2
#     Edge 109, Type (0, 0), BuildingBlock: MIFKUJ_clean_linker_0, # of connection points: 2
#     Edge 110, Type (0, 0), BuildingBlock: MIFKUJ_clean_linker_0, # of connection points: 2
#     Edge 111, Type (0, 0), BuildingBlock: MIFKUJ_clean_linker_0, # of connection points: 2
#     Edge 112, Type (0, 0), BuildingBlock: MIFKUJ_clean_linker_0, # of connection points: 2
#     Edge 113, Type (0, 0), BuildingBlock: MIFKUJ_clean_linker_0, # of connection points: 2
#     Edge 114, Type (0, 0), BuildingBlock: MIFKUJ_clean_linker_0, # of connection points: 2
#     Edge 115, Type (0, 0), BuildingBlock: MIFKUJ_clean_linker_0, # of connection points: 2
#     Edge 116, Type (0, 0), BuildingBlock: MIFKUJ_clean_linker_0, # of connection points: 2
#     Edge 117, Type (0, 0), BuildingBlock: MIFKUJ_clean_linker_0, # of connection points: 2
#     Edge 118, Type (0, 0), BuildingBlock: MIFKUJ_clean_linker_0, # of connection points: 2
#     Edge 119, Type (0, 0), BuildingBlock: MIFKUJ_clean_linker_0, # of connection points: 2
#     Edge 120, Type (0, 0), BuildingBlock: MIFKUJ_clean_linker_0, # of connection points: 2
#     Edge 121, Type (0, 0), BuildingBlock: MIFKUJ_clean_linker_0, # of connection points: 2
#     Edge 122, Type (0, 0), BuildingBlock: MIFKUJ_clean_linker_0, # of connection points: 2
#     Edge 123, Type (0, 0), BuildingBlock: MIFKUJ_clean_linker_0, # of connection points: 2
#     Edge 124, Type (0, 0), BuildingBlock: MIFKUJ_clean_linker_0, # of connection points: 2
#     Edge 125, Type (0, 0), BuildingBlock: MIFKUJ_clean_linker_0, # of connection points: 2
#     Edge 126, Type (0, 0), BuildingBlock: MIFKUJ_clean_linker_0, # of connection points: 2
#     Edge 127, Type (0, 0), BuildingBlock: MIFKUJ_clean_linker_0, # of connection points: 2
#     Edge 128, Type (0, 0), BuildingBlock: MIFKUJ_clean_linker_0, # of connection points: 2
#     Edge 129, Type (0, 0), BuildingBlock: MIFKUJ_clean_linker_0, # of connection points: 2
#     Edge 130, Type (0, 0), BuildingBlock: MIFKUJ_clean_linker_0, # of connection points: 2
#     Edge 131, Type (0, 0), BuildingBlock: MIFKUJ_clean_linker_0, # of connection points: 2
#     Edge 132, Type (0, 0), BuildingBlock: MIFKUJ_clean_linker_0, # of connection points: 2
#     Edge 133, Type (0, 0), BuildingBlock: MIFKUJ_clean_linker_0, # of connection points: 2
#     Edge 134, Type (0, 0), BuildingBlock: MIFKUJ_clean_linker_0, # of connection points: 2
#     Edge 135, Type (0, 0), BuildingBlock: MIFKUJ_clean_linker_0, # of connection points: 2
#     Edge 136, Type (0, 0), BuildingBlock: MIFKUJ_clean_linker_0, # of connection points: 2
#     Edge 137, Type (0, 0), BuildingBlock: MIFKUJ_clean_linker_0, # of connection points: 2
#     Edge 138, Type (0, 0), BuildingBlock: MIFKUJ_clean_linker_0, # of connection points: 2
#     Edge 139, Type (0, 0), BuildingBlock: MIFKUJ_clean_linker_0, # of connection points: 2
#     Edge 140, Type (0, 0), BuildingBlock: MIFKUJ_clean_linker_0, # of connection points: 2
#     Edge 141, Type (0, 0), BuildingBlock: MIFKUJ_clean_linker_0, # of connection points: 2
#     Edge 142, Type (0, 0), BuildingBlock: MIFKUJ_clean_linker_0, # of connection points: 2
#     Edge 143, Type (0, 0), BuildingBlock: MIFKUJ_clean_linker_0, # of connection points: 2
# Relax obj value: 0.323
# Max RMSD: 0.255
# Mean RMSD: 0.255
data_MOF--net-uky--node1-QUQFOY_clean_sbu_3--edge1-MIFKUJ_clean_linker_0
_symmetry_space_group_name_H-M    P1
_symmetry_Int_Tables_number       1
_symmetry_cell_setting            triclinic
loop_
_symmetry_equiv_pos_as_xyz
'x, y, z'
_cell_length_a     79.740193
_cell_length_b     79.687018
_cell_length_c     79.720173
_cell_angle_alpha  89.912472
_cell_angle_beta   89.894725
_cell_angle_gamma 89.951621
loop_
_atom_site_label
_atom_site_type_symbol
_atom_site_fract_x
_atom_site_fract_y
_atom_site_fract_z
_atom_type_partial_charge
C0 C 0.21506 0.24123 0.36853 0.0
O1 O 0.22626 0.24226 0.3798 0.0
Cd2 Cd 0.23716 0.21932 0.39577 0.0
O3 O 0.2085 0.22711 0.36483 0.0
Cd4 Cd 0.21097 0.19735 0.37407 0.0
C5 C 0.25227 0.19532 0.36356 0.0
O6 O 0.21272 0.20391 0.40354 0.0
O7 O 0.21648 0.17787 0.39757 0.0
O8 O 0.18113 0.19326 0.36921 0.0
C9 C 0.21515 0.18911 0.40871 0.0
O10 O 0.25553 0.20419 0.37641 0.0
C11 C 0.18288 0.17985 0.36078 0.0
O12 O 0.2372 0.1919 0.35963 0.0
O13 O 0.19778 0.17502 0.35793 0.0
C14 C 0.0055 0.96268 0.61995 0.0
O15 O 0.00351 0.97255 0.63231 0.0
Cd16 Cd 0.02562 0.98648 0.64696 0.0
O17 O 0.02016 0.95901 0.61463 0.0
Cd18 Cd 0.04998 0.96486 0.62159 0.0
C19 C 0.04407 0.00616 0.61303 0.0
O20 O 0.04542 0.96465 0.6513 0.0
O21 O 0.07026 0.97206 0.64392 0.0
O22 O 0.05537 0.93582 0.61484 0.0
C23 C 0.05997 0.9691 0.65568 0.0
O24 O 0.03584 0.00724 0.62671 0.0
C25 C 0.06867 0.93853 0.60649 0.0
O26 O 0.04986 0.99214 0.60802 0.0
O27 O 0.07296 0.95375 0.60446 0.0
C28 C 0.2799 0.76001 0.87892 0.0
O29 O 0.27091 0.75708 0.89174 0.0
Cd30 Cd 0.25284 0.77831 0.90228 0.0
O31 O 0.28084 0.7748 0.87284 0.0
Cd32 Cd 0.27172 0.8042 0.8783 0.0
C33 C 0.23459 0.79057 0.86472 0.0
O34 O 0.27056 0.80186 0.90823 0.0
O35 O 0.25723 0.82312 0.89815 0.0
O36 O 0.30076 0.81126 0.87439 0.0
C37 C 0.26249 0.81526 0.91095 0.0
O38 O 0.23381 0.78217 0.87832 0.0
C39 C 0.29834 0.82412 0.86531 0.0
O40 O 0.24713 0.79983 0.86137 0.0
O41 O 0.28321 0.82776 0.86183 0.0
C42 C 0.4859 0.02359 0.1208 0.0
O43 O 0.48669 0.01388 0.13343 0.0
Cd44 Cd 0.4626 0.00266 0.14733 0.0
O45 O 0.47176 0.0283 0.11501 0.0
Cd46 Cd 0.44143 0.02494 0.12142 0.0
C47 C 0.44363 0.98327 0.11392 0.0
O48 O 0.44492 0.02654 0.15136 0.0
O49 O 0.42019 0.01941 0.14344 0.0
O50 O 0.43819 0.05409 0.11356 0.0
C51 C 0.42995 0.02318 0.15537 0.0
O52 O 0.45121 0.98179 0.1279 0.0
C53 C 0.4251 0.05198 0.10478 0.0
O54 O 0.43946 -0.00236 0.10836 0.0
O55 O 0.41992 0.03701 0.1031 0.0
C56 C 0.20541 0.74587 0.1184 0.0
O57 O 0.21526 0.74283 0.10625 0.0
Cd58 Cd 0.22967 0.76442 0.09124 0.0
O59 O 0.20241 0.76095 0.12282 0.0
Cd60 Cd 0.21032 0.78963 0.11367 0.0
C61 C 0.25065 0.78279 0.12375 0.0
O62 O 0.20855 0.78462 0.0837 0.0
O63 O 0.22071 0.80761 0.09107 0.0
O64 O 0.18178 0.79778 0.11999 0.0
C65 C 0.2144 0.79878 0.0795 0.0
O66 O 0.25172 0.77416 0.11036 0.0
C67 C 0.18555 0.81175 0.12662 0.0
O68 O 0.23671 0.78909 0.12829 0.0
O69 O 0.20104 0.81502 0.12818 0.0
C70 C 0.4868 0.96566 0.35837 0.0
O71 O 0.48841 0.97663 0.34689 0.0
Cd72 Cd 0.46551 0.99098 0.33376 0.0
O73 O 0.47228 0.96114 0.36338 0.0
Cd74 Cd 0.4423 0.96686 0.3571 0.0
C75 C 0.44705 0.00731 0.36923 0.0
O76 O 0.44605 0.96931 0.32721 0.0
O77 O 0.42137 0.97571 0.3361 0.0
O78 O 0.43754 0.93718 0.36117 0.0
C79 C 0.43123 0.97381 0.32378 0.0
O80 O 0.45498 0.00981 0.35557 0.0
C81 C 0.42455 0.93885 0.37026 0.0
O82 O 0.4418 0.99274 0.37314 0.0
O83 O 0.42013 0.95373 0.37387 0.0
C84 C 0.27789 0.22906 0.61879 0.0
O85 O 0.26721 0.23228 0.60741 0.0
Cd86 Cd 0.25219 0.21192 0.59144 0.0
O87 O 0.28174 0.21393 0.62242 0.0
Cd88 Cd 0.27461 0.18496 0.61311 0.0
C89 C 0.23391 0.19078 0.62441 0.0
O90 O 0.27357 0.19247 0.58404 0.0
O91 O 0.26581 0.16719 0.58917 0.0
O92 O 0.30369 0.17788 0.61831 0.0
C93 C 0.26856 0.17856 0.57839 0.0
O94 O 0.23218 0.20025 0.61163 0.0
C95 C 0.30067 0.16411 0.62576 0.0
O96 O 0.24809 0.18439 0.62802 0.0
O97 O 0.28536 0.16022 0.62783 0.0
C98 C -6e-05 0.02394 0.86106 0.0
O99 O -0.0017 0.01399 0.84874 0.0
Cd100 Cd 0.0211 0.00184 0.83352 0.0
O101 O 0.01446 0.02835 0.8661 0.0
Cd102 Cd 0.04429 0.02308 0.85866 0.0
C103 C 0.03951 0.98155 0.86665 0.0
O104 O 0.04023 0.02438 0.82869 0.0
O105 O 0.06459 0.01582 0.8365 0.0
O106 O 0.0498 0.05204 0.86606 0.0
C107 C 0.05491 0.01993 0.8246 0.0
O108 O 0.03175 0.98047 0.85274 0.0
C109 C 0.06308 0.04903 0.87431 0.0
O110 O 0.04462 -0.00432 0.87205 0.0
O111 O 0.06726 0.03374 0.87596 0.0
C112 C 0.37157 0.20507 0.23715 0.0
O113 O 0.38192 0.21681 0.24009 0.0
Cd114 Cd 0.39564 0.23289 0.21874 0.0
O115 O 0.36797 0.20101 0.22212 0.0
Cd116 Cd 0.37584 0.20933 0.1932 0.0
C117 C 0.361 0.24875 0.19912 0.0
O118 O 0.40535 0.21223 0.19926 0.0
O119 O 0.39805 0.2201 0.17448 0.0
O120 O 0.37278 0.18006 0.18573 0.0
C121 C 0.40971 0.21748 0.18493 0.0
O122 O 0.37402 0.25181 0.20782 0.0
C123 C 0.36434 0.18272 0.1725 0.0
O124 O 0.35842 0.23417 0.19321 0.0
O125 O 0.36075 0.19788 0.16912 0.0
C126 C 0.02151 0.12362 0.48195 0.0
O127 O 0.01145 0.13587 0.48369 0.0
Cd128 Cd -0.00079 0.15102 0.46092 0.0
O129 O 0.02608 0.11883 0.46738 0.0
Cd130 Cd 0.02135 0.12717 0.43765 0.0
C131 C 0.98008 0.11808 0.44103 0.0
O132 O 0.02214 0.15705 0.44268 0.0
O133 O 0.01374 0.14988 0.41806 0.0
O134 O 0.05067 0.12087 0.43276 0.0
C135 C 0.01787 0.1615 0.42805 0.0
O136 O 0.97849 0.13177 0.44911 0.0
C137 C 0.04841 0.1132 0.419 0.0
O138 O -0.00555 0.11302 0.43624 0.0
O139 O 0.03333 0.11121 0.4143 0.0
C140 C 0.12125 0.76974 0.72672 0.0
O141 O 0.10749 0.7621 0.72925 0.0
Cd142 Cd 0.08974 0.75228 0.70716 0.0
O143 O 0.12567 0.77432 0.71202 0.0
Cd144 Cd 0.11464 0.77484 0.68291 0.0
C145 C 0.12055 0.73283 0.68346 0.0
O146 O 0.0856 0.77645 0.69024 0.0
O147 O 0.09025 0.7711 0.66423 0.0
O148 O 0.12236 0.80406 0.68059 0.0
C149 C 0.07966 0.77372 0.67581 0.0
O150 O 0.1078 0.73164 0.69307 0.0
C151 C 0.13011 0.80258 0.66673 0.0
O152 O 0.12574 0.74707 0.67839 0.0
O153 O 0.13131 0.78789 0.66066 0.0
C154 C 0.46222 0.86531 0.98422 0.0
O155 O 0.47248 0.85318 0.98576 0.0
Cd156 Cd 0.48558 0.83858 0.96306 0.0
O157 O 0.45772 0.87046 0.96974 0.0
Cd158 Cd 0.46235 0.86366 0.93963 0.0
C159 C 0.50387 0.87265 0.94367 0.0
O160 O 0.46276 0.83406 0.94446 0.0
O161 O 0.46852 0.8411 0.91909 0.0
O162 O 0.43314 0.87058 0.93531 0.0
C163 C 0.46639 0.82948 0.92974 0.0
O164 O 0.50565 0.85907 0.95194 0.0
C165 C 0.43548 0.8794 0.92224 0.0
O166 O 0.48949 0.87729 0.93849 0.0
O167 O 0.45056 0.8814 0.91747 0.0
C168 C 0.37076 0.7694 0.25422 0.0
O169 O 0.38298 0.75923 0.2531 0.0
Cd170 Cd 0.3974 0.74832 0.27703 0.0
O171 O 0.36582 0.7747 0.26849 0.0
Cd172 Cd 0.37299 0.77197 0.29861 0.0
C173 C 0.36344 0.73072 0.29703 0.0
O174 O 0.40289 0.77217 0.29427 0.0
O175 O 0.39509 0.76569 0.31931 0.0
O176 O 0.36672 0.80157 0.30087 0.0
C177 C 0.40699 0.76883 0.30923 0.0
O178 O 0.37725 0.72865 0.28924 0.0
C179 C 0.35848 0.80046 0.31447 0.0
O180 O 0.35853 0.74533 0.30122 0.0
O181 O 0.35626 0.78582 0.32039 0.0
C182 C 0.46318 0.12162 0.5043 0.0
O183 O 0.47324 0.1339 0.50299 0.0
Cd184 Cd 0.48559 0.14794 0.52632 0.0
O185 O 0.45854 0.11633 0.51869 0.0
Cd186 Cd 0.46287 0.12335 0.54877 0.0
C187 C 0.50398 0.11359 0.54477 0.0
O188 O 0.46251 0.15326 0.54465 0.0
O189 O 0.47032 0.14547 0.56926 0.0
O190 O 0.43351 0.11689 0.5531 0.0
C191 C 0.46667 0.15739 0.55937 0.0
O192 O 0.50584 0.12748 0.53707 0.0
C193 C 0.43567 0.10811 0.56622 0.0
O194 O 0.48955 0.10883 0.54968 0.0
O195 O 0.45071 0.1059 0.57099 0.0
C196 C 0.11803 0.21469 0.75627 0.0
O197 O 0.10731 0.22625 0.75386 0.0
Cd198 Cd 0.09245 0.24034 0.77582 0.0
O199 O 0.12134 0.20957 0.77107 0.0
Cd200 Cd 0.11255 0.21481 0.80049 0.0
C201 C 0.12641 0.255 0.79784 0.0
O202 O 0.08348 0.21784 0.79339 0.0
O203 O 0.08918 0.22316 0.81921 0.0
O204 O 0.116 0.18492 0.80489 0.0
C205 C 0.07821 0.22169 0.80784 0.0
O206 O 0.11368 0.25828 0.78877 0.0
C207 C 0.12391 0.18621 0.81864 0.0
O208 O 0.12917 0.24014 0.80302 0.0
O209 O 0.12701 0.20096 0.82378 0.0
C210 C 0.01772 0.86398 -0.00232 0.0
O211 O 0.00663 0.85259 -0.00328 0.0
Cd212 Cd -0.00467 0.83865 0.02084 0.0
O213 O 0.02383 0.86815 0.01183 0.0
Cd214 Cd 0.02168 0.86016 0.04178 0.0
C215 C 0.98123 0.87292 0.04268 0.0
O216 O 0.01931 0.83042 0.03685 0.0
O217 O 0.01488 0.83809 0.06242 0.0
O218 O 0.05177 0.86324 0.04336 0.0
C219 C 0.01658 0.82624 0.05193 0.0
O220 O 0.97759 0.85976 0.03441 0.0
C221 C 0.05178 0.87259 0.05623 0.0
O222 O -0.00362 0.8763 0.04633 0.0
O223 O 0.03758 0.8767 0.06221 0.0
C224 C 0.22843 0.36809 0.20289 0.0
O225 O 0.23125 0.3816 0.21087 0.0
Cd226 Cd 0.21027 0.39914 0.22331 0.0
O227 O 0.21346 0.36304 0.20036 0.0
Cd228 Cd 0.18405 0.37175 0.2059 0.0
C229 C 0.19171 0.36855 0.2478 0.0
O230 O 0.18975 0.40092 0.2018 0.0
O231 O 0.16476 0.3957 0.21029 0.0
O232 O 0.1772 0.36042 0.1786 0.0
C233 C 0.17554 0.40655 0.206 0.0
O234 O 0.20049 0.38189 0.2469 0.0
C235 C 0.16366 0.35339 0.18326 0.0
O236 O 0.18504 0.36221 0.23477 0.0
O237 O 0.15997 0.35429 0.19873 0.0
C238 C 0.72932 0.11804 0.77338 0.0
O239 O 0.73212 0.10687 0.76236 0.0
Cd240 Cd 0.71067 0.09129 0.74822 0.0
O241 O 0.71437 0.12152 0.77792 0.0
Cd242 Cd 0.68511 0.11264 0.77239 0.0
C243 C 0.68843 0.12438 0.73156 0.0
O244 O 0.69208 0.0834 0.77029 0.0
O245 O 0.66635 0.08926 0.76472 0.0
O246 O 0.68035 0.11712 0.80196 0.0
C247 C 0.67767 0.0782 0.76626 0.0
O248 O 0.69786 0.11168 0.72917 0.0
C249 C 0.66674 0.12523 0.80025 0.0
O250 O 0.68286 0.12784 0.74613 0.0
O251 O 0.66178 0.12795 0.78536 0.0
C252 C 0.12098 0.47633 0.02928 0.0
O253 O 0.13415 0.47877 0.02064 0.0
Cd254 Cd 0.14807 0.45672 0.00609 0.0
O255 O 0.11505 0.46157 0.03107 0.0
Cd256 Cd 0.12192 0.43211 0.02318 0.0
C257 C 0.1148 0.44183 0.98283 0.0
O258 O 0.15178 0.43542 0.02702 0.0
O259 O 0.14448 0.4132 0.01359 0.0
O260 O 0.11094 0.42628 0.05096 0.0
C261 C 0.15602 0.42156 0.02057 0.0
O262 O 0.12882 0.44949 0.98312 0.0
C263 C 0.10486 0.41203 0.04738 0.0
O264 O 0.10894 0.43499 -0.00398 0.0
O265 O 0.10631 0.40715 0.0323 0.0
C266 C 0.74989 0.87188 0.27182 0.0
O267 O 0.74815 0.88438 0.26208 0.0
Cd268 Cd 0.77113 0.89938 0.25004 0.0
O269 O 0.76447 0.86687 0.27609 0.0
Cd270 Cd 0.79413 0.87512 0.2712 0.0
C271 C 0.79057 0.86656 0.23004 0.0
O272 O 0.78969 0.90513 0.27288 0.0
O273 O 0.81354 0.89752 0.26266 0.0
O274 O 0.79919 0.86849 0.30036 0.0
C275 C 0.80423 0.90925 0.26801 0.0
O276 O 0.78266 0.8804 0.22876 0.0
C277 C 0.81295 0.86085 0.29794 0.0
O278 O 0.79531 0.86116 0.24429 0.0
O279 O 0.81763 0.85905 0.28281 0.0
C280 C 0.86866 0.00873 0.02842 0.0
O281 O 0.85638 0.00622 0.01862 0.0
Cd282 Cd 0.84143 0.02837 0.00491 0.0
O283 O 0.87336 0.02362 0.03189 0.0
Cd284 Cd 0.86518 0.05298 0.02549 0.0
C285 C 0.87471 0.0468 0.98474 0.0
O286 O 0.8353 0.04817 0.0265 0.0
O287 O 0.84268 0.07199 0.01607 0.0
O288 O 0.87169 0.05926 0.05441 0.0
C289 C 0.83096 0.0624 0.02091 0.0
O290 O 0.86088 0.03891 0.98347 0.0
C291 C 0.87973 0.07267 0.05137 0.0
O292 O 0.8797 0.05231 -0.00116 0.0
O293 O 0.88153 0.07673 0.03605 0.0
C294 C 0.25234 0.62165 0.71736 0.0
O295 O 0.24981 0.61042 0.72839 0.0
Cd296 Cd 0.27233 0.59645 0.74245 0.0
O297 O 0.26723 0.62569 0.71312 0.0
Cd298 Cd 0.29665 0.61782 0.71924 0.0
C299 C 0.29244 0.63063 0.75925 0.0
O300 O 0.29068 0.58804 0.72007 0.0
O301 O 0.31538 0.59505 0.72837 0.0
O302 O 0.30045 0.62499 0.68988 0.0
C303 C 0.30515 0.58348 0.7247 0.0
O304 O 0.28396 0.61733 0.76189 0.0
C305 C 0.31516 0.6308 0.69157 0.0
O306 O 0.29774 0.63417 0.74463 0.0
O307 O 0.32123 0.63092 0.70627 0.0
C308 C 0.11925 0.50876 0.46403 0.0
O309 O 0.13087 0.50613 0.47459 0.0
Cd310 Cd 0.14513 0.52775 0.4895 0.0
O311 O 0.11475 0.52368 0.46034 0.0
Cd312 Cd 0.12297 0.55298 0.46728 0.0
C313 C 0.11135 0.54733 0.50772 0.0
O314 O 0.15253 0.54694 0.46768 0.0
O315 O 0.14611 0.57179 0.47597 0.0
O316 O 0.11705 0.55908 0.43813 0.0
C317 C 0.15745 0.56121 0.47246 0.0
O318 O 0.12449 0.53843 0.50968 0.0
C319 C 0.10947 0.57283 0.44085 0.0
O320 O 0.10768 0.55342 0.49344 0.0
O321 O 0.10768 0.57719 0.45607 0.0
C322 C 0.36272 0.4853 0.96261 0.0
O323 O 0.351 0.48733 0.97323 0.0
Cd324 Cd 0.33784 0.46463 0.98781 0.0
O325 O 0.36754 0.4706 0.95853 0.0
Cd326 Cd 0.36014 0.44093 0.96465 0.0
C327 C 0.37317 0.44645 0.00448 0.0
O328 O 0.33014 0.44498 0.96644 0.0
O329 O 0.33914 0.4212 0.97568 0.0
O330 O 0.36435 0.43506 0.93514 0.0
C331 C 0.32676 0.4305 0.97203 0.0
O332 O 0.35962 0.45452 0.00714 0.0
C333 C 0.37331 0.42207 0.93736 0.0
O334 O 0.37665 0.44089 0.98994 0.0
O335 O 0.3765 0.41798 0.95243 0.0
C336 C 0.71329 0.72676 0.86695 0.0
O337 O 0.72254 0.72935 0.87963 0.0
Cd338 Cd 0.73502 0.70732 0.89566 0.0
O339 O 0.70937 0.71187 0.86261 0.0
Cd340 Cd 0.7134 0.68253 0.87264 0.0
C341 C 0.7548 0.68548 0.86408 0.0
O342 O 0.71203 0.68921 0.90211 0.0
O343 O 0.71979 0.66395 0.8966 0.0
O344 O 0.68423 0.67777 0.86569 0.0
C345 C 0.71591 0.67481 0.90754 0.0
O346 O 0.75605 0.69497 0.87687 0.0
C347 C 0.68659 0.66384 0.85833 0.0
O348 O 0.74063 0.67977 0.85953 0.0
O349 O 0.70166 0.65883 0.85702 0.0
C350 C 0.5081 0.46365 0.11941 0.0
O351 O 0.50579 0.47405 0.13126 0.0
Cd352 Cd 0.52781 0.48698 0.14687 0.0
O353 O 0.52286 0.45891 0.11542 0.0
Cd354 Cd 0.55231 0.46338 0.12462 0.0
C355 C 0.54923 0.50445 0.11377 0.0
O356 O 0.54564 0.46403 0.15404 0.0
O357 O 0.57118 0.47045 0.14816 0.0
O358 O 0.55723 0.43388 0.119 0.0
C359 C 0.56011 0.46778 0.15926 0.0
O360 O 0.54023 0.50667 0.12679 0.0
C361 C 0.57096 0.43604 0.1112 0.0
O362 O 0.55459 0.48991 0.10992 0.0
O363 O 0.57577 0.45109 0.10908 0.0
C364 C 0.77611 0.25447 0.36906 0.0
O365 O 0.76655 0.25183 0.38156 0.0
Cd366 Cd 0.75241 0.2734 0.39673 0.0
O367 O 0.7795 0.26941 0.36432 0.0
Cd368 Cd 0.77404 0.29907 0.3725 0.0
C369 C 0.73312 0.29317 0.36323 0.0
O370 O 0.77396 0.29334 0.40202 0.0
O371 O 0.76684 0.31853 0.39543 0.0
O372 O 0.80324 0.30421 0.36624 0.0
C373 C 0.76958 0.3078 0.40684 0.0
O374 O 0.73221 0.28361 0.37602 0.0
C375 C 0.80086 0.31795 0.35853 0.0
O376 O 0.74683 0.30019 0.35898 0.0
O377 O 0.78575 0.32258 0.35652 0.0
C378 C 0.9787 0.53039 0.62444 0.0
O379 O 0.98053 0.52031 0.63667 0.0
Cd380 Cd 0.95792 0.50613 0.6504 0.0
O381 O 0.96412 0.53395 0.61888 0.0
Cd382 Cd 0.93421 0.52749 0.62443 0.0
C383 C 0.94239 0.48682 0.61508 0.0
O384 O 0.93748 0.52755 0.6542 0.0
O385 O 0.91354 0.5185 0.64593 0.0
O386 O 0.92881 0.55652 0.6175 0.0
C387 C 0.92308 0.52219 0.65807 0.0
O388 O 0.94931 0.48542 0.62942 0.0
C389 C 0.91575 0.55376 0.60885 0.0
O390 O 0.93673 0.50087 0.60996 0.0
O391 O 0.9115 0.53853 0.60688 0.0
C392 C 0.71101 0.25602 0.61663 0.0
O393 O 0.72207 0.25316 0.60549 0.0
Cd394 Cd 0.73665 0.27477 0.59055 0.0
O395 O 0.70686 0.27102 0.62034 0.0
Cd396 Cd 0.71348 0.30019 0.61178 0.0
C397 C 0.754 0.29574 0.62377 0.0
O398 O 0.71468 0.29354 0.58237 0.0
O399 O 0.72159 0.31891 0.58843 0.0
O400 O 0.68421 0.30604 0.61714 0.0
C401 C 0.71895 0.30794 0.57726 0.0
O402 O 0.75635 0.28646 0.61099 0.0
C403 C 0.68669 0.31966 0.625 0.0
O404 O 0.73954 0.30161 0.62709 0.0
O405 O 0.70183 0.32407 0.62716 0.0
C406 C 0.98768 0.46594 0.86168 0.0
O407 O 0.98847 0.47686 0.85007 0.0
Cd408 Cd 0.96467 0.48831 0.83571 0.0
O409 O 0.97358 0.45999 0.86638 0.0
Cd410 Cd 0.94342 0.46311 0.85938 0.0
C411 C 0.94474 0.50435 0.87014 0.0
O412 O 0.9478 0.46439 0.82953 0.0
O413 O 0.92244 0.46927 0.83741 0.0
O414 O 0.93963 0.43341 0.86509 0.0
C415 C 0.93276 0.46732 0.82547 0.0
O416 O 0.95219 0.50734 0.85631 0.0
C417 C 0.92671 0.43529 0.87425 0.0
O418 O 0.94105 0.48941 0.8744 0.0
O419 O 0.92196 0.45025 0.87703 0.0
C420 C 0.76889 0.73698 0.11323 0.0
O421 O 0.75762 0.73848 0.10208 0.0
Cd422 Cd 0.74325 0.71548 0.08928 0.0
O423 O 0.77381 0.72251 0.11802 0.0
Cd424 Cd 0.76853 0.69248 0.11153 0.0
C425 C 0.72839 0.69632 0.12506 0.0
O426 O 0.76524 0.69671 0.08183 0.0
O427 O 0.75956 0.67173 0.09039 0.0
O428 O 0.79839 0.68817 0.11478 0.0
C429 C 0.761 0.68187 0.07821 0.0
O430 O 0.72525 0.70435 0.11159 0.0
C431 C 0.79715 0.67492 0.12356 0.0
O432 O 0.7432 0.69133 0.12836 0.0
O433 O 0.78243 0.67015 0.1274 0.0
C434 C 0.5068 0.5238 0.36671 0.0
O435 O 0.50435 0.51358 0.35474 0.0
Cd436 Cd 0.52619 0.49945 0.33971 0.0
O437 O 0.52164 0.52749 0.3714 0.0
Cd438 Cd 0.55133 0.52141 0.36427 0.0
C439 C 0.54512 0.48033 0.3737 0.0
O440 O 0.54612 0.52104 0.33477 0.0
O441 O 0.57117 0.51381 0.34155 0.0
O442 O 0.55617 0.55062 0.37043 0.0
C443 C 0.56054 0.51645 0.33005 0.0
O444 O 0.53673 0.47912 0.36016 0.0
C445 C 0.56957 0.54839 0.37873 0.0
O446 O 0.5511 0.49436 0.37843 0.0
O447 O 0.57432 0.53331 0.38088 0.0
C448 C 0.87223 0.70986 0.73582 0.0
O449 O 0.88312 0.72118 0.73845 0.0
Cd450 Cd 0.89744 0.73632 0.71687 0.0
O451 O 0.86827 0.70568 0.7209 0.0
Cd452 Cd 0.87601 0.71312 0.69156 0.0
C453 C 0.86337 0.75345 0.69706 0.0
O454 O 0.90561 0.71505 0.69732 0.0
O455 O 0.89847 0.72244 0.67237 0.0
O456 O 0.87151 0.68387 0.68449 0.0
C457 C 0.91009 0.71991 0.68289 0.0
O458 O 0.87623 0.75578 0.70621 0.0
C459 C 0.86276 0.68676 0.6715 0.0
O460 O 0.86022 0.7391 0.69086 0.0
O461 O 0.85979 0.70204 0.66804 0.0
C462 C 0.52496 0.62019 0.98165 0.0
O463 O 0.51477 0.63211 0.98451 0.0
Cd464 Cd 0.50085 0.64772 0.96294 0.0
O465 O 0.52869 0.61608 0.96665 0.0
Cd466 Cd 0.52253 0.6248 0.9374 0.0
C467 C 0.48153 0.61492 0.9427 0.0
O468 O 0.52258 0.65441 0.94346 0.0
O469 O 0.51455 0.64806 0.91852 0.0
O470 O 0.55175 0.61896 0.93165 0.0
C471 C 0.51792 0.65938 0.92914 0.0
O472 O 0.48018 0.62815 0.95155 0.0
C473 C 0.54923 0.6109 0.91816 0.0
O474 O 0.49567 0.61043 0.93676 0.0
O475 O 0.53407 0.60879 0.91378 0.0
C476 C 0.61854 0.27411 0.2314 0.0
O477 O 0.60569 0.26513 0.23425 0.0
Cd478 Cd 0.5907 0.25054 0.21278 0.0
O479 O 0.62355 0.27697 0.21646 0.0
Cd480 Cd 0.61483 0.2717 0.187 0.0
C481 C 0.62388 0.23066 0.19285 0.0
O482 O 0.58536 0.27213 0.19294 0.0
O483 O 0.59154 0.26415 0.16794 0.0
O484 O 0.62118 0.3009 0.18184 0.0
C485 C 0.58029 0.26744 0.17869 0.0
O486 O 0.61072 0.22972 0.20192 0.0
C487 C 0.62905 0.29852 0.16819 0.0
O488 O 0.62848 0.24456 0.18646 0.0
O489 O 0.6309 0.2834 0.16348 0.0
C490 C 0.97003 0.36779 0.48596 0.0
O491 O 0.98136 0.35657 0.48635 0.0
Cd492 Cd 0.992 0.34175 0.46244 0.0
O493 O 0.96323 0.37212 0.47214 0.0
Cd494 Cd 0.96521 0.36502 0.4419 0.0
C495 C 0.00634 0.37608 0.44072 0.0
O496 O 0.96776 0.33532 0.44637 0.0
O497 O 0.97113 0.34312 0.42075 0.0
O498 O 0.93522 0.36919 0.4396 0.0
C499 C 0.97035 0.33122 0.43127 0.0
O500 O 0.00968 0.36243 0.44836 0.0
C501 C 0.93594 0.37846 0.42663 0.0
O502 O 0.99124 0.38035 0.43776 0.0
O503 O 0.95046 0.38212 0.42116 0.0
C504 C 0.86477 0.27228 0.7599 0.0
O505 O 0.87647 0.26173 0.75744 0.0
Cd506 Cd 0.89314 0.2491 0.77889 0.0
O507 O 0.86116 0.27722 0.7747 0.0
Cd508 Cd 0.87107 0.27248 0.80393 0.0
C509 C 0.86121 0.23113 0.80161 0.0
O510 O 0.90029 0.27215 0.79645 0.0
O511 O 0.8952 0.26549 0.82209 0.0
O512 O 0.86529 0.3019 0.80903 0.0
C513 C 0.90597 0.26828 0.81073 0.0
O514 O 0.87403 0.22918 0.79225 0.0
C515 C 0.85834 0.29968 0.82321 0.0
O516 O 0.85702 0.24563 0.80684 0.0
O517 O 0.85658 0.28462 0.82812 0.0
C518 C 0.97046 0.61735 0.00427 0.0
O519 O 0.98202 0.62828 0.00342 0.0
Cd520 Cd 0.9932 0.64346 0.02672 0.0
O521 O 0.96378 0.61349 0.01831 0.0
Cd522 Cd 0.96648 0.62136 0.04836 0.0
C523 C 0.00735 0.60948 0.04911 0.0
O524 O 0.96909 0.65083 0.04268 0.0
O525 O 0.97301 0.6441 0.06849 0.0
O526 O 0.93649 0.61729 0.05061 0.0
C527 C 0.97195 0.65557 0.05752 0.0
O528 O 0.01075 0.62289 0.04109 0.0
C529 C 0.93699 0.60913 0.06429 0.0
O530 O 0.99224 0.6055 0.05244 0.0
O531 O 0.95141 0.60597 0.07026 0.0
C532 C 0.6119 0.71268 0.25872 0.0
O533 O 0.59936 0.72227 0.25647 0.0
Cd534 Cd 0.58444 0.73585 0.27879 0.0
O535 O 0.61692 0.70911 0.27349 0.0
Cd536 Cd 0.60987 0.71414 0.30336 0.0
C537 C 0.61843 0.75539 0.29726 0.0
O538 O 0.58021 0.71417 0.29887 0.0
O539 O 0.58764 0.72116 0.32382 0.0
O540 O 0.61643 0.68493 0.30766 0.0
C541 C 0.57587 0.71854 0.31349 0.0
O542 O 0.60482 0.75642 0.28895 0.0
C543 C 0.62517 0.68705 0.32079 0.0
O544 O 0.62339 0.74142 0.30327 0.0
O545 O 0.62735 0.70208 0.32563 0.0
C546 C 0.52025 0.36365 0.50489 0.0
O547 O 0.50939 0.35208 0.50339 0.0
Cd548 Cd 0.49634 0.33778 0.52647 0.0
O549 O 0.52538 0.36819 0.51934 0.0
Cd550 Cd 0.52148 0.36095 0.54935 0.0
C551 C 0.48038 0.37206 0.54729 0.0
O552 O 0.51941 0.33136 0.54434 0.0
O553 O 0.51531 0.33856 0.57001 0.0
O554 O 0.5511 0.36631 0.55286 0.0
C555 C 0.51629 0.32691 0.55925 0.0
O556 O 0.47758 0.35886 0.53873 0.0
C557 C 0.54948 0.37553 0.56576 0.0
O558 O 0.49515 0.37579 0.55198 0.0
O559 O 0.53464 0.37834 0.57085 0.0
C560 C 0.72727 0.86663 0.71037 0.0
O561 O 0.73059 0.87948 0.71917 0.0
Cd562 Cd 0.70976 0.89539 0.73355 0.0
O563 O 0.71212 0.86218 0.70776 0.0
Cd564 Cd 0.68304 0.87196 0.71363 0.0
C565 C 0.69006 0.86278 0.75437 0.0
O566 O 0.69002 0.90125 0.7119 0.0
O567 O 0.66505 0.89619 0.72074 0.0
O568 O 0.67728 0.86398 0.68497 0.0
C569 C 0.67597 0.90694 0.71653 0.0
O570 O 0.69972 0.8755 0.75485 0.0
C571 C 0.66289 0.85782 0.68791 0.0
O572 O 0.68268 0.8586 0.74087 0.0
O573 O 0.6581 0.85752 0.70311 0.0
C574 C 0.23407 0.61099 0.27732 0.0
O575 O 0.23614 0.59934 0.26663 0.0
Cd576 Cd 0.21419 0.58339 0.25378 0.0
O577 O 0.21942 0.61491 0.28246 0.0
Cd578 Cd 0.18989 0.60599 0.27838 0.0
C579 C 0.19175 0.61611 0.23691 0.0
O580 O 0.19632 0.5766 0.27678 0.0
O581 O 0.17052 0.58266 0.27194 0.0
O582 O 0.18454 0.61174 0.30779 0.0
C583 C 0.18175 0.57148 0.27325 0.0
O584 O 0.20088 0.60322 0.23437 0.0
C585 C 0.17159 0.62069 0.30523 0.0
O586 O 0.18695 0.62 0.25163 0.0
O587 O 0.16734 0.62307 0.29007 0.0
C588 C 0.6191 0.98079 0.5176 0.0
O589 O 0.63167 0.98278 0.50798 0.0
Cd590 Cd 0.64743 0.96017 0.49625 0.0
O591 O 0.61432 0.96612 0.52189 0.0
Cd592 Cd 0.62257 0.93626 0.51778 0.0
C593 C 0.61514 0.93973 0.47614 0.0
O594 O 0.65203 0.94242 0.51988 0.0
O595 O 0.6465 0.91697 0.51296 0.0
O596 O 0.61251 0.93352 0.54641 0.0
C597 C 0.65744 0.92787 0.51663 0.0
O598 O 0.62861 0.94827 0.47519 0.0
C599 C 0.60676 0.91878 0.54467 0.0
O600 O 0.60973 0.93446 0.49023 0.0
O601 O 0.60777 0.91232 0.53016 0.0
C602 C 0.26116 0.36694 0.77018 0.0
O603 O 0.25814 0.37856 0.75969 0.0
Cd604 Cd 0.27956 0.39505 0.74662 0.0
O605 O 0.27615 0.36385 0.77482 0.0
Cd606 Cd 0.30495 0.37481 0.77012 0.0
C607 C 0.30304 0.36323 0.72945 0.0
O608 O 0.2968 0.40401 0.76947 0.0
O609 O 0.32229 0.39902 0.76199 0.0
O610 O 0.30972 0.36975 0.79969 0.0
C611 C 0.31102 0.40973 0.76533 0.0
O612 O 0.29325 0.37564 0.72703 0.0
C613 C 0.32387 0.36267 0.79784 0.0
O614 O 0.30845 0.35983 0.74405 0.0
O615 O 0.32912 0.36082 0.78291 0.0
C616 C 0.36711 0.50554 0.52525 0.0
O617 O 0.35589 0.50306 0.51422 0.0
Cd618 Cd 0.34099 0.52481 0.49978 0.0
O619 O 0.37115 0.5204 0.5296 0.0
Cd620 Cd 0.36324 0.54985 0.52333 0.0
C621 C 0.37472 0.54544 0.48253 0.0
O622 O 0.33377 0.54365 0.52184 0.0
O623 O 0.3402 0.56922 0.51605 0.0
O624 O 0.36916 0.55515 0.55259 0.0
C625 C 0.32889 0.55823 0.51794 0.0
O626 O 0.36169 0.53648 0.48029 0.0
C627 C 0.37642 0.56912 0.55014 0.0
O628 O 0.37836 0.5511 0.49699 0.0
O629 O 0.37825 0.57381 0.53502 0.0
C630 C 0.75462 0.11278 0.20902 0.0
O631 O 0.75349 0.10079 0.21946 0.0
Cd632 Cd 0.77698 0.08794 0.23281 0.0
O633 O 0.76895 0.11834 0.20452 0.0
Cd634 Cd 0.79905 0.11196 0.20999 0.0
C635 C 0.79413 0.12323 0.25041 0.0
O636 O 0.79634 0.08184 0.2106 0.0
O637 O 0.81936 0.09133 0.22095 0.0
O638 O 0.80541 0.11726 0.18068 0.0
C639 C 0.8108 0.07878 0.21635 0.0
O640 O 0.78685 0.1092 0.25286 0.0
C641 C 0.81795 0.12666 0.18347 0.0
O642 O 0.79888 0.12754 0.2358 0.0
O643 O 0.82144 0.12963 0.1987 0.0
C644 C 0.62407 0.00179 0.96323 0.0
O645 O 0.63643 -0.00068 0.97295 0.0
Cd646 Cd 0.65169 0.02171 0.98603 0.0
O647 O 0.61945 0.01666 0.95955 0.0
Cd648 Cd 0.6274 0.04614 0.96497 0.0
C649 C 0.61881 0.04107 0.0062 0.0
O650 O 0.6574 0.04157 0.96421 0.0
O651 O 0.64946 0.06589 0.97298 0.0
O652 O 0.62095 0.05143 0.93587 0.0
C653 C 0.6614 0.05617 0.96902 0.0
O654 O 0.63241 0.03273 0.00733 0.0
C655 C 0.6123 0.06457 0.93841 0.0
O656 O 0.61373 0.04656 0.99209 0.0
O657 O 0.61017 0.06899 0.95357 0.0
C658 C 0.86413 0.98705 0.46447 0.0
O659 O 0.85248 0.98855 0.47526 0.0
Cd660 Cd 0.83848 0.96554 0.48861 0.0
O661 O 0.86884 0.97259 0.45948 0.0
Cd662 Cd 0.86168 0.94252 0.46358 0.0
C663 C 0.87323 0.94498 0.50435 0.0
O664 O 0.83205 0.94719 0.46611 0.0
O665 O 0.83984 0.92193 0.47155 0.0
O666 O 0.86528 0.93921 0.43369 0.0
C667 C 0.82796 0.9324 0.47013 0.0
O668 O 0.85977 0.95322 0.50694 0.0
C669 C 0.87424 0.92606 0.43454 0.0
O670 O 0.87733 0.94034 0.48962 0.0
O671 O 0.87801 0.92081 0.44911 0.0
H672 H 0.25764 0.15027 0.56222 0.0
H673 H 0.24694 0.14843 0.5334 0.0
H674 H 0.2566 0.20122 0.52632 0.0
H675 H 0.26737 0.20316 0.55483 0.0
H676 H 0.22366 0.19084 0.51783 0.0
H677 H 0.28184 0.17465 0.50885 0.0
H678 H 0.30678 0.15691 0.51343 0.0
H679 H 0.27943 0.1136 0.49691 0.0
H680 H 0.25424 0.13108 0.49244 0.0
H681 H 0.22116 0.21186 0.43327 0.0
H682 H 0.22812 0.20637 0.46246 0.0
H683 H 0.22336 0.15311 0.45391 0.0
H684 H 0.21698 0.15855 0.42431 0.0
H685 H 0.25033 0.15903 0.47144 0.0
H686 H 0.19328 0.1755 0.47665 0.0
H687 H 0.16808 0.19285 0.47208 0.0
H688 H 0.19202 0.23462 0.4961 0.0
H689 H 0.21746 0.21761 0.50061 0.0
C690 C 0.2576 0.16143 0.55444 0.0
C691 C 0.26327 0.17687 0.56077 0.0
C692 C 0.25151 0.16035 0.53803 0.0
C693 C 0.25094 0.17471 0.52786 0.0
C694 C 0.25688 0.19003 0.53407 0.0
C695 C 0.26309 0.19109 0.55033 0.0
C696 C 0.24371 0.17415 0.51086 0.0
C697 C 0.22948 0.18394 0.50763 0.0
C698 C 0.25098 0.1646 0.49783 0.0
C699 C 0.26611 0.15412 0.50053 0.0
C700 C 0.2811 0.16132 0.50636 0.0
C701 C 0.29528 0.15132 0.5089 0.0
C702 C 0.29467 0.13413 0.50552 0.0
C703 C 0.27987 0.12691 0.49955 0.0
C704 C 0.26564 0.13686 0.49701 0.0
C705 C 0.22145 0.19898 0.43761 0.0
C706 C 0.21847 0.18563 0.42655 0.0
C707 C 0.22534 0.19585 0.45435 0.0
C708 C 0.22593 0.17934 0.46047 0.0
C709 C 0.22288 0.16595 0.44946 0.0
C710 C 0.21921 0.16907 0.4326 0.0
C711 C 0.23053 0.17623 0.47819 0.0
C712 C 0.24423 0.16569 0.48163 0.0
C713 C 0.22266 0.18499 0.49149 0.0
C714 C 0.20732 0.19527 0.4889 0.0
C715 C 0.19322 0.18841 0.48087 0.0
C716 C 0.17888 0.19819 0.47831 0.0
C717 C 0.17846 0.21483 0.48378 0.0
C718 C 0.19236 0.22172 0.49187 0.0
C719 C 0.20674 0.21201 0.49446 0.0
H720 H 0.16735 0.22238 0.48177 0.0
H721 H 0.30567 0.12641 0.50748 0.0
H722 H 0.03754 0.97269 0.68106 0.0
H723 H 0.04294 0.9827 0.70943 0.0
H724 H 0.09583 0.98569 0.69854 0.0
H725 H 0.09052 0.97594 0.66977 0.0
H726 H 0.08092 0.96884 0.73298 0.0
H727 H 0.08485 0.0191 0.69865 0.0
H728 H 0.07513 0.03759 0.67581 0.0
H729 H 0.02749 0.04324 0.70038 0.0
H730 H 0.03685 0.02454 0.72323 0.0
H731 H 0.08544 0.0106 0.81191 0.0
H732 H 0.09214 0.00386 0.78268 0.0
H733 H 0.04129 0.01574 0.76841 0.0
H734 H 0.03468 0.0229 0.79736 0.0
H735 H 0.062 0.02686 0.74551 0.0
H736 H 0.05435 0.97503 0.7762 0.0
H737 H 0.06035 0.95449 0.79857 0.0
H738 H 0.11107 0.94983 0.78098 0.0
H739 H 0.10541 0.97053 0.75861 0.0
C740 C 0.05036 0.9753 0.6847 0.0
C741 C 0.06361 0.97364 0.67319 0.0
C742 C 0.05339 0.98102 0.70089 0.0
C743 C 0.06973 0.98497 0.70591 0.0
C744 C 0.08314 0.98269 0.69476 0.0
C745 C 0.08008 0.97719 0.6784 0.0
C746 C 0.07232 0.99226 0.72264 0.0
C747 C 0.0773 0.98167 0.73575 0.0
C748 C 0.06707 0.00881 0.72612 0.0
C749 C 0.06152 0.02033 0.71258 0.0
C750 C 0.07226 0.02418 0.69911 0.0
C751 C 0.06682 0.03472 0.68618 0.0
C752 C 0.05069 0.04156 0.68663 0.0
C753 C 0.03998 0.03793 0.70004 0.0
C754 C 0.04536 0.02738 0.713 0.0
C755 C 0.07576 0.01194 0.80248 0.0
C756 C 0.0595 0.01712 0.80691 0.0
C757 C 0.07959 0.00805 0.78582 0.0
C758 C 0.06715 0.00909 0.77342 0.0
C759 C 0.0511 0.01487 0.77777 0.0
C760 C 0.04731 0.01889 0.79434 0.0
C761 C 0.07035 0.00337 0.75606 0.0
C762 C 0.06627 0.01422 0.74279 0.0
C763 C 0.07611 0.98693 0.75249 0.0
C764 C 0.07952 0.97448 0.76589 0.0
C765 C 0.06681 0.96973 0.77719 0.0
C766 C 0.07015 0.95804 0.78985 0.0
C767 C 0.0861 0.95091 0.79124 0.0
C768 C 0.09874 0.9554 0.77992 0.0
C769 C 0.09547 0.96711 0.76725 0.0
H770 H 0.08866 0.94186 0.80104 0.0
H771 H 0.0465 0.04971 0.6766 0.0
H772 H 0.27752 0.80663 0.94007 0.0
H773 H 0.26569 0.80852 0.96824 0.0
H774 H 0.22223 0.83405 0.94851 0.0
H775 H 0.23434 0.83267 0.9202 0.0
H776 H 0.23039 0.84515 0.98038 0.0
H777 H 0.21991 0.79341 0.95282 0.0
H778 H 0.22713 0.76829 0.9363 0.0
H779 H 0.2601 0.75157 0.97545 0.0
H780 H 0.25333 0.77677 0.99208 0.0
H781 H 0.1972 0.78556 0.05322 0.0
H782 H 0.20013 0.79275 0.02356 0.0
H783 H 0.23705 0.83025 0.0362 0.0
H784 H 0.23361 0.82361 0.06589 0.0
H785 H 0.2257 0.78825 0.00538 0.0
H786 H 0.23985 0.86038 0.00718 0.0
H787 H 0.23027 0.88512 0.0231 0.0
H788 H 0.18371 0.86042 0.03419 0.0
H789 H 0.19286 0.83566 0.01809 0.0
C790 C 0.26562 0.81298 0.94178 0.0
C791 C 0.2567 0.81926 0.92799 0.0
C792 C 0.25888 0.81405 0.95785 0.0
C793 C 0.24292 0.82105 0.96034 0.0
C794 C 0.23453 0.82852 0.94679 0.0
C795 C 0.24143 0.82769 0.93067 0.0
C796 C 0.23442 0.8187 0.97666 0.0
C797 C 0.22925 0.83275 0.98589 0.0
C798 C 0.23231 0.80243 0.98346 0.0
C799 C 0.23618 0.78704 0.97366 0.0
C800 C 0.22877 0.78442 0.95787 0.0
C801 C 0.23279 0.77017 0.94848 0.0
C802 C 0.24408 0.75835 0.95481 0.0
C803 C 0.25135 0.76074 0.97056 0.0
C804 C 0.24742 0.775 0.97998 0.0
C805 C 0.20575 0.79551 0.04966 0.0
C806 C 0.21529 0.80394 0.06179 0.0
C807 C 0.2074 0.79961 0.03273 0.0
C808 C 0.21874 0.8121 0.02764 0.0
C809 C 0.22795 0.82083 0.03982 0.0
C810 C 0.2261 0.81692 0.05678 0.0
C811 C 0.22227 0.81477 0.00959 0.0
C812 C 0.22651 0.8007 -8e-05 0.0
C813 C 0.22296 0.83097 0.00228 0.0
C814 C 0.21712 0.84609 0.0115 0.0
C815 C 0.22751 0.86027 0.01288 0.0
C816 C 0.22216 0.87429 0.02197 0.0
C817 C 0.20641 0.87432 0.02969 0.0
C818 C 0.19593 0.86037 0.02824 0.0
C819 C 0.2012 0.84633 0.01914 0.0
H820 H 0.20232 0.88516 0.03678 0.0
H821 H 0.24718 0.74732 0.94752 0.0
H822 H 0.45224 0.98029 0.29775 0.0
H823 H 0.44483 0.99056 0.26986 0.0
H824 H 0.39238 0.98904 0.28298 0.0
H825 H 0.39971 0.97905 0.31126 0.0
H826 H 0.40711 0.97351 0.24804 0.0
H827 H 0.40025 0.02326 0.28211 0.0
H828 H 0.40895 0.04274 0.30447 0.0
H829 H 0.45503 0.05253 0.27829 0.0
H830 H 0.44671 0.03289 0.2559 0.0
H831 H 0.3995 0.01338 0.16811 0.0
H832 H 0.39277 0.00739 0.19755 0.0
H833 H 0.44288 0.02196 0.21182 0.0
H834 H 0.44952 0.02826 0.18271 0.0
H835 H 0.42119 0.03265 0.23438 0.0
H836 H 0.4323 0.98071 0.20461 0.0
H837 H 0.42736 0.95956 0.18261 0.0
H838 H 0.37707 0.95235 0.20057 0.0
H839 H 0.38166 0.97365 0.22256 0.0
C840 C 0.43911 0.98202 0.2947 0.0
C841 C 0.42653 0.97895 0.30667 0.0
C842 C 0.43492 0.9879 0.2788 0.0
C843 C 0.41811 0.99059 0.27452 0.0
C844 C 0.40543 0.98704 0.28618 0.0
C845 C 0.40963 0.9814 0.30227 0.0
C846 C 0.41419 -0.00241 0.25789 0.0
C847 C 0.40963 0.98656 0.24504 0.0
C848 C 0.41796 0.01448 0.25411 0.0
C849 C 0.42289 0.02653 0.26739 0.0
C850 C 0.41229 0.02947 0.28119 0.0
C851 C 0.41714 0.04056 0.29385 0.0
C852 C 0.43255 0.04884 0.29282 0.0
C853 C 0.4431 0.0461 0.27908 0.0
C854 C 0.43831 0.03501 0.26639 0.0
C855 C 0.40898 0.0155 0.17759 0.0
C856 C 0.4251 0.0211 0.17311 0.0
C857 C 0.40513 0.01206 0.19437 0.0
C858 C 0.41739 0.01404 0.20683 0.0
C859 C 0.43321 0.02036 0.20242 0.0
C860 C 0.43702 0.02387 0.18574 0.0
C861 C 0.41446 0.00848 0.22431 0.0
C862 C 0.41792 0.01976 0.23735 0.0
C863 C 0.41 0.99172 0.22822 0.0
C864 C 0.40724 0.97891 0.21506 0.0
C865 C 0.42014 0.97471 0.20377 0.0
C866 C 0.41742 0.96268 0.19133 0.0
C867 C 0.40189 0.95466 0.19015 0.0
C868 C 0.38907 0.95861 0.20147 0.0
C869 C 0.39173 0.97066 0.21392 0.0
H870 H 0.3998 0.94535 0.18051 0.0
H871 H 0.43629 0.05741 0.30264 0.0
H872 H 0.55565 0.26554 0.20216 0.0
H873 H 0.52682 0.25618 0.19823 0.0
H874 H 0.5357 0.25044 0.14519 0.0
H875 H 0.56489 0.25958 0.14902 0.0
H876 H 0.50287 0.26799 0.15785 0.0
H877 H 0.53593 0.21725 0.1613 0.0
H878 H 0.55787 0.19931 0.17369 0.0
H879 H 0.53158 0.19919 0.22075 0.0
H880 H 0.50961 0.21738 0.20871 0.0
H881 H 0.42362 0.22567 0.15455 0.0
H882 H 0.45298 0.23301 0.14894 0.0
H883 H 0.46453 0.22652 0.20146 0.0
H884 H 0.43555 0.21873 0.20701 0.0
H885 H 0.48814 0.21311 0.18344 0.0
H886 H 0.45812 0.2658 0.18317 0.0
H887 H 0.43654 0.28581 0.1736 0.0
H888 H 0.45688 0.28427 0.12371 0.0
H889 H 0.47847 0.26408 0.13296 0.0
C890 C 0.55147 0.26245 0.18961 0.0
C891 C 0.56254 0.26318 0.17589 0.0
C892 C 0.53502 0.25711 0.18742 0.0
C893 C 0.52928 0.25257 0.17146 0.0
C894 C 0.54001 0.25391 0.15758 0.0
C895 C 0.55663 0.25906 0.15981 0.0
C896 C 0.51227 0.24564 0.16974 0.0
C897 C 0.49962 0.25582 0.16303 0.0
C898 C 0.50815 0.22996 0.17693 0.0
C899 C 0.52119 0.21877 0.18412 0.0
C900 C 0.53489 0.2135 0.17432 0.0
C901 C 0.54732 0.20327 0.18128 0.0
C902 C 0.54613 0.19813 0.19801 0.0
C903 C 0.53248 0.20318 0.2078 0.0
C904 C 0.52003 0.21343 0.2009 0.0
C905 C 0.4325 0.22577 0.16489 0.0
C906 C 0.42733 0.22168 0.18125 0.0
C907 C 0.44921 0.23001 0.16166 0.0
C908 C 0.4609 0.23046 0.17481 0.0
C909 C 0.45574 0.22618 0.19109 0.0
C910 C 0.43915 0.22178 0.19428 0.0
C911 C 0.4785 0.23562 0.1719 0.0
C912 C 0.49132 0.2251 0.17781 0.0
C913 C 0.4827 0.25113 0.16427 0.0
C914 C 0.46976 0.26327 0.1587 0.0
C915 C 0.4579 0.26962 0.17013 0.0
C916 C 0.44568 0.28101 0.16477 0.0
C917 C 0.4453 0.28626 0.14804 0.0
C918 C 0.45717 0.28017 0.13665 0.0
C919 C 0.4694 0.26875 0.14194 0.0
H920 H 0.43583 0.29509 0.14391 0.0
H921 H 0.55578 0.19022 0.20337 0.0
H922 H 0.97879 0.30604 0.4526 0.0
H923 H 0.98848 0.27792 0.44542 0.0
H924 H 0.98226 0.28892 0.39283 0.0
H925 H 0.97277 0.31744 0.3999 0.0
H926 H 0.96852 0.25537 0.40762 0.0
H927 H 0.01822 0.28882 0.40094 0.0
H928 H 0.03829 0.31074 0.40939 0.0
H929 H 0.0492 0.28355 0.45462 0.0
H930 H 0.02898 0.2616 0.44657 0.0
H931 H 0.00737 0.17511 0.39826 0.0
H932 H 0.00135 0.20471 0.39242 0.0
H933 H 0.01647 0.2176 0.44273 0.0
H934 H 0.02284 0.18829 0.4485 0.0
H935 H 0.02737 0.24045 0.42135 0.0
H936 H 0.97504 0.21132 0.43224 0.0
H937 H 0.9535 0.18975 0.42703 0.0
H938 H 0.94632 0.20879 0.37713 0.0
H939 H 0.96799 0.23035 0.38199 0.0
C940 C 0.97936 0.30249 0.4395 0.0
C941 C 0.97509 0.31393 0.42679 0.0
C942 C 0.98493 0.28645 0.43544 0.0
C943 C 0.98615 0.28151 0.41863 0.0
C944 C 0.9814 0.29264 0.40587 0.0
C945 C 0.97604 0.30886 0.40992 0.0
C946 C 0.99279 0.26471 0.41474 0.0
C947 C 0.98149 0.25211 0.4101 0.0
C948 C 0.00961 0.26057 0.41841 0.0
C949 C 0.022 0.2736 0.42318 0.0
C950 C 0.02481 0.28757 0.41275 0.0
C951 C 0.03623 0.29999 0.41746 0.0
C952 C 0.045 0.29855 0.43255 0.0
C953 C 0.0424 0.28465 0.44293 0.0
C954 C 0.03098 0.2722 0.43829 0.0
C955 C 0.00957 0.18429 0.40798 0.0
C956 C 0.01542 0.17937 0.42388 0.0
C957 C 0.0061 0.20118 0.40465 0.0
C958 C 0.00829 0.2133 0.41721 0.0
C959 C 0.01473 0.20846 0.43285 0.0
C960 C 0.01827 0.19166 0.43614 0.0
C961 C 0.00299 0.23092 0.41469 0.0
C962 C 0.01454 0.24371 0.41823 0.0
C963 C 0.98631 0.23518 0.41031 0.0
C964 C 0.97327 0.22228 0.40739 0.0
C965 C 0.96896 0.21081 0.42011 0.0
C966 C 0.95671 0.19861 0.41723 0.0
C967 C 0.94859 0.19786 0.40173 0.0
C968 C 0.95266 0.20935 0.38911 0.0
C969 C 0.96491 0.22157 0.39192 0.0
H970 H 0.93911 0.18841 0.39953 0.0
H971 H 0.05383 0.30818 0.43618 0.0
H972 H 0.05603 0.77039 0.70018 0.0
H973 H 0.0271 0.76109 0.69688 0.0
H974 H 0.03351 0.75959 0.64319 0.0
H975 H 0.06277 0.7687 0.64635 0.0
H976 H 0.0009 0.77482 0.65815 0.0
H977 H 0.03591 0.72531 0.65734 0.0
H978 H 0.05895 0.70756 0.66791 0.0
H979 H 0.03421 0.70341 0.71562 0.0
H980 H 0.01117 0.72139 0.70542 0.0
H981 H 0.92375 0.72958 0.65288 0.0
H982 H 0.9528 0.73809 0.64752 0.0
H983 H 0.96488 0.72908 0.69952 0.0
H984 H 0.93614 0.72018 0.70483 0.0
H985 H 0.98906 0.71782 0.6804 0.0
H986 H 0.9567 0.76887 0.68409 0.0
H987 H 0.93405 0.78843 0.67624 0.0
H988 H 0.95359 0.79136 0.62609 0.0
H989 H 0.97625 0.77161 0.6336 0.0
C990 C 0.05127 0.76831 0.68763 0.0
C991 C 0.06169 0.77011 0.67352 0.0
C992 C 0.03475 0.763 0.68579 0.0
C993 C 0.02833 0.75957 0.66982 0.0
C994 C 0.03836 0.76219 0.6556 0.0
C995 C 0.05502 0.76732 0.65744 0.0
C996 C 0.01149 0.75217 0.66835 0.0
C997 C -0.00172 0.76222 0.66262 0.0
C998 C 0.00821 0.73591 0.67459 0.0
C999 C 0.02187 0.7248 0.68065 0.0
C1000 C 0.03545 0.72071 0.67012 0.0
C1001 C 0.0485 0.7106 0.67604 0.0
C1002 C 0.04806 0.70439 0.69244 0.0
C1003 C 0.03454 0.70823 0.70293 0.0
C1004 C 0.02147 0.71837 0.69708 0.0
C1005 C 0.93266 0.72933 0.66312 0.0
C1006 C 0.92768 0.72431 0.67928 0.0
C1007 C 0.94921 0.73424 0.66006 0.0
C1008 C 0.96094 0.73441 0.67317 0.0
C1009 C 0.95605 0.72902 0.68921 0.0
C1010 C 0.93959 0.72399 0.69224 0.0
C1011 C 0.97824 0.74057 0.6705 0.0
C1012 C 0.99161 0.73028 0.67552 0.0
C1013 C 0.98161 0.75673 0.66387 0.0
C1014 C 0.96803 0.76861 0.65935 0.0
C1015 C 0.95608 0.77358 0.67135 0.0
C1016 C 0.94326 0.78471 0.66697 0.0
C1017 C 0.94235 0.79109 0.65066 0.0
C1018 C 0.95429 0.78638 0.63871 0.0
C1019 C 0.96713 0.77522 0.64302 0.0
H1020 H 0.93241 0.79971 0.6473 0.0
H1021 H 0.05818 0.69657 0.697 0.0
H1022 H 0.47 0.80415 0.95224 0.0
H1023 H 0.47994 0.77571 0.94693 0.0
H1024 H 0.48296 0.78639 0.89398 0.0
H1025 H 0.47317 0.81519 0.89919 0.0
H1026 H 0.46719 0.75289 0.90586 0.0
H1027 H 0.51699 0.78705 0.90929 0.0
H1028 H 0.53463 0.80897 0.92207 0.0
H1029 H 0.53683 0.78074 0.96793 0.0
H1030 H 0.51896 0.75878 0.95552 0.0
H1031 H 0.50994 0.67427 0.89922 0.0
H1032 H 0.50283 0.70383 0.89445 0.0
H1033 H 0.51042 0.71404 0.94706 0.0
H1034 H 0.51802 0.68483 0.95176 0.0
H1035 H 0.52293 0.73841 0.92945 0.0
H1036 H 0.47078 0.70749 0.9296 0.0
H1037 H 0.45101 0.68583 0.91985 0.0
H1038 H 0.45121 0.70761 0.87054 0.0
H1039 H 0.47117 0.72929 0.87997 0.0
C1040 C 0.47261 0.80045 0.93943 0.0
C1041 C 0.47093 0.81192 0.92613 0.0
C1042 C 0.4783 0.78422 0.93644 0.0
C1043 C 0.48226 0.77911 0.92011 0.0
C1044 C 0.47995 0.79022 0.90666 0.0
C1045 C 0.47443 0.80661 0.90967 0.0
C1046 C 0.48958 0.76233 0.91751 0.0
C1047 C 0.47954 0.74971 0.91059 0.0
C1048 C 0.50551 0.7583 0.92411 0.0
C1049 C 0.51655 0.77132 0.9315 0.0
C1050 C 0.52115 0.78557 0.92214 0.0
C1051 C 0.5312 0.79799 0.92931 0.0
C1052 C 0.53683 0.79626 0.94581 0.0
C1053 C 0.53246 0.78207 0.95515 0.0
C1054 C 0.52239 0.76962 0.94805 0.0
C1055 C 0.5102 0.68289 0.90971 0.0
C1056 C 0.51444 0.67725 0.92587 0.0
C1057 C 0.50609 0.69973 0.90699 0.0
C1058 C 0.5059 0.7111 0.92044 0.0
C1059 C 0.51053 0.70552 0.93648 0.0
C1060 C 0.51481 0.68879 0.93916 0.0
C1061 C 0.50038 0.7287 0.91816 0.0
C1062 C 0.51076 0.74154 0.92424 0.0
C1063 C 0.48462 0.73286 0.9111 0.0
C1064 C 0.47262 0.71987 0.90543 0.0
C1065 C 0.46671 0.70758 0.91665 0.0
C1066 C 0.45545 0.69531 0.91119 0.0
C1067 C 0.4499 0.69531 0.89457 0.0
C1068 C 0.45556 0.7076 0.8834 0.0
C1069 C 0.46683 0.71989 0.88879 0.0
H1070 H 0.44119 0.6858 0.89036 0.0
H1071 H 0.5446 0.8059 0.95134 0.0
H1072 H 0.55051 0.72279 0.29122 0.0
H1073 H 0.52224 0.73305 0.29691 0.0
H1074 H 0.53324 0.73517 0.34979 0.0
H1075 H 0.56189 0.72515 0.34419 0.0
H1076 H 0.499 0.7191 0.33598 0.0
H1077 H 0.53343 0.76899 0.33798 0.0
H1078 H 0.55606 0.78733 0.32753 0.0
H1079 H 0.53043 0.79282 0.28052 0.0
H1080 H 0.50778 0.77428 0.29059 0.0
H1081 H 0.4198 0.76091 0.34012 0.0
H1082 H 0.44911 0.75462 0.34693 0.0
H1083 H 0.46316 0.76444 0.29553 0.0
H1084 H 0.43417 0.77108 0.28878 0.0
H1085 H 0.48601 0.77665 0.31587 0.0
H1086 H 0.45554 0.72437 0.31008 0.0
H1087 H 0.43329 0.70406 0.31713 0.0
H1088 H 0.45133 0.70127 0.36778 0.0
H1089 H 0.47358 0.72175 0.36106 0.0
C1090 C 0.54691 0.72527 0.30409 0.0
C1091 C 0.55841 0.72327 0.31727 0.0
C1092 C 0.53078 0.73114 0.3073 0.0
C1093 C 0.52582 0.73491 0.32373 0.0
C1094 C 0.53697 0.73231 0.33704 0.0
C1095 C 0.55327 0.72665 0.33381 0.0
C1096 C 0.50913 0.74228 0.32653 0.0
C1097 C 0.49614 0.73184 0.33209 0.0
C1098 C 0.50553 0.75874 0.321 0.0
C1099 C 0.51896 0.77016 0.31501 0.0
C1100 C 0.53268 0.77401 0.32537 0.0
C1101 C 0.5455 0.78446 0.31952 0.0
C1102 C 0.5447 0.79122 0.30336 0.0
C1103 C 0.53104 0.78758 0.29303 0.0
C1104 C 0.5182 0.77712 0.29881 0.0
C1105 C 0.4292 0.76189 0.33035 0.0
C1106 C 0.42469 0.76631 0.31388 0.0
C1107 C 0.4459 0.75827 0.33425 0.0
C1108 C 0.45826 0.75888 0.32169 0.0
C1109 C 0.45384 0.76393 0.30543 0.0
C1110 C 0.43723 0.76764 0.30156 0.0
C1111 C 0.47567 0.75335 0.32497 0.0
C1112 C 0.48883 0.76412 0.3204 0.0
C1113 C 0.47938 0.73708 0.33111 0.0
C1114 C 0.46606 0.72475 0.33514 0.0
C1115 C 0.45467 0.71952 0.32276 0.0
C1116 C 0.44208 0.70797 0.32668 0.0
C1117 C 0.44085 0.70142 0.34291 0.0
C1118 C 0.45226 0.70638 0.35523 0.0
C1119 C 0.46487 0.71796 0.35137 0.0
H1120 H 0.4311 0.69247 0.34593 0.0
H1121 H 0.55465 0.79929 0.29885 0.0
H1122 H 0.50852 0.30222 0.5372 0.0
H1123 H 0.49885 0.27387 0.54356 0.0
H1124 H 0.50381 0.28362 0.5965 0.0
H1125 H 0.51325 0.31235 0.59026 0.0
H1126 H 0.51799 0.25014 0.58073 0.0
H1127 H 0.46834 0.2839 0.58824 0.0
H1128 H 0.44855 0.30626 0.58011 0.0
H1129 H 0.43801 0.28052 0.53405 0.0
H1130 H 0.45795 0.25813 0.54178 0.0
H1131 H 0.47784 0.17029 0.58921 0.0
H1132 H 0.48464 0.19968 0.59527 0.0
H1133 H 0.46929 0.21361 0.54526 0.0
H1134 H 0.46217 0.18456 0.53929 0.0
H1135 H 0.45894 0.2363 0.56687 0.0
H1136 H 0.51069 0.20655 0.55537 0.0
H1137 H 0.53202 0.18462 0.56007 0.0
H1138 H 0.53999 0.20277 0.61011 0.0
H1139 H 0.51852 0.22469 0.60576 0.0
C1140 C 0.50768 0.29834 0.55021 0.0
C1141 C 0.51156 0.30949 0.56325 0.0
C1142 C 0.50214 0.28217 0.5538 0.0
C1143 C 0.50058 0.27681 0.57047 0.0
C1144 C 0.50496 0.28765 0.58357 0.0
C1145 C 0.51027 0.304 0.57998 0.0
C1146 C 0.49381 0.25995 0.57387 0.0
C1147 C 0.50498 0.24709 0.5782 0.0
C1148 C 0.47695 0.2561 0.57012 0.0
C1149 C 0.46472 0.26939 0.56555 0.0
C1150 C 0.46189 0.28307 0.57632 0.0
C1151 C 0.45063 0.29574 0.57179 0.0
C1152 C 0.44205 0.29483 0.55656 0.0
C1153 C 0.44467 0.28121 0.54585 0.0
C1154 C 0.45593 0.26852 0.55031 0.0
C1155 C 0.47576 0.17968 0.5796 0.0
C1156 C 0.46961 0.17512 0.56373 0.0
C1157 C 0.47968 0.19643 0.58306 0.0
C1158 C 0.47763 0.20878 0.57065 0.0
C1159 C 0.47093 0.20429 0.55504 0.0
C1160 C 0.46695 0.18765 0.55161 0.0
C1161 C 0.48321 0.22629 0.57334 0.0
C1162 C 0.47182 0.23931 0.57002 0.0
C1163 C 0.49996 0.23023 0.57771 0.0
C1164 C 0.51285 0.21709 0.58033 0.0
C1165 C 0.51689 0.20577 0.56742 0.0
C1166 C 0.52902 0.19336 0.57001 0.0
C1167 C 0.53731 0.19226 0.5854 0.0
C1168 C 0.53352 0.20361 0.59822 0.0
C1169 C 0.52138 0.21602 0.5957 0.0
H1170 H 0.5467 0.18265 0.58738 0.0
H1171 H 0.43334 0.30466 0.55308 0.0
H1172 H 0.92219 0.26053 0.84 0.0
H1173 H 0.95166 0.25216 0.84318 0.0
H1174 H 0.95937 0.25884 0.79002 0.0
H1175 H 0.93017 0.26731 0.78674 0.0
H1176 H 0.96955 0.22719 0.80291 0.0
H1177 H 0.97466 0.28674 0.81502 0.0
H1178 H 0.96814 0.31254 0.8308 0.0
H1179 H 0.98525 0.28929 0.87629 0.0
H1180 H 0.99167 0.26326 0.8608 0.0
H1181 H 0.05438 0.22694 0.78418 0.0
H1182 H 0.025 0.2339 0.78848 0.0
H1183 H 0.03214 0.23229 0.84212 0.0
H1184 H 0.06196 0.22583 0.83785 0.0
H1185 H 0.01351 0.25847 0.83378 0.0
H1186 H 0.01169 0.20015 0.82152 0.0
H1187 H 0.01807 0.17403 0.80623 0.0
H1188 H -0.00573 0.19376 0.76214 0.0
H1189 H 0.98794 0.22009 0.77708 0.0
C1190 C 0.93024 0.26036 0.82904 0.0
C1191 C 0.92389 0.26448 0.81311 0.0
C1192 C 0.94702 0.25561 0.83088 0.0
C1193 C 0.95757 0.25486 0.81681 0.0
C1194 C 0.95134 0.25931 0.801 0.0
C1195 C 0.93468 0.26419 0.79917 0.0
C1196 C 0.97495 0.24872 0.81822 0.0
C1197 C 0.97922 0.23403 0.80958 0.0
C1198 C 0.98729 0.25735 0.82752 0.0
C1199 C 0.98343 0.27299 0.8368 0.0
C1200 C 0.97687 0.28707 0.82842 0.0
C1201 C 0.97323 0.30175 0.8373 0.0
C1202 C 0.97622 0.30253 0.85455 0.0
C1203 C 0.98291 0.28866 0.86294 0.0
C1204 C 0.98656 0.27394 0.85411 0.0
C1205 C 0.04972 0.228 0.79691 0.0
C1206 C 0.06041 0.22574 0.8107 0.0
C1207 C 0.03288 0.23189 0.79935 0.0
C1208 C 0.02629 0.23324 0.81562 0.0
C1209 C 0.03697 0.23118 0.82946 0.0
C1210 C 0.05395 0.22748 0.82701 0.0
C1211 C 0.0083 0.23719 0.81794 0.0
C1212 C 0.00385 0.25141 0.82733 0.0
C1213 C -0.00429 0.22802 0.80945 0.0
C1214 C -0.00059 0.21214 0.80042 0.0
C1215 C 0.0079 0.19896 0.80853 0.0
C1216 C 0.0115 0.18411 0.79993 0.0
C1217 C 0.0066 0.18225 0.78322 0.0
C1218 C -0.00195 0.19522 0.77508 0.0
C1219 C -0.00557 0.2101 0.78362 0.0
H1220 H 0.0094 0.17074 0.77658 0.0
H1221 H 0.9734 0.31391 0.8614 0.0
H1222 H 0.9778 0.68032 0.03486 0.0
H1223 H 0.98735 0.70881 0.04033 0.0
H1224 H 0.98618 0.69922 0.09357 0.0
H1225 H 0.97673 0.67034 0.0882 0.0
H1226 H 0.97106 0.73179 0.08078 0.0
H1227 H 0.02178 0.69957 0.08019 0.0
H1228 H 0.04111 0.67806 0.06918 0.0
H1229 H 0.04529 0.70516 0.02277 0.0
H1230 H 0.02576 0.7267 0.03339 0.0
H1231 H 0.00991 0.81316 0.08311 0.0
H1232 H 0.0046 0.78363 0.09012 0.0
H1233 H 0.01184 0.77008 0.03821 0.0
H1234 H 0.01744 0.79926 0.03123 0.0
H1235 H 0.02677 0.74803 0.05814 0.0
H1236 H 0.97253 0.77583 0.05528 0.0
H1237 H 0.95148 0.79688 0.06377 0.0
H1238 H 0.95262 0.77804 0.11426 0.0
H1239 H 0.97385 0.757 0.10609 0.0
C1240 C 0.97945 0.68424 0.04776 0.0
C1241 C 0.97662 0.67308 0.06111 0.0
C1242 C 0.98495 0.70051 0.05084 0.0
C1243 C 0.98759 0.70596 0.06732 0.0
C1244 C 0.98424 0.69512 0.08077 0.0
C1245 C 0.9789 0.67868 0.07768 0.0
C1246 C -0.00576 0.72298 0.07008 0.0
C1247 C 0.98342 0.73535 0.07631 0.0
C1248 C 0.01024 0.7275 0.06393 0.0
C1249 C 0.02224 0.71472 0.05758 0.0
C1250 C 0.02673 0.70089 0.0676 0.0
C1251 C 0.03774 0.6887 0.06143 0.0
C1252 C 0.04441 0.69023 0.04528 0.0
C1253 C 0.04012 0.70399 0.03528 0.0
C1254 C 0.0291 0.71621 0.04138 0.0
C1255 C 0.01047 0.80382 0.07323 0.0
C1256 C 0.014 0.80851 0.05659 0.0
C1257 C 0.00741 0.78701 0.07727 0.0
C1258 C 0.00772 0.77471 0.06467 0.0
C1259 C 0.01161 0.77936 0.04815 0.0
C1260 C 0.01473 0.79607 0.04414 0.0
C1261 C 0.00336 0.75702 0.06827 0.0
C1262 C 0.01463 0.74449 0.06319 0.0
C1263 C 0.98768 0.7524 0.07524 0.0
C1264 C 0.97493 0.76501 0.08014 0.0
C1265 C 0.96839 0.77627 0.06822 0.0
C1266 C 0.95641 0.78818 0.07297 0.0
C1267 C 0.95076 0.78884 0.08956 0.0
C1268 C 0.95704 0.77755 0.10142 0.0
C1269 C 0.96904 0.76563 0.09674 0.0
H1270 H 0.94148 0.79806 0.09321 0.0
H1271 H 0.05291 0.68077 0.04053 0.0
H1272 H 0.19926 0.43103 0.20554 0.0
H1273 H 0.19664 0.45947 0.21652 0.0
H1274 H 0.14407 0.45123 0.2262 0.0
H1275 H 0.14659 0.42251 0.21537 0.0
H1276 H 0.15555 0.48564 0.21201 0.0
H1277 H 0.16411 0.44555 0.25715 0.0
H1278 H 0.1786 0.42133 0.26987 0.0
H1279 H 0.22523 0.4482 0.26841 0.0
H1280 H 0.21107 0.47247 0.25538 0.0
H1281 H 0.15178 0.55638 0.26624 0.0
H1282 H 0.14744 0.52807 0.25514 0.0
H1283 H 0.20086 0.51934 0.25634 0.0
H1284 H 0.2052 0.54727 0.26791 0.0
H1285 H 0.18551 0.49246 0.26612 0.0
H1286 H 0.17969 0.53082 0.21986 0.0
H1287 H 0.16783 0.55499 0.20457 0.0
H1288 H 0.11911 0.53211 0.20577 0.0
H1289 H 0.13065 0.50789 0.22127 0.0
C1290 C 0.18705 0.43533 0.20968 0.0
C1291 C 0.17317 0.42448 0.20984 0.0
C1292 C 0.18559 0.45158 0.21593 0.0
C1293 C 0.17022 0.45727 0.22228 0.0
C1294 C 0.15603 0.44695 0.22134 0.0
C1295 C 0.15751 0.43058 0.21523 0.0
C1296 C 0.16959 0.47329 0.23145 0.0
C1297 C 0.16177 0.48715 0.224 0.0
C1298 C 0.17811 0.47516 0.24685 0.0
C1299 C 0.18655 0.46078 0.25517 0.0
C1300 C 0.17748 0.44625 0.25944 0.0
C1301 C 0.18563 0.43252 0.26671 0.0
C1302 C 0.20283 0.43321 0.26991 0.0
C1303 C 0.21191 0.44768 0.26591 0.0
C1304 C 0.20382 0.46143 0.2586 0.0
C1305 C 0.16256 0.54833 0.26428 0.0
C1306 C 0.17883 0.55405 0.26783 0.0
C1307 C 0.16008 0.53221 0.25787 0.0
C1308 C 0.17386 0.5217 0.25465 0.0
C1309 C 0.19005 0.52723 0.25871 0.0
C1310 C 0.19251 0.54322 0.26529 0.0
C1311 C 0.17163 0.50509 0.24663 0.0
C1312 C 0.17898 0.49103 0.25428 0.0
C1313 C 0.16294 0.50314 0.23126 0.0
C1314 C 0.15599 0.51765 0.2219 0.0
C1315 C 0.16642 0.53101 0.21698 0.0
C1316 C 0.15976 0.54471 0.20826 0.0
C1317 C 0.14272 0.54511 0.20425 0.0
C1318 C 0.1323 0.5318 0.20891 0.0
C1319 C 0.13889 0.51808 0.21766 0.0
H1320 H 0.13759 0.55572 0.19749 0.0
H1321 H 0.20913 0.42256 0.27552 0.0
H1322 H 0.70141 0.05433 0.76085 0.0
H1323 H 0.6972 0.02574 0.75079 0.0
H1324 H 0.64369 0.0336 0.75032 0.0
H1325 H 0.64779 0.06248 0.76025 0.0
H1326 H 0.65605 0.00175 0.76535 0.0
H1327 H 0.66014 0.03509 0.71509 0.0
H1328 H 0.67307 0.05649 0.69682 0.0
H1329 H 0.71853 0.02764 0.69476 0.0
H1330 H 0.70596 0.00619 0.71324 0.0
H1331 H 0.64671 0.92328 0.72399 0.0
H1332 H 0.64322 0.95314 0.73043 0.0
H1333 H 0.69618 0.96099 0.72231 0.0
H1334 H 0.69961 0.93144 0.71535 0.0
H1335 H 0.67961 0.98611 0.70985 0.0
H1336 H 0.67893 0.95566 0.76215 0.0
H1337 H 0.66875 0.93441 0.78225 0.0
H1338 H 0.62008 0.95753 0.78241 0.0
H1339 H 0.62994 0.9788 0.76212 0.0
C1340 C 0.68873 0.04997 0.75872 0.0
C1341 C 0.67492 0.06064 0.76125 0.0
C1342 C 0.68636 0.03367 0.75293 0.0
C1343 C 0.67016 0.02772 0.7497 0.0
C1344 C 0.65628 0.03809 0.75272 0.0
C1345 C 0.65865 0.05453 0.75833 0.0
C1346 C 0.66797 0.01071 0.74282 0.0
C1347 C 0.66083 -0.00167 0.75307 0.0
C1348 C 0.67463 0.00634 0.72699 0.0
C1349 C 0.68213 0.01908 0.71564 0.0
C1350 C 0.67293 0.03336 0.71083 0.0
C1351 C 0.6802 0.04549 0.70043 0.0
C1352 C 0.69662 0.04344 0.69466 0.0
C1353 C 0.70581 0.02922 0.69924 0.0
C1354 C 0.69861 0.01706 0.70966 0.0
C1355 C 0.65755 0.93144 0.72345 0.0
C1356 C 0.67345 0.92504 0.71932 0.0
C1357 C 0.65556 0.94846 0.72718 0.0
C1358 C 0.6695 0.95923 0.72711 0.0
C1359 C 0.68525 0.95292 0.72244 0.0
C1360 C 0.68721 0.93601 0.71852 0.0
C1361 C 0.66799 0.97694 0.73251 0.0
C1362 C 0.67448 0.9895 0.722 0.0
C1363 C 0.66104 0.98141 0.74826 0.0
C1364 C 0.6551 0.96867 0.76047 0.0
C1365 C 0.66602 0.95612 0.76637 0.0
C1366 C 0.66032 0.9441 0.77781 0.0
C1367 C 0.64376 0.94459 0.78356 0.0
C1368 C 0.63289 0.95714 0.77791 0.0
C1369 C 0.63853 0.96919 0.76645 0.0
H1370 H 0.63936 0.93527 0.79242 0.0
H1371 H 0.70222 0.05285 0.68661 0.0
H1372 H 0.17031 0.4045 -0.00541 0.0
H1373 H 0.20024 0.40199 0.98847 0.0
H1374 H 0.21177 0.42642 0.03539 0.0
H1375 H 0.18182 0.42983 0.04099 0.0
H1376 H 0.22814 0.44078 0.013 0.0
H1377 H 0.22088 0.38316 0.02665 0.0
H1378 H 0.20794 0.35508 0.02584 0.0
H1379 H 0.21951 0.35105 0.97338 0.0
H1380 H 0.23233 0.3792 0.97382 0.0
H1381 H 0.31637 0.40503 0.99262 0.0
H1382 H 0.28777 0.3998 0.00261 0.0
H1383 H 0.26954 0.44002 0.97123 0.0
H1384 H 0.29807 0.44564 0.96165 0.0
H1385 H 0.25822 0.39161 0.98947 0.0
H1386 H 0.24078 0.46245 0.99149 0.0
H1387 H 0.25488 0.48972 -0.00468 0.0
H1388 H 0.29448 0.4656 0.0227 0.0
H1389 H 0.2805 0.43823 0.01927 0.0
C1390 C 0.17927 0.40903 0.00372 0.0
C1391 C 0.17384 0.41744 0.0182 0.0
C1392 C 0.19639 0.40751 0.00028 0.0
C1393 C 0.20833 0.41393 0.01151 0.0
C1394 C 0.20283 0.42146 0.02647 0.0
C1395 C 0.18574 0.42336 0.02969 0.0
C1396 C 0.22637 0.41447 0.00689 0.0
C1397 C 0.23469 0.42995 0.008 0.0
C1398 C 0.2351 0.40033 0.00057 0.0
C1399 C 0.22746 0.38335 0.00025 0.0
C1400 C 0.22056 0.37633 0.01492 0.0
C1401 C 0.21327 0.36039 0.01453 0.0
C1402 C 0.21288 0.3513 -0.00044 0.0
C1403 C 0.21982 0.35811 0.98496 0.0
C1404 C 0.22712 0.37405 0.98528 0.0
C1405 C 0.30622 0.41264 0.98775 0.0
C1406 C 0.30944 0.42591 0.97657 0.0
C1407 C 0.2899 0.40961 -0.00657 0.0
C1408 C 0.2766 0.41975 0.98792 0.0
C1409 C 0.27969 0.43231 0.97594 0.0
C1410 C 0.29598 0.43548 0.97045 0.0
C1411 C 0.25966 0.41794 -0.00467 0.0
C1412 C 0.2516 0.40231 -0.00532 0.0
C1413 C 0.25129 0.4318 0.0026 0.0
C1414 C 0.25965 0.44827 0.00498 0.0
C1415 C 0.25245 0.46298 -0.0016 0.0
C1416 C 0.26043 0.47845 0.00049 0.0
C1417 C 0.27559 0.47938 0.00921 0.0
C1418 C 0.28277 0.46485 0.01591 0.0
C1419 C 0.27482 0.44936 0.01388 0.0
H1420 H 0.28176 0.49137 0.01079 0.0
H1421 H 0.20722 0.33896 -0.00071 0.0
H1422 H 0.80163 0.05014 0.20068 0.0
H1423 H 0.80503 0.02147 0.21102 0.0
H1424 H 0.83271 0.03999 0.25362 0.0
H1425 H 0.83004 0.06869 0.24282 0.0
H1426 H 0.84429 0.01009 0.24504 0.0
H1427 H 0.79051 0.03363 0.25631 0.0
H1428 H 0.76395 0.04801 0.2496 0.0
H1429 H 0.75032 0.00779 0.21654 0.0
H1430 H 0.77694 0.9933 0.22284 0.0
H1431 H 0.79002 0.93606 0.28349 0.0
H1432 H 0.7954 0.96573 0.27801 0.0
H1433 H 0.83347 0.95218 0.24187 0.0
H1434 H 0.82861 0.92251 0.24788 0.0
H1435 H 0.7895 0.98118 0.25102 0.0
H1436 H 0.86122 0.98359 0.23597 0.0
H1437 H 0.88736 0.97053 0.24612 0.0
H1438 H 0.86432 0.96085 0.29389 0.0
H1439 H 0.83814 0.97409 0.28413 0.0
C1440 C 0.80877 0.04803 0.21204 0.0
C1441 C 0.81539 0.06156 0.22109 0.0
C1442 C 0.81066 0.03169 0.21797 0.0
C1443 C 0.8187 0.02868 0.23334 0.0
C1444 C 0.82637 0.04206 0.24179 0.0
C1445 C 0.82481 0.05843 0.23564 0.0
C1446 C 0.81761 0.01189 0.24126 0.0
C1447 C 0.83234 0.00373 0.24638 0.0
C1448 C 0.80193 0.00389 0.2436 0.0
C1449 C 0.78578 0.01244 0.23996 0.0
C1450 C 0.78189 0.0279 0.24754 0.0
C1451 C 0.76682 0.03607 0.24381 0.0
C1452 C 0.75547 0.02883 0.23263 0.0
C1453 C 0.75914 0.01339 0.22519 0.0
C1454 C 0.7742 0.00518 0.22884 0.0
C1455 C 0.79974 0.93944 0.2746 0.0
C1456 C 0.80882 0.92703 0.26601 0.0
C1457 C 0.8028 0.95638 0.27147 0.0
C1458 C 0.81484 0.96122 0.25954 0.0
C1459 C 0.82433 0.9488 0.25135 0.0
C1460 C 0.82147 0.93184 0.25471 0.0
C1461 C 0.81624 0.97906 0.25444 0.0
C1462 C 0.8015 0.98749 0.24984 0.0
C1463 C 0.83184 0.98746 0.25318 0.0
C1464 C 0.84765 0.97971 0.25925 0.0
C1465 C 0.86175 0.97876 0.24867 0.0
C1466 C 0.87658 0.97131 0.25435 0.0
C1467 C 0.87748 0.96482 0.27062 0.0
C1468 C 0.86358 0.96583 0.28127 0.0
C1469 C 0.84874 0.97329 0.27566 0.0
H1470 H 0.88896 0.95903 0.27498 0.0
H1471 H 0.74381 0.03518 0.22975 0.0
H1472 H 0.68917 0.03755 0.96199 0.0
H1473 H 0.71806 0.04346 0.97015 0.0
H1474 H 0.70246 0.09066 0.99156 0.0
H1475 H 0.67343 0.0848 0.98352 0.0
H1476 H 0.74069 0.06829 0.96374 0.0
H1477 H 0.72414 0.09474 0.02884 0.0
H1478 H 0.70105 0.09367 0.04949 0.0
H1479 H 0.68682 0.04497 0.03147 0.0
H1480 H 0.70995 0.04567 0.0109 0.0
H1481 H 0.81804 0.08865 0.00284 0.0
H1482 H 0.78883 0.09253 -0.00582 0.0
H1483 H 0.77473 0.04822 0.02197 0.0
H1484 H 0.80375 0.04432 0.03074 0.0
H1485 H 0.75128 0.0728 0.02492 0.0
H1486 H 0.7831 0.04518 0.98124 0.0
H1487 H 0.80631 0.04269 0.9609 0.0
H1488 H 0.79006 0.08787 0.93638 0.0
H1489 H 0.76688 0.09075 0.95675 0.0
C1490 C 0.69191 0.04928 0.96826 0.0
C1491 C 0.67903 0.06062 0.97231 0.0
C1492 C 0.70842 0.05268 0.97283 0.0
C1493 C 0.71232 0.06741 0.98158 0.0
C1494 C 0.69963 0.07915 0.98494 0.0
C1495 C 0.68309 0.07578 0.98033 0.0
C1496 C 0.72942 0.06973 0.98828 0.0
C1497 C 0.74301 0.06951 0.97709 0.0
C1498 C 0.73241 0.07104 0.00572 0.0
C1499 C 0.71863 0.07037 0.0182 0.0
C1500 C 0.7161 0.0838 0.02933 0.0
C1501 C 0.70301 0.08325 0.04102 0.0
C1502 C 0.69243 0.06929 0.04175 0.0
C1503 C 0.69497 0.05581 0.03085 0.0
C1504 C 0.70806 0.05628 0.01916 0.0
C1505 C 0.80867 0.07991 0.0073 0.0
C1506 C 0.8132 0.06607 0.0173 0.0
C1507 C 0.79201 0.08212 0.00234 0.0
C1508 C 0.7797 0.07056 0.00732 0.0
C1509 C 0.78405 0.05729 0.01802 0.0
C1510 C 0.80067 0.05504 0.02293 0.0
C1511 C 0.76254 0.07134 0.00038 0.0
C1512 C 0.74895 0.07207 0.01153 0.0
C1513 C 0.75956 0.07007 0.98294 0.0
C1514 C 0.7734 0.06829 0.97063 0.0
C1515 C 0.78456 0.05465 0.97159 0.0
C1516 C 0.7977 0.05316 0.96005 0.0
C1517 C 0.79969 0.06514 0.94739 0.0
C1518 C 0.78852 0.07862 0.94622 0.0
C1519 C 0.77538 0.08019 0.95775 0.0
H1520 H 0.80986 0.06396 0.93846 0.0
H1521 H 0.68229 0.06891 0.05078 0.0
H1522 H 0.2895 0.43501 0.7732 0.0
H1523 H 0.29251 0.46479 0.76673 0.0
H1524 H 0.3411 0.45532 0.74482 0.0
H1525 H 0.33817 0.42536 0.75123 0.0
H1526 H 0.31538 0.48889 0.77535 0.0
H1527 H 0.3433 0.48058 0.70935 0.0
H1528 H 0.34452 0.45937 0.68685 0.0
H1529 H 0.29732 0.43911 0.70315 0.0
H1530 H 0.29573 0.46034 0.72558 0.0
H1531 H 0.33188 0.57025 0.74166 0.0
H1532 H 0.3368 0.54062 0.7484 0.0
H1533 H 0.29221 0.52697 0.7211 0.0
H1534 H 0.28715 0.55646 0.7144 0.0
H1535 H 0.319 0.50517 0.71531 0.0
H1536 H 0.28919 0.53103 0.76141 0.0
H1537 H 0.28509 0.55216 0.78362 0.0
H1538 H 0.33124 0.53696 0.80683 0.0
H1539 H 0.33573 0.51589 0.78459 0.0
C1540 C 0.3009 0.43927 0.76713 0.0
C1541 C 0.31354 0.42785 0.76258 0.0
C1542 C 0.30263 0.4563 0.76354 0.0
C1543 C 0.31696 0.4622 0.75521 0.0
C1544 C 0.32989 0.45094 0.75115 0.0
C1545 C 0.3282 0.43387 0.75482 0.0
C1546 C 0.31776 0.47996 0.74995 0.0
C1547 C 0.31639 0.49246 0.76225 0.0
C1548 C 0.31883 0.48457 0.73284 0.0
C1549 C 0.31952 0.4719 0.71926 0.0
C1550 C 0.33318 0.47162 0.70809 0.0
C1551 C 0.33392 0.4596 0.69535 0.0
C1552 C 0.32104 0.44786 0.69361 0.0
C1553 C 0.30733 0.44816 0.70455 0.0
C1554 C 0.30651 0.46018 0.71729 0.0
C1555 C 0.32324 0.5609 0.73695 0.0
C1556 C 0.30905 0.56564 0.72763 0.0
C1557 C 0.32607 0.54403 0.74081 0.0
C1558 C 0.31481 0.53169 0.7353 0.0
C1559 C 0.30105 0.53633 0.72541 0.0
C1560 C 0.29812 0.55318 0.72169 0.0
C1561 C 0.31663 0.51406 0.74071 0.0
C1562 C 0.31843 0.5016 0.72844 0.0
C1563 C 0.31562 0.50946 0.75782 0.0
C1564 C 0.3129 0.52204 0.77124 0.0
C1565 C 0.29854 0.5323 0.77117 0.0
C1566 C 0.29613 0.54424 0.78377 0.0
C1567 C 0.30793 0.54594 0.7966 0.0
C1568 C 0.32213 0.53566 0.79687 0.0
C1569 C 0.32461 0.52371 0.78427 0.0
H1570 H 0.30604 0.55519 0.80635 0.0
H1571 H 0.32165 0.43855 0.68375 0.0
H1572 H 0.31321 0.58865 0.51551 0.0
H1573 H 0.28407 0.5939 0.5069 0.0
H1574 H 0.27619 0.54066 0.50141 0.0
H1575 H 0.305 0.53529 0.51028 0.0
H1576 H 0.26672 0.5623 0.47276 0.0
H1577 H 0.26087 0.55627 0.5334 0.0
H1578 H 0.26727 0.56419 0.56258 0.0
H1579 H 0.24949 0.6142 0.55315 0.0
H1580 H 0.24326 0.60663 0.5238 0.0
H1581 H 0.1832 0.53915 0.46939 0.0
H1582 H 0.21263 0.54377 0.47569 0.0
H1583 H 0.20196 0.59525 0.48871 0.0
H1584 H 0.17213 0.59055 0.48276 0.0
H1585 H 0.22176 0.58109 0.51157 0.0
H1586 H 0.22309 0.58611 0.45238 0.0
H1587 H 0.21707 0.57883 0.42296 0.0
H1588 H 0.24374 0.53235 0.42869 0.0
H1589 H 0.24972 0.53922 0.45822 0.0
C1590 C 0.30519 0.5781 0.51254 0.0
C1591 C 0.3113 0.56158 0.51352 0.0
C1592 C 0.28863 0.58111 0.50765 0.0
C1593 C 0.27814 0.56765 0.50349 0.0
C1594 C 0.2842 0.55118 0.50454 0.0
C1595 C 0.3006 0.54814 0.50968 0.0
C1596 C 0.26082 0.57051 0.49778 0.0
C1597 C 0.25684 0.56639 0.48119 0.0
C1598 C 0.2482 0.57647 0.50869 0.0
C1599 C 0.25183 0.58096 0.52635 0.0
C1600 C 0.25849 0.56901 0.5375 0.0
C1601 C 0.26205 0.57342 0.55408 0.0
C1602 C 0.25885 0.58971 0.5597 0.0
C1603 C 0.25201 0.6016 0.54877 0.0
C1604 C 0.24846 0.59726 0.53216 0.0
C1605 C 0.18708 0.55151 0.47347 0.0
C1606 C 0.17537 0.5645 0.47556 0.0
C1607 C 0.20396 0.55416 0.47697 0.0
C1608 C 0.20954 0.56994 0.48238 0.0
C1609 C 0.1979 0.58301 0.48444 0.0
C1610 C 0.18091 0.58032 0.48102 0.0
C1611 C 0.22744 0.57227 0.48662 0.0
C1612 C 0.23162 0.57739 0.50293 0.0
C1613 C 0.24031 0.56737 0.47537 0.0
C1614 C 0.23679 0.56317 0.45757 0.0
C1615 C 0.22758 0.57428 0.44741 0.0
C1616 C 0.22419 0.57024 0.4307 0.0
C1617 C 0.23001 0.55513 0.42397 0.0
C1618 C 0.23925 0.54405 0.43392 0.0
C1619 C 0.24267 0.54803 0.45064 0.0
H1620 H 0.22736 0.55202 0.41103 0.0
H1621 H 0.26161 0.5931 0.57254 0.0
H1622 H 0.75396 0.70323 0.05265 0.0
H1623 H 0.74404 0.69615 0.02461 0.0
H1624 H 0.74644 0.64347 0.0368 0.0
H1625 H 0.75616 0.65046 0.06521 0.0
H1626 H 0.76169 0.65558 0.00368 0.0
H1627 H 0.71077 0.65541 0.03585 0.0
H1628 H 0.6909 0.66674 0.05671 0.0
H1629 H 0.68493 0.71142 0.02714 0.0
H1630 H 0.70497 0.70048 0.00623 0.0
H1631 H 0.72405 0.64524 0.9231 0.0
H1632 H 0.72918 0.64083 0.9531 0.0
H1633 H 0.71793 0.69297 0.96256 0.0
H1634 H 0.7124 0.69732 0.93286 0.0
H1635 H 0.70489 0.67423 0.98635 0.0
H1636 H 0.75862 0.67837 0.95812 0.0
H1637 H 0.78018 0.66998 0.93754 0.0
H1638 H 0.78241 0.62082 0.9596 0.0
H1639 H 0.76069 0.62889 0.98018 0.0
C1640 C 0.75246 0.69012 0.04938 0.0
C1641 C 0.75577 0.67738 0.0611 0.0
C1642 C 0.74675 0.68612 0.03339 0.0
C1643 C 0.74443 0.66933 0.02879 0.0
C1644 C 0.74814 0.6565 0.04025 0.0
C1645 C 0.75362 0.66051 0.05641 0.0
C1646 C 0.73798 0.66551 0.01193 0.0
C1647 C 0.74913 0.65918 -0.0001 0.0
C1648 C 0.72172 0.67062 0.0071 0.0
C1649 C 0.70945 0.67715 0.01952 0.0
C1650 C 0.70531 0.6677 0.03385 0.0
C1651 C 0.694 0.67405 0.04568 0.0
C1652 C 0.68667 0.6898 0.04326 0.0
C1653 C 0.69061 0.69922 0.02899 0.0
C1654 C 0.70192 0.69294 0.01714 0.0
C1655 C 0.72253 0.6557 0.93164 0.0
C1656 C 0.71796 0.67165 0.92564 0.0
C1657 C 0.72549 0.65317 0.94874 0.0
C1658 C 0.72412 0.66662 0.96002 0.0
C1659 C 0.71903 0.6824 0.95409 0.0
C1660 C 0.71595 0.68489 0.93708 0.0
C1661 C 0.72877 0.66474 0.97789 0.0
C1662 C 0.71728 0.67008 0.99013 0.0
C1663 C 0.74483 0.659 0.98286 0.0
C1664 C 0.75788 0.65415 0.97052 0.0
C1665 C 0.76361 0.66573 0.95848 0.0
C1666 C 0.77588 0.66104 0.94684 0.0
C1667 C 0.78262 0.64486 0.94722 0.0
C1668 C 0.77714 0.63334 0.95929 0.0
C1669 C 0.76486 0.63797 0.97094 0.0
H1670 H 0.79211 0.64125 0.9382 0.0
H1671 H 0.67793 0.69469 0.05243 0.0
H1672 H 0.59054 0.50814 0.3154 0.0
H1673 H 0.595 0.49818 0.28656 0.0
H1674 H 0.54209 0.50338 0.27669 0.0
H1675 H 0.53755 0.51348 0.30518 0.0
H1676 H 0.55666 0.4712 0.26846 0.0
H1677 H 0.5662 0.53134 0.26141 0.0
H1678 H 0.58092 0.55786 0.2674 0.0
H1679 H 0.62758 0.53572 0.25201 0.0
H1680 H 0.61315 0.50898 0.24614 0.0
H1681 H 0.53687 0.47035 0.18402 0.0
H1682 H 0.54157 0.47643 0.21351 0.0
H1683 H 0.59501 0.47775 0.20486 0.0
H1684 H 0.5903 0.47224 0.17496 0.0
H1685 H 0.58618 0.50305 0.22378 0.0
H1686 H 0.57628 0.44446 0.22624 0.0
H1687 H 0.56213 0.41761 0.22037 0.0
H1688 H 0.51757 0.43539 0.2449 0.0
H1689 H 0.53135 0.46243 0.25072 0.0
C1690 C 0.57991 0.50727 0.307 0.0
C1691 C 0.5637 0.51153 0.31252 0.0
C1692 C 0.58248 0.50161 0.2906 0.0
C1693 C 0.56884 0.5 0.27964 0.0
C1694 C 0.55273 0.50447 0.28506 0.0
C1695 C 0.55019 0.51031 0.3013 0.0
C1696 C 0.57102 0.49328 0.26256 0.0
C1697 C 0.56308 0.47812 0.25864 0.0
C1698 C 0.58001 0.50204 0.25005 0.0
C1699 C 0.58864 0.51811 0.25356 0.0
C1700 C 0.57963 0.53208 0.25947 0.0
C1701 C 0.58791 0.54716 0.2628 0.0
C1702 C 0.60519 0.54846 0.26015 0.0
C1703 C 0.61421 0.53469 0.2541 0.0
C1704 C 0.60598 0.51957 0.25077 0.0
C1705 C 0.54964 0.47181 0.18838 0.0
C1706 C 0.56323 0.47077 0.17722 0.0
C1707 C 0.55233 0.47517 0.20529 0.0
C1708 C 0.56867 0.47718 0.21148 0.0
C1709 C 0.58231 0.47613 0.20036 0.0
C1710 C 0.57961 0.47297 0.18332 0.0
C1711 C 0.5712 0.4812 0.22942 0.0
C1712 C 0.58007 0.49583 0.23359 0.0
C1713 C 0.5632 0.47183 0.24225 0.0
C1714 C 0.55485 0.45552 0.23886 0.0
C1715 C 0.56343 0.44269 0.2303 0.0
C1716 C 0.55547 0.42742 0.22699 0.0
C1717 C 0.53896 0.4248 0.23224 0.0
C1718 C 0.53036 0.43743 0.24084 0.0
C1719 C 0.53825 0.45272 0.24418 0.0
H1720 H 0.53282 0.41298 0.22966 0.0
H1721 H 0.61158 0.56015 0.26273 0.0
H1722 H 0.76602 0.28483 0.43178 0.0
H1723 H 0.75629 0.28976 0.46039 0.0
H1724 H 0.75358 0.34292 0.45056 0.0
H1725 H 0.76313 0.33809 0.42163 0.0
H1726 H 0.76934 0.33091 0.48355 0.0
H1727 H 0.71941 0.32736 0.44975 0.0
H1728 H 0.70159 0.31465 0.42796 0.0
H1729 H 0.69951 0.2687 0.45607 0.0
H1730 H 0.71755 0.28104 0.47791 0.0
H1731 H 0.72648 0.33787 0.5621 0.0
H1732 H 0.73351 0.34246 0.5325 0.0
H1733 H 0.72676 0.28961 0.52281 0.0
H1734 H 0.71931 0.28505 0.55208 0.0
H1735 H 0.71372 0.30711 0.49836 0.0
H1736 H 0.76598 0.30737 0.52907 0.0
H1737 H 0.78571 0.31738 0.55063 0.0
H1738 H 0.78521 0.36659 0.5286 0.0
H1739 H 0.76529 0.3569 0.50702 0.0
C1740 C 0.76352 0.2976 0.43572 0.0
C1741 C 0.76519 0.31108 0.42447 0.0
C1742 C 0.75796 0.30037 0.45204 0.0
C1743 C 0.75414 0.31666 0.45742 0.0
C1744 C 0.75647 0.33027 0.44651 0.0
C1745 C 0.76184 0.32748 0.43005 0.0
C1746 C 0.74695 0.3191 0.47426 0.0
C1747 C 0.75702 0.32611 0.48679 0.0
C1748 C 0.73105 0.31246 0.47837 0.0
C1749 C 0.71992 0.3051 0.46542 0.0
C1750 C 0.71525 0.31451 0.45124 0.0
C1751 C 0.70509 0.30737 0.43888 0.0
C1752 C 0.69944 0.29087 0.44062 0.0
C1753 C 0.70389 0.28148 0.45474 0.0
C1754 C 0.71407 0.28855 0.46713 0.0
C1755 C 0.72639 0.32728 0.5536 0.0
C1756 C 0.72245 0.31109 0.55939 0.0
C1757 C 0.73045 0.32991 0.53673 0.0
C1758 C 0.73083 0.31634 0.52551 0.0
C1759 C 0.72649 0.30027 0.53124 0.0
C1760 C 0.7223 0.29767 0.54799 0.0
C1761 C 0.73627 0.31854 0.50789 0.0
C1762 C 0.72587 0.31235 0.49515 0.0
C1763 C 0.752 0.32566 0.50366 0.0
C1764 C 0.76399 0.33148 0.51658 0.0
C1765 C 0.76998 0.32036 0.52891 0.0
C1766 C 0.78121 0.32597 0.54112 0.0
C1767 C 0.78666 0.34263 0.54102 0.0
C1768 C 0.78094 0.3537 0.52868 0.0
C1769 C 0.76968 0.34816 0.51646 0.0
H1770 H 0.79537 0.34694 0.55048 0.0
H1771 H 0.69159 0.28536 0.43103 0.0
H1772 H 0.9436 0.52459 0.68506 0.0
H1773 H 0.93904 0.51302 0.71298 0.0
H1774 H 0.88958 0.49672 0.69863 0.0
H1775 H 0.89408 0.50816 0.6703 0.0
H1776 H 0.89605 0.51394 0.73415 0.0
H1777 H 0.91142 0.46765 0.69792 0.0
H1778 H 0.92839 0.45491 0.67539 0.0
H1779 H 0.97313 0.4627 0.70424 0.0
H1780 H 0.95645 0.47576 0.72682 0.0
H1781 H 0.90127 0.46897 0.81191 0.0
H1782 H 0.89397 0.47534 0.78271 0.0
H1783 H 0.94657 0.47992 0.77058 0.0
H1784 H 0.95387 0.4729 0.79935 0.0
H1785 H 0.93188 0.46451 0.74655 0.0
H1786 H 0.91976 0.51463 0.77913 0.0
H1787 H 0.90551 0.53067 0.80145 0.0
H1788 H 0.85765 0.51866 0.77999 0.0
H1789 H 0.87164 0.50238 0.75764 0.0
C1790 C 0.93164 0.51876 0.68783 0.0
C1791 C 0.91926 0.5171 0.67544 0.0
C1792 C 0.92907 0.51218 0.7038 0.0
C1793 C 0.91406 0.50396 0.7077 0.0
C1794 C 0.90124 0.50306 0.69573 0.0
C1795 C 0.90386 0.50953 0.67961 0.0
C1796 C 0.91264 0.49526 0.72394 0.0
C1797 C 0.90347 0.50285 0.73686 0.0
C1798 C 0.92267 0.48106 0.72736 0.0
C1799 C 0.93268 0.47275 0.71402 0.0
C1800 C 0.92489 0.46673 0.69941 0.0
C1801 C 0.93445 0.45945 0.68664 0.0
C1802 C 0.95183 0.45802 0.68837 0.0
C1803 C 0.95967 0.46381 0.70291 0.0
C1804 C 0.95016 0.47113 0.71571 0.0
C1805 C 0.91123 0.47123 0.80293 0.0
C1806 C 0.92812 0.47052 0.80788 0.0
C1807 C 0.90705 0.47491 0.78629 0.0
C1808 C 0.91971 0.4783 0.77449 0.0
C1809 C 0.93657 0.47727 0.77942 0.0
C1810 C 0.94074 0.47332 0.7959 0.0
C1811 C 0.91572 0.4835 0.75709 0.0
C1812 C 0.92395 0.47525 0.74388 0.0
C1813 C 0.9051 0.49731 0.75349 0.0
C1814 C 0.89672 0.50712 0.76687 0.0
C1815 C 0.90619 0.51532 0.77925 0.0
C1816 C 0.89817 0.52446 0.79189 0.0
C1817 C 0.88068 0.52563 0.79217 0.0
C1818 C 0.87119 0.5177 0.77978 0.0
C1819 C 0.87915 0.50852 0.76713 0.0
H1820 H 0.87449 0.53272 0.80196 0.0
H1821 H 0.95922 0.45239 0.67846 0.0
H1822 H 0.81429 0.90145 0.47628 0.0
H1823 H 0.78586 0.89543 0.48666 0.0
H1824 H 0.7748 0.94842 0.48705 0.0
H1825 H 0.80287 0.95452 0.47654 0.0
H1826 H 0.76691 0.93045 0.51762 0.0
H1827 H 0.76005 0.92696 0.45673 0.0
H1828 H 0.76639 0.91502 0.4289 0.0
H1829 H 0.75211 0.86608 0.44642 0.0
H1830 H 0.7459 0.87772 0.47444 0.0
H1831 H 0.68262 0.95072 0.51798 0.0
H1832 H 0.71233 0.94604 0.5131 0.0
H1833 H 0.70324 0.89304 0.50666 0.0
H1834 H 0.67314 0.89778 0.51102 0.0
H1835 H 0.72284 0.90394 0.48273 0.0
H1836 H 0.72421 0.90819 0.54186 0.0
H1837 H 0.71787 0.91961 0.56988 0.0
H1838 H 0.74284 0.96559 0.55702 0.0
H1839 H 0.74912 0.95456 0.52883 0.0
C1840 C 0.80573 0.91178 0.47852 0.0
C1841 C 0.81076 0.92845 0.47562 0.0
C1842 C 0.78956 0.90832 0.48443 0.0
C1843 C 0.77837 0.92151 0.48767 0.0
C1844 C 0.78335 0.93811 0.4847 0.0
C1845 C 0.79935 0.94155 0.4786 0.0
C1846 C 0.76136 0.91831 0.4942 0.0
C1847 C 0.75722 0.92465 0.51006 0.0
C1848 C 0.74902 0.91011 0.48455 0.0
C1849 C 0.75274 0.90316 0.46772 0.0
C1850 C 0.75843 0.91362 0.45469 0.0
C1851 C 0.76196 0.90692 0.43887 0.0
C1852 C 0.75972 0.88979 0.43591 0.0
C1853 C 0.75388 0.87934 0.44874 0.0
C1854 C 0.75035 0.88598 0.46459 0.0
C1855 C 0.68692 0.93802 0.5157 0.0
C1856 C 0.67555 0.9246 0.51488 0.0
C1857 C 0.70396 0.93534 0.51304 0.0
C1858 C 0.71008 0.91913 0.50983 0.0
C1859 C 0.6988 0.90563 0.50922 0.0
C1860 C 0.68164 0.90835 0.51173 0.0
C1861 C 0.7281 0.91676 0.50596 0.0
C1862 C 0.73252 0.90934 0.4906 0.0
C1863 C 0.74076 0.92383 0.51618 0.0
C1864 C 0.73709 0.93054 0.53318 0.0
C1865 C 0.72827 0.92077 0.54496 0.0
C1866 C 0.72469 0.92718 0.56089 0.0
C1867 C 0.72994 0.94332 0.56522 0.0
C1868 C 0.73879 0.95308 0.55365 0.0
C1869 C 0.7424 0.94674 0.5377 0.0
H1870 H 0.72715 0.94826 0.57756 0.0
H1871 H 0.76245 0.88463 0.42366 0.0
H1872 H 0.17209 0.34141 0.25507 0.0
H1873 H 0.17346 0.32363 0.27992 0.0
H1874 H 0.21011 0.35679 0.30178 0.0
H1875 H 0.20891 0.37469 0.27686 0.0
H1876 H 0.22089 0.3247 0.30068 0.0
H1877 H 0.17213 0.35313 0.31972 0.0
H1878 H 0.14371 0.36517 0.3179 0.0
H1879 H 0.12325 0.31613 0.3092 0.0
H1880 H 0.1516 0.30381 0.31071 0.0
H1881 H 0.22755 0.27294 0.37222 0.0
H1882 H 0.221 0.29773 0.35547 0.0
H1883 H 0.18501 0.26918 0.32704 0.0
H1884 H 0.19138 0.24425 0.34381 0.0
H1885 H 0.1739 0.30167 0.33447 0.0
H1886 H 0.22284 0.27426 0.3115 0.0
H1887 H 0.25127 0.26211 0.31252 0.0
H1888 H 0.27124 0.30963 0.32806 0.0
H1889 H 0.24286 0.32201 0.32735 0.0
C1890 C 0.18022 0.34513 0.26528 0.0
C1891 C 0.19053 0.35937 0.2639 0.0
C1892 C 0.1809 0.33499 0.27953 0.0
C1893 C 0.19186 0.33892 0.2927 0.0
C1894 C 0.20156 0.35357 0.29174 0.0
C1895 C 0.20083 0.36379 0.2775 0.0
C1896 C 0.19455 0.32669 0.30642 0.0
C1897 C 0.21069 0.31997 0.30836 0.0
C1898 C 0.18113 0.32023 0.3161 0.0
C1899 C 0.16403 0.32756 0.31522 0.0
C1900 C 0.1616 0.34492 0.31729 0.0
C1901 C 0.14549 0.3518 0.31634 0.0
C1902 C 0.13169 0.34143 0.31341 0.0
C1903 C 0.13396 0.32415 0.31146 0.0
C1904 C 0.15004 0.31721 0.31239 0.0
C1905 C 0.21811 0.27192 0.36252 0.0
C1906 C 0.21012 0.25654 0.35923 0.0
C1907 C 0.21439 0.28612 0.35297 0.0
C1908 C 0.20265 0.28521 0.33994 0.0
C1909 C 0.19411 0.27011 0.33707 0.0
C1910 C 0.19784 0.25586 0.3466 0.0
C1911 C 0.20017 0.29965 0.32854 0.0
C1912 C 0.18411 0.30668 0.32699 0.0
C1913 C 0.21364 0.30642 0.31915 0.0
C1914 C 0.23071 0.299 0.31958 0.0
C1915 C 0.23327 0.28208 0.31529 0.0
C1916 C 0.24938 0.27516 0.31578 0.0
C1917 C 0.26305 0.28507 0.32041 0.0
C1918 C 0.26064 0.30195 0.32451 0.0
C1919 C 0.24455 0.30893 0.32406 0.0
H1920 H 0.27551 0.2797 0.32077 0.0
H1921 H 0.11923 0.34678 0.31268 0.0
H1922 H 0.97256 0.967 0.62847 0.0
H1923 H 0.94795 0.95897 0.61223 0.0
H1924 H 0.97989 0.93601 0.57503 0.0
H1925 H 0.0046 0.94377 0.5913 0.0
H1926 H 0.9413 0.97062 0.58185 0.0
H1927 H 0.95847 0.90519 0.55445 0.0
H1928 H 0.97303 0.87932 0.56322 0.0
H1929 H 0.96269 0.89064 0.61486 0.0
H1930 H 0.94786 0.91645 0.6064 0.0
H1931 H 0.90471 0.93131 0.50315 0.0
H1932 H 0.9251 0.92982 0.52594 0.0
H1933 H 0.88834 0.94977 0.56031 0.0
H1934 H 0.86793 0.95157 0.53759 0.0
H1935 H 0.92731 0.91521 0.55726 0.0
H1936 H 0.90761 0.97918 0.58427 0.0
H1937 H 0.8934 0.0052 0.57524 0.0
H1938 H 0.90974 -0.00314 0.52457 0.0
H1939 H 0.92422 0.97094 0.53335 0.0
C1940 C 0.97437 0.96001 0.61697 0.0
C1941 C 0.99057 0.95617 0.6111 0.0
C1942 C 0.96027 0.95542 0.60772 0.0
C1943 C 0.96208 0.94685 0.59246 0.0
C1944 C 0.97819 0.9424 0.5869 0.0
C1945 C 0.99231 0.94695 0.59617 0.0
C1946 C 0.94734 0.94424 0.58151 0.0
C1947 C 0.93802 0.95842 0.57679 0.0
C1948 C 0.94335 0.92841 0.57456 0.0
C1949 C 0.95218 0.91285 0.57978 0.0
C1950 C 0.95924 0.90213 0.56768 0.0
C1951 C 0.96755 0.88748 0.57259 0.0
C1952 C 0.96883 0.88336 0.58959 0.0
C1953 C 0.96175 0.89388 0.6017 0.0
C1954 C 0.95342 0.90854 0.59685 0.0
C1955 C 0.90087 0.93516 0.5156 0.0
C1956 C 0.88479 0.94184 0.51849 0.0
C1957 C 0.91252 0.93421 0.52862 0.0
C1958 C 0.90828 0.93992 0.54471 0.0
C1959 C 0.8919 0.94553 0.5479 0.0
C1960 C 0.88027 0.94656 0.53488 0.0
C1961 C 0.92143 0.94158 0.55766 0.0
C1962 C 0.93047 0.9273 0.56262 0.0
C1963 C 0.92526 0.95733 0.56484 0.0
C1964 C 0.91681 0.97303 0.55945 0.0
C1965 C 0.9082 0.98294 0.57122 0.0
C1966 C 0.9001 -0.00234 0.56614 0.0
C1967 C 0.90061 0.00264 0.54933 0.0
C1968 C 0.90929 0.99295 0.53758 0.0
C1969 C 0.91743 0.97824 0.54259 0.0
H1970 H 0.89432 0.01403 0.54543 0.0
H1971 H 0.97527 0.87201 0.59337 0.0
H1972 H 0.29937 0.76139 0.85069 0.0
H1973 H 0.30674 0.738 0.83239 0.0
H1974 H 0.28494 0.70322 0.8677 0.0
H1975 H 0.27766 0.7265 0.88624 0.0
H1976 H 0.31285 0.6898 0.85074 0.0
H1977 H 0.26067 0.71731 0.83874 0.0
H1978 H 0.24264 0.74192 0.8335 0.0
H1979 H 0.27127 0.75386 0.78941 0.0
H1980 H 0.28966 0.72944 0.79455 0.0
H1981 H 0.28465 0.62686 0.79258 0.0
H1982 H 0.28735 0.6479 0.81475 0.0
H1983 H 0.30931 0.68251 0.77936 0.0
H1984 H 0.30672 0.66166 0.75716 0.0
H1985 H 0.28235 0.69573 0.7968 0.0
H1986 H 0.33336 0.66561 0.80855 0.0
H1987 H 0.35026 0.64043 0.81473 0.0
H1988 H 0.32202 0.63219 0.8599 0.0
H1989 H 0.30478 0.6572 0.85387 0.0
C1990 C 0.29651 0.74875 0.8548 0.0
C1991 C 0.2876 0.74584 0.86975 0.0
C1992 C 0.30075 0.7354 0.84432 0.0
C1993 C 0.29607 0.71897 0.84858 0.0
C1994 C 0.28859 0.71584 0.86419 0.0
C1995 C 0.28437 0.72919 0.87472 0.0
C1996 C 0.29675 0.70556 0.83582 0.0
C1997 C 0.30613 0.691 0.83898 0.0
C1998 C 0.28793 0.70721 0.82052 0.0
C1999 C 0.27665 0.72166 0.81713 0.0
C2000 C 0.26318 0.72524 0.82798 0.0
C2001 C 0.25289 0.73915 0.82503 0.0
C2002 C 0.25585 0.74947 0.81116 0.0
C2003 C 0.26903 0.74586 0.80017 0.0
C2004 C 0.27938 0.73198 0.80309 0.0
C2005 C 0.29024 0.63888 0.78955 0.0
C2006 C 0.29537 0.64262 0.77308 0.0
C2007 C 0.29183 0.65084 0.80225 0.0
C2008 C 0.29856 0.66671 0.79865 0.0
C2009 C 0.30409 0.67032 0.78235 0.0
C2010 C 0.3026 0.65836 0.76969 0.0
C2011 C 0.29871 0.68002 0.81153 0.0
C2012 C 0.28926 0.69455 0.80846 0.0
C2013 C 0.30726 0.67817 0.82696 0.0
C2014 C 0.31768 0.66319 0.83067 0.0
C2015 C 0.33066 0.65835 0.81973 0.0
C2016 C 0.34032 0.64412 0.82322 0.0
C2017 C 0.33719 0.63469 0.83768 0.0
C2018 C 0.32442 0.63949 0.8487 0.0
C2019 C 0.31471 0.65371 0.84526 0.0
H2020 H 0.34467 0.62367 0.84036 0.0
H2021 H 0.24791 0.76026 0.80894 0.0
H2022 H 0.58815 0.05625 0.00796 0.0
H2023 H 0.56924 0.05724 0.03192 0.0
H2024 H 0.6064 0.03256 0.06256 0.0
H2025 H 0.62538 0.03119 0.03847 0.0
H2026 H 0.57746 0.01704 0.06477 0.0
H2027 H 0.59492 0.07358 0.07015 0.0
H2028 H 0.60175 0.1023 0.0609 0.0
H2029 H 0.55065 0.10998 0.04581 0.0
H2030 H 0.54355 0.08121 0.05473 0.0
H2031 H 0.51819 0.01778 0.13087 0.0
H2032 H 0.54396 0.02471 0.11578 0.0
H2033 H 0.51492 0.0482 0.07662 0.0
H2034 H 0.48909 0.04162 0.09175 0.0
H2035 H 0.54339 0.06579 0.08321 0.0
H2036 H 0.52799 0.0076 0.07312 0.0
H2037 H 0.52138 0.97861 0.08169 0.0
H2038 H 0.56941 0.97429 0.10555 0.0
H2039 H 0.57624 0.00337 0.09728 0.0
C2040 C 0.59245 0.05125 0.01984 0.0
C2041 C 0.60823 0.0435 0.02125 0.0
C2042 C 0.58164 0.05195 0.03359 0.0
C2043 C 0.58646 0.04511 0.04908 0.0
C2044 C 0.60246 0.03795 0.05072 0.0
C2045 C 0.61328 0.03718 0.03694 0.0
C2046 C 0.57407 0.04382 0.06288 0.0
C2047 C 0.57032 0.02779 0.06913 0.0
C2048 C 0.56455 0.05779 0.06834 0.0
C2049 C 0.56872 0.07517 0.06304 0.0
C2050 C 0.58515 0.08134 0.06475 0.0
C2051 C 0.58908 0.09765 0.05958 0.0
C2052 C 0.57665 0.10795 0.05275 0.0
C2053 C 0.56027 0.10198 0.05111 0.0
C2054 C 0.55628 0.08568 0.05625 0.0
C2055 C 0.51727 0.02457 0.11913 0.0
C2056 C 0.50156 0.02896 0.1124 0.0
C2057 C 0.53202 0.02852 0.11053 0.0
C2058 C 0.53132 0.03676 0.09499 0.0
C2059 C 0.51572 0.04183 0.08861 0.0
C2060 C 0.50097 0.03797 0.09724 0.0
C2061 C 0.54662 0.039 0.0847 0.0
C2062 C 0.55085 0.05516 0.07911 0.0
C2063 C 0.55664 0.02517 0.07983 0.0
C2064 C 0.55254 0.0077 0.08477 0.0
C2065 C 0.53709 0.00051 0.08031 0.0
C2066 C 0.53331 0.98405 0.08509 0.0
C2067 C 0.54494 0.97462 0.09421 0.0
C2068 C 0.5604 0.98162 0.09852 0.0
C2069 C 0.56424 -0.00192 0.09379 0.0
H2070 H 0.54199 0.96189 0.0979 0.0
H2071 H 0.57971 0.12057 0.04875 0.0
H2072 H 0.21091 0.71231 0.1139 0.0
H2073 H 0.20216 0.68943 0.13225 0.0
H2074 H 0.17492 0.72448 0.16325 0.0
H2075 H 0.18387 0.74754 0.14511 0.0
H2076 H 0.19597 0.70636 0.18128 0.0
H2077 H 0.15434 0.69436 0.14022 0.0
H2078 H 0.143 0.68896 0.11199 0.0
H2079 H 0.17392 0.64504 0.10766 0.0
H2080 H 0.18564 0.6503 0.13577 0.0
H2081 H 0.17136 0.64365 0.23754 0.0
H2082 H 0.16767 0.66452 0.21545 0.0
H2083 H 0.19911 0.63539 0.1824 0.0
H2084 H 0.20277 0.61427 0.20438 0.0
H2085 H 0.17236 0.65094 0.16569 0.0
H2086 H 0.2166 0.66525 0.20443 0.0
H2087 H 0.2286 0.67047 0.23243 0.0
H2088 H 0.19315 0.71025 0.24051 0.0
H2089 H 0.18078 0.70509 0.21263 0.0
C2090 C 0.20283 0.71515 0.12446 0.0
C2091 C 0.19825 0.73179 0.12815 0.0
C2092 C 0.19772 0.70201 0.13487 0.0
C2093 C 0.18782 0.70524 0.14906 0.0
C2094 C 0.18256 0.72173 0.15234 0.0
C2095 C 0.18771 0.73489 0.14196 0.0
C2096 C 0.18472 0.69179 0.16151 0.0
C2097 C 0.19042 0.69439 0.17794 0.0
C2098 C 0.17794 0.67601 0.15702 0.0
C2099 C 0.17096 0.67281 0.14008 0.0
C2100 C 0.15883 0.68363 0.1332 0.0
C2101 C 0.15231 0.68057 0.11723 0.0
C2102 C 0.15776 0.66668 0.10803 0.0
C2103 C 0.16972 0.6558 0.1148 0.0
C2104 C 0.17629 0.6588 0.13076 0.0
C2105 C 0.1773 0.64151 0.22549 0.0
C2106 C 0.18761 0.62743 0.22281 0.0
C2107 C 0.17513 0.65345 0.21288 0.0
C2108 C 0.18333 0.65159 0.19743 0.0
C2109 C 0.1927 0.63703 0.19428 0.0
C2110 C 0.19485 0.62503 0.20689 0.0
C2111 C 0.18363 0.66562 0.1853 0.0
C2112 C 0.17758 0.66306 0.169 0.0
C2113 C 0.19015 0.68147 0.18982 0.0
C2114 C 0.19764 0.68466 0.20654 0.0
C2115 C 0.21128 0.67502 0.21223 0.0
C2116 C 0.21816 0.67798 0.22807 0.0
C2117 C 0.21161 0.69065 0.23826 0.0
C2118 C 0.19819 0.70042 0.23261 0.0
C2119 C 0.19124 0.69749 0.2168 0.0
H2120 H 0.21696 0.69293 0.25052 0.0
H2121 H 0.15269 0.66434 0.09567 0.0
H2122 H 0.62209 0.95028 0.44419 0.0
H2123 H 0.60309 0.95036 0.42021 0.0
H2124 H 0.56581 0.92428 0.44956 0.0
H2125 H 0.58476 0.92397 0.47359 0.0
H2126 H 0.56613 0.914 0.41628 0.0
H2127 H 0.56469 0.9657 0.44801 0.0
H2128 H 0.57712 0.9908 0.46109 0.0
H2129 H 0.59506 0.00737 0.41302 0.0
H2130 H 0.58293 0.98222 0.39969 0.0
H2131 H 0.4883 0.94299 0.38416 0.0
H2132 H 0.51308 0.93438 0.39992 0.0
H2133 H 0.54433 0.96421 0.36725 0.0
H2134 H 0.51961 0.97306 0.35152 0.0
H2135 H 0.54962 0.97162 0.3993 0.0
H2136 H 0.54712 0.92151 0.36697 0.0
H2137 H 0.5342 0.89649 0.35426 0.0
H2138 H 0.52308 0.87691 0.40324 0.0
H2139 H 0.53572 0.90193 0.41625 0.0
C2140 C 0.60998 0.94428 0.44548 0.0
C2141 C 0.60483 0.93737 0.46091 0.0
C2142 C 0.59915 0.94433 0.43175 0.0
C2143 C 0.58297 0.93757 0.43324 0.0
C2144 C 0.57824 0.9296 0.4482 0.0
C2145 C 0.58907 0.92951 0.46195 0.0
C2146 C 0.57038 0.94041 0.41993 0.0
C2147 C 0.56244 0.92657 0.41256 0.0
C2148 C 0.56585 0.95683 0.41491 0.0
C2149 C 0.57309 0.97199 0.42289 0.0
C2150 C 0.5714 0.97463 0.44025 0.0
C2151 C 0.57837 0.98887 0.44771 0.0
C2152 C 0.58692 0.00065 0.4379 0.0
C2153 C 0.58847 -0.00178 0.4206 0.0
C2154 C 0.58155 0.98398 0.41309 0.0
C2155 C 0.50046 0.94753 0.38015 0.0
C2156 C 0.50194 0.95885 0.36667 0.0
C2157 C 0.51464 0.94249 0.38911 0.0
C2158 C 0.53056 0.94859 0.38469 0.0
C2159 C 0.53215 0.95935 0.37085 0.0
C2160 C 0.51799 0.9644 0.36188 0.0
C2161 C 0.54519 0.9452 0.39561 0.0
C2162 C 0.55348 0.959 0.40268 0.0
C2163 C 0.54993 0.92874 0.40036 0.0
C2164 C 0.54226 0.91368 0.39259 0.0
C2165 C 0.54179 0.91195 0.37504 0.0
C2166 C 0.53454 0.89774 0.36778 0.0
C2167 C 0.5278 0.88513 0.37793 0.0
C2168 C 0.52831 0.88669 0.39538 0.0
C2169 C 0.53553 0.90087 0.40271 0.0
H2170 H 0.5222 0.87414 0.37229 0.0
H2171 H 0.5923 0.01167 0.44369 0.0
H2172 H 0.27176 0.26257 0.61495 0.0
H2173 H 0.28244 0.28556 0.63189 0.0
H2174 H 0.31192 0.25063 0.66092 0.0
H2175 H 0.30101 0.22738 0.64417 0.0
H2176 H 0.29451 0.27064 0.68073 0.0
H2177 H 0.33076 0.27887 0.63402 0.0
H2178 H 0.33866 0.28221 0.60429 0.0
H2179 H 0.30866 0.32686 0.601 0.0
H2180 H 0.30038 0.32367 0.63065 0.0
H2181 H 0.3248 0.33671 0.72959 0.0
H2182 H 0.32717 0.31467 0.7085 0.0
H2183 H 0.29212 0.34109 0.67687 0.0
H2184 H 0.28981 0.36335 0.69778 0.0
H2185 H 0.31702 0.32436 0.6586 0.0
H2186 H 0.27785 0.31333 0.70395 0.0
H2187 H 0.27062 0.31078 0.73393 0.0
H2188 H 0.30654 0.27099 0.73948 0.0
H2189 H 0.3143 0.27362 0.7096 0.0
C2190 C 0.28066 0.25974 0.62481 0.0
C2191 C 0.28546 0.2431 0.62825 0.0
C2192 C 0.28686 0.27295 0.63441 0.0
C2193 C 0.29814 0.26985 0.64754 0.0
C2194 C 0.30327 0.2533 0.65079 0.0
C2195 C 0.29702 0.24004 0.64121 0.0
C2196 C 0.30332 0.28373 0.65873 0.0
C2197 C 0.29982 0.28222 0.67592 0.0
C2198 C 0.30993 0.29898 0.65242 0.0
C2199 C 0.31486 0.30096 0.63455 0.0
C2200 C 0.32574 0.28933 0.62693 0.0
C2201 C 0.33031 0.29121 0.61009 0.0
C2202 C 0.32415 0.30472 0.60075 0.0
C2203 C 0.31342 0.3164 0.60824 0.0
C2204 C 0.30881 0.31457 0.62508 0.0
C2205 C 0.31785 0.33804 0.718 0.0
C2206 C 0.30685 0.35162 0.7155 0.0
C2207 C 0.31926 0.32544 0.70595 0.0
C2208 C 0.30958 0.32614 0.6913 0.0
C2209 C 0.29965 0.34033 0.68814 0.0
C2210 C 0.29829 0.35299 0.70015 0.0
C2211 C 0.30802 0.31122 0.68042 0.0
C2212 C 0.31207 0.3126 0.66336 0.0
C2213 C 0.3019 0.29581 0.68681 0.0
C2214 C 0.2968 0.29381 0.70461 0.0
C2215 C 0.28427 0.30411 0.71159 0.0
C2216 C 0.28009 0.30266 0.72857 0.0
C2217 C 0.28816 0.29077 0.73862 0.0
C2218 C 0.30035 0.28023 0.73169 0.0
C2219 C 0.30466 0.28171 0.71474 0.0
H2220 H 0.28492 0.28968 0.75177 0.0
H2221 H 0.3277 0.30615 0.58772 0.0
H2222 H 0.8664 0.04273 0.95167 0.0
H2223 H 0.88565 0.04203 0.92765 0.0
H2224 H 0.92712 0.05312 0.9604 0.0
H2225 H 0.90806 0.05418 0.98439 0.0
H2226 H 0.9133 0.06733 0.91578 0.0
H2227 H 0.95432 0.01993 0.95022 0.0
H2228 H 0.9521 -0.00129 0.9727 0.0
H2229 H 0.9007 0.98971 0.95951 0.0
H2230 H 0.90272 0.01067 0.9368 0.0
H2231 H -0.00297 0.05031 0.88285 0.0
H2232 H 0.97282 0.05719 0.90059 0.0
H2233 H 0.94502 0.0164 0.87865 0.0
H2234 H 0.96892 0.00965 0.86063 0.0
H2235 H 0.94983 0.01683 0.91596 0.0
H2236 H 0.93076 0.04991 0.86904 0.0
H2237 H 0.93335 0.07161 0.84711 0.0
H2238 H 0.9409 0.10925 0.88483 0.0
H2239 H 0.93862 0.08771 0.90699 0.0
C2240 C 0.87958 0.04532 0.9537 0.0
C2241 C 0.88575 0.04838 0.96993 0.0
C2242 C 0.8905 0.04502 0.93998 0.0
C2243 C 0.90772 0.04748 0.94237 0.0
C2244 C 0.91382 0.05124 0.95839 0.0
C2245 C 0.90291 0.05181 0.97206 0.0
C2246 C 0.91962 0.04437 0.92857 0.0
C2247 C 0.92127 0.05629 0.91573 0.0
C2248 C 0.92989 0.02992 0.9286 0.0
C2249 C 0.92863 0.017 0.94195 0.0
C2250 C 0.94258 0.01337 0.95209 0.0
C2251 C 0.94135 0.00139 0.96487 0.0
C2252 C 0.92625 0.99291 0.96757 0.0
C2253 C 0.91237 -0.00366 0.95745 0.0
C2254 C 0.91354 0.00828 0.94464 0.0
C2255 C 0.98566 0.04299 0.88161 0.0
C2256 C 0.9849 0.02938 0.87043 0.0
C2257 C 0.97186 0.04698 0.89167 0.0
C2258 C 0.95722 0.03729 0.89083 0.0
C2259 C 0.95623 0.02404 0.87936 0.0
C2260 C 0.96989 0.02023 0.86909 0.0
C2261 C 0.94364 0.03983 0.90313 0.0
C2262 C 0.94178 0.02782 0.91586 0.0
C2263 C 0.93326 0.05421 0.90296 0.0
C2264 C 0.9347 0.06716 0.88966 0.0
C2265 C 0.93316 0.06278 0.87266 0.0
C2266 C 0.93453 0.07506 0.86019 0.0
C2267 C 0.93734 0.09179 0.86457 0.0
C2268 C 0.93875 0.09628 0.88145 0.0
C2269 C 0.93741 0.08404 0.89397 0.0
H2270 H 0.93838 0.10128 0.8549 0.0
H2271 H 0.92531 0.98366 0.97749 0.0
H2272 H 0.34876 0.17945 0.23577 0.0
H2273 H 0.33067 0.16955 0.25849 0.0
H2274 H 0.35571 0.20272 0.29303 0.0
H2275 H 0.37403 0.21248 0.27053 0.0
H2276 H 0.34572 0.17306 0.30828 0.0
H2277 H 0.32245 0.21632 0.27197 0.0
H2278 H 0.31434 0.22749 0.24428 0.0
H2279 H 0.28033 0.18632 0.23747 0.0
H2280 H 0.28855 0.17468 0.26498 0.0
H2281 H 0.28541 0.20398 0.36522 0.0
H2282 H 0.3073 0.19766 0.3448 0.0
H2283 H 0.2724 0.16765 0.31644 0.0
H2284 H 0.2503 0.17421 0.33663 0.0
H2285 H 0.28686 0.18989 0.29708 0.0
H2286 H 0.30639 0.14963 0.33643 0.0
H2287 H 0.31493 0.13863 0.36404 0.0
H2288 H 0.35552 0.17395 0.36574 0.0
H2289 H 0.34708 0.18534 0.33824 0.0
C2290 C 0.35067 0.18439 0.24827 0.0
C2291 C 0.36259 0.19702 0.25126 0.0
C2292 C 0.34035 0.17867 0.26124 0.0
C2293 C 0.34169 0.18563 0.27734 0.0
C2294 C 0.35447 0.19722 0.28067 0.0
C2295 C 0.36485 0.20288 0.26774 0.0
C2296 C 0.32843 0.18282 0.29001 0.0
C2297 C 0.33283 0.17669 0.30591 0.0
C2298 C 0.31157 0.18727 0.28671 0.0
C2299 C 0.30627 0.19452 0.27041 0.0
C2300 C 0.31332 0.2096 0.26452 0.0
C2301 C 0.30871 0.216 0.24886 0.0
C2302 C 0.29687 0.20758 0.2391 0.0
C2303 C 0.28954 0.19279 0.24502 0.0
C2304 C 0.29419 0.18627 0.26063 0.0
C2305 C 0.28244 0.1958 0.3548 0.0
C2306 C 0.26606 0.18975 0.35246 0.0
C2307 C 0.29502 0.19209 0.34319 0.0
C2308 C 0.29152 0.18207 0.32915 0.0
C2309 C 0.27537 0.17539 0.3272 0.0
C2310 C 0.26275 0.17918 0.33874 0.0
C2311 C 0.30411 0.18031 0.31559 0.0
C2312 C 0.29961 0.18576 0.29947 0.0
C2313 C 0.32084 0.17526 0.31876 0.0
C2314 C 0.32603 0.16841 0.33529 0.0
C2315 C 0.31706 0.15514 0.34273 0.0
C2316 C 0.3219 0.14882 0.35836 0.0
C2317 C 0.33574 0.1556 0.36665 0.0
C2318 C 0.3448 0.1687 0.35931 0.0
C2319 C 0.34001 0.17508 0.34368 0.0
H2320 H 0.33946 0.15069 0.37875 0.0
H2321 H 0.29333 0.21256 0.22697 0.0
H2322 H 0.06062 0.00862 0.58305 0.0
H2323 H 0.06042 0.03226 0.5636 0.0
H2324 H 0.03136 0.06126 0.59888 0.0
H2325 H 0.03133 0.03761 0.6184 0.0
H2326 H 0.01691 0.06022 0.56852 0.0
H2327 H 0.07133 0.07244 0.58981 0.0
H2328 H 0.10042 0.06635 0.59827 0.0
H2329 H 0.11266 0.05259 0.54765 0.0
H2330 H 0.08356 0.05836 0.53892 0.0
H2331 H 0.01383 0.13012 0.51473 0.0
H2332 H 0.0212 0.11339 0.5393 0.0
H2333 H 0.04943 0.07947 0.50798 0.0
H2334 H 0.04226 0.09621 0.48327 0.0
H2335 H 0.06517 0.08562 0.53842 0.0
H2336 H 0.01072 0.06882 0.51837 0.0
H2337 H 0.98146 0.07305 0.50945 0.0
H2338 H 0.96949 0.09426 0.55751 0.0
H2339 H -0.00123 0.09017 0.56669 0.0
C2340 C 0.05441 0.02011 0.58682 0.0
C2341 C 0.04585 0.02116 0.60222 0.0
C2342 C 0.05441 0.03366 0.57571 0.0
C2343 C 0.04594 0.04853 0.57984 0.0
C2344 C 0.03798 0.04988 0.59548 0.0
C2345 C 0.03799 0.03634 0.60662 0.0
C2346 C 0.04385 0.06189 0.56709 0.0
C2347 C 0.02748 0.06608 0.56224 0.0
C2348 C 0.05765 0.06912 0.55856 0.0
C2349 C 0.07521 0.06573 0.56373 0.0
C2350 C 0.08018 0.068 0.5805 0.0
C2351 C 0.09669 0.06462 0.58534 0.0
C2352 C 0.10837 0.05906 0.57351 0.0
C2353 C 0.10359 0.05689 0.5568 0.0
C2354 C 0.08709 0.06024 0.55189 0.0
C2355 C 0.02176 0.11921 0.51305 0.0
C2356 C 0.02728 0.11439 0.49699 0.0
C2357 C 0.02596 0.10967 0.52711 0.0
C2358 C 0.03568 0.09511 0.52539 0.0
C2359 C 0.0419 0.09068 0.50954 0.0
C2360 C 0.03771 0.10022 0.49543 0.0
C2361 C 0.03827 0.08381 0.5399 0.0
C2362 C 0.05467 0.07997 0.54498 0.0
C2363 C 0.02452 0.07676 0.54863 0.0
C2364 C 0.00695 0.07938 0.54313 0.0
C2365 C 0.00188 0.07452 0.52698 0.0
C2366 C 0.98528 0.07686 0.52189 0.0
C2367 C 0.97362 0.08401 0.53288 0.0
C2368 C 0.97854 0.08876 0.549 0.0
C2369 C -0.00487 0.08641 0.55416 0.0
H2370 H 0.96076 0.08579 0.52893 0.0
H2371 H 0.12114 0.05645 0.57729 0.0
H2372 H 0.15525 0.76806 0.7264 0.0
H2373 H 0.1742 0.77053 0.75032 0.0
H2374 H 0.13195 0.78106 0.78266 0.0
H2375 H 0.11292 0.7774 0.75893 0.0
H2376 H 0.1832 0.79314 0.76945 0.0
H2377 H 0.13827 0.76867 0.82207 0.0
H2378 H 0.11538 0.74811 0.82539 0.0
H2379 H 0.13361 0.72064 0.78279 0.0
H2380 H 0.15673 0.74089 0.77936 0.0
H2381 H 0.22045 0.81489 0.84549 0.0
H2382 H 0.20017 0.81115 0.82281 0.0
H2383 H 0.20023 0.75765 0.83176 0.0
H2384 H 0.21953 0.76162 0.85524 0.0
H2385 H 0.17108 0.76534 0.82386 0.0
H2386 H 0.22361 0.7771 0.79879 0.0
H2387 H 0.25011 0.7923 0.79387 0.0
H2388 H 0.22253 0.83582 0.77803 0.0
H2389 H 0.19586 0.82092 0.78307 0.0
C2390 C 0.15006 0.77093 0.73864 0.0
C2391 C 0.13268 0.77251 0.7409 0.0
C2392 C 0.16088 0.77236 0.7523 0.0
C2393 C 0.15453 0.77574 0.76841 0.0
C2394 C 0.13716 0.77795 0.77051 0.0
C2395 C 0.1263 0.77601 0.75693 0.0
C2396 C 0.16609 0.77707 0.78295 0.0
C2397 C 0.18053 0.78701 0.78132 0.0
C2398 C 0.16297 0.7687 0.79834 0.0
C2399 C 0.14912 0.75642 0.80036 0.0
C2400 C 0.13742 0.75822 0.81345 0.0
C2401 C 0.1244 0.74662 0.81534 0.0
C2402 C 0.12301 0.73311 0.80427 0.0
C2403 C 0.13467 0.73115 0.79131 0.0
C2404 C 0.14772 0.74269 0.78938 0.0
C2405 C 0.21589 0.8024 0.84271 0.0
C2406 C 0.22144 0.78854 0.85202 0.0
C2407 C 0.20444 0.80022 0.82968 0.0
C2408 C 0.19896 0.78406 0.82526 0.0
C2409 C 0.20424 0.77025 0.83489 0.0
C2410 C 0.21526 0.7725 0.84829 0.0
C2411 C 0.18807 0.78152 0.81038 0.0
C2412 C 0.17374 0.77141 0.81196 0.0
C2413 C 0.1918 0.78893 0.79464 0.0
C2414 C 0.20777 0.79795 0.79147 0.0
C2415 C 0.22322 0.78995 0.79436 0.0
C2416 C 0.23826 0.7985 0.79154 0.0
C2417 C 0.238 0.81504 0.78568 0.0
C2418 C 0.2227 0.82302 0.78259 0.0
C2419 C 0.20763 0.81452 0.78541 0.0
H2420 H 0.24966 0.82165 0.78351 0.0
H2421 H 0.11292 0.72416 0.80575 0.0
H2422 H 0.46898 0.85757 0.01694 0.0
H2423 H 0.46127 0.8736 0.04184 0.0
H2424 H 0.43432 0.90895 0.01094 0.0
H2425 H 0.44179 0.8929 0.98595 0.0
H2426 H 0.47106 0.90503 0.04761 0.0
H2427 H 0.40307 0.92729 0.03373 0.0
H2428 H 0.37729 0.91651 0.02054 0.0
H2429 H 0.39289 0.86594 0.03074 0.0
H2430 H 0.41864 0.87641 0.0442 0.0
H2431 H 0.42811 0.98181 0.08342 0.0
H2432 H 0.42706 0.95795 0.06433 0.0
H2433 H 0.4514 0.92691 0.10139 0.0
H2434 H 0.45271 0.95078 0.12056 0.0
H2435 H 0.41473 0.92568 0.0643 0.0
H2436 H 0.48172 0.90442 0.08099 0.0
H2437 H 0.5076 0.9161 0.09329 0.0
H2438 H 0.494 0.96526 0.07578 0.0
H2439 H 0.46827 0.95382 0.06316 0.0
C2440 C 0.46121 0.86862 0.01543 0.0
C2441 C 0.45612 0.87404 -0.00058 0.0
C2442 C 0.4568 0.87775 0.0297 0.0
C2443 C 0.44716 0.8924 0.02825 0.0
C2444 C 0.44155 0.89752 0.01237 0.0
C2445 C 0.44593 0.88839 -0.00192 0.0
C2446 C 0.44448 0.90328 0.04305 0.0
C2447 C 0.4587 0.9092 0.05151 0.0
C2448 C 0.42839 0.90908 0.04783 0.0
C2449 C 0.41287 0.90265 0.03985 0.0
C2450 C 0.40097 0.91387 0.03322 0.0
C2451 C 0.38637 0.90781 0.02569 0.0
C2452 C 0.38348 0.89055 0.02476 0.0
C2453 C 0.39517 0.87931 0.03141 0.0
C2454 C 0.40979 0.8853 0.03896 0.0
C2455 C 0.43303 0.96986 0.08765 0.0
C2456 C 0.44077 0.96827 0.10341 0.0
C2457 C 0.43231 0.9562 0.07674 0.0
C2458 C 0.43935 0.94077 0.08138 0.0
C2459 C 0.44607 0.93881 0.09753 0.0
C2460 C 0.44681 0.95247 0.10845 0.0
C2461 C 0.4413 0.9274 0.06869 0.0
C2462 C 0.42702 0.92115 0.06058 0.0
C2463 C 0.45735 0.92135 0.06408 0.0
C2464 C 0.47297 0.92829 0.07135 0.0
C2465 C 0.48431 0.91771 0.07973 0.0
C2466 C 0.49895 0.92429 0.08675 0.0
C2467 C 0.50243 0.94142 0.08538 0.0
C2468 C 0.49131 0.952 0.0769 0.0
C2469 C 0.47668 0.94548 0.06982 0.0
H2470 H 0.51374 0.94649 0.09086 0.0
H2471 H 0.37217 0.88589 0.01891 0.0
H2472 H 0.34619 0.79314 0.25134 0.0
H2473 H 0.32842 0.7986 0.22705 0.0
H2474 H 0.35603 0.76188 0.19842 0.0
H2475 H 0.37412 0.75655 0.22257 0.0
H2476 H 0.34682 0.78875 0.17901 0.0
H2477 H 0.32074 0.75044 0.21763 0.0
H2478 H 0.31047 0.74088 0.24524 0.0
H2479 H 0.27685 0.78292 0.2476 0.0
H2480 H 0.2871 0.79288 0.22011 0.0
H2481 H 0.28111 0.76697 0.12136 0.0
H2482 H 0.30409 0.76794 0.14162 0.0
H2483 H 0.27658 0.80404 0.17113 0.0
H2484 H 0.25351 0.80299 0.15115 0.0
H2485 H 0.28645 0.77787 0.18959 0.0
H2486 H 0.31192 0.81517 0.1495 0.0
H2487 H 0.32216 0.82368 0.12156 0.0
H2488 H 0.35667 0.78229 0.12129 0.0
H2489 H 0.34647 0.77339 0.14915 0.0
C2490 C 0.34866 0.78639 0.23982 0.0
C2491 C 0.36141 0.77423 0.23897 0.0
C2492 C 0.33849 0.78952 0.22595 0.0
C2493 C 0.34074 0.78041 0.21107 0.0
C2494 C 0.35408 0.769 0.20982 0.0
C2495 C 0.36435 0.76593 0.22367 0.0
C2496 C 0.32828 0.7817 0.1974 0.0
C2497 C 0.33363 0.78626 0.18124 0.0
C2498 C 0.31108 0.77854 0.20041 0.0
C2499 C 0.30481 0.7725 0.21689 0.0
C2500 C 0.31125 0.75771 0.22409 0.0
C2501 C 0.30542 0.75221 0.23971 0.0
C2502 C 0.29305 0.76131 0.24818 0.0
C2503 C 0.28645 0.7759 0.24103 0.0
C2504 C 0.29226 0.78148 0.22543 0.0
C2505 C 0.28007 0.77531 0.13202 0.0
C2506 C 0.26542 0.78478 0.13474 0.0
C2507 C 0.29324 0.7759 0.14355 0.0
C2508 C 0.29203 0.78609 0.15785 0.0
C2509 C 0.27773 0.79606 0.16019 0.0
C2510 C 0.26455 0.79543 0.14875 0.0
C2511 C 0.30487 0.78523 0.17119 0.0
C2512 C 0.2996 0.78055 0.18733 0.0
C2513 C 0.3221 0.78814 0.16807 0.0
C2514 C 0.32832 0.79353 0.15135 0.0
C2515 C 0.3216 0.8078 0.14343 0.0
C2516 C 0.32741 0.81272 0.12762 0.0
C2517 C 0.34003 0.80351 0.11964 0.0
C2518 C 0.34689 0.7894 0.12748 0.0
C2519 C 0.34111 0.78443 0.14329 0.0
H2520 H 0.34451 0.80733 0.10739 0.0
H2521 H 0.28856 0.75702 0.26027 0.0
H2522 H 0.45805 0.03966 0.36589 0.0
H2523 H 0.45726 0.0618 0.387 0.0
H2524 H 0.43066 0.0289 0.42081 0.0
H2525 H 0.43124 0.00668 0.39973 0.0
H2526 H 0.41897 0.06162 0.42222 0.0
H2527 H 0.47173 0.03213 0.42434 0.0
H2528 H 0.49804 0.02072 0.41269 0.0
H2529 H 0.51365 0.07035 0.39861 0.0
H2530 H 0.4873 0.08203 0.40996 0.0
H2531 H 0.4426 0.0942 0.50206 0.0
H2532 H 0.43625 0.07782 0.47698 0.0
H2533 H 0.46493 0.11249 0.44684 0.0
H2534 H 0.47148 0.12886 0.47181 0.0
H2535 H 0.47474 0.08066 0.44206 0.0
H2536 H 0.42277 0.11046 0.44275 0.0
H2537 H 0.39652 0.12149 0.45487 0.0
H2538 H 0.37944 0.07127 0.46432 0.0
H2539 H 0.40569 0.05993 0.45247 0.0
C2540 C 0.45183 0.03717 0.37772 0.0
C2541 C 0.4449 0.02131 0.3812 0.0
C2542 C 0.4514 0.04985 0.38976 0.0
C2543 C 0.44411 0.04687 0.40551 0.0
C2544 C 0.43637 0.0314 0.40872 0.0
C2545 C 0.4368 0.0187 0.39668 0.0
C2546 C 0.4457 0.05938 0.41909 0.0
C2547 C 0.43114 0.06574 0.42667 0.0
C2548 C 0.4616 0.06492 0.42462 0.0
C2549 C 0.47746 0.05793 0.41781 0.0
C2550 C 0.48071 0.04059 0.41862 0.0
C2551 C 0.49564 0.03408 0.4121 0.0
C2552 C 0.50749 0.04479 0.40487 0.0
C2553 C 0.50445 0.06206 0.40418 0.0
C2554 C 0.48952 0.06863 0.41066 0.0
C2555 C 0.44736 0.09849 0.49007 0.0
C2556 C 0.45767 0.11276 0.48897 0.0
C2557 C 0.44363 0.08916 0.47573 0.0
C2558 C 0.45008 0.09399 0.46005 0.0
C2559 C 0.45984 0.10856 0.45883 0.0
C2560 C 0.46356 0.1179 0.47313 0.0
C2561 C 0.44799 0.08299 0.44527 0.0
C2562 C 0.46253 0.07679 0.4375 0.0
C2563 C 0.43207 0.07758 0.43966 0.0
C2564 C 0.41628 0.08435 0.44685 0.0
C2565 C 0.41348 0.10177 0.44755 0.0
C2566 C 0.39859 0.10808 0.45434 0.0
C2567 C 0.38634 0.09709 0.4604 0.0
C2568 C 0.38895 0.07977 0.45964 0.0
C2569 C 0.40383 0.07339 0.45287 0.0
H2570 H 0.37481 0.102 0.46564 0.0
H2571 H 0.51904 0.03973 0.39983 0.0
H2572 H 0.11489 0.22319 0.72316 0.0
H2573 H 0.1323 0.21379 0.69979 0.0
H2574 H 0.1596 0.18101 0.73312 0.0
H2575 H 0.14239 0.19049 0.75665 0.0
H2576 H 0.18013 0.20093 0.7156 0.0
H2577 H 0.13384 0.16502 0.70287 0.0
H2578 H 0.10429 0.15782 0.6974 0.0
H2579 H 0.10399 0.19056 0.65458 0.0
H2580 H 0.13347 0.19814 0.65992 0.0
H2581 H 0.23264 0.17063 0.65216 0.0
H2582 H 0.21055 0.16962 0.67337 0.0
H2583 H 0.18091 0.2044 0.64435 0.0
H2584 H 0.20283 0.20533 0.62292 0.0
H2585 H 0.16133 0.18053 0.65994 0.0
H2586 H 0.20537 0.21916 0.67437 0.0
H2587 H 0.23463 0.22771 0.67951 0.0
H2588 H 0.23853 0.19129 0.71908 0.0
H2589 H 0.20934 0.18237 0.714 0.0
C2590 C 0.12444 0.21381 0.72551 0.0
C2591 C 0.12735 0.20771 0.74181 0.0
C2592 C 0.1343 0.20836 0.71209 0.0
C2593 C 0.14716 0.19662 0.71471 0.0
C2594 C 0.14971 0.19006 0.73085 0.0
C2595 C 0.13987 0.19551 0.74428 0.0
C2596 C 0.15902 0.19255 0.701 0.0
C2597 C 0.17605 0.19609 0.70357 0.0
C2598 C 0.1536 0.18678 0.68513 0.0
C2599 C 0.13585 0.18225 0.68188 0.0
C2600 C 0.12743 0.17079 0.69237 0.0
C2601 C 0.1107 0.16662 0.68927 0.0
C2602 C 0.10225 0.17375 0.67567 0.0
C2603 C 0.11054 0.18505 0.66511 0.0
C2604 C 0.12727 0.18927 0.66816 0.0
C2605 C 0.22132 0.17787 0.65013 0.0
C2606 C 0.21962 0.18829 0.63598 0.0
C2607 C 0.20871 0.17726 0.66226 0.0
C2608 C 0.19426 0.18716 0.66053 0.0
C2609 C 0.19201 0.1967 0.64591 0.0
C2610 C 0.20459 0.19727 0.63373 0.0
C2611 C 0.18234 0.18887 0.67465 0.0
C2612 C 0.16537 0.18506 0.67211 0.0
C2613 C 0.18773 0.19457 0.69055 0.0
C2614 C 0.20525 0.19997 0.69368 0.0
C2615 C 0.21251 0.21289 0.68408 0.0
C2616 C 0.22907 0.21782 0.68699 0.0
C2617 C 0.23845 0.21001 0.69958 0.0
C2618 C 0.23126 0.1973 0.70931 0.0
C2619 C 0.21471 0.19231 0.70642 0.0
H2620 H 0.25127 0.21385 0.70182 0.0
H2621 H 0.0893 0.1705 0.6733 0.0
H2622 H 0.03891 0.89084 -0.00459 0.0
H2623 H 0.04555 0.90734 0.97046 0.0
H2624 H 0.01558 0.87399 0.9403 0.0
H2625 H 0.00859 0.85755 0.96524 0.0
H2626 H 0.06033 0.90142 0.94045 0.0
H2627 H -0.0059 0.8974 0.91182 0.0
H2628 H 0.96482 0.89283 0.92082 0.0
H2629 H 0.97631 0.9126 0.96953 0.0
H2630 H 0.00558 0.91747 0.96076 0.0
H2631 H 0.02727 0.95004 0.86076 0.0
H2632 H 0.02712 0.92623 0.8801 0.0
H2633 H 0.0553 0.95512 0.91603 0.0
H2634 H 0.05565 0.97894 0.89678 0.0
H2635 H 0.01216 0.92704 0.91052 0.0
H2636 H 0.07846 0.92882 0.94043 0.0
H2637 H 0.1076 0.93487 0.93197 0.0
H2638 H 0.09603 0.92157 0.88113 0.0
H2639 H 0.06689 0.91521 0.88931 0.0
C2640 C 0.03384 0.8869 0.98346 0.0
C2641 C 0.02304 0.873 0.98235 0.0
C2642 C 0.03772 0.89631 0.9692 0.0
C2643 C 0.03088 0.892 0.95359 0.0
C2644 C 0.02078 0.87766 0.95229 0.0
C2645 C 0.01681 0.86828 0.96655 0.0
C2646 C 0.03341 0.90319 0.93898 0.0
C2647 C 0.04982 0.90709 0.93393 0.0
C2648 C 0.01967 0.91032 0.93031 0.0
C2649 C 0.00207 0.90758 0.93569 0.0
C2650 C 0.99035 0.90079 0.92444 0.0
C2651 C 0.97377 0.89815 0.9295 0.0
C2652 C 0.96873 0.90236 0.94576 0.0
C2653 C 0.98025 0.90928 0.95697 0.0
C2654 C -0.00316 0.91196 0.95197 0.0
C2655 C 0.03371 0.95125 0.87265 0.0
C2656 C 0.04135 0.96645 0.87729 0.0
C2657 C 0.03359 0.93763 0.88368 0.0
C2658 C 0.04124 0.9389 0.89945 0.0
C2659 C 0.04952 0.95379 0.90382 0.0
C2660 C 0.04961 0.96744 0.89283 0.0
C2661 C 0.03909 0.92541 0.91202 0.0
C2662 C 0.0227 0.92113 0.91679 0.0
C2663 C 0.05285 0.9181 0.9205 0.0
C2664 C 0.07044 0.92166 0.91548 0.0
C2665 C 0.08215 0.9271 0.92746 0.0
C2666 C 0.09867 0.9306 0.92271 0.0
C2667 C 0.10365 0.92865 0.90602 0.0
C2668 C 0.09214 0.92314 0.89404 0.0
C2669 C 0.07561 0.91961 0.89873 0.0
H2670 H 0.11644 0.93138 0.90236 0.0
H2671 H 0.95588 0.90029 0.94966 0.0
H2672 H 0.26188 0.37404 0.20764 0.0
H2673 H 0.28506 0.35471 0.20262 0.0
H2674 H 0.25072 0.31878 0.18136 0.0
H2675 H 0.22737 0.33794 0.18655 0.0
H2676 H 0.26907 0.30532 0.2059 0.0
H2677 H 0.28016 0.33844 0.157 0.0
H2678 H 0.28529 0.36436 0.14087 0.0
H2679 H 0.32943 0.37409 0.17003 0.0
H2680 H 0.32444 0.34835 0.18651 0.0
H2681 H 0.33043 0.24562 0.18411 0.0
H2682 H 0.30864 0.26694 0.18145 0.0
H2683 H 0.34079 0.30316 0.20543 0.0
H2684 H 0.36278 0.28188 0.20815 0.0
H2685 H 0.32363 0.31636 0.178 0.0
H2686 H 0.31167 0.28523 0.22811 0.0
H2687 H 0.30612 0.26047 0.24585 0.0
H2688 H 0.26354 0.24792 0.21547 0.0
H2689 H 0.26896 0.27252 0.19741 0.0
C2690 C 0.25926 0.36215 0.20163 0.0
C2691 C 0.24273 0.35746 0.19766 0.0
C2692 C 0.27257 0.35116 0.19867 0.0
C2693 C 0.26961 0.33534 0.19157 0.0
C2694 C 0.25325 0.33094 0.18687 0.0
C2695 C 0.23992 0.34192 0.18984 0.0
C2696 C 0.28323 0.32273 0.1908 0.0
C2697 C 0.28086 0.30759 0.19947 0.0
C2698 C 0.29882 0.326 0.18296 0.0
C2699 C 0.30184 0.34152 0.17309 0.0
C2700 C 0.29088 0.34618 0.16008 0.0
C2701 C 0.29378 0.36083 0.15085 0.0
C2702 C 0.30766 0.37089 0.15445 0.0
C2703 C 0.31868 0.3663 0.16727 0.0
C2704 C 0.31583 0.35166 0.17654 0.0
C2705 C 0.33297 0.25814 0.18871 0.0
C2706 C 0.34831 0.26202 0.19646 0.0
C2707 C 0.32047 0.27029 0.1872 0.0
C2708 C 0.32308 0.28653 0.1934 0.0
C2709 C 0.33857 0.29066 0.20059 0.0
C2710 C 0.35108 0.27847 0.20219 0.0
C2711 C 0.30934 0.29898 0.19298 0.0
C2712 C 0.31173 0.31407 0.18421 0.0
C2713 C 0.29376 0.29575 0.20083 0.0
C2714 C 0.29083 0.28062 0.2113 0.0
C2715 C 0.30125 0.27707 0.22508 0.0
C2716 C 0.2981 0.2631 0.23522 0.0
C2717 C 0.28448 0.25263 0.23178 0.0
C2718 C 0.27407 0.25604 0.21812 0.0
C2719 C 0.27718 0.27 0.20793 0.0
H2720 H 0.28193 0.24194 0.23976 0.0
H2721 H 0.30988 0.38222 0.14729 0.0
H2722 H 0.76269 0.11483 0.76597 0.0
H2723 H 0.78582 0.13177 0.77654 0.0
H2724 H 0.75141 0.15939 0.80792 0.0
H2725 H 0.72811 0.14267 0.79724 0.0
H2726 H 0.7707 0.17994 0.78999 0.0
H2727 H 0.7799 0.13212 0.82505 0.0
H2728 H 0.78395 0.10217 0.83171 0.0
H2729 H 0.82847 0.10115 0.80136 0.0
H2730 H 0.82457 0.13105 0.79432 0.0
H2731 H 0.83417 0.22992 0.82273 0.0
H2732 H 0.81292 0.20791 0.82417 0.0
H2733 H 0.8415 0.1779 0.78936 0.0
H2734 H 0.86299 0.19966 0.78806 0.0
H2735 H 0.82454 0.15838 0.81262 0.0
H2736 H 0.81338 0.20442 0.77475 0.0
H2737 H 0.81059 0.23454 0.7683 0.0
H2738 H 0.76969 0.23847 0.8032 0.0
H2739 H 0.77258 0.20842 0.81023 0.0
C2740 C 0.76003 0.12439 0.77525 0.0
C2741 C 0.74352 0.12745 0.78068 0.0
C2742 C 0.77331 0.13398 0.78137 0.0
C2743 C 0.77036 0.14673 0.79314 0.0
C2744 C 0.75396 0.14958 0.79887 0.0
C2745 C 0.74066 0.14001 0.79274 0.0
C2746 C 0.78415 0.15799 0.79835 0.0
C2747 C 0.78231 0.17523 0.7953 0.0
C2748 C 0.79948 0.15181 0.80486 0.0
C2749 C 0.80186 0.13381 0.80906 0.0
C2750 C 0.79048 0.12548 0.81969 0.0
C2751 C 0.79277 0.10852 0.82355 0.0
C2752 C 0.80644 0.09975 0.81693 0.0
C2753 C 0.81788 0.10795 0.80646 0.0
C2754 C 0.81565 0.12491 0.80255 0.0
C2755 C 0.83614 0.21848 0.81567 0.0
C2756 C 0.85009 0.21669 0.80499 0.0
C2757 C 0.82401 0.20591 0.81655 0.0
C2758 C 0.82551 0.19147 0.80661 0.0
C2759 C 0.8401 0.189 0.79708 0.0
C2760 C 0.85232 0.20151 0.79629 0.0
C2761 C 0.811 0.18019 0.80423 0.0
C2762 C 0.81276 0.16302 0.80764 0.0
C2763 C 0.7956 0.18637 0.79792 0.0
C2764 C 0.79333 0.20423 0.79316 0.0
C2765 C 0.80384 0.21172 0.7811 0.0
C2766 C 0.80225 0.22878 0.77735 0.0
C2767 C 0.78998 0.23842 0.78536 0.0
C2768 C 0.77921 0.23099 0.79704 0.0
C2769 C 0.78084 0.21395 0.80094 0.0
H2770 H 0.78885 0.25166 0.78254 0.0
H2771 H 0.80818 0.08662 0.81994 0.0
H2772 H 0.04112 0.61484 0.04649 0.0
H2773 H 0.06339 0.59394 0.04887 0.0
H2774 H 0.02696 0.55644 0.06289 0.0
H2775 H 0.00462 0.57732 0.06086 0.0
H2776 H 0.05675 0.55187 0.0794 0.0
H2777 H 0.03775 0.56093 0.02252 0.0
H2778 H 0.03149 0.578 -0.00254 0.0
H2779 H 0.08297 0.59357 -0.00523 0.0
H2780 H 0.08948 0.57676 0.01997 0.0
H2781 H 0.09086 0.47646 0.04584 0.0
H2782 H 0.07473 0.50091 0.05483 0.0
H2783 H 0.11468 0.5335 0.03832 0.0
H2784 H 0.1308 0.50918 0.02906 0.0
H2785 H 0.08558 0.54242 0.02501 0.0
H2786 H 0.10518 0.52953 0.08004 0.0
H2787 H 0.11088 0.51179 0.10475 0.0
H2788 H 0.05817 0.5025 0.1107 0.0
H2789 H 0.05216 0.52 0.08588 0.0
C2790 C 0.03786 0.60223 0.05038 0.0
C2791 C 0.02105 0.59766 0.05319 0.0
C2792 C 0.05061 0.59031 0.05174 0.0
C2793 C 0.04675 0.5736 0.05573 0.0
C2794 C 0.03017 0.56928 0.05974 0.0
C2795 C 0.01741 0.58122 0.0585 0.0
C2796 C 0.05955 0.56029 0.05387 0.0
C2797 C 0.06305 0.54972 0.06752 0.0
C2798 C 0.06793 0.55772 0.03842 0.0
C2799 C 0.06405 0.56776 0.02323 0.0
C2800 C 0.0477 0.5681 0.01665 0.0
C2801 C 0.04411 0.57771 0.00242 0.0
C2802 C 0.05681 0.5869 -0.00544 0.0
C2803 C 0.07314 0.58647 0.00089 0.0
C2804 C 0.07679 0.5769 0.01514 0.0
C2805 C 0.09634 0.48881 0.04435 0.0
C2806 C 0.11204 0.49088 0.03656 0.0
C2807 C 0.08714 0.50277 0.04962 0.0
C2808 C 0.09355 0.51902 0.04731 0.0
C2809 C 0.10952 0.52107 0.0402 0.0
C2810 C 0.11869 0.50714 0.0349 0.0
C2811 C 0.08284 0.53386 0.05053 0.0
C2812 C 0.07961 0.54469 0.03704 0.0
C2813 C 0.07468 0.53654 0.06608 0.0
C2814 C 0.07823 0.52598 0.08101 0.0
C2815 C 0.09481 0.52359 0.08653 0.0
C2816 C 0.09809 0.5136 0.10058 0.0
C2817 C 0.0849 0.506 0.10927 0.0
C2818 C 0.06838 0.50839 0.10395 0.0
C2819 C 0.06503 0.51836 0.08991 0.0
H2820 H 0.08747 0.49827 0.12014 0.0
H2821 H 0.05401 0.59433 0.98353 0.0
H2822 H 0.64833 0.75801 0.31381 0.0
H2823 H 0.668 0.78142 0.31288 0.0
H2824 H 0.63303 0.80996 0.28303 0.0
H2825 H 0.61329 0.78656 0.28376 0.0
H2826 H 0.6635 0.80805 0.26854 0.0
H2827 H 0.64194 0.82226 0.32247 0.0
H2828 H 0.63327 0.8172 0.35173 0.0
H2829 H 0.6837 0.8034 0.36457 0.0
H2830 H 0.69265 0.80814 0.33531 0.0
H2831 H 0.71715 0.87804 0.26375 0.0
H2832 H 0.69263 0.86136 0.27135 0.0
H2833 H 0.72391 0.82811 0.30042 0.0
H2834 H 0.74858 0.84479 0.29298 0.0
H2835 H 0.69336 0.83486 0.31602 0.0
H2836 H 0.71381 0.81667 0.2621 0.0
H2837 H 0.72283 0.82017 0.23272 0.0
H2838 H 0.67456 0.84047 0.22007 0.0
H2839 H 0.66529 0.83717 0.24946 0.0
C2840 C 0.64468 0.76936 0.30728 0.0
C2841 C 0.6293 0.77034 0.29872 0.0
C2842 C 0.6559 0.78278 0.30685 0.0
C2843 C 0.65193 0.79744 0.29793 0.0
C2844 C 0.6363 0.79874 0.28999 0.0
C2845 C 0.62505 0.78535 0.29044 0.0
C2846 C 0.66478 0.81058 0.29542 0.0
C2847 C 0.66975 0.81421 0.27893 0.0
C2848 C 0.67324 0.81822 0.309 0.0
C2849 C 0.66794 0.81544 0.32664 0.0
C2850 C 0.65116 0.81802 0.33149 0.0
C2851 C 0.6462 0.81523 0.34809 0.0
C2852 C 0.65792 0.80995 0.35999 0.0
C2853 C 0.67464 0.80749 0.35533 0.0
C2854 C 0.67967 0.81024 0.33874 0.0
C2855 C 0.71883 0.86729 0.27191 0.0
C2856 C 0.73487 0.86263 0.27761 0.0
C2857 C 0.70479 0.85777 0.27623 0.0
C2858 C 0.70652 0.84343 0.28628 0.0
C2859 C 0.72235 0.83916 0.29263 0.0
C2860 C 0.73643 0.84865 0.28829 0.0
C2861 C 0.69203 0.83221 0.28918 0.0
C2862 C 0.68685 0.8289 0.30569 0.0
C2863 C 0.68338 0.82476 0.27564 0.0
C2864 C 0.68894 0.82687 0.258 0.0
C2865 C 0.70517 0.82203 0.25308 0.0
C2866 C 0.71032 0.82394 0.23642 0.0
C2867 C 0.6993 0.83062 0.22454 0.0
C2868 C 0.6831 0.83534 0.22929 0.0
C2869 C 0.67788 0.83343 0.24594 0.0
H2870 H 0.70329 0.83206 0.21164 0.0
H2871 H 0.65405 0.8078 0.37284 0.0
H2872 H 0.86205 0.97533 0.02405 0.0
H2873 H 0.8797 0.95163 0.03213 0.0
H2874 H 0.91457 0.98554 0.0557 0.0
H2875 H 0.89707 0.00936 0.04757 0.0
H2876 H 0.92964 0.96508 0.03329 0.0
H2877 H 0.89148 0.95885 0.07929 0.0
H2878 H 0.8639 0.95606 0.09303 0.0
H2879 H 0.85467 0.91053 0.06584 0.0
H2880 H 0.8821 0.91317 0.05174 0.0
H2881 H 0.98449 0.90226 0.06005 0.0
H2882 H 0.96364 0.9245 0.06296 0.0
H2883 H 0.92718 0.89391 0.03738 0.0
H2884 H 0.94791 0.87147 0.0345 0.0
H2885 H 0.91308 0.91298 0.0632 0.0
H2886 H 0.9488 0.92049 0.01515 0.0
H2887 H 0.97587 0.92278 0.00032 0.0
H2888 H 0.98876 0.96575 0.03004 0.0
H2889 H 0.96187 0.96353 0.04527 0.0
C2890 C 0.87334 0.97775 0.03117 0.0
C2891 C 0.87823 -0.00574 0.03502 0.0
C2892 C 0.88336 0.96417 0.03588 0.0
C2893 C 0.8984 0.96684 0.04458 0.0
C2894 C 0.90299 0.98323 0.04901 0.0
C2895 C 0.89297 -0.00318 0.04434 0.0
C2896 C 0.91015 0.95277 0.04745 0.0
C2897 C 0.92613 0.95384 0.04016 0.0
C2898 C 0.90533 0.9379 0.05591 0.0
C2899 C 0.8888 0.93629 0.06435 0.0
C2900 C 0.88351 0.94832 0.07612 0.0
C2901 C 0.86791 0.94675 0.084 0.0
C2902 C 0.85752 0.93315 0.08029 0.0
C2903 C 0.86273 0.92107 0.0687 0.0
C2904 C 0.87831 0.92259 0.06077 0.0
C2905 C 0.97196 0.90011 0.05529 0.0
C2906 C 0.96794 0.8852 0.04678 0.0
C2907 C 0.96007 0.91283 0.05699 0.0
C2908 C 0.944 0.91091 0.05014 0.0
C2909 C 0.93955 0.89562 0.04271 0.0
C2910 C 0.95145 0.88285 0.04101 0.0
C2911 C 0.93251 0.92543 0.04914 0.0
C2912 C 0.9166 0.92436 0.0566 0.0
C2913 C 0.93727 0.94029 0.04067 0.0
C2914 C 0.95342 0.94172 0.03148 0.0
C2915 C 0.95747 0.93034 0.01862 0.0
C2916 C 0.97277 0.93164 0.01013 0.0
C2917 C 0.98404 0.94438 0.01426 0.0
C2918 C 0.98003 0.95587 0.02688 0.0
C2919 C 0.96476 0.95459 0.03544 0.0
H2920 H -0.00412 0.94537 0.00766 0.0
H2921 H 0.84545 0.93195 0.08641 0.0
H2922 H 0.21889 0.61541 0.72209 0.0
H2923 H 0.19523 0.63151 0.71109 0.0
H2924 H 0.22943 0.66393 0.68444 0.0
H2925 H 0.25318 0.648 0.69539 0.0
H2926 H 0.20733 0.68117 0.70394 0.0
H2927 H 0.20516 0.63708 0.66309 0.0
H2928 H 0.20381 0.60783 0.65315 0.0
H2929 H 0.15668 0.60113 0.6784 0.0
H2930 H 0.15785 0.63028 0.68871 0.0
H2931 H 0.14881 0.73088 0.66418 0.0
H2932 H 0.16966 0.70851 0.66474 0.0
H2933 H 0.13713 0.67858 0.69596 0.0
H2934 H 0.11608 0.70091 0.69554 0.0
H2935 H 0.15811 0.65954 0.67265 0.0
H2936 H 0.16139 0.70159 0.71588 0.0
H2937 H 0.16195 0.73062 0.72657 0.0
H2938 H 0.20662 0.74049 0.69807 0.0
H2939 H 0.20615 0.71158 0.68698 0.0
C2940 C 0.22139 0.62586 0.71375 0.0
C2941 C 0.23794 0.63051 0.70973 0.0
C2942 C 0.20784 0.63496 0.70739 0.0
C2943 C 0.21061 0.64883 0.69689 0.0
C2944 C 0.22706 0.65323 0.6925 0.0
C2945 C 0.24061 0.64411 0.69879 0.0
C2946 C 0.19646 0.65966 0.69172 0.0
C2947 C 0.19673 0.67649 0.69682 0.0
C2948 C 0.18239 0.65338 0.68294 0.0
C2949 C 0.18168 0.63583 0.67681 0.0
C2950 C 0.19458 0.62933 0.66666 0.0
C2951 C 0.19383 0.61277 0.66093 0.0
C2952 C 0.18019 0.60262 0.66517 0.0
C2953 C 0.16725 0.60901 0.67514 0.0
C2954 C 0.16794 0.62555 0.68092 0.0
C2955 C 0.14583 0.71937 0.67079 0.0
C2956 C 0.13096 0.71784 0.68017 0.0
C2957 C 0.15776 0.70659 0.67104 0.0
C2958 C 0.15499 0.6921 0.68064 0.0
C2959 C 0.13945 0.68973 0.68853 0.0
C2960 C 0.12749 0.70255 0.68833 0.0
C2961 C 0.1692 0.68097 0.68469 0.0
C2962 C 0.16885 0.66416 0.67958 0.0
C2963 C 0.18318 0.68715 0.69365 0.0
C2964 C 0.18362 0.70449 0.70045 0.0
C2965 C 0.17125 0.71 0.71178 0.0
C2966 C 0.17156 0.72642 0.71793 0.0
C2967 C 0.18428 0.7374 0.71296 0.0
C2968 C 0.19675 0.73197 0.70188 0.0
C2969 C 0.19647 0.71557 0.69566 0.0
H2970 H 0.18451 0.75011 0.71775 0.0
H2971 H 0.17962 0.58981 0.66071 0.0
H2972 H 0.04009 0.37046 0.44318 0.0
H2973 H 0.06242 0.39131 0.44121 0.0
H2974 H 0.02617 0.42918 0.42772 0.0
H2975 H 0.00377 0.40837 0.42934 0.0
H2976 H 0.05636 0.43396 0.41156 0.0
H2977 H 0.03615 0.42379 0.46801 0.0
H2978 H 0.02944 0.40606 0.49251 0.0
H2979 H 0.08089 0.39039 0.49555 0.0
H2980 H 0.08784 0.40786 0.47091 0.0
H2981 H 0.0899 0.50891 0.44628 0.0
H2982 H 0.07395 0.4846 0.43671 0.0
H2983 H 0.11288 0.45165 0.45491 0.0
H2984 H 0.12869 0.47585 0.46488 0.0
H2985 H 0.08381 0.44247 0.4667 0.0
H2986 H 0.1047 0.4564 0.41229 0.0
H2987 H 0.11091 0.47458 0.38802 0.0
H2988 H 0.05831 0.48387 0.38118 0.0
H2989 H 0.05179 0.46593 0.40556 0.0
C2990 C 0.03688 0.38314 0.43947 0.0
C2991 C 0.0201 0.38784 0.43674 0.0
C2992 C 0.04967 0.39503 0.43833 0.0
C2993 C 0.04587 0.41182 0.43464 0.0
C2994 C 0.02934 0.41627 0.43063 0.0
C2995 C 0.01654 0.40437 0.43165 0.0
C2996 C 0.05861 0.42507 0.43697 0.0
C2997 C 0.06237 0.43591 0.4236 0.0
C2998 C 0.06661 0.42737 0.45262 0.0
C2999 C 0.06247 0.41697 0.46752 0.0
C3000 C 0.046 0.41647 0.47383 0.0
C3001 C 0.04216 0.40648 0.48775 0.0
C3002 C 0.05472 0.39706 0.49555 0.0
C3003 C 0.07117 0.39766 0.48947 0.0
C3004 C 0.07506 0.40761 0.47554 0.0
C3005 C 0.09518 0.4965 0.44802 0.0
C3006 C 0.11047 0.49429 0.45651 0.0
C3007 C 0.08611 0.48261 0.44243 0.0
C3008 C 0.09228 0.4663 0.445 0.0
C3009 C 0.10788 0.46413 0.45282 0.0
C3010 C 0.11688 0.47798 0.45854 0.0
C3011 C 0.08167 0.45152 0.44129 0.0
C3012 C 0.07815 0.44041 0.45451 0.0
C3013 C 0.0739 0.44909 0.42552 0.0
C3014 C 0.07777 0.45991 0.41085 0.0
C3015 C 0.09446 0.46242 0.4057 0.0
C3016 C 0.09803 0.47267 0.3919 0.0
C3017 C 0.08501 0.4804 0.38308 0.0
C3018 C 0.06839 0.47788 0.38802 0.0
C3019 C 0.06474 0.46765 0.40182 0.0
H3020 H 0.08781 0.48833 0.3724 0.0
H3021 H 0.05173 0.38934 0.50632 0.0
H3022 H 0.48025 0.58434 0.9272 0.0
H3023 H 0.45665 0.56493 0.92641 0.0
H3024 H 0.42566 0.60127 0.95192 0.0
H3025 H 0.4493 0.6207 0.95303 0.0
H3026 H 0.42468 0.57183 0.96729 0.0
H3027 H 0.41825 0.59066 0.91087 0.0
H3028 H 0.42731 0.59762 0.88211 0.0
H3029 H 0.44151 0.5463 0.8739 0.0
H3030 H 0.43275 0.53906 0.9027 0.0
H3031 H 0.35486 0.51839 0.96722 0.0
H3032 H 0.37175 0.54275 0.95949 0.0
H3033 H 0.4079 0.5103 0.9356 0.0
H3034 H 0.39096 0.48585 0.94303 0.0
H3035 H 0.40375 0.53986 0.91824 0.0
H3036 H 0.41361 0.52208 0.9754 0.0
H3037 H 0.40522 0.51492 0.00433 0.0
H3038 H 0.38531 0.56452 0.01112 0.0
H3039 H 0.39332 0.5719 0.98211 0.0
C3040 C 0.46835 0.58833 0.93242 0.0
C3041 C 0.46671 0.60402 0.94032 0.0
C3042 C 0.45482 0.57725 0.93186 0.0
C3043 C 0.43936 0.58169 0.93902 0.0
C3044 C 0.43749 0.5976 0.94631 0.0
C3045 C 0.45102 0.60868 0.94693 0.0
C3046 C 0.42574 0.56913 0.94041 0.0
C3047 C 0.41982 0.56512 0.9565 0.0
C3048 C 0.41976 0.56008 0.92639 0.0
C3049 C 0.42495 0.56435 0.909 0.0
C3050 C 0.42341 0.58088 0.90298 0.0
C3051 C 0.42848 0.58487 0.88666 0.0
C3052 C 0.43501 0.57242 0.87619 0.0
C3053 C 0.43645 0.55593 0.88202 0.0
C3054 C 0.43142 0.55187 0.89834 0.0
C3055 C 0.36626 0.51643 0.9601 0.0
C3056 C 0.37169 0.50015 0.95597 0.0
C3057 C 0.3759 0.53037 0.95569 0.0
C3058 C 0.3912 0.52828 0.94723 0.0
C3059 C 0.39613 0.51216 0.94216 0.0
C3060 C 0.38647 0.4982 0.94649 0.0
C3061 C 0.4028 0.54261 0.94509 0.0
C3062 C 0.40841 0.54683 0.92893 0.0
C3063 C 0.4086 0.55187 0.95905 0.0
C3064 C 0.40388 0.54748 0.97653 0.0
C3065 C 0.40732 0.53142 0.98302 0.0
C3066 C 0.40266 0.52733 -0.00057 0.0
C3067 C 0.39471 0.53924 0.00954 0.0
C3068 C 0.39144 0.5553 0.00326 0.0
C3069 C 0.39603 0.55944 0.98684 0.0
H3070 H 0.39112 0.53605 0.02225 0.0
H3071 H 0.43893 0.57553 0.86356 0.0
H3072 H 0.71241 0.7598 0.87604 0.0
H3073 H 0.70488 0.78386 0.85847 0.0
H3074 H 0.69413 0.75052 0.81732 0.0
H3075 H 0.7014 0.72635 0.83485 0.0
H3076 H 0.71698 0.77726 0.8099 0.0
H3077 H 0.66269 0.76784 0.83488 0.0
H3078 H 0.64283 0.76413 0.85833 0.0
H3079 H 0.65517 0.81314 0.87689 0.0
H3080 H 0.6753 0.81705 0.85367 0.0
H3081 H 0.66596 0.83934 0.76102 0.0
H3082 H 0.66681 0.81758 0.78271 0.0
H3083 H 0.71257 0.83867 0.80218 0.0
H3084 H 0.71171 0.86064 0.78075 0.0
H3085 H 0.67084 0.81786 0.82024 0.0
H3086 H 0.73903 0.80335 0.8034 0.0
H3087 H 0.75888 0.80724 0.77992 0.0
H3088 H 0.71814 0.80548 0.74482 0.0
H3089 H 0.69811 0.80127 0.76805 0.0
C3090 C 0.70828 0.75757 0.8633 0.0
C3091 C 0.70757 0.74119 0.85679 0.0
C3092 C 0.70393 0.77131 0.85333 0.0
C3093 C 0.69895 0.7689 0.83665 0.0
C3094 C 0.69793 0.75257 0.83019 0.0
C3095 C 0.70205 0.7388 0.84023 0.0
C3096 C 0.69586 0.78346 0.82562 0.0
C3097 C 0.70687 0.78611 0.81215 0.0
C3098 C 0.68272 0.795 0.82865 0.0
C3099 C 0.67063 0.79266 0.84263 0.0
C3100 C 0.66129 0.77776 0.84405 0.0
C3101 C 0.64996 0.77564 0.85728 0.0
C3102 C 0.64777 0.78838 0.86912 0.0
C3103 C 0.65689 0.80328 0.86772 0.0
C3104 C 0.66825 0.80546 0.85452 0.0
C3105 C 0.67599 0.83958 0.77017 0.0
C3106 C 0.68886 0.85159 0.7691 0.0
C3107 C 0.6764 0.82721 0.78258 0.0
C3108 C 0.68982 0.82652 0.79388 0.0
C3109 C 0.70214 0.83905 0.7935 0.0
C3110 C 0.70161 0.85158 0.78126 0.0
C3111 C 0.69202 0.81164 0.80466 0.0
C3112 C 0.68093 0.80898 0.81806 0.0
C3113 C 0.70511 0.80006 0.80161 0.0
C3114 C 0.71706 0.8022 0.78748 0.0
C3115 C 0.73433 0.80373 0.79066 0.0
C3116 C 0.74561 0.80599 0.77739 0.0
C3117 C 0.73977 0.80667 0.76089 0.0
C3118 C 0.72264 0.80502 0.75761 0.0
C3119 C 0.71132 0.80271 0.77082 0.0
H3120 H 0.74852 0.80845 0.75064 0.0
H3121 H 0.63898 0.78671 0.87935 0.0
H3122 H 0.47491 0.47042 0.12493 0.0
H3123 H 0.45125 0.46331 0.10696 0.0
H3124 H 0.48449 0.43662 0.07358 0.0
H3125 H 0.50832 0.44381 0.09141 0.0
H3126 H 0.46547 0.45915 0.05716 0.0
H3127 H 0.45613 0.41551 0.09741 0.0
H3128 H 0.45212 0.40326 0.12555 0.0
H3129 H 0.40802 0.43338 0.13271 0.0
H3130 H 0.4119 0.446 0.1047 0.0
H3131 H 0.40299 0.42965 0.00315 0.0
H3132 H 0.42493 0.42899 0.02438 0.0
H3133 H 0.39377 0.45806 0.05774 0.0
H3134 H 0.37158 0.45873 0.03657 0.0
H3135 H 0.41169 0.43283 0.07427 0.0
H3136 H 0.42196 0.47783 0.03544 0.0
H3137 H 0.42573 0.49067 0.00753 0.0
H3138 H 0.46808 0.45869 -0.00179 0.0
H3139 H 0.46441 0.44547 0.02598 0.0
C3140 C 0.47719 0.46285 0.11389 0.0
C3141 C 0.49354 0.45779 0.10954 0.0
C3142 C 0.46362 0.4587 0.10369 0.0
C3143 C 0.46611 0.44937 0.08899 0.0
C3144 C 0.48232 0.44383 0.0849 0.0
C3145 C 0.49591 0.44793 0.09511 0.0
C3146 C 0.4521 0.44674 0.07715 0.0
C3147 C 0.45384 0.45308 0.06082 0.0
C3148 C 0.43673 0.43934 0.08212 0.0
C3149 C 0.4344 0.43181 0.099 0.0
C3150 C 0.44566 0.41964 0.10504 0.0
C3151 C 0.44339 0.4126 0.12096 0.0
C3152 C 0.42985 0.41757 0.13093 0.0
C3153 C 0.41852 0.42956 0.12498 0.0
C3154 C 0.42074 0.43664 0.10908 0.0
C3155 C 0.40067 0.43575 0.01506 0.0
C3156 C 0.3856 0.44443 0.01809 0.0
C3157 C 0.41324 0.43535 0.02717 0.0
C3158 C 0.41103 0.44368 0.04249 0.0
C3159 C 0.39569 0.45159 0.04595 0.0
C3160 C 0.38307 0.45201 0.03382 0.0
C3161 C 0.42518 0.44514 0.05434 0.0
C3162 C 0.42342 0.43871 0.07064 0.0
C3163 C 0.44053 0.45256 0.04942 0.0
C3164 C 0.44279 0.46053 0.03272 0.0
C3165 C 0.43199 0.47343 0.02738 0.0
C3166 C 0.43412 0.4808 0.0116 0.0
C3167 C 0.4471 0.47547 0.00108 0.0
C3168 C 0.45801 0.46279 0.00635 0.0
C3169 C 0.45591 0.45536 0.02212 0.0
H3170 H 0.44873 0.48119 0.98887 0.0
H3171 H 0.42811 0.4121 0.14325 0.0
H3172 H 0.79675 0.25509 0.3416 0.0
H3173 H 0.80408 0.23157 0.3234 0.0
H3174 H 0.77683 0.19779 0.35579 0.0
H3175 H 0.76964 0.22115 0.37424 0.0
H3176 H 0.80528 0.18308 0.34325 0.0
H3177 H 0.7577 0.21369 0.3225 0.0
H3178 H 0.7422 0.23891 0.31344 0.0
H3179 H 0.77819 0.24728 0.27417 0.0
H3180 H 0.79405 0.22223 0.28317 0.0
H3181 H 0.78287 0.1202 0.28283 0.0
H3182 H 0.78407 0.14148 0.3049 0.0
H3183 H 0.81148 0.1744 0.27176 0.0
H3184 H 0.81025 0.15338 0.24965 0.0
H3185 H 0.78423 0.18942 0.28505 0.0
H3186 H 0.83062 0.15663 0.30509 0.0
H3187 H 0.8449 0.13077 0.31433 0.0
H3188 H 0.80981 0.12552 0.35492 0.0
H3189 H 0.79517 0.15124 0.34578 0.0
C3190 C 0.79252 0.24263 0.34501 0.0
C3191 C 0.78239 0.24005 0.35923 0.0
C3192 C 0.79673 0.22921 0.33459 0.0
C3193 C 0.79075 0.21302 0.33813 0.0
C3194 C 0.78152 0.21021 0.35284 0.0
C3195 C 0.77736 0.22361 0.36331 0.0
C3196 C 0.79274 0.19939 0.32572 0.0
C3197 C 0.80061 0.18438 0.33055 0.0
C3198 C 0.78672 0.20119 0.30913 0.0
C3199 C 0.77716 0.2162 0.30363 0.0
C3200 C 0.76238 0.22099 0.31202 0.0
C3201 C 0.75352 0.23523 0.30688 0.0
C3202 C 0.75923 0.24472 0.29327 0.0
C3203 C 0.7738 0.23994 0.28474 0.0
C3204 C 0.78272 0.22571 0.28984 0.0
C3205 C 0.78936 0.13187 0.28032 0.0
C3206 C 0.79633 0.13515 0.26443 0.0
C3207 C 0.7901 0.14398 0.29297 0.0
C3208 C 0.79789 0.15948 0.28994 0.0
C3209 C 0.80538 0.16252 0.27431 0.0
C3210 C 0.80465 0.15047 0.26169 0.0
C3211 C 0.79698 0.17313 0.30246 0.0
C3212 C 0.78912 0.18813 0.29768 0.0
C3213 C 0.80287 0.1712 0.31908 0.0
C3214 C 0.8117 0.15578 0.32466 0.0
C3215 C 0.82586 0.14989 0.31591 0.0
C3216 C 0.83404 0.13527 0.32114 0.0
C3217 C 0.82824 0.12649 0.33518 0.0
C3218 C 0.81428 0.13233 0.34404 0.0
C3219 C 0.80605 0.14694 0.33885 0.0
H3220 H 0.83459 0.11517 0.33921 0.0
H3221 H 0.75236 0.25574 0.28931 0.0
H3222 H 0.97985 0.55417 0.59969 0.0
H3223 H 0.00397 0.56163 0.5823 0.0
H3224 H 0.03536 0.52852 0.61143 0.0
H3225 H 0.01142 0.52123 0.62912 0.0
H3226 H 0.05245 0.55643 0.60149 0.0
H3227 H 0.01664 0.51474 0.57684 0.0
H3228 H 0.98969 0.50345 0.56681 0.0
H3229 H 0.98634 0.54304 0.53041 0.0
H3230 H 0.01299 0.55494 0.54061 0.0
H3231 H 0.11297 0.53346 0.53916 0.0
H3232 H 0.09175 0.53501 0.56125 0.0
H3233 H 0.06201 0.56816 0.53048 0.0
H3234 H 0.083 0.56654 0.50826 0.0
H3235 H 0.04418 0.54186 0.54158 0.0
H3236 H 0.08143 0.58253 0.56561 0.0
H3237 H 0.10856 0.59311 0.5759 0.0
H3238 H 0.11005 0.55399 0.61297 0.0
H3239 H 0.08302 0.54302 0.60274 0.0
C3240 C 0.99194 0.54869 0.6026 0.0
C3241 C -0.00634 0.53688 0.61561 0.0
C3242 C 0.00571 0.55298 0.59265 0.0
C3243 C 0.02134 0.54535 0.59539 0.0
C3244 C 0.02337 0.53448 0.60908 0.0
C3245 C 0.00964 0.53029 0.61913 0.0
C3246 C 0.03503 0.54731 0.58301 0.0
C3247 C 0.05071 0.55317 0.5884 0.0
C3248 C 0.03265 0.54316 0.56593 0.0
C3249 C 0.01673 0.53585 0.55963 0.0
C3250 C 0.0101 0.52113 0.56679 0.0
C3251 C -0.00512 0.5146 0.56107 0.0
C3252 C 0.98634 0.52249 0.54796 0.0
C3253 C 0.99297 0.53695 0.54057 0.0
C3254 C 0.00811 0.54362 0.54635 0.0
C3255 C 0.10204 0.54128 0.53718 0.0
C3256 C 0.09961 0.54976 0.52189 0.0
C3257 C 0.08996 0.54222 0.54986 0.0
C3258 C 0.07534 0.55174 0.5475 0.0
C3259 C 0.0732 0.56072 0.53251 0.0
C3260 C 0.08523 0.55977 0.51984 0.0
C3261 C 0.0616 0.55117 0.55997 0.0
C3262 C 0.0459 0.54537 0.55461 0.0
C3263 C 0.06405 0.55522 0.57706 0.0
C3264 C 0.08025 0.56187 0.58331 0.0
C3265 C 0.0876 0.5761 0.57587 0.0
C3266 C 0.10295 0.58219 0.58171 0.0
C3267 C 0.11104 0.57421 0.59505 0.0
C3268 C 0.10377 0.56015 0.60262 0.0
C3269 C 0.08842 0.55401 0.59682 0.0
H3270 H 0.12293 0.57894 0.59955 0.0
H3271 H 0.97458 0.51739 0.54353 0.0
H3272 H 0.71774 0.22255 0.61299 0.0
H3273 H 0.70744 0.1995 0.63031 0.0
H3274 H 0.67676 0.23413 0.65844 0.0
H3275 H 0.68717 0.25734 0.64132 0.0
H3276 H 0.69608 0.21583 0.67848 0.0
H3277 H 0.65883 0.20441 0.63319 0.0
H3278 H 0.65049 0.19934 0.60387 0.0
H3279 H 0.68167 0.15541 0.60229 0.0
H3280 H 0.69039 0.16034 0.63153 0.0
H3281 H 0.66787 0.15185 0.73163 0.0
H3282 H 0.66545 0.17324 0.70981 0.0
H3283 H 0.69891 0.14488 0.67808 0.0
H3284 H 0.70123 0.12327 0.69971 0.0
H3285 H 0.67411 0.16067 0.65989 0.0
H3286 H 0.71461 0.17453 0.70269 0.0
H3287 H 0.72404 0.17933 0.73174 0.0
H3288 H 0.68769 0.21872 0.73733 0.0
H3289 H 0.67789 0.21399 0.70836 0.0
C3290 C 0.70862 0.22526 0.6227 0.0
C3291 C 0.70342 0.24182 0.62589 0.0
C3292 C 0.70263 0.21203 0.6325 0.0
C3293 C 0.69124 0.21509 0.64558 0.0
C3294 C 0.68552 0.23151 0.64837 0.0
C3295 C 0.69152 0.24476 0.63859 0.0
C3296 C 0.68686 0.20152 0.6575 0.0
C3297 C 0.69087 0.20392 0.67445 0.0
C3298 C 0.68054 0.18582 0.65216 0.0
C3299 C 0.67537 0.18283 0.63453 0.0
C3300 C 0.66403 0.19375 0.62655 0.0
C3301 C 0.6592 0.19088 0.60995 0.0
C3302 C 0.66557 0.17708 0.60121 0.0
C3303 C 0.67675 0.1661 0.60907 0.0
C3304 C 0.68162 0.16891 0.62567 0.0
C3305 C 0.6745 0.15 0.71991 0.0
C3306 C 0.68499 0.13601 0.71752 0.0
C3307 C 0.67307 0.16222 0.70745 0.0
C3308 C 0.68223 0.16074 0.69249 0.0
C3309 C 0.69177 0.14625 0.68958 0.0
C3310 C 0.69315 0.13396 0.702 0.0
C3311 C 0.6834 0.17505 0.68073 0.0
C3312 C 0.67895 0.17274 0.66388 0.0
C3313 C 0.68944 0.19084 0.68608 0.0
C3314 C 0.69539 0.19377 0.70345 0.0
C3315 C 0.70855 0.18412 0.71016 0.0
C3316 C 0.71397 0.18684 0.7266 0.0
C3317 C 0.70644 0.19928 0.73639 0.0
C3318 C 0.69349 0.20906 0.72974 0.0
C3319 C 0.688 0.20637 0.71332 0.0
H3320 H 0.71066 0.20138 0.74911 0.0
H3321 H 0.66182 0.17488 0.58836 0.0
H3322 H 0.12143 0.45789 0.95311 0.0
H3323 H 0.10315 0.45983 0.92856 0.0
H3324 H 0.06698 0.42776 0.95297 0.0
H3325 H 0.08517 0.42558 0.97742 0.0
H3326 H 0.07004 0.4204 0.91972 0.0
H3327 H 0.06263 0.46971 0.95446 0.0
H3328 H 0.07209 0.49505 0.96944 0.0
H3329 H 0.09006 0.51607 0.92315 0.0
H3330 H 0.0809 0.49073 0.90794 0.0
H3331 H 0.99089 0.44294 0.88699 0.0
H3332 H 0.01595 0.43667 0.90335 0.0
H3333 H 0.04462 0.47109 0.8729 0.0
H3334 H 0.01956 0.4776 0.85654 0.0
H3335 H 0.04868 0.4772 0.90566 0.0
H3336 H 0.05189 0.42923 0.8703 0.0
H3337 H 0.0417 0.40399 0.85567 0.0
H3338 H 0.03108 0.38042 0.90297 0.0
H3339 H 0.04098 0.4056 0.9179 0.0
C3340 C 0.10968 0.45107 0.95317 0.0
C3341 C 0.10468 0.44172 0.9673 0.0
C3342 C 0.09925 0.45222 0.93915 0.0
C3343 C 0.08364 0.4441 0.93906 0.0
C3344 C 0.07898 0.43413 0.9528 0.0
C3345 C 0.08937 0.43298 0.96681 0.0
C3346 C 0.07159 0.4468 0.92523 0.0
C3347 C 0.06531 0.4328 0.91664 0.0
C3348 C 0.06577 0.46303 0.92097 0.0
C3349 C 0.07128 0.47825 0.93011 0.0
C3350 C 0.06873 0.47967 0.94751 0.0
C3351 C 0.07401 0.49404 0.95603 0.0
C3352 C 0.08172 0.50714 0.94726 0.0
C3353 C 0.08412 0.5059 0.92994 0.0
C3354 C 0.07889 0.49155 0.92136 0.0
C3355 C 0.00256 0.44903 0.8836 0.0
C3356 C 0.00319 0.46084 0.8705 0.0
C3357 C 0.01691 0.44535 0.89292 0.0
C3358 C 0.03217 0.45332 0.88925 0.0
C3359 C 0.03296 0.46477 0.8759 0.0
C3360 C 0.01862 0.46846 0.86655 0.0
C3361 C 0.04687 0.45076 0.90029 0.0
C3362 C 0.05363 0.46481 0.90842 0.0
C3363 C 0.05306 0.43457 0.90414 0.0
C3364 C 0.04708 0.41937 0.89522 0.0
C3365 C 0.04726 0.41872 0.87759 0.0
C3366 C 0.04156 0.40441 0.86924 0.0
C3367 C 0.03572 0.39062 0.87838 0.0
C3368 C 0.0356 0.39111 0.8959 0.0
C3369 C 0.04128 0.40539 0.90432 0.0
H3370 H 0.03131 0.37956 0.8719 0.0
H3371 H 0.08579 0.51826 0.95388 0.0
H3372 H 0.78246 0.87398 0.19747 0.0
H3373 H 0.78347 0.85506 0.17339 0.0
H3374 H 0.80518 0.81641 0.20448 0.0
H3375 H 0.80453 0.83527 0.22852 0.0
H3376 H 0.81842 0.81599 0.17294 0.0
H3377 H 0.76336 0.81874 0.19881 0.0
H3378 H 0.73796 0.83346 0.20857 0.0
H3379 H 0.72817 0.85044 0.1584 0.0
H3380 H 0.75377 0.83615 0.1484 0.0
H3381 H 0.78949 0.73872 0.14058 0.0
H3382 H 0.79768 0.7638 0.15601 0.0
H3383 H 0.77194 0.79478 0.11982 0.0
H3384 H 0.76338 0.76972 0.10449 0.0
H3385 H 0.7622 0.80225 0.15024 0.0
H3386 H 0.81523 0.79561 0.12361 0.0
H3387 H 0.84068 0.78083 0.11408 0.0
H3388 H 0.85424 0.77066 0.16519 0.0
H3389 H 0.82874 0.78517 0.17504 0.0
C3390 C 0.7877 0.86155 0.19914 0.0
C3391 C 0.79316 0.85604 0.21499 0.0
C3392 C 0.78827 0.85076 0.18535 0.0
C3393 C 0.79415 0.83426 0.18724 0.0
C3394 C 0.80058 0.82909 0.20277 0.0
C3395 C 0.8001 0.83988 0.21653 0.0
C3396 C 0.79207 0.82182 0.17365 0.0
C3397 C 0.80615 0.81292 0.16796 0.0
C3398 C 0.77608 0.81814 0.16691 0.0
C3399 C 0.76059 0.82656 0.1729 0.0
C3400 C 0.75586 0.82572 0.18988 0.0
C3401 C 0.74142 0.83397 0.19546 0.0
C3402 C 0.73146 0.84289 0.18412 0.0
C3403 C 0.73591 0.84355 0.16717 0.0
C3404 C 0.7504 0.8354 0.16155 0.0
C3405 C 0.78579 0.75087 0.13573 0.0
C3406 C 0.77564 0.7522 0.12139 0.0
C3407 C 0.79059 0.76523 0.14452 0.0
C3408 C 0.78552 0.78119 0.13901 0.0
C3409 C 0.77599 0.78259 0.12429 0.0
C3410 C 0.7711 0.76824 0.11556 0.0
C3411 C 0.78855 0.79614 0.1496 0.0
C3412 C 0.77458 0.80549 0.15485 0.0
C3413 C 0.80463 0.80017 0.15592 0.0
C3414 C 0.81999 0.7914 0.15006 0.0
C3415 C 0.82356 0.79011 0.13282 0.0
C3416 C 0.83802 0.7818 0.12736 0.0
C3417 C 0.84906 0.77479 0.13902 0.0
C3418 C 0.84568 0.7761 0.15617 0.0
C3419 C 0.83123 0.78439 0.1617 0.0
H3420 H 0.86024 0.76836 0.13477 0.0
H3421 H 0.72028 0.84927 0.18847 0.0
H3422 H 0.40252 0.56546 0.48218 0.0
H3423 H 0.4237 0.56752 0.46015 0.0
H3424 H 0.39501 0.53371 0.42924 0.0
H3425 H 0.3736 0.5318 0.45107 0.0
H3426 H 0.44214 0.54177 0.44996 0.0
H3427 H 0.4041 0.54021 0.38805 0.0
H3428 H 0.37725 0.55087 0.37698 0.0
H3429 H 0.37819 0.59128 0.41253 0.0
H3430 H 0.40515 0.58101 0.42366 0.0
H3431 H 0.47381 0.51502 0.36361 0.0
H3432 H 0.45043 0.52395 0.38128 0.0
H3433 H 0.48334 0.5574 0.4081 0.0
H3434 H 0.5069 0.54827 0.39074 0.0
H3435 H 0.43449 0.55286 0.38919 0.0
H3436 H 0.47422 0.55489 0.44955 0.0
H3437 H 0.50035 0.54277 0.46089 0.0
H3438 H 0.49475 0.49982 0.42892 0.0
H3439 H 0.46849 0.51158 0.41757 0.0
C3440 C 0.40055 0.55868 0.47058 0.0
C3441 C 0.38644 0.54834 0.46844 0.0
C3442 C 0.41267 0.55989 0.45801 0.0
C3443 C 0.41091 0.55083 0.44305 0.0
C3444 C 0.3965 0.54104 0.44058 0.0
C3445 C 0.38432 0.53987 0.45312 0.0
C3446 C 0.42492 0.55013 0.43088 0.0
C3447 C 0.44056 0.5446 0.43674 0.0
C3448 C 0.42269 0.55329 0.41356 0.0
C3449 C 0.4066 0.55975 0.40677 0.0
C3450 C 0.39863 0.55142 0.39345 0.0
C3451 C 0.38338 0.55738 0.38718 0.0
C3452 C 0.376 0.57171 0.39408 0.0
C3453 C 0.38389 0.58014 0.40724 0.0
C3454 C 0.39914 0.57424 0.41355 0.0
C3455 C 0.47606 0.52443 0.37313 0.0
C3456 C 0.49228 0.53072 0.37596 0.0
C3457 C 0.46265 0.52958 0.38316 0.0
C3458 C 0.46522 0.54113 0.39615 0.0
C3459 C 0.48117 0.54825 0.39831 0.0
C3460 C 0.49461 0.54301 0.38838 0.0
C3461 C 0.45162 0.54452 0.40834 0.0
C3462 C 0.4361 0.5504 0.40248 0.0
C3463 C 0.45385 0.54153 0.42569 0.0
C3464 C 0.46952 0.53423 0.43257 0.0
C3465 C 0.47856 0.54285 0.44498 0.0
C3466 C 0.49339 0.53604 0.45141 0.0
C3467 C 0.49924 0.52057 0.44558 0.0
C3468 C 0.49024 0.51184 0.43337 0.0
C3469 C 0.47539 0.51857 0.42692 0.0
H3470 H 0.51073 0.51533 0.45056 0.0
H3471 H 0.36419 0.5763 0.38922 0.0
H3472 H 0.75806 0.66226 0.83912 0.0
H3473 H 0.7812 0.65951 0.81921 0.0
H3474 H 0.808 0.69887 0.84485 0.0
H3475 H 0.78516 0.70136 0.86506 0.0
H3476 H 0.78967 0.68298 0.7982 0.0
H3477 H 0.84946 0.69681 0.83746 0.0
H3478 H 0.86071 0.69053 0.86557 0.0
H3479 H 0.83026 0.6462 0.86832 0.0
H3480 H 0.81899 0.65207 0.84014 0.0
H3481 H 0.87235 0.72034 0.7684 0.0
H3482 H 0.85518 0.70981 0.79144 0.0
H3483 H 0.8354 0.67116 0.75922 0.0
H3484 H 0.85216 0.68198 0.73588 0.0
H3485 H 0.85093 0.68152 0.80876 0.0
H3486 H 0.79357 0.66649 0.76776 0.0
H3487 H 0.78189 0.67386 0.74006 0.0
H3488 H 0.80684 0.72153 0.74184 0.0
H3489 H 0.81827 0.71466 0.76969 0.0
C3490 C 0.76904 0.67009 0.84073 0.0
C3491 C 0.76972 0.68214 0.85357 0.0
C3492 C 0.78225 0.66849 0.82935 0.0
C3493 C 0.79636 0.67893 0.83055 0.0
C3494 C 0.7974 0.69044 0.84383 0.0
C3495 C 0.78426 0.69193 0.85533 0.0
C3496 C 0.80891 0.67932 0.81681 0.0
C3497 C 0.80306 0.6822 0.80047 0.0
C3498 C 0.82639 0.67876 0.81983 0.0
C3499 C 0.8333 0.67496 0.8367 0.0
C3500 C 0.84523 0.68566 0.84401 0.0
C3501 C 0.8516 0.68219 0.85997 0.0
C3502 C 0.84617 0.668 0.86874 0.0
C3503 C 0.83441 0.65722 0.86154 0.0
C3504 C 0.82801 0.66063 0.84558 0.0
C3505 C 0.8645 0.70948 0.76623 0.0
C3506 C 0.8634 0.70217 0.75022 0.0
C3507 C 0.85476 0.70341 0.77946 0.0
C3508 C 0.84381 0.68987 0.77698 0.0
C3509 C 0.84354 0.68182 0.76132 0.0
C3510 C 0.85311 0.68803 0.748 0.0
C3511 C 0.83162 0.68536 0.79029 0.0
C3512 C 0.83752 0.68184 0.80651 0.0
C3513 C 0.81414 0.68544 0.78724 0.0
C3514 C 0.80697 0.68994 0.77068 0.0
C3515 C 0.79648 0.67858 0.76226 0.0
C3516 C 0.78987 0.6827 0.74654 0.0
C3517 C 0.79363 0.69816 0.73917 0.0
C3518 C 0.80391 0.70959 0.74755 0.0
C3519 C 0.81045 0.70559 0.7633 0.0
H3520 H 0.78857 0.70131 0.72697 0.0
H3521 H 0.85111 0.66534 0.8811 0.0
H3522 H 0.53708 0.53653 0.11601 0.0
H3523 H 0.53794 0.55817 0.09428 0.0
H3524 H 0.56868 0.52609 0.06337 0.0
H3525 H 0.56777 0.50431 0.0849 0.0
H3526 H 0.56207 0.57598 0.07645 0.0
H3527 H 0.55245 0.52724 0.02387 0.0
H3528 H 0.54111 0.49866 0.02022 0.0
H3529 H 0.50842 0.50589 0.06247 0.0
H3530 H 0.51939 0.53457 0.0662 0.0
H3531 H 0.5467 0.59364 0.9803 0.0
H3532 H 0.55618 0.5761 0.00358 0.0
H3533 H 0.52829 0.60688 0.03829 0.0
H3534 H 0.51892 0.62463 0.01516 0.0
H3535 H 0.53603 0.55769 0.02302 0.0
H3536 H 0.54664 0.60519 0.07703 0.0
H3537 H 0.55693 0.63409 0.08102 0.0
H3538 H 0.58627 0.63022 0.03598 0.0
H3539 H 0.57635 0.60123 0.03184 0.0
C3540 C 0.54428 0.53418 0.10473 0.0
C3541 C 0.55211 0.51857 0.10206 0.0
C3542 C 0.54481 0.5466 0.09236 0.0
C3543 C 0.55313 0.54358 0.07715 0.0
C3544 C 0.56199 0.52853 0.07496 0.0
C3545 C 0.56145 0.5161 0.08728 0.0
C3546 C 0.55108 0.55537 0.06296 0.0
C3547 C 0.55631 0.57206 0.06478 0.0
C3548 C 0.54375 0.55012 0.0477 0.0
C3549 C 0.53691 0.53296 0.04543 0.0
C3550 C 0.54281 0.52273 0.03234 0.0
C3551 C 0.53645 0.50652 0.03026 0.0
C3552 C 0.5241 0.50044 0.04114 0.0
C3553 C 0.51804 0.51058 0.05409 0.0
C3554 C 0.52434 0.52681 0.0562 0.0
C3555 C 0.54276 0.59684 0.99291 0.0
C3556 C 0.53194 0.61048 -0.00415 0.0
C3557 C 0.5482 0.58679 0.00619 0.0
C3558 C 0.54302 0.59024 0.02266 0.0
C3559 C 0.53266 0.60415 0.02571 0.0
C3560 C 0.52722 0.61422 0.01244 0.0
C3561 C 0.54709 0.57839 0.03638 0.0
C3562 C 0.54208 0.56163 0.03455 0.0
C3563 C 0.55447 0.58367 0.05163 0.0
C3564 C 0.56061 0.60108 0.05405 0.0
C3565 C 0.55533 0.61048 0.06801 0.0
C3566 C 0.5611 0.62688 0.0703 0.0
C3567 C 0.57221 0.634 0.05874 0.0
C3568 C 0.57761 0.62471 0.04489 0.0
C3569 C 0.57189 0.60831 0.04255 0.0
H3570 H 0.57665 0.6467 0.06052 0.0
H3571 H 0.5192 0.48789 0.03952 0.0
H3572 H 0.60636 0.28559 0.26119 0.0
H3573 H 0.62252 0.29555 0.28528 0.0
H3574 H 0.66847 0.2859 0.25811 0.0
H3575 H 0.6523 0.27728 0.23371 0.0
H3576 H 0.64098 0.28156 0.30511 0.0
H3577 H 0.70084 0.30721 0.27028 0.0
H3578 H 0.70739 0.32389 0.24504 0.0
H3579 H 0.65766 0.3446 0.24548 0.0
H3580 H 0.65088 0.32824 0.27086 0.0
H3581 H 0.71153 0.26886 0.35383 0.0
H3582 H 0.68887 0.27106 0.33352 0.0
H3583 H 0.69821 0.32427 0.32864 0.0
H3584 H 0.72195 0.32167 0.34797 0.0
H3585 H 0.69364 0.31426 0.30037 0.0
H3586 H 0.66099 0.30631 0.34855 0.0
H3587 H 0.65175 0.29431 0.37555 0.0
H3588 H 0.64194 0.24711 0.35161 0.0
H3589 H 0.65135 0.25873 0.32451 0.0
C3590 C 0.61992 0.28592 0.26034 0.0
C3591 C 0.62814 0.2808 0.24563 0.0
C3592 C 0.62915 0.29156 0.27411 0.0
C3593 C 0.64678 0.29176 0.27353 0.0
C3594 C 0.65493 0.2865 0.25877 0.0
C3595 C 0.64569 0.2814 0.24485 0.0
C3596 C 0.65673 0.2962 0.28865 0.0
C3597 C 0.65238 0.28889 0.3041 0.0
C3598 C 0.67124 0.3064 0.28767 0.0
C3599 C 0.67532 0.3164 0.27245 0.0
C3600 C 0.69133 0.3154 0.26507 0.0
C3601 C 0.69507 0.32478 0.25071 0.0
C3602 C 0.68294 0.33527 0.24364 0.0
C3603 C 0.66704 0.33644 0.25094 0.0
C3604 C 0.66323 0.32709 0.2653 0.0
C3605 C 0.70857 0.28105 0.34855 0.0
C3606 C 0.71836 0.29511 0.35242 0.0
C3607 C 0.6955 0.28236 0.33705 0.0
C3608 C 0.69147 0.29793 0.32974 0.0
C3609 C 0.70101 0.31212 0.33405 0.0
C3610 C 0.71451 0.31066 0.34512 0.0
C3611 C 0.67828 0.29895 0.3166 0.0
C3612 C 0.68202 0.30728 0.30151 0.0
C3613 C 0.66273 0.2905 0.31822 0.0
C3614 C 0.65694 0.2834 0.33448 0.0
C3615 C 0.65695 0.29334 0.34905 0.0
C3616 C 0.65167 0.28661 0.36438 0.0
C3617 C 0.64628 0.26996 0.36529 0.0
C3618 C 0.64611 0.26001 0.35088 0.0
C3619 C 0.65138 0.26668 0.33552 0.0
H3620 H 0.6422 0.26477 0.37717 0.0
H3621 H 0.68586 0.34252 0.23252 0.0
H3622 H 0.94603 0.45361 0.62311 0.0
H3623 H 0.94919 0.43005 0.60357 0.0
H3624 H 0.94264 0.46379 0.56177 0.0
H3625 H 0.93913 0.48731 0.58109 0.0
H3626 H 0.92688 0.41881 0.57442 0.0
H3627 H 0.97768 0.45375 0.53695 0.0
H3628 H -0.0004 0.47515 0.54135 0.0
H3629 H 0.00392 0.46032 0.59297 0.0
H3630 H 0.98222 0.43871 0.58882 0.0
H3631 H 0.94266 0.38774 0.49157 0.0
H3632 H 0.93649 0.40431 0.51667 0.0
H3633 H 0.98087 0.38472 0.54056 0.0
H3634 H 0.98706 0.36797 0.51564 0.0
H3635 H 0.97892 0.41985 0.54014 0.0
H3636 H 0.94534 0.37259 0.55548 0.0
H3637 H 0.92387 0.3507 0.55162 0.0
H3638 H 0.88601 0.38856 0.54552 0.0
H3639 H 0.9073 0.4107 0.5491 0.0
C3640 C 0.94499 0.45595 0.60976 0.0
C3641 C 0.94238 0.4723 0.60362 0.0
C3642 C 0.94674 0.4425 0.59866 0.0
C3643 C 0.94623 0.4453 0.58131 0.0
C3644 C 0.94308 0.46147 0.57516 0.0
C3645 C 0.94104 0.47486 0.58622 0.0
C3646 C 0.95011 0.43164 0.5695 0.0
C3647 C 0.93826 0.41893 0.56694 0.0
C3648 C 0.96509 0.4318 0.56 0.0
C3649 C 0.97821 0.44472 0.5626 0.0
C3650 C 0.98336 0.45503 0.54922 0.0
C3651 C -0.00425 0.46718 0.55167 0.0
C3652 C 0.00315 0.46908 0.56742 0.0
C3653 C -0.00184 0.45886 0.58078 0.0
C3654 C 0.98578 0.44668 0.57839 0.0
C3655 C 0.95099 0.3868 0.50224 0.0
C3656 C 0.96539 0.37662 0.50159 0.0
C3657 C 0.9474 0.39619 0.51658 0.0
C3658 C 0.95822 0.39567 0.53043 0.0
C3659 C 0.97237 0.38523 0.52999 0.0
C3660 C 0.97585 0.37566 0.51575 0.0
C3661 C 0.95553 0.4071 0.54475 0.0
C3662 C 0.96759 0.41953 0.54771 0.0
C3663 C 0.94079 0.40658 0.55464 0.0
C3664 C 0.92796 0.39331 0.55242 0.0
C3665 C 0.93246 0.37625 0.55316 0.0
C3666 C 0.92032 0.3638 0.55105 0.0
C3667 C 0.90359 0.36823 0.54829 0.0
C3668 C 0.89898 0.38514 0.54765 0.0
C3669 C 0.91108 0.39765 0.54974 0.0
H3670 H 0.89421 0.35857 0.54667 0.0
H3671 H 0.01276 0.47849 0.56929 0.0
H3672 H 0.84023 0.29641 0.75968 0.0
H3673 H 0.82323 0.30548 0.73583 0.0
H3674 H 0.84987 0.27103 0.70366 0.0
H3675 H 0.86715 0.26218 0.72726 0.0
H3676 H 0.84454 0.29976 0.68766 0.0
H3677 H 0.8109 0.26095 0.72014 0.0
H3678 H 0.79618 0.24988 0.74504 0.0
H3679 H 0.76805 0.29567 0.74911 0.0
H3680 H 0.78261 0.307 0.7242 0.0
H3681 H 0.78494 0.28082 0.62425 0.0
H3682 H 0.80585 0.2825 0.6465 0.0
H3683 H 0.77539 0.31895 0.67251 0.0
H3684 H 0.75428 0.31713 0.65048 0.0
H3685 H 0.78285 0.29325 0.69214 0.0
H3686 H 0.8137 0.32966 0.65594 0.0
H3687 H 0.82702 0.33864 0.62948 0.0
H3688 H 0.86001 0.29607 0.63132 0.0
H3689 H 0.84673 0.28669 0.65767 0.0
C3690 C 0.84255 0.29084 0.74751 0.0
C3691 C 0.85496 0.27847 0.74541 0.0
C3692 C 0.8328 0.29602 0.7339 0.0
C3693 C 0.83515 0.28877 0.71802 0.0
C3694 C 0.84786 0.2768 0.7158 0.0
C3695 C 0.85767 0.2717 0.72935 0.0
C3696 C 0.82393 0.29303 0.70385 0.0
C3697 C 0.83105 0.29828 0.68858 0.0
C3698 C 0.80632 0.29146 0.70517 0.0
C3699 C 0.79799 0.28489 0.72046 0.0
C3700 C 0.80171 0.26872 0.72646 0.0
C3701 C 0.79337 0.26238 0.74055 0.0
C3702 C 0.78126 0.2721 0.74871 0.0
C3703 C 0.77747 0.28817 0.7428 0.0
C3704 C 0.78573 0.29454 0.72869 0.0
C3705 C 0.78283 0.28945 0.63453 0.0
C3706 C 0.76784 0.29868 0.63571 0.0
C3707 C 0.79486 0.29047 0.64719 0.0
C3708 C 0.79218 0.30089 0.66114 0.0
C3709 C 0.77767 0.31081 0.66186 0.0
C3710 C 0.76561 0.30973 0.64926 0.0
C3711 C 0.80342 0.29983 0.67585 0.0
C3712 C 0.79631 0.29509 0.69124 0.0
C3713 C 0.82101 0.30174 0.67454 0.0
C3714 C 0.82913 0.30741 0.65875 0.0
C3715 C 0.82372 0.32215 0.65065 0.0
C3716 C 0.83127 0.32732 0.63567 0.0
C3717 C 0.84433 0.31792 0.62871 0.0
C3718 C 0.84989 0.30334 0.63673 0.0
C3719 C 0.84237 0.2981 0.6517 0.0
H3720 H 0.85016 0.32194 0.61711 0.0
H3721 H 0.77473 0.26715 0.75954 0.0
H3722 H 0.94787 0.53818 0.8647 0.0
H3723 H 0.94849 0.56024 0.88606 0.0
H3724 H 0.93695 0.52371 0.92429 0.0
H3725 H 0.93604 0.50164 0.90314 0.0
H3726 H 0.92488 0.57079 0.91466 0.0
H3727 H 0.96988 0.52954 0.95218 0.0
H3728 H 0.98961 0.50608 0.94766 0.0
H3729 H -0.00071 0.52354 0.89759 0.0
H3730 H 0.97986 0.54724 0.90193 0.0
H3731 H 0.94206 0.59872 -0.00072 0.0
H3732 H 0.93463 0.58256 0.97423 0.0
H3733 H 0.97979 0.59948 0.94968 0.0
H3734 H 0.98721 0.61584 0.97447 0.0
H3735 H 0.97514 0.5639 0.95073 0.0
H3736 H 0.94599 0.61447 0.9356 0.0
H3737 H 0.92618 0.63787 0.93971 0.0
H3738 H 0.88544 0.60294 0.94424 0.0
H3739 H 0.90507 0.5793 0.9404 0.0
C3740 C 0.94506 0.53491 0.8776 0.0
C3741 C 0.94213 0.51813 0.88226 0.0
C3742 C 0.94532 0.54754 0.88974 0.0
C3743 C 0.94289 0.54349 0.90668 0.0
C3744 C 0.93887 0.52699 0.91123 0.0
C3745 C 0.93839 0.51442 0.89911 0.0
C3746 C 0.94679 0.55587 0.91981 0.0
C3747 C 0.93584 0.56935 0.92258 0.0
C3748 C 0.9612 0.55397 0.92993 0.0
C3749 C 0.97328 0.54004 0.92733 0.0
C3750 C 0.97629 0.5284 0.94024 0.0
C3751 C 0.98741 0.51506 0.93771 0.0
C3752 C -0.00435 0.51328 0.92232 0.0
C3753 C 0.99285 0.52489 0.90947 0.0
C3754 C 0.98177 0.53827 0.91196 0.0
C3755 C 0.95031 0.59913 0.98848 0.0
C3756 C 0.96526 0.60849 0.98887 0.0
C3757 C 0.946 0.58998 0.97418 0.0
C3758 C 0.95666 0.58991 0.96017 0.0
C3759 C 0.97141 0.59945 0.9604 0.0
C3760 C 0.9756 0.6088 0.97456 0.0
C3761 C 0.95315 0.57883 0.94578 0.0
C3762 C 0.96418 0.56546 0.94282 0.0
C3763 C 0.93885 0.58092 0.9355 0.0
C3764 C 0.92704 0.59511 0.93789 0.0
C3765 C 0.93284 0.61177 0.93764 0.0
C3766 C 0.92163 0.62508 0.93988 0.0
C3767 C 0.90457 0.6219 0.94228 0.0
C3768 C 0.89867 0.60539 0.94241 0.0
C3769 C 0.90983 0.59203 0.94018 0.0
H3770 H 0.89591 0.63222 0.944 0.0
H3771 H 0.00424 0.50293 0.92037 0.0
H3772 H 0.63974 0.69264 0.25884 0.0
H3773 H 0.65772 0.68566 0.23506 0.0
H3774 H 0.6242 0.71198 0.20173 0.0
H3775 H 0.606 0.71894 0.22544 0.0
H3776 H 0.63743 0.68285 0.1874 0.0
H3777 H 0.65664 0.73225 0.21584 0.0
H3778 H 0.66534 0.74901 0.2403 0.0
H3779 H 0.70604 0.71491 0.24946 0.0
H3780 H 0.69743 0.6978 0.22518 0.0
H3781 H 0.69545 0.7058 0.12278 0.0
H3782 H 0.67407 0.70416 0.14468 0.0
H3783 H 0.70928 0.67936 0.17743 0.0
H3784 H 0.73081 0.68107 0.15569 0.0
H3785 H 0.69487 0.7063 0.19206 0.0
H3786 H 0.67636 0.65808 0.16132 0.0
H3787 H 0.66745 0.64251 0.13617 0.0
H3788 H 0.62535 0.67563 0.13031 0.0
H3789 H 0.63414 0.69155 0.1553 0.0
C3790 C 0.63602 0.69675 0.24644 0.0
C3791 C 0.62155 0.70658 0.24408 0.0
C3792 C 0.64631 0.69273 0.23286 0.0
C3793 C 0.64238 0.69853 0.21672 0.0
C3794 C 0.62744 0.70743 0.21413 0.0
C3795 C 0.61711 0.71146 0.22771 0.0
C3796 C 0.65464 0.69666 0.20291 0.0
C3797 C 0.64996 0.68806 0.18831 0.0
C3798 C 0.67101 0.70334 0.20425 0.0
C3799 C 0.67628 0.71364 0.21881 0.0
C3800 C 0.66736 0.72825 0.22316 0.0
C3801 C 0.67229 0.73783 0.23697 0.0
C3802 C 0.6862 0.733 0.24646 0.0
C3803 C 0.69525 0.71862 0.24212 0.0
C3804 C 0.69035 0.70898 0.22833 0.0
C3805 C 0.6986 0.69979 0.13455 0.0
C3806 C 0.71489 0.69369 0.13753 0.0
C3807 C 0.68633 0.69878 0.14702 0.0
C3808 C 0.69009 0.69158 0.16264 0.0
C3809 C 0.70615 0.68497 0.16545 0.0
C3810 C 0.71842 0.68595 0.15299 0.0
C3811 C 0.6778 0.69229 0.17654 0.0
C3812 C 0.68243 0.70087 0.19115 0.0
C3813 C 0.66139 0.68572 0.17509 0.0
C3814 C 0.656 0.67609 0.16011 0.0
C3815 C 0.66528 0.66212 0.1546 0.0
C3816 C 0.66023 0.65322 0.14038 0.0
C3817 C 0.64587 0.6581 0.13162 0.0
C3818 C 0.63649 0.67187 0.13709 0.0
C3819 C 0.64148 0.68083 0.1513 0.0
H3820 H 0.64199 0.6512 0.12061 0.0
H3821 H 0.69 0.74043 0.25715 0.0
H3822 H 0.55974 0.47862 0.40468 0.0
H3823 H 0.55929 0.45501 0.42418 0.0
H3824 H 0.53393 0.42476 0.38725 0.0
H3825 H 0.53409 0.44839 0.36772 0.0
H3826 H 0.51766 0.42453 0.41636 0.0
H3827 H 0.57415 0.41575 0.39892 0.0
H3828 H 0.60335 0.42362 0.39249 0.0
H3829 H 0.61098 0.43796 0.4438 0.0
H3830 H 0.58174 0.4304 0.45051 0.0
H3831 H 0.5141 0.35591 0.47204 0.0
H3832 H 0.52214 0.37207 0.44724 0.0
H3833 H 0.54803 0.40765 0.47863 0.0
H3834 H 0.54036 0.3914 0.50347 0.0
H3835 H 0.56512 0.40213 0.44979 0.0
H3836 H 0.50802 0.41493 0.46598 0.0
H3837 H 0.47858 0.40812 0.47264 0.0
H3838 H 0.47216 0.3871 0.4235 0.0
H3839 H 0.50165 0.3936 0.41663 0.0
C3840 C 0.55431 0.46687 0.40058 0.0
C3841 C 0.54682 0.46545 0.38469 0.0
C3842 C 0.55415 0.45334 0.41172 0.0
C3843 C 0.54665 0.4381 0.40712 0.0
C3844 C 0.53978 0.43642 0.39103 0.0
C3845 C 0.53989 0.44995 0.37989 0.0
C3846 C 0.54447 0.42459 0.4197 0.0
C3847 C 0.52809 0.41934 0.42339 0.0
C3848 C 0.55805 0.41815 0.42914 0.0
C3849 C 0.5757 0.4226 0.42519 0.0
C3850 C 0.58201 0.42069 0.40882 0.0
C3851 C 0.59858 0.42508 0.40512 0.0
C3852 C 0.609 0.43132 0.41772 0.0
C3853 C 0.60289 0.43314 0.43406 0.0
C3854 C 0.58632 0.42877 0.43782 0.0
C3855 C 0.52166 0.36707 0.47367 0.0
C3856 C 0.5264 0.37249 0.48976 0.0
C3857 C 0.52624 0.37628 0.45948 0.0
C3858 C 0.53545 0.39119 0.46114 0.0
C3859 C 0.5409 0.39618 0.47708 0.0
C3860 C 0.53643 0.38692 0.49128 0.0
C3861 C 0.53832 0.40227 0.44649 0.0
C3862 C 0.55477 0.40711 0.44249 0.0
C3863 C 0.52481 0.40843 0.43677 0.0
C3864 C 0.50708 0.40457 0.44087 0.0
C3865 C 0.50036 0.40874 0.45665 0.0
C3866 C 0.48366 0.40495 0.46045 0.0
C3867 C 0.47352 0.39713 0.44852 0.0
C3868 C 0.48004 0.39312 0.43274 0.0
C3869 C 0.49674 0.39686 0.42888 0.0
H3870 H 0.4606 0.39421 0.45148 0.0
H3871 H 0.62183 0.43472 0.41484 0.0
H3872 H 0.76027 0.87528 0.70729 0.0
H3873 H 0.78374 0.85683 0.70011 0.0
H3874 H 0.74934 0.81582 0.69253 0.0
H3875 H 0.72576 0.83419 0.69953 0.0
H3876 H 0.77514 0.80927 0.71566 0.0
H3877 H 0.76812 0.83066 0.65979 0.0
H3878 H 0.7655 0.85262 0.63814 0.0
H3879 H 0.81462 0.87094 0.6503 0.0
H3880 H 0.81743 0.84923 0.6722 0.0
H3881 H 0.84005 0.7565 0.67223 0.0
H3882 H 0.81767 0.77748 0.67023 0.0
H3883 H 0.83653 0.80202 0.7145 0.0
H3884 H 0.85916 0.78134 0.71642 0.0
H3885 H 0.81786 0.81589 0.67074 0.0
H3886 H 0.80012 0.80391 0.73923 0.0
H3887 H 0.80254 0.78168 0.7607 0.0
H3888 H 0.80173 0.74407 0.72216 0.0
H3889 H 0.79907 0.76603 0.70058 0.0
C3890 C 0.75767 0.8624 0.70384 0.0
C3891 C 0.74119 0.85614 0.70408 0.0
C3892 C 0.77108 0.85192 0.69966 0.0
C3893 C 0.76821 0.83502 0.69578 0.0
C3894 C 0.75174 0.82887 0.69545 0.0
C3895 C 0.73831 0.83938 0.69942 0.0
C3896 C 0.78248 0.8234 0.69377 0.0
C3897 C 0.78442 0.81069 0.70578 0.0
C3898 C 0.79458 0.82533 0.68091 0.0
C3899 C 0.79292 0.8384 0.66775 0.0
C3900 C 0.7783 0.83946 0.65796 0.0
C3901 C 0.77679 0.85185 0.64561 0.0
C3902 C 0.78987 0.8632 0.64287 0.0
C3903 C 0.80449 0.86216 0.65245 0.0
C3904 C 0.80606 0.8498 0.66482 0.0
C3905 C 0.83961 0.76656 0.68135 0.0
C3906 C 0.85126 0.76723 0.69456 0.0
C3907 C 0.82691 0.77856 0.68012 0.0
C3908 C 0.8255 0.79118 0.69225 0.0
C3909 C 0.83751 0.79234 0.70502 0.0
C3910 C 0.85039 0.78053 0.70609 0.0
C3911 C 0.81049 0.80196 0.6927 0.0
C3912 C 0.8085 0.81451 0.68053 0.0
C3913 C 0.79826 0.79992 0.70537 0.0
C3914 C 0.79963 0.78661 0.7183 0.0
C3915 C 0.80043 0.79088 0.73538 0.0
C3916 C 0.80184 0.77833 0.74757 0.0
C3917 C 0.80238 0.76146 0.74282 0.0
C3918 C 0.80142 0.75712 0.72587 0.0
C3919 C 0.79999 0.76962 0.71365 0.0
H3920 H 0.80348 0.75177 0.75228 0.0
H3921 H 0.78868 0.87277 0.6333 0.0
H3922 H 0.26715 0.60499 0.27053 0.0
H3923 H 0.29117 0.62234 0.27811 0.0
H3924 H 0.25835 0.65638 0.30449 0.0
H3925 H 0.23428 0.63895 0.29723 0.0
H3926 H 0.29623 0.65359 0.26831 0.0
H3927 H 0.27976 0.67631 0.33555 0.0
H3928 H 0.2661 0.66554 0.36117 0.0
H3929 H 0.27814 0.61505 0.34673 0.0
H3930 H 0.29207 0.62552 0.32115 0.0
H3931 H 0.33223 0.73059 0.31137 0.0
H3932 H 0.31221 0.70741 0.31187 0.0
H3933 H 0.34922 0.6748 0.28957 0.0
H3934 H 0.36929 0.69791 0.28884 0.0
H3935 H 0.31097 0.67505 0.32479 0.0
H3936 H 0.32945 0.65257 0.25868 0.0
H3937 H 0.34289 0.66354 0.23299 0.0
H3938 H 0.32624 0.71331 0.24517 0.0
H3939 H 0.31246 0.7026 0.27076 0.0
C3940 C 0.26504 0.61604 0.27814 0.0
C3941 C 0.24877 0.62064 0.28319 0.0
C3942 C 0.2788 0.62594 0.28246 0.0
C3943 C 0.27657 0.64059 0.29193 0.0
C3944 C 0.26041 0.64497 0.29741 0.0
C3945 C 0.24664 0.63504 0.29316 0.0
C3946 C 0.29089 0.65206 0.29479 0.0
C3947 C 0.29967 0.65799 0.28071 0.0
C3948 C 0.29508 0.65815 0.31092 0.0
C3949 C 0.28683 0.65171 0.32634 0.0
C3950 C 0.27955 0.66292 0.33787 0.0
C3951 C 0.27175 0.65686 0.35238 0.0
C3952 C 0.27121 0.63962 0.35555 0.0
C3953 C 0.27851 0.6284 0.34423 0.0
C3954 C 0.28633 0.63439 0.3297 0.0
C3955 C 0.33623 0.71842 0.30682 0.0
C3956 C 0.35228 0.71617 0.29981 0.0
C3957 C 0.32478 0.70518 0.30719 0.0
C3958 C 0.32918 0.68951 0.30052 0.0
C3959 C 0.34554 0.6869 0.29457 0.0
C3960 C 0.35699 0.70012 0.29417 0.0
C3961 C 0.31621 0.67646 0.29833 0.0
C3962 C 0.30764 0.67038 0.31246 0.0
C3963 C 0.31214 0.67022 0.28224 0.0
C3964 C 0.32012 0.67679 0.26674 0.0
C3965 C 0.32861 0.66584 0.25583 0.0
C3966 C 0.33628 0.67202 0.2413 0.0
C3967 C 0.33546 0.68912 0.23749 0.0
C3968 C 0.3269 0.70008 0.24817 0.0
C3969 C 0.31918 0.69396 0.2627 0.0
H3970 H 0.34143 0.69388 0.22624 0.0
H3971 H 0.26516 0.63495 0.36679 0.0
H3972 H 0.53642 0.11883 0.53474 0.0
H3973 H 0.55907 0.09819 0.53386 0.0
H3974 H 0.52691 0.06164 0.55755 0.0
H3975 H 0.50427 0.08222 0.55873 0.0
H3976 H 0.55929 0.05891 0.56846 0.0
H3977 H 0.52983 0.06277 0.51574 0.0
H3978 H 0.51855 0.07741 0.49092 0.0
H3979 H 0.56825 0.09291 0.47705 0.0
H3980 H 0.57979 0.07854 0.50194 0.0
H3981 H 0.59098 0.98152 0.53737 0.0
H3982 H 0.57454 0.00608 0.5455 0.0
H3983 H 0.60949 0.03826 0.51951 0.0
H3984 H 0.62589 0.01379 0.51112 0.0
H3985 H 0.57796 0.04496 0.51073 0.0
H3986 H 0.60767 0.03784 0.56229 0.0
H3987 H 0.61835 0.02252 0.58696 0.0
H3988 H 0.56791 0.01233 0.60293 0.0
H3989 H 0.55693 0.02739 0.57822 0.0
C3990 C 0.53424 0.1065 0.54004 0.0
C3991 C 0.51844 0.10209 0.54657 0.0
C3992 C 0.54719 0.09472 0.5395 0.0
C3993 C 0.54453 0.07833 0.54536 0.0
C3994 C 0.52918 0.07422 0.55291 0.0
C3995 C 0.51623 0.086 0.5535 0.0
C3996 C 0.5571 0.06502 0.54224 0.0
C3997 C 0.56335 0.05577 0.55586 0.0
C3998 C 0.56255 0.06116 0.52579 0.0
C3999 C 0.55564 0.06975 0.5108 0.0
C4000 C 0.53833 0.06941 0.50747 0.0
C4001 C 0.5319 0.07764 0.49338 0.0
C4002 C 0.54267 0.08613 0.48244 0.0
C4003 C 0.55991 0.08636 0.48555 0.0
C4004 C 0.56641 0.07817 0.49964 0.0
C4005 C 0.59527 -0.00617 0.5335 0.0
C4006 C 0.6097 -0.00432 0.52351 0.0
C4007 C 0.58591 0.00787 0.53826 0.0
C4008 C 0.59089 0.02401 0.53323 0.0
C4009 C 0.60547 0.02592 0.52355 0.0
C4010 C 0.61481 0.0119 0.51877 0.0
C4011 C 0.58019 0.03874 0.53695 0.0
C4012 C 0.57418 0.04822 0.52339 0.0
C4013 C 0.57492 0.0427 0.55344 0.0
C4014 C 0.58148 0.03363 0.56832 0.0
C4015 C 0.59885 0.03222 0.57099 0.0
C4016 C 0.60496 0.0236 0.58499 0.0
C4017 C 0.59382 0.01643 0.59648 0.0
C4018 C 0.57653 0.01788 0.59401 0.0
C4019 C 0.57036 0.02648 0.58002 0.0
H4020 H 0.59857 0.00977 0.60732 0.0
H4021 H 0.53767 0.09249 0.47153 0.0
H4022 H 0.26309 0.33877 0.78978 0.0
H4023 H 0.24 0.32088 0.79911 0.0
H4024 H 0.20458 0.35371 0.7747 0.0
H4025 H 0.22755 0.37174 0.76536 0.0
H4026 H 0.19326 0.34338 0.8055 0.0
H4027 H 0.21613 0.31877 0.75556 0.0
H4028 H 0.23731 0.30648 0.73663 0.0
H4029 H 0.2479 0.26809 0.77295 0.0
H4030 H 0.22689 0.28026 0.79219 0.0
H4031 H 0.12514 0.28802 0.78836 0.0
H4032 H 0.14795 0.30839 0.78937 0.0
H4033 H 0.17909 0.27237 0.81511 0.0
H4034 H 0.15641 0.25185 0.8141 0.0
H4035 H 0.19338 0.28411 0.78657 0.0
H4036 H 0.16688 0.30752 0.83495 0.0
H4037 H 0.14345 0.319 0.85157 0.0
H4038 H 0.13799 0.35951 0.81643 0.0
H4039 H 0.16125 0.34815 0.79944 0.0
C4040 C 0.25039 0.34228 0.7865 0.0
C4041 C 0.24717 0.35662 0.77671 0.0
C4042 C 0.23722 0.33202 0.79182 0.0
C4043 C 0.22062 0.33592 0.78746 0.0
C4044 C 0.21731 0.35051 0.7782 0.0
C4045 C 0.23047 0.36074 0.7728 0.0
C4046 C 0.20678 0.32436 0.79185 0.0
C4047 C 0.19321 0.33043 0.80132 0.0
C4048 C 0.2069 0.30742 0.78659 0.0
C4049 C 0.22009 0.30055 0.77539 0.0
C4050 C 0.22315 0.30785 0.75961 0.0
C4051 C 0.23507 0.30087 0.7488 0.0
C4052 C 0.24394 0.28652 0.75359 0.0
C4053 C 0.24101 0.27921 0.76926 0.0
C4054 C 0.2291 0.28614 0.78012 0.0
C4055 C 0.13671 0.28452 0.79455 0.0
C4056 C 0.13903 0.26822 0.80095 0.0
C4057 C 0.14971 0.29623 0.7952 0.0
C4058 C 0.16519 0.29187 0.80232 0.0
C4059 C 0.16721 0.27595 0.80956 0.0
C4060 C 0.15423 0.26425 0.80896 0.0
C4061 C 0.17983 0.30307 0.80026 0.0
C4062 C 0.19354 0.29695 0.79108 0.0
C4063 C 0.1797 0.31997 0.80562 0.0
C4064 C 0.16575 0.3269 0.81585 0.0
C4065 C 0.16061 0.31881 0.83068 0.0
C4066 C 0.14736 0.32531 0.84019 0.0
C4067 C 0.13921 0.33996 0.83504 0.0
C4068 C 0.14431 0.34816 0.82039 0.0
C4069 C 0.15754 0.34171 0.81084 0.0
H4070 H 0.12896 0.34497 0.84241 0.0
H4071 H 0.253 0.28099 0.74512 0.0
H4072 H 0.39134 0.50588 0.54953 0.0
H4073 H 0.40832 0.48225 0.55918 0.0
H4074 H 0.38063 0.44889 0.52693 0.0
H4075 H 0.36339 0.47235 0.51738 0.0
H4076 H 0.38858 0.43385 0.55688 0.0
H4077 H 0.41652 0.46553 0.51334 0.0
H4078 H 0.42806 0.49111 0.50026 0.0
H4079 H 0.4612 0.49779 0.54212 0.0
H4080 H 0.44967 0.47235 0.55556 0.0
H4081 H 0.4482 0.37098 0.5354 0.0
H4082 H 0.42685 0.39281 0.53783 0.0
H4083 H 0.4598 0.42177 0.5694 0.0
H4084 H 0.48133 0.40015 0.56684 0.0
H4085 H 0.44909 0.43965 0.5435 0.0
H4086 H 0.42353 0.40487 0.58501 0.0
H4087 H 0.41219 0.37865 0.59692 0.0
H4088 H 0.3749 0.37692 0.55817 0.0
H4089 H 0.38617 0.40301 0.54587 0.0
C4090 C 0.38869 0.49348 0.54464 0.0
C4091 C 0.37618 0.49104 0.53248 0.0
C4092 C 0.3984 0.48 0.5502 0.0
C4093 C 0.39587 0.46389 0.54358 0.0
C4094 C 0.38277 0.46123 0.53218 0.0
C4095 C 0.37301 0.47469 0.52666 0.0
C4096 C 0.40783 0.45018 0.54723 0.0
C4097 C 0.40181 0.43504 0.55394 0.0
C4098 C 0.42512 0.45191 0.54362 0.0
C4099 C 0.4321 0.46717 0.53554 0.0
C4100 C 0.42617 0.47253 0.51981 0.0
C4101 C 0.43272 0.48699 0.51233 0.0
C4102 C 0.44532 0.4961 0.52038 0.0
C4103 C 0.45142 0.49074 0.53592 0.0
C4104 C 0.44488 0.4763 0.54347 0.0
C4105 C 0.4508 0.38184 0.54312 0.0
C4106 C 0.46655 0.38393 0.55075 0.0
C4107 C 0.43853 0.39427 0.54458 0.0
C4108 C 0.44173 0.40888 0.55384 0.0
C4109 C 0.4571 0.41058 0.56218 0.0
C4110 C 0.46939 0.39822 0.56068 0.0
C4111 C 0.42991 0.42319 0.55315 0.0
C4112 C 0.43594 0.43848 0.54683 0.0
C4113 C 0.41267 0.4215 0.55702 0.0
C4114 C 0.40578 0.40585 0.56444 0.0
C4115 C 0.41299 0.39884 0.57895 0.0
C4116 C 0.40656 0.38401 0.58578 0.0
C4117 C 0.39285 0.37611 0.57829 0.0
C4118 C 0.38552 0.38305 0.56396 0.0
C4119 C 0.39191 0.39788 0.55707 0.0
H4120 H 0.3879 0.36463 0.5836 0.0
H4121 H 0.45038 0.50729 0.51457 0.0
H4122 H 0.6182 0.19878 0.20447 0.0
H4123 H 0.63743 0.17491 0.20339 0.0
H4124 H 0.67299 0.20467 0.17542 0.0
H4125 H 0.65378 0.2285 0.17617 0.0
H4126 H 0.67239 0.17247 0.16429 0.0
H4127 H 0.67622 0.20133 0.21749 0.0
H4128 H 0.66509 0.21293 0.24393 0.0
H4129 H 0.64836 0.16389 0.25878 0.0
H4130 H 0.6592 0.15204 0.2323 0.0
H4131 H 0.75194 0.13979 0.18787 0.0
H4132 H 0.7266 0.15569 0.18122 0.0
H4133 H 0.69696 0.12072 0.21006 0.0
H4134 H 0.72221 0.10482 0.2169 0.0
H4135 H 0.69187 0.15243 0.2199 0.0
H4136 H 0.69222 0.12301 0.16795 0.0
H4137 H 0.70407 0.1119 0.14163 0.0
H4138 H 0.71379 0.16205 0.12443 0.0
H4139 H 0.70222 0.17347 0.15075 0.0
C4140 C 0.63001 0.20019 0.19788 0.0
C4141 C 0.63455 0.21563 0.19061 0.0
C4142 C 0.64098 0.18653 0.19729 0.0
C4143 C 0.65672 0.18812 0.18955 0.0
C4144 C 0.6609 0.2032 0.18148 0.0
C4145 C 0.64993 0.21684 0.182 0.0
C4146 C 0.66944 0.17466 0.19105 0.0
C4147 C 0.67673 0.1681 0.17642 0.0
C4148 C 0.67481 0.16875 0.2069 0.0
C4149 C 0.66833 0.17585 0.22284 0.0
C4150 C 0.67005 0.19305 0.22634 0.0
C4151 C 0.66382 0.19967 0.24134 0.0
C4152 C 0.65598 0.18917 0.25301 0.0
C4153 C 0.6544 0.17202 0.24972 0.0
C4154 C 0.66059 0.16535 0.23472 0.0
C4155 C 0.74001 0.1353 0.19257 0.0
C4156 C 0.73914 0.12113 0.20307 0.0
C4157 C 0.72551 0.14435 0.18867 0.0
C4158 C 0.7099 0.13935 0.19512 0.0
C4159 C 0.7089 0.12479 0.20497 0.0
C4160 C 0.72336 0.11573 0.20886 0.0
C4161 C 0.69502 0.15029 0.19313 0.0
C4162 C 0.68736 0.1565 0.20771 0.0
C4163 C 0.68943 0.15591 0.17725 0.0
C4164 C 0.69646 0.14909 0.1614 0.0
C4165 C 0.69702 0.13167 0.15862 0.0
C4166 C 0.70366 0.12532 0.14368 0.0
C4167 C 0.70971 0.13626 0.13138 0.0
C4168 C 0.70911 0.15359 0.13397 0.0
C4169 C 0.70249 0.16001 0.14889 0.0
H4170 H 0.71484 0.13131 0.11982 0.0
H4171 H 0.65116 0.19431 0.26462 0.0
H4172 H 0.62834 0.96847 0.97062 0.0
H4173 H 0.61003 0.94522 0.96276 0.0
H4174 H 0.5794 0.97913 0.93374 0.0
H4175 H 0.59747 0.00248 0.94169 0.0
H4176 H 0.56111 0.96147 0.95558 0.0
H4177 H 0.60349 0.94924 0.91466 0.0
H4178 H 0.63211 0.94355 0.90438 0.0
H4179 H 0.63494 0.89978 0.93573 0.0
H4180 H 0.60642 0.90534 0.94638 0.0
H4181 H 0.50505 0.90164 0.92537 0.0
H4182 H 0.52776 0.9221 0.92445 0.0
H4183 H 0.5582 0.88987 0.95548 0.0
H4184 H 0.53561 0.86915 0.95633 0.0
H4185 H 0.57691 0.90643 0.93115 0.0
H4186 H 0.53626 0.91964 0.97374 0.0
H4187 H 0.50786 0.92497 0.98483 0.0
H4188 H 0.50237 0.96684 0.95131 0.0
H4189 H 0.53067 0.9616 0.93984 0.0
C4190 C 0.61785 0.97095 0.96236 0.0
C4191 C 0.61427 0.98737 0.95692 0.0
C4192 C 0.60746 0.95762 0.9578 0.0
C4193 C 0.59339 0.96045 0.94762 0.0
C4194 C 0.59019 0.9767 0.94162 0.0
C4195 C 0.60054 0.99002 0.94619 0.0
C4196 C 0.58109 0.94689 0.94463 0.0
C4197 C 0.56452 0.94957 0.94992 0.0
C4198 C 0.58568 0.93116 0.93779 0.0
C4199 C 0.60286 0.9278 0.93144 0.0
C4200 C 0.61026 0.93849 0.91948 0.0
C4201 C 0.62646 0.93526 0.91356 0.0
C4202 C 0.63535 0.92133 0.91943 0.0
C4203 C 0.62805 0.91057 0.93121 0.0
C4204 C 0.61186 0.91375 0.93718 0.0
C4205 C 0.51665 0.89875 0.9318 0.0
C4206 C 0.51841 0.88387 0.94116 0.0
C4207 C 0.52962 0.91046 0.93125 0.0
C4208 C 0.54451 0.90759 0.94014 0.0
C4209 C 0.54676 0.89231 0.94858 0.0
C4210 C 0.5338 0.88053 0.9491 0.0
C4211 C 0.557 0.92117 0.94193 0.0
C4212 C 0.57355 0.91844 0.9366 0.0
C4213 C 0.55248 0.93687 0.94886 0.0
C4214 C 0.5355 0.94012 0.95581 0.0
C4215 C 0.52894 0.9299 0.96864 0.0
C4216 C 0.51288 0.93292 0.97501 0.0
C4217 C 0.5033 0.94621 0.96874 0.0
C4218 C 0.50979 0.95654 0.95613 0.0
C4219 C 0.52585 0.95355 0.9497 0.0
H4220 H 0.49086 0.94853 0.97369 0.0
H4221 H 0.64789 0.91886 0.91482 0.0
H4222 H 0.94728 0.12514 0.44845 0.0
H4223 H 0.92359 0.10571 0.44792 0.0
H4224 H 0.95566 0.06706 0.4277 0.0
H4225 H 0.97931 0.08644 0.42786 0.0
H4226 H 0.92422 0.06552 0.41443 0.0
H4227 H 0.94963 0.07116 0.46943 0.0
H4228 H 0.95868 0.0873 0.49415 0.0
H4229 H 0.90787 0.10265 0.50324 0.0
H4230 H 0.89856 0.08701 0.47824 0.0
H4231 H 0.89224 0.98865 0.44481 0.0
H4232 H 0.9079 0.01366 0.43671 0.0
H4233 H 0.87125 0.04485 0.46154 0.0
H4234 H 0.85568 0.01986 0.47005 0.0
H4235 H 0.90141 0.05311 0.47105 0.0
H4236 H 0.87525 0.04454 0.4182 0.0
H4237 H 0.86605 0.02887 0.39322 0.0
H4238 H 0.91736 0.01894 0.3801 0.0
H4239 H 0.92687 0.03435 0.40514 0.0
C4240 C 0.94924 0.1126 0.44362 0.0
C4241 C 0.96525 0.10725 0.43846 0.0
C4242 C 0.93568 0.10152 0.44332 0.0
C4243 C 0.93797 0.08488 0.43806 0.0
C4244 C 0.95365 0.07985 0.43185 0.0
C4245 C 0.96718 0.09093 0.43204 0.0
C4246 C 0.92464 0.07221 0.44057 0.0
C4247 C 0.91923 0.06273 0.42679 0.0
C4248 C 0.91785 0.06892 0.45666 0.0
C4249 C 0.92343 0.07808 0.47185 0.0
C4250 C 0.9404 0.07808 0.47663 0.0
C4251 C 0.94558 0.08713 0.4907 0.0
C4252 C 0.93387 0.09598 0.50028 0.0
C4253 C 0.91693 0.09581 0.4958 0.0
C4254 C 0.9117 0.08688 0.48166 0.0
C4255 C 0.88737 0.00083 0.44838 0.0
C4256 C 0.87276 0.00224 0.45818 0.0
C4257 C 0.89629 0.01514 0.44362 0.0
C4258 C 0.89066 0.03115 0.44838 0.0
C4259 C 0.87581 0.03262 0.45772 0.0
C4260 C 0.86694 0.01831 0.46258 0.0
C4261 C 0.9011 0.04615 0.44492 0.0
C4262 C 0.90607 0.05605 0.45858 0.0
C4263 C 0.90742 0.04981 0.42872 0.0
C4264 C 0.90177 0.04051 0.41363 0.0
C4265 C 0.88457 0.03891 0.41007 0.0
C4266 C 0.8793 0.03009 0.39588 0.0
C4267 C 0.89111 0.02289 0.3851 0.0
C4268 C 0.90822 0.02452 0.38847 0.0
C4269 C 0.91356 0.03332 0.40265 0.0
H4270 H 0.88701 0.01607 0.37412 0.0
H4271 H 0.93791 0.10298 0.51117 0.0
H4272 H 0.04752 0.10257 0.38634 0.0
H4273 H 0.07088 0.10319 0.36638 0.0
H4274 H 0.10462 0.11635 0.40656 0.0
H4275 H 0.08159 0.11535 0.42644 0.0
H4276 H 0.08561 0.13065 0.35888 0.0
H4277 H 0.14353 0.10918 0.39945 0.0
H4278 H 0.1512 0.08516 0.41735 0.0
H4279 H 0.11419 0.05469 0.39296 0.0
H4280 H 0.10645 0.07844 0.3747 0.0
H4281 H 0.14991 0.18644 0.36677 0.0
H4282 H 0.1268 0.16666 0.36547 0.0
H4283 H 0.15959 0.12941 0.34375 0.0
H4284 H 0.18301 0.14916 0.3454 0.0
H4285 H 0.14525 0.11683 0.36965 0.0
H4286 H 0.12405 0.14306 0.32192 0.0
H4287 H 0.1163 0.16588 0.30252 0.0
H4288 H 0.07993 0.18401 0.3379 0.0
H4289 H 0.08762 0.16148 0.35764 0.0
C4290 C 0.06005 0.10497 0.39099 0.0
C4291 C 0.0627 0.10917 0.40791 0.0
C4292 C 0.07338 0.10535 0.37956 0.0
C4293 C 0.08954 0.10982 0.38491 0.0
C4294 C 0.09238 0.11255 0.40208 0.0
C4295 C 0.07912 0.11214 0.41347 0.0
C4296 C 0.10267 0.11483 0.37267 0.0
C4297 C 0.09864 0.12739 0.36097 0.0
C4298 C 0.11962 0.11006 0.37479 0.0
C4299 C 0.12441 0.09565 0.38566 0.0
C4300 C 0.13712 0.09733 0.39776 0.0
C4301 C 0.14146 0.08376 0.40802 0.0
C4302 C 0.13319 0.06841 0.40629 0.0
C4303 C 0.12057 0.0666 0.3943 0.0
C4304 C 0.11619 0.08012 0.38401 0.0
C4305 C 0.15214 0.17421 0.36129 0.0
C4306 C 0.16833 0.16929 0.3564 0.0
C4307 C 0.13884 0.16291 0.3604 0.0
C4308 C 0.1414 0.14652 0.35441 0.0
C4309 C 0.15731 0.14197 0.34839 0.0
C4310 C 0.17068 0.15329 0.34933 0.0
C4311 C 0.12818 0.1337 0.35718 0.0
C4312 C 0.13221 0.11964 0.36703 0.0
C4313 C 0.11122 0.13688 0.3531 0.0
C4314 C 0.10642 0.15051 0.34128 0.0
C4315 C 0.11445 0.15195 0.32561 0.0
C4316 C 0.11006 0.16484 0.31455 0.0
C4317 C 0.09762 0.17638 0.31897 0.0
C4318 C 0.08953 0.17504 0.33447 0.0
C4319 C 0.09388 0.16217 0.34559 0.0
H4320 H 0.09424 0.18635 0.31039 0.0
H4321 H 0.13656 0.05793 0.41425 0.0
H4322 H 0.06195 0.9052 0.6086 0.0
H4323 H 0.08236 0.88261 0.60871 0.0
H4324 H 0.12115 0.91726 0.59357 0.0
H4325 H 0.10069 0.94021 0.59393 0.0
H4326 H 0.10482 0.86645 0.59109 0.0
H4327 H 0.15508 0.90899 0.61762 0.0
H4328 H 0.15841 0.93731 0.62976 0.0
H4329 H 0.10853 0.93479 0.65005 0.0
H4330 H 0.10502 0.90643 0.63816 0.0
H4331 H 0.14611 0.80381 0.63622 0.0
H4332 H 0.14762 0.82818 0.61751 0.0
H4333 H 0.126 0.85912 0.65637 0.0
H4334 H 0.12523 0.83522 0.67518 0.0
H4335 H 0.14426 0.87797 0.63774 0.0
H4336 H 0.10109 0.83475 0.62737 0.0
H4337 H 0.09233 0.80601 0.61988 0.0
H4338 H 0.12014 0.80938 0.5738 0.0
H4339 H 0.12916 0.8381 0.58114 0.0
C4340 C 0.07471 0.90798 0.60483 0.0
C4341 C 0.07982 0.92454 0.6017 0.0
C4342 C 0.08639 0.89499 0.60477 0.0
C4343 C 0.10338 0.89831 0.60152 0.0
C4344 C 0.10815 0.91449 0.5964 0.0
C4345 C 0.09643 0.92757 0.59657 0.0
C4346 C 0.11595 0.88555 0.60656 0.0
C4347 C 0.11383 0.86901 0.60095 0.0
C4348 C 0.12766 0.88884 0.61949 0.0
C4349 C 0.12973 0.90576 0.62683 0.0
C4350 C 0.14486 0.91451 0.62469 0.0
C4351 C 0.14677 0.93055 0.63153 0.0
C4352 C 0.13367 0.93787 0.64062 0.0
C4353 C 0.11865 0.92914 0.64297 0.0
C4354 C 0.1167 0.91309 0.63619 0.0
C4355 C 0.14224 0.81596 0.64092 0.0
C4356 C 0.13515 0.81754 0.65702 0.0
C4357 C 0.14307 0.82986 0.6302 0.0
C4358 C 0.13646 0.84538 0.63534 0.0
C4359 C 0.13111 0.84729 0.65202 0.0
C4360 C 0.13055 0.83353 0.66279 0.0
C4361 C 0.1322 0.85877 0.62309 0.0
C4362 C 0.13603 0.87545 0.62721 0.0
C4363 C 0.12141 0.85556 0.60935 0.0
C4364 C 0.11594 0.83841 0.60487 0.0
C4365 C 0.10536 0.8293 0.61567 0.0
C4366 C 0.10036 0.81304 0.61146 0.0
C4367 C 0.10572 0.80585 0.59639 0.0
C4368 C 0.11604 0.81494 0.58548 0.0
C4369 C 0.1211 0.8312 0.58966 0.0
H4370 H 0.10184 0.79326 0.59315 0.0
H4371 H 0.13516 0.95029 0.64587 0.0
H4372 H 0.40238 0.87683 0.92984 0.0
H4373 H 0.37906 0.87944 0.91052 0.0
H4374 H 0.41254 0.8979 0.8721 0.0
H4375 H 0.43623 0.89479 0.8914 0.0
H4376 H 0.3625 0.90002 0.89084 0.0
H4377 H 0.40174 0.87877 0.83616 0.0
H4378 H 0.42965 0.86689 0.82967 0.0
H4379 H 0.42947 0.84029 0.87658 0.0
H4380 H 0.40153 0.85191 0.88323 0.0
H4381 H 0.29734 0.85562 0.85116 0.0
H4382 H 0.32083 0.87542 0.84904 0.0
H4383 H 0.35443 0.83705 0.86734 0.0
H4384 H 0.3314 0.81734 0.86893 0.0
H4385 H 0.37096 0.85662 0.84709 0.0
H4386 H 0.33114 0.8648 0.89493 0.0
H4387 H 0.30302 0.87202 0.90582 0.0
H4388 H 0.30422 0.91857 0.87861 0.0
H4389 H 0.3323 0.91152 0.8675 0.0
C4390 C 0.40477 0.88185 0.91743 0.0
C4391 C 0.42118 0.88518 0.912 0.0
C4392 C 0.39136 0.88349 0.90639 0.0
C4393 C 0.39408 0.88855 0.88973 0.0
C4394 C 0.4102 0.89372 0.88482 0.0
C4395 C 0.42371 0.89194 0.89587 0.0
C4396 C 0.38067 0.88528 0.87729 0.0
C4397 C 0.36438 0.89094 0.88088 0.0
C4398 C 0.38306 0.87351 0.8642 0.0
C4399 C 0.39972 0.86635 0.86024 0.0
C4400 C 0.40769 0.87037 0.84505 0.0
C4401 C 0.42349 0.86368 0.84135 0.0
C4402 C 0.43135 0.85289 0.85273 0.0
C4403 C 0.42339 0.84868 0.8678 0.0
C4404 C 0.40758 0.8553 0.87153 0.0
C4405 C 0.30985 0.85133 0.85423 0.0
C4406 C 0.3125 0.83506 0.86057 0.0
C4407 C 0.32324 0.86265 0.85304 0.0
C4408 C 0.33935 0.85784 0.85834 0.0
C4409 C 0.34216 0.84112 0.86317 0.0
C4410 C 0.3289 0.82986 0.86424 0.0
C4411 C 0.35277 0.87027 0.8617 0.0
C4412 C 0.36909 0.86653 0.85623 0.0
C4413 C 0.35039 0.88329 0.87354 0.0
C4414 C 0.33365 0.88759 0.88028 0.0
C4415 C 0.32535 0.87655 0.89127 0.0
C4416 C 0.30944 0.8806 0.89746 0.0
C4417 C 0.30182 0.89572 0.89287 0.0
C4418 C 0.31012 0.90685 0.88212 0.0
C4419 C 0.32602 0.90284 0.87587 0.0
H4420 H 0.2895 0.89884 0.89767 0.0
H4421 H 0.44359 0.84775 0.84986 0.0
H4422 H 0.37092 0.14956 0.17676 0.0
H4423 H 0.37073 0.12796 0.15536 0.0
H4424 H 0.34894 0.16281 0.12005 0.0
H4425 H 0.34956 0.18482 0.14149 0.0
H4426 H 0.3509 0.11161 0.1351 0.0
H4427 H 0.36818 0.15591 0.08258 0.0
H4428 H 0.37798 0.18495 0.07787 0.0
H4429 H 0.40504 0.1835 0.12439 0.0
H4430 H 0.39551 0.15442 0.12925 0.0
H4431 H 0.39427 0.05178 0.08953 0.0
H4432 H 0.3746 0.07537 0.08856 0.0
H4433 H 0.41323 0.10819 0.10744 0.0
H4434 H 0.43292 0.085 0.10783 0.0
H4435 H 0.39178 0.1261 0.09039 0.0
H4436 H 0.38851 0.08239 0.13476 0.0
H4437 H 0.38376 0.05317 0.14396 0.0
H4438 H 0.33543 0.0534 0.12026 0.0
H4439 H 0.34001 0.08259 0.1108 0.0
C4440 C 0.36574 0.15258 0.16457 0.0
C4441 C 0.36061 0.16897 0.1607 0.0
C4442 C 0.36551 0.14015 0.15233 0.0
C4443 C 0.36007 0.14383 0.13599 0.0
C4444 C 0.35342 0.15977 0.13251 0.0
C4445 C 0.35376 0.17232 0.14478 0.0
C4446 C 0.36395 0.13165 0.12249 0.0
C4447 C 0.35942 0.11482 0.12496 0.0
C4448 C 0.37505 0.13579 0.10922 0.0
C4449 C 0.38097 0.15315 0.10635 0.0
C4450 C 0.37623 0.16182 0.09177 0.0
C4451 C 0.38174 0.17826 0.08908 0.0
C4452 C 0.39207 0.18609 0.10085 0.0
C4453 C 0.39699 0.17745 0.1153 0.0
C4454 C 0.39155 0.161 0.11803 0.0
C4455 C 0.39872 0.06418 0.09282 0.0
C4456 C 0.41497 0.06648 0.09926 0.0
C4457 C 0.38746 0.07765 0.09228 0.0
C4458 C 0.39228 0.09343 0.09843 0.0
C4459 C 0.40913 0.09612 0.10275 0.0
C4460 C 0.4204 0.08277 0.10311 0.0
C4461 C 0.37971 0.10602 0.10389 0.0
C4462 C 0.38243 0.12293 0.09978 0.0
C4463 C 0.3675 0.10194 0.11618 0.0
C4464 C 0.36466 0.08452 0.12194 0.0
C4465 C 0.3769 0.07616 0.13149 0.0
C4466 C 0.37425 0.05962 0.13673 0.0
C4467 C 0.35932 0.05142 0.13265 0.0
C4468 C 0.347 0.05976 0.12336 0.0
C4469 C 0.34961 0.07628 0.11805 0.0
H4470 H 0.35728 0.03862 0.13672 0.0
H4471 H 0.3963 0.19882 0.09876 0.0
H4472 H 0.15183 0.80714 0.12779 0.0
H4473 H 0.13068 0.82865 0.12329 0.0
H4474 H 0.16858 0.8671 0.12687 0.0
H4475 H 0.18998 0.84548 0.13122 0.0
H4476 H 0.11728 0.85675 0.13529 0.0
H4477 H 0.16209 0.89319 0.09275 0.0
H4478 H 0.1892 0.88982 0.07805 0.0
H4479 H 0.181 0.83669 0.07451 0.0
H4480 H 0.15378 0.8398 0.08897 0.0
H4481 H 0.05641 0.89349 0.08321 0.0
H4482 H 0.08164 0.89544 0.10063 0.0
H4483 H 0.10744 0.86192 0.06675 0.0
H4484 H 0.08283 0.86069 0.04904 0.0
H4485 H 0.12922 0.88127 0.0793 0.0
H4486 H 0.08242 0.84804 0.10252 0.0
H4487 H 0.05367 0.84496 0.11365 0.0
H4488 H 0.0639 0.88213 0.15122 0.0
H4489 H 0.09268 0.8855 0.14018 0.0
C4490 C 0.1556 0.82019 0.12821 0.0
C4491 C 0.17258 0.82462 0.12945 0.0
C4492 C 0.14347 0.83252 0.12572 0.0
C4493 C 0.14813 0.84945 0.12438 0.0
C4494 C 0.16479 0.85407 0.12766 0.0
C4495 C 0.17697 0.8417 0.13019 0.0
C4496 C 0.13619 0.86131 0.11653 0.0
C4497 C 0.11998 0.86254 0.12326 0.0
C4498 C 0.13968 0.86872 0.10074 0.0
C4499 C 0.15608 0.86671 0.0922 0.0
C4500 C 0.16612 0.8808 0.08886 0.0
C4501 C 0.18147 0.87894 0.08054 0.0
C4502 C 0.18686 0.86304 0.07543 0.0
C4503 C 0.17686 0.84898 0.07855 0.0
C4504 C 0.16148 0.85079 0.08681 0.0
C4505 C 0.06765 0.88695 0.07927 0.0
C4506 C 0.06756 0.87667 0.06495 0.0
C4507 C 0.08204 0.88803 0.08926 0.0
C4508 C 0.09632 0.87848 0.08527 0.0
C4509 C 0.09662 0.86941 0.07018 0.0
C4510 C 0.08244 0.8686 0.06007 0.0
C4511 C 0.11004 0.87569 0.09754 0.0
C4512 C 0.12666 0.87634 0.09174 0.0
C4513 C 0.10677 0.8692 0.11378 0.0
C4514 C 0.08955 0.86717 0.12042 0.0
C4515 C 0.07848 0.85559 0.11311 0.0
C4516 C 0.0622 0.8538 0.11939 0.0
C4517 C 0.05694 0.86339 0.13309 0.0
C4518 C 0.06798 0.87476 0.14057 0.0
C4519 C 0.08426 0.87662 0.13431 0.0
H4520 H 0.04433 0.86199 0.13795 0.0
H4521 H 0.19874 0.86163 0.06901 0.0
H4522 H 0.43157 0.906 0.36446 0.0
H4523 H 0.41185 0.88281 0.36483 0.0
H4524 H 0.37385 0.91508 0.38602 0.0
H4525 H 0.39355 0.93866 0.38526 0.0
H4526 H 0.3924 0.86509 0.3846 0.0
H4527 H 0.33735 0.9061 0.36577 0.0
H4528 H 0.33133 0.93462 0.35514 0.0
H4529 H 0.37862 0.93526 0.32927 0.0
H4530 H 0.38479 0.9067 0.33961 0.0
H4531 H 0.34544 0.80235 0.34628 0.0
H4532 H 0.34611 0.82703 0.36454 0.0
H4533 H 0.36321 0.85723 0.32291 0.0
H4534 H 0.36207 0.83292 0.30464 0.0
H4535 H 0.34665 0.87637 0.34399 0.0
H4536 H 0.39131 0.83378 0.34748 0.0
H4537 H 0.40151 0.80508 0.3532 0.0
H4538 H 0.3812 0.80754 0.40308 0.0
H4539 H 0.37074 0.83621 0.39754 0.0
C4540 C 0.41915 0.90812 0.36958 0.0
C4541 C 0.41399 0.92423 0.37448 0.0
C4542 C 0.40789 0.89478 0.36991 0.0
C4543 C 0.39126 0.89727 0.37517 0.0
C4544 C 0.38655 0.91295 0.38168 0.0
C4545 C 0.39783 0.92639 0.38127 0.0
C4546 C 0.37869 0.88417 0.37124 0.0
C4547 C 0.38207 0.86759 0.37612 0.0
C4548 C 0.36526 0.88738 0.36007 0.0
C4549 C 0.3616 0.90442 0.35363 0.0
C4550 C 0.34642 0.91235 0.35779 0.0
C4551 C 0.34299 0.9285 0.35182 0.0
C4552 C 0.35462 0.93677 0.34159 0.0
C4553 C 0.36966 0.92887 0.33724 0.0
C4554 C 0.37312 0.91271 0.34314 0.0
C4555 C 0.34872 0.81439 0.3409 0.0
C4556 C 0.35414 0.81564 0.32414 0.0
C4557 C 0.34912 0.82848 0.35136 0.0
C4558 C 0.35515 0.84386 0.3452 0.0
C4559 C 0.35861 0.84548 0.328 0.0
C4560 C 0.35808 0.8315 0.31756 0.0
C4561 C 0.36099 0.85727 0.35665 0.0
C4562 C 0.3563 0.8739 0.35326 0.0
C4563 C 0.37371 0.8541 0.36865 0.0
C4564 C 0.38009 0.83699 0.37205 0.0
C4565 C 0.38898 0.82814 0.35963 0.0
C4566 C 0.39479 0.8119 0.36284 0.0
C4567 C 0.39196 0.80447 0.37848 0.0
C4568 C 0.38334 0.81329 0.39096 0.0
C4569 C 0.37746 0.82953 0.38779 0.0
H4570 H 0.39647 0.79189 0.38094 0.0
H4571 H 0.35195 0.94928 0.33701 0.0
H4572 H 0.43616 0.09244 0.59688 0.0
H4573 H 0.41234 0.0888 0.61599 0.0
H4574 H 0.37916 0.10841 0.57794 0.0
H4575 H 0.40261 0.11153 0.55884 0.0
H4576 H 0.39623 0.11303 0.62852 0.0
H4577 H 0.34069 0.09927 0.58154 0.0
H4578 H 0.33449 0.07895 0.55916 0.0
H4579 H 0.37119 0.04502 0.57923 0.0
H4580 H 0.37746 0.065 0.60192 0.0
H4581 H 0.33415 0.17017 0.62433 0.0
H4582 H 0.35655 0.1496 0.62517 0.0
H4583 H 0.32086 0.11078 0.63758 0.0
H4584 H 0.29814 0.13147 0.63638 0.0
H4585 H 0.33751 0.10159 0.61181 0.0
H4586 H 0.35485 0.1186 0.66443 0.0
H4587 H 0.36103 0.13719 0.6883 0.0
H4588 H 0.40035 0.16084 0.66003 0.0
H4589 H 0.39426 0.14261 0.63588 0.0
C4590 C 0.42368 0.09543 0.59244 0.0
C4591 C 0.42126 0.10249 0.57644 0.0
C4592 C 0.41008 0.09335 0.60338 0.0
C4593 C 0.39389 0.09823 0.59844 0.0
C4594 C 0.3914 0.10413 0.58201 0.0
C4595 C 0.4049 0.10612 0.5711 0.0
C4596 C 0.3802 0.10027 0.61093 0.0
C4597 C 0.38339 0.11024 0.62509 0.0
C4598 C 0.36346 0.09584 0.60708 0.0
C4599 C 0.35953 0.08366 0.59352 0.0
C4600 C 0.34732 0.0874 0.58133 0.0
C4601 C 0.34383 0.07596 0.56853 0.0
C4602 C 0.35243 0.0607 0.56778 0.0
C4603 C 0.36455 0.05685 0.57982 0.0
C4604 C 0.36809 0.06825 0.59264 0.0
C4605 C 0.33108 0.15736 0.62769 0.0
C4606 C 0.31437 0.15239 0.63003 0.0
C4607 C 0.34397 0.14558 0.62837 0.0
C4608 C 0.34046 0.12859 0.63157 0.0
C4609 C 0.32388 0.12381 0.63514 0.0
C4610 C 0.31092 0.13564 0.63445 0.0
C4611 C 0.35363 0.11589 0.62807 0.0
C4612 C 0.35033 0.10381 0.6157 0.0
C4613 C 0.37025 0.11805 0.63383 0.0
C4614 C 0.37411 0.12913 0.64832 0.0
C4615 C 0.36477 0.1278 0.66325 0.0
C4616 C 0.36826 0.13829 0.67685 0.0
C4617 C 0.38109 0.15017 0.67569 0.0
C4618 C 0.39045 0.15159 0.66093 0.0
C4619 C 0.38702 0.14114 0.64729 0.0
H4620 H 0.38376 0.15828 0.68622 0.0
H4621 H 0.34972 0.05186 0.55785 0.0
H4622 H 0.13765 0.18506 0.85013 0.0
H4623 H 0.13892 0.16064 0.8688 0.0
H4624 H 0.11912 0.12955 0.82921 0.0
H4625 H 0.11828 0.15359 0.81054 0.0
H4626 H 0.11327 0.14508 0.87994 0.0
H4627 H 0.12727 0.09047 0.83209 0.0
H4628 H 0.14787 0.08439 0.80986 0.0
H4629 H 0.18216 0.11975 0.83147 0.0
H4630 H 0.16188 0.12588 0.85402 0.0
H4631 H 0.05631 0.08246 0.8739 0.0
H4632 H 0.0765 0.10513 0.87562 0.0
H4633 H 0.11549 0.06971 0.88827 0.0
H4634 H 0.09522 0.04675 0.8862 0.0
H4635 H 0.12466 0.08649 0.86247 0.0
H4636 H 0.10676 0.10337 0.91517 0.0
H4637 H 0.0877 0.1094 0.93878 0.0
H4638 H 0.06466 0.14902 0.91044 0.0
H4639 H 0.08337 0.14309 0.88656 0.0
C4640 C 0.13405 0.1729 0.84529 0.0
C4641 C 0.1277 0.17126 0.82893 0.0
C4642 C 0.13478 0.15896 0.85598 0.0
C4643 C 0.12924 0.1432 0.85042 0.0
C4644 C 0.12386 0.14144 0.83374 0.0
C4645 C 0.1232 0.15528 0.82308 0.0
C4646 C 0.12635 0.1292 0.86238 0.0
C4647 C 0.11602 0.13226 0.87634 0.0
C4648 C 0.13066 0.11248 0.85827 0.0
C4649 C 0.14301 0.10862 0.84481 0.0
C4650 C 0.13926 0.09683 0.83224 0.0
C4651 C 0.15087 0.09341 0.81953 0.0
C4652 C 0.16631 0.10167 0.81925 0.0
C4653 C 0.17018 0.11337 0.83169 0.0
C4654 C 0.15862 0.11684 0.84443 0.0
C4655 C 0.06905 0.07951 0.87755 0.0
C4656 C 0.07423 0.0628 0.87964 0.0
C4657 C 0.08061 0.09255 0.87871 0.0
C4658 C 0.09757 0.08918 0.88214 0.0
C4659 C 0.10249 0.07262 0.88563 0.0
C4660 C 0.09088 0.05951 0.88446 0.0
C4661 C 0.11019 0.10246 0.87881 0.0
C4662 C 0.12243 0.09928 0.86653 0.0
C4663 C 0.10793 0.11904 0.88472 0.0
C4664 C 0.09655 0.12278 0.89904 0.0
C4665 C 0.09758 0.11332 0.91393 0.0
C4666 C 0.08683 0.11673 0.92737 0.0
C4667 C 0.07499 0.1296 0.92612 0.0
C4668 C 0.07388 0.13909 0.91141 0.0
C4669 C 0.08459 0.13573 0.89793 0.0
H4670 H 0.06668 0.13221 0.93654 0.0
H4671 H 0.17528 0.09901 0.8094 0.0
H4672 H 0.16948 0.34637 0.15037 0.0
H4673 H 0.14838 0.34716 0.12833 0.0
H4674 H 0.10918 0.34833 0.16557 0.0
H4675 H 0.13023 0.34735 0.18781 0.0
H4676 H 0.10402 0.33426 0.12491 0.0
H4677 H 0.11369 0.38281 0.16359 0.0
H4678 H 0.13329 0.39835 0.18181 0.0
H4679 H 0.1677 0.40366 0.14065 0.0
H4680 H 0.14837 0.38795 0.12228 0.0
H4681 H 0.08903 0.4209 0.07626 0.0
H4682 H 0.08645 0.40363 0.10147 0.0
H4683 H 0.10619 0.36114 0.07423 0.0
H4684 H 0.10769 0.37811 0.04884 0.0
H4685 H 0.11322 0.39506 0.11493 0.0
H4686 H 0.10348 0.32493 0.09469 0.0
H4687 H 0.08425 0.30859 0.07691 0.0
H4688 H 0.04683 0.34709 0.08148 0.0
H4689 H 0.06571 0.36357 0.0995 0.0
C4690 C 0.15636 0.34594 0.15389 0.0
C4691 C 0.15148 0.34733 0.17077 0.0
C4692 C 0.1443 0.3462 0.14127 0.0
C4693 C 0.12729 0.34803 0.14539 0.0
C4694 C 0.12226 0.34683 0.1622 0.0
C4695 C 0.13434 0.34642 0.17489 0.0
C4696 C 0.11642 0.35668 0.13321 0.0
C4697 C 0.1057 0.34759 0.12272 0.0
C4698 C 0.11837 0.37412 0.13083 0.0
C4699 C 0.12965 0.38419 0.14163 0.0
C4700 C 0.12545 0.3873 0.15846 0.0
C4701 C 0.13651 0.3961 0.16881 0.0
C4702 C 0.15174 0.40198 0.16239 0.0
C4703 C 0.1559 0.39911 0.1456 0.0
C4704 C 0.1449 0.39027 0.13522 0.0
C4705 C 0.09208 0.40767 0.07552 0.0
C4706 C 0.09878 0.40085 0.06075 0.0
C4707 C 0.09062 0.3978 0.08992 0.0
C4708 C 0.09632 0.3811 0.08989 0.0
C4709 C 0.10144 0.37387 0.07463 0.0
C4710 C 0.10244 0.38363 0.0601 0.0
C4711 C 0.10066 0.37275 0.10599 0.0
C4712 C 0.1106 0.3819 0.11725 0.0
C4713 C 0.09757 0.35549 0.10914 0.0
C4714 C 0.08608 0.34554 0.09842 0.0
C4715 C 0.09111 0.32988 0.09202 0.0
C4716 C 0.08027 0.3206 0.08186 0.0
C4717 C 0.06434 0.32681 0.07804 0.0
C4718 C 0.05919 0.34231 0.0844 0.0
C4719 C 0.06998 0.35164 0.09457 0.0
H4720 H 0.05598 0.3196 0.07017 0.0
H4721 H 0.16029 0.40877 0.17042 0.0
H4722 H 0.67477 0.12092 0.83304 0.0
H4723 H 0.65575 0.12152 0.85678 0.0
H4724 H 0.61611 0.1401 0.82493 0.0
H4725 H 0.63515 0.139 0.80077 0.0
H4726 H 0.63609 0.14084 0.87449 0.0
H4727 H 0.58075 0.1197 0.83619 0.0
H4728 H 0.57379 0.10872 0.80808 0.0
H4729 H 0.62137 0.08351 0.80581 0.0
H4730 H 0.62851 0.09424 0.83395 0.0
H4731 H 0.59758 0.09573 0.93951 0.0
H4732 H 0.59493 0.11545 0.91603 0.0
H4733 H 0.61287 0.07718 0.88215 0.0
H4734 H 0.61496 0.05747 0.90524 0.0
H4735 H 0.59274 0.09711 0.8658 0.0
H4736 H 0.64061 0.10419 0.90497 0.0
H4737 H 0.65217 0.11059 0.93295 0.0
H4738 H 0.626 0.15773 0.93319 0.0
H4739 H 0.61419 0.15149 0.90525 0.0
C4740 C 0.66213 0.1255 0.8311 0.0
C4741 C 0.65634 0.12951 0.81497 0.0
C4742 C 0.65126 0.12598 0.84476 0.0
C4743 C 0.63439 0.13056 0.8426 0.0
C4744 C 0.62901 0.13627 0.82682 0.0
C4745 C 0.6399 0.13565 0.81304 0.0
C4746 C 0.62237 0.12649 0.85622 0.0
C4747 C 0.62622 0.13167 0.87258 0.0
C4748 C 0.60944 0.11456 0.85378 0.0
C4749 C 0.60521 0.10793 0.837 0.0
C4750 C 0.58969 0.1118 0.82967 0.0
C4751 C 0.58572 0.10562 0.81375 0.0
C4752 C 0.59716 0.09547 0.80514 0.0
C4753 C 0.61255 0.09141 0.81247 0.0
C4754 C 0.61655 0.09752 0.82839 0.0
C4755 C 0.60042 0.0914 0.92695 0.0
C4756 C 0.60686 0.07519 0.92424 0.0
C4757 C 0.59892 0.10269 0.91356 0.0
C4758 C 0.60406 0.09792 0.89738 0.0
C4759 C 0.60885 0.08121 0.89449 0.0
C4760 C 0.61019 0.06995 0.90777 0.0
C4761 C 0.60746 0.11047 0.88405 0.0
C4762 C 0.60182 0.10706 0.86774 0.0
C4763 C 0.61927 0.12351 0.88652 0.0
C4764 C 0.6264 0.12731 0.9032 0.0
C4765 C 0.6373 0.11588 0.91105 0.0
C4766 C 0.64388 0.11948 0.92688 0.0
C4767 C 0.63978 0.13454 0.93487 0.0
C4768 C 0.62913 0.14605 0.92701 0.0
C4769 C 0.62248 0.1425 0.91119 0.0
H4770 H 0.64488 0.1373 0.94713 0.0
H4771 H 0.59408 0.09073 0.79282 0.0
H4772 H 0.80546 0.86242 0.33116 0.0
H4773 H 0.82546 0.86423 0.35402 0.0
H4774 H 0.86582 0.85205 0.32 0.0
H4775 H 0.84577 0.85062 0.29681 0.0
H4776 H 0.84932 0.84855 0.3706 0.0
H4777 H 0.89717 0.87966 0.32771 0.0
H4778 H 0.89928 0.89239 0.2995 0.0
H4779 H 0.8477 0.90773 0.30234 0.0
H4780 H 0.84539 0.89525 0.33061 0.0
H4781 H 0.89082 0.89591 0.43223 0.0
H4782 H 0.89138 0.87725 0.40782 0.0
H4783 H 0.86613 0.91518 0.3785 0.0
H4784 H 0.86614 0.93394 0.40242 0.0
H4785 H 0.88511 0.89808 0.35872 0.0
H4786 H 0.84426 0.88464 0.40311 0.0
H4787 H 0.83664 0.87617 0.43194 0.0
H4788 H 0.86621 0.83138 0.42685 0.0
H4789 H 0.8741 0.83971 0.39803 0.0
C4790 C 0.81851 0.85962 0.32859 0.0
C4791 C 0.82411 0.85682 0.31213 0.0
C4792 C 0.82996 0.86055 0.34173 0.0
C4793 C 0.84719 0.85866 0.33864 0.0
C4794 C 0.8526 0.85382 0.32258 0.0
C4795 C 0.84111 0.85297 0.30936 0.0
C4796 C 0.85916 0.86486 0.35141 0.0
C4797 C 0.85755 0.85908 0.36796 0.0
C4798 C 0.86976 0.87872 0.34802 0.0
C4799 C 0.87107 0.88633 0.33111 0.0
C4800 C 0.88631 0.88576 0.32229 0.0
C4801 C 0.88753 0.89294 0.30631 0.0
C4802 C 0.87361 0.9008 0.29911 0.0
C4803 C 0.85846 0.90158 0.3079 0.0
C4804 C 0.85718 0.89447 0.32389 0.0
C4805 C 0.88587 0.90042 0.42041 0.0
C4806 C 0.87811 0.91625 0.41931 0.0
C4807 C 0.88615 0.88973 0.4065 0.0
C4808 C 0.87844 0.89465 0.39143 0.0
C4809 C 0.87213 0.91104 0.38997 0.0
C4810 C 0.87203 0.92175 0.40374 0.0
C4811 C 0.87447 0.88239 0.37802 0.0
C4812 C 0.8777 0.88696 0.36132 0.0
C4813 C 0.86469 0.86791 0.38134 0.0
C4814 C 0.85993 0.86288 0.39857 0.0
C4815 C 0.84918 0.87303 0.4082 0.0
C4816 C 0.84482 0.86826 0.42451 0.0
C4817 C 0.85099 0.85327 0.43124 0.0
C4818 C 0.86149 0.843 0.42164 0.0
C4819 C 0.86591 0.84774 0.40533 0.0
H4820 H 0.8476 0.84959 0.44387 0.0
H4821 H 0.87459 0.90634 0.28674 0.0
H4822 H 0.84836 0.14249 0.18574 0.0
H4823 H 0.86873 0.14651 0.16305 0.0
H4824 H 0.83288 0.12685 0.12765 0.0
H4825 H 0.81256 0.1232 0.15001 0.0
H4826 H 0.88227 0.12218 0.14718 0.0
H4827 H 0.83807 0.1377 0.08977 0.0
H4828 H 0.81615 0.1584 0.08301 0.0
H4829 H 0.83472 0.19119 0.12138 0.0
H4830 H 0.85695 0.17083 0.12823 0.0
H4831 H 0.87863 0.06616 0.08478 0.0
H4832 H 0.88015 0.08643 0.1073 0.0
H4833 H 0.8939 0.12516 0.07192 0.0
H4834 H 0.89189 0.10478 0.04903 0.0
H4835 H 0.86837 0.13502 0.08796 0.0
H4836 H 0.91982 0.11646 0.10709 0.0
H4837 H 0.94304 0.09723 0.11395 0.0
H4838 H 0.91287 0.07382 0.15199 0.0
H4839 H 0.88936 0.09268 0.14521 0.0
C4840 C 0.84468 0.13954 0.17301 0.0
C4841 C 0.82894 0.13232 0.16966 0.0
C4842 C 0.85634 0.14185 0.16007 0.0
C4843 C 0.85236 0.1371 0.1436 0.0
C4844 C 0.8362 0.131 0.14014 0.0
C4845 C 0.82459 0.12871 0.15301 0.0
C4846 C 0.86556 0.13543 0.13057 0.0
C4847 C 0.87948 0.12527 0.13423 0.0
C4848 C 0.86256 0.1403 0.11378 0.0
C4849 C 0.84927 0.1527 0.10949 0.0
C4850 C 0.83764 0.14939 0.09666 0.0
C4851 C 0.8251 0.16106 0.09284 0.0
C4852 C 0.82405 0.1761 0.10175 0.0
C4853 C 0.83553 0.17952 0.1145 0.0
C4854 C 0.8481 0.16791 0.11837 0.0
C4855 C 0.88246 0.07887 0.0818 0.0
C4856 C 0.88484 0.08395 0.06511 0.0
C4857 C 0.88355 0.09048 0.09478 0.0
C4858 C 0.88724 0.10739 0.09139 0.0
C4859 C 0.89105 0.11219 0.07485 0.0
C4860 C 0.8899 0.10053 0.06179 0.0
C4861 C 0.88368 0.1201 0.10453 0.0
C4862 C 0.87167 0.13249 0.1009 0.0
C4863 C 0.8887 0.11756 0.12136 0.0
C4864 C 0.90281 0.10611 0.12566 0.0
C4865 C 0.91809 0.10718 0.11688 0.0
C4866 C 0.93132 0.09633 0.12076 0.0
C4867 C 0.92944 0.08433 0.13342 0.0
C4868 C 0.91433 0.08316 0.14223 0.0
C4869 C 0.90106 0.09398 0.1384 0.0
H4870 H 0.93969 0.07593 0.13639 0.0
H4871 H 0.81432 0.18511 0.09878 0.0
H4872 H 0.37752 0.56115 0.58328 0.0
H4873 H 0.37372 0.58076 0.60642 0.0
H4874 H 0.37852 0.62245 0.57224 0.0
H4875 H 0.38251 0.60287 0.54892 0.0
H4876 H 0.38908 0.62749 0.60992 0.0
H4877 H 0.3432 0.61364 0.5728 0.0
H4878 H 0.32694 0.59393 0.55539 0.0
H4879 H 0.31642 0.5638 0.59885 0.0
H4880 H 0.33292 0.58317 0.61644 0.0
H4881 H 0.30427 0.64282 0.66156 0.0
H4882 H 0.3201 0.64328 0.63529 0.0
H4883 H 0.36445 0.62715 0.66187 0.0
H4884 H 0.34892 0.6278 0.68819 0.0
H4885 H 0.32919 0.61642 0.62288 0.0
H4886 H 0.39961 0.62995 0.63976 0.0
H4887 H 0.41579 0.65087 0.6557 0.0
H4888 H 0.3756 0.68639 0.65063 0.0
H4889 H 0.35926 0.66579 0.63444 0.0
C4890 C 0.37847 0.57448 0.58077 0.0
C4891 C 0.37987 0.5805 0.56427 0.0
C4892 C 0.37641 0.58567 0.59402 0.0
C4893 C 0.37559 0.60297 0.59091 0.0
C4894 C 0.37917 0.60911 0.57482 0.0
C4895 C 0.38135 0.59789 0.56152 0.0
C4896 C 0.36693 0.6137 0.60323 0.0
C4897 C 0.37597 0.6253 0.6128 0.0
C4898 C 0.34967 0.61125 0.60634 0.0
C4899 C 0.33939 0.59978 0.5959 0.0
C4900 C 0.33751 0.60274 0.57861 0.0
C4901 C 0.32825 0.59164 0.56872 0.0
C4902 C 0.32067 0.57761 0.57601 0.0
C4903 C 0.32231 0.57467 0.59322 0.0
C4904 C 0.3316 0.58571 0.60316 0.0
C4905 C 0.31756 0.64003 0.66182 0.0
C4906 C 0.32536 0.63507 0.67679 0.0
C4907 C 0.32661 0.64028 0.64683 0.0
C4908 C 0.34347 0.6351 0.64649 0.0
C4909 C 0.35158 0.6315 0.66172 0.0
C4910 C 0.34264 0.63173 0.6768 0.0
C4911 C 0.35136 0.63008 0.63036 0.0
C4912 C 0.34217 0.61927 0.61996 0.0
C4913 C 0.3683 0.63374 0.62631 0.0
C4914 C 0.37815 0.64626 0.63593 0.0
C4915 C 0.39425 0.64226 0.64193 0.0
C4916 C 0.40345 0.65405 0.65105 0.0
C4917 C 0.39672 0.66993 0.6542 0.0
C4918 C 0.38078 0.67406 0.64822 0.0
C4919 C 0.37153 0.66232 0.6391 0.0
H4920 H 0.40386 0.67904 0.66127 0.0
H4921 H 0.3135 0.56903 0.56833 0.0
H4922 H 0.14176 0.63772 0.30366 0.0
H4923 H 0.12233 0.64305 0.32689 0.0
H4924 H 0.15816 0.62175 0.36146 0.0
H4925 H 0.1776 0.61686 0.33857 0.0
H4926 H 0.10782 0.62011 0.34371 0.0
H4927 H 0.15483 0.63326 0.39934 0.0
H4928 H 0.17845 0.65232 0.40496 0.0
H4929 H 0.16114 0.68582 0.36647 0.0
H4930 H 0.13723 0.66711 0.36077 0.0
H4931 H 0.10952 0.56541 0.40763 0.0
H4932 H 0.10879 0.58518 0.38453 0.0
H4933 H 0.09836 0.6256 0.41903 0.0
H4934 H 0.09945 0.6057 0.44246 0.0
H4935 H 0.12445 0.63305 0.40216 0.0
H4936 H 0.0712 0.61826 0.38499 0.0
H4937 H 0.04634 0.60085 0.37929 0.0
H4938 H 0.07342 0.57426 0.34106 0.0
H4939 H 0.09853 0.59128 0.34668 0.0
C4940 C 0.14565 0.63464 0.31631 0.0
C4941 C 0.16112 0.62669 0.31929 0.0
C4942 C 0.13454 0.6377 0.32956 0.0
C4943 C 0.13878 0.63295 0.34597 0.0
C4944 C 0.15468 0.62596 0.34902 0.0
C4945 C 0.16577 0.62296 0.33585 0.0
C4946 C 0.12597 0.63239 0.35948 0.0
C4947 C 0.11124 0.62323 0.35649 0.0
C4948 C 0.12985 0.63734 0.37605 0.0
C4949 C 0.14415 0.64876 0.37965 0.0
C4950 C 0.15591 0.64478 0.39219 0.0
C4951 C 0.16941 0.6555 0.39535 0.0
C4952 C 0.17129 0.67028 0.38609 0.0
C4953 C 0.15967 0.67436 0.37363 0.0
C4954 C 0.14616 0.66369 0.37041 0.0
C4955 C 0.10658 0.57842 0.4103 0.0
C4956 C 0.10485 0.58406 0.42687 0.0
C4957 C 0.10595 0.58974 0.39701 0.0
C4958 C 0.10344 0.60694 0.39997 0.0
C4959 C 0.10029 0.6124 0.41642 0.0
C4960 C 0.10091 0.60102 0.42979 0.0
C4961 C 0.10756 0.61904 0.38642 0.0
C4962 C 0.12057 0.63052 0.38938 0.0
C4963 C 0.10186 0.61654 0.36982 0.0
C4964 C 0.08678 0.60617 0.36624 0.0
C4965 C 0.0719 0.60866 0.37541 0.0
C4966 C 0.05774 0.59885 0.37219 0.0
C4967 C 0.05829 0.58648 0.3598 0.0
C4968 C 0.073 0.58389 0.35061 0.0
C4969 C 0.08719 0.59367 0.35378 0.0
H4970 H 0.04732 0.57889 0.35734 0.0
H4971 H 0.18175 0.67855 0.38855 0.0
H4972 H 0.38787 0.3909 0.93828 0.0
H4973 H 0.39157 0.37162 0.91463 0.0
H4974 H 0.3733 0.40988 0.88087 0.0
H4975 H 0.36992 0.4291 0.9042 0.0
H4976 H 0.36714 0.35967 0.89727 0.0
H4977 H 0.38562 0.40652 0.84294 0.0
H4978 H 0.40666 0.42863 0.83816 0.0
H4979 H 0.43773 0.40774 0.87686 0.0
H4980 H 0.41701 0.38531 0.88172 0.0
H4981 H 0.31511 0.36449 0.83073 0.0
H4982 H 0.33372 0.36351 0.85472 0.0
H4983 H 0.37517 0.35039 0.82236 0.0
H4984 H 0.35649 0.35177 0.79803 0.0
H4985 H 0.38325 0.37614 0.83946 0.0
H4986 H 0.3638 0.32378 0.85577 0.0
H4987 H 0.34417 0.3004 0.86067 0.0
H4988 H 0.31828 0.32944 0.89793 0.0
H4989 H 0.33755 0.35311 0.89309 0.0
C4990 C 0.38511 0.39531 0.92573 0.0
C4991 C 0.37843 0.41145 0.92309 0.0
C4992 C 0.38723 0.38429 0.91225 0.0
C4993 C 0.38286 0.38931 0.89594 0.0
C4994 C 0.37715 0.40578 0.89324 0.0
C4995 C 0.37503 0.41675 0.90665 0.0
C4996 C 0.38142 0.37695 0.88213 0.0
C4997 C 0.37093 0.36302 0.88464 0.0
C4998 C 0.38711 0.38076 0.86575 0.0
C4999 C 0.39973 0.39416 0.86268 0.0
C5000 C 0.39701 0.4065 0.85033 0.0
C5001 C 0.40887 0.41914 0.84764 0.0
C5002 C 0.42352 0.41959 0.8572 0.0
C5003 C 0.42636 0.40739 0.86947 0.0
C5004 C 0.41455 0.39472 0.87222 0.0
C5005 C 0.32808 0.36096 0.82872 0.0
C5006 C 0.33439 0.35846 0.81247 0.0
C5007 C 0.33873 0.3602 0.84252 0.0
C5008 C 0.35589 0.35674 0.84042 0.0
C5009 C 0.36198 0.35303 0.8243 0.0
C5010 C 0.35129 0.35383 0.81042 0.0
C5011 C 0.36749 0.36012 0.85454 0.0
C5012 C 0.38 0.37228 0.8521 0.0
C5013 C 0.36392 0.35445 0.87098 0.0
C5014 C 0.35222 0.34024 0.87408 0.0
C5015 C 0.35388 0.32523 0.86496 0.0
C5016 C 0.34281 0.31191 0.86773 0.0
C5017 C 0.33 0.31343 0.87962 0.0
C5018 C 0.32824 0.32827 0.88876 0.0
C5019 C 0.33928 0.34163 0.88604 0.0
H5020 H 0.32144 0.30311 0.88173 0.0
H5021 H 0.43268 0.42939 0.8551 0.0
H5022 H 0.54802 0.59704 0.88669 0.0
H5023 H 0.5715 0.59389 0.86706 0.0
H5024 H 0.60556 0.61116 0.90536 0.0
H5025 H 0.58245 0.61381 0.92495 0.0
H5026 H 0.58841 0.61811 0.85515 0.0
H5027 H 0.64367 0.60053 0.90115 0.0
H5028 H 0.6492 0.57936 0.92298 0.0
H5029 H 0.61102 0.54756 0.9024 0.0
H5030 H 0.6054 0.56841 0.88024 0.0
H5031 H 0.6535 0.67191 0.85935 0.0
H5032 H 0.63001 0.65269 0.85818 0.0
H5033 H 0.66353 0.6121 0.8453 0.0
H5034 H 0.68735 0.6314 0.84694 0.0
H5035 H 0.64673 0.60337 0.87081 0.0
H5036 H 0.62953 0.62254 0.81879 0.0
H5037 H 0.62392 0.642 0.79541 0.0
H5038 H 0.58619 0.66687 0.82474 0.0
H5039 H 0.59172 0.64777 0.84841 0.0
C5040 C 0.56061 0.59965 0.89103 0.0
C5041 C 0.56339 0.60585 0.9073 0.0
C5042 C 0.57401 0.59786 0.8798 0.0
C5043 C 0.59036 0.60215 0.88471 0.0
C5044 C 0.59318 0.60734 0.9013 0.0
C5045 C 0.57988 0.60905 0.9125 0.0
C5046 C 0.60404 0.60409 0.87219 0.0
C5047 C 0.60115 0.61462 0.85835 0.0
C5048 C 0.62059 0.59878 0.87573 0.0
C5049 C 0.62413 0.58607 0.88895 0.0
C5050 C 0.63656 0.58896 0.90113 0.0
C5051 C 0.63968 0.57703 0.91362 0.0
C5052 C 0.63047 0.56213 0.91407 0.0
C5053 C 0.61813 0.55912 0.90204 0.0
C5054 C 0.61496 0.57101 0.88952 0.0
C5055 C 0.65587 0.65901 0.8558 0.0
C5056 C 0.6723 0.65312 0.85351 0.0
C5057 C 0.64235 0.648 0.85493 0.0
C5058 C 0.64492 0.63088 0.85155 0.0
C5059 C 0.66122 0.62524 0.84791 0.0
C5060 C 0.67482 0.63629 0.84884 0.0
C5061 C 0.63113 0.61886 0.85506 0.0
C5062 C 0.63398 0.60633 0.86713 0.0
C5063 C 0.61455 0.62201 0.8496 0.0
C5064 C 0.61103 0.63362 0.8354 0.0
C5065 C 0.62008 0.63219 0.8203 0.0
C5066 C 0.61691 0.64317 0.80698 0.0
C5067 C 0.60469 0.65564 0.80858 0.0
C5068 C 0.59561 0.65716 0.8235 0.0
C5069 C 0.59873 0.64622 0.83687 0.0
H5070 H 0.60226 0.66414 0.79826 0.0
H5071 H 0.6329 0.55291 0.92376 0.0
H5072 H 0.64138 0.2977 0.13605 0.0
H5073 H 0.64327 0.32145 0.11658 0.0
H5074 H 0.62851 0.35503 0.15643 0.0
H5075 H 0.62712 0.33165 0.17583 0.0
H5076 H 0.6179 0.33799 0.10688 0.0
H5077 H 0.63799 0.39343 0.15154 0.0
H5078 H 0.66064 0.39924 0.17166 0.0
H5079 H 0.69142 0.3616 0.14846 0.0
H5080 H 0.66907 0.35573 0.12798 0.0
H5081 H 0.56356 0.40289 0.11433 0.0
H5082 H 0.58299 0.37952 0.11275 0.0
H5083 H 0.62227 0.41295 0.09617 0.0
H5084 H 0.6028 0.43666 0.09818 0.0
H5085 H 0.63281 0.39654 0.12149 0.0
H5086 H 0.61006 0.37885 0.07101 0.0
H5087 H 0.58889 0.37293 0.04934 0.0
H5088 H 0.5668 0.33518 0.08084 0.0
H5089 H 0.58763 0.34103 0.10283 0.0
C5090 C 0.63911 0.31025 0.14075 0.0
C5091 C 0.63388 0.31281 0.15741 0.0
C5092 C 0.64018 0.3238 0.1296 0.0
C5093 C 0.63611 0.34008 0.13499 0.0
C5094 C 0.63211 0.34271 0.15196 0.0
C5095 C 0.63112 0.32925 0.16306 0.0
C5096 C 0.63296 0.3538 0.12277 0.0
C5097 C 0.62142 0.35078 0.10983 0.0
C5098 C 0.63821 0.37045 0.12596 0.0
C5099 C 0.65181 0.37415 0.13815 0.0
C5100 C 0.64965 0.38651 0.15057 0.0
C5101 C 0.66242 0.38978 0.1621 0.0
C5102 C 0.67746 0.3808 0.16134 0.0
C5103 C 0.67976 0.36854 0.14904 0.0
C5104 C 0.66702 0.36521 0.13748 0.0
C5105 C 0.5762 0.40525 0.10992 0.0
C5106 C 0.58171 0.42165 0.10661 0.0
C5107 C 0.58731 0.3918 0.10883 0.0
C5108 C 0.60413 0.3944 0.10421 0.0
C5109 C 0.60936 0.41063 0.09973 0.0
C5110 C 0.59821 0.42416 0.10087 0.0
C5111 C 0.61645 0.38071 0.10697 0.0
C5112 C 0.62979 0.38374 0.11804 0.0
C5113 C 0.61314 0.36408 0.10177 0.0
C5114 C 0.6005 0.36037 0.08859 0.0
C5115 C 0.60065 0.36933 0.07337 0.0
C5116 C 0.5887 0.36598 0.06101 0.0
C5117 C 0.57652 0.35367 0.0637 0.0
C5118 C 0.57627 0.34468 0.07876 0.0
C5119 C 0.58819 0.34798 0.09116 0.0
H5120 H 0.56727 0.35111 0.05413 0.0
H5121 H 0.68733 0.38334 0.17028 0.0
H5122 H 0.83407 0.31054 0.36035 0.0
H5123 H 0.85679 0.33064 0.36282 0.0
H5124 H 0.82282 0.37101 0.35056 0.0
H5125 H 0.79977 0.35085 0.34846 0.0
H5126 H 0.87358 0.35511 0.34805 0.0
H5127 H 0.82946 0.40166 0.37906 0.0
H5128 H 0.80077 0.40314 0.39076 0.0
H5129 H 0.80364 0.35122 0.40505 0.0
H5130 H 0.83238 0.34954 0.39361 0.0
H5131 H 0.9335 0.39638 0.39733 0.0
H5132 H 0.90926 0.39721 0.37852 0.0
H5133 H 0.88006 0.37007 0.41525 0.0
H5134 H 0.90386 0.36974 0.43418 0.0
H5135 H 0.86009 0.38935 0.39824 0.0
H5136 H 0.90532 0.34958 0.38486 0.0
H5137 H 0.93444 0.34261 0.37694 0.0
H5138 H 0.93 0.3731 0.33269 0.0
H5139 H 0.90088 0.38036 0.34048 0.0
C5140 C 0.8315 0.32362 0.35765 0.0
C5141 C 0.81507 0.32918 0.35468 0.0
C5142 C 0.84456 0.33513 0.35895 0.0
C5143 C 0.84141 0.35238 0.35728 0.0
C5144 C 0.82544 0.35776 0.35217 0.0
C5145 C 0.8123 0.34622 0.35094 0.0
C5146 C 0.8539 0.36431 0.36411 0.0
C5147 C 0.8706 0.36302 0.35871 0.0
C5148 C 0.85004 0.37447 0.37817 0.0
C5149 C 0.83292 0.37544 0.3853 0.0
C5150 C 0.82395 0.39059 0.38473 0.0
C5151 C 0.8077 0.39146 0.39132 0.0
C5152 C 0.80037 0.37726 0.39858 0.0
C5153 C 0.80931 0.36219 0.39938 0.0
C5154 C 0.82557 0.36128 0.39286 0.0
C5155 C 0.92173 0.39108 0.40158 0.0
C5156 C 0.92066 0.38266 0.41708 0.0
C5157 C 0.90791 0.39153 0.3908 0.0
C5158 C 0.89297 0.38334 0.3953 0.0
C5159 C 0.89145 0.37643 0.41144 0.0
C5160 C 0.90514 0.37615 0.42225 0.0
C5161 C 0.87987 0.37943 0.38271 0.0
C5162 C 0.86304 0.38229 0.38699 0.0
C5163 C 0.88366 0.37008 0.36807 0.0
C5164 C 0.90107 0.36567 0.36334 0.0
C5165 C 0.91061 0.35484 0.37348 0.0
C5166 C 0.92709 0.35084 0.36903 0.0
C5167 C 0.93409 0.35745 0.35435 0.0
C5168 C 0.92458 0.36803 0.34408 0.0
C5169 C 0.90809 0.3721 0.34851 0.0
H5170 H 0.94685 0.35434 0.35091 0.0
H5171 H 0.78778 0.37795 0.40364 0.0
H5172 H 0.84768 0.68929 0.64072 0.0
H5173 H 0.84411 0.66677 0.62013 0.0
H5174 H 0.86364 0.6311 0.65594 0.0
H5175 H 0.86683 0.65327 0.67649 0.0
H5176 H 0.86829 0.65069 0.60648 0.0
H5177 H 0.85258 0.59326 0.65069 0.0
H5178 H 0.83209 0.58664 0.67287 0.0
H5179 H 0.79946 0.6255 0.65476 0.0
H5180 H 0.81962 0.63222 0.63227 0.0
H5181 H 0.92315 0.58699 0.6094 0.0
H5182 H 0.90342 0.61004 0.60782 0.0
H5183 H 0.86388 0.57558 0.59446 0.0
H5184 H 0.88373 0.55219 0.59647 0.0
H5185 H 0.85472 0.59156 0.62027 0.0
H5186 H 0.87277 0.61079 0.56864 0.0
H5187 H 0.89165 0.61754 0.54508 0.0
H5188 H 0.91614 0.65494 0.575 0.0
H5189 H 0.89763 0.64826 0.59884 0.0
C5190 C 0.85074 0.67654 0.64432 0.0
C5191 C 0.85771 0.67305 0.66015 0.0
C5192 C 0.84869 0.6637 0.63254 0.0
C5193 C 0.85346 0.64719 0.63648 0.0
C5194 C 0.85946 0.64362 0.65266 0.0
C5195 C 0.86147 0.65638 0.66439 0.0
C5196 C 0.85499 0.63417 0.62328 0.0
C5197 C 0.86506 0.63777 0.60926 0.0
C5198 C 0.84992 0.61743 0.62627 0.0
C5199 C 0.83764 0.61323 0.6397 0.0
C5200 C 0.84096 0.60029 0.65128 0.0
C5201 C 0.82942 0.59655 0.66396 0.0
C5202 C 0.81448 0.60563 0.66522 0.0
C5203 C 0.81105 0.61848 0.65378 0.0
C5204 C 0.82254 0.62228 0.64107 0.0
C5205 C 0.91039 0.58434 0.60561 0.0
C5206 C 0.90492 0.56776 0.60339 0.0
C5207 C 0.89908 0.59761 0.60449 0.0
C5208 C 0.88208 0.59462 0.60097 0.0
C5209 C 0.87692 0.57821 0.59719 0.0
C5210 C 0.88828 0.56485 0.59834 0.0
C5211 C 0.86968 0.60799 0.6048 0.0
C5212 C 0.85741 0.60449 0.61698 0.0
C5213 C 0.87243 0.62482 0.59985 0.0
C5214 C 0.8837 0.62904 0.58556 0.0
C5215 C 0.88222 0.62041 0.57024 0.0
C5216 C 0.89287 0.62423 0.55682 0.0
C5217 C 0.90507 0.63668 0.55853 0.0
C5218 C 0.90664 0.64534 0.57367 0.0
C5219 C 0.89603 0.64157 0.58713 0.0
H5220 H 0.91331 0.63961 0.54813 0.0
H5221 H 0.80557 0.60272 0.67505 0.0
H5222 H 0.58223 0.37029 0.55798 0.0
H5223 H 0.60601 0.37283 0.57671 0.0
H5224 H 0.57435 0.39588 0.61416 0.0
H5225 H 0.55017 0.39283 0.5955 0.0
H5226 H 0.62396 0.39385 0.59431 0.0
H5227 H 0.58507 0.37912 0.65135 0.0
H5228 H 0.55673 0.36941 0.65936 0.0
H5229 H 0.55431 0.33929 0.61479 0.0
H5230 H 0.58267 0.34873 0.60664 0.0
H5231 H 0.68795 0.35175 0.63736 0.0
H5232 H 0.66468 0.37184 0.63824 0.0
H5233 H 0.63057 0.33269 0.62305 0.0
H5234 H 0.65347 0.31265 0.62259 0.0
H5235 H 0.61438 0.35465 0.64176 0.0
H5236 H 0.65366 0.35645 0.59335 0.0
H5237 H 0.68182 0.36112 0.58129 0.0
H5238 H 0.6831 0.41044 0.60292 0.0
H5239 H 0.65499 0.40595 0.61522 0.0
C5240 C 0.58035 0.37627 0.57003 0.0
C5241 C 0.56426 0.38095 0.57544 0.0
C5242 C 0.59402 0.37786 0.58072 0.0
C5243 C 0.59191 0.38425 0.59699 0.0
C5244 C 0.5762 0.39066 0.60176 0.0
C5245 C 0.56241 0.38891 0.59108 0.0
C5246 C 0.60541 0.38123 0.6094 0.0
C5247 C 0.62186 0.38574 0.60505 0.0
C5248 C 0.60272 0.37066 0.62346 0.0
C5249 C 0.58582 0.36477 0.62833 0.0
C5250 C 0.57846 0.37041 0.6433 0.0
C5251 C 0.56242 0.36496 0.64785 0.0
C5252 C 0.5537 0.35379 0.63756 0.0
C5253 C 0.56105 0.34797 0.62273 0.0
C5254 C 0.5771 0.35336 0.61815 0.0
C5255 C 0.67538 0.34734 0.63475 0.0
C5256 C 0.67256 0.33073 0.62951 0.0
C5257 C 0.66211 0.35884 0.63526 0.0
C5258 C 0.64596 0.35386 0.63037 0.0
C5259 C 0.64291 0.33687 0.62686 0.0
C5260 C 0.65608 0.32541 0.62644 0.0
C5261 C 0.63287 0.36625 0.62582 0.0
C5262 C 0.61652 0.36367 0.63177 0.0
C5263 C 0.63562 0.37804 0.61279 0.0
C5264 C 0.65239 0.38081 0.60533 0.0
C5265 C 0.66001 0.36826 0.59556 0.0
C5266 C 0.67594 0.37086 0.58869 0.0
C5267 C 0.68427 0.38605 0.59138 0.0
C5268 C 0.67665 0.39867 0.60089 0.0
C5269 C 0.66073 0.3961 0.60781 0.0
H5270 H 0.6966 0.38805 0.58606 0.0
H5271 H 0.54128 0.3496 0.64109 0.0
H5272 H 0.84973 0.29888 0.85647 0.0
H5273 H 0.85118 0.3224 0.87613 0.0
H5274 H 0.86138 0.35608 0.8349 0.0
H5275 H 0.85961 0.33286 0.81533 0.0
H5276 H 0.87899 0.33758 0.88153 0.0
H5277 H 0.85367 0.39491 0.84215 0.0
H5278 H 0.8283 0.40205 0.82608 0.0
H5279 H 0.80038 0.36464 0.85303 0.0
H5280 H 0.82552 0.35742 0.86948 0.0
H5281 H 0.93311 0.40228 0.86844 0.0
H5282 H 0.91374 0.37903 0.8717 0.0
H5283 H 0.87785 0.4119 0.89554 0.0
H5284 H 0.89716 0.43549 0.89184 0.0
H5285 H 0.86348 0.39695 0.87121 0.0
H5286 H 0.89369 0.37657 0.91694 0.0
H5287 H 0.9181 0.36932 0.93445 0.0
H5288 H 0.93385 0.33284 0.89811 0.0
H5289 H 0.90971 0.34002 0.88024 0.0
C5290 C 0.85166 0.31142 0.85156 0.0
C5291 C 0.85483 0.31402 0.83439 0.0
C5292 C 0.85251 0.32483 0.86283 0.0
C5293 C 0.85639 0.34103 0.85704 0.0
C5294 C 0.85806 0.3438 0.83971 0.0
C5295 C 0.85722 0.33044 0.82849 0.0
C5296 C 0.86195 0.3543 0.86881 0.0
C5297 C 0.87538 0.35056 0.87957 0.0
C5298 C 0.85677 0.37117 0.86689 0.0
C5299 C 0.84154 0.37563 0.8571 0.0
C5300 C 0.8421 0.3883 0.8448 0.0
C5301 C 0.82776 0.39233 0.83557 0.0
C5302 C 0.81274 0.3838 0.83853 0.0
C5303 C 0.81203 0.37122 0.85073 0.0
C5304 C 0.82634 0.36714 0.86 0.0
C5305 C 0.92129 0.40451 0.87478 0.0
C5306 C 0.91658 0.42075 0.87967 0.0
C5307 C 0.91024 0.39113 0.87681 0.0
C5308 C 0.89433 0.39364 0.88399 0.0
C5309 C 0.89006 0.40965 0.88999 0.0
C5310 C 0.90112 0.42311 0.88788 0.0
C5311 C 0.88151 0.38024 0.8825 0.0
C5312 C 0.86669 0.38397 0.87375 0.0
C5313 C 0.88523 0.36335 0.88653 0.0
C5314 C 0.89981 0.35883 0.89724 0.0
C5315 C 0.90239 0.36705 0.91263 0.0
C5316 C 0.91619 0.36295 0.92263 0.0
C5317 C 0.9275 0.35062 0.9174 0.0
C5318 C 0.92504 0.34236 0.90217 0.0
C5319 C 0.91127 0.34641 0.89211 0.0
H5320 H 0.93818 0.34747 0.92516 0.0
H5321 H 0.80165 0.38694 0.83136 0.0
H5322 H 0.82978 0.68281 0.1177 0.0
H5323 H 0.85334 0.66348 0.11683 0.0
H5324 H 0.82199 0.62394 0.13654 0.0
H5325 H 0.79809 0.64328 0.1371 0.0
H5326 H 0.87153 0.64302 0.13568 0.0
H5327 H 0.83098 0.58883 0.11363 0.0
H5328 H 0.80253 0.5833 0.10274 0.0
H5329 H 0.80146 0.63218 0.07997 0.0
H5330 H 0.82996 0.63788 0.09057 0.0
H5331 H 0.93413 0.59584 0.09592 0.0
H5332 H 0.90928 0.59715 0.11398 0.0
H5333 H 0.88041 0.61674 0.07261 0.0
H5334 H 0.90488 0.61505 0.05451 0.0
H5335 H 0.86058 0.59943 0.09269 0.0
H5336 H 0.90376 0.64305 0.09872 0.0
H5337 H 0.93244 0.65254 0.10541 0.0
H5338 H 0.9284 0.63062 0.15451 0.0
H5339 H 0.89974 0.62086 0.148 0.0
C5340 C 0.82796 0.67013 0.12225 0.0
C5341 C 0.81201 0.66446 0.12711 0.0
C5342 C 0.8415 0.65909 0.12187 0.0
C5343 C 0.83935 0.64218 0.12633 0.0
C5344 C 0.82385 0.63689 0.13282 0.0
C5345 C 0.81022 0.64796 0.13316 0.0
C5346 C 0.85257 0.63 0.12158 0.0
C5347 C 0.86911 0.63315 0.12664 0.0
C5348 C 0.84945 0.6172 0.10967 0.0
C5349 C 0.83244 0.61383 0.10307 0.0
C5350 C 0.82465 0.59836 0.10628 0.0
C5351 C 0.80854 0.59521 0.10016 0.0
C5352 C 0.80017 0.60741 0.09073 0.0
C5353 C 0.80793 0.62276 0.08732 0.0
C5354 C 0.82405 0.62596 0.09338 0.0
C5355 C 0.92233 0.59989 0.09055 0.0
C5356 C 0.92152 0.60572 0.07391 0.0
C5357 C 0.90816 0.60065 0.1009 0.0
C5358 C 0.8931 0.60742 0.09475 0.0
C5359 C 0.89189 0.61153 0.07767 0.0
C5360 C 0.90596 0.61067 0.06733 0.0
C5361 C 0.87956 0.61301 0.10621 0.0
C5362 C 0.86297 0.6086 0.10244 0.0
C5363 C 0.88265 0.6251 0.11885 0.0
C5364 C 0.89976 0.63107 0.12282 0.0
C5365 C 0.90905 0.6402 0.11091 0.0
C5366 C 0.92528 0.64563 0.11466 0.0
C5367 C 0.93226 0.64214 0.13036 0.0
C5368 C 0.92299 0.63327 0.14234 0.0
C5369 C 0.90677 0.62778 0.13863 0.0
H5370 H 0.94482 0.64635 0.13325 0.0
H5371 H 0.78769 0.60495 0.08603 0.0
H5372 H 0.62206 0.65409 0.31291 0.0
H5373 H 0.62392 0.63051 0.33203 0.0
H5374 H 0.64266 0.66315 0.37089 0.0
H5375 H 0.64021 0.68716 0.35178 0.0
H5376 H 0.64371 0.61327 0.35121 0.0
H5377 H 0.62377 0.65189 0.40695 0.0
H5378 H 0.61252 0.67992 0.414 0.0
H5379 H 0.58579 0.68128 0.36729 0.0
H5380 H 0.59678 0.65322 0.36008 0.0
H5381 H 0.60128 0.54797 0.39213 0.0
H5382 H 0.62061 0.57183 0.39365 0.0
H5383 H 0.58098 0.60487 0.37715 0.0
H5384 H 0.56167 0.58141 0.37618 0.0
H5385 H 0.60138 0.62181 0.39608 0.0
H5386 H 0.60713 0.58236 0.34843 0.0
H5387 H 0.6134 0.55438 0.3367 0.0
H5388 H 0.66165 0.55485 0.36056 0.0
H5389 H 0.65555 0.58279 0.37254 0.0
C5390 C 0.62696 0.65625 0.32539 0.0
C5391 C 0.63056 0.67254 0.33098 0.0
C5392 C 0.62816 0.64268 0.33632 0.0
C5393 C 0.63309 0.64509 0.35305 0.0
C5394 C 0.63853 0.66106 0.35813 0.0
C5395 C 0.63715 0.67475 0.34719 0.0
C5396 C 0.62958 0.6315 0.36531 0.0
C5397 C 0.63485 0.61516 0.36139 0.0
C5398 C 0.61804 0.6339 0.37863 0.0
C5399 C 0.61124 0.65063 0.38292 0.0
C5400 C 0.61547 0.65819 0.39822 0.0
C5401 C 0.60915 0.67406 0.40224 0.0
C5402 C 0.5985 0.6824 0.39107 0.0
C5403 C 0.59408 0.67484 0.37591 0.0
C5404 C 0.60034 0.65896 0.37185 0.0
C5405 C 0.59659 0.56043 0.38938 0.0
C5406 C 0.58008 0.56279 0.38365 0.0
C5407 C 0.60766 0.57404 0.39022 0.0
C5408 C 0.60237 0.59008 0.38513 0.0
C5409 C 0.58542 0.59264 0.3811 0.0
C5410 C 0.57438 0.57914 0.38041 0.0
C5411 C 0.61449 0.60359 0.38103 0.0
C5412 C 0.61102 0.61991 0.38664 0.0
C5413 C 0.62711 0.60118 0.36873 0.0
C5414 C 0.63083 0.58449 0.36151 0.0
C5415 C 0.61904 0.57644 0.3512 0.0
C5416 C 0.62256 0.56061 0.34452 0.0
C5417 C 0.6379 0.55282 0.34793 0.0
C5418 C 0.64976 0.56088 0.35798 0.0
C5419 C 0.64628 0.5767 0.36472 0.0
H5420 H 0.6406 0.54057 0.34275 0.0
H5421 H 0.59364 0.69469 0.39419 0.0
H5422 H 0.6078 0.88486 0.54831 0.0
H5423 H 0.60739 0.86954 0.57477 0.0
H5424 H 0.59338 0.91493 0.60083 0.0
H5425 H 0.59472 0.93047 0.57442 0.0
H5426 H 0.62024 0.90435 0.61312 0.0
H5427 H 0.56877 0.87742 0.60179 0.0
H5428 H 0.54744 0.86208 0.58558 0.0
H5429 H 0.58044 0.81966 0.5817 0.0
H5430 H 0.60208 0.83482 0.59768 0.0
H5431 H 0.62877 0.85459 0.68923 0.0
H5432 H 0.60977 0.85841 0.66544 0.0
H5433 H 0.65187 0.85676 0.6315 0.0
H5434 H 0.67091 0.85311 0.6551 0.0
H5435 H 0.6045 0.84582 0.62757 0.0
H5436 H 0.65358 0.89692 0.61994 0.0
H5437 H 0.67452 0.91182 0.63716 0.0
H5438 H 0.64264 0.90719 0.68038 0.0
H5439 H 0.62139 0.89258 0.66332 0.0
C5440 C 0.60406 0.89144 0.5596 0.0
C5441 C 0.60158 0.90888 0.55941 0.0
C5442 C 0.60371 0.88263 0.57476 0.0
C5443 C 0.60044 0.89107 0.58988 0.0
C5444 C 0.59609 0.90816 0.58936 0.0
C5445 C 0.59684 0.91704 0.57428 0.0
C5446 C 0.60494 0.8831 0.60613 0.0
C5447 C 0.61637 0.89171 0.61636 0.0
C5448 C 0.60007 0.86654 0.61052 0.0
C5449 C 0.5871 0.85732 0.6009 0.0
C5450 C 0.57153 0.86487 0.59739 0.0
C5451 C 0.55937 0.85619 0.58825 0.0
C5452 C 0.56259 0.83992 0.5826 0.0
C5453 C 0.57796 0.83227 0.5861 0.0
C5454 C 0.59017 0.84089 0.59523 0.0
C5455 C 0.63389 0.85425 0.67665 0.0
C5456 C 0.65135 0.85402 0.674 0.0
C5457 C 0.62299 0.85633 0.66307 0.0
C5458 C 0.6295 0.85809 0.64682 0.0
C5459 C 0.64666 0.85545 0.644 0.0
C5460 C 0.65754 0.85349 0.65751 0.0
C5461 C 0.61979 0.86708 0.6339 0.0
C5462 C 0.60771 0.85865 0.62437 0.0
C5463 C 0.62368 0.88398 0.63026 0.0
C5464 C 0.63599 0.89355 0.64039 0.0
C5465 C 0.651 0.89922 0.63308 0.0
C5466 C 0.66292 0.90759 0.64281 0.0
C5467 C 0.65993 0.91041 0.65986 0.0
C5468 C 0.64495 0.90497 0.66718 0.0
C5469 C 0.63297 0.89665 0.65749 0.0
H5470 H 0.66921 0.91682 0.6674 0.0
H5471 H 0.55315 0.83322 0.57553 0.0
loop_
_geom_bond_atom_site_label_1
_geom_bond_atom_site_label_2
_geom_bond_distance
_geom_bond_site_symmetry_2
_ccdc_geom_bond_type
C0 O1 1.306 . S
C0 O3 1.160 . S
O1 C0 1.306 . S
O1 Cd2 2.228 . S
Cd2 O1 2.228 . S
Cd2 O6 2.273 . S
Cd2 O10 2.277 . S
O3 C0 1.160 . S
O3 Cd4 2.203 . S
Cd4 O3 2.203 . S
Cd4 O6 2.411 . S
Cd4 O7 2.333 . S
Cd4 O8 2.352 . S
Cd4 O12 2.277 . S
Cd4 O13 2.356 . S
C5 O10 1.209 . S
C5 O12 1.226 . S
O6 Cd2 2.273 . S
O6 Cd4 2.411 . S
O6 C9 1.320 . S
O7 Cd4 2.333 . S
O7 C9 1.214 . S
O8 Cd4 2.352 . S
O8 C11 1.258 . S
C9 O6 1.320 . S
C9 O7 1.214 . S
O10 Cd2 2.277 . S
O10 C5 1.209 . S
C11 O8 1.258 . S
C11 O13 1.282 . S
O12 Cd4 2.277 . S
O12 C5 1.226 . S
O13 Cd4 2.356 . S
O13 C11 1.282 . S
C14 O15 1.306 1_455 S
C14 O17 1.160 . S
O15 C14 1.306 1_655 S
O15 Cd16 2.228 1_665 S
Cd16 O15 2.228 1_445 S
Cd16 O20 2.273 1_545 S
Cd16 O24 2.277 . S
O17 C14 1.160 . S
O17 Cd18 2.203 . S
Cd18 O17 2.203 . S
Cd18 O20 2.411 . S
Cd18 O21 2.333 . S
Cd18 O22 2.352 . S
Cd18 O26 2.277 . S
Cd18 O27 2.356 . S
C19 O24 1.215 . S
C19 O26 1.188 1_545 S
O20 Cd16 2.273 1_565 S
O20 Cd18 2.411 . S
O20 C23 1.320 . S
O21 Cd18 2.333 . S
O21 C23 1.214 . S
O22 Cd18 2.352 . S
O22 C25 1.258 . S
C23 O20 1.320 . S
C23 O21 1.214 . S
O24 Cd16 2.277 . S
O24 C19 1.215 . S
C25 O22 1.258 . S
C25 O27 1.282 . S
O26 Cd18 2.277 . S
O26 C19 1.188 1_565 S
O27 Cd18 2.356 . S
O27 C25 1.282 . S
C28 O29 1.306 . S
C28 O31 1.160 . S
O29 C28 1.306 . S
O29 Cd30 2.228 . S
Cd30 O29 2.228 . S
Cd30 O34 2.273 . S
Cd30 O38 2.277 . S
O31 C28 1.160 . S
O31 Cd32 2.203 . S
Cd32 O31 2.203 . S
Cd32 O34 2.411 . S
Cd32 O35 2.333 . S
Cd32 O36 2.352 . S
Cd32 O40 2.277 . S
Cd32 O41 2.356 . S
C33 O38 1.209 . S
C33 O40 1.226 . S
O34 Cd30 2.273 . S
O34 Cd32 2.411 . S
O34 C37 1.320 . S
O35 Cd32 2.333 . S
O35 C37 1.214 . S
O36 Cd32 2.352 . S
O36 C39 1.258 . S
C37 O34 1.320 . S
C37 O35 1.214 . S
O38 Cd30 2.277 . S
O38 C33 1.209 . S
C39 O36 1.258 . S
C39 O41 1.282 . S
O40 Cd32 2.277 . S
O40 C33 1.226 . S
O41 Cd32 2.356 . S
O41 C39 1.282 . S
C42 O43 1.306 . S
C42 O45 1.160 . S
O43 C42 1.306 . S
O43 Cd44 2.228 1_545 S
Cd44 O43 2.228 1_565 S
Cd44 O48 2.273 1_565 S
Cd44 O52 2.277 . S
O45 C42 1.160 . S
O45 Cd46 2.203 . S
Cd46 O45 2.203 . S
Cd46 O48 2.411 . S
Cd46 O49 2.333 . S
Cd46 O50 2.352 . S
Cd46 O54 2.277 . S
Cd46 O55 2.356 . S
C47 O52 1.215 . S
C47 O54 1.188 1_565 S
O48 Cd44 2.273 1_545 S
O48 Cd46 2.411 . S
O48 C51 1.320 . S
O49 Cd46 2.333 . S
O49 C51 1.214 . S
O50 Cd46 2.352 . S
O50 C53 1.258 . S
C51 O48 1.320 . S
C51 O49 1.214 . S
O52 Cd44 2.277 . S
O52 C47 1.215 . S
C53 O50 1.258 . S
C53 O55 1.282 . S
O54 Cd46 2.277 . S
O54 C47 1.188 1_545 S
O55 Cd46 2.356 . S
O55 C53 1.282 . S
C56 O57 1.306 . S
C56 O59 1.160 . S
O57 C56 1.306 . S
O57 Cd58 2.228 . S
Cd58 O57 2.228 . S
Cd58 O62 2.273 . S
Cd58 O66 2.277 . S
O59 C56 1.160 . S
O59 Cd60 2.203 . S
Cd60 O59 2.203 . S
Cd60 O62 2.411 . S
Cd60 O63 2.333 . S
Cd60 O64 2.352 . S
Cd60 O68 2.277 . S
Cd60 O69 2.356 . S
C61 O66 1.209 . S
C61 O68 1.226 . S
O62 Cd58 2.273 . S
O62 Cd60 2.411 . S
O62 C65 1.320 . S
O63 Cd60 2.333 . S
O63 C65 1.214 . S
O64 Cd60 2.352 . S
O64 C67 1.258 . S
C65 O62 1.320 . S
C65 O63 1.214 . S
O66 Cd58 2.277 . S
O66 C61 1.209 . S
C67 O64 1.258 . S
C67 O69 1.282 . S
O68 Cd60 2.277 . S
O68 C61 1.226 . S
O69 Cd60 2.356 . S
O69 C67 1.282 . S
C70 O71 1.306 . S
C70 O73 1.160 . S
O71 C70 1.306 . S
O71 Cd72 2.228 1_565 S
Cd72 O71 2.228 1_545 S
Cd72 O76 2.273 1_545 S
Cd72 O80 2.277 . S
O73 C70 1.160 . S
O73 Cd74 2.203 . S
Cd74 O73 2.203 . S
Cd74 O76 2.411 . S
Cd74 O77 2.333 . S
Cd74 O78 2.352 . S
Cd74 O82 2.277 . S
Cd74 O83 2.356 . S
C75 O80 1.215 . S
C75 O82 1.188 1_545 S
O76 Cd72 2.273 1_565 S
O76 Cd74 2.411 . S
O76 C79 1.320 . S
O77 Cd74 2.333 . S
O77 C79 1.214 . S
O78 Cd74 2.352 . S
O78 C81 1.258 . S
C79 O76 1.320 . S
C79 O77 1.214 . S
O80 Cd72 2.277 . S
O80 C75 1.215 . S
C81 O78 1.258 . S
C81 O83 1.282 . S
O82 Cd74 2.277 . S
O82 C75 1.188 1_565 S
O83 Cd74 2.356 . S
O83 C81 1.282 . S
C84 O85 1.306 . S
C84 O87 1.160 . S
O85 C84 1.306 . S
O85 Cd86 2.228 . S
Cd86 O85 2.228 . S
Cd86 O90 2.273 . S
Cd86 O94 2.277 . S
O87 C84 1.160 . S
O87 Cd88 2.203 . S
Cd88 O87 2.203 . S
Cd88 O90 2.411 . S
Cd88 O91 2.333 . S
Cd88 O92 2.352 . S
Cd88 O96 2.277 . S
Cd88 O97 2.356 . S
C89 O94 1.209 . S
C89 O96 1.226 . S
O90 Cd86 2.273 . S
O90 Cd88 2.411 . S
O90 C93 1.320 . S
O91 Cd88 2.333 . S
O91 C93 1.214 . S
O92 Cd88 2.352 . S
O92 C95 1.258 . S
C93 O90 1.320 . S
C93 O91 1.214 . S
O94 Cd86 2.277 . S
O94 C89 1.209 . S
C95 O92 1.258 . S
C95 O97 1.282 . S
O96 Cd88 2.277 . S
O96 C89 1.226 . S
O97 Cd88 2.356 . S
O97 C95 1.282 . S
C98 O99 1.306 1_455 S
C98 O101 1.160 . S
O99 C98 1.306 1_655 S
O99 Cd100 2.228 1_645 S
Cd100 O99 2.228 1_465 S
Cd100 O104 2.273 1_565 S
Cd100 O108 2.277 . S
O101 C98 1.160 . S
O101 Cd102 2.203 . S
Cd102 O101 2.203 . S
Cd102 O104 2.411 . S
Cd102 O105 2.333 . S
Cd102 O106 2.352 . S
Cd102 O110 2.277 . S
Cd102 O111 2.356 . S
C103 O108 1.215 . S
C103 O110 1.188 1_565 S
O104 Cd100 2.273 1_545 S
O104 Cd102 2.411 . S
O104 C107 1.320 . S
O105 Cd102 2.333 . S
O105 C107 1.214 . S
O106 Cd102 2.352 . S
O106 C109 1.258 . S
C107 O104 1.320 . S
C107 O105 1.214 . S
O108 Cd100 2.277 . S
O108 C103 1.215 . S
C109 O106 1.258 . S
C109 O111 1.282 . S
O110 Cd102 2.277 . S
O110 C103 1.188 1_545 S
O111 Cd102 2.356 . S
O111 C109 1.282 . S
C112 O113 1.306 . S
C112 O115 1.160 . S
O113 C112 1.306 . S
O113 Cd114 2.228 . S
Cd114 O113 2.228 . S
Cd114 O118 2.273 . S
Cd114 O122 2.277 . S
O115 C112 1.160 . S
O115 Cd116 2.203 . S
Cd116 O115 2.203 . S
Cd116 O118 2.411 . S
Cd116 O119 2.333 . S
Cd116 O120 2.352 . S
Cd116 O124 2.277 . S
Cd116 O125 2.356 . S
C117 O122 1.209 . S
C117 O124 1.226 . S
O118 Cd114 2.273 . S
O118 Cd116 2.411 . S
O118 C121 1.320 . S
O119 Cd116 2.333 . S
O119 C121 1.214 . S
O120 Cd116 2.352 . S
O120 C123 1.258 . S
C121 O118 1.320 . S
C121 O119 1.214 . S
O122 Cd114 2.277 . S
O122 C117 1.209 . S
C123 O120 1.258 . S
C123 O125 1.282 . S
O124 Cd116 2.277 . S
O124 C117 1.226 . S
O125 Cd116 2.356 . S
O125 C123 1.282 . S
C126 O127 1.306 . S
C126 O129 1.160 . S
O127 C126 1.306 . S
O127 Cd128 2.228 1_455 S
Cd128 O127 2.228 1_655 S
Cd128 O132 2.273 1_655 S
Cd128 O136 2.277 . S
O129 C126 1.160 . S
O129 Cd130 2.203 . S
Cd130 O129 2.203 . S
Cd130 O132 2.411 . S
Cd130 O133 2.333 . S
Cd130 O134 2.352 . S
Cd130 O138 2.277 . S
Cd130 O139 2.356 . S
C131 O136 1.215 . S
C131 O138 1.188 1_655 S
O132 Cd128 2.273 1_455 S
O132 Cd130 2.411 . S
O132 C135 1.320 . S
O133 Cd130 2.333 . S
O133 C135 1.214 . S
O134 Cd130 2.352 . S
O134 C137 1.258 . S
C135 O132 1.320 . S
C135 O133 1.214 . S
O136 Cd128 2.277 . S
O136 C131 1.215 . S
C137 O134 1.258 . S
C137 O139 1.282 . S
O138 Cd130 2.277 . S
O138 C131 1.188 1_455 S
O139 Cd130 2.356 . S
O139 C137 1.282 . S
C140 O141 1.306 . S
C140 O143 1.160 . S
O141 C140 1.306 . S
O141 Cd142 2.228 . S
Cd142 O141 2.228 . S
Cd142 O146 2.273 . S
Cd142 O150 2.277 . S
O143 C140 1.160 . S
O143 Cd144 2.203 . S
Cd144 O143 2.203 . S
Cd144 O146 2.411 . S
Cd144 O147 2.333 . S
Cd144 O148 2.352 . S
Cd144 O152 2.277 . S
Cd144 O153 2.356 . S
C145 O150 1.209 . S
C145 O152 1.226 . S
O146 Cd142 2.273 . S
O146 Cd144 2.411 . S
O146 C149 1.320 . S
O147 Cd144 2.333 . S
O147 C149 1.214 . S
O148 Cd144 2.352 . S
O148 C151 1.258 . S
C149 O146 1.320 . S
C149 O147 1.214 . S
O150 Cd142 2.277 . S
O150 C145 1.209 . S
C151 O148 1.258 . S
C151 O153 1.282 . S
O152 Cd144 2.277 . S
O152 C145 1.226 . S
O153 Cd144 2.356 . S
O153 C151 1.282 . S
C154 O155 1.306 1_556 S
C154 O157 1.160 . S
O155 C154 1.306 1_554 S
O155 Cd156 2.228 1_554 S
Cd156 O155 2.228 1_556 S
Cd156 O160 2.273 . S
Cd156 O164 2.277 . S
O157 C154 1.160 . S
O157 Cd158 2.203 . S
Cd158 O157 2.203 . S
Cd158 O160 2.411 . S
Cd158 O161 2.333 . S
Cd158 O162 2.352 . S
Cd158 O166 2.277 . S
Cd158 O167 2.356 . S
C159 O164 1.209 . S
C159 O166 1.226 . S
O160 Cd156 2.273 . S
O160 Cd158 2.411 . S
O160 C163 1.320 . S
O161 Cd158 2.333 . S
O161 C163 1.214 . S
O162 Cd158 2.352 . S
O162 C165 1.258 . S
C163 O160 1.320 . S
C163 O161 1.214 . S
O164 Cd156 2.277 . S
O164 C159 1.209 . S
C165 O162 1.258 . S
C165 O167 1.282 . S
O166 Cd158 2.277 . S
O166 C159 1.226 . S
O167 Cd158 2.356 . S
O167 C165 1.282 . S
C168 O169 1.306 . S
C168 O171 1.160 . S
O169 C168 1.306 . S
O169 Cd170 2.228 . S
Cd170 O169 2.228 . S
Cd170 O174 2.273 . S
Cd170 O178 2.277 . S
O171 C168 1.160 . S
O171 Cd172 2.203 . S
Cd172 O171 2.203 . S
Cd172 O174 2.411 . S
Cd172 O175 2.333 . S
Cd172 O176 2.352 . S
Cd172 O180 2.277 . S
Cd172 O181 2.356 . S
C173 O178 1.209 . S
C173 O180 1.226 . S
O174 Cd170 2.273 . S
O174 Cd172 2.411 . S
O174 C177 1.320 . S
O175 Cd172 2.333 . S
O175 C177 1.214 . S
O176 Cd172 2.352 . S
O176 C179 1.258 . S
C177 O174 1.320 . S
C177 O175 1.214 . S
O178 Cd170 2.277 . S
O178 C173 1.209 . S
C179 O176 1.258 . S
C179 O181 1.282 . S
O180 Cd172 2.277 . S
O180 C173 1.226 . S
O181 Cd172 2.356 . S
O181 C179 1.282 . S
C182 O183 1.306 . S
C182 O185 1.160 . S
O183 C182 1.306 . S
O183 Cd184 2.228 . S
Cd184 O183 2.228 . S
Cd184 O188 2.273 . S
Cd184 O192 2.277 . S
O185 C182 1.160 . S
O185 Cd186 2.203 . S
Cd186 O185 2.203 . S
Cd186 O188 2.411 . S
Cd186 O189 2.333 . S
Cd186 O190 2.352 . S
Cd186 O194 2.277 . S
Cd186 O195 2.356 . S
C187 O192 1.209 . S
C187 O194 1.226 . S
O188 Cd184 2.273 . S
O188 Cd186 2.411 . S
O188 C191 1.320 . S
O189 Cd186 2.333 . S
O189 C191 1.214 . S
O190 Cd186 2.352 . S
O190 C193 1.258 . S
C191 O188 1.320 . S
C191 O189 1.214 . S
O192 Cd184 2.277 . S
O192 C187 1.209 . S
C193 O190 1.258 . S
C193 O195 1.282 . S
O194 Cd186 2.277 . S
O194 C187 1.226 . S
O195 Cd186 2.356 . S
O195 C193 1.282 . S
C196 O197 1.306 . S
C196 O199 1.160 . S
O197 C196 1.306 . S
O197 Cd198 2.228 . S
Cd198 O197 2.228 . S
Cd198 O202 2.273 . S
Cd198 O206 2.277 . S
O199 C196 1.160 . S
O199 Cd200 2.203 . S
Cd200 O199 2.203 . S
Cd200 O202 2.411 . S
Cd200 O203 2.333 . S
Cd200 O204 2.352 . S
Cd200 O208 2.277 . S
Cd200 O209 2.356 . S
C201 O206 1.209 . S
C201 O208 1.226 . S
O202 Cd198 2.273 . S
O202 Cd200 2.411 . S
O202 C205 1.320 . S
O203 Cd200 2.333 . S
O203 C205 1.214 . S
O204 Cd200 2.352 . S
O204 C207 1.258 . S
C205 O202 1.320 . S
C205 O203 1.214 . S
O206 Cd198 2.277 . S
O206 C201 1.209 . S
C207 O204 1.258 . S
C207 O209 1.282 . S
O208 Cd200 2.277 . S
O208 C201 1.226 . S
O209 Cd200 2.356 . S
O209 C207 1.282 . S
C210 O211 1.306 1_554 S
C210 O213 1.160 . S
O211 C210 1.306 1_556 S
O211 Cd212 2.228 1_456 S
Cd212 O211 2.228 1_654 S
Cd212 O216 2.273 1_655 S
Cd212 O220 2.277 . S
O213 C210 1.160 . S
O213 Cd214 2.203 . S
Cd214 O213 2.203 . S
Cd214 O216 2.411 . S
Cd214 O217 2.333 . S
Cd214 O218 2.352 . S
Cd214 O222 2.277 . S
Cd214 O223 2.356 . S
C215 O220 1.215 . S
C215 O222 1.188 1_655 S
O216 Cd212 2.273 1_455 S
O216 Cd214 2.411 . S
O216 C219 1.320 . S
O217 Cd214 2.333 . S
O217 C219 1.214 . S
O218 Cd214 2.352 . S
O218 C221 1.258 . S
C219 O216 1.320 . S
C219 O217 1.214 . S
O220 Cd212 2.277 . S
O220 C215 1.215 . S
C221 O218 1.258 . S
C221 O223 1.282 . S
O222 Cd214 2.277 . S
O222 C215 1.188 1_455 S
O223 Cd214 2.356 . S
O223 C221 1.282 . S
C224 O225 1.306 . S
C224 O227 1.160 . S
O225 C224 1.306 . S
O225 Cd226 2.228 . S
Cd226 O225 2.228 . S
Cd226 O230 2.273 . S
Cd226 O234 2.277 . S
O227 C224 1.160 . S
O227 Cd228 2.203 . S
Cd228 O227 2.203 . S
Cd228 O230 2.411 . S
Cd228 O231 2.333 . S
Cd228 O232 2.352 . S
Cd228 O236 2.277 . S
Cd228 O237 2.356 . S
C229 O234 1.209 . S
C229 O236 1.226 . S
O230 Cd226 2.273 . S
O230 Cd228 2.411 . S
O230 C233 1.320 . S
O231 Cd228 2.333 . S
O231 C233 1.214 . S
O232 Cd228 2.352 . S
O232 C235 1.258 . S
C233 O230 1.320 . S
C233 O231 1.214 . S
O234 Cd226 2.277 . S
O234 C229 1.209 . S
C235 O232 1.258 . S
C235 O237 1.282 . S
O236 Cd228 2.277 . S
O236 C229 1.226 . S
O237 Cd228 2.356 . S
O237 C235 1.282 . S
C238 O239 1.306 . S
C238 O241 1.160 . S
O239 C238 1.306 . S
O239 Cd240 2.228 . S
Cd240 O239 2.228 . S
Cd240 O244 2.273 . S
Cd240 O248 2.277 . S
O241 C238 1.160 . S
O241 Cd242 2.203 . S
Cd242 O241 2.203 . S
Cd242 O244 2.411 . S
Cd242 O245 2.333 . S
Cd242 O246 2.352 . S
Cd242 O250 2.277 . S
Cd242 O251 2.356 . S
C243 O248 1.209 . S
C243 O250 1.226 . S
O244 Cd240 2.273 . S
O244 Cd242 2.411 . S
O244 C247 1.320 . S
O245 Cd242 2.333 . S
O245 C247 1.214 . S
O246 Cd242 2.352 . S
O246 C249 1.258 . S
C247 O244 1.320 . S
C247 O245 1.214 . S
O248 Cd240 2.277 . S
O248 C243 1.209 . S
C249 O246 1.258 . S
C249 O251 1.282 . S
O250 Cd242 2.277 . S
O250 C243 1.226 . S
O251 Cd242 2.356 . S
O251 C249 1.282 . S
C252 O253 1.306 . S
C252 O255 1.160 . S
O253 C252 1.306 . S
O253 Cd254 2.228 1_554 S
Cd254 O253 2.228 1_556 S
Cd254 O258 2.273 1_556 S
Cd254 O262 2.277 . S
O255 C252 1.160 . S
O255 Cd256 2.203 . S
Cd256 O255 2.203 . S
Cd256 O258 2.411 . S
Cd256 O259 2.333 . S
Cd256 O260 2.352 . S
Cd256 O264 2.277 . S
Cd256 O265 2.356 . S
C257 O262 1.215 . S
C257 O264 1.188 1_556 S
O258 Cd254 2.273 1_554 S
O258 Cd256 2.411 . S
O258 C261 1.320 . S
O259 Cd256 2.333 . S
O259 C261 1.214 . S
O260 Cd256 2.352 . S
O260 C263 1.258 . S
C261 O258 1.320 . S
C261 O259 1.214 . S
O262 Cd254 2.277 . S
O262 C257 1.215 . S
C263 O260 1.258 . S
C263 O265 1.282 . S
O264 Cd256 2.277 . S
O264 C257 1.188 1_554 S
O265 Cd256 2.356 . S
O265 C263 1.282 . S
C266 O267 1.306 . S
C266 O269 1.160 . S
O267 C266 1.306 . S
O267 Cd268 2.228 . S
Cd268 O267 2.228 . S
Cd268 O272 2.273 . S
Cd268 O276 2.277 . S
O269 C266 1.160 . S
O269 Cd270 2.203 . S
Cd270 O269 2.203 . S
Cd270 O272 2.411 . S
Cd270 O273 2.333 . S
Cd270 O274 2.352 . S
Cd270 O278 2.277 . S
Cd270 O279 2.356 . S
C271 O276 1.209 . S
C271 O278 1.226 . S
O272 Cd268 2.273 . S
O272 Cd270 2.411 . S
O272 C275 1.320 . S
O273 Cd270 2.333 . S
O273 C275 1.214 . S
O274 Cd270 2.352 . S
O274 C277 1.258 . S
C275 O272 1.320 . S
C275 O273 1.214 . S
O276 Cd268 2.277 . S
O276 C271 1.209 . S
C277 O274 1.258 . S
C277 O279 1.282 . S
O278 Cd270 2.277 . S
O278 C271 1.226 . S
O279 Cd270 2.356 . S
O279 C277 1.282 . S
C280 O281 1.306 1_545 S
C280 O283 1.160 . S
O281 C280 1.306 1_565 S
O281 Cd282 2.228 1_564 S
Cd282 O281 2.228 1_546 S
Cd282 O286 2.273 1_556 S
Cd282 O290 2.277 . S
O283 C280 1.160 . S
O283 Cd284 2.203 . S
Cd284 O283 2.203 . S
Cd284 O286 2.411 . S
Cd284 O287 2.333 . S
Cd284 O288 2.352 . S
Cd284 O292 2.277 . S
Cd284 O293 2.356 . S
C285 O290 1.215 . S
C285 O292 1.188 1_556 S
O286 Cd282 2.273 1_554 S
O286 Cd284 2.411 . S
O286 C289 1.320 . S
O287 Cd284 2.333 . S
O287 C289 1.214 . S
O288 Cd284 2.352 . S
O288 C291 1.258 . S
C289 O286 1.320 . S
C289 O287 1.214 . S
O290 Cd282 2.277 . S
O290 C285 1.215 . S
C291 O288 1.258 . S
C291 O293 1.282 . S
O292 Cd284 2.277 . S
O292 C285 1.188 1_554 S
O293 Cd284 2.356 . S
O293 C291 1.282 . S
C294 O295 1.306 . S
C294 O297 1.160 . S
O295 C294 1.306 . S
O295 Cd296 2.228 . S
Cd296 O295 2.228 . S
Cd296 O300 2.273 . S
Cd296 O304 2.277 . S
O297 C294 1.160 . S
O297 Cd298 2.203 . S
Cd298 O297 2.203 . S
Cd298 O300 2.411 . S
Cd298 O301 2.333 . S
Cd298 O302 2.352 . S
Cd298 O306 2.277 . S
Cd298 O307 2.356 . S
C299 O304 1.209 . S
C299 O306 1.226 . S
O300 Cd296 2.273 . S
O300 Cd298 2.411 . S
O300 C303 1.320 . S
O301 Cd298 2.333 . S
O301 C303 1.214 . S
O302 Cd298 2.352 . S
O302 C305 1.258 . S
C303 O300 1.320 . S
C303 O301 1.214 . S
O304 Cd296 2.277 . S
O304 C299 1.209 . S
C305 O302 1.258 . S
C305 O307 1.282 . S
O306 Cd298 2.277 . S
O306 C299 1.226 . S
O307 Cd298 2.356 . S
O307 C305 1.282 . S
C308 O309 1.306 . S
C308 O311 1.160 . S
O309 C308 1.306 . S
O309 Cd310 2.228 . S
Cd310 O309 2.228 . S
Cd310 O314 2.273 . S
Cd310 O318 2.277 . S
O311 C308 1.160 . S
O311 Cd312 2.203 . S
Cd312 O311 2.203 . S
Cd312 O314 2.411 . S
Cd312 O315 2.333 . S
Cd312 O316 2.352 . S
Cd312 O320 2.277 . S
Cd312 O321 2.356 . S
C313 O318 1.209 . S
C313 O320 1.226 . S
O314 Cd310 2.273 . S
O314 Cd312 2.411 . S
O314 C317 1.320 . S
O315 Cd312 2.333 . S
O315 C317 1.214 . S
O316 Cd312 2.352 . S
O316 C319 1.258 . S
C317 O314 1.320 . S
C317 O315 1.214 . S
O318 Cd310 2.277 . S
O318 C313 1.209 . S
C319 O316 1.258 . S
C319 O321 1.282 . S
O320 Cd312 2.277 . S
O320 C313 1.226 . S
O321 Cd312 2.356 . S
O321 C319 1.282 . S
C322 O323 1.306 . S
C322 O325 1.160 . S
O323 C322 1.306 . S
O323 Cd324 2.228 1_556 S
Cd324 O323 2.228 1_554 S
Cd324 O328 2.273 1_554 S
Cd324 O332 2.277 . S
O325 C322 1.160 . S
O325 Cd326 2.203 . S
Cd326 O325 2.203 . S
Cd326 O328 2.411 . S
Cd326 O329 2.333 . S
Cd326 O330 2.352 . S
Cd326 O334 2.277 . S
Cd326 O335 2.356 . S
C327 O332 1.215 . S
C327 O334 1.188 1_554 S
O328 Cd324 2.273 1_556 S
O328 Cd326 2.411 . S
O328 C331 1.320 . S
O329 Cd326 2.333 . S
O329 C331 1.214 . S
O330 Cd326 2.352 . S
O330 C333 1.258 . S
C331 O328 1.320 . S
C331 O329 1.214 . S
O332 Cd324 2.277 . S
O332 C327 1.215 . S
C333 O330 1.258 . S
C333 O335 1.282 . S
O334 Cd326 2.277 . S
O334 C327 1.188 1_556 S
O335 Cd326 2.356 . S
O335 C333 1.282 . S
C336 O337 1.306 . S
C336 O339 1.160 . S
O337 C336 1.306 . S
O337 Cd338 2.228 . S
Cd338 O337 2.228 . S
Cd338 O342 2.273 . S
Cd338 O346 2.277 . S
O339 C336 1.160 . S
O339 Cd340 2.203 . S
Cd340 O339 2.203 . S
Cd340 O342 2.411 . S
Cd340 O343 2.333 . S
Cd340 O344 2.352 . S
Cd340 O348 2.277 . S
Cd340 O349 2.356 . S
C341 O346 1.209 . S
C341 O348 1.226 . S
O342 Cd338 2.273 . S
O342 Cd340 2.411 . S
O342 C345 1.320 . S
O343 Cd340 2.333 . S
O343 C345 1.214 . S
O344 Cd340 2.352 . S
O344 C347 1.258 . S
C345 O342 1.320 . S
C345 O343 1.214 . S
O346 Cd338 2.277 . S
O346 C341 1.209 . S
C347 O344 1.258 . S
C347 O349 1.282 . S
O348 Cd340 2.277 . S
O348 C341 1.226 . S
O349 Cd340 2.356 . S
O349 C347 1.282 . S
C350 O351 1.306 . S
C350 O353 1.160 . S
O351 C350 1.306 . S
O351 Cd352 2.228 . S
Cd352 O351 2.228 . S
Cd352 O356 2.273 . S
Cd352 O360 2.277 . S
O353 C350 1.160 . S
O353 Cd354 2.203 . S
Cd354 O353 2.203 . S
Cd354 O356 2.411 . S
Cd354 O357 2.333 . S
Cd354 O358 2.352 . S
Cd354 O362 2.277 . S
Cd354 O363 2.356 . S
C355 O360 1.209 . S
C355 O362 1.226 . S
O356 Cd352 2.273 . S
O356 Cd354 2.411 . S
O356 C359 1.320 . S
O357 Cd354 2.333 . S
O357 C359 1.214 . S
O358 Cd354 2.352 . S
O358 C361 1.258 . S
C359 O356 1.320 . S
C359 O357 1.214 . S
O360 Cd352 2.277 . S
O360 C355 1.209 . S
C361 O358 1.258 . S
C361 O363 1.282 . S
O362 Cd354 2.277 . S
O362 C355 1.226 . S
O363 Cd354 2.356 . S
O363 C361 1.282 . S
C364 O365 1.306 . S
C364 O367 1.160 . S
O365 C364 1.306 . S
O365 Cd366 2.228 . S
Cd366 O365 2.228 . S
Cd366 O370 2.273 . S
Cd366 O374 2.277 . S
O367 C364 1.160 . S
O367 Cd368 2.203 . S
Cd368 O367 2.203 . S
Cd368 O370 2.411 . S
Cd368 O371 2.333 . S
Cd368 O372 2.352 . S
Cd368 O376 2.277 . S
Cd368 O377 2.356 . S
C369 O374 1.209 . S
C369 O376 1.226 . S
O370 Cd366 2.273 . S
O370 Cd368 2.411 . S
O370 C373 1.320 . S
O371 Cd368 2.333 . S
O371 C373 1.214 . S
O372 Cd368 2.352 . S
O372 C375 1.258 . S
C373 O370 1.320 . S
C373 O371 1.214 . S
O374 Cd366 2.277 . S
O374 C369 1.209 . S
C375 O372 1.258 . S
C375 O377 1.282 . S
O376 Cd368 2.277 . S
O376 C369 1.226 . S
O377 Cd368 2.356 . S
O377 C375 1.282 . S
C378 O379 1.306 1_655 S
C378 O381 1.160 . S
O379 C378 1.306 1_455 S
O379 Cd380 2.228 1_455 S
Cd380 O379 2.228 1_655 S
Cd380 O384 2.273 . S
Cd380 O388 2.277 . S
O381 C378 1.160 . S
O381 Cd382 2.203 . S
Cd382 O381 2.203 . S
Cd382 O384 2.411 . S
Cd382 O385 2.333 . S
Cd382 O386 2.352 . S
Cd382 O390 2.277 . S
Cd382 O391 2.356 . S
C383 O388 1.209 . S
C383 O390 1.226 . S
O384 Cd380 2.273 . S
O384 Cd382 2.411 . S
O384 C387 1.320 . S
O385 Cd382 2.333 . S
O385 C387 1.214 . S
O386 Cd382 2.352 . S
O386 C389 1.258 . S
C387 O384 1.320 . S
C387 O385 1.214 . S
O388 Cd380 2.277 . S
O388 C383 1.209 . S
C389 O386 1.258 . S
C389 O391 1.282 . S
O390 Cd382 2.277 . S
O390 C383 1.226 . S
O391 Cd382 2.356 . S
O391 C389 1.282 . S
C392 O393 1.306 . S
C392 O395 1.160 . S
O393 C392 1.306 . S
O393 Cd394 2.228 . S
Cd394 O393 2.228 . S
Cd394 O398 2.273 . S
Cd394 O402 2.277 . S
O395 C392 1.160 . S
O395 Cd396 2.203 . S
Cd396 O395 2.203 . S
Cd396 O398 2.411 . S
Cd396 O399 2.333 . S
Cd396 O400 2.352 . S
Cd396 O404 2.277 . S
Cd396 O405 2.356 . S
C397 O402 1.209 . S
C397 O404 1.226 . S
O398 Cd394 2.273 . S
O398 Cd396 2.411 . S
O398 C401 1.320 . S
O399 Cd396 2.333 . S
O399 C401 1.214 . S
O400 Cd396 2.352 . S
O400 C403 1.258 . S
C401 O398 1.320 . S
C401 O399 1.214 . S
O402 Cd394 2.277 . S
O402 C397 1.209 . S
C403 O400 1.258 . S
C403 O405 1.282 . S
O404 Cd396 2.277 . S
O404 C397 1.226 . S
O405 Cd396 2.356 . S
O405 C403 1.282 . S
C406 O407 1.306 1_655 S
C406 O409 1.160 . S
O407 C406 1.306 1_455 S
O407 Cd408 2.228 1_455 S
Cd408 O407 2.228 1_655 S
Cd408 O412 2.273 . S
Cd408 O416 2.277 . S
O409 C406 1.160 . S
O409 Cd410 2.203 . S
Cd410 O409 2.203 . S
Cd410 O412 2.411 . S
Cd410 O413 2.333 . S
Cd410 O414 2.352 . S
Cd410 O418 2.277 . S
Cd410 O419 2.356 . S
C411 O416 1.209 . S
C411 O418 1.226 . S
O412 Cd408 2.273 . S
O412 Cd410 2.411 . S
O412 C415 1.320 . S
O413 Cd410 2.333 . S
O413 C415 1.214 . S
O414 Cd410 2.352 . S
O414 C417 1.258 . S
C415 O412 1.320 . S
C415 O413 1.214 . S
O416 Cd408 2.277 . S
O416 C411 1.209 . S
C417 O414 1.258 . S
C417 O419 1.282 . S
O418 Cd410 2.277 . S
O418 C411 1.226 . S
O419 Cd410 2.356 . S
O419 C417 1.282 . S
C420 O421 1.306 . S
C420 O423 1.160 . S
O421 C420 1.306 . S
O421 Cd422 2.228 . S
Cd422 O421 2.228 . S
Cd422 O426 2.273 . S
Cd422 O430 2.277 . S
O423 C420 1.160 . S
O423 Cd424 2.203 . S
Cd424 O423 2.203 . S
Cd424 O426 2.411 . S
Cd424 O427 2.333 . S
Cd424 O428 2.352 . S
Cd424 O432 2.277 . S
Cd424 O433 2.356 . S
C425 O430 1.209 . S
C425 O432 1.226 . S
O426 Cd422 2.273 . S
O426 Cd424 2.411 . S
O426 C429 1.320 . S
O427 Cd424 2.333 . S
O427 C429 1.214 . S
O428 Cd424 2.352 . S
O428 C431 1.258 . S
C429 O426 1.320 . S
C429 O427 1.214 . S
O430 Cd422 2.277 . S
O430 C425 1.209 . S
C431 O428 1.258 . S
C431 O433 1.282 . S
O432 Cd424 2.277 . S
O432 C425 1.226 . S
O433 Cd424 2.356 . S
O433 C431 1.282 . S
C434 O435 1.306 . S
C434 O437 1.160 . S
O435 C434 1.306 . S
O435 Cd436 2.228 . S
Cd436 O435 2.228 . S
Cd436 O440 2.273 . S
Cd436 O444 2.277 . S
O437 C434 1.160 . S
O437 Cd438 2.203 . S
Cd438 O437 2.203 . S
Cd438 O440 2.411 . S
Cd438 O441 2.333 . S
Cd438 O442 2.352 . S
Cd438 O446 2.277 . S
Cd438 O447 2.356 . S
C439 O444 1.209 . S
C439 O446 1.226 . S
O440 Cd436 2.273 . S
O440 Cd438 2.411 . S
O440 C443 1.320 . S
O441 Cd438 2.333 . S
O441 C443 1.214 . S
O442 Cd438 2.352 . S
O442 C445 1.258 . S
C443 O440 1.320 . S
C443 O441 1.214 . S
O444 Cd436 2.277 . S
O444 C439 1.209 . S
C445 O442 1.258 . S
C445 O447 1.282 . S
O446 Cd438 2.277 . S
O446 C439 1.226 . S
O447 Cd438 2.356 . S
O447 C445 1.282 . S
C448 O449 1.306 . S
C448 O451 1.160 . S
O449 C448 1.306 . S
O449 Cd450 2.228 . S
Cd450 O449 2.228 . S
Cd450 O454 2.273 . S
Cd450 O458 2.277 . S
O451 C448 1.160 . S
O451 Cd452 2.203 . S
Cd452 O451 2.203 . S
Cd452 O454 2.411 . S
Cd452 O455 2.333 . S
Cd452 O456 2.352 . S
Cd452 O460 2.277 . S
Cd452 O461 2.356 . S
C453 O458 1.209 . S
C453 O460 1.226 . S
O454 Cd450 2.273 . S
O454 Cd452 2.411 . S
O454 C457 1.320 . S
O455 Cd452 2.333 . S
O455 C457 1.214 . S
O456 Cd452 2.352 . S
O456 C459 1.258 . S
C457 O454 1.320 . S
C457 O455 1.214 . S
O458 Cd450 2.277 . S
O458 C453 1.209 . S
C459 O456 1.258 . S
C459 O461 1.282 . S
O460 Cd452 2.277 . S
O460 C453 1.226 . S
O461 Cd452 2.356 . S
O461 C459 1.282 . S
C462 O463 1.306 1_556 S
C462 O465 1.160 . S
O463 C462 1.306 1_554 S
O463 Cd464 2.228 1_554 S
Cd464 O463 2.228 1_556 S
Cd464 O468 2.273 . S
Cd464 O472 2.277 . S
O465 C462 1.160 . S
O465 Cd466 2.203 . S
Cd466 O465 2.203 . S
Cd466 O468 2.411 . S
Cd466 O469 2.333 . S
Cd466 O470 2.352 . S
Cd466 O474 2.277 . S
Cd466 O475 2.356 . S
C467 O472 1.209 . S
C467 O474 1.226 . S
O468 Cd464 2.273 . S
O468 Cd466 2.411 . S
O468 C471 1.320 . S
O469 Cd466 2.333 . S
O469 C471 1.214 . S
O470 Cd466 2.352 . S
O470 C473 1.258 . S
C471 O468 1.320 . S
C471 O469 1.214 . S
O472 Cd464 2.277 . S
O472 C467 1.209 . S
C473 O470 1.258 . S
C473 O475 1.282 . S
O474 Cd466 2.277 . S
O474 C467 1.226 . S
O475 Cd466 2.356 . S
O475 C473 1.282 . S
C476 O477 1.306 . S
C476 O479 1.160 . S
O477 C476 1.306 . S
O477 Cd478 2.228 . S
Cd478 O477 2.228 . S
Cd478 O482 2.273 . S
Cd478 O486 2.277 . S
O479 C476 1.160 . S
O479 Cd480 2.203 . S
Cd480 O479 2.203 . S
Cd480 O482 2.411 . S
Cd480 O483 2.333 . S
Cd480 O484 2.352 . S
Cd480 O488 2.277 . S
Cd480 O489 2.356 . S
C481 O486 1.209 . S
C481 O488 1.226 . S
O482 Cd478 2.273 . S
O482 Cd480 2.411 . S
O482 C485 1.320 . S
O483 Cd480 2.333 . S
O483 C485 1.214 . S
O484 Cd480 2.352 . S
O484 C487 1.258 . S
C485 O482 1.320 . S
C485 O483 1.214 . S
O486 Cd478 2.277 . S
O486 C481 1.209 . S
C487 O484 1.258 . S
C487 O489 1.282 . S
O488 Cd480 2.277 . S
O488 C481 1.226 . S
O489 Cd480 2.356 . S
O489 C487 1.282 . S
C490 O491 1.306 . S
C490 O493 1.160 . S
O491 C490 1.306 . S
O491 Cd492 2.228 1_655 S
Cd492 O491 2.228 1_455 S
Cd492 O496 2.273 1_455 S
Cd492 O500 2.277 . S
O493 C490 1.160 . S
O493 Cd494 2.203 . S
Cd494 O493 2.203 . S
Cd494 O496 2.411 . S
Cd494 O497 2.333 . S
Cd494 O498 2.352 . S
Cd494 O502 2.277 . S
Cd494 O503 2.356 . S
C495 O500 1.215 . S
C495 O502 1.188 1_455 S
O496 Cd492 2.273 1_655 S
O496 Cd494 2.411 . S
O496 C499 1.320 . S
O497 Cd494 2.333 . S
O497 C499 1.214 . S
O498 Cd494 2.352 . S
O498 C501 1.258 . S
C499 O496 1.320 . S
C499 O497 1.214 . S
O500 Cd492 2.277 . S
O500 C495 1.215 . S
C501 O498 1.258 . S
C501 O503 1.282 . S
O502 Cd494 2.277 . S
O502 C495 1.188 1_655 S
O503 Cd494 2.356 . S
O503 C501 1.282 . S
C504 O505 1.306 . S
C504 O507 1.160 . S
O505 C504 1.306 . S
O505 Cd506 2.228 . S
Cd506 O505 2.228 . S
Cd506 O510 2.273 . S
Cd506 O514 2.277 . S
O507 C504 1.160 . S
O507 Cd508 2.203 . S
Cd508 O507 2.203 . S
Cd508 O510 2.411 . S
Cd508 O511 2.333 . S
Cd508 O512 2.352 . S
Cd508 O516 2.277 . S
Cd508 O517 2.356 . S
C509 O514 1.209 . S
C509 O516 1.226 . S
O510 Cd506 2.273 . S
O510 Cd508 2.411 . S
O510 C513 1.320 . S
O511 Cd508 2.333 . S
O511 C513 1.214 . S
O512 Cd508 2.352 . S
O512 C515 1.258 . S
C513 O510 1.320 . S
C513 O511 1.214 . S
O514 Cd506 2.277 . S
O514 C509 1.209 . S
C515 O512 1.258 . S
C515 O517 1.282 . S
O516 Cd508 2.277 . S
O516 C509 1.226 . S
O517 Cd508 2.356 . S
O517 C515 1.282 . S
C518 O519 1.306 1_554 S
C518 O521 1.160 . S
O519 C518 1.306 1_556 S
O519 Cd520 2.228 1_656 S
Cd520 O519 2.228 1_454 S
Cd520 O524 2.273 1_455 S
Cd520 O528 2.277 . S
O521 C518 1.160 . S
O521 Cd522 2.203 . S
Cd522 O521 2.203 . S
Cd522 O524 2.411 . S
Cd522 O525 2.333 . S
Cd522 O526 2.352 . S
Cd522 O530 2.277 . S
Cd522 O531 2.356 . S
C523 O528 1.215 . S
C523 O530 1.188 1_455 S
O524 Cd520 2.273 1_655 S
O524 Cd522 2.411 . S
O524 C527 1.320 . S
O525 Cd522 2.333 . S
O525 C527 1.214 . S
O526 Cd522 2.352 . S
O526 C529 1.258 . S
C527 O524 1.320 . S
C527 O525 1.214 . S
O528 Cd520 2.277 . S
O528 C523 1.215 . S
C529 O526 1.258 . S
C529 O531 1.282 . S
O530 Cd522 2.277 . S
O530 C523 1.188 1_655 S
O531 Cd522 2.356 . S
O531 C529 1.282 . S
C532 O533 1.306 . S
C532 O535 1.160 . S
O533 C532 1.306 . S
O533 Cd534 2.228 . S
Cd534 O533 2.228 . S
Cd534 O538 2.273 . S
Cd534 O542 2.277 . S
O535 C532 1.160 . S
O535 Cd536 2.203 . S
Cd536 O535 2.203 . S
Cd536 O538 2.411 . S
Cd536 O539 2.333 . S
Cd536 O540 2.352 . S
Cd536 O544 2.277 . S
Cd536 O545 2.356 . S
C537 O542 1.209 . S
C537 O544 1.226 . S
O538 Cd534 2.273 . S
O538 Cd536 2.411 . S
O538 C541 1.320 . S
O539 Cd536 2.333 . S
O539 C541 1.214 . S
O540 Cd536 2.352 . S
O540 C543 1.258 . S
C541 O538 1.320 . S
C541 O539 1.214 . S
O542 Cd534 2.277 . S
O542 C537 1.209 . S
C543 O540 1.258 . S
C543 O545 1.282 . S
O544 Cd536 2.277 . S
O544 C537 1.226 . S
O545 Cd536 2.356 . S
O545 C543 1.282 . S
C546 O547 1.306 . S
C546 O549 1.160 . S
O547 C546 1.306 . S
O547 Cd548 2.228 . S
Cd548 O547 2.228 . S
Cd548 O552 2.273 . S
Cd548 O556 2.277 . S
O549 C546 1.160 . S
O549 Cd550 2.203 . S
Cd550 O549 2.203 . S
Cd550 O552 2.411 . S
Cd550 O553 2.333 . S
Cd550 O554 2.352 . S
Cd550 O558 2.277 . S
Cd550 O559 2.356 . S
C551 O556 1.209 . S
C551 O558 1.226 . S
O552 Cd548 2.273 . S
O552 Cd550 2.411 . S
O552 C555 1.320 . S
O553 Cd550 2.333 . S
O553 C555 1.214 . S
O554 Cd550 2.352 . S
O554 C557 1.258 . S
C555 O552 1.320 . S
C555 O553 1.214 . S
O556 Cd548 2.277 . S
O556 C551 1.209 . S
C557 O554 1.258 . S
C557 O559 1.282 . S
O558 Cd550 2.277 . S
O558 C551 1.226 . S
O559 Cd550 2.356 . S
O559 C557 1.282 . S
C560 O561 1.306 . S
C560 O563 1.160 . S
O561 C560 1.306 . S
O561 Cd562 2.228 . S
Cd562 O561 2.228 . S
Cd562 O566 2.273 . S
Cd562 O570 2.277 . S
O563 C560 1.160 . S
O563 Cd564 2.203 . S
Cd564 O563 2.203 . S
Cd564 O566 2.411 . S
Cd564 O567 2.333 . S
Cd564 O568 2.352 . S
Cd564 O572 2.277 . S
Cd564 O573 2.356 . S
C565 O570 1.209 . S
C565 O572 1.226 . S
O566 Cd562 2.273 . S
O566 Cd564 2.411 . S
O566 C569 1.320 . S
O567 Cd564 2.333 . S
O567 C569 1.214 . S
O568 Cd564 2.352 . S
O568 C571 1.258 . S
C569 O566 1.320 . S
C569 O567 1.214 . S
O570 Cd562 2.277 . S
O570 C565 1.209 . S
C571 O568 1.258 . S
C571 O573 1.282 . S
O572 Cd564 2.277 . S
O572 C565 1.226 . S
O573 Cd564 2.356 . S
O573 C571 1.282 . S
C574 O575 1.306 . S
C574 O577 1.160 . S
O575 C574 1.306 . S
O575 Cd576 2.228 . S
Cd576 O575 2.228 . S
Cd576 O580 2.273 . S
Cd576 O584 2.277 . S
O577 C574 1.160 . S
O577 Cd578 2.203 . S
Cd578 O577 2.203 . S
Cd578 O580 2.411 . S
Cd578 O581 2.333 . S
Cd578 O582 2.352 . S
Cd578 O586 2.277 . S
Cd578 O587 2.356 . S
C579 O584 1.209 . S
C579 O586 1.226 . S
O580 Cd576 2.273 . S
O580 Cd578 2.411 . S
O580 C583 1.320 . S
O581 Cd578 2.333 . S
O581 C583 1.214 . S
O582 Cd578 2.352 . S
O582 C585 1.258 . S
C583 O580 1.320 . S
C583 O581 1.214 . S
O584 Cd576 2.277 . S
O584 C579 1.209 . S
C585 O582 1.258 . S
C585 O587 1.282 . S
O586 Cd578 2.277 . S
O586 C579 1.226 . S
O587 Cd578 2.356 . S
O587 C585 1.282 . S
C588 O589 1.306 1_565 S
C588 O591 1.160 . S
O589 C588 1.306 1_545 S
O589 Cd590 2.228 1_545 S
Cd590 O589 2.228 1_565 S
Cd590 O594 2.273 . S
Cd590 O598 2.277 . S
O591 C588 1.160 . S
O591 Cd592 2.203 . S
Cd592 O591 2.203 . S
Cd592 O594 2.411 . S
Cd592 O595 2.333 . S
Cd592 O596 2.352 . S
Cd592 O600 2.277 . S
Cd592 O601 2.356 . S
C593 O598 1.209 . S
C593 O600 1.226 . S
O594 Cd590 2.273 . S
O594 Cd592 2.411 . S
O594 C597 1.320 . S
O595 Cd592 2.333 . S
O595 C597 1.214 . S
O596 Cd592 2.352 . S
O596 C599 1.258 . S
C597 O594 1.320 . S
C597 O595 1.214 . S
O598 Cd590 2.277 . S
O598 C593 1.209 . S
C599 O596 1.258 . S
C599 O601 1.282 . S
O600 Cd592 2.277 . S
O600 C593 1.226 . S
O601 Cd592 2.356 . S
O601 C599 1.282 . S
C602 O603 1.306 . S
C602 O605 1.160 . S
O603 C602 1.306 . S
O603 Cd604 2.228 . S
Cd604 O603 2.228 . S
Cd604 O608 2.273 . S
Cd604 O612 2.277 . S
O605 C602 1.160 . S
O605 Cd606 2.203 . S
Cd606 O605 2.203 . S
Cd606 O608 2.411 . S
Cd606 O609 2.333 . S
Cd606 O610 2.352 . S
Cd606 O614 2.277 . S
Cd606 O615 2.356 . S
C607 O612 1.209 . S
C607 O614 1.226 . S
O608 Cd604 2.273 . S
O608 Cd606 2.411 . S
O608 C611 1.320 . S
O609 Cd606 2.333 . S
O609 C611 1.214 . S
O610 Cd606 2.352 . S
O610 C613 1.258 . S
C611 O608 1.320 . S
C611 O609 1.214 . S
O612 Cd604 2.277 . S
O612 C607 1.209 . S
C613 O610 1.258 . S
C613 O615 1.282 . S
O614 Cd606 2.277 . S
O614 C607 1.226 . S
O615 Cd606 2.356 . S
O615 C613 1.282 . S
C616 O617 1.306 . S
C616 O619 1.160 . S
O617 C616 1.306 . S
O617 Cd618 2.228 . S
Cd618 O617 2.228 . S
Cd618 O622 2.273 . S
Cd618 O626 2.277 . S
O619 C616 1.160 . S
O619 Cd620 2.203 . S
Cd620 O619 2.203 . S
Cd620 O622 2.411 . S
Cd620 O623 2.333 . S
Cd620 O624 2.352 . S
Cd620 O628 2.277 . S
Cd620 O629 2.356 . S
C621 O626 1.209 . S
C621 O628 1.226 . S
O622 Cd618 2.273 . S
O622 Cd620 2.411 . S
O622 C625 1.320 . S
O623 Cd620 2.333 . S
O623 C625 1.214 . S
O624 Cd620 2.352 . S
O624 C627 1.258 . S
C625 O622 1.320 . S
C625 O623 1.214 . S
O626 Cd618 2.277 . S
O626 C621 1.209 . S
C627 O624 1.258 . S
C627 O629 1.282 . S
O628 Cd620 2.277 . S
O628 C621 1.226 . S
O629 Cd620 2.356 . S
O629 C627 1.282 . S
C630 O631 1.306 . S
C630 O633 1.160 . S
O631 C630 1.306 . S
O631 Cd632 2.228 . S
Cd632 O631 2.228 . S
Cd632 O636 2.273 . S
Cd632 O640 2.277 . S
O633 C630 1.160 . S
O633 Cd634 2.203 . S
Cd634 O633 2.203 . S
Cd634 O636 2.411 . S
Cd634 O637 2.333 . S
Cd634 O638 2.352 . S
Cd634 O642 2.277 . S
Cd634 O643 2.356 . S
C635 O640 1.209 . S
C635 O642 1.226 . S
O636 Cd632 2.273 . S
O636 Cd634 2.411 . S
O636 C639 1.320 . S
O637 Cd634 2.333 . S
O637 C639 1.214 . S
O638 Cd634 2.352 . S
O638 C641 1.258 . S
C639 O636 1.320 . S
C639 O637 1.214 . S
O640 Cd632 2.277 . S
O640 C635 1.209 . S
C641 O638 1.258 . S
C641 O643 1.282 . S
O642 Cd634 2.277 . S
O642 C635 1.226 . S
O643 Cd634 2.356 . S
O643 C641 1.282 . S
C644 O645 1.306 1_545 S
C644 O647 1.160 . S
O645 C644 1.306 1_565 S
O645 Cd646 2.228 1_566 S
Cd646 O645 2.228 1_544 S
Cd646 O650 2.273 1_554 S
Cd646 O654 2.277 . S
O647 C644 1.160 . S
O647 Cd648 2.203 . S
Cd648 O647 2.203 . S
Cd648 O650 2.411 . S
Cd648 O651 2.333 . S
Cd648 O652 2.352 . S
Cd648 O656 2.277 . S
Cd648 O657 2.356 . S
C649 O654 1.215 . S
C649 O656 1.188 1_554 S
O650 Cd646 2.273 1_556 S
O650 Cd648 2.411 . S
O650 C653 1.320 . S
O651 Cd648 2.333 . S
O651 C653 1.214 . S
O652 Cd648 2.352 . S
O652 C655 1.258 . S
C653 O650 1.320 . S
C653 O651 1.214 . S
O654 Cd646 2.277 . S
O654 C649 1.215 . S
C655 O652 1.258 . S
C655 O657 1.282 . S
O656 Cd648 2.277 . S
O656 C649 1.188 1_556 S
O657 Cd648 2.356 . S
O657 C655 1.282 . S
C658 O659 1.306 1_565 S
C658 O661 1.160 . S
O659 C658 1.306 1_545 S
O659 Cd660 2.228 1_545 S
Cd660 O659 2.228 1_565 S
Cd660 O664 2.273 . S
Cd660 O668 2.277 . S
O661 C658 1.160 . S
O661 Cd662 2.203 . S
Cd662 O661 2.203 . S
Cd662 O664 2.411 . S
Cd662 O665 2.333 . S
Cd662 O666 2.352 . S
Cd662 O670 2.277 . S
Cd662 O671 2.356 . S
C663 O668 1.209 . S
C663 O670 1.226 . S
O664 Cd660 2.273 . S
O664 Cd662 2.411 . S
O664 C667 1.320 . S
O665 Cd662 2.333 . S
O665 C667 1.214 . S
O666 Cd662 2.352 . S
O666 C669 1.258 . S
C667 O664 1.320 . S
C667 O665 1.214 . S
O668 Cd660 2.277 . S
O668 C663 1.209 . S
C669 O666 1.258 . S
C669 O671 1.282 . S
O670 Cd662 2.277 . S
O670 C663 1.226 . S
O671 Cd662 2.356 . S
O671 C669 1.282 . S
H672 C690 0.951 . S
H673 C692 0.951 . S
H674 C694 0.950 . S
H675 C695 0.950 . S
H676 C697 0.950 . S
H677 C700 0.950 . S
H678 C701 0.950 . S
H679 C703 0.950 . S
H680 C704 0.950 . S
H681 C705 0.951 . S
H682 C707 0.951 . S
H683 C709 0.950 . S
H684 C710 0.950 . S
H685 C712 0.950 . S
H686 C715 0.950 . S
H687 C716 0.950 . S
H688 C718 0.950 . S
H689 C719 0.950 . S
C690 H672 0.951 . S
C690 C691 1.366 . S
C690 C692 1.388 . S
C691 C690 1.366 . S
C691 C695 1.385 . S
C692 H673 0.951 . S
C692 C690 1.388 . S
C692 C693 1.366 . S
C693 C692 1.366 . S
C693 C694 1.414 . S
C693 C696 1.499 . S
C694 H674 0.950 . S
C694 C693 1.414 . S
C694 C695 1.374 . S
C695 H675 0.950 . S
C695 C691 1.385 . S
C695 C694 1.374 . S
C696 C693 1.499 . S
C696 C697 1.373 . S
C696 C698 1.389 . S
C697 H676 0.950 . S
C697 C696 1.373 . S
C697 C713 1.377 . S
C698 C696 1.389 . S
C698 C699 1.524 . S
C698 C712 1.377 . S
C699 C698 1.524 . S
C699 C700 1.397 . S
C699 C704 1.363 . S
C700 H677 0.950 . S
C700 C699 1.397 . S
C700 C701 1.334 . S
C701 H678 0.950 . S
C701 C700 1.334 . S
C701 C702 1.287 . S
C702 C701 1.287 . S
C702 C703 1.524 . S
C702 H721 0.913 . S
C703 H679 0.950 . S
C703 C702 1.524 . S
C703 C704 1.415 . S
C704 H680 0.950 . S
C704 C699 1.363 . S
C704 C703 1.415 . S
C705 H681 0.951 . S
C705 C706 1.366 . S
C705 C707 1.388 . S
C706 C705 1.366 . S
C706 C710 1.385 . S
C707 H682 0.951 . S
C707 C705 1.388 . S
C707 C708 1.366 . S
C708 C707 1.366 . S
C708 C709 1.414 . S
C708 C711 1.499 . S
C709 H683 0.950 . S
C709 C708 1.414 . S
C709 C710 1.374 . S
C710 H684 0.950 . S
C710 C706 1.385 . S
C710 C709 1.374 . S
C711 C708 1.499 . S
C711 C712 1.373 . S
C711 C713 1.389 . S
C712 H685 0.950 . S
C712 C698 1.377 . S
C712 C711 1.373 . S
C713 C697 1.377 . S
C713 C711 1.389 . S
C713 C714 1.524 . S
C714 C713 1.524 . S
C714 C715 1.397 . S
C714 C719 1.363 . S
C715 H686 0.950 . S
C715 C714 1.397 . S
C715 C716 1.334 . S
C716 H687 0.950 . S
C716 C715 1.334 . S
C716 C717 1.287 . S
C717 C716 1.287 . S
C717 C718 1.524 . S
C717 H720 0.999 . S
C718 H688 0.950 . S
C718 C717 1.524 . S
C718 C719 1.415 . S
C719 H689 0.950 . S
C719 C714 1.363 . S
C719 C718 1.415 . S
H720 C717 0.999 . S
H721 C702 0.913 . S
H722 C740 0.951 . S
H723 C742 0.951 . S
H724 C744 0.950 . S
H725 C745 0.950 . S
H726 C747 0.950 . S
H727 C750 0.950 . S
H728 C751 0.950 . S
H729 C753 0.950 . S
H730 C754 0.950 . S
H731 C755 0.951 . S
H732 C757 0.951 . S
H733 C759 0.950 . S
H734 C760 0.950 . S
H735 C762 0.950 . S
H736 C765 0.950 . S
H737 C766 0.950 1_655 S
H738 C768 0.950 . S
H739 C769 0.950 . S
C740 H722 0.951 . S
C740 C741 1.366 1_545 S
C740 C742 1.388 . S
C741 C740 1.366 1_565 S
C741 C745 1.385 . S
C742 H723 0.951 . S
C742 C740 1.388 . S
C742 C743 1.366 1_545 S
C743 C742 1.366 1_565 S
C743 C744 1.414 . S
C743 C746 1.499 . S
C744 H724 0.950 . S
C744 C743 1.414 . S
C744 C745 1.374 . S
C745 H725 0.950 . S
C745 C741 1.385 . S
C745 C744 1.374 . S
C746 C743 1.499 . S
C746 C747 1.373 . S
C746 C748 1.389 1_565 S
C747 H726 0.950 . S
C747 C746 1.373 . S
C747 C763 1.377 . S
C748 C746 1.389 1_545 S
C748 C749 1.524 . S
C748 C762 1.377 . S
C749 C748 1.524 . S
C749 C750 1.397 . S
C749 C754 1.363 . S
C750 H727 0.950 . S
C750 C749 1.397 . S
C750 C751 1.334 . S
C751 H728 0.950 . S
C751 C750 1.334 . S
C751 C752 1.287 . S
C752 C751 1.287 . S
C752 C753 1.524 . S
C752 H771 0.913 . S
C753 H729 0.950 . S
C753 C752 1.524 . S
C753 C754 1.415 . S
C754 H730 0.950 . S
C754 C749 1.363 . S
C754 C753 1.415 . S
C755 H731 0.951 . S
C755 C756 1.366 1_565 S
C755 C757 1.388 . S
C756 C755 1.366 1_545 S
C756 C760 1.385 . S
C757 H732 0.951 . S
C757 C755 1.388 . S
C757 C758 1.366 1_565 S
C758 C757 1.366 1_545 S
C758 C759 1.414 . S
C758 C761 1.499 . S
C759 H733 0.950 . S
C759 C758 1.414 . S
C759 C760 1.374 . S
C760 H734 0.950 . S
C760 C756 1.385 . S
C760 C759 1.374 . S
C761 C758 1.499 . S
C761 C762 1.373 . S
C761 C763 1.389 1_545 S
C762 H735 0.950 . S
C762 C748 1.377 . S
C762 C761 1.373 . S
C763 C747 1.377 . S
C763 C761 1.389 1_565 S
C763 C764 1.524 . S
C764 C763 1.524 . S
C764 C765 1.397 . S
C764 C769 1.363 . S
C765 H736 0.950 . S
C765 C764 1.397 . S
C765 C766 1.334 . S
C766 H737 0.950 1_455 S
C766 C765 1.334 . S
C766 C767 1.287 . S
C767 C766 1.287 . S
C767 C768 1.524 . S
C767 H770 0.999 . S
C768 H738 0.950 . S
C768 C767 1.524 . S
C768 C769 1.415 . S
C769 H739 0.950 . S
C769 C764 1.363 . S
C769 C768 1.415 . S
H770 C767 0.999 . S
H771 C752 0.913 . S
H772 C790 0.951 . S
H773 C792 0.951 . S
H774 C794 0.950 . S
H775 C795 0.950 . S
H776 C797 0.950 . S
H777 C800 0.950 . S
H778 C801 0.950 . S
H779 C803 0.950 . S
H780 C804 0.950 1_554 S
H781 C805 0.951 . S
H782 C807 0.951 . S
H783 C809 0.950 . S
H784 C810 0.950 . S
H785 C812 0.950 . S
H786 C815 0.950 . S
H787 C816 0.950 . S
H788 C818 0.950 . S
H789 C819 0.950 1_556 S
C790 H772 0.951 . S
C790 C791 1.366 . S
C790 C792 1.388 . S
C791 C790 1.366 . S
C791 C795 1.385 . S
C792 H773 0.951 . S
C792 C790 1.388 . S
C792 C793 1.366 . S
C793 C792 1.366 . S
C793 C794 1.414 . S
C793 C796 1.499 . S
C794 H774 0.950 . S
C794 C793 1.414 . S
C794 C795 1.374 . S
C795 H775 0.950 . S
C795 C791 1.385 . S
C795 C794 1.374 . S
C796 C793 1.499 . S
C796 C797 1.373 . S
C796 C798 1.389 . S
C797 H776 0.950 . S
C797 C796 1.373 . S
C797 C813 1.377 1_556 S
C798 C796 1.389 . S
C798 C799 1.524 . S
C798 C812 1.377 1_556 S
C799 C798 1.524 . S
C799 C800 1.397 . S
C799 C804 1.363 . S
C800 H777 0.950 . S
C800 C799 1.397 . S
C800 C801 1.334 . S
C801 H778 0.950 . S
C801 C800 1.334 . S
C801 C802 1.287 . S
C802 C801 1.287 . S
C802 C803 1.524 . S
C802 H821 0.913 . S
C803 H779 0.950 . S
C803 C802 1.524 . S
C803 C804 1.415 . S
C804 H780 0.950 1_556 S
C804 C799 1.363 . S
C804 C803 1.415 . S
C805 H781 0.951 . S
C805 C806 1.366 . S
C805 C807 1.388 . S
C806 C805 1.366 . S
C806 C810 1.385 . S
C807 H782 0.951 . S
C807 C805 1.388 . S
C807 C808 1.366 . S
C808 C807 1.366 . S
C808 C809 1.414 . S
C808 C811 1.499 . S
C809 H783 0.950 . S
C809 C808 1.414 . S
C809 C810 1.374 . S
C810 H784 0.950 . S
C810 C806 1.385 . S
C810 C809 1.374 . S
C811 C808 1.499 . S
C811 C812 1.373 . S
C811 C813 1.389 . S
C812 H785 0.950 . S
C812 C798 1.377 1_554 S
C812 C811 1.373 . S
C813 C797 1.377 1_554 S
C813 C811 1.389 . S
C813 C814 1.524 . S
C814 C813 1.524 . S
C814 C815 1.397 . S
C814 C819 1.363 . S
C815 H786 0.950 . S
C815 C814 1.397 . S
C815 C816 1.334 . S
C816 H787 0.950 . S
C816 C815 1.334 . S
C816 C817 1.287 . S
C817 C816 1.287 . S
C817 C818 1.524 . S
C817 H820 0.999 . S
C818 H788 0.950 . S
C818 C817 1.524 . S
C818 C819 1.415 . S
C819 H789 0.950 1_554 S
C819 C814 1.363 . S
C819 C818 1.415 . S
H820 C817 0.999 . S
H821 C802 0.913 . S
H822 C840 0.951 . S
H823 C842 0.951 . S
H824 C844 0.950 . S
H825 C845 0.950 . S
H826 C847 0.950 . S
H827 C850 0.950 . S
H828 C851 0.950 . S
H829 C853 0.950 . S
H830 C854 0.950 . S
H831 C855 0.951 . S
H832 C857 0.951 . S
H833 C859 0.950 . S
H834 C860 0.950 . S
H835 C862 0.950 . S
H836 C865 0.950 . S
H837 C866 0.950 . S
H838 C868 0.950 . S
H839 C869 0.950 . S
C840 H822 0.951 . S
C840 C841 1.366 1_545 S
C840 C842 1.388 . S
C841 C840 1.366 1_565 S
C841 C845 1.385 . S
C842 H823 0.951 . S
C842 C840 1.388 . S
C842 C843 1.366 1_545 S
C843 C842 1.366 1_565 S
C843 C844 1.414 . S
C843 C846 1.499 . S
C844 H824 0.950 . S
C844 C843 1.414 . S
C844 C845 1.374 . S
C845 H825 0.950 . S
C845 C841 1.385 . S
C845 C844 1.374 . S
C846 C843 1.499 . S
C846 C847 1.373 . S
C846 C848 1.389 1_565 S
C847 H826 0.950 . S
C847 C846 1.373 . S
C847 C863 1.377 . S
C848 C846 1.389 1_545 S
C848 C849 1.524 . S
C848 C862 1.377 . S
C849 C848 1.524 . S
C849 C850 1.397 . S
C849 C854 1.363 . S
C850 H827 0.950 . S
C850 C849 1.397 . S
C850 C851 1.334 . S
C851 H828 0.950 . S
C851 C850 1.334 . S
C851 C852 1.287 . S
C852 C851 1.287 . S
C852 C853 1.524 . S
C852 H871 0.913 . S
C853 H829 0.950 . S
C853 C852 1.524 . S
C853 C854 1.415 . S
C854 H830 0.950 . S
C854 C849 1.363 . S
C854 C853 1.415 . S
C855 H831 0.951 . S
C855 C856 1.366 1_565 S
C855 C857 1.388 . S
C856 C855 1.366 1_545 S
C856 C860 1.385 . S
C857 H832 0.951 . S
C857 C855 1.388 . S
C857 C858 1.366 1_565 S
C858 C857 1.366 1_545 S
C858 C859 1.414 . S
C858 C861 1.499 . S
C859 H833 0.950 . S
C859 C858 1.414 . S
C859 C860 1.374 . S
C860 H834 0.950 . S
C860 C856 1.385 . S
C860 C859 1.374 . S
C861 C858 1.499 . S
C861 C862 1.373 . S
C861 C863 1.389 1_545 S
C862 H835 0.950 . S
C862 C848 1.377 . S
C862 C861 1.373 . S
C863 C847 1.377 . S
C863 C861 1.389 1_565 S
C863 C864 1.524 . S
C864 C863 1.524 . S
C864 C865 1.397 . S
C864 C869 1.363 . S
C865 H836 0.950 . S
C865 C864 1.397 . S
C865 C866 1.334 . S
C866 H837 0.950 . S
C866 C865 1.334 . S
C866 C867 1.287 . S
C867 C866 1.287 . S
C867 C868 1.524 . S
C867 H870 0.999 . S
C868 H838 0.950 . S
C868 C867 1.524 . S
C868 C869 1.415 . S
C869 H839 0.950 . S
C869 C864 1.363 . S
C869 C868 1.415 . S
H870 C867 0.999 . S
H871 C852 0.913 . S
H872 C890 0.951 . S
H873 C892 0.951 . S
H874 C894 0.950 . S
H875 C895 0.950 . S
H876 C897 0.950 . S
H877 C900 0.950 . S
H878 C901 0.950 . S
H879 C903 0.950 . S
H880 C904 0.950 . S
H881 C905 0.951 . S
H882 C907 0.951 . S
H883 C909 0.950 . S
H884 C910 0.950 . S
H885 C912 0.950 . S
H886 C915 0.950 . S
H887 C916 0.950 . S
H888 C918 0.950 . S
H889 C919 0.950 . S
C890 H872 0.951 . S
C890 C891 1.366 . S
C890 C892 1.388 . S
C891 C890 1.366 . S
C891 C895 1.385 . S
C892 H873 0.951 . S
C892 C890 1.388 . S
C892 C893 1.366 . S
C893 C892 1.366 . S
C893 C894 1.414 . S
C893 C896 1.499 . S
C894 H874 0.950 . S
C894 C893 1.414 . S
C894 C895 1.374 . S
C895 H875 0.950 . S
C895 C891 1.385 . S
C895 C894 1.374 . S
C896 C893 1.499 . S
C896 C897 1.373 . S
C896 C898 1.389 . S
C897 H876 0.950 . S
C897 C896 1.373 . S
C897 C913 1.377 . S
C898 C896 1.389 . S
C898 C899 1.524 . S
C898 C912 1.377 . S
C899 C898 1.524 . S
C899 C900 1.397 . S
C899 C904 1.363 . S
C900 H877 0.950 . S
C900 C899 1.397 . S
C900 C901 1.334 . S
C901 H878 0.950 . S
C901 C900 1.334 . S
C901 C902 1.287 . S
C902 C901 1.287 . S
C902 C903 1.524 . S
C902 H921 0.913 . S
C903 H879 0.950 . S
C903 C902 1.524 . S
C903 C904 1.415 . S
C904 H880 0.950 . S
C904 C899 1.363 . S
C904 C903 1.415 . S
C905 H881 0.951 . S
C905 C906 1.366 . S
C905 C907 1.388 . S
C906 C905 1.366 . S
C906 C910 1.385 . S
C907 H882 0.951 . S
C907 C905 1.388 . S
C907 C908 1.366 . S
C908 C907 1.366 . S
C908 C909 1.414 . S
C908 C911 1.499 . S
C909 H883 0.950 . S
C909 C908 1.414 . S
C909 C910 1.374 . S
C910 H884 0.950 . S
C910 C906 1.385 . S
C910 C909 1.374 . S
C911 C908 1.499 . S
C911 C912 1.373 . S
C911 C913 1.389 . S
C912 H885 0.950 . S
C912 C898 1.377 . S
C912 C911 1.373 . S
C913 C897 1.377 . S
C913 C911 1.389 . S
C913 C914 1.524 . S
C914 C913 1.524 . S
C914 C915 1.397 . S
C914 C919 1.363 . S
C915 H886 0.950 . S
C915 C914 1.397 . S
C915 C916 1.334 . S
C916 H887 0.950 . S
C916 C915 1.334 . S
C916 C917 1.287 . S
C917 C916 1.287 . S
C917 C918 1.524 . S
C917 H920 0.999 . S
C918 H888 0.950 . S
C918 C917 1.524 . S
C918 C919 1.415 . S
C919 H889 0.950 . S
C919 C914 1.363 . S
C919 C918 1.415 . S
H920 C917 0.999 . S
H921 C902 0.913 . S
H922 C940 0.951 . S
H923 C942 0.951 . S
H924 C944 0.950 . S
H925 C945 0.950 . S
H926 C947 0.950 . S
H927 C950 0.950 . S
H928 C951 0.950 . S
H929 C953 0.950 . S
H930 C954 0.950 . S
H931 C955 0.951 . S
H932 C957 0.951 . S
H933 C959 0.950 . S
H934 C960 0.950 . S
H935 C962 0.950 . S
H936 C965 0.950 . S
H937 C966 0.950 . S
H938 C968 0.950 . S
H939 C969 0.950 . S
C940 H922 0.951 . S
C940 C941 1.366 1_455 S
C940 C942 1.388 . S
C941 C940 1.366 1_655 S
C941 C945 1.385 . S
C942 H923 0.951 . S
C942 C940 1.388 . S
C942 C943 1.366 1_455 S
C943 C942 1.366 1_655 S
C943 C944 1.414 . S
C943 C946 1.499 . S
C944 H924 0.950 . S
C944 C943 1.414 . S
C944 C945 1.374 . S
C945 H925 0.950 . S
C945 C941 1.385 . S
C945 C944 1.374 . S
C946 C943 1.499 . S
C946 C947 1.373 . S
C946 C948 1.389 1_655 S
C947 H926 0.950 . S
C947 C946 1.373 . S
C947 C963 1.377 . S
C948 C946 1.389 1_455 S
C948 C949 1.524 . S
C948 C962 1.377 . S
C949 C948 1.524 . S
C949 C950 1.397 . S
C949 C954 1.363 . S
C950 H927 0.950 . S
C950 C949 1.397 . S
C950 C951 1.334 . S
C951 H928 0.950 . S
C951 C950 1.334 . S
C951 C952 1.287 . S
C952 C951 1.287 . S
C952 C953 1.524 . S
C952 H971 0.913 . S
C953 H929 0.950 . S
C953 C952 1.524 . S
C953 C954 1.415 . S
C954 H930 0.950 . S
C954 C949 1.363 . S
C954 C953 1.415 . S
C955 H931 0.951 . S
C955 C956 1.366 1_655 S
C955 C957 1.388 . S
C956 C955 1.366 1_455 S
C956 C960 1.385 . S
C957 H932 0.951 . S
C957 C955 1.388 . S
C957 C958 1.366 1_655 S
C958 C957 1.366 1_455 S
C958 C959 1.414 . S
C958 C961 1.499 . S
C959 H933 0.950 . S
C959 C958 1.414 . S
C959 C960 1.374 . S
C960 H934 0.950 . S
C960 C956 1.385 . S
C960 C959 1.374 . S
C961 C958 1.499 . S
C961 C962 1.373 . S
C961 C963 1.389 1_455 S
C962 H935 0.950 . S
C962 C948 1.377 . S
C962 C961 1.373 . S
C963 C947 1.377 . S
C963 C961 1.389 1_655 S
C963 C964 1.524 . S
C964 C963 1.524 . S
C964 C965 1.397 . S
C964 C969 1.363 . S
C965 H936 0.950 . S
C965 C964 1.397 . S
C965 C966 1.334 . S
C966 H937 0.950 . S
C966 C965 1.334 . S
C966 C967 1.287 . S
C967 C966 1.287 . S
C967 C968 1.524 . S
C967 H970 0.999 . S
C968 H938 0.950 . S
C968 C967 1.524 . S
C968 C969 1.415 . S
C969 H939 0.950 . S
C969 C964 1.363 . S
C969 C968 1.415 . S
H970 C967 0.999 . S
H971 C952 0.913 . S
H972 C990 0.951 . S
H973 C992 0.951 . S
H974 C994 0.950 . S
H975 C995 0.950 . S
H976 C997 0.950 . S
H977 C1000 0.950 . S
H978 C1001 0.950 . S
H979 C1003 0.950 . S
H980 C1004 0.950 . S
H981 C1005 0.951 . S
H982 C1007 0.951 . S
H983 C1009 0.950 . S
H984 C1010 0.950 . S
H985 C1012 0.950 . S
H986 C1015 0.950 . S
H987 C1016 0.950 . S
H988 C1018 0.950 . S
H989 C1019 0.950 . S
C990 H972 0.951 . S
C990 C991 1.366 . S
C990 C992 1.388 . S
C991 C990 1.366 . S
C991 C995 1.385 . S
C992 H973 0.951 . S
C992 C990 1.388 . S
C992 C993 1.366 . S
C993 C992 1.366 . S
C993 C994 1.414 . S
C993 C996 1.499 . S
C994 H974 0.950 . S
C994 C993 1.414 . S
C994 C995 1.374 . S
C995 H975 0.950 . S
C995 C991 1.385 . S
C995 C994 1.374 . S
C996 C993 1.499 . S
C996 C997 1.373 . S
C996 C998 1.389 . S
C997 H976 0.950 . S
C997 C996 1.373 . S
C997 C1013 1.377 1_455 S
C998 C996 1.389 . S
C998 C999 1.524 . S
C998 C1012 1.377 1_455 S
C999 C998 1.524 . S
C999 C1000 1.397 . S
C999 C1004 1.363 . S
C1000 H977 0.950 . S
C1000 C999 1.397 . S
C1000 C1001 1.334 . S
C1001 H978 0.950 . S
C1001 C1000 1.334 . S
C1001 C1002 1.287 . S
C1002 C1001 1.287 . S
C1002 C1003 1.524 . S
C1002 H1021 0.913 . S
C1003 H979 0.950 . S
C1003 C1002 1.524 . S
C1003 C1004 1.415 . S
C1004 H980 0.950 . S
C1004 C999 1.363 . S
C1004 C1003 1.415 . S
C1005 H981 0.951 . S
C1005 C1006 1.366 . S
C1005 C1007 1.388 . S
C1006 C1005 1.366 . S
C1006 C1010 1.385 . S
C1007 H982 0.951 . S
C1007 C1005 1.388 . S
C1007 C1008 1.366 . S
C1008 C1007 1.366 . S
C1008 C1009 1.414 . S
C1008 C1011 1.499 . S
C1009 H983 0.950 . S
C1009 C1008 1.414 . S
C1009 C1010 1.374 . S
C1010 H984 0.950 . S
C1010 C1006 1.385 . S
C1010 C1009 1.374 . S
C1011 C1008 1.499 . S
C1011 C1012 1.373 . S
C1011 C1013 1.389 . S
C1012 H985 0.950 . S
C1012 C998 1.377 1_655 S
C1012 C1011 1.373 . S
C1013 C997 1.377 1_655 S
C1013 C1011 1.389 . S
C1013 C1014 1.524 . S
C1014 C1013 1.524 . S
C1014 C1015 1.397 . S
C1014 C1019 1.363 . S
C1015 H986 0.950 . S
C1015 C1014 1.397 . S
C1015 C1016 1.334 . S
C1016 H987 0.950 . S
C1016 C1015 1.334 . S
C1016 C1017 1.287 . S
C1017 C1016 1.287 . S
C1017 C1018 1.524 . S
C1017 H1020 0.999 . S
C1018 H988 0.950 . S
C1018 C1017 1.524 . S
C1018 C1019 1.415 . S
C1019 H989 0.950 . S
C1019 C1014 1.363 . S
C1019 C1018 1.415 . S
H1020 C1017 0.999 . S
H1021 C1002 0.913 . S
H1022 C1040 0.951 . S
H1023 C1042 0.951 . S
H1024 C1044 0.950 . S
H1025 C1045 0.950 . S
H1026 C1047 0.950 . S
H1027 C1050 0.950 . S
H1028 C1051 0.950 . S
H1029 C1053 0.950 . S
H1030 C1054 0.950 . S
H1031 C1055 0.951 . S
H1032 C1057 0.951 . S
H1033 C1059 0.950 . S
H1034 C1060 0.950 . S
H1035 C1062 0.950 . S
H1036 C1065 0.950 . S
H1037 C1066 0.950 . S
H1038 C1068 0.950 . S
H1039 C1069 0.950 . S
C1040 H1022 0.951 . S
C1040 C1041 1.366 . S
C1040 C1042 1.388 . S
C1041 C1040 1.366 . S
C1041 C1045 1.385 . S
C1042 H1023 0.951 . S
C1042 C1040 1.388 . S
C1042 C1043 1.366 . S
C1043 C1042 1.366 . S
C1043 C1044 1.414 . S
C1043 C1046 1.499 . S
C1044 H1024 0.950 . S
C1044 C1043 1.414 . S
C1044 C1045 1.374 . S
C1045 H1025 0.950 . S
C1045 C1041 1.385 . S
C1045 C1044 1.374 . S
C1046 C1043 1.499 . S
C1046 C1047 1.373 . S
C1046 C1048 1.389 . S
C1047 H1026 0.950 . S
C1047 C1046 1.373 . S
C1047 C1063 1.377 . S
C1048 C1046 1.389 . S
C1048 C1049 1.524 . S
C1048 C1062 1.377 . S
C1049 C1048 1.524 . S
C1049 C1050 1.397 . S
C1049 C1054 1.363 1_556 S
C1050 H1027 0.950 . S
C1050 C1049 1.397 . S
C1050 C1051 1.334 . S
C1051 H1028 0.950 . S
C1051 C1050 1.334 . S
C1051 C1052 1.253 1_556 S
C1052 C1051 1.253 1_554 S
C1052 C1053 1.547 . S
C1052 H1071 0.929 . S
C1053 H1029 0.950 . S
C1053 C1052 1.547 . S
C1053 C1054 1.415 . S
C1054 H1030 0.950 . S
C1054 C1049 1.363 1_554 S
C1054 C1053 1.415 . S
C1055 H1031 0.951 . S
C1055 C1056 1.366 . S
C1055 C1057 1.388 . S
C1056 C1055 1.366 . S
C1056 C1060 1.385 . S
C1057 H1032 0.951 . S
C1057 C1055 1.388 . S
C1057 C1058 1.366 . S
C1058 C1057 1.366 . S
C1058 C1059 1.414 . S
C1058 C1061 1.499 . S
C1059 H1033 0.950 . S
C1059 C1058 1.414 . S
C1059 C1060 1.374 . S
C1060 H1034 0.950 . S
C1060 C1056 1.385 . S
C1060 C1059 1.374 . S
C1061 C1058 1.499 . S
C1061 C1062 1.373 . S
C1061 C1063 1.389 . S
C1062 H1035 0.950 . S
C1062 C1048 1.377 . S
C1062 C1061 1.373 . S
C1063 C1047 1.377 . S
C1063 C1061 1.389 . S
C1063 C1064 1.524 . S
C1064 C1063 1.524 . S
C1064 C1065 1.397 . S
C1064 C1069 1.363 . S
C1065 H1036 0.950 . S
C1065 C1064 1.397 . S
C1065 C1066 1.334 . S
C1066 H1037 0.950 . S
C1066 C1065 1.334 . S
C1066 C1067 1.287 . S
C1067 C1066 1.287 . S
C1067 C1068 1.524 . S
C1067 H1070 0.999 . S
C1068 H1038 0.950 . S
C1068 C1067 1.524 . S
C1068 C1069 1.415 . S
C1069 H1039 0.950 . S
C1069 C1064 1.363 . S
C1069 C1068 1.415 . S
H1070 C1067 0.999 . S
H1071 C1052 0.929 . S
H1072 C1090 0.951 . S
H1073 C1092 0.951 . S
H1074 C1094 0.950 . S
H1075 C1095 0.950 . S
H1076 C1097 0.950 . S
H1077 C1100 0.950 . S
H1078 C1101 0.950 . S
H1079 C1103 0.950 . S
H1080 C1104 0.950 . S
H1081 C1105 0.951 . S
H1082 C1107 0.951 . S
H1083 C1109 0.950 . S
H1084 C1110 0.950 . S
H1085 C1112 0.950 . S
H1086 C1115 0.950 . S
H1087 C1116 0.950 . S
H1088 C1118 0.950 . S
H1089 C1119 0.950 . S
C1090 H1072 0.951 . S
C1090 C1091 1.366 . S
C1090 C1092 1.388 . S
C1091 C1090 1.366 . S
C1091 C1095 1.385 . S
C1092 H1073 0.951 . S
C1092 C1090 1.388 . S
C1092 C1093 1.366 . S
C1093 C1092 1.366 . S
C1093 C1094 1.414 . S
C1093 C1096 1.499 . S
C1094 H1074 0.950 . S
C1094 C1093 1.414 . S
C1094 C1095 1.374 . S
C1095 H1075 0.950 . S
C1095 C1091 1.385 . S
C1095 C1094 1.374 . S
C1096 C1093 1.499 . S
C1096 C1097 1.373 . S
C1096 C1098 1.389 . S
C1097 H1076 0.950 . S
C1097 C1096 1.373 . S
C1097 C1113 1.377 . S
C1098 C1096 1.389 . S
C1098 C1099 1.524 . S
C1098 C1112 1.377 . S
C1099 C1098 1.524 . S
C1099 C1100 1.397 . S
C1099 C1104 1.363 . S
C1100 H1077 0.950 . S
C1100 C1099 1.397 . S
C1100 C1101 1.334 . S
C1101 H1078 0.950 . S
C1101 C1100 1.334 . S
C1101 C1102 1.287 . S
C1102 C1101 1.287 . S
C1102 C1103 1.524 . S
C1102 H1121 0.913 . S
C1103 H1079 0.950 . S
C1103 C1102 1.524 . S
C1103 C1104 1.415 . S
C1104 H1080 0.950 . S
C1104 C1099 1.363 . S
C1104 C1103 1.415 . S
C1105 H1081 0.951 . S
C1105 C1106 1.366 . S
C1105 C1107 1.388 . S
C1106 C1105 1.366 . S
C1106 C1110 1.385 . S
C1107 H1082 0.951 . S
C1107 C1105 1.388 . S
C1107 C1108 1.366 . S
C1108 C1107 1.366 . S
C1108 C1109 1.414 . S
C1108 C1111 1.499 . S
C1109 H1083 0.950 . S
C1109 C1108 1.414 . S
C1109 C1110 1.374 . S
C1110 H1084 0.950 . S
C1110 C1106 1.385 . S
C1110 C1109 1.374 . S
C1111 C1108 1.499 . S
C1111 C1112 1.373 . S
C1111 C1113 1.389 . S
C1112 H1085 0.950 . S
C1112 C1098 1.377 . S
C1112 C1111 1.373 . S
C1113 C1097 1.377 . S
C1113 C1111 1.389 . S
C1113 C1114 1.524 . S
C1114 C1113 1.524 . S
C1114 C1115 1.397 . S
C1114 C1119 1.363 . S
C1115 H1086 0.950 . S
C1115 C1114 1.397 . S
C1115 C1116 1.334 . S
C1116 H1087 0.950 . S
C1116 C1115 1.334 . S
C1116 C1117 1.287 . S
C1117 C1116 1.287 . S
C1117 C1118 1.524 . S
C1117 H1120 0.999 . S
C1118 H1088 0.950 . S
C1118 C1117 1.524 . S
C1118 C1119 1.415 . S
C1119 H1089 0.950 . S
C1119 C1114 1.363 . S
C1119 C1118 1.415 . S
H1120 C1117 0.999 . S
H1121 C1102 0.913 . S
H1122 C1140 0.951 . S
H1123 C1142 0.951 . S
H1124 C1144 0.950 . S
H1125 C1145 0.950 . S
H1126 C1147 0.950 . S
H1127 C1150 0.950 . S
H1128 C1151 0.950 . S
H1129 C1153 0.950 . S
H1130 C1154 0.950 . S
H1131 C1155 0.951 . S
H1132 C1157 0.951 . S
H1133 C1159 0.950 . S
H1134 C1160 0.950 . S
H1135 C1162 0.950 . S
H1136 C1165 0.950 . S
H1137 C1166 0.950 . S
H1138 C1168 0.950 . S
H1139 C1169 0.950 . S
C1140 H1122 0.951 . S
C1140 C1141 1.366 . S
C1140 C1142 1.388 . S
C1141 C1140 1.366 . S
C1141 C1145 1.385 . S
C1142 H1123 0.951 . S
C1142 C1140 1.388 . S
C1142 C1143 1.366 . S
C1143 C1142 1.366 . S
C1143 C1144 1.414 . S
C1143 C1146 1.499 . S
C1144 H1124 0.950 . S
C1144 C1143 1.414 . S
C1144 C1145 1.374 . S
C1145 H1125 0.950 . S
C1145 C1141 1.385 . S
C1145 C1144 1.374 . S
C1146 C1143 1.499 . S
C1146 C1147 1.373 . S
C1146 C1148 1.389 . S
C1147 H1126 0.950 . S
C1147 C1146 1.373 . S
C1147 C1163 1.377 . S
C1148 C1146 1.389 . S
C1148 C1149 1.524 . S
C1148 C1162 1.377 . S
C1149 C1148 1.524 . S
C1149 C1150 1.397 . S
C1149 C1154 1.363 . S
C1150 H1127 0.950 . S
C1150 C1149 1.397 . S
C1150 C1151 1.334 . S
C1151 H1128 0.950 . S
C1151 C1150 1.334 . S
C1151 C1152 1.287 . S
C1152 C1151 1.287 . S
C1152 C1153 1.524 . S
C1152 H1171 0.913 . S
C1153 H1129 0.950 . S
C1153 C1152 1.524 . S
C1153 C1154 1.415 . S
C1154 H1130 0.950 . S
C1154 C1149 1.363 . S
C1154 C1153 1.415 . S
C1155 H1131 0.951 . S
C1155 C1156 1.366 . S
C1155 C1157 1.388 . S
C1156 C1155 1.366 . S
C1156 C1160 1.385 . S
C1157 H1132 0.951 . S
C1157 C1155 1.388 . S
C1157 C1158 1.366 . S
C1158 C1157 1.366 . S
C1158 C1159 1.414 . S
C1158 C1161 1.499 . S
C1159 H1133 0.950 . S
C1159 C1158 1.414 . S
C1159 C1160 1.374 . S
C1160 H1134 0.950 . S
C1160 C1156 1.385 . S
C1160 C1159 1.374 . S
C1161 C1158 1.499 . S
C1161 C1162 1.373 . S
C1161 C1163 1.389 . S
C1162 H1135 0.950 . S
C1162 C1148 1.377 . S
C1162 C1161 1.373 . S
C1163 C1147 1.377 . S
C1163 C1161 1.389 . S
C1163 C1164 1.524 . S
C1164 C1163 1.524 . S
C1164 C1165 1.397 . S
C1164 C1169 1.363 . S
C1165 H1136 0.950 . S
C1165 C1164 1.397 . S
C1165 C1166 1.334 . S
C1166 H1137 0.950 . S
C1166 C1165 1.334 . S
C1166 C1167 1.287 . S
C1167 C1166 1.287 . S
C1167 C1168 1.524 . S
C1167 H1170 0.999 . S
C1168 H1138 0.950 . S
C1168 C1167 1.524 . S
C1168 C1169 1.415 . S
C1169 H1139 0.950 . S
C1169 C1164 1.363 . S
C1169 C1168 1.415 . S
H1170 C1167 0.999 . S
H1171 C1152 0.913 . S
H1172 C1190 0.951 . S
H1173 C1192 0.951 . S
H1174 C1194 0.950 . S
H1175 C1195 0.950 . S
H1176 C1197 0.950 . S
H1177 C1200 0.950 . S
H1178 C1201 0.950 . S
H1179 C1203 0.950 . S
H1180 C1204 0.950 . S
H1181 C1205 0.951 . S
H1182 C1207 0.951 . S
H1183 C1209 0.950 . S
H1184 C1210 0.950 . S
H1185 C1212 0.950 . S
H1186 C1215 0.950 . S
H1187 C1216 0.950 . S
H1188 C1218 0.950 . S
H1189 C1219 0.950 . S
C1190 H1172 0.951 . S
C1190 C1191 1.366 . S
C1190 C1192 1.388 . S
C1191 C1190 1.366 . S
C1191 C1195 1.385 . S
C1192 H1173 0.951 . S
C1192 C1190 1.388 . S
C1192 C1193 1.366 . S
C1193 C1192 1.366 . S
C1193 C1194 1.414 . S
C1193 C1196 1.499 . S
C1194 H1174 0.950 . S
C1194 C1193 1.414 . S
C1194 C1195 1.374 . S
C1195 H1175 0.950 . S
C1195 C1191 1.385 . S
C1195 C1194 1.374 . S
C1196 C1193 1.499 . S
C1196 C1197 1.373 . S
C1196 C1198 1.389 . S
C1197 H1176 0.950 . S
C1197 C1196 1.373 . S
C1197 C1213 1.377 1_655 S
C1198 C1196 1.389 . S
C1198 C1199 1.524 . S
C1198 C1212 1.377 1_655 S
C1199 C1198 1.524 . S
C1199 C1200 1.397 . S
C1199 C1204 1.363 . S
C1200 H1177 0.950 . S
C1200 C1199 1.397 . S
C1200 C1201 1.334 . S
C1201 H1178 0.950 . S
C1201 C1200 1.334 . S
C1201 C1202 1.287 . S
C1202 C1201 1.287 . S
C1202 C1203 1.524 . S
C1202 H1221 0.913 . S
C1203 H1179 0.950 . S
C1203 C1202 1.524 . S
C1203 C1204 1.415 . S
C1204 H1180 0.950 . S
C1204 C1199 1.363 . S
C1204 C1203 1.415 . S
C1205 H1181 0.951 . S
C1205 C1206 1.366 . S
C1205 C1207 1.388 . S
C1206 C1205 1.366 . S
C1206 C1210 1.385 . S
C1207 H1182 0.951 . S
C1207 C1205 1.388 . S
C1207 C1208 1.366 . S
C1208 C1207 1.366 . S
C1208 C1209 1.414 . S
C1208 C1211 1.499 . S
C1209 H1183 0.950 . S
C1209 C1208 1.414 . S
C1209 C1210 1.374 . S
C1210 H1184 0.950 . S
C1210 C1206 1.385 . S
C1210 C1209 1.374 . S
C1211 C1208 1.499 . S
C1211 C1212 1.373 . S
C1211 C1213 1.389 . S
C1212 H1185 0.950 . S
C1212 C1198 1.377 1_455 S
C1212 C1211 1.373 . S
C1213 C1197 1.377 1_455 S
C1213 C1211 1.389 . S
C1213 C1214 1.524 . S
C1214 C1213 1.524 . S
C1214 C1215 1.397 . S
C1214 C1219 1.363 . S
C1215 H1186 0.950 . S
C1215 C1214 1.397 . S
C1215 C1216 1.334 . S
C1216 H1187 0.950 . S
C1216 C1215 1.334 . S
C1216 C1217 1.287 . S
C1217 C1216 1.287 . S
C1217 C1218 1.524 . S
C1217 H1220 0.999 . S
C1218 H1188 0.950 . S
C1218 C1217 1.524 . S
C1218 C1219 1.415 . S
C1219 H1189 0.950 . S
C1219 C1214 1.363 . S
C1219 C1218 1.415 . S
H1220 C1217 0.999 . S
H1221 C1202 0.913 . S
H1222 C1240 0.950 . S
H1223 C1242 0.948 1_455 S
H1224 C1244 0.950 . S
H1225 C1245 0.950 . S
H1226 C1247 0.950 . S
H1227 C1250 0.950 . S
H1228 C1251 0.950 . S
H1229 C1253 0.950 1_556 S
H1230 C1254 0.924 1_556 S
H1231 C1255 0.950 . S
H1232 C1257 0.948 1_655 S
H1233 C1259 0.950 . S
H1234 C1260 0.950 . S
H1235 C1262 0.950 . S
H1236 C1265 0.950 . S
H1237 C1266 0.950 . S
H1238 C1268 0.950 . S
H1239 C1269 0.950 . S
C1240 H1222 0.950 . S
C1240 C1241 1.366 . S
C1240 C1242 1.389 . S
C1241 C1240 1.366 . S
C1241 C1245 1.385 . S
C1242 H1223 0.948 1_655 S
C1242 C1240 1.389 . S
C1242 C1243 1.367 . S
C1243 C1242 1.367 . S
C1243 C1244 1.414 . S
C1243 C1246 1.499 . S
C1244 H1224 0.950 . S
C1244 C1243 1.414 . S
C1244 C1245 1.374 . S
C1245 H1225 0.950 . S
C1245 C1241 1.385 . S
C1245 C1244 1.374 . S
C1246 C1243 1.499 . S
C1246 C1247 1.373 . S
C1246 C1248 1.389 1_655 S
C1247 H1226 0.950 . S
C1247 C1246 1.373 . S
C1247 C1263 1.377 . S
C1248 C1246 1.389 1_455 S
C1248 C1249 1.524 . S
C1248 C1262 1.377 . S
C1249 C1248 1.524 . S
C1249 C1250 1.397 . S
C1249 C1254 1.363 . S
C1250 H1227 0.950 . S
C1250 C1249 1.397 . S
C1250 C1251 1.334 . S
C1251 H1228 0.950 . S
C1251 C1250 1.334 . S
C1251 C1252 1.287 . S
C1252 C1251 1.287 . S
C1252 C1253 1.524 . S
C1252 H1271 0.913 . S
C1253 H1229 0.950 1_554 S
C1253 C1252 1.524 . S
C1253 C1254 1.415 . S
C1254 H1230 0.924 1_554 S
C1254 C1249 1.363 . S
C1254 C1253 1.415 . S
C1255 H1231 0.950 . S
C1255 C1256 1.366 . S
C1255 C1257 1.389 . S
C1256 C1255 1.366 . S
C1256 C1260 1.385 . S
C1257 H1232 0.948 1_455 S
C1257 C1255 1.389 . S
C1257 C1258 1.367 . S
C1258 C1257 1.367 . S
C1258 C1259 1.414 . S
C1258 C1261 1.499 . S
C1259 H1233 0.950 . S
C1259 C1258 1.414 . S
C1259 C1260 1.374 . S
C1260 H1234 0.950 . S
C1260 C1256 1.385 . S
C1260 C1259 1.374 . S
C1261 C1258 1.499 . S
C1261 C1262 1.373 . S
C1261 C1263 1.389 1_455 S
C1262 H1235 0.950 . S
C1262 C1248 1.377 . S
C1262 C1261 1.373 . S
C1263 C1247 1.377 . S
C1263 C1261 1.389 1_655 S
C1263 C1264 1.524 . S
C1264 C1263 1.524 . S
C1264 C1265 1.397 . S
C1264 C1269 1.363 . S
C1265 H1236 0.950 . S
C1265 C1264 1.397 . S
C1265 C1266 1.334 . S
C1266 H1237 0.950 . S
C1266 C1265 1.334 . S
C1266 C1267 1.287 . S
C1267 C1266 1.287 . S
C1267 C1268 1.524 . S
C1267 H1270 0.999 . S
C1268 H1238 0.950 . S
C1268 C1267 1.524 . S
C1268 C1269 1.415 . S
C1269 H1239 0.950 . S
C1269 C1264 1.363 . S
C1269 C1268 1.415 . S
H1270 C1267 0.999 . S
H1271 C1252 0.913 . S
H1272 C1290 0.951 . S
H1273 C1292 0.951 . S
H1274 C1294 0.950 . S
H1275 C1295 0.950 . S
H1276 C1297 0.950 . S
H1277 C1300 0.950 . S
H1278 C1301 0.950 . S
H1279 C1303 0.950 . S
H1280 C1304 0.950 . S
H1281 C1305 0.951 . S
H1282 C1307 0.951 . S
H1283 C1309 0.950 . S
H1284 C1310 0.950 . S
H1285 C1312 0.950 . S
H1286 C1315 0.950 . S
H1287 C1316 0.950 . S
H1288 C1318 0.950 . S
H1289 C1319 0.950 . S
C1290 H1272 0.951 . S
C1290 C1291 1.366 . S
C1290 C1292 1.388 . S
C1291 C1290 1.366 . S
C1291 C1295 1.385 . S
C1292 H1273 0.951 . S
C1292 C1290 1.388 . S
C1292 C1293 1.366 . S
C1293 C1292 1.366 . S
C1293 C1294 1.414 . S
C1293 C1296 1.499 . S
C1294 H1274 0.950 . S
C1294 C1293 1.414 . S
C1294 C1295 1.374 . S
C1295 H1275 0.950 . S
C1295 C1291 1.385 . S
C1295 C1294 1.374 . S
C1296 C1293 1.499 . S
C1296 C1297 1.373 . S
C1296 C1298 1.389 . S
C1297 H1276 0.950 . S
C1297 C1296 1.373 . S
C1297 C1313 1.377 . S
C1298 C1296 1.389 . S
C1298 C1299 1.524 . S
C1298 C1312 1.377 . S
C1299 C1298 1.524 . S
C1299 C1300 1.397 . S
C1299 C1304 1.363 . S
C1300 H1277 0.950 . S
C1300 C1299 1.397 . S
C1300 C1301 1.334 . S
C1301 H1278 0.950 . S
C1301 C1300 1.334 . S
C1301 C1302 1.287 . S
C1302 C1301 1.287 . S
C1302 C1303 1.524 . S
C1302 H1321 0.913 . S
C1303 H1279 0.950 . S
C1303 C1302 1.524 . S
C1303 C1304 1.415 . S
C1304 H1280 0.950 . S
C1304 C1299 1.363 . S
C1304 C1303 1.415 . S
C1305 H1281 0.951 . S
C1305 C1306 1.366 . S
C1305 C1307 1.388 . S
C1306 C1305 1.366 . S
C1306 C1310 1.385 . S
C1307 H1282 0.951 . S
C1307 C1305 1.388 . S
C1307 C1308 1.366 . S
C1308 C1307 1.366 . S
C1308 C1309 1.414 . S
C1308 C1311 1.499 . S
C1309 H1283 0.950 . S
C1309 C1308 1.414 . S
C1309 C1310 1.374 . S
C1310 H1284 0.950 . S
C1310 C1306 1.385 . S
C1310 C1309 1.374 . S
C1311 C1308 1.499 . S
C1311 C1312 1.373 . S
C1311 C1313 1.389 . S
C1312 H1285 0.950 . S
C1312 C1298 1.377 . S
C1312 C1311 1.373 . S
C1313 C1297 1.377 . S
C1313 C1311 1.389 . S
C1313 C1314 1.524 . S
C1314 C1313 1.524 . S
C1314 C1315 1.397 . S
C1314 C1319 1.363 . S
C1315 H1286 0.950 . S
C1315 C1314 1.397 . S
C1315 C1316 1.334 . S
C1316 H1287 0.950 . S
C1316 C1315 1.334 . S
C1316 C1317 1.287 . S
C1317 C1316 1.287 . S
C1317 C1318 1.524 . S
C1317 H1320 0.999 . S
C1318 H1288 0.950 . S
C1318 C1317 1.524 . S
C1318 C1319 1.415 . S
C1319 H1289 0.950 . S
C1319 C1314 1.363 . S
C1319 C1318 1.415 . S
H1320 C1317 0.999 . S
H1321 C1302 0.913 . S
H1322 C1340 0.951 . S
H1323 C1342 0.951 . S
H1324 C1344 0.950 . S
H1325 C1345 0.950 . S
H1326 C1347 0.950 . S
H1327 C1350 0.950 . S
H1328 C1351 0.950 . S
H1329 C1353 0.950 . S
H1330 C1354 0.950 . S
H1331 C1355 0.951 . S
H1332 C1357 0.951 . S
H1333 C1359 0.950 . S
H1334 C1360 0.950 . S
H1335 C1362 0.950 . S
H1336 C1365 0.950 . S
H1337 C1366 0.950 . S
H1338 C1368 0.950 . S
H1339 C1369 0.950 . S
C1340 H1322 0.951 . S
C1340 C1341 1.366 . S
C1340 C1342 1.388 . S
C1341 C1340 1.366 . S
C1341 C1345 1.385 . S
C1342 H1323 0.951 . S
C1342 C1340 1.388 . S
C1342 C1343 1.366 . S
C1343 C1342 1.366 . S
C1343 C1344 1.414 . S
C1343 C1346 1.499 . S
C1344 H1324 0.950 . S
C1344 C1343 1.414 . S
C1344 C1345 1.374 . S
C1345 H1325 0.950 . S
C1345 C1341 1.385 . S
C1345 C1344 1.374 . S
C1346 C1343 1.499 . S
C1346 C1347 1.373 . S
C1346 C1348 1.389 . S
C1347 H1326 0.950 . S
C1347 C1346 1.373 . S
C1347 C1363 1.377 1_545 S
C1348 C1346 1.389 . S
C1348 C1349 1.524 . S
C1348 C1362 1.377 1_545 S
C1349 C1348 1.524 . S
C1349 C1350 1.397 . S
C1349 C1354 1.363 . S
C1350 H1327 0.950 . S
C1350 C1349 1.397 . S
C1350 C1351 1.334 . S
C1351 H1328 0.950 . S
C1351 C1350 1.334 . S
C1351 C1352 1.287 . S
C1352 C1351 1.287 . S
C1352 C1353 1.524 . S
C1352 H1371 0.913 . S
C1353 H1329 0.950 . S
C1353 C1352 1.524 . S
C1353 C1354 1.415 . S
C1354 H1330 0.950 . S
C1354 C1349 1.363 . S
C1354 C1353 1.415 . S
C1355 H1331 0.951 . S
C1355 C1356 1.366 . S
C1355 C1357 1.388 . S
C1356 C1355 1.366 . S
C1356 C1360 1.385 . S
C1357 H1332 0.951 . S
C1357 C1355 1.388 . S
C1357 C1358 1.366 . S
C1358 C1357 1.366 . S
C1358 C1359 1.414 . S
C1358 C1361 1.499 . S
C1359 H1333 0.950 . S
C1359 C1358 1.414 . S
C1359 C1360 1.374 . S
C1360 H1334 0.950 . S
C1360 C1356 1.385 . S
C1360 C1359 1.374 . S
C1361 C1358 1.499 . S
C1361 C1362 1.373 . S
C1361 C1363 1.389 . S
C1362 H1335 0.950 . S
C1362 C1348 1.377 1_565 S
C1362 C1361 1.373 . S
C1363 C1347 1.377 1_565 S
C1363 C1361 1.389 . S
C1363 C1364 1.524 . S
C1364 C1363 1.524 . S
C1364 C1365 1.397 . S
C1364 C1369 1.363 . S
C1365 H1336 0.950 . S
C1365 C1364 1.397 . S
C1365 C1366 1.334 . S
C1366 H1337 0.950 . S
C1366 C1365 1.334 . S
C1366 C1367 1.287 . S
C1367 C1366 1.287 . S
C1367 C1368 1.524 . S
C1367 H1370 0.999 . S
C1368 H1338 0.950 . S
C1368 C1367 1.524 . S
C1368 C1369 1.415 . S
C1369 H1339 0.950 . S
C1369 C1364 1.363 . S
C1369 C1368 1.415 . S
H1370 C1367 0.999 . S
H1371 C1352 0.913 . S
H1372 C1390 0.951 . S
H1373 C1392 0.951 . S
H1374 C1394 0.950 . S
H1375 C1395 0.950 . S
H1376 C1397 0.950 . S
H1377 C1400 0.950 1_554 S
H1378 C1401 0.950 . S
H1379 C1403 0.950 . S
H1380 C1404 0.950 . S
H1381 C1405 0.951 . S
H1382 C1407 0.951 . S
H1383 C1409 0.950 . S
H1384 C1410 0.950 . S
H1385 C1412 0.950 . S
H1386 C1415 0.950 1_556 S
H1387 C1416 0.950 . S
H1388 C1418 0.950 . S
H1389 C1419 0.950 . S
C1390 H1372 0.951 . S
C1390 C1391 1.366 1_556 S
C1390 C1392 1.388 . S
C1391 C1390 1.366 1_554 S
C1391 C1395 1.385 . S
C1392 H1373 0.951 . S
C1392 C1390 1.388 . S
C1392 C1393 1.366 1_556 S
C1393 C1392 1.366 1_554 S
C1393 C1394 1.414 . S
C1393 C1396 1.499 . S
C1394 H1374 0.950 . S
C1394 C1393 1.414 . S
C1394 C1395 1.374 . S
C1395 H1375 0.950 . S
C1395 C1391 1.385 . S
C1395 C1394 1.374 . S
C1396 C1393 1.499 . S
C1396 C1397 1.373 . S
C1396 C1398 1.389 1_554 S
C1397 H1376 0.950 . S
C1397 C1396 1.373 . S
C1397 C1413 1.377 . S
C1398 C1396 1.389 1_556 S
C1398 C1399 1.524 . S
C1398 C1412 1.377 . S
C1399 C1398 1.524 . S
C1399 C1400 1.397 . S
C1399 C1404 1.363 . S
C1400 H1377 0.950 1_556 S
C1400 C1399 1.397 . S
C1400 C1401 1.334 . S
C1401 H1378 0.950 . S
C1401 C1400 1.334 . S
C1401 C1402 1.287 . S
C1402 C1401 1.287 . S
C1402 C1403 1.524 . S
C1402 H1421 0.913 . S
C1403 H1379 0.950 . S
C1403 C1402 1.524 . S
C1403 C1404 1.415 . S
C1404 H1380 0.950 . S
C1404 C1399 1.363 . S
C1404 C1403 1.415 . S
C1405 H1381 0.951 . S
C1405 C1406 1.366 1_554 S
C1405 C1407 1.388 . S
C1406 C1405 1.366 1_556 S
C1406 C1410 1.385 . S
C1407 H1382 0.951 . S
C1407 C1405 1.388 . S
C1407 C1408 1.366 1_554 S
C1408 C1407 1.366 1_556 S
C1408 C1409 1.414 . S
C1408 C1411 1.499 . S
C1409 H1383 0.950 . S
C1409 C1408 1.414 . S
C1409 C1410 1.374 . S
C1410 H1384 0.950 . S
C1410 C1406 1.385 . S
C1410 C1409 1.374 . S
C1411 C1408 1.499 . S
C1411 C1412 1.373 . S
C1411 C1413 1.389 1_556 S
C1412 H1385 0.950 . S
C1412 C1398 1.377 . S
C1412 C1411 1.373 . S
C1413 C1397 1.377 . S
C1413 C1411 1.389 1_554 S
C1413 C1414 1.524 . S
C1414 C1413 1.524 . S
C1414 C1415 1.397 . S
C1414 C1419 1.363 . S
C1415 H1386 0.950 1_554 S
C1415 C1414 1.397 . S
C1415 C1416 1.334 . S
C1416 H1387 0.950 . S
C1416 C1415 1.334 . S
C1416 C1417 1.287 . S
C1417 C1416 1.287 . S
C1417 C1418 1.524 . S
C1417 H1420 0.999 . S
C1418 H1388 0.950 . S
C1418 C1417 1.524 . S
C1418 C1419 1.415 . S
C1419 H1389 0.950 . S
C1419 C1414 1.363 . S
C1419 C1418 1.415 . S
H1420 C1417 0.999 . S
H1421 C1402 0.913 . S
H1422 C1440 0.951 . S
H1423 C1442 0.951 . S
H1424 C1444 0.950 . S
H1425 C1445 0.950 . S
H1426 C1447 0.950 . S
H1427 C1450 0.950 . S
H1428 C1451 0.950 . S
H1429 C1453 0.950 . S
H1430 C1454 0.950 1_565 S
H1431 C1455 0.951 . S
H1432 C1457 0.951 . S
H1433 C1459 0.950 . S
H1434 C1460 0.950 . S
H1435 C1462 0.950 . S
H1436 C1465 0.950 . S
H1437 C1466 0.950 . S
H1438 C1468 0.950 . S
H1439 C1469 0.950 1_545 S
C1440 H1422 0.951 . S
C1440 C1441 1.366 . S
C1440 C1442 1.388 . S
C1441 C1440 1.366 . S
C1441 C1445 1.385 . S
C1442 H1423 0.951 . S
C1442 C1440 1.388 . S
C1442 C1443 1.366 . S
C1443 C1442 1.366 . S
C1443 C1444 1.414 . S
C1443 C1446 1.499 . S
C1444 H1424 0.950 . S
C1444 C1443 1.414 . S
C1444 C1445 1.374 . S
C1445 H1425 0.950 . S
C1445 C1441 1.385 . S
C1445 C1444 1.374 . S
C1446 C1443 1.499 . S
C1446 C1447 1.373 . S
C1446 C1448 1.389 . S
C1447 H1426 0.950 . S
C1447 C1446 1.373 . S
C1447 C1463 1.377 1_545 S
C1448 C1446 1.389 . S
C1448 C1449 1.524 . S
C1448 C1462 1.377 1_545 S
C1449 C1448 1.524 . S
C1449 C1450 1.397 . S
C1449 C1454 1.363 . S
C1450 H1427 0.950 . S
C1450 C1449 1.397 . S
C1450 C1451 1.334 . S
C1451 H1428 0.950 . S
C1451 C1450 1.334 . S
C1451 C1452 1.287 . S
C1452 C1451 1.287 . S
C1452 C1453 1.524 . S
C1452 H1471 0.913 . S
C1453 H1429 0.950 . S
C1453 C1452 1.524 . S
C1453 C1454 1.415 . S
C1454 H1430 0.950 1_545 S
C1454 C1449 1.363 . S
C1454 C1453 1.415 . S
C1455 H1431 0.951 . S
C1455 C1456 1.366 . S
C1455 C1457 1.388 . S
C1456 C1455 1.366 . S
C1456 C1460 1.385 . S
C1457 H1432 0.951 . S
C1457 C1455 1.388 . S
C1457 C1458 1.366 . S
C1458 C1457 1.366 . S
C1458 C1459 1.414 . S
C1458 C1461 1.499 . S
C1459 H1433 0.950 . S
C1459 C1458 1.414 . S
C1459 C1460 1.374 . S
C1460 H1434 0.950 . S
C1460 C1456 1.385 . S
C1460 C1459 1.374 . S
C1461 C1458 1.499 . S
C1461 C1462 1.373 . S
C1461 C1463 1.389 . S
C1462 H1435 0.950 . S
C1462 C1448 1.377 1_565 S
C1462 C1461 1.373 . S
C1463 C1447 1.377 1_565 S
C1463 C1461 1.389 . S
C1463 C1464 1.524 . S
C1464 C1463 1.524 . S
C1464 C1465 1.397 . S
C1464 C1469 1.363 . S
C1465 H1436 0.950 . S
C1465 C1464 1.397 . S
C1465 C1466 1.334 . S
C1466 H1437 0.950 . S
C1466 C1465 1.334 . S
C1466 C1467 1.287 . S
C1467 C1466 1.287 . S
C1467 C1468 1.524 . S
C1467 H1470 0.999 . S
C1468 H1438 0.950 . S
C1468 C1467 1.524 . S
C1468 C1469 1.415 . S
C1469 H1439 0.950 1_565 S
C1469 C1464 1.363 . S
C1469 C1468 1.415 . S
H1470 C1467 0.999 . S
H1471 C1452 0.913 . S
H1472 C1490 0.951 . S
H1473 C1492 0.951 . S
H1474 C1494 0.950 . S
H1475 C1495 0.950 . S
H1476 C1497 0.950 . S
H1477 C1500 0.950 . S
H1478 C1501 0.950 . S
H1479 C1503 0.950 . S
H1480 C1504 0.950 . S
H1481 C1505 0.951 . S
H1482 C1507 0.951 . S
H1483 C1509 0.950 . S
H1484 C1510 0.950 . S
H1485 C1512 0.950 . S
H1486 C1515 0.950 . S
H1487 C1516 0.950 . S
H1488 C1518 0.950 . S
H1489 C1519 0.950 . S
C1490 H1472 0.951 . S
C1490 C1491 1.366 1_554 S
C1490 C1492 1.388 . S
C1491 C1490 1.366 1_556 S
C1491 C1495 1.385 . S
C1492 H1473 0.951 . S
C1492 C1490 1.388 . S
C1492 C1493 1.366 1_554 S
C1493 C1492 1.366 1_556 S
C1493 C1494 1.414 . S
C1493 C1496 1.499 . S
C1494 H1474 0.950 . S
C1494 C1493 1.414 . S
C1494 C1495 1.374 . S
C1495 H1475 0.950 . S
C1495 C1491 1.385 . S
C1495 C1494 1.374 . S
C1496 C1493 1.499 . S
C1496 C1497 1.373 . S
C1496 C1498 1.389 1_556 S
C1497 H1476 0.950 . S
C1497 C1496 1.373 . S
C1497 C1513 1.377 . S
C1498 C1496 1.389 1_554 S
C1498 C1499 1.524 . S
C1498 C1512 1.377 . S
C1499 C1498 1.524 . S
C1499 C1500 1.397 . S
C1499 C1504 1.363 . S
C1500 H1477 0.950 . S
C1500 C1499 1.397 . S
C1500 C1501 1.334 . S
C1501 H1478 0.950 . S
C1501 C1500 1.334 . S
C1501 C1502 1.287 . S
C1502 C1501 1.287 . S
C1502 C1503 1.524 . S
C1502 H1521 0.913 . S
C1503 H1479 0.950 . S
C1503 C1502 1.524 . S
C1503 C1504 1.415 . S
C1504 H1480 0.950 . S
C1504 C1499 1.363 . S
C1504 C1503 1.415 . S
C1505 H1481 0.951 . S
C1505 C1506 1.366 1_556 S
C1505 C1507 1.388 . S
C1506 C1505 1.366 1_554 S
C1506 C1510 1.385 . S
C1507 H1482 0.951 . S
C1507 C1505 1.388 . S
C1507 C1508 1.366 1_556 S
C1508 C1507 1.366 1_554 S
C1508 C1509 1.414 . S
C1508 C1511 1.499 . S
C1509 H1483 0.950 . S
C1509 C1508 1.414 . S
C1509 C1510 1.374 . S
C1510 H1484 0.950 . S
C1510 C1506 1.385 . S
C1510 C1509 1.374 . S
C1511 C1508 1.499 . S
C1511 C1512 1.373 . S
C1511 C1513 1.389 1_554 S
C1512 H1485 0.950 . S
C1512 C1498 1.377 . S
C1512 C1511 1.373 . S
C1513 C1497 1.377 . S
C1513 C1511 1.389 1_556 S
C1513 C1514 1.524 . S
C1514 C1513 1.524 . S
C1514 C1515 1.397 1_545 S
C1514 C1519 1.363 . S
C1515 H1486 0.950 . S
C1515 C1514 1.397 1_565 S
C1515 C1516 1.334 . S
C1516 H1487 0.950 . S
C1516 C1515 1.334 . S
C1516 C1517 1.287 . S
C1517 C1516 1.287 . S
C1517 C1518 1.524 1_565 S
C1517 H1520 0.999 . S
C1518 H1488 0.950 . S
C1518 C1517 1.524 1_545 S
C1518 C1519 1.415 . S
C1519 H1489 0.950 . S
C1519 C1514 1.363 . S
C1519 C1518 1.415 . S
H1520 C1517 0.999 . S
H1521 C1502 0.913 . S
H1522 C1540 0.951 . S
H1523 C1542 0.951 . S
H1524 C1544 0.950 . S
H1525 C1545 0.950 . S
H1526 C1547 0.950 . S
H1527 C1550 0.950 . S
H1528 C1551 0.950 . S
H1529 C1553 0.950 . S
H1530 C1554 0.950 . S
H1531 C1555 0.951 . S
H1532 C1557 0.951 . S
H1533 C1559 0.950 . S
H1534 C1560 0.950 . S
H1535 C1562 0.950 . S
H1536 C1565 0.950 . S
H1537 C1566 0.950 . S
H1538 C1568 0.950 . S
H1539 C1569 0.950 . S
C1540 H1522 0.951 . S
C1540 C1541 1.366 . S
C1540 C1542 1.388 . S
C1541 C1540 1.366 . S
C1541 C1545 1.385 . S
C1542 H1523 0.951 . S
C1542 C1540 1.388 . S
C1542 C1543 1.366 . S
C1543 C1542 1.366 . S
C1543 C1544 1.414 . S
C1543 C1546 1.499 . S
C1544 H1524 0.950 . S
C1544 C1543 1.414 . S
C1544 C1545 1.374 . S
C1545 H1525 0.950 . S
C1545 C1541 1.385 . S
C1545 C1544 1.374 . S
C1546 C1543 1.499 . S
C1546 C1547 1.373 . S
C1546 C1548 1.389 . S
C1547 H1526 0.950 . S
C1547 C1546 1.373 . S
C1547 C1563 1.377 . S
C1548 C1546 1.389 . S
C1548 C1549 1.524 . S
C1548 C1562 1.377 . S
C1549 C1548 1.524 . S
C1549 C1550 1.397 . S
C1549 C1554 1.363 . S
C1550 H1527 0.950 . S
C1550 C1549 1.397 . S
C1550 C1551 1.334 . S
C1551 H1528 0.950 . S
C1551 C1550 1.334 . S
C1551 C1552 1.287 . S
C1552 C1551 1.287 . S
C1552 C1553 1.524 . S
C1552 H1571 0.913 . S
C1553 H1529 0.950 . S
C1553 C1552 1.524 . S
C1553 C1554 1.415 . S
C1554 H1530 0.950 . S
C1554 C1549 1.363 . S
C1554 C1553 1.415 . S
C1555 H1531 0.951 . S
C1555 C1556 1.366 . S
C1555 C1557 1.388 . S
C1556 C1555 1.366 . S
C1556 C1560 1.385 . S
C1557 H1532 0.951 . S
C1557 C1555 1.388 . S
C1557 C1558 1.366 . S
C1558 C1557 1.366 . S
C1558 C1559 1.414 . S
C1558 C1561 1.499 . S
C1559 H1533 0.950 . S
C1559 C1558 1.414 . S
C1559 C1560 1.374 . S
C1560 H1534 0.950 . S
C1560 C1556 1.385 . S
C1560 C1559 1.374 . S
C1561 C1558 1.499 . S
C1561 C1562 1.373 . S
C1561 C1563 1.389 . S
C1562 H1535 0.950 . S
C1562 C1548 1.377 . S
C1562 C1561 1.373 . S
C1563 C1547 1.377 . S
C1563 C1561 1.389 . S
C1563 C1564 1.524 . S
C1564 C1563 1.524 . S
C1564 C1565 1.397 . S
C1564 C1569 1.363 . S
C1565 H1536 0.950 . S
C1565 C1564 1.397 . S
C1565 C1566 1.334 . S
C1566 H1537 0.950 . S
C1566 C1565 1.334 . S
C1566 C1567 1.287 . S
C1567 C1566 1.287 . S
C1567 C1568 1.524 . S
C1567 H1570 0.999 . S
C1568 H1538 0.950 . S
C1568 C1567 1.524 . S
C1568 C1569 1.415 . S
C1569 H1539 0.950 . S
C1569 C1564 1.363 . S
C1569 C1568 1.415 . S
H1570 C1567 0.999 . S
H1571 C1552 0.913 . S
H1572 C1590 0.951 . S
H1573 C1592 0.951 . S
H1574 C1594 0.950 . S
H1575 C1595 0.950 . S
H1576 C1597 0.950 . S
H1577 C1600 0.950 . S
H1578 C1601 0.950 . S
H1579 C1603 0.950 . S
H1580 C1604 0.950 . S
H1581 C1605 0.951 . S
H1582 C1607 0.951 . S
H1583 C1609 0.950 . S
H1584 C1610 0.950 . S
H1585 C1612 0.950 . S
H1586 C1615 0.950 . S
H1587 C1616 0.950 . S
H1588 C1618 0.950 . S
H1589 C1619 0.950 . S
C1590 H1572 0.951 . S
C1590 C1591 1.366 . S
C1590 C1592 1.388 . S
C1591 C1590 1.366 . S
C1591 C1595 1.385 . S
C1592 H1573 0.951 . S
C1592 C1590 1.388 . S
C1592 C1593 1.366 . S
C1593 C1592 1.366 . S
C1593 C1594 1.414 . S
C1593 C1596 1.499 . S
C1594 H1574 0.950 . S
C1594 C1593 1.414 . S
C1594 C1595 1.374 . S
C1595 H1575 0.950 . S
C1595 C1591 1.385 . S
C1595 C1594 1.374 . S
C1596 C1593 1.499 . S
C1596 C1597 1.373 . S
C1596 C1598 1.389 . S
C1597 H1576 0.950 . S
C1597 C1596 1.373 . S
C1597 C1613 1.377 . S
C1598 C1596 1.389 . S
C1598 C1599 1.524 . S
C1598 C1612 1.377 . S
C1599 C1598 1.524 . S
C1599 C1600 1.397 . S
C1599 C1604 1.363 . S
C1600 H1577 0.950 . S
C1600 C1599 1.397 . S
C1600 C1601 1.334 . S
C1601 H1578 0.950 . S
C1601 C1600 1.334 . S
C1601 C1602 1.287 . S
C1602 C1601 1.287 . S
C1602 C1603 1.524 . S
C1602 H1621 0.913 . S
C1603 H1579 0.950 . S
C1603 C1602 1.524 . S
C1603 C1604 1.415 . S
C1604 H1580 0.950 . S
C1604 C1599 1.363 . S
C1604 C1603 1.415 . S
C1605 H1581 0.951 . S
C1605 C1606 1.366 . S
C1605 C1607 1.388 . S
C1606 C1605 1.366 . S
C1606 C1610 1.385 . S
C1607 H1582 0.951 . S
C1607 C1605 1.388 . S
C1607 C1608 1.366 . S
C1608 C1607 1.366 . S
C1608 C1609 1.414 . S
C1608 C1611 1.499 . S
C1609 H1583 0.950 . S
C1609 C1608 1.414 . S
C1609 C1610 1.374 . S
C1610 H1584 0.950 . S
C1610 C1606 1.385 . S
C1610 C1609 1.374 . S
C1611 C1608 1.499 . S
C1611 C1612 1.373 . S
C1611 C1613 1.389 . S
C1612 H1585 0.950 . S
C1612 C1598 1.377 . S
C1612 C1611 1.373 . S
C1613 C1597 1.377 . S
C1613 C1611 1.389 . S
C1613 C1614 1.524 . S
C1614 C1613 1.524 . S
C1614 C1615 1.397 . S
C1614 C1619 1.363 . S
C1615 H1586 0.950 . S
C1615 C1614 1.397 . S
C1615 C1616 1.334 . S
C1616 H1587 0.950 . S
C1616 C1615 1.334 . S
C1616 C1617 1.287 . S
C1617 C1616 1.287 . S
C1617 C1618 1.524 . S
C1617 H1620 0.999 . S
C1618 H1588 0.950 . S
C1618 C1617 1.524 . S
C1618 C1619 1.415 . S
C1619 H1589 0.950 . S
C1619 C1614 1.363 . S
C1619 C1618 1.415 . S
H1620 C1617 0.999 . S
H1621 C1602 0.913 . S
H1622 C1640 0.951 . S
H1623 C1642 0.951 . S
H1624 C1644 0.950 . S
H1625 C1645 0.950 . S
H1626 C1647 0.950 . S
H1627 C1650 0.950 . S
H1628 C1651 0.950 . S
H1629 C1653 0.950 . S
H1630 C1654 0.950 . S
H1631 C1655 0.951 . S
H1632 C1657 0.951 . S
H1633 C1659 0.950 . S
H1634 C1660 0.950 . S
H1635 C1662 0.950 . S
H1636 C1665 0.950 . S
H1637 C1666 0.950 . S
H1638 C1668 0.950 . S
H1639 C1669 0.950 . S
C1640 H1622 0.951 . S
C1640 C1641 1.366 . S
C1640 C1642 1.388 . S
C1641 C1640 1.366 . S
C1641 C1645 1.385 . S
C1642 H1623 0.951 . S
C1642 C1640 1.388 . S
C1642 C1643 1.366 . S
C1643 C1642 1.366 . S
C1643 C1644 1.414 . S
C1643 C1646 1.499 . S
C1644 H1624 0.950 . S
C1644 C1643 1.414 . S
C1644 C1645 1.374 . S
C1645 H1625 0.950 . S
C1645 C1641 1.385 . S
C1645 C1644 1.374 . S
C1646 C1643 1.499 . S
C1646 C1647 1.373 . S
C1646 C1648 1.389 . S
C1647 H1626 0.950 . S
C1647 C1646 1.373 . S
C1647 C1663 1.377 1_554 S
C1648 C1646 1.389 . S
C1648 C1649 1.524 . S
C1648 C1662 1.377 1_554 S
C1649 C1648 1.524 . S
C1649 C1650 1.397 . S
C1649 C1654 1.363 . S
C1650 H1627 0.950 . S
C1650 C1649 1.397 . S
C1650 C1651 1.334 . S
C1651 H1628 0.950 . S
C1651 C1650 1.334 . S
C1651 C1652 1.287 . S
C1652 C1651 1.287 . S
C1652 C1653 1.524 . S
C1652 H1671 0.913 . S
C1653 H1629 0.950 . S
C1653 C1652 1.524 . S
C1653 C1654 1.415 . S
C1654 H1630 0.950 . S
C1654 C1649 1.363 . S
C1654 C1653 1.415 . S
C1655 H1631 0.951 . S
C1655 C1656 1.366 . S
C1655 C1657 1.388 . S
C1656 C1655 1.366 . S
C1656 C1660 1.385 . S
C1657 H1632 0.951 . S
C1657 C1655 1.388 . S
C1657 C1658 1.366 . S
C1658 C1657 1.366 . S
C1658 C1659 1.414 . S
C1658 C1661 1.499 . S
C1659 H1633 0.950 . S
C1659 C1658 1.414 . S
C1659 C1660 1.374 . S
C1660 H1634 0.950 . S
C1660 C1656 1.385 . S
C1660 C1659 1.374 . S
C1661 C1658 1.499 . S
C1661 C1662 1.373 . S
C1661 C1663 1.389 . S
C1662 H1635 0.950 . S
C1662 C1648 1.377 1_556 S
C1662 C1661 1.373 . S
C1663 C1647 1.377 1_556 S
C1663 C1661 1.389 . S
C1663 C1664 1.524 . S
C1664 C1663 1.524 . S
C1664 C1665 1.397 . S
C1664 C1669 1.363 . S
C1665 H1636 0.950 . S
C1665 C1664 1.397 . S
C1665 C1666 1.334 . S
C1666 H1637 0.950 . S
C1666 C1665 1.334 . S
C1666 C1667 1.287 . S
C1667 C1666 1.287 . S
C1667 C1668 1.524 . S
C1667 H1670 0.999 . S
C1668 H1638 0.950 . S
C1668 C1667 1.524 . S
C1668 C1669 1.415 . S
C1669 H1639 0.950 . S
C1669 C1664 1.363 . S
C1669 C1668 1.415 . S
H1670 C1667 0.999 . S
H1671 C1652 0.913 . S
H1672 C1690 0.951 . S
H1673 C1692 0.951 . S
H1674 C1694 0.950 . S
H1675 C1695 0.950 . S
H1676 C1697 0.950 . S
H1677 C1700 0.950 . S
H1678 C1701 0.950 . S
H1679 C1703 0.950 . S
H1680 C1704 0.950 . S
H1681 C1705 0.951 . S
H1682 C1707 0.951 . S
H1683 C1709 0.950 . S
H1684 C1710 0.950 . S
H1685 C1712 0.950 . S
H1686 C1715 0.950 . S
H1687 C1716 0.950 . S
H1688 C1718 0.950 . S
H1689 C1719 0.950 . S
C1690 H1672 0.951 . S
C1690 C1691 1.366 . S
C1690 C1692 1.388 . S
C1691 C1690 1.366 . S
C1691 C1695 1.385 . S
C1692 H1673 0.951 . S
C1692 C1690 1.388 . S
C1692 C1693 1.366 . S
C1693 C1692 1.366 . S
C1693 C1694 1.414 . S
C1693 C1696 1.499 . S
C1694 H1674 0.950 . S
C1694 C1693 1.414 . S
C1694 C1695 1.374 . S
C1695 H1675 0.950 . S
C1695 C1691 1.385 . S
C1695 C1694 1.374 . S
C1696 C1693 1.499 . S
C1696 C1697 1.373 . S
C1696 C1698 1.389 . S
C1697 H1676 0.950 . S
C1697 C1696 1.373 . S
C1697 C1713 1.377 . S
C1698 C1696 1.389 . S
C1698 C1699 1.524 . S
C1698 C1712 1.377 . S
C1699 C1698 1.524 . S
C1699 C1700 1.397 . S
C1699 C1704 1.363 . S
C1700 H1677 0.950 . S
C1700 C1699 1.397 . S
C1700 C1701 1.334 . S
C1701 H1678 0.950 . S
C1701 C1700 1.334 . S
C1701 C1702 1.287 . S
C1702 C1701 1.287 . S
C1702 C1703 1.524 . S
C1702 H1721 0.913 . S
C1703 H1679 0.950 . S
C1703 C1702 1.524 . S
C1703 C1704 1.415 . S
C1704 H1680 0.950 . S
C1704 C1699 1.363 . S
C1704 C1703 1.415 . S
C1705 H1681 0.951 . S
C1705 C1706 1.366 . S
C1705 C1707 1.388 . S
C1706 C1705 1.366 . S
C1706 C1710 1.385 . S
C1707 H1682 0.951 . S
C1707 C1705 1.388 . S
C1707 C1708 1.366 . S
C1708 C1707 1.366 . S
C1708 C1709 1.414 . S
C1708 C1711 1.499 . S
C1709 H1683 0.950 . S
C1709 C1708 1.414 . S
C1709 C1710 1.374 . S
C1710 H1684 0.950 . S
C1710 C1706 1.385 . S
C1710 C1709 1.374 . S
C1711 C1708 1.499 . S
C1711 C1712 1.373 . S
C1711 C1713 1.389 . S
C1712 H1685 0.950 . S
C1712 C1698 1.377 . S
C1712 C1711 1.373 . S
C1713 C1697 1.377 . S
C1713 C1711 1.389 . S
C1713 C1714 1.524 . S
C1714 C1713 1.524 . S
C1714 C1715 1.397 . S
C1714 C1719 1.363 . S
C1715 H1686 0.950 . S
C1715 C1714 1.397 . S
C1715 C1716 1.334 . S
C1716 H1687 0.950 . S
C1716 C1715 1.334 . S
C1716 C1717 1.287 . S
C1717 C1716 1.287 . S
C1717 C1718 1.524 . S
C1717 H1720 0.999 . S
C1718 H1688 0.950 . S
C1718 C1717 1.524 . S
C1718 C1719 1.415 . S
C1719 H1689 0.950 . S
C1719 C1714 1.363 . S
C1719 C1718 1.415 . S
H1720 C1717 0.999 . S
H1721 C1702 0.913 . S
H1722 C1740 0.951 . S
H1723 C1742 0.951 . S
H1724 C1744 0.950 . S
H1725 C1745 0.950 . S
H1726 C1747 0.950 . S
H1727 C1750 0.950 . S
H1728 C1751 0.950 . S
H1729 C1753 0.950 . S
H1730 C1754 0.950 . S
H1731 C1755 0.951 . S
H1732 C1757 0.951 . S
H1733 C1759 0.950 . S
H1734 C1760 0.950 . S
H1735 C1762 0.950 . S
H1736 C1765 0.950 . S
H1737 C1766 0.950 . S
H1738 C1768 0.950 . S
H1739 C1769 0.950 . S
C1740 H1722 0.951 . S
C1740 C1741 1.366 . S
C1740 C1742 1.388 . S
C1741 C1740 1.366 . S
C1741 C1745 1.385 . S
C1742 H1723 0.951 . S
C1742 C1740 1.388 . S
C1742 C1743 1.366 . S
C1743 C1742 1.366 . S
C1743 C1744 1.414 . S
C1743 C1746 1.499 . S
C1744 H1724 0.950 . S
C1744 C1743 1.414 . S
C1744 C1745 1.374 . S
C1745 H1725 0.950 . S
C1745 C1741 1.385 . S
C1745 C1744 1.374 . S
C1746 C1743 1.499 . S
C1746 C1747 1.373 . S
C1746 C1748 1.389 . S
C1747 H1726 0.950 . S
C1747 C1746 1.373 . S
C1747 C1763 1.377 . S
C1748 C1746 1.389 . S
C1748 C1749 1.524 . S
C1748 C1762 1.377 . S
C1749 C1748 1.524 . S
C1749 C1750 1.397 . S
C1749 C1754 1.363 . S
C1750 H1727 0.950 . S
C1750 C1749 1.397 . S
C1750 C1751 1.334 . S
C1751 H1728 0.950 . S
C1751 C1750 1.334 . S
C1751 C1752 1.287 . S
C1752 C1751 1.287 . S
C1752 C1753 1.524 . S
C1752 H1771 0.913 . S
C1753 H1729 0.950 . S
C1753 C1752 1.524 . S
C1753 C1754 1.415 . S
C1754 H1730 0.950 . S
C1754 C1749 1.363 . S
C1754 C1753 1.415 . S
C1755 H1731 0.951 . S
C1755 C1756 1.366 . S
C1755 C1757 1.388 . S
C1756 C1755 1.366 . S
C1756 C1760 1.385 . S
C1757 H1732 0.951 . S
C1757 C1755 1.388 . S
C1757 C1758 1.366 . S
C1758 C1757 1.366 . S
C1758 C1759 1.414 . S
C1758 C1761 1.499 . S
C1759 H1733 0.950 . S
C1759 C1758 1.414 . S
C1759 C1760 1.374 . S
C1760 H1734 0.950 . S
C1760 C1756 1.385 . S
C1760 C1759 1.374 . S
C1761 C1758 1.499 . S
C1761 C1762 1.373 . S
C1761 C1763 1.389 . S
C1762 H1735 0.950 . S
C1762 C1748 1.377 . S
C1762 C1761 1.373 . S
C1763 C1747 1.377 . S
C1763 C1761 1.389 . S
C1763 C1764 1.524 . S
C1764 C1763 1.524 . S
C1764 C1765 1.397 . S
C1764 C1769 1.363 . S
C1765 H1736 0.950 . S
C1765 C1764 1.397 . S
C1765 C1766 1.334 . S
C1766 H1737 0.950 . S
C1766 C1765 1.334 . S
C1766 C1767 1.287 . S
C1767 C1766 1.287 . S
C1767 C1768 1.524 . S
C1767 H1770 0.999 . S
C1768 H1738 0.950 . S
C1768 C1767 1.524 . S
C1768 C1769 1.415 . S
C1769 H1739 0.950 . S
C1769 C1764 1.363 . S
C1769 C1768 1.415 . S
H1770 C1767 0.999 . S
H1771 C1752 0.913 . S
H1772 C1790 0.951 . S
H1773 C1792 0.951 . S
H1774 C1794 0.950 . S
H1775 C1795 0.950 . S
H1776 C1797 0.950 . S
H1777 C1800 0.950 . S
H1778 C1801 0.950 . S
H1779 C1803 0.950 . S
H1780 C1804 0.950 . S
H1781 C1805 0.951 . S
H1782 C1807 0.951 . S
H1783 C1809 0.950 . S
H1784 C1810 0.950 . S
H1785 C1812 0.950 . S
H1786 C1815 0.950 . S
H1787 C1816 0.950 . S
H1788 C1818 0.950 . S
H1789 C1819 0.950 . S
C1790 H1772 0.951 . S
C1790 C1791 1.366 . S
C1790 C1792 1.388 . S
C1791 C1790 1.366 . S
C1791 C1795 1.385 . S
C1792 H1773 0.951 . S
C1792 C1790 1.388 . S
C1792 C1793 1.366 . S
C1793 C1792 1.366 . S
C1793 C1794 1.414 . S
C1793 C1796 1.499 . S
C1794 H1774 0.950 . S
C1794 C1793 1.414 . S
C1794 C1795 1.374 . S
C1795 H1775 0.950 . S
C1795 C1791 1.385 . S
C1795 C1794 1.374 . S
C1796 C1793 1.499 . S
C1796 C1797 1.373 . S
C1796 C1798 1.389 . S
C1797 H1776 0.950 . S
C1797 C1796 1.373 . S
C1797 C1813 1.377 . S
C1798 C1796 1.389 . S
C1798 C1799 1.524 1_655 S
C1798 C1812 1.377 . S
C1799 C1798 1.524 1_455 S
C1799 C1800 1.397 . S
C1799 C1804 1.363 . S
C1800 H1777 0.950 . S
C1800 C1799 1.397 . S
C1800 C1801 1.334 . S
C1801 H1778 0.950 . S
C1801 C1800 1.334 . S
C1801 C1802 1.287 . S
C1802 C1801 1.287 . S
C1802 C1803 1.524 . S
C1802 H1821 0.913 . S
C1803 H1779 0.950 . S
C1803 C1802 1.524 . S
C1803 C1804 1.415 . S
C1804 H1780 0.950 . S
C1804 C1799 1.363 . S
C1804 C1803 1.415 . S
C1805 H1781 0.951 . S
C1805 C1806 1.366 . S
C1805 C1807 1.388 . S
C1806 C1805 1.366 . S
C1806 C1810 1.385 . S
C1807 H1782 0.951 . S
C1807 C1805 1.388 . S
C1807 C1808 1.366 . S
C1808 C1807 1.366 . S
C1808 C1809 1.414 . S
C1808 C1811 1.499 . S
C1809 H1783 0.950 . S
C1809 C1808 1.414 . S
C1809 C1810 1.374 . S
C1810 H1784 0.950 . S
C1810 C1806 1.385 . S
C1810 C1809 1.374 . S
C1811 C1808 1.499 . S
C1811 C1812 1.373 . S
C1811 C1813 1.389 . S
C1812 H1785 0.950 . S
C1812 C1798 1.377 . S
C1812 C1811 1.373 . S
C1813 C1797 1.377 . S
C1813 C1811 1.389 . S
C1813 C1814 1.524 . S
C1814 C1813 1.524 . S
C1814 C1815 1.397 . S
C1814 C1819 1.363 . S
C1815 H1786 0.950 . S
C1815 C1814 1.397 . S
C1815 C1816 1.334 . S
C1816 H1787 0.950 . S
C1816 C1815 1.334 . S
C1816 C1817 1.287 . S
C1817 C1816 1.287 . S
C1817 C1818 1.524 . S
C1817 H1820 0.999 . S
C1818 H1788 0.950 . S
C1818 C1817 1.524 . S
C1818 C1819 1.415 . S
C1819 H1789 0.950 . S
C1819 C1814 1.363 . S
C1819 C1818 1.415 . S
H1820 C1817 0.999 . S
H1821 C1802 0.913 . S
H1822 C1840 0.951 . S
H1823 C1842 0.951 . S
H1824 C1844 0.950 . S
H1825 C1845 0.950 . S
H1826 C1847 0.950 . S
H1827 C1850 0.950 . S
H1828 C1851 0.950 . S
H1829 C1853 0.950 . S
H1830 C1854 0.950 . S
H1831 C1855 0.951 . S
H1832 C1857 0.951 . S
H1833 C1859 0.950 . S
H1834 C1860 0.950 . S
H1835 C1862 0.950 . S
H1836 C1865 0.950 . S
H1837 C1866 0.950 . S
H1838 C1868 0.950 . S
H1839 C1869 0.950 . S
C1840 H1822 0.951 . S
C1840 C1841 1.366 . S
C1840 C1842 1.388 . S
C1841 C1840 1.366 . S
C1841 C1845 1.385 . S
C1842 H1823 0.951 . S
C1842 C1840 1.388 . S
C1842 C1843 1.366 . S
C1843 C1842 1.366 . S
C1843 C1844 1.414 . S
C1843 C1846 1.499 . S
C1844 H1824 0.950 . S
C1844 C1843 1.414 . S
C1844 C1845 1.374 . S
C1845 H1825 0.950 . S
C1845 C1841 1.385 . S
C1845 C1844 1.374 . S
C1846 C1843 1.499 . S
C1846 C1847 1.373 . S
C1846 C1848 1.389 . S
C1847 H1826 0.950 . S
C1847 C1846 1.373 . S
C1847 C1863 1.377 . S
C1848 C1846 1.389 . S
C1848 C1849 1.524 . S
C1848 C1862 1.377 . S
C1849 C1848 1.524 . S
C1849 C1850 1.397 . S
C1849 C1854 1.363 . S
C1850 H1827 0.950 . S
C1850 C1849 1.397 . S
C1850 C1851 1.334 . S
C1851 H1828 0.950 . S
C1851 C1850 1.334 . S
C1851 C1852 1.287 . S
C1852 C1851 1.287 . S
C1852 C1853 1.524 . S
C1852 H1871 0.913 . S
C1853 H1829 0.950 . S
C1853 C1852 1.524 . S
C1853 C1854 1.415 . S
C1854 H1830 0.950 . S
C1854 C1849 1.363 . S
C1854 C1853 1.415 . S
C1855 H1831 0.951 . S
C1855 C1856 1.366 . S
C1855 C1857 1.388 . S
C1856 C1855 1.366 . S
C1856 C1860 1.385 . S
C1857 H1832 0.951 . S
C1857 C1855 1.388 . S
C1857 C1858 1.366 . S
C1858 C1857 1.366 . S
C1858 C1859 1.414 . S
C1858 C1861 1.499 . S
C1859 H1833 0.950 . S
C1859 C1858 1.414 . S
C1859 C1860 1.374 . S
C1860 H1834 0.950 . S
C1860 C1856 1.385 . S
C1860 C1859 1.374 . S
C1861 C1858 1.499 . S
C1861 C1862 1.373 . S
C1861 C1863 1.389 . S
C1862 H1835 0.950 . S
C1862 C1848 1.377 . S
C1862 C1861 1.373 . S
C1863 C1847 1.377 . S
C1863 C1861 1.389 . S
C1863 C1864 1.524 . S
C1864 C1863 1.524 . S
C1864 C1865 1.397 . S
C1864 C1869 1.363 1_565 S
C1865 H1836 0.950 . S
C1865 C1864 1.397 . S
C1865 C1866 1.334 1_565 S
C1866 H1837 0.950 . S
C1866 C1865 1.334 1_545 S
C1866 C1867 1.287 . S
C1867 C1866 1.287 . S
C1867 C1868 1.524 . S
C1867 H1870 0.999 . S
C1868 H1838 0.950 . S
C1868 C1867 1.524 . S
C1868 C1869 1.415 . S
C1869 H1839 0.950 . S
C1869 C1864 1.363 1_545 S
C1869 C1868 1.415 . S
H1870 C1867 0.999 . S
H1871 C1852 0.913 . S
H1872 C1890 0.951 . S
H1873 C1892 0.951 . S
H1874 C1894 0.950 . S
H1875 C1895 0.950 . S
H1876 C1897 0.950 . S
H1877 C1900 0.950 . S
H1878 C1901 0.950 . S
H1879 C1903 0.950 . S
H1880 C1904 0.950 . S
H1881 C1905 0.951 . S
H1882 C1907 0.951 . S
H1883 C1909 0.950 . S
H1884 C1910 0.950 . S
H1885 C1912 0.950 . S
H1886 C1915 0.950 . S
H1887 C1916 0.950 . S
H1888 C1918 0.950 . S
H1889 C1919 0.950 . S
C1890 H1872 0.951 . S
C1890 C1891 1.366 . S
C1890 C1892 1.388 . S
C1891 C1890 1.366 . S
C1891 C1895 1.385 . S
C1892 H1873 0.951 . S
C1892 C1890 1.388 . S
C1892 C1893 1.366 . S
C1893 C1892 1.366 . S
C1893 C1894 1.414 . S
C1893 C1896 1.499 . S
C1894 H1874 0.950 . S
C1894 C1893 1.414 . S
C1894 C1895 1.374 . S
C1895 H1875 0.950 . S
C1895 C1891 1.385 . S
C1895 C1894 1.374 . S
C1896 C1893 1.499 . S
C1896 C1897 1.373 . S
C1896 C1898 1.389 . S
C1897 H1876 0.950 . S
C1897 C1896 1.373 . S
C1897 C1913 1.377 . S
C1898 C1896 1.389 . S
C1898 C1899 1.524 . S
C1898 C1912 1.377 . S
C1899 C1898 1.524 . S
C1899 C1900 1.397 . S
C1899 C1904 1.363 . S
C1900 H1877 0.950 . S
C1900 C1899 1.397 . S
C1900 C1901 1.334 . S
C1901 H1878 0.950 . S
C1901 C1900 1.334 . S
C1901 C1902 1.287 . S
C1902 C1901 1.287 . S
C1902 C1903 1.524 . S
C1902 H1921 0.913 . S
C1903 H1879 0.950 . S
C1903 C1902 1.524 . S
C1903 C1904 1.415 . S
C1904 H1880 0.950 . S
C1904 C1899 1.363 . S
C1904 C1903 1.415 . S
C1905 H1881 0.951 . S
C1905 C1906 1.366 . S
C1905 C1907 1.388 . S
C1906 C1905 1.366 . S
C1906 C1910 1.385 . S
C1907 H1882 0.951 . S
C1907 C1905 1.388 . S
C1907 C1908 1.366 . S
C1908 C1907 1.366 . S
C1908 C1909 1.414 . S
C1908 C1911 1.499 . S
C1909 H1883 0.950 . S
C1909 C1908 1.414 . S
C1909 C1910 1.374 . S
C1910 H1884 0.950 . S
C1910 C1906 1.385 . S
C1910 C1909 1.374 . S
C1911 C1908 1.499 . S
C1911 C1912 1.373 . S
C1911 C1913 1.389 . S
C1912 H1885 0.950 . S
C1912 C1898 1.377 . S
C1912 C1911 1.373 . S
C1913 C1897 1.377 . S
C1913 C1911 1.389 . S
C1913 C1914 1.524 . S
C1914 C1913 1.524 . S
C1914 C1915 1.397 . S
C1914 C1919 1.363 . S
C1915 H1886 0.950 . S
C1915 C1914 1.397 . S
C1915 C1916 1.334 . S
C1916 H1887 0.950 . S
C1916 C1915 1.334 . S
C1916 C1917 1.287 . S
C1917 C1916 1.287 . S
C1917 C1918 1.524 . S
C1917 H1920 0.999 . S
C1918 H1888 0.950 . S
C1918 C1917 1.524 . S
C1918 C1919 1.415 . S
C1919 H1889 0.950 . S
C1919 C1914 1.363 . S
C1919 C1918 1.415 . S
H1920 C1917 0.999 . S
H1921 C1902 0.913 . S
H1922 C1940 0.951 . S
H1923 C1942 0.951 . S
H1924 C1944 0.950 . S
H1925 C1945 0.950 1_455 S
H1926 C1947 0.950 . S
H1927 C1950 0.950 . S
H1928 C1951 0.950 . S
H1929 C1953 0.950 . S
H1930 C1954 0.950 . S
H1931 C1955 0.951 . S
H1932 C1957 0.951 . S
H1933 C1959 0.950 . S
H1934 C1960 0.950 . S
H1935 C1962 0.950 . S
H1936 C1965 0.950 . S
H1937 C1966 0.950 . S
H1938 C1968 0.950 . S
H1939 C1969 0.950 . S
C1940 H1922 0.951 . S
C1940 C1941 1.366 . S
C1940 C1942 1.388 . S
C1941 C1940 1.366 . S
C1941 C1945 1.385 . S
C1942 H1923 0.951 . S
C1942 C1940 1.388 . S
C1942 C1943 1.366 . S
C1943 C1942 1.366 . S
C1943 C1944 1.414 . S
C1943 C1946 1.499 . S
C1944 H1924 0.950 . S
C1944 C1943 1.414 . S
C1944 C1945 1.374 . S
C1945 H1925 0.950 1_655 S
C1945 C1941 1.385 . S
C1945 C1944 1.374 . S
C1946 C1943 1.499 . S
C1946 C1947 1.373 . S
C1946 C1948 1.389 . S
C1947 H1926 0.950 . S
C1947 C1946 1.373 . S
C1947 C1963 1.377 . S
C1948 C1946 1.389 . S
C1948 C1949 1.524 . S
C1948 C1962 1.377 . S
C1949 C1948 1.524 . S
C1949 C1950 1.397 . S
C1949 C1954 1.363 . S
C1950 H1927 0.950 . S
C1950 C1949 1.397 . S
C1950 C1951 1.334 . S
C1951 H1928 0.950 . S
C1951 C1950 1.334 . S
C1951 C1952 1.287 . S
C1952 C1951 1.287 . S
C1952 C1953 1.524 . S
C1952 H1971 0.913 . S
C1953 H1929 0.950 . S
C1953 C1952 1.524 . S
C1953 C1954 1.415 . S
C1954 H1930 0.950 . S
C1954 C1949 1.363 . S
C1954 C1953 1.415 . S
C1955 H1931 0.951 . S
C1955 C1956 1.366 . S
C1955 C1957 1.388 . S
C1956 C1955 1.366 . S
C1956 C1960 1.385 . S
C1957 H1932 0.951 . S
C1957 C1955 1.388 . S
C1957 C1958 1.366 . S
C1958 C1957 1.366 . S
C1958 C1959 1.414 . S
C1958 C1961 1.499 . S
C1959 H1933 0.950 . S
C1959 C1958 1.414 . S
C1959 C1960 1.374 . S
C1960 H1934 0.950 . S
C1960 C1956 1.385 . S
C1960 C1959 1.374 . S
C1961 C1958 1.499 . S
C1961 C1962 1.373 . S
C1961 C1963 1.389 . S
C1962 H1935 0.950 . S
C1962 C1948 1.377 . S
C1962 C1961 1.373 . S
C1963 C1947 1.377 . S
C1963 C1961 1.389 . S
C1963 C1964 1.524 . S
C1964 C1963 1.524 . S
C1964 C1965 1.397 . S
C1964 C1969 1.363 1_565 S
C1965 H1936 0.950 . S
C1965 C1964 1.397 . S
C1965 C1966 1.334 1_565 S
C1966 H1937 0.950 . S
C1966 C1965 1.334 1_545 S
C1966 C1967 1.287 . S
C1967 C1966 1.287 . S
C1967 C1968 1.524 . S
C1967 H1970 0.999 . S
C1968 H1938 0.950 . S
C1968 C1967 1.524 . S
C1968 C1969 1.415 . S
C1969 H1939 0.950 . S
C1969 C1964 1.363 1_545 S
C1969 C1968 1.415 . S
H1970 C1967 0.999 . S
H1971 C1952 0.913 . S
H1972 C1990 0.951 . S
H1973 C1992 0.951 . S
H1974 C1994 0.950 . S
H1975 C1995 0.950 . S
H1976 C1997 0.950 . S
H1977 C2000 0.950 . S
H1978 C2001 0.950 . S
H1979 C2003 0.950 . S
H1980 C2004 0.950 . S
H1981 C2005 0.951 . S
H1982 C2007 0.951 . S
H1983 C2009 0.950 . S
H1984 C2010 0.950 . S
H1985 C2012 0.950 . S
H1986 C2015 0.950 . S
H1987 C2016 0.950 . S
H1988 C2018 0.950 . S
H1989 C2019 0.950 . S
C1990 H1972 0.951 . S
C1990 C1991 1.366 . S
C1990 C1992 1.388 . S
C1991 C1990 1.366 . S
C1991 C1995 1.385 . S
C1992 H1973 0.951 . S
C1992 C1990 1.388 . S
C1992 C1993 1.366 . S
C1993 C1992 1.366 . S
C1993 C1994 1.414 . S
C1993 C1996 1.499 . S
C1994 H1974 0.950 . S
C1994 C1993 1.414 . S
C1994 C1995 1.374 . S
C1995 H1975 0.950 . S
C1995 C1991 1.385 . S
C1995 C1994 1.374 . S
C1996 C1993 1.499 . S
C1996 C1997 1.373 . S
C1996 C1998 1.389 . S
C1997 H1976 0.950 . S
C1997 C1996 1.373 . S
C1997 C2013 1.377 . S
C1998 C1996 1.389 . S
C1998 C1999 1.524 . S
C1998 C2012 1.377 . S
C1999 C1998 1.524 . S
C1999 C2000 1.397 . S
C1999 C2004 1.363 . S
C2000 H1977 0.950 . S
C2000 C1999 1.397 . S
C2000 C2001 1.334 . S
C2001 H1978 0.950 . S
C2001 C2000 1.334 . S
C2001 C2002 1.287 . S
C2002 C2001 1.287 . S
C2002 C2003 1.524 . S
C2002 H2021 0.913 . S
C2003 H1979 0.950 . S
C2003 C2002 1.524 . S
C2003 C2004 1.415 . S
C2004 H1980 0.950 . S
C2004 C1999 1.363 . S
C2004 C2003 1.415 . S
C2005 H1981 0.951 . S
C2005 C2006 1.366 . S
C2005 C2007 1.388 . S
C2006 C2005 1.366 . S
C2006 C2010 1.385 . S
C2007 H1982 0.951 . S
C2007 C2005 1.388 . S
C2007 C2008 1.366 . S
C2008 C2007 1.366 . S
C2008 C2009 1.414 . S
C2008 C2011 1.499 . S
C2009 H1983 0.950 . S
C2009 C2008 1.414 . S
C2009 C2010 1.374 . S
C2010 H1984 0.950 . S
C2010 C2006 1.385 . S
C2010 C2009 1.374 . S
C2011 C2008 1.499 . S
C2011 C2012 1.373 . S
C2011 C2013 1.389 . S
C2012 H1985 0.950 . S
C2012 C1998 1.377 . S
C2012 C2011 1.373 . S
C2013 C1997 1.377 . S
C2013 C2011 1.389 . S
C2013 C2014 1.524 . S
C2014 C2013 1.524 . S
C2014 C2015 1.397 . S
C2014 C2019 1.363 . S
C2015 H1986 0.950 . S
C2015 C2014 1.397 . S
C2015 C2016 1.334 . S
C2016 H1987 0.950 . S
C2016 C2015 1.334 . S
C2016 C2017 1.287 . S
C2017 C2016 1.287 . S
C2017 C2018 1.524 . S
C2017 H2020 0.999 . S
C2018 H1988 0.950 . S
C2018 C2017 1.524 . S
C2018 C2019 1.415 . S
C2019 H1989 0.950 . S
C2019 C2014 1.363 . S
C2019 C2018 1.415 . S
H2020 C2017 0.999 . S
H2021 C2002 0.913 . S
H2022 C2040 0.951 1_556 S
H2023 C2042 0.951 . S
H2024 C2044 0.950 . S
H2025 C2045 0.950 . S
H2026 C2047 0.950 . S
H2027 C2050 0.950 . S
H2028 C2051 0.950 . S
H2029 C2053 0.950 . S
H2030 C2054 0.950 . S
H2031 C2055 0.951 . S
H2032 C2057 0.951 . S
H2033 C2059 0.950 . S
H2034 C2060 0.950 . S
H2035 C2062 0.950 . S
H2036 C2065 0.950 . S
H2037 C2066 0.950 . S
H2038 C2068 0.950 . S
H2039 C2069 0.950 . S
C2040 H2022 0.951 1_554 S
C2040 C2041 1.366 . S
C2040 C2042 1.388 . S
C2041 C2040 1.366 . S
C2041 C2045 1.385 . S
C2042 H2023 0.951 . S
C2042 C2040 1.388 . S
C2042 C2043 1.366 . S
C2043 C2042 1.366 . S
C2043 C2044 1.414 . S
C2043 C2046 1.499 . S
C2044 H2024 0.950 . S
C2044 C2043 1.414 . S
C2044 C2045 1.374 . S
C2045 H2025 0.950 . S
C2045 C2041 1.385 . S
C2045 C2044 1.374 . S
C2046 C2043 1.499 . S
C2046 C2047 1.373 . S
C2046 C2048 1.389 . S
C2047 H2026 0.950 . S
C2047 C2046 1.373 . S
C2047 C2063 1.377 . S
C2048 C2046 1.389 . S
C2048 C2049 1.524 . S
C2048 C2062 1.377 . S
C2049 C2048 1.524 . S
C2049 C2050 1.397 . S
C2049 C2054 1.363 . S
C2050 H2027 0.950 . S
C2050 C2049 1.397 . S
C2050 C2051 1.334 . S
C2051 H2028 0.950 . S
C2051 C2050 1.334 . S
C2051 C2052 1.287 . S
C2052 C2051 1.287 . S
C2052 C2053 1.524 . S
C2052 H2071 0.913 . S
C2053 H2029 0.950 . S
C2053 C2052 1.524 . S
C2053 C2054 1.415 . S
C2054 H2030 0.950 . S
C2054 C2049 1.363 . S
C2054 C2053 1.415 . S
C2055 H2031 0.951 . S
C2055 C2056 1.366 . S
C2055 C2057 1.388 . S
C2056 C2055 1.366 . S
C2056 C2060 1.385 . S
C2057 H2032 0.951 . S
C2057 C2055 1.388 . S
C2057 C2058 1.366 . S
C2058 C2057 1.366 . S
C2058 C2059 1.414 . S
C2058 C2061 1.499 . S
C2059 H2033 0.950 . S
C2059 C2058 1.414 . S
C2059 C2060 1.374 . S
C2060 H2034 0.950 . S
C2060 C2056 1.385 . S
C2060 C2059 1.374 . S
C2061 C2058 1.499 . S
C2061 C2062 1.373 . S
C2061 C2063 1.389 . S
C2062 H2035 0.950 . S
C2062 C2048 1.377 . S
C2062 C2061 1.373 . S
C2063 C2047 1.377 . S
C2063 C2061 1.389 . S
C2063 C2064 1.524 . S
C2064 C2063 1.524 . S
C2064 C2065 1.397 . S
C2064 C2069 1.363 . S
C2065 H2036 0.950 . S
C2065 C2064 1.397 . S
C2065 C2066 1.334 1_545 S
C2066 H2037 0.950 . S
C2066 C2065 1.334 1_565 S
C2066 C2067 1.287 . S
C2067 C2066 1.287 . S
C2067 C2068 1.524 . S
C2067 H2070 0.999 . S
C2068 H2038 0.950 . S
C2068 C2067 1.524 . S
C2068 C2069 1.415 1_565 S
C2069 H2039 0.950 . S
C2069 C2064 1.363 . S
C2069 C2068 1.415 1_545 S
H2070 C2067 0.999 . S
H2071 C2052 0.913 . S
H2072 C2090 0.951 . S
H2073 C2092 0.951 . S
H2074 C2094 0.950 . S
H2075 C2095 0.950 . S
H2076 C2097 0.950 . S
H2077 C2100 0.950 . S
H2078 C2101 0.950 . S
H2079 C2103 0.950 . S
H2080 C2104 0.950 . S
H2081 C2105 0.951 . S
H2082 C2107 0.951 . S
H2083 C2109 0.950 . S
H2084 C2110 0.950 . S
H2085 C2112 0.950 . S
H2086 C2115 0.950 . S
H2087 C2116 0.950 . S
H2088 C2118 0.950 . S
H2089 C2119 0.950 . S
C2090 H2072 0.951 . S
C2090 C2091 1.366 . S
C2090 C2092 1.388 . S
C2091 C2090 1.366 . S
C2091 C2095 1.385 . S
C2092 H2073 0.951 . S
C2092 C2090 1.388 . S
C2092 C2093 1.366 . S
C2093 C2092 1.366 . S
C2093 C2094 1.414 . S
C2093 C2096 1.499 . S
C2094 H2074 0.950 . S
C2094 C2093 1.414 . S
C2094 C2095 1.374 . S
C2095 H2075 0.950 . S
C2095 C2091 1.385 . S
C2095 C2094 1.374 . S
C2096 C2093 1.499 . S
C2096 C2097 1.373 . S
C2096 C2098 1.389 . S
C2097 H2076 0.950 . S
C2097 C2096 1.373 . S
C2097 C2113 1.377 . S
C2098 C2096 1.389 . S
C2098 C2099 1.524 . S
C2098 C2112 1.377 . S
C2099 C2098 1.524 . S
C2099 C2100 1.397 . S
C2099 C2104 1.363 . S
C2100 H2077 0.950 . S
C2100 C2099 1.397 . S
C2100 C2101 1.334 . S
C2101 H2078 0.950 . S
C2101 C2100 1.334 . S
C2101 C2102 1.287 . S
C2102 C2101 1.287 . S
C2102 C2103 1.524 . S
C2102 H2121 0.913 . S
C2103 H2079 0.950 . S
C2103 C2102 1.524 . S
C2103 C2104 1.415 . S
C2104 H2080 0.950 . S
C2104 C2099 1.363 . S
C2104 C2103 1.415 . S
C2105 H2081 0.951 . S
C2105 C2106 1.366 . S
C2105 C2107 1.388 . S
C2106 C2105 1.366 . S
C2106 C2110 1.385 . S
C2107 H2082 0.951 . S
C2107 C2105 1.388 . S
C2107 C2108 1.366 . S
C2108 C2107 1.366 . S
C2108 C2109 1.414 . S
C2108 C2111 1.499 . S
C2109 H2083 0.950 . S
C2109 C2108 1.414 . S
C2109 C2110 1.374 . S
C2110 H2084 0.950 . S
C2110 C2106 1.385 . S
C2110 C2109 1.374 . S
C2111 C2108 1.499 . S
C2111 C2112 1.373 . S
C2111 C2113 1.389 . S
C2112 H2085 0.950 . S
C2112 C2098 1.377 . S
C2112 C2111 1.373 . S
C2113 C2097 1.377 . S
C2113 C2111 1.389 . S
C2113 C2114 1.524 . S
C2114 C2113 1.524 . S
C2114 C2115 1.397 . S
C2114 C2119 1.363 . S
C2115 H2086 0.950 . S
C2115 C2114 1.397 . S
C2115 C2116 1.334 . S
C2116 H2087 0.950 . S
C2116 C2115 1.334 . S
C2116 C2117 1.287 . S
C2117 C2116 1.287 . S
C2117 C2118 1.524 . S
C2117 H2120 0.999 . S
C2118 H2088 0.950 . S
C2118 C2117 1.524 . S
C2118 C2119 1.415 . S
C2119 H2089 0.950 . S
C2119 C2114 1.363 . S
C2119 C2118 1.415 . S
H2120 C2117 0.999 . S
H2121 C2102 0.913 . S
H2122 C2140 0.951 . S
H2123 C2142 0.951 . S
H2124 C2144 0.950 . S
H2125 C2145 0.950 . S
H2126 C2147 0.950 . S
H2127 C2150 0.950 . S
H2128 C2151 0.950 . S
H2129 C2153 0.950 . S
H2130 C2154 0.950 . S
H2131 C2155 0.951 . S
H2132 C2157 0.951 . S
H2133 C2159 0.950 . S
H2134 C2160 0.950 . S
H2135 C2162 0.950 . S
H2136 C2165 0.950 . S
H2137 C2166 0.950 . S
H2138 C2168 0.950 . S
H2139 C2169 0.950 . S
C2140 H2122 0.951 . S
C2140 C2141 1.366 . S
C2140 C2142 1.388 . S
C2141 C2140 1.366 . S
C2141 C2145 1.385 . S
C2142 H2123 0.951 . S
C2142 C2140 1.388 . S
C2142 C2143 1.366 . S
C2143 C2142 1.366 . S
C2143 C2144 1.414 . S
C2143 C2146 1.499 . S
C2144 H2124 0.950 . S
C2144 C2143 1.414 . S
C2144 C2145 1.374 . S
C2145 H2125 0.950 . S
C2145 C2141 1.385 . S
C2145 C2144 1.374 . S
C2146 C2143 1.499 . S
C2146 C2147 1.373 . S
C2146 C2148 1.389 . S
C2147 H2126 0.950 . S
C2147 C2146 1.373 . S
C2147 C2163 1.377 . S
C2148 C2146 1.389 . S
C2148 C2149 1.524 . S
C2148 C2162 1.377 . S
C2149 C2148 1.524 . S
C2149 C2150 1.397 . S
C2149 C2154 1.363 1_565 S
C2150 H2127 0.950 . S
C2150 C2149 1.397 . S
C2150 C2151 1.334 1_565 S
C2151 H2128 0.950 . S
C2151 C2150 1.334 1_545 S
C2151 C2152 1.287 . S
C2152 C2151 1.287 . S
C2152 C2153 1.524 . S
C2152 H2171 0.913 . S
C2153 H2129 0.950 . S
C2153 C2152 1.524 . S
C2153 C2154 1.415 . S
C2154 H2130 0.950 . S
C2154 C2149 1.363 1_545 S
C2154 C2153 1.415 . S
C2155 H2131 0.951 . S
C2155 C2156 1.366 . S
C2155 C2157 1.388 . S
C2156 C2155 1.366 . S
C2156 C2160 1.385 . S
C2157 H2132 0.951 . S
C2157 C2155 1.388 . S
C2157 C2158 1.366 . S
C2158 C2157 1.366 . S
C2158 C2159 1.414 . S
C2158 C2161 1.499 . S
C2159 H2133 0.950 . S
C2159 C2158 1.414 . S
C2159 C2160 1.374 . S
C2160 H2134 0.950 . S
C2160 C2156 1.385 . S
C2160 C2159 1.374 . S
C2161 C2158 1.499 . S
C2161 C2162 1.373 . S
C2161 C2163 1.389 . S
C2162 H2135 0.950 . S
C2162 C2148 1.377 . S
C2162 C2161 1.373 . S
C2163 C2147 1.377 . S
C2163 C2161 1.389 . S
C2163 C2164 1.524 . S
C2164 C2163 1.524 . S
C2164 C2165 1.397 . S
C2164 C2169 1.363 . S
C2165 H2136 0.950 . S
C2165 C2164 1.397 . S
C2165 C2166 1.334 . S
C2166 H2137 0.950 . S
C2166 C2165 1.334 . S
C2166 C2167 1.287 . S
C2167 C2166 1.287 . S
C2167 C2168 1.524 . S
C2167 H2170 0.999 . S
C2168 H2138 0.950 . S
C2168 C2167 1.524 . S
C2168 C2169 1.415 . S
C2169 H2139 0.950 . S
C2169 C2164 1.363 . S
C2169 C2168 1.415 . S
H2170 C2167 0.999 . S
H2171 C2152 0.913 . S
H2172 C2190 0.951 . S
H2173 C2192 0.951 . S
H2174 C2194 0.950 . S
H2175 C2195 0.950 . S
H2176 C2197 0.950 . S
H2177 C2200 0.950 . S
H2178 C2201 0.950 . S
H2179 C2203 0.950 . S
H2180 C2204 0.950 . S
H2181 C2205 0.951 . S
H2182 C2207 0.951 . S
H2183 C2209 0.950 . S
H2184 C2210 0.950 . S
H2185 C2212 0.950 . S
H2186 C2215 0.950 . S
H2187 C2216 0.950 . S
H2188 C2218 0.950 . S
H2189 C2219 0.950 . S
C2190 H2172 0.951 . S
C2190 C2191 1.366 . S
C2190 C2192 1.388 . S
C2191 C2190 1.366 . S
C2191 C2195 1.385 . S
C2192 H2173 0.951 . S
C2192 C2190 1.388 . S
C2192 C2193 1.366 . S
C2193 C2192 1.366 . S
C2193 C2194 1.414 . S
C2193 C2196 1.499 . S
C2194 H2174 0.950 . S
C2194 C2193 1.414 . S
C2194 C2195 1.374 . S
C2195 H2175 0.950 . S
C2195 C2191 1.385 . S
C2195 C2194 1.374 . S
C2196 C2193 1.499 . S
C2196 C2197 1.373 . S
C2196 C2198 1.389 . S
C2197 H2176 0.950 . S
C2197 C2196 1.373 . S
C2197 C2213 1.377 . S
C2198 C2196 1.389 . S
C2198 C2199 1.524 . S
C2198 C2212 1.377 . S
C2199 C2198 1.524 . S
C2199 C2200 1.397 . S
C2199 C2204 1.363 . S
C2200 H2177 0.950 . S
C2200 C2199 1.397 . S
C2200 C2201 1.334 . S
C2201 H2178 0.950 . S
C2201 C2200 1.334 . S
C2201 C2202 1.287 . S
C2202 C2201 1.287 . S
C2202 C2203 1.524 . S
C2202 H2221 0.913 . S
C2203 H2179 0.950 . S
C2203 C2202 1.524 . S
C2203 C2204 1.415 . S
C2204 H2180 0.950 . S
C2204 C2199 1.363 . S
C2204 C2203 1.415 . S
C2205 H2181 0.951 . S
C2205 C2206 1.366 . S
C2205 C2207 1.388 . S
C2206 C2205 1.366 . S
C2206 C2210 1.385 . S
C2207 H2182 0.951 . S
C2207 C2205 1.388 . S
C2207 C2208 1.366 . S
C2208 C2207 1.366 . S
C2208 C2209 1.414 . S
C2208 C2211 1.499 . S
C2209 H2183 0.950 . S
C2209 C2208 1.414 . S
C2209 C2210 1.374 . S
C2210 H2184 0.950 . S
C2210 C2206 1.385 . S
C2210 C2209 1.374 . S
C2211 C2208 1.499 . S
C2211 C2212 1.373 . S
C2211 C2213 1.389 . S
C2212 H2185 0.950 . S
C2212 C2198 1.377 . S
C2212 C2211 1.373 . S
C2213 C2197 1.377 . S
C2213 C2211 1.389 . S
C2213 C2214 1.524 . S
C2214 C2213 1.524 . S
C2214 C2215 1.397 . S
C2214 C2219 1.363 . S
C2215 H2186 0.950 . S
C2215 C2214 1.397 . S
C2215 C2216 1.334 . S
C2216 H2187 0.950 . S
C2216 C2215 1.334 . S
C2216 C2217 1.287 . S
C2217 C2216 1.287 . S
C2217 C2218 1.524 . S
C2217 H2220 0.999 . S
C2218 H2188 0.950 . S
C2218 C2217 1.524 . S
C2218 C2219 1.415 . S
C2219 H2189 0.950 . S
C2219 C2214 1.363 . S
C2219 C2218 1.415 . S
H2220 C2217 0.999 . S
H2221 C2202 0.913 . S
H2222 C2240 0.951 . S
H2223 C2242 0.951 . S
H2224 C2244 0.950 . S
H2225 C2245 0.950 . S
H2226 C2247 0.950 . S
H2227 C2250 0.950 . S
H2228 C2251 0.979 . S
H2229 C2253 0.950 . S
H2230 C2254 0.950 1_565 S
H2231 C2255 0.951 . S
H2232 C2257 0.951 . S
H2233 C2259 0.950 . S
H2234 C2260 0.950 . S
H2235 C2262 0.950 . S
H2236 C2265 0.950 . S
H2237 C2266 0.950 . S
H2238 C2268 0.950 . S
H2239 C2269 0.950 . S
C2240 H2222 0.951 . S
C2240 C2241 1.366 . S
C2240 C2242 1.388 . S
C2241 C2240 1.366 . S
C2241 C2245 1.385 . S
C2242 H2223 0.951 . S
C2242 C2240 1.388 . S
C2242 C2243 1.366 . S
C2243 C2242 1.366 . S
C2243 C2244 1.414 . S
C2243 C2246 1.499 . S
C2244 H2224 0.950 . S
C2244 C2243 1.414 . S
C2244 C2245 1.374 . S
C2245 H2225 0.950 . S
C2245 C2241 1.385 . S
C2245 C2244 1.374 . S
C2246 C2243 1.499 . S
C2246 C2247 1.373 . S
C2246 C2248 1.389 . S
C2247 H2226 0.950 . S
C2247 C2246 1.373 . S
C2247 C2263 1.377 . S
C2248 C2246 1.389 . S
C2248 C2249 1.524 . S
C2248 C2262 1.377 . S
C2249 C2248 1.524 . S
C2249 C2250 1.397 . S
C2249 C2254 1.363 . S
C2250 H2227 0.950 . S
C2250 C2249 1.397 . S
C2250 C2251 1.305 1_556 S
C2251 H2228 0.979 . S
C2251 C2250 1.305 1_554 S
C2251 C2252 1.286 . S
C2252 C2251 1.286 . S
C2252 C2253 1.523 1_544 S
C2252 H2271 0.914 . S
C2253 H2229 0.950 . S
C2253 C2252 1.523 1_566 S
C2253 C2254 1.415 1_565 S
C2254 H2230 0.950 1_545 S
C2254 C2249 1.363 . S
C2254 C2253 1.415 1_545 S
C2255 H2231 0.951 . S
C2255 C2256 1.366 . S
C2255 C2257 1.388 . S
C2256 C2255 1.366 . S
C2256 C2260 1.385 . S
C2257 H2232 0.951 . S
C2257 C2255 1.388 . S
C2257 C2258 1.366 . S
C2258 C2257 1.366 . S
C2258 C2259 1.414 . S
C2258 C2261 1.499 . S
C2259 H2233 0.950 . S
C2259 C2258 1.414 . S
C2259 C2260 1.374 . S
C2260 H2234 0.950 . S
C2260 C2256 1.385 . S
C2260 C2259 1.374 . S
C2261 C2258 1.499 . S
C2261 C2262 1.373 . S
C2261 C2263 1.389 . S
C2262 H2235 0.950 . S
C2262 C2248 1.377 . S
C2262 C2261 1.373 . S
C2263 C2247 1.377 . S
C2263 C2261 1.389 . S
C2263 C2264 1.524 . S
C2264 C2263 1.524 . S
C2264 C2265 1.397 . S
C2264 C2269 1.363 . S
C2265 H2236 0.950 . S
C2265 C2264 1.397 . S
C2265 C2266 1.334 . S
C2266 H2237 0.950 . S
C2266 C2265 1.334 . S
C2266 C2267 1.287 . S
C2267 C2266 1.287 . S
C2267 C2268 1.524 . S
C2267 H2270 0.999 . S
C2268 H2238 0.950 . S
C2268 C2267 1.524 . S
C2268 C2269 1.415 . S
C2269 H2239 0.950 . S
C2269 C2264 1.363 . S
C2269 C2268 1.415 . S
H2270 C2267 0.999 . S
H2271 C2252 0.914 . S
H2272 C2290 0.951 . S
H2273 C2292 0.951 . S
H2274 C2294 0.950 . S
H2275 C2295 0.950 . S
H2276 C2297 0.950 . S
H2277 C2300 0.950 . S
H2278 C2301 0.950 . S
H2279 C2303 0.950 . S
H2280 C2304 0.950 . S
H2281 C2305 0.951 . S
H2282 C2307 0.951 . S
H2283 C2309 0.950 . S
H2284 C2310 0.950 . S
H2285 C2312 0.950 . S
H2286 C2315 0.950 . S
H2287 C2316 0.950 . S
H2288 C2318 0.950 . S
H2289 C2319 0.950 . S
C2290 H2272 0.951 . S
C2290 C2291 1.366 . S
C2290 C2292 1.388 . S
C2291 C2290 1.366 . S
C2291 C2295 1.385 . S
C2292 H2273 0.951 . S
C2292 C2290 1.388 . S
C2292 C2293 1.366 . S
C2293 C2292 1.366 . S
C2293 C2294 1.414 . S
C2293 C2296 1.499 . S
C2294 H2274 0.950 . S
C2294 C2293 1.414 . S
C2294 C2295 1.374 . S
C2295 H2275 0.950 . S
C2295 C2291 1.385 . S
C2295 C2294 1.374 . S
C2296 C2293 1.499 . S
C2296 C2297 1.373 . S
C2296 C2298 1.389 . S
C2297 H2276 0.950 . S
C2297 C2296 1.373 . S
C2297 C2313 1.377 . S
C2298 C2296 1.389 . S
C2298 C2299 1.524 . S
C2298 C2312 1.377 . S
C2299 C2298 1.524 . S
C2299 C2300 1.397 . S
C2299 C2304 1.363 . S
C2300 H2277 0.950 . S
C2300 C2299 1.397 . S
C2300 C2301 1.334 . S
C2301 H2278 0.950 . S
C2301 C2300 1.334 . S
C2301 C2302 1.287 . S
C2302 C2301 1.287 . S
C2302 C2303 1.524 . S
C2302 H2321 0.913 . S
C2303 H2279 0.950 . S
C2303 C2302 1.524 . S
C2303 C2304 1.415 . S
C2304 H2280 0.950 . S
C2304 C2299 1.363 . S
C2304 C2303 1.415 . S
C2305 H2281 0.951 . S
C2305 C2306 1.366 . S
C2305 C2307 1.388 . S
C2306 C2305 1.366 . S
C2306 C2310 1.385 . S
C2307 H2282 0.951 . S
C2307 C2305 1.388 . S
C2307 C2308 1.366 . S
C2308 C2307 1.366 . S
C2308 C2309 1.414 . S
C2308 C2311 1.499 . S
C2309 H2283 0.950 . S
C2309 C2308 1.414 . S
C2309 C2310 1.374 . S
C2310 H2284 0.950 . S
C2310 C2306 1.385 . S
C2310 C2309 1.374 . S
C2311 C2308 1.499 . S
C2311 C2312 1.373 . S
C2311 C2313 1.389 . S
C2312 H2285 0.950 . S
C2312 C2298 1.377 . S
C2312 C2311 1.373 . S
C2313 C2297 1.377 . S
C2313 C2311 1.389 . S
C2313 C2314 1.524 . S
C2314 C2313 1.524 . S
C2314 C2315 1.397 . S
C2314 C2319 1.363 . S
C2315 H2286 0.950 . S
C2315 C2314 1.397 . S
C2315 C2316 1.334 . S
C2316 H2287 0.950 . S
C2316 C2315 1.334 . S
C2316 C2317 1.287 . S
C2317 C2316 1.287 . S
C2317 C2318 1.524 . S
C2317 H2320 0.999 . S
C2318 H2288 0.950 . S
C2318 C2317 1.524 . S
C2318 C2319 1.415 . S
C2319 H2289 0.950 . S
C2319 C2314 1.363 . S
C2319 C2318 1.415 . S
H2320 C2317 0.999 . S
H2321 C2302 0.913 . S
H2322 C2340 0.951 1_565 S
H2323 C2342 0.951 . S
H2324 C2344 0.950 . S
H2325 C2345 0.950 . S
H2326 C2347 0.950 . S
H2327 C2350 0.950 . S
H2328 C2351 0.950 . S
H2329 C2353 0.950 . S
H2330 C2354 0.950 . S
H2331 C2355 0.951 . S
H2332 C2357 0.951 . S
H2333 C2359 0.950 . S
H2334 C2360 0.950 . S
H2335 C2362 0.950 . S
H2336 C2365 0.950 . S
H2337 C2366 0.950 . S
H2338 C2368 0.950 . S
H2339 C2369 0.952 1_455 S
C2340 H2322 0.951 1_545 S
C2340 C2341 1.366 . S
C2340 C2342 1.388 . S
C2341 C2340 1.366 . S
C2341 C2345 1.385 . S
C2342 H2323 0.951 . S
C2342 C2340 1.388 . S
C2342 C2343 1.366 . S
C2343 C2342 1.366 . S
C2343 C2344 1.414 . S
C2343 C2346 1.499 . S
C2344 H2324 0.950 . S
C2344 C2343 1.414 . S
C2344 C2345 1.374 . S
C2345 H2325 0.950 . S
C2345 C2341 1.385 . S
C2345 C2344 1.374 . S
C2346 C2343 1.499 . S
C2346 C2347 1.373 . S
C2346 C2348 1.389 . S
C2347 H2326 0.950 . S
C2347 C2346 1.373 . S
C2347 C2363 1.377 . S
C2348 C2346 1.389 . S
C2348 C2349 1.524 . S
C2348 C2362 1.377 . S
C2349 C2348 1.524 . S
C2349 C2350 1.397 . S
C2349 C2354 1.363 . S
C2350 H2327 0.950 . S
C2350 C2349 1.397 . S
C2350 C2351 1.334 . S
C2351 H2328 0.950 . S
C2351 C2350 1.334 . S
C2351 C2352 1.287 . S
C2352 C2351 1.287 . S
C2352 C2353 1.524 . S
C2352 H2371 0.913 . S
C2353 H2329 0.950 . S
C2353 C2352 1.524 . S
C2353 C2354 1.415 . S
C2354 H2330 0.950 . S
C2354 C2349 1.363 . S
C2354 C2353 1.415 . S
C2355 H2331 0.951 . S
C2355 C2356 1.366 . S
C2355 C2357 1.388 . S
C2356 C2355 1.366 . S
C2356 C2360 1.385 . S
C2357 H2332 0.951 . S
C2357 C2355 1.388 . S
C2357 C2358 1.366 . S
C2358 C2357 1.366 . S
C2358 C2359 1.414 . S
C2358 C2361 1.499 . S
C2359 H2333 0.950 . S
C2359 C2358 1.414 . S
C2359 C2360 1.374 . S
C2360 H2334 0.950 . S
C2360 C2356 1.385 . S
C2360 C2359 1.374 . S
C2361 C2358 1.499 . S
C2361 C2362 1.373 . S
C2361 C2363 1.389 . S
C2362 H2335 0.950 . S
C2362 C2348 1.377 . S
C2362 C2361 1.373 . S
C2363 C2347 1.377 . S
C2363 C2361 1.389 . S
C2363 C2364 1.524 . S
C2364 C2363 1.524 . S
C2364 C2365 1.397 . S
C2364 C2369 1.363 1_455 S
C2365 H2336 0.950 . S
C2365 C2364 1.397 . S
C2365 C2366 1.334 1_455 S
C2366 H2337 0.950 . S
C2366 C2365 1.334 1_655 S
C2366 C2367 1.287 . S
C2367 C2366 1.287 . S
C2367 C2368 1.524 . S
C2367 H2370 0.999 . S
C2368 H2338 0.950 . S
C2368 C2367 1.524 . S
C2368 C2369 1.415 . S
C2369 H2339 0.952 1_655 S
C2369 C2364 1.363 1_655 S
C2369 C2368 1.415 . S
H2370 C2367 0.999 . S
H2371 C2352 0.913 . S
H2372 C2390 0.951 . S
H2373 C2392 0.951 . S
H2374 C2394 0.950 . S
H2375 C2395 0.950 . S
H2376 C2397 0.950 . S
H2377 C2400 0.950 . S
H2378 C2401 0.950 . S
H2379 C2403 0.950 . S
H2380 C2404 0.950 . S
H2381 C2405 0.951 . S
H2382 C2407 0.951 . S
H2383 C2409 0.950 . S
H2384 C2410 0.950 . S
H2385 C2412 0.950 . S
H2386 C2415 0.950 . S
H2387 C2416 0.950 . S
H2388 C2418 0.950 . S
H2389 C2419 0.950 . S
C2390 H2372 0.951 . S
C2390 C2391 1.366 . S
C2390 C2392 1.388 . S
C2391 C2390 1.366 . S
C2391 C2395 1.385 . S
C2392 H2373 0.951 . S
C2392 C2390 1.388 . S
C2392 C2393 1.366 . S
C2393 C2392 1.366 . S
C2393 C2394 1.414 . S
C2393 C2396 1.499 . S
C2394 H2374 0.950 . S
C2394 C2393 1.414 . S
C2394 C2395 1.374 . S
C2395 H2375 0.950 . S
C2395 C2391 1.385 . S
C2395 C2394 1.374 . S
C2396 C2393 1.499 . S
C2396 C2397 1.373 . S
C2396 C2398 1.389 . S
C2397 H2376 0.950 . S
C2397 C2396 1.373 . S
C2397 C2413 1.377 . S
C2398 C2396 1.389 . S
C2398 C2399 1.524 . S
C2398 C2412 1.377 . S
C2399 C2398 1.524 . S
C2399 C2400 1.397 . S
C2399 C2404 1.363 . S
C2400 H2377 0.950 . S
C2400 C2399 1.397 . S
C2400 C2401 1.334 . S
C2401 H2378 0.950 . S
C2401 C2400 1.334 . S
C2401 C2402 1.287 . S
C2402 C2401 1.287 . S
C2402 C2403 1.524 . S
C2402 H2421 0.913 . S
C2403 H2379 0.950 . S
C2403 C2402 1.524 . S
C2403 C2404 1.415 . S
C2404 H2380 0.950 . S
C2404 C2399 1.363 . S
C2404 C2403 1.415 . S
C2405 H2381 0.951 . S
C2405 C2406 1.366 . S
C2405 C2407 1.388 . S
C2406 C2405 1.366 . S
C2406 C2410 1.385 . S
C2407 H2382 0.951 . S
C2407 C2405 1.388 . S
C2407 C2408 1.366 . S
C2408 C2407 1.366 . S
C2408 C2409 1.414 . S
C2408 C2411 1.499 . S
C2409 H2383 0.950 . S
C2409 C2408 1.414 . S
C2409 C2410 1.374 . S
C2410 H2384 0.950 . S
C2410 C2406 1.385 . S
C2410 C2409 1.374 . S
C2411 C2408 1.499 . S
C2411 C2412 1.373 . S
C2411 C2413 1.389 . S
C2412 H2385 0.950 . S
C2412 C2398 1.377 . S
C2412 C2411 1.373 . S
C2413 C2397 1.377 . S
C2413 C2411 1.389 . S
C2413 C2414 1.524 . S
C2414 C2413 1.524 . S
C2414 C2415 1.397 . S
C2414 C2419 1.363 . S
C2415 H2386 0.950 . S
C2415 C2414 1.397 . S
C2415 C2416 1.334 . S
C2416 H2387 0.950 . S
C2416 C2415 1.334 . S
C2416 C2417 1.287 . S
C2417 C2416 1.287 . S
C2417 C2418 1.524 . S
C2417 H2420 0.999 . S
C2418 H2388 0.950 . S
C2418 C2417 1.524 . S
C2418 C2419 1.415 . S
C2419 H2389 0.950 . S
C2419 C2414 1.363 . S
C2419 C2418 1.415 . S
H2420 C2417 0.999 . S
H2421 C2402 0.913 . S
H2422 C2440 0.951 . S
H2423 C2442 0.951 . S
H2424 C2444 0.950 . S
H2425 C2445 0.968 . S
H2426 C2447 0.950 . S
H2427 C2450 0.950 . S
H2428 C2451 0.950 1_556 S
H2429 C2453 0.950 . S
H2430 C2454 0.950 . S
H2431 C2455 0.951 . S
H2432 C2457 0.951 . S
H2433 C2459 0.950 . S
H2434 C2460 0.950 . S
H2435 C2462 0.950 . S
H2436 C2465 0.950 . S
H2437 C2466 0.950 . S
H2438 C2468 0.950 . S
H2439 C2469 0.950 . S
C2440 H2422 0.951 . S
C2440 C2441 1.366 . S
C2440 C2442 1.388 . S
C2441 C2440 1.366 . S
C2441 C2445 1.385 . S
C2442 H2423 0.951 . S
C2442 C2440 1.388 . S
C2442 C2443 1.366 . S
C2443 C2442 1.366 . S
C2443 C2444 1.414 . S
C2443 C2446 1.499 . S
C2444 H2424 0.950 . S
C2444 C2443 1.414 . S
C2444 C2445 1.374 . S
C2445 H2425 0.968 . S
C2445 C2441 1.385 . S
C2445 C2444 1.374 . S
C2446 C2443 1.499 . S
C2446 C2447 1.373 . S
C2446 C2448 1.389 . S
C2447 H2426 0.950 . S
C2447 C2446 1.373 . S
C2447 C2463 1.377 . S
C2448 C2446 1.389 . S
C2448 C2449 1.524 . S
C2448 C2462 1.377 . S
C2449 C2448 1.524 . S
C2449 C2450 1.397 . S
C2449 C2454 1.363 . S
C2450 H2427 0.950 . S
C2450 C2449 1.397 . S
C2450 C2451 1.334 . S
C2451 H2428 0.950 1_554 S
C2451 C2450 1.334 . S
C2451 C2452 1.287 . S
C2452 C2451 1.287 . S
C2452 C2453 1.524 . S
C2452 H2471 0.913 . S
C2453 H2429 0.950 . S
C2453 C2452 1.524 . S
C2453 C2454 1.415 . S
C2454 H2430 0.950 . S
C2454 C2449 1.363 . S
C2454 C2453 1.415 . S
C2455 H2431 0.951 . S
C2455 C2456 1.366 . S
C2455 C2457 1.388 . S
C2456 C2455 1.366 . S
C2456 C2460 1.385 . S
C2457 H2432 0.951 . S
C2457 C2455 1.388 . S
C2457 C2458 1.366 . S
C2458 C2457 1.366 . S
C2458 C2459 1.414 . S
C2458 C2461 1.499 . S
C2459 H2433 0.950 . S
C2459 C2458 1.414 . S
C2459 C2460 1.374 . S
C2460 H2434 0.950 . S
C2460 C2456 1.385 . S
C2460 C2459 1.374 . S
C2461 C2458 1.499 . S
C2461 C2462 1.373 . S
C2461 C2463 1.389 . S
C2462 H2435 0.950 . S
C2462 C2448 1.377 . S
C2462 C2461 1.373 . S
C2463 C2447 1.377 . S
C2463 C2461 1.389 . S
C2463 C2464 1.524 . S
C2464 C2463 1.524 . S
C2464 C2465 1.397 . S
C2464 C2469 1.363 . S
C2465 H2436 0.950 . S
C2465 C2464 1.397 . S
C2465 C2466 1.334 . S
C2466 H2437 0.950 . S
C2466 C2465 1.334 . S
C2466 C2467 1.287 . S
C2467 C2466 1.287 . S
C2467 C2468 1.524 . S
C2467 H2470 0.999 . S
C2468 H2438 0.950 . S
C2468 C2467 1.524 . S
C2468 C2469 1.415 . S
C2469 H2439 0.950 . S
C2469 C2464 1.363 . S
C2469 C2468 1.415 . S
H2470 C2467 0.999 . S
H2471 C2452 0.913 . S
H2472 C2490 0.951 . S
H2473 C2492 0.951 . S
H2474 C2494 0.950 . S
H2475 C2495 0.950 . S
H2476 C2497 0.950 . S
H2477 C2500 0.950 . S
H2478 C2501 0.950 . S
H2479 C2503 0.950 . S
H2480 C2504 0.950 . S
H2481 C2505 0.951 . S
H2482 C2507 0.951 . S
H2483 C2509 0.950 . S
H2484 C2510 0.950 . S
H2485 C2512 0.950 . S
H2486 C2515 0.950 . S
H2487 C2516 0.950 . S
H2488 C2518 0.950 . S
H2489 C2519 0.950 . S
C2490 H2472 0.951 . S
C2490 C2491 1.366 . S
C2490 C2492 1.388 . S
C2491 C2490 1.366 . S
C2491 C2495 1.385 . S
C2492 H2473 0.951 . S
C2492 C2490 1.388 . S
C2492 C2493 1.366 . S
C2493 C2492 1.366 . S
C2493 C2494 1.414 . S
C2493 C2496 1.499 . S
C2494 H2474 0.950 . S
C2494 C2493 1.414 . S
C2494 C2495 1.374 . S
C2495 H2475 0.950 . S
C2495 C2491 1.385 . S
C2495 C2494 1.374 . S
C2496 C2493 1.499 . S
C2496 C2497 1.373 . S
C2496 C2498 1.389 . S
C2497 H2476 0.950 . S
C2497 C2496 1.373 . S
C2497 C2513 1.377 . S
C2498 C2496 1.389 . S
C2498 C2499 1.524 . S
C2498 C2512 1.377 . S
C2499 C2498 1.524 . S
C2499 C2500 1.397 . S
C2499 C2504 1.363 . S
C2500 H2477 0.950 . S
C2500 C2499 1.397 . S
C2500 C2501 1.334 . S
C2501 H2478 0.950 . S
C2501 C2500 1.334 . S
C2501 C2502 1.287 . S
C2502 C2501 1.287 . S
C2502 C2503 1.524 . S
C2502 H2521 0.913 . S
C2503 H2479 0.950 . S
C2503 C2502 1.524 . S
C2503 C2504 1.415 . S
C2504 H2480 0.950 . S
C2504 C2499 1.363 . S
C2504 C2503 1.415 . S
C2505 H2481 0.951 . S
C2505 C2506 1.366 . S
C2505 C2507 1.388 . S
C2506 C2505 1.366 . S
C2506 C2510 1.385 . S
C2507 H2482 0.951 . S
C2507 C2505 1.388 . S
C2507 C2508 1.366 . S
C2508 C2507 1.366 . S
C2508 C2509 1.414 . S
C2508 C2511 1.499 . S
C2509 H2483 0.950 . S
C2509 C2508 1.414 . S
C2509 C2510 1.374 . S
C2510 H2484 0.950 . S
C2510 C2506 1.385 . S
C2510 C2509 1.374 . S
C2511 C2508 1.499 . S
C2511 C2512 1.373 . S
C2511 C2513 1.389 . S
C2512 H2485 0.950 . S
C2512 C2498 1.377 . S
C2512 C2511 1.373 . S
C2513 C2497 1.377 . S
C2513 C2511 1.389 . S
C2513 C2514 1.524 . S
C2514 C2513 1.524 . S
C2514 C2515 1.397 . S
C2514 C2519 1.363 . S
C2515 H2486 0.950 . S
C2515 C2514 1.397 . S
C2515 C2516 1.334 . S
C2516 H2487 0.950 . S
C2516 C2515 1.334 . S
C2516 C2517 1.287 . S
C2517 C2516 1.287 . S
C2517 C2518 1.524 . S
C2517 H2520 0.999 . S
C2518 H2488 0.950 . S
C2518 C2517 1.524 . S
C2518 C2519 1.415 . S
C2519 H2489 0.950 . S
C2519 C2514 1.363 . S
C2519 C2518 1.415 . S
H2520 C2517 0.999 . S
H2521 C2502 0.913 . S
H2522 C2540 0.951 . S
H2523 C2542 0.951 . S
H2524 C2544 0.950 . S
H2525 C2545 0.950 . S
H2526 C2547 0.950 . S
H2527 C2550 0.950 . S
H2528 C2551 0.950 1_565 S
H2529 C2553 0.950 . S
H2530 C2554 0.950 . S
H2531 C2555 0.951 . S
H2532 C2557 0.951 . S
H2533 C2559 0.950 . S
H2534 C2560 0.950 . S
H2535 C2562 0.950 . S
H2536 C2565 0.950 . S
H2537 C2566 0.950 . S
H2538 C2568 0.950 . S
H2539 C2569 0.950 . S
C2540 H2522 0.951 . S
C2540 C2541 1.366 . S
C2540 C2542 1.388 . S
C2541 C2540 1.366 . S
C2541 C2545 1.385 . S
C2542 H2523 0.951 . S
C2542 C2540 1.388 . S
C2542 C2543 1.366 . S
C2543 C2542 1.366 . S
C2543 C2544 1.414 . S
C2543 C2546 1.499 . S
C2544 H2524 0.950 . S
C2544 C2543 1.414 . S
C2544 C2545 1.374 . S
C2545 H2525 0.950 . S
C2545 C2541 1.385 . S
C2545 C2544 1.374 . S
C2546 C2543 1.499 . S
C2546 C2547 1.373 . S
C2546 C2548 1.389 . S
C2547 H2526 0.950 . S
C2547 C2546 1.373 . S
C2547 C2563 1.377 . S
C2548 C2546 1.389 . S
C2548 C2549 1.524 . S
C2548 C2562 1.377 . S
C2549 C2548 1.524 . S
C2549 C2550 1.397 . S
C2549 C2554 1.363 . S
C2550 H2527 0.950 . S
C2550 C2549 1.397 . S
C2550 C2551 1.334 . S
C2551 H2528 0.950 1_545 S
C2551 C2550 1.334 . S
C2551 C2552 1.287 . S
C2552 C2551 1.287 . S
C2552 C2553 1.524 . S
C2552 H2571 0.913 . S
C2553 H2529 0.950 . S
C2553 C2552 1.524 . S
C2553 C2554 1.415 . S
C2554 H2530 0.950 . S
C2554 C2549 1.363 . S
C2554 C2553 1.415 . S
C2555 H2531 0.951 . S
C2555 C2556 1.366 . S
C2555 C2557 1.388 . S
C2556 C2555 1.366 . S
C2556 C2560 1.385 . S
C2557 H2532 0.951 . S
C2557 C2555 1.388 . S
C2557 C2558 1.366 . S
C2558 C2557 1.366 . S
C2558 C2559 1.414 . S
C2558 C2561 1.499 . S
C2559 H2533 0.950 . S
C2559 C2558 1.414 . S
C2559 C2560 1.374 . S
C2560 H2534 0.950 . S
C2560 C2556 1.385 . S
C2560 C2559 1.374 . S
C2561 C2558 1.499 . S
C2561 C2562 1.373 . S
C2561 C2563 1.389 . S
C2562 H2535 0.950 . S
C2562 C2548 1.377 . S
C2562 C2561 1.373 . S
C2563 C2547 1.377 . S
C2563 C2561 1.389 . S
C2563 C2564 1.524 . S
C2564 C2563 1.524 . S
C2564 C2565 1.397 . S
C2564 C2569 1.363 . S
C2565 H2536 0.950 . S
C2565 C2564 1.397 . S
C2565 C2566 1.334 . S
C2566 H2537 0.950 . S
C2566 C2565 1.334 . S
C2566 C2567 1.287 . S
C2567 C2566 1.287 . S
C2567 C2568 1.524 . S
C2567 H2570 0.999 . S
C2568 H2538 0.950 . S
C2568 C2567 1.524 . S
C2568 C2569 1.415 . S
C2569 H2539 0.950 . S
C2569 C2564 1.363 . S
C2569 C2568 1.415 . S
H2570 C2567 0.999 . S
H2571 C2552 0.913 . S
H2572 C2590 0.951 . S
H2573 C2592 0.951 . S
H2574 C2594 0.950 . S
H2575 C2595 0.950 . S
H2576 C2597 0.950 . S
H2577 C2600 0.950 . S
H2578 C2601 0.950 . S
H2579 C2603 0.950 . S
H2580 C2604 0.950 . S
H2581 C2605 0.951 . S
H2582 C2607 0.951 . S
H2583 C2609 0.950 . S
H2584 C2610 0.950 . S
H2585 C2612 0.950 . S
H2586 C2615 0.950 . S
H2587 C2616 0.950 . S
H2588 C2618 0.950 . S
H2589 C2619 0.950 . S
C2590 H2572 0.951 . S
C2590 C2591 1.366 . S
C2590 C2592 1.388 . S
C2591 C2590 1.366 . S
C2591 C2595 1.385 . S
C2592 H2573 0.951 . S
C2592 C2590 1.388 . S
C2592 C2593 1.366 . S
C2593 C2592 1.366 . S
C2593 C2594 1.414 . S
C2593 C2596 1.499 . S
C2594 H2574 0.950 . S
C2594 C2593 1.414 . S
C2594 C2595 1.374 . S
C2595 H2575 0.950 . S
C2595 C2591 1.385 . S
C2595 C2594 1.374 . S
C2596 C2593 1.499 . S
C2596 C2597 1.373 . S
C2596 C2598 1.389 . S
C2597 H2576 0.950 . S
C2597 C2596 1.373 . S
C2597 C2613 1.377 . S
C2598 C2596 1.389 . S
C2598 C2599 1.524 . S
C2598 C2612 1.377 . S
C2599 C2598 1.524 . S
C2599 C2600 1.397 . S
C2599 C2604 1.363 . S
C2600 H2577 0.950 . S
C2600 C2599 1.397 . S
C2600 C2601 1.334 . S
C2601 H2578 0.950 . S
C2601 C2600 1.334 . S
C2601 C2602 1.287 . S
C2602 C2601 1.287 . S
C2602 C2603 1.524 . S
C2602 H2621 0.913 . S
C2603 H2579 0.950 . S
C2603 C2602 1.524 . S
C2603 C2604 1.415 . S
C2604 H2580 0.950 . S
C2604 C2599 1.363 . S
C2604 C2603 1.415 . S
C2605 H2581 0.951 . S
C2605 C2606 1.366 . S
C2605 C2607 1.388 . S
C2606 C2605 1.366 . S
C2606 C2610 1.385 . S
C2607 H2582 0.951 . S
C2607 C2605 1.388 . S
C2607 C2608 1.366 . S
C2608 C2607 1.366 . S
C2608 C2609 1.414 . S
C2608 C2611 1.499 . S
C2609 H2583 0.950 . S
C2609 C2608 1.414 . S
C2609 C2610 1.374 . S
C2610 H2584 0.950 . S
C2610 C2606 1.385 . S
C2610 C2609 1.374 . S
C2611 C2608 1.499 . S
C2611 C2612 1.373 . S
C2611 C2613 1.389 . S
C2612 H2585 0.950 . S
C2612 C2598 1.377 . S
C2612 C2611 1.373 . S
C2613 C2597 1.377 . S
C2613 C2611 1.389 . S
C2613 C2614 1.524 . S
C2614 C2613 1.524 . S
C2614 C2615 1.397 . S
C2614 C2619 1.363 . S
C2615 H2586 0.950 . S
C2615 C2614 1.397 . S
C2615 C2616 1.334 . S
C2616 H2587 0.950 . S
C2616 C2615 1.334 . S
C2616 C2617 1.287 . S
C2617 C2616 1.287 . S
C2617 C2618 1.524 . S
C2617 H2620 0.999 . S
C2618 H2588 0.950 . S
C2618 C2617 1.524 . S
C2618 C2619 1.415 . S
C2619 H2589 0.950 . S
C2619 C2614 1.363 . S
C2619 C2618 1.415 . S
H2620 C2617 0.999 . S
H2621 C2602 0.913 . S
H2622 C2640 0.951 1_554 S
H2623 C2642 0.951 . S
H2624 C2644 0.950 . S
H2625 C2645 0.950 . S
H2626 C2647 0.950 . S
H2627 C2650 0.950 . S
H2628 C2651 0.950 . S
H2629 C2653 0.950 . S
H2630 C2654 0.950 1_455 S
H2631 C2655 0.951 . S
H2632 C2657 0.951 . S
H2633 C2659 0.950 . S
H2634 C2660 0.950 1_545 S
H2635 C2662 0.950 . S
H2636 C2665 0.950 . S
H2637 C2666 0.950 . S
H2638 C2668 0.950 . S
H2639 C2669 0.950 . S
C2640 H2622 0.951 1_556 S
C2640 C2641 1.366 . S
C2640 C2642 1.388 . S
C2641 C2640 1.366 . S
C2641 C2645 1.385 . S
C2642 H2623 0.951 . S
C2642 C2640 1.388 . S
C2642 C2643 1.366 . S
C2643 C2642 1.366 . S
C2643 C2644 1.414 . S
C2643 C2646 1.499 . S
C2644 H2624 0.950 . S
C2644 C2643 1.414 . S
C2644 C2645 1.374 . S
C2645 H2625 0.950 . S
C2645 C2641 1.385 . S
C2645 C2644 1.374 . S
C2646 C2643 1.499 . S
C2646 C2647 1.373 . S
C2646 C2648 1.389 . S
C2647 H2626 0.950 . S
C2647 C2646 1.373 . S
C2647 C2663 1.377 . S
C2648 C2646 1.389 . S
C2648 C2649 1.524 . S
C2648 C2662 1.377 . S
C2649 C2648 1.524 . S
C2649 C2650 1.397 . S
C2649 C2654 1.363 1_455 S
C2650 H2627 0.950 . S
C2650 C2649 1.397 . S
C2650 C2651 1.334 1_455 S
C2651 H2628 0.950 . S
C2651 C2650 1.334 1_655 S
C2651 C2652 1.287 . S
C2652 C2651 1.287 . S
C2652 C2653 1.524 . S
C2652 H2671 0.913 . S
C2653 H2629 0.950 . S
C2653 C2652 1.524 . S
C2653 C2654 1.415 . S
C2654 H2630 0.950 1_655 S
C2654 C2649 1.363 1_655 S
C2654 C2653 1.415 . S
C2655 H2631 0.951 . S
C2655 C2656 1.366 . S
C2655 C2657 1.388 . S
C2656 C2655 1.366 . S
C2656 C2660 1.385 . S
C2657 H2632 0.951 . S
C2657 C2655 1.388 . S
C2657 C2658 1.366 . S
C2658 C2657 1.366 . S
C2658 C2659 1.414 . S
C2658 C2661 1.499 . S
C2659 H2633 0.950 . S
C2659 C2658 1.414 . S
C2659 C2660 1.374 . S
C2660 H2634 0.950 1_565 S
C2660 C2656 1.385 . S
C2660 C2659 1.374 . S
C2661 C2658 1.499 . S
C2661 C2662 1.373 . S
C2661 C2663 1.389 . S
C2662 H2635 0.950 . S
C2662 C2648 1.377 . S
C2662 C2661 1.373 . S
C2663 C2647 1.377 . S
C2663 C2661 1.389 . S
C2663 C2664 1.524 . S
C2664 C2663 1.524 . S
C2664 C2665 1.397 . S
C2664 C2669 1.363 . S
C2665 H2636 0.950 . S
C2665 C2664 1.397 . S
C2665 C2666 1.334 . S
C2666 H2637 0.950 . S
C2666 C2665 1.334 . S
C2666 C2667 1.287 . S
C2667 C2666 1.287 . S
C2667 C2668 1.524 . S
C2667 H2670 0.999 . S
C2668 H2638 0.950 . S
C2668 C2667 1.524 . S
C2668 C2669 1.415 . S
C2669 H2639 0.950 . S
C2669 C2664 1.363 . S
C2669 C2668 1.415 . S
H2670 C2667 0.999 . S
H2671 C2652 0.913 . S
H2672 C2690 0.951 . S
H2673 C2692 0.951 . S
H2674 C2694 0.950 . S
H2675 C2695 0.950 . S
H2676 C2697 0.950 . S
H2677 C2700 0.950 . S
H2678 C2701 0.950 . S
H2679 C2703 0.950 . S
H2680 C2704 0.950 . S
H2681 C2705 0.951 . S
H2682 C2707 0.951 . S
H2683 C2709 0.950 . S
H2684 C2710 0.950 . S
H2685 C2712 0.950 . S
H2686 C2715 0.950 . S
H2687 C2716 0.950 . S
H2688 C2718 0.950 . S
H2689 C2719 0.950 . S
C2690 H2672 0.951 . S
C2690 C2691 1.366 . S
C2690 C2692 1.388 . S
C2691 C2690 1.366 . S
C2691 C2695 1.385 . S
C2692 H2673 0.951 . S
C2692 C2690 1.388 . S
C2692 C2693 1.366 . S
C2693 C2692 1.366 . S
C2693 C2694 1.414 . S
C2693 C2696 1.499 . S
C2694 H2674 0.950 . S
C2694 C2693 1.414 . S
C2694 C2695 1.374 . S
C2695 H2675 0.950 . S
C2695 C2691 1.385 . S
C2695 C2694 1.374 . S
C2696 C2693 1.499 . S
C2696 C2697 1.373 . S
C2696 C2698 1.389 . S
C2697 H2676 0.950 . S
C2697 C2696 1.373 . S
C2697 C2713 1.377 . S
C2698 C2696 1.389 . S
C2698 C2699 1.524 . S
C2698 C2712 1.377 . S
C2699 C2698 1.524 . S
C2699 C2700 1.397 . S
C2699 C2704 1.363 . S
C2700 H2677 0.950 . S
C2700 C2699 1.397 . S
C2700 C2701 1.334 . S
C2701 H2678 0.950 . S
C2701 C2700 1.334 . S
C2701 C2702 1.287 . S
C2702 C2701 1.287 . S
C2702 C2703 1.524 . S
C2702 H2721 0.913 . S
C2703 H2679 0.950 . S
C2703 C2702 1.524 . S
C2703 C2704 1.415 . S
C2704 H2680 0.950 . S
C2704 C2699 1.363 . S
C2704 C2703 1.415 . S
C2705 H2681 0.951 . S
C2705 C2706 1.366 . S
C2705 C2707 1.388 . S
C2706 C2705 1.366 . S
C2706 C2710 1.385 . S
C2707 H2682 0.951 . S
C2707 C2705 1.388 . S
C2707 C2708 1.366 . S
C2708 C2707 1.366 . S
C2708 C2709 1.414 . S
C2708 C2711 1.499 . S
C2709 H2683 0.950 . S
C2709 C2708 1.414 . S
C2709 C2710 1.374 . S
C2710 H2684 0.950 . S
C2710 C2706 1.385 . S
C2710 C2709 1.374 . S
C2711 C2708 1.499 . S
C2711 C2712 1.373 . S
C2711 C2713 1.389 . S
C2712 H2685 0.950 . S
C2712 C2698 1.377 . S
C2712 C2711 1.373 . S
C2713 C2697 1.377 . S
C2713 C2711 1.389 . S
C2713 C2714 1.524 . S
C2714 C2713 1.524 . S
C2714 C2715 1.397 . S
C2714 C2719 1.363 . S
C2715 H2686 0.950 . S
C2715 C2714 1.397 . S
C2715 C2716 1.334 . S
C2716 H2687 0.950 . S
C2716 C2715 1.334 . S
C2716 C2717 1.287 . S
C2717 C2716 1.287 . S
C2717 C2718 1.524 . S
C2717 H2720 0.999 . S
C2718 H2688 0.950 . S
C2718 C2717 1.524 . S
C2718 C2719 1.415 . S
C2719 H2689 0.950 . S
C2719 C2714 1.363 . S
C2719 C2718 1.415 . S
H2720 C2717 0.999 . S
H2721 C2702 0.913 . S
H2722 C2740 0.951 . S
H2723 C2742 0.951 . S
H2724 C2744 0.950 . S
H2725 C2745 0.950 . S
H2726 C2747 0.950 . S
H2727 C2750 0.950 . S
H2728 C2751 0.950 . S
H2729 C2753 0.950 . S
H2730 C2754 0.950 . S
H2731 C2755 0.951 . S
H2732 C2757 0.951 . S
H2733 C2759 0.950 . S
H2734 C2760 0.950 . S
H2735 C2762 0.950 . S
H2736 C2765 0.950 . S
H2737 C2766 0.950 . S
H2738 C2768 0.950 . S
H2739 C2769 0.950 . S
C2740 H2722 0.951 . S
C2740 C2741 1.366 . S
C2740 C2742 1.388 . S
C2741 C2740 1.366 . S
C2741 C2745 1.385 . S
C2742 H2723 0.951 . S
C2742 C2740 1.388 . S
C2742 C2743 1.366 . S
C2743 C2742 1.366 . S
C2743 C2744 1.414 . S
C2743 C2746 1.499 . S
C2744 H2724 0.950 . S
C2744 C2743 1.414 . S
C2744 C2745 1.374 . S
C2745 H2725 0.950 . S
C2745 C2741 1.385 . S
C2745 C2744 1.374 . S
C2746 C2743 1.499 . S
C2746 C2747 1.373 . S
C2746 C2748 1.389 . S
C2747 H2726 0.950 . S
C2747 C2746 1.373 . S
C2747 C2763 1.377 . S
C2748 C2746 1.389 . S
C2748 C2749 1.524 . S
C2748 C2762 1.377 . S
C2749 C2748 1.524 . S
C2749 C2750 1.397 . S
C2749 C2754 1.363 . S
C2750 H2727 0.950 . S
C2750 C2749 1.397 . S
C2750 C2751 1.334 . S
C2751 H2728 0.950 . S
C2751 C2750 1.334 . S
C2751 C2752 1.287 . S
C2752 C2751 1.287 . S
C2752 C2753 1.524 . S
C2752 H2771 0.913 . S
C2753 H2729 0.950 . S
C2753 C2752 1.524 . S
C2753 C2754 1.415 . S
C2754 H2730 0.950 . S
C2754 C2749 1.363 . S
C2754 C2753 1.415 . S
C2755 H2731 0.951 . S
C2755 C2756 1.366 . S
C2755 C2757 1.388 . S
C2756 C2755 1.366 . S
C2756 C2760 1.385 . S
C2757 H2732 0.951 . S
C2757 C2755 1.388 . S
C2757 C2758 1.366 . S
C2758 C2757 1.366 . S
C2758 C2759 1.414 . S
C2758 C2761 1.499 . S
C2759 H2733 0.950 . S
C2759 C2758 1.414 . S
C2759 C2760 1.374 . S
C2760 H2734 0.950 . S
C2760 C2756 1.385 . S
C2760 C2759 1.374 . S
C2761 C2758 1.499 . S
C2761 C2762 1.373 . S
C2761 C2763 1.389 . S
C2762 H2735 0.950 . S
C2762 C2748 1.377 . S
C2762 C2761 1.373 . S
C2763 C2747 1.377 . S
C2763 C2761 1.389 . S
C2763 C2764 1.524 . S
C2764 C2763 1.524 . S
C2764 C2765 1.397 . S
C2764 C2769 1.363 . S
C2765 H2736 0.950 . S
C2765 C2764 1.397 . S
C2765 C2766 1.334 . S
C2766 H2737 0.950 . S
C2766 C2765 1.334 . S
C2766 C2767 1.287 . S
C2767 C2766 1.287 . S
C2767 C2768 1.524 . S
C2767 H2770 0.999 . S
C2768 H2738 0.950 . S
C2768 C2767 1.524 . S
C2768 C2769 1.415 . S
C2769 H2739 0.950 . S
C2769 C2764 1.363 . S
C2769 C2768 1.415 . S
H2770 C2767 0.999 . S
H2771 C2752 0.913 . S
H2772 C2790 0.951 . S
H2773 C2792 0.951 . S
H2774 C2794 0.950 . S
H2775 C2795 0.950 1_655 S
H2776 C2797 0.950 . S
H2777 C2800 0.950 . S
H2778 C2801 0.950 . S
H2779 C2803 0.950 1_556 S
H2780 C2804 0.950 . S
H2781 C2805 0.951 . S
H2782 C2807 0.951 . S
H2783 C2809 0.950 . S
H2784 C2810 0.950 . S
H2785 C2812 0.950 . S
H2786 C2815 0.950 . S
H2787 C2816 0.950 . S
H2788 C2818 0.950 . S
H2789 C2819 0.950 . S
C2790 H2772 0.951 . S
C2790 C2791 1.366 . S
C2790 C2792 1.388 . S
C2791 C2790 1.366 . S
C2791 C2795 1.385 . S
C2792 H2773 0.951 . S
C2792 C2790 1.388 . S
C2792 C2793 1.366 . S
C2793 C2792 1.366 . S
C2793 C2794 1.414 . S
C2793 C2796 1.499 . S
C2794 H2774 0.950 . S
C2794 C2793 1.414 . S
C2794 C2795 1.374 . S
C2795 H2775 0.950 1_455 S
C2795 C2791 1.385 . S
C2795 C2794 1.374 . S
C2796 C2793 1.499 . S
C2796 C2797 1.373 . S
C2796 C2798 1.389 . S
C2797 H2776 0.950 . S
C2797 C2796 1.373 . S
C2797 C2813 1.377 . S
C2798 C2796 1.389 . S
C2798 C2799 1.524 . S
C2798 C2812 1.377 . S
C2799 C2798 1.524 . S
C2799 C2800 1.397 . S
C2799 C2804 1.363 . S
C2800 H2777 0.950 . S
C2800 C2799 1.397 . S
C2800 C2801 1.334 1_554 S
C2801 H2778 0.950 . S
C2801 C2800 1.334 1_556 S
C2801 C2802 1.287 . S
C2802 C2801 1.287 . S
C2802 C2803 1.524 1_556 S
C2802 H2821 0.913 . S
C2803 H2779 0.950 1_554 S
C2803 C2802 1.524 1_554 S
C2803 C2804 1.415 . S
C2804 H2780 0.950 . S
C2804 C2799 1.363 . S
C2804 C2803 1.415 . S
C2805 H2781 0.951 . S
C2805 C2806 1.366 . S
C2805 C2807 1.388 . S
C2806 C2805 1.366 . S
C2806 C2810 1.385 . S
C2807 H2782 0.951 . S
C2807 C2805 1.388 . S
C2807 C2808 1.366 . S
C2808 C2807 1.366 . S
C2808 C2809 1.414 . S
C2808 C2811 1.499 . S
C2809 H2783 0.950 . S
C2809 C2808 1.414 . S
C2809 C2810 1.374 . S
C2810 H2784 0.950 . S
C2810 C2806 1.385 . S
C2810 C2809 1.374 . S
C2811 C2808 1.499 . S
C2811 C2812 1.373 . S
C2811 C2813 1.389 . S
C2812 H2785 0.950 . S
C2812 C2798 1.377 . S
C2812 C2811 1.373 . S
C2813 C2797 1.377 . S
C2813 C2811 1.389 . S
C2813 C2814 1.524 . S
C2814 C2813 1.524 . S
C2814 C2815 1.397 . S
C2814 C2819 1.363 . S
C2815 H2786 0.950 . S
C2815 C2814 1.397 . S
C2815 C2816 1.334 . S
C2816 H2787 0.950 . S
C2816 C2815 1.334 . S
C2816 C2817 1.287 . S
C2817 C2816 1.287 . S
C2817 C2818 1.524 . S
C2817 H2820 0.999 . S
C2818 H2788 0.950 . S
C2818 C2817 1.524 . S
C2818 C2819 1.415 . S
C2819 H2789 0.950 . S
C2819 C2814 1.363 . S
C2819 C2818 1.415 . S
H2820 C2817 0.999 . S
H2821 C2802 0.913 . S
H2822 C2840 0.951 . S
H2823 C2842 0.951 . S
H2824 C2844 0.950 . S
H2825 C2845 0.950 . S
H2826 C2847 0.950 . S
H2827 C2850 0.950 . S
H2828 C2851 0.950 . S
H2829 C2853 0.950 . S
H2830 C2854 0.950 . S
H2831 C2855 0.951 . S
H2832 C2857 0.951 . S
H2833 C2859 0.950 . S
H2834 C2860 0.950 . S
H2835 C2862 0.950 . S
H2836 C2865 0.950 . S
H2837 C2866 0.950 . S
H2838 C2868 0.950 . S
H2839 C2869 0.950 . S
C2840 H2822 0.951 . S
C2840 C2841 1.366 . S
C2840 C2842 1.388 . S
C2841 C2840 1.366 . S
C2841 C2845 1.385 . S
C2842 H2823 0.951 . S
C2842 C2840 1.388 . S
C2842 C2843 1.366 . S
C2843 C2842 1.366 . S
C2843 C2844 1.414 . S
C2843 C2846 1.499 . S
C2844 H2824 0.950 . S
C2844 C2843 1.414 . S
C2844 C2845 1.374 . S
C2845 H2825 0.950 . S
C2845 C2841 1.385 . S
C2845 C2844 1.374 . S
C2846 C2843 1.499 . S
C2846 C2847 1.373 . S
C2846 C2848 1.389 . S
C2847 H2826 0.950 . S
C2847 C2846 1.373 . S
C2847 C2863 1.377 . S
C2848 C2846 1.389 . S
C2848 C2849 1.524 . S
C2848 C2862 1.377 . S
C2849 C2848 1.524 . S
C2849 C2850 1.397 . S
C2849 C2854 1.363 . S
C2850 H2827 0.950 . S
C2850 C2849 1.397 . S
C2850 C2851 1.334 . S
C2851 H2828 0.950 . S
C2851 C2850 1.334 . S
C2851 C2852 1.287 . S
C2852 C2851 1.287 . S
C2852 C2853 1.524 . S
C2852 H2871 0.913 . S
C2853 H2829 0.950 . S
C2853 C2852 1.524 . S
C2853 C2854 1.415 . S
C2854 H2830 0.950 . S
C2854 C2849 1.363 . S
C2854 C2853 1.415 . S
C2855 H2831 0.951 . S
C2855 C2856 1.366 . S
C2855 C2857 1.388 . S
C2856 C2855 1.366 . S
C2856 C2860 1.385 . S
C2857 H2832 0.951 . S
C2857 C2855 1.388 . S
C2857 C2858 1.366 . S
C2858 C2857 1.366 . S
C2858 C2859 1.414 . S
C2858 C2861 1.499 . S
C2859 H2833 0.950 . S
C2859 C2858 1.414 . S
C2859 C2860 1.374 . S
C2860 H2834 0.950 . S
C2860 C2856 1.385 . S
C2860 C2859 1.374 . S
C2861 C2858 1.499 . S
C2861 C2862 1.373 . S
C2861 C2863 1.389 . S
C2862 H2835 0.950 . S
C2862 C2848 1.377 . S
C2862 C2861 1.373 . S
C2863 C2847 1.377 . S
C2863 C2861 1.389 . S
C2863 C2864 1.524 . S
C2864 C2863 1.524 . S
C2864 C2865 1.397 . S
C2864 C2869 1.363 . S
C2865 H2836 0.950 . S
C2865 C2864 1.397 . S
C2865 C2866 1.334 . S
C2866 H2837 0.950 . S
C2866 C2865 1.334 . S
C2866 C2867 1.287 . S
C2867 C2866 1.287 . S
C2867 C2868 1.524 . S
C2867 H2870 0.999 . S
C2868 H2838 0.950 . S
C2868 C2867 1.524 . S
C2868 C2869 1.415 . S
C2869 H2839 0.950 . S
C2869 C2864 1.363 . S
C2869 C2868 1.415 . S
H2870 C2867 0.999 . S
H2871 C2852 0.913 . S
H2872 C2890 0.951 . S
H2873 C2892 0.951 . S
H2874 C2894 0.950 . S
H2875 C2895 0.950 1_545 S
H2876 C2897 0.950 . S
H2877 C2900 0.950 . S
H2878 C2901 0.950 . S
H2879 C2903 0.950 . S
H2880 C2904 0.950 . S
H2881 C2905 0.951 1_455 S
H2882 C2907 0.951 . S
H2883 C2909 0.950 . S
H2884 C2910 0.950 . S
H2885 C2912 0.950 . S
H2886 C2915 0.950 . S
H2887 C2916 0.950 . S
H2888 C2918 0.950 . S
H2889 C2919 0.950 . S
C2890 H2872 0.951 . S
C2890 C2891 1.366 . S
C2890 C2892 1.388 . S
C2891 C2890 1.366 . S
C2891 C2895 1.385 . S
C2892 H2873 0.951 . S
C2892 C2890 1.388 . S
C2892 C2893 1.366 . S
C2893 C2892 1.366 . S
C2893 C2894 1.414 . S
C2893 C2896 1.499 . S
C2894 H2874 0.950 . S
C2894 C2893 1.414 . S
C2894 C2895 1.374 . S
C2895 H2875 0.950 1_565 S
C2895 C2891 1.385 . S
C2895 C2894 1.374 . S
C2896 C2893 1.499 . S
C2896 C2897 1.373 . S
C2896 C2898 1.389 . S
C2897 H2876 0.950 . S
C2897 C2896 1.373 . S
C2897 C2913 1.377 . S
C2898 C2896 1.389 . S
C2898 C2899 1.524 . S
C2898 C2912 1.377 . S
C2899 C2898 1.524 . S
C2899 C2900 1.397 . S
C2899 C2904 1.363 . S
C2900 H2877 0.950 . S
C2900 C2899 1.397 . S
C2900 C2901 1.334 . S
C2901 H2878 0.950 . S
C2901 C2900 1.334 . S
C2901 C2902 1.287 . S
C2902 C2901 1.287 . S
C2902 C2903 1.524 . S
C2902 H2921 0.913 . S
C2903 H2879 0.950 . S
C2903 C2902 1.524 . S
C2903 C2904 1.415 . S
C2904 H2880 0.950 . S
C2904 C2899 1.363 . S
C2904 C2903 1.415 . S
C2905 H2881 0.951 1_655 S
C2905 C2906 1.366 . S
C2905 C2907 1.388 . S
C2906 C2905 1.366 . S
C2906 C2910 1.385 . S
C2907 H2882 0.951 . S
C2907 C2905 1.388 . S
C2907 C2908 1.366 . S
C2908 C2907 1.366 . S
C2908 C2909 1.414 . S
C2908 C2911 1.499 . S
C2909 H2883 0.950 . S
C2909 C2908 1.414 . S
C2909 C2910 1.374 . S
C2910 H2884 0.950 . S
C2910 C2906 1.385 . S
C2910 C2909 1.374 . S
C2911 C2908 1.499 . S
C2911 C2912 1.373 . S
C2911 C2913 1.389 . S
C2912 H2885 0.950 . S
C2912 C2898 1.377 . S
C2912 C2911 1.373 . S
C2913 C2897 1.377 . S
C2913 C2911 1.389 . S
C2913 C2914 1.524 . S
C2914 C2913 1.524 . S
C2914 C2915 1.397 . S
C2914 C2919 1.363 . S
C2915 H2886 0.950 . S
C2915 C2914 1.397 . S
C2915 C2916 1.334 1_554 S
C2916 H2887 0.950 . S
C2916 C2915 1.334 1_556 S
C2916 C2917 1.287 . S
C2917 C2916 1.287 . S
C2917 C2918 1.524 1_556 S
C2917 H2920 1.047 . S
C2918 H2888 0.950 . S
C2918 C2917 1.524 1_554 S
C2918 C2919 1.415 . S
C2919 H2889 0.950 . S
C2919 C2914 1.363 . S
C2919 C2918 1.415 . S
H2920 C2917 1.047 . S
H2921 C2902 0.913 . S
H2922 C2940 0.951 . S
H2923 C2942 0.951 . S
H2924 C2944 0.950 . S
H2925 C2945 0.950 . S
H2926 C2947 0.950 . S
H2927 C2950 0.950 . S
H2928 C2951 0.950 . S
H2929 C2953 0.950 . S
H2930 C2954 0.950 . S
H2931 C2955 0.951 . S
H2932 C2957 0.951 . S
H2933 C2959 0.950 . S
H2934 C2960 0.950 . S
H2935 C2962 0.950 . S
H2936 C2965 0.950 . S
H2937 C2966 0.950 . S
H2938 C2968 0.950 . S
H2939 C2969 0.950 . S
C2940 H2922 0.951 . S
C2940 C2941 1.366 . S
C2940 C2942 1.388 . S
C2941 C2940 1.366 . S
C2941 C2945 1.385 . S
C2942 H2923 0.951 . S
C2942 C2940 1.388 . S
C2942 C2943 1.366 . S
C2943 C2942 1.366 . S
C2943 C2944 1.414 . S
C2943 C2946 1.499 . S
C2944 H2924 0.950 . S
C2944 C2943 1.414 . S
C2944 C2945 1.374 . S
C2945 H2925 0.950 . S
C2945 C2941 1.385 . S
C2945 C2944 1.374 . S
C2946 C2943 1.499 . S
C2946 C2947 1.373 . S
C2946 C2948 1.389 . S
C2947 H2926 0.950 . S
C2947 C2946 1.373 . S
C2947 C2963 1.377 . S
C2948 C2946 1.389 . S
C2948 C2949 1.524 . S
C2948 C2962 1.377 . S
C2949 C2948 1.524 . S
C2949 C2950 1.397 . S
C2949 C2954 1.363 . S
C2950 H2927 0.950 . S
C2950 C2949 1.397 . S
C2950 C2951 1.334 . S
C2951 H2928 0.950 . S
C2951 C2950 1.334 . S
C2951 C2952 1.287 . S
C2952 C2951 1.287 . S
C2952 C2953 1.524 . S
C2952 H2971 0.913 . S
C2953 H2929 0.950 . S
C2953 C2952 1.524 . S
C2953 C2954 1.415 . S
C2954 H2930 0.950 . S
C2954 C2949 1.363 . S
C2954 C2953 1.415 . S
C2955 H2931 0.951 . S
C2955 C2956 1.366 . S
C2955 C2957 1.388 . S
C2956 C2955 1.366 . S
C2956 C2960 1.385 . S
C2957 H2932 0.951 . S
C2957 C2955 1.388 . S
C2957 C2958 1.366 . S
C2958 C2957 1.366 . S
C2958 C2959 1.414 . S
C2958 C2961 1.499 . S
C2959 H2933 0.950 . S
C2959 C2958 1.414 . S
C2959 C2960 1.374 . S
C2960 H2934 0.950 . S
C2960 C2956 1.385 . S
C2960 C2959 1.374 . S
C2961 C2958 1.499 . S
C2961 C2962 1.373 . S
C2961 C2963 1.389 . S
C2962 H2935 0.950 . S
C2962 C2948 1.377 . S
C2962 C2961 1.373 . S
C2963 C2947 1.377 . S
C2963 C2961 1.389 . S
C2963 C2964 1.524 . S
C2964 C2963 1.524 . S
C2964 C2965 1.397 . S
C2964 C2969 1.363 . S
C2965 H2936 0.950 . S
C2965 C2964 1.397 . S
C2965 C2966 1.334 . S
C2966 H2937 0.950 . S
C2966 C2965 1.334 . S
C2966 C2967 1.287 . S
C2967 C2966 1.287 . S
C2967 C2968 1.524 . S
C2967 H2970 0.999 . S
C2968 H2938 0.950 . S
C2968 C2967 1.524 . S
C2968 C2969 1.415 . S
C2969 H2939 0.950 . S
C2969 C2964 1.363 . S
C2969 C2968 1.415 . S
H2970 C2967 0.999 . S
H2971 C2952 0.913 . S
H2972 C2990 0.951 . S
H2973 C2992 0.951 . S
H2974 C2994 0.950 . S
H2975 C2995 0.950 1_655 S
H2976 C2997 0.950 . S
H2977 C3000 0.950 . S
H2978 C3001 0.950 . S
H2979 C3003 0.950 . S
H2980 C3004 0.950 . S
H2981 C3005 0.951 . S
H2982 C3007 0.951 . S
H2983 C3009 0.950 . S
H2984 C3010 0.950 . S
H2985 C3012 0.950 . S
H2986 C3015 0.950 . S
H2987 C3016 0.950 . S
H2988 C3018 0.950 . S
H2989 C3019 0.950 . S
C2990 H2972 0.951 . S
C2990 C2991 1.366 . S
C2990 C2992 1.388 . S
C2991 C2990 1.366 . S
C2991 C2995 1.385 . S
C2992 H2973 0.951 . S
C2992 C2990 1.388 . S
C2992 C2993 1.366 . S
C2993 C2992 1.366 . S
C2993 C2994 1.414 . S
C2993 C2996 1.499 . S
C2994 H2974 0.950 . S
C2994 C2993 1.414 . S
C2994 C2995 1.374 . S
C2995 H2975 0.950 1_455 S
C2995 C2991 1.385 . S
C2995 C2994 1.374 . S
C2996 C2993 1.499 . S
C2996 C2997 1.373 . S
C2996 C2998 1.389 . S
C2997 H2976 0.950 . S
C2997 C2996 1.373 . S
C2997 C3013 1.377 . S
C2998 C2996 1.389 . S
C2998 C2999 1.524 . S
C2998 C3012 1.377 . S
C2999 C2998 1.524 . S
C2999 C3000 1.397 . S
C2999 C3004 1.363 . S
C3000 H2977 0.950 . S
C3000 C2999 1.397 . S
C3000 C3001 1.334 . S
C3001 H2978 0.950 . S
C3001 C3000 1.334 . S
C3001 C3002 1.287 . S
C3002 C3001 1.287 . S
C3002 C3003 1.524 . S
C3002 H3021 0.913 . S
C3003 H2979 0.950 . S
C3003 C3002 1.524 . S
C3003 C3004 1.415 . S
C3004 H2980 0.950 . S
C3004 C2999 1.363 . S
C3004 C3003 1.415 . S
C3005 H2981 0.951 . S
C3005 C3006 1.366 . S
C3005 C3007 1.388 . S
C3006 C3005 1.366 . S
C3006 C3010 1.385 . S
C3007 H2982 0.951 . S
C3007 C3005 1.388 . S
C3007 C3008 1.366 . S
C3008 C3007 1.366 . S
C3008 C3009 1.414 . S
C3008 C3011 1.499 . S
C3009 H2983 0.950 . S
C3009 C3008 1.414 . S
C3009 C3010 1.374 . S
C3010 H2984 0.950 . S
C3010 C3006 1.385 . S
C3010 C3009 1.374 . S
C3011 C3008 1.499 . S
C3011 C3012 1.373 . S
C3011 C3013 1.389 . S
C3012 H2985 0.950 . S
C3012 C2998 1.377 . S
C3012 C3011 1.373 . S
C3013 C2997 1.377 . S
C3013 C3011 1.389 . S
C3013 C3014 1.524 . S
C3014 C3013 1.524 . S
C3014 C3015 1.397 . S
C3014 C3019 1.363 . S
C3015 H2986 0.950 . S
C3015 C3014 1.397 . S
C3015 C3016 1.334 . S
C3016 H2987 0.950 . S
C3016 C3015 1.334 . S
C3016 C3017 1.287 . S
C3017 C3016 1.287 . S
C3017 C3018 1.524 . S
C3017 H3020 0.999 . S
C3018 H2988 0.950 . S
C3018 C3017 1.524 . S
C3018 C3019 1.415 . S
C3019 H2989 0.950 . S
C3019 C3014 1.363 . S
C3019 C3018 1.415 . S
H3020 C3017 0.999 . S
H3021 C3002 0.913 . S
H3022 C3040 0.951 . S
H3023 C3042 0.951 . S
H3024 C3044 0.950 . S
H3025 C3045 0.950 . S
H3026 C3047 0.950 . S
H3027 C3050 0.950 . S
H3028 C3051 0.950 . S
H3029 C3053 0.950 . S
H3030 C3054 0.950 . S
H3031 C3055 0.951 . S
H3032 C3057 0.951 . S
H3033 C3059 0.950 . S
H3034 C3060 0.950 . S
H3035 C3062 0.950 . S
H3036 C3065 0.950 . S
H3037 C3066 0.950 . S
H3038 C3068 0.950 . S
H3039 C3069 0.950 . S
C3040 H3022 0.951 . S
C3040 C3041 1.366 . S
C3040 C3042 1.388 . S
C3041 C3040 1.366 . S
C3041 C3045 1.385 . S
C3042 H3023 0.951 . S
C3042 C3040 1.388 . S
C3042 C3043 1.366 . S
C3043 C3042 1.366 . S
C3043 C3044 1.414 . S
C3043 C3046 1.499 . S
C3044 H3024 0.950 . S
C3044 C3043 1.414 . S
C3044 C3045 1.374 . S
C3045 H3025 0.950 . S
C3045 C3041 1.385 . S
C3045 C3044 1.374 . S
C3046 C3043 1.499 . S
C3046 C3047 1.373 . S
C3046 C3048 1.389 . S
C3047 H3026 0.950 . S
C3047 C3046 1.373 . S
C3047 C3063 1.377 . S
C3048 C3046 1.389 . S
C3048 C3049 1.524 . S
C3048 C3062 1.377 . S
C3049 C3048 1.524 . S
C3049 C3050 1.397 . S
C3049 C3054 1.363 . S
C3050 H3027 0.950 . S
C3050 C3049 1.397 . S
C3050 C3051 1.334 . S
C3051 H3028 0.950 . S
C3051 C3050 1.334 . S
C3051 C3052 1.287 . S
C3052 C3051 1.287 . S
C3052 C3053 1.524 . S
C3052 H3071 0.913 . S
C3053 H3029 0.950 . S
C3053 C3052 1.524 . S
C3053 C3054 1.415 . S
C3054 H3030 0.950 . S
C3054 C3049 1.363 . S
C3054 C3053 1.415 . S
C3055 H3031 0.951 . S
C3055 C3056 1.366 . S
C3055 C3057 1.388 . S
C3056 C3055 1.366 . S
C3056 C3060 1.385 . S
C3057 H3032 0.951 . S
C3057 C3055 1.388 . S
C3057 C3058 1.366 . S
C3058 C3057 1.366 . S
C3058 C3059 1.414 . S
C3058 C3061 1.499 . S
C3059 H3033 0.950 . S
C3059 C3058 1.414 . S
C3059 C3060 1.374 . S
C3060 H3034 0.950 . S
C3060 C3056 1.385 . S
C3060 C3059 1.374 . S
C3061 C3058 1.499 . S
C3061 C3062 1.373 . S
C3061 C3063 1.389 . S
C3062 H3035 0.950 . S
C3062 C3048 1.377 . S
C3062 C3061 1.373 . S
C3063 C3047 1.377 . S
C3063 C3061 1.389 . S
C3063 C3064 1.524 . S
C3064 C3063 1.524 . S
C3064 C3065 1.397 . S
C3064 C3069 1.363 . S
C3065 H3036 0.950 . S
C3065 C3064 1.397 . S
C3065 C3066 1.334 1_556 S
C3066 H3037 0.950 . S
C3066 C3065 1.334 1_554 S
C3066 C3067 1.287 . S
C3067 C3066 1.287 . S
C3067 C3068 1.524 . S
C3067 H3070 0.999 . S
C3068 H3038 0.950 . S
C3068 C3067 1.524 . S
C3068 C3069 1.415 1_554 S
C3069 H3039 0.950 . S
C3069 C3064 1.363 . S
C3069 C3068 1.415 1_556 S
H3070 C3067 0.999 . S
H3071 C3052 0.913 . S
H3072 C3090 0.951 . S
H3073 C3092 0.951 . S
H3074 C3094 0.950 . S
H3075 C3095 0.950 . S
H3076 C3097 0.950 . S
H3077 C3100 0.950 . S
H3078 C3101 0.950 . S
H3079 C3103 0.950 . S
H3080 C3104 0.950 . S
H3081 C3105 0.951 . S
H3082 C3107 0.951 . S
H3083 C3109 0.950 . S
H3084 C3110 0.950 . S
H3085 C3112 0.950 . S
H3086 C3115 0.950 . S
H3087 C3116 0.950 . S
H3088 C3118 0.950 . S
H3089 C3119 0.950 . S
C3090 H3072 0.951 . S
C3090 C3091 1.366 . S
C3090 C3092 1.388 . S
C3091 C3090 1.366 . S
C3091 C3095 1.385 . S
C3092 H3073 0.951 . S
C3092 C3090 1.388 . S
C3092 C3093 1.366 . S
C3093 C3092 1.366 . S
C3093 C3094 1.414 . S
C3093 C3096 1.499 . S
C3094 H3074 0.950 . S
C3094 C3093 1.414 . S
C3094 C3095 1.374 . S
C3095 H3075 0.950 . S
C3095 C3091 1.385 . S
C3095 C3094 1.374 . S
C3096 C3093 1.499 . S
C3096 C3097 1.373 . S
C3096 C3098 1.389 . S
C3097 H3076 0.950 . S
C3097 C3096 1.373 . S
C3097 C3113 1.377 . S
C3098 C3096 1.389 . S
C3098 C3099 1.524 . S
C3098 C3112 1.377 . S
C3099 C3098 1.524 . S
C3099 C3100 1.397 . S
C3099 C3104 1.363 . S
C3100 H3077 0.950 . S
C3100 C3099 1.397 . S
C3100 C3101 1.334 . S
C3101 H3078 0.950 . S
C3101 C3100 1.334 . S
C3101 C3102 1.287 . S
C3102 C3101 1.287 . S
C3102 C3103 1.524 . S
C3102 H3121 0.913 . S
C3103 H3079 0.950 . S
C3103 C3102 1.524 . S
C3103 C3104 1.415 . S
C3104 H3080 0.950 . S
C3104 C3099 1.363 . S
C3104 C3103 1.415 . S
C3105 H3081 0.951 . S
C3105 C3106 1.366 . S
C3105 C3107 1.388 . S
C3106 C3105 1.366 . S
C3106 C3110 1.385 . S
C3107 H3082 0.951 . S
C3107 C3105 1.388 . S
C3107 C3108 1.366 . S
C3108 C3107 1.366 . S
C3108 C3109 1.414 . S
C3108 C3111 1.499 . S
C3109 H3083 0.950 . S
C3109 C3108 1.414 . S
C3109 C3110 1.374 . S
C3110 H3084 0.950 . S
C3110 C3106 1.385 . S
C3110 C3109 1.374 . S
C3111 C3108 1.499 . S
C3111 C3112 1.373 . S
C3111 C3113 1.389 . S
C3112 H3085 0.950 . S
C3112 C3098 1.377 . S
C3112 C3111 1.373 . S
C3113 C3097 1.377 . S
C3113 C3111 1.389 . S
C3113 C3114 1.524 . S
C3114 C3113 1.524 . S
C3114 C3115 1.397 . S
C3114 C3119 1.363 . S
C3115 H3086 0.950 . S
C3115 C3114 1.397 . S
C3115 C3116 1.334 . S
C3116 H3087 0.950 . S
C3116 C3115 1.334 . S
C3116 C3117 1.287 . S
C3117 C3116 1.287 . S
C3117 C3118 1.524 . S
C3117 H3120 0.999 . S
C3118 H3088 0.950 . S
C3118 C3117 1.524 . S
C3118 C3119 1.415 . S
C3119 H3089 0.950 . S
C3119 C3114 1.363 . S
C3119 C3118 1.415 . S
H3120 C3117 0.999 . S
H3121 C3102 0.913 . S
H3122 C3140 0.951 . S
H3123 C3142 0.951 . S
H3124 C3144 0.950 . S
H3125 C3145 0.950 . S
H3126 C3147 0.950 . S
H3127 C3150 0.950 . S
H3128 C3151 0.950 . S
H3129 C3153 0.950 . S
H3130 C3154 0.950 . S
H3131 C3155 0.951 1_556 S
H3132 C3157 0.951 . S
H3133 C3159 0.950 . S
H3134 C3160 0.950 . S
H3135 C3162 0.950 . S
H3136 C3165 0.950 . S
H3137 C3166 0.950 . S
H3138 C3168 0.950 . S
H3139 C3169 0.950 . S
C3140 H3122 0.951 . S
C3140 C3141 1.366 . S
C3140 C3142 1.388 . S
C3141 C3140 1.366 . S
C3141 C3145 1.385 . S
C3142 H3123 0.951 . S
C3142 C3140 1.388 . S
C3142 C3143 1.366 . S
C3143 C3142 1.366 . S
C3143 C3144 1.414 . S
C3143 C3146 1.499 . S
C3144 H3124 0.950 . S
C3144 C3143 1.414 . S
C3144 C3145 1.374 . S
C3145 H3125 0.950 . S
C3145 C3141 1.385 . S
C3145 C3144 1.374 . S
C3146 C3143 1.499 . S
C3146 C3147 1.373 . S
C3146 C3148 1.389 . S
C3147 H3126 0.950 . S
C3147 C3146 1.373 . S
C3147 C3163 1.377 . S
C3148 C3146 1.389 . S
C3148 C3149 1.524 . S
C3148 C3162 1.377 . S
C3149 C3148 1.524 . S
C3149 C3150 1.397 . S
C3149 C3154 1.363 . S
C3150 H3127 0.950 . S
C3150 C3149 1.397 . S
C3150 C3151 1.334 . S
C3151 H3128 0.950 . S
C3151 C3150 1.334 . S
C3151 C3152 1.287 . S
C3152 C3151 1.287 . S
C3152 C3153 1.524 . S
C3152 H3171 0.913 . S
C3153 H3129 0.950 . S
C3153 C3152 1.524 . S
C3153 C3154 1.415 . S
C3154 H3130 0.950 . S
C3154 C3149 1.363 . S
C3154 C3153 1.415 . S
C3155 H3131 0.951 1_554 S
C3155 C3156 1.366 . S
C3155 C3157 1.388 . S
C3156 C3155 1.366 . S
C3156 C3160 1.385 . S
C3157 H3132 0.951 . S
C3157 C3155 1.388 . S
C3157 C3158 1.366 . S
C3158 C3157 1.366 . S
C3158 C3159 1.414 . S
C3158 C3161 1.499 . S
C3159 H3133 0.950 . S
C3159 C3158 1.414 . S
C3159 C3160 1.374 . S
C3160 H3134 0.950 . S
C3160 C3156 1.385 . S
C3160 C3159 1.374 . S
C3161 C3158 1.499 . S
C3161 C3162 1.373 . S
C3161 C3163 1.389 . S
C3162 H3135 0.950 . S
C3162 C3148 1.377 . S
C3162 C3161 1.373 . S
C3163 C3147 1.377 . S
C3163 C3161 1.389 . S
C3163 C3164 1.524 . S
C3164 C3163 1.524 . S
C3164 C3165 1.397 . S
C3164 C3169 1.363 . S
C3165 H3136 0.950 . S
C3165 C3164 1.397 . S
C3165 C3166 1.334 . S
C3166 H3137 0.950 . S
C3166 C3165 1.334 . S
C3166 C3167 1.287 . S
C3167 C3166 1.287 . S
C3167 C3168 1.524 . S
C3167 H3170 0.999 1_554 S
C3168 H3138 0.950 . S
C3168 C3167 1.524 . S
C3168 C3169 1.415 . S
C3169 H3139 0.950 . S
C3169 C3164 1.363 . S
C3169 C3168 1.415 . S
H3170 C3167 0.999 1_556 S
H3171 C3152 0.913 . S
H3172 C3190 0.951 . S
H3173 C3192 0.951 . S
H3174 C3194 0.950 . S
H3175 C3195 0.950 . S
H3176 C3197 0.950 . S
H3177 C3200 0.950 . S
H3178 C3201 0.950 . S
H3179 C3203 0.950 . S
H3180 C3204 0.950 . S
H3181 C3205 0.951 . S
H3182 C3207 0.951 . S
H3183 C3209 0.950 . S
H3184 C3210 0.950 . S
H3185 C3212 0.950 . S
H3186 C3215 0.950 . S
H3187 C3216 0.950 . S
H3188 C3218 0.950 . S
H3189 C3219 0.950 . S
C3190 H3172 0.951 . S
C3190 C3191 1.366 . S
C3190 C3192 1.388 . S
C3191 C3190 1.366 . S
C3191 C3195 1.385 . S
C3192 H3173 0.951 . S
C3192 C3190 1.388 . S
C3192 C3193 1.366 . S
C3193 C3192 1.366 . S
C3193 C3194 1.414 . S
C3193 C3196 1.499 . S
C3194 H3174 0.950 . S
C3194 C3193 1.414 . S
C3194 C3195 1.374 . S
C3195 H3175 0.950 . S
C3195 C3191 1.385 . S
C3195 C3194 1.374 . S
C3196 C3193 1.499 . S
C3196 C3197 1.373 . S
C3196 C3198 1.389 . S
C3197 H3176 0.950 . S
C3197 C3196 1.373 . S
C3197 C3213 1.377 . S
C3198 C3196 1.389 . S
C3198 C3199 1.524 . S
C3198 C3212 1.377 . S
C3199 C3198 1.524 . S
C3199 C3200 1.397 . S
C3199 C3204 1.363 . S
C3200 H3177 0.950 . S
C3200 C3199 1.397 . S
C3200 C3201 1.334 . S
C3201 H3178 0.950 . S
C3201 C3200 1.334 . S
C3201 C3202 1.287 . S
C3202 C3201 1.287 . S
C3202 C3203 1.524 . S
C3202 H3221 0.913 . S
C3203 H3179 0.950 . S
C3203 C3202 1.524 . S
C3203 C3204 1.415 . S
C3204 H3180 0.950 . S
C3204 C3199 1.363 . S
C3204 C3203 1.415 . S
C3205 H3181 0.951 . S
C3205 C3206 1.366 . S
C3205 C3207 1.388 . S
C3206 C3205 1.366 . S
C3206 C3210 1.385 . S
C3207 H3182 0.951 . S
C3207 C3205 1.388 . S
C3207 C3208 1.366 . S
C3208 C3207 1.366 . S
C3208 C3209 1.414 . S
C3208 C3211 1.499 . S
C3209 H3183 0.950 . S
C3209 C3208 1.414 . S
C3209 C3210 1.374 . S
C3210 H3184 0.950 . S
C3210 C3206 1.385 . S
C3210 C3209 1.374 . S
C3211 C3208 1.499 . S
C3211 C3212 1.373 . S
C3211 C3213 1.389 . S
C3212 H3185 0.950 . S
C3212 C3198 1.377 . S
C3212 C3211 1.373 . S
C3213 C3197 1.377 . S
C3213 C3211 1.389 . S
C3213 C3214 1.524 . S
C3214 C3213 1.524 . S
C3214 C3215 1.397 . S
C3214 C3219 1.363 . S
C3215 H3186 0.950 . S
C3215 C3214 1.397 . S
C3215 C3216 1.334 . S
C3216 H3187 0.950 . S
C3216 C3215 1.334 . S
C3216 C3217 1.287 . S
C3217 C3216 1.287 . S
C3217 C3218 1.524 . S
C3217 H3220 0.999 . S
C3218 H3188 0.950 . S
C3218 C3217 1.524 . S
C3218 C3219 1.415 . S
C3219 H3189 0.950 . S
C3219 C3214 1.363 . S
C3219 C3218 1.415 . S
H3220 C3217 0.999 . S
H3221 C3202 0.913 . S
H3222 C3240 0.951 1_655 S
H3223 C3242 0.951 . S
H3224 C3244 0.950 . S
H3225 C3245 0.950 . S
H3226 C3247 0.950 . S
H3227 C3250 0.950 . S
H3228 C3251 0.985 . S
H3229 C3253 0.950 1_655 S
H3230 C3254 0.950 . S
H3231 C3255 0.951 . S
H3232 C3257 0.951 . S
H3233 C3259 0.950 . S
H3234 C3260 0.950 . S
H3235 C3262 0.950 . S
H3236 C3265 0.950 . S
H3237 C3266 0.950 . S
H3238 C3268 0.950 . S
H3239 C3269 0.950 . S
C3240 H3222 0.951 1_455 S
C3240 C3241 1.366 . S
C3240 C3242 1.388 . S
C3241 C3240 1.366 . S
C3241 C3245 1.385 . S
C3242 H3223 0.951 . S
C3242 C3240 1.388 . S
C3242 C3243 1.366 . S
C3243 C3242 1.366 . S
C3243 C3244 1.414 . S
C3243 C3246 1.499 . S
C3244 H3224 0.950 . S
C3244 C3243 1.414 . S
C3244 C3245 1.374 . S
C3245 H3225 0.950 . S
C3245 C3241 1.385 . S
C3245 C3244 1.374 . S
C3246 C3243 1.499 . S
C3246 C3247 1.373 . S
C3246 C3248 1.389 . S
C3247 H3226 0.950 . S
C3247 C3246 1.373 . S
C3247 C3263 1.377 . S
C3248 C3246 1.389 . S
C3248 C3249 1.524 . S
C3248 C3262 1.377 . S
C3249 C3248 1.524 . S
C3249 C3250 1.397 . S
C3249 C3254 1.363 . S
C3250 H3227 0.950 . S
C3250 C3249 1.397 . S
C3250 C3251 1.279 1_455 S
C3251 H3228 0.985 . S
C3251 C3250 1.279 1_655 S
C3251 C3252 1.308 . S
C3252 C3251 1.308 . S
C3252 C3253 1.524 1_655 S
C3252 H3271 0.913 . S
C3253 H3229 0.950 1_455 S
C3253 C3252 1.524 1_455 S
C3253 C3254 1.415 . S
C3254 H3230 0.950 . S
C3254 C3249 1.363 . S
C3254 C3253 1.415 . S
C3255 H3231 0.951 . S
C3255 C3256 1.366 . S
C3255 C3257 1.388 . S
C3256 C3255 1.366 . S
C3256 C3260 1.385 . S
C3257 H3232 0.951 . S
C3257 C3255 1.388 . S
C3257 C3258 1.366 . S
C3258 C3257 1.366 . S
C3258 C3259 1.414 . S
C3258 C3261 1.499 . S
C3259 H3233 0.950 . S
C3259 C3258 1.414 . S
C3259 C3260 1.374 . S
C3260 H3234 0.950 . S
C3260 C3256 1.385 . S
C3260 C3259 1.374 . S
C3261 C3258 1.499 . S
C3261 C3262 1.373 . S
C3261 C3263 1.389 . S
C3262 H3235 0.950 . S
C3262 C3248 1.377 . S
C3262 C3261 1.373 . S
C3263 C3247 1.377 . S
C3263 C3261 1.389 . S
C3263 C3264 1.524 . S
C3264 C3263 1.524 . S
C3264 C3265 1.397 . S
C3264 C3269 1.363 . S
C3265 H3236 0.950 . S
C3265 C3264 1.397 . S
C3265 C3266 1.334 . S
C3266 H3237 0.950 . S
C3266 C3265 1.334 . S
C3266 C3267 1.287 . S
C3267 C3266 1.287 . S
C3267 C3268 1.524 . S
C3267 H3270 0.999 . S
C3268 H3238 0.950 . S
C3268 C3267 1.524 . S
C3268 C3269 1.415 . S
C3269 H3239 0.950 . S
C3269 C3264 1.363 . S
C3269 C3268 1.415 . S
H3270 C3267 0.999 . S
H3271 C3252 0.913 . S
H3272 C3290 0.951 . S
H3273 C3292 0.951 . S
H3274 C3294 0.950 . S
H3275 C3295 0.950 . S
H3276 C3297 0.950 . S
H3277 C3300 0.950 . S
H3278 C3301 0.950 . S
H3279 C3303 0.950 . S
H3280 C3304 0.950 . S
H3281 C3305 0.951 . S
H3282 C3307 0.951 . S
H3283 C3309 0.950 . S
H3284 C3310 0.950 . S
H3285 C3312 0.950 . S
H3286 C3315 0.950 . S
H3287 C3316 0.950 . S
H3288 C3318 0.950 . S
H3289 C3319 0.950 . S
C3290 H3272 0.951 . S
C3290 C3291 1.366 . S
C3290 C3292 1.388 . S
C3291 C3290 1.366 . S
C3291 C3295 1.385 . S
C3292 H3273 0.951 . S
C3292 C3290 1.388 . S
C3292 C3293 1.366 . S
C3293 C3292 1.366 . S
C3293 C3294 1.414 . S
C3293 C3296 1.499 . S
C3294 H3274 0.950 . S
C3294 C3293 1.414 . S
C3294 C3295 1.374 . S
C3295 H3275 0.950 . S
C3295 C3291 1.385 . S
C3295 C3294 1.374 . S
C3296 C3293 1.499 . S
C3296 C3297 1.373 . S
C3296 C3298 1.389 . S
C3297 H3276 0.950 . S
C3297 C3296 1.373 . S
C3297 C3313 1.377 . S
C3298 C3296 1.389 . S
C3298 C3299 1.524 . S
C3298 C3312 1.377 . S
C3299 C3298 1.524 . S
C3299 C3300 1.397 . S
C3299 C3304 1.363 . S
C3300 H3277 0.950 . S
C3300 C3299 1.397 . S
C3300 C3301 1.334 . S
C3301 H3278 0.950 . S
C3301 C3300 1.334 . S
C3301 C3302 1.287 . S
C3302 C3301 1.287 . S
C3302 C3303 1.524 . S
C3302 H3321 0.913 . S
C3303 H3279 0.950 . S
C3303 C3302 1.524 . S
C3303 C3304 1.415 . S
C3304 H3280 0.950 . S
C3304 C3299 1.363 . S
C3304 C3303 1.415 . S
C3305 H3281 0.951 . S
C3305 C3306 1.366 . S
C3305 C3307 1.388 . S
C3306 C3305 1.366 . S
C3306 C3310 1.385 . S
C3307 H3282 0.951 . S
C3307 C3305 1.388 . S
C3307 C3308 1.366 . S
C3308 C3307 1.366 . S
C3308 C3309 1.414 . S
C3308 C3311 1.499 . S
C3309 H3283 0.950 . S
C3309 C3308 1.414 . S
C3309 C3310 1.374 . S
C3310 H3284 0.950 . S
C3310 C3306 1.385 . S
C3310 C3309 1.374 . S
C3311 C3308 1.499 . S
C3311 C3312 1.373 . S
C3311 C3313 1.389 . S
C3312 H3285 0.950 . S
C3312 C3298 1.377 . S
C3312 C3311 1.373 . S
C3313 C3297 1.377 . S
C3313 C3311 1.389 . S
C3313 C3314 1.524 . S
C3314 C3313 1.524 . S
C3314 C3315 1.397 . S
C3314 C3319 1.363 . S
C3315 H3286 0.950 . S
C3315 C3314 1.397 . S
C3315 C3316 1.334 . S
C3316 H3287 0.950 . S
C3316 C3315 1.334 . S
C3316 C3317 1.287 . S
C3317 C3316 1.287 . S
C3317 C3318 1.524 . S
C3317 H3320 0.999 . S
C3318 H3288 0.950 . S
C3318 C3317 1.524 . S
C3318 C3319 1.415 . S
C3319 H3289 0.950 . S
C3319 C3314 1.363 . S
C3319 C3318 1.415 . S
H3320 C3317 0.999 . S
H3321 C3302 0.913 . S
H3322 C3340 0.951 . S
H3323 C3342 0.951 . S
H3324 C3344 0.950 . S
H3325 C3345 0.950 1_554 S
H3326 C3347 0.950 . S
H3327 C3350 0.950 . S
H3328 C3351 0.950 . S
H3329 C3353 0.950 . S
H3330 C3354 0.950 . S
H3331 C3355 0.951 1_655 S
H3332 C3357 0.951 . S
H3333 C3359 0.950 . S
H3334 C3360 0.950 . S
H3335 C3362 0.950 . S
H3336 C3365 0.950 . S
H3337 C3366 0.950 . S
H3338 C3368 0.950 . S
H3339 C3369 0.950 . S
C3340 H3322 0.951 . S
C3340 C3341 1.366 . S
C3340 C3342 1.388 . S
C3341 C3340 1.366 . S
C3341 C3345 1.385 . S
C3342 H3323 0.951 . S
C3342 C3340 1.388 . S
C3342 C3343 1.366 . S
C3343 C3342 1.366 . S
C3343 C3344 1.414 . S
C3343 C3346 1.499 . S
C3344 H3324 0.950 . S
C3344 C3343 1.414 . S
C3344 C3345 1.374 . S
C3345 H3325 0.950 1_556 S
C3345 C3341 1.385 . S
C3345 C3344 1.374 . S
C3346 C3343 1.499 . S
C3346 C3347 1.373 . S
C3346 C3348 1.389 . S
C3347 H3326 0.950 . S
C3347 C3346 1.373 . S
C3347 C3363 1.377 . S
C3348 C3346 1.389 . S
C3348 C3349 1.524 . S
C3348 C3362 1.377 . S
C3349 C3348 1.524 . S
C3349 C3350 1.397 . S
C3349 C3354 1.363 . S
C3350 H3327 0.950 . S
C3350 C3349 1.397 . S
C3350 C3351 1.334 . S
C3351 H3328 0.950 . S
C3351 C3350 1.334 . S
C3351 C3352 1.287 . S
C3352 C3351 1.287 . S
C3352 C3353 1.524 . S
C3352 H3371 0.913 . S
C3353 H3329 0.950 . S
C3353 C3352 1.524 . S
C3353 C3354 1.415 . S
C3354 H3330 0.950 . S
C3354 C3349 1.363 . S
C3354 C3353 1.415 . S
C3355 H3331 0.951 1_455 S
C3355 C3356 1.366 . S
C3355 C3357 1.388 . S
C3356 C3355 1.366 . S
C3356 C3360 1.385 . S
C3357 H3332 0.951 . S
C3357 C3355 1.388 . S
C3357 C3358 1.366 . S
C3358 C3357 1.366 . S
C3358 C3359 1.414 . S
C3358 C3361 1.499 . S
C3359 H3333 0.950 . S
C3359 C3358 1.414 . S
C3359 C3360 1.374 . S
C3360 H3334 0.950 . S
C3360 C3356 1.385 . S
C3360 C3359 1.374 . S
C3361 C3358 1.499 . S
C3361 C3362 1.373 . S
C3361 C3363 1.389 . S
C3362 H3335 0.950 . S
C3362 C3348 1.377 . S
C3362 C3361 1.373 . S
C3363 C3347 1.377 . S
C3363 C3361 1.389 . S
C3363 C3364 1.524 . S
C3364 C3363 1.524 . S
C3364 C3365 1.397 . S
C3364 C3369 1.363 . S
C3365 H3336 0.950 . S
C3365 C3364 1.397 . S
C3365 C3366 1.334 . S
C3366 H3337 0.950 . S
C3366 C3365 1.334 . S
C3366 C3367 1.287 . S
C3367 C3366 1.287 . S
C3367 C3368 1.524 . S
C3367 H3370 0.999 . S
C3368 H3338 0.950 . S
C3368 C3367 1.524 . S
C3368 C3369 1.415 . S
C3369 H3339 0.950 . S
C3369 C3364 1.363 . S
C3369 C3368 1.415 . S
H3370 C3367 0.999 . S
H3371 C3352 0.913 . S
H3372 C3390 0.951 . S
H3373 C3392 0.951 . S
H3374 C3394 0.950 . S
H3375 C3395 0.950 . S
H3376 C3397 0.950 . S
H3377 C3400 0.950 . S
H3378 C3401 0.950 . S
H3379 C3403 0.950 . S
H3380 C3404 0.950 . S
H3381 C3405 0.951 . S
H3382 C3407 0.951 . S
H3383 C3409 0.950 . S
H3384 C3410 0.950 . S
H3385 C3412 0.950 . S
H3386 C3415 0.950 . S
H3387 C3416 0.950 . S
H3388 C3418 0.950 . S
H3389 C3419 0.950 . S
C3390 H3372 0.951 . S
C3390 C3391 1.366 . S
C3390 C3392 1.388 . S
C3391 C3390 1.366 . S
C3391 C3395 1.385 . S
C3392 H3373 0.951 . S
C3392 C3390 1.388 . S
C3392 C3393 1.366 . S
C3393 C3392 1.366 . S
C3393 C3394 1.414 . S
C3393 C3396 1.499 . S
C3394 H3374 0.950 . S
C3394 C3393 1.414 . S
C3394 C3395 1.374 . S
C3395 H3375 0.950 . S
C3395 C3391 1.385 . S
C3395 C3394 1.374 . S
C3396 C3393 1.499 . S
C3396 C3397 1.373 . S
C3396 C3398 1.389 . S
C3397 H3376 0.950 . S
C3397 C3396 1.373 . S
C3397 C3413 1.377 . S
C3398 C3396 1.389 . S
C3398 C3399 1.524 . S
C3398 C3412 1.377 . S
C3399 C3398 1.524 . S
C3399 C3400 1.397 . S
C3399 C3404 1.363 . S
C3400 H3377 0.950 . S
C3400 C3399 1.397 . S
C3400 C3401 1.334 . S
C3401 H3378 0.950 . S
C3401 C3400 1.334 . S
C3401 C3402 1.287 . S
C3402 C3401 1.287 . S
C3402 C3403 1.524 . S
C3402 H3421 0.913 . S
C3403 H3379 0.950 . S
C3403 C3402 1.524 . S
C3403 C3404 1.415 . S
C3404 H3380 0.950 . S
C3404 C3399 1.363 . S
C3404 C3403 1.415 . S
C3405 H3381 0.951 . S
C3405 C3406 1.366 . S
C3405 C3407 1.388 . S
C3406 C3405 1.366 . S
C3406 C3410 1.385 . S
C3407 H3382 0.951 . S
C3407 C3405 1.388 . S
C3407 C3408 1.366 . S
C3408 C3407 1.366 . S
C3408 C3409 1.414 . S
C3408 C3411 1.499 . S
C3409 H3383 0.950 . S
C3409 C3408 1.414 . S
C3409 C3410 1.374 . S
C3410 H3384 0.950 . S
C3410 C3406 1.385 . S
C3410 C3409 1.374 . S
C3411 C3408 1.499 . S
C3411 C3412 1.373 . S
C3411 C3413 1.389 . S
C3412 H3385 0.950 . S
C3412 C3398 1.377 . S
C3412 C3411 1.373 . S
C3413 C3397 1.377 . S
C3413 C3411 1.389 . S
C3413 C3414 1.524 . S
C3414 C3413 1.524 . S
C3414 C3415 1.397 . S
C3414 C3419 1.363 . S
C3415 H3386 0.950 . S
C3415 C3414 1.397 . S
C3415 C3416 1.334 . S
C3416 H3387 0.950 . S
C3416 C3415 1.334 . S
C3416 C3417 1.287 . S
C3417 C3416 1.287 . S
C3417 C3418 1.524 . S
C3417 H3420 0.999 . S
C3418 H3388 0.950 . S
C3418 C3417 1.524 . S
C3418 C3419 1.415 . S
C3419 H3389 0.950 . S
C3419 C3414 1.363 . S
C3419 C3418 1.415 . S
H3420 C3417 0.999 . S
H3421 C3402 0.913 . S
H3422 C3440 0.951 . S
H3423 C3442 0.951 . S
H3424 C3444 0.950 . S
H3425 C3445 0.950 . S
H3426 C3447 0.950 . S
H3427 C3450 0.950 . S
H3428 C3451 0.950 . S
H3429 C3453 0.950 . S
H3430 C3454 0.950 . S
H3431 C3455 0.951 . S
H3432 C3457 0.951 . S
H3433 C3459 0.950 . S
H3434 C3460 0.950 . S
H3435 C3462 0.950 . S
H3436 C3465 0.950 . S
H3437 C3466 0.950 . S
H3438 C3468 0.950 . S
H3439 C3469 0.950 . S
C3440 H3422 0.951 . S
C3440 C3441 1.366 . S
C3440 C3442 1.388 . S
C3441 C3440 1.366 . S
C3441 C3445 1.385 . S
C3442 H3423 0.951 . S
C3442 C3440 1.388 . S
C3442 C3443 1.366 . S
C3443 C3442 1.366 . S
C3443 C3444 1.414 . S
C3443 C3446 1.499 . S
C3444 H3424 0.950 . S
C3444 C3443 1.414 . S
C3444 C3445 1.374 . S
C3445 H3425 0.950 . S
C3445 C3441 1.385 . S
C3445 C3444 1.374 . S
C3446 C3443 1.499 . S
C3446 C3447 1.373 . S
C3446 C3448 1.389 . S
C3447 H3426 0.950 . S
C3447 C3446 1.373 . S
C3447 C3463 1.377 . S
C3448 C3446 1.389 . S
C3448 C3449 1.524 . S
C3448 C3462 1.377 . S
C3449 C3448 1.524 . S
C3449 C3450 1.397 . S
C3449 C3454 1.363 . S
C3450 H3427 0.950 . S
C3450 C3449 1.397 . S
C3450 C3451 1.334 . S
C3451 H3428 0.950 . S
C3451 C3450 1.334 . S
C3451 C3452 1.287 . S
C3452 C3451 1.287 . S
C3452 C3453 1.524 . S
C3452 H3471 0.913 . S
C3453 H3429 0.950 . S
C3453 C3452 1.524 . S
C3453 C3454 1.415 . S
C3454 H3430 0.950 . S
C3454 C3449 1.363 . S
C3454 C3453 1.415 . S
C3455 H3431 0.951 . S
C3455 C3456 1.366 . S
C3455 C3457 1.388 . S
C3456 C3455 1.366 . S
C3456 C3460 1.385 . S
C3457 H3432 0.951 . S
C3457 C3455 1.388 . S
C3457 C3458 1.366 . S
C3458 C3457 1.366 . S
C3458 C3459 1.414 . S
C3458 C3461 1.499 . S
C3459 H3433 0.950 . S
C3459 C3458 1.414 . S
C3459 C3460 1.374 . S
C3460 H3434 0.950 . S
C3460 C3456 1.385 . S
C3460 C3459 1.374 . S
C3461 C3458 1.499 . S
C3461 C3462 1.373 . S
C3461 C3463 1.389 . S
C3462 H3435 0.950 . S
C3462 C3448 1.377 . S
C3462 C3461 1.373 . S
C3463 C3447 1.377 . S
C3463 C3461 1.389 . S
C3463 C3464 1.524 . S
C3464 C3463 1.524 . S
C3464 C3465 1.397 . S
C3464 C3469 1.363 . S
C3465 H3436 0.950 . S
C3465 C3464 1.397 . S
C3465 C3466 1.334 . S
C3466 H3437 0.950 . S
C3466 C3465 1.334 . S
C3466 C3467 1.287 . S
C3467 C3466 1.287 . S
C3467 C3468 1.524 . S
C3467 H3470 0.999 . S
C3468 H3438 0.950 . S
C3468 C3467 1.524 . S
C3468 C3469 1.415 . S
C3469 H3439 0.950 . S
C3469 C3464 1.363 . S
C3469 C3468 1.415 . S
H3470 C3467 0.999 . S
H3471 C3452 0.913 . S
H3472 C3490 0.951 . S
H3473 C3492 0.951 . S
H3474 C3494 0.950 . S
H3475 C3495 0.950 . S
H3476 C3497 0.950 . S
H3477 C3500 0.950 . S
H3478 C3501 0.950 . S
H3479 C3503 0.950 . S
H3480 C3504 0.950 . S
H3481 C3505 0.951 . S
H3482 C3507 0.951 . S
H3483 C3509 0.950 . S
H3484 C3510 0.950 . S
H3485 C3512 0.950 . S
H3486 C3515 0.950 . S
H3487 C3516 0.950 . S
H3488 C3518 0.950 . S
H3489 C3519 0.950 . S
C3490 H3472 0.951 . S
C3490 C3491 1.366 . S
C3490 C3492 1.388 . S
C3491 C3490 1.366 . S
C3491 C3495 1.385 . S
C3492 H3473 0.951 . S
C3492 C3490 1.388 . S
C3492 C3493 1.366 . S
C3493 C3492 1.366 . S
C3493 C3494 1.414 . S
C3493 C3496 1.499 . S
C3494 H3474 0.950 . S
C3494 C3493 1.414 . S
C3494 C3495 1.374 . S
C3495 H3475 0.950 . S
C3495 C3491 1.385 . S
C3495 C3494 1.374 . S
C3496 C3493 1.499 . S
C3496 C3497 1.373 . S
C3496 C3498 1.389 . S
C3497 H3476 0.950 . S
C3497 C3496 1.373 . S
C3497 C3513 1.377 . S
C3498 C3496 1.389 . S
C3498 C3499 1.524 . S
C3498 C3512 1.377 . S
C3499 C3498 1.524 . S
C3499 C3500 1.397 . S
C3499 C3504 1.363 . S
C3500 H3477 0.950 . S
C3500 C3499 1.397 . S
C3500 C3501 1.334 . S
C3501 H3478 0.950 . S
C3501 C3500 1.334 . S
C3501 C3502 1.287 . S
C3502 C3501 1.287 . S
C3502 C3503 1.524 . S
C3502 H3521 0.913 . S
C3503 H3479 0.950 . S
C3503 C3502 1.524 . S
C3503 C3504 1.415 . S
C3504 H3480 0.950 . S
C3504 C3499 1.363 . S
C3504 C3503 1.415 . S
C3505 H3481 0.951 . S
C3505 C3506 1.366 . S
C3505 C3507 1.388 . S
C3506 C3505 1.366 . S
C3506 C3510 1.385 . S
C3507 H3482 0.951 . S
C3507 C3505 1.388 . S
C3507 C3508 1.366 . S
C3508 C3507 1.366 . S
C3508 C3509 1.414 . S
C3508 C3511 1.499 . S
C3509 H3483 0.950 . S
C3509 C3508 1.414 . S
C3509 C3510 1.374 . S
C3510 H3484 0.950 . S
C3510 C3506 1.385 . S
C3510 C3509 1.374 . S
C3511 C3508 1.499 . S
C3511 C3512 1.373 . S
C3511 C3513 1.389 . S
C3512 H3485 0.950 . S
C3512 C3498 1.377 . S
C3512 C3511 1.373 . S
C3513 C3497 1.377 . S
C3513 C3511 1.389 . S
C3513 C3514 1.524 . S
C3514 C3513 1.524 . S
C3514 C3515 1.397 . S
C3514 C3519 1.363 . S
C3515 H3486 0.950 . S
C3515 C3514 1.397 . S
C3515 C3516 1.334 . S
C3516 H3487 0.950 . S
C3516 C3515 1.334 . S
C3516 C3517 1.287 . S
C3517 C3516 1.287 . S
C3517 C3518 1.524 . S
C3517 H3520 0.999 . S
C3518 H3488 0.950 . S
C3518 C3517 1.524 . S
C3518 C3519 1.415 . S
C3519 H3489 0.950 . S
C3519 C3514 1.363 . S
C3519 C3518 1.415 . S
H3520 C3517 0.999 . S
H3521 C3502 0.913 . S
H3522 C3540 0.951 . S
H3523 C3542 0.951 . S
H3524 C3544 0.950 . S
H3525 C3545 0.950 . S
H3526 C3547 0.950 . S
H3527 C3550 0.950 . S
H3528 C3551 0.950 . S
H3529 C3553 0.950 . S
H3530 C3554 0.950 . S
H3531 C3555 0.951 . S
H3532 C3557 0.951 . S
H3533 C3559 0.950 . S
H3534 C3560 0.950 . S
H3535 C3562 0.950 . S
H3536 C3565 0.950 . S
H3537 C3566 0.950 . S
H3538 C3568 0.950 . S
H3539 C3569 0.950 . S
C3540 H3522 0.951 . S
C3540 C3541 1.366 . S
C3540 C3542 1.388 . S
C3541 C3540 1.366 . S
C3541 C3545 1.385 . S
C3542 H3523 0.951 . S
C3542 C3540 1.388 . S
C3542 C3543 1.366 . S
C3543 C3542 1.366 . S
C3543 C3544 1.414 . S
C3543 C3546 1.499 . S
C3544 H3524 0.950 . S
C3544 C3543 1.414 . S
C3544 C3545 1.374 . S
C3545 H3525 0.950 . S
C3545 C3541 1.385 . S
C3545 C3544 1.374 . S
C3546 C3543 1.499 . S
C3546 C3547 1.373 . S
C3546 C3548 1.389 . S
C3547 H3526 0.950 . S
C3547 C3546 1.373 . S
C3547 C3563 1.377 . S
C3548 C3546 1.389 . S
C3548 C3549 1.524 . S
C3548 C3562 1.377 . S
C3549 C3548 1.524 . S
C3549 C3550 1.397 . S
C3549 C3554 1.363 . S
C3550 H3527 0.950 . S
C3550 C3549 1.397 . S
C3550 C3551 1.334 . S
C3551 H3528 0.950 . S
C3551 C3550 1.334 . S
C3551 C3552 1.287 . S
C3552 C3551 1.287 . S
C3552 C3553 1.524 . S
C3552 H3571 0.913 . S
C3553 H3529 0.950 . S
C3553 C3552 1.524 . S
C3553 C3554 1.415 . S
C3554 H3530 0.950 . S
C3554 C3549 1.363 . S
C3554 C3553 1.415 . S
C3555 H3531 0.951 . S
C3555 C3556 1.366 . S
C3555 C3557 1.388 . S
C3556 C3555 1.366 . S
C3556 C3560 1.385 . S
C3557 H3532 0.951 . S
C3557 C3555 1.388 . S
C3557 C3558 1.366 . S
C3558 C3557 1.366 . S
C3558 C3559 1.414 . S
C3558 C3561 1.499 . S
C3559 H3533 0.950 . S
C3559 C3558 1.414 . S
C3559 C3560 1.374 . S
C3560 H3534 0.950 . S
C3560 C3556 1.385 . S
C3560 C3559 1.374 . S
C3561 C3558 1.499 . S
C3561 C3562 1.373 . S
C3561 C3563 1.389 . S
C3562 H3535 0.950 . S
C3562 C3548 1.377 . S
C3562 C3561 1.373 . S
C3563 C3547 1.377 . S
C3563 C3561 1.389 . S
C3563 C3564 1.524 . S
C3564 C3563 1.524 . S
C3564 C3565 1.397 . S
C3564 C3569 1.363 . S
C3565 H3536 0.950 . S
C3565 C3564 1.397 . S
C3565 C3566 1.334 . S
C3566 H3537 0.950 . S
C3566 C3565 1.334 . S
C3566 C3567 1.287 . S
C3567 C3566 1.287 . S
C3567 C3568 1.524 . S
C3567 H3570 0.999 . S
C3568 H3538 0.950 . S
C3568 C3567 1.524 . S
C3568 C3569 1.415 . S
C3569 H3539 0.950 . S
C3569 C3564 1.363 . S
C3569 C3568 1.415 . S
H3570 C3567 0.999 . S
H3571 C3552 0.913 . S
H3572 C3590 0.951 . S
H3573 C3592 0.951 . S
H3574 C3594 0.950 . S
H3575 C3595 0.950 . S
H3576 C3597 0.950 . S
H3577 C3600 0.950 . S
H3578 C3601 0.950 . S
H3579 C3603 0.950 . S
H3580 C3604 0.950 . S
H3581 C3605 0.951 . S
H3582 C3607 0.951 . S
H3583 C3609 0.950 . S
H3584 C3610 0.950 . S
H3585 C3612 0.950 . S
H3586 C3615 0.950 . S
H3587 C3616 0.950 . S
H3588 C3618 0.950 . S
H3589 C3619 0.950 . S
C3590 H3572 0.951 . S
C3590 C3591 1.366 . S
C3590 C3592 1.388 . S
C3591 C3590 1.366 . S
C3591 C3595 1.385 . S
C3592 H3573 0.951 . S
C3592 C3590 1.388 . S
C3592 C3593 1.366 . S
C3593 C3592 1.366 . S
C3593 C3594 1.414 . S
C3593 C3596 1.499 . S
C3594 H3574 0.950 . S
C3594 C3593 1.414 . S
C3594 C3595 1.374 . S
C3595 H3575 0.950 . S
C3595 C3591 1.385 . S
C3595 C3594 1.374 . S
C3596 C3593 1.499 . S
C3596 C3597 1.373 . S
C3596 C3598 1.389 . S
C3597 H3576 0.950 . S
C3597 C3596 1.373 . S
C3597 C3613 1.377 . S
C3598 C3596 1.389 . S
C3598 C3599 1.524 . S
C3598 C3612 1.377 . S
C3599 C3598 1.524 . S
C3599 C3600 1.397 . S
C3599 C3604 1.363 . S
C3600 H3577 0.950 . S
C3600 C3599 1.397 . S
C3600 C3601 1.334 . S
C3601 H3578 0.950 . S
C3601 C3600 1.334 . S
C3601 C3602 1.287 . S
C3602 C3601 1.287 . S
C3602 C3603 1.524 . S
C3602 H3621 0.913 . S
C3603 H3579 0.950 . S
C3603 C3602 1.524 . S
C3603 C3604 1.415 . S
C3604 H3580 0.950 . S
C3604 C3599 1.363 . S
C3604 C3603 1.415 . S
C3605 H3581 0.951 . S
C3605 C3606 1.366 . S
C3605 C3607 1.388 . S
C3606 C3605 1.366 . S
C3606 C3610 1.385 . S
C3607 H3582 0.951 . S
C3607 C3605 1.388 . S
C3607 C3608 1.366 . S
C3608 C3607 1.366 . S
C3608 C3609 1.414 . S
C3608 C3611 1.499 . S
C3609 H3583 0.950 . S
C3609 C3608 1.414 . S
C3609 C3610 1.374 . S
C3610 H3584 0.950 . S
C3610 C3606 1.385 . S
C3610 C3609 1.374 . S
C3611 C3608 1.499 . S
C3611 C3612 1.373 . S
C3611 C3613 1.389 . S
C3612 H3585 0.950 . S
C3612 C3598 1.377 . S
C3612 C3611 1.373 . S
C3613 C3597 1.377 . S
C3613 C3611 1.389 . S
C3613 C3614 1.524 . S
C3614 C3613 1.524 . S
C3614 C3615 1.397 . S
C3614 C3619 1.363 . S
C3615 H3586 0.950 . S
C3615 C3614 1.397 . S
C3615 C3616 1.334 . S
C3616 H3587 0.950 . S
C3616 C3615 1.334 . S
C3616 C3617 1.287 . S
C3617 C3616 1.287 . S
C3617 C3618 1.524 . S
C3617 H3620 0.999 . S
C3618 H3588 0.950 . S
C3618 C3617 1.524 . S
C3618 C3619 1.415 . S
C3619 H3589 0.950 . S
C3619 C3614 1.363 . S
C3619 C3618 1.415 . S
H3620 C3617 0.999 . S
H3621 C3602 0.913 . S
H3622 C3640 0.951 . S
H3623 C3642 0.951 . S
H3624 C3644 0.950 . S
H3625 C3645 0.950 . S
H3626 C3647 0.950 . S
H3627 C3650 0.950 . S
H3628 C3651 0.950 . S
H3629 C3653 0.950 . S
H3630 C3654 0.932 1_455 S
H3631 C3655 0.951 . S
H3632 C3657 0.951 . S
H3633 C3659 0.950 . S
H3634 C3660 0.950 . S
H3635 C3662 0.950 . S
H3636 C3665 0.950 . S
H3637 C3666 0.950 . S
H3638 C3668 0.950 . S
H3639 C3669 0.950 . S
C3640 H3622 0.951 . S
C3640 C3641 1.366 . S
C3640 C3642 1.388 . S
C3641 C3640 1.366 . S
C3641 C3645 1.385 . S
C3642 H3623 0.951 . S
C3642 C3640 1.388 . S
C3642 C3643 1.366 . S
C3643 C3642 1.366 . S
C3643 C3644 1.414 . S
C3643 C3646 1.499 . S
C3644 H3624 0.950 . S
C3644 C3643 1.414 . S
C3644 C3645 1.374 . S
C3645 H3625 0.950 . S
C3645 C3641 1.385 . S
C3645 C3644 1.374 . S
C3646 C3643 1.499 . S
C3646 C3647 1.373 . S
C3646 C3648 1.389 . S
C3647 H3626 0.950 . S
C3647 C3646 1.373 . S
C3647 C3663 1.377 . S
C3648 C3646 1.389 . S
C3648 C3649 1.524 . S
C3648 C3662 1.377 . S
C3649 C3648 1.524 . S
C3649 C3650 1.397 . S
C3649 C3654 1.415 . S
C3650 H3627 0.950 . S
C3650 C3649 1.397 . S
C3650 C3651 1.334 . S
C3651 H3628 0.950 . S
C3651 C3650 1.334 . S
C3651 C3652 1.268 1_655 S
C3652 C3651 1.268 1_455 S
C3652 C3653 1.534 . S
C3652 H3671 0.924 . S
C3653 H3629 0.950 . S
C3653 C3652 1.534 . S
C3653 C3654 1.382 1_455 S
C3654 H3630 0.932 1_655 S
C3654 C3649 1.415 . S
C3654 C3653 1.382 1_655 S
C3655 H3631 0.951 . S
C3655 C3656 1.366 . S
C3655 C3657 1.388 . S
C3656 C3655 1.366 . S
C3656 C3660 1.385 . S
C3657 H3632 0.951 . S
C3657 C3655 1.388 . S
C3657 C3658 1.366 . S
C3658 C3657 1.366 . S
C3658 C3659 1.414 . S
C3658 C3661 1.499 . S
C3659 H3633 0.950 . S
C3659 C3658 1.414 . S
C3659 C3660 1.374 . S
C3660 H3634 0.950 . S
C3660 C3656 1.385 . S
C3660 C3659 1.374 . S
C3661 C3658 1.499 . S
C3661 C3662 1.373 . S
C3661 C3663 1.389 . S
C3662 H3635 0.950 . S
C3662 C3648 1.377 . S
C3662 C3661 1.373 . S
C3663 C3647 1.377 . S
C3663 C3661 1.389 . S
C3663 C3664 1.524 . S
C3664 C3663 1.524 . S
C3664 C3665 1.397 . S
C3664 C3669 1.363 . S
C3665 H3636 0.950 . S
C3665 C3664 1.397 . S
C3665 C3666 1.334 . S
C3666 H3637 0.950 . S
C3666 C3665 1.334 . S
C3666 C3667 1.287 . S
C3667 C3666 1.287 . S
C3667 C3668 1.524 . S
C3667 H3670 0.999 . S
C3668 H3638 0.950 . S
C3668 C3667 1.524 . S
C3668 C3669 1.415 . S
C3669 H3639 0.950 . S
C3669 C3664 1.363 . S
C3669 C3668 1.415 . S
H3670 C3667 0.999 . S
H3671 C3652 0.924 . S
H3672 C3690 0.951 . S
H3673 C3692 0.951 . S
H3674 C3694 0.950 . S
H3675 C3695 0.950 . S
H3676 C3697 0.950 . S
H3677 C3700 0.950 . S
H3678 C3701 0.950 . S
H3679 C3703 0.950 . S
H3680 C3704 0.950 . S
H3681 C3705 0.951 . S
H3682 C3707 0.951 . S
H3683 C3709 0.950 . S
H3684 C3710 0.950 . S
H3685 C3712 0.950 . S
H3686 C3715 0.950 . S
H3687 C3716 0.950 . S
H3688 C3718 0.950 . S
H3689 C3719 0.950 . S
C3690 H3672 0.951 . S
C3690 C3691 1.366 . S
C3690 C3692 1.388 . S
C3691 C3690 1.366 . S
C3691 C3695 1.385 . S
C3692 H3673 0.951 . S
C3692 C3690 1.388 . S
C3692 C3693 1.366 . S
C3693 C3692 1.366 . S
C3693 C3694 1.414 . S
C3693 C3696 1.499 . S
C3694 H3674 0.950 . S
C3694 C3693 1.414 . S
C3694 C3695 1.374 . S
C3695 H3675 0.950 . S
C3695 C3691 1.385 . S
C3695 C3694 1.374 . S
C3696 C3693 1.499 . S
C3696 C3697 1.373 . S
C3696 C3698 1.389 . S
C3697 H3676 0.950 . S
C3697 C3696 1.373 . S
C3697 C3713 1.377 . S
C3698 C3696 1.389 . S
C3698 C3699 1.524 . S
C3698 C3712 1.377 . S
C3699 C3698 1.524 . S
C3699 C3700 1.397 . S
C3699 C3704 1.363 . S
C3700 H3677 0.950 . S
C3700 C3699 1.397 . S
C3700 C3701 1.334 . S
C3701 H3678 0.950 . S
C3701 C3700 1.334 . S
C3701 C3702 1.287 . S
C3702 C3701 1.287 . S
C3702 C3703 1.524 . S
C3702 H3721 0.913 . S
C3703 H3679 0.950 . S
C3703 C3702 1.524 . S
C3703 C3704 1.415 . S
C3704 H3680 0.950 . S
C3704 C3699 1.363 . S
C3704 C3703 1.415 . S
C3705 H3681 0.951 . S
C3705 C3706 1.366 . S
C3705 C3707 1.388 . S
C3706 C3705 1.366 . S
C3706 C3710 1.385 . S
C3707 H3682 0.951 . S
C3707 C3705 1.388 . S
C3707 C3708 1.366 . S
C3708 C3707 1.366 . S
C3708 C3709 1.414 . S
C3708 C3711 1.499 . S
C3709 H3683 0.950 . S
C3709 C3708 1.414 . S
C3709 C3710 1.374 . S
C3710 H3684 0.950 . S
C3710 C3706 1.385 . S
C3710 C3709 1.374 . S
C3711 C3708 1.499 . S
C3711 C3712 1.373 . S
C3711 C3713 1.389 . S
C3712 H3685 0.950 . S
C3712 C3698 1.377 . S
C3712 C3711 1.373 . S
C3713 C3697 1.377 . S
C3713 C3711 1.389 . S
C3713 C3714 1.524 . S
C3714 C3713 1.524 . S
C3714 C3715 1.397 . S
C3714 C3719 1.363 . S
C3715 H3686 0.950 . S
C3715 C3714 1.397 . S
C3715 C3716 1.334 . S
C3716 H3687 0.950 . S
C3716 C3715 1.334 . S
C3716 C3717 1.287 . S
C3717 C3716 1.287 . S
C3717 C3718 1.524 . S
C3717 H3720 0.999 . S
C3718 H3688 0.950 . S
C3718 C3717 1.524 . S
C3718 C3719 1.415 . S
C3719 H3689 0.950 . S
C3719 C3714 1.363 . S
C3719 C3718 1.415 . S
H3720 C3717 0.999 . S
H3721 C3702 0.913 . S
H3722 C3740 0.951 . S
H3723 C3742 0.951 . S
H3724 C3744 0.950 . S
H3725 C3745 0.950 . S
H3726 C3747 0.950 . S
H3727 C3750 0.950 . S
H3728 C3751 0.950 . S
H3729 C3753 0.950 . S
H3730 C3754 0.950 . S
H3731 C3755 0.951 . S
H3732 C3757 0.951 . S
H3733 C3759 0.950 . S
H3734 C3760 0.950 . S
H3735 C3762 0.950 . S
H3736 C3765 0.950 . S
H3737 C3766 0.950 . S
H3738 C3768 0.950 . S
H3739 C3769 0.950 . S
C3740 H3722 0.951 . S
C3740 C3741 1.366 . S
C3740 C3742 1.388 . S
C3741 C3740 1.366 . S
C3741 C3745 1.385 . S
C3742 H3723 0.951 . S
C3742 C3740 1.388 . S
C3742 C3743 1.366 . S
C3743 C3742 1.366 . S
C3743 C3744 1.414 . S
C3743 C3746 1.499 . S
C3744 H3724 0.950 . S
C3744 C3743 1.414 . S
C3744 C3745 1.374 . S
C3745 H3725 0.950 . S
C3745 C3741 1.385 . S
C3745 C3744 1.374 . S
C3746 C3743 1.499 . S
C3746 C3747 1.373 . S
C3746 C3748 1.389 . S
C3747 H3726 0.950 . S
C3747 C3746 1.373 . S
C3747 C3763 1.377 . S
C3748 C3746 1.389 . S
C3748 C3749 1.524 . S
C3748 C3762 1.377 . S
C3749 C3748 1.524 . S
C3749 C3750 1.397 . S
C3749 C3754 1.363 . S
C3750 H3727 0.950 . S
C3750 C3749 1.397 . S
C3750 C3751 1.334 . S
C3751 H3728 0.950 . S
C3751 C3750 1.334 . S
C3751 C3752 1.287 . S
C3752 C3751 1.287 . S
C3752 C3753 1.524 . S
C3752 H3771 0.913 . S
C3753 H3729 0.950 . S
C3753 C3752 1.524 . S
C3753 C3754 1.415 . S
C3754 H3730 0.950 . S
C3754 C3749 1.363 . S
C3754 C3753 1.415 . S
C3755 H3731 0.951 . S
C3755 C3756 1.366 . S
C3755 C3757 1.388 . S
C3756 C3755 1.366 . S
C3756 C3760 1.385 . S
C3757 H3732 0.951 . S
C3757 C3755 1.388 . S
C3757 C3758 1.366 . S
C3758 C3757 1.366 . S
C3758 C3759 1.414 . S
C3758 C3761 1.499 . S
C3759 H3733 0.950 . S
C3759 C3758 1.414 . S
C3759 C3760 1.374 . S
C3760 H3734 0.950 . S
C3760 C3756 1.385 . S
C3760 C3759 1.374 . S
C3761 C3758 1.499 . S
C3761 C3762 1.373 . S
C3761 C3763 1.389 . S
C3762 H3735 0.950 . S
C3762 C3748 1.377 . S
C3762 C3761 1.373 . S
C3763 C3747 1.377 . S
C3763 C3761 1.389 . S
C3763 C3764 1.524 . S
C3764 C3763 1.524 . S
C3764 C3765 1.397 . S
C3764 C3769 1.363 . S
C3765 H3736 0.950 . S
C3765 C3764 1.397 . S
C3765 C3766 1.334 . S
C3766 H3737 0.950 . S
C3766 C3765 1.334 . S
C3766 C3767 1.287 . S
C3767 C3766 1.287 . S
C3767 C3768 1.524 . S
C3767 H3770 0.999 . S
C3768 H3738 0.950 . S
C3768 C3767 1.524 . S
C3768 C3769 1.415 . S
C3769 H3739 0.950 . S
C3769 C3764 1.363 . S
C3769 C3768 1.415 . S
H3770 C3767 0.999 . S
H3771 C3752 0.913 . S
H3772 C3790 0.951 . S
H3773 C3792 0.951 . S
H3774 C3794 0.950 . S
H3775 C3795 0.950 . S
H3776 C3797 0.950 . S
H3777 C3800 0.950 . S
H3778 C3801 0.950 . S
H3779 C3803 0.950 . S
H3780 C3804 0.950 . S
H3781 C3805 0.951 . S
H3782 C3807 0.951 . S
H3783 C3809 0.950 . S
H3784 C3810 0.950 . S
H3785 C3812 0.950 . S
H3786 C3815 0.950 . S
H3787 C3816 0.950 . S
H3788 C3818 0.950 . S
H3789 C3819 0.950 . S
C3790 H3772 0.951 . S
C3790 C3791 1.366 . S
C3790 C3792 1.388 . S
C3791 C3790 1.366 . S
C3791 C3795 1.385 . S
C3792 H3773 0.951 . S
C3792 C3790 1.388 . S
C3792 C3793 1.366 . S
C3793 C3792 1.366 . S
C3793 C3794 1.414 . S
C3793 C3796 1.499 . S
C3794 H3774 0.950 . S
C3794 C3793 1.414 . S
C3794 C3795 1.374 . S
C3795 H3775 0.950 . S
C3795 C3791 1.385 . S
C3795 C3794 1.374 . S
C3796 C3793 1.499 . S
C3796 C3797 1.373 . S
C3796 C3798 1.389 . S
C3797 H3776 0.950 . S
C3797 C3796 1.373 . S
C3797 C3813 1.377 . S
C3798 C3796 1.389 . S
C3798 C3799 1.524 . S
C3798 C3812 1.377 . S
C3799 C3798 1.524 . S
C3799 C3800 1.397 . S
C3799 C3804 1.363 . S
C3800 H3777 0.950 . S
C3800 C3799 1.397 . S
C3800 C3801 1.334 . S
C3801 H3778 0.950 . S
C3801 C3800 1.334 . S
C3801 C3802 1.287 . S
C3802 C3801 1.287 . S
C3802 C3803 1.524 . S
C3802 H3821 0.913 . S
C3803 H3779 0.950 . S
C3803 C3802 1.524 . S
C3803 C3804 1.415 . S
C3804 H3780 0.950 . S
C3804 C3799 1.363 . S
C3804 C3803 1.415 . S
C3805 H3781 0.951 . S
C3805 C3806 1.366 . S
C3805 C3807 1.388 . S
C3806 C3805 1.366 . S
C3806 C3810 1.385 . S
C3807 H3782 0.951 . S
C3807 C3805 1.388 . S
C3807 C3808 1.366 . S
C3808 C3807 1.366 . S
C3808 C3809 1.414 . S
C3808 C3811 1.499 . S
C3809 H3783 0.950 . S
C3809 C3808 1.414 . S
C3809 C3810 1.374 . S
C3810 H3784 0.950 . S
C3810 C3806 1.385 . S
C3810 C3809 1.374 . S
C3811 C3808 1.499 . S
C3811 C3812 1.373 . S
C3811 C3813 1.389 . S
C3812 H3785 0.950 . S
C3812 C3798 1.377 . S
C3812 C3811 1.373 . S
C3813 C3797 1.377 . S
C3813 C3811 1.389 . S
C3813 C3814 1.524 . S
C3814 C3813 1.524 . S
C3814 C3815 1.397 . S
C3814 C3819 1.363 . S
C3815 H3786 0.950 . S
C3815 C3814 1.397 . S
C3815 C3816 1.334 . S
C3816 H3787 0.950 . S
C3816 C3815 1.334 . S
C3816 C3817 1.287 . S
C3817 C3816 1.287 . S
C3817 C3818 1.524 . S
C3817 H3820 0.999 . S
C3818 H3788 0.950 . S
C3818 C3817 1.524 . S
C3818 C3819 1.415 . S
C3819 H3789 0.950 . S
C3819 C3814 1.363 . S
C3819 C3818 1.415 . S
H3820 C3817 0.999 . S
H3821 C3802 0.913 . S
H3822 C3840 0.951 . S
H3823 C3842 0.951 . S
H3824 C3844 0.950 . S
H3825 C3845 0.950 . S
H3826 C3847 0.950 . S
H3827 C3850 0.950 . S
H3828 C3851 0.950 . S
H3829 C3853 0.950 . S
H3830 C3854 0.950 . S
H3831 C3855 0.951 . S
H3832 C3857 0.951 . S
H3833 C3859 0.950 . S
H3834 C3860 0.950 . S
H3835 C3862 0.950 . S
H3836 C3865 0.950 . S
H3837 C3866 0.950 . S
H3838 C3868 0.950 . S
H3839 C3869 0.950 . S
C3840 H3822 0.951 . S
C3840 C3841 1.366 . S
C3840 C3842 1.388 . S
C3841 C3840 1.366 . S
C3841 C3845 1.385 . S
C3842 H3823 0.951 . S
C3842 C3840 1.388 . S
C3842 C3843 1.366 . S
C3843 C3842 1.366 . S
C3843 C3844 1.414 . S
C3843 C3846 1.499 . S
C3844 H3824 0.950 . S
C3844 C3843 1.414 . S
C3844 C3845 1.374 . S
C3845 H3825 0.950 . S
C3845 C3841 1.385 . S
C3845 C3844 1.374 . S
C3846 C3843 1.499 . S
C3846 C3847 1.373 . S
C3846 C3848 1.389 . S
C3847 H3826 0.950 . S
C3847 C3846 1.373 . S
C3847 C3863 1.377 . S
C3848 C3846 1.389 . S
C3848 C3849 1.524 . S
C3848 C3862 1.377 . S
C3849 C3848 1.524 . S
C3849 C3850 1.397 . S
C3849 C3854 1.363 . S
C3850 H3827 0.950 . S
C3850 C3849 1.397 . S
C3850 C3851 1.334 . S
C3851 H3828 0.950 . S
C3851 C3850 1.334 . S
C3851 C3852 1.287 . S
C3852 C3851 1.287 . S
C3852 C3853 1.524 . S
C3852 H3871 0.913 . S
C3853 H3829 0.950 . S
C3853 C3852 1.524 . S
C3853 C3854 1.415 . S
C3854 H3830 0.950 . S
C3854 C3849 1.363 . S
C3854 C3853 1.415 . S
C3855 H3831 0.951 . S
C3855 C3856 1.366 . S
C3855 C3857 1.388 . S
C3856 C3855 1.366 . S
C3856 C3860 1.385 . S
C3857 H3832 0.951 . S
C3857 C3855 1.388 . S
C3857 C3858 1.366 . S
C3858 C3857 1.366 . S
C3858 C3859 1.414 . S
C3858 C3861 1.499 . S
C3859 H3833 0.950 . S
C3859 C3858 1.414 . S
C3859 C3860 1.374 . S
C3860 H3834 0.950 . S
C3860 C3856 1.385 . S
C3860 C3859 1.374 . S
C3861 C3858 1.499 . S
C3861 C3862 1.373 . S
C3861 C3863 1.389 . S
C3862 H3835 0.950 . S
C3862 C3848 1.377 . S
C3862 C3861 1.373 . S
C3863 C3847 1.377 . S
C3863 C3861 1.389 . S
C3863 C3864 1.524 . S
C3864 C3863 1.524 . S
C3864 C3865 1.397 . S
C3864 C3869 1.363 . S
C3865 H3836 0.950 . S
C3865 C3864 1.397 . S
C3865 C3866 1.334 . S
C3866 H3837 0.950 . S
C3866 C3865 1.334 . S
C3866 C3867 1.287 . S
C3867 C3866 1.287 . S
C3867 C3868 1.524 . S
C3867 H3870 0.999 . S
C3868 H3838 0.950 . S
C3868 C3867 1.524 . S
C3868 C3869 1.415 . S
C3869 H3839 0.950 . S
C3869 C3864 1.363 . S
C3869 C3868 1.415 . S
H3870 C3867 0.999 . S
H3871 C3852 0.913 . S
H3872 C3890 0.951 . S
H3873 C3892 0.951 . S
H3874 C3894 0.950 . S
H3875 C3895 0.950 . S
H3876 C3897 0.950 . S
H3877 C3900 0.950 . S
H3878 C3901 0.950 . S
H3879 C3903 0.950 . S
H3880 C3904 0.950 . S
H3881 C3905 0.951 . S
H3882 C3907 0.951 . S
H3883 C3909 0.950 . S
H3884 C3910 0.950 . S
H3885 C3912 0.950 . S
H3886 C3915 0.950 . S
H3887 C3916 0.950 . S
H3888 C3918 0.950 . S
H3889 C3919 0.950 . S
C3890 H3872 0.951 . S
C3890 C3891 1.366 . S
C3890 C3892 1.388 . S
C3891 C3890 1.366 . S
C3891 C3895 1.385 . S
C3892 H3873 0.951 . S
C3892 C3890 1.388 . S
C3892 C3893 1.366 . S
C3893 C3892 1.366 . S
C3893 C3894 1.414 . S
C3893 C3896 1.499 . S
C3894 H3874 0.950 . S
C3894 C3893 1.414 . S
C3894 C3895 1.374 . S
C3895 H3875 0.950 . S
C3895 C3891 1.385 . S
C3895 C3894 1.374 . S
C3896 C3893 1.499 . S
C3896 C3897 1.373 . S
C3896 C3898 1.389 . S
C3897 H3876 0.950 . S
C3897 C3896 1.373 . S
C3897 C3913 1.377 . S
C3898 C3896 1.389 . S
C3898 C3899 1.524 . S
C3898 C3912 1.377 . S
C3899 C3898 1.524 . S
C3899 C3900 1.397 . S
C3899 C3904 1.363 . S
C3900 H3877 0.950 . S
C3900 C3899 1.397 . S
C3900 C3901 1.334 . S
C3901 H3878 0.950 . S
C3901 C3900 1.334 . S
C3901 C3902 1.287 . S
C3902 C3901 1.287 . S
C3902 C3903 1.524 . S
C3902 H3921 0.913 . S
C3903 H3879 0.950 . S
C3903 C3902 1.524 . S
C3903 C3904 1.415 . S
C3904 H3880 0.950 . S
C3904 C3899 1.363 . S
C3904 C3903 1.415 . S
C3905 H3881 0.951 . S
C3905 C3906 1.366 . S
C3905 C3907 1.388 . S
C3906 C3905 1.366 . S
C3906 C3910 1.385 . S
C3907 H3882 0.951 . S
C3907 C3905 1.388 . S
C3907 C3908 1.366 . S
C3908 C3907 1.366 . S
C3908 C3909 1.414 . S
C3908 C3911 1.499 . S
C3909 H3883 0.950 . S
C3909 C3908 1.414 . S
C3909 C3910 1.374 . S
C3910 H3884 0.950 . S
C3910 C3906 1.385 . S
C3910 C3909 1.374 . S
C3911 C3908 1.499 . S
C3911 C3912 1.373 . S
C3911 C3913 1.389 . S
C3912 H3885 0.950 . S
C3912 C3898 1.377 . S
C3912 C3911 1.373 . S
C3913 C3897 1.377 . S
C3913 C3911 1.389 . S
C3913 C3914 1.524 . S
C3914 C3913 1.524 . S
C3914 C3915 1.397 . S
C3914 C3919 1.363 . S
C3915 H3886 0.950 . S
C3915 C3914 1.397 . S
C3915 C3916 1.334 . S
C3916 H3887 0.950 . S
C3916 C3915 1.334 . S
C3916 C3917 1.287 . S
C3917 C3916 1.287 . S
C3917 C3918 1.524 . S
C3917 H3920 0.999 . S
C3918 H3888 0.950 . S
C3918 C3917 1.524 . S
C3918 C3919 1.415 . S
C3919 H3889 0.950 . S
C3919 C3914 1.363 . S
C3919 C3918 1.415 . S
H3920 C3917 0.999 . S
H3921 C3902 0.913 . S
H3922 C3940 0.951 . S
H3923 C3942 0.951 . S
H3924 C3944 0.950 . S
H3925 C3945 0.950 . S
H3926 C3947 0.950 . S
H3927 C3950 0.950 . S
H3928 C3951 0.950 . S
H3929 C3953 0.950 . S
H3930 C3954 0.950 . S
H3931 C3955 0.951 . S
H3932 C3957 0.951 . S
H3933 C3959 0.950 . S
H3934 C3960 0.950 . S
H3935 C3962 0.950 . S
H3936 C3965 0.950 . S
H3937 C3966 0.950 . S
H3938 C3968 0.950 . S
H3939 C3969 0.950 . S
C3940 H3922 0.951 . S
C3940 C3941 1.366 . S
C3940 C3942 1.388 . S
C3941 C3940 1.366 . S
C3941 C3945 1.385 . S
C3942 H3923 0.951 . S
C3942 C3940 1.388 . S
C3942 C3943 1.366 . S
C3943 C3942 1.366 . S
C3943 C3944 1.414 . S
C3943 C3946 1.499 . S
C3944 H3924 0.950 . S
C3944 C3943 1.414 . S
C3944 C3945 1.374 . S
C3945 H3925 0.950 . S
C3945 C3941 1.385 . S
C3945 C3944 1.374 . S
C3946 C3943 1.499 . S
C3946 C3947 1.373 . S
C3946 C3948 1.389 . S
C3947 H3926 0.950 . S
C3947 C3946 1.373 . S
C3947 C3963 1.377 . S
C3948 C3946 1.389 . S
C3948 C3949 1.524 . S
C3948 C3962 1.377 . S
C3949 C3948 1.524 . S
C3949 C3950 1.397 . S
C3949 C3954 1.363 . S
C3950 H3927 0.950 . S
C3950 C3949 1.397 . S
C3950 C3951 1.334 . S
C3951 H3928 0.950 . S
C3951 C3950 1.334 . S
C3951 C3952 1.287 . S
C3952 C3951 1.287 . S
C3952 C3953 1.524 . S
C3952 H3971 0.913 . S
C3953 H3929 0.950 . S
C3953 C3952 1.524 . S
C3953 C3954 1.415 . S
C3954 H3930 0.950 . S
C3954 C3949 1.363 . S
C3954 C3953 1.415 . S
C3955 H3931 0.951 . S
C3955 C3956 1.366 . S
C3955 C3957 1.388 . S
C3956 C3955 1.366 . S
C3956 C3960 1.385 . S
C3957 H3932 0.951 . S
C3957 C3955 1.388 . S
C3957 C3958 1.366 . S
C3958 C3957 1.366 . S
C3958 C3959 1.414 . S
C3958 C3961 1.499 . S
C3959 H3933 0.950 . S
C3959 C3958 1.414 . S
C3959 C3960 1.374 . S
C3960 H3934 0.950 . S
C3960 C3956 1.385 . S
C3960 C3959 1.374 . S
C3961 C3958 1.499 . S
C3961 C3962 1.373 . S
C3961 C3963 1.389 . S
C3962 H3935 0.950 . S
C3962 C3948 1.377 . S
C3962 C3961 1.373 . S
C3963 C3947 1.377 . S
C3963 C3961 1.389 . S
C3963 C3964 1.524 . S
C3964 C3963 1.524 . S
C3964 C3965 1.397 . S
C3964 C3969 1.363 . S
C3965 H3936 0.950 . S
C3965 C3964 1.397 . S
C3965 C3966 1.334 . S
C3966 H3937 0.950 . S
C3966 C3965 1.334 . S
C3966 C3967 1.287 . S
C3967 C3966 1.287 . S
C3967 C3968 1.524 . S
C3967 H3970 0.999 . S
C3968 H3938 0.950 . S
C3968 C3967 1.524 . S
C3968 C3969 1.415 . S
C3969 H3939 0.950 . S
C3969 C3964 1.363 . S
C3969 C3968 1.415 . S
H3970 C3967 0.999 . S
H3971 C3952 0.913 . S
H3972 C3990 0.951 . S
H3973 C3992 0.951 . S
H3974 C3994 0.950 . S
H3975 C3995 0.950 . S
H3976 C3997 0.950 . S
H3977 C4000 0.950 . S
H3978 C4001 0.950 . S
H3979 C4003 0.950 . S
H3980 C4004 0.950 . S
H3981 C4005 0.951 1_565 S
H3982 C4007 0.951 . S
H3983 C4009 0.950 . S
H3984 C4010 0.950 . S
H3985 C4012 0.950 . S
H3986 C4015 0.950 . S
H3987 C4016 0.950 . S
H3988 C4018 0.950 . S
H3989 C4019 0.950 . S
C3990 H3972 0.951 . S
C3990 C3991 1.366 . S
C3990 C3992 1.388 . S
C3991 C3990 1.366 . S
C3991 C3995 1.385 . S
C3992 H3973 0.951 . S
C3992 C3990 1.388 . S
C3992 C3993 1.366 . S
C3993 C3992 1.366 . S
C3993 C3994 1.414 . S
C3993 C3996 1.499 . S
C3994 H3974 0.950 . S
C3994 C3993 1.414 . S
C3994 C3995 1.374 . S
C3995 H3975 0.950 . S
C3995 C3991 1.385 . S
C3995 C3994 1.374 . S
C3996 C3993 1.499 . S
C3996 C3997 1.373 . S
C3996 C3998 1.389 . S
C3997 H3976 0.950 . S
C3997 C3996 1.373 . S
C3997 C4013 1.377 . S
C3998 C3996 1.389 . S
C3998 C3999 1.524 . S
C3998 C4012 1.377 . S
C3999 C3998 1.524 . S
C3999 C4000 1.397 . S
C3999 C4004 1.363 . S
C4000 H3977 0.950 . S
C4000 C3999 1.397 . S
C4000 C4001 1.334 . S
C4001 H3978 0.950 . S
C4001 C4000 1.334 . S
C4001 C4002 1.287 . S
C4002 C4001 1.287 . S
C4002 C4003 1.524 . S
C4002 H4021 0.913 . S
C4003 H3979 0.950 . S
C4003 C4002 1.524 . S
C4003 C4004 1.415 . S
C4004 H3980 0.950 . S
C4004 C3999 1.363 . S
C4004 C4003 1.415 . S
C4005 H3981 0.951 1_545 S
C4005 C4006 1.366 . S
C4005 C4007 1.388 . S
C4006 C4005 1.366 . S
C4006 C4010 1.385 . S
C4007 H3982 0.951 . S
C4007 C4005 1.388 . S
C4007 C4008 1.366 . S
C4008 C4007 1.366 . S
C4008 C4009 1.414 . S
C4008 C4011 1.499 . S
C4009 H3983 0.950 . S
C4009 C4008 1.414 . S
C4009 C4010 1.374 . S
C4010 H3984 0.950 . S
C4010 C4006 1.385 . S
C4010 C4009 1.374 . S
C4011 C4008 1.499 . S
C4011 C4012 1.373 . S
C4011 C4013 1.389 . S
C4012 H3985 0.950 . S
C4012 C3998 1.377 . S
C4012 C4011 1.373 . S
C4013 C3997 1.377 . S
C4013 C4011 1.389 . S
C4013 C4014 1.524 . S
C4014 C4013 1.524 . S
C4014 C4015 1.397 . S
C4014 C4019 1.363 . S
C4015 H3986 0.950 . S
C4015 C4014 1.397 . S
C4015 C4016 1.334 . S
C4016 H3987 0.950 . S
C4016 C4015 1.334 . S
C4016 C4017 1.287 . S
C4017 C4016 1.287 . S
C4017 C4018 1.524 . S
C4017 H4020 0.999 . S
C4018 H3988 0.950 . S
C4018 C4017 1.524 . S
C4018 C4019 1.415 . S
C4019 H3989 0.950 . S
C4019 C4014 1.363 . S
C4019 C4018 1.415 . S
H4020 C4017 0.999 . S
H4021 C4002 0.913 . S
H4022 C4040 0.951 . S
H4023 C4042 0.951 . S
H4024 C4044 0.950 . S
H4025 C4045 0.950 . S
H4026 C4047 0.950 . S
H4027 C4050 0.950 . S
H4028 C4051 0.950 . S
H4029 C4053 0.950 . S
H4030 C4054 0.950 . S
H4031 C4055 0.951 . S
H4032 C4057 0.951 . S
H4033 C4059 0.950 . S
H4034 C4060 0.950 . S
H4035 C4062 0.950 . S
H4036 C4065 0.950 . S
H4037 C4066 0.950 . S
H4038 C4068 0.950 . S
H4039 C4069 0.950 . S
C4040 H4022 0.951 . S
C4040 C4041 1.366 . S
C4040 C4042 1.388 . S
C4041 C4040 1.366 . S
C4041 C4045 1.385 . S
C4042 H4023 0.951 . S
C4042 C4040 1.388 . S
C4042 C4043 1.366 . S
C4043 C4042 1.366 . S
C4043 C4044 1.414 . S
C4043 C4046 1.499 . S
C4044 H4024 0.950 . S
C4044 C4043 1.414 . S
C4044 C4045 1.374 . S
C4045 H4025 0.950 . S
C4045 C4041 1.385 . S
C4045 C4044 1.374 . S
C4046 C4043 1.499 . S
C4046 C4047 1.373 . S
C4046 C4048 1.389 . S
C4047 H4026 0.950 . S
C4047 C4046 1.373 . S
C4047 C4063 1.377 . S
C4048 C4046 1.389 . S
C4048 C4049 1.524 . S
C4048 C4062 1.377 . S
C4049 C4048 1.524 . S
C4049 C4050 1.397 . S
C4049 C4054 1.363 . S
C4050 H4027 0.950 . S
C4050 C4049 1.397 . S
C4050 C4051 1.334 . S
C4051 H4028 0.950 . S
C4051 C4050 1.334 . S
C4051 C4052 1.287 . S
C4052 C4051 1.287 . S
C4052 C4053 1.524 . S
C4052 H4071 0.913 . S
C4053 H4029 0.950 . S
C4053 C4052 1.524 . S
C4053 C4054 1.415 . S
C4054 H4030 0.950 . S
C4054 C4049 1.363 . S
C4054 C4053 1.415 . S
C4055 H4031 0.951 . S
C4055 C4056 1.366 . S
C4055 C4057 1.388 . S
C4056 C4055 1.366 . S
C4056 C4060 1.385 . S
C4057 H4032 0.951 . S
C4057 C4055 1.388 . S
C4057 C4058 1.366 . S
C4058 C4057 1.366 . S
C4058 C4059 1.414 . S
C4058 C4061 1.499 . S
C4059 H4033 0.950 . S
C4059 C4058 1.414 . S
C4059 C4060 1.374 . S
C4060 H4034 0.950 . S
C4060 C4056 1.385 . S
C4060 C4059 1.374 . S
C4061 C4058 1.499 . S
C4061 C4062 1.373 . S
C4061 C4063 1.389 . S
C4062 H4035 0.950 . S
C4062 C4048 1.377 . S
C4062 C4061 1.373 . S
C4063 C4047 1.377 . S
C4063 C4061 1.389 . S
C4063 C4064 1.524 . S
C4064 C4063 1.524 . S
C4064 C4065 1.397 . S
C4064 C4069 1.363 . S
C4065 H4036 0.950 . S
C4065 C4064 1.397 . S
C4065 C4066 1.334 . S
C4066 H4037 0.950 . S
C4066 C4065 1.334 . S
C4066 C4067 1.287 . S
C4067 C4066 1.287 . S
C4067 C4068 1.524 . S
C4067 H4070 0.999 . S
C4068 H4038 0.950 . S
C4068 C4067 1.524 . S
C4068 C4069 1.415 . S
C4069 H4039 0.950 . S
C4069 C4064 1.363 . S
C4069 C4068 1.415 . S
H4070 C4067 0.999 . S
H4071 C4052 0.913 . S
H4072 C4090 0.951 . S
H4073 C4092 0.951 . S
H4074 C4094 0.950 . S
H4075 C4095 0.950 . S
H4076 C4097 0.950 . S
H4077 C4100 0.950 . S
H4078 C4101 0.950 . S
H4079 C4103 0.950 . S
H4080 C4104 0.950 . S
H4081 C4105 0.951 . S
H4082 C4107 0.951 . S
H4083 C4109 0.950 . S
H4084 C4110 0.950 . S
H4085 C4112 0.950 . S
H4086 C4115 0.950 . S
H4087 C4116 0.950 . S
H4088 C4118 0.950 . S
H4089 C4119 0.950 . S
C4090 H4072 0.951 . S
C4090 C4091 1.366 . S
C4090 C4092 1.388 . S
C4091 C4090 1.366 . S
C4091 C4095 1.385 . S
C4092 H4073 0.951 . S
C4092 C4090 1.388 . S
C4092 C4093 1.366 . S
C4093 C4092 1.366 . S
C4093 C4094 1.414 . S
C4093 C4096 1.499 . S
C4094 H4074 0.950 . S
C4094 C4093 1.414 . S
C4094 C4095 1.374 . S
C4095 H4075 0.950 . S
C4095 C4091 1.385 . S
C4095 C4094 1.374 . S
C4096 C4093 1.499 . S
C4096 C4097 1.373 . S
C4096 C4098 1.389 . S
C4097 H4076 0.950 . S
C4097 C4096 1.373 . S
C4097 C4113 1.377 . S
C4098 C4096 1.389 . S
C4098 C4099 1.524 . S
C4098 C4112 1.377 . S
C4099 C4098 1.524 . S
C4099 C4100 1.397 . S
C4099 C4104 1.363 . S
C4100 H4077 0.950 . S
C4100 C4099 1.397 . S
C4100 C4101 1.334 . S
C4101 H4078 0.950 . S
C4101 C4100 1.334 . S
C4101 C4102 1.287 . S
C4102 C4101 1.287 . S
C4102 C4103 1.524 . S
C4102 H4121 0.913 . S
C4103 H4079 0.950 . S
C4103 C4102 1.524 . S
C4103 C4104 1.415 . S
C4104 H4080 0.950 . S
C4104 C4099 1.363 . S
C4104 C4103 1.415 . S
C4105 H4081 0.951 . S
C4105 C4106 1.366 . S
C4105 C4107 1.388 . S
C4106 C4105 1.366 . S
C4106 C4110 1.385 . S
C4107 H4082 0.951 . S
C4107 C4105 1.388 . S
C4107 C4108 1.366 . S
C4108 C4107 1.366 . S
C4108 C4109 1.414 . S
C4108 C4111 1.499 . S
C4109 H4083 0.950 . S
C4109 C4108 1.414 . S
C4109 C4110 1.374 . S
C4110 H4084 0.950 . S
C4110 C4106 1.385 . S
C4110 C4109 1.374 . S
C4111 C4108 1.499 . S
C4111 C4112 1.373 . S
C4111 C4113 1.389 . S
C4112 H4085 0.950 . S
C4112 C4098 1.377 . S
C4112 C4111 1.373 . S
C4113 C4097 1.377 . S
C4113 C4111 1.389 . S
C4113 C4114 1.524 . S
C4114 C4113 1.524 . S
C4114 C4115 1.397 . S
C4114 C4119 1.363 . S
C4115 H4086 0.950 . S
C4115 C4114 1.397 . S
C4115 C4116 1.334 . S
C4116 H4087 0.950 . S
C4116 C4115 1.334 . S
C4116 C4117 1.287 . S
C4117 C4116 1.287 . S
C4117 C4118 1.524 . S
C4117 H4120 0.999 . S
C4118 H4088 0.950 . S
C4118 C4117 1.524 . S
C4118 C4119 1.415 . S
C4119 H4089 0.950 . S
C4119 C4114 1.363 . S
C4119 C4118 1.415 . S
H4120 C4117 0.999 . S
H4121 C4102 0.913 . S
H4122 C4140 0.951 . S
H4123 C4142 0.951 . S
H4124 C4144 0.950 . S
H4125 C4145 0.950 . S
H4126 C4147 0.950 . S
H4127 C4150 0.950 . S
H4128 C4151 0.950 . S
H4129 C4153 0.950 . S
H4130 C4154 0.950 . S
H4131 C4155 0.951 . S
H4132 C4157 0.951 . S
H4133 C4159 0.950 . S
H4134 C4160 0.950 . S
H4135 C4162 0.950 . S
H4136 C4165 0.950 . S
H4137 C4166 0.950 . S
H4138 C4168 0.950 . S
H4139 C4169 0.950 . S
C4140 H4122 0.951 . S
C4140 C4141 1.366 . S
C4140 C4142 1.388 . S
C4141 C4140 1.366 . S
C4141 C4145 1.385 . S
C4142 H4123 0.951 . S
C4142 C4140 1.388 . S
C4142 C4143 1.366 . S
C4143 C4142 1.366 . S
C4143 C4144 1.414 . S
C4143 C4146 1.499 . S
C4144 H4124 0.950 . S
C4144 C4143 1.414 . S
C4144 C4145 1.374 . S
C4145 H4125 0.950 . S
C4145 C4141 1.385 . S
C4145 C4144 1.374 . S
C4146 C4143 1.499 . S
C4146 C4147 1.373 . S
C4146 C4148 1.389 . S
C4147 H4126 0.950 . S
C4147 C4146 1.373 . S
C4147 C4163 1.377 . S
C4148 C4146 1.389 . S
C4148 C4149 1.524 . S
C4148 C4162 1.377 . S
C4149 C4148 1.524 . S
C4149 C4150 1.397 . S
C4149 C4154 1.363 . S
C4150 H4127 0.950 . S
C4150 C4149 1.397 . S
C4150 C4151 1.334 . S
C4151 H4128 0.950 . S
C4151 C4150 1.334 . S
C4151 C4152 1.287 . S
C4152 C4151 1.287 . S
C4152 C4153 1.524 . S
C4152 H4171 0.913 . S
C4153 H4129 0.950 . S
C4153 C4152 1.524 . S
C4153 C4154 1.415 . S
C4154 H4130 0.950 . S
C4154 C4149 1.363 . S
C4154 C4153 1.415 . S
C4155 H4131 0.951 . S
C4155 C4156 1.366 . S
C4155 C4157 1.388 . S
C4156 C4155 1.366 . S
C4156 C4160 1.385 . S
C4157 H4132 0.951 . S
C4157 C4155 1.388 . S
C4157 C4158 1.366 . S
C4158 C4157 1.366 . S
C4158 C4159 1.414 . S
C4158 C4161 1.499 . S
C4159 H4133 0.950 . S
C4159 C4158 1.414 . S
C4159 C4160 1.374 . S
C4160 H4134 0.950 . S
C4160 C4156 1.385 . S
C4160 C4159 1.374 . S
C4161 C4158 1.499 . S
C4161 C4162 1.373 . S
C4161 C4163 1.389 . S
C4162 H4135 0.950 . S
C4162 C4148 1.377 . S
C4162 C4161 1.373 . S
C4163 C4147 1.377 . S
C4163 C4161 1.389 . S
C4163 C4164 1.524 . S
C4164 C4163 1.524 . S
C4164 C4165 1.397 . S
C4164 C4169 1.363 . S
C4165 H4136 0.950 . S
C4165 C4164 1.397 . S
C4165 C4166 1.334 . S
C4166 H4137 0.950 . S
C4166 C4165 1.334 . S
C4166 C4167 1.287 . S
C4167 C4166 1.287 . S
C4167 C4168 1.524 . S
C4167 H4170 0.999 . S
C4168 H4138 0.950 . S
C4168 C4167 1.524 . S
C4168 C4169 1.415 . S
C4169 H4139 0.950 . S
C4169 C4164 1.363 . S
C4169 C4168 1.415 . S
H4170 C4167 0.999 . S
H4171 C4152 0.913 . S
H4172 C4190 0.951 . S
H4173 C4192 0.951 . S
H4174 C4194 0.950 . S
H4175 C4195 0.950 1_545 S
H4176 C4197 0.950 . S
H4177 C4200 0.950 . S
H4178 C4201 0.950 . S
H4179 C4203 0.950 . S
H4180 C4204 0.950 . S
H4181 C4205 0.951 . S
H4182 C4207 0.951 . S
H4183 C4209 0.950 . S
H4184 C4210 0.950 . S
H4185 C4212 0.950 . S
H4186 C4215 0.950 . S
H4187 C4216 0.950 . S
H4188 C4218 0.950 . S
H4189 C4219 0.950 . S
C4190 H4172 0.951 . S
C4190 C4191 1.366 . S
C4190 C4192 1.388 . S
C4191 C4190 1.366 . S
C4191 C4195 1.385 . S
C4192 H4173 0.951 . S
C4192 C4190 1.388 . S
C4192 C4193 1.366 . S
C4193 C4192 1.366 . S
C4193 C4194 1.414 . S
C4193 C4196 1.499 . S
C4194 H4174 0.950 . S
C4194 C4193 1.414 . S
C4194 C4195 1.374 . S
C4195 H4175 0.950 1_565 S
C4195 C4191 1.385 . S
C4195 C4194 1.374 . S
C4196 C4193 1.499 . S
C4196 C4197 1.373 . S
C4196 C4198 1.389 . S
C4197 H4176 0.950 . S
C4197 C4196 1.373 . S
C4197 C4213 1.377 . S
C4198 C4196 1.389 . S
C4198 C4199 1.524 . S
C4198 C4212 1.377 . S
C4199 C4198 1.524 . S
C4199 C4200 1.397 . S
C4199 C4204 1.363 . S
C4200 H4177 0.950 . S
C4200 C4199 1.397 . S
C4200 C4201 1.334 . S
C4201 H4178 0.950 . S
C4201 C4200 1.334 . S
C4201 C4202 1.287 . S
C4202 C4201 1.287 . S
C4202 C4203 1.524 . S
C4202 H4221 0.913 . S
C4203 H4179 0.950 . S
C4203 C4202 1.524 . S
C4203 C4204 1.415 . S
C4204 H4180 0.950 . S
C4204 C4199 1.363 . S
C4204 C4203 1.415 . S
C4205 H4181 0.951 . S
C4205 C4206 1.366 . S
C4205 C4207 1.388 . S
C4206 C4205 1.366 . S
C4206 C4210 1.385 . S
C4207 H4182 0.951 . S
C4207 C4205 1.388 . S
C4207 C4208 1.366 . S
C4208 C4207 1.366 . S
C4208 C4209 1.414 . S
C4208 C4211 1.499 . S
C4209 H4183 0.950 . S
C4209 C4208 1.414 . S
C4209 C4210 1.374 . S
C4210 H4184 0.950 . S
C4210 C4206 1.385 . S
C4210 C4209 1.374 . S
C4211 C4208 1.499 . S
C4211 C4212 1.373 . S
C4211 C4213 1.389 . S
C4212 H4185 0.950 . S
C4212 C4198 1.377 . S
C4212 C4211 1.373 . S
C4213 C4197 1.377 . S
C4213 C4211 1.389 . S
C4213 C4214 1.524 . S
C4214 C4213 1.524 . S
C4214 C4215 1.397 . S
C4214 C4219 1.363 . S
C4215 H4186 0.950 . S
C4215 C4214 1.397 . S
C4215 C4216 1.334 1_556 S
C4216 H4187 0.950 . S
C4216 C4215 1.334 1_554 S
C4216 C4217 1.287 . S
C4217 C4216 1.287 . S
C4217 C4218 1.524 1_554 S
C4217 H4220 0.999 . S
C4218 H4188 0.950 . S
C4218 C4217 1.524 1_556 S
C4218 C4219 1.415 . S
C4219 H4189 0.950 . S
C4219 C4214 1.363 . S
C4219 C4218 1.415 . S
H4220 C4217 0.999 . S
H4221 C4202 0.913 . S
H4222 C4240 0.951 . S
H4223 C4242 0.951 . S
H4224 C4244 0.950 . S
H4225 C4245 0.950 1_455 S
H4226 C4247 0.950 . S
H4227 C4250 0.950 . S
H4228 C4251 0.950 . S
H4229 C4253 0.950 . S
H4230 C4254 0.950 . S
H4231 C4255 0.951 1_565 S
H4232 C4257 0.951 . S
H4233 C4259 0.950 . S
H4234 C4260 0.950 . S
H4235 C4262 0.950 . S
H4236 C4265 0.950 . S
H4237 C4266 0.950 . S
H4238 C4268 0.950 . S
H4239 C4269 0.950 . S
C4240 H4222 0.951 . S
C4240 C4241 1.366 . S
C4240 C4242 1.388 . S
C4241 C4240 1.366 . S
C4241 C4245 1.385 . S
C4242 H4223 0.951 . S
C4242 C4240 1.388 . S
C4242 C4243 1.366 . S
C4243 C4242 1.366 . S
C4243 C4244 1.414 . S
C4243 C4246 1.499 . S
C4244 H4224 0.950 . S
C4244 C4243 1.414 . S
C4244 C4245 1.374 . S
C4245 H4225 0.950 1_655 S
C4245 C4241 1.385 . S
C4245 C4244 1.374 . S
C4246 C4243 1.499 . S
C4246 C4247 1.373 . S
C4246 C4248 1.389 . S
C4247 H4226 0.950 . S
C4247 C4246 1.373 . S
C4247 C4263 1.377 . S
C4248 C4246 1.389 . S
C4248 C4249 1.524 . S
C4248 C4262 1.377 . S
C4249 C4248 1.524 . S
C4249 C4250 1.397 . S
C4249 C4254 1.363 . S
C4250 H4227 0.950 . S
C4250 C4249 1.397 . S
C4250 C4251 1.334 . S
C4251 H4228 0.950 . S
C4251 C4250 1.334 . S
C4251 C4252 1.287 . S
C4252 C4251 1.287 . S
C4252 C4253 1.524 . S
C4252 H4271 0.913 . S
C4253 H4229 0.950 . S
C4253 C4252 1.524 . S
C4253 C4254 1.415 . S
C4254 H4230 0.950 . S
C4254 C4249 1.363 . S
C4254 C4253 1.415 . S
C4255 H4231 0.951 1_545 S
C4255 C4256 1.366 . S
C4255 C4257 1.388 . S
C4256 C4255 1.366 . S
C4256 C4260 1.385 . S
C4257 H4232 0.951 . S
C4257 C4255 1.388 . S
C4257 C4258 1.366 . S
C4258 C4257 1.366 . S
C4258 C4259 1.414 . S
C4258 C4261 1.499 . S
C4259 H4233 0.950 . S
C4259 C4258 1.414 . S
C4259 C4260 1.374 . S
C4260 H4234 0.950 . S
C4260 C4256 1.385 . S
C4260 C4259 1.374 . S
C4261 C4258 1.499 . S
C4261 C4262 1.373 . S
C4261 C4263 1.389 . S
C4262 H4235 0.950 . S
C4262 C4248 1.377 . S
C4262 C4261 1.373 . S
C4263 C4247 1.377 . S
C4263 C4261 1.389 . S
C4263 C4264 1.524 . S
C4264 C4263 1.524 . S
C4264 C4265 1.397 . S
C4264 C4269 1.363 . S
C4265 H4236 0.950 . S
C4265 C4264 1.397 . S
C4265 C4266 1.334 . S
C4266 H4237 0.950 . S
C4266 C4265 1.334 . S
C4266 C4267 1.287 . S
C4267 C4266 1.287 . S
C4267 C4268 1.524 . S
C4267 H4270 0.999 . S
C4268 H4238 0.950 . S
C4268 C4267 1.524 . S
C4268 C4269 1.415 . S
C4269 H4239 0.950 . S
C4269 C4264 1.363 . S
C4269 C4268 1.415 . S
H4270 C4267 0.999 . S
H4271 C4252 0.913 . S
H4272 C4290 0.951 . S
H4273 C4292 0.951 . S
H4274 C4294 0.950 . S
H4275 C4295 0.950 . S
H4276 C4297 0.950 . S
H4277 C4300 0.950 . S
H4278 C4301 0.950 . S
H4279 C4303 0.950 . S
H4280 C4304 0.950 . S
H4281 C4305 0.951 . S
H4282 C4307 0.951 . S
H4283 C4309 0.950 . S
H4284 C4310 0.950 . S
H4285 C4312 0.950 . S
H4286 C4315 0.950 . S
H4287 C4316 0.950 . S
H4288 C4318 0.950 . S
H4289 C4319 0.950 . S
C4290 H4272 0.951 . S
C4290 C4291 1.366 . S
C4290 C4292 1.388 . S
C4291 C4290 1.366 . S
C4291 C4295 1.385 . S
C4292 H4273 0.951 . S
C4292 C4290 1.388 . S
C4292 C4293 1.366 . S
C4293 C4292 1.366 . S
C4293 C4294 1.414 . S
C4293 C4296 1.499 . S
C4294 H4274 0.950 . S
C4294 C4293 1.414 . S
C4294 C4295 1.374 . S
C4295 H4275 0.950 . S
C4295 C4291 1.385 . S
C4295 C4294 1.374 . S
C4296 C4293 1.499 . S
C4296 C4297 1.373 . S
C4296 C4298 1.389 . S
C4297 H4276 0.950 . S
C4297 C4296 1.373 . S
C4297 C4313 1.377 . S
C4298 C4296 1.389 . S
C4298 C4299 1.524 . S
C4298 C4312 1.377 . S
C4299 C4298 1.524 . S
C4299 C4300 1.397 . S
C4299 C4304 1.363 . S
C4300 H4277 0.950 . S
C4300 C4299 1.397 . S
C4300 C4301 1.334 . S
C4301 H4278 0.950 . S
C4301 C4300 1.334 . S
C4301 C4302 1.287 . S
C4302 C4301 1.287 . S
C4302 C4303 1.524 . S
C4302 H4321 0.913 . S
C4303 H4279 0.950 . S
C4303 C4302 1.524 . S
C4303 C4304 1.415 . S
C4304 H4280 0.950 . S
C4304 C4299 1.363 . S
C4304 C4303 1.415 . S
C4305 H4281 0.951 . S
C4305 C4306 1.366 . S
C4305 C4307 1.388 . S
C4306 C4305 1.366 . S
C4306 C4310 1.385 . S
C4307 H4282 0.951 . S
C4307 C4305 1.388 . S
C4307 C4308 1.366 . S
C4308 C4307 1.366 . S
C4308 C4309 1.414 . S
C4308 C4311 1.499 . S
C4309 H4283 0.950 . S
C4309 C4308 1.414 . S
C4309 C4310 1.374 . S
C4310 H4284 0.950 . S
C4310 C4306 1.385 . S
C4310 C4309 1.374 . S
C4311 C4308 1.499 . S
C4311 C4312 1.373 . S
C4311 C4313 1.389 . S
C4312 H4285 0.950 . S
C4312 C4298 1.377 . S
C4312 C4311 1.373 . S
C4313 C4297 1.377 . S
C4313 C4311 1.389 . S
C4313 C4314 1.524 . S
C4314 C4313 1.524 . S
C4314 C4315 1.397 . S
C4314 C4319 1.363 . S
C4315 H4286 0.950 . S
C4315 C4314 1.397 . S
C4315 C4316 1.334 . S
C4316 H4287 0.950 . S
C4316 C4315 1.334 . S
C4316 C4317 1.287 . S
C4317 C4316 1.287 . S
C4317 C4318 1.524 . S
C4317 H4320 0.999 . S
C4318 H4288 0.950 . S
C4318 C4317 1.524 . S
C4318 C4319 1.415 . S
C4319 H4289 0.950 . S
C4319 C4314 1.363 . S
C4319 C4318 1.415 . S
H4320 C4317 0.999 . S
H4321 C4302 0.913 . S
H4322 C4340 0.951 . S
H4323 C4342 0.951 . S
H4324 C4344 0.950 . S
H4325 C4345 0.950 . S
H4326 C4347 0.950 . S
H4327 C4350 0.950 . S
H4328 C4351 0.950 . S
H4329 C4353 0.950 . S
H4330 C4354 0.950 . S
H4331 C4355 0.951 . S
H4332 C4357 0.951 . S
H4333 C4359 0.950 . S
H4334 C4360 0.950 . S
H4335 C4362 0.950 . S
H4336 C4365 0.950 . S
H4337 C4366 0.950 . S
H4338 C4368 0.950 . S
H4339 C4369 0.950 . S
C4340 H4322 0.951 . S
C4340 C4341 1.366 . S
C4340 C4342 1.388 . S
C4341 C4340 1.366 . S
C4341 C4345 1.385 . S
C4342 H4323 0.951 . S
C4342 C4340 1.388 . S
C4342 C4343 1.366 . S
C4343 C4342 1.366 . S
C4343 C4344 1.414 . S
C4343 C4346 1.499 . S
C4344 H4324 0.950 . S
C4344 C4343 1.414 . S
C4344 C4345 1.374 . S
C4345 H4325 0.950 . S
C4345 C4341 1.385 . S
C4345 C4344 1.374 . S
C4346 C4343 1.499 . S
C4346 C4347 1.373 . S
C4346 C4348 1.389 . S
C4347 H4326 0.950 . S
C4347 C4346 1.373 . S
C4347 C4363 1.377 . S
C4348 C4346 1.389 . S
C4348 C4349 1.524 . S
C4348 C4362 1.377 . S
C4349 C4348 1.524 . S
C4349 C4350 1.397 . S
C4349 C4354 1.363 . S
C4350 H4327 0.950 . S
C4350 C4349 1.397 . S
C4350 C4351 1.334 . S
C4351 H4328 0.950 . S
C4351 C4350 1.334 . S
C4351 C4352 1.287 . S
C4352 C4351 1.287 . S
C4352 C4353 1.524 . S
C4352 H4371 0.913 . S
C4353 H4329 0.950 . S
C4353 C4352 1.524 . S
C4353 C4354 1.415 . S
C4354 H4330 0.950 . S
C4354 C4349 1.363 . S
C4354 C4353 1.415 . S
C4355 H4331 0.951 . S
C4355 C4356 1.366 . S
C4355 C4357 1.388 . S
C4356 C4355 1.366 . S
C4356 C4360 1.385 . S
C4357 H4332 0.951 . S
C4357 C4355 1.388 . S
C4357 C4358 1.366 . S
C4358 C4357 1.366 . S
C4358 C4359 1.414 . S
C4358 C4361 1.499 . S
C4359 H4333 0.950 . S
C4359 C4358 1.414 . S
C4359 C4360 1.374 . S
C4360 H4334 0.950 . S
C4360 C4356 1.385 . S
C4360 C4359 1.374 . S
C4361 C4358 1.499 . S
C4361 C4362 1.373 . S
C4361 C4363 1.389 . S
C4362 H4335 0.950 . S
C4362 C4348 1.377 . S
C4362 C4361 1.373 . S
C4363 C4347 1.377 . S
C4363 C4361 1.389 . S
C4363 C4364 1.524 . S
C4364 C4363 1.524 . S
C4364 C4365 1.397 . S
C4364 C4369 1.363 . S
C4365 H4336 0.950 . S
C4365 C4364 1.397 . S
C4365 C4366 1.334 . S
C4366 H4337 0.950 . S
C4366 C4365 1.334 . S
C4366 C4367 1.287 . S
C4367 C4366 1.287 . S
C4367 C4368 1.524 . S
C4367 H4370 0.999 . S
C4368 H4338 0.950 . S
C4368 C4367 1.524 . S
C4368 C4369 1.415 . S
C4369 H4339 0.950 . S
C4369 C4364 1.363 . S
C4369 C4368 1.415 . S
H4370 C4367 0.999 . S
H4371 C4352 0.913 . S
H4372 C4390 0.951 . S
H4373 C4392 0.951 . S
H4374 C4394 0.950 . S
H4375 C4395 0.950 . S
H4376 C4397 0.950 . S
H4377 C4400 0.950 . S
H4378 C4401 0.950 . S
H4379 C4403 0.950 . S
H4380 C4404 0.950 . S
H4381 C4405 0.951 . S
H4382 C4407 0.951 . S
H4383 C4409 0.950 . S
H4384 C4410 0.950 . S
H4385 C4412 0.950 . S
H4386 C4415 0.950 . S
H4387 C4416 0.950 . S
H4388 C4418 0.950 . S
H4389 C4419 0.950 . S
C4390 H4372 0.951 . S
C4390 C4391 1.366 . S
C4390 C4392 1.388 . S
C4391 C4390 1.366 . S
C4391 C4395 1.385 . S
C4392 H4373 0.951 . S
C4392 C4390 1.388 . S
C4392 C4393 1.366 . S
C4393 C4392 1.366 . S
C4393 C4394 1.414 . S
C4393 C4396 1.499 . S
C4394 H4374 0.950 . S
C4394 C4393 1.414 . S
C4394 C4395 1.374 . S
C4395 H4375 0.950 . S
C4395 C4391 1.385 . S
C4395 C4394 1.374 . S
C4396 C4393 1.499 . S
C4396 C4397 1.373 . S
C4396 C4398 1.389 . S
C4397 H4376 0.950 . S
C4397 C4396 1.373 . S
C4397 C4413 1.377 . S
C4398 C4396 1.389 . S
C4398 C4399 1.524 . S
C4398 C4412 1.377 . S
C4399 C4398 1.524 . S
C4399 C4400 1.397 . S
C4399 C4404 1.363 . S
C4400 H4377 0.950 . S
C4400 C4399 1.397 . S
C4400 C4401 1.334 . S
C4401 H4378 0.950 . S
C4401 C4400 1.334 . S
C4401 C4402 1.287 . S
C4402 C4401 1.287 . S
C4402 C4403 1.524 . S
C4402 H4421 0.913 . S
C4403 H4379 0.950 . S
C4403 C4402 1.524 . S
C4403 C4404 1.415 . S
C4404 H4380 0.950 . S
C4404 C4399 1.363 . S
C4404 C4403 1.415 . S
C4405 H4381 0.951 . S
C4405 C4406 1.366 . S
C4405 C4407 1.388 . S
C4406 C4405 1.366 . S
C4406 C4410 1.385 . S
C4407 H4382 0.951 . S
C4407 C4405 1.388 . S
C4407 C4408 1.366 . S
C4408 C4407 1.366 . S
C4408 C4409 1.414 . S
C4408 C4411 1.499 . S
C4409 H4383 0.950 . S
C4409 C4408 1.414 . S
C4409 C4410 1.374 . S
C4410 H4384 0.950 . S
C4410 C4406 1.385 . S
C4410 C4409 1.374 . S
C4411 C4408 1.499 . S
C4411 C4412 1.373 . S
C4411 C4413 1.389 . S
C4412 H4385 0.950 . S
C4412 C4398 1.377 . S
C4412 C4411 1.373 . S
C4413 C4397 1.377 . S
C4413 C4411 1.389 . S
C4413 C4414 1.524 . S
C4414 C4413 1.524 . S
C4414 C4415 1.397 . S
C4414 C4419 1.363 . S
C4415 H4386 0.950 . S
C4415 C4414 1.397 . S
C4415 C4416 1.334 . S
C4416 H4387 0.950 . S
C4416 C4415 1.334 . S
C4416 C4417 1.287 . S
C4417 C4416 1.287 . S
C4417 C4418 1.524 . S
C4417 H4420 0.999 . S
C4418 H4388 0.950 . S
C4418 C4417 1.524 . S
C4418 C4419 1.415 . S
C4419 H4389 0.950 . S
C4419 C4414 1.363 . S
C4419 C4418 1.415 . S
H4420 C4417 0.999 . S
H4421 C4402 0.913 . S
H4422 C4440 0.951 . S
H4423 C4442 0.951 . S
H4424 C4444 0.950 . S
H4425 C4445 0.950 . S
H4426 C4447 0.950 . S
H4427 C4450 0.950 . S
H4428 C4451 0.950 . S
H4429 C4453 0.950 . S
H4430 C4454 0.950 . S
H4431 C4455 0.951 . S
H4432 C4457 0.951 . S
H4433 C4459 0.950 . S
H4434 C4460 0.950 . S
H4435 C4462 0.950 . S
H4436 C4465 0.950 . S
H4437 C4466 0.950 . S
H4438 C4468 0.950 . S
H4439 C4469 0.950 . S
C4440 H4422 0.951 . S
C4440 C4441 1.366 . S
C4440 C4442 1.388 . S
C4441 C4440 1.366 . S
C4441 C4445 1.385 . S
C4442 H4423 0.951 . S
C4442 C4440 1.388 . S
C4442 C4443 1.366 . S
C4443 C4442 1.366 . S
C4443 C4444 1.414 . S
C4443 C4446 1.499 . S
C4444 H4424 0.950 . S
C4444 C4443 1.414 . S
C4444 C4445 1.374 . S
C4445 H4425 0.950 . S
C4445 C4441 1.385 . S
C4445 C4444 1.374 . S
C4446 C4443 1.499 . S
C4446 C4447 1.373 . S
C4446 C4448 1.389 . S
C4447 H4426 0.950 . S
C4447 C4446 1.373 . S
C4447 C4463 1.377 . S
C4448 C4446 1.389 . S
C4448 C4449 1.524 . S
C4448 C4462 1.377 . S
C4449 C4448 1.524 . S
C4449 C4450 1.397 . S
C4449 C4454 1.363 . S
C4450 H4427 0.950 . S
C4450 C4449 1.397 . S
C4450 C4451 1.334 . S
C4451 H4428 0.950 . S
C4451 C4450 1.334 . S
C4451 C4452 1.287 . S
C4452 C4451 1.287 . S
C4452 C4453 1.524 . S
C4452 H4471 0.913 . S
C4453 H4429 0.950 . S
C4453 C4452 1.524 . S
C4453 C4454 1.415 . S
C4454 H4430 0.950 . S
C4454 C4449 1.363 . S
C4454 C4453 1.415 . S
C4455 H4431 0.951 . S
C4455 C4456 1.366 . S
C4455 C4457 1.388 . S
C4456 C4455 1.366 . S
C4456 C4460 1.385 . S
C4457 H4432 0.951 . S
C4457 C4455 1.388 . S
C4457 C4458 1.366 . S
C4458 C4457 1.366 . S
C4458 C4459 1.414 . S
C4458 C4461 1.499 . S
C4459 H4433 0.950 . S
C4459 C4458 1.414 . S
C4459 C4460 1.374 . S
C4460 H4434 0.950 . S
C4460 C4456 1.385 . S
C4460 C4459 1.374 . S
C4461 C4458 1.499 . S
C4461 C4462 1.373 . S
C4461 C4463 1.389 . S
C4462 H4435 0.950 . S
C4462 C4448 1.377 . S
C4462 C4461 1.373 . S
C4463 C4447 1.377 . S
C4463 C4461 1.389 . S
C4463 C4464 1.524 . S
C4464 C4463 1.524 . S
C4464 C4465 1.397 . S
C4464 C4469 1.363 . S
C4465 H4436 0.950 . S
C4465 C4464 1.397 . S
C4465 C4466 1.334 . S
C4466 H4437 0.950 . S
C4466 C4465 1.334 . S
C4466 C4467 1.287 . S
C4467 C4466 1.287 . S
C4467 C4468 1.524 . S
C4467 H4470 0.999 . S
C4468 H4438 0.950 . S
C4468 C4467 1.524 . S
C4468 C4469 1.415 . S
C4469 H4439 0.950 . S
C4469 C4464 1.363 . S
C4469 C4468 1.415 . S
H4470 C4467 0.999 . S
H4471 C4452 0.913 . S
H4472 C4490 0.951 . S
H4473 C4492 0.951 . S
H4474 C4494 0.950 . S
H4475 C4495 0.950 . S
H4476 C4497 0.950 . S
H4477 C4500 0.950 . S
H4478 C4501 0.950 . S
H4479 C4503 0.950 . S
H4480 C4504 0.950 . S
H4481 C4505 0.951 . S
H4482 C4507 0.951 . S
H4483 C4509 0.950 . S
H4484 C4510 0.950 . S
H4485 C4512 0.950 . S
H4486 C4515 0.950 . S
H4487 C4516 0.950 . S
H4488 C4518 0.950 . S
H4489 C4519 0.950 . S
C4490 H4472 0.951 . S
C4490 C4491 1.366 . S
C4490 C4492 1.388 . S
C4491 C4490 1.366 . S
C4491 C4495 1.385 . S
C4492 H4473 0.951 . S
C4492 C4490 1.388 . S
C4492 C4493 1.366 . S
C4493 C4492 1.366 . S
C4493 C4494 1.414 . S
C4493 C4496 1.499 . S
C4494 H4474 0.950 . S
C4494 C4493 1.414 . S
C4494 C4495 1.374 . S
C4495 H4475 0.950 . S
C4495 C4491 1.385 . S
C4495 C4494 1.374 . S
C4496 C4493 1.499 . S
C4496 C4497 1.373 . S
C4496 C4498 1.389 . S
C4497 H4476 0.950 . S
C4497 C4496 1.373 . S
C4497 C4513 1.377 . S
C4498 C4496 1.389 . S
C4498 C4499 1.524 . S
C4498 C4512 1.377 . S
C4499 C4498 1.524 . S
C4499 C4500 1.397 . S
C4499 C4504 1.363 . S
C4500 H4477 0.950 . S
C4500 C4499 1.397 . S
C4500 C4501 1.334 . S
C4501 H4478 0.950 . S
C4501 C4500 1.334 . S
C4501 C4502 1.287 . S
C4502 C4501 1.287 . S
C4502 C4503 1.524 . S
C4502 H4521 0.913 . S
C4503 H4479 0.950 . S
C4503 C4502 1.524 . S
C4503 C4504 1.415 . S
C4504 H4480 0.950 . S
C4504 C4499 1.363 . S
C4504 C4503 1.415 . S
C4505 H4481 0.951 . S
C4505 C4506 1.366 . S
C4505 C4507 1.388 . S
C4506 C4505 1.366 . S
C4506 C4510 1.385 . S
C4507 H4482 0.951 . S
C4507 C4505 1.388 . S
C4507 C4508 1.366 . S
C4508 C4507 1.366 . S
C4508 C4509 1.414 . S
C4508 C4511 1.499 . S
C4509 H4483 0.950 . S
C4509 C4508 1.414 . S
C4509 C4510 1.374 . S
C4510 H4484 0.950 . S
C4510 C4506 1.385 . S
C4510 C4509 1.374 . S
C4511 C4508 1.499 . S
C4511 C4512 1.373 . S
C4511 C4513 1.389 . S
C4512 H4485 0.950 . S
C4512 C4498 1.377 . S
C4512 C4511 1.373 . S
C4513 C4497 1.377 . S
C4513 C4511 1.389 . S
C4513 C4514 1.524 . S
C4514 C4513 1.524 . S
C4514 C4515 1.397 . S
C4514 C4519 1.363 . S
C4515 H4486 0.950 . S
C4515 C4514 1.397 . S
C4515 C4516 1.334 . S
C4516 H4487 0.950 . S
C4516 C4515 1.334 . S
C4516 C4517 1.287 . S
C4517 C4516 1.287 . S
C4517 C4518 1.524 . S
C4517 H4520 0.999 . S
C4518 H4488 0.950 . S
C4518 C4517 1.524 . S
C4518 C4519 1.415 . S
C4519 H4489 0.950 . S
C4519 C4514 1.363 . S
C4519 C4518 1.415 . S
H4520 C4517 0.999 . S
H4521 C4502 0.913 . S
H4522 C4540 0.951 . S
H4523 C4542 0.951 . S
H4524 C4544 0.950 . S
H4525 C4545 0.950 . S
H4526 C4547 0.950 . S
H4527 C4550 0.950 . S
H4528 C4551 0.950 . S
H4529 C4553 0.950 . S
H4530 C4554 0.950 . S
H4531 C4555 0.951 . S
H4532 C4557 0.951 . S
H4533 C4559 0.950 . S
H4534 C4560 0.950 . S
H4535 C4562 0.950 . S
H4536 C4565 0.950 . S
H4537 C4566 0.950 . S
H4538 C4568 0.950 . S
H4539 C4569 0.950 . S
C4540 H4522 0.951 . S
C4540 C4541 1.366 . S
C4540 C4542 1.388 . S
C4541 C4540 1.366 . S
C4541 C4545 1.385 . S
C4542 H4523 0.951 . S
C4542 C4540 1.388 . S
C4542 C4543 1.366 . S
C4543 C4542 1.366 . S
C4543 C4544 1.414 . S
C4543 C4546 1.499 . S
C4544 H4524 0.950 . S
C4544 C4543 1.414 . S
C4544 C4545 1.374 . S
C4545 H4525 0.950 . S
C4545 C4541 1.385 . S
C4545 C4544 1.374 . S
C4546 C4543 1.499 . S
C4546 C4547 1.373 . S
C4546 C4548 1.389 . S
C4547 H4526 0.950 . S
C4547 C4546 1.373 . S
C4547 C4563 1.377 . S
C4548 C4546 1.389 . S
C4548 C4549 1.524 . S
C4548 C4562 1.377 . S
C4549 C4548 1.524 . S
C4549 C4550 1.397 . S
C4549 C4554 1.363 . S
C4550 H4527 0.950 . S
C4550 C4549 1.397 . S
C4550 C4551 1.334 . S
C4551 H4528 0.950 . S
C4551 C4550 1.334 . S
C4551 C4552 1.287 . S
C4552 C4551 1.287 . S
C4552 C4553 1.524 . S
C4552 H4571 0.913 . S
C4553 H4529 0.950 . S
C4553 C4552 1.524 . S
C4553 C4554 1.415 . S
C4554 H4530 0.950 . S
C4554 C4549 1.363 . S
C4554 C4553 1.415 . S
C4555 H4531 0.951 . S
C4555 C4556 1.366 . S
C4555 C4557 1.388 . S
C4556 C4555 1.366 . S
C4556 C4560 1.385 . S
C4557 H4532 0.951 . S
C4557 C4555 1.388 . S
C4557 C4558 1.366 . S
C4558 C4557 1.366 . S
C4558 C4559 1.414 . S
C4558 C4561 1.499 . S
C4559 H4533 0.950 . S
C4559 C4558 1.414 . S
C4559 C4560 1.374 . S
C4560 H4534 0.950 . S
C4560 C4556 1.385 . S
C4560 C4559 1.374 . S
C4561 C4558 1.499 . S
C4561 C4562 1.373 . S
C4561 C4563 1.389 . S
C4562 H4535 0.950 . S
C4562 C4548 1.377 . S
C4562 C4561 1.373 . S
C4563 C4547 1.377 . S
C4563 C4561 1.389 . S
C4563 C4564 1.524 . S
C4564 C4563 1.524 . S
C4564 C4565 1.397 . S
C4564 C4569 1.363 . S
C4565 H4536 0.950 . S
C4565 C4564 1.397 . S
C4565 C4566 1.334 . S
C4566 H4537 0.950 . S
C4566 C4565 1.334 . S
C4566 C4567 1.287 . S
C4567 C4566 1.287 . S
C4567 C4568 1.524 . S
C4567 H4570 0.999 . S
C4568 H4538 0.950 . S
C4568 C4567 1.524 . S
C4568 C4569 1.415 . S
C4569 H4539 0.950 . S
C4569 C4564 1.363 . S
C4569 C4568 1.415 . S
H4570 C4567 0.999 . S
H4571 C4552 0.913 . S
H4572 C4590 0.951 . S
H4573 C4592 0.951 . S
H4574 C4594 0.950 . S
H4575 C4595 0.950 . S
H4576 C4597 0.950 . S
H4577 C4600 0.950 . S
H4578 C4601 0.950 . S
H4579 C4603 0.950 . S
H4580 C4604 0.950 . S
H4581 C4605 0.951 . S
H4582 C4607 0.951 . S
H4583 C4609 0.950 . S
H4584 C4610 0.950 . S
H4585 C4612 0.950 . S
H4586 C4615 0.950 . S
H4587 C4616 0.950 . S
H4588 C4618 0.950 . S
H4589 C4619 0.950 . S
C4590 H4572 0.951 . S
C4590 C4591 1.366 . S
C4590 C4592 1.388 . S
C4591 C4590 1.366 . S
C4591 C4595 1.385 . S
C4592 H4573 0.951 . S
C4592 C4590 1.388 . S
C4592 C4593 1.366 . S
C4593 C4592 1.366 . S
C4593 C4594 1.414 . S
C4593 C4596 1.499 . S
C4594 H4574 0.950 . S
C4594 C4593 1.414 . S
C4594 C4595 1.374 . S
C4595 H4575 0.950 . S
C4595 C4591 1.385 . S
C4595 C4594 1.374 . S
C4596 C4593 1.499 . S
C4596 C4597 1.373 . S
C4596 C4598 1.389 . S
C4597 H4576 0.950 . S
C4597 C4596 1.373 . S
C4597 C4613 1.377 . S
C4598 C4596 1.389 . S
C4598 C4599 1.524 . S
C4598 C4612 1.377 . S
C4599 C4598 1.524 . S
C4599 C4600 1.397 . S
C4599 C4604 1.363 . S
C4600 H4577 0.950 . S
C4600 C4599 1.397 . S
C4600 C4601 1.334 . S
C4601 H4578 0.950 . S
C4601 C4600 1.334 . S
C4601 C4602 1.287 . S
C4602 C4601 1.287 . S
C4602 C4603 1.524 . S
C4602 H4621 0.913 . S
C4603 H4579 0.950 . S
C4603 C4602 1.524 . S
C4603 C4604 1.415 . S
C4604 H4580 0.950 . S
C4604 C4599 1.363 . S
C4604 C4603 1.415 . S
C4605 H4581 0.951 . S
C4605 C4606 1.366 . S
C4605 C4607 1.388 . S
C4606 C4605 1.366 . S
C4606 C4610 1.385 . S
C4607 H4582 0.951 . S
C4607 C4605 1.388 . S
C4607 C4608 1.366 . S
C4608 C4607 1.366 . S
C4608 C4609 1.414 . S
C4608 C4611 1.499 . S
C4609 H4583 0.950 . S
C4609 C4608 1.414 . S
C4609 C4610 1.374 . S
C4610 H4584 0.950 . S
C4610 C4606 1.385 . S
C4610 C4609 1.374 . S
C4611 C4608 1.499 . S
C4611 C4612 1.373 . S
C4611 C4613 1.389 . S
C4612 H4585 0.950 . S
C4612 C4598 1.377 . S
C4612 C4611 1.373 . S
C4613 C4597 1.377 . S
C4613 C4611 1.389 . S
C4613 C4614 1.524 . S
C4614 C4613 1.524 . S
C4614 C4615 1.397 . S
C4614 C4619 1.363 . S
C4615 H4586 0.950 . S
C4615 C4614 1.397 . S
C4615 C4616 1.334 . S
C4616 H4587 0.950 . S
C4616 C4615 1.334 . S
C4616 C4617 1.287 . S
C4617 C4616 1.287 . S
C4617 C4618 1.524 . S
C4617 H4620 0.999 . S
C4618 H4588 0.950 . S
C4618 C4617 1.524 . S
C4618 C4619 1.415 . S
C4619 H4589 0.950 . S
C4619 C4614 1.363 . S
C4619 C4618 1.415 . S
H4620 C4617 0.999 . S
H4621 C4602 0.913 . S
H4622 C4640 0.951 . S
H4623 C4642 0.951 . S
H4624 C4644 0.950 . S
H4625 C4645 0.950 . S
H4626 C4647 0.950 . S
H4627 C4650 0.950 . S
H4628 C4651 0.950 . S
H4629 C4653 0.950 . S
H4630 C4654 0.950 . S
H4631 C4655 0.951 . S
H4632 C4657 0.951 . S
H4633 C4659 0.950 . S
H4634 C4660 0.950 . S
H4635 C4662 0.950 . S
H4636 C4665 0.950 . S
H4637 C4666 0.950 . S
H4638 C4668 0.950 . S
H4639 C4669 0.950 . S
C4640 H4622 0.951 . S
C4640 C4641 1.366 . S
C4640 C4642 1.388 . S
C4641 C4640 1.366 . S
C4641 C4645 1.385 . S
C4642 H4623 0.951 . S
C4642 C4640 1.388 . S
C4642 C4643 1.366 . S
C4643 C4642 1.366 . S
C4643 C4644 1.414 . S
C4643 C4646 1.499 . S
C4644 H4624 0.950 . S
C4644 C4643 1.414 . S
C4644 C4645 1.374 . S
C4645 H4625 0.950 . S
C4645 C4641 1.385 . S
C4645 C4644 1.374 . S
C4646 C4643 1.499 . S
C4646 C4647 1.373 . S
C4646 C4648 1.389 . S
C4647 H4626 0.950 . S
C4647 C4646 1.373 . S
C4647 C4663 1.377 . S
C4648 C4646 1.389 . S
C4648 C4649 1.524 . S
C4648 C4662 1.377 . S
C4649 C4648 1.524 . S
C4649 C4650 1.397 . S
C4649 C4654 1.363 . S
C4650 H4627 0.950 . S
C4650 C4649 1.397 . S
C4650 C4651 1.334 . S
C4651 H4628 0.950 . S
C4651 C4650 1.334 . S
C4651 C4652 1.287 . S
C4652 C4651 1.287 . S
C4652 C4653 1.524 . S
C4652 H4671 0.913 . S
C4653 H4629 0.950 . S
C4653 C4652 1.524 . S
C4653 C4654 1.415 . S
C4654 H4630 0.950 . S
C4654 C4649 1.363 . S
C4654 C4653 1.415 . S
C4655 H4631 0.951 . S
C4655 C4656 1.366 . S
C4655 C4657 1.388 . S
C4656 C4655 1.366 . S
C4656 C4660 1.385 . S
C4657 H4632 0.951 . S
C4657 C4655 1.388 . S
C4657 C4658 1.366 . S
C4658 C4657 1.366 . S
C4658 C4659 1.414 . S
C4658 C4661 1.499 . S
C4659 H4633 0.950 . S
C4659 C4658 1.414 . S
C4659 C4660 1.374 . S
C4660 H4634 0.950 . S
C4660 C4656 1.385 . S
C4660 C4659 1.374 . S
C4661 C4658 1.499 . S
C4661 C4662 1.373 . S
C4661 C4663 1.389 . S
C4662 H4635 0.950 . S
C4662 C4648 1.377 . S
C4662 C4661 1.373 . S
C4663 C4647 1.377 . S
C4663 C4661 1.389 . S
C4663 C4664 1.524 . S
C4664 C4663 1.524 . S
C4664 C4665 1.397 . S
C4664 C4669 1.363 . S
C4665 H4636 0.950 . S
C4665 C4664 1.397 . S
C4665 C4666 1.334 . S
C4666 H4637 0.950 . S
C4666 C4665 1.334 . S
C4666 C4667 1.287 . S
C4667 C4666 1.287 . S
C4667 C4668 1.524 . S
C4667 H4670 0.999 . S
C4668 H4638 0.950 . S
C4668 C4667 1.524 . S
C4668 C4669 1.415 . S
C4669 H4639 0.950 . S
C4669 C4664 1.363 . S
C4669 C4668 1.415 . S
H4670 C4667 0.999 . S
H4671 C4652 0.913 . S
H4672 C4690 0.951 . S
H4673 C4692 0.951 . S
H4674 C4694 0.950 . S
H4675 C4695 0.950 . S
H4676 C4697 0.950 . S
H4677 C4700 0.950 . S
H4678 C4701 0.950 . S
H4679 C4703 0.950 . S
H4680 C4704 0.950 . S
H4681 C4705 0.951 . S
H4682 C4707 0.951 . S
H4683 C4709 0.950 . S
H4684 C4710 0.950 . S
H4685 C4712 0.950 . S
H4686 C4715 0.950 . S
H4687 C4716 0.950 . S
H4688 C4718 0.950 . S
H4689 C4719 0.950 . S
C4690 H4672 0.951 . S
C4690 C4691 1.366 . S
C4690 C4692 1.388 . S
C4691 C4690 1.366 . S
C4691 C4695 1.385 . S
C4692 H4673 0.951 . S
C4692 C4690 1.388 . S
C4692 C4693 1.366 . S
C4693 C4692 1.366 . S
C4693 C4694 1.414 . S
C4693 C4696 1.499 . S
C4694 H4674 0.950 . S
C4694 C4693 1.414 . S
C4694 C4695 1.374 . S
C4695 H4675 0.950 . S
C4695 C4691 1.385 . S
C4695 C4694 1.374 . S
C4696 C4693 1.499 . S
C4696 C4697 1.373 . S
C4696 C4698 1.389 . S
C4697 H4676 0.950 . S
C4697 C4696 1.373 . S
C4697 C4713 1.377 . S
C4698 C4696 1.389 . S
C4698 C4699 1.524 . S
C4698 C4712 1.377 . S
C4699 C4698 1.524 . S
C4699 C4700 1.397 . S
C4699 C4704 1.363 . S
C4700 H4677 0.950 . S
C4700 C4699 1.397 . S
C4700 C4701 1.334 . S
C4701 H4678 0.950 . S
C4701 C4700 1.334 . S
C4701 C4702 1.287 . S
C4702 C4701 1.287 . S
C4702 C4703 1.524 . S
C4702 H4721 0.913 . S
C4703 H4679 0.950 . S
C4703 C4702 1.524 . S
C4703 C4704 1.415 . S
C4704 H4680 0.950 . S
C4704 C4699 1.363 . S
C4704 C4703 1.415 . S
C4705 H4681 0.951 . S
C4705 C4706 1.366 . S
C4705 C4707 1.388 . S
C4706 C4705 1.366 . S
C4706 C4710 1.385 . S
C4707 H4682 0.951 . S
C4707 C4705 1.388 . S
C4707 C4708 1.366 . S
C4708 C4707 1.366 . S
C4708 C4709 1.414 . S
C4708 C4711 1.499 . S
C4709 H4683 0.950 . S
C4709 C4708 1.414 . S
C4709 C4710 1.374 . S
C4710 H4684 0.950 . S
C4710 C4706 1.385 . S
C4710 C4709 1.374 . S
C4711 C4708 1.499 . S
C4711 C4712 1.373 . S
C4711 C4713 1.389 . S
C4712 H4685 0.950 . S
C4712 C4698 1.377 . S
C4712 C4711 1.373 . S
C4713 C4697 1.377 . S
C4713 C4711 1.389 . S
C4713 C4714 1.524 . S
C4714 C4713 1.524 . S
C4714 C4715 1.397 . S
C4714 C4719 1.363 . S
C4715 H4686 0.950 . S
C4715 C4714 1.397 . S
C4715 C4716 1.334 . S
C4716 H4687 0.950 . S
C4716 C4715 1.334 . S
C4716 C4717 1.287 . S
C4717 C4716 1.287 . S
C4717 C4718 1.524 . S
C4717 H4720 0.999 . S
C4718 H4688 0.950 . S
C4718 C4717 1.524 . S
C4718 C4719 1.415 . S
C4719 H4689 0.950 . S
C4719 C4714 1.363 . S
C4719 C4718 1.415 . S
H4720 C4717 0.999 . S
H4721 C4702 0.913 . S
H4722 C4740 0.951 . S
H4723 C4742 0.951 . S
H4724 C4744 0.950 . S
H4725 C4745 0.950 . S
H4726 C4747 0.950 . S
H4727 C4750 0.950 . S
H4728 C4751 0.950 . S
H4729 C4753 0.950 . S
H4730 C4754 0.950 . S
H4731 C4755 0.951 . S
H4732 C4757 0.951 . S
H4733 C4759 0.950 . S
H4734 C4760 0.950 . S
H4735 C4762 0.950 . S
H4736 C4765 0.950 . S
H4737 C4766 0.950 . S
H4738 C4768 0.950 . S
H4739 C4769 0.950 . S
C4740 H4722 0.951 . S
C4740 C4741 1.366 . S
C4740 C4742 1.388 . S
C4741 C4740 1.366 . S
C4741 C4745 1.385 . S
C4742 H4723 0.951 . S
C4742 C4740 1.388 . S
C4742 C4743 1.366 . S
C4743 C4742 1.366 . S
C4743 C4744 1.414 . S
C4743 C4746 1.499 . S
C4744 H4724 0.950 . S
C4744 C4743 1.414 . S
C4744 C4745 1.374 . S
C4745 H4725 0.950 . S
C4745 C4741 1.385 . S
C4745 C4744 1.374 . S
C4746 C4743 1.499 . S
C4746 C4747 1.373 . S
C4746 C4748 1.389 . S
C4747 H4726 0.950 . S
C4747 C4746 1.373 . S
C4747 C4763 1.377 . S
C4748 C4746 1.389 . S
C4748 C4749 1.524 . S
C4748 C4762 1.377 . S
C4749 C4748 1.524 . S
C4749 C4750 1.397 . S
C4749 C4754 1.363 . S
C4750 H4727 0.950 . S
C4750 C4749 1.397 . S
C4750 C4751 1.334 . S
C4751 H4728 0.950 . S
C4751 C4750 1.334 . S
C4751 C4752 1.287 . S
C4752 C4751 1.287 . S
C4752 C4753 1.524 . S
C4752 H4771 0.913 . S
C4753 H4729 0.950 . S
C4753 C4752 1.524 . S
C4753 C4754 1.415 . S
C4754 H4730 0.950 . S
C4754 C4749 1.363 . S
C4754 C4753 1.415 . S
C4755 H4731 0.951 . S
C4755 C4756 1.366 . S
C4755 C4757 1.388 . S
C4756 C4755 1.366 . S
C4756 C4760 1.385 . S
C4757 H4732 0.951 . S
C4757 C4755 1.388 . S
C4757 C4758 1.366 . S
C4758 C4757 1.366 . S
C4758 C4759 1.414 . S
C4758 C4761 1.499 . S
C4759 H4733 0.950 . S
C4759 C4758 1.414 . S
C4759 C4760 1.374 . S
C4760 H4734 0.950 . S
C4760 C4756 1.385 . S
C4760 C4759 1.374 . S
C4761 C4758 1.499 . S
C4761 C4762 1.373 . S
C4761 C4763 1.389 . S
C4762 H4735 0.950 . S
C4762 C4748 1.377 . S
C4762 C4761 1.373 . S
C4763 C4747 1.377 . S
C4763 C4761 1.389 . S
C4763 C4764 1.524 . S
C4764 C4763 1.524 . S
C4764 C4765 1.397 . S
C4764 C4769 1.363 . S
C4765 H4736 0.950 . S
C4765 C4764 1.397 . S
C4765 C4766 1.334 . S
C4766 H4737 0.950 . S
C4766 C4765 1.334 . S
C4766 C4767 1.287 . S
C4767 C4766 1.287 . S
C4767 C4768 1.524 . S
C4767 H4770 0.999 . S
C4768 H4738 0.950 . S
C4768 C4767 1.524 . S
C4768 C4769 1.415 . S
C4769 H4739 0.950 . S
C4769 C4764 1.363 . S
C4769 C4768 1.415 . S
H4770 C4767 0.999 . S
H4771 C4752 0.913 . S
H4772 C4790 0.951 . S
H4773 C4792 0.951 . S
H4774 C4794 0.950 . S
H4775 C4795 0.950 . S
H4776 C4797 0.950 . S
H4777 C4800 0.950 . S
H4778 C4801 0.950 . S
H4779 C4803 0.950 . S
H4780 C4804 0.950 . S
H4781 C4805 0.951 . S
H4782 C4807 0.951 . S
H4783 C4809 0.950 . S
H4784 C4810 0.950 . S
H4785 C4812 0.950 . S
H4786 C4815 0.950 . S
H4787 C4816 0.950 . S
H4788 C4818 0.950 . S
H4789 C4819 0.950 . S
C4790 H4772 0.951 . S
C4790 C4791 1.366 . S
C4790 C4792 1.388 . S
C4791 C4790 1.366 . S
C4791 C4795 1.385 . S
C4792 H4773 0.951 . S
C4792 C4790 1.388 . S
C4792 C4793 1.366 . S
C4793 C4792 1.366 . S
C4793 C4794 1.414 . S
C4793 C4796 1.499 . S
C4794 H4774 0.950 . S
C4794 C4793 1.414 . S
C4794 C4795 1.374 . S
C4795 H4775 0.950 . S
C4795 C4791 1.385 . S
C4795 C4794 1.374 . S
C4796 C4793 1.499 . S
C4796 C4797 1.373 . S
C4796 C4798 1.389 . S
C4797 H4776 0.950 . S
C4797 C4796 1.373 . S
C4797 C4813 1.377 . S
C4798 C4796 1.389 . S
C4798 C4799 1.524 . S
C4798 C4812 1.377 . S
C4799 C4798 1.524 . S
C4799 C4800 1.397 . S
C4799 C4804 1.363 . S
C4800 H4777 0.950 . S
C4800 C4799 1.397 . S
C4800 C4801 1.334 . S
C4801 H4778 0.950 . S
C4801 C4800 1.334 . S
C4801 C4802 1.287 . S
C4802 C4801 1.287 . S
C4802 C4803 1.524 . S
C4802 H4821 0.913 . S
C4803 H4779 0.950 . S
C4803 C4802 1.524 . S
C4803 C4804 1.415 . S
C4804 H4780 0.950 . S
C4804 C4799 1.363 . S
C4804 C4803 1.415 . S
C4805 H4781 0.951 . S
C4805 C4806 1.366 . S
C4805 C4807 1.388 . S
C4806 C4805 1.366 . S
C4806 C4810 1.385 . S
C4807 H4782 0.951 . S
C4807 C4805 1.388 . S
C4807 C4808 1.366 . S
C4808 C4807 1.366 . S
C4808 C4809 1.414 . S
C4808 C4811 1.499 . S
C4809 H4783 0.950 . S
C4809 C4808 1.414 . S
C4809 C4810 1.374 . S
C4810 H4784 0.950 . S
C4810 C4806 1.385 . S
C4810 C4809 1.374 . S
C4811 C4808 1.499 . S
C4811 C4812 1.373 . S
C4811 C4813 1.389 . S
C4812 H4785 0.950 . S
C4812 C4798 1.377 . S
C4812 C4811 1.373 . S
C4813 C4797 1.377 . S
C4813 C4811 1.389 . S
C4813 C4814 1.524 . S
C4814 C4813 1.524 . S
C4814 C4815 1.397 . S
C4814 C4819 1.363 . S
C4815 H4786 0.950 . S
C4815 C4814 1.397 . S
C4815 C4816 1.334 . S
C4816 H4787 0.950 . S
C4816 C4815 1.334 . S
C4816 C4817 1.287 . S
C4817 C4816 1.287 . S
C4817 C4818 1.524 . S
C4817 H4820 0.999 . S
C4818 H4788 0.950 . S
C4818 C4817 1.524 . S
C4818 C4819 1.415 . S
C4819 H4789 0.950 . S
C4819 C4814 1.363 . S
C4819 C4818 1.415 . S
H4820 C4817 0.999 . S
H4821 C4802 0.913 . S
H4822 C4840 0.951 . S
H4823 C4842 0.951 . S
H4824 C4844 0.950 . S
H4825 C4845 0.950 . S
H4826 C4847 0.950 . S
H4827 C4850 0.950 . S
H4828 C4851 0.950 . S
H4829 C4853 0.950 . S
H4830 C4854 0.950 . S
H4831 C4855 0.951 . S
H4832 C4857 0.951 . S
H4833 C4859 0.950 . S
H4834 C4860 0.950 . S
H4835 C4862 0.950 . S
H4836 C4865 0.950 . S
H4837 C4866 0.950 . S
H4838 C4868 0.950 . S
H4839 C4869 0.950 . S
C4840 H4822 0.951 . S
C4840 C4841 1.366 . S
C4840 C4842 1.388 . S
C4841 C4840 1.366 . S
C4841 C4845 1.385 . S
C4842 H4823 0.951 . S
C4842 C4840 1.388 . S
C4842 C4843 1.366 . S
C4843 C4842 1.366 . S
C4843 C4844 1.414 . S
C4843 C4846 1.499 . S
C4844 H4824 0.950 . S
C4844 C4843 1.414 . S
C4844 C4845 1.374 . S
C4845 H4825 0.950 . S
C4845 C4841 1.385 . S
C4845 C4844 1.374 . S
C4846 C4843 1.499 . S
C4846 C4847 1.373 . S
C4846 C4848 1.389 . S
C4847 H4826 0.950 . S
C4847 C4846 1.373 . S
C4847 C4863 1.377 . S
C4848 C4846 1.389 . S
C4848 C4849 1.524 . S
C4848 C4862 1.377 . S
C4849 C4848 1.524 . S
C4849 C4850 1.397 . S
C4849 C4854 1.363 . S
C4850 H4827 0.950 . S
C4850 C4849 1.397 . S
C4850 C4851 1.334 . S
C4851 H4828 0.950 . S
C4851 C4850 1.334 . S
C4851 C4852 1.287 . S
C4852 C4851 1.287 . S
C4852 C4853 1.524 . S
C4852 H4871 0.913 . S
C4853 H4829 0.950 . S
C4853 C4852 1.524 . S
C4853 C4854 1.415 . S
C4854 H4830 0.950 . S
C4854 C4849 1.363 . S
C4854 C4853 1.415 . S
C4855 H4831 0.951 . S
C4855 C4856 1.366 . S
C4855 C4857 1.388 . S
C4856 C4855 1.366 . S
C4856 C4860 1.385 . S
C4857 H4832 0.951 . S
C4857 C4855 1.388 . S
C4857 C4858 1.366 . S
C4858 C4857 1.366 . S
C4858 C4859 1.414 . S
C4858 C4861 1.499 . S
C4859 H4833 0.950 . S
C4859 C4858 1.414 . S
C4859 C4860 1.374 . S
C4860 H4834 0.950 . S
C4860 C4856 1.385 . S
C4860 C4859 1.374 . S
C4861 C4858 1.499 . S
C4861 C4862 1.373 . S
C4861 C4863 1.389 . S
C4862 H4835 0.950 . S
C4862 C4848 1.377 . S
C4862 C4861 1.373 . S
C4863 C4847 1.377 . S
C4863 C4861 1.389 . S
C4863 C4864 1.524 . S
C4864 C4863 1.524 . S
C4864 C4865 1.397 . S
C4864 C4869 1.363 . S
C4865 H4836 0.950 . S
C4865 C4864 1.397 . S
C4865 C4866 1.334 . S
C4866 H4837 0.950 . S
C4866 C4865 1.334 . S
C4866 C4867 1.287 . S
C4867 C4866 1.287 . S
C4867 C4868 1.524 . S
C4867 H4870 0.999 . S
C4868 H4838 0.950 . S
C4868 C4867 1.524 . S
C4868 C4869 1.415 . S
C4869 H4839 0.950 . S
C4869 C4864 1.363 . S
C4869 C4868 1.415 . S
H4870 C4867 0.999 . S
H4871 C4852 0.913 . S
H4872 C4890 0.951 . S
H4873 C4892 0.951 . S
H4874 C4894 0.950 . S
H4875 C4895 0.950 . S
H4876 C4897 0.950 . S
H4877 C4900 0.950 . S
H4878 C4901 0.950 . S
H4879 C4903 0.950 . S
H4880 C4904 0.950 . S
H4881 C4905 0.951 . S
H4882 C4907 0.951 . S
H4883 C4909 0.950 . S
H4884 C4910 0.950 . S
H4885 C4912 0.950 . S
H4886 C4915 0.950 . S
H4887 C4916 0.950 . S
H4888 C4918 0.950 . S
H4889 C4919 0.950 . S
C4890 H4872 0.951 . S
C4890 C4891 1.366 . S
C4890 C4892 1.388 . S
C4891 C4890 1.366 . S
C4891 C4895 1.385 . S
C4892 H4873 0.951 . S
C4892 C4890 1.388 . S
C4892 C4893 1.366 . S
C4893 C4892 1.366 . S
C4893 C4894 1.414 . S
C4893 C4896 1.499 . S
C4894 H4874 0.950 . S
C4894 C4893 1.414 . S
C4894 C4895 1.374 . S
C4895 H4875 0.950 . S
C4895 C4891 1.385 . S
C4895 C4894 1.374 . S
C4896 C4893 1.499 . S
C4896 C4897 1.373 . S
C4896 C4898 1.389 . S
C4897 H4876 0.950 . S
C4897 C4896 1.373 . S
C4897 C4913 1.377 . S
C4898 C4896 1.389 . S
C4898 C4899 1.524 . S
C4898 C4912 1.377 . S
C4899 C4898 1.524 . S
C4899 C4900 1.397 . S
C4899 C4904 1.363 . S
C4900 H4877 0.950 . S
C4900 C4899 1.397 . S
C4900 C4901 1.334 . S
C4901 H4878 0.950 . S
C4901 C4900 1.334 . S
C4901 C4902 1.287 . S
C4902 C4901 1.287 . S
C4902 C4903 1.524 . S
C4902 H4921 0.913 . S
C4903 H4879 0.950 . S
C4903 C4902 1.524 . S
C4903 C4904 1.415 . S
C4904 H4880 0.950 . S
C4904 C4899 1.363 . S
C4904 C4903 1.415 . S
C4905 H4881 0.951 . S
C4905 C4906 1.366 . S
C4905 C4907 1.388 . S
C4906 C4905 1.366 . S
C4906 C4910 1.385 . S
C4907 H4882 0.951 . S
C4907 C4905 1.388 . S
C4907 C4908 1.366 . S
C4908 C4907 1.366 . S
C4908 C4909 1.414 . S
C4908 C4911 1.499 . S
C4909 H4883 0.950 . S
C4909 C4908 1.414 . S
C4909 C4910 1.374 . S
C4910 H4884 0.950 . S
C4910 C4906 1.385 . S
C4910 C4909 1.374 . S
C4911 C4908 1.499 . S
C4911 C4912 1.373 . S
C4911 C4913 1.389 . S
C4912 H4885 0.950 . S
C4912 C4898 1.377 . S
C4912 C4911 1.373 . S
C4913 C4897 1.377 . S
C4913 C4911 1.389 . S
C4913 C4914 1.524 . S
C4914 C4913 1.524 . S
C4914 C4915 1.397 . S
C4914 C4919 1.363 . S
C4915 H4886 0.950 . S
C4915 C4914 1.397 . S
C4915 C4916 1.334 . S
C4916 H4887 0.950 . S
C4916 C4915 1.334 . S
C4916 C4917 1.287 . S
C4917 C4916 1.287 . S
C4917 C4918 1.524 . S
C4917 H4920 0.999 . S
C4918 H4888 0.950 . S
C4918 C4917 1.524 . S
C4918 C4919 1.415 . S
C4919 H4889 0.950 . S
C4919 C4914 1.363 . S
C4919 C4918 1.415 . S
H4920 C4917 0.999 . S
H4921 C4902 0.913 . S
H4922 C4940 0.951 . S
H4923 C4942 0.951 . S
H4924 C4944 0.950 . S
H4925 C4945 0.950 . S
H4926 C4947 0.950 . S
H4927 C4950 0.950 . S
H4928 C4951 0.950 . S
H4929 C4953 0.950 . S
H4930 C4954 0.950 . S
H4931 C4955 0.951 . S
H4932 C4957 0.951 . S
H4933 C4959 0.950 . S
H4934 C4960 0.950 . S
H4935 C4962 0.950 . S
H4936 C4965 0.950 . S
H4937 C4966 0.950 . S
H4938 C4968 0.950 . S
H4939 C4969 0.950 . S
C4940 H4922 0.951 . S
C4940 C4941 1.366 . S
C4940 C4942 1.388 . S
C4941 C4940 1.366 . S
C4941 C4945 1.385 . S
C4942 H4923 0.951 . S
C4942 C4940 1.388 . S
C4942 C4943 1.366 . S
C4943 C4942 1.366 . S
C4943 C4944 1.414 . S
C4943 C4946 1.499 . S
C4944 H4924 0.950 . S
C4944 C4943 1.414 . S
C4944 C4945 1.374 . S
C4945 H4925 0.950 . S
C4945 C4941 1.385 . S
C4945 C4944 1.374 . S
C4946 C4943 1.499 . S
C4946 C4947 1.373 . S
C4946 C4948 1.389 . S
C4947 H4926 0.950 . S
C4947 C4946 1.373 . S
C4947 C4963 1.377 . S
C4948 C4946 1.389 . S
C4948 C4949 1.524 . S
C4948 C4962 1.377 . S
C4949 C4948 1.524 . S
C4949 C4950 1.397 . S
C4949 C4954 1.363 . S
C4950 H4927 0.950 . S
C4950 C4949 1.397 . S
C4950 C4951 1.334 . S
C4951 H4928 0.950 . S
C4951 C4950 1.334 . S
C4951 C4952 1.287 . S
C4952 C4951 1.287 . S
C4952 C4953 1.524 . S
C4952 H4971 0.913 . S
C4953 H4929 0.950 . S
C4953 C4952 1.524 . S
C4953 C4954 1.415 . S
C4954 H4930 0.950 . S
C4954 C4949 1.363 . S
C4954 C4953 1.415 . S
C4955 H4931 0.951 . S
C4955 C4956 1.366 . S
C4955 C4957 1.388 . S
C4956 C4955 1.366 . S
C4956 C4960 1.385 . S
C4957 H4932 0.951 . S
C4957 C4955 1.388 . S
C4957 C4958 1.366 . S
C4958 C4957 1.366 . S
C4958 C4959 1.414 . S
C4958 C4961 1.499 . S
C4959 H4933 0.950 . S
C4959 C4958 1.414 . S
C4959 C4960 1.374 . S
C4960 H4934 0.950 . S
C4960 C4956 1.385 . S
C4960 C4959 1.374 . S
C4961 C4958 1.499 . S
C4961 C4962 1.373 . S
C4961 C4963 1.389 . S
C4962 H4935 0.950 . S
C4962 C4948 1.377 . S
C4962 C4961 1.373 . S
C4963 C4947 1.377 . S
C4963 C4961 1.389 . S
C4963 C4964 1.524 . S
C4964 C4963 1.524 . S
C4964 C4965 1.397 . S
C4964 C4969 1.363 . S
C4965 H4936 0.950 . S
C4965 C4964 1.397 . S
C4965 C4966 1.334 . S
C4966 H4937 0.950 . S
C4966 C4965 1.334 . S
C4966 C4967 1.287 . S
C4967 C4966 1.287 . S
C4967 C4968 1.524 . S
C4967 H4970 0.999 . S
C4968 H4938 0.950 . S
C4968 C4967 1.524 . S
C4968 C4969 1.415 . S
C4969 H4939 0.950 . S
C4969 C4964 1.363 . S
C4969 C4968 1.415 . S
H4970 C4967 0.999 . S
H4971 C4952 0.913 . S
H4972 C4990 0.951 . S
H4973 C4992 0.951 . S
H4974 C4994 0.950 . S
H4975 C4995 0.950 . S
H4976 C4997 0.950 . S
H4977 C5000 0.950 . S
H4978 C5001 0.950 . S
H4979 C5003 0.950 . S
H4980 C5004 0.950 . S
H4981 C5005 0.951 . S
H4982 C5007 0.951 . S
H4983 C5009 0.950 . S
H4984 C5010 0.950 . S
H4985 C5012 0.950 . S
H4986 C5015 0.950 . S
H4987 C5016 0.950 . S
H4988 C5018 0.950 . S
H4989 C5019 0.950 . S
C4990 H4972 0.951 . S
C4990 C4991 1.366 . S
C4990 C4992 1.388 . S
C4991 C4990 1.366 . S
C4991 C4995 1.385 . S
C4992 H4973 0.951 . S
C4992 C4990 1.388 . S
C4992 C4993 1.366 . S
C4993 C4992 1.366 . S
C4993 C4994 1.414 . S
C4993 C4996 1.499 . S
C4994 H4974 0.950 . S
C4994 C4993 1.414 . S
C4994 C4995 1.374 . S
C4995 H4975 0.950 . S
C4995 C4991 1.385 . S
C4995 C4994 1.374 . S
C4996 C4993 1.499 . S
C4996 C4997 1.373 . S
C4996 C4998 1.389 . S
C4997 H4976 0.950 . S
C4997 C4996 1.373 . S
C4997 C5013 1.377 . S
C4998 C4996 1.389 . S
C4998 C4999 1.524 . S
C4998 C5012 1.377 . S
C4999 C4998 1.524 . S
C4999 C5000 1.397 . S
C4999 C5004 1.363 . S
C5000 H4977 0.950 . S
C5000 C4999 1.397 . S
C5000 C5001 1.334 . S
C5001 H4978 0.950 . S
C5001 C5000 1.334 . S
C5001 C5002 1.287 . S
C5002 C5001 1.287 . S
C5002 C5003 1.524 . S
C5002 H5021 0.913 . S
C5003 H4979 0.950 . S
C5003 C5002 1.524 . S
C5003 C5004 1.415 . S
C5004 H4980 0.950 . S
C5004 C4999 1.363 . S
C5004 C5003 1.415 . S
C5005 H4981 0.951 . S
C5005 C5006 1.366 . S
C5005 C5007 1.388 . S
C5006 C5005 1.366 . S
C5006 C5010 1.385 . S
C5007 H4982 0.951 . S
C5007 C5005 1.388 . S
C5007 C5008 1.366 . S
C5008 C5007 1.366 . S
C5008 C5009 1.414 . S
C5008 C5011 1.499 . S
C5009 H4983 0.950 . S
C5009 C5008 1.414 . S
C5009 C5010 1.374 . S
C5010 H4984 0.950 . S
C5010 C5006 1.385 . S
C5010 C5009 1.374 . S
C5011 C5008 1.499 . S
C5011 C5012 1.373 . S
C5011 C5013 1.389 . S
C5012 H4985 0.950 . S
C5012 C4998 1.377 . S
C5012 C5011 1.373 . S
C5013 C4997 1.377 . S
C5013 C5011 1.389 . S
C5013 C5014 1.524 . S
C5014 C5013 1.524 . S
C5014 C5015 1.397 . S
C5014 C5019 1.363 . S
C5015 H4986 0.950 . S
C5015 C5014 1.397 . S
C5015 C5016 1.334 . S
C5016 H4987 0.950 . S
C5016 C5015 1.334 . S
C5016 C5017 1.287 . S
C5017 C5016 1.287 . S
C5017 C5018 1.524 . S
C5017 H5020 0.999 . S
C5018 H4988 0.950 . S
C5018 C5017 1.524 . S
C5018 C5019 1.415 . S
C5019 H4989 0.950 . S
C5019 C5014 1.363 . S
C5019 C5018 1.415 . S
H5020 C5017 0.999 . S
H5021 C5002 0.913 . S
H5022 C5040 0.951 . S
H5023 C5042 0.951 . S
H5024 C5044 0.950 . S
H5025 C5045 0.950 . S
H5026 C5047 0.950 . S
H5027 C5050 0.950 . S
H5028 C5051 0.950 . S
H5029 C5053 0.950 . S
H5030 C5054 0.950 . S
H5031 C5055 0.951 . S
H5032 C5057 0.951 . S
H5033 C5059 0.950 . S
H5034 C5060 0.950 . S
H5035 C5062 0.950 . S
H5036 C5065 0.950 . S
H5037 C5066 0.950 . S
H5038 C5068 0.950 . S
H5039 C5069 0.950 . S
C5040 H5022 0.951 . S
C5040 C5041 1.366 . S
C5040 C5042 1.388 . S
C5041 C5040 1.366 . S
C5041 C5045 1.385 . S
C5042 H5023 0.951 . S
C5042 C5040 1.388 . S
C5042 C5043 1.366 . S
C5043 C5042 1.366 . S
C5043 C5044 1.414 . S
C5043 C5046 1.499 . S
C5044 H5024 0.950 . S
C5044 C5043 1.414 . S
C5044 C5045 1.374 . S
C5045 H5025 0.950 . S
C5045 C5041 1.385 . S
C5045 C5044 1.374 . S
C5046 C5043 1.499 . S
C5046 C5047 1.373 . S
C5046 C5048 1.389 . S
C5047 H5026 0.950 . S
C5047 C5046 1.373 . S
C5047 C5063 1.377 . S
C5048 C5046 1.389 . S
C5048 C5049 1.524 . S
C5048 C5062 1.377 . S
C5049 C5048 1.524 . S
C5049 C5050 1.397 . S
C5049 C5054 1.363 . S
C5050 H5027 0.950 . S
C5050 C5049 1.397 . S
C5050 C5051 1.334 . S
C5051 H5028 0.950 . S
C5051 C5050 1.334 . S
C5051 C5052 1.287 . S
C5052 C5051 1.287 . S
C5052 C5053 1.524 . S
C5052 H5071 0.913 . S
C5053 H5029 0.950 . S
C5053 C5052 1.524 . S
C5053 C5054 1.415 . S
C5054 H5030 0.950 . S
C5054 C5049 1.363 . S
C5054 C5053 1.415 . S
C5055 H5031 0.951 . S
C5055 C5056 1.366 . S
C5055 C5057 1.388 . S
C5056 C5055 1.366 . S
C5056 C5060 1.385 . S
C5057 H5032 0.951 . S
C5057 C5055 1.388 . S
C5057 C5058 1.366 . S
C5058 C5057 1.366 . S
C5058 C5059 1.414 . S
C5058 C5061 1.499 . S
C5059 H5033 0.950 . S
C5059 C5058 1.414 . S
C5059 C5060 1.374 . S
C5060 H5034 0.950 . S
C5060 C5056 1.385 . S
C5060 C5059 1.374 . S
C5061 C5058 1.499 . S
C5061 C5062 1.373 . S
C5061 C5063 1.389 . S
C5062 H5035 0.950 . S
C5062 C5048 1.377 . S
C5062 C5061 1.373 . S
C5063 C5047 1.377 . S
C5063 C5061 1.389 . S
C5063 C5064 1.524 . S
C5064 C5063 1.524 . S
C5064 C5065 1.397 . S
C5064 C5069 1.363 . S
C5065 H5036 0.950 . S
C5065 C5064 1.397 . S
C5065 C5066 1.334 . S
C5066 H5037 0.950 . S
C5066 C5065 1.334 . S
C5066 C5067 1.287 . S
C5067 C5066 1.287 . S
C5067 C5068 1.524 . S
C5067 H5070 0.999 . S
C5068 H5038 0.950 . S
C5068 C5067 1.524 . S
C5068 C5069 1.415 . S
C5069 H5039 0.950 . S
C5069 C5064 1.363 . S
C5069 C5068 1.415 . S
H5070 C5067 0.999 . S
H5071 C5052 0.913 . S
H5072 C5090 0.951 . S
H5073 C5092 0.951 . S
H5074 C5094 0.950 . S
H5075 C5095 0.950 . S
H5076 C5097 0.950 . S
H5077 C5100 0.950 . S
H5078 C5101 0.950 . S
H5079 C5103 0.950 . S
H5080 C5104 0.950 . S
H5081 C5105 0.951 . S
H5082 C5107 0.951 . S
H5083 C5109 0.950 . S
H5084 C5110 0.950 . S
H5085 C5112 0.950 . S
H5086 C5115 0.950 . S
H5087 C5116 0.950 . S
H5088 C5118 0.950 . S
H5089 C5119 0.950 . S
C5090 H5072 0.951 . S
C5090 C5091 1.366 . S
C5090 C5092 1.388 . S
C5091 C5090 1.366 . S
C5091 C5095 1.385 . S
C5092 H5073 0.951 . S
C5092 C5090 1.388 . S
C5092 C5093 1.366 . S
C5093 C5092 1.366 . S
C5093 C5094 1.414 . S
C5093 C5096 1.499 . S
C5094 H5074 0.950 . S
C5094 C5093 1.414 . S
C5094 C5095 1.374 . S
C5095 H5075 0.950 . S
C5095 C5091 1.385 . S
C5095 C5094 1.374 . S
C5096 C5093 1.499 . S
C5096 C5097 1.373 . S
C5096 C5098 1.389 . S
C5097 H5076 0.950 . S
C5097 C5096 1.373 . S
C5097 C5113 1.377 . S
C5098 C5096 1.389 . S
C5098 C5099 1.524 . S
C5098 C5112 1.377 . S
C5099 C5098 1.524 . S
C5099 C5100 1.397 . S
C5099 C5104 1.363 . S
C5100 H5077 0.950 . S
C5100 C5099 1.397 . S
C5100 C5101 1.334 . S
C5101 H5078 0.950 . S
C5101 C5100 1.334 . S
C5101 C5102 1.287 . S
C5102 C5101 1.287 . S
C5102 C5103 1.524 . S
C5102 H5121 0.913 . S
C5103 H5079 0.950 . S
C5103 C5102 1.524 . S
C5103 C5104 1.415 . S
C5104 H5080 0.950 . S
C5104 C5099 1.363 . S
C5104 C5103 1.415 . S
C5105 H5081 0.951 . S
C5105 C5106 1.366 . S
C5105 C5107 1.388 . S
C5106 C5105 1.366 . S
C5106 C5110 1.385 . S
C5107 H5082 0.951 . S
C5107 C5105 1.388 . S
C5107 C5108 1.366 . S
C5108 C5107 1.366 . S
C5108 C5109 1.414 . S
C5108 C5111 1.499 . S
C5109 H5083 0.950 . S
C5109 C5108 1.414 . S
C5109 C5110 1.374 . S
C5110 H5084 0.950 . S
C5110 C5106 1.385 . S
C5110 C5109 1.374 . S
C5111 C5108 1.499 . S
C5111 C5112 1.373 . S
C5111 C5113 1.389 . S
C5112 H5085 0.950 . S
C5112 C5098 1.377 . S
C5112 C5111 1.373 . S
C5113 C5097 1.377 . S
C5113 C5111 1.389 . S
C5113 C5114 1.524 . S
C5114 C5113 1.524 . S
C5114 C5115 1.397 . S
C5114 C5119 1.363 . S
C5115 H5086 0.950 . S
C5115 C5114 1.397 . S
C5115 C5116 1.334 . S
C5116 H5087 0.950 . S
C5116 C5115 1.334 . S
C5116 C5117 1.287 . S
C5117 C5116 1.287 . S
C5117 C5118 1.524 . S
C5117 H5120 0.999 . S
C5118 H5088 0.950 . S
C5118 C5117 1.524 . S
C5118 C5119 1.415 . S
C5119 H5089 0.950 . S
C5119 C5114 1.363 . S
C5119 C5118 1.415 . S
H5120 C5117 0.999 . S
H5121 C5102 0.913 . S
H5122 C5140 0.951 . S
H5123 C5142 0.951 . S
H5124 C5144 0.950 . S
H5125 C5145 0.950 . S
H5126 C5147 0.950 . S
H5127 C5150 0.950 . S
H5128 C5151 0.950 . S
H5129 C5153 0.950 . S
H5130 C5154 0.950 . S
H5131 C5155 0.951 . S
H5132 C5157 0.951 . S
H5133 C5159 0.950 . S
H5134 C5160 0.950 . S
H5135 C5162 0.950 . S
H5136 C5165 0.950 . S
H5137 C5166 0.950 . S
H5138 C5168 0.950 . S
H5139 C5169 0.950 . S
C5140 H5122 0.951 . S
C5140 C5141 1.366 . S
C5140 C5142 1.388 . S
C5141 C5140 1.366 . S
C5141 C5145 1.385 . S
C5142 H5123 0.951 . S
C5142 C5140 1.388 . S
C5142 C5143 1.366 . S
C5143 C5142 1.366 . S
C5143 C5144 1.414 . S
C5143 C5146 1.499 . S
C5144 H5124 0.950 . S
C5144 C5143 1.414 . S
C5144 C5145 1.374 . S
C5145 H5125 0.950 . S
C5145 C5141 1.385 . S
C5145 C5144 1.374 . S
C5146 C5143 1.499 . S
C5146 C5147 1.373 . S
C5146 C5148 1.389 . S
C5147 H5126 0.950 . S
C5147 C5146 1.373 . S
C5147 C5163 1.377 . S
C5148 C5146 1.389 . S
C5148 C5149 1.524 . S
C5148 C5162 1.377 . S
C5149 C5148 1.524 . S
C5149 C5150 1.397 . S
C5149 C5154 1.363 . S
C5150 H5127 0.950 . S
C5150 C5149 1.397 . S
C5150 C5151 1.334 . S
C5151 H5128 0.950 . S
C5151 C5150 1.334 . S
C5151 C5152 1.287 . S
C5152 C5151 1.287 . S
C5152 C5153 1.524 . S
C5152 H5171 0.913 . S
C5153 H5129 0.950 . S
C5153 C5152 1.524 . S
C5153 C5154 1.415 . S
C5154 H5130 0.950 . S
C5154 C5149 1.363 . S
C5154 C5153 1.415 . S
C5155 H5131 0.951 . S
C5155 C5156 1.366 . S
C5155 C5157 1.388 . S
C5156 C5155 1.366 . S
C5156 C5160 1.385 . S
C5157 H5132 0.951 . S
C5157 C5155 1.388 . S
C5157 C5158 1.366 . S
C5158 C5157 1.366 . S
C5158 C5159 1.414 . S
C5158 C5161 1.499 . S
C5159 H5133 0.950 . S
C5159 C5158 1.414 . S
C5159 C5160 1.374 . S
C5160 H5134 0.950 . S
C5160 C5156 1.385 . S
C5160 C5159 1.374 . S
C5161 C5158 1.499 . S
C5161 C5162 1.373 . S
C5161 C5163 1.389 . S
C5162 H5135 0.950 . S
C5162 C5148 1.377 . S
C5162 C5161 1.373 . S
C5163 C5147 1.377 . S
C5163 C5161 1.389 . S
C5163 C5164 1.524 . S
C5164 C5163 1.524 . S
C5164 C5165 1.397 . S
C5164 C5169 1.363 . S
C5165 H5136 0.950 . S
C5165 C5164 1.397 . S
C5165 C5166 1.334 . S
C5166 H5137 0.950 . S
C5166 C5165 1.334 . S
C5166 C5167 1.287 . S
C5167 C5166 1.287 . S
C5167 C5168 1.524 . S
C5167 H5170 0.999 . S
C5168 H5138 0.950 . S
C5168 C5167 1.524 . S
C5168 C5169 1.415 . S
C5169 H5139 0.950 . S
C5169 C5164 1.363 . S
C5169 C5168 1.415 . S
H5170 C5167 0.999 . S
H5171 C5152 0.913 . S
H5172 C5190 0.951 . S
H5173 C5192 0.951 . S
H5174 C5194 0.950 . S
H5175 C5195 0.950 . S
H5176 C5197 0.950 . S
H5177 C5200 0.950 . S
H5178 C5201 0.950 . S
H5179 C5203 0.950 . S
H5180 C5204 0.950 . S
H5181 C5205 0.951 . S
H5182 C5207 0.951 . S
H5183 C5209 0.950 . S
H5184 C5210 0.950 . S
H5185 C5212 0.950 . S
H5186 C5215 0.950 . S
H5187 C5216 0.950 . S
H5188 C5218 0.950 . S
H5189 C5219 0.950 . S
C5190 H5172 0.951 . S
C5190 C5191 1.366 . S
C5190 C5192 1.388 . S
C5191 C5190 1.366 . S
C5191 C5195 1.385 . S
C5192 H5173 0.951 . S
C5192 C5190 1.388 . S
C5192 C5193 1.366 . S
C5193 C5192 1.366 . S
C5193 C5194 1.414 . S
C5193 C5196 1.499 . S
C5194 H5174 0.950 . S
C5194 C5193 1.414 . S
C5194 C5195 1.374 . S
C5195 H5175 0.950 . S
C5195 C5191 1.385 . S
C5195 C5194 1.374 . S
C5196 C5193 1.499 . S
C5196 C5197 1.373 . S
C5196 C5198 1.389 . S
C5197 H5176 0.950 . S
C5197 C5196 1.373 . S
C5197 C5213 1.377 . S
C5198 C5196 1.389 . S
C5198 C5199 1.524 . S
C5198 C5212 1.377 . S
C5199 C5198 1.524 . S
C5199 C5200 1.397 . S
C5199 C5204 1.363 . S
C5200 H5177 0.950 . S
C5200 C5199 1.397 . S
C5200 C5201 1.334 . S
C5201 H5178 0.950 . S
C5201 C5200 1.334 . S
C5201 C5202 1.287 . S
C5202 C5201 1.287 . S
C5202 C5203 1.524 . S
C5202 H5221 0.913 . S
C5203 H5179 0.950 . S
C5203 C5202 1.524 . S
C5203 C5204 1.415 . S
C5204 H5180 0.950 . S
C5204 C5199 1.363 . S
C5204 C5203 1.415 . S
C5205 H5181 0.951 . S
C5205 C5206 1.366 . S
C5205 C5207 1.388 . S
C5206 C5205 1.366 . S
C5206 C5210 1.385 . S
C5207 H5182 0.951 . S
C5207 C5205 1.388 . S
C5207 C5208 1.366 . S
C5208 C5207 1.366 . S
C5208 C5209 1.414 . S
C5208 C5211 1.499 . S
C5209 H5183 0.950 . S
C5209 C5208 1.414 . S
C5209 C5210 1.374 . S
C5210 H5184 0.950 . S
C5210 C5206 1.385 . S
C5210 C5209 1.374 . S
C5211 C5208 1.499 . S
C5211 C5212 1.373 . S
C5211 C5213 1.389 . S
C5212 H5185 0.950 . S
C5212 C5198 1.377 . S
C5212 C5211 1.373 . S
C5213 C5197 1.377 . S
C5213 C5211 1.389 . S
C5213 C5214 1.524 . S
C5214 C5213 1.524 . S
C5214 C5215 1.397 . S
C5214 C5219 1.363 . S
C5215 H5186 0.950 . S
C5215 C5214 1.397 . S
C5215 C5216 1.334 . S
C5216 H5187 0.950 . S
C5216 C5215 1.334 . S
C5216 C5217 1.287 . S
C5217 C5216 1.287 . S
C5217 C5218 1.524 . S
C5217 H5220 0.999 . S
C5218 H5188 0.950 . S
C5218 C5217 1.524 . S
C5218 C5219 1.415 . S
C5219 H5189 0.950 . S
C5219 C5214 1.363 . S
C5219 C5218 1.415 . S
H5220 C5217 0.999 . S
H5221 C5202 0.913 . S
H5222 C5240 0.951 . S
H5223 C5242 0.951 . S
H5224 C5244 0.950 . S
H5225 C5245 0.950 . S
H5226 C5247 0.950 . S
H5227 C5250 0.950 . S
H5228 C5251 0.950 . S
H5229 C5253 0.950 . S
H5230 C5254 0.950 . S
H5231 C5255 0.951 . S
H5232 C5257 0.951 . S
H5233 C5259 0.950 . S
H5234 C5260 0.950 . S
H5235 C5262 0.950 . S
H5236 C5265 0.950 . S
H5237 C5266 0.950 . S
H5238 C5268 0.950 . S
H5239 C5269 0.950 . S
C5240 H5222 0.951 . S
C5240 C5241 1.366 . S
C5240 C5242 1.388 . S
C5241 C5240 1.366 . S
C5241 C5245 1.385 . S
C5242 H5223 0.951 . S
C5242 C5240 1.388 . S
C5242 C5243 1.366 . S
C5243 C5242 1.366 . S
C5243 C5244 1.414 . S
C5243 C5246 1.499 . S
C5244 H5224 0.950 . S
C5244 C5243 1.414 . S
C5244 C5245 1.374 . S
C5245 H5225 0.950 . S
C5245 C5241 1.385 . S
C5245 C5244 1.374 . S
C5246 C5243 1.499 . S
C5246 C5247 1.373 . S
C5246 C5248 1.389 . S
C5247 H5226 0.950 . S
C5247 C5246 1.373 . S
C5247 C5263 1.377 . S
C5248 C5246 1.389 . S
C5248 C5249 1.524 . S
C5248 C5262 1.377 . S
C5249 C5248 1.524 . S
C5249 C5250 1.397 . S
C5249 C5254 1.363 . S
C5250 H5227 0.950 . S
C5250 C5249 1.397 . S
C5250 C5251 1.334 . S
C5251 H5228 0.950 . S
C5251 C5250 1.334 . S
C5251 C5252 1.287 . S
C5252 C5251 1.287 . S
C5252 C5253 1.524 . S
C5252 H5271 0.913 . S
C5253 H5229 0.950 . S
C5253 C5252 1.524 . S
C5253 C5254 1.415 . S
C5254 H5230 0.950 . S
C5254 C5249 1.363 . S
C5254 C5253 1.415 . S
C5255 H5231 0.951 . S
C5255 C5256 1.366 . S
C5255 C5257 1.388 . S
C5256 C5255 1.366 . S
C5256 C5260 1.385 . S
C5257 H5232 0.951 . S
C5257 C5255 1.388 . S
C5257 C5258 1.366 . S
C5258 C5257 1.366 . S
C5258 C5259 1.414 . S
C5258 C5261 1.499 . S
C5259 H5233 0.950 . S
C5259 C5258 1.414 . S
C5259 C5260 1.374 . S
C5260 H5234 0.950 . S
C5260 C5256 1.385 . S
C5260 C5259 1.374 . S
C5261 C5258 1.499 . S
C5261 C5262 1.373 . S
C5261 C5263 1.389 . S
C5262 H5235 0.950 . S
C5262 C5248 1.377 . S
C5262 C5261 1.373 . S
C5263 C5247 1.377 . S
C5263 C5261 1.389 . S
C5263 C5264 1.524 . S
C5264 C5263 1.524 . S
C5264 C5265 1.397 . S
C5264 C5269 1.363 . S
C5265 H5236 0.950 . S
C5265 C5264 1.397 . S
C5265 C5266 1.334 . S
C5266 H5237 0.950 . S
C5266 C5265 1.334 . S
C5266 C5267 1.287 . S
C5267 C5266 1.287 . S
C5267 C5268 1.524 . S
C5267 H5270 0.999 . S
C5268 H5238 0.950 . S
C5268 C5267 1.524 . S
C5268 C5269 1.415 . S
C5269 H5239 0.950 . S
C5269 C5264 1.363 . S
C5269 C5268 1.415 . S
H5270 C5267 0.999 . S
H5271 C5252 0.913 . S
H5272 C5290 0.951 . S
H5273 C5292 0.951 . S
H5274 C5294 0.950 . S
H5275 C5295 0.950 . S
H5276 C5297 0.950 . S
H5277 C5300 0.950 . S
H5278 C5301 0.950 . S
H5279 C5303 0.950 . S
H5280 C5304 0.950 . S
H5281 C5305 0.951 . S
H5282 C5307 0.951 . S
H5283 C5309 0.950 . S
H5284 C5310 0.950 . S
H5285 C5312 0.950 . S
H5286 C5315 0.950 . S
H5287 C5316 0.950 . S
H5288 C5318 0.950 . S
H5289 C5319 0.950 . S
C5290 H5272 0.951 . S
C5290 C5291 1.366 . S
C5290 C5292 1.388 . S
C5291 C5290 1.366 . S
C5291 C5295 1.385 . S
C5292 H5273 0.951 . S
C5292 C5290 1.388 . S
C5292 C5293 1.366 . S
C5293 C5292 1.366 . S
C5293 C5294 1.414 . S
C5293 C5296 1.499 . S
C5294 H5274 0.950 . S
C5294 C5293 1.414 . S
C5294 C5295 1.374 . S
C5295 H5275 0.950 . S
C5295 C5291 1.385 . S
C5295 C5294 1.374 . S
C5296 C5293 1.499 . S
C5296 C5297 1.373 . S
C5296 C5298 1.389 . S
C5297 H5276 0.950 . S
C5297 C5296 1.373 . S
C5297 C5313 1.377 . S
C5298 C5296 1.389 . S
C5298 C5299 1.524 . S
C5298 C5312 1.377 . S
C5299 C5298 1.524 . S
C5299 C5300 1.397 . S
C5299 C5304 1.363 . S
C5300 H5277 0.950 . S
C5300 C5299 1.397 . S
C5300 C5301 1.334 . S
C5301 H5278 0.950 . S
C5301 C5300 1.334 . S
C5301 C5302 1.287 . S
C5302 C5301 1.287 . S
C5302 C5303 1.524 . S
C5302 H5321 0.913 . S
C5303 H5279 0.950 . S
C5303 C5302 1.524 . S
C5303 C5304 1.415 . S
C5304 H5280 0.950 . S
C5304 C5299 1.363 . S
C5304 C5303 1.415 . S
C5305 H5281 0.951 . S
C5305 C5306 1.366 . S
C5305 C5307 1.388 . S
C5306 C5305 1.366 . S
C5306 C5310 1.385 . S
C5307 H5282 0.951 . S
C5307 C5305 1.388 . S
C5307 C5308 1.366 . S
C5308 C5307 1.366 . S
C5308 C5309 1.414 . S
C5308 C5311 1.499 . S
C5309 H5283 0.950 . S
C5309 C5308 1.414 . S
C5309 C5310 1.374 . S
C5310 H5284 0.950 . S
C5310 C5306 1.385 . S
C5310 C5309 1.374 . S
C5311 C5308 1.499 . S
C5311 C5312 1.373 . S
C5311 C5313 1.389 . S
C5312 H5285 0.950 . S
C5312 C5298 1.377 . S
C5312 C5311 1.373 . S
C5313 C5297 1.377 . S
C5313 C5311 1.389 . S
C5313 C5314 1.524 . S
C5314 C5313 1.524 . S
C5314 C5315 1.397 . S
C5314 C5319 1.363 . S
C5315 H5286 0.950 . S
C5315 C5314 1.397 . S
C5315 C5316 1.334 . S
C5316 H5287 0.950 . S
C5316 C5315 1.334 . S
C5316 C5317 1.287 . S
C5317 C5316 1.287 . S
C5317 C5318 1.524 . S
C5317 H5320 0.999 1_655 S
C5318 H5288 0.950 . S
C5318 C5317 1.524 . S
C5318 C5319 1.415 . S
C5319 H5289 0.950 . S
C5319 C5314 1.363 . S
C5319 C5318 1.415 . S
H5320 C5317 0.999 1_455 S
H5321 C5302 0.913 . S
H5322 C5340 0.951 . S
H5323 C5342 0.951 . S
H5324 C5344 0.950 . S
H5325 C5345 0.950 . S
H5326 C5347 0.950 . S
H5327 C5350 0.950 . S
H5328 C5351 0.950 . S
H5329 C5353 0.950 . S
H5330 C5354 0.950 . S
H5331 C5355 0.951 . S
H5332 C5357 0.951 . S
H5333 C5359 0.950 . S
H5334 C5360 0.950 . S
H5335 C5362 0.950 . S
H5336 C5365 0.950 . S
H5337 C5366 0.950 . S
H5338 C5368 0.950 . S
H5339 C5369 0.950 . S
C5340 H5322 0.951 . S
C5340 C5341 1.366 . S
C5340 C5342 1.388 . S
C5341 C5340 1.366 . S
C5341 C5345 1.385 . S
C5342 H5323 0.951 . S
C5342 C5340 1.388 . S
C5342 C5343 1.366 . S
C5343 C5342 1.366 . S
C5343 C5344 1.414 . S
C5343 C5346 1.499 . S
C5344 H5324 0.950 . S
C5344 C5343 1.414 . S
C5344 C5345 1.374 . S
C5345 H5325 0.950 . S
C5345 C5341 1.385 . S
C5345 C5344 1.374 . S
C5346 C5343 1.499 . S
C5346 C5347 1.373 . S
C5346 C5348 1.389 . S
C5347 H5326 0.950 . S
C5347 C5346 1.373 . S
C5347 C5363 1.377 . S
C5348 C5346 1.389 . S
C5348 C5349 1.524 . S
C5348 C5362 1.377 . S
C5349 C5348 1.524 . S
C5349 C5350 1.397 . S
C5349 C5354 1.363 . S
C5350 H5327 0.950 . S
C5350 C5349 1.397 . S
C5350 C5351 1.334 . S
C5351 H5328 0.950 . S
C5351 C5350 1.334 . S
C5351 C5352 1.287 . S
C5352 C5351 1.287 . S
C5352 C5353 1.524 . S
C5352 H5371 0.913 . S
C5353 H5329 0.950 . S
C5353 C5352 1.524 . S
C5353 C5354 1.415 . S
C5354 H5330 0.950 . S
C5354 C5349 1.363 . S
C5354 C5353 1.415 . S
C5355 H5331 0.951 . S
C5355 C5356 1.366 . S
C5355 C5357 1.388 . S
C5356 C5355 1.366 . S
C5356 C5360 1.385 . S
C5357 H5332 0.951 . S
C5357 C5355 1.388 . S
C5357 C5358 1.366 . S
C5358 C5357 1.366 . S
C5358 C5359 1.414 . S
C5358 C5361 1.499 . S
C5359 H5333 0.950 . S
C5359 C5358 1.414 . S
C5359 C5360 1.374 . S
C5360 H5334 0.950 . S
C5360 C5356 1.385 . S
C5360 C5359 1.374 . S
C5361 C5358 1.499 . S
C5361 C5362 1.373 . S
C5361 C5363 1.389 . S
C5362 H5335 0.950 . S
C5362 C5348 1.377 . S
C5362 C5361 1.373 . S
C5363 C5347 1.377 . S
C5363 C5361 1.389 . S
C5363 C5364 1.524 . S
C5364 C5363 1.524 . S
C5364 C5365 1.397 . S
C5364 C5369 1.363 . S
C5365 H5336 0.950 . S
C5365 C5364 1.397 . S
C5365 C5366 1.334 . S
C5366 H5337 0.950 . S
C5366 C5365 1.334 . S
C5366 C5367 1.287 . S
C5367 C5366 1.287 . S
C5367 C5368 1.524 . S
C5367 H5370 0.999 . S
C5368 H5338 0.950 . S
C5368 C5367 1.524 . S
C5368 C5369 1.415 . S
C5369 H5339 0.950 . S
C5369 C5364 1.363 . S
C5369 C5368 1.415 . S
H5370 C5367 0.999 . S
H5371 C5352 0.913 . S
H5372 C5390 0.951 . S
H5373 C5392 0.951 . S
H5374 C5394 0.950 . S
H5375 C5395 0.950 . S
H5376 C5397 0.950 . S
H5377 C5400 0.950 . S
H5378 C5401 0.950 . S
H5379 C5403 0.950 . S
H5380 C5404 0.950 . S
H5381 C5405 0.951 . S
H5382 C5407 0.951 . S
H5383 C5409 0.950 . S
H5384 C5410 0.950 . S
H5385 C5412 0.950 . S
H5386 C5415 0.950 . S
H5387 C5416 0.950 . S
H5388 C5418 0.950 . S
H5389 C5419 0.950 . S
C5390 H5372 0.951 . S
C5390 C5391 1.366 . S
C5390 C5392 1.388 . S
C5391 C5390 1.366 . S
C5391 C5395 1.385 . S
C5392 H5373 0.951 . S
C5392 C5390 1.388 . S
C5392 C5393 1.366 . S
C5393 C5392 1.366 . S
C5393 C5394 1.414 . S
C5393 C5396 1.499 . S
C5394 H5374 0.950 . S
C5394 C5393 1.414 . S
C5394 C5395 1.374 . S
C5395 H5375 0.950 . S
C5395 C5391 1.385 . S
C5395 C5394 1.374 . S
C5396 C5393 1.499 . S
C5396 C5397 1.373 . S
C5396 C5398 1.389 . S
C5397 H5376 0.950 . S
C5397 C5396 1.373 . S
C5397 C5413 1.377 . S
C5398 C5396 1.389 . S
C5398 C5399 1.524 . S
C5398 C5412 1.377 . S
C5399 C5398 1.524 . S
C5399 C5400 1.397 . S
C5399 C5404 1.363 . S
C5400 H5377 0.950 . S
C5400 C5399 1.397 . S
C5400 C5401 1.334 . S
C5401 H5378 0.950 . S
C5401 C5400 1.334 . S
C5401 C5402 1.287 . S
C5402 C5401 1.287 . S
C5402 C5403 1.524 . S
C5402 H5421 0.913 . S
C5403 H5379 0.950 . S
C5403 C5402 1.524 . S
C5403 C5404 1.415 . S
C5404 H5380 0.950 . S
C5404 C5399 1.363 . S
C5404 C5403 1.415 . S
C5405 H5381 0.951 . S
C5405 C5406 1.366 . S
C5405 C5407 1.388 . S
C5406 C5405 1.366 . S
C5406 C5410 1.385 . S
C5407 H5382 0.951 . S
C5407 C5405 1.388 . S
C5407 C5408 1.366 . S
C5408 C5407 1.366 . S
C5408 C5409 1.414 . S
C5408 C5411 1.499 . S
C5409 H5383 0.950 . S
C5409 C5408 1.414 . S
C5409 C5410 1.374 . S
C5410 H5384 0.950 . S
C5410 C5406 1.385 . S
C5410 C5409 1.374 . S
C5411 C5408 1.499 . S
C5411 C5412 1.373 . S
C5411 C5413 1.389 . S
C5412 H5385 0.950 . S
C5412 C5398 1.377 . S
C5412 C5411 1.373 . S
C5413 C5397 1.377 . S
C5413 C5411 1.389 . S
C5413 C5414 1.524 . S
C5414 C5413 1.524 . S
C5414 C5415 1.397 . S
C5414 C5419 1.363 . S
C5415 H5386 0.950 . S
C5415 C5414 1.397 . S
C5415 C5416 1.334 . S
C5416 H5387 0.950 . S
C5416 C5415 1.334 . S
C5416 C5417 1.287 . S
C5417 C5416 1.287 . S
C5417 C5418 1.524 . S
C5417 H5420 0.999 . S
C5418 H5388 0.950 . S
C5418 C5417 1.524 . S
C5418 C5419 1.415 . S
C5419 H5389 0.950 . S
C5419 C5414 1.363 . S
C5419 C5418 1.415 . S
H5420 C5417 0.999 . S
H5421 C5402 0.913 . S
H5422 C5440 0.951 . S
H5423 C5442 0.951 . S
H5424 C5444 0.950 . S
H5425 C5445 0.950 . S
H5426 C5447 0.950 . S
H5427 C5450 0.950 . S
H5428 C5451 0.950 . S
H5429 C5453 0.950 . S
H5430 C5454 0.950 . S
H5431 C5455 0.951 . S
H5432 C5457 0.951 . S
H5433 C5459 0.950 . S
H5434 C5460 0.950 . S
H5435 C5462 0.950 . S
H5436 C5465 0.950 . S
H5437 C5466 0.950 . S
H5438 C5468 0.950 . S
H5439 C5469 0.950 . S
C5440 H5422 0.951 . S
C5440 C5441 1.366 . S
C5440 C5442 1.388 . S
C5441 C5440 1.366 . S
C5441 C5445 1.385 . S
C5442 H5423 0.951 . S
C5442 C5440 1.388 . S
C5442 C5443 1.366 . S
C5443 C5442 1.366 . S
C5443 C5444 1.414 . S
C5443 C5446 1.499 . S
C5444 H5424 0.950 . S
C5444 C5443 1.414 . S
C5444 C5445 1.374 . S
C5445 H5425 0.950 . S
C5445 C5441 1.385 . S
C5445 C5444 1.374 . S
C5446 C5443 1.499 . S
C5446 C5447 1.373 . S
C5446 C5448 1.389 . S
C5447 H5426 0.950 . S
C5447 C5446 1.373 . S
C5447 C5463 1.377 . S
C5448 C5446 1.389 . S
C5448 C5449 1.524 . S
C5448 C5462 1.377 . S
C5449 C5448 1.524 . S
C5449 C5450 1.397 . S
C5449 C5454 1.363 . S
C5450 H5427 0.950 . S
C5450 C5449 1.397 . S
C5450 C5451 1.334 . S
C5451 H5428 0.950 . S
C5451 C5450 1.334 . S
C5451 C5452 1.287 . S
C5452 C5451 1.287 . S
C5452 C5453 1.524 . S
C5452 H5471 0.913 . S
C5453 H5429 0.950 . S
C5453 C5452 1.524 . S
C5453 C5454 1.415 . S
C5454 H5430 0.950 . S
C5454 C5449 1.363 . S
C5454 C5453 1.415 . S
C5455 H5431 0.951 . S
C5455 C5456 1.366 . S
C5455 C5457 1.388 . S
C5456 C5455 1.366 . S
C5456 C5460 1.385 . S
C5457 H5432 0.951 . S
C5457 C5455 1.388 . S
C5457 C5458 1.366 . S
C5458 C5457 1.366 . S
C5458 C5459 1.414 . S
C5458 C5461 1.499 . S
C5459 H5433 0.950 . S
C5459 C5458 1.414 . S
C5459 C5460 1.374 . S
C5460 H5434 0.950 . S
C5460 C5456 1.385 . S
C5460 C5459 1.374 . S
C5461 C5458 1.499 . S
C5461 C5462 1.373 . S
C5461 C5463 1.389 . S
C5462 H5435 0.950 . S
C5462 C5448 1.377 . S
C5462 C5461 1.373 . S
C5463 C5447 1.377 . S
C5463 C5461 1.389 . S
C5463 C5464 1.524 . S
C5464 C5463 1.524 . S
C5464 C5465 1.397 . S
C5464 C5469 1.363 . S
C5465 H5436 0.950 . S
C5465 C5464 1.397 . S
C5465 C5466 1.334 . S
C5466 H5437 0.950 . S
C5466 C5465 1.334 . S
C5466 C5467 1.287 . S
C5467 C5466 1.287 . S
C5467 C5468 1.524 . S
C5467 H5470 0.999 . S
C5468 H5438 0.950 . S
C5468 C5467 1.524 . S
C5468 C5469 1.415 . S
C5469 H5439 0.950 . S
C5469 C5464 1.363 . S
C5469 C5468 1.415 . S
H5470 C5467 0.999 . S
H5471 C5452 0.913 . S
C691 C93 0.975 . S
C706 C9 0.975 . S
C741 C23 0.974 . S
C756 C107 0.974 . S
C791 C37 0.975 . S
C806 C65 0.975 . S
C841 C79 0.974 . S
C856 C51 0.974 . S
C891 C485 0.974 . S
C906 C121 0.974 . S
C941 C499 0.974 . S
C956 C135 0.974 . S
C991 C149 0.974 . S
C1006 C457 0.974 . S
C1041 C163 0.974 . S
C1056 C471 0.974 . S
C1091 C541 0.974 . S
C1106 C177 0.974 . S
C1141 C555 0.974 . S
C1156 C191 0.974 . S
C1191 C513 0.975 . S
C1206 C205 0.975 . S
C1241 C527 0.974 . S
C1256 C219 0.974 . S
C1291 C233 0.974 . S
C1306 C583 0.974 . S
C1341 C247 0.974 . S
C1356 C569 0.974 . S
C1391 C261 0.975 . S
C1406 C331 0.974 . S
C1441 C639 0.975 . S
C1456 C275 0.975 . S
C1491 C653 0.975 . S
C1506 C289 0.974 . S
C1541 C611 0.975 . S
C1556 C303 0.974 . S
C1591 C625 0.975 . S
C1606 C317 0.975 . S
C1641 C429 0.974 . S
C1656 C345 0.974 . S
C1691 C443 0.975 . S
C1706 C359 0.975 . S
C1741 C373 0.974 . S
C1756 C401 0.974 . S
C1791 C387 0.974 . S
C1806 C415 0.975 . S
C1841 C667 0.975 . S
C1856 C597 0.975 . S
C1891 C229 0.999 . S
C1906 C0 1.004 . S
C1941 C14 1.003 1_655 S
C1956 C663 1.000 . S
C1991 C28 1.005 . S
C2006 C299 0.999 . S
C2041 C649 1.036 . S
C2056 C42 1.005 . S
C2091 C56 1.003 . S
C2106 C579 1.001 . S
C2141 C593 1.001 . S
C2156 C70 1.003 . S
C2191 C84 1.003 . S
C2206 C607 1.000 . S
C2241 C285 1.037 . S
C2256 C98 1.004 1_655 S
C2291 C112 1.005 . S
C2306 C5 0.999 . S
C2341 C19 1.036 . S
C2356 C126 1.005 . S
C2391 C140 1.004 . S
C2406 C33 1.000 . S
C2441 C154 1.004 1_554 S
C2456 C47 1.037 . S
C2491 C168 1.004 . S
C2506 C61 0.999 . S
C2541 C75 1.037 . S
C2556 C182 1.003 . S
C2591 C196 1.003 . S
C2606 C89 1.001 . S
C2641 C210 1.005 1_556 S
C2656 C103 1.036 . S
C2691 C224 1.003 . S
C2706 C117 1.001 . S
C2741 C238 1.003 . S
C2756 C509 1.001 . S
C2791 C523 1.037 . S
C2806 C252 1.003 . S
C2841 C537 0.999 . S
C2856 C266 1.005 . S
C2891 C280 1.003 1_565 S
C2906 C215 1.037 . S
C2941 C294 1.003 . S
C2956 C145 1.001 . S
C2991 C495 1.037 . S
C3006 C308 1.004 . S
C3041 C467 0.999 . S
C3056 C322 1.005 . S
C3091 C336 1.003 . S
C3106 C565 1.000 . S
C3141 C350 1.003 . S
C3156 C327 1.037 . S
C3191 C364 1.005 . S
C3206 C635 0.999 . S
C3241 C378 1.004 1_455 S
C3256 C313 0.999 . S
C3291 C392 1.003 . S
C3306 C243 1.001 . S
C3341 C257 1.037 . S
C3356 C406 1.003 1_455 S
C3391 C271 1.000 . S
C3406 C420 1.004 . S
C3441 C621 1.000 . S
C3456 C434 1.004 . S
C3491 C341 1.000 . S
C3506 C448 1.004 . S
C3541 C355 1.000 . S
C3556 C462 1.004 1_554 S
C3591 C476 1.004 . S
C3606 C369 1.000 . S
C3641 C383 1.000 . S
C3656 C490 1.004 . S
C3691 C504 1.004 . S
C3706 C397 0.999 . S
C3741 C411 1.000 . S
C3756 C518 1.004 1_556 S
C3791 C532 1.005 . S
C3806 C425 0.999 . S
C3841 C439 0.999 . S
C3856 C546 1.005 . S
C3891 C560 1.003 . S
C3906 C453 1.000 . S
C3941 C574 1.004 . S
C3956 C173 1.000 . S
C3991 C187 1.001 . S
C4006 C588 1.003 1_545 S
C4041 C602 1.005 . S
C4056 C201 0.999 . S
C4091 C616 1.005 . S
C4106 C551 0.999 . S
C4141 C481 1.001 . S
C4156 C630 1.003 . S
C4191 C644 1.003 1_565 S
C4206 C159 1.001 . S
C4241 C131 1.037 . S
C4256 C658 1.003 1_545 S
C4291 C137 0.386 . S
C4306 C11 0.386 . S
C4341 C25 0.388 . S
C4356 C151 0.387 . S
C4391 C165 0.388 . S
C4406 C39 0.387 . S
C4441 C123 0.388 . S
C4456 C53 0.387 . S
C4491 C67 0.388 . S
C4506 C221 0.387 . S
C4541 C81 0.388 . S
C4556 C179 0.387 . S
C4591 C193 0.387 . S
C4606 C95 0.386 . S
C4641 C207 0.387 . S
C4656 C109 0.386 . S
C4691 C235 0.387 . S
C4706 C263 0.386 . S
C4741 C249 0.388 . S
C4756 C655 0.388 . S
C4791 C277 0.388 . S
C4806 C669 0.387 . S
C4841 C641 0.386 . S
C4856 C291 0.386 . S
C4891 C627 0.387 . S
C4906 C305 0.386 . S
C4941 C585 0.387 . S
C4956 C319 0.386 . S
C4991 C333 0.386 . S
C5006 C613 0.386 . S
C5041 C473 0.386 . S
C5056 C347 0.386 . S
C5091 C487 0.387 . S
C5106 C361 0.386 . S
C5141 C375 0.387 . S
C5156 C501 0.388 . S
C5191 C459 0.386 . S
C5206 C389 0.386 . S
C5241 C557 0.387 . S
C5256 C403 0.388 . S
C5291 C515 0.386 . S
C5306 C417 0.386 . S
C5341 C431 0.388 . S
C5356 C529 0.388 . S
C5391 C543 0.388 . S
C5406 C445 0.388 . S
C5441 C599 0.386 . S
C5456 C571 0.387 . S
