# Generated by pormake.
# Topology uot, (4)-cn, num edge types: 1
# Building blocks:
#     Node 0, Type 0, BuildingBlock: ESEHIV_clean_sbu_0, # of connection points: 4
#     Node 1, Type 0, BuildingBlock: ESEHIV_clean_sbu_0, # of connection points: 4
#     Node 2, Type 0, BuildingBlock: ESEHIV_clean_sbu_0, # of connection points: 4
#     Node 3, Type 0, BuildingBlock: ESEHIV_clean_sbu_0, # of connection points: 4
#     Node 4, Type 0, BuildingBlock: ESEHIV_clean_sbu_0, # of connection points: 4
#     Node 5, Type 0, BuildingBlock: ESEHIV_clean_sbu_0, # of connection points: 4
#     Node 6, Type 0, BuildingBlock: ESEHIV_clean_sbu_0, # of connection points: 4
#     Node 7, Type 0, BuildingBlock: ESEHIV_clean_sbu_0, # of connection points: 4
#     Node 8, Type 0, BuildingBlock: ESEHIV_clean_sbu_0, # of connection points: 4
#     Node 9, Type 0, BuildingBlock: ESEHIV_clean_sbu_0, # of connection points: 4
#     Node 10, Type 0, BuildingBlock: ESEHIV_clean_sbu_0, # of connection points: 4
#     Node 11, Type 0, BuildingBlock: ESEHIV_clean_sbu_0, # of connection points: 4
#     Node 12, Type 0, BuildingBlock: ESEHIV_clean_sbu_0, # of connection points: 4
#     Node 13, Type 0, BuildingBlock: ESEHIV_clean_sbu_0, # of connection points: 4
#     Node 14, Type 0, BuildingBlock: ESEHIV_clean_sbu_0, # of connection points: 4
#     Node 15, Type 0, BuildingBlock: ESEHIV_clean_sbu_0, # of connection points: 4
#     Edge 16, Type (0, 0), BuildingBlock: UVAHIK_clean_linker_0, # of connection points: 2
#     Edge 17, Type (0, 0), BuildingBlock: UVAHIK_clean_linker_0, # of connection points: 2
#     Edge 18, Type (0, 0), BuildingBlock: UVAHIK_clean_linker_0, # of connection points: 2
#     Edge 19, Type (0, 0), BuildingBlock: UVAHIK_clean_linker_0, # of connection points: 2
#     Edge 20, Type (0, 0), BuildingBlock: UVAHIK_clean_linker_0, # of connection points: 2
#     Edge 21, Type (0, 0), BuildingBlock: UVAHIK_clean_linker_0, # of connection points: 2
#     Edge 22, Type (0, 0), BuildingBlock: UVAHIK_clean_linker_0, # of connection points: 2
#     Edge 23, Type (0, 0), BuildingBlock: UVAHIK_clean_linker_0, # of connection points: 2
#     Edge 24, Type (0, 0), BuildingBlock: UVAHIK_clean_linker_0, # of connection points: 2
#     Edge 25, Type (0, 0), BuildingBlock: UVAHIK_clean_linker_0, # of connection points: 2
#     Edge 26, Type (0, 0), BuildingBlock: UVAHIK_clean_linker_0, # of connection points: 2
#     Edge 27, Type (0, 0), BuildingBlock: UVAHIK_clean_linker_0, # of connection points: 2
#     Edge 28, Type (0, 0), BuildingBlock: UVAHIK_clean_linker_0, # of connection points: 2
#     Edge 29, Type (0, 0), BuildingBlock: UVAHIK_clean_linker_0, # of connection points: 2
#     Edge 30, Type (0, 0), BuildingBlock: UVAHIK_clean_linker_0, # of connection points: 2
#     Edge 31, Type (0, 0), BuildingBlock: UVAHIK_clean_linker_0, # of connection points: 2
#     Edge 32, Type (0, 0), BuildingBlock: UVAHIK_clean_linker_0, # of connection points: 2
#     Edge 33, Type (0, 0), BuildingBlock: UVAHIK_clean_linker_0, # of connection points: 2
#     Edge 34, Type (0, 0), BuildingBlock: UVAHIK_clean_linker_0, # of connection points: 2
#     Edge 35, Type (0, 0), BuildingBlock: UVAHIK_clean_linker_0, # of connection points: 2
#     Edge 36, Type (0, 0), BuildingBlock: UVAHIK_clean_linker_0, # of connection points: 2
#     Edge 37, Type (0, 0), BuildingBlock: UVAHIK_clean_linker_0, # of connection points: 2
#     Edge 38, Type (0, 0), BuildingBlock: UVAHIK_clean_linker_0, # of connection points: 2
#     Edge 39, Type (0, 0), BuildingBlock: UVAHIK_clean_linker_0, # of connection points: 2
#     Edge 40, Type (0, 0), BuildingBlock: UVAHIK_clean_linker_0, # of connection points: 2
#     Edge 41, Type (0, 0), BuildingBlock: UVAHIK_clean_linker_0, # of connection points: 2
#     Edge 42, Type (0, 0), BuildingBlock: UVAHIK_clean_linker_0, # of connection points: 2
#     Edge 43, Type (0, 0), BuildingBlock: UVAHIK_clean_linker_0, # of connection points: 2
#     Edge 44, Type (0, 0), BuildingBlock: UVAHIK_clean_linker_0, # of connection points: 2
#     Edge 45, Type (0, 0), BuildingBlock: UVAHIK_clean_linker_0, # of connection points: 2
#     Edge 46, Type (0, 0), BuildingBlock: UVAHIK_clean_linker_0, # of connection points: 2
#     Edge 47, Type (0, 0), BuildingBlock: UVAHIK_clean_linker_0, # of connection points: 2
# Relax obj value: 0.101
# Max RMSD: 0.254
# Mean RMSD: 0.254
data_MOF--net-uot--node1-ESEHIV_clean_sbu_0--edge1-UVAHIK_clean_linker_0
_symmetry_space_group_name_H-M    P1
_symmetry_Int_Tables_number       1
_symmetry_cell_setting            triclinic
loop_
_symmetry_equiv_pos_as_xyz
'x, y, z'
_cell_length_a     60.752213
_cell_length_b     60.814579
_cell_length_c     59.989898
_cell_angle_alpha  89.926208
_cell_angle_beta   90.07439
_cell_angle_gamma 89.995985
loop_
_atom_site_label
_atom_site_type_symbol
_atom_site_fract_x
_atom_site_fract_y
_atom_site_fract_z
_atom_type_partial_charge
Cu0 Cu 0.20631 0.46318 0.35718 0.0
N1 N 0.20521 0.49142 0.3452 0.0
N2 N 0.19493 0.52027 0.32452 0.0
C3 C 0.19042 0.4993 0.3305 0.0
C4 C 0.21331 0.52565 0.33601 0.0
C5 C 0.21958 0.50784 0.34873 0.0
O6 O 0.18098 0.44749 0.34575 0.0
C7 C 0.1886 0.47224 0.39913 0.0
O8 O 0.17071 0.47532 0.38719 0.0
H9 H 0.17664 0.48977 0.32441 0.0
H10 H 0.23382 0.50676 0.35952 0.0
N11 N 0.23208 0.44984 0.34704 0.0
N12 N 0.2616 0.42824 0.34296 0.0
C13 C 0.24378 0.43295 0.35563 0.0
C14 C 0.24272 0.45583 0.32837 0.0
C15 C 0.26088 0.44262 0.32582 0.0
C16 C 0.17781 0.42692 0.34776 0.0
O17 O 0.19183 0.41506 0.35935 0.0
H18 H 0.23942 0.42446 0.37086 0.0
H19 H 0.23749 0.46887 0.31728 0.0
O20 O 0.20606 0.46585 0.3894 0.0
H21 H 0.22198 0.54116 0.33498 0.0
H22 H 0.2724 0.44329 0.31209 0.0
Cu23 Cu 0.46618 0.80507 0.6619 0.0
N24 N 0.49409 0.80679 0.67494 0.0
N25 N 0.52216 0.81537 0.69738 0.0
C26 C 0.50063 0.81863 0.69275 0.0
C27 C 0.52937 0.80099 0.68191 0.0
C28 C 0.51205 0.7958 0.66809 0.0
O29 O 0.44693 0.82721 0.67478 0.0
C30 C 0.48347 0.82104 0.621 0.0
O31 O 0.49577 0.83334 0.63397 0.0
H32 H 0.4898 0.82918 0.70225 0.0
H33 H 0.51246 0.78478 0.65395 0.0
N34 N 0.45465 0.7772 0.66794 0.0
N35 N 0.43158 0.74887 0.6726 0.0
C36 C 0.43362 0.77019 0.6664 0.0
C37 C 0.46624 0.75976 0.67521 0.0
C38 C 0.45212 0.74233 0.67809 0.0
C39 C 0.45185 0.84755 0.67522 0.0
O40 O 0.47024 0.85417 0.6659 0.0
H41 H 0.42009 0.7806 0.66124 0.0
H42 H 0.48377 0.75971 0.67828 0.0
O43 O 0.46925 0.80827 0.62973 0.0
H44 H 0.54607 0.79496 0.68045 0.0
H45 H 0.45672 0.72601 0.68361 0.0
Cu46 Cu 0.81512 0.55801 0.3602 0.0
N47 N 0.81792 0.5295 0.34899 0.0
N48 N 0.82844 0.50033 0.32904 0.0
C49 C 0.82945 0.52244 0.33118 0.0
C50 C 0.81564 0.49334 0.346 0.0
C51 C 0.8092 0.51133 0.35822 0.0
O52 O 0.83758 0.57676 0.34728 0.0
C53 C 0.80187 0.54982 0.40433 0.0
O54 O 0.78273 0.54646 0.39471 0.0
H55 H 0.83889 0.5332 0.32045 0.0
H56 H 0.79904 0.51113 0.37299 0.0
N57 N 0.7875 0.56895 0.35215 0.0
N58 N 0.75888 0.59136 0.34635 0.0
C59 C 0.77915 0.58924 0.35547 0.0
C60 C 0.77202 0.55789 0.34072 0.0
C61 C 0.75438 0.57163 0.33711 0.0
C62 C 0.85791 0.57173 0.34739 0.0
O63 O 0.86426 0.55357 0.35741 0.0
H64 H 0.78797 0.60228 0.36388 0.0
H65 H 0.77355 0.54104 0.33521 0.0
O66 O 0.81806 0.5561 0.39245 0.0
H67 H 0.81123 0.47642 0.34937 0.0
H68 H 0.73935 0.56737 0.32842 0.0
Cu69 Cu 0.55512 0.20982 0.6687 0.0
N70 N 0.52713 0.20785 0.68141 0.0
N71 N 0.49895 0.19819 0.70324 0.0
C72 C 0.52036 0.19476 0.69823 0.0
C73 C 0.49204 0.21393 0.68898 0.0
C74 C 0.50939 0.21977 0.67552 0.0
O75 O 0.57392 0.1878 0.68221 0.0
C76 C 0.5453 0.22119 0.62447 0.0
O77 O 0.54171 0.24049 0.6336 0.0
H78 H 0.53098 0.18323 0.70681 0.0
H79 H 0.50913 0.23197 0.66242 0.0
N80 N 0.56681 0.23761 0.67483 0.0
N81 N 0.59004 0.2659 0.67862 0.0
C82 C 0.58743 0.24505 0.67122 0.0
C83 C 0.55607 0.25428 0.68471 0.0
C84 C 0.57029 0.27171 0.68704 0.0
C85 C 0.57049 0.16729 0.68 0.0
O86 O 0.55425 0.1606 0.66721 0.0
H87 H 0.60034 0.2352 0.66385 0.0
H88 H 0.53909 0.25375 0.69004 0.0
O89 O 0.55211 0.20547 0.63671 0.0
H90 H 0.47551 0.22053 0.68813 0.0
H91 H 0.56632 0.28749 0.69434 0.0
Cu92 Cu 0.20274 0.55559 0.66998 0.0
N93 N 0.2024 0.52734 0.682 0.0
N94 N 0.19282 0.49772 0.70186 0.0
C95 C 0.18753 0.51857 0.69607 0.0
C96 C 0.21178 0.49337 0.69095 0.0
C97 C 0.21762 0.51165 0.67876 0.0
O98 O 0.17652 0.57082 0.68 0.0
C99 C 0.18652 0.5469 0.62734 0.0
O100 O 0.16816 0.54412 0.63856 0.0
H101 H 0.1731 0.52732 0.70179 0.0
H102 H 0.23208 0.51352 0.66844 0.0
N103 N 0.22751 0.57004 0.68117 0.0
N104 N 0.2563 0.59249 0.68606 0.0
C105 C 0.24022 0.58581 0.67194 0.0
C106 C 0.23573 0.56671 0.7017 0.0
C107 C 0.25341 0.58046 0.70477 0.0
C108 C 0.17452 0.59158 0.67846 0.0
O109 O 0.19013 0.60299 0.66869 0.0
H110 H 0.23769 0.59221 0.6553 0.0
H111 H 0.22905 0.55525 0.71372 0.0
O112 O 0.20375 0.55287 0.63777 0.0
H113 H 0.22109 0.47823 0.69203 0.0
H114 H 0.26301 0.58184 0.71991 0.0
Cu115 Cu 0.55432 0.8093 0.34619 0.0
N116 N 0.52618 0.81052 0.33359 0.0
N117 N 0.49732 0.81979 0.31241 0.0
C118 C 0.5185 0.82426 0.31771 0.0
C119 C 0.49152 0.80272 0.32553 0.0
C120 C 0.50929 0.7971 0.33856 0.0
O121 O 0.57253 0.83204 0.33315 0.0
C122 C 0.54445 0.79725 0.39022 0.0
O123 O 0.54068 0.77812 0.38081 0.0
H124 H 0.52832 0.83699 0.30996 0.0
H125 H 0.50988 0.78397 0.3507 0.0
N126 N 0.56687 0.78201 0.33958 0.0
N127 N 0.59074 0.75419 0.33634 0.0
C128 C 0.58705 0.7744 0.34499 0.0
C129 C 0.55752 0.76611 0.32723 0.0
C130 C 0.57213 0.74897 0.32523 0.0
C131 C 0.56909 0.85246 0.33612 0.0
O132 O 0.5529 0.8587 0.34916 0.0
H133 H 0.59893 0.78372 0.35455 0.0
H134 H 0.54126 0.76702 0.31994 0.0
O135 O 0.55142 0.81308 0.37825 0.0
H136 H 0.47548 0.79499 0.32589 0.0
H137 H 0.5692 0.73378 0.31632 0.0
Cu138 Cu 0.82026 0.45773 0.67159 0.0
N139 N 0.81914 0.48547 0.68458 0.0
N140 N 0.82807 0.51497 0.70486 0.0
C141 C 0.83443 0.49486 0.69775 0.0
C142 C 0.80797 0.51823 0.69574 0.0
C143 C 0.80252 0.5 0.68328 0.0
O144 O 0.84805 0.44455 0.68008 0.0
C145 C 0.83298 0.47135 0.62929 0.0
O146 O 0.85051 0.47751 0.64051 0.0
H147 H 0.84993 0.48709 0.70186 0.0
H148 H 0.78742 0.49738 0.67409 0.0
N149 N 0.7974 0.44107 0.68361 0.0
N150 N 0.76921 0.41801 0.68902 0.0
C151 C 0.78334 0.42675 0.67396 0.0
C152 C 0.7921 0.44127 0.70534 0.0
C153 C 0.7748 0.42714 0.70874 0.0
C154 C 0.85175 0.42401 0.67892 0.0
O155 O 0.83676 0.41106 0.67015 0.0
H156 H 0.7834 0.42297 0.65634 0.0
H157 H 0.80043 0.45098 0.71787 0.0
O158 O 0.81763 0.46136 0.63958 0.0
H159 H 0.79769 0.53254 0.69822 0.0
H160 H 0.76722 0.42356 0.72465 0.0
Cu161 Cu 0.46276 0.20621 0.35437 0.0
N162 N 0.49094 0.20524 0.34225 0.0
N163 N 0.5202 0.19489 0.32229 0.0
C164 C 0.49917 0.19026 0.32801 0.0
C165 C 0.52524 0.21353 0.33343 0.0
C166 C 0.50717 0.21985 0.34569 0.0
O167 O 0.44698 0.18036 0.34438 0.0
C168 C 0.47502 0.19141 0.39673 0.0
O169 O 0.48131 0.17409 0.3853 0.0
H170 H 0.48993 0.17619 0.32215 0.0
H171 H 0.50584 0.2342 0.35624 0.0
N172 N 0.44886 0.23146 0.34363 0.0
N173 N 0.42708 0.26085 0.33963 0.0
C174 C 0.43247 0.24349 0.35267 0.0
C175 C 0.45387 0.24145 0.3243 0.0
C176 C 0.44053 0.25954 0.32178 0.0
C177 C 0.42631 0.17813 0.34665 0.0
O178 O 0.4151 0.19339 0.35717 0.0
H179 H 0.42487 0.23972 0.36853 0.0
H180 H 0.46636 0.23587 0.31279 0.0
O181 O 0.46562 0.20718 0.38652 0.0
H182 H 0.54073 0.22226 0.33251 0.0
H183 H 0.4405 0.27066 0.30768 0.0
Cu184 Cu 0.69941 0.96031 0.85519 0.0
N185 N 0.69803 0.9887 0.8436 0.0
N186 N 0.68758 0.01831 0.82416 0.0
C187 C 0.68304 0.99715 0.82943 0.0
C188 C 0.70617 0.02319 0.83552 0.0
C189 C 0.71254 1.00493 0.84747 0.0
O190 O 0.67406 0.94403 0.84448 0.0
C191 C 0.68479 0.97297 0.89744 0.0
O192 O 0.66796 0.98028 0.88582 0.0
H193 H 0.66906 0.98795 0.82327 0.0
H194 H 0.72689 1.00344 0.85805 0.0
N195 N 0.72527 0.94743 0.84464 0.0
N196 N 0.75545 0.92675 0.84082 0.0
C197 C 0.73753 0.93106 0.85345 0.0
C198 C 0.73572 0.95354 0.82589 0.0
C199 C 0.75431 0.94088 0.8235 0.0
C200 C 0.67312 0.92315 0.84504 0.0
O201 O 0.68927 0.9121 0.85437 0.0
H202 H 0.73356 0.92271 0.86888 0.0
H203 H 0.73015 0.96637 0.81472 0.0
O204 O 0.70009 0.9627 0.88741 0.0
H205 H 0.71487 0.0387 0.83495 0.0
H206 H 0.76593 0.9418 0.80987 0.0
Cu207 Cu 0.96365 0.31544 0.17115 0.0
N208 N 0.99255 0.31517 0.18151 0.0
N209 N 0.0229 0.32314 0.20091 0.0
C210 C 1.00105 0.32666 0.19865 0.0
C211 C 0.02824 0.30884 0.18458 0.0
C212 C 0.00947 0.30393 0.17268 0.0
O213 O 0.94958 0.34155 0.18285 0.0
C214 C 0.97468 0.33107 0.12889 0.0
O215 O 0.98205 0.34774 0.14066 0.0
H216 H 0.99151 0.33781 0.20884 0.0
H217 H 1.00824 0.29313 0.15842 0.0
N218 N 0.94961 0.29026 0.18179 0.0
N219 N 0.92787 0.26083 0.18538 0.0
C220 C 0.93263 0.27884 0.17303 0.0
C221 C 0.95561 0.27924 0.20025 0.0
C222 C 0.94229 0.2611 0.20251 0.0
C223 C 0.92908 0.34548 0.1813 0.0
O224 O 0.91639 0.33167 0.17043 0.0
H225 H 0.92431 0.28335 0.15773 0.0
H226 H 0.96892 0.28402 0.21122 0.0
O227 O 0.96488 0.31542 0.13889 0.0
H228 H 0.04453 0.30233 0.18148 0.0
H229 H 0.94308 0.2491 0.21583 0.0
Cu230 Cu 0.31605 0.04953 0.84973 0.0
N231 N 0.31609 0.02309 0.83413 0.0
N232 N 0.32611 0.9948 0.81265 0.0
C233 C 0.33223 0.01429 0.82161 0.0
C234 C 0.30533 0.99139 0.81985 0.0
C235 C 0.29923 1.00883 0.83306 0.0
O236 O 0.34286 0.06538 0.84226 0.0
C237 C 0.31686 0.05436 0.8977 0.0
O238 O 0.32113 0.07529 0.89442 0.0
H239 H 0.34815 0.02194 0.81934 0.0
H240 H 0.28353 0.01111 0.84122 0.0
N241 N 0.29163 0.06542 0.83973 0.0
N242 N 0.26298 0.08829 0.83625 0.0
C243 C 0.27857 0.08015 0.85016 0.0
C244 C 0.28412 0.06434 0.81869 0.0
C245 C 0.26653 0.07833 0.81648 0.0
C246 C 0.34389 0.08627 0.84268 0.0
O247 O 0.32692 0.09748 0.85005 0.0
H248 H 0.28052 0.08481 0.86745 0.0
H249 H 0.29124 0.05425 0.80573 0.0
O250 O 0.31407 0.04174 0.88106 0.0
H251 H 0.29505 0.97749 0.81559 0.0
H252 H 0.25746 0.08137 0.80125 0.0
Cu253 Cu 0.05767 0.70637 0.16778 0.0
N254 N 0.02953 0.70282 0.1797 0.0
N255 N 1.00127 0.69198 0.20092 0.0
C256 C 0.02323 0.69066 0.19739 0.0
C257 C 0.99361 0.70548 0.18479 0.0
C258 C 0.01102 0.71211 0.17179 0.0
O259 O 0.07708 0.68425 0.1802 0.0
C260 C 0.04906 0.72091 0.12425 0.0
O261 O 0.04587 0.73964 0.13463 0.0
H262 H 0.03456 0.68118 0.20749 0.0
H263 H 0.01023 0.72283 0.15742 0.0
N264 N 0.06835 0.73397 0.17609 0.0
N265 N 0.08872 0.76452 0.17858 0.0
C266 C 0.08645 0.74461 0.16879 0.0
C267 C 0.05897 0.74745 0.19105 0.0
C268 C 0.07144 0.76625 0.19263 0.0
C269 C 0.07337 0.66372 0.17876 0.0
O270 O 0.05623 0.65683 0.16735 0.0
H271 H 0.09748 0.738 0.15633 0.0
H272 H 0.04409 0.74379 0.20022 0.0
O273 O 0.05513 0.70418 0.13548 0.0
H274 H 0.97654 0.70991 0.18219 0.0
H275 H 0.06816 0.77998 0.20359 0.0
Cu276 Cu 0.70817 0.05812 0.16696 0.0
N277 N 0.70535 0.02998 0.17918 0.0
N278 N 0.69337 1.00104 0.1988 0.0
C279 C 0.6901 0.02247 0.19362 0.0
C280 C 0.71141 0.99502 0.18718 0.0
C281 C 0.71869 0.01282 0.17512 0.0
O282 O 0.68656 0.07734 0.18046 0.0
C283 C 0.7195 0.04778 0.12288 0.0
O284 O 0.73854 0.04327 0.13223 0.0
H285 H 0.67682 0.03248 0.19999 0.0
H286 H 0.73291 0.01329 0.16433 0.0
N287 N 0.7362 0.06881 0.17392 0.0
N288 N 0.76644 0.08971 0.17626 0.0
C289 C 0.74634 0.08727 0.16678 0.0
C290 C 0.75021 0.05942 0.18844 0.0
C291 C 0.76881 0.07218 0.18989 0.0
C292 C 0.66594 0.07514 0.17755 0.0
O293 O 0.65869 0.05982 0.16397 0.0
H294 H 0.7391 0.09861 0.15494 0.0
H295 H 0.74694 0.04451 0.19769 0.0
O296 O 0.70409 0.05555 0.13489 0.0
H297 H 0.71915 0.979 0.18759 0.0
H298 H 0.78272 0.06905 0.20073 0.0
Cu299 Cu 0.06104 0.30768 0.86013 0.0
N300 N 0.03278 0.31108 0.84838 0.0
N301 N 1.00435 0.32257 0.82778 0.0
C302 C 0.02645 0.32284 0.83042 0.0
C303 C 0.99659 0.31005 0.84461 0.0
C304 C 0.01413 0.303 0.85725 0.0
O305 O 0.08038 0.32891 0.84613 0.0
C306 C 0.05177 0.2968 0.90459 0.0
O307 O 0.0478 0.27747 0.89571 0.0
H308 H 0.03774 0.33195 0.81996 0.0
H309 H 0.01331 0.29292 0.87207 0.0
N310 N 0.07101 0.27932 0.85378 0.0
N311 N 0.09236 0.24965 0.84967 0.0
C312 C 0.09133 0.27081 0.85655 0.0
C313 C 0.0588 0.26305 0.84498 0.0
C314 C 0.07187 0.24477 0.84245 0.0
C315 C 0.07706 0.3495 0.84779 0.0
O316 O 0.06078 0.35656 0.86028 0.0
H317 H 0.10511 0.28008 0.86306 0.0
H318 H 0.04156 0.26442 0.84071 0.0
O319 O 0.05887 0.31223 0.89216 0.0
H320 H 0.97944 0.30626 0.84761 0.0
H321 H 0.06659 0.22904 0.83596 0.0
Cu322 Cu 0.30986 0.96773 0.1677 0.0
N323 N 0.30973 0.99462 0.1825 0.0
N324 N 0.3175 0.02222 0.20573 0.0
C325 C 0.3235 1.00207 0.19842 0.0
C326 C 0.29937 0.02758 0.19386 0.0
C327 C 0.29467 0.01056 0.17956 0.0
O328 O 0.33569 0.95144 0.17743 0.0
C329 C 0.31172 0.96192 0.11973 0.0
O330 O 0.31246 0.94061 0.12324 0.0
H331 H 0.33733 0.99274 0.20477 0.0
H332 H 0.2811 0.00971 0.16789 0.0
N333 N 0.28394 0.95322 0.17597 0.0
N334 N 0.25427 0.93153 0.17785 0.0
C335 C 0.2726 0.93673 0.16617 0.0
C336 C 0.27245 0.95839 0.19439 0.0
C337 C 0.2542 0.94515 0.19557 0.0
C338 C 0.33686 0.93056 0.17717 0.0
O339 O 0.32043 0.91918 0.16887 0.0
H340 H 0.2775 0.92887 0.15078 0.0
H341 H 0.27711 0.97096 0.20622 0.0
O342 O 0.31055 0.975 0.1362 0.0
H343 H 0.2903 0.04283 0.19523 0.0
H344 H 0.24199 0.94527 0.20869 0.0
Cu345 Cu 0.96175 0.70985 0.85428 0.0
N346 N 0.98978 0.70805 0.8417 0.0
N347 N 0.01819 0.69922 0.81987 0.0
C348 C 0.99695 0.69502 0.82505 0.0
C349 C 0.02455 0.71541 0.83382 0.0
C350 C 1.00703 0.72078 0.84725 0.0
O351 O 0.94323 0.68693 0.84202 0.0
C352 C 0.97083 0.72399 0.89786 0.0
O353 O 0.97264 0.74312 0.88783 0.0
H354 H 0.98671 0.68308 0.81661 0.0
H355 H 1.0068 0.73328 0.86004 0.0
N356 N 0.94971 0.73701 0.84628 0.0
N357 N 0.92811 0.76671 0.84362 0.0
C358 C 0.93135 0.74707 0.85378 0.0
C359 C 0.95819 0.75058 0.83082 0.0
C360 C 0.94498 0.76884 0.82914 0.0
C361 C 0.94764 0.66656 0.84366 0.0
O362 O 0.96502 0.66034 0.8551 0.0
H363 H 0.92078 0.74021 0.86652 0.0
H364 H 0.9729 0.7473 0.82125 0.0
O365 O 0.96519 0.70727 0.88646 0.0
H366 H 0.04078 0.72273 0.83441 0.0
H367 H 0.94742 0.78241 0.81773 0.0
C368 C 0.27277 0.39151 0.3573 0.0
C369 C 0.27795 0.4113 0.34629 0.0
C370 C 0.28831 0.37447 0.35868 0.0
C371 C 0.33737 0.35421 0.32909 0.0
H372 H 0.34894 0.31974 0.38225 0.0
C373 C 0.41286 0.29849 0.33425 0.0
C374 C 0.4104 0.27734 0.34337 0.0
C375 C 0.39617 0.3141 0.33626 0.0
C376 C 0.34571 0.32906 0.36721 0.0
H377 H 0.30399 0.42916 0.32949 0.0
H378 H 0.33083 0.39967 0.33181 0.0
H379 H 0.3205 0.34838 0.38293 0.0
H380 H 0.38864 0.25627 0.36242 0.0
H381 H 0.35924 0.28367 0.36587 0.0
H382 H 0.36236 0.33512 0.31328 0.0
C383 C 0.31465 0.39703 0.3389 0.0
C384 C 0.32944 0.34545 0.36761 0.0
C385 C 0.29923 0.41396 0.33755 0.0
C386 C 0.39107 0.27245 0.35529 0.0
C387 C 0.37424 0.28814 0.35726 0.0
C388 C 0.3535 0.3379 0.32868 0.0
C389 C 0.30927 0.37691 0.34904 0.0
C390 C 0.3254 0.35848 0.34863 0.0
C391 C 0.37645 0.30902 0.34737 0.0
C392 C 0.3582 0.32538 0.34782 0.0
H393 H 0.2565 0.3889 0.36414 0.0
H394 H 0.28366 0.35914 0.36658 0.0
H395 H 0.33429 0.36354 0.31401 0.0
H396 H 0.42773 0.30299 0.32546 0.0
H397 H 0.3987 0.3302 0.32896 0.0
C398 C 0.41045 0.71807 0.6888 0.0
C399 C 0.41184 0.73567 0.67366 0.0
C400 C 0.39183 0.70468 0.68947 0.0
C401 C 0.34459 0.68594 0.65595 0.0
H402 H 0.32419 0.66441 0.71318 0.0
C403 C 0.26946 0.62661 0.6674 0.0
C404 C 0.27281 0.60929 0.68263 0.0
C405 C 0.28506 0.64352 0.6653 0.0
C406 C 0.32974 0.67018 0.69704 0.0
H407 H 0.39451 0.75305 0.6474 0.0
H408 H 0.36168 0.72964 0.64871 0.0
H409 H 0.35333 0.69183 0.71179 0.0
H410 H 0.29585 0.5957 0.70665 0.0
H411 H 0.32265 0.62505 0.70317 0.0
H412 H 0.32099 0.66397 0.64128 0.0
C413 C 0.37521 0.72618 0.65996 0.0
C414 C 0.34646 0.6859 0.69624 0.0
C415 C 0.39391 0.73972 0.65935 0.0
C416 C 0.29237 0.60901 0.69519 0.0
C417 C 0.3078 0.62587 0.69318 0.0
C418 C 0.32774 0.67018 0.65676 0.0
C419 C 0.37398 0.70847 0.67504 0.0
C420 C 0.35449 0.6936 0.67569 0.0
C421 C 0.30423 0.6435 0.67848 0.0
C422 C 0.32051 0.66175 0.67733 0.0
H423 H 0.42379 0.71463 0.70026 0.0
H424 H 0.39161 0.69104 0.70109 0.0
H425 H 0.35046 0.69143 0.63984 0.0
H426 H 0.25456 0.62745 0.65755 0.0
H427 H 0.28182 0.65692 0.65383 0.0
C428 C 0.62461 0.7426 0.35639 0.0
C429 C 0.61047 0.74102 0.33786 0.0
C430 C 0.64323 0.72906 0.35808 0.0
C431 C 0.68018 0.69378 0.32412 0.0
H432 H 0.69162 0.66332 0.37976 0.0
C433 C 0.73035 0.61399 0.32803 0.0
C434 C 0.74502 0.61063 0.34584 0.0
C435 C 0.71636 0.63218 0.3277 0.0
C436 C 0.68889 0.67196 0.36421 0.0
H437 H 0.60533 0.7245 0.30627 0.0
H438 H 0.63736 0.70084 0.30934 0.0
H439 H 0.66275 0.69128 0.37806 0.0
H440 H 0.75657 0.62391 0.37725 0.0
H441 H 0.73197 0.65588 0.37669 0.0
H442 H 0.70586 0.67412 0.3101 0.0
C443 C 0.63423 0.71256 0.32254 0.0
C444 C 0.67234 0.688 0.36323 0.0
C445 C 0.61564 0.72596 0.32091 0.0
C446 C 0.74554 0.62611 0.36324 0.0
C447 C 0.73135 0.6443 0.363 0.0
C448 C 0.69664 0.67777 0.32508 0.0
C449 C 0.64822 0.71383 0.34118 0.0
C450 C 0.66744 0.69872 0.34302 0.0
C451 C 0.71656 0.64751 0.34521 0.0
C452 C 0.70084 0.66629 0.34499 0.0
H453 H 0.62102 0.75394 0.36978 0.0
H454 H 0.65375 0.73054 0.37259 0.0
H455 H 0.67718 0.70207 0.30841 0.0
H456 H 0.72972 0.60255 0.31424 0.0
H457 H 0.70501 0.63399 0.31387 0.0
C458 C 0.61297 0.29535 0.69486 0.0
C459 C 0.60979 0.27912 0.67851 0.0
C460 C 0.63175 0.30854 0.69471 0.0
C461 C 0.6756 0.33 0.65847 0.0
H462 H 0.70268 0.3448 0.71507 0.0
C463 C 0.753 0.38676 0.6679 0.0
C464 C 0.75191 0.4021 0.68542 0.0
C465 C 0.7368 0.37046 0.66562 0.0
C466 C 0.69524 0.34094 0.69912 0.0
H467 H 0.62398 0.26408 0.64912 0.0
H468 H 0.65707 0.28718 0.64893 0.0
H469 H 0.67282 0.31817 0.71398 0.0
H470 H 0.73215 0.41304 0.71339 0.0
H471 H 0.70423 0.3848 0.70951 0.0
H472 H 0.69801 0.35313 0.64373 0.0
C473 C 0.64485 0.28968 0.66181 0.0
C474 C 0.67812 0.32566 0.6985 0.0
C475 C 0.62602 0.27633 0.66203 0.0
C476 C 0.7339 0.40118 0.70008 0.0
C477 C 0.71784 0.38495 0.69785 0.0
C478 C 0.69284 0.34535 0.6591 0.0
C479 C 0.64794 0.30592 0.67821 0.0
C480 C 0.66772 0.32038 0.67827 0.0
C481 C 0.71925 0.36916 0.68085 0.0
C482 C 0.70248 0.35136 0.67953 0.0
H483 H 0.60099 0.29779 0.70795 0.0
H484 H 0.63343 0.32106 0.70743 0.0
H485 H 0.66788 0.32636 0.64262 0.0
H486 H 0.76669 0.38694 0.65638 0.0
H487 H 0.73834 0.3585 0.65235 0.0
C488 C 0.76743 0.89013 0.85453 0.0
C489 C 0.77233 0.91046 0.8445 0.0
C490 C 0.78361 0.87374 0.85625 0.0
C491 C 0.83638 0.85742 0.83008 0.0
H492 H 0.8431 0.81914 0.88139 0.0
C493 C 0.91324 0.80445 0.84127 0.0
C494 C 0.91031 0.78217 0.84679 0.0
C495 C 0.89574 0.81924 0.84251 0.0
C496 C 0.84125 0.8296 0.86688 0.0
H497 H 0.79831 0.93004 0.82977 0.0
H498 H 0.82647 0.90185 0.83309 0.0
H499 H 0.81373 0.84682 0.88094 0.0
H500 H 0.88669 0.75823 0.85888 0.0
H501 H 0.85602 0.7843 0.86127 0.0
H502 H 0.86395 0.84054 0.81612 0.0
C503 C 0.81003 0.89816 0.83896 0.0
C504 C 0.82444 0.84542 0.8666 0.0
C505 C 0.7939 0.91438 0.8371 0.0
C506 C 0.88956 0.77527 0.85456 0.0
C507 C 0.87199 0.79018 0.85591 0.0
C508 C 0.85316 0.84178 0.83043 0.0
C509 C 0.80502 0.87744 0.84809 0.0
C510 C 0.82203 0.85977 0.8483 0.0
C511 C 0.87481 0.81223 0.84943 0.0
C512 C 0.85603 0.8279 0.84894 0.0
H513 H 0.75092 0.88662 0.86028 0.0
H514 H 0.77915 0.85796 0.8633 0.0
H515 H 0.83465 0.8677 0.81543 0.0
H516 H 0.92908 0.81054 0.83583 0.0
H517 H 0.89859 0.83624 0.8379 0.0
C518 C 0.80438 0.10421 0.17839 0.0
C519 C 0.78197 0.10753 0.17354 0.0
C520 C 0.81924 0.12167 0.17782 0.0
C521 C 0.82961 0.17727 0.15637 0.0
H522 H 0.86799 0.18111 0.20791 0.0
C523 C 0.89095 0.24985 0.17156 0.0
C524 C 0.91127 0.24435 0.18134 0.0
C525 C 0.87435 0.23396 0.1693 0.0
C526 C 0.85764 0.18017 0.19324 0.0
H527 H 0.7579 0.13189 0.16328 0.0
H528 H 0.78411 0.16249 0.162 0.0
H529 H 0.8407 0.15201 0.20589 0.0
H530 H 0.93059 0.21763 0.19506 0.0
H531 H 0.90208 0.18997 0.19077 0.0
H532 H 0.84694 0.20533 0.14357 0.0
C533 C 0.79002 0.14624 0.16634 0.0
C534 C 0.84192 0.1635 0.19213 0.0
C535 C 0.77502 0.12869 0.16705 0.0
C536 C 0.91494 0.22251 0.18796 0.0
C537 C 0.89853 0.20665 0.18555 0.0
C538 C 0.84554 0.19396 0.15739 0.0
C539 C 0.81219 0.14297 0.17223 0.0
C540 C 0.82794 0.16163 0.17357 0.0
C541 C 0.87783 0.21222 0.17664 0.0
C542 C 0.86 0.19538 0.17572 0.0
H543 H 0.8105 0.08808 0.18284 0.0
H544 H 0.83632 0.11853 0.18195 0.0
H545 H 0.81906 0.1762 0.14184 0.0
H546 H 0.88764 0.26659 0.16639 0.0
H547 H 0.8586 0.23886 0.16245 0.0
C548 C 0.1125 0.21801 0.8339 0.0
C549 C 0.11127 0.23525 0.84942 0.0
C550 C 0.13046 0.20372 0.83373 0.0
C551 C 0.17558 0.18194 0.86847 0.0
H552 H 0.19761 0.16207 0.8113 0.0
C553 C 0.24974 0.1212 0.85684 0.0
C554 C 0.24644 0.10477 0.84066 0.0
C555 C 0.23436 0.13825 0.85944 0.0
C556 C 0.19158 0.16737 0.82741 0.0
H557 H 0.12813 0.2509 0.87704 0.0
H558 H 0.1598 0.22596 0.87659 0.0
H559 H 0.16932 0.19034 0.81259 0.0
H560 H 0.22366 0.09265 0.81567 0.0
H561 H 0.19719 0.12221 0.82006 0.0
H562 H 0.19791 0.15867 0.88319 0.0
C563 C 0.14667 0.22349 0.86463 0.0
C564 C 0.17534 0.18357 0.82816 0.0
C565 C 0.12863 0.23791 0.86475 0.0
C566 C 0.22705 0.10531 0.82785 0.0
C567 C 0.21184 0.12228 0.83037 0.0
C568 C 0.19196 0.1657 0.86772 0.0
C569 C 0.14779 0.20625 0.84906 0.0
C570 C 0.16673 0.19069 0.84865 0.0
C571 C 0.21549 0.1392 0.84586 0.0
C572 C 0.19973 0.15787 0.84713 0.0
H573 H 0.09962 0.21559 0.82167 0.0
H574 H 0.1306 0.19045 0.8217 0.0
H575 H 0.16924 0.18701 0.88453 0.0
H576 H 0.26452 0.12132 0.86692 0.0
H577 H 0.23761 0.15106 0.87153 0.0
C578 C 0.21603 0.91831 0.17924 0.0
C579 C 0.23809 0.9148 0.17328 0.0
C580 C 0.20059 0.90145 0.17745 0.0
C581 C 0.18912 0.84669 0.15294 0.0
H582 H 0.14905 0.84286 0.20308 0.0
C583 C 0.12695 0.77447 0.16774 0.0
C584 C 0.10586 0.78066 0.17517 0.0
C585 C 0.14382 0.79012 0.16585 0.0
C586 C 0.15997 0.84379 0.18885 0.0
H587 H 0.2611 0.89114 0.15981 0.0
H588 H 0.234 0.8613 0.15686 0.0
H589 H 0.17706 0.87131 0.2025 0.0
H590 H 0.08578 0.80847 0.18509 0.0
H591 H 0.11503 0.83548 0.182 0.0
H592 H 0.17185 0.81885 0.13948 0.0
C593 C 0.22866 0.87724 0.16278 0.0
C594 C 0.17603 0.86016 0.18848 0.0
C595 C 0.24418 0.89429 0.16444 0.0
C596 C 0.1019 0.80295 0.17991 0.0
C597 C 0.1187 0.81849 0.17809 0.0
C598 C 0.17299 0.83016 0.15336 0.0
C599 C 0.2068 0.8805 0.16983 0.0
C600 C 0.19057 0.86212 0.17036 0.0
C601 C 0.13995 0.81224 0.17142 0.0
C602 C 0.158 0.82879 0.17117 0.0
H603 H 0.21078 0.93409 0.18564 0.0
H604 H 0.18377 0.90478 0.18238 0.0
H605 H 0.20003 0.84775 0.13872 0.0
H606 H 0.13063 0.75745 0.16405 0.0
H607 H 0.16006 0.78478 0.16073 0.0
C608 C 0.18541 0.55692 0.30911 0.0
C609 C 0.18299 0.53391 0.30884 0.0
C610 C 0.17412 0.57011 0.2938 0.0
C611 C 0.12558 0.57107 0.25711 0.0
H612 H 0.15603 0.61949 0.22849 0.0
C613 C 0.08334 0.6252 0.19015 0.0
C614 C 0.08726 0.64795 0.19136 0.0
C615 C 0.09567 0.6105 0.20309 0.0
C616 C 0.1472 0.60618 0.23648 0.0
H617 H 0.16673 0.50686 0.29188 0.0
H618 H 0.14684 0.52993 0.26547 0.0
H619 H 0.17599 0.59549 0.25405 0.0
H620 H 0.10744 0.67304 0.20697 0.0
H621 H 0.12861 0.64756 0.22971 0.0
H622 H 0.09667 0.58198 0.23993 0.0
C623 C 0.15742 0.53772 0.27767 0.0
C624 C 0.15867 0.59241 0.25112 0.0
C625 C 0.16882 0.52449 0.2929 0.0
C626 C 0.10403 0.65562 0.20553 0.0
C627 C 0.11628 0.64096 0.21851 0.0
C628 C 0.11406 0.58493 0.24256 0.0
C629 C 0.16 0.56067 0.2779 0.0
C630 C 0.14796 0.57481 0.26173 0.0
C631 C 0.11217 0.61822 0.2176 0.0
C632 C 0.12468 0.60278 0.23219 0.0
H633 H 0.19581 0.56487 0.32131 0.0
H634 H 0.17618 0.58778 0.29465 0.0
H635 H 0.11681 0.55778 0.26521 0.0
H636 H 0.07059 0.61873 0.17936 0.0
H637 H 0.09227 0.59308 0.20171 0.0
C638 C 0.5528 0.81388 0.72437 0.0
C639 C 0.53511 0.82537 0.71478 0.0
C640 C 0.56622 0.82389 0.74033 0.0
C641 C 0.56998 0.87181 0.77882 0.0
H642 H 0.63252 0.85959 0.775 0.0
C643 C 0.6375 0.92306 0.82372 0.0
C644 C 0.65514 0.91139 0.83331 0.0
C645 C 0.62157 0.91213 0.81102 0.0
C646 C 0.61507 0.86298 0.77648 0.0
H647 H 0.51739 0.85626 0.71462 0.0
H648 H 0.5411 0.87401 0.74217 0.0
H649 H 0.60727 0.84161 0.74939 0.0
H650 H 0.66941 0.87896 0.83767 0.0
H651 H 0.64167 0.85996 0.81548 0.0
H652 H 0.5781 0.8937 0.80562 0.0
C653 C 0.54438 0.85708 0.7377 0.0
C654 C 0.60054 0.85262 0.76181 0.0
C655 C 0.5308 0.84695 0.72187 0.0
C656 C 0.6561 0.88847 0.83048 0.0
C657 C 0.64028 0.87758 0.81765 0.0
C658 C 0.58459 0.88233 0.7934 0.0
C659 C 0.56245 0.84576 0.74693 0.0
C660 C 0.57779 0.85682 0.7628 0.0
C661 C 0.62303 0.88933 0.8075 0.0
C662 C 0.60729 0.87797 0.79241 0.0
H663 H 0.55626 0.79709 0.71955 0.0
H664 H 0.5796 0.81443 0.74745 0.0
H665 H 0.55256 0.87525 0.78028 0.0
H666 H 0.63625 0.94073 0.8256 0.0
H667 H 0.60855 0.92164 0.80331 0.0
C668 C 0.93314 0.37855 0.20583 0.0
C669 C 0.91952 0.36452 0.19329 0.0
C670 C 0.92408 0.3954 0.21869 0.0
C671 C 0.87377 0.42861 0.22789 0.0
H672 H 0.89632 0.43303 0.28823 0.0
C673 C 0.8441 0.49465 0.29133 0.0
C674 C 0.8395 0.48673 0.31287 0.0
C675 C 0.85452 0.48115 0.27564 0.0
C676 C 0.88982 0.432 0.27144 0.0
H677 H 0.88572 0.35778 0.1838 0.0
H678 H 0.8699 0.38717 0.20639 0.0
H679 H 0.91299 0.40714 0.26235 0.0
H680 H 0.84271 0.45863 0.33491 0.0
H681 H 0.86068 0.43517 0.30765 0.0
H682 H 0.85022 0.45318 0.2373 0.0
C683 C 0.88761 0.38519 0.20614 0.0
C684 C 0.89952 0.41732 0.25652 0.0
C685 C 0.89668 0.36826 0.19329 0.0
C686 C 0.84575 0.46515 0.31841 0.0
C687 C 0.85628 0.45178 0.30285 0.0
C688 C 0.86412 0.44343 0.24282 0.0
C689 C 0.90119 0.39869 0.21932 0.0
C690 C 0.89149 0.41527 0.23464 0.0
C691 C 0.86078 0.45958 0.28128 0.0
C692 C 0.87187 0.44505 0.26486 0.0
H693 H 0.95082 0.37626 0.20611 0.0
H694 H 0.93502 0.40574 0.22836 0.0
H695 H 0.86732 0.42754 0.21109 0.0
H696 H 0.83936 0.51114 0.28653 0.0
H697 H 0.85789 0.48766 0.25918 0.0
C698 C 0.46857 0.1986 0.73047 0.0
C699 C 0.48589 0.18735 0.72002 0.0
C700 C 0.45496 0.18787 0.74574 0.0
C701 C 0.44982 0.13766 0.78096 0.0
H702 H 0.38766 0.15175 0.77744 0.0
C703 C 0.38034 0.08618 0.82284 0.0
C704 C 0.36279 0.09793 0.83243 0.0
C705 C 0.39689 0.09721 0.81104 0.0
C706 C 0.405 0.14781 0.77885 0.0
H707 H 0.50282 0.1561 0.71772 0.0
H708 H 0.47876 0.13711 0.74412 0.0
H709 H 0.41348 0.17049 0.75309 0.0
H710 H 0.34949 0.13058 0.838 0.0
H711 H 0.37829 0.14971 0.8175 0.0
H712 H 0.441 0.11451 0.80648 0.0
C713 C 0.4759 0.15438 0.7408 0.0
C714 C 0.41986 0.1586 0.7649 0.0
C715 C 0.48968 0.16522 0.72563 0.0
C716 C 0.36266 0.12098 0.83071 0.0
C717 C 0.37911 0.13196 0.81885 0.0
C718 C 0.43487 0.12671 0.79487 0.0
C719 C 0.45815 0.1655 0.7508 0.0
C720 C 0.44249 0.15379 0.76581 0.0
C721 C 0.39616 0.12018 0.80849 0.0
C722 C 0.4123 0.13177 0.79403 0.0
H723 H 0.46553 0.21577 0.72684 0.0
H724 H 0.44186 0.19715 0.75353 0.0
H725 H 0.46715 0.13367 0.7823 0.0
H726 H 0.38097 0.06841 0.82387 0.0
H727 H 0.40976 0.08766 0.80317 0.0
C728 C 0.16651 0.49161 0.73288 0.0
C729 C 0.18102 0.4832 0.71674 0.0
C730 C 0.15533 0.47749 0.74743 0.0
C731 C 0.13827 0.41926 0.754 0.0
H732 H 0.13115 0.43517 0.81615 0.0
C733 C 0.10609 0.35748 0.8192 0.0
C734 C 0.09021 0.36518 0.83432 0.0
C735 C 0.11747 0.37213 0.80542 0.0
C736 C 0.13284 0.43058 0.79879 0.0
H737 H 0.19479 0.45313 0.70318 0.0
H738 H 0.17583 0.42869 0.72879 0.0
H739 H 0.15009 0.46027 0.79083 0.0
H740 H 0.07422 0.39444 0.84716 0.0
H741 H 0.0941 0.42 0.8231 0.0
H742 H 0.12116 0.38953 0.76198 0.0
C743 C 0.17285 0.4462 0.73006 0.0
C744 C 0.14365 0.44499 0.78426 0.0
C745 C 0.18398 0.46029 0.71551 0.0
C746 C 0.08635 0.38794 0.83571 0.0
C747 C 0.09782 0.40261 0.82198 0.0
C748 C 0.12755 0.40484 0.76853 0.0
C749 C 0.15838 0.4546 0.74621 0.0
C750 C 0.14656 0.43948 0.76168 0.0
C751 C 0.11332 0.39485 0.80649 0.0
C752 C 0.12475 0.41029 0.79112 0.0
H753 H 0.16394 0.50913 0.73452 0.0
H754 H 0.14413 0.48453 0.7595 0.0
H755 H 0.13983 0.41464 0.73664 0.0
H756 H 0.10953 0.34006 0.81772 0.0
H757 H 0.12955 0.36565 0.79391 0.0
C758 C 0.35596 0.89609 0.18952 0.0
C759 C 0.35567 0.91915 0.18793 0.0
C760 C 0.37268 0.88535 0.20128 0.0
C761 C 0.4287 0.89196 0.22467 0.0
H762 H 0.4098 0.84595 0.26512 0.0
C763 C 0.48606 0.85334 0.29186 0.0
C764 C 0.48349 0.8308 0.29634 0.0
C765 C 0.47155 0.8642 0.27738 0.0
C766 C 0.41547 0.85851 0.25368 0.0
H767 H 0.37323 0.94896 0.19683 0.0
H768 H 0.40242 0.93015 0.21738 0.0
H769 H 0.38281 0.86447 0.24179 0.0
H770 H 0.46451 0.80174 0.28818 0.0
H771 H 0.43951 0.82046 0.26278 0.0
H772 H 0.46142 0.88593 0.23663 0.0
C773 C 0.38973 0.9204 0.20944 0.0
C774 C 0.39995 0.86916 0.24031 0.0
C775 C 0.37293 0.93117 0.19774 0.0
C776 C 0.46662 0.81921 0.28546 0.0
C777 C 0.45225 0.82998 0.27092 0.0
C778 C 0.4443 0.88121 0.23802 0.0
C779 C 0.38958 0.89738 0.21168 0.0
C780 C 0.40635 0.88598 0.22561 0.0
C781 C 0.45425 0.85269 0.26698 0.0
C782 C 0.43787 0.86429 0.25266 0.0
H783 H 0.343 0.8863 0.18208 0.0
H784 H 0.37229 0.86757 0.20239 0.0
H785 H 0.43418 0.90475 0.21339 0.0
H786 H 0.49881 0.86274 0.30011 0.0
H787 H 0.47348 0.88173 0.27489 0.0
C788 C 0.85646 0.52185 0.73379 0.0
C789 C 0.84004 0.52977 0.71929 0.0
C790 C 0.868 0.53622 0.74776 0.0
C791 C 0.88213 0.59511 0.75444 0.0
H792 H 0.8961 0.57815 0.81518 0.0
C793 C 0.91661 0.65721 0.81779 0.0
C794 C 0.9343 0.65025 0.8312 0.0
C795 C 0.90489 0.64214 0.80484 0.0
C796 C 0.8925 0.58304 0.79819 0.0
H797 H 0.82312 0.55922 0.70813 0.0
H798 H 0.84278 0.5841 0.73278 0.0
H799 H 0.87624 0.5526 0.79107 0.0
H800 H 0.95317 0.62184 0.84189 0.0
H801 H 0.93267 0.5955 0.81921 0.0
H802 H 0.89827 0.62556 0.76157 0.0
C803 C 0.84695 0.56679 0.73316 0.0
C804 C 0.88114 0.56839 0.78435 0.0
C805 C 0.83546 0.55244 0.71918 0.0
C806 C 0.93963 0.62775 0.83177 0.0
C807 C 0.92783 0.61264 0.81883 0.0
C808 C 0.8934 0.60975 0.76828 0.0
C809 C 0.86341 0.55888 0.7476 0.0
C810 C 0.87575 0.57428 0.76232 0.0
C811 C 0.91051 0.61972 0.805 0.0
C812 C 0.89865 0.60394 0.79034 0.0
H813 H 0.86031 0.5045 0.73456 0.0
H814 H 0.88071 0.52958 0.75851 0.0
H815 H 0.87865 0.60004 0.73744 0.0
H816 H 0.91198 0.67439 0.81701 0.0
H817 H 0.89141 0.64807 0.79465 0.0
C818 C 0.62747 0.08557 0.18872 0.0
C819 C 0.65033 0.08853 0.19083 0.0
C820 C 0.61287 0.09728 0.20231 0.0
C821 C 0.61066 0.12603 0.25633 0.0
H822 H 0.5567 0.15143 0.23325 0.0
C823 C 0.55733 0.1846 0.30889 0.0
C824 C 0.53431 0.18268 0.30739 0.0
C825 C 0.57104 0.17296 0.29441 0.0
C826 C 0.57156 0.14419 0.24003 0.0
H827 H 0.67574 0.10658 0.20851 0.0
H828 H 0.65034 0.12702 0.23202 0.0
H829 H 0.58138 0.13169 0.20816 0.0
H830 H 0.50774 0.16698 0.28916 0.0
H831 H 0.53167 0.1463 0.26426 0.0
H832 H 0.6009 0.13835 0.28819 0.0
C833 C 0.64368 0.11543 0.22009 0.0
C834 C 0.58572 0.13291 0.22563 0.0
C835 C 0.65824 0.1038 0.20649 0.0
C836 C 0.52537 0.16873 0.29101 0.0
C837 C 0.5391 0.15705 0.27652 0.0
C838 C 0.59651 0.13723 0.27072 0.0
C839 C 0.62084 0.11214 0.21835 0.0
C840 C 0.60551 0.12383 0.23359 0.0
C841 C 0.56212 0.15901 0.27806 0.0
C842 C 0.57685 0.14659 0.26274 0.0
H843 H 0.62082 0.07393 0.17684 0.0
H844 H 0.59538 0.09426 0.20065 0.0
H845 H 0.62556 0.11886 0.2631 0.0
H846 H 0.56487 0.19495 0.3214 0.0
H847 H 0.58868 0.1751 0.29592 0.0
C848 C 0.67754 0.05565 0.81113 0.0
C849 C 0.6754 0.03268 0.80941 0.0
C850 C 0.66607 0.06961 0.79673 0.0
C851 C 0.63726 0.07096 0.74225 0.0
H852 H 0.61326 0.1254 0.76541 0.0
C853 C 0.57969 0.12855 0.69128 0.0
C854 C 0.5835 0.15128 0.69323 0.0
C855 C 0.59107 0.1136 0.70481 0.0
C856 C 0.62005 0.11037 0.75863 0.0
H857 H 0.6594 1.00651 0.79092 0.0
H858 H 0.63893 0.0309 0.7662 0.0
H859 H 0.63215 0.10015 0.79047 0.0
H860 H 0.60267 0.17605 0.7106 0.0
H861 H 0.62248 0.15 0.73408 0.0
H862 H 0.6249 0.08122 0.71039 0.0
C863 C 0.64978 0.03808 0.77854 0.0
C864 C 0.63091 0.09588 0.773 0.0
C865 C 0.66133 0.02408 0.79293 0.0
C866 C 0.59926 0.15867 0.70869 0.0
C867 C 0.61052 0.14375 0.72227 0.0
C868 C 0.62628 0.08543 0.72787 0.0
C869 C 0.65202 0.06104 0.78025 0.0
C870 C 0.63982 0.07607 0.76498 0.0
C871 C 0.60639 0.12106 0.72067 0.0
C872 C 0.61771 0.10538 0.73588 0.0
H873 H 0.68798 0.06295 0.82372 0.0
H874 H 0.66844 0.08719 0.79837 0.0
H875 H 0.64415 0.05599 0.73543 0.0
H876 H 0.56767 0.1223 0.67955 0.0
H877 H 0.58742 0.09623 0.70327 0.0
C878 C 0.14618 0.42892 0.32103 0.0
C879 C 0.15956 0.41634 0.33533 0.0
C880 C 0.13017 0.41886 0.3078 0.0
C881 C 0.09695 0.36858 0.30078 0.0
H882 H 0.0957 0.3863 0.23864 0.0
C883 C 0.03006 0.33969 0.23791 0.0
C884 C 0.03763 0.33318 0.21678 0.0
C885 C 0.04439 0.34959 0.25319 0.0
C886 C 0.09589 0.38112 0.25592 0.0
H887 H 0.166 0.38336 0.3475 0.0
H888 H 0.13792 0.36577 0.32436 0.0
H889 H 0.12133 0.404 0.26425 0.0
H890 H 0.06614 0.33215 0.1951 0.0
H891 H 0.09109 0.34936 0.22172 0.0
H892 H 0.07158 0.34552 0.29229 0.0
C893 C 0.13986 0.38346 0.32346 0.0
C894 C 0.11042 0.39141 0.27064 0.0
C895 C 0.15601 0.39352 0.33665 0.0
C896 C 0.05983 0.33677 0.2113 0.0
C897 C 0.07408 0.34683 0.22647 0.0
C898 C 0.08225 0.35839 0.28606 0.0
C899 C 0.12705 0.39598 0.30859 0.0
C900 C 0.11118 0.38522 0.29322 0.0
C901 C 0.06652 0.3534 0.24756 0.0
C902 C 0.08168 0.36447 0.26343 0.0
H903 H 0.14836 0.44655 0.31966 0.0
H904 H 0.12033 0.42899 0.29676 0.0
H905 H 0.09708 0.36355 0.31811 0.0
H906 H 0.01311 0.33696 0.2427 0.0
H907 H 0.03806 0.3546 0.26928 0.0
C908 C 0.35628 0.98898 0.78546 0.0
C909 C 0.33885 0.98059 0.79834 0.0
C910 C 0.36831 0.97518 0.77134 0.0
C911 C 0.36494 0.92192 0.74187 0.0
H912 H 0.42852 0.92655 0.73934 0.0
C913 C 0.41926 0.85622 0.69935 0.0
C914 C 0.43787 0.86341 0.68749 0.0
C915 C 0.40681 0.87105 0.71192 0.0
C916 C 0.41075 0.92523 0.7396 0.0
H917 H 0.32091 0.95088 0.80681 0.0
H918 H 0.34175 0.92697 0.7822 0.0
H919 H 0.40774 0.95151 0.76313 0.0
H920 H 0.45765 0.89195 0.67913 0.0
H921 H 0.43578 0.91781 0.70076 0.0
H922 H 0.36791 0.89563 0.71838 0.0
C923 C 0.34587 0.94429 0.78272 0.0
C924 C 0.39884 0.93954 0.75326 0.0
C925 C 0.3339 0.95804 0.79685 0.0
C926 C 0.44348 0.88582 0.68815 0.0
C927 C 0.43102 0.90065 0.70068 0.0
C928 C 0.37683 0.90765 0.72817 0.0
C929 C 0.36317 0.95269 0.76973 0.0
C930 C 0.37581 0.93795 0.75468 0.0
C931 C 0.41265 0.89342 0.71289 0.0
C932 C 0.3999 0.90904 0.72696 0.0
H933 H 0.3604 1.00627 0.78594 0.0
H934 H 0.3814 0.98221 0.76138 0.0
H935 H 0.34717 0.9205 0.7423 0.0
H936 H 0.41451 0.83906 0.69927 0.0
H937 H 0.39292 0.86485 0.72132 0.0
C938 C 0.86741 0.60538 0.32522 0.0
C939 C 0.87393 0.58532 0.33482 0.0
C940 C 0.88205 0.61755 0.31216 0.0
C941 C 0.94128 0.62406 0.29791 0.0
H942 H 0.91762 0.65095 0.24436 0.0
C943 C 0.99571 0.66114 0.22749 0.0
C944 C 0.98839 0.68091 0.21777 0.0
C945 C 0.98253 0.64989 0.24289 0.0
C946 C 0.92446 0.64375 0.25937 0.0
H947 H 0.90117 0.56255 0.33858 0.0
H948 H 0.92661 0.5836 0.31549 0.0
H949 H 0.89327 0.63074 0.26915 0.0
H950 H 0.96187 0.70481 0.21757 0.0
H951 H 0.93895 0.68518 0.24416 0.0
H952 H 0.9726 0.63692 0.28779 0.0
C953 C 0.91026 0.5901 0.31831 0.0
C954 C 0.91048 0.63219 0.27364 0.0
C955 C 0.89562 0.57796 0.33148 0.0
C956 C 0.96785 0.6894 0.22428 0.0
C957 C 0.95469 0.67815 0.23958 0.0
C958 C 0.95532 0.63558 0.28354 0.0
C959 C 0.90357 0.60992 0.30825 0.0
C960 C 0.91865 0.62226 0.29316 0.0
C961 C 0.96173 0.65812 0.24885 0.0
C962 C 0.94704 0.64566 0.26416 0.0
H963 H 0.85088 0.61163 0.32759 0.0
H964 H 0.87646 0.63296 0.30507 0.0
H965 H 0.94812 0.61683 0.3129 0.0
H966 H 0.01133 0.65401 0.22275 0.0
H967 H 0.98836 0.6344 0.24961 0.0
C968 C 0.6816 0.96427 0.21196 0.0
C969 C 0.68053 0.98733 0.21361 0.0
C970 C 0.66978 0.95089 0.22659 0.0
C971 C 0.62198 0.94979 0.26394 0.0
H972 H 0.65122 0.89864 0.28882 0.0
C973 C 0.57911 0.89158 0.32713 0.0
C974 C 0.58259 0.86893 0.32405 0.0
C975 C 0.59144 0.90702 0.31511 0.0
C976 C 0.64272 0.91272 0.28186 0.0
H977 H 0.66582 0.01426 0.23206 0.0
H978 H 0.64491 0.99079 0.25742 0.0
H979 H 0.67166 0.92375 0.26491 0.0
H980 H 0.60182 0.84476 0.30597 0.0
H981 H 0.62296 0.87154 0.28487 0.0
H982 H 0.59289 0.93851 0.28053 0.0
C983 C 0.65497 0.98318 0.24468 0.0
C984 C 0.65447 0.92714 0.26819 0.0
C985 C 0.66694 0.99662 0.2301 0.0
C986 C 0.59877 0.86208 0.30885 0.0
C987 C 0.61102 0.87747 0.29682 0.0
C988 C 0.61016 0.93528 0.27756 0.0
C989 C 0.65644 0.96016 0.2432 0.0
C990 C 0.64417 0.94568 0.25883 0.0
C991 C 0.6075 0.90014 0.29974 0.0
C992 C 0.62032 0.9164 0.28645 0.0
H993 H 0.69142 0.95643 0.19922 0.0
H994 H 0.67091 0.93321 0.22472 0.0
H995 H 0.61355 0.96385 0.25684 0.0
H996 H 0.56681 0.89743 0.33875 0.0
H997 H 0.58847 0.92435 0.31797 0.0
C998 C 0.88636 0.4284 0.70126 0.0
C999 C 0.87151 0.41463 0.68991 0.0
C1000 C 0.90353 0.41947 0.71387 0.0
C1001 C 0.93558 0.36868 0.7248 0.0
H1002 H 0.94081 0.39283 0.78439 0.0
C1003 C 0.99993 0.33798 0.78978 0.0
C1004 C 0.99149 0.33401 0.81122 0.0
C1005 C 0.98712 0.34872 0.77367 0.0
C1006 C 0.93957 0.38592 0.7678 0.0
H1007 H 0.86379 0.38069 0.68202 0.0
H1008 H 0.89373 0.36512 0.70412 0.0
H1009 H 0.91558 0.40969 0.75782 0.0
H1010 H 0.96322 0.33871 0.83271 0.0
H1011 H 0.94094 0.35733 0.80472 0.0
H1012 H 0.95923 0.34452 0.73513 0.0
C1013 C 0.89213 0.38284 0.70318 0.0
C1014 C 0.92528 0.39571 0.75249 0.0
C1015 C 0.87489 0.39177 0.69059 0.0
C1016 C 0.97011 0.34127 0.81629 0.0
C1017 C 0.95743 0.35216 0.80031 0.0
C1018 C 0.95003 0.35895 0.74012 0.0
C1019 C 0.90631 0.39657 0.71539 0.0
C1020 C 0.92288 0.38705 0.73091 0.0
C1021 C 0.96574 0.35597 0.77881 0.0
C1022 C 0.95188 0.36726 0.7619 0.0
H1023 H 0.88435 0.4461 0.70098 0.0
H1024 H 0.91439 0.43051 0.72281 0.0
H1025 H 0.93421 0.36173 0.70824 0.0
H1026 H 0.01629 0.33245 0.78535 0.0
H1027 H 0.994 0.35153 0.75726 0.0
C1028 C 0.39171 0.15839 0.33569 0.0
C1029 C 0.41481 0.15954 0.33571 0.0
C1030 C 0.38082 0.14194 0.32372 0.0
C1031 C 0.38836 0.08785 0.29641 0.0
H1032 H 0.33944 0.10706 0.25968 0.0
C1033 C 0.35092 0.03421 0.22602 0.0
C1034 C 0.32808 0.03549 0.22251 0.0
C1035 C 0.36126 0.04813 0.24139 0.0
C1036 C 0.35283 0.10129 0.27008 0.0
H1037 H 0.44462 0.14377 0.32383 0.0
H1038 H 0.4256 0.11513 0.30292 0.0
H1039 H 0.35764 0.13322 0.28414 0.0
H1040 H 0.29805 0.05153 0.23321 0.0
H1041 H 0.31594 0.07554 0.26012 0.0
H1042 H 0.38357 0.05589 0.28222 0.0
C1043 C 0.4159 0.12689 0.31224 0.0
C1044 C 0.36328 0.11633 0.28412 0.0
C1045 C 0.42679 0.1434 0.32414 0.0
C1046 C 0.31573 0.05047 0.23518 0.0
C1047 C 0.32601 0.06426 0.2506 0.0
C1048 C 0.37783 0.07275 0.2824 0.0
C1049 C 0.39279 0.1262 0.31158 0.0
C1050 C 0.38122 0.10983 0.29739 0.0
C1051 C 0.34895 0.06353 0.25366 0.0
C1052 C 0.35996 0.07931 0.26901 0.0
H1053 H 0.38197 0.1705 0.3445 0.0
H1054 H 0.36299 0.14166 0.3238 0.0
H1055 H 0.402 0.08229 0.3066 0.0
H1056 H 0.36089 0.02296 0.21639 0.0
H1057 H 0.37898 0.04726 0.24314 0.0
C1058 C 0.13902 0.59077 0.69986 0.0
C1059 C 0.15589 0.6029 0.68952 0.0
C1060 C 0.12249 0.60145 0.71194 0.0
C1061 C 0.11315 0.65218 0.74338 0.0
H1062 H 0.05154 0.63565 0.74107 0.0
C1063 C 0.04823 0.70071 0.79231 0.0
C1064 C 0.03152 0.68881 0.80308 0.0
C1065 C 0.06209 0.69046 0.77696 0.0
C1066 C 0.06872 0.64031 0.74209 0.0
H1067 H 0.16814 0.63582 0.68313 0.0
H1068 H 0.13935 0.65438 0.70422 0.0
H1069 H 0.07803 0.61729 0.71672 0.0
H1070 H 0.01596 0.6569 0.80589 0.0
H1071 H 0.04047 0.63876 0.77937 0.0
H1072 H 0.10417 0.67475 0.76902 0.0
C1073 C 0.13903 0.63661 0.70314 0.0
C1074 C 0.08386 0.62982 0.72809 0.0
C1075 C 0.15546 0.62596 0.69095 0.0
C1076 C 0.02861 0.66651 0.79773 0.0
C1077 C 0.04264 0.65615 0.78249 0.0
C1078 C 0.09809 0.66252 0.75745 0.0
C1079 C 0.12257 0.62446 0.71407 0.0
C1080 C 0.10624 0.63571 0.72854 0.0
C1081 C 0.05977 0.66795 0.77214 0.0
C1082 C 0.07565 0.6568 0.75697 0.0
H1083 H 0.13884 0.57298 0.69905 0.0
H1084 H 0.11011 0.59163 0.72028 0.0
H1085 H 0.13034 0.65678 0.74446 0.0
H1086 H 0.05059 0.71802 0.79573 0.0
H1087 H 0.0747 0.70022 0.76891 0.0
C1088 C 0.20767 0.539 0.59225 0.0
C1089 C 0.1874 0.54126 0.60331 0.0
C1090 C 0.20841 0.53199 0.57003 0.0
C1091 C 0.17484 0.52733 0.51892 0.0
H1092 H 0.21582 0.48109 0.50293 0.0
C1093 C 0.16913 0.48346 0.4341 0.0
C1094 C 0.18885 0.47824 0.42309 0.0
C1095 C 0.16937 0.49081 0.45617 0.0
C1096 C 0.20447 0.49421 0.507 0.0
H1097 H 0.152 0.53847 0.59949 0.0
H1098 H 0.1533 0.52648 0.56076 0.0
H1099 H 0.21585 0.4957 0.54081 0.0
H1100 H 0.22431 0.47629 0.42682 0.0
H1101 H 0.22479 0.4895 0.46518 0.0
H1102 H 0.16358 0.5261 0.48517 0.0
C1103 C 0.16862 0.53012 0.56924 0.0
C1104 C 0.20449 0.50258 0.52873 0.0
C1105 C 0.16789 0.53691 0.59148 0.0
C1106 C 0.2088 0.48007 0.43484 0.0
C1107 C 0.20906 0.48759 0.4569 0.0
C1108 C 0.17492 0.5191 0.49717 0.0
C1109 C 0.18889 0.52733 0.55832 0.0
C1110 C 0.18956 0.51911 0.53498 0.0
C1111 C 0.18936 0.49332 0.46778 0.0
C1112 C 0.18961 0.50229 0.49093 0.0
H1113 H 0.22301 0.54218 0.60088 0.0
H1114 H 0.22426 0.53022 0.56199 0.0
H1115 H 0.16334 0.54028 0.52313 0.0
H1116 H 0.15345 0.48209 0.4256 0.0
H1117 H 0.15383 0.49456 0.46412 0.0
C1118 C 0.54423 0.82033 0.42501 0.0
C1119 C 0.53888 0.80063 0.41403 0.0
C1120 C 0.53797 0.82367 0.44722 0.0
C1121 C 0.49722 0.8057 0.48871 0.0
H1122 H 0.53877 0.8278 0.53233 0.0
C1123 C 0.47911 0.80378 0.58325 0.0
C1124 C 0.48757 0.82073 0.59666 0.0
C1125 C 0.4846 0.80253 0.56064 0.0
C1126 C 0.5268 0.82198 0.52032 0.0
H1127 H 0.5229 0.76892 0.41787 0.0
H1128 H 0.51192 0.77484 0.45642 0.0
H1129 H 0.55018 0.82355 0.49362 0.0
H1130 H 0.50771 0.85017 0.59661 0.0
H1131 H 0.51672 0.8484 0.55713 0.0
H1132 H 0.47374 0.80432 0.5152 0.0
C1133 C 0.52086 0.78773 0.44785 0.0
C1134 C 0.53341 0.81948 0.49814 0.0
C1135 C 0.52731 0.7843 0.42579 0.0
C1136 C 0.50106 0.83679 0.58679 0.0
C1137 C 0.50637 0.83567 0.56415 0.0
C1138 C 0.49054 0.8084 0.51083 0.0
C1139 C 0.526 0.80749 0.45878 0.0
C1140 C 0.51876 0.81109 0.48214 0.0
C1141 C 0.49851 0.81833 0.55083 0.0
C1142 C 0.5053 0.81637 0.52701 0.0
H1143 H 0.55312 0.83324 0.41642 0.0
H1144 H 0.54208 0.8391 0.45521 0.0
H1145 H 0.48546 0.79951 0.47667 0.0
H1146 H 0.46877 0.79107 0.59037 0.0
H1147 H 0.47844 0.78877 0.55105 0.0
C1148 C 0.78749 0.53481 0.44037 0.0
C1149 C 0.80503 0.54381 0.4281 0.0
C1150 C 0.79073 0.52724 0.46213 0.0
C1151 C 0.82782 0.53096 0.51076 0.0
H1152 H 0.80202 0.47472 0.52653 0.0
C1153 C 0.84788 0.48803 0.59421 0.0
C1154 C 0.83044 0.47777 0.60556 0.0
C1155 C 0.84514 0.49558 0.57236 0.0
C1156 C 0.80913 0.49057 0.52252 0.0
H1157 H 0.83964 0.55249 0.4294 0.0
H1158 H 0.84527 0.53932 0.4675 0.0
H1159 H 0.79635 0.4897 0.48926 0.0
H1160 H 0.79651 0.46706 0.60266 0.0
H1161 H 0.79162 0.48049 0.56465 0.0
H1162 H 0.84043 0.53197 0.54406 0.0
C1163 C 0.82898 0.53818 0.46024 0.0
C1164 C 0.80589 0.49915 0.50113 0.0
C1165 C 0.82576 0.54568 0.43838 0.0
C1166 C 0.81032 0.47481 0.59437 0.0
C1167 C 0.80754 0.48245 0.57252 0.0
C1168 C 0.83099 0.52242 0.5322 0.0
C1169 C 0.81157 0.52856 0.47223 0.0
C1170 C 0.81516 0.51947 0.495 0.0
C1171 C 0.82486 0.49315 0.56131 0.0
C1172 C 0.82167 0.50211 0.53837 0.0
H1173 H 0.77128 0.53318 0.43303 0.0
H1174 H 0.77689 0.52027 0.47104 0.0
H1175 H 0.83497 0.54677 0.50666 0.0
H1176 H 0.86365 0.49046 0.60227 0.0
H1177 H 0.85897 0.50333 0.56412 0.0
C1178 C 0.47718 0.21315 0.43221 0.0
C1179 C 0.48073 0.19335 0.42069 0.0
C1180 C 0.4842 0.21554 0.45428 0.0
C1181 C 0.50067 0.18448 0.50462 0.0
H1182 H 0.53072 0.23858 0.52017 0.0
C1183 C 0.54255 0.19691 0.59062 0.0
C1184 C 0.5398 0.2176 0.60066 0.0
C1185 C 0.53612 0.19347 0.56845 0.0
C1186 C 0.52216 0.22346 0.51621 0.0
H1187 H 0.49389 0.1603 0.42362 0.0
H1188 H 0.50607 0.16447 0.46214 0.0
H1189 H 0.51693 0.23347 0.4824 0.0
H1190 H 0.52832 0.25097 0.59514 0.0
H1191 H 0.5169 0.24493 0.55684 0.0
H1192 H 0.50568 0.17457 0.53852 0.0
C1193 C 0.49781 0.17813 0.4541 0.0
C1194 C 0.51424 0.22055 0.49454 0.0
C1195 C 0.4909 0.17579 0.43198 0.0
C1196 C 0.53078 0.23483 0.58795 0.0
C1197 C 0.52433 0.2314 0.56587 0.0
C1198 C 0.50851 0.18744 0.52637 0.0
C1199 C 0.49483 0.19814 0.46541 0.0
C1200 C 0.50329 0.20108 0.4885 0.0
C1201 C 0.52679 0.21066 0.55584 0.0
C1202 C 0.51925 0.20704 0.53248 0.0
H1203 H 0.46936 0.227 0.42404 0.0
H1204 H 0.48137 0.23105 0.46264 0.0
H1205 H 0.49214 0.16937 0.50055 0.0
H1206 H 0.54947 0.18329 0.59993 0.0
H1207 H 0.53853 0.17737 0.56118 0.0
C1208 C 0.73219 0.03127 0.08692 0.0
C1209 C 0.71553 0.04169 0.09927 0.0
C1210 C 0.72815 0.02384 0.06527 0.0
C1211 C 0.69123 0.03033 0.01686 0.0
H1212 H 0.71295 0.97243 1.00109 0.0
C1213 C 0.66989 0.98988 0.93243 0.0
C1214 C 0.68692 0.97867 0.92139 0.0
C1215 C 0.67251 0.99685 0.95448 0.0
C1216 C 0.70697 0.98872 1.00511 0.0
H1217 H 0.68168 0.05298 0.09825 0.0
H1218 H 0.67464 0.04003 0.06032 0.0
H1219 H 0.71941 0.98674 0.03845 0.0
H1220 H 0.71996 0.96563 0.92509 0.0
H1221 H 0.72466 0.97803 0.9634 0.0
H1222 H 0.67904 0.03246 0.98344 0.0
C1223 C 0.69086 0.03767 0.06744 0.0
C1224 C 0.71066 0.99693 0.02655 0.0
C1225 C 0.69488 0.04504 0.0892 0.0
C1226 C 0.70646 0.97414 0.93311 0.0
C1227 C 0.70912 0.98119 0.95514 0.0
C1228 C 0.68761 0.02216 0.99536 0.0
C1229 C 0.70737 0.02669 0.05536 0.0
C1230 C 0.70295 0.01788 0.03265 0.0
C1231 C 0.69227 0.99286 0.96605 0.0
C1232 C 0.69553 1.00128 0.98916 0.0
H1233 H 0.74832 0.02848 0.09409 0.0
H1234 H 0.74133 0.0158 0.05629 0.0
H1235 H 0.68527 0.04662 0.02095 0.0
H1236 H 0.65457 0.99355 0.92394 0.0
H1237 H 0.65904 1.00543 0.96246 0.0
C1238 C 0.03557 0.28433 0.94077 0.0
C1239 C 0.0455 0.30105 0.92808 0.0
C1240 C 0.02775 0.28859 0.96221 0.0
C1241 C 0.03238 0.32648 1.00979 0.0
H1242 H 0.97482 0.30339 0.02509 0.0
C1243 C 0.99082 0.34675 0.09386 0.0
C1244 C 0.98013 0.32935 0.10487 0.0
C1245 C 0.99784 0.34444 0.07179 0.0
C1246 C 0.99101 0.30977 0.0212 0.0
H1247 H 0.05558 0.33526 0.92831 0.0
H1248 H 0.042 0.34267 0.96594 0.0
H1249 H 0.9898 0.29695 0.98801 0.0
H1250 H 0.96797 0.29603 0.10109 0.0
H1251 H 0.98046 0.29187 0.06278 0.0
H1252 H 0.03378 0.33899 0.04308 0.0
C1253 C 0.0403 0.32624 0.95921 0.0
C1254 C 0.99959 0.30609 0.99993 0.0
C1255 C 0.04804 0.32201 0.93764 0.0
C1256 C 0.97607 0.3098 0.09309 0.0
C1257 C 0.98317 0.30745 0.07106 0.0
C1258 C 0.02384 0.33007 0.03113 0.0
C1259 C 0.02974 0.30965 0.97158 0.0
C1260 C 0.02044 0.31425 0.99402 0.0
C1261 C 0.99441 0.32463 0.0602 0.0
C1262 C 1.0031 0.32163 0.03717 0.0
H1263 H 0.03341 0.26796 0.93401 0.0
H1264 H 0.02006 0.27535 0.97146 0.0
H1265 H 0.04857 0.33281 1.00581 0.0
H1266 H 0.99411 0.36208 0.1024 0.0
H1267 H 1.00606 0.35816 0.06385 0.0
C1268 C 0.31805 0.05868 0.93942 0.0
C1269 C 0.31588 0.0451 0.9206 0.0
C1270 C 0.31746 0.04968 0.96093 0.0
C1271 C 0.30008 0.99971 0.99217 0.0
H1272 H 0.33959 0.02221 0.03752 0.0
C1273 C 0.31171 0.95714 0.07802 0.0
C1274 C 0.31236 0.97101 0.09675 0.0
C1275 C 0.31219 0.96598 0.05644 0.0
C1276 C 0.32831 0.01586 0.02509 0.0
H1277 H 0.31144 0.01136 0.90971 0.0
H1278 H 0.31079 0.99574 0.947 0.0
H1279 H 0.34007 0.03824 1.00025 0.0
H1280 H 0.31412 1.00508 0.10739 0.0
H1281 H 0.31496 0.02037 0.06991 0.0
H1282 H 0.28848 0.9772 0.01703 0.0
C1283 C 0.31255 0.01338 0.94525 0.0
C1284 C 0.32854 0.0251 1.00372 0.0
C1285 C 0.31305 0.02236 0.92381 0.0
C1286 C 0.31361 0.99388 0.09338 0.0
C1287 C 0.31424 1.00267 0.07186 0.0
C1288 C 0.29993 0.9904 0.01352 0.0
C1289 C 0.31476 0.0269 0.96412 0.0
C1290 C 0.3144 0.01718 0.98697 0.0
C1291 C 0.31351 0.98886 0.05312 0.0
C1292 C 0.314 0.9984 0.03025 0.0
H1293 H 0.32018 0.07627 0.93757 0.0
H1294 H 0.31891 0.06065 0.97507 0.0
H1295 H 0.2887 0.9934 0.97983 0.0
H1296 H 0.31076 0.93947 0.08001 0.0
H1297 H 0.31181 0.95488 0.04234 0.0
C1298 C 0.98274 0.74067 0.93397 0.0
C1299 C 0.97755 0.7218 0.92154 0.0
C1300 C 0.99105 0.73886 0.9556 0.0
C1301 C 0.99685 0.70122 1.00379 0.0
H1302 H 0.04383 0.74146 0.01971 0.0
C1303 C 0.04145 0.69863 0.08972 0.0
C1304 C 0.04381 0.71918 0.10018 0.0
C1305 C 0.03469 0.69732 0.0674 0.0
C1306 C 0.03066 0.73017 0.01557 0.0
H1307 H 0.97641 0.68616 0.92241 0.0
H1308 H 0.99112 0.68298 0.96027 0.0
H1309 H 0.02869 0.74218 0.98214 0.0
H1310 H 0.04147 0.75445 0.09521 0.0
H1311 H 0.02988 0.75216 0.0565 0.0
H1312 H 0.99884 0.68934 0.03742 0.0
C1313 C 0.98861 0.69921 0.95326 0.0
C1314 C 0.02191 0.73062 0.99404 0.0
C1315 C 0.98021 0.70103 0.93155 0.0
C1316 C 0.03983 0.73835 0.0877 0.0
C1317 C 0.03329 0.73705 0.06543 0.0
C1318 C 1.00567 0.70073 0.02538 0.0
C1319 C 0.9945 0.71812 0.96539 0.0
C1320 C 1.00461 0.71646 0.98797 0.0
C1321 C 0.03042 0.71654 0.05505 0.0
C1322 C 0.02241 0.71549 0.03162 0.0
H1323 H 0.98072 0.75693 0.92688 0.0
H1324 H 0.99489 0.75378 0.96463 0.0
H1325 H 0.98347 0.69016 0.99971 0.0
H1326 H 0.04432 0.68355 0.0989 0.0
H1327 H 0.03279 0.68128 0.0598 0.0
loop_
_geom_bond_atom_site_label_1
_geom_bond_atom_site_label_2
_geom_bond_distance
_geom_bond_site_symmetry_2
_ccdc_geom_bond_type
Cu0 N1 1.999 . S
Cu0 O6 1.974 . S
Cu0 N11 1.985 . S
Cu0 O20 1.959 . S
N1 Cu0 1.999 . S
N1 C3 1.263 . S
N1 C5 1.389 . S
N2 C3 1.358 . S
N2 C4 1.400 . S
C3 N1 1.263 . S
C3 N2 1.358 . S
C3 H9 0.930 . S
C4 N2 1.400 . S
C4 C5 1.351 . S
C4 H21 0.930 . S
C5 N1 1.389 . S
C5 C4 1.351 . S
C5 H10 0.930 . S
O6 Cu0 1.974 . S
O6 C16 1.282 . S
C7 O8 1.261 . S
C7 O20 1.251 . S
O8 C7 1.261 . S
H9 C3 0.930 . S
H10 C5 0.930 . S
N11 Cu0 1.985 . S
N11 C13 1.335 . S
N11 C14 1.390 . S
N12 C13 1.345 . S
N12 C15 1.336 . S
C13 N11 1.335 . S
C13 N12 1.345 . S
C13 H18 0.930 . S
C14 N11 1.390 . S
C14 C15 1.346 . S
C14 H19 0.930 . S
C15 N12 1.336 . S
C15 C14 1.346 . S
C15 H22 0.929 . S
C16 O6 1.282 . S
C16 O17 1.216 . S
O17 C16 1.216 . S
H18 C13 0.930 . S
H19 C14 0.930 . S
O20 Cu0 1.959 . S
O20 C7 1.251 . S
H21 C4 0.930 . S
H22 C15 0.929 . S
Cu23 N24 1.999 . S
Cu23 O29 1.974 . S
Cu23 N34 1.985 . S
Cu23 O43 1.959 . S
N24 Cu23 1.999 . S
N24 C26 1.263 . S
N24 C28 1.389 . S
N25 C26 1.358 . S
N25 C27 1.400 . S
C26 N24 1.263 . S
C26 N25 1.358 . S
C26 H32 0.930 . S
C27 N25 1.400 . S
C27 C28 1.351 . S
C27 H44 0.930 . S
C28 N24 1.389 . S
C28 C27 1.351 . S
C28 H33 0.930 . S
O29 Cu23 1.974 . S
O29 C39 1.282 . S
C30 O31 1.261 . S
C30 O43 1.251 . S
O31 C30 1.261 . S
H32 C26 0.930 . S
H33 C28 0.930 . S
N34 Cu23 1.985 . S
N34 C36 1.335 . S
N34 C37 1.390 . S
N35 C36 1.345 . S
N35 C38 1.336 . S
C36 N34 1.335 . S
C36 N35 1.345 . S
C36 H41 0.930 . S
C37 N34 1.390 . S
C37 C38 1.346 . S
C37 H42 0.930 . S
C38 N35 1.336 . S
C38 C37 1.346 . S
C38 H45 0.929 . S
C39 O29 1.282 . S
C39 O40 1.216 . S
O40 C39 1.216 . S
H41 C36 0.930 . S
H42 C37 0.930 . S
O43 Cu23 1.959 . S
O43 C30 1.251 . S
H44 C27 0.930 . S
H45 C38 0.929 . S
Cu46 N47 1.999 . S
Cu46 O52 1.974 . S
Cu46 N57 1.985 . S
Cu46 O66 1.959 . S
N47 Cu46 1.999 . S
N47 C49 1.263 . S
N47 C51 1.389 . S
N48 C49 1.358 . S
N48 C50 1.400 . S
C49 N47 1.263 . S
C49 N48 1.358 . S
C49 H55 0.930 . S
C50 N48 1.400 . S
C50 C51 1.351 . S
C50 H67 0.930 . S
C51 N47 1.389 . S
C51 C50 1.351 . S
C51 H56 0.930 . S
O52 Cu46 1.974 . S
O52 C62 1.282 . S
C53 O54 1.261 . S
C53 O66 1.251 . S
O54 C53 1.261 . S
H55 C49 0.930 . S
H56 C51 0.930 . S
N57 Cu46 1.985 . S
N57 C59 1.335 . S
N57 C60 1.390 . S
N58 C59 1.345 . S
N58 C61 1.336 . S
C59 N57 1.335 . S
C59 N58 1.345 . S
C59 H64 0.930 . S
C60 N57 1.390 . S
C60 C61 1.346 . S
C60 H65 0.930 . S
C61 N58 1.336 . S
C61 C60 1.346 . S
C61 H68 0.929 . S
C62 O52 1.282 . S
C62 O63 1.216 . S
O63 C62 1.216 . S
H64 C59 0.930 . S
H65 C60 0.930 . S
O66 Cu46 1.959 . S
O66 C53 1.251 . S
H67 C50 0.930 . S
H68 C61 0.929 . S
Cu69 N70 1.999 . S
Cu69 O75 1.974 . S
Cu69 N80 1.985 . S
Cu69 O89 1.959 . S
N70 Cu69 1.999 . S
N70 C72 1.263 . S
N70 C74 1.389 . S
N71 C72 1.358 . S
N71 C73 1.400 . S
C72 N70 1.263 . S
C72 N71 1.358 . S
C72 H78 0.930 . S
C73 N71 1.400 . S
C73 C74 1.351 . S
C73 H90 0.930 . S
C74 N70 1.389 . S
C74 C73 1.351 . S
C74 H79 0.930 . S
O75 Cu69 1.974 . S
O75 C85 1.282 . S
C76 O77 1.261 . S
C76 O89 1.251 . S
O77 C76 1.261 . S
H78 C72 0.930 . S
H79 C74 0.930 . S
N80 Cu69 1.985 . S
N80 C82 1.335 . S
N80 C83 1.390 . S
N81 C82 1.345 . S
N81 C84 1.336 . S
C82 N80 1.335 . S
C82 N81 1.345 . S
C82 H87 0.930 . S
C83 N80 1.390 . S
C83 C84 1.346 . S
C83 H88 0.930 . S
C84 N81 1.336 . S
C84 C83 1.346 . S
C84 H91 0.929 . S
C85 O75 1.282 . S
C85 O86 1.216 . S
O86 C85 1.216 . S
H87 C82 0.930 . S
H88 C83 0.930 . S
O89 Cu69 1.959 . S
O89 C76 1.251 . S
H90 C73 0.930 . S
H91 C84 0.929 . S
Cu92 N93 1.999 . S
Cu92 O98 1.974 . S
Cu92 N103 1.985 . S
Cu92 O112 1.959 . S
N93 Cu92 1.999 . S
N93 C95 1.263 . S
N93 C97 1.389 . S
N94 C95 1.358 . S
N94 C96 1.400 . S
C95 N93 1.263 . S
C95 N94 1.358 . S
C95 H101 0.930 . S
C96 N94 1.400 . S
C96 C97 1.351 . S
C96 H113 0.930 . S
C97 N93 1.389 . S
C97 C96 1.351 . S
C97 H102 0.930 . S
O98 Cu92 1.974 . S
O98 C108 1.282 . S
C99 O100 1.261 . S
C99 O112 1.251 . S
O100 C99 1.261 . S
H101 C95 0.930 . S
H102 C97 0.930 . S
N103 Cu92 1.985 . S
N103 C105 1.335 . S
N103 C106 1.390 . S
N104 C105 1.345 . S
N104 C107 1.336 . S
C105 N103 1.335 . S
C105 N104 1.345 . S
C105 H110 0.930 . S
C106 N103 1.390 . S
C106 C107 1.346 . S
C106 H111 0.930 . S
C107 N104 1.336 . S
C107 C106 1.346 . S
C107 H114 0.929 . S
C108 O98 1.282 . S
C108 O109 1.216 . S
O109 C108 1.216 . S
H110 C105 0.930 . S
H111 C106 0.930 . S
O112 Cu92 1.959 . S
O112 C99 1.251 . S
H113 C96 0.930 . S
H114 C107 0.929 . S
Cu115 N116 1.999 . S
Cu115 O121 1.974 . S
Cu115 N126 1.985 . S
Cu115 O135 1.959 . S
N116 Cu115 1.999 . S
N116 C118 1.263 . S
N116 C120 1.389 . S
N117 C118 1.358 . S
N117 C119 1.400 . S
C118 N116 1.263 . S
C118 N117 1.358 . S
C118 H124 0.930 . S
C119 N117 1.400 . S
C119 C120 1.351 . S
C119 H136 0.930 . S
C120 N116 1.389 . S
C120 C119 1.351 . S
C120 H125 0.930 . S
O121 Cu115 1.974 . S
O121 C131 1.282 . S
C122 O123 1.261 . S
C122 O135 1.251 . S
O123 C122 1.261 . S
H124 C118 0.930 . S
H125 C120 0.930 . S
N126 Cu115 1.985 . S
N126 C128 1.335 . S
N126 C129 1.390 . S
N127 C128 1.345 . S
N127 C130 1.336 . S
C128 N126 1.335 . S
C128 N127 1.345 . S
C128 H133 0.930 . S
C129 N126 1.390 . S
C129 C130 1.346 . S
C129 H134 0.930 . S
C130 N127 1.336 . S
C130 C129 1.346 . S
C130 H137 0.929 . S
C131 O121 1.282 . S
C131 O132 1.216 . S
O132 C131 1.216 . S
H133 C128 0.930 . S
H134 C129 0.930 . S
O135 Cu115 1.959 . S
O135 C122 1.251 . S
H136 C119 0.930 . S
H137 C130 0.929 . S
Cu138 N139 1.999 . S
Cu138 O144 1.974 . S
Cu138 N149 1.985 . S
Cu138 O158 1.959 . S
N139 Cu138 1.999 . S
N139 C141 1.263 . S
N139 C143 1.389 . S
N140 C141 1.358 . S
N140 C142 1.400 . S
C141 N139 1.263 . S
C141 N140 1.358 . S
C141 H147 0.930 . S
C142 N140 1.400 . S
C142 C143 1.351 . S
C142 H159 0.930 . S
C143 N139 1.389 . S
C143 C142 1.351 . S
C143 H148 0.930 . S
O144 Cu138 1.974 . S
O144 C154 1.282 . S
C145 O146 1.261 . S
C145 O158 1.251 . S
O146 C145 1.261 . S
H147 C141 0.930 . S
H148 C143 0.930 . S
N149 Cu138 1.985 . S
N149 C151 1.335 . S
N149 C152 1.390 . S
N150 C151 1.345 . S
N150 C153 1.336 . S
C151 N149 1.335 . S
C151 N150 1.345 . S
C151 H156 0.930 . S
C152 N149 1.390 . S
C152 C153 1.346 . S
C152 H157 0.930 . S
C153 N150 1.336 . S
C153 C152 1.346 . S
C153 H160 0.929 . S
C154 O144 1.282 . S
C154 O155 1.216 . S
O155 C154 1.216 . S
H156 C151 0.930 . S
H157 C152 0.930 . S
O158 Cu138 1.959 . S
O158 C145 1.251 . S
H159 C142 0.930 . S
H160 C153 0.929 . S
Cu161 N162 1.999 . S
Cu161 O167 1.974 . S
Cu161 N172 1.985 . S
Cu161 O181 1.959 . S
N162 Cu161 1.999 . S
N162 C164 1.263 . S
N162 C166 1.389 . S
N163 C164 1.358 . S
N163 C165 1.400 . S
C164 N162 1.263 . S
C164 N163 1.358 . S
C164 H170 0.930 . S
C165 N163 1.400 . S
C165 C166 1.351 . S
C165 H182 0.930 . S
C166 N162 1.389 . S
C166 C165 1.351 . S
C166 H171 0.930 . S
O167 Cu161 1.974 . S
O167 C177 1.282 . S
C168 O169 1.261 . S
C168 O181 1.251 . S
O169 C168 1.261 . S
H170 C164 0.930 . S
H171 C166 0.930 . S
N172 Cu161 1.985 . S
N172 C174 1.335 . S
N172 C175 1.390 . S
N173 C174 1.345 . S
N173 C176 1.336 . S
C174 N172 1.335 . S
C174 N173 1.345 . S
C174 H179 0.930 . S
C175 N172 1.390 . S
C175 C176 1.346 . S
C175 H180 0.930 . S
C176 N173 1.336 . S
C176 C175 1.346 . S
C176 H183 0.929 . S
C177 O167 1.282 . S
C177 O178 1.216 . S
O178 C177 1.216 . S
H179 C174 0.930 . S
H180 C175 0.930 . S
O181 Cu161 1.959 . S
O181 C168 1.251 . S
H182 C165 0.930 . S
H183 C176 0.929 . S
Cu184 N185 1.999 . S
Cu184 O190 1.974 . S
Cu184 N195 1.985 . S
Cu184 O204 1.959 . S
N185 Cu184 1.999 . S
N185 C187 1.263 . S
N185 C189 1.389 1_565 S
N186 C187 1.358 1_545 S
N186 C188 1.400 . S
C187 N185 1.263 . S
C187 N186 1.358 1_565 S
C187 H193 0.930 . S
C188 N186 1.400 . S
C188 C189 1.351 . S
C188 H205 0.930 . S
C189 N185 1.389 1_545 S
C189 C188 1.351 . S
C189 H194 0.930 . S
O190 Cu184 1.974 . S
O190 C200 1.282 . S
C191 O192 1.261 . S
C191 O204 1.251 . S
O192 C191 1.261 . S
H193 C187 0.930 . S
H194 C189 0.930 . S
N195 Cu184 1.985 . S
N195 C197 1.335 . S
N195 C198 1.390 . S
N196 C197 1.345 . S
N196 C199 1.336 . S
C197 N195 1.335 . S
C197 N196 1.345 . S
C197 H202 0.930 . S
C198 N195 1.390 . S
C198 C199 1.346 . S
C198 H203 0.930 . S
C199 N196 1.336 . S
C199 C198 1.346 . S
C199 H206 0.929 . S
C200 O190 1.282 . S
C200 O201 1.216 . S
O201 C200 1.216 . S
H202 C197 0.930 . S
H203 C198 0.930 . S
O204 Cu184 1.959 . S
O204 C191 1.251 . S
H205 C188 0.930 . S
H206 C199 0.929 . S
Cu207 N208 1.999 . S
Cu207 O213 1.974 . S
Cu207 N218 1.985 . S
Cu207 O227 1.959 . S
N208 Cu207 1.999 . S
N208 C210 1.263 . S
N208 C212 1.389 1_655 S
N209 C210 1.358 1_455 S
N209 C211 1.400 . S
C210 N208 1.263 . S
C210 N209 1.358 1_655 S
C210 H216 0.930 . S
C211 N209 1.400 . S
C211 C212 1.351 . S
C211 H228 0.930 . S
C212 N208 1.389 1_455 S
C212 C211 1.351 . S
C212 H217 0.930 . S
O213 Cu207 1.974 . S
O213 C223 1.282 . S
C214 O215 1.261 . S
C214 O227 1.251 . S
O215 C214 1.261 . S
H216 C210 0.930 . S
H217 C212 0.930 . S
N218 Cu207 1.985 . S
N218 C220 1.335 . S
N218 C221 1.390 . S
N219 C220 1.345 . S
N219 C222 1.336 . S
C220 N218 1.335 . S
C220 N219 1.345 . S
C220 H225 0.930 . S
C221 N218 1.390 . S
C221 C222 1.346 . S
C221 H226 0.930 . S
C222 N219 1.336 . S
C222 C221 1.346 . S
C222 H229 0.929 . S
C223 O213 1.282 . S
C223 O224 1.216 . S
O224 C223 1.216 . S
H225 C220 0.930 . S
H226 C221 0.930 . S
O227 Cu207 1.959 . S
O227 C214 1.251 . S
H228 C211 0.930 . S
H229 C222 0.929 . S
Cu230 N231 1.999 . S
Cu230 O236 1.974 . S
Cu230 N241 1.985 . S
Cu230 O250 1.959 . S
N231 Cu230 1.999 . S
N231 C233 1.263 . S
N231 C235 1.389 1_545 S
N232 C233 1.358 1_565 S
N232 C234 1.400 . S
C233 N231 1.263 . S
C233 N232 1.358 1_545 S
C233 H239 0.930 . S
C234 N232 1.400 . S
C234 C235 1.351 . S
C234 H251 0.930 . S
C235 N231 1.389 1_565 S
C235 C234 1.351 . S
C235 H240 0.930 . S
O236 Cu230 1.974 . S
O236 C246 1.282 . S
C237 O238 1.261 . S
C237 O250 1.251 . S
O238 C237 1.261 . S
H239 C233 0.930 . S
H240 C235 0.930 . S
N241 Cu230 1.985 . S
N241 C243 1.335 . S
N241 C244 1.390 . S
N242 C243 1.345 . S
N242 C245 1.336 . S
C243 N241 1.335 . S
C243 N242 1.345 . S
C243 H248 0.930 . S
C244 N241 1.390 . S
C244 C245 1.346 . S
C244 H249 0.930 . S
C245 N242 1.336 . S
C245 C244 1.346 . S
C245 H252 0.929 . S
C246 O236 1.282 . S
C246 O247 1.216 . S
O247 C246 1.216 . S
H248 C243 0.930 . S
H249 C244 0.930 . S
O250 Cu230 1.959 . S
O250 C237 1.251 . S
H251 C234 0.930 . S
H252 C245 0.929 . S
Cu253 N254 1.999 . S
Cu253 O259 1.974 . S
Cu253 N264 1.985 . S
Cu253 O273 1.959 . S
N254 Cu253 1.999 . S
N254 C256 1.263 . S
N254 C258 1.389 1_455 S
N255 C256 1.358 1_655 S
N255 C257 1.400 . S
C256 N254 1.263 . S
C256 N255 1.358 1_455 S
C256 H262 0.930 . S
C257 N255 1.400 . S
C257 C258 1.351 . S
C257 H274 0.930 . S
C258 N254 1.389 1_655 S
C258 C257 1.351 . S
C258 H263 0.930 . S
O259 Cu253 1.974 . S
O259 C269 1.282 . S
C260 O261 1.261 . S
C260 O273 1.251 . S
O261 C260 1.261 . S
H262 C256 0.930 . S
H263 C258 0.930 . S
N264 Cu253 1.985 . S
N264 C266 1.335 . S
N264 C267 1.390 . S
N265 C266 1.345 . S
N265 C268 1.336 . S
C266 N264 1.335 . S
C266 N265 1.345 . S
C266 H271 0.930 . S
C267 N264 1.390 . S
C267 C268 1.346 . S
C267 H272 0.930 . S
C268 N265 1.336 . S
C268 C267 1.346 . S
C268 H275 0.929 . S
C269 O259 1.282 . S
C269 O270 1.216 . S
O270 C269 1.216 . S
H271 C266 0.930 . S
H272 C267 0.930 . S
O273 Cu253 1.959 . S
O273 C260 1.251 . S
H274 C257 0.930 . S
H275 C268 0.929 . S
Cu276 N277 1.999 . S
Cu276 O282 1.974 . S
Cu276 N287 1.985 . S
Cu276 O296 1.959 . S
N277 Cu276 1.999 . S
N277 C279 1.263 . S
N277 C281 1.389 1_545 S
N278 C279 1.358 1_565 S
N278 C280 1.400 . S
C279 N277 1.263 . S
C279 N278 1.358 1_545 S
C279 H285 0.930 . S
C280 N278 1.400 . S
C280 C281 1.351 . S
C280 H297 0.930 . S
C281 N277 1.389 1_565 S
C281 C280 1.351 . S
C281 H286 0.930 . S
O282 Cu276 1.974 . S
O282 C292 1.282 . S
C283 O284 1.261 . S
C283 O296 1.251 . S
O284 C283 1.261 . S
H285 C279 0.930 . S
H286 C281 0.930 . S
N287 Cu276 1.985 . S
N287 C289 1.335 . S
N287 C290 1.390 . S
N288 C289 1.345 . S
N288 C291 1.336 . S
C289 N287 1.335 . S
C289 N288 1.345 . S
C289 H294 0.930 . S
C290 N287 1.390 . S
C290 C291 1.346 . S
C290 H295 0.930 . S
C291 N288 1.336 . S
C291 C290 1.346 . S
C291 H298 0.929 . S
C292 O282 1.282 . S
C292 O293 1.216 . S
O293 C292 1.216 . S
H294 C289 0.930 . S
H295 C290 0.930 . S
O296 Cu276 1.959 . S
O296 C283 1.251 . S
H297 C280 0.930 . S
H298 C291 0.929 . S
Cu299 N300 1.999 . S
Cu299 O305 1.974 . S
Cu299 N310 1.985 . S
Cu299 O319 1.959 . S
N300 Cu299 1.999 . S
N300 C302 1.263 . S
N300 C304 1.389 1_455 S
N301 C302 1.358 1_655 S
N301 C303 1.400 . S
C302 N300 1.263 . S
C302 N301 1.358 1_455 S
C302 H308 0.930 . S
C303 N301 1.400 . S
C303 C304 1.351 . S
C303 H320 0.930 . S
C304 N300 1.389 1_655 S
C304 C303 1.351 . S
C304 H309 0.930 . S
O305 Cu299 1.974 . S
O305 C315 1.282 . S
C306 O307 1.261 . S
C306 O319 1.251 . S
O307 C306 1.261 . S
H308 C302 0.930 . S
H309 C304 0.930 . S
N310 Cu299 1.985 . S
N310 C312 1.335 . S
N310 C313 1.390 . S
N311 C312 1.345 . S
N311 C314 1.336 . S
C312 N310 1.335 . S
C312 N311 1.345 . S
C312 H317 0.930 . S
C313 N310 1.390 . S
C313 C314 1.346 . S
C313 H318 0.930 . S
C314 N311 1.336 . S
C314 C313 1.346 . S
C314 H321 0.929 . S
C315 O305 1.282 . S
C315 O316 1.216 . S
O316 C315 1.216 . S
H317 C312 0.930 . S
H318 C313 0.930 . S
O319 Cu299 1.959 . S
O319 C306 1.251 . S
H320 C303 0.930 . S
H321 C314 0.929 . S
Cu322 N323 1.999 . S
Cu322 O328 1.974 . S
Cu322 N333 1.985 . S
Cu322 O342 1.959 . S
N323 Cu322 1.999 . S
N323 C325 1.263 . S
N323 C327 1.389 1_565 S
N324 C325 1.358 1_545 S
N324 C326 1.400 . S
C325 N323 1.263 . S
C325 N324 1.358 1_565 S
C325 H331 0.930 . S
C326 N324 1.400 . S
C326 C327 1.351 . S
C326 H343 0.930 . S
C327 N323 1.389 1_545 S
C327 C326 1.351 . S
C327 H332 0.930 . S
O328 Cu322 1.974 . S
O328 C338 1.282 . S
C329 O330 1.261 . S
C329 O342 1.251 . S
O330 C329 1.261 . S
H331 C325 0.930 . S
H332 C327 0.930 . S
N333 Cu322 1.985 . S
N333 C335 1.335 . S
N333 C336 1.390 . S
N334 C335 1.345 . S
N334 C337 1.336 . S
C335 N333 1.335 . S
C335 N334 1.345 . S
C335 H340 0.930 . S
C336 N333 1.390 . S
C336 C337 1.346 . S
C336 H341 0.930 . S
C337 N334 1.336 . S
C337 C336 1.346 . S
C337 H344 0.929 . S
C338 O328 1.282 . S
C338 O339 1.216 . S
O339 C338 1.216 . S
H340 C335 0.930 . S
H341 C336 0.930 . S
O342 Cu322 1.959 . S
O342 C329 1.251 . S
H343 C326 0.930 . S
H344 C337 0.929 . S
Cu345 N346 1.999 . S
Cu345 O351 1.974 . S
Cu345 N356 1.985 . S
Cu345 O365 1.959 . S
N346 Cu345 1.999 . S
N346 C348 1.263 . S
N346 C350 1.389 1_655 S
N347 C348 1.358 1_455 S
N347 C349 1.400 . S
C348 N346 1.263 . S
C348 N347 1.358 1_655 S
C348 H354 0.930 . S
C349 N347 1.400 . S
C349 C350 1.351 . S
C349 H366 0.930 . S
C350 N346 1.389 1_455 S
C350 C349 1.351 . S
C350 H355 0.930 . S
O351 Cu345 1.974 . S
O351 C361 1.282 . S
C352 O353 1.261 . S
C352 O365 1.251 . S
O353 C352 1.261 . S
H354 C348 0.930 . S
H355 C350 0.930 . S
N356 Cu345 1.985 . S
N356 C358 1.335 . S
N356 C359 1.390 . S
N357 C358 1.345 . S
N357 C360 1.336 . S
C358 N356 1.335 . S
C358 N357 1.345 . S
C358 H363 0.930 . S
C359 N356 1.390 . S
C359 C360 1.346 . S
C359 H364 0.930 . S
C360 N357 1.336 . S
C360 C359 1.346 . S
C360 H367 0.929 . S
C361 O351 1.282 . S
C361 O362 1.216 . S
O362 C361 1.216 . S
H363 C358 0.930 . S
H364 C359 0.930 . S
O365 Cu345 1.959 . S
O365 C352 1.251 . S
H366 C349 0.930 . S
H367 C360 0.929 . S
C368 C369 1.349 . S
C368 C370 1.327 . S
C368 H393 0.950 . S
C369 C368 1.349 . S
C369 C385 1.349 . S
C370 C368 1.327 . S
C370 C389 1.429 . S
C370 H394 0.950 . S
C371 C388 1.574 . S
C371 C390 1.368 . S
C371 H395 0.949 . S
H372 C376 0.949 . S
C373 C374 1.349 . S
C373 C375 1.327 . S
C373 H396 0.950 . S
C374 C373 1.349 . S
C374 C386 1.349 . S
C375 C373 1.327 . S
C375 C391 1.429 . S
C375 H397 0.950 . S
C376 H372 0.949 . S
C376 C384 1.574 . S
C376 C392 1.368 . S
H377 C385 0.950 . S
H378 C383 0.950 . S
H379 C384 0.949 . S
H380 C386 0.950 . S
H381 C387 0.950 . S
H382 C388 0.949 . S
C383 H378 0.950 . S
C383 C385 1.327 . S
C383 C389 1.429 . S
C384 C376 1.574 . S
C384 H379 0.949 . S
C384 C390 1.368 . S
C385 C369 1.349 . S
C385 H377 0.950 . S
C385 C383 1.327 . S
C386 C374 1.349 . S
C386 H380 0.950 . S
C386 C387 1.327 . S
C387 H381 0.950 . S
C387 C386 1.327 . S
C387 C391 1.429 . S
C388 C371 1.574 . S
C388 H382 0.949 . S
C388 C392 1.368 . S
C389 C370 1.429 . S
C389 C383 1.429 . S
C389 C390 1.523 . S
C390 C371 1.368 . S
C390 C384 1.368 . S
C390 C389 1.523 . S
C391 C375 1.429 . S
C391 C387 1.429 . S
C391 C392 1.523 . S
C392 C376 1.368 . S
C392 C388 1.368 . S
C392 C391 1.523 . S
H393 C368 0.950 . S
H394 C370 0.950 . S
H395 C371 0.949 . S
H396 C373 0.950 . S
H397 C375 0.950 . S
C398 C399 1.349 . S
C398 C400 1.327 . S
C398 H423 0.950 . S
C399 C398 1.349 . S
C399 C415 1.349 . S
C400 C398 1.327 . S
C400 C419 1.429 . S
C400 H424 0.950 . S
C401 C418 1.574 . S
C401 C420 1.368 . S
C401 H425 0.949 . S
H402 C406 0.949 . S
C403 C404 1.349 . S
C403 C405 1.327 . S
C403 H426 0.950 . S
C404 C403 1.349 . S
C404 C416 1.349 . S
C405 C403 1.327 . S
C405 C421 1.429 . S
C405 H427 0.950 . S
C406 H402 0.949 . S
C406 C414 1.574 . S
C406 C422 1.368 . S
H407 C415 0.950 . S
H408 C413 0.950 . S
H409 C414 0.949 . S
H410 C416 0.950 . S
H411 C417 0.950 . S
H412 C418 0.949 . S
C413 H408 0.950 . S
C413 C415 1.327 . S
C413 C419 1.429 . S
C414 C406 1.574 . S
C414 H409 0.949 . S
C414 C420 1.368 . S
C415 C399 1.349 . S
C415 H407 0.950 . S
C415 C413 1.327 . S
C416 C404 1.349 . S
C416 H410 0.950 . S
C416 C417 1.327 . S
C417 H411 0.950 . S
C417 C416 1.327 . S
C417 C421 1.429 . S
C418 C401 1.574 . S
C418 H412 0.949 . S
C418 C422 1.368 . S
C419 C400 1.429 . S
C419 C413 1.429 . S
C419 C420 1.523 . S
C420 C401 1.368 . S
C420 C414 1.368 . S
C420 C419 1.523 . S
C421 C405 1.429 . S
C421 C417 1.429 . S
C421 C422 1.523 . S
C422 C406 1.368 . S
C422 C418 1.368 . S
C422 C421 1.523 . S
H423 C398 0.950 . S
H424 C400 0.950 . S
H425 C401 0.949 . S
H426 C403 0.950 . S
H427 C405 0.950 . S
C428 C429 1.349 . S
C428 C430 1.327 . S
C428 H453 0.950 . S
C429 C428 1.349 . S
C429 C445 1.349 . S
C430 C428 1.327 . S
C430 C449 1.429 . S
C430 H454 0.950 . S
C431 C448 1.574 . S
C431 C450 1.368 . S
C431 H455 0.949 . S
H432 C436 0.949 . S
C433 C434 1.349 . S
C433 C435 1.327 . S
C433 H456 0.950 . S
C434 C433 1.349 . S
C434 C446 1.349 . S
C435 C433 1.327 . S
C435 C451 1.429 . S
C435 H457 0.950 . S
C436 H432 0.949 . S
C436 C444 1.574 . S
C436 C452 1.368 . S
H437 C445 0.950 . S
H438 C443 0.950 . S
H439 C444 0.949 . S
H440 C446 0.950 . S
H441 C447 0.950 . S
H442 C448 0.949 . S
C443 H438 0.950 . S
C443 C445 1.327 . S
C443 C449 1.429 . S
C444 C436 1.574 . S
C444 H439 0.949 . S
C444 C450 1.368 . S
C445 C429 1.349 . S
C445 H437 0.950 . S
C445 C443 1.327 . S
C446 C434 1.349 . S
C446 H440 0.950 . S
C446 C447 1.327 . S
C447 H441 0.950 . S
C447 C446 1.327 . S
C447 C451 1.429 . S
C448 C431 1.574 . S
C448 H442 0.949 . S
C448 C452 1.368 . S
C449 C430 1.429 . S
C449 C443 1.429 . S
C449 C450 1.523 . S
C450 C431 1.368 . S
C450 C444 1.368 . S
C450 C449 1.523 . S
C451 C435 1.429 . S
C451 C447 1.429 . S
C451 C452 1.523 . S
C452 C436 1.368 . S
C452 C448 1.368 . S
C452 C451 1.523 . S
H453 C428 0.950 . S
H454 C430 0.950 . S
H455 C431 0.949 . S
H456 C433 0.950 . S
H457 C435 0.950 . S
C458 C459 1.349 . S
C458 C460 1.327 . S
C458 H483 0.950 . S
C459 C458 1.349 . S
C459 C475 1.349 . S
C460 C458 1.327 . S
C460 C479 1.429 . S
C460 H484 0.950 . S
C461 C478 1.574 . S
C461 C480 1.368 . S
C461 H485 0.949 . S
H462 C466 0.949 . S
C463 C464 1.349 . S
C463 C465 1.327 . S
C463 H486 0.950 . S
C464 C463 1.349 . S
C464 C476 1.349 . S
C465 C463 1.327 . S
C465 C481 1.429 . S
C465 H487 0.950 . S
C466 H462 0.949 . S
C466 C474 1.574 . S
C466 C482 1.368 . S
H467 C475 0.950 . S
H468 C473 0.950 . S
H469 C474 0.949 . S
H470 C476 0.950 . S
H471 C477 0.950 . S
H472 C478 0.949 . S
C473 H468 0.950 . S
C473 C475 1.327 . S
C473 C479 1.429 . S
C474 C466 1.574 . S
C474 H469 0.949 . S
C474 C480 1.368 . S
C475 C459 1.349 . S
C475 H467 0.950 . S
C475 C473 1.327 . S
C476 C464 1.349 . S
C476 H470 0.950 . S
C476 C477 1.327 . S
C477 H471 0.950 . S
C477 C476 1.327 . S
C477 C481 1.429 . S
C478 C461 1.574 . S
C478 H472 0.949 . S
C478 C482 1.368 . S
C479 C460 1.429 . S
C479 C473 1.429 . S
C479 C480 1.523 . S
C480 C461 1.368 . S
C480 C474 1.368 . S
C480 C479 1.523 . S
C481 C465 1.429 . S
C481 C477 1.429 . S
C481 C482 1.523 . S
C482 C466 1.368 . S
C482 C478 1.368 . S
C482 C481 1.523 . S
H483 C458 0.950 . S
H484 C460 0.950 . S
H485 C461 0.949 . S
H486 C463 0.950 . S
H487 C465 0.950 . S
C488 C489 1.349 . S
C488 C490 1.327 . S
C488 H513 0.950 . S
C489 C488 1.349 . S
C489 C505 1.349 . S
C490 C488 1.327 . S
C490 C509 1.429 . S
C490 H514 0.950 . S
C491 C508 1.574 . S
C491 C510 1.368 . S
C491 H515 0.949 . S
H492 C496 0.949 . S
C493 C494 1.349 . S
C493 C495 1.327 . S
C493 H516 0.950 . S
C494 C493 1.349 . S
C494 C506 1.349 . S
C495 C493 1.327 . S
C495 C511 1.429 . S
C495 H517 0.950 . S
C496 H492 0.949 . S
C496 C504 1.574 . S
C496 C512 1.368 . S
H497 C505 0.950 . S
H498 C503 0.950 . S
H499 C504 0.949 . S
H500 C506 0.950 . S
H501 C507 0.950 . S
H502 C508 0.949 . S
C503 H498 0.950 . S
C503 C505 1.327 . S
C503 C509 1.429 . S
C504 C496 1.574 . S
C504 H499 0.949 . S
C504 C510 1.368 . S
C505 C489 1.349 . S
C505 H497 0.950 . S
C505 C503 1.327 . S
C506 C494 1.349 . S
C506 H500 0.950 . S
C506 C507 1.327 . S
C507 H501 0.950 . S
C507 C506 1.327 . S
C507 C511 1.429 . S
C508 C491 1.574 . S
C508 H502 0.949 . S
C508 C512 1.368 . S
C509 C490 1.429 . S
C509 C503 1.429 . S
C509 C510 1.523 . S
C510 C491 1.368 . S
C510 C504 1.368 . S
C510 C509 1.523 . S
C511 C495 1.429 . S
C511 C507 1.429 . S
C511 C512 1.523 . S
C512 C496 1.368 . S
C512 C508 1.368 . S
C512 C511 1.523 . S
H513 C488 0.950 . S
H514 C490 0.950 . S
H515 C491 0.949 . S
H516 C493 0.950 . S
H517 C495 0.950 . S
C518 C519 1.349 . S
C518 C520 1.327 . S
C518 H543 0.950 . S
C519 C518 1.349 . S
C519 C535 1.349 . S
C520 C518 1.327 . S
C520 C539 1.429 . S
C520 H544 0.950 . S
C521 C538 1.574 . S
C521 C540 1.368 . S
C521 H545 0.949 . S
H522 C526 0.949 . S
C523 C524 1.349 . S
C523 C525 1.327 . S
C523 H546 0.950 . S
C524 C523 1.349 . S
C524 C536 1.349 . S
C525 C523 1.327 . S
C525 C541 1.429 . S
C525 H547 0.950 . S
C526 H522 0.949 . S
C526 C534 1.574 . S
C526 C542 1.368 . S
H527 C535 0.950 . S
H528 C533 0.950 . S
H529 C534 0.949 . S
H530 C536 0.950 . S
H531 C537 0.950 . S
H532 C538 0.949 . S
C533 H528 0.950 . S
C533 C535 1.327 . S
C533 C539 1.429 . S
C534 C526 1.574 . S
C534 H529 0.949 . S
C534 C540 1.368 . S
C535 C519 1.349 . S
C535 H527 0.950 . S
C535 C533 1.327 . S
C536 C524 1.349 . S
C536 H530 0.950 . S
C536 C537 1.327 . S
C537 H531 0.950 . S
C537 C536 1.327 . S
C537 C541 1.429 . S
C538 C521 1.574 . S
C538 H532 0.949 . S
C538 C542 1.368 . S
C539 C520 1.429 . S
C539 C533 1.429 . S
C539 C540 1.523 . S
C540 C521 1.368 . S
C540 C534 1.368 . S
C540 C539 1.523 . S
C541 C525 1.429 . S
C541 C537 1.429 . S
C541 C542 1.523 . S
C542 C526 1.368 . S
C542 C538 1.368 . S
C542 C541 1.523 . S
H543 C518 0.950 . S
H544 C520 0.950 . S
H545 C521 0.949 . S
H546 C523 0.950 . S
H547 C525 0.950 . S
C548 C549 1.349 . S
C548 C550 1.327 . S
C548 H573 0.950 . S
C549 C548 1.349 . S
C549 C565 1.349 . S
C550 C548 1.327 . S
C550 C569 1.429 . S
C550 H574 0.950 . S
C551 C568 1.574 . S
C551 C570 1.368 . S
C551 H575 0.949 . S
H552 C556 0.949 . S
C553 C554 1.349 . S
C553 C555 1.327 . S
C553 H576 0.950 . S
C554 C553 1.349 . S
C554 C566 1.349 . S
C555 C553 1.327 . S
C555 C571 1.429 . S
C555 H577 0.950 . S
C556 H552 0.949 . S
C556 C564 1.574 . S
C556 C572 1.368 . S
H557 C565 0.950 . S
H558 C563 0.950 . S
H559 C564 0.949 . S
H560 C566 0.950 . S
H561 C567 0.950 . S
H562 C568 0.949 . S
C563 H558 0.950 . S
C563 C565 1.327 . S
C563 C569 1.429 . S
C564 C556 1.574 . S
C564 H559 0.949 . S
C564 C570 1.368 . S
C565 C549 1.349 . S
C565 H557 0.950 . S
C565 C563 1.327 . S
C566 C554 1.349 . S
C566 H560 0.950 . S
C566 C567 1.327 . S
C567 H561 0.950 . S
C567 C566 1.327 . S
C567 C571 1.429 . S
C568 C551 1.574 . S
C568 H562 0.949 . S
C568 C572 1.368 . S
C569 C550 1.429 . S
C569 C563 1.429 . S
C569 C570 1.523 . S
C570 C551 1.368 . S
C570 C564 1.368 . S
C570 C569 1.523 . S
C571 C555 1.429 . S
C571 C567 1.429 . S
C571 C572 1.523 . S
C572 C556 1.368 . S
C572 C568 1.368 . S
C572 C571 1.523 . S
H573 C548 0.950 . S
H574 C550 0.950 . S
H575 C551 0.949 . S
H576 C553 0.950 . S
H577 C555 0.950 . S
C578 C579 1.349 . S
C578 C580 1.327 . S
C578 H603 0.950 . S
C579 C578 1.349 . S
C579 C595 1.349 . S
C580 C578 1.327 . S
C580 C599 1.429 . S
C580 H604 0.950 . S
C581 C598 1.574 . S
C581 C600 1.368 . S
C581 H605 0.949 . S
H582 C586 0.949 . S
C583 C584 1.349 . S
C583 C585 1.327 . S
C583 H606 0.950 . S
C584 C583 1.349 . S
C584 C596 1.349 . S
C585 C583 1.327 . S
C585 C601 1.429 . S
C585 H607 0.950 . S
C586 H582 0.949 . S
C586 C594 1.574 . S
C586 C602 1.368 . S
H587 C595 0.950 . S
H588 C593 0.950 . S
H589 C594 0.949 . S
H590 C596 0.950 . S
H591 C597 0.950 . S
H592 C598 0.949 . S
C593 H588 0.950 . S
C593 C595 1.327 . S
C593 C599 1.429 . S
C594 C586 1.574 . S
C594 H589 0.949 . S
C594 C600 1.368 . S
C595 C579 1.349 . S
C595 H587 0.950 . S
C595 C593 1.327 . S
C596 C584 1.349 . S
C596 H590 0.950 . S
C596 C597 1.327 . S
C597 H591 0.950 . S
C597 C596 1.327 . S
C597 C601 1.429 . S
C598 C581 1.574 . S
C598 H592 0.949 . S
C598 C602 1.368 . S
C599 C580 1.429 . S
C599 C593 1.429 . S
C599 C600 1.523 . S
C600 C581 1.368 . S
C600 C594 1.368 . S
C600 C599 1.523 . S
C601 C585 1.429 . S
C601 C597 1.429 . S
C601 C602 1.523 . S
C602 C586 1.368 . S
C602 C598 1.368 . S
C602 C601 1.523 . S
H603 C578 0.950 . S
H604 C580 0.950 . S
H605 C581 0.949 . S
H606 C583 0.950 . S
H607 C585 0.950 . S
C608 C609 1.349 . S
C608 C610 1.327 . S
C608 H633 0.950 . S
C609 C608 1.349 . S
C609 C625 1.349 . S
C610 C608 1.327 . S
C610 C629 1.429 . S
C610 H634 0.950 . S
C611 C628 1.574 . S
C611 C630 1.368 . S
C611 H635 0.949 . S
H612 C616 0.949 . S
C613 C614 1.349 . S
C613 C615 1.327 . S
C613 H636 0.950 . S
C614 C613 1.349 . S
C614 C626 1.349 . S
C615 C613 1.327 . S
C615 C631 1.429 . S
C615 H637 0.950 . S
C616 H612 0.949 . S
C616 C624 1.574 . S
C616 C632 1.368 . S
H617 C625 0.950 . S
H618 C623 0.950 . S
H619 C624 0.949 . S
H620 C626 0.950 . S
H621 C627 0.950 . S
H622 C628 0.949 . S
C623 H618 0.950 . S
C623 C625 1.327 . S
C623 C629 1.429 . S
C624 C616 1.574 . S
C624 H619 0.949 . S
C624 C630 1.368 . S
C625 C609 1.349 . S
C625 H617 0.950 . S
C625 C623 1.327 . S
C626 C614 1.349 . S
C626 H620 0.950 . S
C626 C627 1.327 . S
C627 H621 0.950 . S
C627 C626 1.327 . S
C627 C631 1.429 . S
C628 C611 1.574 . S
C628 H622 0.949 . S
C628 C632 1.368 . S
C629 C610 1.429 . S
C629 C623 1.429 . S
C629 C630 1.523 . S
C630 C611 1.368 . S
C630 C624 1.368 . S
C630 C629 1.523 . S
C631 C615 1.429 . S
C631 C627 1.429 . S
C631 C632 1.523 . S
C632 C616 1.368 . S
C632 C628 1.368 . S
C632 C631 1.523 . S
H633 C608 0.950 . S
H634 C610 0.950 . S
H635 C611 0.949 . S
H636 C613 0.950 . S
H637 C615 0.950 . S
C638 C639 1.349 . S
C638 C640 1.327 . S
C638 H663 0.950 . S
C639 C638 1.349 . S
C639 C655 1.349 . S
C640 C638 1.327 . S
C640 C659 1.429 . S
C640 H664 0.950 . S
C641 C658 1.574 . S
C641 C660 1.368 . S
C641 H665 0.949 . S
H642 C646 0.949 . S
C643 C644 1.349 . S
C643 C645 1.327 . S
C643 H666 0.950 . S
C644 C643 1.349 . S
C644 C656 1.349 . S
C645 C643 1.327 . S
C645 C661 1.429 . S
C645 H667 0.950 . S
C646 H642 0.949 . S
C646 C654 1.574 . S
C646 C662 1.368 . S
H647 C655 0.950 . S
H648 C653 0.950 . S
H649 C654 0.949 . S
H650 C656 0.950 . S
H651 C657 0.950 . S
H652 C658 0.949 . S
C653 H648 0.950 . S
C653 C655 1.327 . S
C653 C659 1.429 . S
C654 C646 1.574 . S
C654 H649 0.949 . S
C654 C660 1.368 . S
C655 C639 1.349 . S
C655 H647 0.950 . S
C655 C653 1.327 . S
C656 C644 1.349 . S
C656 H650 0.950 . S
C656 C657 1.327 . S
C657 H651 0.950 . S
C657 C656 1.327 . S
C657 C661 1.429 . S
C658 C641 1.574 . S
C658 H652 0.949 . S
C658 C662 1.368 . S
C659 C640 1.429 . S
C659 C653 1.429 . S
C659 C660 1.523 . S
C660 C641 1.368 . S
C660 C654 1.368 . S
C660 C659 1.523 . S
C661 C645 1.429 . S
C661 C657 1.429 . S
C661 C662 1.523 . S
C662 C646 1.368 . S
C662 C658 1.368 . S
C662 C661 1.523 . S
H663 C638 0.950 . S
H664 C640 0.950 . S
H665 C641 0.949 . S
H666 C643 0.950 . S
H667 C645 0.950 . S
C668 C669 1.349 . S
C668 C670 1.327 . S
C668 H693 0.950 . S
C669 C668 1.349 . S
C669 C685 1.349 . S
C670 C668 1.327 . S
C670 C689 1.429 . S
C670 H694 0.950 . S
C671 C688 1.574 . S
C671 C690 1.368 . S
C671 H695 0.949 . S
H672 C676 0.949 . S
C673 C674 1.349 . S
C673 C675 1.327 . S
C673 H696 0.950 . S
C674 C673 1.349 . S
C674 C686 1.349 . S
C675 C673 1.327 . S
C675 C691 1.429 . S
C675 H697 0.950 . S
C676 H672 0.949 . S
C676 C684 1.574 . S
C676 C692 1.368 . S
H677 C685 0.950 . S
H678 C683 0.950 . S
H679 C684 0.949 . S
H680 C686 0.950 . S
H681 C687 0.950 . S
H682 C688 0.949 . S
C683 H678 0.950 . S
C683 C685 1.327 . S
C683 C689 1.429 . S
C684 C676 1.574 . S
C684 H679 0.949 . S
C684 C690 1.368 . S
C685 C669 1.349 . S
C685 H677 0.950 . S
C685 C683 1.327 . S
C686 C674 1.349 . S
C686 H680 0.950 . S
C686 C687 1.327 . S
C687 H681 0.950 . S
C687 C686 1.327 . S
C687 C691 1.429 . S
C688 C671 1.574 . S
C688 H682 0.949 . S
C688 C692 1.368 . S
C689 C670 1.429 . S
C689 C683 1.429 . S
C689 C690 1.523 . S
C690 C671 1.368 . S
C690 C684 1.368 . S
C690 C689 1.523 . S
C691 C675 1.429 . S
C691 C687 1.429 . S
C691 C692 1.523 . S
C692 C676 1.368 . S
C692 C688 1.368 . S
C692 C691 1.523 . S
H693 C668 0.950 . S
H694 C670 0.950 . S
H695 C671 0.949 . S
H696 C673 0.950 . S
H697 C675 0.950 . S
C698 C699 1.349 . S
C698 C700 1.327 . S
C698 H723 0.950 . S
C699 C698 1.349 . S
C699 C715 1.349 . S
C700 C698 1.327 . S
C700 C719 1.429 . S
C700 H724 0.950 . S
C701 C718 1.574 . S
C701 C720 1.368 . S
C701 H725 0.949 . S
H702 C706 0.949 . S
C703 C704 1.349 . S
C703 C705 1.327 . S
C703 H726 0.950 . S
C704 C703 1.349 . S
C704 C716 1.349 . S
C705 C703 1.327 . S
C705 C721 1.429 . S
C705 H727 0.950 . S
C706 H702 0.949 . S
C706 C714 1.574 . S
C706 C722 1.368 . S
H707 C715 0.950 . S
H708 C713 0.950 . S
H709 C714 0.949 . S
H710 C716 0.950 . S
H711 C717 0.950 . S
H712 C718 0.949 . S
C713 H708 0.950 . S
C713 C715 1.327 . S
C713 C719 1.429 . S
C714 C706 1.574 . S
C714 H709 0.949 . S
C714 C720 1.368 . S
C715 C699 1.349 . S
C715 H707 0.950 . S
C715 C713 1.327 . S
C716 C704 1.349 . S
C716 H710 0.950 . S
C716 C717 1.327 . S
C717 H711 0.950 . S
C717 C716 1.327 . S
C717 C721 1.429 . S
C718 C701 1.574 . S
C718 H712 0.949 . S
C718 C722 1.368 . S
C719 C700 1.429 . S
C719 C713 1.429 . S
C719 C720 1.523 . S
C720 C701 1.368 . S
C720 C714 1.368 . S
C720 C719 1.523 . S
C721 C705 1.429 . S
C721 C717 1.429 . S
C721 C722 1.523 . S
C722 C706 1.368 . S
C722 C718 1.368 . S
C722 C721 1.523 . S
H723 C698 0.950 . S
H724 C700 0.950 . S
H725 C701 0.949 . S
H726 C703 0.950 . S
H727 C705 0.950 . S
C728 C729 1.349 . S
C728 C730 1.327 . S
C728 H753 0.950 . S
C729 C728 1.349 . S
C729 C745 1.349 . S
C730 C728 1.327 . S
C730 C749 1.429 . S
C730 H754 0.950 . S
C731 C748 1.574 . S
C731 C750 1.368 . S
C731 H755 0.949 . S
H732 C736 0.949 . S
C733 C734 1.349 . S
C733 C735 1.327 . S
C733 H756 0.950 . S
C734 C733 1.349 . S
C734 C746 1.349 . S
C735 C733 1.327 . S
C735 C751 1.429 . S
C735 H757 0.950 . S
C736 H732 0.949 . S
C736 C744 1.574 . S
C736 C752 1.368 . S
H737 C745 0.950 . S
H738 C743 0.950 . S
H739 C744 0.949 . S
H740 C746 0.950 . S
H741 C747 0.950 . S
H742 C748 0.949 . S
C743 H738 0.950 . S
C743 C745 1.327 . S
C743 C749 1.429 . S
C744 C736 1.574 . S
C744 H739 0.949 . S
C744 C750 1.368 . S
C745 C729 1.349 . S
C745 H737 0.950 . S
C745 C743 1.327 . S
C746 C734 1.349 . S
C746 H740 0.950 . S
C746 C747 1.327 . S
C747 H741 0.950 . S
C747 C746 1.327 . S
C747 C751 1.429 . S
C748 C731 1.574 . S
C748 H742 0.949 . S
C748 C752 1.368 . S
C749 C730 1.429 . S
C749 C743 1.429 . S
C749 C750 1.523 . S
C750 C731 1.368 . S
C750 C744 1.368 . S
C750 C749 1.523 . S
C751 C735 1.429 . S
C751 C747 1.429 . S
C751 C752 1.523 . S
C752 C736 1.368 . S
C752 C748 1.368 . S
C752 C751 1.523 . S
H753 C728 0.950 . S
H754 C730 0.950 . S
H755 C731 0.949 . S
H756 C733 0.950 . S
H757 C735 0.950 . S
C758 C759 1.349 . S
C758 C760 1.327 . S
C758 H783 0.950 . S
C759 C758 1.349 . S
C759 C775 1.349 . S
C760 C758 1.327 . S
C760 C779 1.429 . S
C760 H784 0.950 . S
C761 C778 1.574 . S
C761 C780 1.368 . S
C761 H785 0.949 . S
H762 C766 0.949 . S
C763 C764 1.349 . S
C763 C765 1.327 . S
C763 H786 0.950 . S
C764 C763 1.349 . S
C764 C776 1.349 . S
C765 C763 1.327 . S
C765 C781 1.429 . S
C765 H787 0.950 . S
C766 H762 0.949 . S
C766 C774 1.574 . S
C766 C782 1.368 . S
H767 C775 0.950 . S
H768 C773 0.950 . S
H769 C774 0.949 . S
H770 C776 0.950 . S
H771 C777 0.950 . S
H772 C778 0.949 . S
C773 H768 0.950 . S
C773 C775 1.327 . S
C773 C779 1.429 . S
C774 C766 1.574 . S
C774 H769 0.949 . S
C774 C780 1.368 . S
C775 C759 1.349 . S
C775 H767 0.950 . S
C775 C773 1.327 . S
C776 C764 1.349 . S
C776 H770 0.950 . S
C776 C777 1.327 . S
C777 H771 0.950 . S
C777 C776 1.327 . S
C777 C781 1.429 . S
C778 C761 1.574 . S
C778 H772 0.949 . S
C778 C782 1.368 . S
C779 C760 1.429 . S
C779 C773 1.429 . S
C779 C780 1.523 . S
C780 C761 1.368 . S
C780 C774 1.368 . S
C780 C779 1.523 . S
C781 C765 1.429 . S
C781 C777 1.429 . S
C781 C782 1.523 . S
C782 C766 1.368 . S
C782 C778 1.368 . S
C782 C781 1.523 . S
H783 C758 0.950 . S
H784 C760 0.950 . S
H785 C761 0.949 . S
H786 C763 0.950 . S
H787 C765 0.950 . S
C788 C789 1.349 . S
C788 C790 1.327 . S
C788 H813 0.950 . S
C789 C788 1.349 . S
C789 C805 1.349 . S
C790 C788 1.327 . S
C790 C809 1.429 . S
C790 H814 0.950 . S
C791 C808 1.574 . S
C791 C810 1.368 . S
C791 H815 0.949 . S
H792 C796 0.949 . S
C793 C794 1.349 . S
C793 C795 1.327 . S
C793 H816 0.950 . S
C794 C793 1.349 . S
C794 C806 1.349 . S
C795 C793 1.327 . S
C795 C811 1.429 . S
C795 H817 0.950 . S
C796 H792 0.949 . S
C796 C804 1.574 . S
C796 C812 1.368 . S
H797 C805 0.950 . S
H798 C803 0.950 . S
H799 C804 0.949 . S
H800 C806 0.950 . S
H801 C807 0.950 . S
H802 C808 0.949 . S
C803 H798 0.950 . S
C803 C805 1.327 . S
C803 C809 1.429 . S
C804 C796 1.574 . S
C804 H799 0.949 . S
C804 C810 1.368 . S
C805 C789 1.349 . S
C805 H797 0.950 . S
C805 C803 1.327 . S
C806 C794 1.349 . S
C806 H800 0.950 . S
C806 C807 1.327 . S
C807 H801 0.950 . S
C807 C806 1.327 . S
C807 C811 1.429 . S
C808 C791 1.574 . S
C808 H802 0.949 . S
C808 C812 1.368 . S
C809 C790 1.429 . S
C809 C803 1.429 . S
C809 C810 1.523 . S
C810 C791 1.368 . S
C810 C804 1.368 . S
C810 C809 1.523 . S
C811 C795 1.429 . S
C811 C807 1.429 . S
C811 C812 1.523 . S
C812 C796 1.368 . S
C812 C808 1.368 . S
C812 C811 1.523 . S
H813 C788 0.950 . S
H814 C790 0.950 . S
H815 C791 0.949 . S
H816 C793 0.950 . S
H817 C795 0.950 . S
C818 C819 1.349 . S
C818 C820 1.327 . S
C818 H843 0.950 . S
C819 C818 1.349 . S
C819 C835 1.349 . S
C820 C818 1.327 . S
C820 C839 1.429 . S
C820 H844 0.950 . S
C821 C838 1.574 . S
C821 C840 1.368 . S
C821 H845 0.949 . S
H822 C826 0.949 . S
C823 C824 1.349 . S
C823 C825 1.327 . S
C823 H846 0.950 . S
C824 C823 1.349 . S
C824 C836 1.349 . S
C825 C823 1.327 . S
C825 C841 1.429 . S
C825 H847 0.950 . S
C826 H822 0.949 . S
C826 C834 1.574 . S
C826 C842 1.368 . S
H827 C835 0.950 . S
H828 C833 0.950 . S
H829 C834 0.949 . S
H830 C836 0.950 . S
H831 C837 0.950 . S
H832 C838 0.949 . S
C833 H828 0.950 . S
C833 C835 1.327 . S
C833 C839 1.429 . S
C834 C826 1.574 . S
C834 H829 0.949 . S
C834 C840 1.368 . S
C835 C819 1.349 . S
C835 H827 0.950 . S
C835 C833 1.327 . S
C836 C824 1.349 . S
C836 H830 0.950 . S
C836 C837 1.327 . S
C837 H831 0.950 . S
C837 C836 1.327 . S
C837 C841 1.429 . S
C838 C821 1.574 . S
C838 H832 0.949 . S
C838 C842 1.368 . S
C839 C820 1.429 . S
C839 C833 1.429 . S
C839 C840 1.523 . S
C840 C821 1.368 . S
C840 C834 1.368 . S
C840 C839 1.523 . S
C841 C825 1.429 . S
C841 C837 1.429 . S
C841 C842 1.523 . S
C842 C826 1.368 . S
C842 C838 1.368 . S
C842 C841 1.523 . S
H843 C818 0.950 . S
H844 C820 0.950 . S
H845 C821 0.949 . S
H846 C823 0.950 . S
H847 C825 0.950 . S
C848 C849 1.349 . S
C848 C850 1.327 . S
C848 H873 0.950 . S
C849 C848 1.349 . S
C849 C865 1.349 . S
C850 C848 1.327 . S
C850 C869 1.429 . S
C850 H874 0.950 . S
C851 C868 1.574 . S
C851 C870 1.368 . S
C851 H875 0.949 . S
H852 C856 0.949 . S
C853 C854 1.349 . S
C853 C855 1.327 . S
C853 H876 0.950 . S
C854 C853 1.349 . S
C854 C866 1.349 . S
C855 C853 1.327 . S
C855 C871 1.429 . S
C855 H877 0.950 . S
C856 H852 0.949 . S
C856 C864 1.574 . S
C856 C872 1.368 . S
H857 C865 0.950 . S
H858 C863 0.950 . S
H859 C864 0.949 . S
H860 C866 0.950 . S
H861 C867 0.950 . S
H862 C868 0.949 . S
C863 H858 0.950 . S
C863 C865 1.327 . S
C863 C869 1.429 . S
C864 C856 1.574 . S
C864 H859 0.949 . S
C864 C870 1.368 . S
C865 C849 1.349 . S
C865 H857 0.950 . S
C865 C863 1.327 . S
C866 C854 1.349 . S
C866 H860 0.950 . S
C866 C867 1.327 . S
C867 H861 0.950 . S
C867 C866 1.327 . S
C867 C871 1.429 . S
C868 C851 1.574 . S
C868 H862 0.949 . S
C868 C872 1.368 . S
C869 C850 1.429 . S
C869 C863 1.429 . S
C869 C870 1.523 . S
C870 C851 1.368 . S
C870 C864 1.368 . S
C870 C869 1.523 . S
C871 C855 1.429 . S
C871 C867 1.429 . S
C871 C872 1.523 . S
C872 C856 1.368 . S
C872 C868 1.368 . S
C872 C871 1.523 . S
H873 C848 0.950 . S
H874 C850 0.950 . S
H875 C851 0.949 . S
H876 C853 0.950 . S
H877 C855 0.950 . S
C878 C879 1.349 . S
C878 C880 1.327 . S
C878 H903 0.950 . S
C879 C878 1.349 . S
C879 C895 1.349 . S
C880 C878 1.327 . S
C880 C899 1.429 . S
C880 H904 0.950 . S
C881 C898 1.574 . S
C881 C900 1.368 . S
C881 H905 0.949 . S
H882 C886 0.949 . S
C883 C884 1.349 . S
C883 C885 1.327 . S
C883 H906 0.950 . S
C884 C883 1.349 . S
C884 C896 1.349 . S
C885 C883 1.327 . S
C885 C901 1.429 . S
C885 H907 0.950 . S
C886 H882 0.949 . S
C886 C894 1.574 . S
C886 C902 1.368 . S
H887 C895 0.950 . S
H888 C893 0.950 . S
H889 C894 0.949 . S
H890 C896 0.950 . S
H891 C897 0.950 . S
H892 C898 0.949 . S
C893 H888 0.950 . S
C893 C895 1.327 . S
C893 C899 1.429 . S
C894 C886 1.574 . S
C894 H889 0.949 . S
C894 C900 1.368 . S
C895 C879 1.349 . S
C895 H887 0.950 . S
C895 C893 1.327 . S
C896 C884 1.349 . S
C896 H890 0.950 . S
C896 C897 1.327 . S
C897 H891 0.950 . S
C897 C896 1.327 . S
C897 C901 1.429 . S
C898 C881 1.574 . S
C898 H892 0.949 . S
C898 C902 1.368 . S
C899 C880 1.429 . S
C899 C893 1.429 . S
C899 C900 1.523 . S
C900 C881 1.368 . S
C900 C894 1.368 . S
C900 C899 1.523 . S
C901 C885 1.429 . S
C901 C897 1.429 . S
C901 C902 1.523 . S
C902 C886 1.368 . S
C902 C898 1.368 . S
C902 C901 1.523 . S
H903 C878 0.950 . S
H904 C880 0.950 . S
H905 C881 0.949 . S
H906 C883 0.950 . S
H907 C885 0.950 . S
C908 C909 1.349 . S
C908 C910 1.327 . S
C908 H933 0.950 . S
C909 C908 1.349 . S
C909 C925 1.349 . S
C910 C908 1.327 . S
C910 C929 1.429 . S
C910 H934 0.950 . S
C911 C928 1.574 . S
C911 C930 1.368 . S
C911 H935 0.949 . S
H912 C916 0.949 . S
C913 C914 1.349 . S
C913 C915 1.327 . S
C913 H936 0.950 . S
C914 C913 1.349 . S
C914 C926 1.349 . S
C915 C913 1.327 . S
C915 C931 1.429 . S
C915 H937 0.950 . S
C916 H912 0.949 . S
C916 C924 1.574 . S
C916 C932 1.368 . S
H917 C925 0.950 . S
H918 C923 0.950 . S
H919 C924 0.949 . S
H920 C926 0.950 . S
H921 C927 0.950 . S
H922 C928 0.949 . S
C923 H918 0.950 . S
C923 C925 1.327 . S
C923 C929 1.429 . S
C924 C916 1.574 . S
C924 H919 0.949 . S
C924 C930 1.368 . S
C925 C909 1.349 . S
C925 H917 0.950 . S
C925 C923 1.327 . S
C926 C914 1.349 . S
C926 H920 0.950 . S
C926 C927 1.327 . S
C927 H921 0.950 . S
C927 C926 1.327 . S
C927 C931 1.429 . S
C928 C911 1.574 . S
C928 H922 0.949 . S
C928 C932 1.368 . S
C929 C910 1.429 . S
C929 C923 1.429 . S
C929 C930 1.523 . S
C930 C911 1.368 . S
C930 C924 1.368 . S
C930 C929 1.523 . S
C931 C915 1.429 . S
C931 C927 1.429 . S
C931 C932 1.523 . S
C932 C916 1.368 . S
C932 C928 1.368 . S
C932 C931 1.523 . S
H933 C908 0.950 . S
H934 C910 0.950 . S
H935 C911 0.949 . S
H936 C913 0.950 . S
H937 C915 0.950 . S
C938 C939 1.349 . S
C938 C940 1.327 . S
C938 H963 0.950 . S
C939 C938 1.349 . S
C939 C955 1.349 . S
C940 C938 1.327 . S
C940 C959 1.429 . S
C940 H964 0.950 . S
C941 C958 1.574 . S
C941 C960 1.368 . S
C941 H965 0.949 . S
H942 C946 0.949 . S
C943 C944 1.349 . S
C943 C945 1.327 . S
C943 H966 0.950 . S
C944 C943 1.349 . S
C944 C956 1.349 . S
C945 C943 1.327 . S
C945 C961 1.429 . S
C945 H967 0.950 . S
C946 H942 0.949 . S
C946 C954 1.574 . S
C946 C962 1.368 . S
H947 C955 0.950 . S
H948 C953 0.950 . S
H949 C954 0.949 . S
H950 C956 0.950 . S
H951 C957 0.950 . S
H952 C958 0.949 . S
C953 H948 0.950 . S
C953 C955 1.327 . S
C953 C959 1.429 . S
C954 C946 1.574 . S
C954 H949 0.949 . S
C954 C960 1.368 . S
C955 C939 1.349 . S
C955 H947 0.950 . S
C955 C953 1.327 . S
C956 C944 1.349 . S
C956 H950 0.950 . S
C956 C957 1.327 . S
C957 H951 0.950 . S
C957 C956 1.327 . S
C957 C961 1.429 . S
C958 C941 1.574 . S
C958 H952 0.949 . S
C958 C962 1.368 . S
C959 C940 1.429 . S
C959 C953 1.429 . S
C959 C960 1.523 . S
C960 C941 1.368 . S
C960 C954 1.368 . S
C960 C959 1.523 . S
C961 C945 1.429 . S
C961 C957 1.429 . S
C961 C962 1.523 . S
C962 C946 1.368 . S
C962 C958 1.368 . S
C962 C961 1.523 . S
H963 C938 0.950 . S
H964 C940 0.950 . S
H965 C941 0.949 . S
H966 C943 0.950 . S
H967 C945 0.950 . S
C968 C969 1.349 . S
C968 C970 1.327 . S
C968 H993 0.950 . S
C969 C968 1.349 . S
C969 C985 1.349 . S
C970 C968 1.327 . S
C970 C989 1.429 . S
C970 H994 0.950 . S
C971 C988 1.574 . S
C971 C990 1.368 . S
C971 H995 0.949 . S
H972 C976 0.949 . S
C973 C974 1.349 . S
C973 C975 1.327 . S
C973 H996 0.950 . S
C974 C973 1.349 . S
C974 C986 1.349 . S
C975 C973 1.327 . S
C975 C991 1.429 . S
C975 H997 0.950 . S
C976 H972 0.949 . S
C976 C984 1.574 . S
C976 C992 1.368 . S
H977 C985 0.950 . S
H978 C983 0.950 . S
H979 C984 0.949 . S
H980 C986 0.950 . S
H981 C987 0.950 . S
H982 C988 0.949 . S
C983 H978 0.950 . S
C983 C985 1.327 . S
C983 C989 1.429 . S
C984 C976 1.574 . S
C984 H979 0.949 . S
C984 C990 1.368 . S
C985 C969 1.349 . S
C985 H977 0.950 . S
C985 C983 1.327 . S
C986 C974 1.349 . S
C986 H980 0.950 . S
C986 C987 1.327 . S
C987 H981 0.950 . S
C987 C986 1.327 . S
C987 C991 1.429 . S
C988 C971 1.574 . S
C988 H982 0.949 . S
C988 C992 1.368 . S
C989 C970 1.429 . S
C989 C983 1.429 . S
C989 C990 1.523 . S
C990 C971 1.368 . S
C990 C984 1.368 . S
C990 C989 1.523 . S
C991 C975 1.429 . S
C991 C987 1.429 . S
C991 C992 1.523 . S
C992 C976 1.368 . S
C992 C988 1.368 . S
C992 C991 1.523 . S
H993 C968 0.950 . S
H994 C970 0.950 . S
H995 C971 0.949 . S
H996 C973 0.950 . S
H997 C975 0.950 . S
C998 C999 1.349 . S
C998 C1000 1.327 . S
C998 H1023 0.950 . S
C999 C998 1.349 . S
C999 C1015 1.349 . S
C1000 C998 1.327 . S
C1000 C1019 1.429 . S
C1000 H1024 0.950 . S
C1001 C1018 1.574 . S
C1001 C1020 1.368 . S
C1001 H1025 0.949 . S
H1002 C1006 0.949 . S
C1003 C1004 1.349 . S
C1003 C1005 1.327 . S
C1003 H1026 0.950 . S
C1004 C1003 1.349 . S
C1004 C1016 1.349 . S
C1005 C1003 1.327 . S
C1005 C1021 1.429 . S
C1005 H1027 0.950 . S
C1006 H1002 0.949 . S
C1006 C1014 1.574 . S
C1006 C1022 1.368 . S
H1007 C1015 0.950 . S
H1008 C1013 0.950 . S
H1009 C1014 0.949 . S
H1010 C1016 0.950 . S
H1011 C1017 0.950 . S
H1012 C1018 0.949 . S
C1013 H1008 0.950 . S
C1013 C1015 1.327 . S
C1013 C1019 1.429 . S
C1014 C1006 1.574 . S
C1014 H1009 0.949 . S
C1014 C1020 1.368 . S
C1015 C999 1.349 . S
C1015 H1007 0.950 . S
C1015 C1013 1.327 . S
C1016 C1004 1.349 . S
C1016 H1010 0.950 . S
C1016 C1017 1.327 . S
C1017 H1011 0.950 . S
C1017 C1016 1.327 . S
C1017 C1021 1.429 . S
C1018 C1001 1.574 . S
C1018 H1012 0.949 . S
C1018 C1022 1.368 . S
C1019 C1000 1.429 . S
C1019 C1013 1.429 . S
C1019 C1020 1.523 . S
C1020 C1001 1.368 . S
C1020 C1014 1.368 . S
C1020 C1019 1.523 . S
C1021 C1005 1.429 . S
C1021 C1017 1.429 . S
C1021 C1022 1.523 . S
C1022 C1006 1.368 . S
C1022 C1018 1.368 . S
C1022 C1021 1.523 . S
H1023 C998 0.950 . S
H1024 C1000 0.950 . S
H1025 C1001 0.949 . S
H1026 C1003 0.950 . S
H1027 C1005 0.950 . S
C1028 C1029 1.349 . S
C1028 C1030 1.327 . S
C1028 H1053 0.950 . S
C1029 C1028 1.349 . S
C1029 C1045 1.349 . S
C1030 C1028 1.327 . S
C1030 C1049 1.429 . S
C1030 H1054 0.950 . S
C1031 C1048 1.574 . S
C1031 C1050 1.368 . S
C1031 H1055 0.949 . S
H1032 C1036 0.949 . S
C1033 C1034 1.349 . S
C1033 C1035 1.327 . S
C1033 H1056 0.950 . S
C1034 C1033 1.349 . S
C1034 C1046 1.349 . S
C1035 C1033 1.327 . S
C1035 C1051 1.429 . S
C1035 H1057 0.950 . S
C1036 H1032 0.949 . S
C1036 C1044 1.574 . S
C1036 C1052 1.368 . S
H1037 C1045 0.950 . S
H1038 C1043 0.950 . S
H1039 C1044 0.949 . S
H1040 C1046 0.950 . S
H1041 C1047 0.950 . S
H1042 C1048 0.949 . S
C1043 H1038 0.950 . S
C1043 C1045 1.327 . S
C1043 C1049 1.429 . S
C1044 C1036 1.574 . S
C1044 H1039 0.949 . S
C1044 C1050 1.368 . S
C1045 C1029 1.349 . S
C1045 H1037 0.950 . S
C1045 C1043 1.327 . S
C1046 C1034 1.349 . S
C1046 H1040 0.950 . S
C1046 C1047 1.327 . S
C1047 H1041 0.950 . S
C1047 C1046 1.327 . S
C1047 C1051 1.429 . S
C1048 C1031 1.574 . S
C1048 H1042 0.949 . S
C1048 C1052 1.368 . S
C1049 C1030 1.429 . S
C1049 C1043 1.429 . S
C1049 C1050 1.523 . S
C1050 C1031 1.368 . S
C1050 C1044 1.368 . S
C1050 C1049 1.523 . S
C1051 C1035 1.429 . S
C1051 C1047 1.429 . S
C1051 C1052 1.523 . S
C1052 C1036 1.368 . S
C1052 C1048 1.368 . S
C1052 C1051 1.523 . S
H1053 C1028 0.950 . S
H1054 C1030 0.950 . S
H1055 C1031 0.949 . S
H1056 C1033 0.950 . S
H1057 C1035 0.950 . S
C1058 C1059 1.349 . S
C1058 C1060 1.327 . S
C1058 H1083 0.950 . S
C1059 C1058 1.349 . S
C1059 C1075 1.349 . S
C1060 C1058 1.327 . S
C1060 C1079 1.429 . S
C1060 H1084 0.950 . S
C1061 C1078 1.574 . S
C1061 C1080 1.368 . S
C1061 H1085 0.949 . S
H1062 C1066 0.949 . S
C1063 C1064 1.349 . S
C1063 C1065 1.327 . S
C1063 H1086 0.950 . S
C1064 C1063 1.349 . S
C1064 C1076 1.349 . S
C1065 C1063 1.327 . S
C1065 C1081 1.429 . S
C1065 H1087 0.950 . S
C1066 H1062 0.949 . S
C1066 C1074 1.574 . S
C1066 C1082 1.368 . S
H1067 C1075 0.950 . S
H1068 C1073 0.950 . S
H1069 C1074 0.949 . S
H1070 C1076 0.950 . S
H1071 C1077 0.950 . S
H1072 C1078 0.949 . S
C1073 H1068 0.950 . S
C1073 C1075 1.327 . S
C1073 C1079 1.429 . S
C1074 C1066 1.574 . S
C1074 H1069 0.949 . S
C1074 C1080 1.368 . S
C1075 C1059 1.349 . S
C1075 H1067 0.950 . S
C1075 C1073 1.327 . S
C1076 C1064 1.349 . S
C1076 H1070 0.950 . S
C1076 C1077 1.327 . S
C1077 H1071 0.950 . S
C1077 C1076 1.327 . S
C1077 C1081 1.429 . S
C1078 C1061 1.574 . S
C1078 H1072 0.949 . S
C1078 C1082 1.368 . S
C1079 C1060 1.429 . S
C1079 C1073 1.429 . S
C1079 C1080 1.523 . S
C1080 C1061 1.368 . S
C1080 C1074 1.368 . S
C1080 C1079 1.523 . S
C1081 C1065 1.429 . S
C1081 C1077 1.429 . S
C1081 C1082 1.523 . S
C1082 C1066 1.368 . S
C1082 C1078 1.368 . S
C1082 C1081 1.523 . S
H1083 C1058 0.950 . S
H1084 C1060 0.950 . S
H1085 C1061 0.949 . S
H1086 C1063 0.950 . S
H1087 C1065 0.950 . S
C1088 C1089 1.349 . S
C1088 C1090 1.327 . S
C1088 H1113 0.950 . S
C1089 C1088 1.349 . S
C1089 C1105 1.349 . S
C1090 C1088 1.327 . S
C1090 C1109 1.429 . S
C1090 H1114 0.950 . S
C1091 C1108 1.574 . S
C1091 C1110 1.368 . S
C1091 H1115 0.949 . S
H1092 C1096 0.949 . S
C1093 C1094 1.349 . S
C1093 C1095 1.327 . S
C1093 H1116 0.950 . S
C1094 C1093 1.349 . S
C1094 C1106 1.349 . S
C1095 C1093 1.327 . S
C1095 C1111 1.429 . S
C1095 H1117 0.950 . S
C1096 H1092 0.949 . S
C1096 C1104 1.574 . S
C1096 C1112 1.368 . S
H1097 C1105 0.950 . S
H1098 C1103 0.950 . S
H1099 C1104 0.949 . S
H1100 C1106 0.950 . S
H1101 C1107 0.950 . S
H1102 C1108 0.949 . S
C1103 H1098 0.950 . S
C1103 C1105 1.327 . S
C1103 C1109 1.429 . S
C1104 C1096 1.574 . S
C1104 H1099 0.949 . S
C1104 C1110 1.368 . S
C1105 C1089 1.349 . S
C1105 H1097 0.950 . S
C1105 C1103 1.327 . S
C1106 C1094 1.349 . S
C1106 H1100 0.950 . S
C1106 C1107 1.327 . S
C1107 H1101 0.950 . S
C1107 C1106 1.327 . S
C1107 C1111 1.429 . S
C1108 C1091 1.574 . S
C1108 H1102 0.949 . S
C1108 C1112 1.368 . S
C1109 C1090 1.429 . S
C1109 C1103 1.429 . S
C1109 C1110 1.523 . S
C1110 C1091 1.368 . S
C1110 C1104 1.368 . S
C1110 C1109 1.523 . S
C1111 C1095 1.429 . S
C1111 C1107 1.429 . S
C1111 C1112 1.523 . S
C1112 C1096 1.368 . S
C1112 C1108 1.368 . S
C1112 C1111 1.523 . S
H1113 C1088 0.950 . S
H1114 C1090 0.950 . S
H1115 C1091 0.949 . S
H1116 C1093 0.950 . S
H1117 C1095 0.950 . S
C1118 C1119 1.349 . S
C1118 C1120 1.327 . S
C1118 H1143 0.950 . S
C1119 C1118 1.349 . S
C1119 C1135 1.349 . S
C1120 C1118 1.327 . S
C1120 C1139 1.429 . S
C1120 H1144 0.950 . S
C1121 C1138 1.574 . S
C1121 C1140 1.368 . S
C1121 H1145 0.949 . S
H1122 C1126 0.949 . S
C1123 C1124 1.349 . S
C1123 C1125 1.327 . S
C1123 H1146 0.950 . S
C1124 C1123 1.349 . S
C1124 C1136 1.349 . S
C1125 C1123 1.327 . S
C1125 C1141 1.429 . S
C1125 H1147 0.950 . S
C1126 H1122 0.949 . S
C1126 C1134 1.574 . S
C1126 C1142 1.368 . S
H1127 C1135 0.950 . S
H1128 C1133 0.950 . S
H1129 C1134 0.949 . S
H1130 C1136 0.950 . S
H1131 C1137 0.950 . S
H1132 C1138 0.949 . S
C1133 H1128 0.950 . S
C1133 C1135 1.327 . S
C1133 C1139 1.429 . S
C1134 C1126 1.574 . S
C1134 H1129 0.949 . S
C1134 C1140 1.368 . S
C1135 C1119 1.349 . S
C1135 H1127 0.950 . S
C1135 C1133 1.327 . S
C1136 C1124 1.349 . S
C1136 H1130 0.950 . S
C1136 C1137 1.327 . S
C1137 H1131 0.950 . S
C1137 C1136 1.327 . S
C1137 C1141 1.429 . S
C1138 C1121 1.574 . S
C1138 H1132 0.949 . S
C1138 C1142 1.368 . S
C1139 C1120 1.429 . S
C1139 C1133 1.429 . S
C1139 C1140 1.523 . S
C1140 C1121 1.368 . S
C1140 C1134 1.368 . S
C1140 C1139 1.523 . S
C1141 C1125 1.429 . S
C1141 C1137 1.429 . S
C1141 C1142 1.523 . S
C1142 C1126 1.368 . S
C1142 C1138 1.368 . S
C1142 C1141 1.523 . S
H1143 C1118 0.950 . S
H1144 C1120 0.950 . S
H1145 C1121 0.949 . S
H1146 C1123 0.950 . S
H1147 C1125 0.950 . S
C1148 C1149 1.349 . S
C1148 C1150 1.327 . S
C1148 H1173 0.950 . S
C1149 C1148 1.349 . S
C1149 C1165 1.349 . S
C1150 C1148 1.327 . S
C1150 C1169 1.429 . S
C1150 H1174 0.950 . S
C1151 C1168 1.574 . S
C1151 C1170 1.368 . S
C1151 H1175 0.949 . S
H1152 C1156 0.949 . S
C1153 C1154 1.349 . S
C1153 C1155 1.327 . S
C1153 H1176 0.950 . S
C1154 C1153 1.349 . S
C1154 C1166 1.349 . S
C1155 C1153 1.327 . S
C1155 C1171 1.429 . S
C1155 H1177 0.950 . S
C1156 H1152 0.949 . S
C1156 C1164 1.574 . S
C1156 C1172 1.368 . S
H1157 C1165 0.950 . S
H1158 C1163 0.950 . S
H1159 C1164 0.949 . S
H1160 C1166 0.950 . S
H1161 C1167 0.950 . S
H1162 C1168 0.949 . S
C1163 H1158 0.950 . S
C1163 C1165 1.327 . S
C1163 C1169 1.429 . S
C1164 C1156 1.574 . S
C1164 H1159 0.949 . S
C1164 C1170 1.368 . S
C1165 C1149 1.349 . S
C1165 H1157 0.950 . S
C1165 C1163 1.327 . S
C1166 C1154 1.349 . S
C1166 H1160 0.950 . S
C1166 C1167 1.327 . S
C1167 H1161 0.950 . S
C1167 C1166 1.327 . S
C1167 C1171 1.429 . S
C1168 C1151 1.574 . S
C1168 H1162 0.949 . S
C1168 C1172 1.368 . S
C1169 C1150 1.429 . S
C1169 C1163 1.429 . S
C1169 C1170 1.523 . S
C1170 C1151 1.368 . S
C1170 C1164 1.368 . S
C1170 C1169 1.523 . S
C1171 C1155 1.429 . S
C1171 C1167 1.429 . S
C1171 C1172 1.523 . S
C1172 C1156 1.368 . S
C1172 C1168 1.368 . S
C1172 C1171 1.523 . S
H1173 C1148 0.950 . S
H1174 C1150 0.950 . S
H1175 C1151 0.949 . S
H1176 C1153 0.950 . S
H1177 C1155 0.950 . S
C1178 C1179 1.349 . S
C1178 C1180 1.327 . S
C1178 H1203 0.950 . S
C1179 C1178 1.349 . S
C1179 C1195 1.349 . S
C1180 C1178 1.327 . S
C1180 C1199 1.429 . S
C1180 H1204 0.950 . S
C1181 C1198 1.574 . S
C1181 C1200 1.368 . S
C1181 H1205 0.949 . S
H1182 C1186 0.949 . S
C1183 C1184 1.349 . S
C1183 C1185 1.327 . S
C1183 H1206 0.950 . S
C1184 C1183 1.349 . S
C1184 C1196 1.349 . S
C1185 C1183 1.327 . S
C1185 C1201 1.429 . S
C1185 H1207 0.950 . S
C1186 H1182 0.949 . S
C1186 C1194 1.574 . S
C1186 C1202 1.368 . S
H1187 C1195 0.950 . S
H1188 C1193 0.950 . S
H1189 C1194 0.949 . S
H1190 C1196 0.950 . S
H1191 C1197 0.950 . S
H1192 C1198 0.949 . S
C1193 H1188 0.950 . S
C1193 C1195 1.327 . S
C1193 C1199 1.429 . S
C1194 C1186 1.574 . S
C1194 H1189 0.949 . S
C1194 C1200 1.368 . S
C1195 C1179 1.349 . S
C1195 H1187 0.950 . S
C1195 C1193 1.327 . S
C1196 C1184 1.349 . S
C1196 H1190 0.950 . S
C1196 C1197 1.327 . S
C1197 H1191 0.950 . S
C1197 C1196 1.327 . S
C1197 C1201 1.429 . S
C1198 C1181 1.574 . S
C1198 H1192 0.949 . S
C1198 C1202 1.368 . S
C1199 C1180 1.429 . S
C1199 C1193 1.429 . S
C1199 C1200 1.523 . S
C1200 C1181 1.368 . S
C1200 C1194 1.368 . S
C1200 C1199 1.523 . S
C1201 C1185 1.429 . S
C1201 C1197 1.429 . S
C1201 C1202 1.523 . S
C1202 C1186 1.368 . S
C1202 C1198 1.368 . S
C1202 C1201 1.523 . S
H1203 C1178 0.950 . S
H1204 C1180 0.950 . S
H1205 C1181 0.949 . S
H1206 C1183 0.950 . S
H1207 C1185 0.950 . S
C1208 C1209 1.349 . S
C1208 C1210 1.327 . S
C1208 H1233 0.950 . S
C1209 C1208 1.349 . S
C1209 C1225 1.349 1_545 S
C1210 C1208 1.327 . S
C1210 C1229 1.429 . S
C1210 H1234 0.950 . S
C1211 C1228 1.574 1_554 S
C1211 C1230 1.368 1_565 S
C1211 H1235 0.949 . S
H1212 C1216 0.949 . S
C1213 C1214 1.349 . S
C1213 C1215 1.327 . S
C1213 H1236 0.950 . S
C1214 C1213 1.349 . S
C1214 C1226 1.349 1_565 S
C1215 C1213 1.327 . S
C1215 C1231 1.429 . S
C1215 H1237 0.950 . S
C1216 H1212 0.949 . S
C1216 C1224 1.574 1_556 S
C1216 C1232 1.368 1_545 S
H1217 C1225 0.950 . S
H1218 C1223 0.950 . S
H1219 C1224 0.949 . S
H1220 C1226 0.950 . S
H1221 C1227 0.950 . S
H1222 C1228 0.949 . S
C1223 H1218 0.950 . S
C1223 C1225 1.327 . S
C1223 C1229 1.429 1_565 S
C1224 C1216 1.574 1_554 S
C1224 H1219 0.949 . S
C1224 C1230 1.368 . S
C1225 C1209 1.349 1_565 S
C1225 H1217 0.950 . S
C1225 C1223 1.327 . S
C1226 C1214 1.349 1_545 S
C1226 H1220 0.950 . S
C1226 C1227 1.327 . S
C1227 H1221 0.950 . S
C1227 C1226 1.327 . S
C1227 C1231 1.429 1_545 S
C1228 C1211 1.574 1_556 S
C1228 H1222 0.949 . S
C1228 C1232 1.368 . S
C1229 C1210 1.429 . S
C1229 C1223 1.429 1_545 S
C1229 C1230 1.523 . S
C1230 C1211 1.368 1_545 S
C1230 C1224 1.368 . S
C1230 C1229 1.523 . S
C1231 C1215 1.429 . S
C1231 C1227 1.429 1_565 S
C1231 C1232 1.523 . S
C1232 C1216 1.368 1_565 S
C1232 C1228 1.368 . S
C1232 C1231 1.523 . S
H1233 C1208 0.950 . S
H1234 C1210 0.950 . S
H1235 C1211 0.949 . S
H1236 C1213 0.950 . S
H1237 C1215 0.950 . S
C1238 C1239 1.349 . S
C1238 C1240 1.327 . S
C1238 H1263 0.950 . S
C1239 C1238 1.349 . S
C1239 C1255 1.347 1_455 S
C1240 C1238 1.327 . S
C1240 C1259 1.429 . S
C1240 H1264 0.950 . S
C1241 C1258 1.574 1_556 S
C1241 C1260 1.368 1_655 S
C1241 H1265 0.949 . S
H1242 C1246 0.949 . S
C1243 C1244 1.349 . S
C1243 C1245 1.327 . S
C1243 H1266 0.950 . S
C1244 C1243 1.349 . S
C1244 C1256 1.347 1_655 S
C1245 C1243 1.327 . S
C1245 C1261 1.429 . S
C1245 H1267 0.950 . S
C1246 H1242 0.949 . S
C1246 C1254 1.574 1_554 S
C1246 C1262 1.368 1_455 S
H1247 C1255 0.951 . S
H1248 C1253 0.950 . S
H1249 C1254 0.949 . S
H1250 C1256 0.951 . S
H1251 C1257 0.950 . S
H1252 C1258 0.949 . S
C1253 H1248 0.950 . S
C1253 C1255 1.328 . S
C1253 C1259 1.429 1_655 S
C1254 C1246 1.574 1_556 S
C1254 H1249 0.949 . S
C1254 C1260 1.368 . S
C1255 C1239 1.347 1_655 S
C1255 H1247 0.951 . S
C1255 C1253 1.328 . S
C1256 C1244 1.347 1_455 S
C1256 H1250 0.951 . S
C1256 C1257 1.328 . S
C1257 H1251 0.950 . S
C1257 C1256 1.328 . S
C1257 C1261 1.429 1_455 S
C1258 C1241 1.574 1_554 S
C1258 H1252 0.949 . S
C1258 C1262 1.368 . S
C1259 C1240 1.429 . S
C1259 C1253 1.429 1_455 S
C1259 C1260 1.523 . S
C1260 C1241 1.368 1_455 S
C1260 C1254 1.368 . S
C1260 C1259 1.523 . S
C1261 C1245 1.429 . S
C1261 C1257 1.429 1_655 S
C1261 C1262 1.523 . S
C1262 C1246 1.368 1_655 S
C1262 C1258 1.368 . S
C1262 C1261 1.523 . S
H1263 C1238 0.950 . S
H1264 C1240 0.950 . S
H1265 C1241 0.949 . S
H1266 C1243 0.950 . S
H1267 C1245 0.950 . S
C1268 C1269 1.349 . S
C1268 C1270 1.327 . S
C1268 H1293 0.950 . S
C1269 C1268 1.349 . S
C1269 C1285 1.349 1_545 S
C1270 C1268 1.327 . S
C1270 C1289 1.429 . S
C1270 H1294 0.950 . S
C1271 C1288 1.574 1_556 S
C1271 C1290 1.368 1_565 S
C1271 H1295 0.949 . S
H1272 C1276 0.949 . S
C1273 C1274 1.349 . S
C1273 C1275 1.327 . S
C1273 H1296 0.950 . S
C1274 C1273 1.349 . S
C1274 C1286 1.349 1_565 S
C1275 C1273 1.327 . S
C1275 C1291 1.429 . S
C1275 H1297 0.950 . S
C1276 H1272 0.949 . S
C1276 C1284 1.574 1_554 S
C1276 C1292 1.368 1_545 S
H1277 C1285 0.950 . S
H1278 C1283 0.950 . S
H1279 C1284 0.949 . S
H1280 C1286 0.950 . S
H1281 C1287 0.950 . S
H1282 C1288 0.949 . S
C1283 H1278 0.950 . S
C1283 C1285 1.327 . S
C1283 C1289 1.429 1_565 S
C1284 C1276 1.574 1_556 S
C1284 H1279 0.949 . S
C1284 C1290 1.368 . S
C1285 C1269 1.349 1_565 S
C1285 H1277 0.950 . S
C1285 C1283 1.327 . S
C1286 C1274 1.349 1_545 S
C1286 H1280 0.950 . S
C1286 C1287 1.327 . S
C1287 H1281 0.950 . S
C1287 C1286 1.327 . S
C1287 C1291 1.429 1_545 S
C1288 C1271 1.574 1_554 S
C1288 H1282 0.949 . S
C1288 C1292 1.368 . S
C1289 C1270 1.429 . S
C1289 C1283 1.429 1_545 S
C1289 C1290 1.523 . S
C1290 C1271 1.368 1_545 S
C1290 C1284 1.368 . S
C1290 C1289 1.523 . S
C1291 C1275 1.429 . S
C1291 C1287 1.429 1_565 S
C1291 C1292 1.523 . S
C1292 C1276 1.368 1_565 S
C1292 C1288 1.368 . S
C1292 C1291 1.523 . S
H1293 C1268 0.950 . S
H1294 C1270 0.950 . S
H1295 C1271 0.949 . S
H1296 C1273 0.950 . S
H1297 C1275 0.950 . S
C1298 C1299 1.349 . S
C1298 C1300 1.327 . S
C1298 H1323 0.950 . S
C1299 C1298 1.349 . S
C1299 C1315 1.347 1_655 S
C1300 C1298 1.327 . S
C1300 C1319 1.429 . S
C1300 H1324 0.950 . S
C1301 C1318 1.574 1_556 S
C1301 C1320 1.368 1_455 S
C1301 H1325 0.949 . S
H1302 C1306 0.949 . S
C1303 C1304 1.349 . S
C1303 C1305 1.327 . S
C1303 H1326 0.950 . S
C1304 C1303 1.349 . S
C1304 C1316 1.347 1_455 S
C1305 C1303 1.327 . S
C1305 C1321 1.429 . S
C1305 H1327 0.950 . S
C1306 H1302 0.949 . S
C1306 C1314 1.574 1_554 S
C1306 C1322 1.368 1_655 S
H1307 C1315 0.951 . S
H1308 C1313 0.950 . S
H1309 C1314 0.949 . S
H1310 C1316 0.951 . S
H1311 C1317 0.950 . S
H1312 C1318 0.949 . S
C1313 H1308 0.950 . S
C1313 C1315 1.328 . S
C1313 C1319 1.429 1_455 S
C1314 C1306 1.574 1_556 S
C1314 H1309 0.949 . S
C1314 C1320 1.368 . S
C1315 C1299 1.347 1_455 S
C1315 H1307 0.951 . S
C1315 C1313 1.328 . S
C1316 C1304 1.347 1_655 S
C1316 H1310 0.951 . S
C1316 C1317 1.328 . S
C1317 H1311 0.950 . S
C1317 C1316 1.328 . S
C1317 C1321 1.429 1_655 S
C1318 C1301 1.574 1_554 S
C1318 H1312 0.949 . S
C1318 C1322 1.368 . S
C1319 C1300 1.429 . S
C1319 C1313 1.429 1_655 S
C1319 C1320 1.523 . S
C1320 C1301 1.368 1_655 S
C1320 C1314 1.368 . S
C1320 C1319 1.523 . S
C1321 C1305 1.429 . S
C1321 C1317 1.429 1_455 S
C1321 C1322 1.523 . S
C1322 C1306 1.368 1_455 S
C1322 C1318 1.368 . S
C1322 C1321 1.523 . S
H1323 C1298 0.950 . S
H1324 C1300 0.950 . S
H1325 C1301 0.949 . S
H1326 C1303 0.950 . S
H1327 C1305 0.950 . S
C369 N12 1.738 . S
C374 N173 1.738 . S
C399 N35 1.738 . S
C404 N104 1.738 . S
C429 N127 1.738 . S
C434 N58 1.738 . S
C459 N81 1.738 . S
C464 N150 1.738 . S
C489 N196 1.738 . S
C494 N357 1.738 . S
C519 N288 1.738 . S
C524 N219 1.738 . S
C549 N311 1.738 . S
C554 N242 1.738 . S
C579 N334 1.738 . S
C584 N265 1.738 . S
C609 N2 1.831 . S
C614 C269 1.826 . S
C639 N25 1.831 . S
C644 C200 1.826 . S
C669 C223 1.826 . S
C674 N48 1.831 . S
C699 N71 1.831 . S
C704 C246 1.826 . S
C729 N94 1.831 . S
C734 C315 1.826 . S
C759 C338 1.826 . S
C764 N117 1.831 . S
C789 N140 1.831 . S
C794 C361 1.826 . S
C819 C292 1.826 . S
C824 N163 1.831 . S
C849 N186 1.831 . S
C854 C85 1.826 . S
C879 C16 1.826 . S
C884 N209 1.831 . S
C909 N232 1.831 . S
C914 C39 1.826 . S
C939 C62 1.826 . S
C944 N255 1.831 . S
C969 N278 1.831 . S
C974 C131 1.826 . S
C999 C154 1.826 . S
C1004 N301 1.831 . S
C1029 C177 1.826 . S
C1034 N324 1.831 . S
C1059 C108 1.826 . S
C1064 N347 1.831 . S
C1089 C99 1.995 . S
C1094 C7 1.995 . S
C1119 C122 1.995 . S
C1124 C30 1.995 . S
C1149 C53 1.995 . S
C1154 C145 1.995 . S
C1179 C168 1.995 . S
C1184 C76 1.995 . S
C1209 C283 1.995 . S
C1214 C191 1.995 . S
C1239 C306 1.995 . S
C1244 C214 1.995 . S
C1269 C237 1.995 . S
C1274 C329 1.995 . S
C1299 C352 1.995 . S
C1304 C260 1.995 . S
