# Generated by pormake.
# Topology wjz, (5)-cn, num edge types: 1
# Building blocks:
#     Node 0, Type 0, BuildingBlock: XOMCOT_clean_sbu_0, # of connection points: 5
#     Node 1, Type 0, BuildingBlock: XOMCOT_clean_sbu_0, # of connection points: 5
#     Node 2, Type 0, BuildingBlock: XOMCOT_clean_sbu_0, # of connection points: 5
#     Node 3, Type 0, BuildingBlock: XOMCOT_clean_sbu_0, # of connection points: 5
#     Node 4, Type 0, BuildingBlock: XOMCOT_clean_sbu_0, # of connection points: 5
#     Node 5, Type 0, BuildingBlock: XOMCOT_clean_sbu_0, # of connection points: 5
#     Node 6, Type 0, BuildingBlock: XOMCOT_clean_sbu_0, # of connection points: 5
#     Node 7, Type 0, BuildingBlock: XOMCOT_clean_sbu_0, # of connection points: 5
#     Node 8, Type 0, BuildingBlock: XOMCOT_clean_sbu_0, # of connection points: 5
#     Node 9, Type 0, BuildingBlock: XOMCOT_clean_sbu_0, # of connection points: 5
#     Node 10, Type 0, BuildingBlock: XOMCOT_clean_sbu_0, # of connection points: 5
#     Node 11, Type 0, BuildingBlock: XOMCOT_clean_sbu_0, # of connection points: 5
#     Edge 12, Type (0, 0), BuildingBlock: KIFKEQ_clean_linker_1, # of connection points: 2
#     Edge 13, Type (0, 0), BuildingBlock: KIFKEQ_clean_linker_1, # of connection points: 2
#     Edge 14, Type (0, 0), BuildingBlock: KIFKEQ_clean_linker_1, # of connection points: 2
#     Edge 15, Type (0, 0), BuildingBlock: KIFKEQ_clean_linker_1, # of connection points: 2
#     Edge 16, Type (0, 0), BuildingBlock: KIFKEQ_clean_linker_1, # of connection points: 2
#     Edge 17, Type (0, 0), BuildingBlock: KIFKEQ_clean_linker_1, # of connection points: 2
#     Edge 18, Type (0, 0), BuildingBlock: KIFKEQ_clean_linker_1, # of connection points: 2
#     Edge 19, Type (0, 0), BuildingBlock: KIFKEQ_clean_linker_1, # of connection points: 2
#     Edge 20, Type (0, 0), BuildingBlock: KIFKEQ_clean_linker_1, # of connection points: 2
#     Edge 21, Type (0, 0), BuildingBlock: KIFKEQ_clean_linker_1, # of connection points: 2
#     Edge 22, Type (0, 0), BuildingBlock: KIFKEQ_clean_linker_1, # of connection points: 2
#     Edge 23, Type (0, 0), BuildingBlock: KIFKEQ_clean_linker_1, # of connection points: 2
#     Edge 24, Type (0, 0), BuildingBlock: KIFKEQ_clean_linker_1, # of connection points: 2
#     Edge 25, Type (0, 0), BuildingBlock: KIFKEQ_clean_linker_1, # of connection points: 2
#     Edge 26, Type (0, 0), BuildingBlock: KIFKEQ_clean_linker_1, # of connection points: 2
#     Edge 27, Type (0, 0), BuildingBlock: KIFKEQ_clean_linker_1, # of connection points: 2
#     Edge 28, Type (0, 0), BuildingBlock: KIFKEQ_clean_linker_1, # of connection points: 2
#     Edge 29, Type (0, 0), BuildingBlock: KIFKEQ_clean_linker_1, # of connection points: 2
#     Edge 30, Type (0, 0), BuildingBlock: KIFKEQ_clean_linker_1, # of connection points: 2
#     Edge 31, Type (0, 0), BuildingBlock: KIFKEQ_clean_linker_1, # of connection points: 2
#     Edge 32, Type (0, 0), BuildingBlock: KIFKEQ_clean_linker_1, # of connection points: 2
#     Edge 33, Type (0, 0), BuildingBlock: KIFKEQ_clean_linker_1, # of connection points: 2
#     Edge 34, Type (0, 0), BuildingBlock: KIFKEQ_clean_linker_1, # of connection points: 2
#     Edge 35, Type (0, 0), BuildingBlock: KIFKEQ_clean_linker_1, # of connection points: 2
#     Edge 36, Type (0, 0), BuildingBlock: KIFKEQ_clean_linker_1, # of connection points: 2
#     Edge 37, Type (0, 0), BuildingBlock: KIFKEQ_clean_linker_1, # of connection points: 2
#     Edge 38, Type (0, 0), BuildingBlock: KIFKEQ_clean_linker_1, # of connection points: 2
#     Edge 39, Type (0, 0), BuildingBlock: KIFKEQ_clean_linker_1, # of connection points: 2
#     Edge 40, Type (0, 0), BuildingBlock: KIFKEQ_clean_linker_1, # of connection points: 2
#     Edge 41, Type (0, 0), BuildingBlock: KIFKEQ_clean_linker_1, # of connection points: 2
# Relax obj value: 0.149
# Max RMSD: 0.180
# Mean RMSD: 0.180
data_MOF--net-wjz--node1-XOMCOT_clean_sbu_0--edge1-KIFKEQ_clean_linker_1
_symmetry_space_group_name_H-M    P1
_symmetry_Int_Tables_number       1
_symmetry_cell_setting            triclinic
loop_
_symmetry_equiv_pos_as_xyz
'x, y, z'
_cell_length_a     74.566907
_cell_length_b     74.591873
_cell_length_c     17.753677
_cell_angle_alpha  89.965579
_cell_angle_beta   90.006758
_cell_angle_gamma 120.02975
loop_
_atom_site_label
_atom_site_type_symbol
_atom_site_fract_x
_atom_site_fract_y
_atom_site_fract_z
_atom_type_partial_charge
Co0 Co 0.32892 0.48008 0.11461 0.0
C1 C 0.33292 0.483 0.28215 0.0
C2 C 0.34848 0.51273 0.22915 0.0
C3 C 0.34956 0.51558 0.30593 0.0
N4 N 0.33858 0.49225 0.21394 0.0
N5 N 0.33968 0.49684 0.33918 0.0
H6 H 0.32306 0.46662 0.29046 0.0
H7 H 0.35366 0.52483 0.18721 0.0
C8 C 0.37367 0.51039 0.09164 0.0
O9 O 0.37734 0.50292 0.15309 0.0
N10 N 0.31891 0.46841 0.01624 0.0
C11 C 0.30612 0.44829 1.00021 0.0
C12 C 0.30383 0.44612 0.92324 0.0
C13 C 0.32417 0.47825 0.9493 0.0
N14 N 0.31527 0.46497 0.89122 0.0
C15 C 0.33361 0.44696 0.17707 0.0
C16 C 0.36377 0.45075 0.07754 0.0
C17 C 0.358 0.43648 0.13677 0.0
C18 C 0.34228 0.43428 0.18577 0.0
C19 C 0.35476 0.46316 0.07131 0.0
N20 N 0.34091 0.4622 0.12387 0.0
H21 H 0.32067 0.44407 0.21201 0.0
H22 H 0.3589 0.47347 0.02363 0.0
H23 H 0.29928 0.436 0.04155 0.0
H24 H 0.33479 0.49468 0.9432 0.0
O25 O 0.30193 0.46187 0.1565 0.0
O26 O 0.31245 0.49338 0.11145 0.0
O27 O 0.35511 0.50295 0.06771 0.0
C28 C 0.29796 0.47673 0.14385 0.0
H29 H 0.35606 0.53031 0.33475 0.0
H30 H 0.29453 0.43173 0.89335 0.0
H31 H 0.37502 0.45221 0.03584 0.0
H32 H 0.3368 0.42301 0.23096 0.0
Co33 Co 0.84733 0.32989 0.27745 0.0
C34 C 0.84787 0.33342 0.44257 0.0
C35 C 0.83556 0.35102 0.391 0.0
C36 C 0.83448 0.35237 0.46821 0.0
N37 N 0.84404 0.33921 0.37531 0.0
N38 N 0.84213 0.34119 0.50049 0.0
H39 H 0.85452 0.3235 0.44872 0.0
H40 H 0.82999 0.35767 0.3494 0.0
C41 C 0.86635 0.36875 0.18687 0.0
O42 O 0.88069 0.36436 0.16664 0.0
N43 N 0.84969 0.31989 0.17819 0.0
C44 C 0.8527 0.30389 0.16198 0.0
C45 C 0.85181 0.30107 0.08518 0.0
C46 C 0.84559 0.32553 0.11071 0.0
N47 N 0.84747 0.31481 0.05289 0.0
C48 C 0.8863 0.33058 0.29442 0.0
C49 C 0.90889 0.37164 0.3372 0.0
C50 C 0.91922 0.36047 0.327 0.0
C51 C 0.90756 0.33951 0.30724 0.0
C52 C 0.88769 0.36211 0.32373 0.0
N53 N 0.87684 0.34217 0.29817 0.0
H54 H 0.87752 0.31429 0.28275 0.0
H55 H 0.88001 0.37097 0.33264 0.0
H56 H 0.85434 0.29406 0.20268 0.0
H57 H 0.84103 0.33707 0.10381 0.0
O58 O 0.83779 0.3028 0.31939 0.0
O59 O 0.81762 0.31362 0.26875 0.0
O60 O 0.85167 0.35653 0.23082 0.0
C61 C 0.8192 0.29901 0.30299 0.0
H62 H 0.82784 0.3603 0.49809 0.0
H63 H 0.85353 0.28932 0.0557 0.0
H64 H 0.91711 0.38762 0.35566 0.0
H65 H 0.9148 0.33012 0.30073 0.0
Co66 Co 0.51263 0.84775 0.45603 0.0
C67 C 0.50999 0.84922 0.62112 0.0
C68 C 0.4801 0.83751 0.56997 0.0
C69 C 0.47775 0.83658 0.64721 0.0
N70 N 0.50032 0.84549 0.55394 0.0
N71 N 0.49656 0.84382 0.67929 0.0
H72 H 0.52649 0.85538 0.62702 0.0
H73 H 0.46783 0.83202 0.5286 0.0
C74 C 0.49313 0.86598 0.35978 0.0
O75 O 0.51188 0.87946 0.33657 0.0
N76 N 0.52475 0.8491 0.35685 0.0
C77 C 0.54401 0.85281 0.34073 0.0
C78 C 0.54589 0.85157 0.26408 0.0
C79 C 0.51484 0.84418 0.28958 0.0
N80 N 0.52757 0.84636 0.23172 0.0
C81 C 0.55133 0.88617 0.47364 0.0
C82 C 0.53363 0.91024 0.50428 0.0
C83 C 0.55519 0.91984 0.49737 0.0
C84 C 0.56409 0.90747 0.48408 0.0
C85 C 0.52151 0.88892 0.49387 0.0
N86 N 0.53029 0.87735 0.47358 0.0
H87 H 0.55846 0.87683 0.46714 0.0
H88 H 0.50495 0.88175 0.5012 0.0
H89 H 0.55579 0.85532 0.38135 0.0
H90 H 0.49861 0.83913 0.28286 0.0
O91 O 0.53 0.83821 0.49946 0.0
O92 O 0.49878 0.81795 0.45064 0.0
O93 O 0.49047 0.85213 0.40816 0.0
C94 C 0.51501 0.81959 0.48481 0.0
H95 H 0.4632 0.83018 0.67724 0.0
H96 H 0.55961 0.85386 0.23476 0.0
H97 H 0.52617 0.9191 0.51795 0.0
H98 H 0.58074 0.91418 0.48071 0.0
Co99 Co 0.66253 0.51433 0.61211 0.0
C100 C 0.65851 0.51216 0.77738 0.0
C101 C 0.63884 0.48252 0.72656 0.0
C102 C 0.63726 0.48025 0.80375 0.0
N103 N 0.65209 0.50254 0.71034 0.0
N104 N 0.64975 0.49888 0.83557 0.0
H105 H 0.66968 0.52847 0.7832 0.0
H106 H 0.63144 0.47028 0.68535 0.0
C107 C 0.62419 0.49623 0.51885 0.0
O108 O 0.63002 0.51513 0.49584 0.0
N109 N 0.6737 0.5258 0.51253 0.0
C110 C 0.69098 0.54395 0.49662 0.0
C111 C 0.69411 0.54565 0.42 0.0
C112 C 0.66758 0.51614 0.44506 0.0
N113 N 0.67925 0.52819 0.38749 0.0
C114 C 0.66465 0.55419 0.61982 0.0
C115 C 0.62403 0.53859 0.66486 0.0
C116 C 0.63628 0.55981 0.65065 0.0
C117 C 0.65692 0.56768 0.62889 0.0
C118 C 0.63226 0.52565 0.6538 0.0
N119 N 0.65207 0.53333 0.62808 0.0
H120 H 0.68081 0.56069 0.60753 0.0
H121 H 0.62251 0.50929 0.6647 0.0
H122 H 0.70132 0.55498 0.53754 0.0
H123 H 0.65498 0.5005 0.43787 0.0
O124 O 0.68977 0.5307 0.65485 0.0
O125 O 0.67689 0.49892 0.60813 0.0
O126 O 0.6354 0.49305 0.56539 0.0
C127 C 0.69212 0.51486 0.64115 0.0
H128 H 0.62834 0.46582 0.83397 0.0
H129 H 0.70671 0.55853 0.39078 0.0
H130 H 0.60806 0.53197 0.68269 0.0
H131 H 0.66706 0.58413 0.62009 0.0
Co132 Co 0.14482 0.66476 0.78322 0.0
C133 C 0.14433 0.66116 0.95067 0.0
C134 C 0.15518 0.64264 0.89774 0.0
C135 C 0.1569 0.64144 0.97451 0.0
N136 N 0.14658 0.65443 0.88244 0.0
N137 N 0.15006 0.65313 0.00783 0.0
H138 H 0.14044 0.67312 0.95865 0.0
H139 H 0.16086 0.63614 0.85605 0.0
C140 C 0.12974 0.62001 0.75291 0.0
O141 O 0.11774 0.61528 0.8125 0.0
N142 N 0.14391 0.6754 0.68505 0.0
C143 C 0.13571 0.68735 0.66765 0.0
C144 C 0.13637 0.68981 0.59058 0.0
C145 C 0.14963 0.6709 0.61893 0.0
N146 N 0.14503 0.67936 0.55992 0.0
C147 C 0.10658 0.6587 0.84723 0.0
C148 C 0.0809 0.63149 0.7385 0.0
C149 C 0.07196 0.63592 0.79997 0.0
C150 C 0.08517 0.65006 0.8541 0.0
C151 C 0.10236 0.64027 0.73448 0.0
N152 N 0.1149 0.65285 0.79056 0.0
H153 H 0.11636 0.67044 0.88668 0.0
H154 H 0.10889 0.63702 0.68564 0.0
H155 H 0.12901 0.6932 0.70795 0.0
H156 H 0.15675 0.6614 0.61421 0.0
O157 O 0.15366 0.6916 0.82658 0.0
O158 O 0.17457 0.68091 0.78221 0.0
O159 O 0.14151 0.63892 0.73408 0.0
C160 C 0.17248 0.69539 0.8148 0.0
H161 H 0.16326 0.63307 1.00317 0.0
H162 H 0.13011 0.69793 0.55953 0.0
H163 H 0.07147 0.62147 0.69326 0.0
H164 H 0.07913 0.65438 0.90186 0.0
Co165 Co 0.47836 0.14608 0.94888 0.0
C166 C 0.48154 0.14505 0.11402 0.0
C167 C 0.51146 0.15877 0.06134 0.0
C168 C 0.51413 0.16013 0.13836 0.0
N169 N 0.49104 0.14931 0.04642 0.0
N170 N 0.4953 0.15154 0.1713 0.0
H171 H 0.46496 0.1382 0.12091 0.0
H172 H 0.52357 0.16486 0.01923 0.0
C173 C 0.49777 0.12624 0.85994 0.0
O174 O 0.47903 0.11185 0.84008 0.0
N175 N 0.46602 0.14379 0.8496 0.0
C176 C 0.44746 0.14187 0.83321 0.0
C177 C 0.44572 0.14295 0.75641 0.0
C178 C 0.47569 0.14732 0.78222 0.0
N179 N 0.46347 0.1462 0.72399 0.0
C180 C 0.43943 0.10818 0.96728 0.0
C181 C 0.45619 0.08421 0.01237 0.0
C182 C 0.43468 0.07484 1.00373 0.0
C183 C 0.42629 0.08719 0.98227 0.0
C184 C 0.46874 0.10524 0.99663 0.0
N185 N 0.46041 0.11674 0.97044 0.0
H186 H 0.4326 0.11755 0.95499 0.0
H187 H 0.48527 0.11226 1.00457 0.0
H188 H 0.43626 0.14095 0.87379 0.0
H189 H 0.49163 0.15127 0.77611 0.0
O190 O 0.46138 0.15632 0.99032 0.0
O191 O 0.49245 0.1758 0.93906 0.0
O192 O 0.50028 0.14106 0.90303 0.0
C193 C 0.47642 0.1747 0.97298 0.0
H194 H 0.52881 0.16718 0.16777 0.0
H195 H 0.43258 0.14214 0.72741 0.0
H196 H 0.46335 0.07532 0.0298 0.0
H197 H 0.40969 0.08077 0.9782 0.0
Co198 Co 0.51429 0.66464 0.7247 0.0
C199 C 0.51141 0.66083 0.55931 0.0
C200 C 0.48202 0.64108 0.61172 0.0
C201 C 0.47948 0.63931 0.53473 0.0
N202 N 0.50204 0.65452 0.62685 0.0
N203 N 0.49796 0.65184 0.50165 0.0
H204 H 0.5276 0.67232 0.55296 0.0
H205 H 0.46998 0.63343 0.65353 0.0
C206 C 0.49493 0.62597 0.81706 0.0
O207 O 0.51367 0.63065 0.83826 0.0
N208 N 0.52613 0.67531 0.82409 0.0
C209 C 0.54477 0.69177 0.84121 0.0
C210 C 0.54633 0.69445 0.91811 0.0
C211 C 0.51617 0.66928 0.89097 0.0
N212 N 0.52834 0.68012 0.94954 0.0
C213 C 0.55344 0.6657 0.71276 0.0
C214 C 0.53699 0.6248 0.67045 0.0
C215 C 0.55834 0.63687 0.6828 0.0
C216 C 0.56662 0.65767 0.70283 0.0
C217 C 0.52435 0.63339 0.68217 0.0
N218 N 0.53248 0.65331 0.70713 0.0
H219 H 0.56024 0.68197 0.7234 0.0
H220 H 0.5079 0.62384 0.67255 0.0
H221 H 0.55628 0.70189 0.80112 0.0
H222 H 0.50003 0.65769 0.89672 0.0
O223 O 0.53134 0.6917 0.68182 0.0
O224 O 0.49997 0.68012 0.7303 0.0
O225 O 0.49239 0.63789 0.77194 0.0
C226 C 0.5161 0.69495 0.69647 0.0
H227 H 0.46502 0.62963 0.50576 0.0
H228 H 0.55972 0.70612 0.94816 0.0
H229 H 0.53004 0.60872 0.65365 0.0
H230 H 0.58317 0.6677 0.70971 0.0
Co231 Co 0.84505 0.51372 0.89293 0.0
C232 C 0.84559 0.51083 0.72534 0.0
C233 C 0.83599 0.48168 0.77841 0.0
C234 C 0.83433 0.47873 0.70172 0.0
N235 N 0.84379 0.50199 0.79355 0.0
N236 N 0.84038 0.49711 0.66832 0.0
H237 H 0.84878 0.52647 0.71725 0.0
H238 H 0.83085 0.46956 0.82022 0.0
C239 C 0.8629 0.48631 0.91992 0.0
O240 O 0.87463 0.49461 0.86025 0.0
N241 N 0.84547 0.52484 0.99129 0.0
C242 C 0.85246 0.54482 0.00855 0.0
C243 C 0.85171 0.54652 0.08557 0.0
C244 C 0.8404 0.51461 0.05743 0.0
N245 N 0.8442 0.52751 0.11632 0.0
C246 C 0.88196 0.54752 0.82778 0.0
C247 C 0.90928 0.54723 0.93231 0.0
C248 C 0.91713 0.56042 0.86989 0.0
C249 C 0.90318 0.56086 0.81822 0.0
C250 C 0.88795 0.53397 0.93908 0.0
N251 N 0.87466 0.53327 0.88452 0.0
H252 H 0.87149 0.549 0.79028 0.0
H253 H 0.88215 0.52408 0.98803 0.0
H254 H 0.85834 0.55736 0.96813 0.0
H255 H 0.83429 0.49811 0.0622 0.0
O256 O 0.83451 0.53049 0.85114 0.0
O257 O 0.81525 0.49837 0.89454 0.0
O258 O 0.85025 0.49219 0.94074 0.0
C259 C 0.81621 0.51457 0.86291 0.0
H260 H 0.82856 0.46405 0.67316 0.0
H261 H 0.85708 0.5608 0.11649 0.0
H262 H 0.91953 0.54677 0.97451 0.0
H263 H 0.90862 0.57156 0.7712 0.0
Co264 Co 0.32668 0.84724 0.07265 0.0
C265 C 0.33091 0.84913 0.90529 0.0
C266 C 0.3494 0.8381 0.95746 0.0
C267 C 0.35072 0.83669 0.88064 0.0
N268 N 0.33749 0.84654 0.97329 0.0
N269 N 0.339 0.84357 0.84786 0.0
H270 H 0.31941 0.85366 0.89758 0.0
H271 H 0.3557 0.83211 0.9988 0.0
C272 C 0.37157 0.86381 0.10152 0.0
O273 O 0.37536 0.87652 0.04467 0.0
N274 N 0.31558 0.84713 0.17095 0.0
C275 C 0.30137 0.85268 0.18683 0.0
C276 C 0.29879 0.85214 0.2637 0.0
C277 C 0.3214 0.84321 0.23802 0.0
N278 N 0.31148 0.8463 0.29593 0.0
C279 C 0.3311 0.8853 0.01374 0.0
C280 C 0.35851 0.91088 0.12233 0.0
C281 C 0.35346 0.91979 0.06246 0.0
C282 C 0.33911 0.90664 0.00879 0.0
C283 C 0.35007 0.88946 0.12511 0.0
N284 N 0.33765 0.87705 0.06843 0.0
H285 H 0.31924 0.87547 0.97467 0.0
H286 H 0.3538 0.8829 0.1727 0.0
H287 H 0.29382 0.85731 0.1455 0.0
H288 H 0.33323 0.83898 0.24443 0.0
O289 O 0.29984 0.83803 0.02875 0.0
O290 O 0.31117 0.81741 0.0707 0.0
O291 O 0.35291 0.85099 0.1206 0.0
C292 C 0.29649 0.81931 0.03863 0.0
H293 H 0.35862 0.8299 0.85148 0.0
H294 H 0.28849 0.85598 0.29338 0.0
H295 H 0.36921 0.92034 0.16599 0.0
H296 H 0.33391 0.91276 0.96382 0.0
Co297 Co 0.47955 0.33049 0.21827 0.0
C298 C 0.48193 0.33444 0.05089 0.0
C299 C 0.51094 0.35498 0.10292 0.0
C300 C 0.51372 0.35627 0.0261 0.0
N301 N 0.4908 0.3418 0.11888 0.0
N302 N 0.49544 0.34326 0.99337 0.0
H303 H 0.4663 0.32188 0.04343 0.0
H304 H 0.5232 0.36218 0.14409 0.0
C305 C 0.50668 0.37536 0.25109 0.0
O306 O 0.49733 0.37915 0.19573 0.0
N307 N 0.46885 0.31884 0.31649 0.0
C308 C 0.44928 0.30412 0.33244 0.0
C309 C 0.44737 0.30131 0.40926 0.0
C310 C 0.47863 0.32472 0.38352 0.0
N311 N 0.4658 0.31437 0.44148 0.0
C312 C 0.44648 0.33588 0.15856 0.0
C313 C 0.44664 0.36075 0.2741 0.0
C314 C 0.43386 0.35738 0.2116 0.0
C315 C 0.43343 0.34425 0.15431 0.0
C316 C 0.45951 0.35219 0.2757 0.0
N317 N 0.46031 0.341 0.21611 0.0
H318 H 0.44523 0.32517 0.11579 0.0
H319 H 0.46923 0.355 0.32446 0.0
H320 H 0.43709 0.29639 0.29125 0.0
H321 H 0.49455 0.33693 0.38991 0.0
O322 O 0.46219 0.30376 0.17336 0.0
O323 O 0.49434 0.31547 0.21407 0.0
O324 O 0.50167 0.35672 0.26725 0.0
C325 C 0.47781 0.30073 0.18194 0.0
H326 H 0.52835 0.36509 0.99699 0.0
H327 H 0.43336 0.29061 0.43889 0.0
H328 H 0.44684 0.37004 0.3213 0.0
H329 H 0.42346 0.34076 0.10568 0.0
Co330 Co 0.14719 0.4792 0.4092 0.0
C331 C 0.1459 0.48206 0.24179 0.0
C332 C 0.15797 0.51163 0.29462 0.0
C333 C 0.15955 0.51449 0.21786 0.0
N334 N 0.14874 0.49118 0.31001 0.0
N335 N 0.15199 0.49585 0.18456 0.0
H336 H 0.14133 0.46602 0.23384 0.0
H337 H 0.16418 0.52383 0.33627 0.0
C338 C 0.13244 0.50909 0.43843 0.0
O339 O 0.12059 0.50175 0.37851 0.0
N340 N 0.14646 0.46772 0.50731 0.0
C341 C 0.13831 0.44756 0.52456 0.0
C342 C 0.13886 0.4457 0.60161 0.0
C343 C 0.15204 0.47789 0.57354 0.0
N344 N 0.1474 0.46479 0.63246 0.0
C345 C 0.10862 0.4467 0.34805 0.0
C346 C 0.08348 0.44972 0.45563 0.0
C347 C 0.07428 0.43603 0.3953 0.0
C348 C 0.08714 0.43417 0.34214 0.0
C349 C 0.10497 0.4619 0.45932 0.0
N350 N 0.11724 0.4613 0.4033 0.0
H351 H 0.11821 0.44431 0.30898 0.0
H352 H 0.11172 0.47187 0.50756 0.0
H353 H 0.13167 0.43503 0.48416 0.0
H354 H 0.15903 0.4945 0.57839 0.0
O355 O 0.15574 0.46103 0.36533 0.0
O356 O 0.17694 0.49267 0.40887 0.0
O357 O 0.14412 0.50192 0.45823 0.0
C358 C 0.17463 0.47603 0.37608 0.0
H359 H 0.16637 0.52926 0.18921 0.0
H360 H 0.13258 0.43129 0.63249 0.0
H361 H 0.07417 0.45096 0.4999 0.0
H362 H 0.08071 0.42335 0.29574 0.0
Co363 Co 0.66354 0.14782 0.55627 0.0
C364 C 0.65964 0.14677 0.38873 0.0
C365 C 0.64165 0.15824 0.44169 0.0
C366 C 0.64035 0.15984 0.36497 0.0
N367 N 0.65318 0.14936 0.45696 0.0
N368 N 0.65173 0.15264 0.33161 0.0
H369 H 0.67135 0.14253 0.38068 0.0
H370 H 0.63539 0.16417 0.48341 0.0
C371 C 0.61867 0.13197 0.58357 0.0
O372 O 0.61487 0.12014 0.52399 0.0
N373 N 0.67419 0.14714 0.65453 0.0
C374 C 0.68659 0.13944 0.67178 0.0
C375 C 0.68899 0.14003 0.74881 0.0
C376 C 0.66934 0.15248 0.72072 0.0
N377 N 0.67805 0.14815 0.77962 0.0
C378 C 0.65857 0.10984 0.49435 0.0
C379 C 0.6309 0.08395 0.60185 0.0
C380 C 0.63605 0.07523 0.54168 0.0
C381 C 0.65042 0.08849 0.48833 0.0
C382 C 0.63937 0.10535 0.60547 0.0
N383 N 0.65208 0.11796 0.54967 0.0
H384 H 0.67053 0.11976 0.45572 0.0
H385 H 0.63564 0.11177 0.65345 0.0
H386 H 0.6928 0.13312 0.63138 0.0
H387 H 0.65939 0.1591 0.72553 0.0
O388 O 0.69042 0.15683 0.51319 0.0
O389 O 0.67949 0.17765 0.55646 0.0
O390 O 0.63735 0.14411 0.60449 0.0
C391 C 0.69406 0.1756 0.52411 0.0
H392 H 0.63214 0.16639 0.33638 0.0
H393 H 0.69743 0.1341 0.7797 0.0
H394 H 0.62016 0.07432 0.64519 0.0
H395 H 0.65558 0.08246 0.44296 0.0
H396 H 0.30729 0.46323 0.40428 0.0
H397 H 0.36309 0.52074 0.45499 0.0
H398 H 0.30114 0.45576 0.53816 0.0
H399 H 0.35683 0.51329 0.58933 0.0
H400 H 0.32698 0.50199 0.82412 0.0
H401 H 0.33273 0.51004 0.69013 0.0
H402 H 0.3163 0.44681 0.64357 0.0
H403 H 0.31068 0.43878 0.77714 0.0
C404 C 0.31837 0.47421 0.44381 0.0
C405 C 0.33579 0.49254 0.41864 0.0
C406 C 0.3148 0.46993 0.52072 0.0
C407 C 0.32853 0.48389 0.57443 0.0
C408 C 0.34582 0.50233 0.54941 0.0
C409 C 0.34941 0.5066 0.47241 0.0
C410 C 0.32472 0.48983 0.78548 0.0
C411 C 0.31831 0.46971 0.81176 0.0
C412 C 0.32802 0.49445 0.7086 0.0
C413 C 0.32494 0.47905 0.65616 0.0
C414 C 0.31848 0.45894 0.68234 0.0
C415 C 0.31523 0.45433 0.75911 0.0
H416 H 0.8257 0.33082 0.98606 0.0
H417 H 0.86583 0.30598 0.93841 0.0
H418 H 0.82416 0.33707 0.85212 0.0
H419 H 0.86437 0.31228 0.80473 0.0
H420 H 0.84062 0.30741 0.56447 0.0
H421 H 0.84128 0.30058 0.6982 0.0
H422 H 0.84566 0.35917 0.75108 0.0
H423 H 0.84486 0.36592 0.61704 0.0
C424 C 0.83428 0.32678 0.94722 0.0
C425 C 0.84587 0.31786 0.97331 0.0
C426 C 0.83343 0.33039 0.87028 0.0
C427 C 0.84416 0.32521 0.81747 0.0
C428 C 0.85563 0.31617 0.84355 0.0
C429 C 0.85645 0.31252 0.92039 0.0
C430 C 0.84194 0.31895 0.60448 0.0
C431 C 0.84277 0.33727 0.57984 0.0
C432 C 0.8423 0.31502 0.68132 0.0
C433 C 0.84355 0.32932 0.7356 0.0
C434 C 0.84436 0.34765 0.71096 0.0
C435 C 0.84395 0.35156 0.63405 0.0
H436 H 0.4898 0.82488 0.164 0.0
H437 H 0.55493 0.86493 0.11745 0.0
H438 H 0.48219 0.82402 0.03013 0.0
H439 H 0.54731 0.86406 0.98404 0.0
H440 H 0.52857 0.84159 0.74243 0.0
H441 H 0.53584 0.84144 0.87597 0.0
H442 H 0.48199 0.8463 0.93069 0.0
H443 H 0.47469 0.84639 0.79681 0.0
C444 C 0.50251 0.83355 0.1255 0.0
C445 C 0.52301 0.84493 0.152 0.0
C446 C 0.49813 0.83309 0.04857 0.0
C447 C 0.51413 0.84399 0.99612 0.0
C448 C 0.53462 0.8552 0.02254 0.0
C449 C 0.539 0.85567 0.09932 0.0
C450 C 0.51839 0.84287 0.78276 0.0
C451 C 0.50107 0.84409 0.75861 0.0
C452 C 0.52255 0.84274 0.85953 0.0
C453 C 0.50951 0.84386 0.9143 0.0
C454 C 0.49218 0.84508 0.89018 0.0
C455 C 0.48801 0.84519 0.81333 0.0
H456 H 0.6853 0.52892 0.89868 0.0
H457 H 0.62418 0.47862 0.95253 0.0
H458 H 0.69293 0.53578 0.03233 0.0
H459 H 0.63173 0.48555 0.08647 0.0
H460 H 0.65976 0.4904 0.31975 0.0
H461 H 0.65274 0.48325 0.18577 0.0
H462 H 0.68364 0.54894 0.14024 0.0
H463 H 0.69071 0.55606 0.27387 0.0
C464 C 0.67338 0.51948 0.93898 0.0
C465 C 0.65409 0.50325 0.91478 0.0
C466 C 0.67777 0.5234 0.01575 0.0
C467 C 0.66296 0.51122 0.07032 0.0
C468 C 0.64363 0.49502 0.04608 0.0
C469 C 0.63927 0.49107 0.96927 0.0
C470 C 0.66501 0.50332 0.28128 0.0
C471 C 0.67585 0.52383 0.30786 0.0
C472 C 0.66094 0.49922 0.20435 0.0
C473 C 0.66759 0.51551 0.15209 0.0
C474 C 0.67858 0.536 0.17864 0.0
C475 C 0.68267 0.5401 0.25544 0.0
H476 H 0.17359 0.64964 0.11796 0.0
H477 H 0.12643 0.66614 0.07921 0.0
H478 H 0.17323 0.65652 0.25187 0.0
H479 H 0.12633 0.67327 0.21291 0.0
H480 H 0.14707 0.70406 0.44385 0.0
H481 H 0.14888 0.69808 0.30986 0.0
H482 H 0.14974 0.64194 0.36127 0.0
H483 H 0.14768 0.64771 0.49503 0.0
C484 C 0.16305 0.65461 0.13777 0.0
C485 C 0.15005 0.65734 0.08731 0.0
C486 C 0.16289 0.65859 0.21468 0.0
C487 C 0.14979 0.6655 0.24303 0.0
C488 C 0.13685 0.66829 0.1927 0.0
C489 C 0.13693 0.66421 0.11591 0.0
C490 C 0.14754 0.69038 0.42676 0.0
C491 C 0.14717 0.67637 0.48068 0.0
C492 C 0.14859 0.68696 0.34985 0.0
C493 C 0.14939 0.6695 0.32489 0.0
C494 C 0.1494 0.65568 0.37869 0.0
C495 C 0.14826 0.65904 0.45558 0.0
H496 H 0.50126 0.15937 0.65808 0.0
H497 H 0.43666 0.1365 0.60607 0.0
H498 H 0.5087 0.16012 0.52528 0.0
H499 H 0.44449 0.1384 0.47295 0.0
H500 H 0.46107 0.12267 0.24429 0.0
H501 H 0.45341 0.12161 0.37833 0.0
H502 H 0.51165 0.17821 0.41172 0.0
H503 H 0.51939 0.17893 0.27818 0.0
C504 C 0.48857 0.15459 0.61898 0.0
C505 C 0.46825 0.14782 0.64423 0.0
C506 C 0.49296 0.15525 0.54213 0.0
C507 C 0.47722 0.14932 0.48804 0.0
C508 C 0.45697 0.14281 0.51292 0.0
C509 C 0.45254 0.14199 0.5898 0.0
C510 C 0.47217 0.1349 0.28033 0.0
C511 C 0.49086 0.15083 0.25065 0.0
C512 C 0.46777 0.13436 0.35718 0.0
C513 C 0.4819 0.14984 0.40613 0.0
C514 C 0.50057 0.16581 0.37617 0.0
C515 C 0.50502 0.16625 0.29948 0.0
H516 H 0.47006 0.64342 0.38876 0.0
H517 H 0.53555 0.66935 0.4318 0.0
H518 H 0.47724 0.65041 0.2552 0.0
H519 H 0.54261 0.67675 0.29814 0.0
H520 H 0.5475 0.70682 0.06589 0.0
H521 H 0.54017 0.69986 0.19978 0.0
H522 H 0.49055 0.63826 0.14843 0.0
H523 H 0.49809 0.64488 0.01484 0.0
C524 C 0.48597 0.65045 0.37018 0.0
C525 C 0.50219 0.65577 0.42194 0.0
C526 C 0.49006 0.65452 0.29334 0.0
C527 C 0.51048 0.66418 0.26623 0.0
C528 C 0.52673 0.66955 0.31756 0.0
C529 C 0.52263 0.6653 0.39438 0.0
C530 C 0.53511 0.69174 0.0828 0.0
C531 C 0.5234 0.67647 0.02887 0.0
C532 C 0.53091 0.68777 0.15971 0.0
C533 C 0.5148 0.66852 0.18457 0.0
C534 C 0.50291 0.65334 0.13091 0.0
C535 C 0.50721 0.65722 0.0541 0.0
H536 H 0.8176 0.46957 0.55854 0.0
H537 H 0.86281 0.53395 0.5967 0.0
H538 H 0.8177 0.47655 0.42447 0.0
H539 H 0.86262 0.54092 0.46284 0.0
H540 H 0.84047 0.54928 0.23185 0.0
H541 H 0.83899 0.54168 0.36588 0.0
H542 H 0.84184 0.48654 0.31559 0.0
H543 H 0.84366 0.49423 0.18169 0.0
C544 C 0.82765 0.48518 0.53857 0.0
C545 C 0.84019 0.50119 0.58885 0.0
C546 C 0.82766 0.48918 0.4616 0.0
C547 C 0.84012 0.50929 0.43313 0.0
C548 C 0.85259 0.52531 0.48325 0.0
C549 C 0.85268 0.5213 0.56009 0.0
C550 C 0.84091 0.5356 0.24916 0.0
C551 C 0.84226 0.52244 0.19555 0.0
C552 C 0.84004 0.53124 0.32608 0.0
C553 C 0.84036 0.51355 0.3513 0.0
C554 C 0.84132 0.50017 0.29785 0.0
C555 C 0.84231 0.50458 0.22092 0.0
H556 H 0.30411 0.86612 0.40959 0.0
H557 H 0.32673 0.82402 0.36373 0.0
H558 H 0.31041 0.86479 0.54316 0.0
H559 H 0.33322 0.82287 0.49778 0.0
H560 H 0.36357 0.84591 0.73143 0.0
H561 H 0.35647 0.8458 0.59728 0.0
H562 H 0.29749 0.84061 0.64967 0.0
H563 H 0.30447 0.84053 0.78347 0.0
C564 C 0.31019 0.85637 0.42785 0.0
C565 C 0.31485 0.84514 0.37548 0.0
C566 C 0.31384 0.85564 0.50464 0.0
C567 C 0.32231 0.84371 0.53114 0.0
C568 C 0.32694 0.83242 0.47902 0.0
C569 C 0.32322 0.8331 0.40212 0.0
C570 C 0.34901 0.84454 0.71437 0.0
C571 C 0.33468 0.84335 0.76848 0.0
C572 C 0.34493 0.84447 0.63745 0.0
C573 C 0.32644 0.84325 0.61282 0.0
C574 C 0.31204 0.84191 0.66683 0.0
C575 C 0.31609 0.84193 0.74369 0.0
H576 H 0.51667 0.36829 0.87629 0.0
H577 H 0.46549 0.30755 0.92952 0.0
H578 H 0.50993 0.36072 0.74232 0.0
H579 H 0.45866 0.30014 0.79587 0.0
H580 H 0.50361 0.33144 0.50892 0.0
H581 H 0.51118 0.33817 0.64288 0.0
H582 H 0.44594 0.31176 0.68938 0.0
H583 H 0.43833 0.30525 0.55594 0.0
C584 C 0.5041 0.35327 0.85958 0.0
C585 C 0.49158 0.33862 0.91403 0.0
C586 C 0.50024 0.34894 0.78272 0.0
C587 C 0.48372 0.32986 0.75843 0.0
C588 C 0.4713 0.31512 0.81276 0.0
C589 C 0.4752 0.31942 0.88956 0.0
C590 C 0.49086 0.32717 0.54749 0.0
C591 C 0.47033 0.31776 0.5211 0.0
C592 C 0.49523 0.33102 0.62438 0.0
C593 C 0.47916 0.32548 0.6768 0.0
C594 C 0.45865 0.31593 0.65062 0.0
C595 C 0.45429 0.31216 0.57384 0.0
H596 H 0.17597 0.52263 0.07453 0.0
H597 H 0.12771 0.45936 0.11292 0.0
H598 H 0.17552 0.51537 0.94073 0.0
H599 H 0.12757 0.45209 0.97916 0.0
H600 H 0.14888 0.44187 0.74875 0.0
H601 H 0.15034 0.44951 0.88275 0.0
H602 H 0.15193 0.50685 0.83114 0.0
H603 H 0.15014 0.49914 0.69736 0.0
C604 C 0.16516 0.50721 0.0547 0.0
C605 C 0.15187 0.49159 0.10505 0.0
C606 C 0.16496 0.50305 0.97782 0.0
C607 C 0.15155 0.48315 0.94937 0.0
C608 C 0.13831 0.46751 0.99952 0.0
C609 C 0.13842 0.47169 0.07632 0.0
C610 C 0.14941 0.45605 0.76576 0.0
C611 C 0.14933 0.46983 0.71176 0.0
C612 C 0.15026 0.46042 0.84268 0.0
C613 C 0.15119 0.47875 0.86756 0.0
C614 C 0.15148 0.49271 0.81374 0.0
C615 C 0.1505 0.48829 0.73683 0.0
H616 H 0.64603 0.15013 0.84472 0.0
H617 H 0.70287 0.15041 0.89559 0.0
H618 H 0.64017 0.15197 0.97857 0.0
H619 H 0.69674 0.15189 0.02959 0.0
H620 H 0.66445 0.1288 0.25997 0.0
H621 H 0.67154 0.12873 0.12615 0.0
H622 H 0.65517 0.1759 0.08774 0.0
H623 H 0.6484 0.17631 0.22166 0.0
C624 C 0.65743 0.15084 0.88408 0.0
C625 C 0.67495 0.15008 0.85888 0.0
C626 C 0.65402 0.15184 0.961 0.0
C627 C 0.66794 0.15199 0.01463 0.0
C628 C 0.68556 0.15148 0.98963 0.0
C629 C 0.68905 0.15061 0.91272 0.0
C630 C 0.66259 0.13936 0.22337 0.0
C631 C 0.65587 0.15258 0.25211 0.0
C632 C 0.66665 0.13929 0.14655 0.0
C633 C 0.66393 0.15233 0.09642 0.0
C634 C 0.65716 0.1655 0.12487 0.0
C635 C 0.65324 0.16568 0.20178 0.0
H636 H 0.45436 0.61618 0.81041 0.0
H637 H 0.49444 0.59529 0.90221 0.0
H638 H 0.4249 0.58806 0.87529 0.0
H639 H 0.46492 0.56679 0.96489 0.0
H640 H 0.37311 0.5244 0.94956 0.0
H641 H 0.40218 0.55139 0.87913 0.0
H642 H 0.44258 0.56135 0.06851 0.0
H643 H 0.41372 0.53395 0.13764 0.0
C644 C 0.45684 0.60542 0.84364 0.0
C645 C 0.47676 0.60804 0.85155 0.0
C646 C 0.43992 0.58923 0.88059 0.0
C647 C 0.44253 0.57521 0.92579 0.0
C648 C 0.4624 0.57754 0.93187 0.0
C649 C 0.47932 0.59381 0.89547 0.0
C650 C 0.38821 0.53236 0.97608 0.0
C651 C 0.39113 0.52701 0.04913 0.0
C652 C 0.40486 0.5479 0.93583 0.0
C653 C 0.42476 0.55853 0.96798 0.0
C654 C 0.42758 0.55323 0.04132 0.0
C655 C 0.41099 0.53759 0.08125 0.0
H656 H 0.89782 0.40072 0.11072 0.0
H657 H 0.83518 0.37801 0.18838 0.0
H658 H 0.89766 0.42996 0.05076 0.0
H659 H 0.83472 0.40691 0.12603 0.0
H660 H 0.84676 0.4709 0.05896 0.0
H661 H 0.84837 0.44351 0.12815 0.0
H662 H 0.88261 0.43672 0.94455 0.0
H663 H 0.8816 0.46455 0.87677 0.0
C664 C 0.88398 0.40195 0.11483 0.0
C665 C 0.86648 0.387 0.15397 0.0
C666 C 0.88384 0.41866 0.08003 0.0
C667 C 0.86612 0.42072 0.08288 0.0
C668 C 0.84873 0.40596 0.12337 0.0
C669 C 0.84894 0.38932 0.15883 0.0
C670 C 0.85467 0.46358 0.03351 0.0
C671 C 0.86405 0.46988 0.96237 0.0
C672 C 0.85551 0.4478 0.07302 0.0
C673 C 0.86561 0.43787 0.042 0.0
C674 C 0.87502 0.44426 0.97084 0.0
C675 C 0.87434 0.46014 0.93169 0.0
H676 H 0.37075 0.83404 0.19368 0.0
H677 H 0.41165 0.89511 0.10436 0.0
H678 H 0.39992 0.83458 0.25785 0.0
H679 H 0.4406 0.89616 0.17126 0.0
H680 H 0.4919 0.88279 0.22556 0.0
H681 H 0.4623 0.88206 0.16558 0.0
H682 H 0.42408 0.84891 0.35693 0.0
H683 H 0.4537 0.84882 0.41528 0.0
C684 C 0.38595 0.84768 0.18852 0.0
C685 C 0.38898 0.86445 0.14342 0.0
C686 C 0.40267 0.84806 0.22572 0.0
C687 C 0.42272 0.86536 0.2195 0.0
C688 C 0.42553 0.88235 0.17595 0.0
C689 C 0.4089 0.88182 0.13786 0.0
C690 C 0.47719 0.87542 0.25498 0.0
C691 C 0.47511 0.86592 0.3252 0.0
C692 C 0.4602 0.87509 0.22076 0.0
C693 C 0.44075 0.86556 0.25651 0.0
C694 C 0.43872 0.85614 0.32717 0.0
C695 C 0.45571 0.85619 0.36091 0.0
H696 H 0.53609 0.37497 0.34178 0.0
H697 H 0.51397 0.4149 0.25909 0.0
H698 H 0.56391 0.40408 0.40903 0.0
H699 H 0.54107 0.44376 0.32905 0.0
H700 H 0.60547 0.49592 0.38702 0.0
H701 H 0.57682 0.46654 0.32518 0.0
H702 H 0.57256 0.42712 0.51125 0.0
H703 H 0.60202 0.45652 0.57143 0.0
C704 C 0.53705 0.38994 0.3387 0.0
C705 C 0.523 0.39272 0.29456 0.0
C706 C 0.55291 0.40661 0.37772 0.0
C707 C 0.55487 0.42637 0.37433 0.0
C708 C 0.54039 0.42893 0.33165 0.0
C709 C 0.52476 0.41234 0.29178 0.0
C710 C 0.59833 0.48101 0.41498 0.0
C711 C 0.60597 0.47851 0.48408 0.0
C712 C 0.58179 0.46413 0.37967 0.0
C713 C 0.57224 0.44438 0.41318 0.0
C714 C 0.57972 0.44199 0.48311 0.0
C715 C 0.5965 0.45886 0.51792 0.0
H716 H 0.14554 0.51988 0.58351 0.0
H717 H 0.11768 0.53459 0.39768 0.0
H718 H 0.14424 0.54642 0.65997 0.0
H719 H 0.11655 0.56124 0.47422 0.0
H720 H 0.14352 0.62294 0.60873 0.0
H721 H 0.14369 0.5958 0.53265 0.0
H722 H 0.11595 0.5526 0.71657 0.0
H723 H 0.11562 0.57975 0.79286 0.0
C724 C 0.1392 0.52881 0.55893 0.0
C725 C 0.13176 0.52521 0.48453 0.0
C726 C 0.13833 0.54389 0.60288 0.0
C727 C 0.13029 0.55584 0.57289 0.0
C728 C 0.12294 0.5523 0.49844 0.0
C729 C 0.12352 0.53702 0.45484 0.0
C730 C 0.13745 0.60767 0.63299 0.0
C731 C 0.1296 0.60347 0.70683 0.0
C732 C 0.13744 0.59212 0.58926 0.0
C733 C 0.12985 0.57215 0.61885 0.0
C734 C 0.12202 0.56793 0.69269 0.0
C735 C 0.12174 0.58342 0.7361 0.0
H736 H 0.57816 0.11372 0.54158 0.0
H737 H 0.61984 0.14787 0.72358 0.0
H738 H 0.54942 0.11215 0.61183 0.0
H739 H 0.59091 0.14569 0.79525 0.0
H740 H 0.53811 0.15763 0.86183 0.0
H741 H 0.5675 0.15883 0.79716 0.0
H742 H 0.52801 0.09619 0.71847 0.0
H743 H 0.49852 0.09529 0.78091 0.0
C744 C 0.58116 0.12075 0.59692 0.0
C745 C 0.60127 0.13095 0.62693 0.0
C746 C 0.56464 0.11972 0.63751 0.0
C747 C 0.56779 0.12869 0.70947 0.0
C748 C 0.58795 0.13884 0.73962 0.0
C749 C 0.60453 0.14003 0.69866 0.0
C750 C 0.53574 0.14407 0.8311 0.0
C751 C 0.51595 0.12641 0.82602 0.0
C752 C 0.55263 0.14472 0.79428 0.0
C753 C 0.55012 0.12766 0.75208 0.0
C754 C 0.53042 0.10978 0.74908 0.0
C755 C 0.51352 0.1092 0.78532 0.0
H756 H 0.26577 0.44427 0.21574 0.0
H757 H 0.28698 0.5065 0.13637 0.0
H758 H 0.2357 0.4435 0.27343 0.0
H759 H 0.25676 0.5056 0.19323 0.0
H760 H 0.17425 0.44392 0.30106 0.0
H761 H 0.2035 0.44349 0.24115 0.0
H762 H 0.24457 0.50544 0.32256 0.0
H763 H 0.21534 0.50599 0.3816 0.0
C764 C 0.26386 0.45768 0.20976 0.0
C765 C 0.27874 0.47547 0.17169 0.0
C766 C 0.24663 0.45721 0.24269 0.0
C767 C 0.24398 0.47455 0.2384 0.0
C768 C 0.25858 0.49213 0.19852 0.0
C769 C 0.27578 0.49258 0.16541 0.0
C770 C 0.18956 0.45737 0.30671 0.0
C771 C 0.19252 0.475 0.34597 0.0
C772 C 0.20629 0.45711 0.27248 0.0
C773 C 0.22628 0.4745 0.27662 0.0
C774 C 0.22928 0.49194 0.31731 0.0
C775 C 0.21257 0.49218 0.3517 0.0
H776 H 0.81829 0.26656 0.37697 0.0
H777 H 0.77861 0.28847 0.28947 0.0
H778 H 0.78828 0.23665 0.43188 0.0
H779 H 0.74851 0.25834 0.34356 0.0
H780 H 0.70441 0.21626 0.52748 0.0
H781 H 0.73472 0.24563 0.47093 0.0
H782 H 0.75656 0.20479 0.39613 0.0
H783 H 0.72645 0.17551 0.45353 0.0
C784 C 0.80312 0.26484 0.36859 0.0
C785 C 0.80079 0.27986 0.32898 0.0
C786 C 0.78593 0.24769 0.39995 0.0
C787 C 0.76606 0.24523 0.39251 0.0
C788 C 0.76368 0.26 0.35124 0.0
C789 C 0.78088 0.27714 0.31968 0.0
C790 C 0.71578 0.2136 0.49954 0.0
C791 C 0.71309 0.19361 0.49504 0.0
C792 C 0.73303 0.23038 0.46655 0.0
C793 C 0.74794 0.22748 0.42861 0.0
C794 C 0.74542 0.20753 0.42544 0.0
C795 C 0.72815 0.19076 0.45823 0.0
H796 H 0.48481 0.77893 0.47421 0.0
H797 H 0.54681 0.81898 0.55769 0.0
H798 H 0.48534 0.74898 0.52734 0.0
H799 H 0.5472 0.78916 0.61164 0.0
H800 H 0.48526 0.70451 0.70594 0.0
H801 H 0.48526 0.73477 0.6532 0.0
H802 H 0.54769 0.75799 0.57216 0.0
H803 H 0.54781 0.72799 0.62573 0.0
C804 C 0.49858 0.78132 0.50348 0.0
C805 C 0.51578 0.80128 0.51166 0.0
C806 C 0.49881 0.76421 0.53449 0.0
C807 C 0.51626 0.76674 0.57404 0.0
C808 C 0.53359 0.78668 0.58093 0.0
C809 C 0.53334 0.80377 0.55013 0.0
C810 C 0.49903 0.71618 0.67749 0.0
C811 C 0.51654 0.71391 0.67005 0.0
C812 C 0.49897 0.7334 0.6467 0.0
C813 C 0.51643 0.74868 0.60814 0.0
C814 C 0.53406 0.74657 0.60209 0.0
C815 C 0.53411 0.72935 0.63265 0.0
H816 H 0.80848 0.5465 0.85846 0.0
H817 H 0.78239 0.48199 0.80181 0.0
H818 H 0.7782 0.54626 0.80581 0.0
H819 H 0.75295 0.48193 0.74301 0.0
H820 H 0.69336 0.48201 0.69964 0.0
H821 H 0.72276 0.48182 0.75791 0.0
H822 H 0.76181 0.54642 0.69817 0.0
H823 H 0.73176 0.54676 0.6461 0.0
C824 C 0.79622 0.5323 0.83422 0.0
C825 C 0.79754 0.51422 0.83469 0.0
C826 C 0.77896 0.53217 0.80302 0.0
C827 C 0.76298 0.5141 0.7692 0.0
C828 C 0.76453 0.49603 0.76982 0.0
C829 C 0.78147 0.49603 0.80324 0.0
C830 C 0.70833 0.49608 0.69871 0.0
C831 C 0.71044 0.51437 0.66839 0.0
C832 C 0.72527 0.49601 0.73184 0.0
C833 C 0.74488 0.51413 0.73325 0.0
C834 C 0.74697 0.53228 0.70036 0.0
C835 C 0.72984 0.53248 0.66948 0.0
H836 H 0.28639 0.77875 0.04327 0.0
H837 H 0.26404 0.8191 0.96703 0.0
H838 H 0.25616 0.74917 0.98752 0.0
H839 H 0.23399 0.78956 0.91037 0.0
H840 H 0.17259 0.72738 0.88968 0.0
H841 H 0.20225 0.75744 0.94586 0.0
H842 H 0.24283 0.73646 0.86013 0.0
H843 H 0.21316 0.70626 0.80489 0.0
C844 C 0.27497 0.78128 0.01494 0.0
C845 C 0.27756 0.80122 0.00954 0.0
C846 C 0.25776 0.76438 0.98248 0.0
C847 C 0.24279 0.76708 0.94411 0.0
C848 C 0.24518 0.78698 0.94007 0.0
C849 C 0.26242 0.80389 0.97237 0.0
C850 C 0.18787 0.72929 0.88229 0.0
C851 C 0.19056 0.71447 0.84298 0.0
C852 C 0.20485 0.74652 0.91435 0.0
C853 C 0.22484 0.74922 0.90787 0.0
C854 C 0.22756 0.7346 0.86713 0.0
C855 C 0.2106 0.71741 0.83495 0.0
H856 H 0.50848 0.29088 0.18599 0.0
H857 H 0.44586 0.26851 0.1086 0.0
H858 H 0.50784 0.26056 0.13121 0.0
H859 H 0.44535 0.23842 0.05287 0.0
H860 H 0.44492 0.17648 0.04329 0.0
H861 H 0.44517 0.20699 0.09329 0.0
H862 H 0.50705 0.24572 0.00643 0.0
H863 H 0.50695 0.21508 0.95734 0.0
C864 C 0.49458 0.27948 0.15742 0.0
C865 C 0.47719 0.28201 0.15186 0.0
C866 C 0.49428 0.26222 0.12548 0.0
C867 C 0.47657 0.24715 0.08746 0.0
C868 C 0.45915 0.24965 0.08243 0.0
C869 C 0.45946 0.26691 0.11425 0.0
C870 C 0.45852 0.19152 0.03424 0.0
C871 C 0.47594 0.1934 0.99652 0.0
C872 C 0.45863 0.20901 0.0627 0.0
C873 C 0.47617 0.22874 0.05414 0.0
C874 C 0.49342 0.23067 0.01484 0.0
C875 C 0.4933 0.21316 0.98619 0.0
H876 H 0.34067 0.3957 0.17934 0.0
H877 H 0.39902 0.44939 0.11867 0.0
H878 H 0.35839 0.37618 0.20172 0.0
H879 H 0.41647 0.42961 0.13698 0.0
H880 H 0.44569 0.39703 0.25269 0.0
H881 H 0.4266 0.4153 0.23778 0.0
H882 H 0.37588 0.36087 0.1362 0.0
H883 H 0.39454 0.34214 0.15508 0.0
C884 C 0.35725 0.40334 0.17068 0.0
C885 C 0.36843 0.42414 0.14743 0.0
C886 C 0.36737 0.39207 0.18265 0.0
C887 C 0.38886 0.40136 0.17147 0.0
C888 C 0.39995 0.42207 0.14732 0.0
C889 C 0.38989 0.43334 0.13572 0.0
C890 C 0.4303 0.38879 0.22851 0.0
C891 C 0.42166 0.3681 0.20507 0.0
C892 C 0.41947 0.39938 0.2189 0.0
C893 C 0.3998 0.38963 0.18504 0.0
C894 C 0.39095 0.36881 0.16287 0.0
C895 C 0.40176 0.35815 0.17287 0.0
H896 H 0.94192 0.34526 0.39534 0.0
H897 H 0.94807 0.39901 0.27931 0.0
H898 H 0.97948 0.36292 0.41234 0.0
H899 H 0.98542 0.4166 0.29673 0.0
H900 H 0.04728 0.45003 0.41735 0.0
H901 H 0.00981 0.43106 0.40244 0.0
H902 H 0.0121 0.37641 0.33789 0.0
H903 H 0.0497 0.39529 0.35509 0.0
C904 C 0.95128 0.36076 0.37297 0.0
C905 C 0.94201 0.37081 0.33653 0.0
C906 C 0.97276 0.37085 0.38273 0.0
C907 C 0.98535 0.39119 0.35638 0.0
C908 C 0.97608 0.40108 0.31897 0.0
C909 C 0.95468 0.39101 0.3091 0.0
C910 C 0.03978 0.4339 0.40089 0.0
C911 C 0.05143 0.42415 0.38744 0.0
C912 C 0.01835 0.4231 0.39153 0.0
C913 C 0.00805 0.4023 0.36852 0.0
C914 C 0.01962 0.39241 0.35607 0.0
C915 C 0.04114 0.40326 0.36519 0.0
H916 H 0.62105 0.05227 0.41378 0.0
H917 H 0.62875 0.04676 0.65234 0.0
H918 H 0.60297 0.01467 0.40178 0.0
H919 H 0.61013 0.00907 0.64061 0.0
H920 H 0.59168 0.94232 0.5743 0.0
H921 H 0.6129 0.98004 0.58309 0.0
H922 H 0.56889 0.98634 0.44365 0.0
H923 H 0.54801 0.94881 0.43346 0.0
C924 C 0.61906 0.04303 0.4635 0.0
C925 C 0.62623 0.05245 0.53405 0.0
C926 C 0.60853 0.02151 0.45676 0.0
C927 C 0.60501 0.00895 0.52036 0.0
C928 C 0.61272 0.01837 0.59056 0.0
C929 C 0.62318 0.03992 0.59739 0.0
C930 C 0.58667 0.95181 0.54509 0.0
C931 C 0.56817 0.94265 0.50336 0.0
C932 C 0.59871 0.97335 0.5506 0.0
C933 C 0.59257 0.98611 0.51391 0.0
C934 C 0.57415 0.97692 0.47181 0.0
C935 C 0.56207 0.95543 0.46671 0.0
H936 H 0.61463 0.56278 0.76882 0.0
H937 H 0.63759 0.58733 0.54707 0.0
H938 H 0.59752 0.58346 0.77581 0.0
H939 H 0.6203 0.6079 0.55376 0.0
H940 H 0.58685 0.63925 0.78385 0.0
H941 H 0.60779 0.6224 0.77661 0.0
H942 H 0.58108 0.59701 0.55952 0.0
H943 H 0.56002 0.61373 0.567 0.0
C944 C 0.6161 0.57272 0.7219 0.0
C945 C 0.62735 0.5735 0.65739 0.0
C946 C 0.60644 0.5846 0.72603 0.0
C947 C 0.6076 0.59719 0.66522 0.0
C948 C 0.61913 0.59822 0.60118 0.0
C949 C 0.62909 0.5866 0.59757 0.0
C950 C 0.58565 0.63024 0.7343 0.0
C951 C 0.57184 0.62771 0.67602 0.0
C952 C 0.59751 0.62055 0.73039 0.0
C953 C 0.596 0.60846 0.66754 0.0
C954 C 0.58261 0.60639 0.6083 0.0
C955 C 0.57049 0.6158 0.61279 0.0
H956 H 0.04286 0.59626 0.76183 0.0
H957 H 0.04899 0.65258 0.85567 0.0
H958 H 0.00542 0.57945 0.7756 0.0
H959 H 0.01149 0.63529 0.87215 0.0
H960 H 0.94686 0.58494 0.97184 0.0
H961 H 0.98444 0.60434 0.9525 0.0
H962 H 0.97577 0.58381 0.72121 0.0
H963 H 0.93828 0.56446 0.74043 0.0
C964 C 0.03628 0.60516 0.78467 0.0
C965 C 0.04905 0.62583 0.8075 0.0
C966 C 0.01482 0.59546 0.79283 0.0
C967 C 0.00563 0.6061 0.82492 0.0
C968 C 0.01826 0.62672 0.84788 0.0
C969 C 0.03974 0.63654 0.83874 0.0
C970 C 0.95303 0.58468 0.91687 0.0
C971 C 0.93973 0.57321 0.85764 0.0
C972 C 0.97446 0.59586 0.90569 0.0
C973 C 0.98293 0.59548 0.83545 0.0
C974 C 0.96961 0.58423 0.77601 0.0
C975 C 0.9482 0.57331 0.78686 0.0
H976 H 0.40172 0.04768 0.91866 0.0
H977 H 0.43701 0.05105 0.11655 0.0
H978 H 0.38025 0.01033 0.93542 0.0
H979 H 0.41595 0.01359 0.13191 0.0
H980 H 0.36215 0.94831 0.17453 0.0
H981 H 0.38045 0.98597 0.16278 0.0
H982 H 0.38547 0.98047 0.92252 0.0
H983 H 0.36737 0.94292 0.93418 0.0
C984 C 0.40478 0.04046 0.9661 0.0
C985 C 0.4211 0.05229 0.01616 0.0
C986 C 0.39262 0.01906 0.97524 0.0
C987 C 0.39647 0.00903 0.03476 0.0
C988 C 0.41249 0.02091 0.08585 0.0
C989 C 0.4247 0.04232 0.07656 0.0
C990 C 0.36721 0.95515 0.11925 0.0
C991 C 0.36336 0.94262 0.05531 0.0
C992 C 0.37766 0.9767 0.11255 0.0
C993 C 0.38441 0.98616 0.04177 0.0
C994 C 0.38019 0.97363 0.97769 0.0
C995 C 0.3698 0.95211 0.98439 0.0
loop_
_geom_bond_atom_site_label_1
_geom_bond_atom_site_label_2
_geom_bond_distance
_geom_bond_site_symmetry_2
_ccdc_geom_bond_type
Co0 N4 2.148 . S
Co0 N10 2.128 1_554 S
Co0 N20 2.194 . S
Co0 O25 2.351 . S
Co0 O26 2.155 . S
Co0 O27 2.096 . S
C1 N4 1.301 . S
C1 N5 1.328 . S
C1 H6 0.930 . S
C2 C3 1.333 . S
C2 N4 1.317 . S
C2 H7 0.930 . S
C3 C2 1.333 . S
C3 N5 1.350 . S
C3 H29 0.931 . S
N4 Co0 2.148 . S
N4 C1 1.301 . S
N4 C2 1.317 . S
N5 C1 1.328 . S
N5 C3 1.350 . S
H6 C1 0.930 . S
H7 C2 0.930 . S
C8 O9 1.224 . S
C8 O27 1.247 . S
O9 C8 1.224 . S
N10 Co0 2.128 1_556 S
N10 C11 1.355 . S
N10 C13 1.311 . S
C11 N10 1.355 . S
C11 C12 1.363 . S
C11 H23 0.929 . S
C12 C11 1.363 . S
C12 N14 1.375 . S
C12 H30 0.931 . S
C13 N10 1.311 . S
C13 N14 1.347 . S
C13 H24 0.929 . S
N14 C12 1.375 . S
N14 C13 1.347 . S
C15 C18 1.365 . S
C15 N20 1.328 . S
C15 H21 0.929 . S
C16 C17 1.362 . S
C16 C19 1.378 . S
C16 H31 0.929 . S
C17 C16 1.362 . S
C17 C18 1.366 . S
C18 C15 1.365 . S
C18 C17 1.366 . S
C18 H32 0.930 . S
C19 C16 1.378 . S
C19 N20 1.315 . S
C19 H22 0.930 . S
N20 Co0 2.194 . S
N20 C15 1.328 . S
N20 C19 1.315 . S
H21 C15 0.929 . S
H22 C19 0.930 . S
H23 C11 0.929 . S
H24 C13 0.929 . S
O25 Co0 2.351 . S
O25 C28 1.244 . S
O26 Co0 2.155 . S
O26 C28 1.240 . S
O27 Co0 2.096 . S
O27 C8 1.247 . S
C28 O25 1.244 . S
C28 O26 1.240 . S
H29 C3 0.931 . S
H30 C12 0.931 . S
H31 C16 0.929 . S
H32 C18 0.930 . S
Co33 N37 2.148 . S
Co33 N43 2.128 . S
Co33 N53 2.194 . S
Co33 O58 2.351 . S
Co33 O59 2.155 . S
Co33 O60 2.096 . S
C34 N37 1.301 . S
C34 N38 1.328 . S
C34 H39 0.930 . S
C35 C36 1.333 . S
C35 N37 1.317 . S
C35 H40 0.930 . S
C36 C35 1.333 . S
C36 N38 1.350 . S
C36 H62 0.931 . S
N37 Co33 2.148 . S
N37 C34 1.301 . S
N37 C35 1.317 . S
N38 C34 1.328 . S
N38 C36 1.350 . S
H39 C34 0.930 . S
H40 C35 0.930 . S
C41 O42 1.224 . S
C41 O60 1.247 . S
O42 C41 1.224 . S
N43 Co33 2.128 . S
N43 C44 1.355 . S
N43 C46 1.311 . S
C44 N43 1.355 . S
C44 C45 1.363 . S
C44 H56 0.929 . S
C45 C44 1.363 . S
C45 N47 1.375 . S
C45 H63 0.931 . S
C46 N43 1.311 . S
C46 N47 1.347 . S
C46 H57 0.929 . S
N47 C45 1.375 . S
N47 C46 1.347 . S
C48 C51 1.365 . S
C48 N53 1.328 . S
C48 H54 0.929 . S
C49 C50 1.362 . S
C49 C52 1.378 . S
C49 H64 0.929 . S
C50 C49 1.362 . S
C50 C51 1.366 . S
C51 C48 1.365 . S
C51 C50 1.366 . S
C51 H65 0.930 . S
C52 C49 1.378 . S
C52 N53 1.315 . S
C52 H55 0.930 . S
N53 Co33 2.194 . S
N53 C48 1.328 . S
N53 C52 1.315 . S
H54 C48 0.929 . S
H55 C52 0.930 . S
H56 C44 0.929 . S
H57 C46 0.929 . S
O58 Co33 2.351 . S
O58 C61 1.244 . S
O59 Co33 2.155 . S
O59 C61 1.240 . S
O60 Co33 2.096 . S
O60 C41 1.247 . S
C61 O58 1.244 . S
C61 O59 1.240 . S
H62 C36 0.931 . S
H63 C45 0.931 . S
H64 C49 0.929 . S
H65 C51 0.930 . S
Co66 N70 2.148 . S
Co66 N76 2.128 . S
Co66 N86 2.194 . S
Co66 O91 2.351 . S
Co66 O92 2.155 . S
Co66 O93 2.096 . S
C67 N70 1.301 . S
C67 N71 1.328 . S
C67 H72 0.930 . S
C68 C69 1.333 . S
C68 N70 1.317 . S
C68 H73 0.930 . S
C69 C68 1.333 . S
C69 N71 1.350 . S
C69 H95 0.931 . S
N70 Co66 2.148 . S
N70 C67 1.301 . S
N70 C68 1.317 . S
N71 C67 1.328 . S
N71 C69 1.350 . S
H72 C67 0.930 . S
H73 C68 0.930 . S
C74 O75 1.224 . S
C74 O93 1.247 . S
O75 C74 1.224 . S
N76 Co66 2.128 . S
N76 C77 1.355 . S
N76 C79 1.311 . S
C77 N76 1.355 . S
C77 C78 1.363 . S
C77 H89 0.929 . S
C78 C77 1.363 . S
C78 N80 1.375 . S
C78 H96 0.931 . S
C79 N76 1.311 . S
C79 N80 1.347 . S
C79 H90 0.929 . S
N80 C78 1.375 . S
N80 C79 1.347 . S
C81 C84 1.365 . S
C81 N86 1.328 . S
C81 H87 0.929 . S
C82 C83 1.362 . S
C82 C85 1.378 . S
C82 H97 0.929 . S
C83 C82 1.362 . S
C83 C84 1.366 . S
C84 C81 1.365 . S
C84 C83 1.366 . S
C84 H98 0.930 . S
C85 C82 1.378 . S
C85 N86 1.315 . S
C85 H88 0.930 . S
N86 Co66 2.194 . S
N86 C81 1.328 . S
N86 C85 1.315 . S
H87 C81 0.929 . S
H88 C85 0.930 . S
H89 C77 0.929 . S
H90 C79 0.929 . S
O91 Co66 2.351 . S
O91 C94 1.244 . S
O92 Co66 2.155 . S
O92 C94 1.240 . S
O93 Co66 2.096 . S
O93 C74 1.247 . S
C94 O91 1.244 . S
C94 O92 1.240 . S
H95 C69 0.931 . S
H96 C78 0.931 . S
H97 C82 0.929 . S
H98 C84 0.930 . S
Co99 N103 2.148 . S
Co99 N109 2.128 . S
Co99 N119 2.194 . S
Co99 O124 2.351 . S
Co99 O125 2.155 . S
Co99 O126 2.096 . S
C100 N103 1.301 . S
C100 N104 1.328 . S
C100 H105 0.930 . S
C101 C102 1.333 . S
C101 N103 1.317 . S
C101 H106 0.930 . S
C102 C101 1.333 . S
C102 N104 1.350 . S
C102 H128 0.931 . S
N103 Co99 2.148 . S
N103 C100 1.301 . S
N103 C101 1.317 . S
N104 C100 1.328 . S
N104 C102 1.350 . S
H105 C100 0.930 . S
H106 C101 0.930 . S
C107 O108 1.224 . S
C107 O126 1.247 . S
O108 C107 1.224 . S
N109 Co99 2.128 . S
N109 C110 1.355 . S
N109 C112 1.311 . S
C110 N109 1.355 . S
C110 C111 1.363 . S
C110 H122 0.929 . S
C111 C110 1.363 . S
C111 N113 1.375 . S
C111 H129 0.931 . S
C112 N109 1.311 . S
C112 N113 1.347 . S
C112 H123 0.929 . S
N113 C111 1.375 . S
N113 C112 1.347 . S
C114 C117 1.365 . S
C114 N119 1.328 . S
C114 H120 0.929 . S
C115 C116 1.362 . S
C115 C118 1.378 . S
C115 H130 0.929 . S
C116 C115 1.362 . S
C116 C117 1.366 . S
C117 C114 1.365 . S
C117 C116 1.366 . S
C117 H131 0.930 . S
C118 C115 1.378 . S
C118 N119 1.315 . S
C118 H121 0.930 . S
N119 Co99 2.194 . S
N119 C114 1.328 . S
N119 C118 1.315 . S
H120 C114 0.929 . S
H121 C118 0.930 . S
H122 C110 0.929 . S
H123 C112 0.929 . S
O124 Co99 2.351 . S
O124 C127 1.244 . S
O125 Co99 2.155 . S
O125 C127 1.240 . S
O126 Co99 2.096 . S
O126 C107 1.247 . S
C127 O124 1.244 . S
C127 O125 1.240 . S
H128 C102 0.931 . S
H129 C111 0.931 . S
H130 C115 0.929 . S
H131 C117 0.930 . S
Co132 N136 2.148 . S
Co132 N142 2.128 . S
Co132 N152 2.194 . S
Co132 O157 2.351 . S
Co132 O158 2.155 . S
Co132 O159 2.096 . S
C133 N136 1.301 . S
C133 N137 1.328 . S
C133 H138 0.930 . S
C134 C135 1.333 . S
C134 N136 1.317 . S
C134 H139 0.930 . S
C135 C134 1.333 . S
C135 N137 1.350 . S
C135 H161 0.931 . S
N136 Co132 2.148 . S
N136 C133 1.301 . S
N136 C134 1.317 . S
N137 C133 1.328 . S
N137 C135 1.350 . S
H138 C133 0.930 . S
H139 C134 0.930 . S
C140 O141 1.224 . S
C140 O159 1.247 . S
O141 C140 1.224 . S
N142 Co132 2.128 . S
N142 C143 1.355 . S
N142 C145 1.311 . S
C143 N142 1.355 . S
C143 C144 1.363 . S
C143 H155 0.929 . S
C144 C143 1.363 . S
C144 N146 1.375 . S
C144 H162 0.931 . S
C145 N142 1.311 . S
C145 N146 1.347 . S
C145 H156 0.929 . S
N146 C144 1.375 . S
N146 C145 1.347 . S
C147 C150 1.365 . S
C147 N152 1.328 . S
C147 H153 0.929 . S
C148 C149 1.362 . S
C148 C151 1.378 . S
C148 H163 0.929 . S
C149 C148 1.362 . S
C149 C150 1.366 . S
C150 C147 1.365 . S
C150 C149 1.366 . S
C150 H164 0.930 . S
C151 C148 1.378 . S
C151 N152 1.315 . S
C151 H154 0.930 . S
N152 Co132 2.194 . S
N152 C147 1.328 . S
N152 C151 1.315 . S
H153 C147 0.929 . S
H154 C151 0.930 . S
H155 C143 0.929 . S
H156 C145 0.929 . S
O157 Co132 2.351 . S
O157 C160 1.244 . S
O158 Co132 2.155 . S
O158 C160 1.240 . S
O159 Co132 2.096 . S
O159 C140 1.247 . S
C160 O157 1.244 . S
C160 O158 1.240 . S
H161 C135 0.931 . S
H162 C144 0.931 . S
H163 C148 0.929 . S
H164 C150 0.930 . S
Co165 N169 2.148 1_556 S
Co165 N175 2.128 . S
Co165 N185 2.194 . S
Co165 O190 2.351 . S
Co165 O191 2.155 . S
Co165 O192 2.096 . S
C166 N169 1.301 . S
C166 N170 1.328 . S
C166 H171 0.930 . S
C167 C168 1.333 . S
C167 N169 1.317 . S
C167 H172 0.930 . S
C168 C167 1.333 . S
C168 N170 1.350 . S
C168 H194 0.931 . S
N169 Co165 2.148 1_554 S
N169 C166 1.301 . S
N169 C167 1.317 . S
N170 C166 1.328 . S
N170 C168 1.350 . S
H171 C166 0.930 . S
H172 C167 0.930 . S
C173 O174 1.224 . S
C173 O192 1.247 . S
O174 C173 1.224 . S
N175 Co165 2.128 . S
N175 C176 1.355 . S
N175 C178 1.311 . S
C176 N175 1.355 . S
C176 C177 1.363 . S
C176 H188 0.929 . S
C177 C176 1.363 . S
C177 N179 1.375 . S
C177 H195 0.931 . S
C178 N175 1.311 . S
C178 N179 1.347 . S
C178 H189 0.929 . S
N179 C177 1.375 . S
N179 C178 1.347 . S
C180 C183 1.365 . S
C180 N185 1.328 . S
C180 H186 0.929 . S
C181 C182 1.362 . S
C181 C184 1.378 . S
C181 H196 0.929 . S
C182 C181 1.362 . S
C182 C183 1.366 . S
C183 C180 1.365 . S
C183 C182 1.366 . S
C183 H197 0.936 . S
C184 C181 1.378 . S
C184 N185 1.315 . S
C184 H187 0.930 . S
N185 Co165 2.194 . S
N185 C180 1.328 . S
N185 C184 1.315 . S
H186 C180 0.929 . S
H187 C184 0.930 . S
H188 C176 0.929 . S
H189 C178 0.929 . S
O190 Co165 2.351 . S
O190 C193 1.244 . S
O191 Co165 2.155 . S
O191 C193 1.240 . S
O192 Co165 2.096 . S
O192 C173 1.247 . S
C193 O190 1.244 . S
C193 O191 1.240 . S
H194 C168 0.931 . S
H195 C177 0.931 . S
H196 C181 0.929 . S
H197 C183 0.936 . S
Co198 N202 2.148 . S
Co198 N208 2.128 . S
Co198 N218 2.194 . S
Co198 O223 2.351 . S
Co198 O224 2.155 . S
Co198 O225 2.096 . S
C199 N202 1.301 . S
C199 N203 1.328 . S
C199 H204 0.930 . S
C200 C201 1.333 . S
C200 N202 1.317 . S
C200 H205 0.930 . S
C201 C200 1.333 . S
C201 N203 1.350 . S
C201 H227 0.931 . S
N202 Co198 2.148 . S
N202 C199 1.301 . S
N202 C200 1.317 . S
N203 C199 1.328 . S
N203 C201 1.350 . S
H204 C199 0.930 . S
H205 C200 0.930 . S
C206 O207 1.224 . S
C206 O225 1.247 . S
O207 C206 1.224 . S
N208 Co198 2.128 . S
N208 C209 1.355 . S
N208 C211 1.311 . S
C209 N208 1.355 . S
C209 C210 1.363 . S
C209 H221 0.929 . S
C210 C209 1.363 . S
C210 N212 1.375 . S
C210 H228 0.931 . S
C211 N208 1.311 . S
C211 N212 1.347 . S
C211 H222 0.929 . S
N212 C210 1.375 . S
N212 C211 1.347 . S
C213 C216 1.365 . S
C213 N218 1.328 . S
C213 H219 0.929 . S
C214 C215 1.362 . S
C214 C217 1.378 . S
C214 H229 0.929 . S
C215 C214 1.362 . S
C215 C216 1.366 . S
C216 C213 1.365 . S
C216 C215 1.366 . S
C216 H230 0.930 . S
C217 C214 1.378 . S
C217 N218 1.315 . S
C217 H220 0.930 . S
N218 Co198 2.194 . S
N218 C213 1.328 . S
N218 C217 1.315 . S
H219 C213 0.929 . S
H220 C217 0.930 . S
H221 C209 0.929 . S
H222 C211 0.929 . S
O223 Co198 2.351 . S
O223 C226 1.244 . S
O224 Co198 2.155 . S
O224 C226 1.240 . S
O225 Co198 2.096 . S
O225 C206 1.247 . S
C226 O223 1.244 . S
C226 O224 1.240 . S
H227 C201 0.931 . S
H228 C210 0.931 . S
H229 C214 0.929 . S
H230 C216 0.930 . S
Co231 N235 2.148 . S
Co231 N241 2.128 1_556 S
Co231 N251 2.194 . S
Co231 O256 2.351 . S
Co231 O257 2.155 . S
Co231 O258 2.096 . S
C232 N235 1.301 . S
C232 N236 1.328 . S
C232 H237 0.930 . S
C233 C234 1.333 . S
C233 N235 1.317 . S
C233 H238 0.930 . S
C234 C233 1.333 . S
C234 N236 1.350 . S
C234 H260 0.931 . S
N235 Co231 2.148 . S
N235 C232 1.301 . S
N235 C233 1.317 . S
N236 C232 1.328 . S
N236 C234 1.350 . S
H237 C232 0.930 . S
H238 C233 0.930 . S
C239 O240 1.224 . S
C239 O258 1.247 . S
O240 C239 1.224 . S
N241 Co231 2.128 1_554 S
N241 C242 1.355 . S
N241 C244 1.311 . S
C242 N241 1.355 . S
C242 C243 1.363 . S
C242 H254 0.929 . S
C243 C242 1.363 . S
C243 N245 1.375 . S
C243 H261 0.931 . S
C244 N241 1.311 . S
C244 N245 1.347 . S
C244 H255 0.929 . S
N245 C243 1.375 . S
N245 C244 1.347 . S
C246 C249 1.365 . S
C246 N251 1.328 . S
C246 H252 0.929 . S
C247 C248 1.362 . S
C247 C250 1.378 . S
C247 H262 0.929 . S
C248 C247 1.362 . S
C248 C249 1.366 . S
C249 C246 1.365 . S
C249 C248 1.366 . S
C249 H263 0.930 . S
C250 C247 1.378 . S
C250 N251 1.315 . S
C250 H253 0.930 . S
N251 Co231 2.194 . S
N251 C246 1.328 . S
N251 C250 1.315 . S
H252 C246 0.929 . S
H253 C250 0.930 . S
H254 C242 0.929 . S
H255 C244 0.929 . S
O256 Co231 2.351 . S
O256 C259 1.244 . S
O257 Co231 2.155 . S
O257 C259 1.240 . S
O258 Co231 2.096 . S
O258 C239 1.247 . S
C259 O256 1.244 . S
C259 O257 1.240 . S
H260 C234 0.931 . S
H261 C243 0.931 . S
H262 C247 0.929 . S
H263 C249 0.930 . S
Co264 N268 2.148 1_554 S
Co264 N274 2.128 . S
Co264 N284 2.194 . S
Co264 O289 2.351 . S
Co264 O290 2.155 . S
Co264 O291 2.096 . S
C265 N268 1.301 . S
C265 N269 1.328 . S
C265 H270 0.930 . S
C266 C267 1.333 . S
C266 N268 1.317 . S
C266 H271 0.930 . S
C267 C266 1.333 . S
C267 N269 1.350 . S
C267 H293 0.931 . S
N268 Co264 2.148 1_556 S
N268 C265 1.301 . S
N268 C266 1.317 . S
N269 C265 1.328 . S
N269 C267 1.350 . S
H270 C265 0.930 . S
H271 C266 0.930 . S
C272 O273 1.224 . S
C272 O291 1.247 . S
O273 C272 1.224 . S
N274 Co264 2.128 . S
N274 C275 1.355 . S
N274 C277 1.311 . S
C275 N274 1.355 . S
C275 C276 1.363 . S
C275 H287 0.929 . S
C276 C275 1.363 . S
C276 N278 1.375 . S
C276 H294 0.931 . S
C277 N274 1.311 . S
C277 N278 1.347 . S
C277 H288 0.929 . S
N278 C276 1.375 . S
N278 C277 1.347 . S
C279 C282 1.365 . S
C279 N284 1.328 . S
C279 H285 0.929 . S
C280 C281 1.362 . S
C280 C283 1.378 . S
C280 H295 0.929 . S
C281 C280 1.362 . S
C281 C282 1.366 . S
C282 C279 1.365 . S
C282 C281 1.366 . S
C282 H296 0.935 . S
C283 C280 1.378 . S
C283 N284 1.315 . S
C283 H286 0.930 . S
N284 Co264 2.194 . S
N284 C279 1.328 . S
N284 C283 1.315 . S
H285 C279 0.929 . S
H286 C283 0.930 . S
H287 C275 0.929 . S
H288 C277 0.929 . S
O289 Co264 2.351 . S
O289 C292 1.244 . S
O290 Co264 2.155 . S
O290 C292 1.240 . S
O291 Co264 2.096 . S
O291 C272 1.247 . S
C292 O289 1.244 . S
C292 O290 1.240 . S
H293 C267 0.931 . S
H294 C276 0.931 . S
H295 C280 0.929 . S
H296 C282 0.935 . S
Co297 N301 2.148 . S
Co297 N307 2.128 . S
Co297 N317 2.194 . S
Co297 O322 2.351 . S
Co297 O323 2.155 . S
Co297 O324 2.096 . S
C298 N301 1.301 . S
C298 N302 1.328 . S
C298 H303 0.930 . S
C299 C300 1.333 . S
C299 N301 1.317 . S
C299 H304 0.930 . S
C300 C299 1.333 . S
C300 N302 1.350 . S
C300 H326 0.931 . S
N301 Co297 2.148 . S
N301 C298 1.301 . S
N301 C299 1.317 . S
N302 C298 1.328 . S
N302 C300 1.350 . S
H303 C298 0.930 . S
H304 C299 0.930 . S
C305 O306 1.224 . S
C305 O324 1.247 . S
O306 C305 1.224 . S
N307 Co297 2.128 . S
N307 C308 1.355 . S
N307 C310 1.311 . S
C308 N307 1.355 . S
C308 C309 1.363 . S
C308 H320 0.929 . S
C309 C308 1.363 . S
C309 N311 1.375 . S
C309 H327 0.931 . S
C310 N307 1.311 . S
C310 N311 1.347 . S
C310 H321 0.929 . S
N311 C309 1.375 . S
N311 C310 1.347 . S
C312 C315 1.365 . S
C312 N317 1.328 . S
C312 H318 0.929 . S
C313 C314 1.362 . S
C313 C316 1.378 . S
C313 H328 0.929 . S
C314 C313 1.362 . S
C314 C315 1.366 . S
C315 C312 1.365 . S
C315 C314 1.366 . S
C315 H329 0.930 . S
C316 C313 1.378 . S
C316 N317 1.315 . S
C316 H319 0.930 . S
N317 Co297 2.194 . S
N317 C312 1.328 . S
N317 C316 1.315 . S
H318 C312 0.929 . S
H319 C316 0.930 . S
H320 C308 0.929 . S
H321 C310 0.929 . S
O322 Co297 2.351 . S
O322 C325 1.244 . S
O323 Co297 2.155 . S
O323 C325 1.240 . S
O324 Co297 2.096 . S
O324 C305 1.247 . S
C325 O322 1.244 . S
C325 O323 1.240 . S
H326 C300 0.931 . S
H327 C309 0.931 . S
H328 C313 0.929 . S
H329 C315 0.930 . S
Co330 N334 2.148 . S
Co330 N340 2.128 . S
Co330 N350 2.194 . S
Co330 O355 2.351 . S
Co330 O356 2.155 . S
Co330 O357 2.096 . S
C331 N334 1.301 . S
C331 N335 1.328 . S
C331 H336 0.930 . S
C332 C333 1.333 . S
C332 N334 1.317 . S
C332 H337 0.930 . S
C333 C332 1.333 . S
C333 N335 1.350 . S
C333 H359 0.931 . S
N334 Co330 2.148 . S
N334 C331 1.301 . S
N334 C332 1.317 . S
N335 C331 1.328 . S
N335 C333 1.350 . S
H336 C331 0.930 . S
H337 C332 0.930 . S
C338 O339 1.224 . S
C338 O357 1.247 . S
O339 C338 1.224 . S
N340 Co330 2.128 . S
N340 C341 1.355 . S
N340 C343 1.311 . S
C341 N340 1.355 . S
C341 C342 1.363 . S
C341 H353 0.929 . S
C342 C341 1.363 . S
C342 N344 1.375 . S
C342 H360 0.931 . S
C343 N340 1.311 . S
C343 N344 1.347 . S
C343 H354 0.929 . S
N344 C342 1.375 . S
N344 C343 1.347 . S
C345 C348 1.365 . S
C345 N350 1.328 . S
C345 H351 0.929 . S
C346 C347 1.362 . S
C346 C349 1.378 . S
C346 H361 0.929 . S
C347 C346 1.362 . S
C347 C348 1.366 . S
C348 C345 1.365 . S
C348 C347 1.366 . S
C348 H362 0.930 . S
C349 C346 1.378 . S
C349 N350 1.315 . S
C349 H352 0.930 . S
N350 Co330 2.194 . S
N350 C345 1.328 . S
N350 C349 1.315 . S
H351 C345 0.929 . S
H352 C349 0.930 . S
H353 C341 0.929 . S
H354 C343 0.929 . S
O355 Co330 2.351 . S
O355 C358 1.244 . S
O356 Co330 2.155 . S
O356 C358 1.240 . S
O357 Co330 2.096 . S
O357 C338 1.247 . S
C358 O355 1.244 . S
C358 O356 1.240 . S
H359 C333 0.931 . S
H360 C342 0.931 . S
H361 C346 0.929 . S
H362 C348 0.930 . S
Co363 N367 2.148 . S
Co363 N373 2.128 . S
Co363 N383 2.194 . S
Co363 O388 2.351 . S
Co363 O389 2.155 . S
Co363 O390 2.096 . S
C364 N367 1.301 . S
C364 N368 1.328 . S
C364 H369 0.930 . S
C365 C366 1.333 . S
C365 N367 1.317 . S
C365 H370 0.930 . S
C366 C365 1.333 . S
C366 N368 1.350 . S
C366 H392 0.931 . S
N367 Co363 2.148 . S
N367 C364 1.301 . S
N367 C365 1.317 . S
N368 C364 1.328 . S
N368 C366 1.350 . S
H369 C364 0.930 . S
H370 C365 0.930 . S
C371 O372 1.224 . S
C371 O390 1.247 . S
O372 C371 1.224 . S
N373 Co363 2.128 . S
N373 C374 1.355 . S
N373 C376 1.311 . S
C374 N373 1.355 . S
C374 C375 1.363 . S
C374 H386 0.929 . S
C375 C374 1.363 . S
C375 N377 1.375 . S
C375 H393 0.931 . S
C376 N373 1.311 . S
C376 N377 1.347 . S
C376 H387 0.929 . S
N377 C375 1.375 . S
N377 C376 1.347 . S
C378 C381 1.365 . S
C378 N383 1.328 . S
C378 H384 0.929 . S
C379 C380 1.362 . S
C379 C382 1.378 . S
C379 H394 0.929 . S
C380 C379 1.362 . S
C380 C381 1.366 . S
C381 C378 1.365 . S
C381 C380 1.366 . S
C381 H395 0.930 . S
C382 C379 1.378 . S
C382 N383 1.315 . S
C382 H385 0.930 . S
N383 Co363 2.194 . S
N383 C378 1.328 . S
N383 C382 1.315 . S
H384 C378 0.929 . S
H385 C382 0.930 . S
H386 C374 0.929 . S
H387 C376 0.929 . S
O388 Co363 2.351 . S
O388 C391 1.244 . S
O389 Co363 2.155 . S
O389 C391 1.240 . S
O390 Co363 2.096 . S
O390 C371 1.247 . S
C391 O388 1.244 . S
C391 O389 1.240 . S
H392 C366 0.931 . S
H393 C375 0.931 . S
H394 C379 0.929 . S
H395 C381 0.930 . S
H396 C404 0.950 . S
H397 C409 0.950 . S
H398 C406 0.950 . S
H399 C408 0.950 . S
H400 C410 0.950 . S
H401 C412 0.950 . S
H402 C414 0.950 . S
H403 C415 0.950 . S
C404 H396 0.950 . S
C404 C405 1.386 . S
C404 C406 1.391 . S
C405 C404 1.386 . S
C405 C409 1.393 . S
C406 H398 0.950 . S
C406 C404 1.391 . S
C406 C407 1.400 . S
C407 C406 1.400 . S
C407 C408 1.398 . S
C407 C413 1.491 . S
C408 H399 0.950 . S
C408 C407 1.398 . S
C408 C409 1.391 . S
C409 H397 0.950 . S
C409 C405 1.393 . S
C409 C408 1.391 . S
C410 H400 0.950 . S
C410 C411 1.386 . S
C410 C412 1.391 . S
C411 C410 1.386 . S
C411 C415 1.393 . S
C412 H401 0.950 . S
C412 C410 1.391 . S
C412 C413 1.400 . S
C413 C407 1.491 . S
C413 C412 1.400 . S
C413 C414 1.398 . S
C414 H402 0.950 . S
C414 C413 1.398 . S
C414 C415 1.391 . S
C415 H403 0.950 . S
C415 C411 1.393 . S
C415 C414 1.391 . S
H416 C424 0.950 . S
H417 C429 0.950 . S
H418 C426 0.950 . S
H419 C428 0.950 . S
H420 C430 0.950 . S
H421 C432 0.950 . S
H422 C434 0.950 . S
H423 C435 0.950 . S
C424 H416 0.950 . S
C424 C425 1.386 . S
C424 C426 1.391 . S
C425 C424 1.386 . S
C425 C429 1.393 . S
C426 H418 0.950 . S
C426 C424 1.391 . S
C426 C427 1.400 . S
C427 C426 1.400 . S
C427 C428 1.398 . S
C427 C433 1.491 . S
C428 H419 0.950 . S
C428 C427 1.398 . S
C428 C429 1.391 . S
C429 H417 0.950 . S
C429 C425 1.393 . S
C429 C428 1.391 . S
C430 H420 0.950 . S
C430 C431 1.386 . S
C430 C432 1.391 . S
C431 C430 1.386 . S
C431 C435 1.393 . S
C432 H421 0.950 . S
C432 C430 1.391 . S
C432 C433 1.400 . S
C433 C427 1.491 . S
C433 C432 1.400 . S
C433 C434 1.398 . S
C434 H422 0.950 . S
C434 C433 1.398 . S
C434 C435 1.391 . S
C435 H423 0.950 . S
C435 C431 1.393 . S
C435 C434 1.391 . S
H436 C444 0.950 . S
H437 C449 0.950 . S
H438 C446 0.947 1_556 S
H439 C448 0.950 1_556 S
H440 C450 0.950 . S
H441 C452 0.950 . S
H442 C454 0.950 . S
H443 C455 0.950 . S
C444 H436 0.950 . S
C444 C445 1.386 . S
C444 C446 1.391 . S
C445 C444 1.386 . S
C445 C449 1.393 . S
C446 H438 0.947 1_554 S
C446 C444 1.391 . S
C446 C447 1.400 1_554 S
C447 C446 1.400 1_556 S
C447 C448 1.398 1_556 S
C447 C453 1.491 . S
C448 H439 0.950 1_554 S
C448 C447 1.398 1_554 S
C448 C449 1.391 . S
C449 H437 0.950 . S
C449 C445 1.393 . S
C449 C448 1.391 . S
C450 H440 0.950 . S
C450 C451 1.386 . S
C450 C452 1.391 . S
C451 C450 1.386 . S
C451 C455 1.393 . S
C452 H441 0.950 . S
C452 C450 1.391 . S
C452 C453 1.400 . S
C453 C447 1.491 . S
C453 C452 1.400 . S
C453 C454 1.398 . S
C454 H442 0.950 . S
C454 C453 1.398 . S
C454 C455 1.391 . S
C455 H443 0.950 . S
C455 C451 1.393 . S
C455 C454 1.391 . S
H456 C464 0.950 . S
H457 C469 0.950 . S
H458 C466 0.950 . S
H459 C468 0.950 . S
H460 C470 0.950 . S
H461 C472 0.950 . S
H462 C474 0.950 . S
H463 C475 0.950 . S
C464 H456 0.950 . S
C464 C465 1.386 . S
C464 C466 1.391 1_556 S
C465 C464 1.386 . S
C465 C469 1.393 . S
C466 H458 0.950 . S
C466 C464 1.391 1_554 S
C466 C467 1.400 . S
C467 C466 1.400 . S
C467 C468 1.398 . S
C467 C473 1.491 . S
C468 H459 0.950 . S
C468 C467 1.398 . S
C468 C469 1.391 1_554 S
C469 H457 0.950 . S
C469 C465 1.393 . S
C469 C468 1.391 1_556 S
C470 H460 0.950 . S
C470 C471 1.386 . S
C470 C472 1.391 . S
C471 C470 1.386 . S
C471 C475 1.393 . S
C472 H461 0.950 . S
C472 C470 1.391 . S
C472 C473 1.400 . S
C473 C467 1.491 . S
C473 C472 1.400 . S
C473 C474 1.398 . S
C474 H462 0.950 . S
C474 C473 1.398 . S
C474 C475 1.391 . S
C475 H463 0.950 . S
C475 C471 1.393 . S
C475 C474 1.391 . S
H476 C484 0.950 . S
H477 C489 0.950 . S
H478 C486 0.950 . S
H479 C488 0.950 . S
H480 C490 0.950 . S
H481 C492 0.950 . S
H482 C494 0.950 . S
H483 C495 0.950 . S
C484 H476 0.950 . S
C484 C485 1.386 . S
C484 C486 1.391 . S
C485 C484 1.386 . S
C485 C489 1.393 . S
C486 H478 0.950 . S
C486 C484 1.391 . S
C486 C487 1.400 . S
C487 C486 1.400 . S
C487 C488 1.398 . S
C487 C493 1.491 . S
C488 H479 0.950 . S
C488 C487 1.398 . S
C488 C489 1.391 . S
C489 H477 0.950 . S
C489 C485 1.393 . S
C489 C488 1.391 . S
C490 H480 0.950 . S
C490 C491 1.386 . S
C490 C492 1.391 . S
C491 C490 1.386 . S
C491 C495 1.393 . S
C492 H481 0.950 . S
C492 C490 1.391 . S
C492 C493 1.400 . S
C493 C487 1.491 . S
C493 C492 1.400 . S
C493 C494 1.398 . S
C494 H482 0.950 . S
C494 C493 1.398 . S
C494 C495 1.391 . S
C495 H483 0.950 . S
C495 C491 1.393 . S
C495 C494 1.391 . S
H496 C504 0.950 . S
H497 C509 0.950 . S
H498 C506 0.950 . S
H499 C508 0.950 . S
H500 C510 0.950 . S
H501 C512 0.950 . S
H502 C514 0.950 . S
H503 C515 0.950 . S
C504 H496 0.950 . S
C504 C505 1.386 . S
C504 C506 1.391 . S
C505 C504 1.386 . S
C505 C509 1.393 . S
C506 H498 0.950 . S
C506 C504 1.391 . S
C506 C507 1.400 . S
C507 C506 1.400 . S
C507 C508 1.398 . S
C507 C513 1.491 . S
C508 H499 0.950 . S
C508 C507 1.398 . S
C508 C509 1.391 . S
C509 H497 0.950 . S
C509 C505 1.393 . S
C509 C508 1.391 . S
C510 H500 0.950 . S
C510 C511 1.386 . S
C510 C512 1.391 . S
C511 C510 1.386 . S
C511 C515 1.393 . S
C512 H501 0.950 . S
C512 C510 1.391 . S
C512 C513 1.400 . S
C513 C507 1.491 . S
C513 C512 1.400 . S
C513 C514 1.398 . S
C514 H502 0.950 . S
C514 C513 1.398 . S
C514 C515 1.391 . S
C515 H503 0.950 . S
C515 C511 1.393 . S
C515 C514 1.391 . S
H516 C524 0.950 . S
H517 C529 0.950 . S
H518 C526 0.950 . S
H519 C528 0.950 . S
H520 C530 0.950 . S
H521 C532 0.950 . S
H522 C534 0.950 . S
H523 C535 0.950 . S
C524 H516 0.950 . S
C524 C525 1.386 . S
C524 C526 1.391 . S
C525 C524 1.386 . S
C525 C529 1.393 . S
C526 H518 0.950 . S
C526 C524 1.391 . S
C526 C527 1.400 . S
C527 C526 1.400 . S
C527 C528 1.398 . S
C527 C533 1.491 . S
C528 H519 0.950 . S
C528 C527 1.398 . S
C528 C529 1.391 . S
C529 H517 0.950 . S
C529 C525 1.393 . S
C529 C528 1.391 . S
C530 H520 0.950 . S
C530 C531 1.386 . S
C530 C532 1.391 . S
C531 C530 1.386 . S
C531 C535 1.393 . S
C532 H521 0.950 . S
C532 C530 1.391 . S
C532 C533 1.400 . S
C533 C527 1.491 . S
C533 C532 1.400 . S
C533 C534 1.398 . S
C534 H522 0.950 . S
C534 C533 1.398 . S
C534 C535 1.391 . S
C535 H523 0.950 . S
C535 C531 1.393 . S
C535 C534 1.391 . S
H536 C544 0.950 . S
H537 C549 0.950 . S
H538 C546 0.950 . S
H539 C548 0.950 . S
H540 C550 0.950 . S
H541 C552 0.950 . S
H542 C554 0.950 . S
H543 C555 0.950 . S
C544 H536 0.950 . S
C544 C545 1.386 . S
C544 C546 1.391 . S
C545 C544 1.386 . S
C545 C549 1.393 . S
C546 H538 0.950 . S
C546 C544 1.391 . S
C546 C547 1.400 . S
C547 C546 1.400 . S
C547 C548 1.398 . S
C547 C553 1.491 . S
C548 H539 0.950 . S
C548 C547 1.398 . S
C548 C549 1.391 . S
C549 H537 0.950 . S
C549 C545 1.393 . S
C549 C548 1.391 . S
C550 H540 0.950 . S
C550 C551 1.386 . S
C550 C552 1.391 . S
C551 C550 1.386 . S
C551 C555 1.393 . S
C552 H541 0.950 . S
C552 C550 1.391 . S
C552 C553 1.400 . S
C553 C547 1.491 . S
C553 C552 1.400 . S
C553 C554 1.398 . S
C554 H542 0.950 . S
C554 C553 1.398 . S
C554 C555 1.391 . S
C555 H543 0.950 . S
C555 C551 1.393 . S
C555 C554 1.391 . S
H556 C564 0.950 . S
H557 C569 0.950 . S
H558 C566 0.950 . S
H559 C568 0.950 . S
H560 C570 0.950 . S
H561 C572 0.950 . S
H562 C574 0.950 . S
H563 C575 0.950 . S
C564 H556 0.950 . S
C564 C565 1.386 . S
C564 C566 1.391 . S
C565 C564 1.386 . S
C565 C569 1.393 . S
C566 H558 0.950 . S
C566 C564 1.391 . S
C566 C567 1.400 . S
C567 C566 1.400 . S
C567 C568 1.398 . S
C567 C573 1.491 . S
C568 H559 0.950 . S
C568 C567 1.398 . S
C568 C569 1.391 . S
C569 H557 0.950 . S
C569 C565 1.393 . S
C569 C568 1.391 . S
C570 H560 0.950 . S
C570 C571 1.386 . S
C570 C572 1.391 . S
C571 C570 1.386 . S
C571 C575 1.393 . S
C572 H561 0.950 . S
C572 C570 1.391 . S
C572 C573 1.400 . S
C573 C567 1.491 . S
C573 C572 1.400 . S
C573 C574 1.398 . S
C574 H562 0.950 . S
C574 C573 1.398 . S
C574 C575 1.391 . S
C575 H563 0.950 . S
C575 C571 1.393 . S
C575 C574 1.391 . S
H576 C584 0.950 . S
H577 C589 0.950 . S
H578 C586 0.950 . S
H579 C588 0.950 . S
H580 C590 0.950 . S
H581 C592 0.950 . S
H582 C594 0.950 . S
H583 C595 0.950 . S
C584 H576 0.950 . S
C584 C585 1.386 . S
C584 C586 1.391 . S
C585 C584 1.386 . S
C585 C589 1.393 . S
C586 H578 0.950 . S
C586 C584 1.391 . S
C586 C587 1.400 . S
C587 C586 1.400 . S
C587 C588 1.398 . S
C587 C593 1.491 . S
C588 H579 0.950 . S
C588 C587 1.398 . S
C588 C589 1.391 . S
C589 H577 0.950 . S
C589 C585 1.393 . S
C589 C588 1.391 . S
C590 H580 0.950 . S
C590 C591 1.386 . S
C590 C592 1.391 . S
C591 C590 1.386 . S
C591 C595 1.393 . S
C592 H581 0.950 . S
C592 C590 1.391 . S
C592 C593 1.400 . S
C593 C587 1.491 . S
C593 C592 1.400 . S
C593 C594 1.398 . S
C594 H582 0.950 . S
C594 C593 1.398 . S
C594 C595 1.391 . S
C595 H583 0.950 . S
C595 C591 1.393 . S
C595 C594 1.391 . S
H596 C604 0.950 . S
H597 C609 0.950 . S
H598 C606 0.950 . S
H599 C608 0.950 . S
H600 C610 0.950 . S
H601 C612 0.950 . S
H602 C614 0.950 . S
H603 C615 0.950 . S
C604 H596 0.950 . S
C604 C605 1.386 . S
C604 C606 1.391 1_554 S
C605 C604 1.386 . S
C605 C609 1.393 . S
C606 H598 0.950 . S
C606 C604 1.391 1_556 S
C606 C607 1.400 . S
C607 C606 1.400 . S
C607 C608 1.398 . S
C607 C613 1.491 . S
C608 H599 0.950 . S
C608 C607 1.398 . S
C608 C609 1.391 1_556 S
C609 H597 0.950 . S
C609 C605 1.393 . S
C609 C608 1.391 1_554 S
C610 H600 0.950 . S
C610 C611 1.386 . S
C610 C612 1.391 . S
C611 C610 1.386 . S
C611 C615 1.393 . S
C612 H601 0.950 . S
C612 C610 1.391 . S
C612 C613 1.400 . S
C613 C607 1.491 . S
C613 C612 1.400 . S
C613 C614 1.398 . S
C614 H602 0.950 . S
C614 C613 1.398 . S
C614 C615 1.391 . S
C615 H603 0.950 . S
C615 C611 1.393 . S
C615 C614 1.391 . S
H616 C624 0.950 . S
H617 C629 0.950 . S
H618 C626 0.950 1_554 S
H619 C628 0.950 1_554 S
H620 C630 0.950 . S
H621 C632 0.950 . S
H622 C634 0.950 . S
H623 C635 0.950 . S
C624 H616 0.950 . S
C624 C625 1.386 . S
C624 C626 1.391 . S
C625 C624 1.386 . S
C625 C629 1.393 . S
C626 H618 0.950 1_556 S
C626 C624 1.391 . S
C626 C627 1.400 1_556 S
C627 C626 1.400 1_554 S
C627 C628 1.398 1_554 S
C627 C633 1.491 . S
C628 H619 0.950 1_556 S
C628 C627 1.398 1_556 S
C628 C629 1.391 . S
C629 H617 0.950 . S
C629 C625 1.393 . S
C629 C628 1.391 . S
C630 H620 0.950 . S
C630 C631 1.386 . S
C630 C632 1.391 . S
C631 C630 1.386 . S
C631 C635 1.393 . S
C632 H621 0.950 . S
C632 C630 1.391 . S
C632 C633 1.400 . S
C633 C627 1.491 . S
C633 C632 1.400 . S
C633 C634 1.398 . S
C634 H622 0.950 . S
C634 C633 1.398 . S
C634 C635 1.391 . S
C635 H623 0.950 . S
C635 C631 1.393 . S
C635 C634 1.391 . S
H636 C644 0.950 . S
H637 C649 0.950 . S
H638 C646 0.950 . S
H639 C648 0.950 . S
H640 C650 0.950 . S
H641 C652 0.950 . S
H642 C654 0.950 . S
H643 C655 0.950 . S
C644 H636 0.950 . S
C644 C645 1.386 . S
C644 C646 1.391 . S
C645 C644 1.386 . S
C645 C649 1.393 . S
C646 H638 0.950 . S
C646 C644 1.391 . S
C646 C647 1.400 . S
C647 C646 1.400 . S
C647 C648 1.398 . S
C647 C653 1.491 . S
C648 H639 0.950 . S
C648 C647 1.398 . S
C648 C649 1.391 . S
C649 H637 0.950 . S
C649 C645 1.393 . S
C649 C648 1.391 . S
C650 H640 0.950 . S
C650 C651 1.386 1_556 S
C650 C652 1.391 . S
C651 C650 1.386 1_554 S
C651 C655 1.393 . S
C652 H641 0.950 . S
C652 C650 1.391 . S
C652 C653 1.400 . S
C653 C647 1.491 . S
C653 C652 1.400 . S
C653 C654 1.398 1_556 S
C654 H642 0.950 . S
C654 C653 1.398 1_554 S
C654 C655 1.391 . S
C655 H643 0.950 . S
C655 C651 1.393 . S
C655 C654 1.391 . S
H656 C664 0.950 . S
H657 C669 0.950 . S
H658 C666 0.950 . S
H659 C668 0.950 . S
H660 C670 0.950 . S
H661 C672 0.950 . S
H662 C674 0.947 1_556 S
H663 C675 0.950 . S
C664 H656 0.950 . S
C664 C665 1.386 . S
C664 C666 1.391 . S
C665 C664 1.386 . S
C665 C669 1.393 . S
C666 H658 0.950 . S
C666 C664 1.391 . S
C666 C667 1.400 . S
C667 C666 1.400 . S
C667 C668 1.398 . S
C667 C673 1.491 . S
C668 H659 0.950 . S
C668 C667 1.398 . S
C668 C669 1.391 . S
C669 H657 0.950 . S
C669 C665 1.393 . S
C669 C668 1.391 . S
C670 H660 0.950 . S
C670 C671 1.386 1_554 S
C670 C672 1.391 . S
C671 C670 1.386 1_556 S
C671 C675 1.393 . S
C672 H661 0.950 . S
C672 C670 1.391 . S
C672 C673 1.400 . S
C673 C667 1.491 . S
C673 C672 1.400 . S
C673 C674 1.406 . S
C674 H662 0.947 1_554 S
C674 C673 1.406 . S
C674 C675 1.386 1_554 S
C675 H663 0.950 . S
C675 C671 1.393 . S
C675 C674 1.386 1_556 S
H676 C684 0.950 . S
H677 C689 0.950 . S
H678 C686 0.950 . S
H679 C688 0.950 . S
H680 C690 0.950 . S
H681 C692 0.950 . S
H682 C694 0.950 . S
H683 C695 0.950 . S
C684 H676 0.950 . S
C684 C685 1.386 . S
C684 C686 1.391 . S
C685 C684 1.386 . S
C685 C689 1.393 . S
C686 H678 0.950 . S
C686 C684 1.391 . S
C686 C687 1.400 . S
C687 C686 1.400 . S
C687 C688 1.398 . S
C687 C693 1.491 . S
C688 H679 0.950 . S
C688 C687 1.398 . S
C688 C689 1.391 . S
C689 H677 0.950 . S
C689 C685 1.393 . S
C689 C688 1.391 . S
C690 H680 0.950 . S
C690 C691 1.386 . S
C690 C692 1.391 . S
C691 C690 1.386 . S
C691 C695 1.393 . S
C692 H681 0.950 . S
C692 C690 1.391 . S
C692 C693 1.400 . S
C693 C687 1.491 . S
C693 C692 1.400 . S
C693 C694 1.398 . S
C694 H682 0.950 . S
C694 C693 1.398 . S
C694 C695 1.391 . S
C695 H683 0.950 . S
C695 C691 1.393 . S
C695 C694 1.391 . S
H696 C704 0.950 . S
H697 C709 0.950 . S
H698 C706 0.950 . S
H699 C708 0.950 . S
H700 C710 0.950 . S
H701 C712 0.950 . S
H702 C714 0.950 . S
H703 C715 0.950 . S
C704 H696 0.950 . S
C704 C705 1.386 . S
C704 C706 1.391 . S
C705 C704 1.386 . S
C705 C709 1.393 . S
C706 H698 0.950 . S
C706 C704 1.391 . S
C706 C707 1.400 . S
C707 C706 1.400 . S
C707 C708 1.398 . S
C707 C713 1.491 . S
C708 H699 0.950 . S
C708 C707 1.398 . S
C708 C709 1.391 . S
C709 H697 0.950 . S
C709 C705 1.393 . S
C709 C708 1.391 . S
C710 H700 0.950 . S
C710 C711 1.386 . S
C710 C712 1.391 . S
C711 C710 1.386 . S
C711 C715 1.393 . S
C712 H701 0.950 . S
C712 C710 1.391 . S
C712 C713 1.400 . S
C713 C707 1.491 . S
C713 C712 1.400 . S
C713 C714 1.398 . S
C714 H702 0.950 . S
C714 C713 1.398 . S
C714 C715 1.391 . S
C715 H703 0.950 . S
C715 C711 1.393 . S
C715 C714 1.391 . S
H716 C724 0.950 . S
H717 C729 0.950 . S
H718 C726 0.950 . S
H719 C728 0.950 . S
H720 C730 0.950 . S
H721 C732 0.950 . S
H722 C734 0.950 . S
H723 C735 0.950 . S
C724 H716 0.950 . S
C724 C725 1.386 . S
C724 C726 1.391 . S
C725 C724 1.386 . S
C725 C729 1.393 . S
C726 H718 0.950 . S
C726 C724 1.391 . S
C726 C727 1.400 . S
C727 C726 1.400 . S
C727 C728 1.398 . S
C727 C733 1.491 . S
C728 H719 0.950 . S
C728 C727 1.398 . S
C728 C729 1.391 . S
C729 H717 0.950 . S
C729 C725 1.393 . S
C729 C728 1.391 . S
C730 H720 0.950 . S
C730 C731 1.386 . S
C730 C732 1.391 . S
C731 C730 1.386 . S
C731 C735 1.393 . S
C732 H721 0.950 . S
C732 C730 1.391 . S
C732 C733 1.400 . S
C733 C727 1.491 . S
C733 C732 1.400 . S
C733 C734 1.398 . S
C734 H722 0.950 . S
C734 C733 1.398 . S
C734 C735 1.391 . S
C735 H723 0.950 . S
C735 C731 1.393 . S
C735 C734 1.391 . S
H736 C744 0.950 . S
H737 C749 0.950 . S
H738 C746 0.950 . S
H739 C748 0.950 . S
H740 C750 0.950 . S
H741 C752 0.950 . S
H742 C754 0.950 . S
H743 C755 0.950 . S
C744 H736 0.950 . S
C744 C745 1.386 . S
C744 C746 1.391 . S
C745 C744 1.386 . S
C745 C749 1.393 . S
C746 H738 0.950 . S
C746 C744 1.391 . S
C746 C747 1.400 . S
C747 C746 1.400 . S
C747 C748 1.398 . S
C747 C753 1.491 . S
C748 H739 0.950 . S
C748 C747 1.398 . S
C748 C749 1.391 . S
C749 H737 0.950 . S
C749 C745 1.393 . S
C749 C748 1.391 . S
C750 H740 0.950 . S
C750 C751 1.386 . S
C750 C752 1.391 . S
C751 C750 1.386 . S
C751 C755 1.393 . S
C752 H741 0.950 . S
C752 C750 1.391 . S
C752 C753 1.400 . S
C753 C747 1.491 . S
C753 C752 1.400 . S
C753 C754 1.398 . S
C754 H742 0.950 . S
C754 C753 1.398 . S
C754 C755 1.391 . S
C755 H743 0.950 . S
C755 C751 1.393 . S
C755 C754 1.391 . S
H756 C764 0.950 . S
H757 C769 0.950 . S
H758 C766 0.950 . S
H759 C768 0.950 . S
H760 C770 0.950 . S
H761 C772 0.950 . S
H762 C774 0.950 . S
H763 C775 0.950 . S
C764 H756 0.950 . S
C764 C765 1.386 . S
C764 C766 1.391 . S
C765 C764 1.386 . S
C765 C769 1.393 . S
C766 H758 0.950 . S
C766 C764 1.391 . S
C766 C767 1.400 . S
C767 C766 1.400 . S
C767 C768 1.398 . S
C767 C773 1.491 . S
C768 H759 0.950 . S
C768 C767 1.398 . S
C768 C769 1.391 . S
C769 H757 0.950 . S
C769 C765 1.393 . S
C769 C768 1.391 . S
C770 H760 0.950 . S
C770 C771 1.386 . S
C770 C772 1.391 . S
C771 C770 1.386 . S
C771 C775 1.393 . S
C772 H761 0.950 . S
C772 C770 1.391 . S
C772 C773 1.400 . S
C773 C767 1.491 . S
C773 C772 1.400 . S
C773 C774 1.398 . S
C774 H762 0.950 . S
C774 C773 1.398 . S
C774 C775 1.391 . S
C775 H763 0.950 . S
C775 C771 1.393 . S
C775 C774 1.391 . S
H776 C784 0.950 . S
H777 C789 0.950 . S
H778 C786 0.950 . S
H779 C788 0.950 . S
H780 C790 0.950 . S
H781 C792 0.950 . S
H782 C794 0.950 . S
H783 C795 0.950 . S
C784 H776 0.950 . S
C784 C785 1.386 . S
C784 C786 1.391 . S
C785 C784 1.386 . S
C785 C789 1.393 . S
C786 H778 0.950 . S
C786 C784 1.391 . S
C786 C787 1.400 . S
C787 C786 1.400 . S
C787 C788 1.398 . S
C787 C793 1.491 . S
C788 H779 0.950 . S
C788 C787 1.398 . S
C788 C789 1.391 . S
C789 H777 0.950 . S
C789 C785 1.393 . S
C789 C788 1.391 . S
C790 H780 0.950 . S
C790 C791 1.386 . S
C790 C792 1.391 . S
C791 C790 1.386 . S
C791 C795 1.393 . S
C792 H781 0.950 . S
C792 C790 1.391 . S
C792 C793 1.400 . S
C793 C787 1.491 . S
C793 C792 1.400 . S
C793 C794 1.398 . S
C794 H782 0.950 . S
C794 C793 1.398 . S
C794 C795 1.391 . S
C795 H783 0.950 . S
C795 C791 1.393 . S
C795 C794 1.391 . S
H796 C804 0.950 . S
H797 C809 0.950 . S
H798 C806 0.950 . S
H799 C808 0.950 . S
H800 C810 0.950 . S
H801 C812 0.950 . S
H802 C814 0.950 . S
H803 C815 0.950 . S
C804 H796 0.950 . S
C804 C805 1.386 . S
C804 C806 1.391 . S
C805 C804 1.386 . S
C805 C809 1.393 . S
C806 H798 0.950 . S
C806 C804 1.391 . S
C806 C807 1.400 . S
C807 C806 1.400 . S
C807 C808 1.398 . S
C807 C813 1.491 . S
C808 H799 0.950 . S
C808 C807 1.398 . S
C808 C809 1.391 . S
C809 H797 0.950 . S
C809 C805 1.393 . S
C809 C808 1.391 . S
C810 H800 0.950 . S
C810 C811 1.386 . S
C810 C812 1.391 . S
C811 C810 1.386 . S
C811 C815 1.393 . S
C812 H801 0.950 . S
C812 C810 1.391 . S
C812 C813 1.400 . S
C813 C807 1.491 . S
C813 C812 1.400 . S
C813 C814 1.398 . S
C814 H802 0.950 . S
C814 C813 1.398 . S
C814 C815 1.391 . S
C815 H803 0.950 . S
C815 C811 1.393 . S
C815 C814 1.391 . S
H816 C824 0.950 . S
H817 C829 0.950 . S
H818 C826 0.950 . S
H819 C828 0.950 . S
H820 C830 0.950 . S
H821 C832 0.950 . S
H822 C834 0.950 . S
H823 C835 0.950 . S
C824 H816 0.950 . S
C824 C825 1.386 . S
C824 C826 1.391 . S
C825 C824 1.386 . S
C825 C829 1.393 . S
C826 H818 0.950 . S
C826 C824 1.391 . S
C826 C827 1.400 . S
C827 C826 1.400 . S
C827 C828 1.398 . S
C827 C833 1.491 . S
C828 H819 0.950 . S
C828 C827 1.398 . S
C828 C829 1.391 . S
C829 H817 0.950 . S
C829 C825 1.393 . S
C829 C828 1.391 . S
C830 H820 0.950 . S
C830 C831 1.386 . S
C830 C832 1.391 . S
C831 C830 1.386 . S
C831 C835 1.393 . S
C832 H821 0.950 . S
C832 C830 1.391 . S
C832 C833 1.400 . S
C833 C827 1.491 . S
C833 C832 1.400 . S
C833 C834 1.398 . S
C834 H822 0.950 . S
C834 C833 1.398 . S
C834 C835 1.391 . S
C835 H823 0.950 . S
C835 C831 1.393 . S
C835 C834 1.391 . S
H836 C844 0.950 . S
H837 C849 0.950 . S
H838 C846 0.950 . S
H839 C848 0.950 . S
H840 C850 0.950 . S
H841 C852 0.950 . S
H842 C854 0.950 . S
H843 C855 0.950 . S
C844 H836 0.950 . S
C844 C845 1.386 1_556 S
C844 C846 1.391 . S
C845 C844 1.386 1_554 S
C845 C849 1.393 . S
C846 H838 0.950 . S
C846 C844 1.391 . S
C846 C847 1.400 . S
C847 C846 1.400 . S
C847 C848 1.398 1_556 S
C847 C853 1.491 . S
C848 H839 0.950 . S
C848 C847 1.398 1_554 S
C848 C849 1.391 . S
C849 H837 0.950 . S
C849 C845 1.393 . S
C849 C848 1.391 . S
C850 H840 0.950 . S
C850 C851 1.386 . S
C850 C852 1.391 . S
C851 C850 1.386 . S
C851 C855 1.393 . S
C852 H841 0.950 . S
C852 C850 1.391 . S
C852 C853 1.400 . S
C853 C847 1.491 . S
C853 C852 1.400 . S
C853 C854 1.398 . S
C854 H842 0.950 . S
C854 C853 1.398 . S
C854 C855 1.391 . S
C855 H843 0.950 . S
C855 C851 1.393 . S
C855 C854 1.391 . S
H856 C864 0.950 . S
H857 C869 0.950 . S
H858 C866 0.950 . S
H859 C868 0.950 . S
H860 C870 0.950 . S
H861 C872 0.950 . S
H862 C874 0.950 . S
H863 C875 0.950 . S
C864 H856 0.950 . S
C864 C865 1.386 . S
C864 C866 1.391 . S
C865 C864 1.386 . S
C865 C869 1.393 . S
C866 H858 0.950 . S
C866 C864 1.391 . S
C866 C867 1.400 . S
C867 C866 1.400 . S
C867 C868 1.398 . S
C867 C873 1.491 . S
C868 H859 0.950 . S
C868 C867 1.398 . S
C868 C869 1.391 . S
C869 H857 0.950 . S
C869 C865 1.393 . S
C869 C868 1.391 . S
C870 H860 0.950 . S
C870 C871 1.386 . S
C870 C872 1.391 . S
C871 C870 1.386 . S
C871 C875 1.393 1_556 S
C872 H861 0.950 . S
C872 C870 1.391 . S
C872 C873 1.400 1_556 S
C873 C867 1.491 . S
C873 C872 1.400 1_554 S
C873 C874 1.398 . S
C874 H862 0.950 . S
C874 C873 1.398 . S
C874 C875 1.391 . S
C875 H863 0.950 . S
C875 C871 1.393 1_554 S
C875 C874 1.391 . S
H876 C884 0.950 . S
H877 C889 0.950 . S
H878 C886 0.950 . S
H879 C888 0.950 . S
H880 C890 0.950 . S
H881 C892 0.950 . S
H882 C894 0.950 . S
H883 C895 0.950 . S
C884 H876 0.950 . S
C884 C885 1.386 . S
C884 C886 1.391 . S
C885 C884 1.386 . S
C885 C889 1.393 . S
C886 H878 0.950 . S
C886 C884 1.391 . S
C886 C887 1.400 . S
C887 C886 1.400 . S
C887 C888 1.398 . S
C887 C893 1.491 . S
C888 H879 0.950 . S
C888 C887 1.398 . S
C888 C889 1.391 . S
C889 H877 0.950 . S
C889 C885 1.393 . S
C889 C888 1.391 . S
C890 H880 0.950 . S
C890 C891 1.386 . S
C890 C892 1.391 . S
C891 C890 1.386 . S
C891 C895 1.393 . S
C892 H881 0.950 . S
C892 C890 1.391 . S
C892 C893 1.400 . S
C893 C887 1.491 . S
C893 C892 1.400 . S
C893 C894 1.398 . S
C894 H882 0.950 . S
C894 C893 1.398 . S
C894 C895 1.391 . S
C895 H883 0.950 . S
C895 C891 1.393 . S
C895 C894 1.391 . S
H896 C904 0.950 . S
H897 C909 0.950 . S
H898 C906 0.950 . S
H899 C908 0.950 . S
H900 C910 0.950 . S
H901 C912 0.950 . S
H902 C914 0.950 . S
H903 C915 0.950 . S
C904 H896 0.950 . S
C904 C905 1.386 . S
C904 C906 1.391 . S
C905 C904 1.386 . S
C905 C909 1.393 . S
C906 H898 0.950 . S
C906 C904 1.391 . S
C906 C907 1.400 . S
C907 C906 1.400 . S
C907 C908 1.398 . S
C907 C913 1.491 1_655 S
C908 H899 0.950 . S
C908 C907 1.398 . S
C908 C909 1.391 . S
C909 H897 0.950 . S
C909 C905 1.393 . S
C909 C908 1.391 . S
C910 H900 0.950 . S
C910 C911 1.386 . S
C910 C912 1.391 . S
C911 C910 1.386 . S
C911 C915 1.393 . S
C912 H901 0.950 . S
C912 C910 1.391 . S
C912 C913 1.400 . S
C913 C907 1.491 1_455 S
C913 C912 1.400 . S
C913 C914 1.398 . S
C914 H902 0.950 . S
C914 C913 1.398 . S
C914 C915 1.391 . S
C915 H903 0.950 . S
C915 C911 1.393 . S
C915 C914 1.391 . S
H916 C924 0.950 . S
H917 C929 0.950 . S
H918 C926 0.950 . S
H919 C928 0.950 . S
H920 C930 0.950 . S
H921 C932 0.950 . S
H922 C934 0.950 . S
H923 C935 0.950 . S
C924 H916 0.950 . S
C924 C925 1.386 . S
C924 C926 1.391 . S
C925 C924 1.386 . S
C925 C929 1.393 . S
C926 H918 0.950 . S
C926 C924 1.391 . S
C926 C927 1.400 . S
C927 C926 1.400 . S
C927 C928 1.398 . S
C927 C933 1.491 1_545 S
C928 H919 0.950 . S
C928 C927 1.398 . S
C928 C929 1.391 . S
C929 H917 0.950 . S
C929 C925 1.393 . S
C929 C928 1.391 . S
C930 H920 0.950 . S
C930 C931 1.386 . S
C930 C932 1.391 . S
C931 C930 1.386 . S
C931 C935 1.393 . S
C932 H921 0.950 . S
C932 C930 1.391 . S
C932 C933 1.400 . S
C933 C927 1.491 1_565 S
C933 C932 1.400 . S
C933 C934 1.398 . S
C934 H922 0.950 . S
C934 C933 1.398 . S
C934 C935 1.391 . S
C935 H923 0.950 . S
C935 C931 1.393 . S
C935 C934 1.391 . S
H936 C944 0.950 . S
H937 C949 0.950 . S
H938 C946 0.950 . S
H939 C948 0.950 . S
H940 C950 0.950 . S
H941 C952 0.950 . S
H942 C954 0.950 . S
H943 C955 0.950 . S
C944 H936 0.950 . S
C944 C945 1.386 . S
C944 C946 1.391 . S
C945 C944 1.386 . S
C945 C949 1.393 . S
C946 H938 0.950 . S
C946 C944 1.391 . S
C946 C947 1.400 . S
C947 C946 1.400 . S
C947 C948 1.398 . S
C947 C953 1.491 . S
C948 H939 0.950 . S
C948 C947 1.398 . S
C948 C949 1.391 . S
C949 H937 0.950 . S
C949 C945 1.393 . S
C949 C948 1.391 . S
C950 H940 0.950 . S
C950 C951 1.386 . S
C950 C952 1.391 . S
C951 C950 1.386 . S
C951 C955 1.393 . S
C952 H941 0.950 . S
C952 C950 1.391 . S
C952 C953 1.400 . S
C953 C947 1.491 . S
C953 C952 1.400 . S
C953 C954 1.398 . S
C954 H942 0.950 . S
C954 C953 1.398 . S
C954 C955 1.391 . S
C955 H943 0.950 . S
C955 C951 1.393 . S
C955 C954 1.391 . S
H956 C964 0.950 . S
H957 C969 0.950 . S
H958 C966 0.950 . S
H959 C968 0.950 . S
H960 C970 0.950 . S
H961 C972 0.950 . S
H962 C974 0.950 . S
H963 C975 0.950 . S
C964 H956 0.950 . S
C964 C965 1.386 . S
C964 C966 1.391 . S
C965 C964 1.386 . S
C965 C969 1.393 . S
C966 H958 0.950 . S
C966 C964 1.391 . S
C966 C967 1.400 . S
C967 C966 1.400 . S
C967 C968 1.398 . S
C967 C973 1.491 1_455 S
C968 H959 0.950 . S
C968 C967 1.398 . S
C968 C969 1.391 . S
C969 H957 0.950 . S
C969 C965 1.393 . S
C969 C968 1.391 . S
C970 H960 0.950 . S
C970 C971 1.386 . S
C970 C972 1.391 . S
C971 C970 1.386 . S
C971 C975 1.393 . S
C972 H961 0.950 . S
C972 C970 1.391 . S
C972 C973 1.400 . S
C973 C967 1.491 1_655 S
C973 C972 1.400 . S
C973 C974 1.398 . S
C974 H962 0.950 . S
C974 C973 1.398 . S
C974 C975 1.391 . S
C975 H963 0.950 . S
C975 C971 1.393 . S
C975 C974 1.391 . S
H976 C984 0.950 . S
H977 C989 0.950 . S
H978 C986 0.950 . S
H979 C988 0.950 . S
H980 C990 0.950 . S
H981 C992 0.950 . S
H982 C994 0.950 . S
H983 C995 0.950 . S
C984 H976 0.950 . S
C984 C985 1.386 . S
C984 C986 1.391 . S
C985 C984 1.386 . S
C985 C989 1.393 1_556 S
C986 H978 0.950 . S
C986 C984 1.391 . S
C986 C987 1.400 . S
C987 C986 1.400 . S
C987 C988 1.398 1_556 S
C987 C993 1.491 1_546 S
C988 H979 0.950 . S
C988 C987 1.398 1_554 S
C988 C989 1.391 . S
C989 H977 0.950 . S
C989 C985 1.393 1_554 S
C989 C988 1.391 . S
C990 H980 0.950 . S
C990 C991 1.386 . S
C990 C992 1.391 . S
C991 C990 1.386 . S
C991 C995 1.393 1_554 S
C992 H981 0.950 . S
C992 C990 1.391 . S
C992 C993 1.400 . S
C993 C987 1.491 1_564 S
C993 C992 1.400 . S
C993 C994 1.398 1_554 S
C994 H982 0.950 . S
C994 C993 1.398 1_556 S
C994 C995 1.391 . S
C995 H983 0.950 . S
C995 C991 1.393 1_556 S
C995 C994 1.391 . S
C405 N5 1.261 . S
C411 N14 1.259 . S
C425 N47 1.265 1_556 S
C431 N38 1.267 . S
C445 N80 1.265 . S
C451 N71 1.267 . S
C465 N104 1.265 . S
C471 N113 1.265 . S
C485 N137 1.263 1_554 S
C491 N146 1.259 . S
C505 N179 1.268 . S
C511 N170 1.268 . S
C525 N203 1.266 . S
C531 N212 1.264 1_554 S
C545 N236 1.268 . S
C551 N245 1.268 . S
C565 N278 1.261 . S
C571 N269 1.262 . S
C585 N302 1.262 1_556 S
C591 N311 1.259 . S
C605 N335 1.263 . S
C611 N344 1.259 . S
C625 N377 1.268 . S
C631 N368 1.268 . S
C645 C206 1.521 . S
C651 C8 1.512 . S
C665 C41 1.520 . S
C671 C239 1.513 . S
C685 C272 1.517 . S
C691 C74 1.506 . S
C705 C305 1.517 . S
C711 C107 1.507 . S
C725 C338 1.519 . S
C731 C140 1.507 . S
C745 C371 1.513 . S
C751 C173 1.507 . S
C765 C28 1.106 . S
C771 C358 1.120 . S
C785 C61 1.109 . S
C791 C391 1.107 . S
C805 C94 1.119 . S
C811 C226 1.105 . S
C825 C259 1.104 . S
C831 C127 1.117 . S
C845 C292 1.114 . S
C851 C160 1.125 . S
C865 C325 1.124 . S
C871 C193 1.111 . S
C885 C17 1.495 . S
C891 C314 1.501 . S
C905 C50 1.502 . S
C911 C347 1.493 . S
C925 C380 1.500 . S
C931 C83 1.486 . S
C945 C116 1.492 . S
C951 C215 1.486 . S
C965 C149 1.488 . S
C971 C248 1.490 . S
C985 C182 1.489 . S
C991 C281 1.502 . S
