# Generated by pormake.
# Topology gis, (4)-cn, num edge types: 1
# Building blocks:
#     Node 0, Type 0, BuildingBlock: KUFVIS_clean_sbu_0, # of connection points: 4
#     Node 1, Type 0, BuildingBlock: KUFVIS_clean_sbu_0, # of connection points: 4
#     Node 2, Type 0, BuildingBlock: KUFVIS_clean_sbu_0, # of connection points: 4
#     Node 3, Type 0, BuildingBlock: KUFVIS_clean_sbu_0, # of connection points: 4
#     Node 4, Type 0, BuildingBlock: KUFVIS_clean_sbu_0, # of connection points: 4
#     Node 5, Type 0, BuildingBlock: KUFVIS_clean_sbu_0, # of connection points: 4
#     Node 6, Type 0, BuildingBlock: KUFVIS_clean_sbu_0, # of connection points: 4
#     Node 7, Type 0, BuildingBlock: KUFVIS_clean_sbu_0, # of connection points: 4
#     Node 8, Type 0, BuildingBlock: KUFVIS_clean_sbu_0, # of connection points: 4
#     Node 9, Type 0, BuildingBlock: KUFVIS_clean_sbu_0, # of connection points: 4
#     Node 10, Type 0, BuildingBlock: KUFVIS_clean_sbu_0, # of connection points: 4
#     Node 11, Type 0, BuildingBlock: KUFVIS_clean_sbu_0, # of connection points: 4
#     Node 12, Type 0, BuildingBlock: KUFVIS_clean_sbu_0, # of connection points: 4
#     Node 13, Type 0, BuildingBlock: KUFVIS_clean_sbu_0, # of connection points: 4
#     Node 14, Type 0, BuildingBlock: KUFVIS_clean_sbu_0, # of connection points: 4
#     Node 15, Type 0, BuildingBlock: KUFVIS_clean_sbu_0, # of connection points: 4
#     Edge 16, Type (0, 0), None
#     Edge 17, Type (0, 0), None
#     Edge 18, Type (0, 0), None
#     Edge 19, Type (0, 0), None
#     Edge 20, Type (0, 0), None
#     Edge 21, Type (0, 0), None
#     Edge 22, Type (0, 0), None
#     Edge 23, Type (0, 0), None
#     Edge 24, Type (0, 0), None
#     Edge 25, Type (0, 0), None
#     Edge 26, Type (0, 0), None
#     Edge 27, Type (0, 0), None
#     Edge 28, Type (0, 0), None
#     Edge 29, Type (0, 0), None
#     Edge 30, Type (0, 0), None
#     Edge 31, Type (0, 0), None
#     Edge 32, Type (0, 0), None
#     Edge 33, Type (0, 0), None
#     Edge 34, Type (0, 0), None
#     Edge 35, Type (0, 0), None
#     Edge 36, Type (0, 0), None
#     Edge 37, Type (0, 0), None
#     Edge 38, Type (0, 0), None
#     Edge 39, Type (0, 0), None
#     Edge 40, Type (0, 0), None
#     Edge 41, Type (0, 0), None
#     Edge 42, Type (0, 0), None
#     Edge 43, Type (0, 0), None
#     Edge 44, Type (0, 0), None
#     Edge 45, Type (0, 0), None
#     Edge 46, Type (0, 0), None
#     Edge 47, Type (0, 0), None
# Relax obj value: 0.091
# Max RMSD: 0.145
# Mean RMSD: 0.140
data_MOF--net-gis--node1-KUFVIS_clean_sbu_0--edge1-none
_symmetry_space_group_name_H-M    P1
_symmetry_Int_Tables_number       1
_symmetry_cell_setting            triclinic
loop_
_symmetry_equiv_pos_as_xyz
'x, y, z'
_cell_length_a     21.82458
_cell_length_b     24.26429
_cell_length_c     16.609756
_cell_angle_alpha  86.664461
_cell_angle_beta   89.189384
_cell_angle_gamma 91.745621
loop_
_atom_site_label
_atom_site_type_symbol
_atom_site_fract_x
_atom_site_fract_y
_atom_site_fract_z
_atom_type_partial_charge
Mn0 Mn 0.20352 0.62833 0.08413 0.0
Mn1 Mn 0.13649 0.60752 0.26615 0.0
C2 C 0.08907 0.61767 0.09287 0.0
C3 C 0.20037 0.52431 0.07682 0.0
C4 C 0.14693 0.71848 0.185 0.0
O5 O 0.2833 0.62768 0.15313 0.0
O6 O 0.22634 0.629 0.2629 0.0
C7 C 0.18441 0.64095 0.42334 0.0
N8 N 0.13848 0.61838 0.3795 0.0
C9 C 0.07902 0.59504 0.49983 0.0
C10 C 0.12712 0.61496 0.54627 0.0
C11 C 0.17949 0.6392 0.50766 0.0
C12 C 0.08597 0.59882 0.41563 0.0
H13 H 0.22472 0.66041 0.39474 0.0
C14 C 0.27884 0.63578 0.2281 0.0
O15 O 0.22378 0.55898 0.02565 0.0
O16 O 0.1796 0.54768 0.13764 0.0
N17 N 0.05375 0.58018 0.28604 0.0
C18 C 0.02161 0.5449 0.23993 0.0
C19 C 0.96601 0.52019 0.26877 0.0
C20 C 0.94794 0.5256 0.34894 0.0
C21 C 0.98774 0.55253 0.40012 0.0
C22 C 0.04081 0.5793 0.36632 0.0
H23 H 0.03854 0.53467 0.18155 0.0
O24 O 0.12062 0.63088 0.02867 0.0
O25 O 0.12696 0.60027 0.14927 0.0
O26 O 0.18448 0.70314 0.13164 0.0
O27 O 0.11926 0.68523 0.23872 0.0
C28 C 0.97878 0.55034 0.48426 0.0
C29 C 0.02449 0.57145 0.53419 0.0
H30 H 0.12369 0.61292 0.61153 0.0
H31 H 0.21618 0.65621 0.54269 0.0
H32 H 0.93872 0.4949 0.23039 0.0
H33 H 0.90607 0.50496 0.37213 0.0
H34 H 0.93697 0.53218 0.51154 0.0
H35 H 1.01734 0.56879 0.59901 0.0
Mn36 Mn 0.66572 0.89098 0.38968 0.0
Mn37 Mn 0.6338 0.84445 0.57938 0.0
C38 C 0.65371 0.79623 0.41219 0.0
C39 C 0.74521 0.91447 0.29441 0.0
C40 C 0.53689 0.87085 0.46569 0.0
O41 O 0.68302 0.9576 0.45023 0.0
O42 O 0.63616 0.92873 0.56573 0.0
C43 C 0.74188 0.89172 0.65837 0.0
N44 N 0.70661 0.84636 0.64229 0.0
C45 C 0.73574 0.79967 0.7673 0.0
C46 C 0.77108 0.84634 0.78551 0.0
C47 C 0.77538 0.89202 0.72983 0.0
C48 C 0.70478 0.80106 0.69378 0.0
H49 H 0.74329 0.9282 0.61824 0.0
C50 C 0.6612 0.96697 0.5185 0.0
O51 O 0.69034 0.93142 0.27948 0.0
O52 O 0.75162 0.88998 0.363 0.0
N53 N 0.62933 0.76713 0.61052 0.0
C54 C 0.58764 0.72779 0.58971 0.0
C55 C 0.58353 0.67685 0.63454 0.0
C56 C 0.61881 0.66828 0.70371 0.0
C57 C 0.65932 0.71023 0.72619 0.0
C58 C 0.66542 0.75831 0.67533 0.0
H59 H 0.55686 0.73574 0.54037 0.0
O60 O 0.6518 0.82105 0.34193 0.0
O61 O 0.66996 0.82795 0.47225 0.0
O62 O 0.57074 0.89822 0.41193 0.0
O63 O 0.55827 0.84127 0.52361 0.0
C64 C 0.69126 0.70738 0.7993 0.0
C65 C 0.72831 0.75262 0.82074 0.0
H66 H 0.79571 0.84726 0.84164 0.0
H67 H 0.80305 0.92806 0.74305 0.0
H68 H 0.55158 0.64485 0.61794 0.0
H69 H 0.61316 0.62995 0.74027 0.0
H70 H 0.68661 0.67107 0.84033 0.0
H71 H 0.75157 0.75049 0.878 0.0
Mn72 Mn 0.39347 0.39044 0.62097 0.0
Mn73 Mn 0.45289 0.31576 0.784 0.0
C74 C 0.49818 0.38051 0.64171 0.0
C75 C 0.36152 0.47455 0.55798 0.0
C76 C 0.38689 0.26975 0.6369 0.0
O77 O 0.3258 0.38713 0.71058 0.0
O78 O 0.38616 0.36963 0.82062 0.0
C79 C 0.5066 0.42158 0.84893 0.0
N80 N 0.53516 0.3633 0.83735 0.0
C81 C 0.58097 0.31798 1.01852 0.0
C82 C 0.54799 0.36983 0.05373 0.0
C83 C 0.49998 0.44168 0.94354 0.0
C84 C 0.57361 0.30623 0.92162 0.0
H85 H 0.48457 0.44411 0.79996 0.0
C86 C 0.33718 0.38949 0.78693 0.0
O87 O 0.34436 0.42719 0.53287 0.0
O88 O 0.39478 0.47341 0.6223 0.0
N89 N 0.496 0.22246 0.91176 0.0
C90 C 0.47144 0.17249 0.94335 0.0
C91 C 0.50379 0.13959 0.9977 0.0
C92 C 0.56113 0.15652 1.02262 0.0
C93 C 0.58506 0.20905 0.99916 0.0
C94 C 0.55392 0.24323 0.94119 0.0
H95 H 0.42675 0.15655 0.92767 0.0
O96 O 0.47712 0.39512 0.5708 0.0
O97 O 0.45745 0.37259 0.69778 0.0
O98 O 0.38475 0.30897 0.58399 0.0
O99 O 0.38382 0.28346 0.711 0.0
C100 C 0.62751 0.23236 0.04986 0.0
C101 C 0.61861 0.28618 0.06792 0.0
H102 H 0.55127 0.3712 0.1196 0.0
H103 H 0.4768 0.48056 0.9506 0.0
H104 H 0.48315 0.10127 1.02313 0.0
H105 H 0.58253 0.13144 0.06974 0.0
H106 H 0.65317 0.20661 0.09207 0.0
H107 H 0.63478 0.30081 0.12444 0.0
Mn108 Mn 0.89236 0.12657 0.87143 0.0
Mn109 Mn 0.96339 0.18611 0.6975 0.0
C110 C 0.99323 0.14294 0.87861 0.0
C111 C 0.85647 0.04198 0.94389 0.0
C112 C 0.90536 0.25269 0.82798 0.0
O113 O 0.83188 0.1185 0.78445 0.0
O114 O 0.88012 0.15343 0.67145 0.0
C115 C 0.98697 0.07268 0.53929 0.0
N116 N 1.00443 0.12385 0.59605 0.0
C117 C 0.14915 0.13294 0.53226 0.0
C118 C 0.12499 0.07739 0.4746 0.0
C119 C 0.04768 0.04863 0.47644 0.0
C120 C 0.09877 0.16051 0.59249 0.0
H121 H 0.94008 0.05747 0.53545 0.0
C122 C 0.83451 0.12833 0.70857 0.0
O123 O 0.83657 0.09 0.95912 0.0
O124 O 0.89622 0.04273 0.88574 0.0
N125 N 0.06091 0.23579 0.71679 0.0
C126 C 0.08085 0.27656 0.76805 0.0
C127 C 0.14461 0.29581 0.75483 0.0
C128 C 0.19248 0.26733 0.70727 0.0
C129 C 0.17914 0.22413 0.6515 0.0
C130 C 0.11802 0.205 0.65235 0.0
H131 H 0.04901 0.29783 0.80458 0.0
O132 O 0.95832 0.13541 0.94177 0.0
O133 O 0.96779 0.13786 0.80659 0.0
O134 O 0.88213 0.21325 0.87568 0.0
O135 O 0.93038 0.24406 0.76069 0.0
C136 C 0.21905 0.20593 0.58914 0.0
C137 C 0.20637 0.16172 0.53508 0.0
H138 H 0.1575 0.06207 0.43221 0.0
H139 H 0.03521 0.02466 0.42637 0.0
H140 H 0.1541 0.33808 0.76864 0.0
H141 H 0.23815 0.28618 0.7043 0.0
H142 H 0.26181 0.22841 0.5799 0.0
H143 H 0.24244 0.15073 0.4948 0.0
Mn144 Mn 0.19683 0.39036 0.9203 0.0
Mn145 Mn 0.13432 0.34847 0.10095 0.0
C146 C 0.18829 0.29477 0.944 0.0
C147 C 0.28779 0.40706 0.84241 0.0
C148 C 0.0558 0.39213 0.96241 0.0
O149 O 0.19643 0.45971 0.97968 0.0
O150 O 0.16907 0.42751 0.10493 0.0
C151 C 0.23281 0.35189 0.21858 0.0
N152 N 0.19135 0.32111 0.17827 0.0
C153 C 0.18699 0.2507 0.28672 0.0
C154 C 0.22863 0.28224 0.32986 0.0
C155 C 0.25217 0.33276 0.29519 0.0
C156 C 0.16907 0.27197 0.21079 0.0
H157 H 0.24871 0.39212 0.19427 0.0
C158 C 0.18804 0.46665 0.05408 0.0
O159 O 0.23577 0.42561 0.81706 0.0
O160 O 0.28833 0.38986 0.91725 0.0
N161 N 0.09867 0.27563 0.10721 0.0
C162 C 0.04987 0.25566 0.06642 0.0
C163 C 0.02294 0.20419 0.09155 0.0
C164 C 0.04612 0.17398 0.15835 0.0
C165 C 0.09558 0.19603 0.20015 0.0
C166 C 0.12181 0.24679 0.17099 0.0
H167 H 0.03071 0.2794 1.01642 0.0
O168 O 0.20472 0.32032 0.87924 0.0
O169 O 0.18324 0.32812 1.00476 0.0
O170 O 0.09769 0.39507 0.90545 0.0
O171 O 0.06907 0.37612 0.03377 0.0
C172 C 0.11726 0.17133 0.27242 0.0
C173 C 0.1611 0.19972 0.31726 0.0
H174 H 0.24312 0.26788 0.38939 0.0
H175 H 0.28436 0.35736 0.32808 0.0
H176 H 0.983 0.1888 0.06146 0.0
H177 H 0.02411 0.13494 0.17884 0.0
H178 H 0.09878 0.13152 0.29541 0.0
H179 H 0.17509 0.18174 0.37475 0.0
Mn180 Mn 0.8698 0.91331 0.09055 0.0
Mn181 Mn 0.91175 0.83479 0.23397 0.0
C182 C 0.97115 0.90076 0.118 0.0
C183 C 0.8506 0.99354 1.00345 0.0
C184 C 0.8478 0.79566 0.0512 0.0
O185 O 0.79316 0.91989 0.16186 0.0
O186 O 0.84422 0.88699 0.27021 0.0
C187 C 0.96411 0.92957 0.3303 0.0
N188 N 0.98962 0.87084 0.31272 0.0
C189 C 1.01214 0.80822 0.49265 0.0
C190 C 0.97909 0.85879 0.53085 0.0
C191 C 0.94855 0.94169 0.42656 0.0
C192 C 1.01358 0.80396 0.39275 0.0
H193 H 0.95039 0.95854 0.28268 0.0
C194 C 0.79739 0.91018 0.23793 0.0
O195 O 0.83018 0.94462 0.98688 0.0
O196 O 0.87794 0.99591 0.07113 0.0
N197 N 0.92994 0.72832 0.34737 0.0
C198 C 0.8935 0.68146 0.36333 0.0
C199 C 0.89793 0.65108 0.43504 0.0
C200 C 0.94341 0.66419 0.48769 0.0
C201 C 0.98959 0.70387 0.46701 0.0
C202 C 0.98218 0.74157 0.39829 0.0
H203 H 0.85505 0.67103 0.3273 0.0
O204 O 0.95359 0.90772 0.04397 0.0
O205 O 0.92912 0.90166 0.17231 0.0
O206 O 0.86196 0.82549 0.10783 0.0
O207 O 0.86465 0.82286 0.11576 0.0
C208 C 0.02981 0.7158 0.52807 0.0
C209 C 0.03814 0.76965 0.54444 0.0
H210 H 0.97638 0.85496 0.59657 0.0
H211 H 0.92736 0.98115 0.43632 0.0
H212 H 0.86422 0.61856 0.45161 0.0
H213 H 0.94075 0.64405 0.54769 0.0
H214 H 0.03743 0.68591 0.5776 0.0
H215 H 0.05023 0.77953 0.6051 0.0
Mn216 Mn 0.38504 0.6119 0.44004 0.0
Mn217 Mn 0.47457 0.70057 0.31091 0.0
C218 C 0.48672 0.62294 0.42915 0.0
C219 C 0.35913 0.52522 0.50449 0.0
C220 C 0.38886 0.73842 0.44536 0.0
O221 O 0.32455 0.61252 0.35179 0.0
O222 O 0.38287 0.67306 0.26951 0.0
C223 C 0.49699 0.60227 0.19302 0.0
N224 N 0.51287 0.66306 0.21792 0.0
C225 C 0.59425 0.72425 0.07386 0.0
C226 C 0.59113 0.66688 1.02246 0.0
C227 C 0.52427 0.58262 0.10256 0.0
C228 C 0.55792 0.72484 0.16308 0.0
H229 H 0.46516 0.57574 0.2289 0.0
C230 C 0.33337 0.64057 0.28453 0.0
O231 O 0.33379 0.56979 0.52644 0.0
O232 O 0.39393 0.53015 0.44055 0.0
N233 N 0.52146 0.77662 0.27109 0.0
C234 C 0.50903 0.82797 0.30178 0.0
C235 C 0.534 0.87533 0.25885 0.0
C236 C 0.57311 0.87294 0.19209 0.0
C237 C 0.58599 0.82259 0.16054 0.0
C238 C 0.56004 0.77467 0.20018 0.0
H239 H 0.50559 0.78472 0.30476 0.0
O240 O 0.46127 0.61436 0.5003 0.0
O241 O 0.45348 0.63186 0.36767 0.0
O242 O 0.36116 0.6921 0.46117 0.0
O243 O 0.43764 0.74199 0.40134 0.0
C244 C 0.61916 0.82104 0.08689 0.0
C245 C 0.62349 0.77298 0.04434 0.0
H246 H 0.61168 0.67043 0.96173 0.0
H247 H 0.49864 0.54834 0.07997 0.0
H248 H 0.52238 0.91553 0.2783 0.0
H249 H 0.59076 0.91129 0.16257 0.0
H250 H 0.63978 0.85889 0.05933 0.0
H251 H 0.64768 0.77452 0.98686 0.0
Mn252 Mn 0.6801 0.12716 0.55795 0.0
Mn253 Mn 0.64684 0.09924 0.75372 0.0
C254 C 0.57028 0.12288 0.60174 0.0
C255 C 0.66493 0.02557 0.53848 0.0
C256 C 0.6647 0.21385 0.68562 0.0
O257 O 0.76855 0.1141 0.59369 0.0
O258 O 0.73047 0.11253 0.71629 0.0
C259 C 0.71601 0.13844 0.89197 0.0
N260 N 0.67674 0.10109 0.86066 0.0
C261 C 0.65613 0.05577 0.99107 0.0
C262 C 0.70014 0.09091 1.02398 0.0
C263 C 0.72675 0.13489 0.97525 0.0
C264 C 0.64384 0.06424 0.90883 0.0
H265 H 0.7373 0.17141 0.8537 0.0
C266 C 0.77595 0.11724 0.6687 0.0
O267 O 0.67814 0.06244 0.48447 0.0
O268 O 0.6585 0.04535 0.60725 0.0
N269 N 0.57282 0.07551 0.80889 0.0
C270 C 0.51508 0.09143 0.80083 0.0
C271 C 0.46775 0.06202 0.84457 0.0
C272 C 0.48262 0.0228 0.90621 0.0
C273 C 0.54395 0.02021 0.92962 0.0
C274 C 0.58815 0.04811 0.87883 0.0
H275 H 0.50895 0.13051 0.771 0.0
O276 O 0.59305 0.14332 0.53499 0.0
O277 O 0.61233 0.09596 0.64229 0.0
O278 O 0.68496 0.19806 0.6191 0.0
O279 O 0.639 0.18069 0.74176 0.0
C280 C 0.56083 0.0011 1.00771 0.0
C281 C 0.61704 0.01962 0.03903 0.0
H282 H 0.70943 0.08786 0.08795 0.0
H283 H 0.757 0.16494 1.00141 0.0
H284 H 0.42094 0.07367 0.83766 0.0
H285 H 0.44631 0.00306 0.94372 0.0
H286 H 0.52793 0.97859 0.04763 0.0
H287 H 0.62633 0.01096 0.10233 0.0
Mn288 Mn 0.87441 0.4025 0.97284 0.0
Mn289 Mn 0.93959 0.42689 0.78936 0.0
C290 C 0.9864 0.40251 0.95891 0.0
C291 C 0.88467 0.50726 0.98829 0.0
C292 C 0.90989 0.31222 0.84916 0.0
O293 O 0.79804 0.4176 0.90916 0.0
O294 O 0.84783 0.41401 0.7919 0.0
C295 C 0.89074 0.40568 0.62791 0.0
N296 N 0.93823 0.42144 0.67492 0.0
C297 C 1.00504 0.4357 0.55926 0.0
C298 C 0.95664 0.42047 0.50964 0.0
C299 C 0.89945 0.40471 0.54426 0.0
C300 C 0.99468 0.43282 0.64263 0.0
H301 H 0.84649 0.39341 0.65363 0.0
C302 C 0.798 0.41394 0.83344 0.0
O303 O 0.86349 0.47197 0.04043 0.0
O304 O 0.90361 0.48376 0.92657 0.0
N305 N 0.02469 0.44743 0.77374 0.0
C306 C 0.05652 0.48248 0.82072 0.0
C307 C 0.11454 0.50391 0.79569 0.0
C308 C 0.13587 0.49567 0.7177 0.0
C309 C 0.09692 0.46962 0.66454 0.0
C310 C 0.04053 0.44681 0.69473 0.0
H311 H 0.03781 0.49408 0.87759 0.0
O312 O 0.95597 0.3872 1.02317 0.0
O313 O 0.9502 0.42746 0.9068 0.0
O314 O 0.88017 0.32851 0.91061 0.0
O315 O 0.9448 0.3454 0.80334 0.0
C316 C 0.10862 0.47214 0.58114 0.0
C317 C 0.06233 0.45611 0.52854 0.0
H318 H 0.96285 0.42113 0.4448 0.0
H319 H 0.86198 0.39251 0.5065 0.0
H320 H 0.1414 0.52877 0.83511 0.0
H321 H 0.17952 0.51422 0.69704 0.0
H322 H 0.15164 0.48952 0.55629 0.0
H323 H 0.07094 0.46073 0.46404 0.0
Mn324 Mn 0.36341 0.11383 0.65562 0.0
Mn325 Mn 0.41135 0.14512 0.46755 0.0
C326 C 0.36774 0.21005 0.62329 0.0
C327 C 0.27519 0.09508 0.73394 0.0
C328 C 0.50034 0.11639 0.60033 0.0
O329 O 0.37026 0.03915 0.61309 0.0
O330 O 0.37694 0.06565 0.48248 0.0
C331 C 0.3068 0.1289 0.36302 0.0
N332 N 0.34837 0.16491 0.39371 0.0
C333 C 0.34573 0.22422 0.27221 0.0
C334 C 0.30308 0.18762 0.23996 0.0
C335 C 0.28333 0.13989 0.28579 0.0
C336 C 0.36801 0.21091 0.34939 0.0
H337 H 0.29352 0.09056 0.39576 0.0
C338 C 0.36835 0.0282 0.5402 0.0
O339 O 0.32827 0.08234 0.76254 0.0
O340 O 0.27354 0.10725 0.6579 0.0
N341 N 0.44448 0.21811 0.4442 0.0
C342 C 0.49229 0.24467 0.47883 0.0
C343 C 0.51507 0.29527 0.44335 0.0
C344 C 0.48948 0.31716 0.37166 0.0
C345 C 0.44025 0.28888 0.33738 0.0
C346 C 0.4171 0.24043 0.37832 0.0
H347 H 0.51303 0.22717 0.53269 0.0
O348 O 0.35034 0.1873 0.68984 0.0
O349 O 0.37221 0.17331 0.56648 0.0
O350 O 0.46143 0.11659 0.66 0.0
O351 O 0.48253 0.12376 0.52837 0.0
C352 C 0.41516 0.30532 0.26242 0.0
C353 C 0.36913 0.27207 0.22893 0.0
H354 H 0.28526 0.19571 0.18001 0.0
H355 H 0.25079 0.11112 0.26108 0.0
H356 H 0.55339 0.3165 0.46979 0.0
H357 H 0.50863 0.35514 0.34278 0.0
H358 H 0.43259 0.34215 0.22861 0.0
H359 H 0.35188 0.28338 0.16982 0.0
Mn360 Mn 0.65243 0.61051 0.41342 0.0
Mn361 Mn 0.57969 0.69072 0.2618 0.0
C362 C 0.55103 0.62241 0.41772 0.0
C363 C 0.68519 0.52732 0.48842 0.0
C364 C 0.63199 0.73702 0.41138 0.0
O365 O 0.71512 0.60737 0.32369 0.0
O366 O 0.67657 0.681 0.25456 0.0
C367 C 0.62971 0.59745 0.1073 0.0
N368 N 0.5856 0.64165 0.14538 0.0
C369 C 0.49098 0.6381 0.99238 0.0
C370 C 0.54388 0.59132 0.96111 0.0
C371 C 0.60929 0.57254 1.01492 0.0
C372 C 0.50165 0.66838 0.0816 0.0
H373 H 0.67086 0.58439 0.13713 0.0
C374 C 0.71765 0.64224 0.26355 0.0
O375 O 0.70786 0.57619 0.50039 0.0
O376 O 0.64675 0.52622 0.42968 0.0
N377 N 0.4577 0.72869 0.18887 0.0
C378 C 0.4135 0.76665 0.20584 0.0
C379 C 0.36464 0.77737 0.15429 0.0
C380 C 0.35908 0.75148 0.08209 0.0
C381 C 0.40299 0.71478 0.05839 0.0
C382 C 0.45235 0.70458 0.11051 0.0
H383 H 0.41054 0.78503 0.2625 0.0
O384 O 0.58279 0.6134 0.4819 0.0
O385 O 0.57717 0.62435 0.34508 0.0
O386 O 0.66949 0.69723 0.42315 0.0
O387 O 0.58492 0.73074 0.3666 0.0
C388 C 0.39699 0.6896 0.98317 0.0
C389 C 0.43846 0.65249 0.9514 0.0
H390 H 0.5368 0.57357 0.9036 0.0
H391 H 0.6422 0.54818 0.98558 0.0
H392 H 0.3298 0.80545 0.17158 0.0
H393 H 0.32012 0.7606 0.04437 0.0
H394 H 0.35745 0.69909 0.94668 0.0
H395 H 0.42905 0.635 0.89422 0.0
Mn396 Mn 0.13779 0.89999 0.13569 0.0
Mn397 Mn 0.06536 0.84012 0.30791 0.0
C398 C 0.03449 0.88631 0.13475 0.0
C399 C 0.16845 0.97984 0.05548 0.0
C400 C 0.13464 0.77729 0.18828 0.0
O401 O 0.20002 0.91185 0.2194 0.0
O402 O 0.14818 0.87371 0.33008 0.0
C403 C 0.04139 0.93301 0.49101 0.0
N404 N 0.02378 0.88941 0.42247 0.0
C405 C 0.8791 0.87345 0.48488 0.0
C406 C 0.90304 0.92222 0.55491 0.0
C407 C 0.98049 0.951 0.55894 0.0
C408 C 0.92955 0.85336 0.41773 0.0
H409 H 0.08839 0.94722 0.498 0.0
C410 C 0.19525 0.89861 0.29423 0.0
O411 O 0.19266 0.93257 0.04396 0.0
O412 O 0.13018 0.98105 0.11511 0.0
N413 N 0.96922 0.79375 0.27554 0.0
C414 C 0.94991 0.76127 0.21261 0.0
C415 C 0.8839 0.74665 0.21791 0.0
C416 C 0.8363 0.76703 0.27387 0.0
C417 C 0.85042 0.79734 0.34472 0.0
C418 C 0.91109 0.81623 0.34694 0.0
H419 H 0.98172 0.74444 0.17073 0.0
O420 O 0.06817 0.88742 0.07033 0.0
O421 O 0.06239 0.89148 0.20446 0.0
O422 O 0.15609 0.81553 0.13838 0.0
O423 O 0.10103 0.78639 0.24685 0.0
C424 C 0.81199 0.80425 0.41454 0.0
C425 C 0.82394 0.84173 0.47915 0.0
H426 H 0.87034 0.93332 0.6002 0.0
H427 H 0.99194 0.9753 0.60935 0.0
H428 H 0.8723 0.71127 0.19131 0.0
H429 H 0.79007 0.75022 0.26966 0.0
H430 H 0.7693 0.78095 0.41754 0.0
H431 H 0.78887 0.84542 0.52448 0.0
Mn432 Mn 0.87683 0.64932 0.12755 0.0
Mn433 Mn 0.95101 0.68101 0.95155 0.0
C434 C 0.85049 0.73316 0.04647 0.0
C435 C 0.77503 0.64033 0.20861 0.0
C436 C 0.02148 0.6374 0.09138 0.0
O437 O 0.85249 0.58741 0.05358 0.0
O438 O 0.93038 0.59895 0.96599 0.0
C439 C 0.85419 0.65243 0.83744 0.0
N440 N 0.8908 0.69182 0.86966 0.0
C441 C 0.87687 0.75403 0.75344 0.0
C442 C 0.83976 0.71384 0.71913 0.0
C443 C 0.82799 0.66297 0.76168 0.0
C444 C 0.90201 0.74122 0.82927 0.0
H445 H 0.84684 0.61218 0.86726 0.0
C446 C 0.88871 0.56813 1.00207 0.0
O447 O 0.82276 0.61094 0.22357 0.0
O448 O 0.783 0.67084 0.14311 0.0
N449 N 0.9757 0.75633 0.92627 0.0
C450 C 0.02505 0.78457 0.95463 0.0
C451 C 0.04414 0.83534 0.916 0.0
C452 C 1.01165 0.85727 0.85013 0.0
C453 C 0.96232 0.82676 0.82057 0.0
C454 C 0.94557 0.77601 0.86066 0.0
H455 H 0.05128 0.76742 1.00421 0.0
O456 O 0.80902 0.70328 0.08619 0.0
O457 O 0.9009 0.70698 0.0417 0.0
O458 O 0.97241 0.61886 0.13354 0.0
O459 O 1.01593 0.67114 0.03027 0.0
C460 C 0.93263 0.84278 0.74893 0.0
C461 C 0.89167 0.80559 0.71372 0.0
H462 H 0.81995 0.72166 0.66026 0.0
H463 H 0.79951 0.63159 0.73556 0.0
H464 H 0.08528 0.85664 0.93462 0.0
H465 H 0.02721 0.89605 0.81987 0.0
H466 H 0.94337 0.88265 0.7186 0.0
H467 H 0.87172 0.81696 0.65603 0.0
Mn468 Mn 0.15696 0.11658 0.93653 0.0
Mn469 Mn 0.117 0.19739 0.76595 0.0
C470 C 0.05698 0.13413 0.89974 0.0
C471 C 0.17708 0.02968 1.00085 0.0
C472 C 0.171 0.23645 0.92485 0.0
O473 O 0.23192 0.11772 0.86053 0.0
O474 O 0.18113 0.13829 0.74326 0.0
C475 C 0.0642 0.0943 0.69595 0.0
N476 N 0.0388 0.15474 0.69908 0.0
C477 C 1.01571 0.1974 0.50896 0.0
C478 C 0.04884 0.14313 0.48315 0.0
C479 C 0.07961 0.0715 0.60464 0.0
C480 C 1.01421 0.21193 0.60577 0.0
H481 H 0.07844 0.07125 0.74967 0.0
C482 C 0.2253 0.11538 0.78357 0.0
O483 O 0.19504 0.07561 0.02993 0.0
O484 O 0.15004 0.0337 0.93163 0.0
N485 N 0.09729 0.29085 0.62593 0.0
C486 C 0.13473 0.33312 0.59119 0.0
C487 C 0.12441 0.35464 0.51419 0.0
C488 C 0.06992 0.34261 0.477 0.0
C489 C 0.02696 0.30471 0.51297 0.0
C490 C 0.04265 0.27289 0.58492 0.0
H491 H 0.17605 0.34835 0.61839 0.0
O492 O 0.07003 0.11636 0.97298 0.0
O493 O 0.10245 0.14071 0.8508 0.0
O494 O 0.16768 0.19626 0.97639 0.0
O495 O 0.17927 0.22551 0.85008 0.0
C496 C 0.98301 0.28467 0.46174 0.0
C497 C 0.98507 0.2292 0.45149 0.0
H498 H 0.05149 0.13997 0.41772 0.0
H499 H 0.10042 0.03099 0.60408 0.0
H500 H 0.15754 0.38351 0.48464 0.0
H501 H 0.06276 0.36148 0.41714 0.0
H502 H 0.96632 0.31069 0.41194 0.0
H503 H 0.9726 0.21325 0.3942 0.0
Mn504 Mn 0.66744 0.3971 0.63997 0.0
Mn505 Mn 0.61319 0.33842 0.82489 0.0
C506 C 0.56477 0.37566 0.65192 0.0
C507 C 0.68814 0.47948 0.55093 0.0
C508 C 0.66715 0.27351 0.69697 0.0
O509 O 0.73755 0.41128 0.71645 0.0
O510 O 0.69577 0.37682 0.83497 0.0
C511 C 0.59945 0.44446 0.98978 0.0
N512 N 0.57851 0.39405 0.93483 0.0
C513 C 0.44261 0.37542 1.02472 0.0
C514 C 0.47038 0.4312 0.08041 0.0
C515 C 0.54588 0.46382 0.06472 0.0
C516 C 0.48778 0.35176 0.95395 0.0
H517 H 0.64634 0.45991 0.98673 0.0
C518 C 0.7395 0.40153 0.79279 0.0
O519 O 0.71275 0.43248 0.53866 0.0
O520 O 0.65604 0.47951 0.61668 0.0
N521 N 0.51751 0.28183 0.81885 0.0
C522 C 0.49508 0.2409 0.76931 0.0
C523 C 0.43446 0.21694 0.79389 0.0
C524 C 0.39056 0.24037 0.8533 0.0
C525 C 0.40632 0.28379 0.90766 0.0
C526 C 0.4656 0.3068 0.89608 0.0
H527 H 0.52386 0.22379 0.72419 0.0
O528 O 0.59378 0.38136 0.58364 0.0
O529 O 0.5968 0.3848 0.71786 0.0
O530 O 0.68322 0.31131 0.64218 0.0
O531 O 0.64497 0.28351 0.76353 0.0
C532 C 0.36902 0.30247 0.97316 0.0
C533 C 0.38518 0.34626 0.02721 0.0
H534 H 0.44188 0.44457 0.1289 0.0
H535 H 0.56442 0.48715 0.11243 0.0
H536 H 0.42431 0.1762 0.77557 0.0
H537 H 0.34659 0.21895 0.86301 0.0
H538 H 0.32395 0.28303 0.98207 0.0
H539 H 0.35117 0.35766 0.07069 0.0
Mn540 Mn 0.3387 0.88255 0.40958 0.0
Mn541 Mn 0.37065 0.84878 0.59722 0.0
C542 C 0.3516 0.78921 0.4411 0.0
C543 C 0.25085 0.90196 0.33992 0.0
C544 C 0.46981 0.87303 0.472 0.0
O545 O 0.33889 0.95754 0.45537 0.0
O546 O 0.36855 0.93166 0.57854 0.0
C547 C 0.2471 0.8836 0.64489 0.0
N548 N 0.28896 0.84321 0.6414 0.0
C549 C 0.21531 0.77441 0.69534 0.0
C550 C 0.1716 0.81534 0.70006 0.0
C551 C 0.18758 0.87018 0.67463 0.0
C552 C 0.27384 0.7903 0.66496 0.0
H553 H 0.25883 0.9257 0.62456 0.0
C554 C 0.35759 0.96922 0.52364 0.0
O555 O 0.30422 0.91727 0.30832 0.0
O556 O 0.2495 0.87872 0.41084 0.0
N557 N 0.37385 0.77158 0.62753 0.0
C558 C 0.42289 0.73848 0.62695 0.0
C559 C 0.41529 0.6825 0.65326 0.0
C560 C 0.35768 0.66147 0.6809 0.0
C561 C 0.30848 0.69697 0.68445 0.0
C562 C 0.31894 0.75239 0.65817 0.0
H563 H 0.46692 0.75512 0.60608 0.0
O564 O 0.34022 0.80707 0.36906 0.0
O565 O 0.34346 0.82644 0.49449 0.0
O566 O 0.43525 0.88812 0.41178 0.0
O567 O 0.44991 0.85464 0.54269 0.0
C568 C 0.24983 0.67982 0.71457 0.0
C569 C 0.20314 0.71848 0.71959 0.0
H570 H 0.12568 0.80515 0.72305 0.0
H571 H 0.15402 0.90198 0.67759 0.0
H572 H 0.4534 0.65538 0.65272 0.0
H573 H 0.35212 0.61827 0.70084 0.0
H574 H 0.24025 0.63707 0.73451 0.0
H575 H 0.15824 0.70488 0.7429 0.0
loop_
_geom_bond_atom_site_label_1
_geom_bond_atom_site_label_2
_geom_bond_distance
_geom_bond_site_symmetry_2
_ccdc_geom_bond_type
Mn0 O5 2.095 . S
Mn0 O15 2.162 1_554 S
Mn0 O16 2.297 . S
Mn0 O24 2.385 . S
Mn0 O25 2.209 . S
Mn0 O26 2.094 . S
Mn1 O6 2.121 . S
Mn1 N8 2.257 . S
Mn1 N17 2.282 . S
Mn1 O25 2.215 . S
Mn1 O27 2.117 . S
C2 O24 1.234 . S
C2 O25 1.283 . S
C3 O15 1.281 1_554 S
C3 O16 1.236 . S
C4 O26 1.240 . S
C4 O27 1.264 . S
O5 Mn0 2.095 . S
O5 C14 1.250 . S
O6 Mn1 2.121 . S
O6 C14 1.258 . S
C7 N8 1.326 . S
C7 C11 1.460 . S
C7 H13 0.929 . S
N8 Mn1 2.257 . S
N8 C7 1.326 . S
N8 C12 1.362 . S
C9 C10 1.258 . S
C9 C12 1.431 1_655 S
C9 C29 1.449 . S
C10 C9 1.258 . S
C10 C11 1.477 1_655 S
C10 H30 0.931 . S
C11 C7 1.460 . S
C11 C10 1.477 1_455 S
C11 H31 0.930 . S
C12 N8 1.362 . S
C12 C9 1.431 1_455 S
C12 C22 1.476 1_455 S
H13 C7 0.929 . S
C14 O5 1.250 . S
C14 O6 1.258 . S
O15 Mn0 2.162 1_556 S
O15 C3 1.281 1_556 S
O16 Mn0 2.297 . S
O16 C3 1.236 . S
N17 Mn1 2.282 . S
N17 C18 1.328 . S
N17 C22 1.318 1_455 S
C18 N17 1.328 . S
C18 C19 1.457 1_455 S
C18 H23 0.929 . S
C19 C18 1.457 1_655 S
C19 C20 1.291 . S
C19 H32 0.931 . S
C20 C19 1.291 . S
C20 C21 1.373 . S
C20 H33 0.929 . S
C21 C20 1.373 . S
C21 C22 1.396 . S
C21 C28 1.403 . S
C22 C12 1.476 1_655 S
C22 N17 1.318 1_655 S
C22 C21 1.396 . S
H23 C18 0.929 . S
O24 Mn0 2.385 . S
O24 C2 1.234 . S
O25 Mn0 2.209 . S
O25 Mn1 2.215 . S
O25 C2 1.283 . S
O26 Mn0 2.094 . S
O26 C4 1.240 . S
O27 Mn1 2.117 . S
O27 C4 1.264 . S
C28 C21 1.403 . S
C28 C29 1.399 . S
C28 H34 0.929 . S
C29 C9 1.449 . S
C29 C28 1.399 . S
C29 H35 0.930 . S
H30 C10 0.931 . S
H31 C11 0.930 . S
H32 C19 0.931 . S
H33 C20 0.929 . S
H34 C28 0.929 . S
H35 C29 0.930 . S
Mn36 O41 2.095 . S
Mn36 O51 2.162 . S
Mn36 O52 2.297 . S
Mn36 O60 2.385 . S
Mn36 O61 2.209 . S
Mn36 O62 2.094 . S
Mn37 O42 2.121 . S
Mn37 N44 2.257 . S
Mn37 N53 2.282 . S
Mn37 O61 2.215 . S
Mn37 O63 2.117 . S
C38 O60 1.234 . S
C38 O61 1.283 . S
C39 O51 1.281 . S
C39 O52 1.236 . S
C40 O62 1.240 . S
C40 O63 1.264 . S
O41 Mn36 2.095 . S
O41 C50 1.250 . S
O42 Mn37 2.121 . S
O42 C50 1.258 . S
C43 N44 1.326 . S
C43 C47 1.460 . S
C43 H49 0.929 . S
N44 Mn37 2.257 . S
N44 C43 1.326 . S
N44 C48 1.362 . S
C45 C46 1.258 . S
C45 C48 1.431 . S
C45 C65 1.449 . S
C46 C45 1.258 . S
C46 C47 1.477 . S
C46 H66 0.931 . S
C47 C43 1.460 . S
C47 C46 1.477 . S
C47 H67 0.930 . S
C48 N44 1.362 . S
C48 C45 1.431 . S
C48 C58 1.476 . S
H49 C43 0.929 . S
C50 O41 1.250 . S
C50 O42 1.258 . S
O51 Mn36 2.162 . S
O51 C39 1.281 . S
O52 Mn36 2.297 . S
O52 C39 1.236 . S
N53 Mn37 2.282 . S
N53 C54 1.328 . S
N53 C58 1.318 . S
C54 N53 1.328 . S
C54 C55 1.457 . S
C54 H59 0.929 . S
C55 C54 1.457 . S
C55 C56 1.291 . S
C55 H68 0.931 . S
C56 C55 1.291 . S
C56 C57 1.373 . S
C56 H69 0.929 . S
C57 C56 1.373 . S
C57 C58 1.396 . S
C57 C64 1.403 . S
C58 C48 1.476 . S
C58 N53 1.318 . S
C58 C57 1.396 . S
H59 C54 0.929 . S
O60 Mn36 2.385 . S
O60 C38 1.234 . S
O61 Mn36 2.209 . S
O61 Mn37 2.215 . S
O61 C38 1.283 . S
O62 Mn36 2.094 . S
O62 C40 1.240 . S
O63 Mn37 2.117 . S
O63 C40 1.264 . S
C64 C57 1.403 . S
C64 C65 1.399 . S
C64 H70 0.929 . S
C65 C45 1.449 . S
C65 C64 1.399 . S
C65 H71 0.930 . S
H66 C46 0.931 . S
H67 C47 0.930 . S
H68 C55 0.931 . S
H69 C56 0.929 . S
H70 C64 0.929 . S
H71 C65 0.930 . S
Mn72 O77 2.095 . S
Mn72 O87 2.162 . S
Mn72 O88 2.297 . S
Mn72 O96 2.385 . S
Mn72 O97 2.209 . S
Mn72 O98 2.094 . S
Mn73 O78 2.121 . S
Mn73 N80 2.257 . S
Mn73 N89 2.282 . S
Mn73 O97 2.215 . S
Mn73 O99 2.117 . S
C74 O96 1.234 . S
C74 O97 1.283 . S
C75 O87 1.281 . S
C75 O88 1.236 . S
C76 O98 1.240 . S
C76 O99 1.264 . S
O77 Mn72 2.095 . S
O77 C86 1.250 . S
O78 Mn73 2.121 . S
O78 C86 1.258 . S
C79 N80 1.326 . S
C79 C83 1.460 . S
C79 H85 0.929 . S
N80 Mn73 2.257 . S
N80 C79 1.326 . S
N80 C84 1.362 . S
C81 C82 1.258 . S
C81 C84 1.431 . S
C81 C101 1.449 . S
C82 C81 1.258 . S
C82 C83 1.477 . S
C82 H102 0.931 1_556 S
C83 C79 1.460 . S
C83 C82 1.477 . S
C83 H103 0.930 1_556 S
C84 N80 1.362 . S
C84 C81 1.431 . S
C84 C94 1.476 . S
H85 C79 0.929 . S
C86 O77 1.250 . S
C86 O78 1.258 . S
O87 Mn72 2.162 . S
O87 C75 1.281 . S
O88 Mn72 2.297 . S
O88 C75 1.236 . S
N89 Mn73 2.282 . S
N89 C90 1.328 . S
N89 C94 1.318 . S
C90 N89 1.328 . S
C90 C91 1.457 . S
C90 H95 0.929 . S
C91 C90 1.457 . S
C91 C92 1.291 . S
C91 H104 0.931 . S
C92 C91 1.291 . S
C92 C93 1.373 . S
C92 H105 0.929 . S
C93 C92 1.373 . S
C93 C94 1.396 . S
C93 C100 1.403 . S
C94 C84 1.476 . S
C94 N89 1.318 . S
C94 C93 1.396 . S
H95 C90 0.929 . S
O96 Mn72 2.385 . S
O96 C74 1.234 . S
O97 Mn72 2.209 . S
O97 Mn73 2.215 . S
O97 C74 1.283 . S
O98 Mn72 2.094 . S
O98 C76 1.240 . S
O99 Mn73 2.117 . S
O99 C76 1.264 . S
C100 C93 1.403 . S
C100 C101 1.399 . S
C100 H106 0.929 . S
C101 C81 1.449 . S
C101 C100 1.399 . S
C101 H107 0.930 . S
H102 C82 0.931 1_554 S
H103 C83 0.930 1_554 S
H104 C91 0.931 . S
H105 C92 0.929 . S
H106 C100 0.929 . S
H107 C101 0.930 . S
Mn108 O113 2.095 . S
Mn108 O123 2.162 . S
Mn108 O124 2.297 . S
Mn108 O132 2.385 . S
Mn108 O133 2.209 . S
Mn108 O134 2.094 . S
Mn109 O114 2.121 . S
Mn109 N116 2.257 . S
Mn109 N125 2.282 . S
Mn109 O133 2.215 . S
Mn109 O135 2.117 . S
C110 O132 1.234 . S
C110 O133 1.283 . S
C111 O123 1.281 . S
C111 O124 1.236 . S
C112 O134 1.240 . S
C112 O135 1.264 . S
O113 Mn108 2.095 . S
O113 C122 1.250 . S
O114 Mn109 2.121 . S
O114 C122 1.258 . S
C115 N116 1.326 . S
C115 C119 1.460 . S
C115 H121 0.929 . S
N116 Mn109 2.257 . S
N116 C115 1.326 . S
N116 C120 1.362 1_655 S
C117 C118 1.258 . S
C117 C120 1.431 . S
C117 C137 1.449 . S
C118 C117 1.258 . S
C118 C119 1.477 1_455 S
C118 H138 0.931 . S
C119 C115 1.460 . S
C119 C118 1.477 1_655 S
C119 H139 0.930 . S
C120 N116 1.362 1_455 S
C120 C117 1.431 . S
C120 C130 1.476 . S
H121 C115 0.929 . S
C122 O113 1.250 . S
C122 O114 1.258 . S
O123 Mn108 2.162 . S
O123 C111 1.281 . S
O124 Mn108 2.297 . S
O124 C111 1.236 . S
N125 Mn109 2.282 . S
N125 C126 1.328 1_655 S
N125 C130 1.318 1_655 S
C126 N125 1.328 1_455 S
C126 C127 1.457 . S
C126 H131 0.929 1_455 S
C127 C126 1.457 . S
C127 C128 1.291 . S
C127 H140 0.931 . S
C128 C127 1.291 . S
C128 C129 1.373 . S
C128 H141 0.929 . S
C129 C128 1.373 . S
C129 C130 1.396 . S
C129 C136 1.403 . S
C130 C120 1.476 . S
C130 N125 1.318 1_455 S
C130 C129 1.396 . S
H131 C126 0.929 1_655 S
O132 Mn108 2.385 . S
O132 C110 1.234 . S
O133 Mn108 2.209 . S
O133 Mn109 2.215 . S
O133 C110 1.283 . S
O134 Mn108 2.094 . S
O134 C112 1.240 . S
O135 Mn109 2.117 . S
O135 C112 1.264 . S
C136 C129 1.403 . S
C136 C137 1.399 . S
C136 H142 0.929 . S
C137 C117 1.449 . S
C137 C136 1.399 . S
C137 H143 0.930 . S
H138 C118 0.931 . S
H139 C119 0.930 . S
H140 C127 0.931 . S
H141 C128 0.929 . S
H142 C136 0.929 . S
H143 C137 0.930 . S
Mn144 O149 2.095 . S
Mn144 O159 2.162 . S
Mn144 O160 2.297 . S
Mn144 O168 2.385 . S
Mn144 O169 2.209 . S
Mn144 O170 2.094 . S
Mn145 O150 2.121 . S
Mn145 N152 2.257 . S
Mn145 N161 2.282 . S
Mn145 O169 2.215 1_554 S
Mn145 O171 2.117 1_554 S
C146 O168 1.234 . S
C146 O169 1.283 . S
C147 O159 1.281 . S
C147 O160 1.236 . S
C148 O170 1.240 . S
C148 O171 1.264 . S
O149 Mn144 2.095 . S
O149 C158 1.250 . S
O150 Mn145 2.121 . S
O150 C158 1.258 1_554 S
C151 N152 1.326 . S
C151 C155 1.460 . S
C151 H157 0.929 . S
N152 Mn145 2.257 . S
N152 C151 1.326 . S
N152 C156 1.362 . S
C153 C154 1.258 . S
C153 C156 1.431 . S
C153 C173 1.449 . S
C154 C153 1.258 . S
C154 C155 1.477 . S
C154 H174 0.931 . S
C155 C151 1.460 . S
C155 C154 1.477 . S
C155 H175 0.930 . S
C156 N152 1.362 . S
C156 C153 1.431 . S
C156 C166 1.476 . S
H157 C151 0.929 . S
C158 O149 1.250 . S
C158 O150 1.258 1_556 S
O159 Mn144 2.162 . S
O159 C147 1.281 . S
O160 Mn144 2.297 . S
O160 C147 1.236 . S
N161 Mn145 2.282 . S
N161 C162 1.318 1_454 S
N161 C166 1.318 . S
C162 N161 1.318 1_656 S
C162 C163 1.462 . S
C162 H167 0.934 . S
C163 C162 1.462 . S
C163 C164 1.291 1_556 S
C163 H176 0.931 . S
C164 C163 1.291 1_554 S
C164 C165 1.373 1_655 S
C164 H177 0.929 . S
C165 C164 1.373 1_455 S
C165 C166 1.396 . S
C165 C172 1.403 . S
C166 C156 1.476 . S
C166 N161 1.318 . S
C166 C165 1.396 . S
H167 C162 0.934 . S
O168 Mn144 2.385 . S
O168 C146 1.234 . S
O169 Mn144 2.209 . S
O169 Mn145 2.215 1_556 S
O169 C146 1.283 . S
O170 Mn144 2.094 . S
O170 C148 1.240 . S
O171 Mn145 2.117 1_556 S
O171 C148 1.264 . S
C172 C165 1.403 . S
C172 C173 1.399 . S
C172 H178 0.929 . S
C173 C153 1.449 . S
C173 C172 1.399 . S
C173 H179 0.930 . S
H174 C154 0.931 . S
H175 C155 0.930 . S
H176 C163 0.931 . S
H177 C164 0.929 . S
H178 C172 0.929 . S
H179 C173 0.930 . S
Mn180 O185 2.095 . S
Mn180 O195 2.162 1_554 S
Mn180 O196 2.297 . S
Mn180 O204 2.385 . S
Mn180 O205 2.209 . S
Mn180 O206 2.094 . S
Mn181 O186 2.121 . S
Mn181 N188 2.257 . S
Mn181 N197 2.282 . S
Mn181 O205 2.215 . S
Mn181 O207 2.117 . S
C182 O204 1.234 . S
C182 O205 1.283 . S
C183 O195 1.281 1_554 S
C183 O196 1.236 . S
C184 O206 1.240 . S
C184 O207 1.264 . S
O185 Mn180 2.095 . S
O185 C194 1.250 . S
O186 Mn181 2.121 . S
O186 C194 1.258 . S
C187 N188 1.326 . S
C187 C191 1.460 . S
C187 H193 0.929 . S
N188 Mn181 2.257 . S
N188 C187 1.326 . S
N188 C192 1.362 1_655 S
C189 C190 1.258 . S
C189 C192 1.431 . S
C189 C209 1.449 . S
C190 C189 1.258 . S
C190 C191 1.477 1_455 S
C190 H210 0.931 . S
C191 C187 1.460 . S
C191 C190 1.477 1_655 S
C191 H211 0.930 . S
C192 N188 1.362 1_455 S
C192 C189 1.431 . S
C192 C202 1.476 . S
H193 C187 0.929 . S
C194 O185 1.250 . S
C194 O186 1.258 . S
O195 Mn180 2.162 1_556 S
O195 C183 1.281 1_556 S
O196 Mn180 2.297 . S
O196 C183 1.236 . S
N197 Mn181 2.282 . S
N197 C198 1.328 1_655 S
N197 C202 1.318 1_655 S
C198 N197 1.328 1_455 S
C198 C199 1.457 . S
C198 H203 0.929 1_455 S
C199 C198 1.457 . S
C199 C200 1.291 . S
C199 H212 0.931 . S
C200 C199 1.291 . S
C200 C201 1.373 . S
C200 H213 0.929 . S
C201 C200 1.373 . S
C201 C202 1.396 . S
C201 C208 1.403 . S
C202 C192 1.476 . S
C202 N197 1.318 1_455 S
C202 C201 1.396 . S
H203 C198 0.929 1_655 S
O204 Mn180 2.385 . S
O204 C182 1.234 . S
O205 Mn180 2.209 . S
O205 Mn181 2.215 . S
O205 C182 1.283 . S
O206 Mn180 2.094 . S
O206 C184 1.240 . S
O207 Mn181 2.117 . S
O207 C184 1.264 . S
C208 C201 1.403 . S
C208 C209 1.399 . S
C208 H214 0.929 . S
C209 C189 1.449 . S
C209 C208 1.399 . S
C209 H215 0.930 . S
H210 C190 0.931 . S
H211 C191 0.930 . S
H212 C199 0.931 . S
H213 C200 0.929 . S
H214 C208 0.929 . S
H215 C209 0.930 . S
Mn216 O221 2.095 . S
Mn216 O231 2.162 . S
Mn216 O232 2.297 . S
Mn216 O240 2.385 . S
Mn216 O241 2.209 . S
Mn216 O242 2.094 . S
Mn217 O222 2.121 . S
Mn217 N224 2.257 . S
Mn217 N233 2.282 . S
Mn217 O241 2.215 . S
Mn217 O243 2.117 . S
C218 O240 1.234 . S
C218 O241 1.283 . S
C219 O231 1.281 . S
C219 O232 1.236 . S
C220 O242 1.240 . S
C220 O243 1.264 . S
O221 Mn216 2.095 . S
O221 C230 1.250 . S
O222 Mn217 2.121 . S
O222 C230 1.258 . S
C223 N224 1.326 . S
C223 C227 1.460 . S
C223 H229 0.929 . S
N224 Mn217 2.257 . S
N224 C223 1.326 . S
N224 C228 1.362 . S
C225 C226 1.258 . S
C225 C228 1.431 . S
C225 C245 1.449 . S
C226 C225 1.258 . S
C226 C227 1.477 . S
C226 H246 0.931 1_554 S
C227 C223 1.460 . S
C227 C226 1.477 . S
C227 H247 0.930 1_554 S
C228 N224 1.362 . S
C228 C225 1.431 . S
C228 C238 1.476 . S
H229 C223 0.929 . S
C230 O221 1.250 . S
C230 O222 1.258 . S
O231 Mn216 2.162 . S
O231 C219 1.281 . S
O232 Mn216 2.297 . S
O232 C219 1.236 . S
N233 Mn217 2.282 . S
N233 C234 1.328 . S
N233 C238 1.318 . S
C234 N233 1.328 . S
C234 C235 1.457 . S
C234 H239 0.929 . S
C235 C234 1.457 . S
C235 C236 1.291 . S
C235 H248 0.931 . S
C236 C235 1.291 . S
C236 C237 1.373 . S
C236 H249 0.929 . S
C237 C236 1.373 . S
C237 C238 1.396 . S
C237 C244 1.403 . S
C238 C228 1.476 . S
C238 N233 1.318 . S
C238 C237 1.396 . S
H239 C234 0.929 . S
O240 Mn216 2.385 . S
O240 C218 1.234 . S
O241 Mn216 2.209 . S
O241 Mn217 2.215 . S
O241 C218 1.283 . S
O242 Mn216 2.094 . S
O242 C220 1.240 . S
O243 Mn217 2.117 . S
O243 C220 1.264 . S
C244 C237 1.403 . S
C244 C245 1.399 . S
C244 H250 0.929 . S
C245 C225 1.449 . S
C245 C244 1.399 . S
C245 H251 0.930 . S
H246 C226 0.931 1_556 S
H247 C227 0.930 1_556 S
H248 C235 0.931 . S
H249 C236 0.929 . S
H250 C244 0.929 . S
H251 C245 0.930 . S
Mn252 O257 2.095 . S
Mn252 O267 2.162 . S
Mn252 O268 2.297 . S
Mn252 O276 2.385 . S
Mn252 O277 2.209 . S
Mn252 O278 2.094 . S
Mn253 O258 2.121 . S
Mn253 N260 2.257 . S
Mn253 N269 2.282 . S
Mn253 O277 2.215 . S
Mn253 O279 2.117 . S
C254 O276 1.234 . S
C254 O277 1.283 . S
C255 O267 1.281 . S
C255 O268 1.236 . S
C256 O278 1.240 . S
C256 O279 1.264 . S
O257 Mn252 2.095 . S
O257 C266 1.250 . S
O258 Mn253 2.121 . S
O258 C266 1.258 . S
C259 N260 1.326 . S
C259 C263 1.460 . S
C259 H265 0.929 . S
N260 Mn253 2.257 . S
N260 C259 1.326 . S
N260 C264 1.362 . S
C261 C262 1.258 . S
C261 C264 1.431 . S
C261 C281 1.449 . S
C262 C261 1.258 . S
C262 C263 1.477 . S
C262 H282 0.931 1_556 S
C263 C259 1.460 . S
C263 C262 1.477 . S
C263 H283 0.930 1_556 S
C264 N260 1.362 . S
C264 C261 1.431 . S
C264 C274 1.476 . S
H265 C259 0.929 . S
C266 O257 1.250 . S
C266 O258 1.258 . S
O267 Mn252 2.162 . S
O267 C255 1.281 . S
O268 Mn252 2.297 . S
O268 C255 1.236 . S
N269 Mn253 2.282 . S
N269 C270 1.328 . S
N269 C274 1.318 . S
C270 N269 1.328 . S
C270 C271 1.457 . S
C270 H275 0.929 . S
C271 C270 1.457 . S
C271 C272 1.291 . S
C271 H284 0.931 . S
C272 C271 1.291 . S
C272 C273 1.373 . S
C272 H285 0.929 . S
C273 C272 1.373 . S
C273 C274 1.396 . S
C273 C280 1.403 . S
C274 C264 1.476 . S
C274 N269 1.318 . S
C274 C273 1.396 . S
H275 C270 0.929 . S
O276 Mn252 2.385 . S
O276 C254 1.234 . S
O277 Mn252 2.209 . S
O277 Mn253 2.215 . S
O277 C254 1.283 . S
O278 Mn252 2.094 . S
O278 C256 1.240 . S
O279 Mn253 2.117 . S
O279 C256 1.264 . S
C280 C273 1.403 . S
C280 C281 1.399 . S
C280 H286 0.929 . S
C281 C261 1.449 . S
C281 C280 1.399 . S
C281 H287 0.930 . S
H282 C262 0.931 1_554 S
H283 C263 0.930 1_554 S
H284 C271 0.931 . S
H285 C272 0.929 . S
H286 C280 0.929 . S
H287 C281 0.930 . S
Mn288 O293 2.095 . S
Mn288 O303 2.162 1_556 S
Mn288 O304 2.297 . S
Mn288 O312 2.385 . S
Mn288 O313 2.209 . S
Mn288 O314 2.094 . S
Mn289 O294 2.121 . S
Mn289 N296 2.257 . S
Mn289 N305 2.282 . S
Mn289 O313 2.215 . S
Mn289 O315 2.117 . S
C290 O312 1.234 . S
C290 O313 1.283 . S
C291 O303 1.281 1_556 S
C291 O304 1.236 . S
C292 O314 1.240 . S
C292 O315 1.264 . S
O293 Mn288 2.095 . S
O293 C302 1.250 . S
O294 Mn289 2.121 . S
O294 C302 1.258 . S
C295 N296 1.326 . S
C295 C299 1.460 . S
C295 H301 0.929 . S
N296 Mn289 2.257 . S
N296 C295 1.326 . S
N296 C300 1.362 . S
C297 C298 1.258 . S
C297 C300 1.431 1_455 S
C297 C317 1.449 . S
C298 C297 1.258 . S
C298 C299 1.477 1_455 S
C298 H318 0.931 . S
C299 C295 1.460 . S
C299 C298 1.477 1_655 S
C299 H319 0.930 . S
C300 N296 1.362 . S
C300 C297 1.431 1_655 S
C300 C310 1.476 1_655 S
H301 C295 0.929 . S
C302 O293 1.250 . S
C302 O294 1.258 . S
O303 Mn288 2.162 1_554 S
O303 C291 1.281 1_554 S
O304 Mn288 2.297 . S
O304 C291 1.236 . S
N305 Mn289 2.282 . S
N305 C306 1.328 . S
N305 C310 1.318 1_655 S
C306 N305 1.328 . S
C306 C307 1.457 1_655 S
C306 H311 0.929 . S
C307 C306 1.457 1_455 S
C307 C308 1.291 . S
C307 H320 0.931 . S
C308 C307 1.291 . S
C308 C309 1.373 . S
C308 H321 0.929 . S
C309 C308 1.373 . S
C309 C310 1.396 . S
C309 C316 1.403 . S
C310 C300 1.476 1_455 S
C310 N305 1.318 1_455 S
C310 C309 1.396 . S
H311 C306 0.929 . S
O312 Mn288 2.385 . S
O312 C290 1.234 . S
O313 Mn288 2.209 . S
O313 Mn289 2.215 . S
O313 C290 1.283 . S
O314 Mn288 2.094 . S
O314 C292 1.240 . S
O315 Mn289 2.117 . S
O315 C292 1.264 . S
C316 C309 1.403 . S
C316 C317 1.399 . S
C316 H322 0.929 . S
C317 C297 1.449 . S
C317 C316 1.399 . S
C317 H323 0.930 . S
H318 C298 0.931 . S
H319 C299 0.930 . S
H320 C307 0.931 . S
H321 C308 0.929 . S
H322 C316 0.929 . S
H323 C317 0.930 . S
Mn324 O329 2.095 . S
Mn324 O339 2.162 . S
Mn324 O340 2.297 . S
Mn324 O348 2.385 . S
Mn324 O349 2.209 . S
Mn324 O350 2.094 . S
Mn325 O330 2.121 . S
Mn325 N332 2.257 . S
Mn325 N341 2.282 . S
Mn325 O349 2.215 . S
Mn325 O351 2.117 . S
C326 O348 1.234 . S
C326 O349 1.283 . S
C327 O339 1.281 . S
C327 O340 1.236 . S
C328 O350 1.240 . S
C328 O351 1.264 . S
O329 Mn324 2.095 . S
O329 C338 1.250 . S
O330 Mn325 2.121 . S
O330 C338 1.258 . S
C331 N332 1.326 . S
C331 C335 1.460 . S
C331 H337 0.929 . S
N332 Mn325 2.257 . S
N332 C331 1.326 . S
N332 C336 1.362 . S
C333 C334 1.258 . S
C333 C336 1.431 . S
C333 C353 1.449 . S
C334 C333 1.258 . S
C334 C335 1.477 . S
C334 H354 0.931 . S
C335 C331 1.460 . S
C335 C334 1.477 . S
C335 H355 0.930 . S
C336 N332 1.362 . S
C336 C333 1.431 . S
C336 C346 1.476 . S
H337 C331 0.929 . S
C338 O329 1.250 . S
C338 O330 1.258 . S
O339 Mn324 2.162 . S
O339 C327 1.281 . S
O340 Mn324 2.297 . S
O340 C327 1.236 . S
N341 Mn325 2.282 . S
N341 C342 1.328 . S
N341 C346 1.318 . S
C342 N341 1.328 . S
C342 C343 1.457 . S
C342 H347 0.929 . S
C343 C342 1.457 . S
C343 C344 1.291 . S
C343 H356 0.931 . S
C344 C343 1.291 . S
C344 C345 1.373 . S
C344 H357 0.929 . S
C345 C344 1.373 . S
C345 C346 1.396 . S
C345 C352 1.403 . S
C346 C336 1.476 . S
C346 N341 1.318 . S
C346 C345 1.396 . S
H347 C342 0.929 . S
O348 Mn324 2.385 . S
O348 C326 1.234 . S
O349 Mn324 2.209 . S
O349 Mn325 2.215 . S
O349 C326 1.283 . S
O350 Mn324 2.094 . S
O350 C328 1.240 . S
O351 Mn325 2.117 . S
O351 C328 1.264 . S
C352 C345 1.403 . S
C352 C353 1.399 . S
C352 H358 0.929 . S
C353 C333 1.449 . S
C353 C352 1.399 . S
C353 H359 0.930 . S
H354 C334 0.931 . S
H355 C335 0.930 . S
H356 C343 0.931 . S
H357 C344 0.929 . S
H358 C352 0.929 . S
H359 C353 0.930 . S
Mn360 O365 2.095 . S
Mn360 O375 2.162 . S
Mn360 O376 2.297 . S
Mn360 O384 2.385 . S
Mn360 O385 2.209 . S
Mn360 O386 2.094 . S
Mn361 O366 2.121 . S
Mn361 N368 2.257 . S
Mn361 N377 2.282 . S
Mn361 O385 2.215 . S
Mn361 O387 2.117 . S
C362 O384 1.234 . S
C362 O385 1.283 . S
C363 O375 1.281 . S
C363 O376 1.236 . S
C364 O386 1.240 . S
C364 O387 1.264 . S
O365 Mn360 2.095 . S
O365 C374 1.250 . S
O366 Mn361 2.121 . S
O366 C374 1.258 . S
C367 N368 1.326 . S
C367 C371 1.460 . S
C367 H373 0.929 . S
N368 Mn361 2.257 . S
N368 C367 1.326 . S
N368 C372 1.362 . S
C369 C370 1.258 . S
C369 C372 1.431 . S
C369 C389 1.449 . S
C370 C369 1.258 . S
C370 C371 1.477 . S
C370 H390 0.931 1_554 S
C371 C367 1.460 . S
C371 C370 1.477 . S
C371 H391 0.930 1_554 S
C372 N368 1.362 . S
C372 C369 1.431 . S
C372 C382 1.476 . S
H373 C367 0.929 . S
C374 O365 1.250 . S
C374 O366 1.258 . S
O375 Mn360 2.162 . S
O375 C363 1.281 . S
O376 Mn360 2.297 . S
O376 C363 1.236 . S
N377 Mn361 2.282 . S
N377 C378 1.328 . S
N377 C382 1.318 . S
C378 N377 1.328 . S
C378 C379 1.457 . S
C378 H383 0.929 . S
C379 C378 1.457 . S
C379 C380 1.291 . S
C379 H392 0.931 . S
C380 C379 1.291 . S
C380 C381 1.373 . S
C380 H393 0.929 . S
C381 C380 1.373 . S
C381 C382 1.396 . S
C381 C388 1.403 . S
C382 C372 1.476 . S
C382 N377 1.318 . S
C382 C381 1.396 . S
H383 C378 0.929 . S
O384 Mn360 2.385 . S
O384 C362 1.234 . S
O385 Mn360 2.209 . S
O385 Mn361 2.215 . S
O385 C362 1.283 . S
O386 Mn360 2.094 . S
O386 C364 1.240 . S
O387 Mn361 2.117 . S
O387 C364 1.264 . S
C388 C381 1.403 . S
C388 C389 1.399 . S
C388 H394 0.929 . S
C389 C369 1.449 . S
C389 C388 1.399 . S
C389 H395 0.930 . S
H390 C370 0.931 1_556 S
H391 C371 0.930 1_556 S
H392 C379 0.931 . S
H393 C380 0.929 . S
H394 C388 0.929 . S
H395 C389 0.930 . S
Mn396 O401 2.095 . S
Mn396 O411 2.162 1_554 S
Mn396 O412 2.297 . S
Mn396 O420 2.385 . S
Mn396 O421 2.209 . S
Mn396 O422 2.094 . S
Mn397 O402 2.121 . S
Mn397 N404 2.257 . S
Mn397 N413 2.282 . S
Mn397 O421 2.215 . S
Mn397 O423 2.117 . S
C398 O420 1.234 . S
C398 O421 1.283 . S
C399 O411 1.281 1_554 S
C399 O412 1.236 . S
C400 O422 1.240 . S
C400 O423 1.264 . S
O401 Mn396 2.095 . S
O401 C410 1.250 . S
O402 Mn397 2.121 . S
O402 C410 1.258 . S
C403 N404 1.326 . S
C403 C407 1.460 . S
C403 H409 0.929 . S
N404 Mn397 2.257 . S
N404 C403 1.326 . S
N404 C408 1.362 1_455 S
C405 C406 1.258 . S
C405 C408 1.431 . S
C405 C425 1.449 . S
C406 C405 1.258 . S
C406 C407 1.477 1_655 S
C406 H426 0.931 . S
C407 C403 1.460 . S
C407 C406 1.477 1_455 S
C407 H427 0.930 . S
C408 N404 1.362 1_655 S
C408 C405 1.431 . S
C408 C418 1.476 . S
H409 C403 0.929 . S
C410 O401 1.250 . S
C410 O402 1.258 . S
O411 Mn396 2.162 1_556 S
O411 C399 1.281 1_556 S
O412 Mn396 2.297 . S
O412 C399 1.236 . S
N413 Mn397 2.282 . S
N413 C414 1.328 1_455 S
N413 C418 1.318 1_455 S
C414 N413 1.328 1_655 S
C414 C415 1.457 . S
C414 H419 0.929 1_655 S
C415 C414 1.457 . S
C415 C416 1.291 . S
C415 H428 0.931 . S
C416 C415 1.291 . S
C416 C417 1.373 . S
C416 H429 0.929 . S
C417 C416 1.373 . S
C417 C418 1.396 . S
C417 C424 1.403 . S
C418 C408 1.476 . S
C418 N413 1.318 1_655 S
C418 C417 1.396 . S
H419 C414 0.929 1_455 S
O420 Mn396 2.385 . S
O420 C398 1.234 . S
O421 Mn396 2.209 . S
O421 Mn397 2.215 . S
O421 C398 1.283 . S
O422 Mn396 2.094 . S
O422 C400 1.240 . S
O423 Mn397 2.117 . S
O423 C400 1.264 . S
C424 C417 1.403 . S
C424 C425 1.399 . S
C424 H430 0.929 . S
C425 C405 1.449 . S
C425 C424 1.399 . S
C425 H431 0.930 . S
H426 C406 0.931 . S
H427 C407 0.930 . S
H428 C415 0.931 . S
H429 C416 0.929 . S
H430 C424 0.929 . S
H431 C425 0.930 . S
Mn432 O437 2.095 . S
Mn432 O447 2.162 . S
Mn432 O448 2.297 . S
Mn432 O456 2.385 . S
Mn432 O457 2.209 . S
Mn432 O458 2.094 . S
Mn433 O438 2.121 . S
Mn433 N440 2.257 . S
Mn433 N449 2.282 . S
Mn433 O457 2.215 1_556 S
Mn433 O459 2.117 1_556 S
C434 O456 1.234 . S
C434 O457 1.283 . S
C435 O447 1.281 . S
C435 O448 1.236 . S
C436 O458 1.240 . S
C436 O459 1.264 . S
O437 Mn432 2.095 . S
O437 C446 1.250 . S
O438 Mn433 2.121 . S
O438 C446 1.258 1_556 S
C439 N440 1.326 . S
C439 C443 1.460 . S
C439 H445 0.929 . S
N440 Mn433 2.257 . S
N440 C439 1.326 . S
N440 C444 1.362 . S
C441 C442 1.258 . S
C441 C444 1.431 . S
C441 C461 1.449 . S
C442 C441 1.258 . S
C442 C443 1.477 . S
C442 H462 0.931 . S
C443 C439 1.460 . S
C443 C442 1.477 . S
C443 H463 0.930 . S
C444 N440 1.362 . S
C444 C441 1.431 . S
C444 C454 1.476 . S
H445 C439 0.929 . S
C446 O437 1.250 . S
C446 O438 1.258 1_554 S
O447 Mn432 2.162 . S
O447 C435 1.281 . S
O448 Mn432 2.297 . S
O448 C435 1.236 . S
N449 Mn433 2.282 . S
N449 C450 1.319 1_656 S
N449 C454 1.318 . S
C450 N449 1.319 1_454 S
C450 C451 1.461 . S
C450 H455 0.933 . S
C451 C450 1.461 . S
C451 C452 1.291 1_554 S
C451 H464 0.931 . S
C452 C451 1.291 1_556 S
C452 C453 1.373 1_455 S
C452 H465 0.929 . S
C453 C452 1.373 1_655 S
C453 C454 1.396 . S
C453 C460 1.403 . S
C454 C444 1.476 . S
C454 N449 1.318 . S
C454 C453 1.396 . S
H455 C450 0.933 . S
O456 Mn432 2.385 . S
O456 C434 1.234 . S
O457 Mn432 2.209 . S
O457 Mn433 2.215 1_554 S
O457 C434 1.283 . S
O458 Mn432 2.094 . S
O458 C436 1.240 . S
O459 Mn433 2.117 1_554 S
O459 C436 1.264 . S
C460 C453 1.403 . S
C460 C461 1.399 . S
C460 H466 0.929 . S
C461 C441 1.449 . S
C461 C460 1.399 . S
C461 H467 0.930 . S
H462 C442 0.931 . S
H463 C443 0.930 . S
H464 C451 0.931 . S
H465 C452 0.929 . S
H466 C460 0.929 . S
H467 C461 0.930 . S
Mn468 O473 2.095 . S
Mn468 O483 2.162 1_556 S
Mn468 O484 2.297 . S
Mn468 O492 2.385 . S
Mn468 O493 2.209 . S
Mn468 O494 2.094 . S
Mn469 O474 2.121 . S
Mn469 N476 2.257 . S
Mn469 N485 2.282 . S
Mn469 O493 2.215 . S
Mn469 O495 2.117 . S
C470 O492 1.234 . S
C470 O493 1.283 . S
C471 O483 1.281 1_556 S
C471 O484 1.236 . S
C472 O494 1.240 . S
C472 O495 1.264 . S
O473 Mn468 2.095 . S
O473 C482 1.250 . S
O474 Mn469 2.121 . S
O474 C482 1.258 . S
C475 N476 1.326 . S
C475 C479 1.460 . S
C475 H481 0.929 . S
N476 Mn469 2.257 . S
N476 C475 1.326 . S
N476 C480 1.362 1_455 S
C477 C478 1.258 . S
C477 C480 1.431 . S
C477 C497 1.449 . S
C478 C477 1.258 . S
C478 C479 1.477 1_655 S
C478 H498 0.931 . S
C479 C475 1.460 . S
C479 C478 1.477 1_455 S
C479 H499 0.930 . S
C480 N476 1.362 1_655 S
C480 C477 1.431 . S
C480 C490 1.476 . S
H481 C475 0.929 . S
C482 O473 1.250 . S
C482 O474 1.258 . S
O483 Mn468 2.162 1_554 S
O483 C471 1.281 1_554 S
O484 Mn468 2.297 . S
O484 C471 1.236 . S
N485 Mn469 2.282 . S
N485 C486 1.328 1_455 S
N485 C490 1.318 1_455 S
C486 N485 1.328 1_655 S
C486 C487 1.457 . S
C486 H491 0.929 1_655 S
C487 C486 1.457 . S
C487 C488 1.291 . S
C487 H500 0.931 . S
C488 C487 1.291 . S
C488 C489 1.373 . S
C488 H501 0.929 . S
C489 C488 1.373 . S
C489 C490 1.396 . S
C489 C496 1.403 . S
C490 C480 1.476 . S
C490 N485 1.318 1_655 S
C490 C489 1.396 . S
H491 C486 0.929 1_455 S
O492 Mn468 2.385 . S
O492 C470 1.234 . S
O493 Mn468 2.209 . S
O493 Mn469 2.215 . S
O493 C470 1.283 . S
O494 Mn468 2.094 . S
O494 C472 1.240 . S
O495 Mn469 2.117 . S
O495 C472 1.264 . S
C496 C489 1.403 . S
C496 C497 1.399 . S
C496 H502 0.929 . S
C497 C477 1.449 . S
C497 C496 1.399 . S
C497 H503 0.930 . S
H498 C478 0.931 . S
H499 C479 0.930 . S
H500 C487 0.931 . S
H501 C488 0.929 . S
H502 C496 0.929 . S
H503 C497 0.930 . S
Mn504 O509 2.095 . S
Mn504 O519 2.162 . S
Mn504 O520 2.297 . S
Mn504 O528 2.385 . S
Mn504 O529 2.209 . S
Mn504 O530 2.094 . S
Mn505 O510 2.121 . S
Mn505 N512 2.257 . S
Mn505 N521 2.282 . S
Mn505 O529 2.215 . S
Mn505 O531 2.117 . S
C506 O528 1.234 . S
C506 O529 1.283 . S
C507 O519 1.281 . S
C507 O520 1.236 . S
C508 O530 1.240 . S
C508 O531 1.264 . S
O509 Mn504 2.095 . S
O509 C518 1.250 . S
O510 Mn505 2.121 . S
O510 C518 1.258 . S
C511 N512 1.326 . S
C511 C515 1.460 . S
C511 H517 0.929 . S
N512 Mn505 2.257 . S
N512 C511 1.326 . S
N512 C516 1.362 . S
C513 C514 1.258 . S
C513 C516 1.431 . S
C513 C533 1.449 . S
C514 C513 1.258 . S
C514 C515 1.477 . S
C514 H534 0.931 1_556 S
C515 C511 1.460 . S
C515 C514 1.477 . S
C515 H535 0.930 1_556 S
C516 N512 1.362 . S
C516 C513 1.431 . S
C516 C526 1.476 . S
H517 C511 0.929 . S
C518 O509 1.250 . S
C518 O510 1.258 . S
O519 Mn504 2.162 . S
O519 C507 1.281 . S
O520 Mn504 2.297 . S
O520 C507 1.236 . S
N521 Mn505 2.282 . S
N521 C522 1.328 . S
N521 C526 1.318 . S
C522 N521 1.328 . S
C522 C523 1.457 . S
C522 H527 0.929 . S
C523 C522 1.457 . S
C523 C524 1.291 . S
C523 H536 0.931 . S
C524 C523 1.291 . S
C524 C525 1.373 . S
C524 H537 0.929 . S
C525 C524 1.373 . S
C525 C526 1.396 . S
C525 C532 1.403 . S
C526 C516 1.476 . S
C526 N521 1.318 . S
C526 C525 1.396 . S
H527 C522 0.929 . S
O528 Mn504 2.385 . S
O528 C506 1.234 . S
O529 Mn504 2.209 . S
O529 Mn505 2.215 . S
O529 C506 1.283 . S
O530 Mn504 2.094 . S
O530 C508 1.240 . S
O531 Mn505 2.117 . S
O531 C508 1.264 . S
C532 C525 1.403 . S
C532 C533 1.399 . S
C532 H538 0.929 . S
C533 C513 1.449 . S
C533 C532 1.399 . S
C533 H539 0.930 . S
H534 C514 0.931 1_554 S
H535 C515 0.930 1_554 S
H536 C523 0.931 . S
H537 C524 0.929 . S
H538 C532 0.929 . S
H539 C533 0.930 . S
Mn540 O545 2.095 . S
Mn540 O555 2.162 . S
Mn540 O556 2.297 . S
Mn540 O564 2.385 . S
Mn540 O565 2.209 . S
Mn540 O566 2.094 . S
Mn541 O546 2.121 . S
Mn541 N548 2.257 . S
Mn541 N557 2.282 . S
Mn541 O565 2.215 . S
Mn541 O567 2.117 . S
C542 O564 1.234 . S
C542 O565 1.283 . S
C543 O555 1.281 . S
C543 O556 1.236 . S
C544 O566 1.240 . S
C544 O567 1.264 . S
O545 Mn540 2.095 . S
O545 C554 1.250 . S
O546 Mn541 2.121 . S
O546 C554 1.258 . S
C547 N548 1.326 . S
C547 C551 1.460 . S
C547 H553 0.929 . S
N548 Mn541 2.257 . S
N548 C547 1.326 . S
N548 C552 1.362 . S
C549 C550 1.258 . S
C549 C552 1.431 . S
C549 C569 1.449 . S
C550 C549 1.258 . S
C550 C551 1.477 . S
C550 H570 0.931 . S
C551 C547 1.460 . S
C551 C550 1.477 . S
C551 H571 0.930 . S
C552 N548 1.362 . S
C552 C549 1.431 . S
C552 C562 1.476 . S
H553 C547 0.929 . S
C554 O545 1.250 . S
C554 O546 1.258 . S
O555 Mn540 2.162 . S
O555 C543 1.281 . S
O556 Mn540 2.297 . S
O556 C543 1.236 . S
N557 Mn541 2.282 . S
N557 C558 1.328 . S
N557 C562 1.318 . S
C558 N557 1.328 . S
C558 C559 1.457 . S
C558 H563 0.929 . S
C559 C558 1.457 . S
C559 C560 1.291 . S
C559 H572 0.931 . S
C560 C559 1.291 . S
C560 C561 1.373 . S
C560 H573 0.929 . S
C561 C560 1.373 . S
C561 C562 1.396 . S
C561 C568 1.403 . S
C562 C552 1.476 . S
C562 N557 1.318 . S
C562 C561 1.396 . S
H563 C558 0.929 . S
O564 Mn540 2.385 . S
O564 C542 1.234 . S
O565 Mn540 2.209 . S
O565 Mn541 2.215 . S
O565 C542 1.283 . S
O566 Mn540 2.094 . S
O566 C544 1.240 . S
O567 Mn541 2.117 . S
O567 C544 1.264 . S
C568 C561 1.403 . S
C568 C569 1.399 . S
C568 H574 0.929 . S
C569 C549 1.449 . S
C569 C568 1.399 . S
C569 H575 0.930 . S
H570 C550 0.931 . S
H571 C551 0.930 . S
H572 C559 0.931 . S
H573 C560 0.929 . S
H574 C568 0.929 . S
H575 C569 0.930 . S
C400 C4 1.237 . S
C544 C40 1.151 . S
C76 C326 1.456 . S
C470 C110 1.392 1_455 S
C146 C472 1.362 . S
C182 C398 1.294 1_655 S
C220 C542 1.488 . S
C254 C328 1.378 . S
C112 C292 1.284 . S
C364 C38 1.310 . S
C434 C184 1.352 . S
C508 C256 1.300 . S
C148 C290 1.321 1_455 S
C362 C218 1.454 . S
C506 C74 1.419 . S
C2 C436 1.313 1_455 S
C3 C158 1.365 1_554 S
C39 C194 1.284 . S
C75 C219 1.472 . S
C266 C122 1.319 . S
C291 C446 1.322 1_556 S
C482 C327 1.441 . S
C363 C507 1.362 . S
C543 C410 1.203 . S
C255 C50 1.270 1_545 S
C86 C147 1.421 . S
C111 C183 1.370 1_546 S
C14 C230 1.337 . S
C338 C554 1.496 1_545 S
C435 C374 1.427 . S
C399 C471 1.345 1_564 S
C518 C302 1.349 . S
