# Generated by pormake.
# Topology wkj, (6)-cn, num edge types: 1
# Building blocks:
#     Node 0, Type 0, BuildingBlock: CIFDUS_clean_sbu_1, # of connection points: 6
#     Node 1, Type 0, BuildingBlock: CIFDUS_clean_sbu_1, # of connection points: 6
#     Node 2, Type 0, BuildingBlock: CIFDUS_clean_sbu_1, # of connection points: 6
#     Node 3, Type 0, BuildingBlock: CIFDUS_clean_sbu_1, # of connection points: 6
#     Node 4, Type 0, BuildingBlock: CIFDUS_clean_sbu_1, # of connection points: 6
#     Node 5, Type 0, BuildingBlock: CIFDUS_clean_sbu_1, # of connection points: 6
#     Node 6, Type 0, BuildingBlock: CIFDUS_clean_sbu_1, # of connection points: 6
#     Node 7, Type 0, BuildingBlock: CIFDUS_clean_sbu_1, # of connection points: 6
#     Node 8, Type 0, BuildingBlock: CIFDUS_clean_sbu_1, # of connection points: 6
#     Node 9, Type 0, BuildingBlock: CIFDUS_clean_sbu_1, # of connection points: 6
#     Node 10, Type 0, BuildingBlock: CIFDUS_clean_sbu_1, # of connection points: 6
#     Node 11, Type 0, BuildingBlock: CIFDUS_clean_sbu_1, # of connection points: 6
#     Edge 12, Type (0, 0), None
#     Edge 13, Type (0, 0), None
#     Edge 14, Type (0, 0), None
#     Edge 15, Type (0, 0), None
#     Edge 16, Type (0, 0), None
#     Edge 17, Type (0, 0), None
#     Edge 18, Type (0, 0), None
#     Edge 19, Type (0, 0), None
#     Edge 20, Type (0, 0), None
#     Edge 21, Type (0, 0), None
#     Edge 22, Type (0, 0), None
#     Edge 23, Type (0, 0), None
#     Edge 24, Type (0, 0), None
#     Edge 25, Type (0, 0), None
#     Edge 26, Type (0, 0), None
#     Edge 27, Type (0, 0), None
#     Edge 28, Type (0, 0), None
#     Edge 29, Type (0, 0), None
#     Edge 30, Type (0, 0), None
#     Edge 31, Type (0, 0), None
#     Edge 32, Type (0, 0), None
#     Edge 33, Type (0, 0), None
#     Edge 34, Type (0, 0), None
#     Edge 35, Type (0, 0), None
#     Edge 36, Type (0, 0), None
#     Edge 37, Type (0, 0), None
#     Edge 38, Type (0, 0), None
#     Edge 39, Type (0, 0), None
#     Edge 40, Type (0, 0), None
#     Edge 41, Type (0, 0), None
#     Edge 42, Type (0, 0), None
#     Edge 43, Type (0, 0), None
#     Edge 44, Type (0, 0), None
#     Edge 45, Type (0, 0), None
#     Edge 46, Type (0, 0), None
#     Edge 47, Type (0, 0), None
# Relax obj value: 0.526
# Max RMSD: 0.245
# Mean RMSD: 0.245
data_MOF--net-wkj--node1-CIFDUS_clean_sbu_1--edge1-none
_symmetry_space_group_name_H-M    P1
_symmetry_Int_Tables_number       1
_symmetry_cell_setting            triclinic
loop_
_symmetry_equiv_pos_as_xyz
'x, y, z'
_cell_length_a     24.228735
_cell_length_b     24.228723
_cell_length_c     10.637025
_cell_angle_alpha  89.992655
_cell_angle_beta   90.006178
_cell_angle_gamma 120.00013
loop_
_atom_site_label
_atom_site_type_symbol
_atom_site_fract_x
_atom_site_fract_y
_atom_site_fract_z
_atom_type_partial_charge
O0 O 0.53204 0.15154 0.41344 0.0
Mn1 Mn 0.44705 0.09718 0.31125 0.0
O2 O 0.49489 0.16874 0.58567 0.0
Mn3 Mn 0.41281 0.15608 0.50987 0.0
O4 O 0.36259 0.03232 0.20372 0.0
O5 O 0.48798 0.05387 0.30618 0.0
Mn6 Mn 0.47545 0.03172 0.14638 0.0
O7 O 0.50495 0.15663 0.15695 0.0
O8 O 0.42295 0.05339 1.0529 0.0
O9 O 0.39299 0.03232 0.45861 0.0
O10 O 0.34259 0.07093 0.56197 0.0
O11 O 0.41574 0.96896 0.26132 0.0
O12 O 0.55485 0.10637 0.17692 0.0
C13 C 0.41269 0.1942 0.30061 0.0
C14 C 0.54088 0.16546 0.52883 0.0
C15 C 0.36668 0.02172 0.08788 0.0
C16 C 0.45979 -0.00171 0.33899 0.0
C17 C 0.5554 0.15337 0.12895 0.0
C18 C 0.34616 0.02117 0.5291 0.0
O19 O 0.40766 0.14331 0.33997 0.0
O20 O 0.41229 0.22349 0.40188 0.0
O21 O 0.36816 0.53821 0.74676 0.0
Mn22 Mn 0.3375 0.45322 0.64455 0.0
O23 O 0.31379 0.50109 0.91899 0.0
Mn24 Mn 0.24438 0.41899 0.84325 0.0
O25 O 0.3179 0.36877 0.53701 0.0
O26 O 0.42174 0.49414 0.63943 0.0
Mn27 Mn 0.43138 0.48164 0.47963 0.0
O28 O 0.33595 0.51113 0.49026 0.0
O29 O 0.3572 0.42913 0.38618 0.0
O30 O 0.3483 0.39914 0.79188 0.0
O31 O 0.25932 0.34879 0.8954 0.0
O32 O 0.43444 0.42192 0.59457 0.0
O33 O 0.43611 0.56102 0.51022 0.0
C34 C 0.20612 0.41887 0.63402 0.0
C35 C 0.36306 0.54707 0.86214 0.0
C36 C 0.33261 0.37287 0.42117 0.0
C37 C 0.44912 0.46595 0.67227 0.0
C38 C 0.38966 0.56158 0.46226 0.0
C39 C 0.31265 0.35235 0.86248 0.0
O40 O 0.25199 0.41385 0.67335 0.0
O41 O 0.17642 0.41845 0.7353 0.0
O42 O 0.81759 0.37429 0.08023 0.0
Mn43 Mn 0.87187 0.34363 0.97787 0.0
O44 O 0.8003 0.31988 0.25243 0.0
Mn45 Mn 0.813 0.25048 0.17663 0.0
O46 O 0.93666 0.32403 0.8701 0.0
O47 O 0.91518 0.42786 0.97276 0.0
Mn48 Mn 0.93727 0.43754 0.81294 0.0
O49 O 0.81235 0.34209 0.82372 0.0
O50 O 0.9156 0.36341 0.71935 0.0
O51 O 0.9368 0.35439 0.12508 0.0
O52 O 0.89815 0.26544 0.22875 0.0
O53 O 8e-05 0.44056 0.92774 0.0
O54 O 0.86262 0.44225 0.84372 0.0
C55 C 0.77489 0.21224 0.96738 0.0
C56 C 0.80361 0.36917 0.1956 0.0
C57 C 0.94725 0.33878 0.75426 0.0
C58 C 0.97076 0.45522 1.00554 0.0
C59 C 0.8156 0.39581 0.79576 0.0
C60 C 0.94792 0.31874 0.19576 0.0
O61 O 0.82574 0.25813 1.00673 0.0
O62 O 0.74562 0.18251 0.06865 0.0
O63 O 0.43094 0.82356 0.41366 0.0
Mn64 Mn 0.51588 0.87804 0.31149 0.0
O65 O 0.46822 0.80656 0.5859 0.0
Mn66 Mn 0.55027 0.81919 0.50992 0.0
O67 O 0.60027 0.94295 0.20379 0.0
O68 O 0.47489 0.92133 0.30683 0.0
Mn69 Mn 0.48742 0.94355 0.147 0.0
O70 O 0.45794 0.81863 0.15724 0.0
O71 O 0.53981 0.9219 1.05312 0.0
O72 O 0.56997 0.94286 0.45888 0.0
O73 O 0.62052 0.90432 0.56194 0.0
O74 O 0.54732 0.00639 0.26171 0.0
O75 O 0.40801 0.86886 0.17729 0.0
C76 C 0.55029 0.78107 0.30065 0.0
C77 C 0.42217 0.80974 0.52909 0.0
C78 C 0.5961 0.95351 0.08794 0.0
C79 C 0.50322 0.97696 0.33924 0.0
C80 C 0.40747 0.82188 0.1293 0.0
C81 C 0.61687 0.95405 0.52919 0.0
O82 O 0.55537 0.83197 0.33999 0.0
O83 O 0.55072 0.75177 0.4019 0.0
O84 O 0.59508 0.43714 0.74699 0.0
Mn85 Mn 0.62549 0.52209 0.64484 0.0
O86 O 0.64932 0.47447 0.91923 0.0
Mn87 Mn 0.71874 0.55651 0.84318 0.0
O88 O 0.64494 0.60648 0.53718 0.0
O89 O 0.5412 0.48106 0.64025 0.0
Mn90 Mn 0.53152 0.49362 0.48042 0.0
O91 O 0.62697 0.46417 0.49057 0.0
O92 O 0.60555 0.54603 0.38651 0.0
O93 O 0.61473 0.57614 0.79228 0.0
O94 O 0.70387 0.62677 0.89516 0.0
O95 O 0.52858 0.55351 0.59512 0.0
O96 O 0.5268 0.4142 0.51065 0.0
C97 C 0.75686 0.55652 0.6339 0.0
C98 C 0.60011 0.4284 0.86243 0.0
C99 C 0.63022 0.60232 0.42132 0.0
C100 C 0.51388 0.50938 0.67262 0.0
C101 C 0.57326 0.41369 0.46265 0.0
C102 C 0.65046 0.62308 0.86247 0.0
O103 O 0.71105 0.56162 0.67326 0.0
O104 O 0.78659 0.55694 0.73514 0.0
O105 O 0.14557 0.60117 0.08021 0.0
Mn106 Mn 0.09101 0.6316 0.9782 0.0
O107 O 0.16249 0.65539 0.25247 0.0
Mn108 Mn 0.14988 0.72483 0.17649 0.0
O109 O 0.02604 0.65109 0.87074 0.0
O110 O 0.04773 0.54731 0.97357 0.0
Mn111 Mn 0.02544 0.53768 0.81376 0.0
O112 O 0.15035 0.63308 0.8238 0.0
O113 O 0.04709 0.61176 0.72 0.0
O114 O 0.02626 0.62083 0.12574 0.0
O115 O 0.06476 0.70998 0.2285 0.0
O116 O 0.96265 0.53471 0.92862 0.0
O117 O 0.10012 0.53291 0.84382 0.0
C118 C 0.18801 0.76297 0.96722 0.0
C119 C 0.15934 0.60619 0.19565 0.0
C120 C 0.01545 0.6364 0.75489 0.0
C121 C -0.00791 0.51998 1.00601 0.0
C122 C 0.1471 0.57937 0.79582 0.0
C123 C 0.01504 0.65657 0.19586 0.0
O124 O 0.13708 0.71717 1.00657 0.0
O125 O 0.21732 0.79269 0.06847 0.0
O126 O 0.81768 0.43719 0.37934 0.0
Mn127 Mn 0.87188 0.52211 0.4818 0.0
O128 O 0.80024 0.47425 0.20719 0.0
Mn129 Mn 0.81297 0.55636 0.28297 0.0
O130 O 0.93661 0.60648 0.58966 0.0
O131 O 0.9152 0.4812 0.48695 0.0
Mn132 Mn 0.93728 0.49353 0.64678 0.0
O133 O 0.81234 0.4641 0.6359 0.0
O134 O 0.9156 0.54595 0.74047 0.0
O135 O 0.93685 0.57634 0.33471 0.0
O136 O 0.89813 0.62654 0.23081 0.0
O137 O 9e-05 0.55337 0.53206 0.0
O138 O 0.86265 0.41415 0.61594 0.0
C139 C 0.77494 0.55659 0.49224 0.0
C140 C 0.80365 0.42832 0.264 0.0
C141 C 0.94716 0.60222 0.70547 0.0
C142 C 0.97078 0.50941 0.45422 0.0
C143 C 0.81563 0.41363 0.66367 0.0
C144 C 0.9479 0.62301 0.26382 0.0
O145 O 0.82573 0.56144 0.45285 0.0
O146 O 0.74564 0.55702 0.39099 0.0
O147 O 0.36821 0.82383 0.7128 0.0
Mn148 Mn 0.33746 0.87805 0.81512 0.0
O149 O 0.31372 0.80637 0.54063 0.0
Mn150 Mn 0.24433 0.81911 0.61631 0.0
O151 O 0.3178 0.94282 0.92275 0.0
O152 O 0.4217 0.92139 0.82032 0.0
Mn153 Mn 0.4314 0.94352 0.98012 0.0
O154 O 0.33592 0.81857 0.96936 0.0
O155 O 0.35725 0.92182 0.07365 0.0
O156 O 0.34824 0.94299 0.66792 0.0
O157 O 0.2593 0.90425 0.56409 0.0
O158 O 0.4344 0.00629 0.86524 0.0
O159 O 0.43619 0.8689 0.94946 0.0
C160 C 0.20603 0.78107 0.82557 0.0
C161 C 0.36305 0.80979 0.59747 0.0
C162 C 0.33258 0.9534 1.03855 0.0
C163 C 0.44908 0.97696 0.78751 0.0
C164 C 0.38968 0.82188 0.9972 0.0
C165 C 0.31261 0.95404 0.59706 0.0
O166 O 0.25198 0.83187 0.78618 0.0
O167 O 0.17632 0.75177 0.72431 0.0
O168 O 0.53206 0.37442 1.04616 0.0
Mn169 Mn 0.44709 0.34368 0.14846 0.0
O170 O 0.49503 0.31995 0.87399 0.0
Mn171 Mn 0.4129 0.25054 0.94969 0.0
O172 O 0.36264 0.324 0.25605 0.0
O173 O 0.488 0.42791 0.15363 0.0
Mn174 Mn 0.47554 0.4376 0.31342 0.0
O175 O 0.50503 0.34214 0.30272 0.0
O176 O 0.42308 0.36344 0.40696 0.0
O177 O 0.39294 0.35445 1.00123 0.0
O178 O 0.34271 0.2655 0.8975 0.0
O179 O 0.41578 0.4406 0.19852 0.0
O180 O 0.55496 0.4424 0.28281 0.0
C181 C 0.41264 0.21224 0.15896 0.0
C182 C 0.54095 0.36928 0.93082 0.0
C183 C 0.36683 0.33877 0.37186 0.0
C184 C 0.45981 0.4553 0.12082 0.0
C185 C 0.55547 0.3959 0.33056 0.0
C186 C 0.34624 0.31881 0.93044 0.0
O187 O 0.40779 0.25819 0.11956 0.0
O188 O 0.41223 0.18253 1.05769 0.0
O189 O 0.14546 0.53822 0.37944 0.0
Mn190 Mn 0.09101 0.45325 0.48155 0.0
O191 O 0.16258 0.50102 0.20722 0.0
Mn192 Mn 0.14992 0.41894 0.28311 0.0
O193 O 0.02611 0.3688 0.58906 0.0
O194 O 0.04771 0.49424 0.48625 0.0
Mn195 Mn 0.02543 0.48166 0.64605 0.0
O196 O 0.15038 0.51114 0.63592 0.0
O197 O 0.0471 0.42925 0.73988 0.0
O198 O 0.0262 0.3992 0.33413 0.0
O199 O 0.0648 0.3487 0.23102 0.0
O200 O 0.96264 0.42179 0.53123 0.0
O201 O 0.10008 0.56112 0.61593 0.0
C202 C 0.18801 0.41881 0.49238 0.0
C203 C 0.15931 0.54702 0.26403 0.0
C204 C 0.01554 0.37299 0.70487 0.0
C205 C -0.00792 0.46595 0.4538 0.0
C206 C 0.14707 0.56158 0.66373 0.0
C207 C 0.01506 0.35235 0.26372 0.0
O208 O 0.13713 0.41382 0.45302 0.0
O209 O 0.21732 0.41843 0.39112 0.0
O210 O 0.59495 0.15161 0.71265 0.0
Mn211 Mn 0.62546 0.09718 0.8149 0.0
O212 O 0.64928 0.16869 0.54045 0.0
Mn213 Mn 0.71869 0.15605 0.61645 0.0
O214 O 0.64497 0.03232 0.92264 0.0
O215 O 0.54117 0.0539 0.81955 0.0
Mn216 Mn 0.53142 0.03167 0.97937 0.0
O217 O 0.62692 0.15661 0.96913 0.0
O218 O 0.60544 0.05332 0.07336 0.0
O219 O 0.61472 0.03233 0.66759 0.0
O220 O 0.70381 0.07092 0.56442 0.0
O221 O 0.52854 0.96884 0.86471 0.0
O222 O 0.52665 0.10633 0.94907 0.0
C223 C 0.75687 0.19414 0.82573 0.0
C224 C 0.60002 0.16545 0.59723 0.0
C225 C 0.63018 0.02178 1.03845 0.0
C226 C 0.51384 -0.00174 0.78718 0.0
C227 C 0.57317 0.15332 0.99687 0.0
C228 C 0.65042 0.02119 0.59714 0.0
O229 O 0.71101 0.14327 0.78637 0.0
O230 O 0.78657 0.22347 0.72448 0.0
O231 O 0.431 0.60112 1.04593 0.0
Mn232 Mn 0.51592 0.63166 0.14822 0.0
O233 O 0.46821 0.65549 0.87374 0.0
Mn234 Mn 0.55027 0.72489 0.94971 0.0
O235 O 0.60029 0.65119 0.25601 0.0
O236 O 0.47494 0.54738 0.15292 0.0
Mn237 Mn 0.4874 0.53761 0.31274 0.0
O238 O 0.45794 0.63311 0.30242 0.0
O239 O 0.53975 0.61163 0.40673 0.0
O240 O 0.57007 0.62094 1.00095 0.0
O241 O 0.62051 0.71001 0.89765 0.0
O242 O 0.54736 0.53474 0.19811 0.0
O243 O 0.40797 0.53284 0.28238 0.0
C244 C 0.55036 0.76306 0.15899 0.0
C245 C 0.42221 0.6062 0.93052 0.0
C246 C 0.59603 0.63639 0.37182 0.0
C247 C 0.50327 0.52006 0.12054 0.0
C248 C 0.40748 0.57935 0.33017 0.0
C249 C 0.61688 0.65663 0.93042 0.0
O250 O 0.55535 0.71719 0.11963 0.0
O251 O 0.55076 0.79278 1.05775 0.0
loop_
_geom_bond_atom_site_label_1
_geom_bond_atom_site_label_2
_geom_bond_distance
_geom_bond_site_symmetry_2
_ccdc_geom_bond_type
O0 Mn1 2.163 . S
O0 C14 1.244 . S
Mn1 O0 2.163 . S
Mn1 O4 2.160 . S
Mn1 O5 2.221 . S
Mn1 O7 2.163 . S
Mn1 O9 2.160 . S
Mn1 O19 2.221 . S
O2 Mn3 2.087 . S
O2 C14 1.256 . S
Mn3 O2 2.087 . S
Mn3 O10 2.089 . S
Mn3 O19 2.290 . S
Mn3 O20 2.251 . S
O4 Mn1 2.160 . S
O4 C15 1.239 . S
O5 Mn1 2.221 . S
O5 Mn6 2.290 1_545 S
O5 C16 1.278 1_545 S
Mn6 O5 2.290 1_565 S
Mn6 O8 2.089 1_564 S
Mn6 O11 2.251 . S
Mn6 O12 2.087 1_565 S
O7 Mn1 2.163 . S
O7 C17 1.244 . S
O8 Mn6 2.089 1_546 S
O8 C15 1.256 1_556 S
O9 Mn1 2.160 . S
O9 C18 1.239 . S
O10 Mn3 2.089 . S
O10 C18 1.256 . S
O11 Mn6 2.251 . S
O11 C16 1.241 . S
O12 Mn6 2.087 1_545 S
O12 C17 1.256 . S
C13 O19 1.278 . S
C13 O20 1.241 . S
C14 O0 1.244 . S
C14 O2 1.256 . S
C15 O4 1.239 . S
C15 O8 1.256 1_554 S
C16 O5 1.278 1_565 S
C16 O11 1.241 . S
C17 O7 1.244 . S
C17 O12 1.256 . S
C18 O9 1.239 . S
C18 O10 1.256 . S
O19 Mn1 2.221 . S
O19 Mn3 2.290 . S
O19 C13 1.278 . S
O20 Mn3 2.251 . S
O20 C13 1.241 . S
O21 Mn22 2.163 . S
O21 C35 1.244 . S
Mn22 O21 2.163 . S
Mn22 O25 2.160 . S
Mn22 O26 2.221 . S
Mn22 O28 2.163 . S
Mn22 O30 2.160 . S
Mn22 O40 2.221 . S
O23 Mn24 2.087 . S
O23 C35 1.256 . S
Mn24 O23 2.087 . S
Mn24 O31 2.089 . S
Mn24 O40 2.290 . S
Mn24 O41 2.251 . S
O25 Mn22 2.160 . S
O25 C36 1.239 . S
O26 Mn22 2.221 . S
O26 Mn27 2.290 . S
O26 C37 1.278 . S
Mn27 O26 2.290 . S
Mn27 O29 2.089 . S
Mn27 O32 2.251 . S
Mn27 O33 2.087 . S
O28 Mn22 2.163 . S
O28 C38 1.244 . S
O29 Mn27 2.089 . S
O29 C36 1.256 . S
O30 Mn22 2.160 . S
O30 C39 1.239 . S
O31 Mn24 2.089 . S
O31 C39 1.256 . S
O32 Mn27 2.251 . S
O32 C37 1.241 . S
O33 Mn27 2.087 . S
O33 C38 1.256 . S
C34 O40 1.278 . S
C34 O41 1.241 . S
C35 O21 1.244 . S
C35 O23 1.256 . S
C36 O25 1.239 . S
C36 O29 1.256 . S
C37 O26 1.278 . S
C37 O32 1.241 . S
C38 O28 1.244 . S
C38 O33 1.256 . S
C39 O30 1.239 . S
C39 O31 1.256 . S
O40 Mn22 2.221 . S
O40 Mn24 2.290 . S
O40 C34 1.278 . S
O41 Mn24 2.251 . S
O41 C34 1.241 . S
O42 Mn43 2.163 1_554 S
O42 C56 1.244 . S
Mn43 O42 2.163 1_556 S
Mn43 O46 2.160 . S
Mn43 O47 2.221 . S
Mn43 O49 2.163 . S
Mn43 O51 2.160 1_556 S
Mn43 O61 2.221 . S
O44 Mn45 2.087 . S
O44 C56 1.256 . S
Mn45 O44 2.087 . S
Mn45 O52 2.089 . S
Mn45 O61 2.290 1_554 S
Mn45 O62 2.251 1_554 S
O46 Mn43 2.160 . S
O46 C57 1.239 . S
O47 Mn43 2.221 . S
O47 Mn48 2.290 1_655 S
O47 C58 1.278 1_655 S
Mn48 O47 2.290 1_455 S
Mn48 O50 2.089 1_455 S
Mn48 O53 2.251 . S
Mn48 O54 2.087 1_455 S
O49 Mn43 2.163 . S
O49 C59 1.244 . S
O50 Mn48 2.089 1_655 S
O50 C57 1.256 . S
O51 Mn43 2.160 1_554 S
O51 C60 1.239 . S
O52 Mn45 2.089 . S
O52 C60 1.256 . S
O53 Mn48 2.251 . S
O53 C58 1.241 . S
O54 Mn48 2.087 1_655 S
O54 C59 1.256 . S
C55 O61 1.278 . S
C55 O62 1.241 . S
C56 O42 1.244 . S
C56 O44 1.256 . S
C57 O46 1.239 . S
C57 O50 1.256 . S
C58 O47 1.278 1_455 S
C58 O53 1.241 . S
C59 O49 1.244 . S
C59 O54 1.256 . S
C60 O51 1.239 . S
C60 O52 1.256 . S
O61 Mn43 2.221 . S
O61 Mn45 2.290 1_556 S
O61 C55 1.278 . S
O62 Mn45 2.251 1_556 S
O62 C55 1.241 . S
O63 Mn64 2.163 . S
O63 C77 1.244 . S
Mn64 O63 2.163 . S
Mn64 O67 2.160 . S
Mn64 O68 2.221 . S
Mn64 O70 2.163 . S
Mn64 O72 2.160 . S
Mn64 O82 2.221 . S
O65 Mn66 2.087 . S
O65 C77 1.256 . S
Mn66 O65 2.087 . S
Mn66 O73 2.089 . S
Mn66 O82 2.290 . S
Mn66 O83 2.251 . S
O67 Mn64 2.160 . S
O67 C78 1.239 . S
O68 Mn64 2.221 . S
O68 Mn69 2.290 1_565 S
O68 C79 1.278 1_565 S
Mn69 O68 2.290 1_545 S
Mn69 O71 2.089 1_544 S
Mn69 O74 2.251 . S
Mn69 O75 2.087 1_545 S
O70 Mn64 2.163 . S
O70 C80 1.244 . S
O71 Mn69 2.089 1_566 S
O71 C78 1.256 1_556 S
O72 Mn64 2.160 . S
O72 C81 1.239 . S
O73 Mn66 2.089 . S
O73 C81 1.256 . S
O74 Mn69 2.251 . S
O74 C79 1.241 . S
O75 Mn69 2.087 1_565 S
O75 C80 1.256 . S
C76 O82 1.278 . S
C76 O83 1.241 . S
C77 O63 1.244 . S
C77 O65 1.256 . S
C78 O67 1.239 . S
C78 O71 1.256 1_554 S
C79 O68 1.278 1_545 S
C79 O74 1.241 . S
C80 O70 1.244 . S
C80 O75 1.256 . S
C81 O72 1.239 . S
C81 O73 1.256 . S
O82 Mn64 2.221 . S
O82 Mn66 2.290 . S
O82 C76 1.278 . S
O83 Mn66 2.251 . S
O83 C76 1.241 . S
O84 Mn85 2.163 . S
O84 C98 1.244 . S
Mn85 O84 2.163 . S
Mn85 O88 2.160 . S
Mn85 O89 2.221 . S
Mn85 O91 2.163 . S
Mn85 O93 2.160 . S
Mn85 O103 2.221 . S
O86 Mn87 2.087 . S
O86 C98 1.256 . S
Mn87 O86 2.087 . S
Mn87 O94 2.089 . S
Mn87 O103 2.290 . S
Mn87 O104 2.251 . S
O88 Mn85 2.160 . S
O88 C99 1.239 . S
O89 Mn85 2.221 . S
O89 Mn90 2.290 . S
O89 C100 1.278 . S
Mn90 O89 2.290 . S
Mn90 O92 2.089 . S
Mn90 O95 2.251 . S
Mn90 O96 2.087 . S
O91 Mn85 2.163 . S
O91 C101 1.244 . S
O92 Mn90 2.089 . S
O92 C99 1.256 . S
O93 Mn85 2.160 . S
O93 C102 1.239 . S
O94 Mn87 2.089 . S
O94 C102 1.256 . S
O95 Mn90 2.251 . S
O95 C100 1.241 . S
O96 Mn90 2.087 . S
O96 C101 1.256 . S
C97 O103 1.278 . S
C97 O104 1.241 . S
C98 O84 1.244 . S
C98 O86 1.256 . S
C99 O88 1.239 . S
C99 O92 1.256 . S
C100 O89 1.278 . S
C100 O95 1.241 . S
C101 O91 1.244 . S
C101 O96 1.256 . S
C102 O93 1.239 . S
C102 O94 1.256 . S
O103 Mn85 2.221 . S
O103 Mn87 2.290 . S
O103 C97 1.278 . S
O104 Mn87 2.251 . S
O104 C97 1.241 . S
O105 Mn106 2.163 1_554 S
O105 C119 1.244 . S
Mn106 O105 2.163 1_556 S
Mn106 O109 2.160 . S
Mn106 O110 2.221 . S
Mn106 O112 2.163 . S
Mn106 O114 2.160 1_556 S
Mn106 O124 2.221 . S
O107 Mn108 2.087 . S
O107 C119 1.256 . S
Mn108 O107 2.087 . S
Mn108 O115 2.089 . S
Mn108 O124 2.290 1_554 S
Mn108 O125 2.251 1_554 S
O109 Mn106 2.160 . S
O109 C120 1.239 . S
O110 Mn106 2.221 . S
O110 Mn111 2.290 1_455 S
O110 C121 1.278 1_455 S
Mn111 O110 2.290 1_655 S
Mn111 O113 2.089 1_655 S
Mn111 O116 2.251 . S
Mn111 O117 2.087 1_655 S
O112 Mn106 2.163 . S
O112 C122 1.244 . S
O113 Mn111 2.089 1_455 S
O113 C120 1.256 . S
O114 Mn106 2.160 1_554 S
O114 C123 1.239 . S
O115 Mn108 2.089 . S
O115 C123 1.256 . S
O116 Mn111 2.251 . S
O116 C121 1.241 . S
O117 Mn111 2.087 1_455 S
O117 C122 1.256 . S
C118 O124 1.278 . S
C118 O125 1.241 . S
C119 O105 1.244 . S
C119 O107 1.256 . S
C120 O109 1.239 . S
C120 O113 1.256 . S
C121 O110 1.278 1_655 S
C121 O116 1.241 . S
C122 O112 1.244 . S
C122 O117 1.256 . S
C123 O114 1.239 . S
C123 O115 1.256 . S
O124 Mn106 2.221 . S
O124 Mn108 2.290 1_556 S
O124 C118 1.278 . S
O125 Mn108 2.251 1_556 S
O125 C118 1.241 . S
O126 Mn127 2.163 . S
O126 C140 1.244 . S
Mn127 O126 2.163 . S
Mn127 O130 2.160 . S
Mn127 O131 2.221 . S
Mn127 O133 2.163 . S
Mn127 O135 2.160 . S
Mn127 O145 2.221 . S
O128 Mn129 2.087 . S
O128 C140 1.256 . S
Mn129 O128 2.087 . S
Mn129 O136 2.089 . S
Mn129 O145 2.290 . S
Mn129 O146 2.251 . S
O130 Mn127 2.160 . S
O130 C141 1.239 . S
O131 Mn127 2.221 . S
O131 Mn132 2.290 1_655 S
O131 C142 1.278 1_655 S
Mn132 O131 2.290 1_455 S
Mn132 O134 2.089 1_455 S
Mn132 O137 2.251 . S
Mn132 O138 2.087 1_455 S
O133 Mn127 2.163 . S
O133 C143 1.244 . S
O134 Mn132 2.089 1_655 S
O134 C141 1.256 . S
O135 Mn127 2.160 . S
O135 C144 1.239 . S
O136 Mn129 2.089 . S
O136 C144 1.256 . S
O137 Mn132 2.251 . S
O137 C142 1.241 . S
O138 Mn132 2.087 1_655 S
O138 C143 1.256 . S
C139 O145 1.278 . S
C139 O146 1.241 . S
C140 O126 1.244 . S
C140 O128 1.256 . S
C141 O130 1.239 . S
C141 O134 1.256 . S
C142 O131 1.278 1_455 S
C142 O137 1.241 . S
C143 O133 1.244 . S
C143 O138 1.256 . S
C144 O135 1.239 . S
C144 O136 1.256 . S
O145 Mn127 2.221 . S
O145 Mn129 2.290 . S
O145 C139 1.278 . S
O146 Mn129 2.251 . S
O146 C139 1.241 . S
O147 Mn148 2.163 . S
O147 C161 1.244 . S
Mn148 O147 2.163 . S
Mn148 O151 2.160 . S
Mn148 O152 2.221 . S
Mn148 O154 2.163 . S
Mn148 O156 2.160 . S
Mn148 O166 2.221 . S
O149 Mn150 2.087 . S
O149 C161 1.256 . S
Mn150 O149 2.087 . S
Mn150 O157 2.089 . S
Mn150 O166 2.290 . S
Mn150 O167 2.251 . S
O151 Mn148 2.160 . S
O151 C162 1.239 . S
O152 Mn148 2.221 . S
O152 Mn153 2.290 1_565 S
O152 C163 1.278 1_565 S
Mn153 O152 2.290 1_545 S
Mn153 O155 2.089 1_546 S
Mn153 O158 2.251 . S
Mn153 O159 2.087 1_545 S
O154 Mn148 2.163 . S
O154 C164 1.244 . S
O155 Mn153 2.089 1_564 S
O155 C162 1.256 1_554 S
O156 Mn148 2.160 . S
O156 C165 1.239 . S
O157 Mn150 2.089 . S
O157 C165 1.256 . S
O158 Mn153 2.251 . S
O158 C163 1.241 . S
O159 Mn153 2.087 1_565 S
O159 C164 1.256 . S
C160 O166 1.278 . S
C160 O167 1.241 . S
C161 O147 1.244 . S
C161 O149 1.256 . S
C162 O151 1.239 . S
C162 O155 1.256 1_556 S
C163 O152 1.278 1_545 S
C163 O158 1.241 . S
C164 O154 1.244 . S
C164 O159 1.256 . S
C165 O156 1.239 . S
C165 O157 1.256 . S
O166 Mn148 2.221 . S
O166 Mn150 2.290 . S
O166 C160 1.278 . S
O167 Mn150 2.251 . S
O167 C160 1.241 . S
O168 Mn169 2.163 1_556 S
O168 C182 1.244 . S
Mn169 O168 2.163 1_554 S
Mn169 O172 2.160 . S
Mn169 O173 2.221 . S
Mn169 O175 2.163 . S
Mn169 O177 2.160 1_554 S
Mn169 O187 2.221 . S
O170 Mn171 2.087 . S
O170 C182 1.256 . S
Mn171 O170 2.087 . S
Mn171 O178 2.089 . S
Mn171 O187 2.290 1_556 S
Mn171 O188 2.251 1_556 S
O172 Mn169 2.160 . S
O172 C183 1.239 . S
O173 Mn169 2.221 . S
O173 Mn174 2.290 . S
O173 C184 1.278 . S
Mn174 O173 2.290 . S
Mn174 O176 2.089 . S
Mn174 O179 2.251 . S
Mn174 O180 2.087 . S
O175 Mn169 2.163 . S
O175 C185 1.244 . S
O176 Mn174 2.089 . S
O176 C183 1.256 . S
O177 Mn169 2.160 1_556 S
O177 C186 1.239 . S
O178 Mn171 2.089 . S
O178 C186 1.256 . S
O179 Mn174 2.251 . S
O179 C184 1.241 . S
O180 Mn174 2.087 . S
O180 C185 1.256 . S
C181 O187 1.278 . S
C181 O188 1.241 . S
C182 O168 1.244 . S
C182 O170 1.256 . S
C183 O172 1.239 . S
C183 O176 1.256 . S
C184 O173 1.278 . S
C184 O179 1.241 . S
C185 O175 1.244 . S
C185 O180 1.256 . S
C186 O177 1.239 . S
C186 O178 1.256 . S
O187 Mn169 2.221 . S
O187 Mn171 2.290 1_554 S
O187 C181 1.278 . S
O188 Mn171 2.251 1_554 S
O188 C181 1.241 . S
O189 Mn190 2.163 . S
O189 C203 1.244 . S
Mn190 O189 2.163 . S
Mn190 O193 2.160 . S
Mn190 O194 2.221 . S
Mn190 O196 2.163 . S
Mn190 O198 2.160 . S
Mn190 O208 2.221 . S
O191 Mn192 2.087 . S
O191 C203 1.256 . S
Mn192 O191 2.087 . S
Mn192 O199 2.089 . S
Mn192 O208 2.290 . S
Mn192 O209 2.251 . S
O193 Mn190 2.160 . S
O193 C204 1.239 . S
O194 Mn190 2.221 . S
O194 Mn195 2.290 1_455 S
O194 C205 1.278 1_455 S
Mn195 O194 2.290 1_655 S
Mn195 O197 2.089 1_655 S
Mn195 O200 2.251 . S
Mn195 O201 2.087 1_655 S
O196 Mn190 2.163 . S
O196 C206 1.244 . S
O197 Mn195 2.089 1_455 S
O197 C204 1.256 . S
O198 Mn190 2.160 . S
O198 C207 1.239 . S
O199 Mn192 2.089 . S
O199 C207 1.256 . S
O200 Mn195 2.251 . S
O200 C205 1.241 . S
O201 Mn195 2.087 1_455 S
O201 C206 1.256 . S
C202 O208 1.278 . S
C202 O209 1.241 . S
C203 O189 1.244 . S
C203 O191 1.256 . S
C204 O193 1.239 . S
C204 O197 1.256 . S
C205 O194 1.278 1_655 S
C205 O200 1.241 . S
C206 O196 1.244 . S
C206 O201 1.256 . S
C207 O198 1.239 . S
C207 O199 1.256 . S
O208 Mn190 2.221 . S
O208 Mn192 2.290 . S
O208 C202 1.278 . S
O209 Mn192 2.251 . S
O209 C202 1.241 . S
O210 Mn211 2.163 . S
O210 C224 1.244 . S
Mn211 O210 2.163 . S
Mn211 O214 2.160 . S
Mn211 O215 2.221 . S
Mn211 O217 2.163 . S
Mn211 O219 2.160 . S
Mn211 O229 2.221 . S
O212 Mn213 2.087 . S
O212 C224 1.256 . S
Mn213 O212 2.087 . S
Mn213 O220 2.089 . S
Mn213 O229 2.290 . S
Mn213 O230 2.251 . S
O214 Mn211 2.160 . S
O214 C225 1.239 . S
O215 Mn211 2.221 . S
O215 Mn216 2.290 1_545 S
O215 C226 1.278 1_545 S
Mn216 O215 2.290 1_565 S
Mn216 O218 2.089 1_566 S
Mn216 O221 2.251 . S
Mn216 O222 2.087 1_565 S
O217 Mn211 2.163 . S
O217 C227 1.244 . S
O218 Mn216 2.089 1_544 S
O218 C225 1.256 1_554 S
O219 Mn211 2.160 . S
O219 C228 1.239 . S
O220 Mn213 2.089 . S
O220 C228 1.256 . S
O221 Mn216 2.251 . S
O221 C226 1.241 . S
O222 Mn216 2.087 1_545 S
O222 C227 1.256 . S
C223 O229 1.278 . S
C223 O230 1.241 . S
C224 O210 1.244 . S
C224 O212 1.256 . S
C225 O214 1.239 . S
C225 O218 1.256 1_556 S
C226 O215 1.278 1_565 S
C226 O221 1.241 . S
C227 O217 1.244 . S
C227 O222 1.256 . S
C228 O219 1.239 . S
C228 O220 1.256 . S
O229 Mn211 2.221 . S
O229 Mn213 2.290 . S
O229 C223 1.278 . S
O230 Mn213 2.251 . S
O230 C223 1.241 . S
O231 Mn232 2.163 1_556 S
O231 C245 1.244 . S
Mn232 O231 2.163 1_554 S
Mn232 O235 2.160 . S
Mn232 O236 2.221 . S
Mn232 O238 2.163 . S
Mn232 O240 2.160 1_554 S
Mn232 O250 2.221 . S
O233 Mn234 2.087 . S
O233 C245 1.256 . S
Mn234 O233 2.087 . S
Mn234 O241 2.089 . S
Mn234 O250 2.290 1_556 S
Mn234 O251 2.251 1_556 S
O235 Mn232 2.160 . S
O235 C246 1.239 . S
O236 Mn232 2.221 . S
O236 Mn237 2.290 . S
O236 C247 1.278 . S
Mn237 O236 2.290 . S
Mn237 O239 2.089 . S
Mn237 O242 2.251 . S
Mn237 O243 2.087 . S
O238 Mn232 2.163 . S
O238 C248 1.244 . S
O239 Mn237 2.089 . S
O239 C246 1.256 . S
O240 Mn232 2.160 1_556 S
O240 C249 1.239 . S
O241 Mn234 2.089 . S
O241 C249 1.256 . S
O242 Mn237 2.251 . S
O242 C247 1.241 . S
O243 Mn237 2.087 . S
O243 C248 1.256 . S
C244 O250 1.278 . S
C244 O251 1.241 . S
C245 O231 1.244 . S
C245 O233 1.256 . S
C246 O235 1.239 . S
C246 O239 1.256 . S
C247 O236 1.278 . S
C247 O242 1.241 . S
C248 O238 1.244 . S
C248 O243 1.256 . S
C249 O240 1.239 . S
C249 O241 1.256 . S
O250 Mn232 2.221 . S
O250 Mn234 2.290 1_554 S
O250 C244 1.278 . S
O251 Mn234 2.251 1_554 S
O251 C244 1.241 . S
C13 C181 2.125 . S
C34 C202 2.125 . S
C55 C223 2.124 . S
C244 C76 2.125 . S
C97 C139 2.125 . S
C160 C118 2.124 . S
C227 C17 1.518 1_556 S
C248 C38 1.518 . S
C59 C143 1.518 . S
C164 C80 1.518 1_556 S
C185 C101 1.518 . S
C122 C206 1.518 . S
C162 C15 1.261 1_566 S
C183 C36 1.260 . S
C204 C57 1.261 1_455 S
C78 C225 1.261 1_564 S
C99 C246 1.261 . S
C120 C141 1.261 1_455 S
C16 C79 0.932 1_565 S
C37 C100 0.932 . S
C58 C121 0.932 1_455 S
C205 C142 0.932 1_655 S
C163 C226 0.932 1_545 S
C247 C184 0.932 . S
C165 C18 1.933 1_565 S
C186 C39 1.933 . S
C60 C207 1.933 1_655 S
C228 C81 1.933 1_545 S
C249 C102 1.933 . S
C123 C144 1.933 1_455 S
C14 C224 1.914 . S
C35 C245 1.914 . S
C56 C140 1.914 . S
C77 C161 1.914 . S
C98 C182 1.914 . S
C203 C119 1.914 . S
