# Generated by pormake.
# Topology zfx, (5)-cn, num edge types: 1
# Building blocks:
#     Node 0, Type 0, BuildingBlock: XOMCOT_clean_sbu_1, # of connection points: 5
#     Node 1, Type 0, BuildingBlock: XOMCOT_clean_sbu_1, # of connection points: 5
#     Node 2, Type 0, BuildingBlock: XOMCOT_clean_sbu_1, # of connection points: 5
#     Node 3, Type 0, BuildingBlock: XOMCOT_clean_sbu_1, # of connection points: 5
#     Node 4, Type 0, BuildingBlock: XOMCOT_clean_sbu_1, # of connection points: 5
#     Node 5, Type 0, BuildingBlock: XOMCOT_clean_sbu_1, # of connection points: 5
#     Node 6, Type 0, BuildingBlock: XOMCOT_clean_sbu_1, # of connection points: 5
#     Node 7, Type 0, BuildingBlock: XOMCOT_clean_sbu_1, # of connection points: 5
#     Node 8, Type 0, BuildingBlock: XOMCOT_clean_sbu_1, # of connection points: 5
#     Node 9, Type 0, BuildingBlock: XOMCOT_clean_sbu_1, # of connection points: 5
#     Node 10, Type 0, BuildingBlock: XOMCOT_clean_sbu_1, # of connection points: 5
#     Node 11, Type 0, BuildingBlock: XOMCOT_clean_sbu_1, # of connection points: 5
#     Node 12, Type 0, BuildingBlock: XOMCOT_clean_sbu_1, # of connection points: 5
#     Node 13, Type 0, BuildingBlock: XOMCOT_clean_sbu_1, # of connection points: 5
#     Node 14, Type 0, BuildingBlock: XOMCOT_clean_sbu_1, # of connection points: 5
#     Node 15, Type 0, BuildingBlock: XOMCOT_clean_sbu_1, # of connection points: 5
#     Edge 16, Type (0, 0), BuildingBlock: OJICUG_clean_linker_0, # of connection points: 2
#     Edge 17, Type (0, 0), BuildingBlock: OJICUG_clean_linker_0, # of connection points: 2
#     Edge 18, Type (0, 0), BuildingBlock: OJICUG_clean_linker_0, # of connection points: 2
#     Edge 19, Type (0, 0), BuildingBlock: OJICUG_clean_linker_0, # of connection points: 2
#     Edge 20, Type (0, 0), BuildingBlock: OJICUG_clean_linker_0, # of connection points: 2
#     Edge 21, Type (0, 0), BuildingBlock: OJICUG_clean_linker_0, # of connection points: 2
#     Edge 22, Type (0, 0), BuildingBlock: OJICUG_clean_linker_0, # of connection points: 2
#     Edge 23, Type (0, 0), BuildingBlock: OJICUG_clean_linker_0, # of connection points: 2
#     Edge 24, Type (0, 0), BuildingBlock: OJICUG_clean_linker_0, # of connection points: 2
#     Edge 25, Type (0, 0), BuildingBlock: OJICUG_clean_linker_0, # of connection points: 2
#     Edge 26, Type (0, 0), BuildingBlock: OJICUG_clean_linker_0, # of connection points: 2
#     Edge 27, Type (0, 0), BuildingBlock: OJICUG_clean_linker_0, # of connection points: 2
#     Edge 28, Type (0, 0), BuildingBlock: OJICUG_clean_linker_0, # of connection points: 2
#     Edge 29, Type (0, 0), BuildingBlock: OJICUG_clean_linker_0, # of connection points: 2
#     Edge 30, Type (0, 0), BuildingBlock: OJICUG_clean_linker_0, # of connection points: 2
#     Edge 31, Type (0, 0), BuildingBlock: OJICUG_clean_linker_0, # of connection points: 2
#     Edge 32, Type (0, 0), BuildingBlock: OJICUG_clean_linker_0, # of connection points: 2
#     Edge 33, Type (0, 0), BuildingBlock: OJICUG_clean_linker_0, # of connection points: 2
#     Edge 34, Type (0, 0), BuildingBlock: OJICUG_clean_linker_0, # of connection points: 2
#     Edge 35, Type (0, 0), BuildingBlock: OJICUG_clean_linker_0, # of connection points: 2
#     Edge 36, Type (0, 0), BuildingBlock: OJICUG_clean_linker_0, # of connection points: 2
#     Edge 37, Type (0, 0), BuildingBlock: OJICUG_clean_linker_0, # of connection points: 2
#     Edge 38, Type (0, 0), BuildingBlock: OJICUG_clean_linker_0, # of connection points: 2
#     Edge 39, Type (0, 0), BuildingBlock: OJICUG_clean_linker_0, # of connection points: 2
#     Edge 40, Type (0, 0), BuildingBlock: OJICUG_clean_linker_0, # of connection points: 2
#     Edge 41, Type (0, 0), BuildingBlock: OJICUG_clean_linker_0, # of connection points: 2
#     Edge 42, Type (0, 0), BuildingBlock: OJICUG_clean_linker_0, # of connection points: 2
#     Edge 43, Type (0, 0), BuildingBlock: OJICUG_clean_linker_0, # of connection points: 2
#     Edge 44, Type (0, 0), BuildingBlock: OJICUG_clean_linker_0, # of connection points: 2
#     Edge 45, Type (0, 0), BuildingBlock: OJICUG_clean_linker_0, # of connection points: 2
#     Edge 46, Type (0, 0), BuildingBlock: OJICUG_clean_linker_0, # of connection points: 2
#     Edge 47, Type (0, 0), BuildingBlock: OJICUG_clean_linker_0, # of connection points: 2
#     Edge 48, Type (0, 0), BuildingBlock: OJICUG_clean_linker_0, # of connection points: 2
#     Edge 49, Type (0, 0), BuildingBlock: OJICUG_clean_linker_0, # of connection points: 2
#     Edge 50, Type (0, 0), BuildingBlock: OJICUG_clean_linker_0, # of connection points: 2
#     Edge 51, Type (0, 0), BuildingBlock: OJICUG_clean_linker_0, # of connection points: 2
#     Edge 52, Type (0, 0), BuildingBlock: OJICUG_clean_linker_0, # of connection points: 2
#     Edge 53, Type (0, 0), BuildingBlock: OJICUG_clean_linker_0, # of connection points: 2
#     Edge 54, Type (0, 0), BuildingBlock: OJICUG_clean_linker_0, # of connection points: 2
#     Edge 55, Type (0, 0), BuildingBlock: OJICUG_clean_linker_0, # of connection points: 2
# Relax obj value: 0.378
# Max RMSD: 0.203
# Mean RMSD: 0.203
data_MOF--net-zfx--node1-XOMCOT_clean_sbu_1--edge1-OJICUG_clean_linker_0
_symmetry_space_group_name_H-M    P1
_symmetry_Int_Tables_number       1
_symmetry_cell_setting            triclinic
loop_
_symmetry_equiv_pos_as_xyz
'x, y, z'
_cell_length_a     48.375105
_cell_length_b     48.573969
_cell_length_c     17.858009
_cell_angle_alpha  90.111938
_cell_angle_beta   89.827207
_cell_angle_gamma 89.904579
loop_
_atom_site_label
_atom_site_type_symbol
_atom_site_fract_x
_atom_site_fract_y
_atom_site_fract_z
_atom_type_partial_charge
C0 C 0.57564 0.1634 0.38138 0.0
C1 C 0.59654 0.16321 0.43423 0.0
N2 N 0.58482 0.15987 0.50219 0.0
N3 N 0.55113 0.16074 0.41681 0.0
C4 C 0.55749 0.15892 0.48982 0.0
H5 H 0.5782 0.16454 0.32128 0.0
Co6 Co 0.51587 0.15486 0.38111 0.0
C7 C 0.48751 0.19823 0.4792 0.0
O8 O 0.48065 0.21334 0.42125 0.0
N9 N 0.47972 0.14799 0.34588 0.0
C10 C 0.44274 0.12571 0.30282 0.0
C11 C 0.4667 0.12331 0.34275 0.0
C12 C 0.46269 0.16509 0.3083 0.0
N13 N 0.44043 0.15193 0.2804 0.0
O14 O 0.51971 0.18789 0.31702 0.0
H15 H 0.47476 0.10395 0.36262 0.0
H16 H 0.46783 0.18615 0.2946 0.0
O17 O 0.50074 0.17568 0.46859 0.0
C18 C 0.52293 0.18255 0.2469 0.0
O19 O 0.52004 0.15693 0.22461 0.0
N20 N 0.51506 0.12163 0.43434 0.0
C21 C 0.51535 0.06738 0.48491 0.0
C22 C 0.50145 0.08805 0.52566 0.0
C23 C 0.50136 0.11524 0.49901 0.0
C24 C 0.52961 0.10205 0.39623 0.0
C25 C 0.52988 0.07481 0.42018 0.0
H26 H 0.48967 0.13077 0.52882 0.0
H27 H 0.54029 0.10758 0.34513 0.0
H28 H 0.5422 0.15643 0.5335 0.0
H29 H 0.61851 0.16474 0.42342 0.0
H30 H 0.42946 0.10896 0.28548 0.0
H31 H 0.48997 0.08304 0.57596 0.0
H32 H 0.54117 0.0596 0.38779 0.0
C33 C 0.137 0.31224 0.65393 0.0
C34 C 0.13577 0.33207 0.70937 0.0
N35 N 0.11525 0.32523 0.75686 0.0
N36 N 0.11761 0.29295 0.66782 0.0
C37 C 0.10371 0.30239 0.72794 0.0
H38 H 0.15341 0.30993 0.61308 0.0
Co39 Co 0.1187 0.25653 0.63568 0.0
C40 C 0.10013 0.23409 0.79111 0.0
O41 O 0.12545 0.22901 0.8129 0.0
N42 N 0.11975 0.22001 0.60338 0.0
C43 C 0.12326 0.17436 0.59625 0.0
C44 C 0.12122 0.19653 0.64386 0.0
C45 C 0.12147 0.21159 0.53176 0.0
N46 N 0.12379 0.18408 0.52597 0.0
O47 O 0.08505 0.26336 0.57573 0.0
H48 H 0.12126 0.19524 0.70399 0.0
H49 H 0.12073 0.22525 0.48423 0.0
O50 O 0.09561 0.24382 0.72507 0.0
C51 C 0.09088 0.27289 0.51041 0.0
O52 O 0.11704 0.27663 0.49329 0.0
N53 N 0.15397 0.25187 0.68376 0.0
C54 C 0.20997 0.25195 0.72652 0.0
C55 C 0.18954 0.26359 0.77287 0.0
C56 C 0.16186 0.2638 0.74989 0.0
C57 C 0.1739 0.24125 0.63742 0.0
C58 C 0.20169 0.24057 0.65816 0.0
H59 H 0.14694 0.27419 0.78487 0.0
H60 H 0.16875 0.23451 0.58164 0.0
H61 H 0.08775 0.29093 0.7565 0.0
H62 H 0.15101 0.34793 0.71948 0.0
H63 H 0.12407 0.15284 0.61181 0.0
H64 H 0.1949 0.27296 0.82592 0.0
H65 H 0.21673 0.23245 0.61885 0.0
C66 C 0.95886 0.88481 0.89922 0.0
C67 C 0.93447 0.88415 0.93875 0.0
N68 N 0.93248 0.85942 0.97226 0.0
N69 N 0.97258 0.86098 0.91036 0.0
C70 C 0.95509 0.84528 0.95003 0.0
H71 H 0.96755 0.90272 0.87214 0.0
Co72 Co 0.00996 0.85614 0.89206 0.0
C73 C 0.00996 0.8274 0.05433 0.0
O74 O 0.98654 0.83645 0.08246 0.0
N75 N 0.04725 0.85235 0.872 0.0
C76 C 0.09312 0.85485 0.88072 0.0
C77 C 0.06874 0.85263 0.92036 0.0
C78 C 0.05886 0.85496 0.80415 0.0
N79 N 0.08652 0.85693 0.80802 0.0
O80 O 1.0012 0.82271 0.83288 0.0
H81 H 0.06683 0.85314 0.98063 0.0
H82 H 0.04729 0.85649 0.7527 0.0
O83 O 0.01721 0.83439 0.98739 0.0
C84 C 0.99493 0.82837 0.7646 0.0
O85 O 0.99568 0.85428 0.74373 0.0
N86 N 0.01748 0.89014 0.94028 0.0
C87 C 0.02161 0.94501 0.98623 0.0
C88 C 0.01046 0.92505 0.0342 0.0
C89 C 1.00879 0.89759 1.01034 0.0
C90 C 0.02837 0.90948 0.89329 0.0
C91 C 0.03117 0.93685 0.91569 0.0
H92 H 0.99875 0.88295 0.04617 0.0
H93 H 0.03373 0.90399 0.83643 0.0
H94 H 0.96042 0.82504 0.97057 0.0
H95 H 0.92124 0.90165 0.95032 0.0
H96 H 0.11382 0.85598 0.90335 0.0
H97 H 1.00248 0.93078 0.0888 0.0
H98 H 0.03935 0.95181 0.87658 0.0
C99 C 0.39632 0.69692 0.16895 0.0
C100 C 0.39633 0.67806 0.22657 0.0
N101 N 0.41253 0.68799 0.28142 0.0
N102 N 0.41247 0.71843 0.18789 0.0
C103 C 0.42283 0.71185 0.25543 0.0
H104 H 0.38299 0.69644 0.12045 0.0
Co105 Co 0.40997 0.75309 0.14558 0.0
C106 C 0.42839 0.78377 0.29052 0.0
O107 O 0.4033 0.7915 0.30868 0.0
N108 N 0.40683 0.78791 0.10248 0.0
C109 C 0.3962 0.83165 0.0792 0.0
C110 C 0.40079 0.81249 0.13426 0.0
C111 C 0.40559 0.7927 0.02846 0.0
N112 N 0.39899 0.81898 1.01262 0.0
O113 O 0.44372 0.74557 0.08557 0.0
H114 H 0.3985 0.81633 0.19319 0.0
H115 H 0.40915 0.77714 0.98655 0.0
O116 O 0.43286 0.76995 0.22989 0.0
C117 C 0.4381 0.73307 0.02386 0.0
O118 O 0.41221 0.72655 1.01076 0.0
N119 N 0.3749 0.7579 0.19326 0.0
C120 C 0.31922 0.75945 0.23674 0.0
C121 C 0.33993 0.75334 0.28893 0.0
C122 C 0.3676 0.75168 0.26542 0.0
C123 C 0.35461 0.7626 0.14167 0.0
C124 C 0.3268 0.76373 0.1622 0.0
H125 H 0.38296 0.74517 0.30531 0.0
H126 H 0.35984 0.76465 0.08313 0.0
H127 H 0.43541 0.72547 0.28882 0.0
H128 H 0.38332 0.66002 0.23097 0.0
H129 H 0.39077 0.85306 0.08766 0.0
H130 H 0.33466 0.74897 0.34669 0.0
H131 H 0.31131 0.76775 0.11991 0.0
C132 C 0.56712 0.87939 0.65576 0.0
C133 C 0.58965 0.87608 0.60906 0.0
N134 N 0.58492 0.85405 0.56515 0.0
N135 N 0.54812 0.86003 0.63907 0.0
C136 C 0.56 0.84439 0.58579 0.0
H137 H 0.56344 0.89668 0.69275 0.0
Co138 Co 0.51075 0.86174 0.66087 0.0
C139 C 0.48639 0.84566 0.5094 0.0
O140 O 0.47548 0.87023 0.50243 0.0
N141 N 0.47223 0.86371 0.68193 0.0
C142 C 0.42796 0.87713 0.68746 0.0
C143 C 0.45294 0.88097 0.6526 0.0
C144 C 0.45782 0.8489 0.7324 0.0
N145 N 0.43119 0.8567 0.73665 0.0
O146 O 0.51524 0.82791 0.72126 0.0
H147 H 0.45664 0.89656 0.61083 0.0
H148 H 0.46667 0.83364 0.76907 0.0
O149 O 0.50079 0.83978 0.56783 0.0
C150 C 0.52015 0.83334 0.79057 0.0
O151 O 0.51797 0.85907 0.81271 0.0
N152 N 0.50959 0.89651 0.61338 0.0
C153 C 0.51288 0.95196 0.57095 0.0
C154 C 0.5209 0.93079 0.5213 0.0
C155 C 0.51959 0.90318 0.54411 0.0
C156 C 0.5036 0.91686 0.66365 0.0
C157 C 0.50423 0.94449 0.6431 0.0
H158 H 0.52718 0.88726 0.50692 0.0
H159 H 0.49799 0.9115 0.72047 0.0
H160 H 0.54931 0.82828 0.55571 0.0
H161 H 0.60686 0.89014 0.60306 0.0
H162 H 0.40936 0.88927 0.68029 0.0
H163 H 0.5289 0.93548 0.46611 0.0
H164 H 0.49791 0.95978 0.68387 0.0
C165 C 0.41939 0.3266 0.87326 0.0
C166 C 0.41758 0.34621 0.81752 0.0
N167 N 0.41582 0.33304 0.75123 0.0
N168 N 0.41929 0.30133 0.84169 0.0
C169 C 0.41709 0.30608 0.76775 0.0
H170 H 0.42011 0.33067 0.93269 0.0
Co171 Co 0.41751 0.26641 0.88341 0.0
C172 C 0.45775 0.2351 0.78273 0.0
O173 O 0.47114 0.22531 0.84081 0.0
N174 N 0.41465 0.23142 0.92386 0.0
C175 C 0.40608 0.18691 0.94021 0.0
C176 C 0.40978 0.20739 0.88813 0.0
C177 C 0.41335 0.22511 0.99703 0.0
N178 N 0.40827 0.19822 1.00887 0.0
O179 O 0.45211 0.27326 0.93942 0.0
H180 H 0.40855 0.2049 0.82808 0.0
H181 H 0.41639 0.23983 0.04123 0.0
O182 O 0.43713 0.25122 0.79362 0.0
C183 C 0.44685 0.28367 1.00427 0.0
O184 O 0.42094 0.28889 0.02157 0.0
N185 N 0.38276 0.26158 0.83949 0.0
C186 C 0.32707 0.25823 0.79922 0.0
C187 C 0.34792 0.24809 0.75125 0.0
C188 C 0.37579 0.25001 0.77239 0.0
C189 C 0.36287 0.27136 0.88657 0.0
C190 C 0.33499 0.26992 0.8677 0.0
H191 H 0.39157 0.24218 0.73504 0.0
H192 H 0.36882 0.28026 0.93969 0.0
H193 H 0.41634 0.2899 0.72633 0.0
H194 H 0.41724 0.3683 0.82531 0.0
H195 H 0.40209 0.16544 0.92822 0.0
H196 H 0.34277 0.23906 0.69761 0.0
H197 H 0.31975 0.27755 0.90717 0.0
C198 C 0.95673 0.13323 0.13296 0.0
C199 C 0.93633 0.13441 0.07905 0.0
N200 N 0.94267 0.15492 0.03143 0.0
N201 N 0.97592 0.1526 0.1178 0.0
C202 C 0.9658 0.16649 0.05882 0.0
H203 H 0.95943 0.11693 0.17347 0.0
Co204 Co 0.01274 0.15236 0.1479 0.0
C205 C 0.03253 0.17112 0.99006 0.0
O206 O 0.03465 0.14591 0.96474 0.0
N207 N 0.04961 0.15255 0.17782 0.0
C208 C 0.09559 0.1504 0.18033 0.0
C209 C 0.07274 0.15178 0.13496 0.0
C210 C 0.05892 0.1512 0.24856 0.0
N211 N 0.08665 0.14961 0.2515 0.0
O212 O 1.0053 0.18571 0.20858 0.0
H213 H 0.07323 0.15156 0.07462 0.0
H214 H 0.04574 0.15143 0.29742 0.0
O215 O 0.02473 0.17552 0.05821 0.0
C216 C 0.99652 0.17956 0.27454 0.0
O217 O 0.99392 0.15338 0.2915 0.0
N218 N 0.01821 0.117 0.09919 0.0
C219 C 0.02051 0.06133 0.05585 0.0
C220 C 1.00532 0.08041 1.01409 0.0
C221 C 1.00433 0.10804 0.03683 0.0
C222 C 0.03199 0.09796 0.14172 0.0
C223 C 0.03416 0.07045 0.11989 0.0
H224 H 0.99179 0.12197 1.00466 0.0
H225 H 0.04038 0.1034 0.19552 0.0
H226 H 0.97694 0.18249 0.02972 0.0
H227 H 0.9204 0.11916 0.06985 0.0
H228 H 0.11702 0.14999 0.16267 0.0
H229 H 0.99398 0.07395 0.9649 0.0
H230 H 0.04521 0.05608 0.15525 0.0
C231 C 0.13145 0.70712 0.39678 0.0
C232 C 0.13062 0.68723 0.34161 0.0
N233 N 0.10999 0.69371 0.29439 0.0
N234 N 0.11164 0.72604 0.38317 0.0
C235 C 0.098 0.71641 0.32318 0.0
H236 H 0.14778 0.70972 0.43742 0.0
Co237 Co 0.11256 0.7623 0.41524 0.0
C238 C 0.0929 0.78683 0.26341 0.0
O239 O 0.11758 0.79618 0.24661 0.0
N240 N 0.11404 0.79875 0.44879 0.0
C241 C 0.11745 0.84421 0.46213 0.0
C242 C 0.11259 0.82313 0.4125 0.0
C243 C 0.11988 0.80568 0.51994 0.0
N244 N 0.12235 0.83305 0.52957 0.0
O245 O 0.07944 0.75538 0.47752 0.0
H246 H 0.10819 0.82602 0.35419 0.0
H247 H 0.12197 0.79089 0.56456 0.0
O248 O 0.08882 0.7746 0.32661 0.0
C249 C 0.08594 0.74527 0.54163 0.0
O250 O 0.11224 0.74102 0.55576 0.0
N251 N 0.14713 0.76682 0.36483 0.0
C252 C 0.20285 0.76572 0.31837 0.0
C253 C 0.18148 0.75759 0.26975 0.0
C254 C 0.15394 0.7575 0.29479 0.0
C255 C 0.16777 0.77393 0.4131 0.0
C256 C 0.19543 0.77379 0.39114 0.0
H257 H 0.13825 0.74925 0.2583 0.0
H258 H 0.16312 0.77815 0.47106 0.0
H259 H 0.08175 0.72755 0.295 0.0
H260 H 0.1461 0.67151 0.33159 0.0
H261 H 0.11675 0.86602 0.44996 0.0
H262 H 0.18587 0.75081 0.2132 0.0
H263 H 0.21091 0.77876 0.43264 0.0
C264 C 0.91532 0.8202 0.39016 0.0
C265 C 0.91525 0.83968 0.33386 0.0
N266 N 0.91647 0.82635 0.26762 0.0
N267 N 0.91698 0.79498 0.35888 0.0
C268 C 0.91818 0.79947 0.28472 0.0
H269 H 0.91206 0.82402 0.44922 0.0
Co270 Co 0.90782 0.76163 0.40015 0.0
C271 C 0.92888 0.71833 0.28967 0.0
O272 O 0.90974 0.70132 0.31362 0.0
N273 N 0.89727 0.72775 0.44228 0.0
C274 C 0.87198 0.69321 0.48742 0.0
C275 C 0.87142 0.71711 0.44715 0.0
C276 C 0.91314 0.70953 0.47956 0.0
N277 N 0.89819 0.68859 0.50807 0.0
O278 O 0.93994 0.76469 0.46889 0.0
H279 H 0.85276 0.72631 0.42597 0.0
H280 H 0.93495 0.7125 0.49014 0.0
O281 O 0.93073 0.74235 0.31971 0.0
C282 C 0.93389 0.76942 0.53803 0.0
O283 O 0.90772 0.76885 0.55788 0.0
N284 N 0.87512 0.76208 0.34238 0.0
C285 C 0.82017 0.76391 0.29363 0.0
C286 C 0.8407 0.75045 0.25093 0.0
C287 C 0.8682 0.74996 0.27596 0.0
C288 C 0.85597 0.77711 0.381 0.0
C289 C 0.82845 0.77803 0.35835 0.0
H290 H 0.88343 0.73957 0.24218 0.0
H291 H 0.86186 0.787 0.43288 0.0
H292 H 0.91834 0.78312 0.24364 0.0
H293 H 0.91264 0.86166 0.34098 0.0
H294 H 0.85425 0.68115 0.50446 0.0
H295 H 0.83556 0.74012 0.19905 0.0
H296 H 0.81363 0.78862 0.39368 0.0
C297 C 0.63421 0.20114 0.89273 0.0
C298 C 0.63435 0.17843 0.84634 0.0
N299 N 0.61418 0.18179 0.79561 0.0
N300 N 0.61465 0.21894 0.8691 0.0
C301 C 0.60226 0.20617 0.81138 0.0
H302 H 0.64946 0.20586 0.93499 0.0
Co303 Co 0.61342 0.25584 0.89506 0.0
C304 C 0.59524 0.2753 0.73734 0.0
O305 O 0.62061 0.2814 0.71777 0.0
N306 N 0.6124 0.2928 0.92307 0.0
C307 C 0.61553 0.3385 0.92887 0.0
C308 C 0.6119 0.31622 0.88215 0.0
C309 C 0.61626 0.30139 0.99383 0.0
N310 N 0.61883 0.32889 0.99878 0.0
O311 O 0.57979 0.24848 0.95512 0.0
H312 H 0.61005 0.31736 0.82218 0.0
H313 H 0.61797 0.28768 0.04103 0.0
O314 O 0.59026 0.26573 0.80341 0.0
C315 C 0.58549 0.23984 0.02136 0.0
O316 O 0.61165 0.23705 0.03952 0.0
N317 N 0.64871 0.26125 0.84645 0.0
C318 C 0.70461 0.26219 0.80305 0.0
C319 C 0.68506 0.24781 0.76054 0.0
C320 C 0.65728 0.24752 0.78331 0.0
C321 C 0.66805 0.27443 0.8893 0.0
C322 C 0.69572 0.27585 0.86761 0.0
H323 H 0.6428 0.23577 0.75055 0.0
H324 H 0.66273 0.28276 0.94329 0.0
H325 H 0.58728 0.21592 0.77518 0.0
H326 H 0.64971 0.1622 0.8452 0.0
H327 H 0.61617 0.35995 0.91267 0.0
H328 H 0.69123 0.23664 0.71066 0.0
H329 H 0.71036 0.28634 0.90346 0.0
C330 C 0.628 0.81469 0.15965 0.0
C331 C 0.62712 0.83401 0.21642 0.0
N332 N 0.60762 0.82618 0.26586 0.0
N333 N 0.60935 0.79477 0.17437 0.0
C334 C 0.59628 0.80323 0.23693 0.0
H335 H 0.64372 0.81325 0.1166 0.0
Co336 Co 0.61109 0.75883 0.13869 0.0
C337 C 0.5939 0.7331 0.29121 0.0
O338 O 0.61944 0.7266 0.30825 0.0
N339 N 0.61305 0.72276 0.10229 0.0
C340 C 0.61994 0.67766 0.08902 0.0
C341 C 0.61539 0.6986 0.13936 0.0
C342 C 0.61637 0.7159 0.02978 0.0
N343 N 0.62094 0.68877 0.02029 0.0
O344 O 0.57711 0.7656 0.07984 0.0
H345 H 0.6147 0.69599 0.19903 0.0
H346 H 0.61575 0.73052 0.98442 0.0
O347 O 0.58864 0.74471 0.22786 0.0
C348 C 0.58263 0.77622 1.01556 0.0
O349 O 0.60865 0.78113 0.99911 0.0
N350 N 0.6466 0.75446 0.18557 0.0
C351 C 0.70273 0.75586 0.22622 0.0
C352 C 0.6822 0.76588 0.27493 0.0
C353 C 0.65434 0.76527 0.25327 0.0
C354 C 0.66667 0.74555 0.13707 0.0
C355 C 0.69453 0.74541 0.15681 0.0
H356 H 0.63916 0.77418 0.29045 0.0
H357 H 0.66153 0.73986 0.08047 0.0
H358 H 0.58106 0.79112 0.26645 0.0
H359 H 0.64194 0.85035 0.22545 0.0
H360 H 0.62243 0.65604 0.10189 0.0
H361 H 0.68764 0.77457 0.3288 0.0
H362 H 0.7097 0.73852 0.1161 0.0
C363 C 0.89069 0.19924 0.64426 0.0
C364 C 0.89268 0.17664 0.6906 0.0
N365 N 0.91489 0.1802 0.73475 0.0
N366 N 0.91098 0.21718 0.66168 0.0
C367 C 0.92594 0.20451 0.71476 0.0
H368 H 0.87381 0.20374 0.60659 0.0
Co369 Co 0.91202 0.25407 0.63595 0.0
C370 C 0.93177 0.27247 0.79368 0.0
O371 O 0.90652 0.27741 0.81667 0.0
N372 N 0.91316 0.29105 0.60866 0.0
C373 C 0.91239 0.33686 0.60471 0.0
C374 C 0.91437 0.31423 0.65068 0.0
C375 C 0.9102 0.30011 0.53809 0.0
N376 N 0.9093 0.32773 0.53418 0.0
O377 O 0.94503 0.24637 0.57334 0.0
H378 H 0.91601 0.31496 0.7108 0.0
H379 H 0.9086 0.28674 0.49 0.0
O380 O 0.93607 0.26382 0.72622 0.0
C381 C 0.93864 0.23793 0.50727 0.0
O382 O 0.91231 0.23563 0.49064 0.0
N383 N 0.87719 0.25985 0.68715 0.0
C384 C 0.82159 0.26158 0.73331 0.0
C385 C 0.84106 0.24612 0.77321 0.0
C386 C 0.8687 0.24546 0.74917 0.0
C387 C 0.85789 0.27418 0.64691 0.0
C388 C 0.8304 0.27598 0.67009 0.0
H389 H 0.88307 0.23273 0.77974 0.0
H390 H 0.86302 0.28317 0.59366 0.0
H391 H 0.94269 0.21423 0.74481 0.0
H392 H 0.87779 0.16014 0.69582 0.0
H393 H 0.91316 0.35826 0.62162 0.0
H394 H 0.83491 0.23434 0.8219 0.0
H395 H 0.81578 0.28734 0.63619 0.0
C396 C 0.0704 0.63713 0.90603 0.0
C397 C 0.0922 0.6413 0.95421 0.0
N398 N 0.08559 0.66257 0.99918 0.0
N399 N 0.05003 0.65515 0.92297 0.0
C400 C 0.06023 0.67086 0.97823 0.0
H401 H 0.06842 0.62046 0.86616 0.0
Co402 Co 0.01401 0.65337 0.89019 0.0
C403 C 0.98717 0.66686 0.04364 0.0
O404 O 0.98194 0.64077 0.05538 0.0
N405 N 0.97781 0.65149 0.85492 0.0
C406 C 0.93297 0.64359 0.83829 0.0
C407 C 0.95375 0.64566 0.89018 0.0
C408 C 0.97106 0.65266 0.78204 0.0
N409 N 0.94405 0.64786 0.77016 0.0
O410 O 0.01998 0.68811 0.83447 0.0
H411 H 0.95124 0.64201 0.9491 0.0
H412 H 0.98569 0.65696 0.73811 0.0
O413 O 0.99949 0.67428 0.98266 0.0
C414 C 0.03152 0.68374 0.77052 0.0
O415 O 0.03755 0.65822 0.75207 0.0
N416 N 0.01049 0.61748 0.93451 0.0
C417 C 0.01055 0.56184 0.97644 0.0
C418 C 0.02308 0.58175 0.02195 0.0
C419 C 0.02298 0.60944 0.99979 0.0
C420 C 0.99971 0.59781 0.88809 0.0
C421 C 0.99874 0.57019 0.90893 0.0
H422 H 0.03308 0.62441 0.03518 0.0
H423 H 0.99252 0.60315 0.83286 0.0
H424 H 0.04833 0.6863 1.00792 0.0
H425 H 0.11053 0.62862 0.95931 0.0
H426 H 0.91148 0.63908 0.84993 0.0
H427 H 0.03287 0.57596 0.07408 0.0
H428 H 0.98979 0.55526 0.87096 0.0
C429 C 0.4643 0.38443 0.37115 0.0
C430 C 0.44019 0.38384 0.41233 0.0
N431 N 0.44151 0.36222 0.45908 0.0
N432 N 0.48098 0.36387 0.39439 0.0
C433 C 0.46615 0.35019 0.44612 0.0
H434 H 0.47062 0.40062 0.33331 0.0
Co435 Co 0.51852 0.36189 0.37478 0.0
C436 C 0.53422 0.34081 0.53227 0.0
O437 O 0.54111 0.36558 0.55444 0.0
N438 N 0.55613 0.35999 0.35252 0.0
C439 C 0.6021 0.3575 0.34989 0.0
C440 C 0.57893 0.35578 0.39473 0.0
C441 C 0.566 0.3645 0.28327 0.0
N442 N 0.59373 0.36347 0.28007 0.0
O443 O 0.51146 0.32983 0.30909 0.0
H444 H 0.57911 0.35165 0.45395 0.0
H445 H 0.55304 0.36823 0.23529 0.0
O446 O 0.52553 0.33697 0.46477 0.0
C447 C 0.50423 0.33706 0.24269 0.0
O448 O 0.50238 0.3635 0.22811 0.0
N449 N 0.52395 0.39584 0.42933 0.0
C450 C 0.52548 0.45049 0.4809 0.0
C451 C 0.50891 0.4309 0.51682 0.0
C452 C 0.50844 0.40372 0.49023 0.0
C453 C 0.53952 0.41526 0.39318 0.0
C454 C 0.5412 0.44229 0.41918 0.0
H455 H 0.49511 0.38916 0.51808 0.0
H456 H 0.54967 0.41066 0.34097 0.0
H457 H 0.47455 0.33405 0.481 0.0
H458 H 0.42433 0.39959 0.41344 0.0
H459 H 0.6233 0.35409 0.36679 0.0
H460 H 0.49615 0.43662 0.56432 0.0
H461 H 0.55353 0.45709 0.38845 0.0
C462 C 0.07079 0.37677 0.14496 0.0
C463 C 0.09365 0.37431 0.09913 0.0
N464 N 0.08988 0.35223 0.05472 0.0
N465 N 0.0525 0.35688 0.12702 0.0
C466 C 0.06519 0.34167 0.07417 0.0
H467 H 0.0664 0.3937 0.18264 0.0
Co468 Co 0.01541 0.35651 0.15237 0.0
C469 C 0.99658 0.33681 0.99516 0.0
O470 O 0.99141 0.36198 0.97305 0.0
N471 N 0.97822 0.35608 0.1797 0.0
C472 C 0.93223 0.35716 0.18467 0.0
C473 C 0.95489 0.35482 0.13823 0.0
C474 C 0.96922 0.35949 0.25037 0.0
N475 N 0.9415 0.36053 0.25494 0.0
O476 O 0.02252 0.3237 0.21514 0.0
H477 H 0.95404 0.35274 0.07823 0.0
H478 H 0.98272 0.36112 0.29813 0.0
O479 O 1.00548 0.33245 0.06221 0.0
C480 C 0.03118 0.32998 0.28104 0.0
O481 O 0.03387 0.35618 0.2979 0.0
N482 N 0.0103 0.39105 0.10052 0.0
C483 C 0.00957 0.44605 0.05203 0.0
C484 C 0.02493 0.42615 1.01314 0.0
C485 C 0.02506 0.39882 0.03828 0.0
C486 C 0.99604 0.41076 0.13976 0.0
C487 C 0.99473 0.43799 0.1154 0.0
H488 H 0.0376 0.38406 1.0082 0.0
H489 H 0.98665 0.40613 0.19296 0.0
H490 H 0.05523 0.32519 0.04376 0.0
H491 H 0.11049 0.38886 0.09427 0.0
H492 H 0.91072 0.35628 0.1683 0.0
H493 H 0.037 0.43174 0.96432 0.0
H494 H 0.98337 0.45299 0.14836 0.0
C495 C 0.46126 0.62706 0.64403 0.0
C496 C 0.43688 0.62962 0.60534 0.0
N497 N 0.43594 0.65503 0.57525 0.0
N498 N 0.47587 0.6505 0.63644 0.0
C499 C 0.45906 0.66771 0.59941 0.0
H500 H 0.46912 0.60835 0.66889 0.0
Co501 Co 0.51317 0.65442 0.65639 0.0
C502 C 0.51362 0.68453 0.49662 0.0
O503 O 0.49051 0.67511 0.46803 0.0
N504 N 0.55041 0.65754 0.67767 0.0
C505 C 0.59637 0.65795 0.67061 0.0
C506 C 0.57219 0.65862 0.63007 0.0
C507 C 0.56171 0.65538 0.74588 0.0
N508 N 0.58946 0.65534 0.74311 0.0
O509 O 0.50452 0.68718 0.71828 0.0
H510 H 0.5707 0.65897 0.56972 0.0
H511 H 0.54992 0.65383 0.79713 0.0
O512 O 0.52095 0.6773 0.56321 0.0
C513 C 0.49809 0.68046 0.78578 0.0
O514 O 0.49833 0.65419 0.80326 0.0
N515 N 0.52063 0.62084 0.60611 0.0
C516 C 0.52498 0.56614 0.55853 0.0
C517 C 0.51447 0.58643 0.51056 0.0
C518 C 0.51266 0.61381 0.53529 0.0
C519 C 0.53086 0.60117 0.6531 0.0
C520 C 0.53375 0.57389 0.62999 0.0
H521 H 0.5032 0.6287 0.49924 0.0
H522 H 0.53567 0.60638 0.71044 0.0
H523 H 0.46523 0.68817 0.58251 0.0
H524 H 0.42258 0.6131 0.59317 0.0
H525 H 0.61725 0.65906 0.64888 0.0
H526 H 0.50717 0.58105 0.45516 0.0
H527 H 0.54143 0.55869 0.66911 0.0
C528 C 0.50808 0.01748 0.45468 0.0
C529 C 0.51426 0.038 0.50769 0.0
H530 H 0.5022 0.97457 0.43299 0.0
C531 C 0.52019 0.03014 0.58143 0.0
H532 H 0.50319 0.02299 0.39747 0.0
C533 C 0.52024 1.00229 0.60156 0.0
C534 C 0.51383 0.98163 0.54873 0.0
H535 H 0.52541 0.04549 0.62312 0.0
H536 H 0.52569 0.99703 0.6585 0.0
C537 C 0.50772 0.98968 0.47498 0.0
C538 C 0.27923 0.27865 0.79606 0.0
C539 C 0.2972 0.25665 0.77911 0.0
H540 H 0.23798 0.29455 0.7925 0.0
C541 C 0.28617 0.23297 0.74518 0.0
H542 H 0.28705 0.2974 0.82107 0.0
C543 C 0.25789 0.23127 0.72911 0.0
C544 C 0.23991 0.25325 0.74636 0.0
H545 H 0.29931 0.2155 0.73235 0.0
H546 H 0.25005 0.21258 0.70385 0.0
C547 C 0.251 0.27697 0.77997 0.0
C548 C 0.04591 0.01785 0.02405 0.0
C549 C 0.02076 0.03167 0.03635 0.0
H550 H 0.06581 0.97945 0.9976 0.0
C551 C 0.99597 0.01669 0.03385 0.0
H552 H 0.06529 0.02899 0.02607 0.0
C553 C 0.99634 0.98831 0.01987 0.0
C554 C 0.02147 0.97458 1.00658 0.0
H555 H 0.97637 0.02687 0.04396 0.0
H556 H 0.97698 0.97716 1.01801 0.0
C557 C 0.04623 0.98961 1.00819 0.0
C558 C 0.2804 0.7804 0.31019 0.0
C559 C 0.28968 0.76065 0.25865 0.0
H560 H 0.24588 0.79859 0.36624 0.0
C561 C 0.2704 0.74289 0.2254 0.0
H562 H 0.29486 0.79462 0.33555 0.0
C563 C 0.24233 0.74452 0.24434 0.0
C564 C 0.23274 0.76441 0.29585 0.0
H565 H 0.27715 0.72748 0.18535 0.0
H566 H 0.22832 0.7298 0.21941 0.0
C567 C 0.25226 0.78251 0.32785 0.0
C568 C 0.77214 0.78441 0.28843 0.0
C569 C 0.7902 0.76224 0.27365 0.0
H570 H 0.73054 0.79971 0.28581 0.0
C571 C 0.77904 0.73788 0.24356 0.0
H572 H 0.77991 0.80369 0.31031 0.0
C573 C 0.75069 0.73574 0.22899 0.0
C574 C 0.73268 0.75779 0.2447 0.0
H575 H 0.79207 0.72017 0.23275 0.0
H576 H 0.74278 0.71663 0.20624 0.0
C577 C 0.74375 0.78215 0.27458 0.0
C578 C 0.77718 0.23673 0.75982 0.0
C579 C 0.79185 0.26158 0.75383 0.0
H580 H 0.73778 0.21749 0.77824 0.0
C581 C 0.77755 0.28657 0.76279 0.0
H582 H 0.78769 0.2172 0.75223 0.0
C583 C 0.74919 0.28673 0.77831 0.0
C584 C 0.73443 0.26192 0.78339 0.0
H585 H 0.78838 0.306 0.75811 0.0
H586 H 0.73871 0.30628 0.78579 0.0
C587 C 0.74865 0.2369 0.77373 0.0
C588 C 0.03528 0.51826 1.01136 0.0
C589 C 0.01043 0.53229 0.9971 0.0
H590 H 0.05449 0.47958 0.03799 0.0
C591 C 0.98542 0.51764 0.99924 0.0
H592 H 0.05483 0.52907 1.0093 0.0
C593 C 0.9852 0.48956 1.01649 0.0
C594 C 0.01004 0.47545 0.03001 0.0
H595 H 0.96601 0.52801 0.98827 0.0
H596 H 0.96562 0.4788 0.01897 0.0
C597 C 0.03511 0.48998 0.0269 0.0
C598 C 0.50042 0.495 0.50224 0.0
C599 C 0.52517 0.47984 0.50361 0.0
H600 H 0.48117 0.53456 0.51666 0.0
C601 C 0.54993 0.49333 0.52179 0.0
H602 H 0.48114 0.48508 0.48749 0.0
C603 C 0.54989 0.52143 0.53932 0.0
C604 C 0.52522 0.53668 0.53689 0.0
H605 H 0.56927 0.48207 0.52273 0.0
H606 H 0.56917 0.53133 0.55418 0.0
C607 C 0.50049 0.52326 0.51799 0.0
C608 C 0.42415 0.14493 0.15207 0.0
C609 C 0.42504 0.16121 0.21707 0.0
H610 H 0.41836 0.14406 0.03397 0.0
C611 C 0.41523 0.18828 0.21484 0.0
H612 H 0.43184 0.12399 0.15245 0.0
C613 C 0.40701 0.19973 0.14704 0.0
C614 C 0.40933 0.18449 0.08008 0.0
H615 H 0.41552 0.20098 0.26475 0.0
H616 H 0.40044 0.22102 0.14677 0.0
C617 C 0.41647 0.15651 0.08399 0.0
C618 C 0.12425 0.17056 0.32249 0.0
C619 C 0.10265 0.15147 0.31829 0.0
H620 H 0.14839 0.19602 0.39497 0.0
C621 C 0.09329 0.13841 0.38359 0.0
H622 H 0.13177 0.18079 0.27263 0.0
C623 C 0.10283 0.14699 0.45322 0.0
C624 C 0.12156 0.16889 0.45779 0.0
H625 H 0.07686 0.12333 0.38094 0.0
H626 H 0.09336 0.13862 0.50323 0.0
C627 C 0.13359 0.17935 0.39216 0.0
C628 C 0.10569 0.86961 0.61266 0.0
C629 C 0.12275 0.84664 0.60077 0.0
H630 H 0.0807 0.89129 0.6921 0.0
C631 C 0.13461 0.8333 0.66273 0.0
H632 H 0.09657 0.88054 0.56612 0.0
C633 C 0.12538 0.83942 0.73483 0.0
C634 C 0.10443 0.85897 0.74479 0.0
H635 H 0.14854 0.81607 0.65476 0.0
H636 H 0.1319 0.82656 0.78101 0.0
C637 C 0.09652 0.8757 0.68462 0.0
C638 C 0.39561 0.81413 0.87579 0.0
C639 C 0.39859 0.83104 0.93936 0.0
H640 H 0.40424 0.80957 0.75867 0.0
C641 C 0.40552 0.85888 0.92977 0.0
H642 H 0.38921 0.79289 0.88086 0.0
C643 C 0.41296 0.86854 0.85921 0.0
C644 C 0.4137 0.85042 0.7982 0.0
H645 H 0.40783 0.8725 0.97732 0.0
H646 H 0.42108 0.88921 0.85373 0.0
C647 C 0.40364 0.82367 0.80572 0.0
C648 C 0.52406 0.81566 0.92278 0.0
C649 C 0.53066 0.81268 0.84599 0.0
H650 H 0.53449 0.80572 0.03692 0.0
C651 C 0.55138 0.7937 0.82629 0.0
H652 H 0.50831 0.83024 0.94008 0.0
C653 C 0.56674 0.78009 0.8821 0.0
C654 C 0.56135 0.78448 0.95903 0.0
H655 H 0.55733 0.79114 0.76817 0.0
H656 H 0.58399 0.76725 0.86506 0.0
C657 C 0.53897 0.8015 0.97855 0.0
C658 C 0.99069 0.81123 0.63196 0.0
C659 C 0.98453 0.80772 0.70879 0.0
H660 H 0.98039 0.80133 0.51775 0.0
C661 C 0.96458 0.78801 0.72824 0.0
H662 H 1.00588 0.82635 0.61484 0.0
C663 C 0.94958 0.77403 0.67223 0.0
C664 C 0.95451 0.77889 0.59526 0.0
H665 H 0.959 0.78498 0.78644 0.0
H666 H 0.93301 0.76041 0.68926 0.0
C667 C 0.97615 0.7968 0.57602 0.0
C668 C 0.9686 0.22105 0.31531 0.0
C669 C 0.98768 0.2002 0.33232 0.0
H670 H 0.93817 0.24938 0.35796 0.0
C671 C 0.99385 0.19541 0.40852 0.0
H672 H 0.96299 0.22498 0.25764 0.0
C673 C 0.98006 0.20981 0.46625 0.0
C674 C 0.95919 0.22889 0.44927 0.0
H675 H 1.00828 0.17929 0.42364 0.0
H676 H 0.98408 0.20429 0.52395 0.0
C677 C 0.9543 0.23494 0.37305 0.0
C678 C 0.55411 0.22207 0.21069 0.0
C679 C 0.53358 0.203 0.1911 0.0
H680 H 0.58652 0.24869 0.17188 0.0
C681 C 0.52714 0.19992 0.11435 0.0
H682 H 0.55988 0.22476 0.26881 0.0
C683 C 0.54211 0.21405 0.0585 0.0
C684 C 0.56433 0.23115 0.07796 0.0
H685 H 0.51148 0.18532 0.09716 0.0
H686 H 0.53774 0.20981 1.00015 0.0
C687 C 0.56947 0.23569 0.15485 0.0
C688 C 0.90221 0.65924 0.69872 0.0
C689 C 0.92999 0.65089 0.70005 0.0
H690 H 0.87008 0.67783 0.63477 0.0
C691 C 0.94493 0.64954 0.63239 0.0
H692 H 0.89006 0.6604 0.74955 0.0
C693 C 0.93358 0.65996 0.56685 0.0
C694 C 0.90693 0.67115 0.56774 0.0
H695 H 0.96602 0.64211 0.63089 0.0
H696 H 0.94614 0.66092 0.51662 0.0
C697 C 0.89072 0.66921 0.63283 0.0
C698 C 0.63216 0.68838 0.88621 0.0
C699 C 0.62195 0.67474 0.94985 0.0
H700 H 0.62984 0.6921 0.767 0.0
C701 C 0.60796 0.64969 0.94122 0.0
H702 H 0.64371 0.70735 0.89182 0.0
C703 C 0.60034 0.64092 0.87008 0.0
C704 C 0.60676 0.65706 0.80737 0.0
H705 H 0.6001 0.63865 0.98934 0.0
H706 H 0.58676 0.62333 0.86463 0.0
C707 C 0.62462 0.67951 0.81497 0.0
C708 C 0.60587 0.36826 0.07738 0.0
C709 C 0.62126 0.3441 0.06714 0.0
H710 H 0.58556 0.39428 0.157 0.0
C711 C 0.63453 0.33206 0.1289 0.0
H712 H 0.5958 0.37816 0.03054 0.0
C713 C 0.62849 0.3411 0.20113 0.0
C714 C 0.60919 0.36227 0.21177 0.0
H715 H 0.64733 0.31392 0.12178 0.0
H716 H 0.63617 0.32936 0.24817 0.0
C717 C 0.59996 0.37739 0.14962 0.0
C718 C 0.89614 0.33293 0.40271 0.0
C719 C 0.9098 0.3432 0.46617 0.0
H720 H 0.89567 0.33084 0.28321 0.0
C721 C 0.92846 0.36502 0.45824 0.0
H722 H 0.88115 0.31651 0.40806 0.0
C723 C 0.93658 0.37335 0.38697 0.0
C724 C 0.92609 0.35992 0.32338 0.0
H725 H 0.93904 0.37343 0.50645 0.0
H726 H 0.95304 0.38831 0.38159 0.0
C727 C 0.90424 0.34127 0.33145 0.0
C728 C 0.03442 0.31414 0.41467 0.0
C729 C 0.0404 0.30943 0.3382 0.0
H730 H 0.04481 0.3055 0.52957 0.0
C731 C 0.05976 0.28889 0.32017 0.0
H732 H 0.01979 0.33004 0.43054 0.0
C733 C 0.07453 0.27529 0.37714 0.0
C734 C 0.06982 0.28129 0.45358 0.0
H735 H 0.06525 0.28506 0.26222 0.0
H736 H 0.09089 0.26116 0.36123 0.0
C737 C 0.04867 0.3 0.47166 0.0
C738 C 0.46374 0.28259 0.13676 0.0
C739 C 0.46813 0.29062 0.06166 0.0
H740 H 0.4724 0.29017 0.25332 0.0
C741 C 0.48831 0.31062 0.04715 0.0
H742 H 0.44799 0.26749 0.14988 0.0
C743 C 0.50184 0.32401 0.10666 0.0
C744 C 0.49595 0.31742 0.18209 0.0
H745 H 0.49178 0.31771 0.99042 0.0
H746 H 0.51571 0.34086 0.09375 0.0
C747 C 0.47773 0.29556 0.19625 0.0
C748 C 0.45256 0.73202 0.88868 0.0
C749 C 0.45888 0.72631 0.96431 0.0
H750 H 0.46063 0.72294 0.77243 0.0
C751 C 0.48151 0.70909 0.97918 0.0
H752 H 0.43501 0.74498 0.87528 0.0
C753 C 0.4958 0.69601 0.92005 0.0
C754 C 0.48829 0.7003 0.84451 0.0
H755 H 0.48663 0.70383 0.03641 0.0
H756 H 0.51176 0.68118 0.93366 0.0
C757 C 0.4673 0.71947 0.8295 0.0
C758 C 0.05752 0.72652 0.73311 0.0
C759 C 0.03854 0.70573 0.71518 0.0
H760 H 0.08731 0.75553 0.69143 0.0
C761 C 0.03157 0.70195 0.63908 0.0
H762 H 0.0638 0.72959 0.7907 0.0
C763 C 0.04463 0.71721 0.58201 0.0
C764 C 0.06553 0.73614 0.59958 0.0
H765 H 0.01729 0.6858 0.62331 0.0
H766 H 0.04021 0.71232 0.52407 0.0
C767 C 0.07107 0.7413 0.67597 0.0
C768 C 0.48421 0.20393 0.6935 0.0
C769 C 0.46559 0.22595 0.7049 0.0
H770 H 0.50539 0.17774 0.61487 0.0
C771 C 0.45432 0.23869 0.64106 0.0
H772 H 0.49332 0.19346 0.74091 0.0
C773 C 0.46154 0.22981 0.56841 0.0
C774 C 0.47996 0.20763 0.55702 0.0
H775 H 0.43995 0.25565 0.64703 0.0
H776 H 0.45243 0.24029 0.521 0.0
C777 C 0.49113 0.19481 0.62087 0.0
C778 C 0.06344 0.21205 0.96907 0.0
C779 C 0.04393 0.19329 0.9413 0.0
H780 H 0.09656 0.23981 0.94252 0.0
C781 C 0.03981 0.19201 0.86315 0.0
H782 H 0.06742 0.21325 0.02865 0.0
C783 C 0.05615 0.20761 0.81367 0.0
C784 C 0.07746 0.22435 0.84124 0.0
H785 H 0.02502 0.17761 0.83999 0.0
H786 H 0.0537 0.20471 0.7539 0.0
C787 C 0.08022 0.22714 0.91955 0.0
C788 C 0.05634 0.80503 0.08134 0.0
C789 C 0.02984 0.81294 0.10579 0.0
H790 H 0.09673 0.79068 0.11166 0.0
C791 C 0.0232 0.80875 0.18218 0.0
H792 H 0.06211 0.80696 0.02305 0.0
C793 C 0.04298 0.79864 0.23313 0.0
C794 C 0.07006 0.79278 0.2093 0.0
H795 H 1.00293 0.81422 0.20347 0.0
H796 H 0.03748 0.79683 0.29176 0.0
C797 C 0.0762 0.79545 0.13238 0.0
C798 C 0.45278 0.78448 0.41415 0.0
C799 C 0.45107 0.7938 0.33956 0.0
H800 H 0.46639 0.79304 0.52663 0.0
C801 C 0.46546 0.81779 0.31991 0.0
H802 H 0.44127 0.76643 0.43135 0.0
C803 C 0.47928 0.8333 0.37471 0.0
C804 C 0.47944 0.82503 0.45034 0.0
H805 H 0.46389 0.82591 0.26362 0.0
H806 H 0.48826 0.85287 0.3588 0.0
C807 C 0.46716 0.79972 0.46882 0.0
C808 C 0.60192 0.86839 0.44106 0.0
C809 C 0.59744 0.84761 0.49452 0.0
H810 H 0.60845 0.87762 0.3245 0.0
C811 C 0.59956 0.82 0.47296 0.0
H812 H 0.5999 0.88987 0.45647 0.0
C813 C 0.60394 0.81311 0.39836 0.0
C814 C 0.60621 0.83375 0.34355 0.0
H815 H 0.59611 0.80376 0.51341 0.0
H816 H 0.60462 0.79153 0.38328 0.0
C817 C 0.6064 0.86146 0.36579 0.0
C818 C 0.90489 0.821 0.13384 0.0
C819 C 0.91445 0.83753 0.19332 0.0
H820 H 0.90311 0.81547 1.01479 0.0
C821 C 0.92423 0.86407 0.17773 0.0
H822 H 0.89615 0.80086 0.14396 0.0
C823 C 0.92708 0.87273 0.10366 0.0
C824 C 0.92038 0.85489 0.04429 0.0
H825 H 0.93162 0.87727 0.22222 0.0
H826 H 0.93708 0.89225 0.09268 0.0
C827 C 0.9082 0.82948 0.05991 0.0
C828 C 0.94843 0.16308 0.82458 0.0
C829 C 0.92081 0.16698 0.80442 0.0
H830 H 0.97697 0.15602 0.91279 0.0
C831 C 0.8999 0.16343 0.85853 0.0
H832 H 0.96476 0.16582 0.78365 0.0
C833 C 0.90686 0.15813 0.93329 0.0
C834 C 0.93473 0.15657 0.95419 0.0
H835 H 0.87844 0.16683 0.84412 0.0
H836 H 0.89073 0.15689 0.9753 0.0
C837 C 0.95533 0.15788 0.89858 0.0
C838 C 0.58388 0.14557 0.63428 0.0
C839 C 0.59746 0.15906 0.57486 0.0
H840 H 0.57882 0.14264 0.75339 0.0
C841 C 0.62087 0.17506 0.59029 0.0
H842 H 0.56629 0.13238 0.62387 0.0
C843 C 0.62848 0.18005 0.66447 0.0
C844 C 0.6127 0.16921 0.72356 0.0
H845 H 0.63174 0.1856 0.54574 0.0
H846 H 0.64512 0.1943 0.6759 0.0
C847 C 0.5912 0.15098 0.70821 0.0
C848 C 0.98675 0.70365 0.14607 0.0
C849 C 0.97265 0.68664 0.09467 0.0
H850 H 0.98405 0.72762 0.24829 0.0
C851 C 0.94401 0.68332 0.10401 0.0
H852 H 1.00894 0.70611 0.14157 0.0
C853 C 0.93006 0.69498 0.16504 0.0
C854 C 0.94412 0.71058 0.21929 0.0
H855 H 0.93254 0.67016 0.06619 0.0
H856 H 0.90818 0.6908 0.17133 0.0
C857 C 0.97253 0.71577 0.20758 0.0
C858 C 0.54482 0.71796 0.32118 0.0
C859 C 0.57168 0.72454 0.34495 0.0
H860 H 0.5056 0.7002 0.34985 0.0
C861 C 0.57824 0.72041 0.42107 0.0
H862 H 0.53899 0.72085 0.26321 0.0
C863 C 0.55907 0.70884 0.47115 0.0
C864 C 0.53282 0.70049 0.44651 0.0
H865 H 0.59858 0.72563 0.44188 0.0
H866 H 0.56518 0.70579 0.52874 0.0
C867 C 0.52571 0.70598 0.37116 0.0
C868 C 0.53796 0.32001 0.66034 0.0
C869 C 0.54251 0.31769 0.58247 0.0
H870 H 0.55026 0.30751 0.77097 0.0
C871 C 0.56067 0.29712 0.55687 0.0
H872 H 0.52437 0.33593 0.68192 0.0
C873 C 0.57596 0.28125 0.60812 0.0
C874 C 0.57295 0.28505 0.68609 0.0
H875 H 0.5651 0.29513 0.4976 0.0
H876 H 0.59164 0.26733 0.5867 0.0
C877 C 0.55273 0.30365 0.71155 0.0
C878 C 0.96845 0.29403 0.97184 0.0
C879 C 0.98669 0.31422 0.94505 0.0
H880 H 0.93675 0.2648 0.94419 0.0
C881 C 0.99031 0.31657 0.86684 0.0
H882 H 0.96475 0.29201 0.03144 0.0
C883 C 0.97468 0.30057 0.81664 0.0
C884 C 0.95451 0.2823 0.84348 0.0
H885 H 1.004 0.33216 0.84436 0.0
H886 H 0.97658 0.30439 0.75709 0.0
C887 C 0.95232 0.27852 0.92165 0.0
C888 C 0.11273 0.36044 0.85675 0.0
C889 C 0.11342 0.33276 0.83446 0.0
H890 H 0.10475 0.38858 0.94722 0.0
C891 C 0.11132 0.31202 0.88903 0.0
H892 H 0.11462 0.37667 0.81558 0.0
C893 C 0.10623 0.31871 0.96338 0.0
C894 C 0.10316 0.34623 0.98488 0.0
H895 H 0.11254 0.29048 0.87383 0.0
H896 H 0.1029 0.30235 1.00351 0.0
C897 C 0.1075 0.36718 0.93181 0.0
C898 C 0.42824 0.36972 0.66177 0.0
C899 C 0.4155 0.34437 0.67683 0.0
H900 H 0.44606 0.39566 0.5775 0.0
C901 C 0.4059 0.32832 0.61645 0.0
H902 H 0.43582 0.38256 0.70681 0.0
C903 C 0.4122 0.33564 0.54298 0.0
C904 C 0.42727 0.35954 0.52869 0.0
H905 H 0.39514 0.30913 0.62598 0.0
H906 H 0.40708 0.32171 0.49767 0.0
C907 C 0.43401 0.37729 0.58797 0.0
C908 C 0.41957 0.64267 0.44901 0.0
C909 C 0.42255 0.66238 0.50643 0.0
H910 H 0.41435 0.63564 0.33117 0.0
C911 C 0.4183 0.69025 0.48978 0.0
H912 H 0.42308 0.62103 0.45977 0.0
C913 C 0.41385 0.69851 0.41621 0.0
C914 C 0.41341 0.67903 0.35788 0.0
H915 H 0.42033 0.70576 0.53305 0.0
H916 H 0.41173 0.72027 0.40466 0.0
C917 C 0.41494 0.65097 0.37523 0.0
C918 C 0.10955 0.65773 0.1965 0.0
C919 C 0.10789 0.68552 0.21744 0.0
H920 H 0.10383 0.62841 0.10773 0.0
C921 C 0.10355 0.70563 0.16211 0.0
H922 H 0.11322 0.64201 0.23822 0.0
C923 C 0.09858 0.698 0.08853 0.0
C924 C 0.09805 0.67019 0.06855 0.0
H925 H 0.10312 0.72732 0.17604 0.0
H926 H 0.09363 0.71373 0.04774 0.0
C927 C 0.10456 0.65006 0.12217 0.0
loop_
_geom_bond_atom_site_label_1
_geom_bond_atom_site_label_2
_geom_bond_distance
_geom_bond_site_symmetry_2
_ccdc_geom_bond_type
C0 C1 1.351 . S
C0 N3 1.368 . S
C0 H5 0.931 . S
C1 C0 1.351 . S
C1 N2 1.373 . S
C1 H29 0.930 . S
N2 C1 1.373 . S
N2 C4 1.340 . S
N3 C0 1.368 . S
N3 C4 1.321 . S
N3 Co6 2.135 . S
C4 N2 1.340 . S
C4 N3 1.321 . S
C4 H28 0.930 . S
H5 C0 0.931 . S
Co6 N3 2.135 . S
Co6 N9 2.121 . S
Co6 O14 2.055 . S
Co6 O17 2.039 . S
Co6 N20 2.140 . S
C7 O8 1.227 . S
C7 O17 1.265 . S
O8 C7 1.227 . S
N9 Co6 2.121 . S
N9 C11 1.375 . S
N9 C12 1.313 . S
C10 C11 1.338 . S
C10 N13 1.377 . S
C10 H30 0.930 . S
C11 N9 1.375 . S
C11 C10 1.338 . S
C11 H15 0.931 . S
C12 N9 1.313 . S
C12 N13 1.344 . S
C12 H16 0.930 . S
N13 C10 1.377 . S
N13 C12 1.344 . S
O14 Co6 2.055 . S
O14 C18 1.253 . S
H15 C11 0.931 . S
H16 C12 0.930 . S
O17 Co6 2.039 . S
O17 C7 1.265 . S
C18 O14 1.253 . S
C18 O19 1.227 . S
O19 C18 1.227 . S
N20 Co6 2.140 . S
N20 C23 1.346 . S
N20 C24 1.345 . S
C21 C22 1.387 . S
C21 C25 1.391 . S
C22 C21 1.387 . S
C22 C23 1.369 . S
C22 H31 0.929 . S
C23 N20 1.346 . S
C23 C22 1.369 . S
C23 H26 0.928 . S
C24 N20 1.345 . S
C24 C25 1.371 . S
C24 H27 0.931 . S
C25 C21 1.391 . S
C25 C24 1.371 . S
C25 H32 0.930 . S
H26 C23 0.928 . S
H27 C24 0.931 . S
H28 C4 0.930 . S
H29 C1 0.930 . S
H30 C10 0.930 . S
H31 C22 0.929 . S
H32 C25 0.930 . S
C33 C34 1.351 . S
C33 N36 1.368 . S
C33 H38 0.931 . S
C34 C33 1.351 . S
C34 N35 1.373 . S
C34 H62 0.930 . S
N35 C34 1.373 . S
N35 C37 1.340 . S
N36 C33 1.368 . S
N36 C37 1.321 . S
N36 Co39 2.135 . S
C37 N35 1.340 . S
C37 N36 1.321 . S
C37 H61 0.930 . S
H38 C33 0.931 . S
Co39 N36 2.135 . S
Co39 N42 2.121 . S
Co39 O47 2.055 . S
Co39 O50 2.039 . S
Co39 N53 2.140 . S
C40 O41 1.227 . S
C40 O50 1.265 . S
O41 C40 1.227 . S
N42 Co39 2.121 . S
N42 C44 1.375 . S
N42 C45 1.313 . S
C43 C44 1.338 . S
C43 N46 1.377 . S
C43 H63 0.930 . S
C44 N42 1.375 . S
C44 C43 1.338 . S
C44 H48 0.931 . S
C45 N42 1.313 . S
C45 N46 1.344 . S
C45 H49 0.930 . S
N46 C43 1.377 . S
N46 C45 1.344 . S
O47 Co39 2.055 . S
O47 C51 1.253 . S
H48 C44 0.931 . S
H49 C45 0.930 . S
O50 Co39 2.039 . S
O50 C40 1.265 . S
C51 O47 1.253 . S
C51 O52 1.227 . S
O52 C51 1.227 . S
N53 Co39 2.140 . S
N53 C56 1.346 . S
N53 C57 1.345 . S
C54 C55 1.387 . S
C54 C58 1.391 . S
C55 C54 1.387 . S
C55 C56 1.369 . S
C55 H64 0.929 . S
C56 N53 1.346 . S
C56 C55 1.369 . S
C56 H59 0.928 . S
C57 N53 1.345 . S
C57 C58 1.371 . S
C57 H60 0.931 . S
C58 C54 1.391 . S
C58 C57 1.371 . S
C58 H65 0.930 . S
H59 C56 0.928 . S
H60 C57 0.931 . S
H61 C37 0.930 . S
H62 C34 0.930 . S
H63 C43 0.930 . S
H64 C55 0.929 . S
H65 C58 0.930 . S
C66 C67 1.351 . S
C66 N69 1.368 . S
C66 H71 0.931 . S
C67 C66 1.351 . S
C67 N68 1.373 1_556 S
C67 H95 0.930 . S
N68 C67 1.373 1_554 S
N68 C70 1.340 . S
N69 C66 1.368 . S
N69 C70 1.321 1_556 S
N69 Co72 2.135 1_655 S
C70 N68 1.340 . S
C70 N69 1.321 1_554 S
C70 H94 0.930 . S
H71 C66 0.931 . S
Co72 N69 2.135 1_455 S
Co72 N75 2.121 . S
Co72 O80 2.055 1_455 S
Co72 O83 2.039 . S
Co72 N86 2.140 . S
C73 O74 1.227 1_556 S
C73 O83 1.265 . S
O74 C73 1.227 1_554 S
N75 Co72 2.121 . S
N75 C77 1.375 . S
N75 C78 1.313 . S
C76 C77 1.338 . S
C76 N79 1.377 . S
C76 H96 0.930 . S
C77 N75 1.375 . S
C77 C76 1.338 . S
C77 H81 0.931 . S
C78 N75 1.313 . S
C78 N79 1.344 . S
C78 H82 0.930 . S
N79 C76 1.377 . S
N79 C78 1.344 . S
O80 Co72 2.055 1_655 S
O80 C84 1.253 . S
H81 C77 0.931 . S
H82 C78 0.930 . S
O83 Co72 2.039 . S
O83 C73 1.265 . S
C84 O80 1.253 . S
C84 O85 1.227 . S
O85 C84 1.227 . S
N86 Co72 2.140 . S
N86 C89 1.346 . S
N86 C90 1.345 . S
C87 C88 1.387 . S
C87 C91 1.391 . S
C88 C87 1.387 . S
C88 C89 1.369 . S
C88 H97 0.927 1_456 S
C89 N86 1.346 . S
C89 C88 1.369 . S
C89 H92 0.932 1_455 S
C90 N86 1.345 . S
C90 C91 1.371 . S
C90 H93 0.931 . S
C91 C87 1.391 . S
C91 C90 1.371 . S
C91 H98 0.930 . S
H92 C89 0.932 1_655 S
H93 C90 0.931 . S
H94 C70 0.930 . S
H95 C67 0.930 . S
H96 C76 0.930 . S
H97 C88 0.927 1_654 S
H98 C91 0.930 . S
C99 C100 1.351 . S
C99 N102 1.368 . S
C99 H104 0.931 . S
C100 C99 1.351 . S
C100 N101 1.373 . S
C100 H128 0.930 . S
N101 C100 1.373 . S
N101 C103 1.340 . S
N102 C99 1.368 . S
N102 C103 1.321 . S
N102 Co105 2.135 . S
C103 N101 1.340 . S
C103 N102 1.321 . S
C103 H127 0.930 . S
H104 C99 0.931 . S
Co105 N102 2.135 . S
Co105 N108 2.121 . S
Co105 O113 2.055 . S
Co105 O116 2.039 . S
Co105 N119 2.140 . S
C106 O107 1.227 . S
C106 O116 1.265 . S
O107 C106 1.227 . S
N108 Co105 2.121 . S
N108 C110 1.375 . S
N108 C111 1.313 1_554 S
C109 C110 1.338 . S
C109 N112 1.377 1_554 S
C109 H129 0.930 . S
C110 N108 1.375 . S
C110 C109 1.338 . S
C110 H114 0.931 . S
C111 N108 1.313 1_556 S
C111 N112 1.344 . S
C111 H115 0.930 . S
N112 C109 1.377 1_556 S
N112 C111 1.344 . S
O113 Co105 2.055 . S
O113 C117 1.253 . S
H114 C110 0.931 . S
H115 C111 0.930 . S
O116 Co105 2.039 . S
O116 C106 1.265 . S
C117 O113 1.253 . S
C117 O118 1.227 . S
O118 C117 1.227 . S
N119 Co105 2.140 . S
N119 C122 1.346 . S
N119 C123 1.345 . S
C120 C121 1.387 . S
C120 C124 1.391 . S
C121 C120 1.387 . S
C121 C122 1.369 . S
C121 H130 0.929 . S
C122 N119 1.346 . S
C122 C121 1.369 . S
C122 H125 0.928 . S
C123 N119 1.345 . S
C123 C124 1.371 . S
C123 H126 0.931 . S
C124 C120 1.391 . S
C124 C123 1.371 . S
C124 H131 0.930 . S
H125 C122 0.928 . S
H126 C123 0.931 . S
H127 C103 0.930 . S
H128 C100 0.930 . S
H129 C109 0.930 . S
H130 C121 0.929 . S
H131 C124 0.930 . S
C132 C133 1.351 . S
C132 N135 1.368 . S
C132 H137 0.931 . S
C133 C132 1.351 . S
C133 N134 1.373 . S
C133 H161 0.930 . S
N134 C133 1.373 . S
N134 C136 1.340 . S
N135 C132 1.368 . S
N135 C136 1.321 . S
N135 Co138 2.135 . S
C136 N134 1.340 . S
C136 N135 1.321 . S
C136 H160 0.930 . S
H137 C132 0.931 . S
Co138 N135 2.135 . S
Co138 N141 2.121 . S
Co138 O146 2.055 . S
Co138 O149 2.039 . S
Co138 N152 2.140 . S
C139 O140 1.227 . S
C139 O149 1.265 . S
O140 C139 1.227 . S
N141 Co138 2.121 . S
N141 C143 1.375 . S
N141 C144 1.313 . S
C142 C143 1.338 . S
C142 N145 1.377 . S
C142 H162 0.930 . S
C143 N141 1.375 . S
C143 C142 1.338 . S
C143 H147 0.931 . S
C144 N141 1.313 . S
C144 N145 1.344 . S
C144 H148 0.930 . S
N145 C142 1.377 . S
N145 C144 1.344 . S
O146 Co138 2.055 . S
O146 C150 1.253 . S
H147 C143 0.931 . S
H148 C144 0.930 . S
O149 Co138 2.039 . S
O149 C139 1.265 . S
C150 O146 1.253 . S
C150 O151 1.227 . S
O151 C150 1.227 . S
N152 Co138 2.140 . S
N152 C155 1.346 . S
N152 C156 1.345 . S
C153 C154 1.387 . S
C153 C157 1.391 . S
C154 C153 1.387 . S
C154 C155 1.369 . S
C154 H163 0.929 . S
C155 N152 1.346 . S
C155 C154 1.369 . S
C155 H158 0.928 . S
C156 N152 1.345 . S
C156 C157 1.371 . S
C156 H159 0.931 . S
C157 C153 1.391 . S
C157 C156 1.371 . S
C157 H164 0.930 . S
H158 C155 0.928 . S
H159 C156 0.931 . S
H160 C136 0.930 . S
H161 C133 0.930 . S
H162 C142 0.930 . S
H163 C154 0.929 . S
H164 C157 0.930 . S
C165 C166 1.351 . S
C165 N168 1.368 . S
C165 H170 0.931 . S
C166 C165 1.351 . S
C166 N167 1.373 . S
C166 H194 0.930 . S
N167 C166 1.373 . S
N167 C169 1.340 . S
N168 C165 1.368 . S
N168 C169 1.321 . S
N168 Co171 2.135 . S
C169 N167 1.340 . S
C169 N168 1.321 . S
C169 H193 0.930 . S
H170 C165 0.931 . S
Co171 N168 2.135 . S
Co171 N174 2.121 . S
Co171 O179 2.055 . S
Co171 O182 2.039 . S
Co171 N185 2.140 . S
C172 O173 1.227 . S
C172 O182 1.265 . S
O173 C172 1.227 . S
N174 Co171 2.121 . S
N174 C176 1.375 . S
N174 C177 1.313 1_556 S
C175 C176 1.338 . S
C175 N178 1.377 1_556 S
C175 H195 0.930 . S
C176 N174 1.375 . S
C176 C175 1.338 . S
C176 H180 0.931 . S
C177 N174 1.313 1_554 S
C177 N178 1.344 . S
C177 H181 0.930 . S
N178 C175 1.377 1_554 S
N178 C177 1.344 . S
O179 Co171 2.055 . S
O179 C183 1.253 . S
H180 C176 0.931 . S
H181 C177 0.930 . S
O182 Co171 2.039 . S
O182 C172 1.265 . S
C183 O179 1.253 . S
C183 O184 1.227 . S
O184 C183 1.227 . S
N185 Co171 2.140 . S
N185 C188 1.346 . S
N185 C189 1.345 . S
C186 C187 1.387 . S
C186 C190 1.391 . S
C187 C186 1.387 . S
C187 C188 1.369 . S
C187 H196 0.929 . S
C188 N185 1.346 . S
C188 C187 1.369 . S
C188 H191 0.928 . S
C189 N185 1.345 . S
C189 C190 1.371 . S
C189 H192 0.931 . S
C190 C186 1.391 . S
C190 C189 1.371 . S
C190 H197 0.930 . S
H191 C188 0.928 . S
H192 C189 0.931 . S
H193 C169 0.930 . S
H194 C166 0.930 . S
H195 C175 0.930 . S
H196 C187 0.929 . S
H197 C190 0.930 . S
C198 C199 1.351 . S
C198 N201 1.368 . S
C198 H203 0.931 . S
C199 C198 1.351 . S
C199 N200 1.373 1_554 S
C199 H227 0.930 . S
N200 C199 1.373 1_556 S
N200 C202 1.340 . S
N201 C198 1.368 . S
N201 C202 1.321 1_554 S
N201 Co204 2.135 1_655 S
C202 N200 1.340 . S
C202 N201 1.321 1_556 S
C202 H226 0.930 . S
H203 C198 0.931 . S
Co204 N201 2.135 1_455 S
Co204 N207 2.121 . S
Co204 O212 2.055 1_455 S
Co204 O215 2.039 . S
Co204 N218 2.140 . S
C205 O206 1.227 1_554 S
C205 O215 1.265 . S
O206 C205 1.227 1_556 S
N207 Co204 2.121 . S
N207 C209 1.375 . S
N207 C210 1.313 . S
C208 C209 1.338 . S
C208 N211 1.377 . S
C208 H228 0.930 . S
C209 N207 1.375 . S
C209 C208 1.338 . S
C209 H213 0.931 . S
C210 N207 1.313 . S
C210 N211 1.344 . S
C210 H214 0.930 . S
N211 C208 1.377 . S
N211 C210 1.344 . S
O212 Co204 2.055 1_655 S
O212 C216 1.253 . S
H213 C209 0.931 . S
H214 C210 0.930 . S
O215 Co204 2.039 . S
O215 C205 1.265 . S
C216 O212 1.253 . S
C216 O217 1.227 . S
O217 C216 1.227 . S
N218 Co204 2.140 . S
N218 C221 1.346 . S
N218 C222 1.345 . S
C219 C220 1.387 . S
C219 C223 1.391 . S
C220 C219 1.387 . S
C220 C221 1.369 . S
C220 H229 0.927 1_454 S
C221 N218 1.346 . S
C221 C220 1.369 . S
C221 H224 0.932 1_455 S
C222 N218 1.345 . S
C222 C223 1.371 . S
C222 H225 0.931 . S
C223 C219 1.391 . S
C223 C222 1.371 . S
C223 H230 0.930 . S
H224 C221 0.932 1_655 S
H225 C222 0.931 . S
H226 C202 0.930 . S
H227 C199 0.930 . S
H228 C208 0.930 . S
H229 C220 0.927 1_656 S
H230 C223 0.930 . S
C231 C232 1.351 . S
C231 N234 1.368 . S
C231 H236 0.931 . S
C232 C231 1.351 . S
C232 N233 1.373 . S
C232 H260 0.930 . S
N233 C232 1.373 . S
N233 C235 1.340 . S
N234 C231 1.368 . S
N234 C235 1.321 . S
N234 Co237 2.135 . S
C235 N233 1.340 . S
C235 N234 1.321 . S
C235 H259 0.930 . S
H236 C231 0.931 . S
Co237 N234 2.135 . S
Co237 N240 2.121 . S
Co237 O245 2.055 . S
Co237 O248 2.039 . S
Co237 N251 2.140 . S
C238 O239 1.227 . S
C238 O248 1.265 . S
O239 C238 1.227 . S
N240 Co237 2.121 . S
N240 C242 1.375 . S
N240 C243 1.313 . S
C241 C242 1.338 . S
C241 N244 1.377 . S
C241 H261 0.930 . S
C242 N240 1.375 . S
C242 C241 1.338 . S
C242 H246 0.931 . S
C243 N240 1.313 . S
C243 N244 1.344 . S
C243 H247 0.930 . S
N244 C241 1.377 . S
N244 C243 1.344 . S
O245 Co237 2.055 . S
O245 C249 1.253 . S
H246 C242 0.931 . S
H247 C243 0.930 . S
O248 Co237 2.039 . S
O248 C238 1.265 . S
C249 O245 1.253 . S
C249 O250 1.227 . S
O250 C249 1.227 . S
N251 Co237 2.140 . S
N251 C254 1.346 . S
N251 C255 1.345 . S
C252 C253 1.387 . S
C252 C256 1.391 . S
C253 C252 1.387 . S
C253 C254 1.369 . S
C253 H262 0.929 . S
C254 N251 1.346 . S
C254 C253 1.369 . S
C254 H257 0.928 . S
C255 N251 1.345 . S
C255 C256 1.371 . S
C255 H258 0.931 . S
C256 C252 1.391 . S
C256 C255 1.371 . S
C256 H263 0.930 . S
H257 C254 0.928 . S
H258 C255 0.931 . S
H259 C235 0.930 . S
H260 C232 0.930 . S
H261 C241 0.930 . S
H262 C253 0.929 . S
H263 C256 0.930 . S
C264 C265 1.351 . S
C264 N267 1.368 . S
C264 H269 0.931 . S
C265 C264 1.351 . S
C265 N266 1.373 . S
C265 H293 0.930 . S
N266 C265 1.373 . S
N266 C268 1.340 . S
N267 C264 1.368 . S
N267 C268 1.321 . S
N267 Co270 2.135 . S
C268 N266 1.340 . S
C268 N267 1.321 . S
C268 H292 0.930 . S
H269 C264 0.931 . S
Co270 N267 2.135 . S
Co270 N273 2.121 . S
Co270 O278 2.055 . S
Co270 O281 2.039 . S
Co270 N284 2.140 . S
C271 O272 1.227 . S
C271 O281 1.265 . S
O272 C271 1.227 . S
N273 Co270 2.121 . S
N273 C275 1.375 . S
N273 C276 1.313 . S
C274 C275 1.338 . S
C274 N277 1.377 . S
C274 H294 0.930 . S
C275 N273 1.375 . S
C275 C274 1.338 . S
C275 H279 0.931 . S
C276 N273 1.313 . S
C276 N277 1.344 . S
C276 H280 0.930 . S
N277 C274 1.377 . S
N277 C276 1.344 . S
O278 Co270 2.055 . S
O278 C282 1.253 . S
H279 C275 0.931 . S
H280 C276 0.930 . S
O281 Co270 2.039 . S
O281 C271 1.265 . S
C282 O278 1.253 . S
C282 O283 1.227 . S
O283 C282 1.227 . S
N284 Co270 2.140 . S
N284 C287 1.346 . S
N284 C288 1.345 . S
C285 C286 1.387 . S
C285 C289 1.391 . S
C286 C285 1.387 . S
C286 C287 1.369 . S
C286 H295 0.929 . S
C287 N284 1.346 . S
C287 C286 1.369 . S
C287 H290 0.928 . S
C288 N284 1.345 . S
C288 C289 1.371 . S
C288 H291 0.931 . S
C289 C285 1.391 . S
C289 C288 1.371 . S
C289 H296 0.930 . S
H290 C287 0.928 . S
H291 C288 0.931 . S
H292 C268 0.930 . S
H293 C265 0.930 . S
H294 C274 0.930 . S
H295 C286 0.929 . S
H296 C289 0.930 . S
C297 C298 1.351 . S
C297 N300 1.368 . S
C297 H302 0.931 . S
C298 C297 1.351 . S
C298 N299 1.373 . S
C298 H326 0.930 . S
N299 C298 1.373 . S
N299 C301 1.340 . S
N300 C297 1.368 . S
N300 C301 1.321 . S
N300 Co303 2.135 . S
C301 N299 1.340 . S
C301 N300 1.321 . S
C301 H325 0.930 . S
H302 C297 0.931 . S
Co303 N300 2.135 . S
Co303 N306 2.121 . S
Co303 O311 2.055 . S
Co303 O314 2.039 . S
Co303 N317 2.140 . S
C304 O305 1.227 . S
C304 O314 1.265 . S
O305 C304 1.227 . S
N306 Co303 2.121 . S
N306 C308 1.375 . S
N306 C309 1.313 1_556 S
C307 C308 1.338 . S
C307 N310 1.377 1_556 S
C307 H327 0.930 . S
C308 N306 1.375 . S
C308 C307 1.338 . S
C308 H312 0.931 . S
C309 N306 1.313 1_554 S
C309 N310 1.344 . S
C309 H313 0.930 . S
N310 C307 1.377 1_554 S
N310 C309 1.344 . S
O311 Co303 2.055 . S
O311 C315 1.253 . S
H312 C308 0.931 . S
H313 C309 0.930 . S
O314 Co303 2.039 . S
O314 C304 1.265 . S
C315 O311 1.253 . S
C315 O316 1.227 . S
O316 C315 1.227 . S
N317 Co303 2.140 . S
N317 C320 1.346 . S
N317 C321 1.345 . S
C318 C319 1.387 . S
C318 C322 1.391 . S
C319 C318 1.387 . S
C319 C320 1.369 . S
C319 H328 0.929 . S
C320 N317 1.346 . S
C320 C319 1.369 . S
C320 H323 0.928 . S
C321 N317 1.345 . S
C321 C322 1.371 . S
C321 H324 0.931 . S
C322 C318 1.391 . S
C322 C321 1.371 . S
C322 H329 0.930 . S
H323 C320 0.928 . S
H324 C321 0.931 . S
H325 C301 0.930 . S
H326 C298 0.930 . S
H327 C307 0.930 . S
H328 C319 0.929 . S
H329 C322 0.930 . S
C330 C331 1.351 . S
C330 N333 1.368 . S
C330 H335 0.931 . S
C331 C330 1.351 . S
C331 N332 1.373 . S
C331 H359 0.930 . S
N332 C331 1.373 . S
N332 C334 1.340 . S
N333 C330 1.368 . S
N333 C334 1.321 . S
N333 Co336 2.135 . S
C334 N332 1.340 . S
C334 N333 1.321 . S
C334 H358 0.930 . S
H335 C330 0.931 . S
Co336 N333 2.135 . S
Co336 N339 2.121 . S
Co336 O344 2.055 . S
Co336 O347 2.039 . S
Co336 N350 2.140 . S
C337 O338 1.227 . S
C337 O347 1.265 . S
O338 C337 1.227 . S
N339 Co336 2.121 . S
N339 C341 1.375 . S
N339 C342 1.313 1_554 S
C340 C341 1.338 . S
C340 N343 1.377 1_554 S
C340 H360 0.930 . S
C341 N339 1.375 . S
C341 C340 1.338 . S
C341 H345 0.931 . S
C342 N339 1.313 1_556 S
C342 N343 1.344 . S
C342 H346 0.930 . S
N343 C340 1.377 1_556 S
N343 C342 1.344 . S
O344 Co336 2.055 . S
O344 C348 1.253 . S
H345 C341 0.931 . S
H346 C342 0.930 . S
O347 Co336 2.039 . S
O347 C337 1.265 . S
C348 O344 1.253 . S
C348 O349 1.227 . S
O349 C348 1.227 . S
N350 Co336 2.140 . S
N350 C353 1.346 . S
N350 C354 1.345 . S
C351 C352 1.387 . S
C351 C355 1.391 . S
C352 C351 1.387 . S
C352 C353 1.369 . S
C352 H361 0.929 . S
C353 N350 1.346 . S
C353 C352 1.369 . S
C353 H356 0.928 . S
C354 N350 1.345 . S
C354 C355 1.371 . S
C354 H357 0.931 . S
C355 C351 1.391 . S
C355 C354 1.371 . S
C355 H362 0.930 . S
H356 C353 0.928 . S
H357 C354 0.931 . S
H358 C334 0.930 . S
H359 C331 0.930 . S
H360 C340 0.930 . S
H361 C352 0.929 . S
H362 C355 0.930 . S
C363 C364 1.351 . S
C363 N366 1.368 . S
C363 H368 0.931 . S
C364 C363 1.351 . S
C364 N365 1.373 . S
C364 H392 0.930 . S
N365 C364 1.373 . S
N365 C367 1.340 . S
N366 C363 1.368 . S
N366 C367 1.321 . S
N366 Co369 2.135 . S
C367 N365 1.340 . S
C367 N366 1.321 . S
C367 H391 0.930 . S
H368 C363 0.931 . S
Co369 N366 2.135 . S
Co369 N372 2.121 . S
Co369 O377 2.055 . S
Co369 O380 2.039 . S
Co369 N383 2.140 . S
C370 O371 1.227 . S
C370 O380 1.265 . S
O371 C370 1.227 . S
N372 Co369 2.121 . S
N372 C374 1.375 . S
N372 C375 1.313 . S
C373 C374 1.338 . S
C373 N376 1.377 . S
C373 H393 0.930 . S
C374 N372 1.375 . S
C374 C373 1.338 . S
C374 H378 0.931 . S
C375 N372 1.313 . S
C375 N376 1.344 . S
C375 H379 0.930 . S
N376 C373 1.377 . S
N376 C375 1.344 . S
O377 Co369 2.055 . S
O377 C381 1.253 . S
H378 C374 0.931 . S
H379 C375 0.930 . S
O380 Co369 2.039 . S
O380 C370 1.265 . S
C381 O377 1.253 . S
C381 O382 1.227 . S
O382 C381 1.227 . S
N383 Co369 2.140 . S
N383 C386 1.346 . S
N383 C387 1.345 . S
C384 C385 1.387 . S
C384 C388 1.391 . S
C385 C384 1.387 . S
C385 C386 1.369 . S
C385 H394 0.929 . S
C386 N383 1.346 . S
C386 C385 1.369 . S
C386 H389 0.928 . S
C387 N383 1.345 . S
C387 C388 1.371 . S
C387 H390 0.931 . S
C388 C384 1.391 . S
C388 C387 1.371 . S
C388 H395 0.930 . S
H389 C386 0.928 . S
H390 C387 0.931 . S
H391 C367 0.930 . S
H392 C364 0.930 . S
H393 C373 0.930 . S
H394 C385 0.929 . S
H395 C388 0.930 . S
C396 C397 1.351 . S
C396 N399 1.368 . S
C396 H401 0.931 . S
C397 C396 1.351 . S
C397 N398 1.373 1_556 S
C397 H425 0.930 . S
N398 C397 1.373 1_554 S
N398 C400 1.340 . S
N399 C396 1.368 . S
N399 C400 1.321 1_556 S
N399 Co402 2.135 . S
C400 N398 1.340 . S
C400 N399 1.321 1_554 S
C400 H424 0.930 . S
H401 C396 0.931 . S
Co402 N399 2.135 . S
Co402 N405 2.121 1_455 S
Co402 O410 2.055 . S
Co402 O413 2.039 1_455 S
Co402 N416 2.140 . S
C403 O404 1.227 1_556 S
C403 O413 1.265 . S
O404 C403 1.227 1_554 S
N405 Co402 2.121 1_655 S
N405 C407 1.375 . S
N405 C408 1.313 . S
C406 C407 1.338 . S
C406 N409 1.377 . S
C406 H426 0.930 . S
C407 N405 1.375 . S
C407 C406 1.338 . S
C407 H411 0.931 . S
C408 N405 1.313 . S
C408 N409 1.344 . S
C408 H412 0.930 . S
N409 C406 1.377 . S
N409 C408 1.344 . S
O410 Co402 2.055 . S
O410 C414 1.253 . S
H411 C407 0.931 . S
H412 C408 0.930 . S
O413 Co402 2.039 1_655 S
O413 C403 1.265 . S
C414 O410 1.253 . S
C414 O415 1.227 . S
O415 C414 1.227 . S
N416 Co402 2.140 . S
N416 C419 1.346 . S
N416 C420 1.351 . S
C417 C418 1.387 . S
C417 C421 1.394 . S
C418 C417 1.387 . S
C418 C419 1.369 . S
C418 H427 0.929 1_556 S
C419 N416 1.346 . S
C419 C418 1.369 . S
C419 H422 0.932 . S
C420 N416 1.351 . S
C420 C421 1.371 . S
C420 H423 0.926 1_455 S
C421 C417 1.394 . S
C421 C420 1.371 . S
C421 H428 0.927 1_455 S
H422 C419 0.932 . S
H423 C420 0.926 1_655 S
H424 C400 0.930 . S
H425 C397 0.930 . S
H426 C406 0.930 . S
H427 C418 0.929 1_554 S
H428 C421 0.927 1_655 S
C429 C430 1.351 . S
C429 N432 1.368 . S
C429 H434 0.931 . S
C430 C429 1.351 . S
C430 N431 1.373 . S
C430 H458 0.930 . S
N431 C430 1.373 . S
N431 C433 1.340 . S
N432 C429 1.368 . S
N432 C433 1.321 . S
N432 Co435 2.135 . S
C433 N431 1.340 . S
C433 N432 1.321 . S
C433 H457 0.930 . S
H434 C429 0.931 . S
Co435 N432 2.135 . S
Co435 N438 2.121 . S
Co435 O443 2.055 . S
Co435 O446 2.039 . S
Co435 N449 2.140 . S
C436 O437 1.227 . S
C436 O446 1.265 . S
O437 C436 1.227 . S
N438 Co435 2.121 . S
N438 C440 1.375 . S
N438 C441 1.313 . S
C439 C440 1.338 . S
C439 N442 1.377 . S
C439 H459 0.930 . S
C440 N438 1.375 . S
C440 C439 1.338 . S
C440 H444 0.931 . S
C441 N438 1.313 . S
C441 N442 1.344 . S
C441 H445 0.930 . S
N442 C439 1.377 . S
N442 C441 1.344 . S
O443 Co435 2.055 . S
O443 C447 1.253 . S
H444 C440 0.931 . S
H445 C441 0.930 . S
O446 Co435 2.039 . S
O446 C436 1.265 . S
C447 O443 1.253 . S
C447 O448 1.227 . S
O448 C447 1.227 . S
N449 Co435 2.140 . S
N449 C452 1.346 . S
N449 C453 1.345 . S
C450 C451 1.387 . S
C450 C454 1.391 . S
C451 C450 1.387 . S
C451 C452 1.369 . S
C451 H460 0.929 . S
C452 N449 1.346 . S
C452 C451 1.369 . S
C452 H455 0.928 . S
C453 N449 1.345 . S
C453 C454 1.371 . S
C453 H456 0.931 . S
C454 C450 1.391 . S
C454 C453 1.371 . S
C454 H461 0.930 . S
H455 C452 0.928 . S
H456 C453 0.931 . S
H457 C433 0.930 . S
H458 C430 0.930 . S
H459 C439 0.930 . S
H460 C451 0.929 . S
H461 C454 0.930 . S
C462 C463 1.351 . S
C462 N465 1.368 . S
C462 H467 0.931 . S
C463 C462 1.351 . S
C463 N464 1.373 1_554 S
C463 H491 0.930 . S
N464 C463 1.373 1_556 S
N464 C466 1.340 . S
N465 C462 1.368 . S
N465 C466 1.321 1_554 S
N465 Co468 2.135 . S
C466 N464 1.340 . S
C466 N465 1.321 1_556 S
C466 H490 0.930 . S
H467 C462 0.931 . S
Co468 N465 2.135 . S
Co468 N471 2.121 1_455 S
Co468 O476 2.055 . S
Co468 O479 2.039 1_455 S
Co468 N482 2.140 . S
C469 O470 1.227 1_554 S
C469 O479 1.265 . S
O470 C469 1.227 1_556 S
N471 Co468 2.121 1_655 S
N471 C473 1.375 . S
N471 C474 1.313 . S
C472 C473 1.338 . S
C472 N475 1.377 . S
C472 H492 0.930 . S
C473 N471 1.375 . S
C473 C472 1.338 . S
C473 H477 0.931 . S
C474 N471 1.313 . S
C474 N475 1.344 . S
C474 H478 0.930 . S
N475 C472 1.377 . S
N475 C474 1.344 . S
O476 Co468 2.055 . S
O476 C480 1.253 . S
H477 C473 0.931 . S
H478 C474 0.930 . S
O479 Co468 2.039 1_655 S
O479 C469 1.265 . S
C480 O476 1.253 . S
C480 O481 1.227 . S
O481 C480 1.227 . S
N482 Co468 2.140 . S
N482 C485 1.346 . S
N482 C486 1.351 . S
C483 C484 1.387 . S
C483 C487 1.394 . S
C484 C483 1.387 . S
C484 C485 1.369 . S
C484 H493 0.929 1_554 S
C485 N482 1.346 . S
C485 C484 1.369 . S
C485 H488 0.932 . S
C486 N482 1.351 . S
C486 C487 1.371 . S
C486 H489 0.926 1_455 S
C487 C483 1.394 . S
C487 C486 1.371 . S
C487 H494 0.927 1_455 S
H488 C485 0.932 . S
H489 C486 0.926 1_655 S
H490 C466 0.930 . S
H491 C463 0.930 . S
H492 C472 0.930 . S
H493 C484 0.929 1_556 S
H494 C487 0.927 1_655 S
C495 C496 1.351 . S
C495 N498 1.368 . S
C495 H500 0.931 . S
C496 C495 1.351 . S
C496 N497 1.373 . S
C496 H524 0.930 . S
N497 C496 1.373 . S
N497 C499 1.340 . S
N498 C495 1.368 . S
N498 C499 1.321 . S
N498 Co501 2.135 . S
C499 N497 1.340 . S
C499 N498 1.321 . S
C499 H523 0.930 . S
H500 C495 0.931 . S
Co501 N498 2.135 . S
Co501 N504 2.121 . S
Co501 O509 2.055 . S
Co501 O512 2.039 . S
Co501 N515 2.140 . S
C502 O503 1.227 . S
C502 O512 1.265 . S
O503 C502 1.227 . S
N504 Co501 2.121 . S
N504 C506 1.375 . S
N504 C507 1.313 . S
C505 C506 1.338 . S
C505 N508 1.377 . S
C505 H525 0.930 . S
C506 N504 1.375 . S
C506 C505 1.338 . S
C506 H510 0.931 . S
C507 N504 1.313 . S
C507 N508 1.344 . S
C507 H511 0.930 . S
N508 C505 1.377 . S
N508 C507 1.344 . S
O509 Co501 2.055 . S
O509 C513 1.253 . S
H510 C506 0.931 . S
H511 C507 0.930 . S
O512 Co501 2.039 . S
O512 C502 1.265 . S
C513 O509 1.253 . S
C513 O514 1.227 . S
O514 C513 1.227 . S
N515 Co501 2.140 . S
N515 C518 1.346 . S
N515 C519 1.345 . S
C516 C517 1.387 . S
C516 C520 1.391 . S
C517 C516 1.387 . S
C517 C518 1.369 . S
C517 H526 0.929 . S
C518 N515 1.346 . S
C518 C517 1.369 . S
C518 H521 0.928 . S
C519 N515 1.345 . S
C519 C520 1.371 . S
C519 H522 0.931 . S
C520 C516 1.391 . S
C520 C519 1.371 . S
C520 H527 0.930 . S
H521 C518 0.928 . S
H522 C519 0.931 . S
H523 C499 0.930 . S
H524 C496 0.930 . S
H525 C505 0.930 . S
H526 C517 0.929 . S
H527 C520 0.930 . S
C528 C529 1.387 . S
C528 H532 0.950 . S
C528 C537 1.390 1_545 S
C529 C528 1.387 . S
C529 C531 1.387 . S
H530 C537 0.950 . S
C531 C529 1.387 . S
C531 C533 1.390 1_545 S
C531 H535 0.950 . S
H532 C528 0.950 . S
C533 C531 1.390 1_565 S
C533 C534 1.387 . S
C533 H536 0.950 . S
C534 C533 1.387 . S
C534 C537 1.387 . S
H535 C531 0.950 . S
H536 C533 0.950 . S
C537 C528 1.390 1_565 S
C537 H530 0.950 . S
C537 C534 1.387 . S
C538 C539 1.387 . S
C538 H542 0.950 . S
C538 C547 1.390 . S
C539 C538 1.387 . S
C539 C541 1.387 . S
H540 C547 0.950 . S
C541 C539 1.387 . S
C541 C543 1.390 . S
C541 H545 0.950 . S
H542 C538 0.950 . S
C543 C541 1.390 . S
C543 C544 1.387 . S
C543 H546 0.950 . S
C544 C543 1.387 . S
C544 C547 1.387 . S
H545 C541 0.950 . S
H546 C543 0.950 . S
C547 C538 1.390 . S
C547 H540 0.950 . S
C547 C544 1.387 . S
C548 C549 1.387 . S
C548 H552 0.950 . S
C548 C557 1.390 1_544 S
C549 C548 1.387 . S
C549 C551 1.387 1_455 S
H550 C557 0.950 . S
C551 C549 1.387 1_655 S
C551 C553 1.390 1_544 S
C551 H555 0.950 . S
H552 C548 0.950 . S
C553 C551 1.390 1_566 S
C553 C554 1.387 1_655 S
C553 H556 0.950 . S
C554 C553 1.387 1_455 S
C554 C557 1.387 . S
H555 C551 0.950 . S
H556 C553 0.950 . S
C557 C548 1.390 1_566 S
C557 H550 0.950 . S
C557 C554 1.387 . S
C558 C559 1.387 . S
C558 H562 0.950 . S
C558 C567 1.390 . S
C559 C558 1.387 . S
C559 C561 1.387 . S
H560 C567 0.950 . S
C561 C559 1.387 . S
C561 C563 1.390 . S
C561 H565 0.950 . S
H562 C558 0.950 . S
C563 C561 1.390 . S
C563 C564 1.387 . S
C563 H566 0.950 . S
C564 C563 1.387 . S
C564 C567 1.387 . S
H565 C561 0.950 . S
H566 C563 0.950 . S
C567 C558 1.390 . S
C567 H560 0.950 . S
C567 C564 1.387 . S
C568 C569 1.387 . S
C568 H572 0.950 . S
C568 C577 1.390 . S
C569 C568 1.387 . S
C569 C571 1.387 . S
H570 C577 0.950 . S
C571 C569 1.387 . S
C571 C573 1.390 . S
C571 H575 0.950 . S
H572 C568 0.950 . S
C573 C571 1.390 . S
C573 C574 1.387 . S
C573 H576 0.950 . S
C574 C573 1.387 . S
C574 C577 1.387 . S
H575 C571 0.950 . S
H576 C573 0.950 . S
C577 C568 1.390 . S
C577 H570 0.950 . S
C577 C574 1.387 . S
C578 C579 1.387 . S
C578 H582 0.950 . S
C578 C587 1.390 . S
C579 C578 1.387 . S
C579 C581 1.387 . S
H580 C587 0.950 . S
C581 C579 1.387 . S
C581 C583 1.390 . S
C581 H585 0.950 . S
H582 C578 0.950 . S
C583 C581 1.390 . S
C583 C584 1.387 . S
C583 H586 0.950 . S
C584 C583 1.387 . S
C584 C587 1.387 . S
H585 C581 0.950 . S
H586 C583 0.950 . S
C587 C578 1.390 . S
C587 H580 0.950 . S
C587 C584 1.387 . S
C588 C589 1.387 . S
C588 H592 0.950 . S
C588 C597 1.390 1_556 S
C589 C588 1.387 . S
C589 C591 1.387 1_455 S
H590 C597 0.950 . S
C591 C589 1.387 1_655 S
C591 C593 1.390 1_556 S
C591 H595 0.950 . S
H592 C588 0.950 . S
C593 C591 1.390 1_554 S
C593 C594 1.387 1_655 S
C593 H596 0.950 . S
C594 C593 1.387 1_455 S
C594 C597 1.387 . S
H595 C591 0.950 . S
H596 C593 0.950 . S
C597 C588 1.390 1_554 S
C597 H590 0.950 . S
C597 C594 1.387 . S
C598 C599 1.387 . S
C598 H602 0.950 . S
C598 C607 1.390 . S
C599 C598 1.387 . S
C599 C601 1.387 . S
H600 C607 0.950 . S
C601 C599 1.387 . S
C601 C603 1.390 . S
C601 H605 0.950 . S
H602 C598 0.950 . S
C603 C601 1.390 . S
C603 C604 1.387 . S
C603 H606 0.950 . S
C604 C603 1.387 . S
C604 C607 1.387 . S
H605 C601 0.950 . S
H606 C603 0.950 . S
C607 C598 1.390 . S
C607 H600 0.950 . S
C607 C604 1.387 . S
C608 C609 1.387 . S
C608 H612 0.950 . S
C608 C617 1.390 . S
C609 C608 1.387 . S
C609 C611 1.387 . S
H610 C617 0.950 . S
C611 C609 1.387 . S
C611 C613 1.390 . S
C611 H615 0.950 . S
H612 C608 0.950 . S
C613 C611 1.390 . S
C613 C614 1.387 . S
C613 H616 0.950 . S
C614 C613 1.387 . S
C614 C617 1.387 . S
H615 C611 0.950 . S
H616 C613 0.950 . S
C617 C608 1.390 . S
C617 H610 0.950 . S
C617 C614 1.387 . S
C618 C619 1.387 . S
C618 H622 0.950 . S
C618 C627 1.390 . S
C619 C618 1.387 . S
C619 C621 1.387 . S
H620 C627 0.950 . S
C621 C619 1.387 . S
C621 C623 1.390 . S
C621 H625 0.950 . S
H622 C618 0.950 . S
C623 C621 1.390 . S
C623 C624 1.387 . S
C623 H626 0.950 . S
C624 C623 1.387 . S
C624 C627 1.387 . S
H625 C621 0.950 . S
H626 C623 0.950 . S
C627 C618 1.390 . S
C627 H620 0.950 . S
C627 C624 1.387 . S
C628 C629 1.387 . S
C628 H632 0.950 . S
C628 C637 1.390 . S
C629 C628 1.387 . S
C629 C631 1.387 . S
H630 C637 0.950 . S
C631 C629 1.387 . S
C631 C633 1.390 . S
C631 H635 0.950 . S
H632 C628 0.950 . S
C633 C631 1.390 . S
C633 C634 1.387 . S
C633 H636 0.950 . S
C634 C633 1.387 . S
C634 C637 1.387 . S
H635 C631 0.950 . S
H636 C633 0.950 . S
C637 C628 1.390 . S
C637 H630 0.950 . S
C637 C634 1.387 . S
C638 C639 1.387 . S
C638 H642 0.950 . S
C638 C647 1.390 . S
C639 C638 1.387 . S
C639 C641 1.387 . S
H640 C647 0.950 . S
C641 C639 1.387 . S
C641 C643 1.390 . S
C641 H645 0.950 . S
H642 C638 0.950 . S
C643 C641 1.390 . S
C643 C644 1.387 . S
C643 H646 0.950 . S
C644 C643 1.387 . S
C644 C647 1.387 . S
H645 C641 0.950 . S
H646 C643 0.950 . S
C647 C638 1.390 . S
C647 H640 0.950 . S
C647 C644 1.387 . S
C648 C649 1.387 . S
C648 H652 0.950 . S
C648 C657 1.390 . S
C649 C648 1.387 . S
C649 C651 1.387 . S
H650 C657 0.950 . S
C651 C649 1.387 . S
C651 C653 1.390 . S
C651 H655 0.950 . S
H652 C648 0.950 . S
C653 C651 1.390 . S
C653 C654 1.387 . S
C653 H656 0.950 . S
C654 C653 1.387 . S
C654 C657 1.387 . S
H655 C651 0.950 . S
H656 C653 0.950 . S
C657 C648 1.390 . S
C657 H650 0.950 . S
C657 C654 1.387 . S
C658 C659 1.387 . S
C658 H662 0.950 . S
C658 C667 1.390 . S
C659 C658 1.387 . S
C659 C661 1.387 . S
H660 C667 0.950 . S
C661 C659 1.387 . S
C661 C663 1.390 . S
C661 H665 0.950 . S
H662 C658 0.950 . S
C663 C661 1.390 . S
C663 C664 1.387 . S
C663 H666 0.950 . S
C664 C663 1.387 . S
C664 C667 1.387 . S
H665 C661 0.950 . S
H666 C663 0.950 . S
C667 C658 1.390 . S
C667 H660 0.950 . S
C667 C664 1.387 . S
C668 C669 1.387 . S
C668 H672 0.950 . S
C668 C677 1.390 . S
C669 C668 1.387 . S
C669 C671 1.387 . S
H670 C677 0.950 . S
C671 C669 1.387 . S
C671 C673 1.390 . S
C671 H675 0.950 . S
H672 C668 0.950 . S
C673 C671 1.390 . S
C673 C674 1.387 . S
C673 H676 0.950 . S
C674 C673 1.387 . S
C674 C677 1.387 . S
H675 C671 0.950 . S
H676 C673 0.950 . S
C677 C668 1.390 . S
C677 H670 0.950 . S
C677 C674 1.387 . S
C678 C679 1.387 . S
C678 H682 0.950 . S
C678 C687 1.390 . S
C679 C678 1.387 . S
C679 C681 1.387 . S
H680 C687 0.950 . S
C681 C679 1.387 . S
C681 C683 1.390 . S
C681 H685 0.950 . S
H682 C678 0.950 . S
C683 C681 1.390 . S
C683 C684 1.387 . S
C683 H686 0.950 . S
C684 C683 1.387 . S
C684 C687 1.387 . S
H685 C681 0.950 . S
H686 C683 0.950 . S
C687 C678 1.390 . S
C687 H680 0.950 . S
C687 C684 1.387 . S
C688 C689 1.387 . S
C688 H692 0.950 . S
C688 C697 1.390 . S
C689 C688 1.387 . S
C689 C691 1.387 . S
H690 C697 0.950 . S
C691 C689 1.387 . S
C691 C693 1.390 . S
C691 H695 0.950 . S
H692 C688 0.950 . S
C693 C691 1.390 . S
C693 C694 1.387 . S
C693 H696 0.950 . S
C694 C693 1.387 . S
C694 C697 1.387 . S
H695 C691 0.950 . S
H696 C693 0.950 . S
C697 C688 1.390 . S
C697 H690 0.950 . S
C697 C694 1.387 . S
C698 C699 1.387 . S
C698 H702 0.950 . S
C698 C707 1.390 . S
C699 C698 1.387 . S
C699 C701 1.387 . S
H700 C707 0.950 . S
C701 C699 1.387 . S
C701 C703 1.390 . S
C701 H705 0.941 1_556 S
H702 C698 0.950 . S
C703 C701 1.390 . S
C703 C704 1.387 . S
C703 H706 0.950 . S
C704 C703 1.387 . S
C704 C707 1.387 . S
H705 C701 0.941 1_554 S
H706 C703 0.950 . S
C707 C698 1.390 . S
C707 H700 0.950 . S
C707 C704 1.387 . S
C708 C709 1.387 . S
C708 H712 0.950 . S
C708 C717 1.390 . S
C709 C708 1.387 . S
C709 C711 1.387 . S
H710 C717 0.950 . S
C711 C709 1.387 . S
C711 C713 1.390 . S
C711 H715 0.950 . S
H712 C708 0.950 . S
C713 C711 1.390 . S
C713 C714 1.387 . S
C713 H716 0.950 . S
C714 C713 1.387 . S
C714 C717 1.387 . S
H715 C711 0.950 . S
H716 C713 0.950 . S
C717 C708 1.390 . S
C717 H710 0.950 . S
C717 C714 1.387 . S
C718 C719 1.387 . S
C718 H722 0.950 . S
C718 C727 1.390 . S
C719 C718 1.387 . S
C719 C721 1.387 . S
H720 C727 0.950 . S
C721 C719 1.387 . S
C721 C723 1.390 . S
C721 H725 0.950 . S
H722 C718 0.950 . S
C723 C721 1.390 . S
C723 C724 1.387 . S
C723 H726 0.950 . S
C724 C723 1.387 . S
C724 C727 1.387 . S
H725 C721 0.950 . S
H726 C723 0.950 . S
C727 C718 1.390 . S
C727 H720 0.950 . S
C727 C724 1.387 . S
C728 C729 1.387 . S
C728 H732 0.950 . S
C728 C737 1.390 . S
C729 C728 1.387 . S
C729 C731 1.387 . S
H730 C737 0.950 . S
C731 C729 1.387 . S
C731 C733 1.390 . S
C731 H735 0.950 . S
H732 C728 0.950 . S
C733 C731 1.390 . S
C733 C734 1.387 . S
C733 H736 0.950 . S
C734 C733 1.387 . S
C734 C737 1.387 . S
H735 C731 0.950 . S
H736 C733 0.950 . S
C737 C728 1.390 . S
C737 H730 0.950 . S
C737 C734 1.387 . S
C738 C739 1.387 . S
C738 H742 0.950 . S
C738 C747 1.390 . S
C739 C738 1.387 . S
C739 C741 1.387 . S
H740 C747 0.950 . S
C741 C739 1.387 . S
C741 C743 1.390 . S
C741 H745 0.950 . S
H742 C738 0.950 . S
C743 C741 1.390 . S
C743 C744 1.387 . S
C743 H746 0.950 . S
C744 C743 1.387 . S
C744 C747 1.387 . S
H745 C741 0.950 . S
H746 C743 0.950 . S
C747 C738 1.390 . S
C747 H740 0.950 . S
C747 C744 1.387 . S
C748 C749 1.387 . S
C748 H752 0.950 . S
C748 C757 1.390 . S
C749 C748 1.387 . S
C749 C751 1.387 . S
H750 C757 0.950 . S
C751 C749 1.387 . S
C751 C753 1.390 . S
C751 H755 0.950 . S
H752 C748 0.950 . S
C753 C751 1.390 . S
C753 C754 1.387 . S
C753 H756 0.950 . S
C754 C753 1.387 . S
C754 C757 1.387 . S
H755 C751 0.950 . S
H756 C753 0.950 . S
C757 C748 1.390 . S
C757 H750 0.950 . S
C757 C754 1.387 . S
C758 C759 1.387 . S
C758 H762 0.950 . S
C758 C767 1.390 . S
C759 C758 1.387 . S
C759 C761 1.387 . S
H760 C767 0.950 . S
C761 C759 1.387 . S
C761 C763 1.390 . S
C761 H765 0.950 . S
H762 C758 0.950 . S
C763 C761 1.390 . S
C763 C764 1.387 . S
C763 H766 0.950 . S
C764 C763 1.387 . S
C764 C767 1.387 . S
H765 C761 0.950 . S
H766 C763 0.950 . S
C767 C758 1.390 . S
C767 H760 0.950 . S
C767 C764 1.387 . S
C768 C769 1.387 . S
C768 H772 0.950 . S
C768 C777 1.390 . S
C769 C768 1.387 . S
C769 C771 1.387 . S
H770 C777 0.950 . S
C771 C769 1.387 . S
C771 C773 1.390 . S
C771 H775 0.950 . S
H772 C768 0.950 . S
C773 C771 1.390 . S
C773 C774 1.387 . S
C773 H776 0.950 . S
C774 C773 1.387 . S
C774 C777 1.387 . S
H775 C771 0.950 . S
H776 C773 0.950 . S
C777 C768 1.390 . S
C777 H770 0.950 . S
C777 C774 1.387 . S
C778 C779 1.387 . S
C778 H782 0.950 . S
C778 C787 1.390 . S
C779 C778 1.387 . S
C779 C781 1.387 . S
H780 C787 0.950 . S
C781 C779 1.387 . S
C781 C783 1.390 . S
C781 H785 0.950 . S
H782 C778 0.950 . S
C783 C781 1.390 . S
C783 C784 1.387 . S
C783 H786 0.950 . S
C784 C783 1.387 . S
C784 C787 1.387 . S
H785 C781 0.950 . S
H786 C783 0.950 . S
C787 C778 1.390 . S
C787 H780 0.950 . S
C787 C784 1.387 . S
C788 C789 1.387 . S
C788 H792 0.950 . S
C788 C797 1.390 . S
C789 C788 1.387 . S
C789 C791 1.387 . S
H790 C797 0.950 . S
C791 C789 1.387 . S
C791 C793 1.390 . S
C791 H795 0.950 . S
H792 C788 0.950 . S
C793 C791 1.390 . S
C793 C794 1.387 . S
C793 H796 0.950 . S
C794 C793 1.387 . S
C794 C797 1.387 . S
H795 C791 0.950 . S
H796 C793 0.950 . S
C797 C788 1.390 . S
C797 H790 0.950 . S
C797 C794 1.387 . S
C798 C799 1.387 . S
C798 H802 0.950 . S
C798 C807 1.390 . S
C799 C798 1.387 . S
C799 C801 1.387 . S
H800 C807 0.950 . S
C801 C799 1.387 . S
C801 C803 1.390 . S
C801 H805 0.950 . S
H802 C798 0.950 . S
C803 C801 1.390 . S
C803 C804 1.387 . S
C803 H806 0.950 . S
C804 C803 1.387 . S
C804 C807 1.387 . S
H805 C801 0.950 . S
H806 C803 0.950 . S
C807 C798 1.390 . S
C807 H800 0.950 . S
C807 C804 1.387 . S
C808 C809 1.387 . S
C808 H812 0.950 . S
C808 C817 1.390 . S
C809 C808 1.387 . S
C809 C811 1.387 . S
H810 C817 0.950 . S
C811 C809 1.387 . S
C811 C813 1.390 . S
C811 H815 0.950 . S
H812 C808 0.950 . S
C813 C811 1.390 . S
C813 C814 1.387 . S
C813 H816 0.950 . S
C814 C813 1.387 . S
C814 C817 1.387 . S
H815 C811 0.950 . S
H816 C813 0.950 . S
C817 C808 1.390 . S
C817 H810 0.950 . S
C817 C814 1.387 . S
C818 C819 1.387 . S
C818 H822 0.950 . S
C818 C827 1.390 . S
C819 C818 1.387 . S
C819 C821 1.387 . S
H820 C827 0.950 . S
C821 C819 1.387 . S
C821 C823 1.390 . S
C821 H825 0.950 . S
H822 C818 0.950 . S
C823 C821 1.390 . S
C823 C824 1.387 . S
C823 H826 0.950 . S
C824 C823 1.387 . S
C824 C827 1.387 . S
H825 C821 0.950 . S
H826 C823 0.950 . S
C827 C818 1.390 . S
C827 H820 0.950 . S
C827 C824 1.387 . S
C828 C829 1.387 . S
C828 H832 0.950 . S
C828 C837 1.390 . S
C829 C828 1.387 . S
C829 C831 1.387 . S
H830 C837 0.950 . S
C831 C829 1.387 . S
C831 C833 1.390 . S
C831 H835 0.950 . S
H832 C828 0.950 . S
C833 C831 1.390 . S
C833 C834 1.387 . S
C833 H836 0.950 . S
C834 C833 1.387 . S
C834 C837 1.387 . S
H835 C831 0.950 . S
H836 C833 0.950 . S
C837 C828 1.390 . S
C837 H830 0.950 . S
C837 C834 1.387 . S
C838 C839 1.387 . S
C838 H842 0.950 . S
C838 C847 1.390 . S
C839 C838 1.387 . S
C839 C841 1.387 . S
H840 C847 0.950 . S
C841 C839 1.387 . S
C841 C843 1.390 . S
C841 H845 0.950 . S
H842 C838 0.950 . S
C843 C841 1.390 . S
C843 C844 1.387 . S
C843 H846 0.950 . S
C844 C843 1.387 . S
C844 C847 1.387 . S
H845 C841 0.950 . S
H846 C843 0.950 . S
C847 C838 1.390 . S
C847 H840 0.950 . S
C847 C844 1.387 . S
C848 C849 1.387 . S
C848 H852 0.950 . S
C848 C857 1.390 . S
C849 C848 1.387 . S
C849 C851 1.387 . S
H850 C857 0.950 . S
C851 C849 1.387 . S
C851 C853 1.390 . S
C851 H855 0.950 . S
H852 C848 0.950 . S
C853 C851 1.390 . S
C853 C854 1.387 . S
C853 H856 0.950 . S
C854 C853 1.387 . S
C854 C857 1.387 . S
H855 C851 0.950 . S
H856 C853 0.950 . S
C857 C848 1.390 . S
C857 H850 0.950 . S
C857 C854 1.387 . S
C858 C859 1.387 . S
C858 H862 0.950 . S
C858 C867 1.390 . S
C859 C858 1.387 . S
C859 C861 1.387 . S
H860 C867 0.950 . S
C861 C859 1.387 . S
C861 C863 1.390 . S
C861 H865 0.950 . S
H862 C858 0.950 . S
C863 C861 1.390 . S
C863 C864 1.387 . S
C863 H866 0.950 . S
C864 C863 1.387 . S
C864 C867 1.387 . S
H865 C861 0.950 . S
H866 C863 0.950 . S
C867 C858 1.390 . S
C867 H860 0.950 . S
C867 C864 1.387 . S
C868 C869 1.387 . S
C868 H872 0.950 . S
C868 C877 1.390 . S
C869 C868 1.387 . S
C869 C871 1.387 . S
H870 C877 0.950 . S
C871 C869 1.387 . S
C871 C873 1.390 . S
C871 H875 0.950 . S
H872 C868 0.950 . S
C873 C871 1.390 . S
C873 C874 1.387 . S
C873 H876 0.950 . S
C874 C873 1.387 . S
C874 C877 1.387 . S
H875 C871 0.950 . S
H876 C873 0.950 . S
C877 C868 1.390 . S
C877 H870 0.950 . S
C877 C874 1.387 . S
C878 C879 1.387 . S
C878 H882 0.950 . S
C878 C887 1.390 . S
C879 C878 1.387 . S
C879 C881 1.387 . S
H880 C887 0.950 . S
C881 C879 1.387 . S
C881 C883 1.390 . S
C881 H885 0.950 . S
H882 C878 0.950 . S
C883 C881 1.390 . S
C883 C884 1.387 . S
C883 H886 0.950 . S
C884 C883 1.387 . S
C884 C887 1.387 . S
H885 C881 0.950 . S
H886 C883 0.950 . S
C887 C878 1.390 . S
C887 H880 0.950 . S
C887 C884 1.387 . S
C888 C889 1.387 . S
C888 H892 0.950 . S
C888 C897 1.390 . S
C889 C888 1.387 . S
C889 C891 1.387 . S
H890 C897 0.950 . S
C891 C889 1.387 . S
C891 C893 1.390 . S
C891 H895 0.950 . S
H892 C888 0.950 . S
C893 C891 1.390 . S
C893 C894 1.387 . S
C893 H896 0.950 . S
C894 C893 1.387 . S
C894 C897 1.387 . S
H895 C891 0.950 . S
H896 C893 0.950 . S
C897 C888 1.390 . S
C897 H890 0.950 . S
C897 C894 1.387 . S
C898 C899 1.387 . S
C898 H902 0.950 . S
C898 C907 1.390 . S
C899 C898 1.387 . S
C899 C901 1.387 . S
H900 C907 0.950 . S
C901 C899 1.387 . S
C901 C903 1.390 . S
C901 H905 0.950 . S
H902 C898 0.950 . S
C903 C901 1.390 . S
C903 C904 1.387 . S
C903 H906 0.950 . S
C904 C903 1.387 . S
C904 C907 1.387 . S
H905 C901 0.950 . S
H906 C903 0.950 . S
C907 C898 1.390 . S
C907 H900 0.950 . S
C907 C904 1.387 . S
C908 C909 1.387 . S
C908 H912 0.950 . S
C908 C917 1.390 . S
C909 C908 1.387 . S
C909 C911 1.387 . S
H910 C917 0.950 . S
C911 C909 1.387 . S
C911 C913 1.390 . S
C911 H915 0.950 . S
H912 C908 0.950 . S
C913 C911 1.390 . S
C913 C914 1.387 . S
C913 H916 0.950 . S
C914 C913 1.387 . S
C914 C917 1.387 . S
H915 C911 0.950 . S
H916 C913 0.950 . S
C917 C908 1.390 . S
C917 H910 0.950 . S
C917 C914 1.387 . S
C918 C919 1.387 . S
C918 H922 0.950 . S
C918 C927 1.390 . S
C919 C918 1.387 . S
C919 C921 1.387 . S
H920 C927 0.950 . S
C921 C919 1.387 . S
C921 C923 1.390 . S
C921 H925 0.950 . S
H922 C918 0.950 . S
C923 C921 1.390 . S
C923 C924 1.387 . S
C923 H926 0.950 . S
C924 C923 1.387 . S
C924 C927 1.387 . S
H925 C921 0.950 . S
H926 C923 0.950 . S
C927 C918 1.390 . S
C927 H920 0.950 . S
C927 C924 1.387 . S
C529 C21 1.328 . S
C534 C153 1.328 . S
C539 C186 1.332 . S
C544 C54 1.332 . S
C549 C219 1.328 . S
C554 C87 1.328 . S
C559 C120 1.328 . S
C564 C252 1.328 . S
C569 C285 1.332 . S
C574 C351 1.332 . S
C579 C384 1.332 . S
C584 C318 1.332 . S
C589 C417 1.332 . S
C594 C483 1.332 . S
C599 C450 1.333 . S
C604 C516 1.333 . S
C609 N13 1.228 . S
C614 N178 1.229 . S
C619 N211 1.226 . S
C624 N46 1.225 . S
C629 N244 1.227 . S
C634 N79 1.226 . S
C639 N112 1.224 . S
C644 N145 1.225 . S
C649 C150 2.018 . S
C654 C348 2.017 1_556 S
C659 C84 2.017 . S
C664 C282 2.017 . S
C669 C216 2.017 . S
C674 C381 2.017 . S
C679 C18 2.017 . S
C684 C315 2.017 1_554 S
C689 N409 1.228 . S
C694 N277 1.226 . S
C699 N343 1.226 . S
C704 N508 1.228 . S
C709 N310 1.230 . S
C714 N442 1.228 . S
C719 N376 1.225 . S
C724 N475 1.226 . S
C729 C480 2.018 . S
C734 C51 2.017 . S
C739 C183 2.017 1_554 S
C744 C447 2.017 . S
C749 C117 2.017 1_556 S
C754 C513 2.017 . S
C759 C414 2.017 . S
C764 C249 2.017 . S
C769 C172 1.814 . S
C774 C7 1.814 . S
C779 C205 1.813 1_556 S
C784 C40 1.813 . S
C789 C73 1.812 1_554 S
C794 C238 1.812 . S
C799 C106 1.812 . S
C804 C139 1.812 . S
C809 N134 0.831 . S
C814 N332 0.831 . S
C819 N266 0.825 . S
C824 N68 0.826 . S
C829 N365 0.823 . S
C834 N200 0.822 . S
C839 N2 0.824 . S
C844 N299 0.826 . S
C849 C403 1.812 1_554 S
C854 C271 1.812 . S
C859 C337 1.813 . S
C864 C502 1.813 . S
C869 C436 1.813 . S
C874 C304 1.813 . S
C879 C469 1.812 1_556 S
C884 C370 1.812 . S
C889 N35 0.829 . S
C894 N464 0.827 . S
C899 N167 0.829 . S
C904 N431 0.827 . S
C909 N497 0.830 . S
C914 N101 0.831 . S
C919 N233 0.829 . S
C924 N398 0.827 . S
