# Generated by pormake.
# Topology wio, (6)-cn, num edge types: 1
# Building blocks:
#     Node 0, Type 0, BuildingBlock: BETDEL_clean_sbu_0, # of connection points: 6
#     Node 1, Type 0, BuildingBlock: BETDEL_clean_sbu_0, # of connection points: 6
#     Node 2, Type 0, BuildingBlock: BETDEL_clean_sbu_0, # of connection points: 6
#     Node 3, Type 0, BuildingBlock: BETDEL_clean_sbu_0, # of connection points: 6
#     Node 4, Type 0, BuildingBlock: BETDEL_clean_sbu_0, # of connection points: 6
#     Node 5, Type 0, BuildingBlock: BETDEL_clean_sbu_0, # of connection points: 6
#     Node 6, Type 0, BuildingBlock: BETDEL_clean_sbu_0, # of connection points: 6
#     Node 7, Type 0, BuildingBlock: BETDEL_clean_sbu_0, # of connection points: 6
#     Node 8, Type 0, BuildingBlock: BETDEL_clean_sbu_0, # of connection points: 6
#     Node 9, Type 0, BuildingBlock: BETDEL_clean_sbu_0, # of connection points: 6
#     Node 10, Type 0, BuildingBlock: BETDEL_clean_sbu_0, # of connection points: 6
#     Node 11, Type 0, BuildingBlock: BETDEL_clean_sbu_0, # of connection points: 6
#     Node 12, Type 0, BuildingBlock: BETDEL_clean_sbu_0, # of connection points: 6
#     Node 13, Type 0, BuildingBlock: BETDEL_clean_sbu_0, # of connection points: 6
#     Node 14, Type 0, BuildingBlock: BETDEL_clean_sbu_0, # of connection points: 6
#     Node 15, Type 0, BuildingBlock: BETDEL_clean_sbu_0, # of connection points: 6
#     Node 16, Type 0, BuildingBlock: BETDEL_clean_sbu_0, # of connection points: 6
#     Node 17, Type 0, BuildingBlock: BETDEL_clean_sbu_0, # of connection points: 6
#     Node 18, Type 0, BuildingBlock: BETDEL_clean_sbu_0, # of connection points: 6
#     Node 19, Type 0, BuildingBlock: BETDEL_clean_sbu_0, # of connection points: 6
#     Node 20, Type 0, BuildingBlock: BETDEL_clean_sbu_0, # of connection points: 6
#     Node 21, Type 0, BuildingBlock: BETDEL_clean_sbu_0, # of connection points: 6
#     Node 22, Type 0, BuildingBlock: BETDEL_clean_sbu_0, # of connection points: 6
#     Node 23, Type 0, BuildingBlock: BETDEL_clean_sbu_0, # of connection points: 6
#     Node 24, Type 0, BuildingBlock: BETDEL_clean_sbu_0, # of connection points: 6
#     Node 25, Type 0, BuildingBlock: BETDEL_clean_sbu_0, # of connection points: 6
#     Node 26, Type 0, BuildingBlock: BETDEL_clean_sbu_0, # of connection points: 6
#     Node 27, Type 0, BuildingBlock: BETDEL_clean_sbu_0, # of connection points: 6
#     Node 28, Type 0, BuildingBlock: BETDEL_clean_sbu_0, # of connection points: 6
#     Node 29, Type 0, BuildingBlock: BETDEL_clean_sbu_0, # of connection points: 6
#     Node 30, Type 0, BuildingBlock: BETDEL_clean_sbu_0, # of connection points: 6
#     Node 31, Type 0, BuildingBlock: BETDEL_clean_sbu_0, # of connection points: 6
#     Edge 32, Type (0, 0), BuildingBlock: KIFKEQ_clean_linker_1, # of connection points: 2
#     Edge 33, Type (0, 0), BuildingBlock: KIFKEQ_clean_linker_1, # of connection points: 2
#     Edge 34, Type (0, 0), BuildingBlock: KIFKEQ_clean_linker_1, # of connection points: 2
#     Edge 35, Type (0, 0), BuildingBlock: KIFKEQ_clean_linker_1, # of connection points: 2
#     Edge 36, Type (0, 0), BuildingBlock: KIFKEQ_clean_linker_1, # of connection points: 2
#     Edge 37, Type (0, 0), BuildingBlock: KIFKEQ_clean_linker_1, # of connection points: 2
#     Edge 38, Type (0, 0), BuildingBlock: KIFKEQ_clean_linker_1, # of connection points: 2
#     Edge 39, Type (0, 0), BuildingBlock: KIFKEQ_clean_linker_1, # of connection points: 2
#     Edge 40, Type (0, 0), BuildingBlock: KIFKEQ_clean_linker_1, # of connection points: 2
#     Edge 41, Type (0, 0), BuildingBlock: KIFKEQ_clean_linker_1, # of connection points: 2
#     Edge 42, Type (0, 0), BuildingBlock: KIFKEQ_clean_linker_1, # of connection points: 2
#     Edge 43, Type (0, 0), BuildingBlock: KIFKEQ_clean_linker_1, # of connection points: 2
#     Edge 44, Type (0, 0), BuildingBlock: KIFKEQ_clean_linker_1, # of connection points: 2
#     Edge 45, Type (0, 0), BuildingBlock: KIFKEQ_clean_linker_1, # of connection points: 2
#     Edge 46, Type (0, 0), BuildingBlock: KIFKEQ_clean_linker_1, # of connection points: 2
#     Edge 47, Type (0, 0), BuildingBlock: KIFKEQ_clean_linker_1, # of connection points: 2
#     Edge 48, Type (0, 0), BuildingBlock: KIFKEQ_clean_linker_1, # of connection points: 2
#     Edge 49, Type (0, 0), BuildingBlock: KIFKEQ_clean_linker_1, # of connection points: 2
#     Edge 50, Type (0, 0), BuildingBlock: KIFKEQ_clean_linker_1, # of connection points: 2
#     Edge 51, Type (0, 0), BuildingBlock: KIFKEQ_clean_linker_1, # of connection points: 2
#     Edge 52, Type (0, 0), BuildingBlock: KIFKEQ_clean_linker_1, # of connection points: 2
#     Edge 53, Type (0, 0), BuildingBlock: KIFKEQ_clean_linker_1, # of connection points: 2
#     Edge 54, Type (0, 0), BuildingBlock: KIFKEQ_clean_linker_1, # of connection points: 2
#     Edge 55, Type (0, 0), BuildingBlock: KIFKEQ_clean_linker_1, # of connection points: 2
#     Edge 56, Type (0, 0), BuildingBlock: KIFKEQ_clean_linker_1, # of connection points: 2
#     Edge 57, Type (0, 0), BuildingBlock: KIFKEQ_clean_linker_1, # of connection points: 2
#     Edge 58, Type (0, 0), BuildingBlock: KIFKEQ_clean_linker_1, # of connection points: 2
#     Edge 59, Type (0, 0), BuildingBlock: KIFKEQ_clean_linker_1, # of connection points: 2
#     Edge 60, Type (0, 0), BuildingBlock: KIFKEQ_clean_linker_1, # of connection points: 2
#     Edge 61, Type (0, 0), BuildingBlock: KIFKEQ_clean_linker_1, # of connection points: 2
#     Edge 62, Type (0, 0), BuildingBlock: KIFKEQ_clean_linker_1, # of connection points: 2
#     Edge 63, Type (0, 0), BuildingBlock: KIFKEQ_clean_linker_1, # of connection points: 2
#     Edge 64, Type (0, 0), BuildingBlock: KIFKEQ_clean_linker_1, # of connection points: 2
#     Edge 65, Type (0, 0), BuildingBlock: KIFKEQ_clean_linker_1, # of connection points: 2
#     Edge 66, Type (0, 0), BuildingBlock: KIFKEQ_clean_linker_1, # of connection points: 2
#     Edge 67, Type (0, 0), BuildingBlock: KIFKEQ_clean_linker_1, # of connection points: 2
#     Edge 68, Type (0, 0), BuildingBlock: KIFKEQ_clean_linker_1, # of connection points: 2
#     Edge 69, Type (0, 0), BuildingBlock: KIFKEQ_clean_linker_1, # of connection points: 2
#     Edge 70, Type (0, 0), BuildingBlock: KIFKEQ_clean_linker_1, # of connection points: 2
#     Edge 71, Type (0, 0), BuildingBlock: KIFKEQ_clean_linker_1, # of connection points: 2
#     Edge 72, Type (0, 0), BuildingBlock: KIFKEQ_clean_linker_1, # of connection points: 2
#     Edge 73, Type (0, 0), BuildingBlock: KIFKEQ_clean_linker_1, # of connection points: 2
#     Edge 74, Type (0, 0), BuildingBlock: KIFKEQ_clean_linker_1, # of connection points: 2
#     Edge 75, Type (0, 0), BuildingBlock: KIFKEQ_clean_linker_1, # of connection points: 2
#     Edge 76, Type (0, 0), BuildingBlock: KIFKEQ_clean_linker_1, # of connection points: 2
#     Edge 77, Type (0, 0), BuildingBlock: KIFKEQ_clean_linker_1, # of connection points: 2
#     Edge 78, Type (0, 0), BuildingBlock: KIFKEQ_clean_linker_1, # of connection points: 2
#     Edge 79, Type (0, 0), BuildingBlock: KIFKEQ_clean_linker_1, # of connection points: 2
#     Edge 80, Type (0, 0), BuildingBlock: KIFKEQ_clean_linker_1, # of connection points: 2
#     Edge 81, Type (0, 0), BuildingBlock: KIFKEQ_clean_linker_1, # of connection points: 2
#     Edge 82, Type (0, 0), BuildingBlock: KIFKEQ_clean_linker_1, # of connection points: 2
#     Edge 83, Type (0, 0), BuildingBlock: KIFKEQ_clean_linker_1, # of connection points: 2
#     Edge 84, Type (0, 0), BuildingBlock: KIFKEQ_clean_linker_1, # of connection points: 2
#     Edge 85, Type (0, 0), BuildingBlock: KIFKEQ_clean_linker_1, # of connection points: 2
#     Edge 86, Type (0, 0), BuildingBlock: KIFKEQ_clean_linker_1, # of connection points: 2
#     Edge 87, Type (0, 0), BuildingBlock: KIFKEQ_clean_linker_1, # of connection points: 2
#     Edge 88, Type (0, 0), BuildingBlock: KIFKEQ_clean_linker_1, # of connection points: 2
#     Edge 89, Type (0, 0), BuildingBlock: KIFKEQ_clean_linker_1, # of connection points: 2
#     Edge 90, Type (0, 0), BuildingBlock: KIFKEQ_clean_linker_1, # of connection points: 2
#     Edge 91, Type (0, 0), BuildingBlock: KIFKEQ_clean_linker_1, # of connection points: 2
#     Edge 92, Type (0, 0), BuildingBlock: KIFKEQ_clean_linker_1, # of connection points: 2
#     Edge 93, Type (0, 0), BuildingBlock: KIFKEQ_clean_linker_1, # of connection points: 2
#     Edge 94, Type (0, 0), BuildingBlock: KIFKEQ_clean_linker_1, # of connection points: 2
#     Edge 95, Type (0, 0), BuildingBlock: KIFKEQ_clean_linker_1, # of connection points: 2
#     Edge 96, Type (0, 0), BuildingBlock: KIFKEQ_clean_linker_1, # of connection points: 2
#     Edge 97, Type (0, 0), BuildingBlock: KIFKEQ_clean_linker_1, # of connection points: 2
#     Edge 98, Type (0, 0), BuildingBlock: KIFKEQ_clean_linker_1, # of connection points: 2
#     Edge 99, Type (0, 0), BuildingBlock: KIFKEQ_clean_linker_1, # of connection points: 2
#     Edge 100, Type (0, 0), BuildingBlock: KIFKEQ_clean_linker_1, # of connection points: 2
#     Edge 101, Type (0, 0), BuildingBlock: KIFKEQ_clean_linker_1, # of connection points: 2
#     Edge 102, Type (0, 0), BuildingBlock: KIFKEQ_clean_linker_1, # of connection points: 2
#     Edge 103, Type (0, 0), BuildingBlock: KIFKEQ_clean_linker_1, # of connection points: 2
#     Edge 104, Type (0, 0), BuildingBlock: KIFKEQ_clean_linker_1, # of connection points: 2
#     Edge 105, Type (0, 0), BuildingBlock: KIFKEQ_clean_linker_1, # of connection points: 2
#     Edge 106, Type (0, 0), BuildingBlock: KIFKEQ_clean_linker_1, # of connection points: 2
#     Edge 107, Type (0, 0), BuildingBlock: KIFKEQ_clean_linker_1, # of connection points: 2
#     Edge 108, Type (0, 0), BuildingBlock: KIFKEQ_clean_linker_1, # of connection points: 2
#     Edge 109, Type (0, 0), BuildingBlock: KIFKEQ_clean_linker_1, # of connection points: 2
#     Edge 110, Type (0, 0), BuildingBlock: KIFKEQ_clean_linker_1, # of connection points: 2
#     Edge 111, Type (0, 0), BuildingBlock: KIFKEQ_clean_linker_1, # of connection points: 2
#     Edge 112, Type (0, 0), BuildingBlock: KIFKEQ_clean_linker_1, # of connection points: 2
#     Edge 113, Type (0, 0), BuildingBlock: KIFKEQ_clean_linker_1, # of connection points: 2
#     Edge 114, Type (0, 0), BuildingBlock: KIFKEQ_clean_linker_1, # of connection points: 2
#     Edge 115, Type (0, 0), BuildingBlock: KIFKEQ_clean_linker_1, # of connection points: 2
#     Edge 116, Type (0, 0), BuildingBlock: KIFKEQ_clean_linker_1, # of connection points: 2
#     Edge 117, Type (0, 0), BuildingBlock: KIFKEQ_clean_linker_1, # of connection points: 2
#     Edge 118, Type (0, 0), BuildingBlock: KIFKEQ_clean_linker_1, # of connection points: 2
#     Edge 119, Type (0, 0), BuildingBlock: KIFKEQ_clean_linker_1, # of connection points: 2
#     Edge 120, Type (0, 0), BuildingBlock: KIFKEQ_clean_linker_1, # of connection points: 2
#     Edge 121, Type (0, 0), BuildingBlock: KIFKEQ_clean_linker_1, # of connection points: 2
#     Edge 122, Type (0, 0), BuildingBlock: KIFKEQ_clean_linker_1, # of connection points: 2
#     Edge 123, Type (0, 0), BuildingBlock: KIFKEQ_clean_linker_1, # of connection points: 2
#     Edge 124, Type (0, 0), BuildingBlock: KIFKEQ_clean_linker_1, # of connection points: 2
#     Edge 125, Type (0, 0), BuildingBlock: KIFKEQ_clean_linker_1, # of connection points: 2
#     Edge 126, Type (0, 0), BuildingBlock: KIFKEQ_clean_linker_1, # of connection points: 2
#     Edge 127, Type (0, 0), BuildingBlock: KIFKEQ_clean_linker_1, # of connection points: 2
# Relax obj value: 0.207
# Max RMSD: 0.217
# Mean RMSD: 0.217
data_MOF--net-wio--node1-BETDEL_clean_sbu_0--edge1-KIFKEQ_clean_linker_1
_symmetry_space_group_name_H-M    P1
_symmetry_Int_Tables_number       1
_symmetry_cell_setting            triclinic
loop_
_symmetry_equiv_pos_as_xyz
'x, y, z'
_cell_length_a     53.559723
_cell_length_b     53.481458
_cell_length_c     44.921703
_cell_angle_alpha  89.834573
_cell_angle_beta   89.966612
_cell_angle_gamma 89.936922
loop_
_atom_site_label
_atom_site_type_symbol
_atom_site_fract_x
_atom_site_fract_y
_atom_site_fract_z
_atom_type_partial_charge
Dy0 Dy 0.17685 0.13018 0.31818 0.0
C1 C 0.07168 0.13009 0.35311 0.0
C2 C 0.22143 0.12105 0.28916 0.0
Dy3 Dy 0.119 0.13138 0.33053 0.0
O4 O 0.21323 0.14297 0.29712 0.0
O5 O 0.20573 0.10416 0.29822 0.0
O6 O 0.18246 0.15979 0.35294 0.0
O7 O 0.14897 0.15868 0.32823 0.0
C8 C 0.16003 0.16899 0.34967 0.0
C9 C 0.13648 0.09331 0.29874 0.0
O10 O 0.11818 0.15129 0.28695 0.0
O11 O 0.15849 0.13897 0.27385 0.0
O12 O 0.08363 0.11154 0.34134 0.0
O13 O 0.08552 0.15017 0.35226 0.0
O14 O 0.11429 0.10256 0.29491 0.0
O15 O 0.14687 0.10351 0.32052 0.0
O16 O 0.17543 0.10634 0.35989 0.0
O17 O 0.13551 0.11877 0.37436 0.0
C18 C 0.13611 0.14823 0.26686 0.0
C19 C 0.15668 0.10643 0.3795 0.0
Dy20 Dy 0.12285 0.92547 0.5636 0.0
C21 C 0.11182 0.82181 0.60318 0.0
C22 C 0.13643 0.96793 0.53244 0.0
Dy23 Dy 0.11789 0.8684 0.57892 0.0
O24 O 0.12098 0.96742 0.55489 0.0
O25 O 0.14461 0.94545 0.52767 0.0
O26 O 0.09142 0.93404 0.59486 0.0
O27 O 0.0921 0.8994 0.57257 0.0
C28 C 0.08134 0.91198 0.59251 0.0
C29 C 0.15957 0.88281 0.55122 0.0
O30 O 0.09839 0.86791 0.53509 0.0
O31 O 0.11186 0.9074 0.51997 0.0
O32 O 0.12403 0.82697 0.57902 0.0
O33 O 0.10194 0.84219 0.6138 0.0
O34 O 0.15039 0.8605 0.54871 0.0
O35 O 0.14771 0.89455 0.5706 0.0
O36 O 0.14656 0.92354 0.60552 0.0
O37 O 0.13198 0.8849 0.62218 0.0
C38 C 0.10223 0.88501 0.51412 0.0
C39 C 0.14478 0.90591 0.6266 0.0
Dy40 Dy 0.31817 0.87618 0.81951 0.0
C41 C 0.42148 0.87242 0.85914 0.0
C42 C 0.27422 0.88593 0.78951 0.0
Dy43 Dy 0.37516 0.87219 0.83393 0.0
O44 O 0.29035 0.90258 0.79797 0.0
O45 O 0.28165 0.86401 0.79855 0.0
O46 O 0.3102 0.84783 0.85516 0.0
O47 O 0.34412 0.84616 0.8313 0.0
C48 C 0.33198 0.83708 0.8528 0.0
C49 C 0.36088 0.91119 0.80116 0.0
O50 O 0.3766 0.85312 0.78985 0.0
O51 O 0.33688 0.86652 0.77578 0.0
O52 O 0.40911 0.89175 0.85 0.0
O53 O 0.40861 0.8521 0.85423 0.0
O54 O 0.38256 0.90059 0.79836 0.0
O55 O 0.34923 0.90157 0.82252 0.0
O56 O 0.31978 0.9006 0.86045 0.0
O57 O 0.35764 0.88461 0.87733 0.0
C58 C 0.3591 0.85669 0.76932 0.0
C59 C 0.33746 0.89877 0.88125 0.0
Dy60 Dy 0.37568 0.07564 0.06804 0.0
C61 C 0.39371 0.17869 0.10459 0.0
C62 C 0.36372 0.03171 0.03905 0.0
Dy63 Dy 0.38373 0.13276 0.08077 0.0
O64 O 0.38595 0.03824 0.04769 0.0
O65 O 0.3479 0.04876 0.04739 0.0
O66 O 0.40574 0.06698 0.1015 0.0
O67 O 0.40757 0.10023 0.07633 0.0
C68 C 0.41743 0.08808 0.09732 0.0
C69 C 0.34168 0.12101 0.0525 0.0
O70 O 0.40322 0.13044 0.03687 0.0
O71 O 0.38348 0.0935 1.02343 0.0
O72 O 0.38228 0.17464 0.07963 0.0
O73 O 0.40069 0.15747 0.1162 0.0
O74 O 0.3524 0.14265 0.04991 0.0
O75 O 0.35241 0.10851 0.07236 0.0
O76 O 0.353 0.07844 0.11044 0.0
O77 O 0.36644 0.11844 0.12374 0.0
C78 C 0.39609 0.11409 1.0164 0.0
C79 C 0.35383 0.09749 0.12961 0.0
Dy80 Dy 0.17462 0.87696 0.24995 0.0
C81 C 0.07349 0.87803 0.20233 0.0
C82 C 0.21602 0.88846 0.28381 0.0
Dy83 Dy 0.11845 0.87607 0.23074 0.0
O84 O 0.21642 0.87544 0.2593 0.0
O85 O 0.19322 0.89521 0.28931 0.0
O86 O 0.18314 0.84484 0.2193 0.0
O87 O 0.1474 0.84822 0.23822 0.0
C88 C 0.16028 0.83652 0.2194 0.0
C89 C 0.13365 0.91502 0.26268 0.0
O90 O 0.11306 0.85909 0.27563 0.0
O91 O 0.15401 0.86552 0.29202 0.0
O92 O 0.08734 0.89695 0.20926 0.0
O93 O 0.08415 0.85729 0.21106 0.0
O94 O 0.11115 0.90611 0.26423 0.0
O95 O 0.14568 0.90412 0.24262 0.0
O96 O 0.17475 0.90223 0.20921 0.0
O97 O 0.13936 0.88472 0.18831 0.0
C98 C 0.13022 0.85941 0.29697 0.0
C99 C 0.15922 0.89948 0.18621 0.0
Dy100 Dy 0.37484 0.92589 0.50134 0.0
C101 C 0.37486 0.82132 0.46365 0.0
C102 C 0.36605 0.97054 0.53021 0.0
Dy103 Dy 0.37598 0.86794 0.48832 0.0
O104 O 0.38787 0.9622 0.52216 0.0
O105 O 0.34905 0.95492 0.52139 0.0
O106 O 0.4044 0.93175 0.4665 0.0
O107 O 0.40316 0.89796 0.49085 0.0
C108 C 0.41347 0.90922 0.46947 0.0
C109 C 0.33796 0.88511 0.52028 0.0
O110 O 0.39459 0.86646 0.53274 0.0
O111 O 0.38321 0.90719 0.54558 0.0
O112 O 0.35588 0.83364 0.47383 0.0
O113 O 0.39524 0.83432 0.46742 0.0
O114 O 0.34687 0.86267 0.52356 0.0
O115 O 0.34826 0.89582 0.49868 0.0
O116 O 0.35119 0.92497 0.45969 0.0
O117 O 0.36406 0.88534 0.44461 0.0
C118 C 0.39172 0.88451 0.55274 0.0
C119 C 0.35165 0.90654 0.43973 0.0
Dy120 Dy 0.3261 0.12784 0.74934 0.0
C121 C 0.43016 0.13051 0.71136 0.0
C122 C 0.28152 0.11977 0.77862 0.0
Dy123 Dy 0.38352 0.13021 0.73584 0.0
O124 O 0.29022 0.14148 0.77061 0.0
O125 O 0.29673 0.10247 0.76952 0.0
O126 O 0.31953 0.1562 0.71341 0.0
O127 O 0.35307 0.15702 0.73818 0.0
C128 C 0.34152 0.16634 0.71637 0.0
C129 C 0.36756 0.09129 0.7676 0.0
O130 O 0.38474 0.14937 0.77982 0.0
O131 O 0.34477 0.13638 0.79338 0.0
O132 O 0.4193 0.11164 0.72393 0.0
O133 O 0.41563 0.1501 0.71255 0.0
O134 O 0.38965 0.10086 0.77085 0.0
O135 O 0.35652 0.10169 0.74633 0.0
O136 O 0.32735 0.10357 0.70823 0.0
O137 O 0.36653 0.11715 0.69244 0.0
C138 C 0.36705 0.14587 0.80013 0.0
C139 C 0.34556 0.10435 0.68795 0.0
Dy140 Dy 0.12673 0.07911 1.0004 0.0
C141 C 0.1109 0.18268 0.96344 0.0
C142 C 0.13767 0.03481 1.0295 0.0
Dy143 Dy 0.11965 0.13638 0.98738 0.0
O144 O 0.1157 0.04159 1.0201 0.0
O145 O 0.15378 0.05184 1.02191 0.0
O146 O 0.09804 0.07104 0.9654 0.0
O147 O 0.09525 0.10412 0.99071 0.0
C148 C 0.08627 0.09215 0.96908 0.0
C149 C 0.16081 0.12373 1.01707 0.0
O150 O 0.0991 0.1342 1.03057 0.0
O151 O 0.11789 0.09682 0.04465 0.0
O152 O 0.12216 0.17822 0.98843 0.0
O153 O 0.10343 0.1617 0.95181 0.0
O154 O 0.1504 0.14554 1.01939 0.0
O155 O 0.15043 0.1116 0.99677 0.0
O156 O 0.1502 0.08168 0.95868 0.0
O157 O 0.13735 0.12185 0.94485 0.0
C158 C 0.10548 0.11761 0.05125 0.0
C159 C 0.14973 0.10069 0.93935 0.0
Dy160 Dy 0.88062 0.87257 0.73628 0.0
C161 C 0.77895 0.88384 0.77986 0.0
C162 C 0.92692 0.873 0.7109 0.0
Dy163 Dy 0.82345 0.8756 0.75053 0.0
O164 O 0.91519 0.89205 0.72179 0.0
O165 O 0.91347 0.85283 0.71426 0.0
O166 O 0.88744 0.90122 0.77155 0.0
O167 O 0.85406 0.90148 0.74738 0.0
C168 C 0.86552 0.91133 0.76864 0.0
C169 C 0.83808 0.83707 0.71719 0.0
O170 O 0.82474 0.90011 0.70943 0.0
O171 O 0.86316 0.88519 0.69291 0.0
O172 O 0.7872 0.8622 0.77107 0.0
O173 O 0.79462 0.90106 0.77161 0.0
O174 O 0.81613 0.84744 0.71475 0.0
O175 O 0.84991 0.84615 0.73885 0.0
O176 O 0.88216 0.85325 0.78029 0.0
O177 O 0.84233 0.86632 0.79436 0.0
C178 C 0.84259 0.89874 0.68877 0.0
C179 C 0.86465 0.85669 0.80084 0.0
Dy180 Dy 0.87943 0.13269 0.48587 0.0
C181 C 0.86592 0.0312 0.52902 0.0
C182 C 0.87904 0.17969 0.46213 0.0
Dy183 Dy 0.87593 0.07543 0.49946 0.0
O184 O 0.86011 0.16792 0.47322 0.0
O185 O 0.89907 0.16583 0.46423 0.0
O186 O 0.8518 0.13952 0.52223 0.0
O187 O 0.85029 0.10646 0.49743 0.0
C188 C 0.84115 0.11789 0.51924 0.0
C189 C 0.91449 0.08995 0.46581 0.0
O190 O 0.85173 0.0771 0.45826 0.0
O191 O 0.86581 0.11615 0.44256 0.0
O192 O 0.88793 0.03874 0.5206 0.0
O193 O 0.84938 0.04738 0.52017 0.0
O194 O 0.9039 0.0681 0.46324 0.0
O195 O 0.9056 0.10165 0.4877 0.0
O196 O 0.89961 0.13343 0.52922 0.0
O197 O 0.88604 0.09375 0.54332 0.0
C198 C 0.85259 0.09544 0.43808 0.0
C199 C 0.89611 0.11587 0.54974 0.0
Dy200 Dy 0.62008 0.12769 0.23308 0.0
C201 C 0.71981 0.11113 0.27749 0.0
C202 C 0.57322 0.13335 0.2099 0.0
Dy203 Dy 0.67766 0.12376 0.24533 0.0
O204 O 0.57883 0.12063 0.2336 0.0
O205 O 0.59326 0.14377 0.19912 0.0
O206 O 0.61397 0.09786 0.26766 0.0
O207 O 0.64675 0.09835 0.24212 0.0
C208 C 0.636 0.08833 0.26375 0.0
C209 C 0.66246 0.1647 0.21575 0.0
O210 O 0.67514 0.09875 0.20467 0.0
O211 O 0.63504 0.11087 0.19039 0.0
O212 O 0.71933 0.12687 0.25522 0.0
O213 O 0.69759 0.10207 0.28128 0.0
O214 O 0.68467 0.15502 0.21267 0.0
O215 O 0.65093 0.15386 0.23655 0.0
O216 O 0.62084 0.14953 0.27527 0.0
O217 O 0.6604 0.13576 0.28911 0.0
C218 C 0.65629 0.09865 0.18516 0.0
C219 C 0.63836 0.14589 0.2957 0.0
Dy220 Dy 0.61534 0.8624 0.98458 0.0
C221 C 0.63569 0.96087 0.03239 0.0
C222 C 0.60765 0.81652 0.95944 0.0
Dy223 Dy 0.6218 0.91905 1.00058 0.0
O224 O 0.61921 0.8207 0.98426 0.0
O225 O 0.59936 0.83755 0.94855 0.0
O226 O 0.64623 0.85264 1.01623 0.0
O227 O 0.64594 0.88723 0.9948 0.0
C228 C 0.65644 0.87456 1.01461 0.0
C229 C 0.58064 0.90706 0.97001 0.0
O230 O 0.64676 0.91692 0.95988 0.0
O231 O 0.63185 0.87878 0.9423 0.0
O232 O 0.62103 0.96098 1.00921 0.0
O233 O 0.64291 0.9381 0.03759 0.0
O234 O 0.59144 0.92881 0.96805 0.0
O235 O 0.59056 0.89417 0.99028 0.0
O236 O 0.59425 0.86234 1.02744 0.0
O237 O 0.60851 0.90122 0.04348 0.0
C238 C 0.64531 0.89952 0.93866 0.0
C239 C 0.59779 0.8792 0.04865 0.0
Dy240 Dy 0.88239 0.13057 0.8301 0.0
C241 C 0.78362 0.11689 0.78125 0.0
C242 C 0.92855 0.1297 0.85585 0.0
Dy243 Dy 0.82562 0.12813 0.8142 0.0
O244 O 0.9168 0.11078 0.84475 0.0
O245 O 0.91513 0.14995 0.85265 0.0
O246 O 0.88924 0.10167 0.7952 0.0
O247 O 0.85566 0.10178 0.81909 0.0
C248 C 0.86729 0.09169 0.79808 0.0
C249 C 0.84001 0.16784 0.84581 0.0
O250 O 0.8266 0.10264 0.85452 0.0
O251 O 0.86387 0.11838 0.87308 0.0
O252 O 0.78405 0.13181 0.80418 0.0
O253 O 0.80586 0.10797 0.77704 0.0
O254 O 0.81767 0.15833 0.84749 0.0
O255 O 0.85229 0.15758 0.82528 0.0
O256 O 0.88543 0.14936 0.78583 0.0
O257 O 0.84446 0.14065 0.77157 0.0
C258 C 0.84353 0.10434 0.87622 0.0
C259 C 0.86759 0.14817 0.76534 0.0
Dy260 Dy 0.61836 0.13694 0.57569 0.0
C261 C 0.639 0.03795 0.53063 0.0
C262 C 0.60929 0.18287 0.59985 0.0
Dy263 Dy 0.62556 0.07999 0.56227 0.0
O264 O 0.62121 0.17868 0.57524 0.0
O265 O 0.60134 0.16181 0.61094 0.0
O266 O 0.6502 0.14621 0.54511 0.0
O267 O 0.64929 0.11207 0.56746 0.0
C268 C 0.66041 0.12431 0.54777 0.0
C269 C 0.58378 0.0925 0.59129 0.0
O270 O 0.65 0.08307 0.60332 0.0
O271 O 0.63524 0.12199 0.61866 0.0
O272 O 0.62471 0.03799 0.55415 0.0
O273 O 0.6463 0.06062 0.52523 0.0
O274 O 0.59483 0.07097 0.59445 0.0
O275 O 0.59385 0.10491 0.57067 0.0
O276 O 0.59896 0.13615 0.53166 0.0
O277 O 0.61412 0.09698 0.51834 0.0
C278 C 0.6486 0.1013 0.62356 0.0
C279 C 0.60365 0.11876 0.51138 0.0
Dy280 Dy 0.60951 0.87203 0.33269 0.0
C281 C 0.70835 0.89382 0.28053 0.0
C282 C 0.56341 0.8588 0.35318 0.0
Dy283 Dy 0.66549 0.87943 0.31009 0.0
O284 O 0.5678 0.87147 0.32906 0.0
O285 O 0.58441 0.85249 0.36569 0.0
O286 O 0.60224 0.91278 0.33432 0.0
O287 O 0.62979 0.89872 0.30535 0.0
C288 C 0.6207 0.9183 0.31681 0.0
C289 C 0.65278 0.83361 0.33088 0.0
O290 O 0.66491 0.90307 0.35206 0.0
O291 O 0.62824 0.88724 0.3735 0.0
O292 O 0.70789 0.88264 0.30642 0.0
O293 O 0.68561 0.89759 0.27173 0.0
O294 O 0.67042 0.83716 0.31147 0.0
O295 O 0.64528 0.85439 0.33994 0.0
O296 O 0.6079 0.85405 0.28752 0.0
O297 O 0.6453 0.86939 0.26818 0.0
C298 C 0.64853 0.90163 0.37453 0.0
C299 C 0.62337 0.85825 0.26496 0.0
Dy300 Dy 0.87813 0.86951 0.0812 0.0
C301 C 0.85735 0.96798 0.03318 0.0
C302 C 0.88728 0.82386 0.10665 0.0
Dy303 Dy 0.87062 0.926 0.06549 0.0
O304 O 0.87491 0.82777 0.08229 0.0
O305 O 0.89553 0.84506 0.11692 0.0
O306 O 0.84812 0.85922 0.04903 0.0
O307 O 0.84687 0.89369 0.07081 0.0
C308 C 0.83708 0.88076 0.05071 0.0
C309 C 0.9123 0.91433 0.09551 0.0
O310 O 0.84576 0.92378 0.10615 0.0
O311 O 0.85999 0.88506 0.12309 0.0
O312 O 0.87222 0.96784 0.05615 0.0
O313 O 0.84941 0.94541 1.02861 0.0
O314 O 0.90109 0.93585 0.09782 0.0
O315 O 0.90239 0.90154 0.07528 0.0
O316 O 0.89852 0.86981 0.03767 0.0
O317 O 0.883 0.90841 1.02236 0.0
C318 C 0.84666 0.90591 0.12695 0.0
C319 C 0.89402 0.88667 1.01657 0.0
Dy320 Dy 0.67384 0.62536 0.81152 0.0
C321 C 0.57046 0.62493 0.8542 0.0
C322 C 0.7175 0.61514 0.78078 0.0
Dy323 Dy 0.61653 0.62617 0.82798 0.0
O324 O 0.69945 0.5995 0.78579 0.0
O325 O 0.71204 0.63636 0.79342 0.0
O326 O 0.68061 0.65573 0.84502 0.0
O327 O 0.64601 0.65378 0.8227 0.0
C328 C 0.65798 0.66469 0.84302 0.0
C329 C 0.6331 0.58748 0.79653 0.0
O330 O 0.61312 0.6438 0.78316 0.0
O331 O 0.65403 0.63491 0.7682 0.0
O332 O 0.5832 0.60582 0.84513 0.0
O333 O 0.58282 0.64547 0.84868 0.0
O334 O 0.61054 0.59616 0.79402 0.0
O335 O 0.64432 0.59857 0.81705 0.0
O336 O 0.67397 0.60145 0.85336 0.0
O337 O 0.6356 0.61548 0.87114 0.0
C338 C 0.63073 0.64228 0.76238 0.0
C339 C 0.65659 0.60245 0.87468 0.0
Dy340 Dy 0.6268 0.42278 0.06238 0.0
C341 C 0.61303 0.31917 0.10189 0.0
C342 C 0.63676 0.46686 1.03212 0.0
Dy343 Dy 0.62089 0.36538 0.07717 0.0
O344 O 0.61491 0.4596 0.04142 0.0
O345 O 0.65328 0.45043 0.04043 0.0
O346 O 0.59749 0.43093 0.09662 0.0
O347 O 0.59591 0.39718 0.07239 0.0
C348 C 0.58637 0.40942 0.09349 0.0
C349 C 0.6626 0.37865 0.04864 0.0
O350 O 0.60081 0.36638 0.03366 0.0
O351 O 0.61911 0.40371 1.01859 0.0
O352 O 0.62416 0.32357 0.07678 0.0
O353 O 0.60519 0.34015 0.11322 0.0
O354 O 0.653 0.35645 0.04676 0.0
O355 O 0.65098 0.39086 0.06787 0.0
O356 O 0.6499 0.42127 0.10457 0.0
O357 O 0.6373 0.38131 0.11967 0.0
C358 C 0.60712 0.38257 1.01254 0.0
C359 C 0.64941 0.40272 0.12459 0.0
Dy360 Dy 0.82619 0.37505 0.31405 0.0
C361 C 0.92979 0.37291 0.35266 0.0
C362 C 0.78189 0.38383 0.2844 0.0
Dy363 Dy 0.88331 0.37213 0.32785 0.0
O364 O 0.78995 0.36205 0.29313 0.0
O365 O 0.79761 0.40085 0.29295 0.0
O366 O 0.81894 0.34755 0.35086 0.0
O367 O 0.85261 0.34565 0.32649 0.0
C368 C 0.84081 0.33699 0.3485 0.0
C369 C 0.86829 0.40988 0.29352 0.0
O370 O 0.88454 0.35152 0.28486 0.0
O371 O 0.84479 0.36461 0.27049 0.0
O372 O 0.91814 0.39175 0.34102 0.0
O373 O 0.91615 0.35277 0.35038 0.0
O374 O 0.89008 0.39945 0.29093 0.0
O375 O 0.85694 0.40096 0.31556 0.0
O376 O 0.82753 0.40004 0.35448 0.0
O377 O 0.86628 0.38589 0.37082 0.0
C378 C 0.86702 0.35466 0.26428 0.0
C379 C 0.84563 0.39929 0.37485 0.0
Dy380 Dy 0.87897 0.57574 0.56444 0.0
C381 C 0.87737 0.67758 0.61045 0.0
C382 C 0.86675 0.53486 0.53013 0.0
Dy383 Dy 0.87989 0.6322 0.58333 0.0
O384 O 0.87818 0.53377 0.55577 0.0
O385 O 0.86203 0.55805 0.52375 0.0
O386 O 0.91202 0.56664 0.59376 0.0
O387 O 0.90742 0.60294 0.57673 0.0
C388 C 0.91941 0.58981 0.59509 0.0
C389 C 0.84153 0.61705 0.55041 0.0
O390 O 0.89764 0.63714 0.53883 0.0
O391 O 0.89096 0.59619 0.52247 0.0
O392 O 0.85874 0.66287 0.60514 0.0
O393 O 0.89809 0.66755 0.60089 0.0
O394 O 0.85064 0.63949 0.54892 0.0
O395 O 0.85196 0.60501 0.57088 0.0
O396 O 0.85329 0.57627 0.60483 0.0
O397 O 0.87087 0.61159 0.62587 0.0
C398 C 0.89743 0.61993 0.51757 0.0
C399 C 0.85577 0.59196 0.62773 0.0
Dy400 Dy 0.67724 0.37217 0.74876 0.0
C401 C 0.57351 0.37189 0.70874 0.0
C402 C 0.71855 0.38475 0.78227 0.0
Dy403 Dy 0.62004 0.37004 0.73336 0.0
O404 O 0.71916 0.37151 0.75789 0.0
O405 O 0.69564 0.39112 0.78772 0.0
O406 O 0.68497 0.34059 0.7169 0.0
O407 O 0.65016 0.34314 0.73831 0.0
C408 C 0.66226 0.33189 0.71844 0.0
C409 C 0.63592 0.40834 0.76581 0.0
O410 O 0.61749 0.35033 0.77705 0.0
O411 O 0.65852 0.35904 0.7913 0.0
O412 O 0.58573 0.39054 0.71979 0.0
O413 O 0.58666 0.35141 0.71131 0.0
O414 O 0.6139 0.39857 0.7689 0.0
O415 O 0.64711 0.39846 0.74433 0.0
O416 O 0.67553 0.39775 0.70845 0.0
O417 O 0.63832 0.3817 0.69012 0.0
C418 C 0.63543 0.35125 0.79744 0.0
C419 C 0.65848 0.39598 0.68689 0.0
Dy420 Dy 0.87783 0.42704 0.99909 0.0
C421 C 0.88038 0.32315 0.96132 0.0
C422 C 0.86906 0.47142 1.0287 0.0
Dy423 Dy 0.88125 0.36979 0.98569 0.0
O424 O 0.89073 0.46359 1.01947 0.0
O425 O 0.85211 0.45546 1.02062 0.0
O426 O 0.90525 0.43431 0.96227 0.0
O427 O 0.90742 0.40078 0.98706 0.0
C428 C 0.91602 0.41254 0.96499 0.0
C429 C 0.84328 0.38459 1.01961 0.0
O430 O 0.90176 0.3688 1.02877 0.0
O431 O 0.88837 0.40854 0.0428 0.0
O432 O 0.86155 0.33504 0.97249 0.0
O433 O 0.90058 0.33664 0.96381 0.0
O434 O 0.85394 0.36291 1.02245 0.0
O435 O 0.85223 0.39601 0.99761 0.0
O436 O 0.85284 0.42528 0.95855 0.0
O437 O 0.8676 0.38666 0.94249 0.0
C438 C 0.89847 0.38638 0.04921 0.0
C439 C 0.85386 0.4071 0.93829 0.0
Dy440 Dy 0.83222 0.6267 0.25138 0.0
C441 C 0.93477 0.64068 0.21009 0.0
C442 C 0.79068 0.61251 0.28371 0.0
Dy443 Dy 0.88887 0.63251 0.23495 0.0
O444 O 0.79018 0.62569 0.25923 0.0
O445 O 0.81367 0.6069 0.2899 0.0
O446 O 0.82272 0.65951 0.22201 0.0
O447 O 0.85782 0.65784 0.24275 0.0
C448 C 0.84485 0.66946 0.22387 0.0
C449 C 0.87585 0.5901 0.26235 0.0
O450 O 0.88976 0.65129 0.27925 0.0
O451 O 0.85067 0.63727 0.29485 0.0
O452 O 0.93049 0.62849 0.23454 0.0
O453 O 0.91383 0.6493 0.19943 0.0
O454 O 0.89808 0.59958 0.26406 0.0
O455 O 0.86339 0.60215 0.24367 0.0
O456 O 0.83408 0.60274 0.20963 0.0
O457 O 0.87212 0.61786 0.192 0.0
C458 C 0.87297 0.64711 0.30043 0.0
C459 C 0.85133 0.60457 0.18817 0.0
Dy460 Dy 0.62772 0.57493 0.49779 0.0
C461 C 0.62484 0.6751 0.44711 0.0
C462 C 0.6395 0.5337 0.53222 0.0
Dy463 Dy 0.62483 0.6312 0.47825 0.0
O464 O 0.62716 0.53303 0.5072 0.0
O465 O 0.64548 0.55669 0.53792 0.0
O466 O 0.59682 0.56532 0.46594 0.0
O467 O 0.59816 0.6011 0.48505 0.0
C468 C 0.58752 0.58784 0.46579 0.0
C469 C 0.66335 0.61775 0.51179 0.0
O470 O 0.60704 0.63607 0.52281 0.0
O471 O 0.6145 0.59515 0.53927 0.0
O472 O 0.64437 0.66306 0.4563 0.0
O473 O 0.60461 0.66343 0.45555 0.0
O474 O 0.65372 0.64005 0.51255 0.0
O475 O 0.65357 0.60515 0.49143 0.0
O476 O 0.65393 0.57542 0.4581 0.0
O477 O 0.6359 0.61042 0.43657 0.0
C478 C 0.60749 0.61873 0.54409 0.0
C479 C 0.65136 0.59103 0.43507 0.0
Dy480 Dy 0.38417 0.36899 0.23432 0.0
C481 C 0.28527 0.38293 0.28211 0.0
C482 C 0.4305 0.37019 0.20905 0.0
Dy483 Dy 0.32736 0.37103 0.24963 0.0
O484 O 0.41833 0.3891 0.21961 0.0
O485 O 0.41744 0.34979 0.21256 0.0
O486 O 0.39027 0.39872 0.26832 0.0
O487 O 0.35692 0.39787 0.24398 0.0
C488 C 0.3683 0.40854 0.26478 0.0
C489 C 0.34268 0.3301 0.22059 0.0
O490 O 0.32864 0.39571 0.20861 0.0
O491 O 0.36572 0.3791 0.19064 0.0
O492 O 0.28553 0.36856 0.25868 0.0
O493 O 0.30772 0.3909 0.2871 0.0
O494 O 0.32008 0.33897 0.2184 0.0
O495 O 0.35459 0.34171 0.24033 0.0
O496 O 0.3872 0.35105 0.27908 0.0
O497 O 0.34611 0.35989 0.29285 0.0
C498 C 0.34554 0.39329 0.18696 0.0
C499 C 0.36926 0.3526 0.29943 0.0
Dy500 Dy 0.37318 0.62959 0.98426 0.0
C501 C 0.36601 0.52784 1.0293 0.0
C502 C 0.37038 0.67589 0.95894 0.0
Dy503 Dy 0.37361 0.5725 0.99963 0.0
O504 O 0.35166 0.6619 0.96636 0.0
O505 O 0.39133 0.66463 0.96546 0.0
O506 O 0.34511 0.63551 1.02067 0.0
O507 O 0.34605 0.60168 0.99716 0.0
C508 C 0.33642 0.61294 1.01873 0.0
C509 C 0.41096 0.58843 0.96482 0.0
O510 O 0.34905 0.57247 0.95853 0.0
O511 O 0.36242 0.61119 0.94119 0.0
O512 O 0.38767 0.53705 1.02205 0.0
O513 O 0.34865 0.5426 1.01933 0.0
O514 O 0.4017 0.56591 0.96349 0.0
O515 O 0.40155 0.60031 0.98635 0.0
O516 O 0.3929 0.6326 1.02762 0.0
O517 O 0.38302 0.5921 0.04311 0.0
C518 C 0.34967 0.59015 0.93751 0.0
C519 C 0.3912 0.61518 0.04862 0.0
Dy520 Dy 0.11822 0.63261 0.7315 0.0
C521 C 0.21593 0.61128 0.78021 0.0
C522 C 0.07348 0.64186 0.70448 0.0
Dy523 Dy 0.17508 0.62624 0.74726 0.0
O524 O 0.0763 0.63254 0.73096 0.0
O525 O 0.0952 0.64709 0.6931 0.0
O526 O 0.10838 0.60028 0.7611 0.0
O527 O 0.14334 0.60205 0.74089 0.0
C528 C 0.13059 0.59061 0.75988 0.0
C529 C 0.1623 0.66869 0.71897 0.0
O530 O 0.17316 0.60203 0.70588 0.0
O531 O 0.13448 0.61627 0.68915 0.0
O532 O 0.21695 0.62499 0.75614 0.0
O533 O 0.19282 0.60563 0.78563 0.0
O534 O 0.18445 0.65869 0.71689 0.0
O535 O 0.1497 0.6573 0.7383 0.0
O536 O 0.11807 0.65248 0.77517 0.0
O537 O 0.15729 0.63848 0.79047 0.0
C538 C 0.15539 0.60318 0.68503 0.0
C539 C 0.13517 0.64876 0.79611 0.0
Dy540 Dy 0.11841 0.36727 0.48597 0.0
C541 C 0.14037 0.46658 0.52978 0.0
C542 C 0.10829 0.32129 0.46262 0.0
Dy543 Dy 0.12649 0.42417 0.49907 0.0
O544 O 0.11986 0.32546 0.48745 0.0
O545 O 0.10135 0.34243 0.45076 0.0
O546 O 0.14998 0.35746 0.51664 0.0
O547 O 0.14977 0.39159 0.49418 0.0
C548 C 0.16058 0.37914 0.51397 0.0
C549 C 0.08456 0.41211 0.47008 0.0
O550 O 0.15078 0.42052 0.45795 0.0
O551 O 0.13559 0.38168 0.44293 0.0
O552 O 0.12505 0.46616 0.50725 0.0
O553 O 0.14844 0.44407 0.5347 0.0
O554 O 0.09597 0.4334 0.4666 0.0
O555 O 0.09446 0.39974 0.49084 0.0
O556 O 0.09865 0.36888 0.52972 0.0
O557 O 0.11497 0.4075 0.54314 0.0
C558 C 0.1492 0.40216 0.43789 0.0
C559 C 0.10386 0.38604 0.55004 0.0
Dy560 Dy 0.38124 0.62772 0.33194 0.0
C561 C 0.28343 0.61365 0.2814 0.0
C562 C 0.42627 0.62591 0.3602 0.0
Dy563 Dy 0.32537 0.62541 0.31409 0.0
O564 O 0.41203 0.60705 0.35425 0.0
O565 O 0.41598 0.64655 0.35053 0.0
O566 O 0.38921 0.59856 0.29768 0.0
O567 O 0.35493 0.59862 0.32007 0.0
C568 C 0.36721 0.58857 0.29956 0.0
C569 C 0.33858 0.66552 0.34595 0.0
O570 O 0.32632 0.59969 0.35423 0.0
O571 O 0.36109 0.61856 0.3747 0.0
O572 O 0.28341 0.62666 0.30591 0.0
O573 O 0.30615 0.60702 0.27528 0.0
O574 O 0.31627 0.65589 0.34658 0.0
O575 O 0.35158 0.65519 0.32607 0.0
O576 O 0.38579 0.645 0.28707 0.0
O577 O 0.34473 0.63795 0.27173 0.0
C578 C 0.34182 0.60309 0.37707 0.0
C579 C 0.36827 0.6445 0.26618 0.0
Dy580 Dy 0.12491 0.63739 0.08313 0.0
C581 C 0.13892 0.53737 1.03201 0.0
C582 C 0.11449 0.68473 0.10173 0.0
Dy583 Dy 0.12868 0.58084 0.06267 0.0
O584 O 0.12877 0.67898 0.07936 0.0
O585 O 0.10497 0.66449 0.11331 0.0
O586 O 0.1659 0.63823 0.0922 0.0
O587 O 0.15149 0.61431 0.05941 0.0
C588 C 0.17073 0.62028 0.07374 0.0
C589 C 0.08754 0.5944 0.09295 0.0
O590 O 0.14974 0.58016 0.1062 0.0
O591 O 0.13139 0.61605 0.12578 0.0
O592 O 0.11694 0.54451 0.041 0.0
O593 O 0.15542 0.55371 0.04048 0.0
O594 O 0.09737 0.57216 0.0947 0.0
O595 O 0.09899 0.60731 0.07393 0.0
O596 O 0.11467 0.64204 0.03509 0.0
O597 O 0.11911 0.60047 1.01964 0.0
C598 C 0.14597 0.596 0.12865 0.0
C599 C 0.11462 0.62454 1.01413 0.0
Dy600 Dy 0.11934 0.37262 0.82815 0.0
C601 C 0.22159 0.38417 0.78758 0.0
C602 C 0.07183 0.37266 0.85012 0.0
Dy603 Dy 0.17699 0.37505 0.81658 0.0
O604 O 0.08267 0.39094 0.83635 0.0
O605 O 0.08689 0.35349 0.85163 0.0
O606 O 0.11378 0.40031 0.79143 0.0
O607 O 0.14634 0.40126 0.81725 0.0
C608 C 0.13555 0.41053 0.795 0.0
C609 C 0.16088 0.33632 0.84924 0.0
O610 O 0.17498 0.39972 0.85745 0.0
O611 O 0.13484 0.38754 0.87132 0.0
O612 O 0.2135 0.36228 0.79587 0.0
O613 O 0.20578 0.40106 0.79635 0.0
O614 O 0.18295 0.34627 0.85258 0.0
O615 O 0.1499 0.34594 0.8272 0.0
O616 O 0.11945 0.35168 0.78544 0.0
O617 O 0.15922 0.36537 0.77221 0.0
C618 C 0.1558 0.40018 0.87643 0.0
C619 C 0.13724 0.35526 0.7653 0.0
Dy620 Dy 0.38043 0.3692 0.57874 0.0
C621 C 0.36527 0.47048 0.53617 0.0
C622 C 0.38104 0.32201 0.60176 0.0
Dy623 Dy 0.37604 0.4263 0.56537 0.0
O624 O 0.36211 0.33314 0.58974 0.0
O625 O 0.40053 0.33666 0.60105 0.0
O626 O 0.3526 0.36217 0.54268 0.0
O627 O 0.35073 0.39506 0.56776 0.0
C628 C 0.34156 0.38358 0.54604 0.0
C629 C 0.41513 0.41212 0.59834 0.0
O630 O 0.35179 0.42414 0.6065 0.0
O631 O 0.36682 0.38545 0.62229 0.0
O632 O 0.38726 0.46373 0.54558 0.0
O633 O 0.34914 0.45351 0.54378 0.0
O634 O 0.40417 0.43376 0.60134 0.0
O635 O 0.40621 0.40043 0.57649 0.0
O636 O 0.40068 0.36886 0.53542 0.0
O637 O 0.38633 0.40829 0.5214 0.0
C638 C 0.3532 0.40593 0.62678 0.0
C639 C 0.39681 0.38635 0.51492 0.0
H640 H 0.25248 0.15533 0.26309 0.0
H641 H 0.23903 0.07601 0.26912 0.0
H642 H 0.28545 0.14791 0.22668 0.0
H643 H 0.27254 0.06834 0.23328 0.0
H644 H 0.31341 0.06724 0.14193 0.0
H645 H 0.2829 0.07199 0.18197 0.0
H646 H 0.32614 0.13281 0.21829 0.0
H647 H 0.35611 0.12849 0.17793 0.0
C648 C 0.25687 0.13624 0.257 0.0
C649 C 0.24315 0.11629 0.26914 0.0
C650 C 0.27592 0.13191 0.23613 0.0
C651 C 0.28192 0.10744 0.22678 0.0
C652 C 0.26839 0.08745 0.23944 0.0
C653 C 0.24928 0.09182 0.26027 0.0
C654 C 0.31665 0.08134 0.15875 0.0
C655 C 0.3373 0.09749 0.1565 0.0
C656 C 0.29907 0.0841 0.18183 0.0
C657 C 0.30169 0.10303 0.20345 0.0
C658 C 0.32299 0.11841 0.20183 0.0
C659 C 0.34041 0.11576 0.17872 0.0
H660 H 0.19332 0.07279 0.3966 0.0
H661 H 0.12085 0.10073 0.4225 0.0
H662 H 0.19094 0.04128 0.43602 0.0
H663 H 0.11797 0.06887 0.46068 0.0
H664 H 0.12201 0.01693 0.53971 0.0
H665 H 0.12996 0.05227 0.50636 0.0
H666 H 0.17108 0.00349 0.44741 0.0
H667 H 0.16395 0.96869 0.4814 0.0
C668 C 0.17701 0.07247 0.41086 0.0
C669 C 0.15732 0.08947 0.40613 0.0
C670 C 0.17547 0.05412 0.43334 0.0
C671 C 0.15411 0.0521 0.45168 0.0
C672 C 0.1349 0.06977 0.44756 0.0
C673 C 0.13653 0.08814 0.42532 0.0
C674 C 0.13297 0.0139 0.51977 0.0
C675 C 0.14229 0.98997 0.51324 0.0
C676 C 0.13742 0.03414 0.50042 0.0
C677 C 0.15111 0.031 0.47378 0.0
C678 C 0.16082 0.00703 0.46774 0.0
C679 C 0.15655 0.9869 0.4872 0.0
H680 H 0.25854 0.93071 0.76624 0.0
H681 H 0.24199 0.85183 0.76572 0.0
H682 H 0.22559 0.93802 0.7295 0.0
H683 H 0.20957 0.85886 0.72855 0.0
H684 H 0.14027 0.87846 0.67776 0.0
H685 H 0.16946 0.87544 0.71907 0.0
H686 H 0.21581 0.93191 0.67805 0.0
H687 H 0.1861 0.93537 0.63695 0.0
C688 C 0.24772 0.91494 0.75843 0.0
C689 C 0.25282 0.8907 0.76905 0.0
C690 C 0.22893 0.91909 0.73712 0.0
C691 C 0.21472 0.89908 0.7258 0.0
C692 C 0.21967 0.87488 0.73693 0.0
C693 C 0.2384 0.87077 0.75824 0.0
C694 C 0.15649 0.89054 0.6777 0.0
C695 C 0.16076 0.90714 0.65385 0.0
C696 C 0.17344 0.88862 0.70137 0.0
C697 C 0.19539 0.9031 0.70193 0.0
C698 C 0.19912 0.92053 0.67869 0.0
C699 C 0.18201 0.92256 0.65502 0.0
H700 H 0.30952 0.94142 0.89053 0.0
H701 H 0.36527 0.89466 0.93215 0.0
H702 H 0.31449 0.97219 0.93022 0.0
H703 H 0.36977 0.92491 0.97209 0.0
H704 H 0.39623 0.9975 1.01587 0.0
H705 H 0.38772 0.96451 0.97998 0.0
H706 H 0.30941 0.98399 0.9811 0.0
H707 H 0.31825 0.01753 1.01654 0.0
C708 C 0.32238 0.93736 0.90851 0.0
C709 C 0.33701 0.91548 0.90794 0.0
C710 C 0.32528 0.95509 0.93138 0.0
C711 C 0.34284 0.95141 0.95442 0.0
C712 C 0.35652 0.92889 0.9545 0.0
C713 C 0.35373 0.91131 0.93163 0.0
C714 C 0.37716 0.99458 1.0087 0.0
C715 C 0.35794 0.01013 1.01921 0.0
C716 C 0.37218 0.97551 0.98812 0.0
C717 C 0.34778 0.97129 0.97742 0.0
C718 C 0.32847 0.9867 0.98838 0.0
C719 C 0.33349 0.00584 1.00897 0.0
H720 H 0.31716 0.94269 0.42391 0.0
H721 H 0.34789 0.87219 0.39481 0.0
H722 H 0.28626 0.94076 0.38397 0.0
H723 H 0.31669 0.86979 0.35588 0.0
H724 H 0.26559 0.87635 0.27598 0.0
H725 H 0.30026 0.8838 0.31033 0.0
H726 H 0.24933 0.91917 0.3719 0.0
H727 H 0.21516 0.91247 0.33716 0.0
C728 C 0.31759 0.92694 0.40882 0.0
C729 C 0.33514 0.90761 0.41283 0.0
C730 C 0.29962 0.92564 0.38603 0.0
C731 C 0.29857 0.90494 0.36662 0.0
C732 C 0.31684 0.88619 0.36995 0.0
C733 C 0.33481 0.88753 0.39257 0.0
C734 C 0.26192 0.88591 0.29675 0.0
C735 C 0.23759 0.89375 0.30381 0.0
C736 C 0.28178 0.89008 0.31663 0.0
C737 C 0.27783 0.90209 0.34421 0.0
C738 C 0.25344 0.91027 0.35085 0.0
C739 C 0.23369 0.90622 0.33095 0.0
H740 H 0.40052 0.00213 0.5546 0.0
H741 H 0.32132 0.98805 0.55124 0.0
H742 H 0.39353 0.03557 0.59047 0.0
H743 H 0.31408 0.022 0.58663 0.0
H744 H 0.31523 0.06363 0.67771 0.0
H745 H 0.31903 0.03277 0.63794 0.0
H746 H 0.37797 0.07649 0.59786 0.0
H747 H 0.37456 0.10684 0.63786 0.0
C748 C 0.38154 0.00646 0.56118 0.0
C749 C 0.3615 0.99245 0.54995 0.0
C750 C 0.37746 0.02578 0.58173 0.0
C751 C 0.35317 0.03174 0.59165 0.0
C752 C 0.33307 0.0179 0.57994 0.0
C753 C 0.33719 0.99853 0.55939 0.0
C754 C 0.32866 0.06691 0.6601 0.0
C755 C 0.34461 0.08779 0.66119 0.0
C756 C 0.33089 0.04913 0.6372 0.0
C757 C 0.34909 0.05178 0.61465 0.0
C758 C 0.36416 0.07333 0.61507 0.0
C759 C 0.36202 0.09097 0.63797 0.0
H760 H 0.18941 0.06943 0.92733 0.0
H761 H 0.14786 0.13146 0.89061 0.0
H762 H 0.2197 0.07303 0.88687 0.0
H763 H 0.17759 0.13463 0.84984 0.0
H764 H 0.25157 0.15496 0.80444 0.0
H765 H 0.21866 0.14863 0.84118 0.0
H766 H 0.22934 0.06868 0.83535 0.0
H767 H 0.26285 0.07526 0.79914 0.0
C768 C 0.18639 0.08348 0.91029 0.0
C769 C 0.16616 0.1002 0.91244 0.0
C770 C 0.20381 0.08557 0.88697 0.0
C771 C 0.20144 0.10436 0.86502 0.0
C772 C 0.18054 0.12031 0.86656 0.0
C773 C 0.16327 0.11833 0.88992 0.0
C774 C 0.2467 0.13603 0.81076 0.0
C775 C 0.25979 0.11564 0.79876 0.0
C776 C 0.22768 0.13232 0.83182 0.0
C777 C 0.2211 0.10807 0.84146 0.0
C778 C 0.23397 0.08764 0.82893 0.0
C779 C 0.25307 0.09138 0.8079 0.0
H780 H 0.13432 0.89558 0.13323 0.0
H781 H 0.18659 0.94282 0.17967 0.0
H782 H 0.13097 0.92655 0.09365 0.0
H783 H 0.18284 0.97421 0.14025 0.0
H784 H 0.18236 0.0207 0.05426 0.0
H785 H 0.19025 0.98665 0.08959 0.0
H786 H 0.11229 0.96626 0.08594 0.0
H787 H 0.10469 0.99987 0.05026 0.0
C788 C 0.14538 0.91246 0.13487 0.0
C789 C 0.16075 0.91657 0.15981 0.0
C790 C 0.14324 0.93044 0.11221 0.0
C791 C 0.1563 0.95325 0.11371 0.0
C792 C 0.17258 0.95688 0.13801 0.0
C793 C 0.17479 0.9388 0.16072 0.0
C794 C 0.16699 0.00872 0.06077 0.0
C795 C 0.14291 0.01295 0.04927 0.0
C796 C 0.17146 0.98928 0.08127 0.0
C797 C 0.15197 0.97348 0.09085 0.0
C798 C 0.12795 0.97761 0.07888 0.0
C799 C 0.12351 0.99702 0.05843 0.0
H800 H 0.74752 0.84857 0.8029 0.0
H801 H 0.76133 0.92799 0.80259 0.0
H802 H 0.71414 0.85432 0.83915 0.0
H803 H 0.7274 0.93401 0.83839 0.0
H804 H 0.68621 0.92984 0.92963 0.0
H805 H 0.71696 0.92729 0.88956 0.0
H806 H 0.67327 0.86952 0.84741 0.0
H807 H 0.64303 0.87163 0.88774 0.0
C808 C 0.74313 0.86735 0.81023 0.0
C809 C 0.75706 0.88781 0.79977 0.0
C810 C 0.72385 0.87072 0.83099 0.0
C811 C 0.71785 0.89469 0.8419 0.0
C812 C 0.73157 0.91523 0.83093 0.0
C813 C 0.75091 0.91183 0.81016 0.0
C814 C 0.68295 0.91688 0.91157 0.0
C815 C 0.66211 0.90087 0.91212 0.0
C816 C 0.70063 0.91541 0.88847 0.0
C817 C 0.69793 0.89795 0.8652 0.0
C818 C 0.67645 0.88278 0.86517 0.0
C819 C 0.6589 0.88416 0.88828 0.0
H820 H 0.82083 0.01549 0.55102 0.0
H821 H 0.89951 0.99847 0.55339 0.0
H822 H 0.8128 0.98202 0.58702 0.0
H823 H 0.89174 0.96548 0.58984 0.0
H824 H 0.87077 0.89505 0.63816 0.0
H825 H 0.87477 0.92518 0.59782 0.0
H826 H 0.81796 0.97121 0.63848 0.0
H827 H 0.81356 0.94057 0.67866 0.0
C828 C 0.83641 0.00446 0.55908 0.0
C829 C 0.86081 0.00958 0.54917 0.0
C830 C 0.83184 0.98538 0.57999 0.0
C831 C 0.85156 0.97084 0.59158 0.0
C832 C 0.87593 0.97584 0.5812 0.0
C833 C 0.88047 0.99489 0.56032 0.0
C834 C 0.8588 0.91139 0.63835 0.0
C835 C 0.84183 0.91528 0.66185 0.0
C836 C 0.8613 0.9289 0.61524 0.0
C837 C 0.84702 0.95102 0.61487 0.0
C838 C 0.82922 0.95439 0.6377 0.0
C839 C 0.82663 0.93675 0.66084 0.0
H840 H 0.76843 0.12764 0.27323 0.0
H841 H 0.71944 0.0835 0.32845 0.0
H842 H 0.80237 0.12113 0.30889 0.0
H843 H 0.7527 0.07783 0.36468 0.0
H844 H 0.82036 0.05809 0.41979 0.0
H845 H 0.79045 0.05954 0.37876 0.0
H846 H 0.81641 0.13353 0.35547 0.0
H847 H 0.84676 0.13158 0.39531 0.0
C848 C 0.76494 0.11649 0.29296 0.0
C849 C 0.74121 0.10611 0.29793 0.0
C850 C 0.78435 0.11288 0.31366 0.0
C851 C 0.78053 0.099 0.34011 0.0
C852 C 0.75679 0.08826 0.34458 0.0
C853 C 0.73753 0.09168 0.3238 0.0
C854 C 0.81998 0.07447 0.40557 0.0
C855 C 0.83614 0.09466 0.41109 0.0
C856 C 0.80256 0.07547 0.38211 0.0
C857 C 0.8006 0.09678 0.36357 0.0
C858 C 0.81734 0.1166 0.36867 0.0
C859 C 0.83482 0.11551 0.39187 0.0
H860 H 0.62283 0.01024 1.02455 0.0
H861 H 0.66191 0.96065 0.08436 0.0
H862 H 0.63086 0.04522 0.05815 0.0
H863 H 0.66915 0.99515 0.11853 0.0
H864 H 0.69239 0.06413 0.16921 0.0
H865 H 0.68997 0.03263 0.12997 0.0
H866 H 0.61786 0.06152 0.10379 0.0
H867 H 0.62075 0.09332 0.14188 0.0
C868 C 0.63319 0.00683 0.04486 0.0
C869 C 0.64167 0.98264 0.05176 0.0
C870 C 0.63767 0.02687 0.06434 0.0
C871 C 0.65059 0.02324 0.09143 0.0
C872 C 0.6595 0.99901 0.09785 0.0
C873 C 0.65517 0.97907 0.07829 0.0
C874 C 0.67625 0.06405 0.1547 0.0
C875 C 0.65679 0.08138 0.15895 0.0
C876 C 0.67469 0.04575 0.13231 0.0
C877 C 0.65358 0.04415 0.11358 0.0
C878 C 0.6346 0.06212 0.11726 0.0
C879 C 0.63621 0.08041 0.13944 0.0
H880 H 0.73503 0.13324 0.7866 0.0
H881 H 0.78363 0.09036 0.72967 0.0
H882 H 0.70064 0.12708 0.75151 0.0
H883 H 0.74987 0.08499 0.69408 0.0
H884 H 0.68138 0.06432 0.64147 0.0
H885 H 0.71197 0.06605 0.68167 0.0
H886 H 0.68583 0.13992 0.70494 0.0
H887 H 0.65479 0.13773 0.66576 0.0
C888 C 0.73835 0.12246 0.76661 0.0
C889 C 0.76208 0.1123 0.76098 0.0
C890 C 0.71867 0.11905 0.74627 0.0
C891 C 0.72223 0.10554 0.7196 0.0
C892 C 0.74601 0.0951 0.71441 0.0
C893 C 0.76555 0.09835 0.73481 0.0
C894 C 0.68188 0.08077 0.65547 0.0
C895 C 0.66549 0.10086 0.65014 0.0
C896 C 0.69968 0.0819 0.67845 0.0
C897 C 0.70178 0.10326 0.6967 0.0
C898 C 0.6848 0.12299 0.69187 0.0
C899 C 0.66694 0.12177 0.66909 0.0
H900 H 0.6273 0.98839 0.53926 0.0
H901 H 0.66128 0.03887 0.47619 0.0
H902 H 0.63297 0.95384 0.50436 0.0
H903 H 0.66588 0.00491 0.44071 0.0
H904 H 0.68482 0.93714 0.38568 0.0
H905 H 0.68542 0.9682 0.42542 0.0
H906 H 0.61686 0.93753 0.46072 0.0
H907 H 0.61697 0.90605 0.4222 0.0
C908 C 0.63604 0.99208 0.51795 0.0
C909 C 0.64383 0.01637 0.51054 0.0
C910 C 0.63913 0.9723 0.49771 0.0
C911 C 0.64978 0.97634 0.4693 0.0
C912 C 0.65801 1.00069 0.46234 0.0
C913 C 0.65519 0.02033 0.4827 0.0
C914 C 0.67016 0.93672 0.40228 0.0
C915 C 0.65092 0.91888 0.40056 0.0
C916 C 0.6703 0.9548 0.42499 0.0
C917 C 0.65108 0.95574 0.44651 0.0
C918 C 0.63227 0.9374 0.44513 0.0
C919 C 0.63227 0.91927 0.42269 0.0
H920 H 0.81301 0.94296 0.14146 0.0
H921 H 0.84077 0.87153 0.17201 0.0
H922 H 0.78186 0.94263 0.1811 0.0
H923 H 0.80924 0.87085 0.21101 0.0
H924 H 0.75776 0.88164 0.29082 0.0
H925 H 0.79316 0.88708 0.25669 0.0
H926 H 0.74405 0.92197 0.19255 0.0
H927 H 0.70924 0.91709 0.22677 0.0
C928 C 0.81268 0.92727 0.15675 0.0
C929 C 0.8295 0.90725 0.15326 0.0
C930 C 0.79459 0.92696 0.17943 0.0
C931 C 0.79266 0.90657 0.19933 0.0
C932 C 0.81013 0.88702 0.1965 0.0
C933 C 0.82825 0.88737 0.17387 0.0
C934 C 0.7547 0.89079 0.26959 0.0
C935 C 0.73066 0.89893 0.26158 0.0
C936 C 0.77495 0.89375 0.24985 0.0
C937 C 0.77167 0.90496 0.22159 0.0
C938 C 0.74763 0.91363 0.21412 0.0
C939 C 0.72751 0.91068 0.23377 0.0
H940 H 0.80686 0.07016 0.89106 0.0
H941 H 0.87767 0.0991 0.92121 0.0
H942 H 0.80769 0.03913 0.93105 0.0
H943 H 0.87907 0.06766 0.96008 0.0
H944 H 0.87117 0.01713 0.04011 0.0
H945 H 0.8649 0.05177 1.00524 0.0
H946 H 0.82709 0.00172 0.94483 0.0
H947 H 0.83246 0.96765 0.98029 0.0
C948 C 0.8225 0.07011 0.90633 0.0
C949 C 0.84215 0.0873 0.90271 0.0
C950 C 0.82316 0.05205 0.92918 0.0
C951 C 0.84358 0.05048 0.94899 0.0
C952 C 0.8628 0.06825 0.94582 0.0
C953 C 0.86204 0.08637 0.92321 0.0
C954 C 0.86126 0.01368 1.01952 0.0
C955 C 0.85232 0.98962 1.01303 0.0
C956 C 0.85781 0.03351 0.99929 0.0
C957 C 0.84556 0.0298 0.97181 0.0
C958 C 0.83623 0.0057 0.96576 0.0
C959 C 0.83947 0.98599 0.9861 0.0
H960 H 0.73034 0.57116 0.75376 0.0
H961 H 0.75405 0.64777 0.76264 0.0
H962 H 0.76478 0.56318 0.71939 0.0
H963 H 0.78809 0.64018 0.7276 0.0
H964 H 0.85882 0.61689 0.68084 0.0
H965 H 0.82698 0.62099 0.7192 0.0
H966 H 0.77919 0.57065 0.67042 0.0
H967 H 0.81147 0.56603 0.63243 0.0
C968 C 0.74299 0.58632 0.74843 0.0
C969 C 0.73945 0.6101 0.7611 0.0
C970 C 0.7627 0.5818 0.72844 0.0
C971 C 0.77949 0.60097 0.72037 0.0
C972 C 0.776 0.62472 0.73344 0.0
C973 C 0.75633 0.62918 0.75352 0.0
C974 C 0.84171 0.60631 0.6785 0.0
C975 C 0.83791 0.59102 0.65342 0.0
C976 C 0.8232 0.60891 0.70045 0.0
C977 C 0.8001 0.59648 0.69803 0.0
C978 C 0.79669 0.58041 0.67347 0.0
C979 C 0.81531 0.57768 0.65156 0.0
H980 H 0.68612 0.56065 0.88297 0.0
H981 H 0.62952 0.60501 0.92634 0.0
H982 H 0.68264 0.52916 0.92232 0.0
H983 H 0.62646 0.57403 0.96591 0.0
H984 H 0.60287 0.50021 1.00962 0.0
H985 H 0.60986 0.53379 0.97377 0.0
H986 H 0.68869 0.5166 0.9729 0.0
H987 H 0.68139 0.48249 1.00833 0.0
C988 C 0.67341 0.56406 0.90127 0.0
C989 C 0.65812 0.5855 0.90129 0.0
C990 C 0.67134 0.54589 0.92394 0.0
C991 C 0.65396 0.54864 0.94737 0.0
C992 C 0.63961 0.57073 0.94803 0.0
C993 C 0.64158 0.58876 0.92537 0.0
C994 C 0.62173 0.50374 1.002 0.0
C995 C 0.64155 0.48867 1.01201 0.0
C996 C 0.62583 0.52317 0.98145 0.0
C997 C 0.64993 0.52825 0.97022 0.0
C998 C 0.66983 0.51326 0.9806 0.0
C999 C 0.66569 0.49377 1.00118 0.0
H1000 H 0.68986 0.4333 0.13498 0.0
H1001 H 0.64685 0.37373 0.17477 0.0
H1002 H 0.72041 0.42989 0.17517 0.0
H1003 H 0.67686 0.37076 0.21525 0.0
H1004 H 0.75063 0.34905 0.26018 0.0
H1005 H 0.71756 0.35558 0.2237 0.0
H1006 H 0.7309 0.43522 0.22636 0.0
H1007 H 0.76454 0.42841 0.26232 0.0
C1008 C 0.68656 0.41989 0.15266 0.0
C1009 C 0.66584 0.40376 0.15146 0.0
C1010 C 0.70415 0.4179 0.17582 0.0
C1011 C 0.70146 0.39979 0.19852 0.0
C1012 C 0.68006 0.38452 0.19794 0.0
C1013 C 0.66263 0.3864 0.17476 0.0
C1014 C 0.74633 0.36797 0.25321 0.0
C1015 C 0.76019 0.38819 0.26427 0.0
C1016 C 0.72721 0.3718 0.2323 0.0
C1017 C 0.7213 0.396 0.22187 0.0
C1018 C 0.73498 0.41628 0.23342 0.0
C1019 C 0.75416 0.41242 0.2543 0.0
H1020 H 0.84522 0.53692 0.47535 0.0
H1021 H 0.87521 0.48458 0.5392 0.0
H1022 H 0.83761 0.50296 0.44059 0.0
H1023 H 0.86689 0.45018 0.50473 0.0
H1024 H 0.87877 0.40147 0.42116 0.0
H1025 H 0.8818 0.43281 0.45987 0.0
H1026 H 0.81383 0.46724 0.42807 0.0
H1027 H 0.81127 0.43614 0.38842 0.0
C1028 C 0.84993 0.51804 0.48212 0.0
C1029 C 0.86094 0.5135 0.51004 0.0
C1030 C 0.84535 0.49843 0.4622 0.0
C1031 C 0.85156 0.47358 0.46959 0.0
C1032 C 0.86214 0.46902 0.4979 0.0
C1033 C 0.8668 0.48873 0.51782 0.0
C1034 C 0.86421 0.41549 0.42252 0.0
C1035 C 0.8448 0.41619 0.40136 0.0
C1036 C 0.86591 0.43352 0.44502 0.0
C1037 C 0.8482 0.4529 0.44726 0.0
C1038 C 0.82814 0.45297 0.42687 0.0
C1039 C 0.82647 0.4349 0.40424 0.0
H1040 H 0.76853 0.37398 0.7747 0.0
H1041 H 0.71687 0.40865 0.8356 0.0
H1042 H 0.80284 0.38245 0.80925 0.0
H1043 H 0.75065 0.41631 0.87055 0.0
H1044 H 0.8176 0.44177 0.92311 0.0
H1045 H 0.78669 0.43881 0.88325 0.0
H1046 H 0.8198 0.3692 0.85462 0.0
H1047 H 0.851 0.37269 0.89338 0.0
C1048 C 0.76451 0.38343 0.79546 0.0
C1049 C 0.73995 0.39059 0.80235 0.0
C1050 C 0.78417 0.38818 0.81546 0.0
C1051 C 0.77977 0.40008 0.84304 0.0
C1052 C 0.75513 0.40754 0.84952 0.0
C1053 C 0.73559 0.40294 0.82948 0.0
C1054 C 0.81859 0.42611 0.90794 0.0
C1055 C 0.83694 0.40752 0.9117 0.0
C1056 C 0.80061 0.4242 0.88518 0.0
C1057 C 0.80035 0.40358 0.86557 0.0
C1058 C 0.81933 0.38554 0.86877 0.0
C1059 C 0.8373 0.38751 0.89133 0.0
H1060 H 0.82164 0.56317 0.17917 0.0
H1061 H 0.87907 0.60743 0.13703 0.0
H1062 H 0.82477 0.53245 0.13919 0.0
H1063 H 0.88177 0.57719 0.09679 0.0
H1064 H 0.90379 0.50352 0.05155 0.0
H1065 H 0.89756 0.53665 0.08801 0.0
H1066 H 0.8183 0.52167 0.08825 0.0
H1067 H 0.82481 0.48802 0.05226 0.0
C1068 C 0.83452 0.5667 0.16104 0.0
C1069 C 0.85012 0.58787 0.16151 0.0
C1070 C 0.83635 0.549 0.13799 0.0
C1071 C 0.85378 0.55198 0.11466 0.0
C1072 C 0.86854 0.57377 0.11457 0.0
C1073 C 0.8668 0.59134 0.13762 0.0
C1074 C 0.885 0.50748 0.05915 0.0
C1075 C 0.86481 0.49315 0.04886 0.0
C1076 C 0.88135 0.52662 0.08006 0.0
C1077 C 0.85736 0.5321 0.09131 0.0
C1078 C 0.8371 0.51794 0.08055 0.0
C1079 C 0.84078 0.49875 0.05965 0.0
H1080 H 0.79171 0.59072 0.33858 0.0
H1081 H 0.74065 0.6206 0.27339 0.0
H1082 H 0.75717 0.58313 0.37261 0.0
H1083 H 0.70564 0.61202 0.30689 0.0
H1084 H 0.65391 0.62296 0.3874 0.0
H1085 H 0.6863 0.62613 0.34997 0.0
H1086 H 0.7219 0.5601 0.38596 0.0
H1087 H 0.6898 0.55763 0.42454 0.0
C1088 C 0.77297 0.59534 0.33132 0.0
C1089 C 0.76899 0.60638 0.30326 0.0
C1090 C 0.753 0.59078 0.35084 0.0
C1091 C 0.72829 0.5969 0.34284 0.0
C1092 C 0.72431 0.6074 0.31432 0.0
C1093 C 0.74438 0.61219 0.29489 0.0
C1094 C 0.66841 0.60883 0.38723 0.0
C1095 C 0.66909 0.59002 0.40927 0.0
C1096 C 0.6871 0.6106 0.36545 0.0
C1097 C 0.70712 0.59351 0.36468 0.0
C1098 C 0.7072 0.574 0.38598 0.0
C1099 C 0.68854 0.57235 0.408 0.0
H1100 H 0.62525 0.39925 0.64064 0.0
H1101 H 0.69296 0.43282 0.67388 0.0
H1102 H 0.62244 0.43122 0.6024 0.0
H1103 H 0.69069 0.46449 0.63467 0.0
H1104 H 0.6614 0.53494 0.58692 0.0
H1105 H 0.66813 0.50064 0.62176 0.0
H1106 H 0.63699 0.44902 0.55794 0.0
H1107 H 0.62946 0.48377 0.52352 0.0
C1108 C 0.63991 0.41315 0.63947 0.0
C1109 C 0.65933 0.41332 0.66063 0.0
C1110 C 0.63834 0.43157 0.61725 0.0
C1111 C 0.6562 0.45081 0.61523 0.0
C1112 C 0.67624 0.45038 0.63567 0.0
C1113 C 0.67774 0.43196 0.65806 0.0
C1114 C 0.65609 0.51623 0.58025 0.0
C1115 C 0.64479 0.51214 0.55243 0.0
C1116 C 0.66014 0.49641 0.60022 0.0
C1117 C 0.65317 0.47176 0.59296 0.0
C1118 C 0.6423 0.46767 0.56474 0.0
C1119 C 0.6381 0.48759 0.54481 0.0
H1120 H 0.15464 0.36564 0.39561 0.0
H1121 H 0.1829 0.43828 0.42023 0.0
H1122 H 0.18593 0.36262 0.35671 0.0
H1123 H 0.21376 0.43571 0.38035 0.0
H1124 H 0.28538 0.40899 0.33397 0.0
H1125 H 0.25131 0.41532 0.36893 0.0
H1126 H 0.20157 0.37531 0.31021 0.0
H1127 H 0.23626 0.36822 0.27566 0.0
C1128 C 0.16721 0.38126 0.39241 0.0
C1129 C 0.16617 0.40219 0.41137 0.0
C1130 C 0.18521 0.37957 0.3698 0.0
C1131 C 0.20274 0.3988 0.3652 0.0
C1132 C 0.20103 0.42021 0.38342 0.0
C1133 C 0.18308 0.42184 0.40621 0.0
C1134 C 0.26713 0.40166 0.3284 0.0
C1135 C 0.26358 0.38803 0.30201 0.0
C1136 C 0.24742 0.40547 0.34844 0.0
C1137 C 0.2234 0.39591 0.34268 0.0
C1138 C 0.21978 0.38269 0.31583 0.0
C1139 C 0.23962 0.37874 0.29583 0.0
H1140 H 0.37468 0.39098 0.13691 0.0
H1141 H 0.31541 0.43426 0.17675 0.0
H1142 H 0.37833 0.42169 0.09709 0.0
H1143 H 0.31936 0.46533 0.13704 0.0
H1144 H 0.32141 0.50961 0.04962 0.0
H1145 H 0.31433 0.47556 0.08509 0.0
H1146 H 0.39392 0.46321 0.09055 0.0
H1147 H 0.40083 0.49692 0.05469 0.0
C1148 C 0.36217 0.4069 0.13704 0.0
C1149 C 0.34473 0.41002 0.16023 0.0
C1150 C 0.36446 0.42473 0.11425 0.0
C1151 C 0.34942 0.44633 0.11385 0.0
C1152 C 0.33119 0.44892 0.13633 0.0
C1153 C 0.32888 0.43102 0.15918 0.0
C1154 C 0.33737 0.4994 0.05815 0.0
C1155 C 0.36169 0.50591 0.04918 0.0
C1156 C 0.33333 0.47998 0.07873 0.0
C1157 C 0.35351 0.46646 0.09089 0.0
C1158 C 0.37783 0.47281 0.08145 0.0
C1159 C 0.38185 0.49225 0.06092 0.0
H1160 H 0.26614 0.61983 0.77196 0.0
H1161 H 0.21358 0.58796 0.83407 0.0
H1162 H 0.30024 0.6108 0.80658 0.0
H1163 H 0.24721 0.57988 0.8692 0.0
H1164 H 0.31329 0.55523 0.92395 0.0
H1165 H 0.28274 0.55719 0.88352 0.0
H1166 H 0.31735 0.62491 0.85097 0.0
H1167 H 0.34817 0.62231 0.89015 0.0
C1168 C 0.26189 0.61086 0.793 0.0
C1169 C 0.23713 0.6047 0.80024 0.0
C1170 C 0.28143 0.6058 0.81306 0.0
C1171 C 0.27672 0.59466 0.84108 0.0
C1172 C 0.2519 0.58805 0.84786 0.0
C1173 C 0.23246 0.5929 0.82771 0.0
C1174 C 0.3147 0.5702 0.90774 0.0
C1175 C 0.33329 0.5886 0.91057 0.0
C1176 C 0.29693 0.57155 0.88467 0.0
C1177 C 0.29717 0.59141 0.86384 0.0
C1178 C 0.31648 0.60913 0.86607 0.0
C1179 C 0.33423 0.6077 0.8889 0.0
H1180 H 0.1203 0.59732 0.64123 0.0
H1181 H 0.1924 0.56972 0.66916 0.0
H1182 H 0.11868 0.56591 0.60257 0.0
H1183 H 0.1913 0.53872 0.62936 0.0
H1184 H 0.16653 0.46673 0.58175 0.0
H1185 H 0.17216 0.50095 0.61667 0.0
H1186 H 0.13229 0.55037 0.55697 0.0
H1187 H 0.1258 0.51557 0.52263 0.0
C1188 C 0.13614 0.58488 0.6388 0.0
C1189 C 0.15648 0.58617 0.65863 0.0
C1190 C 0.13525 0.56679 0.61629 0.0
C1191 C 0.15477 0.54941 0.61258 0.0
C1192 C 0.17561 0.55134 0.63169 0.0
C1193 C 0.17641 0.56938 0.65442 0.0
C1194 C 0.15913 0.48497 0.57596 0.0
C1195 C 0.14564 0.48837 0.5494 0.0
C1196 C 0.16252 0.50476 0.59598 0.0
C1197 C 0.15269 0.52871 0.58999 0.0
C1198 C 0.1398 0.53222 0.56285 0.0
C1199 C 0.13622 0.5123 0.54293 0.0
H1200 H 0.18119 0.56025 0.14274 0.0
H1201 H 0.14847 0.62871 0.17545 0.0
H1202 H 0.21257 0.56205 0.18199 0.0
H1203 H 0.18023 0.63105 0.21378 0.0
H1204 H 0.23384 0.62428 0.29142 0.0
H1205 H 0.19851 0.6167 0.25808 0.0
H1206 H 0.24885 0.5845 0.19338 0.0
H1207 H 0.28365 0.59119 0.22716 0.0
C1208 C 0.18037 0.57547 0.15856 0.0
C1209 C 0.16215 0.59431 0.15572 0.0
C1210 C 0.19866 0.57673 0.18093 0.0
C1211 C 0.19938 0.59692 0.20107 0.0
C1212 C 0.18036 0.61505 0.19908 0.0
C1213 C 0.16203 0.61372 0.17687 0.0
C1214 C 0.23722 0.61537 0.27018 0.0
C1215 C 0.26155 0.60836 0.26197 0.0
C1216 C 0.21699 0.61114 0.25089 0.0
C1217 C 0.22058 0.59993 0.22277 0.0
C1218 C 0.24501 0.59268 0.21492 0.0
C1219 C 0.26512 0.59673 0.23426 0.0
H1220 H 0.11528 0.41667 0.90721 0.0
H1221 H 0.19534 0.42508 0.90335 0.0
H1222 H 0.11279 0.44834 0.94492 0.0
H1223 H 0.19317 0.4561 0.94328 0.0
H1224 H 0.17808 0.52993 0.99367 0.0
H1225 H 0.18359 0.49608 0.95788 0.0
H1226 H 0.117 0.46044 0.99225 0.0
H1227 H 0.11072 0.4953 1.02602 0.0
C1228 C 0.13259 0.42481 0.91499 0.0
C1229 C 0.15559 0.41796 0.90216 0.0
C1230 C 0.13117 0.44312 0.9371 0.0
C1231 C 0.15276 0.45504 0.94798 0.0
C1232 C 0.17595 0.44783 0.93552 0.0
C1233 C 0.17731 0.42975 0.91273 0.0
C1234 C 0.16471 0.51474 0.99352 0.0
C1235 C 0.14383 0.51541 1.01251 0.0
C1236 C 0.16792 0.49512 0.97304 0.0
C1237 C 0.15061 0.47526 0.97139 0.0
C1238 C 0.13039 0.47555 0.99165 0.0
C1239 C 0.12685 0.49548 1.01147 0.0
H1240 H 0.31221 0.43578 0.63788 0.0
H1241 H 0.35629 0.37642 0.67656 0.0
H1242 H 0.2819 0.43159 0.67827 0.0
H1243 H 0.3265 0.37264 0.71719 0.0
H1244 H 0.25316 0.34981 0.7627 0.0
H1245 H 0.28596 0.35694 0.72596 0.0
H1246 H 0.27178 0.43642 0.72971 0.0
H1247 H 0.23847 0.42904 0.76596 0.0
C1248 C 0.31578 0.42223 0.65533 0.0
C1249 C 0.33677 0.40642 0.65375 0.0
C1250 C 0.29833 0.41979 0.67861 0.0
C1251 C 0.3014 0.40152 0.70107 0.0
C1252 C 0.32301 0.38652 0.70009 0.0
C1253 C 0.34033 0.38887 0.67681 0.0
C1254 C 0.25724 0.36883 0.75593 0.0
C1255 C 0.24323 0.38883 0.7674 0.0
C1256 C 0.27618 0.373 0.73486 0.0
C1257 C 0.28177 0.39734 0.72462 0.0
C1258 C 0.26795 0.41739 0.73659 0.0
C1259 C 0.24896 0.41319 0.75765 0.0
H1260 H 0.32044 0.48429 0.51194 0.0
H1261 H 0.39815 0.50516 0.51446 0.0
H1262 H 0.3122 0.51776 0.47602 0.0
H1263 H 0.39019 0.53824 0.47813 0.0
H1264 H 0.36715 0.60811 0.42958 0.0
H1265 H 0.37108 0.57785 0.46985 0.0
H1266 H 0.31944 0.52886 0.42485 0.0
H1267 H 0.31511 0.55951 0.38472 0.0
C1268 C 0.33575 0.49617 0.50499 0.0
C1269 C 0.35994 0.49213 0.5162 0.0
C1270 C 0.33107 0.51526 0.48415 0.0
C1271 C 0.35048 0.53086 0.47395 0.0
C1272 C 0.37462 0.52699 0.48567 0.0
C1273 C 0.37926 0.50791 0.50649 0.0
C1274 C 0.35628 0.59107 0.42842 0.0
C1275 C 0.3408 0.58635 0.40374 0.0
C1276 C 0.35875 0.57353 0.45149 0.0
C1277 C 0.3459 0.55059 0.45062 0.0
C1278 C 0.32953 0.54633 0.42656 0.0
C1279 C 0.327 0.56397 0.40346 0.0
H1280 H 0.09763 0.31117 0.4043 0.0
H1281 H 0.1212 0.27658 0.48656 0.0
H1282 H 0.10759 0.27263 0.37749 0.0
H1283 H 0.1307 0.23805 0.46004 0.0
H1284 H 0.18084 0.19204 0.39752 0.0
H1285 H 0.16414 0.22726 0.42561 0.0
H1286 H 0.09856 0.22796 0.36961 0.0
H1287 H 0.1156 0.19294 0.34115 0.0
C1288 C 0.10425 0.2951 0.41674 0.0
C1289 C 0.10884 0.29688 0.44742 0.0
C1290 C 0.10998 0.27303 0.40142 0.0
C1291 C 0.12037 0.25242 0.41657 0.0
C1292 C 0.12328 0.25377 0.44761 0.0
C1293 C 0.11761 0.27576 0.46285 0.0
C1294 C 0.16282 0.19967 0.39131 0.0
C1295 C 0.14952 0.1898 0.36719 0.0
C1296 C 0.15313 0.21972 0.40753 0.0
C1297 C 0.12992 0.23036 0.39996 0.0
C1298 C 0.11654 0.22031 0.37589 0.0
C1299 C 0.12623 0.20019 0.35971 0.0
H1300 H 0.06717 0.9306 0.64573 0.0
H1301 H 0.0499 0.87242 0.58271 0.0
H1302 H 0.03228 0.91762 0.67665 0.0
H1303 H 0.01374 0.86011 0.61293 0.0
H1304 H 0.95682 0.83629 0.68581 0.0
H1305 H 0.99636 0.84285 0.6588 0.0
H1306 H 0.9891 0.92254 0.67236 0.0
H1307 H 0.95103 0.91594 0.69978 0.0
C1308 C 0.05574 0.91508 0.63843 0.0
C1309 C 0.06087 0.90282 0.6116 0.0
C1310 C 0.03564 0.90766 0.65608 0.0
C1311 C 0.01973 0.88818 0.64698 0.0
C1312 C 0.02557 0.87514 0.62068 0.0
C1313 C 0.04612 0.88231 0.60324 0.0
C1314 C 0.96401 0.85509 0.68317 0.0
C1315 C 0.951 0.87556 0.69512 0.0
C1316 C 0.98651 0.8589 0.66759 0.0
C1317 C 0.99619 0.88323 0.66372 0.0
C1318 C 0.9828 0.90349 0.67557 0.0
C1319 C 0.96072 0.89969 0.69117 0.0
H1320 H 0.30976 0.8182 0.9023 0.0
H1321 H 0.37312 0.8077 0.84423 0.0
H1322 H 0.32164 0.78102 0.93041 0.0
H1323 H 0.38465 0.76986 0.87176 0.0
H1324 H 0.40641 0.71008 0.94212 0.0
H1325 H 0.39928 0.75113 0.91867 0.0
H1326 H 0.31977 0.7374 0.91992 0.0
H1327 H 0.32681 0.69738 0.94361 0.0
C1328 C 0.32626 0.80791 0.89559 0.0
C1329 C 0.34031 0.81557 0.87088 0.0
C1330 C 0.33304 0.78655 0.9116 0.0
C1331 C 0.35389 0.77219 0.90305 0.0
C1332 C 0.36858 0.78052 0.87904 0.0
C1333 C 0.36188 0.80207 0.86314 0.0
C1334 C 0.38748 0.71605 0.93744 0.0
C1335 C 0.36718 0.70064 0.94481 0.0
C1336 C 0.38338 0.73944 0.92395 0.0
C1337 C 0.35891 0.74771 0.91774 0.0
C1338 C 0.3388 0.73202 0.92502 0.0
C1339 C 0.34287 0.7089 0.93843 0.0
H1340 H 0.44284 0.132 0.09115 0.0
H1341 H 0.44147 0.06347 0.14208 0.0
H1342 H 0.47897 0.14624 0.11961 0.0
H1343 H 0.47803 0.07719 0.16987 0.0
H1344 H 0.53008 0.1151 0.23283 0.0
H1345 H 0.49133 0.10641 0.2065 0.0
H1346 H 0.52278 0.13798 0.12614 0.0
H1347 H 0.56136 0.14738 0.15298 0.0
C1348 C 0.45032 0.11997 0.10842 0.0
C1349 C 0.43933 0.09665 0.11449 0.0
C1350 C 0.47111 0.12806 0.12462 0.0
C1351 C 0.48144 0.11294 0.14716 0.0
C1352 C 0.47034 0.08958 0.1531 0.0
C1353 C 0.4495 0.08157 0.13702 0.0
C1354 C 0.52853 0.12058 0.20967 0.0
C1355 C 0.54873 0.13183 0.19491 0.0
C1356 C 0.50641 0.11537 0.19447 0.0
C1357 C 0.50401 0.12106 0.16401 0.0
C1358 C 0.52387 0.13344 0.14961 0.0
C1359 C 0.546 0.13883 0.16495 0.0
H1360 H 0.18558 0.81103 0.17665 0.0
H1361 H 0.114 0.81513 0.22052 0.0
H1362 H 0.17066 0.77629 0.14652 0.0
H1363 H 0.09872 0.78066 0.18983 0.0
H1364 H 0.09646 0.69733 0.15663 0.0
H1365 H 0.10523 0.73573 0.18411 0.0
H1366 H 0.14211 0.76636 0.10661 0.0
H1367 H 0.13383 0.72782 0.07953 0.0
C1368 C 0.16658 0.80459 0.17967 0.0
C1369 C 0.15096 0.81574 0.20089 0.0
C1370 C 0.15791 0.78483 0.16222 0.0
C1371 C 0.13339 0.77576 0.16557 0.0
C1372 C 0.11773 0.78706 0.18679 0.0
C1373 C 0.12642 0.80688 0.20425 0.0
C1374 C 0.10591 0.71253 0.14531 0.0
C1375 C 0.11465 0.70955 0.11606 0.0
C1376 C 0.11095 0.73454 0.16104 0.0
C1377 C 0.12479 0.75397 0.14774 0.0
C1378 C 0.13195 0.75154 0.11776 0.0
C1379 C 0.12699 0.72956 0.10213 0.0
H1380 H 0.55286 0.84557 0.41055 0.0
H1381 H 0.51874 0.87178 0.32919 0.0
H1382 H 0.51439 0.85472 0.43764 0.0
H1383 H 0.48009 0.88038 0.35601 0.0
H1384 H 0.43658 0.86415 0.47649 0.0
H1385 H 0.47025 0.8466 0.44628 0.0
H1386 H 0.46961 0.91298 0.39117 0.0
H1387 H 0.43556 0.93009 0.42087 0.0
C1388 C 0.53686 0.85253 0.39831 0.0
C1389 C 0.53881 0.85822 0.36788 0.0
C1390 C 0.5148 0.85779 0.41381 0.0
C1391 C 0.49432 0.86875 0.39908 0.0
C1392 C 0.49573 0.87252 0.36814 0.0
C1393 C 0.51777 0.86736 0.35272 0.0
C1394 C 0.44349 0.87481 0.45769 0.0
C1395 C 0.43349 0.89845 0.45094 0.0
C1396 C 0.46285 0.86483 0.44051 0.0
C1397 C 0.47258 0.87832 0.41623 0.0
C1398 C 0.46227 0.90187 0.40936 0.0
C1399 C 0.44293 0.91181 0.42653 0.0
H1400 H 0.33929 0.29466 0.60623 0.0
H1401 H 0.41744 0.29369 0.62985 0.0
H1402 H 0.33296 0.25567 0.63197 0.0
H1403 H 0.41132 0.25322 0.65507 0.0
H1404 H 0.37907 0.19925 0.72861 0.0
H1405 H 0.39196 0.23521 0.69853 0.0
H1406 H 0.34016 0.21287 0.62975 0.0
H1407 H 0.32636 0.1781 0.66063 0.0
C1408 C 0.35532 0.28581 0.61655 0.0
C1409 C 0.37889 0.29722 0.61599 0.0
C1410 C 0.35172 0.26318 0.63115 0.0
C1411 C 0.37167 0.25096 0.64533 0.0
C1412 C 0.3955 0.26218 0.64449 0.0
C1413 C 0.39908 0.28522 0.62994 0.0
C1414 C 0.37059 0.2021 0.70697 0.0
C1415 C 0.35132 0.18637 0.69714 0.0
C1416 C 0.37812 0.22254 0.68961 0.0
C1417 C 0.36677 0.2273 0.66191 0.0
C1418 C 0.34874 0.21033 0.65137 0.0
C1419 C 0.34086 0.19032 0.66896 0.0
H1420 H 0.05396 0.13072 0.98014 0.0
H1421 H 0.07124 0.07321 0.91616 0.0
H1422 H 0.01694 0.14238 0.95127 0.0
H1423 H 0.03518 0.08547 0.88662 0.0
H1424 H 0.95307 0.08672 0.86606 0.0
H1425 H 0.99192 0.08016 0.89206 0.0
H1426 H 0.99883 0.15981 0.90604 0.0
H1427 H 0.95868 0.16631 0.88042 0.0
C1428 C 0.04998 0.12081 0.95969 0.0
C1429 C 0.06512 0.10073 0.95064 0.0
C1430 C 0.02891 0.12762 0.94301 0.0
C1431 C 0.02277 0.11462 0.91682 0.0
C1432 C 0.03886 0.09545 0.90709 0.0
C1433 C 0.05962 0.08844 0.92394 0.0
C1434 C 0.96285 0.10295 0.8745 0.0
C1435 C 0.95287 0.12707 0.87107 0.0
C1436 C 0.98535 0.09918 0.88926 0.0
C1437 C 0.99884 0.11945 0.90082 0.0
C1438 C 0.98889 0.14375 0.89747 0.0
C1439 C 0.96602 0.14752 0.88271 0.0
H1440 H 0.8161 0.81843 0.66771 0.0
H1441 H 0.88006 0.8087 0.72506 0.0
H1442 H 0.82846 0.78167 0.63938 0.0
H1443 H 0.89219 0.77135 0.69707 0.0
H1444 H 0.9133 0.71264 0.6244 0.0
H1445 H 0.90623 0.75357 0.64802 0.0
H1446 H 0.82724 0.73767 0.65274 0.0
H1447 H 0.83416 0.69767 0.62919 0.0
C1448 C 0.83287 0.80844 0.67416 0.0
C1449 C 0.84691 0.8161 0.6988 0.0
C1450 C 0.83994 0.78738 0.658 0.0
C1451 C 0.86109 0.77338 0.6663 0.0
C1452 C 0.87587 0.7818 0.69008 0.0
C1453 C 0.86883 0.80304 0.70621 0.0
C1454 C 0.8945 0.71809 0.63049 0.0
C1455 C 0.87428 0.70211 0.62486 0.0
C1456 C 0.89045 0.74139 0.64402 0.0
C1457 C 0.86612 0.74897 0.65184 0.0
C1458 C 0.84611 0.73271 0.64636 0.0
C1459 C 0.85013 0.70964 0.63305 0.0
H1460 H 0.04624 0.08713 0.3595 0.0
H1461 H 0.04163 0.16594 0.37928 0.0
H1462 H 0.00729 0.07991 0.38504 0.0
H1463 H 0.00133 0.1589 0.4042 0.0
H1464 H 0.94663 0.12843 0.47708 0.0
H1465 H 0.98322 0.14065 0.44791 0.0
H1466 H 0.9643 0.08503 0.38197 0.0
H1467 H 0.92875 0.07206 0.41201 0.0
C1468 C 0.03661 0.10307 0.36895 0.0
C1469 C 0.04697 0.12713 0.36733 0.0
C1470 C 0.01403 0.09895 0.38344 0.0
C1471 C 0.00082 0.11883 0.39647 0.0
C1472 C 0.01104 0.1431 0.3946 0.0
C1473 C 0.034 0.14721 0.38019 0.0
C1474 C 0.95036 0.11893 0.45628 0.0
C1475 C 0.93522 0.09897 0.44702 0.0
C1476 C 0.9712 0.12607 0.4394 0.0
C1477 C 0.97706 0.1136 0.41274 0.0
C1478 C 0.9609 0.09459 0.40281 0.0
C1479 C 0.94042 0.08719 0.41991 0.0
H1480 H 0.62863 0.27492 0.07917 0.0
H1481 H 0.60138 0.30864 0.1601 0.0
H1482 H 0.63806 0.23652 0.1062 0.0
H1483 H 0.61124 0.27016 0.18748 0.0
H1484 H 0.61796 0.18917 0.22302 0.0
H1485 H 0.60234 0.22521 0.1948 0.0
H1486 H 0.66993 0.22525 0.14224 0.0
H1487 H 0.68522 0.18917 0.17008 0.0
C1488 C 0.6243 0.27397 0.10271 0.0
C1489 C 0.61438 0.29482 0.11756 0.0
C1490 C 0.62993 0.25203 0.11827 0.0
C1491 C 0.62584 0.25037 0.14914 0.0
C1492 C 0.61456 0.27076 0.16371 0.0
C1493 C 0.6089 0.2928 0.14805 0.0
C1494 C 0.62938 0.19688 0.20534 0.0
C1495 C 0.65281 0.18637 0.19871 0.0
C1496 C 0.6205 0.21758 0.18928 0.0
C1497 C 0.6348 0.22808 0.16613 0.0
C1498 C 0.6582 0.21741 0.15955 0.0
C1499 C 0.66709 0.19683 0.17565 0.0
H1500 H 0.44451 0.91522 0.87353 0.0
H1501 H 0.45338 0.83507 0.87895 0.0
H1502 H 0.48374 0.92109 0.89879 0.0
H1503 H 0.49392 0.84098 0.90387 0.0
H1504 H 0.55007 0.86672 0.97877 0.0
H1505 H 0.51265 0.85576 0.95032 0.0
H1506 H 0.52701 0.91754 0.89046 0.0
H1507 H 0.56347 0.92901 0.91963 0.0
C1508 C 0.45506 0.89875 0.87985 0.0
C1509 C 0.44592 0.87466 0.8741 0.0
C1510 C 0.47778 0.90215 0.89419 0.0
C1511 C 0.49231 0.88155 0.90297 0.0
C1512 C 0.48316 0.85727 0.89742 0.0
C1513 C 0.46007 0.85385 0.88307 0.0
C1514 C 0.54515 0.87785 0.95945 0.0
C1515 C 0.55929 0.89902 0.95169 0.0
C1516 C 0.52386 0.87145 0.94301 0.0
C1517 C 0.51653 0.886 0.91837 0.0
C1518 C 0.53165 0.90632 0.90979 0.0
C1519 C 0.55261 0.91288 0.92642 0.0
H1520 H 0.91665 0.29248 0.93673 0.0
H1521 H 0.83722 0.29931 0.95108 0.0
H1522 H 0.90965 0.25259 0.91076 0.0
H1523 H 0.83017 0.26089 0.92462 0.0
H1524 H 0.82114 0.18262 0.89874 0.0
H1525 H 0.83433 0.21769 0.92922 0.0
H1526 H 0.89247 0.23493 0.86557 0.0
H1527 H 0.87996 0.19867 0.8359 0.0
C1528 C 0.8978 0.28545 0.93438 0.0
C1529 C 0.87753 0.29886 0.94613 0.0
C1530 C 0.89374 0.26274 0.9194 0.0
C1531 C 0.86933 0.25326 0.9159 0.0
C1532 C 0.84926 0.26702 0.92757 0.0
C1533 C 0.85332 0.28931 0.94261 0.0
C1534 C 0.83686 0.19381 0.89141 0.0
C1535 C 0.84925 0.18828 0.86478 0.0
C1536 C 0.8444 0.214 0.90878 0.0
C1537 C 0.86414 0.22959 0.89955 0.0
C1538 C 0.87727 0.22335 0.87345 0.0
C1539 C 0.86998 0.20273 0.85631 0.0
H1540 H 0.45793 0.16698 0.68264 0.0
H1541 H 0.45648 0.08825 0.70409 0.0
H1542 H 0.49728 0.16073 0.65526 0.0
H1543 H 0.49432 0.0818 0.67618 0.0
H1544 H 0.57169 0.07543 0.64605 0.0
H1545 H 0.53709 0.08831 0.67745 0.0
H1546 H 0.51448 0.14227 0.61079 0.0
H1547 H 0.55039 0.13022 0.58012 0.0
C1548 C 0.46605 0.14845 0.68158 0.0
C1549 C 0.45429 0.12816 0.69568 0.0
C1550 C 0.48844 0.1448 0.66577 0.0
C1551 C 0.49924 0.12078 0.66373 0.0
C1552 C 0.48716 0.10068 0.67788 0.0
C1553 C 0.4652 0.10436 0.69377 0.0
C1554 C 0.55941 0.09015 0.63821 0.0
C1555 C 0.56336 0.10151 0.61049 0.0
C1556 C 0.53947 0.09751 0.65613 0.0
C1557 C 0.52252 0.11595 0.64641 0.0
C1558 C 0.52713 0.12808 0.61908 0.0
C1559 C 0.54753 0.12104 0.60137 0.0
H1560 H 0.62293 0.82634 0.37902 0.0
H1561 H 0.66796 0.78662 0.31502 0.0
H1562 H 0.6132 0.78714 0.40428 0.0
H1563 H 0.65862 0.74722 0.34071 0.0
H1564 H 0.66643 0.69364 0.4215 0.0
H1565 H 0.67083 0.73074 0.39068 0.0
H1566 H 0.59174 0.74507 0.39868 0.0
H1567 H 0.58727 0.70736 0.42981 0.0
C1568 C 0.63029 0.80914 0.36995 0.0
C1569 C 0.646 0.8095 0.34488 0.0
C1570 C 0.62473 0.78667 0.38446 0.0
C1571 C 0.63509 0.76409 0.37448 0.0
C1572 C 0.65047 0.76438 0.34902 0.0
C1573 C 0.65581 0.78688 0.3343 0.0
C1574 C 0.64989 0.7046 0.41665 0.0
C1575 C 0.62649 0.69768 0.42817 0.0
C1576 C 0.65241 0.72576 0.39872 0.0
C1577 C 0.63163 0.74074 0.39205 0.0
C1578 C 0.60811 0.73386 0.40352 0.0
C1579 C 0.60552 0.71234 0.42127 0.0
H1580 H 0.93312 0.93872 0.14214 0.0
H1581 H 0.94096 0.87238 0.08841 0.0
H1582 H 0.97071 0.92747 0.16958 0.0
H1583 H 0.97921 0.86138 0.11538 0.0
H1584 H 0.03864 0.84184 0.18812 0.0
H1585 H 0.99801 0.84867 0.16372 0.0
H1586 H 0.01427 0.92762 0.15706 0.0
H1587 H 0.05389 0.92094 0.18158 0.0
C1588 C 0.94294 0.92172 0.1362 0.0
C1589 C 0.93437 0.90662 0.11292 0.0
C1590 C 0.96453 0.91529 0.15184 0.0
C1591 C 0.97821 0.89371 0.14437 0.0
C1592 C 0.96907 0.87805 0.12177 0.0
C1593 C 0.94731 0.88445 0.10619 0.0
C1594 C 0.03336 0.86057 0.1814 0.0
C1595 C 0.0493 0.88087 0.18693 0.0
C1596 C 0.0102 0.8645 0.16738 0.0
C1597 C 0.00273 0.88877 0.15884 0.0
C1598 C 0.01906 0.9088 0.164 0.0
C1599 C 0.04193 0.90491 0.1779 0.0
H1600 H 0.613 0.68832 0.83703 0.0
H1601 H 0.68085 0.68869 0.88881 0.0
H1602 H 0.59704 0.72357 0.86606 0.0
H1603 H 0.6652 0.72407 0.91746 0.0
H1604 H 0.62362 0.77219 0.98164 0.0
H1605 H 0.63327 0.73422 0.95412 0.0
H1606 H 0.60562 0.76859 0.87346 0.0
H1607 H 0.59557 0.80663 0.90132 0.0
C1608 C 0.62445 0.69591 0.85468 0.0
C1609 C 0.64814 0.68576 0.86074 0.0
C1610 C 0.61538 0.71617 0.87118 0.0
C1611 C 0.62977 0.72659 0.89418 0.0
C1612 C 0.65343 0.71626 0.90024 0.0
C1613 C 0.66251 0.6961 0.8837 0.0
C1614 C 0.61915 0.77148 0.95814 0.0
C1615 C 0.60897 0.7924 0.94357 0.0
C1616 C 0.62489 0.74979 0.94231 0.0
C1617 C 0.62065 0.7485 0.91148 0.0
C1618 C 0.60907 0.76893 0.8972 0.0
C1619 C 0.60329 0.79072 0.91313 0.0
H1620 H 0.55483 0.37012 0.08339 0.0
H1621 H 0.57172 0.42831 0.14656 0.0
H1622 H 0.51842 0.35794 0.11308 0.0
H1623 H 0.53636 0.41552 0.17695 0.0
H1624 H 0.45446 0.41337 0.19851 0.0
H1625 H 0.49304 0.42022 0.17209 0.0
H1626 H 0.501 0.34058 0.15872 0.0
H1627 H 0.46109 0.33376 0.18477 0.0
C1628 C 0.55091 0.38006 0.10385 0.0
C1629 C 0.5657 0.4005 0.11242 0.0
C1630 C 0.53021 0.37295 0.121 0.0
C1631 C 0.52415 0.386 0.14719 0.0
C1632 C 0.53997 0.4055 0.15648 0.0
C1633 C 0.56032 0.41282 0.13914 0.0
C1634 C 0.46442 0.3972 0.19014 0.0
C1635 C 0.45479 0.37299 0.19383 0.0
C1636 C 0.48678 0.40114 0.17513 0.0
C1637 C 0.50046 0.38096 0.16359 0.0
C1638 C 0.4909 0.35657 0.16726 0.0
C1639 C 0.46817 0.35261 0.18228 0.0
H1640 H 0.82263 0.32305 0.40237 0.0
H1641 H 0.8795 0.30489 0.33787 0.0
H1642 H 0.83537 0.2875 0.43273 0.0
H1643 H 0.89153 0.26833 0.36743 0.0
H1644 H 0.91559 0.20966 0.43698 0.0
H1645 H 0.9092 0.25017 0.41192 0.0
H1646 H 0.82989 0.24438 0.42867 0.0
H1647 H 0.8364 0.20525 0.45422 0.0
C1648 C 0.83784 0.31135 0.39468 0.0
C1649 C 0.8498 0.31641 0.36761 0.0
C1650 C 0.84511 0.29089 0.41198 0.0
C1651 C 0.86417 0.27464 0.40227 0.0
C1652 C 0.87688 0.28043 0.37572 0.0
C1653 C 0.86986 0.30124 0.35864 0.0
C1654 C 0.89693 0.21737 0.43548 0.0
C1655 C 0.87654 0.20441 0.44768 0.0
C1656 C 0.8932 0.24044 0.42103 0.0
C1657 C 0.86902 0.25077 0.41852 0.0
C1658 C 0.84884 0.23754 0.43082 0.0
C1659 C 0.85257 0.21485 0.44531 0.0
H1660 H 0.92418 0.63358 0.6246 0.0
H1661 H 0.96393 0.56598 0.60274 0.0
H1662 H 0.9612 0.64962 0.65043 0.0
H1663 H 0.00123 0.58219 0.62802 0.0
H1664 H 0.06813 0.63778 0.64447 0.0
H1665 H 0.03012 0.62603 0.61751 0.0
H1666 H 0.98805 0.62945 0.6993 0.0
H1667 H 0.02621 0.64035 0.72651 0.0
C1668 C 0.94096 0.62236 0.62506 0.0
C1669 C 0.94141 0.59877 0.6115 0.0
C1670 C 0.96201 0.63142 0.63992 0.0
C1671 C 0.98402 0.61722 0.64082 0.0
C1672 C 0.98448 0.59356 0.62729 0.0
C1673 C 0.96319 0.58425 0.61307 0.0
C1674 C 0.05066 0.63657 0.65655 0.0
C1675 C 0.05001 0.64004 0.68752 0.0
C1676 C 0.02903 0.62964 0.64119 0.0
C1677 C 0.00634 0.62671 0.65647 0.0
C1678 C 0.00538 0.63163 0.68711 0.0
C1679 C 0.02712 0.63794 0.7026 0.0
H1680 H 0.61691 0.30932 0.72403 0.0
H1681 H 0.68496 0.30767 0.67255 0.0
H1682 H 0.6001 0.27502 0.69426 0.0
H1683 H 0.66842 0.27315 0.6431 0.0
H1684 H 0.62554 0.22721 0.57798 0.0
H1685 H 0.63598 0.26465 0.60612 0.0
H1686 H 0.60776 0.22992 0.68629 0.0
H1687 H 0.59696 0.19246 0.65787 0.0
C1688 C 0.62824 0.30162 0.7063 0.0
C1689 C 0.65221 0.31114 0.70051 0.0
C1690 C 0.61867 0.28192 0.68937 0.0
C1691 C 0.63285 0.27144 0.66622 0.0
C1692 C 0.65683 0.28108 0.66045 0.0
C1693 C 0.66641 0.30071 0.67744 0.0
C1694 C 0.62106 0.22778 0.6015 0.0
C1695 C 0.61057 0.20691 0.6158 0.0
C1696 C 0.62727 0.24913 0.61767 0.0
C1697 C 0.62315 0.25008 0.64853 0.0
C1698 C 0.61114 0.22979 0.66252 0.0
C1699 C 0.60491 0.20836 0.64627 0.0
H1700 H 0.92828 0.42889 0.9097 0.0
H1701 H 0.94946 0.37538 0.97716 0.0
H1702 H 0.96327 0.41562 0.87897 0.0
H1703 H 0.98559 0.36306 0.94738 0.0
H1704 H 0.04369 0.33707 0.87966 0.0
H1705 H 0.00354 0.34381 0.90495 0.0
H1706 H 0.00585 0.42181 0.87928 0.0
H1707 H 0.04454 0.41474 0.85324 0.0
C1708 C 0.94058 0.41436 0.91798 0.0
C1709 C 0.93647 0.40343 0.94591 0.0
C1710 C 0.96076 0.40679 0.90048 0.0
C1711 C 0.97772 0.38858 0.91087 0.0
C1712 C 0.97294 0.37698 0.93847 0.0
C1713 C 0.95237 0.3842 0.95569 0.0
C1714 C 0.03526 0.35549 0.87919 0.0
C1715 C 0.04713 0.37532 0.86438 0.0
C1716 C 0.01239 0.35945 0.89382 0.0
C1717 C 0.00121 0.38337 0.89407 0.0
C1718 C 0.0133 0.40299 0.87901 0.0
C1719 C 0.03575 0.39897 0.86421 0.0
H1720 H 0.87137 0.77931 0.08552 0.0
H1721 H 0.90175 0.81405 0.16416 0.0
H1722 H 0.86358 0.74111 0.11359 0.0
H1723 H 0.89363 0.77567 0.1926 0.0
H1724 H 0.88958 0.69391 0.22803 0.0
H1725 H 0.90353 0.73021 0.19902 0.0
H1726 H 0.83305 0.73086 0.15232 0.0
H1727 H 0.81933 0.69463 0.18098 0.0
C1728 C 0.87674 0.77863 0.10876 0.0
C1729 C 0.88702 0.7997 0.12272 0.0
C1730 C 0.87208 0.75679 0.12491 0.0
C1731 C 0.87754 0.75548 0.15547 0.0
C1732 C 0.88923 0.77607 0.16908 0.0
C1733 C 0.89391 0.79803 0.15283 0.0
C1734 C 0.87713 0.70186 0.21152 0.0
C1735 C 0.85337 0.69147 0.20671 0.0
C1736 C 0.88508 0.72267 0.19501 0.0
C1737 C 0.86948 0.73334 0.17321 0.0
C1738 C 0.84571 0.72286 0.16855 0.0
C1739 C 0.83775 0.70221 0.18512 0.0
H1740 H 0.5612 0.63153 0.47022 0.0
H1741 H 0.56484 0.56226 0.42133 0.0
H1742 H 0.52304 0.64302 0.44341 0.0
H1743 H 0.52729 0.57393 0.39402 0.0
H1744 H 0.4443 0.58354 0.38418 0.0
H1745 H 0.4841 0.57645 0.40808 0.0
H1746 H 0.50362 0.65406 0.39473 0.0
H1747 H 0.4628 0.66135 0.37092 0.0
C1748 C 0.55399 0.61893 0.45347 0.0
C1749 C 0.56569 0.59582 0.44812 0.0
C1750 C 0.53225 0.62559 0.43799 0.0
C1751 C 0.52191 0.60925 0.41687 0.0
C1752 C 0.53442 0.58669 0.41064 0.0
C1753 C 0.55598 0.58001 0.42619 0.0
C1754 C 0.457 0.59919 0.38626 0.0
C1755 C 0.4505 0.62299 0.37549 0.0
C1756 C 0.47998 0.59505 0.3998 0.0
C1757 C 0.49729 0.61455 0.40284 0.0
C1758 C 0.49067 0.63863 0.39267 0.0
C1759 C 0.4674 0.64282 0.37902 0.0
H1760 H 0.37876 0.22331 0.08204 0.0
H1761 H 0.40574 0.18849 0.16266 0.0
H1762 H 0.36907 0.26129 0.1096 0.0
H1763 H 0.39571 0.22653 0.19049 0.0
H1764 H 0.38778 0.30679 0.22711 0.0
H1765 H 0.40427 0.27176 0.19807 0.0
H1766 H 0.33642 0.27068 0.14613 0.0
H1767 H 0.32019 0.30576 0.17485 0.0
C1768 C 0.38305 0.22396 0.10559 0.0
C1769 C 0.39286 0.20292 0.12026 0.0
C1770 C 0.37729 0.24564 0.12143 0.0
C1771 C 0.38118 0.24678 0.15234 0.0
C1772 C 0.39253 0.22627 0.16669 0.0
C1773 C 0.3983 0.2045 0.15077 0.0
C1774 C 0.37649 0.29909 0.20937 0.0
C1775 C 0.35272 0.30897 0.20317 0.0
C1776 C 0.38588 0.27898 0.19285 0.0
C1777 C 0.37174 0.26852 0.16966 0.0
C1778 C 0.34799 0.27856 0.16349 0.0
C1779 C 0.33858 0.29853 0.18009 0.0
H1780 H 0.5476 0.58186 0.86874 0.0
H1781 H 0.53837 0.66191 0.87428 0.0
H1782 H 0.50826 0.5757 0.89397 0.0
H1783 H 0.49785 0.65572 0.89924 0.0
H1784 H 0.44112 0.6292 0.97378 0.0
H1785 H 0.47874 0.64053 0.94565 0.0
H1786 H 0.4649 0.57932 0.88527 0.0
H1787 H 0.42821 0.56757 0.91399 0.0
C1788 C 0.53697 0.59824 0.87512 0.0
C1789 C 0.54604 0.62239 0.86935 0.0
C1790 C 0.5142 0.59468 0.88945 0.0
C1791 C 0.49955 0.61517 0.89827 0.0
C1792 C 0.50867 0.6395 0.89277 0.0
C1793 C 0.53176 0.64308 0.87839 0.0
C1794 C 0.44614 0.61834 0.95435 0.0
C1795 C 0.43207 0.59722 0.94635 0.0
C1796 C 0.46758 0.62491 0.93813 0.0
C1797 C 0.47517 0.61057 0.91348 0.0
C1798 C 0.46009 0.59037 0.90461 0.0
C1799 C 0.43896 0.58367 0.92097 0.0
H1800 H 0.13148 0.77887 0.58157 0.0
H1801 H 0.09786 0.81034 0.66037 0.0
H1802 H 0.14184 0.74098 0.60911 0.0
H1803 H 0.10862 0.7724 0.6883 0.0
H1804 H 0.11688 0.69154 0.72306 0.0
H1805 H 0.10155 0.72724 0.69425 0.0
H1806 H 0.17203 0.73077 0.64757 0.0
H1807 H 0.1871 0.69483 0.67602 0.0
C1808 C 0.12598 0.77751 0.60473 0.0
C1809 C 0.11393 0.79757 0.61887 0.0
C1810 C 0.13214 0.75589 0.6206 0.0
C1811 C 0.12647 0.7538 0.65105 0.0
C1812 C 0.1132 0.77337 0.66484 0.0
C1813 C 0.107 0.79509 0.64888 0.0
C1814 C 0.12905 0.69996 0.70659 0.0
C1815 C 0.15319 0.69043 0.70172 0.0
C1816 C 0.12031 0.72047 0.69019 0.0
C1817 C 0.13549 0.73183 0.6685 0.0
C1818 C 0.15967 0.72223 0.66374 0.0
C1819 C 0.16841 0.70175 0.68017 0.0
H1820 H 0.95945 0.3366 0.379 0.0
H1821 H 0.95423 0.41594 0.36202 0.0
H1822 H 0.99895 0.34345 0.4058 0.0
H1823 H 0.99229 0.42288 0.38929 0.0
H1824 H 0.07051 0.43064 0.41657 0.0
H1825 H 0.03544 0.4178 0.38594 0.0
H1826 H 0.01608 0.36127 0.45097 0.0
H1827 H 0.05232 0.37342 0.4809 0.0
C1828 C 0.96676 0.3554 0.38093 0.0
C1829 C 0.95391 0.37569 0.36823 0.0
C1830 C 0.98923 0.35939 0.3964 0.0
C1831 C 0.99905 0.38372 0.39944 0.0
C1832 C 0.98587 0.40382 0.38676 0.0
C1833 C 0.9638 0.39983 0.37125 0.0
C1834 C 0.05884 0.41538 0.42422 0.0
C1835 C 0.06381 0.40332 0.4513 0.0
C1836 C 0.03864 0.40804 0.40675 0.0
C1837 C 0.02251 0.38882 0.41624 0.0
C1838 C 0.02811 0.37606 0.44288 0.0
C1839 C 0.0487 0.38316 0.46016 0.0
H1840 H 0.33176 0.79826 0.4503 0.0
H1841 H 0.41159 0.79018 0.44111 0.0
H1842 H 0.32535 0.76002 0.42304 0.0
H1843 H 0.40522 0.75058 0.41439 0.0
H1844 H 0.37906 0.69629 0.33835 0.0
H1845 H 0.39014 0.73291 0.36826 0.0
H1846 H 0.32861 0.71677 0.42763 0.0
H1847 H 0.31697 0.68132 0.39693 0.0
C1848 C 0.34805 0.78803 0.44279 0.0
C1849 C 0.37221 0.79716 0.44802 0.0
C1850 C 0.34436 0.76587 0.42728 0.0
C1851 C 0.36474 0.75183 0.41681 0.0
C1852 C 0.38907 0.76093 0.42201 0.0
C1853 C 0.39277 0.78349 0.43746 0.0
C1854 C 0.36802 0.70068 0.35786 0.0
C1855 C 0.34686 0.68635 0.36504 0.0
C1856 C 0.37446 0.72152 0.37515 0.0
C1857 C 0.36002 0.72817 0.40014 0.0
C1858 C 0.33972 0.7128 0.40806 0.0
C1859 C 0.33307 0.69236 0.39055 0.0
H1860 H 0.06332 0.63914 0.08806 0.0
H1861 H 0.0634 0.5699 0.13765 0.0
H1862 H 0.02778 0.65399 0.11739 0.0
H1863 H 0.02767 0.58443 0.16657 0.0
H1864 H 0.97893 0.62415 0.2319 0.0
H1865 H 0.01701 0.6153 0.20419 0.0
H1866 H 0.983 0.64496 0.12435 0.0
H1867 H 0.94487 0.65423 0.15243 0.0
C1868 C 0.05574 0.62713 0.10529 0.0
C1869 C 0.06613 0.6034 0.11069 0.0
C1870 C 0.03532 0.63557 0.12195 0.0
C1871 C 0.02494 0.62047 0.14443 0.0
C1872 C 0.03545 0.59673 0.14978 0.0
C1873 C 0.05581 0.58829 0.13308 0.0
C1874 C 0.97975 0.62922 0.20855 0.0
C1875 C 0.95892 0.63976 0.19425 0.0
C1876 C 0.00149 0.62393 0.19261 0.0
C1877 C 0.00291 0.62899 0.16194 0.0
C1878 C 0.98255 0.64089 0.14798 0.0
C1879 C 0.96072 0.64622 0.16402 0.0
H1880 H 0.1824 0.3136 0.89712 0.0
H1881 H 0.1171 0.31117 0.84097 0.0
H1882 H 0.1668 0.27784 0.92533 0.0
H1883 H 0.10108 0.2757 0.86962 0.0
H1884 H 0.10018 0.19307 0.90508 0.0
H1885 H 0.11013 0.23154 0.87796 0.0
H1886 H 0.13457 0.26567 0.95998 0.0
H1887 H 0.12515 0.22714 0.98677 0.0
C1888 C 0.16459 0.30553 0.891 0.0
C1889 C 0.15097 0.31516 0.86689 0.0
C1890 C 0.15552 0.28515 0.90729 0.0
C1891 C 0.13257 0.27392 0.89987 0.0
C1892 C 0.11888 0.28373 0.87581 0.0
C1893 C 0.12798 0.30415 0.85952 0.0
C1894 C 0.10717 0.20901 0.91734 0.0
C1895 C 0.11203 0.20709 0.94797 0.0
C1896 C 0.11289 0.23106 0.90183 0.0
C1897 C 0.12356 0.2516 0.91671 0.0
C1898 C 0.12695 0.25005 0.9477 0.0
C1899 C 0.12131 0.22805 0.96311 0.0
H1900 H 0.5424 0.3359 0.68473 0.0
H1901 H 0.54943 0.41531 0.69953 0.0
H1902 H 0.50195 0.34311 0.66016 0.0
H1903 H 0.51026 0.42258 0.6745 0.0
H1904 H 0.43087 0.43097 0.65108 0.0
H1905 H 0.467 0.41814 0.68023 0.0
H1906 H 0.48362 0.36075 0.61555 0.0
H1907 H 0.44657 0.37297 0.58716 0.0
C1908 C 0.5353 0.3548 0.68276 0.0
C1909 C 0.54896 0.375 0.69419 0.0
C1910 C 0.51225 0.35898 0.66859 0.0
C1911 C 0.50262 0.38344 0.66562 0.0
C1912 C 0.51658 0.40345 0.67703 0.0
C1913 C 0.53927 0.39928 0.69122 0.0
C1914 C 0.44215 0.4155 0.64325 0.0
C1915 C 0.4362 0.40323 0.61668 0.0
C1916 C 0.46295 0.40817 0.65985 0.0
C1917 C 0.4786 0.38869 0.64998 0.0
C1918 C 0.47199 0.37573 0.62394 0.0
C1919 C 0.45089 0.38286 0.60753 0.0
H1920 H 0.17608 0.06541 0.31688 0.0
H1921 H 0.11328 0.06617 0.25637 0.0
H1922 H 0.18113 0.02051 0.30889 0.0
H1923 H 0.11832 0.02128 0.24875 0.0
H1924 H 0.10488 0.94634 0.29504 0.0
H1925 H 0.11176 0.99111 0.30099 0.0
H1926 H 0.18433 0.98429 0.25992 0.0
H1927 H 0.17754 0.93932 0.25375 0.0
C1928 C 0.16398 0.05615 0.30108 0.0
C1929 C 0.14394 0.06888 0.28766 0.0
C1930 C 0.16689 0.03059 0.29663 0.0
C1931 C 0.14974 0.01786 0.27882 0.0
C1932 C 0.13145 0.03104 0.26291 0.0
C1933 C 0.12861 0.05656 0.26722 0.0
C1934 C 0.12253 0.95427 0.28798 0.0
C1935 C 0.14043 0.93975 0.27332 0.0
C1936 C 0.12638 0.97975 0.29121 0.0
C1937 C 0.14823 0.99074 0.2801 0.0
C1938 C 0.16727 0.97592 0.26822 0.0
C1939 C 0.16336 0.95037 0.2648 0.0
H1940 H 0.18361 0.92634 0.56292 0.0
H1941 H 0.19287 0.8537 0.5222 0.0
H1942 H 0.22873 0.93321 0.56006 0.0
H1943 H 0.23783 0.86064 0.51962 0.0
H1944 H 0.3104 0.92523 0.50305 0.0
H1945 H 0.26573 0.93054 0.51199 0.0
H1946 H 0.26689 0.86769 0.57247 0.0
H1947 H 0.31158 0.86237 0.56385 0.0
C1948 C 0.19523 0.91214 0.55279 0.0
C1949 C 0.18508 0.88929 0.54323 0.0
C1950 C 0.22087 0.91607 0.55133 0.0
C1951 C 0.23629 0.89711 0.54046 0.0
C1952 C 0.22597 0.87518 0.5287 0.0
C1953 C 0.2004 0.87132 0.52995 0.0
C1954 C 0.30131 0.91323 0.5192 0.0
C1955 C 0.31401 0.89299 0.53227 0.0
C1956 C 0.27589 0.91631 0.52425 0.0
C1957 C 0.26329 0.89915 0.54232 0.0
C1958 C 0.27655 0.88085 0.55816 0.0
C1959 C 0.30194 0.87782 0.55322 0.0
H1960 H 0.32086 0.94007 0.81495 0.0
H1961 H 0.38998 0.93933 0.76507 0.0
H1962 H 0.31812 0.98538 0.80855 0.0
H1963 H 0.38734 0.98465 0.75929 0.0
H1964 H 0.32579 0.06531 0.75368 0.0
H1965 H 0.31951 0.02049 0.76059 0.0
H1966 H 0.38865 0.01599 0.80965 0.0
H1967 H 0.39478 0.06097 0.80346 0.0
C1968 C 0.33501 0.9495 0.80189 0.0
C1969 C 0.35585 0.9365 0.79085 0.0
C1970 C 0.33348 0.97529 0.79845 0.0
C1971 C 0.35286 0.98806 0.78418 0.0
C1972 C 0.37251 0.97486 0.77088 0.0
C1973 C 0.37391 0.94909 0.77401 0.0
C1974 C 0.33916 0.05492 0.76689 0.0
C1975 C 0.3609 0.06634 0.77784 0.0
C1976 C 0.3356 0.02939 0.77062 0.0
C1977 C 0.3539 0.01521 0.78502 0.0
C1978 C 0.37458 0.02688 0.79807 0.0
C1979 C 0.378 0.05245 0.79468 0.0
H1980 H 0.18931 0.15252 0.05291 0.0
H1981 H 0.18915 0.08322 1.00351 0.0
H1982 H 0.2342 0.14811 0.0609 0.0
H1983 H 0.23396 0.07865 1.01218 0.0
H1984 H 0.31256 0.15134 1.01911 0.0
H1985 H 0.26736 0.14832 1.01334 0.0
H1986 H 0.26751 0.07791 0.06059 0.0
H1987 H 0.31276 0.08108 0.06704 0.0
C1988 C 0.19876 0.13607 0.04448 0.0
C1989 C 0.18604 0.11835 1.02735 0.0
C1990 C 0.22429 0.13362 0.04895 0.0
C1991 C 0.23716 0.11328 0.03666 0.0
C1992 C 0.22415 0.09446 1.02171 0.0
C1993 C 0.19863 0.09706 1.01691 0.0
C1994 C 0.303 0.13503 1.0278 0.0
C1995 C 0.31589 0.11658 0.04376 0.0
C1996 C 0.27728 0.1334 1.02466 0.0
C1997 C 0.26435 0.11315 0.03711 0.0
C1998 C 0.27737 0.09371 0.05108 0.0
C1999 C 0.30312 0.09549 0.05456 0.0
H2000 H 0.89711 0.06093 0.76615 0.0
H2001 H 0.82465 0.06577 0.80836 0.0
H2002 H 0.89218 0.01576 0.76192 0.0
H2003 H 0.81977 0.02049 0.80386 0.0
H2004 H 0.89352 0.94009 0.80513 0.0
H2005 H 0.88963 0.98531 0.81061 0.0
H2006 H 0.8208 0.98421 0.76064 0.0
H2007 H 0.82471 0.93902 0.75478 0.0
C2008 C 0.8799 0.05241 0.77376 0.0
C2009 C 0.86149 0.06651 0.78813 0.0
C2010 C 0.8772 0.02669 0.77159 0.0
C2011 C 0.85596 0.01503 0.78345 0.0
C2012 C 0.8364 0.02934 0.79502 0.0
C2013 C 0.83918 0.0551 0.79743 0.0
C2014 C 0.87723 0.94942 0.79606 0.0
C2015 C 0.85967 0.93638 0.77907 0.0
C2016 C 0.8751 0.97515 0.79902 0.0
C2017 C 0.85528 0.98786 0.7853 0.0
C2018 C 0.83629 0.97455 0.77109 0.0
C2019 C 0.83852 0.94881 0.7679 0.0
H2020 H 0.69354 0.15617 0.52244 0.0
H2021 H 0.68545 0.08094 0.55668 0.0
H2022 H 0.73869 0.15034 0.52014 0.0
H2023 H 0.73066 0.07514 0.55411 0.0
H2024 H 0.81482 0.14544 0.55876 0.0
H2025 H 0.76972 0.14343 0.56607 0.0
H2026 H 0.76636 0.07675 0.51223 0.0
H2027 H 0.81141 0.0788 0.50459 0.0
C2028 C 0.70138 0.13827 0.52884 0.0
C2029 C 0.68628 0.1191 0.54005 0.0
C2030 C 0.72709 0.13505 0.52788 0.0
C2031 C 0.73779 0.11257 0.53778 0.0
C2032 C 0.72259 0.0927 0.54678 0.0
C2033 C 0.69687 0.096 0.54804 0.0
C2034 C 0.80453 0.12998 0.54922 0.0
C2035 C 0.81626 0.1126 0.53061 0.0
C2036 C 0.77886 0.12892 0.55327 0.0
C2037 C 0.7649 0.11032 0.53899 0.0
C2038 C 0.77696 0.09131 0.52318 0.0
C2039 C 0.80264 0.09247 0.51893 0.0
H2040 H 0.6297 0.07637 0.32183 0.0
H2041 H 0.66426 0.05162 0.2403 0.0
H2042 H 0.63781 0.03558 0.34441 0.0
H2043 H 0.67034 0.01033 0.26145 0.0
H2044 H 0.66622 0.93384 0.29538 0.0
H2045 H 0.68137 0.97689 0.29248 0.0
H2046 H 0.61234 0.00212 0.33283 0.0
H2047 H 0.59822 0.95968 0.33651 0.0
C2048 C 0.63929 0.06218 0.30899 0.0
C2049 C 0.64549 0.06638 0.27918 0.0
C2050 C 0.64399 0.03892 0.32178 0.0
C2051 C 0.65358 0.01933 0.30426 0.0
C2052 C 0.66271 0.02479 0.27561 0.0
C2053 C 0.65891 0.04836 0.26326 0.0
C2054 C 0.65456 0.9487 0.30361 0.0
C2055 C 0.63086 0.94362 0.31526 0.0
C2056 C 0.66325 0.9733 0.3023 0.0
C2057 C 0.6481 0.99309 0.31232 0.0
C2058 C 0.62492 0.98755 0.32543 0.0
C2059 C 0.6165 0.96313 0.32699 0.0
H2060 H 0.68685 0.84375 0.04587 0.0
H2061 H 0.68289 0.9171 1.00533 0.0
H2062 H 0.73172 0.84895 0.05271 0.0
H2063 H 0.72783 0.92223 1.01227 0.0
H2064 H 0.80972 0.84984 1.01629 0.0
H2065 H 0.76465 0.85173 1.00917 0.0
H2066 H 0.76208 0.92254 0.05508 0.0
H2067 H 0.80731 0.92076 0.06225 0.0
C2068 C 0.6955 0.86114 0.03903 0.0
C2069 C 0.68172 0.87984 1.02464 0.0
C2070 C 0.72106 0.86403 0.04271 0.0
C2071 C 0.73295 0.88571 1.03226 0.0
C2072 C 0.71888 0.90531 1.0202 0.0
C2073 C 0.69329 0.90236 1.01632 0.0
C2074 C 0.79959 0.86604 1.02429 0.0
C2075 C 0.81165 0.88486 0.04037 0.0
C2076 C 0.77392 0.86702 1.02042 0.0
C2077 C 0.76018 0.88692 0.0324 0.0
C2078 C 0.77248 0.90693 0.04602 0.0
C2079 C 0.79822 0.90589 0.05004 0.0
H2080 H 0.60726 0.55707 0.75977 0.0
H2081 H 0.67484 0.5618 0.81217 0.0
H2082 H 0.61347 0.51204 0.75493 0.0
H2083 H 0.68109 0.51681 0.80684 0.0
H2084 H 0.67809 0.43466 0.75395 0.0
H2085 H 0.6828 0.47988 0.75988 0.0
H2086 H 0.61288 0.48262 0.80761 0.0
H2087 H 0.60808 0.43755 0.80193 0.0
C2088 C 0.62378 0.54861 0.76941 0.0
C2089 C 0.64033 0.56261 0.78673 0.0
C2090 C 0.62726 0.52301 0.76677 0.0
C2091 C 0.64741 0.5114 0.78116 0.0
C2092 C 0.66539 0.52567 0.79584 0.0
C2093 C 0.66182 0.55129 0.7987 0.0
C2094 C 0.66415 0.44486 0.76651 0.0
C2095 C 0.64238 0.43302 0.77684 0.0
C2096 C 0.66687 0.47056 0.76979 0.0
C2097 C 0.64782 0.48429 0.78337 0.0
C2098 C 0.62746 0.47209 0.79653 0.0
C2099 C 0.62481 0.44644 0.79343 0.0
H2100 H 0.81676 0.35626 0.05826 0.0
H2101 H 0.81381 0.42433 1.00614 0.0
H2102 H 0.77166 0.35846 0.0656 0.0
H2103 H 0.76875 0.42662 1.01397 0.0
H2104 H 0.6953 0.34835 1.02015 0.0
H2105 H 0.7405 0.35396 1.01769 0.0
H2106 H 0.73334 0.42664 0.05844 0.0
H2107 H 0.68821 0.42093 0.06155 0.0
C2108 C 0.80658 0.37206 0.04921 0.0
C2109 C 0.81843 0.38983 1.03114 0.0
C2110 C 0.78092 0.37324 0.05328 0.0
C2111 C 0.76711 0.39236 0.03966 0.0
C2112 C 0.77927 0.41167 1.02441 0.0
C2113 C 0.80494 0.41037 1.02007 0.0
C2114 C 0.70334 0.36568 1.02805 0.0
C2115 C 0.68848 0.38415 0.04119 0.0
C2116 C 0.72906 0.36877 1.02691 0.0
C2117 C 0.74 0.39046 0.03855 0.0
C2118 C 0.72505 0.40973 0.04964 0.0
C2119 C 0.69934 0.40652 0.05113 0.0
H2120 H 0.83181 0.56606 0.25439 0.0
H2121 H 0.90761 0.55571 0.28525 0.0
H2122 H 0.82517 0.5208 0.25635 0.0
H2123 H 0.90093 0.51066 0.28702 0.0
H2124 H 0.8294 0.44009 0.30806 0.0
H2125 H 0.82719 0.48497 0.29843 0.0
H2126 H 0.89219 0.47963 0.24185 0.0
H2127 H 0.89443 0.43474 0.25131 0.0
C2128 C 0.84685 0.55412 0.26204 0.0
C2129 C 0.87032 0.5641 0.26933 0.0
C2130 C 0.84307 0.52839 0.26296 0.0
C2131 C 0.86281 0.51259 0.27093 0.0
C2132 C 0.88573 0.52269 0.28001 0.0
C2133 C 0.88943 0.54836 0.27937 0.0
C2134 C 0.84264 0.44837 0.29271 0.0
C2135 C 0.86249 0.43434 0.28098 0.0
C2136 C 0.84135 0.47395 0.28725 0.0
C2137 C 0.85992 0.48546 0.27012 0.0
C2138 C 0.878 0.47094 0.25563 0.0
C2139 C 0.87923 0.44539 0.26096 0.0
H2140 H 0.69172 0.64688 0.54731 0.0
H2141 H 0.68938 0.57467 0.50425 0.0
H2142 H 0.73636 0.64158 0.55585 0.0
H2143 H 0.73417 0.56956 0.51271 0.0
H2144 H 0.81236 0.64526 0.51463 0.0
H2145 H 0.76742 0.64052 0.50858 0.0
H2146 H 0.76992 0.57026 0.55613 0.0
H2147 H 0.81509 0.57482 0.56214 0.0
C2148 C 0.70063 0.62963 0.54044 0.0
C2149 C 0.68756 0.61152 0.52438 0.0
C2150 C 0.72604 0.62668 0.54516 0.0
C2151 C 0.73838 0.60555 0.53399 0.0
C2152 C 0.72482 0.58609 0.52108 0.0
C2153 C 0.69935 0.58906 0.51628 0.0
C2154 C 0.80341 0.62852 0.5231 0.0
C2155 C 0.81678 0.61076 0.53955 0.0
C2156 C 0.77783 0.62592 0.51987 0.0
C2157 C 0.76555 0.6055 0.53289 0.0
C2158 C 0.77923 0.58632 0.54643 0.0
C2159 C 0.80491 0.58894 0.54975 0.0
H2160 H 0.32512 0.56147 0.30957 0.0
H2161 H 0.39658 0.55975 0.2647 0.0
H2162 H 0.32071 0.51638 0.30199 0.0
H2163 H 0.39207 0.51484 0.25728 0.0
H2164 H 0.39619 0.4384 0.29995 0.0
H2165 H 0.39126 0.48345 0.3055 0.0
H2166 H 0.32189 0.48071 0.25672 0.0
H2167 H 0.32675 0.43544 0.25096 0.0
C2168 C 0.33952 0.55155 0.29742 0.0
C2169 C 0.3615 0.5637 0.28835 0.0
C2170 C 0.33695 0.52591 0.29314 0.0
C2171 C 0.35638 0.51247 0.27984 0.0
C2172 C 0.37716 0.52505 0.26815 0.0
C2173 C 0.37966 0.55062 0.27226 0.0
C2174 C 0.37962 0.44731 0.29102 0.0
C2175 C 0.36214 0.43377 0.27446 0.0
C2176 C 0.3769 0.47297 0.29402 0.0
C2177 C 0.35658 0.48522 0.28076 0.0
C2178 C 0.3378 0.47143 0.26674 0.0
C2179 C 0.3406 0.44569 0.26354 0.0
H2180 H 0.30993 0.57044 1.00904 0.0
H2181 H 0.31681 0.63342 0.06836 0.0
H2182 H 0.2709 0.55861 0.03299 0.0
H2183 H 0.27718 0.62291 0.09089 0.0
H2184 H 0.20375 0.616 0.11886 0.0
H2185 H 0.24626 0.60012 0.1157 0.0
H2186 H 0.23315 0.57965 1.02381 0.0
H2187 H 0.19022 0.59376 1.02804 0.0
C2188 C 0.30343 0.58129 1.02783 0.0
C2189 C 0.3159 0.60309 0.0366 0.0
C2190 C 0.28102 0.57462 0.0414 0.0
C2191 C 0.27053 0.59014 0.06327 0.0
C2192 C 0.28459 0.61039 0.07417 0.0
C2193 C 0.30716 0.61677 0.06093 0.0
C2194 C 0.20987 0.60731 0.09836 0.0
C2195 C 0.19429 0.60668 0.07333 0.0
C2196 C 0.23413 0.59818 0.09656 0.0
C2197 C 0.2434 0.58946 0.06924 0.0
C2198 C 0.22675 0.58625 0.04526 0.0
C2199 C 0.20222 0.59466 0.04742 0.0
H2200 H 0.17431 0.44026 0.81118 0.0
H2201 H 0.11039 0.43616 0.75261 0.0
H2202 H 0.17737 0.48516 0.80174 0.0
H2203 H 0.11341 0.48105 0.74352 0.0
H2204 H 0.17424 0.5656 0.75213 0.0
H2205 H 0.18039 0.52038 0.75666 0.0
H2206 H 0.10516 0.51266 0.79004 0.0
H2207 H 0.099 0.55772 0.7859 0.0
C2208 C 0.16149 0.44881 0.79553 0.0
C2209 C 0.14175 0.4351 0.78309 0.0
C2210 C 0.16325 0.47439 0.79023 0.0
C2211 C 0.14524 0.48623 0.77258 0.0
C2212 C 0.12718 0.47207 0.75764 0.0
C2213 C 0.12551 0.44653 0.76276 0.0
C2214 C 0.15924 0.55425 0.76104 0.0
C2215 C 0.13603 0.56487 0.76833 0.0
C2216 C 0.16276 0.52854 0.76344 0.0
C2217 C 0.14298 0.5134 0.77285 0.0
C2218 C 0.12039 0.5242 0.78204 0.0
C2219 C 0.11697 0.54986 0.77996 0.0
H2220 H 0.18683 0.42168 0.50435 0.0
H2221 H 0.19245 0.34709 0.54122 0.0
H2222 H 0.23204 0.42662 0.50873 0.0
H2223 H 0.23763 0.35202 0.54519 0.0
H2224 H 0.31156 0.42255 0.56075 0.0
H2225 H 0.26656 0.42486 0.55265 0.0
H2226 H 0.26997 0.35765 0.49976 0.0
H2227 H 0.31503 0.35542 0.50742 0.0
C2228 C 0.19769 0.40659 0.51393 0.0
C2229 C 0.18642 0.3839 0.5222 0.0
C2230 C 0.22342 0.4094 0.51625 0.0
C2231 C 0.23796 0.38945 0.52653 0.0
C2232 C 0.22655 0.36738 0.53655 0.0
C2233 C 0.20083 0.36467 0.53457 0.0
C2234 C 0.30281 0.40878 0.54656 0.0
C2235 C 0.31647 0.38856 0.53507 0.0
C2236 C 0.27717 0.41008 0.54206 0.0
C2237 C 0.26513 0.39109 0.52626 0.0
C2238 C 0.27909 0.37218 0.51251 0.0
C2239 C 0.30474 0.371 0.51675 0.0
H2240 H 0.09222 0.16271 0.07677 0.0
H2241 H 0.11364 0.08688 0.09868 0.0
H2242 H 0.09726 0.17443 0.12934 0.0
H2243 H 0.11909 0.09884 0.15042 0.0
H2244 H 0.16693 0.14027 0.21941 0.0
H2245 H 0.15504 0.13507 0.16758 0.0
H2246 H 0.07937 0.15611 0.18853 0.0
H2247 H 0.09098 0.16096 0.2411 0.0
C2248 C 0.09736 0.14842 0.09276 0.0
C2249 C 0.10278 0.12389 0.08334 0.0
C2250 C 0.10033 0.15519 0.12279 0.0
C2251 C 0.10893 0.13758 0.14367 0.0
C2252 C 0.11272 0.1128 0.13462 0.0
C2253 C 0.10952 0.10599 0.10492 0.0
C2254 C 0.14782 0.14431 0.21313 0.0
C2255 C 0.12987 0.15076 0.23469 0.0
C2256 C 0.14105 0.14125 0.18337 0.0
C2257 C 0.11627 0.14492 0.17424 0.0
C2258 C 0.0986 0.15318 0.19512 0.0
C2259 C 0.10532 0.15597 0.22517 0.0
H2260 H 0.09175 0.91547 0.46668 0.0
H2261 H 0.10766 0.83866 0.4897 0.0
H2262 H 0.09488 0.90497 0.41376 0.0
H2263 H 0.11156 0.82842 0.43677 0.0
H2264 H 0.15784 0.84385 0.34493 0.0
H2265 H 0.14638 0.8468 0.39762 0.0
H2266 H 0.07333 0.87376 0.37304 0.0
H2267 H 0.0844 0.87012 0.32034 0.0
C2268 C 0.09537 0.89625 0.46044 0.0
C2269 C 0.09925 0.87787 0.4824 0.0
C2270 C 0.09718 0.89025 0.43016 0.0
C2271 C 0.10355 0.8659 0.42121 0.0
C2272 C 0.10663 0.84732 0.44308 0.0
C2273 C 0.10417 0.85317 0.47336 0.0
C2274 C 0.1391 0.84973 0.35074 0.0
C2275 C 0.122 0.85659 0.3284 0.0
C2276 C 0.13256 0.85142 0.38089 0.0
C2277 C 0.109 0.8606 0.38937 0.0
C2278 C 0.0916 0.86664 0.36709 0.0
C2279 C 0.09792 0.86435 0.33693 0.0
H2280 H 0.40437 0.84353 0.74408 0.0
H2281 H 0.32871 0.86453 0.72143 0.0
H2282 H 0.41625 0.84759 0.6914 0.0
H2283 H 0.34087 0.869 0.66955 0.0
H2284 H 0.3846 0.91598 0.59973 0.0
H2285 H 0.37866 0.90479 0.65173 0.0
H2286 H 0.39667 0.82803 0.63215 0.0
H2287 H 0.40219 0.83895 0.57934 0.0
C2288 C 0.39016 0.84844 0.72795 0.0
C2289 C 0.3656 0.85391 0.73722 0.0
C2290 C 0.39702 0.85079 0.69783 0.0
C2291 C 0.3795 0.85887 0.67662 0.0
C2292 C 0.35474 0.86291 0.68556 0.0
C2293 C 0.34782 0.86028 0.71538 0.0
C2294 C 0.3878 0.89675 0.60632 0.0
C2295 C 0.39366 0.87834 0.58506 0.0
C2296 C 0.38432 0.89038 0.63619 0.0
C2297 C 0.38699 0.86555 0.6458 0.0
C2298 C 0.39453 0.84733 0.6252 0.0
C2299 C 0.39773 0.85364 0.59502 0.0
H2300 H 0.33565 0.14026 0.84751 0.0
H2301 H 0.41278 0.15599 0.82598 0.0
H2302 H 0.34696 0.13466 0.89949 0.0
H2303 H 0.42386 0.15076 0.87874 0.0
H2304 H 0.41175 0.15831 0.99028 0.0
H2305 H 0.40726 0.17026 0.9376 0.0
H2306 H 0.38016 0.09638 0.91746 0.0
H2307 H 0.38501 0.08417 0.96927 0.0
C2308 C 0.35495 0.14312 0.85385 0.0
C2309 C 0.37334 0.14829 0.8323 0.0
C2310 C 0.36138 0.13985 0.88371 0.0
C2311 C 0.38629 0.142 0.89297 0.0
C2312 C 0.40451 0.14902 0.87207 0.0
C2313 C 0.39811 0.15204 0.84191 0.0
C2314 C 0.40548 0.14442 0.97447 0.0
C2315 C 0.39851 0.12033 0.98419 0.0
C2316 C 0.40286 0.15132 0.94438 0.0
C2317 C 0.39303 0.13431 0.9237 0.0
C2318 C 0.38752 0.1099 0.93308 0.0
C2319 C 0.39037 0.10294 0.96283 0.0
H2320 H 0.91033 0.8449 0.82594 0.0
H2321 H 0.83411 0.86352 0.84882 0.0
H2322 H 0.92223 0.84936 0.87852 0.0
H2323 H 0.84627 0.86833 0.90065 0.0
H2324 H 0.89028 0.9177 0.9685 0.0
H2325 H 0.88566 0.90578 0.91657 0.0
H2326 H 0.90048 0.82887 0.93931 0.0
H2327 H 0.90471 0.84056 0.99199 0.0
C2328 C 0.89601 0.84933 0.84212 0.0
C2329 C 0.87126 0.85404 0.83294 0.0
C2330 C 0.90288 0.85191 0.87217 0.0
C2331 C 0.88517 0.85938 0.89343 0.0
C2332 C 0.86027 0.86265 0.8846 0.0
C2333 C 0.85335 0.85984 0.85482 0.0
C2334 C 0.89314 0.89828 0.96259 0.0
C2335 C 0.89764 0.88007 0.98465 0.0
C2336 C 0.89045 0.89151 0.93277 0.0
C2337 C 0.89252 0.86643 0.9241 0.0
C2338 C 0.89887 0.84836 0.94555 0.0
C2339 C 0.90137 0.85511 0.97565 0.0
H2340 H 0.91417 0.1555 0.74034 0.0
H2341 H 0.83632 0.14625 0.71738 0.0
H2342 H 0.92547 0.15022 0.68771 0.0
H2343 H 0.84786 0.14055 0.66545 0.0
H2344 H 0.88749 0.08585 0.59796 0.0
H2345 H 0.88311 0.09852 0.64968 0.0
H2346 H 0.90612 0.17333 0.62693 0.0
H2347 H 0.91016 0.16097 0.57449 0.0
C2348 C 0.89943 0.15305 0.72413 0.0
C2349 C 0.87431 0.15111 0.73331 0.0
C2350 C 0.90596 0.14996 0.69405 0.0
C2351 C 0.88752 0.14476 0.67275 0.0
C2352 C 0.8624 0.14444 0.68155 0.0
C2353 C 0.85585 0.14777 0.71138 0.0
C2354 C 0.89216 0.10492 0.60381 0.0
C2355 C 0.89899 0.12242 0.58179 0.0
C2356 C 0.88957 0.11213 0.63351 0.0
C2357 C 0.8941 0.13689 0.64212 0.0
C2358 C 0.90257 0.1541 0.62074 0.0
C2359 C 0.90491 0.14696 0.59077 0.0
H2360 H 0.60913 0.08693 0.46454 0.0
H2361 H 0.59366 0.1644 0.48486 0.0
H2362 H 0.61577 0.09797 0.41262 0.0
H2363 H 0.59988 0.17522 0.43214 0.0
H2364 H 0.59418 0.16254 0.32064 0.0
H2365 H 0.58144 0.15853 0.37302 0.0
H2366 H 0.65464 0.13071 0.3953 0.0
H2367 H 0.66767 0.13507 0.34372 0.0
C2368 C 0.60649 0.10624 0.45791 0.0
C2369 C 0.60112 0.12481 0.47914 0.0
C2370 C 0.61039 0.11253 0.4281 0.0
C2371 C 0.60868 0.13746 0.41855 0.0
C2372 C 0.60134 0.15585 0.43905 0.0
C2373 C 0.59768 0.14959 0.46918 0.0
C2374 C 0.60779 0.15625 0.33684 0.0
C2375 C 0.63194 0.14899 0.32776 0.0
C2376 C 0.60042 0.15391 0.36677 0.0
C2377 C 0.61699 0.14401 0.38798 0.0
C2378 C 0.64147 0.13819 0.37927 0.0
C2379 C 0.64892 0.14082 0.34965 0.0
H2380 H 0.60165 0.83285 0.07364 0.0
H2381 H 0.58513 0.90978 0.09492 0.0
H2382 H 0.60393 0.82288 0.12685 0.0
H2383 H 0.58658 0.89954 0.14808 0.0
H2384 H 0.57655 0.86522 0.24249 0.0
H2385 H 0.56478 0.86713 0.18969 0.0
H2386 H 0.63907 0.84389 0.16502 0.0
H2387 H 0.65112 0.84288 0.21759 0.0
C2388 C 0.59757 0.84742 0.08963 0.0
C2389 C 0.59313 0.87211 0.08009 0.0
C2390 C 0.59905 0.84172 0.12006 0.0
C2391 C 0.59542 0.86044 0.14149 0.0
C2392 C 0.58924 0.88472 0.13198 0.0
C2393 C 0.58842 0.89057 0.10159 0.0
C2394 C 0.59013 0.85983 0.22581 0.0
C2395 C 0.61473 0.85379 0.23412 0.0
C2396 C 0.58343 0.8611 0.19566 0.0
C2397 C 0.60102 0.85563 0.17337 0.0
C2398 C 0.62511 0.84799 0.18179 0.0
C2399 C 0.632 0.84741 0.21183 0.0
H2400 H 0.58491 0.63449 0.73727 0.0
H2401 H 0.66047 0.65584 0.71545 0.0
H2402 H 0.57492 0.63199 0.68416 0.0
H2403 H 0.65023 0.65395 0.6624 0.0
H2404 H 0.61717 0.66432 0.56881 0.0
H2405 H 0.61991 0.67427 0.62191 0.0
H2406 H 0.59316 0.60043 0.64379 0.0
H2407 H 0.59102 0.5902 0.59079 0.0
C2408 C 0.59919 0.63937 0.72119 0.0
C2409 C 0.6235 0.64543 0.73063 0.0
C2410 C 0.59349 0.63775 0.69078 0.0
C2411 C 0.61179 0.64274 0.66914 0.0
C2412 C 0.63568 0.65018 0.67856 0.0
C2413 C 0.64155 0.65123 0.70895 0.0
C2414 C 0.61121 0.65043 0.5849 0.0
C2415 C 0.60377 0.62648 0.57554 0.0
C2416 C 0.61301 0.65608 0.61531 0.0
C2417 C 0.60683 0.63811 0.63699 0.0
C2418 C 0.59789 0.61472 0.6276 0.0
C2419 C 0.59666 0.60886 0.59724 0.0
H2420 H 0.66693 0.35141 0.84524 0.0
H2421 H 0.5889 0.34374 0.82227 0.0
H2422 H 0.65554 0.35613 0.89739 0.0
H2423 H 0.57776 0.34813 0.87502 0.0
H2424 H 0.59321 0.33714 0.98852 0.0
H2425 H 0.59729 0.3243 0.93618 0.0
H2426 H 0.62032 0.39892 0.91253 0.0
H2427 H 0.61593 0.41202 0.96407 0.0
C2428 C 0.6474 0.34999 0.85129 0.0
C2429 C 0.62883 0.34747 0.82933 0.0
C2430 C 0.64093 0.35271 0.88122 0.0
C2431 C 0.61582 0.35263 0.89003 0.0
C2432 C 0.59727 0.34814 0.86866 0.0
C2433 C 0.60371 0.34559 0.8385 0.0
C2434 C 0.59847 0.35099 0.97204 0.0
C2435 C 0.60444 0.37559 0.98065 0.0
C2436 C 0.60087 0.34357 0.94216 0.0
C2437 C 0.60934 0.36062 0.9206 0.0
C2438 C 0.61389 0.38544 0.92887 0.0
C2439 C 0.61133 0.39289 0.95846 0.0
H2440 H 0.91044 0.34064 0.07417 0.0
H2441 H 0.89191 0.41692 0.09718 0.0
H2442 H 0.90551 0.32845 0.12662 0.0
H2443 H 0.88659 0.40445 0.14892 0.0
H2444 H 0.83648 0.36057 0.21615 0.0
H2445 H 0.8489 0.36605 0.16445 0.0
H2446 H 0.92508 0.34847 0.18717 0.0
H2447 H 0.91293 0.34339 0.2396 0.0
C2448 C 0.90597 0.35492 0.09037 0.0
C2449 C 0.90135 0.37975 0.08126 0.0
C2450 C 0.90309 0.34787 0.12034 0.0
C2451 C 0.89541 0.3655 0.14156 0.0
C2452 C 0.89238 0.39052 0.13285 0.0
C2453 C 0.8955 0.39761 0.10315 0.0
C2454 C 0.85583 0.35732 0.21028 0.0
C2455 C 0.87373 0.3518 0.23229 0.0
C2456 C 0.86289 0.36052 0.1806 0.0
C2457 C 0.88793 0.35792 0.17203 0.0
C2458 C 0.90564 0.35056 0.19336 0.0
C2459 C 0.89861 0.34759 0.22331 0.0
H2460 H 0.84283 0.65835 0.34765 0.0
H2461 H 0.9193 0.64145 0.3248 0.0
H2462 H 0.85341 0.65558 0.40059 0.0
H2463 H 0.92962 0.63789 0.37782 0.0
H2464 H 0.91307 0.59197 0.47005 0.0
H2465 H 0.91074 0.60339 0.41726 0.0
H2466 H 0.88485 0.67704 0.44109 0.0
H2467 H 0.88787 0.66599 0.49388 0.0
C2468 C 0.862 0.65459 0.35395 0.0
C2469 C 0.88026 0.6503 0.33205 0.0
C2470 C 0.86805 0.653 0.38423 0.0
C2471 C 0.89231 0.64644 0.39325 0.0
C2472 C 0.91079 0.64298 0.37143 0.0
C2473 C 0.9049 0.64523 0.34113 0.0
C2474 C 0.90757 0.61082 0.46406 0.0
C2475 C 0.90078 0.62809 0.48619 0.0
C2476 C 0.90625 0.61735 0.43386 0.0
C2477 C 0.89753 0.64107 0.42514 0.0
C2478 C 0.89164 0.65865 0.44723 0.0
C2479 C 0.89355 0.65234 0.47744 0.0
H2480 H 0.33778 0.35584 0.34709 0.0
H2481 H 0.41564 0.34506 0.32489 0.0
H2482 H 0.34908 0.36208 0.39896 0.0
H2483 H 0.4267 0.35089 0.3775 0.0
H2484 H 0.41219 0.34166 0.49015 0.0
H2485 H 0.40839 0.32917 0.43774 0.0
H2486 H 0.38308 0.40332 0.4151 0.0
H2487 H 0.38724 0.41611 0.46677 0.0
C2488 C 0.35725 0.35413 0.35326 0.0
C2489 C 0.37581 0.35019 0.33155 0.0
C2490 C 0.36367 0.35778 0.38305 0.0
C2491 C 0.38873 0.35719 0.39204 0.0
C2492 C 0.40723 0.3514 0.371 0.0
C2493 C 0.40084 0.348 0.34094 0.0
C2494 C 0.40648 0.35551 0.47389 0.0
C2495 C 0.39983 0.37988 0.48288 0.0
C2496 C 0.40427 0.3483 0.44394 0.0
C2497 C 0.3952 0.36526 0.42262 0.0
C2498 C 0.38997 0.38989 0.43123 0.0
C2499 C 0.39244 0.39718 0.46091 0.0
H2500 H 0.41347 0.6334 0.24141 0.0
H2501 H 0.33962 0.6599 0.21908 0.0
H2502 H 0.42302 0.62868 0.1884 0.0
H2503 H 0.34951 0.65583 0.16608 0.0
H2504 H 0.38479 0.66172 0.0723 0.0
H2505 H 0.3822 0.67287 0.12501 0.0
H2506 H 0.40113 0.59713 0.14933 0.0
H2507 H 0.40305 0.58569 0.09659 0.0
C2508 C 0.39957 0.63903 0.22521 0.0
C2509 C 0.3758 0.64716 0.23449 0.0
C2510 C 0.40499 0.63608 0.19488 0.0
C2511 C 0.38699 0.64181 0.17316 0.0
C2512 C 0.36379 0.65142 0.18234 0.0
C2513 C 0.35815 0.65378 0.21268 0.0
C2514 C 0.38898 0.64755 0.08884 0.0
C2515 C 0.39425 0.6228 0.0802 0.0
C2516 C 0.3873 0.65393 0.11901 0.0
C2517 C 0.39145 0.63588 0.14124 0.0
C2518 C 0.39803 0.61147 0.13266 0.0
C2519 C 0.39911 0.60492 0.10247 0.0
H2520 H 0.16637 0.66139 0.84164 0.0
H2521 H 0.08936 0.64425 0.82214 0.0
H2522 H 0.1572 0.65964 0.89497 0.0
H2523 H 0.0804 0.64179 0.87559 0.0
H2524 H 0.09812 0.59671 0.96706 0.0
H2525 H 0.0995 0.60792 0.91422 0.0
H2526 H 0.12793 0.68087 0.93677 0.0
H2527 H 0.12596 0.67 0.98972 0.0
C2528 C 0.14736 0.65786 0.84875 0.0
C2529 C 0.12857 0.65308 0.82771 0.0
C2530 C 0.14212 0.65686 0.87926 0.0
C2531 C 0.11812 0.65045 0.88936 0.0
C2532 C 0.09906 0.64673 0.86836 0.0
C2533 C 0.10416 0.64836 0.8378 0.0
C2534 C 0.10414 0.61533 0.9608 0.0
C2535 C 0.11192 0.63245 0.9826 0.0
C2536 C 0.10484 0.62177 0.93057 0.0
C2537 C 0.11386 0.64524 0.92146 0.0
C2538 C 0.1209 0.66265 0.94323 0.0
C2539 C 0.11964 0.65644 0.97352 0.0
H2540 H 0.09271 0.34043 0.73984 0.0
H2541 H 0.16719 0.36552 0.71764 0.0
H2542 H 0.08035 0.34557 0.68752 0.0
H2543 H 0.15455 0.37101 0.66607 0.0
H2544 H 0.11131 0.41714 0.59719 0.0
H2545 H 0.11761 0.40529 0.64891 0.0
H2546 H 0.09754 0.32921 0.62862 0.0
H2547 H 0.09163 0.34081 0.5761 0.0
C2548 C 0.1066 0.34646 0.72383 0.0
C2549 C 0.13092 0.35279 0.73316 0.0
C2550 C 0.09945 0.34944 0.69393 0.0
C2551 C 0.11642 0.35905 0.673 0.0
C2552 C 0.14106 0.36384 0.68191 0.0
C2553 C 0.14828 0.36057 0.71151 0.0
C2554 C 0.10769 0.39794 0.60361 0.0
C2555 C 0.10123 0.37988 0.58223 0.0
C2556 C 0.11142 0.39118 0.6333 0.0
C2557 C 0.10844 0.3663 0.64256 0.0
C2558 C 0.10001 0.34852 0.62192 0.0
C2559 C 0.09654 0.35523 0.59192 0.0
loop_
_geom_bond_atom_site_label_1
_geom_bond_atom_site_label_2
_geom_bond_distance
_geom_bond_site_symmetry_2
_ccdc_geom_bond_type
Dy0 O4 2.398 . S
Dy0 O5 2.491 . S
Dy0 O6 2.403 . S
Dy0 O7 2.664 . S
Dy0 O11 2.326 . S
Dy0 O15 2.310 . S
Dy0 O16 2.351 . S
C1 O12 1.185 . S
C1 O13 1.355 . S
C2 O4 1.185 . S
C2 O5 1.355 . S
Dy3 O7 2.310 . S
Dy3 O10 2.351 . S
Dy3 O12 2.398 . S
Dy3 O13 2.491 . S
Dy3 O14 2.403 . S
Dy3 O15 2.664 . S
Dy3 O17 2.326 . S
O4 Dy0 2.398 . S
O4 C2 1.185 . S
O5 Dy0 2.491 . S
O5 C2 1.355 . S
O6 Dy0 2.403 . S
O6 C8 1.254 . S
O7 Dy0 2.664 . S
O7 Dy3 2.310 . S
O7 C8 1.268 . S
C8 O6 1.254 . S
C8 O7 1.268 . S
C9 O14 1.254 . S
C9 O15 1.268 . S
O10 Dy3 2.351 . S
O10 C18 1.249 . S
O11 Dy0 2.326 . S
O11 C18 1.267 . S
O12 C1 1.185 . S
O12 Dy3 2.398 . S
O13 C1 1.355 . S
O13 Dy3 2.491 . S
O14 Dy3 2.403 . S
O14 C9 1.254 . S
O15 Dy0 2.310 . S
O15 Dy3 2.664 . S
O15 C9 1.268 . S
O16 Dy0 2.351 . S
O16 C19 1.249 . S
O17 Dy3 2.326 . S
O17 C19 1.267 . S
C18 O10 1.249 . S
C18 O11 1.267 . S
C19 O16 1.249 . S
C19 O17 1.267 . S
Dy20 O24 2.398 . S
Dy20 O25 2.491 . S
Dy20 O26 2.403 . S
Dy20 O27 2.664 . S
Dy20 O31 2.326 . S
Dy20 O35 2.310 . S
Dy20 O36 2.351 . S
C21 O32 1.185 . S
C21 O33 1.355 . S
C22 O24 1.185 . S
C22 O25 1.355 . S
Dy23 O27 2.310 . S
Dy23 O30 2.351 . S
Dy23 O32 2.398 . S
Dy23 O33 2.491 . S
Dy23 O34 2.403 . S
Dy23 O35 2.664 . S
Dy23 O37 2.326 . S
O24 Dy20 2.398 . S
O24 C22 1.185 . S
O25 Dy20 2.491 . S
O25 C22 1.355 . S
O26 Dy20 2.403 . S
O26 C28 1.254 . S
O27 Dy20 2.664 . S
O27 Dy23 2.310 . S
O27 C28 1.268 . S
C28 O26 1.254 . S
C28 O27 1.268 . S
C29 O34 1.254 . S
C29 O35 1.268 . S
O30 Dy23 2.351 . S
O30 C38 1.249 . S
O31 Dy20 2.326 . S
O31 C38 1.267 . S
O32 C21 1.185 . S
O32 Dy23 2.398 . S
O33 C21 1.355 . S
O33 Dy23 2.491 . S
O34 Dy23 2.403 . S
O34 C29 1.254 . S
O35 Dy20 2.310 . S
O35 Dy23 2.664 . S
O35 C29 1.268 . S
O36 Dy20 2.351 . S
O36 C39 1.249 . S
O37 Dy23 2.326 . S
O37 C39 1.267 . S
C38 O30 1.249 . S
C38 O31 1.267 . S
C39 O36 1.249 . S
C39 O37 1.267 . S
Dy40 O44 2.398 . S
Dy40 O45 2.491 . S
Dy40 O46 2.403 . S
Dy40 O47 2.664 . S
Dy40 O51 2.326 . S
Dy40 O55 2.310 . S
Dy40 O56 2.351 . S
C41 O52 1.185 . S
C41 O53 1.355 . S
C42 O44 1.185 . S
C42 O45 1.355 . S
Dy43 O47 2.310 . S
Dy43 O50 2.351 . S
Dy43 O52 2.398 . S
Dy43 O53 2.491 . S
Dy43 O54 2.403 . S
Dy43 O55 2.664 . S
Dy43 O57 2.326 . S
O44 Dy40 2.398 . S
O44 C42 1.185 . S
O45 Dy40 2.491 . S
O45 C42 1.355 . S
O46 Dy40 2.403 . S
O46 C48 1.254 . S
O47 Dy40 2.664 . S
O47 Dy43 2.310 . S
O47 C48 1.268 . S
C48 O46 1.254 . S
C48 O47 1.268 . S
C49 O54 1.254 . S
C49 O55 1.268 . S
O50 Dy43 2.351 . S
O50 C58 1.249 . S
O51 Dy40 2.326 . S
O51 C58 1.267 . S
O52 C41 1.185 . S
O52 Dy43 2.398 . S
O53 C41 1.355 . S
O53 Dy43 2.491 . S
O54 Dy43 2.403 . S
O54 C49 1.254 . S
O55 Dy40 2.310 . S
O55 Dy43 2.664 . S
O55 C49 1.268 . S
O56 Dy40 2.351 . S
O56 C59 1.249 . S
O57 Dy43 2.326 . S
O57 C59 1.267 . S
C58 O50 1.249 . S
C58 O51 1.267 . S
C59 O56 1.249 . S
C59 O57 1.267 . S
Dy60 O64 2.398 . S
Dy60 O65 2.491 1_554 S
Dy60 O66 2.403 . S
Dy60 O67 2.664 . S
Dy60 O71 2.326 . S
Dy60 O75 2.310 . S
Dy60 O76 2.351 . S
C61 O72 1.185 . S
C61 O73 1.355 . S
C62 O64 1.185 1_556 S
C62 O65 1.355 . S
Dy63 O67 2.310 . S
Dy63 O70 2.351 . S
Dy63 O72 2.398 . S
Dy63 O73 2.491 . S
Dy63 O74 2.403 . S
Dy63 O75 2.664 . S
Dy63 O77 2.326 . S
O64 Dy60 2.398 . S
O64 C62 1.185 1_554 S
O65 Dy60 2.491 1_556 S
O65 C62 1.355 . S
O66 Dy60 2.403 . S
O66 C68 1.254 . S
O67 Dy60 2.664 . S
O67 Dy63 2.310 . S
O67 C68 1.268 . S
C68 O66 1.254 . S
C68 O67 1.268 . S
C69 O74 1.254 . S
C69 O75 1.268 . S
O70 Dy63 2.351 . S
O70 C78 1.249 1_554 S
O71 Dy60 2.326 . S
O71 C78 1.267 1_554 S
O72 C61 1.185 . S
O72 Dy63 2.398 . S
O73 C61 1.355 . S
O73 Dy63 2.491 . S
O74 Dy63 2.403 . S
O74 C69 1.254 . S
O75 Dy60 2.310 . S
O75 Dy63 2.664 . S
O75 C69 1.268 . S
O76 Dy60 2.351 . S
O76 C79 1.249 . S
O77 Dy63 2.326 . S
O77 C79 1.267 . S
C78 O70 1.249 1_556 S
C78 O71 1.267 1_556 S
C79 O76 1.249 . S
C79 O77 1.267 . S
Dy80 O84 2.398 . S
Dy80 O85 2.491 . S
Dy80 O86 2.403 . S
Dy80 O87 2.664 . S
Dy80 O91 2.326 . S
Dy80 O95 2.310 . S
Dy80 O96 2.351 . S
C81 O92 1.185 . S
C81 O93 1.355 . S
C82 O84 1.185 . S
C82 O85 1.355 . S
Dy83 O87 2.310 . S
Dy83 O90 2.351 . S
Dy83 O92 2.398 . S
Dy83 O93 2.491 . S
Dy83 O94 2.403 . S
Dy83 O95 2.664 . S
Dy83 O97 2.326 . S
O84 Dy80 2.398 . S
O84 C82 1.185 . S
O85 Dy80 2.491 . S
O85 C82 1.355 . S
O86 Dy80 2.403 . S
O86 C88 1.254 . S
O87 Dy80 2.664 . S
O87 Dy83 2.310 . S
O87 C88 1.268 . S
C88 O86 1.254 . S
C88 O87 1.268 . S
C89 O94 1.254 . S
C89 O95 1.268 . S
O90 Dy83 2.351 . S
O90 C98 1.249 . S
O91 Dy80 2.326 . S
O91 C98 1.267 . S
O92 C81 1.185 . S
O92 Dy83 2.398 . S
O93 C81 1.355 . S
O93 Dy83 2.491 . S
O94 Dy83 2.403 . S
O94 C89 1.254 . S
O95 Dy80 2.310 . S
O95 Dy83 2.664 . S
O95 C89 1.268 . S
O96 Dy80 2.351 . S
O96 C99 1.249 . S
O97 Dy83 2.326 . S
O97 C99 1.267 . S
C98 O90 1.249 . S
C98 O91 1.267 . S
C99 O96 1.249 . S
C99 O97 1.267 . S
Dy100 O104 2.398 . S
Dy100 O105 2.491 . S
Dy100 O106 2.403 . S
Dy100 O107 2.664 . S
Dy100 O111 2.326 . S
Dy100 O115 2.310 . S
Dy100 O116 2.351 . S
C101 O112 1.185 . S
C101 O113 1.355 . S
C102 O104 1.185 . S
C102 O105 1.355 . S
Dy103 O107 2.310 . S
Dy103 O110 2.351 . S
Dy103 O112 2.398 . S
Dy103 O113 2.491 . S
Dy103 O114 2.403 . S
Dy103 O115 2.664 . S
Dy103 O117 2.326 . S
O104 Dy100 2.398 . S
O104 C102 1.185 . S
O105 Dy100 2.491 . S
O105 C102 1.355 . S
O106 Dy100 2.403 . S
O106 C108 1.254 . S
O107 Dy100 2.664 . S
O107 Dy103 2.310 . S
O107 C108 1.268 . S
C108 O106 1.254 . S
C108 O107 1.268 . S
C109 O114 1.254 . S
C109 O115 1.268 . S
O110 Dy103 2.351 . S
O110 C118 1.249 . S
O111 Dy100 2.326 . S
O111 C118 1.267 . S
O112 C101 1.185 . S
O112 Dy103 2.398 . S
O113 C101 1.355 . S
O113 Dy103 2.491 . S
O114 Dy103 2.403 . S
O114 C109 1.254 . S
O115 Dy100 2.310 . S
O115 Dy103 2.664 . S
O115 C109 1.268 . S
O116 Dy100 2.351 . S
O116 C119 1.249 . S
O117 Dy103 2.326 . S
O117 C119 1.267 . S
C118 O110 1.249 . S
C118 O111 1.267 . S
C119 O116 1.249 . S
C119 O117 1.267 . S
Dy120 O124 2.398 . S
Dy120 O125 2.491 . S
Dy120 O126 2.403 . S
Dy120 O127 2.664 . S
Dy120 O131 2.326 . S
Dy120 O135 2.310 . S
Dy120 O136 2.351 . S
C121 O132 1.185 . S
C121 O133 1.355 . S
C122 O124 1.185 . S
C122 O125 1.355 . S
Dy123 O127 2.310 . S
Dy123 O130 2.351 . S
Dy123 O132 2.398 . S
Dy123 O133 2.491 . S
Dy123 O134 2.403 . S
Dy123 O135 2.664 . S
Dy123 O137 2.326 . S
O124 Dy120 2.398 . S
O124 C122 1.185 . S
O125 Dy120 2.491 . S
O125 C122 1.355 . S
O126 Dy120 2.403 . S
O126 C128 1.254 . S
O127 Dy120 2.664 . S
O127 Dy123 2.310 . S
O127 C128 1.268 . S
C128 O126 1.254 . S
C128 O127 1.268 . S
C129 O134 1.254 . S
C129 O135 1.268 . S
O130 Dy123 2.351 . S
O130 C138 1.249 . S
O131 Dy120 2.326 . S
O131 C138 1.267 . S
O132 C121 1.185 . S
O132 Dy123 2.398 . S
O133 C121 1.355 . S
O133 Dy123 2.491 . S
O134 Dy123 2.403 . S
O134 C129 1.254 . S
O135 Dy120 2.310 . S
O135 Dy123 2.664 . S
O135 C129 1.268 . S
O136 Dy120 2.351 . S
O136 C139 1.249 . S
O137 Dy123 2.326 . S
O137 C139 1.267 . S
C138 O130 1.249 . S
C138 O131 1.267 . S
C139 O136 1.249 . S
C139 O137 1.267 . S
Dy140 O144 2.398 . S
Dy140 O145 2.491 1_556 S
Dy140 O146 2.403 . S
Dy140 O147 2.664 . S
Dy140 O151 2.326 . S
Dy140 O155 2.310 . S
Dy140 O156 2.351 . S
C141 O152 1.185 . S
C141 O153 1.355 . S
C142 O144 1.185 1_554 S
C142 O145 1.355 . S
Dy143 O147 2.310 . S
Dy143 O150 2.351 . S
Dy143 O152 2.398 . S
Dy143 O153 2.491 . S
Dy143 O154 2.403 . S
Dy143 O155 2.664 . S
Dy143 O157 2.326 . S
O144 Dy140 2.398 . S
O144 C142 1.185 1_556 S
O145 Dy140 2.491 1_554 S
O145 C142 1.355 . S
O146 Dy140 2.403 . S
O146 C148 1.254 . S
O147 Dy140 2.664 . S
O147 Dy143 2.310 . S
O147 C148 1.268 . S
C148 O146 1.254 . S
C148 O147 1.268 . S
C149 O154 1.254 . S
C149 O155 1.268 . S
O150 Dy143 2.351 . S
O150 C158 1.249 1_556 S
O151 Dy140 2.326 . S
O151 C158 1.267 1_556 S
O152 C141 1.185 . S
O152 Dy143 2.398 . S
O153 C141 1.355 . S
O153 Dy143 2.491 . S
O154 Dy143 2.403 . S
O154 C149 1.254 . S
O155 Dy140 2.310 . S
O155 Dy143 2.664 . S
O155 C149 1.268 . S
O156 Dy140 2.351 . S
O156 C159 1.249 . S
O157 Dy143 2.326 . S
O157 C159 1.267 . S
C158 O150 1.249 1_554 S
C158 O151 1.267 1_554 S
C159 O156 1.249 . S
C159 O157 1.267 . S
Dy160 O164 2.398 . S
Dy160 O165 2.491 . S
Dy160 O166 2.403 . S
Dy160 O167 2.664 . S
Dy160 O171 2.326 . S
Dy160 O175 2.310 . S
Dy160 O176 2.351 . S
C161 O172 1.185 . S
C161 O173 1.355 . S
C162 O164 1.185 . S
C162 O165 1.355 . S
Dy163 O167 2.310 . S
Dy163 O170 2.351 . S
Dy163 O172 2.398 . S
Dy163 O173 2.491 . S
Dy163 O174 2.403 . S
Dy163 O175 2.664 . S
Dy163 O177 2.326 . S
O164 Dy160 2.398 . S
O164 C162 1.185 . S
O165 Dy160 2.491 . S
O165 C162 1.355 . S
O166 Dy160 2.403 . S
O166 C168 1.254 . S
O167 Dy160 2.664 . S
O167 Dy163 2.310 . S
O167 C168 1.268 . S
C168 O166 1.254 . S
C168 O167 1.268 . S
C169 O174 1.254 . S
C169 O175 1.268 . S
O170 Dy163 2.351 . S
O170 C178 1.249 . S
O171 Dy160 2.326 . S
O171 C178 1.267 . S
O172 C161 1.185 . S
O172 Dy163 2.398 . S
O173 C161 1.355 . S
O173 Dy163 2.491 . S
O174 Dy163 2.403 . S
O174 C169 1.254 . S
O175 Dy160 2.310 . S
O175 Dy163 2.664 . S
O175 C169 1.268 . S
O176 Dy160 2.351 . S
O176 C179 1.249 . S
O177 Dy163 2.326 . S
O177 C179 1.267 . S
C178 O170 1.249 . S
C178 O171 1.267 . S
C179 O176 1.249 . S
C179 O177 1.267 . S
Dy180 O184 2.398 . S
Dy180 O185 2.491 . S
Dy180 O186 2.403 . S
Dy180 O187 2.664 . S
Dy180 O191 2.326 . S
Dy180 O195 2.310 . S
Dy180 O196 2.351 . S
C181 O192 1.185 . S
C181 O193 1.355 . S
C182 O184 1.185 . S
C182 O185 1.355 . S
Dy183 O187 2.310 . S
Dy183 O190 2.351 . S
Dy183 O192 2.398 . S
Dy183 O193 2.491 . S
Dy183 O194 2.403 . S
Dy183 O195 2.664 . S
Dy183 O197 2.326 . S
O184 Dy180 2.398 . S
O184 C182 1.185 . S
O185 Dy180 2.491 . S
O185 C182 1.355 . S
O186 Dy180 2.403 . S
O186 C188 1.254 . S
O187 Dy180 2.664 . S
O187 Dy183 2.310 . S
O187 C188 1.268 . S
C188 O186 1.254 . S
C188 O187 1.268 . S
C189 O194 1.254 . S
C189 O195 1.268 . S
O190 Dy183 2.351 . S
O190 C198 1.249 . S
O191 Dy180 2.326 . S
O191 C198 1.267 . S
O192 C181 1.185 . S
O192 Dy183 2.398 . S
O193 C181 1.355 . S
O193 Dy183 2.491 . S
O194 Dy183 2.403 . S
O194 C189 1.254 . S
O195 Dy180 2.310 . S
O195 Dy183 2.664 . S
O195 C189 1.268 . S
O196 Dy180 2.351 . S
O196 C199 1.249 . S
O197 Dy183 2.326 . S
O197 C199 1.267 . S
C198 O190 1.249 . S
C198 O191 1.267 . S
C199 O196 1.249 . S
C199 O197 1.267 . S
Dy200 O204 2.398 . S
Dy200 O205 2.491 . S
Dy200 O206 2.403 . S
Dy200 O207 2.664 . S
Dy200 O211 2.326 . S
Dy200 O215 2.310 . S
Dy200 O216 2.351 . S
C201 O212 1.185 . S
C201 O213 1.355 . S
C202 O204 1.185 . S
C202 O205 1.355 . S
Dy203 O207 2.310 . S
Dy203 O210 2.351 . S
Dy203 O212 2.398 . S
Dy203 O213 2.491 . S
Dy203 O214 2.403 . S
Dy203 O215 2.664 . S
Dy203 O217 2.326 . S
O204 Dy200 2.398 . S
O204 C202 1.185 . S
O205 Dy200 2.491 . S
O205 C202 1.355 . S
O206 Dy200 2.403 . S
O206 C208 1.254 . S
O207 Dy200 2.664 . S
O207 Dy203 2.310 . S
O207 C208 1.268 . S
C208 O206 1.254 . S
C208 O207 1.268 . S
C209 O214 1.254 . S
C209 O215 1.268 . S
O210 Dy203 2.351 . S
O210 C218 1.249 . S
O211 Dy200 2.326 . S
O211 C218 1.267 . S
O212 C201 1.185 . S
O212 Dy203 2.398 . S
O213 C201 1.355 . S
O213 Dy203 2.491 . S
O214 Dy203 2.403 . S
O214 C209 1.254 . S
O215 Dy200 2.310 . S
O215 Dy203 2.664 . S
O215 C209 1.268 . S
O216 Dy200 2.351 . S
O216 C219 1.249 . S
O217 Dy203 2.326 . S
O217 C219 1.267 . S
C218 O210 1.249 . S
C218 O211 1.267 . S
C219 O216 1.249 . S
C219 O217 1.267 . S
Dy220 O224 2.398 . S
Dy220 O225 2.491 . S
Dy220 O226 2.403 . S
Dy220 O227 2.664 . S
Dy220 O231 2.326 . S
Dy220 O235 2.310 . S
Dy220 O236 2.351 . S
C221 O232 1.185 1_554 S
C221 O233 1.355 . S
C222 O224 1.185 . S
C222 O225 1.355 . S
Dy223 O227 2.310 . S
Dy223 O230 2.351 . S
Dy223 O232 2.398 . S
Dy223 O233 2.491 1_556 S
Dy223 O234 2.403 . S
Dy223 O235 2.664 . S
Dy223 O237 2.326 . S
O224 Dy220 2.398 . S
O224 C222 1.185 . S
O225 Dy220 2.491 . S
O225 C222 1.355 . S
O226 Dy220 2.403 . S
O226 C228 1.254 . S
O227 Dy220 2.664 . S
O227 Dy223 2.310 . S
O227 C228 1.268 . S
C228 O226 1.254 . S
C228 O227 1.268 . S
C229 O234 1.254 . S
C229 O235 1.268 . S
O230 Dy223 2.351 . S
O230 C238 1.249 . S
O231 Dy220 2.326 . S
O231 C238 1.267 . S
O232 C221 1.185 1_556 S
O232 Dy223 2.398 . S
O233 C221 1.355 . S
O233 Dy223 2.491 1_554 S
O234 Dy223 2.403 . S
O234 C229 1.254 . S
O235 Dy220 2.310 . S
O235 Dy223 2.664 . S
O235 C229 1.268 . S
O236 Dy220 2.351 . S
O236 C239 1.249 1_556 S
O237 Dy223 2.326 . S
O237 C239 1.267 1_556 S
C238 O230 1.249 . S
C238 O231 1.267 . S
C239 O236 1.249 1_554 S
C239 O237 1.267 1_554 S
Dy240 O244 2.398 . S
Dy240 O245 2.491 . S
Dy240 O246 2.403 . S
Dy240 O247 2.664 . S
Dy240 O251 2.326 . S
Dy240 O255 2.310 . S
Dy240 O256 2.351 . S
C241 O252 1.185 . S
C241 O253 1.355 . S
C242 O244 1.185 . S
C242 O245 1.355 . S
Dy243 O247 2.310 . S
Dy243 O250 2.351 . S
Dy243 O252 2.398 . S
Dy243 O253 2.491 . S
Dy243 O254 2.403 . S
Dy243 O255 2.664 . S
Dy243 O257 2.326 . S
O244 Dy240 2.398 . S
O244 C242 1.185 . S
O245 Dy240 2.491 . S
O245 C242 1.355 . S
O246 Dy240 2.403 . S
O246 C248 1.254 . S
O247 Dy240 2.664 . S
O247 Dy243 2.310 . S
O247 C248 1.268 . S
C248 O246 1.254 . S
C248 O247 1.268 . S
C249 O254 1.254 . S
C249 O255 1.268 . S
O250 Dy243 2.351 . S
O250 C258 1.249 . S
O251 Dy240 2.326 . S
O251 C258 1.267 . S
O252 C241 1.185 . S
O252 Dy243 2.398 . S
O253 C241 1.355 . S
O253 Dy243 2.491 . S
O254 Dy243 2.403 . S
O254 C249 1.254 . S
O255 Dy240 2.310 . S
O255 Dy243 2.664 . S
O255 C249 1.268 . S
O256 Dy240 2.351 . S
O256 C259 1.249 . S
O257 Dy243 2.326 . S
O257 C259 1.267 . S
C258 O250 1.249 . S
C258 O251 1.267 . S
C259 O256 1.249 . S
C259 O257 1.267 . S
Dy260 O264 2.398 . S
Dy260 O265 2.491 . S
Dy260 O266 2.403 . S
Dy260 O267 2.664 . S
Dy260 O271 2.326 . S
Dy260 O275 2.310 . S
Dy260 O276 2.351 . S
C261 O272 1.185 . S
C261 O273 1.355 . S
C262 O264 1.185 . S
C262 O265 1.355 . S
Dy263 O267 2.310 . S
Dy263 O270 2.351 . S
Dy263 O272 2.398 . S
Dy263 O273 2.491 . S
Dy263 O274 2.403 . S
Dy263 O275 2.664 . S
Dy263 O277 2.326 . S
O264 Dy260 2.398 . S
O264 C262 1.185 . S
O265 Dy260 2.491 . S
O265 C262 1.355 . S
O266 Dy260 2.403 . S
O266 C268 1.254 . S
O267 Dy260 2.664 . S
O267 Dy263 2.310 . S
O267 C268 1.268 . S
C268 O266 1.254 . S
C268 O267 1.268 . S
C269 O274 1.254 . S
C269 O275 1.268 . S
O270 Dy263 2.351 . S
O270 C278 1.249 . S
O271 Dy260 2.326 . S
O271 C278 1.267 . S
O272 C261 1.185 . S
O272 Dy263 2.398 . S
O273 C261 1.355 . S
O273 Dy263 2.491 . S
O274 Dy263 2.403 . S
O274 C269 1.254 . S
O275 Dy260 2.310 . S
O275 Dy263 2.664 . S
O275 C269 1.268 . S
O276 Dy260 2.351 . S
O276 C279 1.249 . S
O277 Dy263 2.326 . S
O277 C279 1.267 . S
C278 O270 1.249 . S
C278 O271 1.267 . S
C279 O276 1.249 . S
C279 O277 1.267 . S
Dy280 O284 2.398 . S
Dy280 O285 2.491 . S
Dy280 O286 2.403 . S
Dy280 O287 2.664 . S
Dy280 O291 2.326 . S
Dy280 O295 2.310 . S
Dy280 O296 2.351 . S
C281 O292 1.185 . S
C281 O293 1.355 . S
C282 O284 1.185 . S
C282 O285 1.355 . S
Dy283 O287 2.310 . S
Dy283 O290 2.351 . S
Dy283 O292 2.398 . S
Dy283 O293 2.491 . S
Dy283 O294 2.403 . S
Dy283 O295 2.664 . S
Dy283 O297 2.326 . S
O284 Dy280 2.398 . S
O284 C282 1.185 . S
O285 Dy280 2.491 . S
O285 C282 1.355 . S
O286 Dy280 2.403 . S
O286 C288 1.254 . S
O287 Dy280 2.664 . S
O287 Dy283 2.310 . S
O287 C288 1.268 . S
C288 O286 1.254 . S
C288 O287 1.268 . S
C289 O294 1.254 . S
C289 O295 1.268 . S
O290 Dy283 2.351 . S
O290 C298 1.249 . S
O291 Dy280 2.326 . S
O291 C298 1.267 . S
O292 C281 1.185 . S
O292 Dy283 2.398 . S
O293 C281 1.355 . S
O293 Dy283 2.491 . S
O294 Dy283 2.403 . S
O294 C289 1.254 . S
O295 Dy280 2.310 . S
O295 Dy283 2.664 . S
O295 C289 1.268 . S
O296 Dy280 2.351 . S
O296 C299 1.249 . S
O297 Dy283 2.326 . S
O297 C299 1.267 . S
C298 O290 1.249 . S
C298 O291 1.267 . S
C299 O296 1.249 . S
C299 O297 1.267 . S
Dy300 O304 2.398 . S
Dy300 O305 2.491 . S
Dy300 O306 2.403 . S
Dy300 O307 2.664 . S
Dy300 O311 2.326 . S
Dy300 O315 2.310 . S
Dy300 O316 2.351 . S
C301 O312 1.185 1_556 S
C301 O313 1.355 . S
C302 O304 1.185 . S
C302 O305 1.355 . S
Dy303 O307 2.310 . S
Dy303 O310 2.351 . S
Dy303 O312 2.398 . S
Dy303 O313 2.491 1_554 S
Dy303 O314 2.403 . S
Dy303 O315 2.664 . S
Dy303 O317 2.326 . S
O304 Dy300 2.398 . S
O304 C302 1.185 . S
O305 Dy300 2.491 . S
O305 C302 1.355 . S
O306 Dy300 2.403 . S
O306 C308 1.254 . S
O307 Dy300 2.664 . S
O307 Dy303 2.310 . S
O307 C308 1.268 . S
C308 O306 1.254 . S
C308 O307 1.268 . S
C309 O314 1.254 . S
C309 O315 1.268 . S
O310 Dy303 2.351 . S
O310 C318 1.249 . S
O311 Dy300 2.326 . S
O311 C318 1.267 . S
O312 C301 1.185 1_554 S
O312 Dy303 2.398 . S
O313 C301 1.355 . S
O313 Dy303 2.491 1_556 S
O314 Dy303 2.403 . S
O314 C309 1.254 . S
O315 Dy300 2.310 . S
O315 Dy303 2.664 . S
O315 C309 1.268 . S
O316 Dy300 2.351 . S
O316 C319 1.249 1_554 S
O317 Dy303 2.326 . S
O317 C319 1.267 1_554 S
C318 O310 1.249 . S
C318 O311 1.267 . S
C319 O316 1.249 1_556 S
C319 O317 1.267 1_556 S
Dy320 O324 2.398 . S
Dy320 O325 2.491 . S
Dy320 O326 2.403 . S
Dy320 O327 2.664 . S
Dy320 O331 2.326 . S
Dy320 O335 2.310 . S
Dy320 O336 2.351 . S
C321 O332 1.185 . S
C321 O333 1.355 . S
C322 O324 1.185 . S
C322 O325 1.355 . S
Dy323 O327 2.310 . S
Dy323 O330 2.351 . S
Dy323 O332 2.398 . S
Dy323 O333 2.491 . S
Dy323 O334 2.403 . S
Dy323 O335 2.664 . S
Dy323 O337 2.326 . S
O324 Dy320 2.398 . S
O324 C322 1.185 . S
O325 Dy320 2.491 . S
O325 C322 1.355 . S
O326 Dy320 2.403 . S
O326 C328 1.254 . S
O327 Dy320 2.664 . S
O327 Dy323 2.310 . S
O327 C328 1.268 . S
C328 O326 1.254 . S
C328 O327 1.268 . S
C329 O334 1.254 . S
C329 O335 1.268 . S
O330 Dy323 2.351 . S
O330 C338 1.249 . S
O331 Dy320 2.326 . S
O331 C338 1.267 . S
O332 C321 1.185 . S
O332 Dy323 2.398 . S
O333 C321 1.355 . S
O333 Dy323 2.491 . S
O334 Dy323 2.403 . S
O334 C329 1.254 . S
O335 Dy320 2.310 . S
O335 Dy323 2.664 . S
O335 C329 1.268 . S
O336 Dy320 2.351 . S
O336 C339 1.249 . S
O337 Dy323 2.326 . S
O337 C339 1.267 . S
C338 O330 1.249 . S
C338 O331 1.267 . S
C339 O336 1.249 . S
C339 O337 1.267 . S
Dy340 O344 2.398 . S
Dy340 O345 2.491 1_554 S
Dy340 O346 2.403 . S
Dy340 O347 2.664 . S
Dy340 O351 2.326 . S
Dy340 O355 2.310 . S
Dy340 O356 2.351 . S
C341 O352 1.185 . S
C341 O353 1.355 . S
C342 O344 1.185 1_556 S
C342 O345 1.355 . S
Dy343 O347 2.310 . S
Dy343 O350 2.351 . S
Dy343 O352 2.398 . S
Dy343 O353 2.491 . S
Dy343 O354 2.403 . S
Dy343 O355 2.664 . S
Dy343 O357 2.326 . S
O344 Dy340 2.398 . S
O344 C342 1.185 1_554 S
O345 Dy340 2.491 1_556 S
O345 C342 1.355 . S
O346 Dy340 2.403 . S
O346 C348 1.254 . S
O347 Dy340 2.664 . S
O347 Dy343 2.310 . S
O347 C348 1.268 . S
C348 O346 1.254 . S
C348 O347 1.268 . S
C349 O354 1.254 . S
C349 O355 1.268 . S
O350 Dy343 2.351 . S
O350 C358 1.249 1_554 S
O351 Dy340 2.326 . S
O351 C358 1.267 1_554 S
O352 C341 1.185 . S
O352 Dy343 2.398 . S
O353 C341 1.355 . S
O353 Dy343 2.491 . S
O354 Dy343 2.403 . S
O354 C349 1.254 . S
O355 Dy340 2.310 . S
O355 Dy343 2.664 . S
O355 C349 1.268 . S
O356 Dy340 2.351 . S
O356 C359 1.249 . S
O357 Dy343 2.326 . S
O357 C359 1.267 . S
C358 O350 1.249 1_556 S
C358 O351 1.267 1_556 S
C359 O356 1.249 . S
C359 O357 1.267 . S
Dy360 O364 2.398 . S
Dy360 O365 2.491 . S
Dy360 O366 2.403 . S
Dy360 O367 2.664 . S
Dy360 O371 2.326 . S
Dy360 O375 2.310 . S
Dy360 O376 2.351 . S
C361 O372 1.185 . S
C361 O373 1.355 . S
C362 O364 1.185 . S
C362 O365 1.355 . S
Dy363 O367 2.310 . S
Dy363 O370 2.351 . S
Dy363 O372 2.398 . S
Dy363 O373 2.491 . S
Dy363 O374 2.403 . S
Dy363 O375 2.664 . S
Dy363 O377 2.326 . S
O364 Dy360 2.398 . S
O364 C362 1.185 . S
O365 Dy360 2.491 . S
O365 C362 1.355 . S
O366 Dy360 2.403 . S
O366 C368 1.254 . S
O367 Dy360 2.664 . S
O367 Dy363 2.310 . S
O367 C368 1.268 . S
C368 O366 1.254 . S
C368 O367 1.268 . S
C369 O374 1.254 . S
C369 O375 1.268 . S
O370 Dy363 2.351 . S
O370 C378 1.249 . S
O371 Dy360 2.326 . S
O371 C378 1.267 . S
O372 C361 1.185 . S
O372 Dy363 2.398 . S
O373 C361 1.355 . S
O373 Dy363 2.491 . S
O374 Dy363 2.403 . S
O374 C369 1.254 . S
O375 Dy360 2.310 . S
O375 Dy363 2.664 . S
O375 C369 1.268 . S
O376 Dy360 2.351 . S
O376 C379 1.249 . S
O377 Dy363 2.326 . S
O377 C379 1.267 . S
C378 O370 1.249 . S
C378 O371 1.267 . S
C379 O376 1.249 . S
C379 O377 1.267 . S
Dy380 O384 2.398 . S
Dy380 O385 2.491 . S
Dy380 O386 2.403 . S
Dy380 O387 2.664 . S
Dy380 O391 2.326 . S
Dy380 O395 2.310 . S
Dy380 O396 2.351 . S
C381 O392 1.185 . S
C381 O393 1.355 . S
C382 O384 1.185 . S
C382 O385 1.355 . S
Dy383 O387 2.310 . S
Dy383 O390 2.351 . S
Dy383 O392 2.398 . S
Dy383 O393 2.491 . S
Dy383 O394 2.403 . S
Dy383 O395 2.664 . S
Dy383 O397 2.326 . S
O384 Dy380 2.398 . S
O384 C382 1.185 . S
O385 Dy380 2.491 . S
O385 C382 1.355 . S
O386 Dy380 2.403 . S
O386 C388 1.254 . S
O387 Dy380 2.664 . S
O387 Dy383 2.310 . S
O387 C388 1.268 . S
C388 O386 1.254 . S
C388 O387 1.268 . S
C389 O394 1.254 . S
C389 O395 1.268 . S
O390 Dy383 2.351 . S
O390 C398 1.249 . S
O391 Dy380 2.326 . S
O391 C398 1.267 . S
O392 C381 1.185 . S
O392 Dy383 2.398 . S
O393 C381 1.355 . S
O393 Dy383 2.491 . S
O394 Dy383 2.403 . S
O394 C389 1.254 . S
O395 Dy380 2.310 . S
O395 Dy383 2.664 . S
O395 C389 1.268 . S
O396 Dy380 2.351 . S
O396 C399 1.249 . S
O397 Dy383 2.326 . S
O397 C399 1.267 . S
C398 O390 1.249 . S
C398 O391 1.267 . S
C399 O396 1.249 . S
C399 O397 1.267 . S
Dy400 O404 2.398 . S
Dy400 O405 2.491 . S
Dy400 O406 2.403 . S
Dy400 O407 2.664 . S
Dy400 O411 2.326 . S
Dy400 O415 2.310 . S
Dy400 O416 2.351 . S
C401 O412 1.185 . S
C401 O413 1.355 . S
C402 O404 1.185 . S
C402 O405 1.355 . S
Dy403 O407 2.310 . S
Dy403 O410 2.351 . S
Dy403 O412 2.398 . S
Dy403 O413 2.491 . S
Dy403 O414 2.403 . S
Dy403 O415 2.664 . S
Dy403 O417 2.326 . S
O404 Dy400 2.398 . S
O404 C402 1.185 . S
O405 Dy400 2.491 . S
O405 C402 1.355 . S
O406 Dy400 2.403 . S
O406 C408 1.254 . S
O407 Dy400 2.664 . S
O407 Dy403 2.310 . S
O407 C408 1.268 . S
C408 O406 1.254 . S
C408 O407 1.268 . S
C409 O414 1.254 . S
C409 O415 1.268 . S
O410 Dy403 2.351 . S
O410 C418 1.249 . S
O411 Dy400 2.326 . S
O411 C418 1.267 . S
O412 C401 1.185 . S
O412 Dy403 2.398 . S
O413 C401 1.355 . S
O413 Dy403 2.491 . S
O414 Dy403 2.403 . S
O414 C409 1.254 . S
O415 Dy400 2.310 . S
O415 Dy403 2.664 . S
O415 C409 1.268 . S
O416 Dy400 2.351 . S
O416 C419 1.249 . S
O417 Dy403 2.326 . S
O417 C419 1.267 . S
C418 O410 1.249 . S
C418 O411 1.267 . S
C419 O416 1.249 . S
C419 O417 1.267 . S
Dy420 O424 2.398 . S
Dy420 O425 2.491 1_556 S
Dy420 O426 2.403 . S
Dy420 O427 2.664 . S
Dy420 O431 2.326 . S
Dy420 O435 2.310 . S
Dy420 O436 2.351 . S
C421 O432 1.185 . S
C421 O433 1.355 . S
C422 O424 1.185 1_554 S
C422 O425 1.355 . S
Dy423 O427 2.310 . S
Dy423 O430 2.351 . S
Dy423 O432 2.398 . S
Dy423 O433 2.491 . S
Dy423 O434 2.403 . S
Dy423 O435 2.664 . S
Dy423 O437 2.326 . S
O424 Dy420 2.398 . S
O424 C422 1.185 1_556 S
O425 Dy420 2.491 1_554 S
O425 C422 1.355 . S
O426 Dy420 2.403 . S
O426 C428 1.254 . S
O427 Dy420 2.664 . S
O427 Dy423 2.310 . S
O427 C428 1.268 . S
C428 O426 1.254 . S
C428 O427 1.268 . S
C429 O434 1.254 . S
C429 O435 1.268 . S
O430 Dy423 2.351 . S
O430 C438 1.249 1_556 S
O431 Dy420 2.326 . S
O431 C438 1.267 1_556 S
O432 C421 1.185 . S
O432 Dy423 2.398 . S
O433 C421 1.355 . S
O433 Dy423 2.491 . S
O434 Dy423 2.403 . S
O434 C429 1.254 . S
O435 Dy420 2.310 . S
O435 Dy423 2.664 . S
O435 C429 1.268 . S
O436 Dy420 2.351 . S
O436 C439 1.249 . S
O437 Dy423 2.326 . S
O437 C439 1.267 . S
C438 O430 1.249 1_554 S
C438 O431 1.267 1_554 S
C439 O436 1.249 . S
C439 O437 1.267 . S
Dy440 O444 2.398 . S
Dy440 O445 2.491 . S
Dy440 O446 2.403 . S
Dy440 O447 2.664 . S
Dy440 O451 2.326 . S
Dy440 O455 2.310 . S
Dy440 O456 2.351 . S
C441 O452 1.185 . S
C441 O453 1.355 . S
C442 O444 1.185 . S
C442 O445 1.355 . S
Dy443 O447 2.310 . S
Dy443 O450 2.351 . S
Dy443 O452 2.398 . S
Dy443 O453 2.491 . S
Dy443 O454 2.403 . S
Dy443 O455 2.664 . S
Dy443 O457 2.326 . S
O444 Dy440 2.398 . S
O444 C442 1.185 . S
O445 Dy440 2.491 . S
O445 C442 1.355 . S
O446 Dy440 2.403 . S
O446 C448 1.254 . S
O447 Dy440 2.664 . S
O447 Dy443 2.310 . S
O447 C448 1.268 . S
C448 O446 1.254 . S
C448 O447 1.268 . S
C449 O454 1.254 . S
C449 O455 1.268 . S
O450 Dy443 2.351 . S
O450 C458 1.249 . S
O451 Dy440 2.326 . S
O451 C458 1.267 . S
O452 C441 1.185 . S
O452 Dy443 2.398 . S
O453 C441 1.355 . S
O453 Dy443 2.491 . S
O454 Dy443 2.403 . S
O454 C449 1.254 . S
O455 Dy440 2.310 . S
O455 Dy443 2.664 . S
O455 C449 1.268 . S
O456 Dy440 2.351 . S
O456 C459 1.249 . S
O457 Dy443 2.326 . S
O457 C459 1.267 . S
C458 O450 1.249 . S
C458 O451 1.267 . S
C459 O456 1.249 . S
C459 O457 1.267 . S
Dy460 O464 2.398 . S
Dy460 O465 2.491 . S
Dy460 O466 2.403 . S
Dy460 O467 2.664 . S
Dy460 O471 2.326 . S
Dy460 O475 2.310 . S
Dy460 O476 2.351 . S
C461 O472 1.185 . S
C461 O473 1.355 . S
C462 O464 1.185 . S
C462 O465 1.355 . S
Dy463 O467 2.310 . S
Dy463 O470 2.351 . S
Dy463 O472 2.398 . S
Dy463 O473 2.491 . S
Dy463 O474 2.403 . S
Dy463 O475 2.664 . S
Dy463 O477 2.326 . S
O464 Dy460 2.398 . S
O464 C462 1.185 . S
O465 Dy460 2.491 . S
O465 C462 1.355 . S
O466 Dy460 2.403 . S
O466 C468 1.254 . S
O467 Dy460 2.664 . S
O467 Dy463 2.310 . S
O467 C468 1.268 . S
C468 O466 1.254 . S
C468 O467 1.268 . S
C469 O474 1.254 . S
C469 O475 1.268 . S
O470 Dy463 2.351 . S
O470 C478 1.249 . S
O471 Dy460 2.326 . S
O471 C478 1.267 . S
O472 C461 1.185 . S
O472 Dy463 2.398 . S
O473 C461 1.355 . S
O473 Dy463 2.491 . S
O474 Dy463 2.403 . S
O474 C469 1.254 . S
O475 Dy460 2.310 . S
O475 Dy463 2.664 . S
O475 C469 1.268 . S
O476 Dy460 2.351 . S
O476 C479 1.249 . S
O477 Dy463 2.326 . S
O477 C479 1.267 . S
C478 O470 1.249 . S
C478 O471 1.267 . S
C479 O476 1.249 . S
C479 O477 1.267 . S
Dy480 O484 2.398 . S
Dy480 O485 2.491 . S
Dy480 O486 2.403 . S
Dy480 O487 2.664 . S
Dy480 O491 2.326 . S
Dy480 O495 2.310 . S
Dy480 O496 2.351 . S
C481 O492 1.185 . S
C481 O493 1.355 . S
C482 O484 1.185 . S
C482 O485 1.355 . S
Dy483 O487 2.310 . S
Dy483 O490 2.351 . S
Dy483 O492 2.398 . S
Dy483 O493 2.491 . S
Dy483 O494 2.403 . S
Dy483 O495 2.664 . S
Dy483 O497 2.326 . S
O484 Dy480 2.398 . S
O484 C482 1.185 . S
O485 Dy480 2.491 . S
O485 C482 1.355 . S
O486 Dy480 2.403 . S
O486 C488 1.254 . S
O487 Dy480 2.664 . S
O487 Dy483 2.310 . S
O487 C488 1.268 . S
C488 O486 1.254 . S
C488 O487 1.268 . S
C489 O494 1.254 . S
C489 O495 1.268 . S
O490 Dy483 2.351 . S
O490 C498 1.249 . S
O491 Dy480 2.326 . S
O491 C498 1.267 . S
O492 C481 1.185 . S
O492 Dy483 2.398 . S
O493 C481 1.355 . S
O493 Dy483 2.491 . S
O494 Dy483 2.403 . S
O494 C489 1.254 . S
O495 Dy480 2.310 . S
O495 Dy483 2.664 . S
O495 C489 1.268 . S
O496 Dy480 2.351 . S
O496 C499 1.249 . S
O497 Dy483 2.326 . S
O497 C499 1.267 . S
C498 O490 1.249 . S
C498 O491 1.267 . S
C499 O496 1.249 . S
C499 O497 1.267 . S
Dy500 O504 2.398 . S
Dy500 O505 2.491 . S
Dy500 O506 2.403 . S
Dy500 O507 2.664 . S
Dy500 O511 2.326 . S
Dy500 O515 2.310 . S
Dy500 O516 2.351 . S
C501 O512 1.185 1_554 S
C501 O513 1.355 . S
C502 O504 1.185 . S
C502 O505 1.355 . S
Dy503 O507 2.310 . S
Dy503 O510 2.351 . S
Dy503 O512 2.398 . S
Dy503 O513 2.491 1_556 S
Dy503 O514 2.403 . S
Dy503 O515 2.664 . S
Dy503 O517 2.326 . S
O504 Dy500 2.398 . S
O504 C502 1.185 . S
O505 Dy500 2.491 . S
O505 C502 1.355 . S
O506 Dy500 2.403 . S
O506 C508 1.254 . S
O507 Dy500 2.664 . S
O507 Dy503 2.310 . S
O507 C508 1.268 . S
C508 O506 1.254 . S
C508 O507 1.268 . S
C509 O514 1.254 . S
C509 O515 1.268 . S
O510 Dy503 2.351 . S
O510 C518 1.249 . S
O511 Dy500 2.326 . S
O511 C518 1.267 . S
O512 C501 1.185 1_556 S
O512 Dy503 2.398 . S
O513 C501 1.355 . S
O513 Dy503 2.491 1_554 S
O514 Dy503 2.403 . S
O514 C509 1.254 . S
O515 Dy500 2.310 . S
O515 Dy503 2.664 . S
O515 C509 1.268 . S
O516 Dy500 2.351 . S
O516 C519 1.249 1_556 S
O517 Dy503 2.326 . S
O517 C519 1.267 1_556 S
C518 O510 1.249 . S
C518 O511 1.267 . S
C519 O516 1.249 1_554 S
C519 O517 1.267 1_554 S
Dy520 O524 2.398 . S
Dy520 O525 2.491 . S
Dy520 O526 2.403 . S
Dy520 O527 2.664 . S
Dy520 O531 2.326 . S
Dy520 O535 2.310 . S
Dy520 O536 2.351 . S
C521 O532 1.185 . S
C521 O533 1.355 . S
C522 O524 1.185 . S
C522 O525 1.355 . S
Dy523 O527 2.310 . S
Dy523 O530 2.351 . S
Dy523 O532 2.398 . S
Dy523 O533 2.491 . S
Dy523 O534 2.403 . S
Dy523 O535 2.664 . S
Dy523 O537 2.326 . S
O524 Dy520 2.398 . S
O524 C522 1.185 . S
O525 Dy520 2.491 . S
O525 C522 1.355 . S
O526 Dy520 2.403 . S
O526 C528 1.254 . S
O527 Dy520 2.664 . S
O527 Dy523 2.310 . S
O527 C528 1.268 . S
C528 O526 1.254 . S
C528 O527 1.268 . S
C529 O534 1.254 . S
C529 O535 1.268 . S
O530 Dy523 2.351 . S
O530 C538 1.249 . S
O531 Dy520 2.326 . S
O531 C538 1.267 . S
O532 C521 1.185 . S
O532 Dy523 2.398 . S
O533 C521 1.355 . S
O533 Dy523 2.491 . S
O534 Dy523 2.403 . S
O534 C529 1.254 . S
O535 Dy520 2.310 . S
O535 Dy523 2.664 . S
O535 C529 1.268 . S
O536 Dy520 2.351 . S
O536 C539 1.249 . S
O537 Dy523 2.326 . S
O537 C539 1.267 . S
C538 O530 1.249 . S
C538 O531 1.267 . S
C539 O536 1.249 . S
C539 O537 1.267 . S
Dy540 O544 2.398 . S
Dy540 O545 2.491 . S
Dy540 O546 2.403 . S
Dy540 O547 2.664 . S
Dy540 O551 2.326 . S
Dy540 O555 2.310 . S
Dy540 O556 2.351 . S
C541 O552 1.185 . S
C541 O553 1.355 . S
C542 O544 1.185 . S
C542 O545 1.355 . S
Dy543 O547 2.310 . S
Dy543 O550 2.351 . S
Dy543 O552 2.398 . S
Dy543 O553 2.491 . S
Dy543 O554 2.403 . S
Dy543 O555 2.664 . S
Dy543 O557 2.326 . S
O544 Dy540 2.398 . S
O544 C542 1.185 . S
O545 Dy540 2.491 . S
O545 C542 1.355 . S
O546 Dy540 2.403 . S
O546 C548 1.254 . S
O547 Dy540 2.664 . S
O547 Dy543 2.310 . S
O547 C548 1.268 . S
C548 O546 1.254 . S
C548 O547 1.268 . S
C549 O554 1.254 . S
C549 O555 1.268 . S
O550 Dy543 2.351 . S
O550 C558 1.249 . S
O551 Dy540 2.326 . S
O551 C558 1.267 . S
O552 C541 1.185 . S
O552 Dy543 2.398 . S
O553 C541 1.355 . S
O553 Dy543 2.491 . S
O554 Dy543 2.403 . S
O554 C549 1.254 . S
O555 Dy540 2.310 . S
O555 Dy543 2.664 . S
O555 C549 1.268 . S
O556 Dy540 2.351 . S
O556 C559 1.249 . S
O557 Dy543 2.326 . S
O557 C559 1.267 . S
C558 O550 1.249 . S
C558 O551 1.267 . S
C559 O556 1.249 . S
C559 O557 1.267 . S
Dy560 O564 2.398 . S
Dy560 O565 2.491 . S
Dy560 O566 2.403 . S
Dy560 O567 2.664 . S
Dy560 O571 2.326 . S
Dy560 O575 2.310 . S
Dy560 O576 2.351 . S
C561 O572 1.185 . S
C561 O573 1.355 . S
C562 O564 1.185 . S
C562 O565 1.355 . S
Dy563 O567 2.310 . S
Dy563 O570 2.351 . S
Dy563 O572 2.398 . S
Dy563 O573 2.491 . S
Dy563 O574 2.403 . S
Dy563 O575 2.664 . S
Dy563 O577 2.326 . S
O564 Dy560 2.398 . S
O564 C562 1.185 . S
O565 Dy560 2.491 . S
O565 C562 1.355 . S
O566 Dy560 2.403 . S
O566 C568 1.254 . S
O567 Dy560 2.664 . S
O567 Dy563 2.310 . S
O567 C568 1.268 . S
C568 O566 1.254 . S
C568 O567 1.268 . S
C569 O574 1.254 . S
C569 O575 1.268 . S
O570 Dy563 2.351 . S
O570 C578 1.249 . S
O571 Dy560 2.326 . S
O571 C578 1.267 . S
O572 C561 1.185 . S
O572 Dy563 2.398 . S
O573 C561 1.355 . S
O573 Dy563 2.491 . S
O574 Dy563 2.403 . S
O574 C569 1.254 . S
O575 Dy560 2.310 . S
O575 Dy563 2.664 . S
O575 C569 1.268 . S
O576 Dy560 2.351 . S
O576 C579 1.249 . S
O577 Dy563 2.326 . S
O577 C579 1.267 . S
C578 O570 1.249 . S
C578 O571 1.267 . S
C579 O576 1.249 . S
C579 O577 1.267 . S
Dy580 O584 2.398 . S
Dy580 O585 2.491 . S
Dy580 O586 2.403 . S
Dy580 O587 2.664 . S
Dy580 O591 2.326 . S
Dy580 O595 2.310 . S
Dy580 O596 2.351 . S
C581 O592 1.185 1_556 S
C581 O593 1.355 . S
C582 O584 1.185 . S
C582 O585 1.355 . S
Dy583 O587 2.310 . S
Dy583 O590 2.351 . S
Dy583 O592 2.398 . S
Dy583 O593 2.491 1_554 S
Dy583 O594 2.403 . S
Dy583 O595 2.664 . S
Dy583 O597 2.326 . S
O584 Dy580 2.398 . S
O584 C582 1.185 . S
O585 Dy580 2.491 . S
O585 C582 1.355 . S
O586 Dy580 2.403 . S
O586 C588 1.254 . S
O587 Dy580 2.664 . S
O587 Dy583 2.310 . S
O587 C588 1.268 . S
C588 O586 1.254 . S
C588 O587 1.268 . S
C589 O594 1.254 . S
C589 O595 1.268 . S
O590 Dy583 2.351 . S
O590 C598 1.249 . S
O591 Dy580 2.326 . S
O591 C598 1.267 . S
O592 C581 1.185 1_554 S
O592 Dy583 2.398 . S
O593 C581 1.355 . S
O593 Dy583 2.491 1_556 S
O594 Dy583 2.403 . S
O594 C589 1.254 . S
O595 Dy580 2.310 . S
O595 Dy583 2.664 . S
O595 C589 1.268 . S
O596 Dy580 2.351 . S
O596 C599 1.249 1_554 S
O597 Dy583 2.326 . S
O597 C599 1.267 1_554 S
C598 O590 1.249 . S
C598 O591 1.267 . S
C599 O596 1.249 1_556 S
C599 O597 1.267 1_556 S
Dy600 O604 2.398 . S
Dy600 O605 2.491 . S
Dy600 O606 2.403 . S
Dy600 O607 2.664 . S
Dy600 O611 2.326 . S
Dy600 O615 2.310 . S
Dy600 O616 2.351 . S
C601 O612 1.185 . S
C601 O613 1.355 . S
C602 O604 1.185 . S
C602 O605 1.355 . S
Dy603 O607 2.310 . S
Dy603 O610 2.351 . S
Dy603 O612 2.398 . S
Dy603 O613 2.491 . S
Dy603 O614 2.403 . S
Dy603 O615 2.664 . S
Dy603 O617 2.326 . S
O604 Dy600 2.398 . S
O604 C602 1.185 . S
O605 Dy600 2.491 . S
O605 C602 1.355 . S
O606 Dy600 2.403 . S
O606 C608 1.254 . S
O607 Dy600 2.664 . S
O607 Dy603 2.310 . S
O607 C608 1.268 . S
C608 O606 1.254 . S
C608 O607 1.268 . S
C609 O614 1.254 . S
C609 O615 1.268 . S
O610 Dy603 2.351 . S
O610 C618 1.249 . S
O611 Dy600 2.326 . S
O611 C618 1.267 . S
O612 C601 1.185 . S
O612 Dy603 2.398 . S
O613 C601 1.355 . S
O613 Dy603 2.491 . S
O614 Dy603 2.403 . S
O614 C609 1.254 . S
O615 Dy600 2.310 . S
O615 Dy603 2.664 . S
O615 C609 1.268 . S
O616 Dy600 2.351 . S
O616 C619 1.249 . S
O617 Dy603 2.326 . S
O617 C619 1.267 . S
C618 O610 1.249 . S
C618 O611 1.267 . S
C619 O616 1.249 . S
C619 O617 1.267 . S
Dy620 O624 2.398 . S
Dy620 O625 2.491 . S
Dy620 O626 2.403 . S
Dy620 O627 2.664 . S
Dy620 O631 2.326 . S
Dy620 O635 2.310 . S
Dy620 O636 2.351 . S
C621 O632 1.185 . S
C621 O633 1.355 . S
C622 O624 1.185 . S
C622 O625 1.355 . S
Dy623 O627 2.310 . S
Dy623 O630 2.351 . S
Dy623 O632 2.398 . S
Dy623 O633 2.491 . S
Dy623 O634 2.403 . S
Dy623 O635 2.664 . S
Dy623 O637 2.326 . S
O624 Dy620 2.398 . S
O624 C622 1.185 . S
O625 Dy620 2.491 . S
O625 C622 1.355 . S
O626 Dy620 2.403 . S
O626 C628 1.254 . S
O627 Dy620 2.664 . S
O627 Dy623 2.310 . S
O627 C628 1.268 . S
C628 O626 1.254 . S
C628 O627 1.268 . S
C629 O634 1.254 . S
C629 O635 1.268 . S
O630 Dy623 2.351 . S
O630 C638 1.249 . S
O631 Dy620 2.326 . S
O631 C638 1.267 . S
O632 C621 1.185 . S
O632 Dy623 2.398 . S
O633 C621 1.355 . S
O633 Dy623 2.491 . S
O634 Dy623 2.403 . S
O634 C629 1.254 . S
O635 Dy620 2.310 . S
O635 Dy623 2.664 . S
O635 C629 1.268 . S
O636 Dy620 2.351 . S
O636 C639 1.249 . S
O637 Dy623 2.326 . S
O637 C639 1.267 . S
C638 O630 1.249 . S
C638 O631 1.267 . S
C639 O636 1.249 . S
C639 O637 1.267 . S
H640 C648 0.950 . S
H641 C653 0.950 . S
H642 C650 0.950 . S
H643 C652 0.950 . S
H644 C654 0.950 . S
H645 C656 0.950 . S
H646 C658 0.950 . S
H647 C659 0.950 . S
C648 H640 0.950 . S
C648 C649 1.386 . S
C648 C650 1.391 . S
C649 C648 1.386 . S
C649 C653 1.393 . S
C650 H642 0.950 . S
C650 C648 1.391 . S
C650 C651 1.400 . S
C651 C650 1.400 . S
C651 C652 1.398 . S
C651 C657 1.491 . S
C652 H643 0.950 . S
C652 C651 1.398 . S
C652 C653 1.391 . S
C653 H641 0.950 . S
C653 C649 1.393 . S
C653 C652 1.391 . S
C654 H644 0.950 . S
C654 C655 1.386 . S
C654 C656 1.391 . S
C655 C654 1.386 . S
C655 C659 1.393 . S
C656 H645 0.950 . S
C656 C654 1.391 . S
C656 C657 1.400 . S
C657 C651 1.491 . S
C657 C656 1.400 . S
C657 C658 1.398 . S
C658 H646 0.950 . S
C658 C657 1.398 . S
C658 C659 1.391 . S
C659 H647 0.950 . S
C659 C655 1.393 . S
C659 C658 1.391 . S
H660 C668 0.950 . S
H661 C673 0.950 . S
H662 C670 0.950 . S
H663 C672 0.950 . S
H664 C674 0.945 1_545 S
H665 C676 0.950 . S
H666 C678 0.950 . S
H667 C679 0.950 . S
C668 H660 0.950 . S
C668 C669 1.386 . S
C668 C670 1.391 . S
C669 C668 1.386 . S
C669 C673 1.393 . S
C670 H662 0.950 . S
C670 C668 1.391 . S
C670 C671 1.400 . S
C671 C670 1.400 . S
C671 C672 1.398 . S
C671 C677 1.491 . S
C672 H663 0.950 . S
C672 C671 1.398 . S
C672 C673 1.391 . S
C673 H661 0.950 . S
C673 C669 1.393 . S
C673 C672 1.391 . S
C674 H664 0.945 1_565 S
C674 C675 1.405 . S
C674 C676 1.376 1_565 S
C675 C674 1.405 . S
C675 C679 1.393 . S
C676 H665 0.950 . S
C676 C674 1.376 1_545 S
C676 C677 1.400 . S
C677 C671 1.491 . S
C677 C676 1.400 . S
C677 C678 1.398 1_545 S
C678 H666 0.950 . S
C678 C677 1.398 1_565 S
C678 C679 1.391 . S
C679 H667 0.950 . S
C679 C675 1.393 . S
C679 C678 1.391 . S
H680 C688 0.950 . S
H681 C693 0.950 . S
H682 C690 0.950 . S
H683 C692 0.950 . S
H684 C694 0.950 . S
H685 C696 0.950 . S
H686 C698 0.950 . S
H687 C699 0.950 . S
C688 H680 0.950 . S
C688 C689 1.386 . S
C688 C690 1.391 . S
C689 C688 1.386 . S
C689 C693 1.393 . S
C690 H682 0.950 . S
C690 C688 1.391 . S
C690 C691 1.400 . S
C691 C690 1.400 . S
C691 C692 1.398 . S
C691 C697 1.491 . S
C692 H683 0.950 . S
C692 C691 1.398 . S
C692 C693 1.391 . S
C693 H681 0.950 . S
C693 C689 1.393 . S
C693 C692 1.391 . S
C694 H684 0.950 . S
C694 C695 1.386 . S
C694 C696 1.391 . S
C695 C694 1.386 . S
C695 C699 1.393 . S
C696 H685 0.950 . S
C696 C694 1.391 . S
C696 C697 1.400 . S
C697 C691 1.491 . S
C697 C696 1.400 . S
C697 C698 1.398 . S
C698 H686 0.950 . S
C698 C697 1.398 . S
C698 C699 1.391 . S
C699 H687 0.950 . S
C699 C695 1.393 . S
C699 C698 1.391 . S
H700 C708 0.950 . S
H701 C713 0.950 . S
H702 C710 0.950 . S
H703 C712 0.950 . S
H704 C714 0.950 . S
H705 C716 0.950 . S
H706 C718 0.950 . S
H707 C719 0.950 . S
C708 H700 0.950 . S
C708 C709 1.386 . S
C708 C710 1.391 . S
C709 C708 1.386 . S
C709 C713 1.393 . S
C710 H702 0.950 . S
C710 C708 1.391 . S
C710 C711 1.400 . S
C711 C710 1.400 . S
C711 C712 1.398 . S
C711 C717 1.491 . S
C712 H703 0.950 . S
C712 C711 1.398 . S
C712 C713 1.391 . S
C713 H701 0.950 . S
C713 C709 1.393 . S
C713 C712 1.391 . S
C714 H704 0.950 . S
C714 C715 1.386 . S
C714 C716 1.391 . S
C715 C714 1.386 . S
C715 C719 1.393 . S
C716 H705 0.950 . S
C716 C714 1.391 . S
C716 C717 1.400 1_545 S
C717 C711 1.491 . S
C717 C716 1.400 1_565 S
C717 C718 1.398 . S
C718 H706 0.950 . S
C718 C717 1.398 . S
C718 C719 1.391 1_565 S
C719 H707 0.950 . S
C719 C715 1.393 . S
C719 C718 1.391 1_545 S
H720 C728 0.950 . S
H721 C733 0.950 . S
H722 C730 0.950 . S
H723 C732 0.950 . S
H724 C734 0.950 . S
H725 C736 0.950 . S
H726 C738 0.950 . S
H727 C739 0.950 . S
C728 H720 0.950 . S
C728 C729 1.386 . S
C728 C730 1.391 . S
C729 C728 1.386 . S
C729 C733 1.393 . S
C730 H722 0.950 . S
C730 C728 1.391 . S
C730 C731 1.400 . S
C731 C730 1.400 . S
C731 C732 1.398 . S
C731 C737 1.491 . S
C732 H723 0.950 . S
C732 C731 1.398 . S
C732 C733 1.391 . S
C733 H721 0.950 . S
C733 C729 1.393 . S
C733 C732 1.391 . S
C734 H724 0.950 . S
C734 C735 1.386 . S
C734 C736 1.391 . S
C735 C734 1.386 . S
C735 C739 1.393 . S
C736 H725 0.950 . S
C736 C734 1.391 . S
C736 C737 1.400 . S
C737 C731 1.491 . S
C737 C736 1.400 . S
C737 C738 1.398 . S
C738 H726 0.950 . S
C738 C737 1.398 . S
C738 C739 1.391 . S
C739 H727 0.950 . S
C739 C735 1.393 . S
C739 C738 1.391 . S
H740 C748 0.950 . S
H741 C753 0.950 . S
H742 C750 0.963 . S
H743 C752 0.950 . S
H744 C754 0.950 . S
H745 C756 0.950 . S
H746 C758 0.950 . S
H747 C759 0.950 . S
C748 H740 0.950 . S
C748 C749 1.386 . S
C748 C750 1.358 1_565 S
C749 C748 1.386 . S
C749 C753 1.393 . S
C750 H742 0.963 . S
C750 C748 1.358 1_545 S
C750 C751 1.423 . S
C751 C750 1.423 . S
C751 C752 1.398 . S
C751 C757 1.491 . S
C752 H743 0.950 . S
C752 C751 1.398 . S
C752 C753 1.391 1_545 S
C753 H741 0.950 . S
C753 C749 1.393 . S
C753 C752 1.391 1_565 S
C754 H744 0.950 . S
C754 C755 1.386 . S
C754 C756 1.391 . S
C755 C754 1.386 . S
C755 C759 1.393 . S
C756 H745 0.950 . S
C756 C754 1.391 . S
C756 C757 1.400 . S
C757 C751 1.491 . S
C757 C756 1.400 . S
C757 C758 1.398 . S
C758 H746 0.950 . S
C758 C757 1.398 . S
C758 C759 1.391 . S
C759 H747 0.950 . S
C759 C755 1.393 . S
C759 C758 1.391 . S
H760 C768 0.950 . S
H761 C773 0.950 . S
H762 C770 0.950 . S
H763 C772 0.950 . S
H764 C774 0.950 . S
H765 C776 0.950 . S
H766 C778 0.950 . S
H767 C779 0.950 . S
C768 H760 0.950 . S
C768 C769 1.386 . S
C768 C770 1.391 . S
C769 C768 1.386 . S
C769 C773 1.393 . S
C770 H762 0.950 . S
C770 C768 1.391 . S
C770 C771 1.400 . S
C771 C770 1.400 . S
C771 C772 1.398 . S
C771 C777 1.491 . S
C772 H763 0.950 . S
C772 C771 1.398 . S
C772 C773 1.391 . S
C773 H761 0.950 . S
C773 C769 1.393 . S
C773 C772 1.391 . S
C774 H764 0.950 . S
C774 C775 1.386 . S
C774 C776 1.391 . S
C775 C774 1.386 . S
C775 C779 1.393 . S
C776 H765 0.950 . S
C776 C774 1.391 . S
C776 C777 1.400 . S
C777 C771 1.491 . S
C777 C776 1.400 . S
C777 C778 1.398 . S
C778 H766 0.950 . S
C778 C777 1.398 . S
C778 C779 1.391 . S
C779 H767 0.950 . S
C779 C775 1.393 . S
C779 C778 1.391 . S
H780 C788 0.950 . S
H781 C793 0.950 . S
H782 C790 0.950 . S
H783 C792 0.950 . S
H784 C794 0.950 . S
H785 C796 0.950 . S
H786 C798 0.949 1_565 S
H787 C799 0.950 . S
C788 H780 0.950 . S
C788 C789 1.386 . S
C788 C790 1.391 . S
C789 C788 1.386 . S
C789 C793 1.393 . S
C790 H782 0.950 . S
C790 C788 1.391 . S
C790 C791 1.400 . S
C791 C790 1.400 . S
C791 C792 1.398 . S
C791 C797 1.491 . S
C792 H783 0.950 . S
C792 C791 1.398 . S
C792 C793 1.391 . S
C793 H781 0.950 . S
C793 C789 1.393 . S
C793 C792 1.391 . S
C794 H784 0.950 . S
C794 C795 1.386 . S
C794 C796 1.391 1_545 S
C795 C794 1.386 . S
C795 C799 1.393 . S
C796 H785 0.950 . S
C796 C794 1.391 1_565 S
C796 C797 1.400 . S
C797 C791 1.491 . S
C797 C796 1.400 . S
C797 C798 1.397 1_565 S
C798 H786 0.949 1_545 S
C798 C797 1.397 1_545 S
C798 C799 1.393 . S
C799 H787 0.950 . S
C799 C795 1.393 . S
C799 C798 1.393 . S
H800 C808 0.950 . S
H801 C813 0.950 . S
H802 C810 0.950 . S
H803 C812 0.950 . S
H804 C814 0.950 . S
H805 C816 0.950 . S
H806 C818 0.950 . S
H807 C819 0.950 . S
C808 H800 0.950 . S
C808 C809 1.386 . S
C808 C810 1.391 . S
C809 C808 1.386 . S
C809 C813 1.393 . S
C810 H802 0.950 . S
C810 C808 1.391 . S
C810 C811 1.400 . S
C811 C810 1.400 . S
C811 C812 1.398 . S
C811 C817 1.491 . S
C812 H803 0.950 . S
C812 C811 1.398 . S
C812 C813 1.391 . S
C813 H801 0.950 . S
C813 C809 1.393 . S
C813 C812 1.391 . S
C814 H804 0.950 . S
C814 C815 1.386 . S
C814 C816 1.391 . S
C815 C814 1.386 . S
C815 C819 1.393 . S
C816 H805 0.950 . S
C816 C814 1.391 . S
C816 C817 1.400 . S
C817 C811 1.491 . S
C817 C816 1.400 . S
C817 C818 1.398 . S
C818 H806 0.950 . S
C818 C817 1.398 . S
C818 C819 1.391 . S
C819 H807 0.950 . S
C819 C815 1.393 . S
C819 C818 1.391 . S
H820 C828 0.950 . S
H821 C833 0.950 . S
H822 C830 0.950 . S
H823 C832 0.950 . S
H824 C834 0.950 . S
H825 C836 0.950 . S
H826 C838 0.950 . S
H827 C839 0.950 . S
C828 H820 0.950 . S
C828 C829 1.386 . S
C828 C830 1.391 1_545 S
C829 C828 1.386 . S
C829 C833 1.393 . S
C830 H822 0.950 . S
C830 C828 1.391 1_565 S
C830 C831 1.400 . S
C831 C830 1.400 . S
C831 C832 1.398 1_565 S
C831 C837 1.491 . S
C832 H823 0.950 . S
C832 C831 1.398 1_545 S
C832 C833 1.391 . S
C833 H821 0.950 . S
C833 C829 1.393 . S
C833 C832 1.391 . S
C834 H824 0.950 . S
C834 C835 1.386 . S
C834 C836 1.391 . S
C835 C834 1.386 . S
C835 C839 1.393 . S
C836 H825 0.950 . S
C836 C834 1.391 . S
C836 C837 1.400 . S
C837 C831 1.491 . S
C837 C836 1.400 . S
C837 C838 1.398 . S
C838 H826 0.950 . S
C838 C837 1.398 . S
C838 C839 1.391 . S
C839 H827 0.950 . S
C839 C835 1.393 . S
C839 C838 1.391 . S
H840 C848 0.950 . S
H841 C853 0.950 . S
H842 C850 0.950 . S
H843 C852 0.950 . S
H844 C854 0.950 . S
H845 C856 0.950 . S
H846 C858 0.950 . S
H847 C859 0.950 . S
C848 H840 0.950 . S
C848 C849 1.386 . S
C848 C850 1.391 . S
C849 C848 1.386 . S
C849 C853 1.393 . S
C850 H842 0.950 . S
C850 C848 1.391 . S
C850 C851 1.400 . S
C851 C850 1.400 . S
C851 C852 1.398 . S
C851 C857 1.491 . S
C852 H843 0.950 . S
C852 C851 1.398 . S
C852 C853 1.391 . S
C853 H841 0.950 . S
C853 C849 1.393 . S
C853 C852 1.391 . S
C854 H844 0.950 . S
C854 C855 1.386 . S
C854 C856 1.391 . S
C855 C854 1.386 . S
C855 C859 1.393 . S
C856 H845 0.950 . S
C856 C854 1.391 . S
C856 C857 1.400 . S
C857 C851 1.491 . S
C857 C856 1.400 . S
C857 C858 1.398 . S
C858 H846 0.950 . S
C858 C857 1.398 . S
C858 C859 1.391 . S
C859 H847 0.950 . S
C859 C855 1.393 . S
C859 C858 1.391 . S
H860 C868 0.950 1_545 S
H861 C873 0.950 . S
H862 C870 0.950 . S
H863 C872 0.950 . S
H864 C874 0.950 . S
H865 C876 0.950 . S
H866 C878 0.950 . S
H867 C879 0.950 . S
C868 H860 0.950 1_565 S
C868 C869 1.409 . S
C868 C870 1.374 1_565 S
C869 C868 1.409 . S
C869 C873 1.393 . S
C870 H862 0.950 . S
C870 C868 1.374 1_545 S
C870 C871 1.400 . S
C871 C870 1.400 . S
C871 C872 1.398 1_545 S
C871 C877 1.491 . S
C872 H863 0.950 . S
C872 C871 1.398 1_565 S
C872 C873 1.391 . S
C873 H861 0.950 . S
C873 C869 1.393 . S
C873 C872 1.391 . S
C874 H864 0.950 . S
C874 C875 1.386 . S
C874 C876 1.391 . S
C875 C874 1.386 . S
C875 C879 1.393 . S
C876 H865 0.950 . S
C876 C874 1.391 . S
C876 C877 1.400 . S
C877 C871 1.491 . S
C877 C876 1.400 . S
C877 C878 1.398 . S
C878 H866 0.950 . S
C878 C877 1.398 . S
C878 C879 1.391 . S
C879 H867 0.950 . S
C879 C875 1.393 . S
C879 C878 1.391 . S
H880 C888 0.950 . S
H881 C893 0.950 . S
H882 C890 0.950 . S
H883 C892 0.950 . S
H884 C894 0.950 . S
H885 C896 0.950 . S
H886 C898 0.950 . S
H887 C899 0.950 . S
C888 H880 0.950 . S
C888 C889 1.386 . S
C888 C890 1.391 . S
C889 C888 1.386 . S
C889 C893 1.393 . S
C890 H882 0.950 . S
C890 C888 1.391 . S
C890 C891 1.400 . S
C891 C890 1.400 . S
C891 C892 1.398 . S
C891 C897 1.491 . S
C892 H883 0.950 . S
C892 C891 1.398 . S
C892 C893 1.391 . S
C893 H881 0.950 . S
C893 C889 1.393 . S
C893 C892 1.391 . S
C894 H884 0.950 . S
C894 C895 1.386 . S
C894 C896 1.391 . S
C895 C894 1.386 . S
C895 C899 1.393 . S
C896 H885 0.950 . S
C896 C894 1.391 . S
C896 C897 1.400 . S
C897 C891 1.491 . S
C897 C896 1.400 . S
C897 C898 1.398 . S
C898 H886 0.950 . S
C898 C897 1.398 . S
C898 C899 1.391 . S
C899 H887 0.950 . S
C899 C895 1.393 . S
C899 C898 1.391 . S
H900 C908 0.950 . S
H901 C913 0.950 . S
H902 C910 0.950 . S
H903 C912 0.949 1_565 S
H904 C914 0.950 . S
H905 C916 0.950 . S
H906 C918 0.950 . S
H907 C919 0.950 . S
C908 H900 0.950 . S
C908 C909 1.386 . S
C908 C910 1.391 1_545 S
C909 C908 1.386 . S
C909 C913 1.393 . S
C910 H902 0.950 . S
C910 C908 1.391 1_565 S
C910 C911 1.400 . S
C911 C910 1.400 . S
C911 C912 1.396 1_565 S
C911 C917 1.491 . S
C912 H903 0.949 1_545 S
C912 C911 1.396 1_545 S
C912 C913 1.394 . S
C913 H901 0.950 . S
C913 C909 1.393 . S
C913 C912 1.394 . S
C914 H904 0.950 . S
C914 C915 1.386 . S
C914 C916 1.391 . S
C915 C914 1.386 . S
C915 C919 1.393 . S
C916 H905 0.950 . S
C916 C914 1.391 . S
C916 C917 1.400 . S
C917 C911 1.491 . S
C917 C916 1.400 . S
C917 C918 1.398 . S
C918 H906 0.950 . S
C918 C917 1.398 . S
C918 C919 1.391 . S
C919 H907 0.950 . S
C919 C915 1.393 . S
C919 C918 1.391 . S
H920 C928 0.950 . S
H921 C933 0.950 . S
H922 C930 0.950 . S
H923 C932 0.950 . S
H924 C934 0.950 . S
H925 C936 0.950 . S
H926 C938 0.950 . S
H927 C939 0.950 . S
C928 H920 0.950 . S
C928 C929 1.386 . S
C928 C930 1.391 . S
C929 C928 1.386 . S
C929 C933 1.393 . S
C930 H922 0.950 . S
C930 C928 1.391 . S
C930 C931 1.400 . S
C931 C930 1.400 . S
C931 C932 1.398 . S
C931 C937 1.491 . S
C932 H923 0.950 . S
C932 C931 1.398 . S
C932 C933 1.391 . S
C933 H921 0.950 . S
C933 C929 1.393 . S
C933 C932 1.391 . S
C934 H924 0.950 . S
C934 C935 1.386 . S
C934 C936 1.391 . S
C935 C934 1.386 . S
C935 C939 1.393 . S
C936 H925 0.950 . S
C936 C934 1.391 . S
C936 C937 1.400 . S
C937 C931 1.491 . S
C937 C936 1.400 . S
C937 C938 1.398 . S
C938 H926 0.950 . S
C938 C937 1.398 . S
C938 C939 1.391 . S
C939 H927 0.950 . S
C939 C935 1.393 . S
C939 C938 1.391 . S
H940 C948 0.950 . S
H941 C953 0.950 . S
H942 C950 0.950 . S
H943 C952 0.950 . S
H944 C954 0.950 . S
H945 C956 0.950 . S
H946 C958 0.950 . S
H947 C959 0.950 . S
C948 H940 0.950 . S
C948 C949 1.386 . S
C948 C950 1.391 . S
C949 C948 1.386 . S
C949 C953 1.393 . S
C950 H942 0.950 . S
C950 C948 1.391 . S
C950 C951 1.400 . S
C951 C950 1.400 . S
C951 C952 1.398 . S
C951 C957 1.491 . S
C952 H943 0.950 . S
C952 C951 1.398 . S
C952 C953 1.391 . S
C953 H941 0.950 . S
C953 C949 1.393 . S
C953 C952 1.391 . S
C954 H944 0.950 . S
C954 C955 1.386 . S
C954 C956 1.391 1_565 S
C955 C954 1.386 . S
C955 C959 1.393 . S
C956 H945 0.950 . S
C956 C954 1.391 1_545 S
C956 C957 1.400 . S
C957 C951 1.491 . S
C957 C956 1.400 . S
C957 C958 1.398 1_545 S
C958 H946 0.950 . S
C958 C957 1.398 1_565 S
C958 C959 1.391 . S
C959 H947 0.950 . S
C959 C955 1.393 . S
C959 C958 1.391 . S
H960 C968 0.950 . S
H961 C973 0.950 . S
H962 C970 0.950 . S
H963 C972 0.950 . S
H964 C974 0.950 . S
H965 C976 0.950 . S
H966 C978 0.950 . S
H967 C979 0.950 . S
C968 H960 0.950 . S
C968 C969 1.386 . S
C968 C970 1.391 . S
C969 C968 1.386 . S
C969 C973 1.393 . S
C970 H962 0.950 . S
C970 C968 1.391 . S
C970 C971 1.400 . S
C971 C970 1.400 . S
C971 C972 1.398 . S
C971 C977 1.491 . S
C972 H963 0.950 . S
C972 C971 1.398 . S
C972 C973 1.391 . S
C973 H961 0.950 . S
C973 C969 1.393 . S
C973 C972 1.391 . S
C974 H964 0.950 . S
C974 C975 1.386 . S
C974 C976 1.391 . S
C975 C974 1.386 . S
C975 C979 1.393 . S
C976 H965 0.950 . S
C976 C974 1.391 . S
C976 C977 1.400 . S
C977 C971 1.491 . S
C977 C976 1.400 . S
C977 C978 1.398 . S
C978 H966 0.950 . S
C978 C977 1.398 . S
C978 C979 1.391 . S
C979 H967 0.950 . S
C979 C975 1.393 . S
C979 C978 1.391 . S
H980 C988 0.950 . S
H981 C993 0.950 . S
H982 C990 0.950 . S
H983 C992 0.950 . S
H984 C994 0.950 . S
H985 C996 0.950 . S
H986 C998 0.950 . S
H987 C999 0.950 . S
C988 H980 0.950 . S
C988 C989 1.386 . S
C988 C990 1.391 . S
C989 C988 1.386 . S
C989 C993 1.393 . S
C990 H982 0.950 . S
C990 C988 1.391 . S
C990 C991 1.400 . S
C991 C990 1.400 . S
C991 C992 1.398 . S
C991 C997 1.491 . S
C992 H983 0.950 . S
C992 C991 1.398 . S
C992 C993 1.391 . S
C993 H981 0.950 . S
C993 C989 1.393 . S
C993 C992 1.391 . S
C994 H984 0.950 . S
C994 C995 1.386 . S
C994 C996 1.391 . S
C995 C994 1.386 . S
C995 C999 1.393 . S
C996 H985 0.950 . S
C996 C994 1.391 . S
C996 C997 1.400 . S
C997 C991 1.491 . S
C997 C996 1.400 . S
C997 C998 1.398 . S
C998 H986 0.950 . S
C998 C997 1.398 . S
C998 C999 1.391 . S
C999 H987 0.950 . S
C999 C995 1.393 . S
C999 C998 1.391 . S
H1000 C1008 0.950 . S
H1001 C1013 0.950 . S
H1002 C1010 0.950 . S
H1003 C1012 0.950 . S
H1004 C1014 0.950 . S
H1005 C1016 0.950 . S
H1006 C1018 0.950 . S
H1007 C1019 0.950 . S
C1008 H1000 0.950 . S
C1008 C1009 1.386 . S
C1008 C1010 1.391 . S
C1009 C1008 1.386 . S
C1009 C1013 1.393 . S
C1010 H1002 0.950 . S
C1010 C1008 1.391 . S
C1010 C1011 1.400 . S
C1011 C1010 1.400 . S
C1011 C1012 1.398 . S
C1011 C1017 1.491 . S
C1012 H1003 0.950 . S
C1012 C1011 1.398 . S
C1012 C1013 1.391 . S
C1013 H1001 0.950 . S
C1013 C1009 1.393 . S
C1013 C1012 1.391 . S
C1014 H1004 0.950 . S
C1014 C1015 1.386 . S
C1014 C1016 1.391 . S
C1015 C1014 1.386 . S
C1015 C1019 1.393 . S
C1016 H1005 0.950 . S
C1016 C1014 1.391 . S
C1016 C1017 1.400 . S
C1017 C1011 1.491 . S
C1017 C1016 1.400 . S
C1017 C1018 1.398 . S
C1018 H1006 0.950 . S
C1018 C1017 1.398 . S
C1018 C1019 1.391 . S
C1019 H1007 0.950 . S
C1019 C1015 1.393 . S
C1019 C1018 1.391 . S
H1020 C1028 0.950 . S
H1021 C1033 0.950 . S
H1022 C1030 0.950 . S
H1023 C1032 0.950 . S
H1024 C1034 0.950 . S
H1025 C1036 0.950 . S
H1026 C1038 0.950 . S
H1027 C1039 0.950 . S
C1028 H1020 0.950 . S
C1028 C1029 1.386 . S
C1028 C1030 1.391 . S
C1029 C1028 1.386 . S
C1029 C1033 1.393 . S
C1030 H1022 0.950 . S
C1030 C1028 1.391 . S
C1030 C1031 1.400 . S
C1031 C1030 1.400 . S
C1031 C1032 1.398 . S
C1031 C1037 1.491 . S
C1032 H1023 0.950 . S
C1032 C1031 1.398 . S
C1032 C1033 1.391 . S
C1033 H1021 0.950 . S
C1033 C1029 1.393 . S
C1033 C1032 1.391 . S
C1034 H1024 0.950 . S
C1034 C1035 1.386 . S
C1034 C1036 1.391 . S
C1035 C1034 1.386 . S
C1035 C1039 1.393 . S
C1036 H1025 0.950 . S
C1036 C1034 1.391 . S
C1036 C1037 1.400 . S
C1037 C1031 1.491 . S
C1037 C1036 1.400 . S
C1037 C1038 1.398 . S
C1038 H1026 0.950 . S
C1038 C1037 1.398 . S
C1038 C1039 1.391 . S
C1039 H1027 0.950 . S
C1039 C1035 1.393 . S
C1039 C1038 1.391 . S
H1040 C1048 0.950 . S
H1041 C1053 0.950 . S
H1042 C1050 0.950 . S
H1043 C1052 0.950 . S
H1044 C1054 0.950 . S
H1045 C1056 0.950 . S
H1046 C1058 0.950 . S
H1047 C1059 0.950 . S
C1048 H1040 0.950 . S
C1048 C1049 1.386 . S
C1048 C1050 1.391 . S
C1049 C1048 1.386 . S
C1049 C1053 1.393 . S
C1050 H1042 0.950 . S
C1050 C1048 1.391 . S
C1050 C1051 1.400 . S
C1051 C1050 1.400 . S
C1051 C1052 1.398 . S
C1051 C1057 1.491 . S
C1052 H1043 0.950 . S
C1052 C1051 1.398 . S
C1052 C1053 1.391 . S
C1053 H1041 0.950 . S
C1053 C1049 1.393 . S
C1053 C1052 1.391 . S
C1054 H1044 0.950 . S
C1054 C1055 1.386 . S
C1054 C1056 1.391 . S
C1055 C1054 1.386 . S
C1055 C1059 1.393 . S
C1056 H1045 0.950 . S
C1056 C1054 1.391 . S
C1056 C1057 1.400 . S
C1057 C1051 1.491 . S
C1057 C1056 1.400 . S
C1057 C1058 1.398 . S
C1058 H1046 0.950 . S
C1058 C1057 1.398 . S
C1058 C1059 1.391 . S
C1059 H1047 0.950 . S
C1059 C1055 1.393 . S
C1059 C1058 1.391 . S
H1060 C1068 0.950 . S
H1061 C1073 0.950 . S
H1062 C1070 0.950 . S
H1063 C1072 0.950 . S
H1064 C1074 0.950 . S
H1065 C1076 0.950 . S
H1066 C1078 0.950 . S
H1067 C1079 0.950 . S
C1068 H1060 0.950 . S
C1068 C1069 1.386 . S
C1068 C1070 1.391 . S
C1069 C1068 1.386 . S
C1069 C1073 1.393 . S
C1070 H1062 0.950 . S
C1070 C1068 1.391 . S
C1070 C1071 1.400 . S
C1071 C1070 1.400 . S
C1071 C1072 1.398 . S
C1071 C1077 1.491 . S
C1072 H1063 0.950 . S
C1072 C1071 1.398 . S
C1072 C1073 1.391 . S
C1073 H1061 0.950 . S
C1073 C1069 1.393 . S
C1073 C1072 1.391 . S
C1074 H1064 0.950 . S
C1074 C1075 1.386 . S
C1074 C1076 1.391 . S
C1075 C1074 1.386 . S
C1075 C1079 1.393 . S
C1076 H1065 0.950 . S
C1076 C1074 1.391 . S
C1076 C1077 1.400 . S
C1077 C1071 1.491 . S
C1077 C1076 1.400 . S
C1077 C1078 1.398 . S
C1078 H1066 0.950 . S
C1078 C1077 1.398 . S
C1078 C1079 1.391 . S
C1079 H1067 0.950 . S
C1079 C1075 1.393 . S
C1079 C1078 1.391 . S
H1080 C1088 0.950 . S
H1081 C1093 0.950 . S
H1082 C1090 0.950 . S
H1083 C1092 0.950 . S
H1084 C1094 0.950 . S
H1085 C1096 0.950 . S
H1086 C1098 0.950 . S
H1087 C1099 0.950 . S
C1088 H1080 0.950 . S
C1088 C1089 1.386 . S
C1088 C1090 1.391 . S
C1089 C1088 1.386 . S
C1089 C1093 1.393 . S
C1090 H1082 0.950 . S
C1090 C1088 1.391 . S
C1090 C1091 1.400 . S
C1091 C1090 1.400 . S
C1091 C1092 1.398 . S
C1091 C1097 1.491 . S
C1092 H1083 0.950 . S
C1092 C1091 1.398 . S
C1092 C1093 1.391 . S
C1093 H1081 0.950 . S
C1093 C1089 1.393 . S
C1093 C1092 1.391 . S
C1094 H1084 0.950 . S
C1094 C1095 1.386 . S
C1094 C1096 1.391 . S
C1095 C1094 1.386 . S
C1095 C1099 1.393 . S
C1096 H1085 0.950 . S
C1096 C1094 1.391 . S
C1096 C1097 1.400 . S
C1097 C1091 1.491 . S
C1097 C1096 1.400 . S
C1097 C1098 1.398 . S
C1098 H1086 0.950 . S
C1098 C1097 1.398 . S
C1098 C1099 1.391 . S
C1099 H1087 0.950 . S
C1099 C1095 1.393 . S
C1099 C1098 1.391 . S
H1100 C1108 0.950 . S
H1101 C1113 0.950 . S
H1102 C1110 0.950 . S
H1103 C1112 0.950 . S
H1104 C1114 0.950 . S
H1105 C1116 0.950 . S
H1106 C1118 0.950 . S
H1107 C1119 0.950 . S
C1108 H1100 0.950 . S
C1108 C1109 1.386 . S
C1108 C1110 1.391 . S
C1109 C1108 1.386 . S
C1109 C1113 1.393 . S
C1110 H1102 0.950 . S
C1110 C1108 1.391 . S
C1110 C1111 1.400 . S
C1111 C1110 1.400 . S
C1111 C1112 1.398 . S
C1111 C1117 1.491 . S
C1112 H1103 0.950 . S
C1112 C1111 1.398 . S
C1112 C1113 1.391 . S
C1113 H1101 0.950 . S
C1113 C1109 1.393 . S
C1113 C1112 1.391 . S
C1114 H1104 0.950 . S
C1114 C1115 1.386 . S
C1114 C1116 1.391 . S
C1115 C1114 1.386 . S
C1115 C1119 1.393 . S
C1116 H1105 0.950 . S
C1116 C1114 1.391 . S
C1116 C1117 1.400 . S
C1117 C1111 1.491 . S
C1117 C1116 1.400 . S
C1117 C1118 1.398 . S
C1118 H1106 0.950 . S
C1118 C1117 1.398 . S
C1118 C1119 1.391 . S
C1119 H1107 0.950 . S
C1119 C1115 1.393 . S
C1119 C1118 1.391 . S
H1120 C1128 0.950 . S
H1121 C1133 0.950 . S
H1122 C1130 0.950 . S
H1123 C1132 0.950 . S
H1124 C1134 0.950 . S
H1125 C1136 0.950 . S
H1126 C1138 0.950 . S
H1127 C1139 0.950 . S
C1128 H1120 0.950 . S
C1128 C1129 1.386 . S
C1128 C1130 1.391 . S
C1129 C1128 1.386 . S
C1129 C1133 1.393 . S
C1130 H1122 0.950 . S
C1130 C1128 1.391 . S
C1130 C1131 1.400 . S
C1131 C1130 1.400 . S
C1131 C1132 1.398 . S
C1131 C1137 1.491 . S
C1132 H1123 0.950 . S
C1132 C1131 1.398 . S
C1132 C1133 1.391 . S
C1133 H1121 0.950 . S
C1133 C1129 1.393 . S
C1133 C1132 1.391 . S
C1134 H1124 0.950 . S
C1134 C1135 1.386 . S
C1134 C1136 1.391 . S
C1135 C1134 1.386 . S
C1135 C1139 1.393 . S
C1136 H1125 0.950 . S
C1136 C1134 1.391 . S
C1136 C1137 1.400 . S
C1137 C1131 1.491 . S
C1137 C1136 1.400 . S
C1137 C1138 1.398 . S
C1138 H1126 0.950 . S
C1138 C1137 1.398 . S
C1138 C1139 1.391 . S
C1139 H1127 0.950 . S
C1139 C1135 1.393 . S
C1139 C1138 1.391 . S
H1140 C1148 0.950 . S
H1141 C1153 0.950 . S
H1142 C1150 0.950 . S
H1143 C1152 0.950 . S
H1144 C1154 0.950 . S
H1145 C1156 0.950 . S
H1146 C1158 0.950 . S
H1147 C1159 0.950 . S
C1148 H1140 0.950 . S
C1148 C1149 1.386 . S
C1148 C1150 1.391 . S
C1149 C1148 1.386 . S
C1149 C1153 1.393 . S
C1150 H1142 0.950 . S
C1150 C1148 1.391 . S
C1150 C1151 1.400 . S
C1151 C1150 1.400 . S
C1151 C1152 1.398 . S
C1151 C1157 1.491 . S
C1152 H1143 0.950 . S
C1152 C1151 1.398 . S
C1152 C1153 1.391 . S
C1153 H1141 0.950 . S
C1153 C1149 1.393 . S
C1153 C1152 1.391 . S
C1154 H1144 0.950 . S
C1154 C1155 1.386 . S
C1154 C1156 1.391 . S
C1155 C1154 1.386 . S
C1155 C1159 1.393 . S
C1156 H1145 0.950 . S
C1156 C1154 1.391 . S
C1156 C1157 1.400 . S
C1157 C1151 1.491 . S
C1157 C1156 1.400 . S
C1157 C1158 1.398 . S
C1158 H1146 0.950 . S
C1158 C1157 1.398 . S
C1158 C1159 1.391 . S
C1159 H1147 0.950 . S
C1159 C1155 1.393 . S
C1159 C1158 1.391 . S
H1160 C1168 0.950 . S
H1161 C1173 0.950 . S
H1162 C1170 0.950 . S
H1163 C1172 0.950 . S
H1164 C1174 0.950 . S
H1165 C1176 0.950 . S
H1166 C1178 0.950 . S
H1167 C1179 0.950 . S
C1168 H1160 0.950 . S
C1168 C1169 1.386 . S
C1168 C1170 1.391 . S
C1169 C1168 1.386 . S
C1169 C1173 1.393 . S
C1170 H1162 0.950 . S
C1170 C1168 1.391 . S
C1170 C1171 1.400 . S
C1171 C1170 1.400 . S
C1171 C1172 1.398 . S
C1171 C1177 1.491 . S
C1172 H1163 0.950 . S
C1172 C1171 1.398 . S
C1172 C1173 1.391 . S
C1173 H1161 0.950 . S
C1173 C1169 1.393 . S
C1173 C1172 1.391 . S
C1174 H1164 0.950 . S
C1174 C1175 1.386 . S
C1174 C1176 1.391 . S
C1175 C1174 1.386 . S
C1175 C1179 1.393 . S
C1176 H1165 0.950 . S
C1176 C1174 1.391 . S
C1176 C1177 1.400 . S
C1177 C1171 1.491 . S
C1177 C1176 1.400 . S
C1177 C1178 1.398 . S
C1178 H1166 0.950 . S
C1178 C1177 1.398 . S
C1178 C1179 1.391 . S
C1179 H1167 0.950 . S
C1179 C1175 1.393 . S
C1179 C1178 1.391 . S
H1180 C1188 0.950 . S
H1181 C1193 0.950 . S
H1182 C1190 0.950 . S
H1183 C1192 0.950 . S
H1184 C1194 0.950 . S
H1185 C1196 0.950 . S
H1186 C1198 0.950 . S
H1187 C1199 0.950 . S
C1188 H1180 0.950 . S
C1188 C1189 1.386 . S
C1188 C1190 1.391 . S
C1189 C1188 1.386 . S
C1189 C1193 1.393 . S
C1190 H1182 0.950 . S
C1190 C1188 1.391 . S
C1190 C1191 1.400 . S
C1191 C1190 1.400 . S
C1191 C1192 1.398 . S
C1191 C1197 1.491 . S
C1192 H1183 0.950 . S
C1192 C1191 1.398 . S
C1192 C1193 1.391 . S
C1193 H1181 0.950 . S
C1193 C1189 1.393 . S
C1193 C1192 1.391 . S
C1194 H1184 0.950 . S
C1194 C1195 1.386 . S
C1194 C1196 1.391 . S
C1195 C1194 1.386 . S
C1195 C1199 1.393 . S
C1196 H1185 0.950 . S
C1196 C1194 1.391 . S
C1196 C1197 1.400 . S
C1197 C1191 1.491 . S
C1197 C1196 1.400 . S
C1197 C1198 1.398 . S
C1198 H1186 0.950 . S
C1198 C1197 1.398 . S
C1198 C1199 1.391 . S
C1199 H1187 0.950 . S
C1199 C1195 1.393 . S
C1199 C1198 1.391 . S
H1200 C1208 0.950 . S
H1201 C1213 0.950 . S
H1202 C1210 0.950 . S
H1203 C1212 0.950 . S
H1204 C1214 0.950 . S
H1205 C1216 0.950 . S
H1206 C1218 0.950 . S
H1207 C1219 0.950 . S
C1208 H1200 0.950 . S
C1208 C1209 1.386 . S
C1208 C1210 1.391 . S
C1209 C1208 1.386 . S
C1209 C1213 1.393 . S
C1210 H1202 0.950 . S
C1210 C1208 1.391 . S
C1210 C1211 1.400 . S
C1211 C1210 1.400 . S
C1211 C1212 1.398 . S
C1211 C1217 1.491 . S
C1212 H1203 0.950 . S
C1212 C1211 1.398 . S
C1212 C1213 1.391 . S
C1213 H1201 0.950 . S
C1213 C1209 1.393 . S
C1213 C1212 1.391 . S
C1214 H1204 0.950 . S
C1214 C1215 1.386 . S
C1214 C1216 1.391 . S
C1215 C1214 1.386 . S
C1215 C1219 1.393 . S
C1216 H1205 0.950 . S
C1216 C1214 1.391 . S
C1216 C1217 1.400 . S
C1217 C1211 1.491 . S
C1217 C1216 1.400 . S
C1217 C1218 1.398 . S
C1218 H1206 0.950 . S
C1218 C1217 1.398 . S
C1218 C1219 1.391 . S
C1219 H1207 0.950 . S
C1219 C1215 1.393 . S
C1219 C1218 1.391 . S
H1220 C1228 0.950 . S
H1221 C1233 0.950 . S
H1222 C1230 0.950 . S
H1223 C1232 0.950 . S
H1224 C1234 0.950 . S
H1225 C1236 0.950 . S
H1226 C1238 0.950 . S
H1227 C1239 0.950 . S
C1228 H1220 0.950 . S
C1228 C1229 1.386 . S
C1228 C1230 1.391 . S
C1229 C1228 1.386 . S
C1229 C1233 1.393 . S
C1230 H1222 0.950 . S
C1230 C1228 1.391 . S
C1230 C1231 1.400 . S
C1231 C1230 1.400 . S
C1231 C1232 1.398 . S
C1231 C1237 1.491 . S
C1232 H1223 0.950 . S
C1232 C1231 1.398 . S
C1232 C1233 1.391 . S
C1233 H1221 0.950 . S
C1233 C1229 1.393 . S
C1233 C1232 1.391 . S
C1234 H1224 0.950 . S
C1234 C1235 1.386 . S
C1234 C1236 1.391 . S
C1235 C1234 1.386 . S
C1235 C1239 1.393 . S
C1236 H1225 0.950 . S
C1236 C1234 1.391 . S
C1236 C1237 1.400 . S
C1237 C1231 1.491 . S
C1237 C1236 1.400 . S
C1237 C1238 1.398 . S
C1238 H1226 0.950 . S
C1238 C1237 1.398 . S
C1238 C1239 1.391 . S
C1239 H1227 0.950 . S
C1239 C1235 1.393 . S
C1239 C1238 1.391 . S
H1240 C1248 0.950 . S
H1241 C1253 0.950 . S
H1242 C1250 0.950 . S
H1243 C1252 0.950 . S
H1244 C1254 0.950 . S
H1245 C1256 0.950 . S
H1246 C1258 0.950 . S
H1247 C1259 0.950 . S
C1248 H1240 0.950 . S
C1248 C1249 1.386 . S
C1248 C1250 1.391 . S
C1249 C1248 1.386 . S
C1249 C1253 1.393 . S
C1250 H1242 0.950 . S
C1250 C1248 1.391 . S
C1250 C1251 1.400 . S
C1251 C1250 1.400 . S
C1251 C1252 1.398 . S
C1251 C1257 1.491 . S
C1252 H1243 0.950 . S
C1252 C1251 1.398 . S
C1252 C1253 1.391 . S
C1253 H1241 0.950 . S
C1253 C1249 1.393 . S
C1253 C1252 1.391 . S
C1254 H1244 0.950 . S
C1254 C1255 1.386 . S
C1254 C1256 1.391 . S
C1255 C1254 1.386 . S
C1255 C1259 1.393 . S
C1256 H1245 0.950 . S
C1256 C1254 1.391 . S
C1256 C1257 1.400 . S
C1257 C1251 1.491 . S
C1257 C1256 1.400 . S
C1257 C1258 1.398 . S
C1258 H1246 0.950 . S
C1258 C1257 1.398 . S
C1258 C1259 1.391 . S
C1259 H1247 0.950 . S
C1259 C1255 1.393 . S
C1259 C1258 1.391 . S
H1260 C1268 0.950 . S
H1261 C1273 0.950 . S
H1262 C1270 0.950 . S
H1263 C1272 0.950 . S
H1264 C1274 0.950 . S
H1265 C1276 0.950 . S
H1266 C1278 0.950 . S
H1267 C1279 0.950 . S
C1268 H1260 0.950 . S
C1268 C1269 1.386 . S
C1268 C1270 1.391 . S
C1269 C1268 1.386 . S
C1269 C1273 1.393 . S
C1270 H1262 0.950 . S
C1270 C1268 1.391 . S
C1270 C1271 1.400 . S
C1271 C1270 1.400 . S
C1271 C1272 1.398 . S
C1271 C1277 1.491 . S
C1272 H1263 0.950 . S
C1272 C1271 1.398 . S
C1272 C1273 1.391 . S
C1273 H1261 0.950 . S
C1273 C1269 1.393 . S
C1273 C1272 1.391 . S
C1274 H1264 0.950 . S
C1274 C1275 1.386 . S
C1274 C1276 1.391 . S
C1275 C1274 1.386 . S
C1275 C1279 1.393 . S
C1276 H1265 0.950 . S
C1276 C1274 1.391 . S
C1276 C1277 1.400 . S
C1277 C1271 1.491 . S
C1277 C1276 1.400 . S
C1277 C1278 1.398 . S
C1278 H1266 0.950 . S
C1278 C1277 1.398 . S
C1278 C1279 1.391 . S
C1279 H1267 0.950 . S
C1279 C1275 1.393 . S
C1279 C1278 1.391 . S
H1280 C1288 0.950 . S
H1281 C1293 0.950 . S
H1282 C1290 0.950 . S
H1283 C1292 0.950 . S
H1284 C1294 0.950 . S
H1285 C1296 0.950 . S
H1286 C1298 0.950 . S
H1287 C1299 0.950 . S
C1288 H1280 0.950 . S
C1288 C1289 1.386 . S
C1288 C1290 1.391 . S
C1289 C1288 1.386 . S
C1289 C1293 1.393 . S
C1290 H1282 0.950 . S
C1290 C1288 1.391 . S
C1290 C1291 1.400 . S
C1291 C1290 1.400 . S
C1291 C1292 1.398 . S
C1291 C1297 1.491 . S
C1292 H1283 0.950 . S
C1292 C1291 1.398 . S
C1292 C1293 1.391 . S
C1293 H1281 0.950 . S
C1293 C1289 1.393 . S
C1293 C1292 1.391 . S
C1294 H1284 0.950 . S
C1294 C1295 1.386 . S
C1294 C1296 1.391 . S
C1295 C1294 1.386 . S
C1295 C1299 1.393 . S
C1296 H1285 0.950 . S
C1296 C1294 1.391 . S
C1296 C1297 1.400 . S
C1297 C1291 1.491 . S
C1297 C1296 1.400 . S
C1297 C1298 1.398 . S
C1298 H1286 0.950 . S
C1298 C1297 1.398 . S
C1298 C1299 1.391 . S
C1299 H1287 0.950 . S
C1299 C1295 1.393 . S
C1299 C1298 1.391 . S
H1300 C1308 0.950 . S
H1301 C1313 0.950 . S
H1302 C1310 0.950 . S
H1303 C1312 0.950 . S
H1304 C1314 0.950 . S
H1305 C1316 0.950 . S
H1306 C1318 0.938 1_455 S
H1307 C1319 0.950 . S
C1308 H1300 0.950 . S
C1308 C1309 1.386 . S
C1308 C1310 1.391 . S
C1309 C1308 1.386 . S
C1309 C1313 1.393 . S
C1310 H1302 0.950 . S
C1310 C1308 1.391 . S
C1310 C1311 1.400 . S
C1311 C1310 1.400 . S
C1311 C1312 1.398 . S
C1311 C1317 1.491 . S
C1312 H1303 0.950 . S
C1312 C1311 1.398 . S
C1312 C1313 1.391 . S
C1313 H1301 0.950 . S
C1313 C1309 1.393 . S
C1313 C1312 1.391 . S
C1314 H1304 0.950 . S
C1314 C1315 1.386 . S
C1314 C1316 1.391 . S
C1315 C1314 1.386 . S
C1315 C1319 1.393 . S
C1316 H1305 0.950 . S
C1316 C1314 1.391 . S
C1316 C1317 1.400 1_655 S
C1317 C1311 1.491 . S
C1317 C1316 1.400 1_455 S
C1317 C1318 1.392 1_455 S
C1318 H1306 0.938 1_655 S
C1318 C1317 1.392 1_655 S
C1318 C1319 1.409 . S
C1319 H1307 0.950 . S
C1319 C1315 1.393 . S
C1319 C1318 1.409 . S
H1320 C1328 0.950 . S
H1321 C1333 0.950 . S
H1322 C1330 0.950 . S
H1323 C1332 0.950 . S
H1324 C1334 0.950 . S
H1325 C1336 0.950 . S
H1326 C1338 0.950 . S
H1327 C1339 0.950 . S
C1328 H1320 0.950 . S
C1328 C1329 1.386 . S
C1328 C1330 1.391 . S
C1329 C1328 1.386 . S
C1329 C1333 1.393 . S
C1330 H1322 0.950 . S
C1330 C1328 1.391 . S
C1330 C1331 1.400 . S
C1331 C1330 1.400 . S
C1331 C1332 1.398 . S
C1331 C1337 1.491 . S
C1332 H1323 0.950 . S
C1332 C1331 1.398 . S
C1332 C1333 1.391 . S
C1333 H1321 0.950 . S
C1333 C1329 1.393 . S
C1333 C1332 1.391 . S
C1334 H1324 0.950 . S
C1334 C1335 1.386 . S
C1334 C1336 1.391 . S
C1335 C1334 1.386 . S
C1335 C1339 1.393 . S
C1336 H1325 0.950 . S
C1336 C1334 1.391 . S
C1336 C1337 1.400 . S
C1337 C1331 1.491 . S
C1337 C1336 1.400 . S
C1337 C1338 1.398 . S
C1338 H1326 0.950 . S
C1338 C1337 1.398 . S
C1338 C1339 1.391 . S
C1339 H1327 0.950 . S
C1339 C1335 1.393 . S
C1339 C1338 1.391 . S
H1340 C1348 0.950 . S
H1341 C1353 0.950 . S
H1342 C1350 0.950 . S
H1343 C1352 0.950 . S
H1344 C1354 0.950 . S
H1345 C1356 0.950 . S
H1346 C1358 0.950 . S
H1347 C1359 0.950 . S
C1348 H1340 0.950 . S
C1348 C1349 1.386 . S
C1348 C1350 1.391 . S
C1349 C1348 1.386 . S
C1349 C1353 1.393 . S
C1350 H1342 0.950 . S
C1350 C1348 1.391 . S
C1350 C1351 1.400 . S
C1351 C1350 1.400 . S
C1351 C1352 1.398 . S
C1351 C1357 1.491 . S
C1352 H1343 0.950 . S
C1352 C1351 1.398 . S
C1352 C1353 1.391 . S
C1353 H1341 0.950 . S
C1353 C1349 1.393 . S
C1353 C1352 1.391 . S
C1354 H1344 0.950 . S
C1354 C1355 1.386 . S
C1354 C1356 1.391 . S
C1355 C1354 1.386 . S
C1355 C1359 1.393 . S
C1356 H1345 0.950 . S
C1356 C1354 1.391 . S
C1356 C1357 1.400 . S
C1357 C1351 1.491 . S
C1357 C1356 1.400 . S
C1357 C1358 1.398 . S
C1358 H1346 0.950 . S
C1358 C1357 1.398 . S
C1358 C1359 1.391 . S
C1359 H1347 0.950 . S
C1359 C1355 1.393 . S
C1359 C1358 1.391 . S
H1360 C1368 0.950 . S
H1361 C1373 0.950 . S
H1362 C1370 0.950 . S
H1363 C1372 0.950 . S
H1364 C1374 0.950 . S
H1365 C1376 0.950 . S
H1366 C1378 0.950 . S
H1367 C1379 0.950 . S
C1368 H1360 0.950 . S
C1368 C1369 1.386 . S
C1368 C1370 1.391 . S
C1369 C1368 1.386 . S
C1369 C1373 1.393 . S
C1370 H1362 0.950 . S
C1370 C1368 1.391 . S
C1370 C1371 1.400 . S
C1371 C1370 1.400 . S
C1371 C1372 1.398 . S
C1371 C1377 1.491 . S
C1372 H1363 0.950 . S
C1372 C1371 1.398 . S
C1372 C1373 1.391 . S
C1373 H1361 0.950 . S
C1373 C1369 1.393 . S
C1373 C1372 1.391 . S
C1374 H1364 0.950 . S
C1374 C1375 1.386 . S
C1374 C1376 1.391 . S
C1375 C1374 1.386 . S
C1375 C1379 1.393 . S
C1376 H1365 0.950 . S
C1376 C1374 1.391 . S
C1376 C1377 1.400 . S
C1377 C1371 1.491 . S
C1377 C1376 1.400 . S
C1377 C1378 1.398 . S
C1378 H1366 0.950 . S
C1378 C1377 1.398 . S
C1378 C1379 1.391 . S
C1379 H1367 0.950 . S
C1379 C1375 1.393 . S
C1379 C1378 1.391 . S
H1380 C1388 0.950 . S
H1381 C1393 0.950 . S
H1382 C1390 0.950 . S
H1383 C1392 0.950 . S
H1384 C1394 0.950 . S
H1385 C1396 0.950 . S
H1386 C1398 0.950 . S
H1387 C1399 0.950 . S
C1388 H1380 0.950 . S
C1388 C1389 1.386 . S
C1388 C1390 1.391 . S
C1389 C1388 1.386 . S
C1389 C1393 1.393 . S
C1390 H1382 0.950 . S
C1390 C1388 1.391 . S
C1390 C1391 1.400 . S
C1391 C1390 1.400 . S
C1391 C1392 1.398 . S
C1391 C1397 1.491 . S
C1392 H1383 0.950 . S
C1392 C1391 1.398 . S
C1392 C1393 1.391 . S
C1393 H1381 0.950 . S
C1393 C1389 1.393 . S
C1393 C1392 1.391 . S
C1394 H1384 0.950 . S
C1394 C1395 1.386 . S
C1394 C1396 1.391 . S
C1395 C1394 1.386 . S
C1395 C1399 1.393 . S
C1396 H1385 0.950 . S
C1396 C1394 1.391 . S
C1396 C1397 1.400 . S
C1397 C1391 1.491 . S
C1397 C1396 1.400 . S
C1397 C1398 1.398 . S
C1398 H1386 0.950 . S
C1398 C1397 1.398 . S
C1398 C1399 1.391 . S
C1399 H1387 0.950 . S
C1399 C1395 1.393 . S
C1399 C1398 1.391 . S
H1400 C1408 0.950 . S
H1401 C1413 0.950 . S
H1402 C1410 0.950 . S
H1403 C1412 0.950 . S
H1404 C1414 0.950 . S
H1405 C1416 0.950 . S
H1406 C1418 0.950 . S
H1407 C1419 0.950 . S
C1408 H1400 0.950 . S
C1408 C1409 1.386 . S
C1408 C1410 1.391 . S
C1409 C1408 1.386 . S
C1409 C1413 1.393 . S
C1410 H1402 0.950 . S
C1410 C1408 1.391 . S
C1410 C1411 1.400 . S
C1411 C1410 1.400 . S
C1411 C1412 1.398 . S
C1411 C1417 1.491 . S
C1412 H1403 0.950 . S
C1412 C1411 1.398 . S
C1412 C1413 1.391 . S
C1413 H1401 0.950 . S
C1413 C1409 1.393 . S
C1413 C1412 1.391 . S
C1414 H1404 0.950 . S
C1414 C1415 1.386 . S
C1414 C1416 1.391 . S
C1415 C1414 1.386 . S
C1415 C1419 1.393 . S
C1416 H1405 0.950 . S
C1416 C1414 1.391 . S
C1416 C1417 1.400 . S
C1417 C1411 1.491 . S
C1417 C1416 1.400 . S
C1417 C1418 1.398 . S
C1418 H1406 0.950 . S
C1418 C1417 1.398 . S
C1418 C1419 1.391 . S
C1419 H1407 0.950 . S
C1419 C1415 1.393 . S
C1419 C1418 1.391 . S
H1420 C1428 0.950 . S
H1421 C1433 0.950 . S
H1422 C1430 0.950 . S
H1423 C1432 0.950 . S
H1424 C1434 0.950 . S
H1425 C1436 0.976 . S
H1426 C1438 0.950 . S
H1427 C1439 0.950 . S
C1428 H1420 0.950 . S
C1428 C1429 1.386 . S
C1428 C1430 1.391 . S
C1429 C1428 1.386 . S
C1429 C1433 1.393 . S
C1430 H1422 0.950 . S
C1430 C1428 1.391 . S
C1430 C1431 1.400 . S
C1431 C1430 1.400 . S
C1431 C1432 1.398 . S
C1431 C1437 1.491 . S
C1432 H1423 0.950 . S
C1432 C1431 1.398 . S
C1432 C1433 1.391 . S
C1433 H1421 0.950 . S
C1433 C1429 1.393 . S
C1433 C1432 1.391 . S
C1434 H1424 0.950 . S
C1434 C1435 1.386 . S
C1434 C1436 1.357 1_655 S
C1435 C1434 1.386 . S
C1435 C1439 1.393 . S
C1436 H1425 0.976 . S
C1436 C1434 1.357 1_455 S
C1436 C1437 1.410 . S
C1437 C1431 1.491 . S
C1437 C1436 1.410 . S
C1437 C1438 1.398 1_455 S
C1438 H1426 0.950 . S
C1438 C1437 1.398 1_655 S
C1438 C1439 1.391 . S
C1439 H1427 0.950 . S
C1439 C1435 1.393 . S
C1439 C1438 1.391 . S
H1440 C1448 0.950 . S
H1441 C1453 0.950 . S
H1442 C1450 0.950 . S
H1443 C1452 0.950 . S
H1444 C1454 0.950 . S
H1445 C1456 0.950 . S
H1446 C1458 0.950 . S
H1447 C1459 0.950 . S
C1448 H1440 0.950 . S
C1448 C1449 1.386 . S
C1448 C1450 1.391 . S
C1449 C1448 1.386 . S
C1449 C1453 1.393 . S
C1450 H1442 0.950 . S
C1450 C1448 1.391 . S
C1450 C1451 1.400 . S
C1451 C1450 1.400 . S
C1451 C1452 1.398 . S
C1451 C1457 1.491 . S
C1452 H1443 0.950 . S
C1452 C1451 1.398 . S
C1452 C1453 1.391 . S
C1453 H1441 0.950 . S
C1453 C1449 1.393 . S
C1453 C1452 1.391 . S
C1454 H1444 0.950 . S
C1454 C1455 1.386 . S
C1454 C1456 1.391 . S
C1455 C1454 1.386 . S
C1455 C1459 1.393 . S
C1456 H1445 0.950 . S
C1456 C1454 1.391 . S
C1456 C1457 1.400 . S
C1457 C1451 1.491 . S
C1457 C1456 1.400 . S
C1457 C1458 1.398 . S
C1458 H1446 0.950 . S
C1458 C1457 1.398 . S
C1458 C1459 1.391 . S
C1459 H1447 0.950 . S
C1459 C1455 1.393 . S
C1459 C1458 1.391 . S
H1460 C1468 0.950 . S
H1461 C1473 0.950 . S
H1462 C1470 0.950 . S
H1463 C1472 0.950 . S
H1464 C1474 0.950 . S
H1465 C1476 0.950 . S
H1466 C1478 0.950 . S
H1467 C1479 0.950 . S
C1468 H1460 0.950 . S
C1468 C1469 1.386 . S
C1468 C1470 1.391 1_455 S
C1469 C1468 1.386 . S
C1469 C1473 1.393 . S
C1470 H1462 0.950 . S
C1470 C1468 1.391 1_655 S
C1470 C1471 1.400 . S
C1471 C1470 1.400 . S
C1471 C1472 1.398 1_655 S
C1471 C1477 1.491 . S
C1472 H1463 0.950 . S
C1472 C1471 1.398 1_455 S
C1472 C1473 1.391 . S
C1473 H1461 0.950 . S
C1473 C1469 1.393 . S
C1473 C1472 1.391 . S
C1474 H1464 0.950 . S
C1474 C1475 1.386 . S
C1474 C1476 1.391 . S
C1475 C1474 1.386 . S
C1475 C1479 1.393 . S
C1476 H1465 0.950 . S
C1476 C1474 1.391 . S
C1476 C1477 1.400 . S
C1477 C1471 1.491 . S
C1477 C1476 1.400 . S
C1477 C1478 1.398 . S
C1478 H1466 0.950 . S
C1478 C1477 1.398 . S
C1478 C1479 1.391 . S
C1479 H1467 0.950 . S
C1479 C1475 1.393 . S
C1479 C1478 1.391 . S
H1480 C1488 0.950 . S
H1481 C1493 0.950 . S
H1482 C1490 0.950 . S
H1483 C1492 0.950 . S
H1484 C1494 0.950 . S
H1485 C1496 0.950 . S
H1486 C1498 0.950 . S
H1487 C1499 0.950 . S
C1488 H1480 0.950 . S
C1488 C1489 1.386 . S
C1488 C1490 1.391 . S
C1489 C1488 1.386 . S
C1489 C1493 1.393 . S
C1490 H1482 0.950 . S
C1490 C1488 1.391 . S
C1490 C1491 1.400 . S
C1491 C1490 1.400 . S
C1491 C1492 1.398 . S
C1491 C1497 1.491 . S
C1492 H1483 0.950 . S
C1492 C1491 1.398 . S
C1492 C1493 1.391 . S
C1493 H1481 0.950 . S
C1493 C1489 1.393 . S
C1493 C1492 1.391 . S
C1494 H1484 0.950 . S
C1494 C1495 1.386 . S
C1494 C1496 1.391 . S
C1495 C1494 1.386 . S
C1495 C1499 1.393 . S
C1496 H1485 0.950 . S
C1496 C1494 1.391 . S
C1496 C1497 1.400 . S
C1497 C1491 1.491 . S
C1497 C1496 1.400 . S
C1497 C1498 1.398 . S
C1498 H1486 0.950 . S
C1498 C1497 1.398 . S
C1498 C1499 1.391 . S
C1499 H1487 0.950 . S
C1499 C1495 1.393 . S
C1499 C1498 1.391 . S
H1500 C1508 0.950 . S
H1501 C1513 0.950 . S
H1502 C1510 0.950 . S
H1503 C1512 0.950 . S
H1504 C1514 0.950 . S
H1505 C1516 0.950 . S
H1506 C1518 0.950 . S
H1507 C1519 0.950 . S
C1508 H1500 0.950 . S
C1508 C1509 1.386 . S
C1508 C1510 1.391 . S
C1509 C1508 1.386 . S
C1509 C1513 1.393 . S
C1510 H1502 0.950 . S
C1510 C1508 1.391 . S
C1510 C1511 1.400 . S
C1511 C1510 1.400 . S
C1511 C1512 1.398 . S
C1511 C1517 1.491 . S
C1512 H1503 0.950 . S
C1512 C1511 1.398 . S
C1512 C1513 1.391 . S
C1513 H1501 0.950 . S
C1513 C1509 1.393 . S
C1513 C1512 1.391 . S
C1514 H1504 0.950 . S
C1514 C1515 1.386 . S
C1514 C1516 1.391 . S
C1515 C1514 1.386 . S
C1515 C1519 1.393 . S
C1516 H1505 0.950 . S
C1516 C1514 1.391 . S
C1516 C1517 1.400 . S
C1517 C1511 1.491 . S
C1517 C1516 1.400 . S
C1517 C1518 1.398 . S
C1518 H1506 0.950 . S
C1518 C1517 1.398 . S
C1518 C1519 1.391 . S
C1519 H1507 0.950 . S
C1519 C1515 1.393 . S
C1519 C1518 1.391 . S
H1520 C1528 0.950 . S
H1521 C1533 0.950 . S
H1522 C1530 0.950 . S
H1523 C1532 0.950 . S
H1524 C1534 0.950 . S
H1525 C1536 0.950 . S
H1526 C1538 0.950 . S
H1527 C1539 0.950 . S
C1528 H1520 0.950 . S
C1528 C1529 1.386 . S
C1528 C1530 1.391 . S
C1529 C1528 1.386 . S
C1529 C1533 1.393 . S
C1530 H1522 0.950 . S
C1530 C1528 1.391 . S
C1530 C1531 1.400 . S
C1531 C1530 1.400 . S
C1531 C1532 1.398 . S
C1531 C1537 1.491 . S
C1532 H1523 0.950 . S
C1532 C1531 1.398 . S
C1532 C1533 1.391 . S
C1533 H1521 0.950 . S
C1533 C1529 1.393 . S
C1533 C1532 1.391 . S
C1534 H1524 0.950 . S
C1534 C1535 1.386 . S
C1534 C1536 1.391 . S
C1535 C1534 1.386 . S
C1535 C1539 1.393 . S
C1536 H1525 0.950 . S
C1536 C1534 1.391 . S
C1536 C1537 1.400 . S
C1537 C1531 1.491 . S
C1537 C1536 1.400 . S
C1537 C1538 1.398 . S
C1538 H1526 0.950 . S
C1538 C1537 1.398 . S
C1538 C1539 1.391 . S
C1539 H1527 0.950 . S
C1539 C1535 1.393 . S
C1539 C1538 1.391 . S
H1540 C1548 0.950 . S
H1541 C1553 0.950 . S
H1542 C1550 0.950 . S
H1543 C1552 0.950 . S
H1544 C1554 0.950 . S
H1545 C1556 0.950 . S
H1546 C1558 0.950 . S
H1547 C1559 0.950 . S
C1548 H1540 0.950 . S
C1548 C1549 1.386 . S
C1548 C1550 1.391 . S
C1549 C1548 1.386 . S
C1549 C1553 1.393 . S
C1550 H1542 0.950 . S
C1550 C1548 1.391 . S
C1550 C1551 1.400 . S
C1551 C1550 1.400 . S
C1551 C1552 1.398 . S
C1551 C1557 1.491 . S
C1552 H1543 0.950 . S
C1552 C1551 1.398 . S
C1552 C1553 1.391 . S
C1553 H1541 0.950 . S
C1553 C1549 1.393 . S
C1553 C1552 1.391 . S
C1554 H1544 0.950 . S
C1554 C1555 1.386 . S
C1554 C1556 1.391 . S
C1555 C1554 1.386 . S
C1555 C1559 1.393 . S
C1556 H1545 0.950 . S
C1556 C1554 1.391 . S
C1556 C1557 1.400 . S
C1557 C1551 1.491 . S
C1557 C1556 1.400 . S
C1557 C1558 1.398 . S
C1558 H1546 0.950 . S
C1558 C1557 1.398 . S
C1558 C1559 1.391 . S
C1559 H1547 0.950 . S
C1559 C1555 1.393 . S
C1559 C1558 1.391 . S
H1560 C1568 0.950 . S
H1561 C1573 0.950 . S
H1562 C1570 0.950 . S
H1563 C1572 0.950 . S
H1564 C1574 0.950 . S
H1565 C1576 0.950 . S
H1566 C1578 0.950 . S
H1567 C1579 0.950 . S
C1568 H1560 0.950 . S
C1568 C1569 1.386 . S
C1568 C1570 1.391 . S
C1569 C1568 1.386 . S
C1569 C1573 1.393 . S
C1570 H1562 0.950 . S
C1570 C1568 1.391 . S
C1570 C1571 1.400 . S
C1571 C1570 1.400 . S
C1571 C1572 1.398 . S
C1571 C1577 1.491 . S
C1572 H1563 0.950 . S
C1572 C1571 1.398 . S
C1572 C1573 1.391 . S
C1573 H1561 0.950 . S
C1573 C1569 1.393 . S
C1573 C1572 1.391 . S
C1574 H1564 0.950 . S
C1574 C1575 1.386 . S
C1574 C1576 1.391 . S
C1575 C1574 1.386 . S
C1575 C1579 1.393 . S
C1576 H1565 0.950 . S
C1576 C1574 1.391 . S
C1576 C1577 1.400 . S
C1577 C1571 1.491 . S
C1577 C1576 1.400 . S
C1577 C1578 1.398 . S
C1578 H1566 0.950 . S
C1578 C1577 1.398 . S
C1578 C1579 1.391 . S
C1579 H1567 0.950 . S
C1579 C1575 1.393 . S
C1579 C1578 1.391 . S
H1580 C1588 0.950 . S
H1581 C1593 0.950 . S
H1582 C1590 0.950 . S
H1583 C1592 0.950 . S
H1584 C1594 0.950 . S
H1585 C1596 0.950 . S
H1586 C1598 0.950 . S
H1587 C1599 0.950 . S
C1588 H1580 0.950 . S
C1588 C1589 1.386 . S
C1588 C1590 1.391 . S
C1589 C1588 1.386 . S
C1589 C1593 1.393 . S
C1590 H1582 0.950 . S
C1590 C1588 1.391 . S
C1590 C1591 1.400 . S
C1591 C1590 1.400 . S
C1591 C1592 1.398 . S
C1591 C1597 1.491 . S
C1592 H1583 0.950 . S
C1592 C1591 1.398 . S
C1592 C1593 1.391 . S
C1593 H1581 0.950 . S
C1593 C1589 1.393 . S
C1593 C1592 1.391 . S
C1594 H1584 0.950 . S
C1594 C1595 1.386 . S
C1594 C1596 1.391 . S
C1595 C1594 1.386 . S
C1595 C1599 1.393 . S
C1596 H1585 0.950 . S
C1596 C1594 1.391 . S
C1596 C1597 1.400 1_455 S
C1597 C1591 1.491 . S
C1597 C1596 1.400 1_655 S
C1597 C1598 1.398 . S
C1598 H1586 0.950 . S
C1598 C1597 1.398 . S
C1598 C1599 1.391 1_655 S
C1599 H1587 0.950 . S
C1599 C1595 1.393 . S
C1599 C1598 1.391 1_455 S
H1600 C1608 0.950 . S
H1601 C1613 0.950 . S
H1602 C1610 0.950 . S
H1603 C1612 0.950 . S
H1604 C1614 0.950 . S
H1605 C1616 0.950 . S
H1606 C1618 0.950 . S
H1607 C1619 0.950 . S
C1608 H1600 0.950 . S
C1608 C1609 1.386 . S
C1608 C1610 1.391 . S
C1609 C1608 1.386 . S
C1609 C1613 1.393 . S
C1610 H1602 0.950 . S
C1610 C1608 1.391 . S
C1610 C1611 1.400 . S
C1611 C1610 1.400 . S
C1611 C1612 1.398 . S
C1611 C1617 1.491 . S
C1612 H1603 0.950 . S
C1612 C1611 1.398 . S
C1612 C1613 1.391 . S
C1613 H1601 0.950 . S
C1613 C1609 1.393 . S
C1613 C1612 1.391 . S
C1614 H1604 0.950 . S
C1614 C1615 1.386 . S
C1614 C1616 1.391 . S
C1615 C1614 1.386 . S
C1615 C1619 1.393 . S
C1616 H1605 0.950 . S
C1616 C1614 1.391 . S
C1616 C1617 1.400 . S
C1617 C1611 1.491 . S
C1617 C1616 1.400 . S
C1617 C1618 1.398 . S
C1618 H1606 0.950 . S
C1618 C1617 1.398 . S
C1618 C1619 1.391 . S
C1619 H1607 0.950 . S
C1619 C1615 1.393 . S
C1619 C1618 1.391 . S
H1620 C1628 0.950 . S
H1621 C1633 0.950 . S
H1622 C1630 0.950 . S
H1623 C1632 0.950 . S
H1624 C1634 0.950 . S
H1625 C1636 0.950 . S
H1626 C1638 0.950 . S
H1627 C1639 0.950 . S
C1628 H1620 0.950 . S
C1628 C1629 1.386 . S
C1628 C1630 1.391 . S
C1629 C1628 1.386 . S
C1629 C1633 1.393 . S
C1630 H1622 0.950 . S
C1630 C1628 1.391 . S
C1630 C1631 1.400 . S
C1631 C1630 1.400 . S
C1631 C1632 1.398 . S
C1631 C1637 1.491 . S
C1632 H1623 0.950 . S
C1632 C1631 1.398 . S
C1632 C1633 1.391 . S
C1633 H1621 0.950 . S
C1633 C1629 1.393 . S
C1633 C1632 1.391 . S
C1634 H1624 0.950 . S
C1634 C1635 1.386 . S
C1634 C1636 1.391 . S
C1635 C1634 1.386 . S
C1635 C1639 1.393 . S
C1636 H1625 0.950 . S
C1636 C1634 1.391 . S
C1636 C1637 1.400 . S
C1637 C1631 1.491 . S
C1637 C1636 1.400 . S
C1637 C1638 1.398 . S
C1638 H1626 0.950 . S
C1638 C1637 1.398 . S
C1638 C1639 1.391 . S
C1639 H1627 0.950 . S
C1639 C1635 1.393 . S
C1639 C1638 1.391 . S
H1640 C1648 0.950 . S
H1641 C1653 0.950 . S
H1642 C1650 0.950 . S
H1643 C1652 0.950 . S
H1644 C1654 0.950 . S
H1645 C1656 0.950 . S
H1646 C1658 0.950 . S
H1647 C1659 0.950 . S
C1648 H1640 0.950 . S
C1648 C1649 1.386 . S
C1648 C1650 1.391 . S
C1649 C1648 1.386 . S
C1649 C1653 1.393 . S
C1650 H1642 0.950 . S
C1650 C1648 1.391 . S
C1650 C1651 1.400 . S
C1651 C1650 1.400 . S
C1651 C1652 1.398 . S
C1651 C1657 1.491 . S
C1652 H1643 0.950 . S
C1652 C1651 1.398 . S
C1652 C1653 1.391 . S
C1653 H1641 0.950 . S
C1653 C1649 1.393 . S
C1653 C1652 1.391 . S
C1654 H1644 0.950 . S
C1654 C1655 1.386 . S
C1654 C1656 1.391 . S
C1655 C1654 1.386 . S
C1655 C1659 1.393 . S
C1656 H1645 0.950 . S
C1656 C1654 1.391 . S
C1656 C1657 1.400 . S
C1657 C1651 1.491 . S
C1657 C1656 1.400 . S
C1657 C1658 1.398 . S
C1658 H1646 0.950 . S
C1658 C1657 1.398 . S
C1658 C1659 1.391 . S
C1659 H1647 0.950 . S
C1659 C1655 1.393 . S
C1659 C1658 1.391 . S
H1660 C1668 0.950 . S
H1661 C1673 0.950 . S
H1662 C1670 0.950 . S
H1663 C1672 0.950 . S
H1664 C1674 0.950 . S
H1665 C1676 0.950 . S
H1666 C1678 0.950 . S
H1667 C1679 0.950 . S
C1668 H1660 0.950 . S
C1668 C1669 1.386 . S
C1668 C1670 1.391 . S
C1669 C1668 1.386 . S
C1669 C1673 1.393 . S
C1670 H1662 0.950 . S
C1670 C1668 1.391 . S
C1670 C1671 1.400 . S
C1671 C1670 1.400 . S
C1671 C1672 1.398 . S
C1671 C1677 1.491 . S
C1672 H1663 0.950 . S
C1672 C1671 1.398 . S
C1672 C1673 1.391 . S
C1673 H1661 0.950 . S
C1673 C1669 1.393 . S
C1673 C1672 1.391 . S
C1674 H1664 0.950 . S
C1674 C1675 1.386 . S
C1674 C1676 1.391 . S
C1675 C1674 1.386 . S
C1675 C1679 1.393 . S
C1676 H1665 0.950 . S
C1676 C1674 1.391 . S
C1676 C1677 1.400 1_455 S
C1677 C1671 1.491 . S
C1677 C1676 1.400 1_655 S
C1677 C1678 1.398 . S
C1678 H1666 0.950 . S
C1678 C1677 1.398 . S
C1678 C1679 1.391 1_655 S
C1679 H1667 0.950 . S
C1679 C1675 1.393 . S
C1679 C1678 1.391 1_455 S
H1680 C1688 0.950 . S
H1681 C1693 0.950 . S
H1682 C1690 0.950 . S
H1683 C1692 0.950 . S
H1684 C1694 0.950 . S
H1685 C1696 0.950 . S
H1686 C1698 0.950 . S
H1687 C1699 0.950 . S
C1688 H1680 0.950 . S
C1688 C1689 1.386 . S
C1688 C1690 1.391 . S
C1689 C1688 1.386 . S
C1689 C1693 1.393 . S
C1690 H1682 0.950 . S
C1690 C1688 1.391 . S
C1690 C1691 1.400 . S
C1691 C1690 1.400 . S
C1691 C1692 1.398 . S
C1691 C1697 1.491 . S
C1692 H1683 0.950 . S
C1692 C1691 1.398 . S
C1692 C1693 1.391 . S
C1693 H1681 0.950 . S
C1693 C1689 1.393 . S
C1693 C1692 1.391 . S
C1694 H1684 0.950 . S
C1694 C1695 1.386 . S
C1694 C1696 1.391 . S
C1695 C1694 1.386 . S
C1695 C1699 1.393 . S
C1696 H1685 0.950 . S
C1696 C1694 1.391 . S
C1696 C1697 1.400 . S
C1697 C1691 1.491 . S
C1697 C1696 1.400 . S
C1697 C1698 1.398 . S
C1698 H1686 0.950 . S
C1698 C1697 1.398 . S
C1698 C1699 1.391 . S
C1699 H1687 0.950 . S
C1699 C1695 1.393 . S
C1699 C1698 1.391 . S
H1700 C1708 0.950 . S
H1701 C1713 0.950 . S
H1702 C1710 0.950 . S
H1703 C1712 0.950 . S
H1704 C1714 0.950 . S
H1705 C1716 0.950 . S
H1706 C1718 0.980 . S
H1707 C1719 0.950 . S
C1708 H1700 0.950 . S
C1708 C1709 1.386 . S
C1708 C1710 1.391 . S
C1709 C1708 1.386 . S
C1709 C1713 1.393 . S
C1710 H1702 0.950 . S
C1710 C1708 1.391 . S
C1710 C1711 1.400 . S
C1711 C1710 1.400 . S
C1711 C1712 1.398 . S
C1711 C1717 1.491 . S
C1712 H1703 0.950 . S
C1712 C1711 1.398 . S
C1712 C1713 1.391 . S
C1713 H1701 0.950 . S
C1713 C1709 1.393 . S
C1713 C1712 1.391 . S
C1714 H1704 0.950 . S
C1714 C1715 1.386 . S
C1714 C1716 1.391 . S
C1715 C1714 1.386 . S
C1715 C1719 1.393 . S
C1716 H1705 0.950 . S
C1716 C1714 1.391 . S
C1716 C1717 1.400 1_455 S
C1717 C1711 1.491 . S
C1717 C1716 1.400 1_655 S
C1717 C1718 1.410 . S
C1718 H1706 0.980 . S
C1718 C1717 1.410 . S
C1718 C1719 1.351 1_655 S
C1719 H1707 0.950 . S
C1719 C1715 1.393 . S
C1719 C1718 1.351 1_455 S
H1720 C1728 0.950 . S
H1721 C1733 0.950 . S
H1722 C1730 0.950 . S
H1723 C1732 0.950 . S
H1724 C1734 0.950 . S
H1725 C1736 0.950 . S
H1726 C1738 0.950 . S
H1727 C1739 0.950 . S
C1728 H1720 0.950 . S
C1728 C1729 1.386 . S
C1728 C1730 1.391 . S
C1729 C1728 1.386 . S
C1729 C1733 1.393 . S
C1730 H1722 0.950 . S
C1730 C1728 1.391 . S
C1730 C1731 1.400 . S
C1731 C1730 1.400 . S
C1731 C1732 1.398 . S
C1731 C1737 1.491 . S
C1732 H1723 0.950 . S
C1732 C1731 1.398 . S
C1732 C1733 1.391 . S
C1733 H1721 0.950 . S
C1733 C1729 1.393 . S
C1733 C1732 1.391 . S
C1734 H1724 0.950 . S
C1734 C1735 1.386 . S
C1734 C1736 1.391 . S
C1735 C1734 1.386 . S
C1735 C1739 1.393 . S
C1736 H1725 0.950 . S
C1736 C1734 1.391 . S
C1736 C1737 1.400 . S
C1737 C1731 1.491 . S
C1737 C1736 1.400 . S
C1737 C1738 1.398 . S
C1738 H1726 0.950 . S
C1738 C1737 1.398 . S
C1738 C1739 1.391 . S
C1739 H1727 0.950 . S
C1739 C1735 1.393 . S
C1739 C1738 1.391 . S
H1740 C1748 0.950 . S
H1741 C1753 0.950 . S
H1742 C1750 0.950 . S
H1743 C1752 0.950 . S
H1744 C1754 0.950 . S
H1745 C1756 0.950 . S
H1746 C1758 0.950 . S
H1747 C1759 0.950 . S
C1748 H1740 0.950 . S
C1748 C1749 1.386 . S
C1748 C1750 1.391 . S
C1749 C1748 1.386 . S
C1749 C1753 1.393 . S
C1750 H1742 0.950 . S
C1750 C1748 1.391 . S
C1750 C1751 1.400 . S
C1751 C1750 1.400 . S
C1751 C1752 1.398 . S
C1751 C1757 1.491 . S
C1752 H1743 0.950 . S
C1752 C1751 1.398 . S
C1752 C1753 1.391 . S
C1753 H1741 0.950 . S
C1753 C1749 1.393 . S
C1753 C1752 1.391 . S
C1754 H1744 0.950 . S
C1754 C1755 1.386 . S
C1754 C1756 1.391 . S
C1755 C1754 1.386 . S
C1755 C1759 1.393 . S
C1756 H1745 0.950 . S
C1756 C1754 1.391 . S
C1756 C1757 1.400 . S
C1757 C1751 1.491 . S
C1757 C1756 1.400 . S
C1757 C1758 1.398 . S
C1758 H1746 0.950 . S
C1758 C1757 1.398 . S
C1758 C1759 1.391 . S
C1759 H1747 0.950 . S
C1759 C1755 1.393 . S
C1759 C1758 1.391 . S
H1760 C1768 0.950 . S
H1761 C1773 0.950 . S
H1762 C1770 0.950 . S
H1763 C1772 0.950 . S
H1764 C1774 0.950 . S
H1765 C1776 0.950 . S
H1766 C1778 0.950 . S
H1767 C1779 0.950 . S
C1768 H1760 0.950 . S
C1768 C1769 1.386 . S
C1768 C1770 1.391 . S
C1769 C1768 1.386 . S
C1769 C1773 1.393 . S
C1770 H1762 0.950 . S
C1770 C1768 1.391 . S
C1770 C1771 1.400 . S
C1771 C1770 1.400 . S
C1771 C1772 1.398 . S
C1771 C1777 1.491 . S
C1772 H1763 0.950 . S
C1772 C1771 1.398 . S
C1772 C1773 1.391 . S
C1773 H1761 0.950 . S
C1773 C1769 1.393 . S
C1773 C1772 1.391 . S
C1774 H1764 0.950 . S
C1774 C1775 1.386 . S
C1774 C1776 1.391 . S
C1775 C1774 1.386 . S
C1775 C1779 1.393 . S
C1776 H1765 0.950 . S
C1776 C1774 1.391 . S
C1776 C1777 1.400 . S
C1777 C1771 1.491 . S
C1777 C1776 1.400 . S
C1777 C1778 1.398 . S
C1778 H1766 0.950 . S
C1778 C1777 1.398 . S
C1778 C1779 1.391 . S
C1779 H1767 0.950 . S
C1779 C1775 1.393 . S
C1779 C1778 1.391 . S
H1780 C1788 0.950 . S
H1781 C1793 0.950 . S
H1782 C1790 0.950 . S
H1783 C1792 0.950 . S
H1784 C1794 0.950 . S
H1785 C1796 0.950 . S
H1786 C1798 0.950 . S
H1787 C1799 0.950 . S
C1788 H1780 0.950 . S
C1788 C1789 1.386 . S
C1788 C1790 1.391 . S
C1789 C1788 1.386 . S
C1789 C1793 1.393 . S
C1790 H1782 0.950 . S
C1790 C1788 1.391 . S
C1790 C1791 1.400 . S
C1791 C1790 1.400 . S
C1791 C1792 1.398 . S
C1791 C1797 1.491 . S
C1792 H1783 0.950 . S
C1792 C1791 1.398 . S
C1792 C1793 1.391 . S
C1793 H1781 0.950 . S
C1793 C1789 1.393 . S
C1793 C1792 1.391 . S
C1794 H1784 0.950 . S
C1794 C1795 1.386 . S
C1794 C1796 1.391 . S
C1795 C1794 1.386 . S
C1795 C1799 1.393 . S
C1796 H1785 0.950 . S
C1796 C1794 1.391 . S
C1796 C1797 1.400 . S
C1797 C1791 1.491 . S
C1797 C1796 1.400 . S
C1797 C1798 1.398 . S
C1798 H1786 0.950 . S
C1798 C1797 1.398 . S
C1798 C1799 1.391 . S
C1799 H1787 0.950 . S
C1799 C1795 1.393 . S
C1799 C1798 1.391 . S
H1800 C1808 0.950 . S
H1801 C1813 0.950 . S
H1802 C1810 0.950 . S
H1803 C1812 0.950 . S
H1804 C1814 0.950 . S
H1805 C1816 0.950 . S
H1806 C1818 0.950 . S
H1807 C1819 0.950 . S
C1808 H1800 0.950 . S
C1808 C1809 1.386 . S
C1808 C1810 1.391 . S
C1809 C1808 1.386 . S
C1809 C1813 1.393 . S
C1810 H1802 0.950 . S
C1810 C1808 1.391 . S
C1810 C1811 1.400 . S
C1811 C1810 1.400 . S
C1811 C1812 1.398 . S
C1811 C1817 1.491 . S
C1812 H1803 0.950 . S
C1812 C1811 1.398 . S
C1812 C1813 1.391 . S
C1813 H1801 0.950 . S
C1813 C1809 1.393 . S
C1813 C1812 1.391 . S
C1814 H1804 0.950 . S
C1814 C1815 1.386 . S
C1814 C1816 1.391 . S
C1815 C1814 1.386 . S
C1815 C1819 1.393 . S
C1816 H1805 0.950 . S
C1816 C1814 1.391 . S
C1816 C1817 1.400 . S
C1817 C1811 1.491 . S
C1817 C1816 1.400 . S
C1817 C1818 1.398 . S
C1818 H1806 0.950 . S
C1818 C1817 1.398 . S
C1818 C1819 1.391 . S
C1819 H1807 0.950 . S
C1819 C1815 1.393 . S
C1819 C1818 1.391 . S
H1820 C1828 0.950 . S
H1821 C1833 0.950 . S
H1822 C1830 0.950 . S
H1823 C1832 0.950 . S
H1824 C1834 0.950 . S
H1825 C1836 0.950 . S
H1826 C1838 0.950 . S
H1827 C1839 0.950 . S
C1828 H1820 0.950 . S
C1828 C1829 1.386 . S
C1828 C1830 1.391 . S
C1829 C1828 1.386 . S
C1829 C1833 1.393 . S
C1830 H1822 0.950 . S
C1830 C1828 1.391 . S
C1830 C1831 1.400 1_655 S
C1831 C1830 1.400 1_455 S
C1831 C1832 1.398 . S
C1831 C1837 1.491 . S
C1832 H1823 0.950 . S
C1832 C1831 1.398 . S
C1832 C1833 1.391 1_455 S
C1833 H1821 0.950 . S
C1833 C1829 1.393 . S
C1833 C1832 1.391 1_655 S
C1834 H1824 0.950 . S
C1834 C1835 1.386 . S
C1834 C1836 1.391 . S
C1835 C1834 1.386 . S
C1835 C1839 1.393 . S
C1836 H1825 0.950 . S
C1836 C1834 1.391 . S
C1836 C1837 1.400 . S
C1837 C1831 1.491 . S
C1837 C1836 1.400 . S
C1837 C1838 1.398 . S
C1838 H1826 0.950 . S
C1838 C1837 1.398 . S
C1838 C1839 1.391 . S
C1839 H1827 0.950 . S
C1839 C1835 1.393 . S
C1839 C1838 1.391 . S
H1840 C1848 0.950 . S
H1841 C1853 0.950 . S
H1842 C1850 0.950 . S
H1843 C1852 0.950 . S
H1844 C1854 0.950 . S
H1845 C1856 0.950 . S
H1846 C1858 0.950 . S
H1847 C1859 0.950 . S
C1848 H1840 0.950 . S
C1848 C1849 1.386 . S
C1848 C1850 1.391 . S
C1849 C1848 1.386 . S
C1849 C1853 1.393 . S
C1850 H1842 0.950 . S
C1850 C1848 1.391 . S
C1850 C1851 1.400 . S
C1851 C1850 1.400 . S
C1851 C1852 1.398 . S
C1851 C1857 1.491 . S
C1852 H1843 0.950 . S
C1852 C1851 1.398 . S
C1852 C1853 1.391 . S
C1853 H1841 0.950 . S
C1853 C1849 1.393 . S
C1853 C1852 1.391 . S
C1854 H1844 0.950 . S
C1854 C1855 1.386 . S
C1854 C1856 1.391 . S
C1855 C1854 1.386 . S
C1855 C1859 1.393 . S
C1856 H1845 0.950 . S
C1856 C1854 1.391 . S
C1856 C1857 1.400 . S
C1857 C1851 1.491 . S
C1857 C1856 1.400 . S
C1857 C1858 1.398 . S
C1858 H1846 0.950 . S
C1858 C1857 1.398 . S
C1858 C1859 1.391 . S
C1859 H1847 0.950 . S
C1859 C1855 1.393 . S
C1859 C1858 1.391 . S
H1860 C1868 0.950 . S
H1861 C1873 0.950 . S
H1862 C1870 0.950 . S
H1863 C1872 0.950 . S
H1864 C1874 0.950 . S
H1865 C1876 0.950 . S
H1866 C1878 0.950 . S
H1867 C1879 0.950 . S
C1868 H1860 0.950 . S
C1868 C1869 1.386 . S
C1868 C1870 1.391 . S
C1869 C1868 1.386 . S
C1869 C1873 1.393 . S
C1870 H1862 0.950 . S
C1870 C1868 1.391 . S
C1870 C1871 1.400 . S
C1871 C1870 1.400 . S
C1871 C1872 1.398 . S
C1871 C1877 1.491 . S
C1872 H1863 0.950 . S
C1872 C1871 1.398 . S
C1872 C1873 1.391 . S
C1873 H1861 0.950 . S
C1873 C1869 1.393 . S
C1873 C1872 1.391 . S
C1874 H1864 0.950 . S
C1874 C1875 1.386 . S
C1874 C1876 1.391 . S
C1875 C1874 1.386 . S
C1875 C1879 1.393 . S
C1876 H1865 0.950 . S
C1876 C1874 1.391 . S
C1876 C1877 1.400 1_655 S
C1877 C1871 1.491 . S
C1877 C1876 1.400 1_455 S
C1877 C1878 1.398 . S
C1878 H1866 0.950 . S
C1878 C1877 1.398 . S
C1878 C1879 1.391 1_455 S
C1879 H1867 0.950 . S
C1879 C1875 1.393 . S
C1879 C1878 1.391 1_655 S
H1880 C1888 0.950 . S
H1881 C1893 0.950 . S
H1882 C1890 0.950 . S
H1883 C1892 0.950 . S
H1884 C1894 0.950 . S
H1885 C1896 0.950 . S
H1886 C1898 0.950 . S
H1887 C1899 0.950 . S
C1888 H1880 0.950 . S
C1888 C1889 1.386 . S
C1888 C1890 1.391 . S
C1889 C1888 1.386 . S
C1889 C1893 1.393 . S
C1890 H1882 0.950 . S
C1890 C1888 1.391 . S
C1890 C1891 1.400 . S
C1891 C1890 1.400 . S
C1891 C1892 1.398 . S
C1891 C1897 1.491 . S
C1892 H1883 0.950 . S
C1892 C1891 1.398 . S
C1892 C1893 1.391 . S
C1893 H1881 0.950 . S
C1893 C1889 1.393 . S
C1893 C1892 1.391 . S
C1894 H1884 0.950 . S
C1894 C1895 1.386 . S
C1894 C1896 1.391 . S
C1895 C1894 1.386 . S
C1895 C1899 1.393 . S
C1896 H1885 0.950 . S
C1896 C1894 1.391 . S
C1896 C1897 1.400 . S
C1897 C1891 1.491 . S
C1897 C1896 1.400 . S
C1897 C1898 1.398 . S
C1898 H1886 0.950 . S
C1898 C1897 1.398 . S
C1898 C1899 1.391 . S
C1899 H1887 0.950 . S
C1899 C1895 1.393 . S
C1899 C1898 1.391 . S
H1900 C1908 0.950 . S
H1901 C1913 0.950 . S
H1902 C1910 0.950 . S
H1903 C1912 0.950 . S
H1904 C1914 0.950 . S
H1905 C1916 0.950 . S
H1906 C1918 0.950 . S
H1907 C1919 0.950 . S
C1908 H1900 0.950 . S
C1908 C1909 1.386 . S
C1908 C1910 1.391 . S
C1909 C1908 1.386 . S
C1909 C1913 1.393 . S
C1910 H1902 0.950 . S
C1910 C1908 1.391 . S
C1910 C1911 1.400 . S
C1911 C1910 1.400 . S
C1911 C1912 1.398 . S
C1911 C1917 1.491 . S
C1912 H1903 0.950 . S
C1912 C1911 1.398 . S
C1912 C1913 1.391 . S
C1913 H1901 0.950 . S
C1913 C1909 1.393 . S
C1913 C1912 1.391 . S
C1914 H1904 0.950 . S
C1914 C1915 1.386 . S
C1914 C1916 1.391 . S
C1915 C1914 1.386 . S
C1915 C1919 1.393 . S
C1916 H1905 0.950 . S
C1916 C1914 1.391 . S
C1916 C1917 1.400 . S
C1917 C1911 1.491 . S
C1917 C1916 1.400 . S
C1917 C1918 1.398 . S
C1918 H1906 0.950 . S
C1918 C1917 1.398 . S
C1918 C1919 1.391 . S
C1919 H1907 0.950 . S
C1919 C1915 1.393 . S
C1919 C1918 1.391 . S
H1920 C1928 0.950 . S
H1921 C1933 0.950 . S
H1922 C1930 0.950 . S
H1923 C1932 0.950 . S
H1924 C1934 0.950 . S
H1925 C1936 0.950 . S
H1926 C1938 0.950 . S
H1927 C1939 0.950 . S
C1928 H1920 0.950 . S
C1928 C1929 1.386 . S
C1928 C1930 1.391 . S
C1929 C1928 1.386 . S
C1929 C1933 1.393 . S
C1930 H1922 0.950 . S
C1930 C1928 1.391 . S
C1930 C1931 1.400 . S
C1931 C1930 1.400 . S
C1931 C1932 1.398 . S
C1931 C1937 1.491 1_545 S
C1932 H1923 0.950 . S
C1932 C1931 1.398 . S
C1932 C1933 1.391 . S
C1933 H1921 0.950 . S
C1933 C1929 1.393 . S
C1933 C1932 1.391 . S
C1934 H1924 0.950 . S
C1934 C1935 1.386 . S
C1934 C1936 1.391 . S
C1935 C1934 1.386 . S
C1935 C1939 1.393 . S
C1936 H1925 0.950 . S
C1936 C1934 1.391 . S
C1936 C1937 1.400 . S
C1937 C1931 1.491 1_565 S
C1937 C1936 1.400 . S
C1937 C1938 1.398 . S
C1938 H1926 0.950 . S
C1938 C1937 1.398 . S
C1938 C1939 1.391 . S
C1939 H1927 0.950 . S
C1939 C1935 1.393 . S
C1939 C1938 1.391 . S
H1940 C1948 0.950 . S
H1941 C1953 0.950 . S
H1942 C1950 0.950 . S
H1943 C1952 0.950 . S
H1944 C1954 0.950 . S
H1945 C1956 0.950 . S
H1946 C1958 0.950 . S
H1947 C1959 0.950 . S
C1948 H1940 0.950 . S
C1948 C1949 1.386 . S
C1948 C1950 1.391 . S
C1949 C1948 1.386 . S
C1949 C1953 1.393 . S
C1950 H1942 0.950 . S
C1950 C1948 1.391 . S
C1950 C1951 1.400 . S
C1951 C1950 1.400 . S
C1951 C1952 1.398 . S
C1951 C1957 1.491 . S
C1952 H1943 0.950 . S
C1952 C1951 1.398 . S
C1952 C1953 1.391 . S
C1953 H1941 0.950 . S
C1953 C1949 1.393 . S
C1953 C1952 1.391 . S
C1954 H1944 0.950 . S
C1954 C1955 1.386 . S
C1954 C1956 1.391 . S
C1955 C1954 1.386 . S
C1955 C1959 1.393 . S
C1956 H1945 0.950 . S
C1956 C1954 1.391 . S
C1956 C1957 1.400 . S
C1957 C1951 1.491 . S
C1957 C1956 1.400 . S
C1957 C1958 1.398 . S
C1958 H1946 0.950 . S
C1958 C1957 1.398 . S
C1958 C1959 1.391 . S
C1959 H1947 0.950 . S
C1959 C1955 1.393 . S
C1959 C1958 1.391 . S
H1960 C1968 0.950 . S
H1961 C1973 0.950 . S
H1962 C1970 0.950 . S
H1963 C1972 0.950 . S
H1964 C1974 0.950 . S
H1965 C1976 0.950 . S
H1966 C1978 0.950 . S
H1967 C1979 0.950 . S
C1968 H1960 0.950 . S
C1968 C1969 1.386 . S
C1968 C1970 1.391 . S
C1969 C1968 1.386 . S
C1969 C1973 1.393 . S
C1970 H1962 0.950 . S
C1970 C1968 1.391 . S
C1970 C1971 1.400 . S
C1971 C1970 1.400 . S
C1971 C1972 1.398 . S
C1971 C1977 1.491 1_565 S
C1972 H1963 0.950 . S
C1972 C1971 1.398 . S
C1972 C1973 1.391 . S
C1973 H1961 0.950 . S
C1973 C1969 1.393 . S
C1973 C1972 1.391 . S
C1974 H1964 0.950 . S
C1974 C1975 1.386 . S
C1974 C1976 1.391 . S
C1975 C1974 1.386 . S
C1975 C1979 1.393 . S
C1976 H1965 0.950 . S
C1976 C1974 1.391 . S
C1976 C1977 1.400 . S
C1977 C1971 1.491 1_545 S
C1977 C1976 1.400 . S
C1977 C1978 1.398 . S
C1978 H1966 0.950 . S
C1978 C1977 1.398 . S
C1978 C1979 1.391 . S
C1979 H1967 0.950 . S
C1979 C1975 1.393 . S
C1979 C1978 1.391 . S
H1980 C1988 0.950 . S
H1981 C1993 0.950 . S
H1982 C1990 0.950 . S
H1983 C1992 0.950 . S
H1984 C1994 0.950 . S
H1985 C1996 0.950 . S
H1986 C1998 0.950 . S
H1987 C1999 0.950 . S
C1988 H1980 0.950 . S
C1988 C1989 1.386 1_554 S
C1988 C1990 1.391 . S
C1989 C1988 1.386 1_556 S
C1989 C1993 1.393 . S
C1990 H1982 0.950 . S
C1990 C1988 1.391 . S
C1990 C1991 1.400 1_554 S
C1991 C1990 1.400 1_556 S
C1991 C1992 1.398 . S
C1991 C1997 1.491 1_556 S
C1992 H1983 0.950 . S
C1992 C1991 1.398 . S
C1992 C1993 1.391 . S
C1993 H1981 0.950 . S
C1993 C1989 1.393 . S
C1993 C1992 1.391 . S
C1994 H1984 0.950 . S
C1994 C1995 1.386 1_556 S
C1994 C1996 1.391 . S
C1995 C1994 1.386 1_554 S
C1995 C1999 1.393 . S
C1996 H1985 0.950 . S
C1996 C1994 1.391 . S
C1996 C1997 1.400 1_556 S
C1997 C1991 1.491 1_554 S
C1997 C1996 1.400 1_554 S
C1997 C1998 1.398 . S
C1998 H1986 0.950 . S
C1998 C1997 1.398 . S
C1998 C1999 1.391 . S
C1999 H1987 0.950 . S
C1999 C1995 1.393 . S
C1999 C1998 1.391 . S
H2000 C2008 0.950 . S
H2001 C2013 0.950 . S
H2002 C2010 0.950 . S
H2003 C2012 0.950 . S
H2004 C2014 0.950 . S
H2005 C2016 0.950 . S
H2006 C2018 0.950 . S
H2007 C2019 0.950 . S
C2008 H2000 0.950 . S
C2008 C2009 1.386 . S
C2008 C2010 1.391 . S
C2009 C2008 1.386 . S
C2009 C2013 1.393 . S
C2010 H2002 0.950 . S
C2010 C2008 1.391 . S
C2010 C2011 1.400 . S
C2011 C2010 1.400 . S
C2011 C2012 1.398 . S
C2011 C2017 1.491 1_545 S
C2012 H2003 0.950 . S
C2012 C2011 1.398 . S
C2012 C2013 1.391 . S
C2013 H2001 0.950 . S
C2013 C2009 1.393 . S
C2013 C2012 1.391 . S
C2014 H2004 0.950 . S
C2014 C2015 1.386 . S
C2014 C2016 1.391 . S
C2015 C2014 1.386 . S
C2015 C2019 1.393 . S
C2016 H2005 0.950 . S
C2016 C2014 1.391 . S
C2016 C2017 1.400 . S
C2017 C2011 1.491 1_565 S
C2017 C2016 1.400 . S
C2017 C2018 1.398 . S
C2018 H2006 0.950 . S
C2018 C2017 1.398 . S
C2018 C2019 1.391 . S
C2019 H2007 0.950 . S
C2019 C2015 1.393 . S
C2019 C2018 1.391 . S
H2020 C2028 0.950 . S
H2021 C2033 0.950 . S
H2022 C2030 0.950 . S
H2023 C2032 0.950 . S
H2024 C2034 0.950 . S
H2025 C2036 0.950 . S
H2026 C2038 0.950 . S
H2027 C2039 0.950 . S
C2028 H2020 0.950 . S
C2028 C2029 1.386 . S
C2028 C2030 1.391 . S
C2029 C2028 1.386 . S
C2029 C2033 1.393 . S
C2030 H2022 0.950 . S
C2030 C2028 1.391 . S
C2030 C2031 1.400 . S
C2031 C2030 1.400 . S
C2031 C2032 1.398 . S
C2031 C2037 1.491 . S
C2032 H2023 0.950 . S
C2032 C2031 1.398 . S
C2032 C2033 1.391 . S
C2033 H2021 0.950 . S
C2033 C2029 1.393 . S
C2033 C2032 1.391 . S
C2034 H2024 0.950 . S
C2034 C2035 1.386 . S
C2034 C2036 1.391 . S
C2035 C2034 1.386 . S
C2035 C2039 1.393 . S
C2036 H2025 0.950 . S
C2036 C2034 1.391 . S
C2036 C2037 1.400 . S
C2037 C2031 1.491 . S
C2037 C2036 1.400 . S
C2037 C2038 1.398 . S
C2038 H2026 0.950 . S
C2038 C2037 1.398 . S
C2038 C2039 1.391 . S
C2039 H2027 0.950 . S
C2039 C2035 1.393 . S
C2039 C2038 1.391 . S
H2040 C2048 0.950 . S
H2041 C2053 0.950 . S
H2042 C2050 0.950 . S
H2043 C2052 0.950 . S
H2044 C2054 0.950 . S
H2045 C2056 0.950 . S
H2046 C2058 0.950 . S
H2047 C2059 0.950 . S
C2048 H2040 0.950 . S
C2048 C2049 1.386 . S
C2048 C2050 1.391 . S
C2049 C2048 1.386 . S
C2049 C2053 1.393 . S
C2050 H2042 0.950 . S
C2050 C2048 1.391 . S
C2050 C2051 1.400 . S
C2051 C2050 1.400 . S
C2051 C2052 1.398 . S
C2051 C2057 1.491 1_545 S
C2052 H2043 0.950 . S
C2052 C2051 1.398 . S
C2052 C2053 1.391 . S
C2053 H2041 0.950 . S
C2053 C2049 1.393 . S
C2053 C2052 1.391 . S
C2054 H2044 0.950 . S
C2054 C2055 1.386 . S
C2054 C2056 1.391 . S
C2055 C2054 1.386 . S
C2055 C2059 1.393 . S
C2056 H2045 0.950 . S
C2056 C2054 1.391 . S
C2056 C2057 1.400 . S
C2057 C2051 1.491 1_565 S
C2057 C2056 1.400 . S
C2057 C2058 1.398 . S
C2058 H2046 0.950 . S
C2058 C2057 1.398 . S
C2058 C2059 1.391 . S
C2059 H2047 0.950 . S
C2059 C2055 1.393 . S
C2059 C2058 1.391 . S
H2060 C2068 0.950 . S
H2061 C2073 0.950 . S
H2062 C2070 0.950 . S
H2063 C2072 0.950 . S
H2064 C2074 0.950 . S
H2065 C2076 0.950 . S
H2066 C2078 0.950 . S
H2067 C2079 0.950 . S
C2068 H2060 0.950 . S
C2068 C2069 1.386 1_554 S
C2068 C2070 1.391 . S
C2069 C2068 1.386 1_556 S
C2069 C2073 1.393 . S
C2070 H2062 0.950 . S
C2070 C2068 1.391 . S
C2070 C2071 1.400 1_554 S
C2071 C2070 1.400 1_556 S
C2071 C2072 1.398 . S
C2071 C2077 1.491 1_556 S
C2072 H2063 0.950 . S
C2072 C2071 1.398 . S
C2072 C2073 1.391 . S
C2073 H2061 0.950 . S
C2073 C2069 1.393 . S
C2073 C2072 1.391 . S
C2074 H2064 0.950 . S
C2074 C2075 1.386 1_556 S
C2074 C2076 1.391 . S
C2075 C2074 1.386 1_554 S
C2075 C2079 1.393 . S
C2076 H2065 0.950 . S
C2076 C2074 1.391 . S
C2076 C2077 1.400 1_556 S
C2077 C2071 1.491 1_554 S
C2077 C2076 1.400 1_554 S
C2077 C2078 1.398 . S
C2078 H2066 0.950 . S
C2078 C2077 1.398 . S
C2078 C2079 1.391 . S
C2079 H2067 0.950 . S
C2079 C2075 1.393 . S
C2079 C2078 1.391 . S
H2080 C2088 0.950 . S
H2081 C2093 0.950 . S
H2082 C2090 0.950 . S
H2083 C2092 0.950 . S
H2084 C2094 0.950 . S
H2085 C2096 0.950 . S
H2086 C2098 0.950 . S
H2087 C2099 0.950 . S
C2088 H2080 0.950 . S
C2088 C2089 1.386 . S
C2088 C2090 1.391 . S
C2089 C2088 1.386 . S
C2089 C2093 1.393 . S
C2090 H2082 0.950 . S
C2090 C2088 1.391 . S
C2090 C2091 1.400 . S
C2091 C2090 1.400 . S
C2091 C2092 1.398 . S
C2091 C2097 1.491 . S
C2092 H2083 0.950 . S
C2092 C2091 1.398 . S
C2092 C2093 1.391 . S
C2093 H2081 0.950 . S
C2093 C2089 1.393 . S
C2093 C2092 1.391 . S
C2094 H2084 0.950 . S
C2094 C2095 1.386 . S
C2094 C2096 1.391 . S
C2095 C2094 1.386 . S
C2095 C2099 1.393 . S
C2096 H2085 0.950 . S
C2096 C2094 1.391 . S
C2096 C2097 1.400 . S
C2097 C2091 1.491 . S
C2097 C2096 1.400 . S
C2097 C2098 1.398 . S
C2098 H2086 0.950 . S
C2098 C2097 1.398 . S
C2098 C2099 1.391 . S
C2099 H2087 0.950 . S
C2099 C2095 1.393 . S
C2099 C2098 1.391 . S
H2100 C2108 0.950 . S
H2101 C2113 0.950 . S
H2102 C2110 0.950 . S
H2103 C2112 0.950 . S
H2104 C2114 0.950 . S
H2105 C2116 0.950 . S
H2106 C2118 0.950 . S
H2107 C2119 0.950 . S
C2108 H2100 0.950 . S
C2108 C2109 1.386 1_554 S
C2108 C2110 1.391 . S
C2109 C2108 1.386 1_556 S
C2109 C2113 1.393 . S
C2110 H2102 0.950 . S
C2110 C2108 1.391 . S
C2110 C2111 1.400 1_554 S
C2111 C2110 1.400 1_556 S
C2111 C2112 1.398 . S
C2111 C2117 1.491 1_556 S
C2112 H2103 0.950 . S
C2112 C2111 1.398 . S
C2112 C2113 1.391 . S
C2113 H2101 0.950 . S
C2113 C2109 1.393 . S
C2113 C2112 1.391 . S
C2114 H2104 0.950 . S
C2114 C2115 1.386 1_556 S
C2114 C2116 1.391 . S
C2115 C2114 1.386 1_554 S
C2115 C2119 1.393 . S
C2116 H2105 0.950 . S
C2116 C2114 1.391 . S
C2116 C2117 1.400 1_556 S
C2117 C2111 1.491 1_554 S
C2117 C2116 1.400 1_554 S
C2117 C2118 1.398 . S
C2118 H2106 0.950 . S
C2118 C2117 1.398 . S
C2118 C2119 1.391 . S
C2119 H2107 0.950 . S
C2119 C2115 1.393 . S
C2119 C2118 1.391 . S
H2120 C2128 0.950 . S
H2121 C2133 0.950 . S
H2122 C2130 0.950 . S
H2123 C2132 0.950 . S
H2124 C2134 0.950 . S
H2125 C2136 0.950 . S
H2126 C2138 0.950 . S
H2127 C2139 0.950 . S
C2128 H2120 0.950 . S
C2128 C2129 1.386 . S
C2128 C2130 1.391 . S
C2129 C2128 1.386 . S
C2129 C2133 1.393 . S
C2130 H2122 0.950 . S
C2130 C2128 1.391 . S
C2130 C2131 1.400 . S
C2131 C2130 1.400 . S
C2131 C2132 1.398 . S
C2131 C2137 1.491 . S
C2132 H2123 0.950 . S
C2132 C2131 1.398 . S
C2132 C2133 1.391 . S
C2133 H2121 0.950 . S
C2133 C2129 1.393 . S
C2133 C2132 1.391 . S
C2134 H2124 0.950 . S
C2134 C2135 1.386 . S
C2134 C2136 1.391 . S
C2135 C2134 1.386 . S
C2135 C2139 1.393 . S
C2136 H2125 0.950 . S
C2136 C2134 1.391 . S
C2136 C2137 1.400 . S
C2137 C2131 1.491 . S
C2137 C2136 1.400 . S
C2137 C2138 1.398 . S
C2138 H2126 0.950 . S
C2138 C2137 1.398 . S
C2138 C2139 1.391 . S
C2139 H2127 0.950 . S
C2139 C2135 1.393 . S
C2139 C2138 1.391 . S
H2140 C2148 0.950 . S
H2141 C2153 0.950 . S
H2142 C2150 0.950 . S
H2143 C2152 0.950 . S
H2144 C2154 0.950 . S
H2145 C2156 0.950 . S
H2146 C2158 0.950 . S
H2147 C2159 0.950 . S
C2148 H2140 0.950 . S
C2148 C2149 1.386 . S
C2148 C2150 1.391 . S
C2149 C2148 1.386 . S
C2149 C2153 1.393 . S
C2150 H2142 0.950 . S
C2150 C2148 1.391 . S
C2150 C2151 1.400 . S
C2151 C2150 1.400 . S
C2151 C2152 1.398 . S
C2151 C2157 1.491 . S
C2152 H2143 0.950 . S
C2152 C2151 1.398 . S
C2152 C2153 1.391 . S
C2153 H2141 0.950 . S
C2153 C2149 1.393 . S
C2153 C2152 1.391 . S
C2154 H2144 0.950 . S
C2154 C2155 1.386 . S
C2154 C2156 1.391 . S
C2155 C2154 1.386 . S
C2155 C2159 1.393 . S
C2156 H2145 0.950 . S
C2156 C2154 1.391 . S
C2156 C2157 1.400 . S
C2157 C2151 1.491 . S
C2157 C2156 1.400 . S
C2157 C2158 1.398 . S
C2158 H2146 0.950 . S
C2158 C2157 1.398 . S
C2158 C2159 1.391 . S
C2159 H2147 0.950 . S
C2159 C2155 1.393 . S
C2159 C2158 1.391 . S
H2160 C2168 0.950 . S
H2161 C2173 0.950 . S
H2162 C2170 0.950 . S
H2163 C2172 0.950 . S
H2164 C2174 0.950 . S
H2165 C2176 0.950 . S
H2166 C2178 0.950 . S
H2167 C2179 0.950 . S
C2168 H2160 0.950 . S
C2168 C2169 1.386 . S
C2168 C2170 1.391 . S
C2169 C2168 1.386 . S
C2169 C2173 1.393 . S
C2170 H2162 0.950 . S
C2170 C2168 1.391 . S
C2170 C2171 1.400 . S
C2171 C2170 1.400 . S
C2171 C2172 1.398 . S
C2171 C2177 1.491 . S
C2172 H2163 0.950 . S
C2172 C2171 1.398 . S
C2172 C2173 1.391 . S
C2173 H2161 0.950 . S
C2173 C2169 1.393 . S
C2173 C2172 1.391 . S
C2174 H2164 0.950 . S
C2174 C2175 1.386 . S
C2174 C2176 1.391 . S
C2175 C2174 1.386 . S
C2175 C2179 1.393 . S
C2176 H2165 0.950 . S
C2176 C2174 1.391 . S
C2176 C2177 1.400 . S
C2177 C2171 1.491 . S
C2177 C2176 1.400 . S
C2177 C2178 1.398 . S
C2178 H2166 0.950 . S
C2178 C2177 1.398 . S
C2178 C2179 1.391 . S
C2179 H2167 0.950 . S
C2179 C2175 1.393 . S
C2179 C2178 1.391 . S
H2180 C2188 0.950 . S
H2181 C2193 0.950 . S
H2182 C2190 0.950 . S
H2183 C2192 0.959 . S
H2184 C2194 0.950 . S
H2185 C2196 0.950 . S
H2186 C2198 0.959 . S
H2187 C2199 0.950 . S
C2188 H2180 0.950 . S
C2188 C2189 1.386 . S
C2188 C2190 1.391 . S
C2189 C2188 1.386 . S
C2189 C2193 1.393 . S
C2190 H2182 0.950 . S
C2190 C2188 1.391 . S
C2190 C2191 1.400 . S
C2191 C2190 1.400 . S
C2191 C2192 1.398 . S
C2191 C2197 1.491 1_556 S
C2192 H2183 0.959 . S
C2192 C2191 1.398 . S
C2192 C2193 1.391 . S
C2193 H2181 0.950 . S
C2193 C2189 1.393 . S
C2193 C2192 1.391 . S
C2194 H2184 0.950 . S
C2194 C2195 1.386 . S
C2194 C2196 1.391 . S
C2195 C2194 1.386 . S
C2195 C2199 1.393 . S
C2196 H2185 0.950 . S
C2196 C2194 1.391 . S
C2196 C2197 1.400 . S
C2197 C2191 1.491 1_554 S
C2197 C2196 1.400 . S
C2197 C2198 1.398 . S
C2198 H2186 0.959 . S
C2198 C2197 1.398 . S
C2198 C2199 1.391 . S
C2199 H2187 0.950 . S
C2199 C2195 1.393 . S
C2199 C2198 1.391 . S
H2200 C2208 0.950 . S
H2201 C2213 0.950 . S
H2202 C2210 0.950 . S
H2203 C2212 0.950 . S
H2204 C2214 0.950 . S
H2205 C2216 0.950 . S
H2206 C2218 0.950 . S
H2207 C2219 0.950 . S
C2208 H2200 0.950 . S
C2208 C2209 1.386 . S
C2208 C2210 1.391 . S
C2209 C2208 1.386 . S
C2209 C2213 1.393 . S
C2210 H2202 0.950 . S
C2210 C2208 1.391 . S
C2210 C2211 1.400 . S
C2211 C2210 1.400 . S
C2211 C2212 1.398 . S
C2211 C2217 1.491 . S
C2212 H2203 0.950 . S
C2212 C2211 1.398 . S
C2212 C2213 1.391 . S
C2213 H2201 0.950 . S
C2213 C2209 1.393 . S
C2213 C2212 1.391 . S
C2214 H2204 0.950 . S
C2214 C2215 1.386 . S
C2214 C2216 1.391 . S
C2215 C2214 1.386 . S
C2215 C2219 1.393 . S
C2216 H2205 0.950 . S
C2216 C2214 1.391 . S
C2216 C2217 1.400 . S
C2217 C2211 1.491 . S
C2217 C2216 1.400 . S
C2217 C2218 1.398 . S
C2218 H2206 0.950 . S
C2218 C2217 1.398 . S
C2218 C2219 1.391 . S
C2219 H2207 0.950 . S
C2219 C2215 1.393 . S
C2219 C2218 1.391 . S
H2220 C2228 0.950 . S
H2221 C2233 0.950 . S
H2222 C2230 0.950 . S
H2223 C2232 0.950 . S
H2224 C2234 0.950 . S
H2225 C2236 0.950 . S
H2226 C2238 0.950 . S
H2227 C2239 0.950 . S
C2228 H2220 0.950 . S
C2228 C2229 1.386 . S
C2228 C2230 1.391 . S
C2229 C2228 1.386 . S
C2229 C2233 1.393 . S
C2230 H2222 0.950 . S
C2230 C2228 1.391 . S
C2230 C2231 1.400 . S
C2231 C2230 1.400 . S
C2231 C2232 1.398 . S
C2231 C2237 1.491 . S
C2232 H2223 0.950 . S
C2232 C2231 1.398 . S
C2232 C2233 1.391 . S
C2233 H2221 0.950 . S
C2233 C2229 1.393 . S
C2233 C2232 1.391 . S
C2234 H2224 0.950 . S
C2234 C2235 1.386 . S
C2234 C2236 1.391 . S
C2235 C2234 1.386 . S
C2235 C2239 1.393 . S
C2236 H2225 0.950 . S
C2236 C2234 1.391 . S
C2236 C2237 1.400 . S
C2237 C2231 1.491 . S
C2237 C2236 1.400 . S
C2237 C2238 1.398 . S
C2238 H2226 0.950 . S
C2238 C2237 1.398 . S
C2238 C2239 1.391 . S
C2239 H2227 0.950 . S
C2239 C2235 1.393 . S
C2239 C2238 1.391 . S
H2240 C2248 0.950 . S
H2241 C2253 0.950 . S
H2242 C2250 0.950 . S
H2243 C2252 0.950 . S
H2244 C2254 0.950 . S
H2245 C2256 0.950 . S
H2246 C2258 0.950 . S
H2247 C2259 0.950 . S
C2248 H2240 0.950 . S
C2248 C2249 1.386 . S
C2248 C2250 1.391 . S
C2249 C2248 1.386 . S
C2249 C2253 1.393 . S
C2250 H2242 0.950 . S
C2250 C2248 1.391 . S
C2250 C2251 1.400 . S
C2251 C2250 1.400 . S
C2251 C2252 1.398 . S
C2251 C2257 1.491 . S
C2252 H2243 0.950 . S
C2252 C2251 1.398 . S
C2252 C2253 1.391 . S
C2253 H2241 0.950 . S
C2253 C2249 1.393 . S
C2253 C2252 1.391 . S
C2254 H2244 0.950 . S
C2254 C2255 1.386 . S
C2254 C2256 1.391 . S
C2255 C2254 1.386 . S
C2255 C2259 1.393 . S
C2256 H2245 0.950 . S
C2256 C2254 1.391 . S
C2256 C2257 1.400 . S
C2257 C2251 1.491 . S
C2257 C2256 1.400 . S
C2257 C2258 1.398 . S
C2258 H2246 0.950 . S
C2258 C2257 1.398 . S
C2258 C2259 1.391 . S
C2259 H2247 0.950 . S
C2259 C2255 1.393 . S
C2259 C2258 1.391 . S
H2260 C2268 0.950 . S
H2261 C2273 0.950 . S
H2262 C2270 0.950 . S
H2263 C2272 0.950 . S
H2264 C2274 0.950 . S
H2265 C2276 0.950 . S
H2266 C2278 0.950 . S
H2267 C2279 0.950 . S
C2268 H2260 0.950 . S
C2268 C2269 1.386 . S
C2268 C2270 1.391 . S
C2269 C2268 1.386 . S
C2269 C2273 1.393 . S
C2270 H2262 0.950 . S
C2270 C2268 1.391 . S
C2270 C2271 1.400 . S
C2271 C2270 1.400 . S
C2271 C2272 1.398 . S
C2271 C2277 1.491 . S
C2272 H2263 0.950 . S
C2272 C2271 1.398 . S
C2272 C2273 1.391 . S
C2273 H2261 0.950 . S
C2273 C2269 1.393 . S
C2273 C2272 1.391 . S
C2274 H2264 0.950 . S
C2274 C2275 1.386 . S
C2274 C2276 1.391 . S
C2275 C2274 1.386 . S
C2275 C2279 1.393 . S
C2276 H2265 0.950 . S
C2276 C2274 1.391 . S
C2276 C2277 1.400 . S
C2277 C2271 1.491 . S
C2277 C2276 1.400 . S
C2277 C2278 1.398 . S
C2278 H2266 0.950 . S
C2278 C2277 1.398 . S
C2278 C2279 1.391 . S
C2279 H2267 0.950 . S
C2279 C2275 1.393 . S
C2279 C2278 1.391 . S
H2280 C2288 0.950 . S
H2281 C2293 0.950 . S
H2282 C2290 0.950 . S
H2283 C2292 0.950 . S
H2284 C2294 0.950 . S
H2285 C2296 0.950 . S
H2286 C2298 0.950 . S
H2287 C2299 0.950 . S
C2288 H2280 0.950 . S
C2288 C2289 1.386 . S
C2288 C2290 1.391 . S
C2289 C2288 1.386 . S
C2289 C2293 1.393 . S
C2290 H2282 0.950 . S
C2290 C2288 1.391 . S
C2290 C2291 1.400 . S
C2291 C2290 1.400 . S
C2291 C2292 1.398 . S
C2291 C2297 1.491 . S
C2292 H2283 0.950 . S
C2292 C2291 1.398 . S
C2292 C2293 1.391 . S
C2293 H2281 0.950 . S
C2293 C2289 1.393 . S
C2293 C2292 1.391 . S
C2294 H2284 0.950 . S
C2294 C2295 1.386 . S
C2294 C2296 1.391 . S
C2295 C2294 1.386 . S
C2295 C2299 1.393 . S
C2296 H2285 0.950 . S
C2296 C2294 1.391 . S
C2296 C2297 1.400 . S
C2297 C2291 1.491 . S
C2297 C2296 1.400 . S
C2297 C2298 1.398 . S
C2298 H2286 0.950 . S
C2298 C2297 1.398 . S
C2298 C2299 1.391 . S
C2299 H2287 0.950 . S
C2299 C2295 1.393 . S
C2299 C2298 1.391 . S
H2300 C2308 0.950 . S
H2301 C2313 0.950 . S
H2302 C2310 0.950 . S
H2303 C2312 0.950 . S
H2304 C2314 0.950 . S
H2305 C2316 0.950 . S
H2306 C2318 0.950 . S
H2307 C2319 0.950 . S
C2308 H2300 0.950 . S
C2308 C2309 1.386 . S
C2308 C2310 1.391 . S
C2309 C2308 1.386 . S
C2309 C2313 1.393 . S
C2310 H2302 0.950 . S
C2310 C2308 1.391 . S
C2310 C2311 1.400 . S
C2311 C2310 1.400 . S
C2311 C2312 1.398 . S
C2311 C2317 1.491 . S
C2312 H2303 0.950 . S
C2312 C2311 1.398 . S
C2312 C2313 1.391 . S
C2313 H2301 0.950 . S
C2313 C2309 1.393 . S
C2313 C2312 1.391 . S
C2314 H2304 0.950 . S
C2314 C2315 1.386 . S
C2314 C2316 1.391 . S
C2315 C2314 1.386 . S
C2315 C2319 1.393 . S
C2316 H2305 0.950 . S
C2316 C2314 1.391 . S
C2316 C2317 1.400 . S
C2317 C2311 1.491 . S
C2317 C2316 1.400 . S
C2317 C2318 1.398 . S
C2318 H2306 0.950 . S
C2318 C2317 1.398 . S
C2318 C2319 1.391 . S
C2319 H2307 0.950 . S
C2319 C2315 1.393 . S
C2319 C2318 1.391 . S
H2320 C2328 0.950 . S
H2321 C2333 0.950 . S
H2322 C2330 0.950 . S
H2323 C2332 0.950 . S
H2324 C2334 0.950 . S
H2325 C2336 0.950 . S
H2326 C2338 0.950 . S
H2327 C2339 0.950 . S
C2328 H2320 0.950 . S
C2328 C2329 1.386 . S
C2328 C2330 1.391 . S
C2329 C2328 1.386 . S
C2329 C2333 1.393 . S
C2330 H2322 0.950 . S
C2330 C2328 1.391 . S
C2330 C2331 1.400 . S
C2331 C2330 1.400 . S
C2331 C2332 1.398 . S
C2331 C2337 1.491 . S
C2332 H2323 0.950 . S
C2332 C2331 1.398 . S
C2332 C2333 1.391 . S
C2333 H2321 0.950 . S
C2333 C2329 1.393 . S
C2333 C2332 1.391 . S
C2334 H2324 0.950 . S
C2334 C2335 1.386 . S
C2334 C2336 1.391 . S
C2335 C2334 1.386 . S
C2335 C2339 1.393 . S
C2336 H2325 0.950 . S
C2336 C2334 1.391 . S
C2336 C2337 1.400 . S
C2337 C2331 1.491 . S
C2337 C2336 1.400 . S
C2337 C2338 1.398 . S
C2338 H2326 0.950 . S
C2338 C2337 1.398 . S
C2338 C2339 1.391 . S
C2339 H2327 0.950 . S
C2339 C2335 1.393 . S
C2339 C2338 1.391 . S
H2340 C2348 0.950 . S
H2341 C2353 0.950 . S
H2342 C2350 0.950 . S
H2343 C2352 0.950 . S
H2344 C2354 0.950 . S
H2345 C2356 0.950 . S
H2346 C2358 0.950 . S
H2347 C2359 0.950 . S
C2348 H2340 0.950 . S
C2348 C2349 1.386 . S
C2348 C2350 1.391 . S
C2349 C2348 1.386 . S
C2349 C2353 1.393 . S
C2350 H2342 0.950 . S
C2350 C2348 1.391 . S
C2350 C2351 1.400 . S
C2351 C2350 1.400 . S
C2351 C2352 1.398 . S
C2351 C2357 1.491 . S
C2352 H2343 0.950 . S
C2352 C2351 1.398 . S
C2352 C2353 1.391 . S
C2353 H2341 0.950 . S
C2353 C2349 1.393 . S
C2353 C2352 1.391 . S
C2354 H2344 0.950 . S
C2354 C2355 1.386 . S
C2354 C2356 1.391 . S
C2355 C2354 1.386 . S
C2355 C2359 1.393 . S
C2356 H2345 0.950 . S
C2356 C2354 1.391 . S
C2356 C2357 1.400 . S
C2357 C2351 1.491 . S
C2357 C2356 1.400 . S
C2357 C2358 1.398 . S
C2358 H2346 0.950 . S
C2358 C2357 1.398 . S
C2358 C2359 1.391 . S
C2359 H2347 0.950 . S
C2359 C2355 1.393 . S
C2359 C2358 1.391 . S
H2360 C2368 0.950 . S
H2361 C2373 0.950 . S
H2362 C2370 0.950 . S
H2363 C2372 0.950 . S
H2364 C2374 0.950 . S
H2365 C2376 0.950 . S
H2366 C2378 0.950 . S
H2367 C2379 0.950 . S
C2368 H2360 0.950 . S
C2368 C2369 1.386 . S
C2368 C2370 1.391 . S
C2369 C2368 1.386 . S
C2369 C2373 1.393 . S
C2370 H2362 0.950 . S
C2370 C2368 1.391 . S
C2370 C2371 1.400 . S
C2371 C2370 1.400 . S
C2371 C2372 1.398 . S
C2371 C2377 1.491 . S
C2372 H2363 0.950 . S
C2372 C2371 1.398 . S
C2372 C2373 1.391 . S
C2373 H2361 0.950 . S
C2373 C2369 1.393 . S
C2373 C2372 1.391 . S
C2374 H2364 0.950 . S
C2374 C2375 1.386 . S
C2374 C2376 1.391 . S
C2375 C2374 1.386 . S
C2375 C2379 1.393 . S
C2376 H2365 0.950 . S
C2376 C2374 1.391 . S
C2376 C2377 1.400 . S
C2377 C2371 1.491 . S
C2377 C2376 1.400 . S
C2377 C2378 1.398 . S
C2378 H2366 0.950 . S
C2378 C2377 1.398 . S
C2378 C2379 1.391 . S
C2379 H2367 0.950 . S
C2379 C2375 1.393 . S
C2379 C2378 1.391 . S
H2380 C2388 0.950 . S
H2381 C2393 0.950 . S
H2382 C2390 0.950 . S
H2383 C2392 0.950 . S
H2384 C2394 0.950 . S
H2385 C2396 0.950 . S
H2386 C2398 0.950 . S
H2387 C2399 0.950 . S
C2388 H2380 0.950 . S
C2388 C2389 1.386 . S
C2388 C2390 1.391 . S
C2389 C2388 1.386 . S
C2389 C2393 1.393 . S
C2390 H2382 0.950 . S
C2390 C2388 1.391 . S
C2390 C2391 1.400 . S
C2391 C2390 1.400 . S
C2391 C2392 1.398 . S
C2391 C2397 1.491 . S
C2392 H2383 0.950 . S
C2392 C2391 1.398 . S
C2392 C2393 1.391 . S
C2393 H2381 0.950 . S
C2393 C2389 1.393 . S
C2393 C2392 1.391 . S
C2394 H2384 0.950 . S
C2394 C2395 1.386 . S
C2394 C2396 1.391 . S
C2395 C2394 1.386 . S
C2395 C2399 1.393 . S
C2396 H2385 0.950 . S
C2396 C2394 1.391 . S
C2396 C2397 1.400 . S
C2397 C2391 1.491 . S
C2397 C2396 1.400 . S
C2397 C2398 1.398 . S
C2398 H2386 0.950 . S
C2398 C2397 1.398 . S
C2398 C2399 1.391 . S
C2399 H2387 0.950 . S
C2399 C2395 1.393 . S
C2399 C2398 1.391 . S
H2400 C2408 0.950 . S
H2401 C2413 0.950 . S
H2402 C2410 0.950 . S
H2403 C2412 0.950 . S
H2404 C2414 0.950 . S
H2405 C2416 0.950 . S
H2406 C2418 0.950 . S
H2407 C2419 0.950 . S
C2408 H2400 0.950 . S
C2408 C2409 1.386 . S
C2408 C2410 1.391 . S
C2409 C2408 1.386 . S
C2409 C2413 1.393 . S
C2410 H2402 0.950 . S
C2410 C2408 1.391 . S
C2410 C2411 1.400 . S
C2411 C2410 1.400 . S
C2411 C2412 1.398 . S
C2411 C2417 1.491 . S
C2412 H2403 0.950 . S
C2412 C2411 1.398 . S
C2412 C2413 1.391 . S
C2413 H2401 0.950 . S
C2413 C2409 1.393 . S
C2413 C2412 1.391 . S
C2414 H2404 0.950 . S
C2414 C2415 1.386 . S
C2414 C2416 1.391 . S
C2415 C2414 1.386 . S
C2415 C2419 1.393 . S
C2416 H2405 0.950 . S
C2416 C2414 1.391 . S
C2416 C2417 1.400 . S
C2417 C2411 1.491 . S
C2417 C2416 1.400 . S
C2417 C2418 1.398 . S
C2418 H2406 0.950 . S
C2418 C2417 1.398 . S
C2418 C2419 1.391 . S
C2419 H2407 0.950 . S
C2419 C2415 1.393 . S
C2419 C2418 1.391 . S
H2420 C2428 0.950 . S
H2421 C2433 0.950 . S
H2422 C2430 0.950 . S
H2423 C2432 0.950 . S
H2424 C2434 0.950 . S
H2425 C2436 0.950 . S
H2426 C2438 0.950 . S
H2427 C2439 0.950 . S
C2428 H2420 0.950 . S
C2428 C2429 1.386 . S
C2428 C2430 1.391 . S
C2429 C2428 1.386 . S
C2429 C2433 1.393 . S
C2430 H2422 0.950 . S
C2430 C2428 1.391 . S
C2430 C2431 1.400 . S
C2431 C2430 1.400 . S
C2431 C2432 1.398 . S
C2431 C2437 1.491 . S
C2432 H2423 0.950 . S
C2432 C2431 1.398 . S
C2432 C2433 1.391 . S
C2433 H2421 0.950 . S
C2433 C2429 1.393 . S
C2433 C2432 1.391 . S
C2434 H2424 0.950 . S
C2434 C2435 1.386 . S
C2434 C2436 1.391 . S
C2435 C2434 1.386 . S
C2435 C2439 1.393 . S
C2436 H2425 0.950 . S
C2436 C2434 1.391 . S
C2436 C2437 1.400 . S
C2437 C2431 1.491 . S
C2437 C2436 1.400 . S
C2437 C2438 1.398 . S
C2438 H2426 0.950 . S
C2438 C2437 1.398 . S
C2438 C2439 1.391 . S
C2439 H2427 0.950 . S
C2439 C2435 1.393 . S
C2439 C2438 1.391 . S
H2440 C2448 0.950 . S
H2441 C2453 0.950 . S
H2442 C2450 0.950 . S
H2443 C2452 0.950 . S
H2444 C2454 0.950 . S
H2445 C2456 0.950 . S
H2446 C2458 0.950 . S
H2447 C2459 0.950 . S
C2448 H2440 0.950 . S
C2448 C2449 1.386 . S
C2448 C2450 1.391 . S
C2449 C2448 1.386 . S
C2449 C2453 1.393 . S
C2450 H2442 0.950 . S
C2450 C2448 1.391 . S
C2450 C2451 1.400 . S
C2451 C2450 1.400 . S
C2451 C2452 1.398 . S
C2451 C2457 1.491 . S
C2452 H2443 0.950 . S
C2452 C2451 1.398 . S
C2452 C2453 1.391 . S
C2453 H2441 0.950 . S
C2453 C2449 1.393 . S
C2453 C2452 1.391 . S
C2454 H2444 0.950 . S
C2454 C2455 1.386 . S
C2454 C2456 1.391 . S
C2455 C2454 1.386 . S
C2455 C2459 1.393 . S
C2456 H2445 0.950 . S
C2456 C2454 1.391 . S
C2456 C2457 1.400 . S
C2457 C2451 1.491 . S
C2457 C2456 1.400 . S
C2457 C2458 1.398 . S
C2458 H2446 0.950 . S
C2458 C2457 1.398 . S
C2458 C2459 1.391 . S
C2459 H2447 0.950 . S
C2459 C2455 1.393 . S
C2459 C2458 1.391 . S
H2460 C2468 0.950 . S
H2461 C2473 0.950 . S
H2462 C2470 0.950 . S
H2463 C2472 0.950 . S
H2464 C2474 0.950 . S
H2465 C2476 0.950 . S
H2466 C2478 0.950 . S
H2467 C2479 0.950 . S
C2468 H2460 0.950 . S
C2468 C2469 1.386 . S
C2468 C2470 1.391 . S
C2469 C2468 1.386 . S
C2469 C2473 1.393 . S
C2470 H2462 0.950 . S
C2470 C2468 1.391 . S
C2470 C2471 1.400 . S
C2471 C2470 1.400 . S
C2471 C2472 1.398 . S
C2471 C2477 1.491 . S
C2472 H2463 0.950 . S
C2472 C2471 1.398 . S
C2472 C2473 1.391 . S
C2473 H2461 0.950 . S
C2473 C2469 1.393 . S
C2473 C2472 1.391 . S
C2474 H2464 0.950 . S
C2474 C2475 1.386 . S
C2474 C2476 1.391 . S
C2475 C2474 1.386 . S
C2475 C2479 1.393 . S
C2476 H2465 0.950 . S
C2476 C2474 1.391 . S
C2476 C2477 1.400 . S
C2477 C2471 1.491 . S
C2477 C2476 1.400 . S
C2477 C2478 1.398 . S
C2478 H2466 0.950 . S
C2478 C2477 1.398 . S
C2478 C2479 1.391 . S
C2479 H2467 0.950 . S
C2479 C2475 1.393 . S
C2479 C2478 1.391 . S
H2480 C2488 0.950 . S
H2481 C2493 0.950 . S
H2482 C2490 0.950 . S
H2483 C2492 0.950 . S
H2484 C2494 0.950 . S
H2485 C2496 0.950 . S
H2486 C2498 0.950 . S
H2487 C2499 0.950 . S
C2488 H2480 0.950 . S
C2488 C2489 1.386 . S
C2488 C2490 1.391 . S
C2489 C2488 1.386 . S
C2489 C2493 1.393 . S
C2490 H2482 0.950 . S
C2490 C2488 1.391 . S
C2490 C2491 1.400 . S
C2491 C2490 1.400 . S
C2491 C2492 1.398 . S
C2491 C2497 1.491 . S
C2492 H2483 0.950 . S
C2492 C2491 1.398 . S
C2492 C2493 1.391 . S
C2493 H2481 0.950 . S
C2493 C2489 1.393 . S
C2493 C2492 1.391 . S
C2494 H2484 0.950 . S
C2494 C2495 1.386 . S
C2494 C2496 1.391 . S
C2495 C2494 1.386 . S
C2495 C2499 1.393 . S
C2496 H2485 0.950 . S
C2496 C2494 1.391 . S
C2496 C2497 1.400 . S
C2497 C2491 1.491 . S
C2497 C2496 1.400 . S
C2497 C2498 1.398 . S
C2498 H2486 0.950 . S
C2498 C2497 1.398 . S
C2498 C2499 1.391 . S
C2499 H2487 0.950 . S
C2499 C2495 1.393 . S
C2499 C2498 1.391 . S
H2500 C2508 0.950 . S
H2501 C2513 0.950 . S
H2502 C2510 0.950 . S
H2503 C2512 0.950 . S
H2504 C2514 0.950 . S
H2505 C2516 0.950 . S
H2506 C2518 0.950 . S
H2507 C2519 0.950 . S
C2508 H2500 0.950 . S
C2508 C2509 1.386 . S
C2508 C2510 1.391 . S
C2509 C2508 1.386 . S
C2509 C2513 1.393 . S
C2510 H2502 0.950 . S
C2510 C2508 1.391 . S
C2510 C2511 1.400 . S
C2511 C2510 1.400 . S
C2511 C2512 1.398 . S
C2511 C2517 1.491 . S
C2512 H2503 0.950 . S
C2512 C2511 1.398 . S
C2512 C2513 1.391 . S
C2513 H2501 0.950 . S
C2513 C2509 1.393 . S
C2513 C2512 1.391 . S
C2514 H2504 0.950 . S
C2514 C2515 1.386 . S
C2514 C2516 1.391 . S
C2515 C2514 1.386 . S
C2515 C2519 1.393 . S
C2516 H2505 0.950 . S
C2516 C2514 1.391 . S
C2516 C2517 1.400 . S
C2517 C2511 1.491 . S
C2517 C2516 1.400 . S
C2517 C2518 1.398 . S
C2518 H2506 0.950 . S
C2518 C2517 1.398 . S
C2518 C2519 1.391 . S
C2519 H2507 0.950 . S
C2519 C2515 1.393 . S
C2519 C2518 1.391 . S
H2520 C2528 0.950 . S
H2521 C2533 0.950 . S
H2522 C2530 0.950 . S
H2523 C2532 0.950 . S
H2524 C2534 0.950 . S
H2525 C2536 0.950 . S
H2526 C2538 0.950 . S
H2527 C2539 0.950 . S
C2528 H2520 0.950 . S
C2528 C2529 1.386 . S
C2528 C2530 1.391 . S
C2529 C2528 1.386 . S
C2529 C2533 1.393 . S
C2530 H2522 0.950 . S
C2530 C2528 1.391 . S
C2530 C2531 1.400 . S
C2531 C2530 1.400 . S
C2531 C2532 1.398 . S
C2531 C2537 1.491 . S
C2532 H2523 0.950 . S
C2532 C2531 1.398 . S
C2532 C2533 1.391 . S
C2533 H2521 0.950 . S
C2533 C2529 1.393 . S
C2533 C2532 1.391 . S
C2534 H2524 0.950 . S
C2534 C2535 1.386 . S
C2534 C2536 1.391 . S
C2535 C2534 1.386 . S
C2535 C2539 1.393 . S
C2536 H2525 0.950 . S
C2536 C2534 1.391 . S
C2536 C2537 1.400 . S
C2537 C2531 1.491 . S
C2537 C2536 1.400 . S
C2537 C2538 1.398 . S
C2538 H2526 0.950 . S
C2538 C2537 1.398 . S
C2538 C2539 1.391 . S
C2539 H2527 0.950 . S
C2539 C2535 1.393 . S
C2539 C2538 1.391 . S
H2540 C2548 0.950 . S
H2541 C2553 0.950 . S
H2542 C2550 0.950 . S
H2543 C2552 0.950 . S
H2544 C2554 0.950 . S
H2545 C2556 0.950 . S
H2546 C2558 0.950 . S
H2547 C2559 0.950 . S
C2548 H2540 0.950 . S
C2548 C2549 1.386 . S
C2548 C2550 1.391 . S
C2549 C2548 1.386 . S
C2549 C2553 1.393 . S
C2550 H2542 0.950 . S
C2550 C2548 1.391 . S
C2550 C2551 1.400 . S
C2551 C2550 1.400 . S
C2551 C2552 1.398 . S
C2551 C2557 1.491 . S
C2552 H2543 0.950 . S
C2552 C2551 1.398 . S
C2552 C2553 1.391 . S
C2553 H2541 0.950 . S
C2553 C2549 1.393 . S
C2553 C2552 1.391 . S
C2554 H2544 0.950 . S
C2554 C2555 1.386 . S
C2554 C2556 1.391 . S
C2555 C2554 1.386 . S
C2555 C2559 1.393 . S
C2556 H2545 0.950 . S
C2556 C2554 1.391 . S
C2556 C2557 1.400 . S
C2557 C2551 1.491 . S
C2557 C2556 1.400 . S
C2557 C2558 1.398 . S
C2558 H2546 0.950 . S
C2558 C2557 1.398 . S
C2558 C2559 1.391 . S
C2559 H2547 0.950 . S
C2559 C2555 1.393 . S
C2559 C2558 1.391 . S
C649 C2 1.516 . S
C655 C79 1.446 . S
C669 C19 1.437 . S
C675 C22 1.519 . S
C689 C42 1.517 . S
C695 C39 1.448 . S
C709 C59 1.451 . S
C715 C62 1.518 . S
C729 C119 1.452 . S
C735 C82 1.521 . S
C749 C102 1.514 . S
C755 C139 1.422 . S
C769 C159 1.454 . S
C775 C122 1.520 . S
C789 C99 1.423 . S
C795 C142 1.515 . S
C809 C161 1.520 . S
C815 C238 1.454 . S
C829 C181 1.516 . S
C835 C178 1.426 . S
C849 C201 1.520 . S
C855 C198 1.453 . S
C869 C221 1.519 . S
C875 C218 1.440 . S
C889 C241 1.520 . S
C895 C278 1.454 . S
C909 C261 1.520 . S
C915 C298 1.454 . S
C929 C318 1.432 . S
C935 C281 1.514 . S
C949 C258 1.431 . S
C955 C301 1.514 . S
C969 C322 1.517 . S
C975 C399 1.447 . S
C989 C339 1.453 . S
C995 C342 1.519 . S
C1009 C359 1.453 . S
C1015 C362 1.519 . S
C1029 C382 1.520 . S
C1035 C379 1.445 . S
C1049 C402 1.513 . S
C1055 C439 1.424 . S
C1069 C459 1.448 . S
C1075 C422 1.517 . S
C1089 C442 1.519 . S
C1095 C479 1.437 . S
C1109 C419 1.423 . S
C1115 C462 1.513 . S
C1129 C558 1.436 . S
C1135 C481 1.519 . S
C1149 C498 1.453 . S
C1155 C501 1.520 . S
C1169 C521 1.520 . S
C1175 C518 1.453 . S
C1189 C538 1.449 . S
C1195 C541 1.520 . S
C1209 C598 1.442 . S
C1215 C561 1.516 . S
C1229 C618 1.439 . S
C1235 C581 1.519 . S
C1249 C638 1.422 . S
C1255 C601 1.514 . S
C1269 C621 1.513 . S
C1275 C578 1.424 . S
C1289 C542 1.457 . S
C1295 C8 1.441 . S
C1309 C28 1.446 . S
C1315 C162 1.437 . S
C1329 C48 1.443 . S
C1335 C502 1.437 . S
C1349 C68 1.436 . S
C1355 C202 1.453 . S
C1369 C88 1.453 . S
C1375 C582 1.443 . S
C1389 C282 1.445 . S
C1395 C108 1.455 . S
C1409 C622 1.438 . S
C1415 C128 1.437 . S
C1429 C148 1.448 . S
C1435 C242 1.459 . S
C1449 C169 1.456 . S
C1455 C381 1.454 . S
C1469 C1 1.459 . S
C1475 C189 1.450 . S
C1489 C341 1.453 . S
C1495 C209 1.436 . S
C1509 C41 1.459 . S
C1515 C229 1.446 . S
C1529 C421 1.443 . S
C1535 C249 1.434 . S
C1549 C121 1.440 . S
C1555 C269 1.435 . S
C1569 C289 1.443 . S
C1575 C461 1.437 . S
C1589 C309 1.457 . S
C1595 C81 1.448 . S
C1609 C328 1.439 . S
C1615 C222 1.456 . S
C1629 C348 1.454 . S
C1635 C482 1.458 . S
C1649 C368 1.442 . S
C1655 C182 1.437 . S
C1669 C388 1.434 . S
C1675 C522 1.446 . S
C1689 C408 1.441 . S
C1695 C262 1.457 . S
C1709 C428 1.444 . S
C1715 C602 1.437 . S
C1729 C302 1.443 . S
C1735 C448 1.454 . S
C1749 C468 1.446 . S
C1755 C562 1.459 . S
C1769 C61 1.457 . S
C1775 C489 1.440 . S
C1789 C321 1.456 . S
C1795 C509 1.456 . S
C1809 C21 1.453 . S
C1815 C529 1.437 . S
C1829 C361 1.443 . S
C1835 C549 1.434 . S
C1849 C101 1.459 . S
C1855 C569 1.451 . S
C1869 C589 1.453 . S
C1875 C441 1.443 . S
C1889 C609 1.442 . S
C1895 C141 1.457 . S
C1909 C401 1.440 . S
C1915 C629 1.435 . S
C1929 C9 0.321 . S
C1935 C89 0.288 . S
C1949 C29 0.287 . S
C1955 C109 0.357 . S
C1969 C49 0.279 . S
C1975 C129 0.332 . S
C1989 C149 0.359 . S
C1995 C69 0.282 . S
C2009 C248 0.276 . S
C2015 C168 0.360 . S
C2029 C268 0.274 . S
C2035 C188 0.339 . S
C2049 C208 0.304 . S
C2055 C288 0.304 . S
C2069 C228 0.287 . S
C2075 C308 0.357 . S
C2089 C329 0.330 . S
C2095 C409 0.329 . S
C2109 C429 0.338 . S
C2115 C349 0.275 . S
C2129 C449 0.275 . S
C2135 C369 0.360 . S
C2149 C469 0.357 . S
C2155 C389 0.269 . S
C2169 C568 0.338 . S
C2175 C488 0.320 . S
C2189 C508 0.327 . S
C2195 C588 0.332 . S
C2209 C608 0.331 . S
C2215 C528 0.279 . S
C2229 C548 0.351 . S
C2235 C628 0.301 . S
C2249 C158 2.013 . S
C2255 C18 2.011 . S
C2269 C38 2.010 . S
C2275 C98 2.012 . S
C2289 C58 2.012 . S
C2295 C118 2.010 . S
C2309 C138 2.006 . S
C2315 C78 2.006 . S
C2329 C179 2.006 . S
C2335 C319 2.006 . S
C2349 C259 2.005 . S
C2355 C199 2.007 . S
C2369 C279 2.013 . S
C2375 C219 2.012 . S
C2389 C239 2.008 . S
C2395 C299 2.012 . S
C2409 C338 2.010 . S
C2415 C478 2.007 . S
C2429 C418 2.007 . S
C2435 C358 2.005 . S
C2449 C438 2.012 . S
C2455 C378 2.012 . S
C2469 C458 2.008 . S
C2475 C398 2.011 . S
C2489 C499 2.013 . S
C2495 C639 2.011 . S
C2509 C579 2.007 . S
C2515 C519 2.010 . S
C2529 C539 2.012 . S
C2535 C599 2.008 . S
C2549 C619 2.005 . S
C2555 C559 2.007 . S
