# Generated by pormake.
# Topology dia-a, (4)-cn, num edge types: 1
# Building blocks:
#     Node 0, Type 0, BuildingBlock: AZAVOO_clean_sbu_0, # of connection points: 4
#     Node 1, Type 0, BuildingBlock: AZAVOO_clean_sbu_0, # of connection points: 4
#     Node 2, Type 0, BuildingBlock: AZAVOO_clean_sbu_0, # of connection points: 4
#     Node 3, Type 0, BuildingBlock: AZAVOO_clean_sbu_0, # of connection points: 4
#     Node 4, Type 0, BuildingBlock: AZAVOO_clean_sbu_0, # of connection points: 4
#     Node 5, Type 0, BuildingBlock: AZAVOO_clean_sbu_0, # of connection points: 4
#     Node 6, Type 0, BuildingBlock: AZAVOO_clean_sbu_0, # of connection points: 4
#     Node 7, Type 0, BuildingBlock: AZAVOO_clean_sbu_0, # of connection points: 4
#     Node 8, Type 0, BuildingBlock: AZAVOO_clean_sbu_0, # of connection points: 4
#     Node 9, Type 0, BuildingBlock: AZAVOO_clean_sbu_0, # of connection points: 4
#     Node 10, Type 0, BuildingBlock: AZAVOO_clean_sbu_0, # of connection points: 4
#     Node 11, Type 0, BuildingBlock: AZAVOO_clean_sbu_0, # of connection points: 4
#     Node 12, Type 0, BuildingBlock: AZAVOO_clean_sbu_0, # of connection points: 4
#     Node 13, Type 0, BuildingBlock: AZAVOO_clean_sbu_0, # of connection points: 4
#     Node 14, Type 0, BuildingBlock: AZAVOO_clean_sbu_0, # of connection points: 4
#     Node 15, Type 0, BuildingBlock: AZAVOO_clean_sbu_0, # of connection points: 4
#     Node 16, Type 0, BuildingBlock: AZAVOO_clean_sbu_0, # of connection points: 4
#     Node 17, Type 0, BuildingBlock: AZAVOO_clean_sbu_0, # of connection points: 4
#     Node 18, Type 0, BuildingBlock: AZAVOO_clean_sbu_0, # of connection points: 4
#     Node 19, Type 0, BuildingBlock: AZAVOO_clean_sbu_0, # of connection points: 4
#     Node 20, Type 0, BuildingBlock: AZAVOO_clean_sbu_0, # of connection points: 4
#     Node 21, Type 0, BuildingBlock: AZAVOO_clean_sbu_0, # of connection points: 4
#     Node 22, Type 0, BuildingBlock: AZAVOO_clean_sbu_0, # of connection points: 4
#     Node 23, Type 0, BuildingBlock: AZAVOO_clean_sbu_0, # of connection points: 4
#     Node 24, Type 0, BuildingBlock: AZAVOO_clean_sbu_0, # of connection points: 4
#     Node 25, Type 0, BuildingBlock: AZAVOO_clean_sbu_0, # of connection points: 4
#     Node 26, Type 0, BuildingBlock: AZAVOO_clean_sbu_0, # of connection points: 4
#     Node 27, Type 0, BuildingBlock: AZAVOO_clean_sbu_0, # of connection points: 4
#     Node 28, Type 0, BuildingBlock: AZAVOO_clean_sbu_0, # of connection points: 4
#     Node 29, Type 0, BuildingBlock: AZAVOO_clean_sbu_0, # of connection points: 4
#     Node 30, Type 0, BuildingBlock: AZAVOO_clean_sbu_0, # of connection points: 4
#     Node 31, Type 0, BuildingBlock: AZAVOO_clean_sbu_0, # of connection points: 4
#     Edge 32, Type (0, 0), BuildingBlock: MIFKUJ_clean_linker_0, # of connection points: 2
#     Edge 33, Type (0, 0), BuildingBlock: MIFKUJ_clean_linker_0, # of connection points: 2
#     Edge 34, Type (0, 0), BuildingBlock: MIFKUJ_clean_linker_0, # of connection points: 2
#     Edge 35, Type (0, 0), BuildingBlock: MIFKUJ_clean_linker_0, # of connection points: 2
#     Edge 36, Type (0, 0), BuildingBlock: MIFKUJ_clean_linker_0, # of connection points: 2
#     Edge 37, Type (0, 0), BuildingBlock: MIFKUJ_clean_linker_0, # of connection points: 2
#     Edge 38, Type (0, 0), BuildingBlock: MIFKUJ_clean_linker_0, # of connection points: 2
#     Edge 39, Type (0, 0), BuildingBlock: MIFKUJ_clean_linker_0, # of connection points: 2
#     Edge 40, Type (0, 0), BuildingBlock: MIFKUJ_clean_linker_0, # of connection points: 2
#     Edge 41, Type (0, 0), BuildingBlock: MIFKUJ_clean_linker_0, # of connection points: 2
#     Edge 42, Type (0, 0), BuildingBlock: MIFKUJ_clean_linker_0, # of connection points: 2
#     Edge 43, Type (0, 0), BuildingBlock: MIFKUJ_clean_linker_0, # of connection points: 2
#     Edge 44, Type (0, 0), BuildingBlock: MIFKUJ_clean_linker_0, # of connection points: 2
#     Edge 45, Type (0, 0), BuildingBlock: MIFKUJ_clean_linker_0, # of connection points: 2
#     Edge 46, Type (0, 0), BuildingBlock: MIFKUJ_clean_linker_0, # of connection points: 2
#     Edge 47, Type (0, 0), BuildingBlock: MIFKUJ_clean_linker_0, # of connection points: 2
#     Edge 48, Type (0, 0), BuildingBlock: MIFKUJ_clean_linker_0, # of connection points: 2
#     Edge 49, Type (0, 0), BuildingBlock: MIFKUJ_clean_linker_0, # of connection points: 2
#     Edge 50, Type (0, 0), BuildingBlock: MIFKUJ_clean_linker_0, # of connection points: 2
#     Edge 51, Type (0, 0), BuildingBlock: MIFKUJ_clean_linker_0, # of connection points: 2
#     Edge 52, Type (0, 0), BuildingBlock: MIFKUJ_clean_linker_0, # of connection points: 2
#     Edge 53, Type (0, 0), BuildingBlock: MIFKUJ_clean_linker_0, # of connection points: 2
#     Edge 54, Type (0, 0), BuildingBlock: MIFKUJ_clean_linker_0, # of connection points: 2
#     Edge 55, Type (0, 0), BuildingBlock: MIFKUJ_clean_linker_0, # of connection points: 2
#     Edge 56, Type (0, 0), BuildingBlock: MIFKUJ_clean_linker_0, # of connection points: 2
#     Edge 57, Type (0, 0), BuildingBlock: MIFKUJ_clean_linker_0, # of connection points: 2
#     Edge 58, Type (0, 0), BuildingBlock: MIFKUJ_clean_linker_0, # of connection points: 2
#     Edge 59, Type (0, 0), BuildingBlock: MIFKUJ_clean_linker_0, # of connection points: 2
#     Edge 60, Type (0, 0), BuildingBlock: MIFKUJ_clean_linker_0, # of connection points: 2
#     Edge 61, Type (0, 0), BuildingBlock: MIFKUJ_clean_linker_0, # of connection points: 2
#     Edge 62, Type (0, 0), BuildingBlock: MIFKUJ_clean_linker_0, # of connection points: 2
#     Edge 63, Type (0, 0), BuildingBlock: MIFKUJ_clean_linker_0, # of connection points: 2
#     Edge 64, Type (0, 0), BuildingBlock: MIFKUJ_clean_linker_0, # of connection points: 2
#     Edge 65, Type (0, 0), BuildingBlock: MIFKUJ_clean_linker_0, # of connection points: 2
#     Edge 66, Type (0, 0), BuildingBlock: MIFKUJ_clean_linker_0, # of connection points: 2
#     Edge 67, Type (0, 0), BuildingBlock: MIFKUJ_clean_linker_0, # of connection points: 2
#     Edge 68, Type (0, 0), BuildingBlock: MIFKUJ_clean_linker_0, # of connection points: 2
#     Edge 69, Type (0, 0), BuildingBlock: MIFKUJ_clean_linker_0, # of connection points: 2
#     Edge 70, Type (0, 0), BuildingBlock: MIFKUJ_clean_linker_0, # of connection points: 2
#     Edge 71, Type (0, 0), BuildingBlock: MIFKUJ_clean_linker_0, # of connection points: 2
#     Edge 72, Type (0, 0), BuildingBlock: MIFKUJ_clean_linker_0, # of connection points: 2
#     Edge 73, Type (0, 0), BuildingBlock: MIFKUJ_clean_linker_0, # of connection points: 2
#     Edge 74, Type (0, 0), BuildingBlock: MIFKUJ_clean_linker_0, # of connection points: 2
#     Edge 75, Type (0, 0), BuildingBlock: MIFKUJ_clean_linker_0, # of connection points: 2
#     Edge 76, Type (0, 0), BuildingBlock: MIFKUJ_clean_linker_0, # of connection points: 2
#     Edge 77, Type (0, 0), BuildingBlock: MIFKUJ_clean_linker_0, # of connection points: 2
#     Edge 78, Type (0, 0), BuildingBlock: MIFKUJ_clean_linker_0, # of connection points: 2
#     Edge 79, Type (0, 0), BuildingBlock: MIFKUJ_clean_linker_0, # of connection points: 2
#     Edge 80, Type (0, 0), BuildingBlock: MIFKUJ_clean_linker_0, # of connection points: 2
#     Edge 81, Type (0, 0), BuildingBlock: MIFKUJ_clean_linker_0, # of connection points: 2
#     Edge 82, Type (0, 0), BuildingBlock: MIFKUJ_clean_linker_0, # of connection points: 2
#     Edge 83, Type (0, 0), BuildingBlock: MIFKUJ_clean_linker_0, # of connection points: 2
#     Edge 84, Type (0, 0), BuildingBlock: MIFKUJ_clean_linker_0, # of connection points: 2
#     Edge 85, Type (0, 0), BuildingBlock: MIFKUJ_clean_linker_0, # of connection points: 2
#     Edge 86, Type (0, 0), BuildingBlock: MIFKUJ_clean_linker_0, # of connection points: 2
#     Edge 87, Type (0, 0), BuildingBlock: MIFKUJ_clean_linker_0, # of connection points: 2
#     Edge 88, Type (0, 0), BuildingBlock: MIFKUJ_clean_linker_0, # of connection points: 2
#     Edge 89, Type (0, 0), BuildingBlock: MIFKUJ_clean_linker_0, # of connection points: 2
#     Edge 90, Type (0, 0), BuildingBlock: MIFKUJ_clean_linker_0, # of connection points: 2
#     Edge 91, Type (0, 0), BuildingBlock: MIFKUJ_clean_linker_0, # of connection points: 2
#     Edge 92, Type (0, 0), BuildingBlock: MIFKUJ_clean_linker_0, # of connection points: 2
#     Edge 93, Type (0, 0), BuildingBlock: MIFKUJ_clean_linker_0, # of connection points: 2
#     Edge 94, Type (0, 0), BuildingBlock: MIFKUJ_clean_linker_0, # of connection points: 2
#     Edge 95, Type (0, 0), BuildingBlock: MIFKUJ_clean_linker_0, # of connection points: 2
# Relax obj value: 0.776
# Max RMSD: 0.286
# Mean RMSD: 0.272
data_MOF--net-dia-a--node1-AZAVOO_clean_sbu_0--edge1-MIFKUJ_clean_linker_0
_symmetry_space_group_name_H-M    P1
_symmetry_Int_Tables_number       1
_symmetry_cell_setting            triclinic
loop_
_symmetry_equiv_pos_as_xyz
'x, y, z'
_cell_length_a     58.881088
_cell_length_b     81.560822
_cell_length_c     98.572022
_cell_angle_alpha  85.829761
_cell_angle_beta   100.75894
_cell_angle_gamma 114.40204
loop_
_atom_site_label
_atom_site_type_symbol
_atom_site_fract_x
_atom_site_fract_y
_atom_site_fract_z
_atom_type_partial_charge
Mg0 Mg 0.98632 0.00883 0.60189 0.0
O1 O 0.01033 0.03926 0.60153 0.0
O2 O 0.00423 0.0522 0.61897 0.0
Mg3 Mg 0.97927 0.02946 0.63171 0.0
C4 C 0.01433 0.05317 0.60838 0.0
C5 C 0.99288 0.99039 0.57795 0.0
O6 O 0.9727 0.97792 0.58202 0.0
O7 O 0.01764 0.00708 0.61871 0.0
O8 O 0.01124 0.01968 0.63626 0.0
O9 O 0.95248 0.01316 0.59059 0.0
O10 O 0.96256 0.0125 0.61331 0.0
C11 C 0.02326 0.01226 0.63129 0.0
C12 C 0.94833 0.01526 0.60265 0.0
O13 O 0.00445 0.00506 0.58471 0.0
Mg14 Mg 0.03612 0.35103 0.81246 0.0
O15 O 0.01415 0.33704 0.8296 0.0
O16 O 0.00693 0.35721 0.84022 0.0
Mg17 Mg 0.02627 0.38477 0.83026 0.0
C18 C 0.00462 0.34114 0.83872 0.0
C19 C 0.04388 0.31917 0.80142 0.0
O20 O 0.06765 0.33031 0.80515 0.0
O21 O 0.9996 0.35198 0.79989 0.0
O22 O 0.99695 0.37431 0.81062 0.0
O23 O 0.07267 0.35817 0.8278 0.0
O24 O 0.05143 0.37532 0.82271 0.0
C25 C 0.98897 0.36259 0.80098 0.0
C26 C 0.07005 0.37269 0.83002 0.0
O27 O 0.02653 0.32368 0.8034 0.0
Mg28 Mg 0.77696 0.2532 0.10218 0.0
O29 O 0.74602 0.22458 0.10306 0.0
O30 O 0.74322 0.21889 0.12541 0.0
Mg31 Mg 0.77147 0.24316 0.13857 0.0
C32 C 0.73615 0.21424 0.11269 0.0
C33 C 0.7844 0.26423 0.07276 0.0
O34 O 0.80611 0.27408 0.0804 0.0
O35 O 0.74797 0.26405 0.10566 0.0
O36 O 0.74735 0.25793 0.12812 0.0
O37 O 0.80533 0.24102 0.10534 0.0
O38 O 0.79412 0.25077 0.12225 0.0
C39 C 0.73993 0.26436 0.11681 0.0
C40 C 0.80584 0.24214 0.11843 0.0
O41 O 0.76639 0.25369 0.07875 0.0
Mg42 Mg 0.71429 0.87783 0.26649 0.0
O43 O 0.73824 0.88641 0.28765 0.0
O44 O 0.743 0.86286 0.29875 0.0
Mg45 Mg 0.72083 0.83851 0.28412 0.0
C46 C 0.74706 0.87951 0.29819 0.0
C47 C 0.71068 0.91296 0.25356 0.0
O48 O 0.68878 0.90089 0.24763 0.0
O49 O 0.74913 0.87706 0.25937 0.0
O50 O 0.74988 0.85204 0.27003 0.0
O51 O 0.68051 0.87056 0.27687 0.0
O52 O 0.69688 0.85157 0.27343 0.0
C53 C 0.75863 0.86537 0.26207 0.0
C54 C 0.68162 0.85507 0.27925 0.0
O55 O 0.726 0.90767 0.26144 0.0
Mg56 Mg 0.96572 0.18704 0.65879 0.0
O57 O 0.99021 0.17204 0.66807 0.0
O58 O 0.99351 0.15555 0.652 0.0
Mg59 Mg 0.97199 0.16158 0.63158 0.0
C60 C 0.99848 0.16116 0.66441 0.0
C61 C 0.96284 0.19993 0.68738 0.0
O62 O 0.93917 0.18839 0.68407 0.0
O63 O 0.00011 0.20716 0.6502 0.0
O64 O 0.00156 0.19081 0.6333 0.0
O65 O 0.93006 0.16257 0.66099 0.0
O66 O 0.94828 0.16892 0.64252 0.0
C67 C 0.00996 0.20547 0.64015 0.0
C68 C 0.93067 0.15801 0.6488 0.0
O69 O 0.97802 0.20255 0.67902 0.0
Mg70 Mg 0.75169 0.22508 0.89961 0.0
O71 O 0.77906 0.25538 0.90478 0.0
O72 O 0.7961 0.26933 0.88622 0.0
Mg73 Mg 0.77508 0.25034 0.86813 0.0
C74 C 0.79408 0.26912 0.89892 0.0
C75 C 0.75315 0.2327 0.92863 0.0
O76 O 0.73258 0.21821 0.92462 0.0
O77 O 0.71947 0.23515 0.8934 0.0
O78 O 0.74262 0.24715 0.87761 0.0
O79 O 0.78695 0.21832 0.9018 0.0
O80 O 0.77316 0.2288 0.88296 0.0
C81 C 0.72399 0.24537 0.88301 0.0
C82 C 0.79039 0.2245 0.8897 0.0
O83 O 0.76778 0.24043 0.91999 0.0
Mg84 Mg 0.74415 0.13397 0.25523 0.0
O85 O 0.72412 0.11344 0.23711 0.0
O86 O 0.72626 0.12988 0.21761 0.0
Mg87 Mg 0.73318 0.15851 0.22381 0.0
C88 C 0.72102 0.1148 0.22388 0.0
C89 C 0.73917 0.0958 0.26025 0.0
O90 O 0.7531 0.10495 0.27146 0.0
O91 O 0.77753 0.14131 0.24367 0.0
O92 O 0.77339 0.16599 0.23585 0.0
O93 O 0.70432 0.12982 0.2597 0.0
O94 O 0.72095 0.1455 0.24285 0.0
C95 C 0.78492 0.15571 0.23667 0.0
C96 C 0.70204 0.13925 0.24897 0.0
O97 O 0.73 0.10383 0.25062 0.0
Mg98 Mg 0.99631 0.9971 0.40386 0.0
O99 O 0.97218 0.96674 0.40247 0.0
O100 O 0.96563 0.95761 0.38067 0.0
Mg101 Mg 0.98834 0.98206 0.36858 0.0
C102 C 0.96229 0.95447 0.3932 0.0
C103 C 0.01494 0.00651 0.43582 0.0
O104 O 0.02984 0.02221 0.43147 0.0
O105 O 0.03123 0.99139 0.4041 0.0
O106 O 0.02508 0.98319 0.38213 0.0
O107 O 0.96105 0.00158 0.398 0.0
O108 O 0.98267 0.99921 0.38275 0.0
C109 C 0.03826 0.98641 0.39424 0.0
C110 C 0.96207 0.99951 0.38527 0.0
O111 O 0.00031 0.99433 0.4271 0.0
Mg112 Mg 0.49109 0.00512 0.1044 0.0
O113 O 0.51697 0.0351 0.10388 0.0
O114 O 0.51608 0.04874 0.12247 0.0
Mg115 Mg 0.48984 0.027 0.1353 0.0
C116 C 0.52419 0.04916 0.11124 0.0
C117 C 0.49347 0.98852 0.0777 0.0
O118 O 0.47202 0.97625 0.08059 0.0
O119 O 0.52276 0.00171 0.12023 0.0
O120 O 0.51854 0.01452 0.13839 0.0
O121 O 0.45785 0.01105 0.09444 0.0
O122 O 0.46996 0.01023 0.11696 0.0
C123 C 0.52905 0.00634 0.13296 0.0
C124 C 0.45551 0.01371 0.1068 0.0
O125 O 0.50671 0.0014 0.08614 0.0
Mg126 Mg 0.04265 0.85618 0.3136 0.0
O127 O 0.01628 0.8401 0.32845 0.0
O128 O 0.00965 0.8588 0.34108 0.0
Mg129 Mg 0.03061 0.88741 0.33304 0.0
C130 C 0.00628 0.84295 0.33791 0.0
C131 C 0.04943 0.8289 0.29626 0.0
O132 O 0.07027 0.84323 0.29524 0.0
O133 O 0.00902 0.85958 0.29946 0.0
O134 O 0.0048 0.87973 0.31192 0.0
O135 O 0.07623 0.86064 0.33066 0.0
O136 O 0.05704 0.87912 0.32568 0.0
C137 C 0.99843 0.87002 0.3011 0.0
C138 C 0.07402 0.87513 0.33345 0.0
O139 O 0.03399 0.82987 0.30326 0.0
Mg140 Mg 0.28272 0.25163 0.60296 0.0
O141 O 0.24716 0.22537 0.60364 0.0
O142 O 0.24345 0.219 0.62588 0.0
Mg143 Mg 0.2762 0.24113 0.63934 0.0
C144 C 0.23567 0.21549 0.613 0.0
C145 C 0.28614 0.2511 0.57243 0.0
O146 O 0.30616 0.24871 0.57888 0.0
O147 O 0.25884 0.26631 0.60727 0.0
O148 O 0.25736 0.25964 0.62961 0.0
O149 O 0.30664 0.23563 0.60558 0.0
O150 O 0.29825 0.24676 0.62281 0.0
C151 C 0.25179 0.2674 0.61857 0.0
C152 C 0.30789 0.23688 0.6187 0.0
O153 O 0.27159 0.25323 0.57952 0.0
Mg154 Mg 0.71077 0.37594 0.76086 0.0
O155 O 0.73966 0.38413 0.78102 0.0
O156 O 0.74591 0.36083 0.79208 0.0
Mg157 Mg 0.72404 0.33541 0.77849 0.0
C158 C 0.74998 0.37753 0.79125 0.0
C159 C 0.70191 0.41087 0.75903 0.0
O160 O 0.68077 0.39898 0.76254 0.0
O161 O 0.74388 0.37852 0.74981 0.0
O162 O 0.7289 0.35408 0.76092 0.0
O163 O 0.68037 0.36622 0.7739 0.0
O164 O 0.6977 0.34852 0.76887 0.0
C165 C 0.74694 0.36485 0.75523 0.0
C166 C 0.68317 0.35128 0.77582 0.0
O167 O 0.71837 0.40554 0.75683 0.0
Mg168 Mg 0.45945 0.18742 0.1602 0.0
O169 O 0.48516 0.17294 0.1681 0.0
O170 O 0.4901 0.15958 0.15055 0.0
Mg171 Mg 0.46495 0.16461 0.13122 0.0
C172 C 0.49476 0.1636 0.16335 0.0
C173 C 0.45961 0.20896 0.18495 0.0
O174 O 0.43886 0.20847 0.17689 0.0
O175 O 0.49172 0.20918 0.15073 0.0
O176 O 0.49198 0.19452 0.13246 0.0
O177 O 0.42654 0.16218 0.16371 0.0
O178 O 0.44115 0.16925 0.14398 0.0
C179 C 0.50017 0.20878 0.13977 0.0
C180 C 0.42614 0.15759 0.15133 0.0
O181 O 0.4727 0.20194 0.18078 0.0
Mg182 Mg 0.76135 0.73166 0.4011 0.0
O183 O 0.79089 0.76092 0.40149 0.0
O184 O 0.80085 0.76697 0.38033 0.0
Mg185 Mg 0.77771 0.74215 0.36659 0.0
C186 C 0.80341 0.77161 0.39281 0.0
C187 C 0.7514 0.7244 0.43091 0.0
O188 O 0.75373 0.70975 0.42805 0.0
O189 O 0.73163 0.74122 0.38959 0.0
O190 O 0.74216 0.74629 0.36855 0.0
O191 O 0.79358 0.72369 0.40687 0.0
O192 O 0.77599 0.72576 0.38528 0.0
C193 C 0.72796 0.74587 0.37702 0.0
C194 C 0.79474 0.72465 0.39383 0.0
O195 O 0.75309 0.73632 0.42166 0.0
Mg196 Mg 0.2407 0.12792 0.75664 0.0
O197 O 0.22458 0.11599 0.7347 0.0
O198 O 0.21576 0.13544 0.71954 0.0
Mg199 Mg 0.22547 0.16195 0.73073 0.0
C200 C 0.21676 0.12014 0.72249 0.0
C201 C 0.2305 0.0883 0.7639 0.0
O202 O 0.20757 0.08789 0.76159 0.0
O203 O 0.28016 0.14231 0.74958 0.0
O204 O 0.25589 0.15594 0.74358 0.0
O205 O 0.20077 0.12034 0.76011 0.0
O206 O 0.22172 0.14615 0.75055 0.0
C207 C 0.27519 0.15384 0.74177 0.0
C208 C 0.20076 0.13486 0.75394 0.0
O209 O 0.2492 0.10329 0.7632 0.0
Mg210 Mg 0.99084 0.49292 0.90317 0.0
O211 O 0.96577 0.46252 0.90268 0.0
O212 O 0.95256 0.45356 0.88055 0.0
Mg213 Mg 0.97239 0.47769 0.86731 0.0
C214 C 0.95291 0.45043 0.89345 0.0
C215 C 0.02034 0.50318 0.93348 0.0
O216 O 0.03546 0.51724 0.92737 0.0
O217 O 0.02355 0.48676 0.89964 0.0
O218 O 0.01088 0.47771 0.8776 0.0
O219 O 0.95557 0.4972 0.90082 0.0
O220 O 0.97299 0.49538 0.88323 0.0
C221 C 0.02695 0.481 0.88883 0.0
C222 C 0.95366 0.49523 0.88769 0.0
O223 O 0.00152 0.49112 0.92624 0.0
Mg224 Mg 0.98107 0.50251 0.10164 0.0
O225 O 0.00393 0.53307 0.10118 0.0
O226 O 0.0083 0.54303 0.1225 0.0
Mg227 Mg 0.98537 0.51994 0.13561 0.0
C228 C 0.013 0.54563 0.11019 0.0
C229 C 0.97803 0.49236 0.07147 0.0
O230 O 0.95396 0.48437 0.07253 0.0
O231 O 0.01698 0.50145 0.11437 0.0
O232 O 0.01644 0.51026 0.13524 0.0
O233 O 0.94526 0.50644 0.09494 0.0
O234 O 0.96248 0.50534 0.11669 0.0
C235 C 0.02643 0.50479 0.12714 0.0
C236 C 0.94586 0.5087 0.10789 0.0
O237 O 0.99406 0.50061 0.08187 0.0
Mg238 Mg 0.5012 0.49907 0.40161 0.0
O239 O 0.47562 0.46855 0.40062 0.0
O240 O 0.46334 0.46028 0.37832 0.0
Mg241 Mg 0.48454 0.48426 0.36555 0.0
C242 C 0.46294 0.45671 0.39113 0.0
C243 C 0.50219 0.50524 0.43197 0.0
O244 O 0.48845 0.51359 0.42551 0.0
O245 O 0.53325 0.49164 0.39901 0.0
O246 O 0.52074 0.48205 0.37713 0.0
O247 O 0.4665 0.50421 0.39854 0.0
O248 O 0.48404 0.50149 0.38137 0.0
C249 C 0.53614 0.48482 0.38857 0.0
C250 C 0.4646 0.50163 0.38553 0.0
O251 O 0.51126 0.49771 0.42495 0.0
Mg252 Mg 0.27422 0.74612 0.1029 0.0
O253 O 0.24086 0.7193 0.10538 0.0
O254 O 0.24 0.71413 0.12791 0.0
Mg255 Mg 0.27099 0.73884 0.13969 0.0
C256 C 0.23118 0.70947 0.11525 0.0
C257 C 0.26796 0.75785 0.07185 0.0
O258 O 0.28124 0.77391 0.07742 0.0
O259 O 0.24912 0.76019 0.10648 0.0
O260 O 0.24864 0.7548 0.12902 0.0
O261 O 0.29944 0.73134 0.10607 0.0
O262 O 0.29228 0.7442 0.12284 0.0
C263 C 0.24187 0.76149 0.11767 0.0
C264 C 0.30187 0.73402 0.11913 0.0
O265 O 0.26099 0.74421 0.07965 0.0
Mg266 Mg 0.95903 0.69092 0.15759 0.0
O267 O 0.98528 0.67756 0.1676 0.0
O268 O 0.9898 0.66148 0.15171 0.0
Mg269 Mg 0.96588 0.66473 0.13126 0.0
C270 C 0.99466 0.66727 0.16408 0.0
C271 C 0.96689 0.70083 0.18832 0.0
O272 O 0.95575 0.68319 0.18895 0.0
O273 O 0.9918 0.71135 0.14777 0.0
O274 O 0.99332 0.69454 0.13126 0.0
O275 O 0.9264 0.66611 0.1622 0.0
O276 O 0.9416 0.67079 0.14267 0.0
C277 C 0.00114 0.70954 0.13756 0.0
C278 C 0.92676 0.66 0.15052 0.0
O279 O 0.97101 0.70827 0.17673 0.0
Mg280 Mg 0.25614 0.73253 0.89722 0.0
O281 O 0.28435 0.76207 0.898 0.0
O282 O 0.29166 0.77032 0.87656 0.0
Mg283 Mg 0.26737 0.74655 0.86203 0.0
C284 C 0.29555 0.77378 0.88943 0.0
C285 C 0.25553 0.72559 0.92875 0.0
O286 O 0.2616 0.71264 0.92576 0.0
O287 O 0.22404 0.74146 0.88824 0.0
O288 O 0.23212 0.74816 0.86678 0.0
O289 O 0.28911 0.72484 0.89996 0.0
O290 O 0.26893 0.72862 0.87961 0.0
C291 C 0.21863 0.74645 0.87593 0.0
C292 C 0.28832 0.72662 0.88675 0.0
O293 O 0.25129 0.73574 0.91914 0.0
Mg294 Mg 0.21686 0.8739 0.76522 0.0
O295 O 0.24126 0.88363 0.7861 0.0
O296 O 0.24581 0.86098 0.79871 0.0
Mg297 Mg 0.22381 0.83573 0.78495 0.0
C298 C 0.25005 0.87762 0.79718 0.0
C299 C 0.21149 0.90951 0.75773 0.0
O300 O 0.1881 0.89802 0.75816 0.0
O301 O 0.25112 0.87229 0.75808 0.0
O302 O 0.25206 0.8482 0.77018 0.0
O303 O 0.18316 0.86757 0.77546 0.0
O304 O 0.19944 0.8481 0.77332 0.0
C305 C 0.26052 0.86064 0.76147 0.0
C306 C 0.18397 0.85212 0.77854 0.0
O307 O 0.22868 0.90359 0.75928 0.0
Mg308 Mg 0.49621 0.99632 0.90426 0.0
O309 O 0.47134 0.96606 0.9036 0.0
O310 O 0.46463 0.9564 0.88195 0.0
Mg311 Mg 0.48613 0.98028 0.86911 0.0
C312 C 0.4615 0.95353 0.89453 0.0
C313 C 0.51639 0.00828 0.9353 0.0
O314 O 0.52754 0.02409 0.92975 0.0
O315 O 0.52975 0.98934 0.90405 0.0
O316 O 0.52274 0.98034 0.88223 0.0
O317 O 0.4613 0.0013 0.89889 0.0
O318 O 0.48167 0.9979 0.88336 0.0
C319 C 0.53596 0.98346 0.89434 0.0
C320 C 0.46149 0.99859 0.88614 0.0
O321 O 0.5027 0.99477 0.92753 0.0
Mg322 Mg 0.22839 0.6223 0.25386 0.0
O323 O 0.21039 0.61084 0.23235 0.0
O324 O 0.22044 0.63492 0.21854 0.0
Mg325 Mg 0.23221 0.66047 0.23167 0.0
C326 C 0.21163 0.61786 0.22036 0.0
C327 C 0.25031 0.59372 0.26684 0.0
O328 O 0.27064 0.60804 0.27151 0.0
O329 O 0.26453 0.63172 0.2444 0.0
O330 O 0.27068 0.66029 0.24131 0.0
O331 O 0.19021 0.61931 0.25798 0.0
O332 O 0.2166 0.64314 0.24856 0.0
C333 C 0.27743 0.64752 0.24038 0.0
C334 C 0.19429 0.63428 0.25137 0.0
O335 O 0.23096 0.59563 0.26006 0.0
Mg336 Mg 0.54482 0.85781 0.81428 0.0
O337 O 0.5165 0.84309 0.82862 0.0
O338 O 0.50755 0.86336 0.83801 0.0
Mg339 Mg 0.53245 0.89138 0.83063 0.0
C340 C 0.50445 0.84713 0.83636 0.0
C341 C 0.55011 0.83103 0.79613 0.0
O342 O 0.56915 0.84609 0.79392 0.0
O343 O 0.5128 0.86154 0.79892 0.0
O344 O 0.50854 0.88358 0.80905 0.0
O345 O 0.57655 0.8616 0.83213 0.0
O346 O 0.55903 0.88094 0.82597 0.0
C347 C 0.50267 0.87271 0.79901 0.0
C348 C 0.57463 0.87634 0.83456 0.0
O349 O 0.5361 0.83117 0.80443 0.0
Mg350 Mg 0.49248 0.50388 0.6017 0.0
O351 O 0.51825 0.53406 0.60137 0.0
O352 O 0.51501 0.54721 0.61965 0.0
Mg353 Mg 0.48938 0.52504 0.63241 0.0
C354 C 0.52406 0.54799 0.60868 0.0
C355 C 0.49152 0.48853 0.57476 0.0
O356 O 0.46805 0.48084 0.57697 0.0
O357 O 0.52408 0.50109 0.61764 0.0
O358 O 0.51998 0.51398 0.63579 0.0
O359 O 0.45989 0.5099 0.59098 0.0
O360 O 0.4705 0.50902 0.61366 0.0
C361 C 0.5308 0.50613 0.63026 0.0
C362 C 0.45697 0.51277 0.60313 0.0
O363 O 0.50836 0.49906 0.58393 0.0
Mg364 Mg 0.77681 0.75503 0.60427 0.0
O365 O 0.74461 0.72707 0.60545 0.0
O366 O 0.74462 0.71924 0.62774 0.0
Mg367 Mg 0.77249 0.74402 0.64059 0.0
C368 C 0.73619 0.71579 0.61489 0.0
C369 C 0.78153 0.75833 0.57416 0.0
O370 O 0.8045 0.76156 0.58079 0.0
O371 O 0.74998 0.767 0.60848 0.0
O372 O 0.74803 0.75898 0.63054 0.0
O373 O 0.80316 0.7414 0.60624 0.0
O374 O 0.79473 0.75168 0.62399 0.0
C375 C 0.74137 0.7664 0.61956 0.0
C376 C 0.80465 0.74223 0.61944 0.0
O377 O 0.76411 0.75539 0.5811 0.0
Mg378 Mg 0.74124 0.63238 0.75609 0.0
O379 O 0.71788 0.6181 0.73639 0.0
O380 O 0.725 0.63946 0.72018 0.0
Mg381 Mg 0.74048 0.66721 0.73136 0.0
C382 C 0.71598 0.62289 0.72379 0.0
C383 C 0.72613 0.59214 0.76405 0.0
O384 O 0.70391 0.59292 0.76203 0.0
O385 O 0.77381 0.6395 0.74387 0.0
O386 O 0.77922 0.66769 0.7406 0.0
O387 O 0.70526 0.6308 0.76255 0.0
O388 O 0.72828 0.65269 0.75015 0.0
C389 C 0.78526 0.65489 0.73875 0.0
C390 C 0.70731 0.64456 0.75467 0.0
O391 O 0.74574 0.60651 0.76327 0.0
Mg392 Mg 0.45851 0.6861 0.66087 0.0
O393 O 0.48705 0.67519 0.67201 0.0
O394 O 0.49444 0.65948 0.65703 0.0
Mg395 Mg 0.46874 0.65937 0.63627 0.0
C396 C 0.49843 0.6659 0.66911 0.0
C397 C 0.46039 0.69911 0.69012 0.0
O398 O 0.44429 0.68225 0.69069 0.0
O399 O 0.48971 0.70673 0.65007 0.0
O400 O 0.49288 0.68953 0.63443 0.0
O401 O 0.42732 0.66058 0.66619 0.0
O402 O 0.44308 0.66499 0.64687 0.0
C403 C 0.49914 0.70485 0.63991 0.0
C404 C 0.42837 0.65426 0.65477 0.0
O405 O 0.46931 0.70492 0.67909 0.0
Mg406 Mg 0.26845 0.23161 0.39967 0.0
O407 O 0.29566 0.2615 0.39954 0.0
O408 O 0.30795 0.26737 0.37887 0.0
Mg409 Mg 0.28886 0.24148 0.36608 0.0
C410 C 0.30832 0.27229 0.39095 0.0
C411 C 0.25528 0.22419 0.42847 0.0
O412 O 0.25935 0.2102 0.42572 0.0
O413 O 0.23802 0.23886 0.38618 0.0
O414 O 0.25128 0.24386 0.36584 0.0
O415 O 0.30209 0.22593 0.40769 0.0
O416 O 0.28678 0.22624 0.38543 0.0
C417 C 0.23546 0.24302 0.37342 0.0
C418 C 0.30522 0.22658 0.39499 0.0
O419 O 0.2567 0.23613 0.41926 0.0
Mg420 Mg 0.21688 0.37364 0.2693 0.0
O421 O 0.24124 0.38176 0.29028 0.0
O422 O 0.24399 0.35858 0.30278 0.0
Mg423 Mg 0.22163 0.33431 0.28798 0.0
C424 C 0.24943 0.37541 0.30134 0.0
C425 C 0.21512 0.41077 0.26148 0.0
O426 O 0.19081 0.40031 0.25929 0.0
O427 O 0.25072 0.37169 0.26216 0.0
O428 O 0.25138 0.34741 0.27406 0.0
O429 O 0.18306 0.36748 0.27938 0.0
O430 O 0.1983 0.34762 0.27638 0.0
C431 C 0.26026 0.36014 0.26561 0.0
C432 C 0.18292 0.35162 0.28171 0.0
O433 O 0.23093 0.40367 0.2648 0.0
Mg434 Mg 0.54764 0.36022 0.31148 0.0
O435 O 0.51968 0.34599 0.32619 0.0
O436 O 0.51847 0.36663 0.33945 0.0
Mg437 Mg 0.54421 0.39423 0.33211 0.0
C438 C 0.51147 0.35027 0.33589 0.0
C439 C 0.5363 0.32048 0.30282 0.0
O440 O 0.54844 0.31973 0.31531 0.0
O441 O 0.51741 0.36796 0.29829 0.0
O442 O 0.51643 0.38878 0.31144 0.0
O443 O 0.57805 0.35866 0.32815 0.0
O444 O 0.56658 0.38155 0.32517 0.0
C445 C 0.50848 0.37918 0.30046 0.0
C446 C 0.57925 0.37354 0.33269 0.0
O447 O 0.53313 0.33469 0.29892 0.0
H448 H 0.04469 0.02866 0.45767 0.0
H449 H 0.04257 0.0228 0.48222 0.0
H450 H 0.98161 0.97071 0.47214 0.0
H451 H 0.98353 0.97641 0.44764 0.0
H452 H 0.97157 0.98953 0.49046 0.0
H453 H 0.03789 0.97247 0.4856 0.0
H454 H 0.07774 0.97626 0.4785 0.0
H455 H 0.11881 0.02195 0.50555 0.0
H456 H 0.07911 0.01862 0.51266 0.0
H457 H 0.9689 0.96224 0.55971 0.0
H458 H 0.97497 0.9617 0.53592 0.0
H459 H 0.0369 0.01412 0.54177 0.0
H460 H 0.03121 0.01471 0.56563 0.0
H461 H 0.04571 0.99228 0.52538 0.0
H462 H 0.97832 0.01051 0.52854 0.0
H463 H 0.93817 0.00675 0.53528 0.0
H464 H 0.89873 0.95832 0.51101 0.0
H465 H 0.93875 0.96166 0.50428 0.0
C466 C 0.03091 0.01594 0.46068 0.0
C467 C 0.01432 0.003 0.45071 0.0
C468 C 0.02978 0.01258 0.4747 0.0
C469 C 0.01204 0.99627 0.47897 0.0
C470 C 0.99543 0.98337 0.46904 0.0
C471 C 0.99663 0.98666 0.45505 0.0
C472 C 0.01043 0.99283 0.49378 0.0
C473 C 0.98764 0.98982 0.49808 0.0
C474 C 0.03151 0.99345 0.50368 0.0
C475 C 0.05549 0.99539 0.49957 0.0
C476 C 0.05539 0.98341 0.48996 0.0
C477 C 0.07795 0.98546 0.48595 0.0
C478 C 0.10079 0.99936 0.49155 0.0
C479 C 0.1011 0.0112 0.50121 0.0
C480 C 0.07857 0.00923 0.50525 0.0
C481 C 0.98414 0.97351 0.55603 0.0
C482 C 0.99931 0.98866 0.56448 0.0
C483 C 0.98753 0.97319 0.54242 0.0
C484 C 0.00605 0.98803 0.53703 0.0
C485 C 0.02241 0.00258 0.54573 0.0
C486 C 0.01907 0.00291 0.55935 0.0
C487 C 0.00694 0.98918 0.52207 0.0
C488 C 0.02958 0.99179 0.51774 0.0
C489 C 0.98567 0.98816 0.5121 0.0
C490 C 0.96157 0.98623 0.51604 0.0
C491 C 0.96111 0.99899 0.52472 0.0
C492 C 0.93838 0.99694 0.52853 0.0
C493 C 0.91592 0.98227 0.52361 0.0
C494 C 0.91615 0.96965 0.51483 0.0
C495 C 0.93885 0.97162 0.51102 0.0
H496 H 0.89834 0.98071 0.52657 0.0
H497 H 0.11824 0.00093 0.48842 0.0
H498 H 0.99709 0.29197 0.79407 0.0
H499 H 0.98524 0.26782 0.77739 0.0
H500 H 0.06354 0.28537 0.77342 0.0
H501 H 0.07562 0.30952 0.79013 0.0
H502 H 0.03173 0.28487 0.74876 0.0
H503 H 0.03452 0.24516 0.78673 0.0
H504 H 0.02442 0.23016 0.8088 0.0
H505 H 0.94534 0.207 0.79127 0.0
H506 H 0.95493 0.22205 0.76913 0.0
H507 H 0.01158 0.22095 0.69882 0.0
H508 H 0.02641 0.23797 0.72041 0.0
H509 H 0.94955 0.21843 0.72766 0.0
H510 H 0.93454 0.20103 0.70614 0.0
H511 H 0.98176 0.21899 0.7514 0.0
H512 H 0.97686 0.25993 0.7149 0.0
H513 H 0.98457 0.2757 0.69281 0.0
H514 H 0.06471 0.29753 0.70766 0.0
H515 H 0.05749 0.28169 0.72978 0.0
C516 C 0.01187 0.29046 0.78986 0.0
C517 C 0.03726 0.30282 0.79325 0.0
C518 C 0.00507 0.27658 0.7804 0.0
C519 C 0.02352 0.27485 0.77416 0.0
C520 C 0.04904 0.2865 0.77814 0.0
C521 C 0.05589 0.3003 0.78769 0.0
C522 C 0.01582 0.2626 0.7622 0.0
C523 C 0.02129 0.2704 0.7494 0.0
C524 C 0.00128 0.24387 0.76297 0.0
C525 C 0.99543 0.23487 0.77629 0.0
C526 C 0.01495 0.237 0.78761 0.0
C527 C 0.00932 0.22845 0.80013 0.0
C528 C 0.98425 0.21766 0.80145 0.0
C529 C 0.96475 0.21537 0.79024 0.0
C530 C 0.97028 0.22389 0.7777 0.0
C531 C 0.9978 0.22022 0.705 0.0
C532 C 0.97184 0.2098 0.70068 0.0
C533 C 0.00632 0.22996 0.71735 0.0
C534 C 0.98904 0.22967 0.72555 0.0
C535 C 0.96319 0.21886 0.72148 0.0
C536 C 0.95465 0.209 0.70915 0.0
C537 C 0.99793 0.24128 0.73801 0.0
C538 C 0.9925 0.23342 0.75083 0.0
C539 C 0.0122 0.26007 0.73728 0.0
C540 C 0.01665 0.26946 0.72393 0.0
C541 C 0.99614 0.26795 0.7134 0.0
C542 C 0.00042 0.27694 0.70089 0.0
C543 C 0.02512 0.28757 0.69882 0.0
C544 C 0.04559 0.28926 0.70927 0.0
C545 C 0.04142 0.2803 0.7218 0.0
H546 H 0.02839 0.29453 0.68913 0.0
H547 H 0.97993 0.21105 0.81114 0.0
H548 H 0.72386 0.21925 0.94836 0.0
H549 H 0.73249 0.2295 0.97205 0.0
H550 H 0.80359 0.27165 0.96529 0.0
H551 H 0.79506 0.26134 0.94127 0.0
H552 H 0.80663 0.25192 0.99013 0.0
H553 H 0.75793 0.28366 0.96755 0.0
H554 H 0.72224 0.2868 0.95173 0.0
H555 H 0.66992 0.24879 0.97568 0.0
H556 H 0.70527 0.24522 0.99155 0.0
H557 H 0.81977 0.28507 0.05723 0.0
H558 H 0.81697 0.28404 0.03225 0.0
H559 H 0.74097 0.24284 0.02876 0.0
H560 H 0.74348 0.24392 0.05377 0.0
H561 H 0.74458 0.26719 0.00832 0.0
H562 H 0.7908 0.23212 0.0286 0.0
H563 H 0.82496 0.22648 0.04397 0.0
H564 H 0.88049 0.26854 0.02411 0.0
H565 H 0.84664 0.27461 0.00873 0.0
C566 C 0.74133 0.23075 0.95183 0.0
C567 C 0.75876 0.23949 0.94292 0.0
C568 C 0.74618 0.23663 0.96539 0.0
C569 C 0.76851 0.25145 0.97038 0.0
C570 C 0.78618 0.26022 0.96159 0.0
C571 C 0.78126 0.25435 0.9479 0.0
C572 C 0.77316 0.25724 0.98491 0.0
C573 C 0.79348 0.25574 0.99409 0.0
C574 C 0.75557 0.26174 0.99007 0.0
C575 C 0.73427 0.26413 0.98072 0.0
C576 C 0.7388 0.27591 0.96942 0.0
C577 C 0.71863 0.27777 0.96044 0.0
C578 C 0.69382 0.26799 0.96269 0.0
C579 C 0.68915 0.25637 0.97395 0.0
C580 C 0.70925 0.25445 0.98296 0.0
C581 C 0.80236 0.27586 0.05115 0.0
C582 C 0.78189 0.26448 0.05751 0.0
C583 C 0.80085 0.27527 0.03687 0.0
C584 C 0.7789 0.2632 0.02866 0.0
C585 C 0.75811 0.25224 0.03491 0.0
C586 C 0.7596 0.25284 0.04921 0.0
C587 C 0.77781 0.26156 0.01362 0.0
C588 C 0.7581 0.2638 0.00436 0.0
C589 C 0.79583 0.25757 0.0084 0.0
C590 C 0.81622 0.25398 0.01764 0.0
C591 C 0.81031 0.24028 0.0276 0.0
C592 C 0.82961 0.23698 0.03629 0.0
C593 C 0.85489 0.24719 0.03505 0.0
C594 C 0.86091 0.26068 0.02508 0.0
C595 C 0.84167 0.26405 0.01637 0.0
H596 H 0.8698 0.24461 0.04179 0.0
H597 H 0.67822 0.26943 0.95572 0.0
H598 H 0.75241 0.07442 0.27982 0.0
H599 H 0.74972 0.04411 0.27686 0.0
H600 H 0.71856 0.04505 0.2338 0.0
H601 H 0.72065 0.07516 0.23668 0.0
H602 H 0.69342 0.01229 0.25809 0.0
H603 H 0.76106 0.04524 0.23081 0.0
H604 H 0.80217 0.06961 0.228 0.0
H605 H 0.83871 0.05156 0.26408 0.0
H606 H 0.79766 0.02729 0.26725 0.0
H607 H 0.68343 0.92882 0.2365 0.0
H608 H 0.69015 0.96046 0.23599 0.0
H609 H 0.7565 0.97272 0.26751 0.0
H610 H 0.75029 0.94113 0.26783 0.0
H611 H 0.76436 0.99926 0.24886 0.0
H612 H 0.69974 0.96844 0.27714 0.0
H613 H 0.65984 0.94431 0.2821 0.0
H614 H 0.61873 0.95797 0.24558 0.0
H615 H 0.65849 0.98185 0.24029 0.0
C616 C 0.74476 0.06813 0.26973 0.0
C617 C 0.73641 0.07714 0.25851 0.0
C618 C 0.74336 0.05084 0.26806 0.0
C619 C 0.73374 0.0423 0.25515 0.0
C620 C 0.72553 0.05125 0.24391 0.0
C621 C 0.72677 0.0685 0.24557 0.0
C622 C 0.73132 0.0237 0.25364 0.0
C623 C 0.7087 0.00941 0.25576 0.0
C624 C 0.75168 0.02003 0.25124 0.0
C625 C 0.77625 0.03467 0.24939 0.0
C626 C 0.77779 0.04665 0.23826 0.0
C627 C 0.8011 0.06039 0.23657 0.0
C628 C 0.82302 0.06218 0.24589 0.0
C629 C 0.8217 0.0502 0.2569 0.0
C630 C 0.79842 0.03645 0.25865 0.0
C631 C 0.69961 0.93826 0.24323 0.0
C632 C 0.71618 0.9324 0.2523 0.0
C633 C 0.70336 0.95635 0.24298 0.0
C634 C 0.72353 0.96891 0.25192 0.0
C635 C 0.74075 0.96326 0.26056 0.0
C636 C 0.73713 0.94518 0.26074 0.0
C637 C 0.72597 0.98771 0.2527 0.0
C638 C 0.7488 0.00208 0.25083 0.0
C639 C 0.70579 0.99149 0.25534 0.0
C640 C 0.68195 0.97703 0.25841 0.0
C641 C 0.68216 0.96625 0.27018 0.0
C642 C 0.6596 0.9526 0.27303 0.0
C643 C 0.63674 0.94965 0.26419 0.0
C644 C 0.63641 0.96032 0.25246 0.0
C645 C 0.65893 0.97395 0.24956 0.0
H646 H 0.6193 0.93908 0.26642 0.0
H647 H 0.84106 0.07281 0.24455 0.0
H648 H 0.52675 0.01722 0.06559 0.0
H649 H 0.53309 0.01977 0.04162 0.0
H650 H 0.48109 0.96427 0.03431 0.0
H651 H 0.47408 0.96164 0.0583 0.0
H652 H 0.52966 0.97722 0.023 0.0
H653 H 0.45682 0.98956 0.02335 0.0
H654 H 0.43203 0.00413 0.03096 0.0
H655 H 0.48544 0.05589 0.0203 0.0
H656 H 0.51079 0.04164 0.01283 0.0
H657 H 0.49893 0.97702 0.94972 0.0
H658 H 0.4994 0.97354 0.97453 0.0
H659 H 0.53898 0.03108 0.98002 0.0
H660 H 0.53844 0.03474 0.95509 0.0
H661 H 0.49765 0.01706 0.99257 0.0
H662 H 0.56942 0.00424 0.99097 0.0
H663 H 0.59316 0.98924 0.9828 0.0
H664 H 0.54116 0.93802 0.9953 0.0
H665 H 0.51689 0.95269 0.00338 0.0
C666 C 0.51692 0.00545 0.05897 0.0
C667 C 0.49984 0.98922 0.06382 0.0
C668 C 0.5205 0.00698 0.04527 0.0
C669 C 0.50742 0.99225 0.03626 0.0
C670 C 0.49131 0.97577 0.04118 0.0
C671 C 0.48734 0.9743 0.05485 0.0
C672 C 0.50977 0.99443 0.02153 0.0
C673 C 0.52244 0.98574 0.01626 0.0
C674 C 0.50077 0.00588 0.01293 0.0
C675 C 0.48592 0.01455 0.01773 0.0
C676 C 0.46349 0.00407 0.02282 0.0
C677 C 0.44928 0.01227 0.02706 0.0
C678 C 0.45721 0.03093 0.02616 0.0
C679 C 0.47936 0.04144 0.02102 0.0
C680 C 0.49366 0.03331 0.01679 0.0
C681 C 0.50795 0.98895 0.9562 0.0
C682 C 0.51852 0.00619 0.95044 0.0
C683 C 0.50834 0.98691 0.97039 0.0
C684 C 0.51937 0.00204 0.9791 0.0
C685 C 0.53041 0.01924 0.97344 0.0
C686 C 0.53012 0.0213 0.95922 0.0
C687 C 0.51773 0.99994 0.99397 0.0
C688 C 0.50508 0.00862 0.99929 0.0
C689 C 0.5267 0.98844 0.00257 0.0
C690 C 0.5412 0.97955 0.99767 0.0
C691 C 0.56291 0.98976 0.99187 0.0
C692 C 0.57649 0.98132 0.98728 0.0
C693 C 0.56864 0.96268 0.9885 0.0
C694 C 0.54721 0.95245 0.99434 0.0
C695 C 0.53355 0.96083 0.99895 0.0
H696 H 0.57919 0.95617 0.98494 0.0
H697 H 0.44614 0.03725 0.02942 0.0
H698 H 0.07039 0.82539 0.27482 0.0
H699 H 0.05495 0.79946 0.25939 0.0
H700 H 0.99809 0.76927 0.2841 0.0
H701 H 0.01299 0.79532 0.29949 0.0
H702 H 0.03262 0.75224 0.26974 0.0
H703 H 0.96799 0.77701 0.26344 0.0
H704 H 0.95596 0.80279 0.26189 0.0
H705 H 0.99667 0.82435 0.22828 0.0
H706 H 0.00928 0.79881 0.22982 0.0
H707 H 0.95791 0.6895 0.21439 0.0
H708 H 0.97032 0.70809 0.23514 0.0
H709 H 0.00571 0.75562 0.2115 0.0
H710 H 0.99301 0.73724 0.19073 0.0
H711 H 0.97777 0.76109 0.22763 0.0
H712 H 0.04029 0.73577 0.23282 0.0
H713 H 0.05372 0.71069 0.2343 0.0
H714 H 0.01827 0.69023 0.26987 0.0
H715 H 0.00431 0.71508 0.26848 0.0
C716 C 0.05492 0.81314 0.27715 0.0
C717 C 0.04266 0.81246 0.28824 0.0
C718 C 0.04622 0.79834 0.26836 0.0
C719 C 0.02543 0.78257 0.27066 0.0
C720 C 0.01423 0.78136 0.28225 0.0
C721 C 0.02265 0.79627 0.29094 0.0
C722 C 0.01349 0.76856 0.25984 0.0
C723 C 0.02019 0.75387 0.26064 0.0
C724 C 0.99765 0.77097 0.24796 0.0
C725 C 0.98977 0.78614 0.24684 0.0
C726 C 0.97455 0.78734 0.25581 0.0
C727 C 0.96759 0.80188 0.25492 0.0
C728 C 0.97559 0.81522 0.24501 0.0
C729 C 0.99051 0.81402 0.23596 0.0
C730 C 0.99755 0.79951 0.23683 0.0
C731 C 0.96834 0.70391 0.21362 0.0
C732 C 0.9745 0.71191 0.20093 0.0
C733 C 0.97548 0.7145 0.22549 0.0
C734 C 0.98908 0.73321 0.22487 0.0
C735 C 0.99515 0.7412 0.2122 0.0
C736 C 0.98795 0.73067 0.20034 0.0
C737 C 0.99702 0.74467 0.23733 0.0
C738 C 0.98971 0.75907 0.23682 0.0
C739 C 0.01221 0.74188 0.24946 0.0
C740 C 0.02104 0.72717 0.25046 0.0
C741 C 0.03523 0.72586 0.24091 0.0
C742 C 0.04295 0.7117 0.24173 0.0
C743 C 0.03679 0.69884 0.25215 0.0
C744 C 0.02299 0.70018 0.2618 0.0
C745 C 0.01519 0.71431 0.261 0.0
H746 H 0.04275 0.68787 0.25276 0.0
H747 H 0.97018 0.82647 0.24433 0.0
H748 H 0.25841 0.20361 0.45118 0.0
H749 H 0.25714 0.20946 0.4748 0.0
H750 H 0.24252 0.25627 0.46133 0.0
H751 H 0.24459 0.25078 0.43758 0.0
H752 H 0.27834 0.26468 0.48273 0.0
H753 H 0.1964 0.21737 0.47326 0.0
H754 H 0.16362 0.18769 0.46504 0.0
H755 H 0.20078 0.16152 0.49466 0.0
H756 H 0.23398 0.19102 0.50293 0.0
H757 H 0.2565 0.26504 0.55489 0.0
H758 H 0.24656 0.26269 0.5295 0.0
H759 H 0.29162 0.23217 0.53044 0.0
H760 H 0.30224 0.23489 0.55557 0.0
H761 H 0.23378 0.21791 0.51495 0.0
H762 H 0.31954 0.26614 0.52063 0.0
H763 H 0.35202 0.29617 0.52823 0.0
H764 H 0.30514 0.32086 0.50513 0.0
H765 H 0.27216 0.29091 0.49759 0.0
C766 C 0.25458 0.21502 0.45317 0.0
C767 C 0.2517 0.22677 0.4425 0.0
C768 C 0.25367 0.21829 0.46671 0.0
C769 C 0.2494 0.23319 0.46986 0.0
C770 C 0.24579 0.24467 0.45915 0.0
C771 C 0.24693 0.2415 0.44559 0.0
C772 C 0.25087 0.23746 0.48449 0.0
C773 C 0.26808 0.25455 0.48969 0.0
C774 C 0.23768 0.22425 0.49365 0.0
C775 C 0.21777 0.20644 0.48867 0.0
C776 C 0.19769 0.20529 0.47796 0.0
C777 C 0.17901 0.18849 0.4733 0.0
C778 C 0.18013 0.17273 0.47931 0.0
C779 C 0.19992 0.17374 0.49001 0.0
C780 C 0.21866 0.1905 0.49471 0.0
C781 C 0.26437 0.25793 0.54964 0.0
C782 C 0.28014 0.25015 0.55719 0.0
C783 C 0.25876 0.25666 0.53519 0.0
C784 C 0.26847 0.24731 0.52819 0.0
C785 C 0.28408 0.2395 0.53571 0.0
C786 C 0.29014 0.2411 0.55005 0.0
C787 C 0.26163 0.24482 0.51307 0.0
C788 C 0.24344 0.22808 0.50785 0.0
C789 C 0.27373 0.25836 0.50388 0.0
C790 C 0.29317 0.27628 0.5088 0.0
C791 C 0.31594 0.27794 0.51739 0.0
C792 C 0.33451 0.29496 0.52162 0.0
C793 C 0.33059 0.31041 0.51723 0.0
C794 C 0.3081 0.30888 0.50858 0.0
C795 C 0.28946 0.29189 0.50434 0.0
H796 H 0.34502 0.32357 0.52047 0.0
H797 H 0.16565 0.15975 0.47569 0.0
H798 H 0.76575 0.58443 0.76058 0.0
H799 H 0.76653 0.55464 0.76037 0.0
H800 H 0.69121 0.53019 0.77017 0.0
H801 H 0.69011 0.55984 0.77024 0.0
H802 H 0.72581 0.51643 0.7855 0.0
H803 H 0.69704 0.52997 0.73826 0.0
H804 H 0.70102 0.5483 0.71709 0.0
H805 H 0.7697 0.54314 0.71433 0.0
H806 H 0.76632 0.52499 0.73561 0.0
H807 H 0.67217 0.42627 0.76555 0.0
H808 H 0.68185 0.45822 0.76703 0.0
H809 H 0.75325 0.47158 0.75385 0.0
H810 H 0.74371 0.43941 0.75234 0.0
H811 H 0.72768 0.49243 0.74104 0.0
H812 H 0.75505 0.47657 0.78638 0.0
H813 H 0.75242 0.45835 0.80757 0.0
H814 H 0.68934 0.46838 0.81438 0.0
H815 H 0.69133 0.48645 0.7931 0.0
C816 C 0.74948 0.57273 0.76287 0.0
C817 C 0.72782 0.57447 0.7654 0.0
C818 C 0.74993 0.55574 0.76268 0.0
C819 C 0.72886 0.54025 0.76515 0.0
C820 C 0.70765 0.54201 0.76823 0.0
C821 C 0.70704 0.55895 0.76824 0.0
C822 C 0.72836 0.52209 0.76403 0.0
C823 C 0.72608 0.51113 0.77578 0.0
C824 C 0.72962 0.51546 0.75144 0.0
C825 C 0.7316 0.52633 0.73863 0.0
C826 C 0.71312 0.53289 0.73321 0.0
C827 C 0.71524 0.54322 0.72118 0.0
C828 C 0.73564 0.54693 0.71439 0.0
C829 C 0.75394 0.54028 0.71961 0.0
C830 C 0.75192 0.52998 0.73166 0.0
C831 C 0.68989 0.43594 0.76288 0.0
C832 C 0.70723 0.43027 0.7589 0.0
C833 C 0.69543 0.45422 0.76379 0.0
C834 C 0.71842 0.46725 0.76075 0.0
C835 C 0.73546 0.46171 0.75631 0.0
C836 C 0.72998 0.44334 0.75547 0.0
C837 C 0.72445 0.4866 0.76244 0.0
C838 C 0.72779 0.4978 0.75082 0.0
C839 C 0.72446 0.49353 0.77519 0.0
C840 C 0.72322 0.48276 0.78806 0.0
C841 C 0.74048 0.47478 0.79233 0.0
C842 C 0.73913 0.4645 0.80437 0.0
C843 C 0.72069 0.46218 0.8123 0.0
C844 C 0.70361 0.47018 0.80822 0.0
C845 C 0.70486 0.48046 0.79617 0.0
H846 H 0.71967 0.45421 0.82162 0.0
H847 H 0.73725 0.55492 0.70507 0.0
H848 H 0.49399 0.20516 0.20634 0.0
H849 H 0.50796 0.2199 0.22904 0.0
H850 H 0.45782 0.2468 0.21732 0.0
H851 H 0.44327 0.23185 0.19474 0.0
H852 H 0.52157 0.26635 0.22856 0.0
H853 H 0.43487 0.22524 0.23637 0.0
H854 H 0.40135 0.19475 0.2376 0.0
H855 H 0.45285 0.17929 0.26681 0.0
H856 H 0.48678 0.20966 0.26557 0.0
H857 H 0.51071 0.31844 0.27659 0.0
H858 H 0.5003 0.2956 0.25922 0.0
H859 H 0.53242 0.26588 0.28867 0.0
H860 H 0.54318 0.28895 0.30634 0.0
H861 H 0.48409 0.24424 0.27097 0.0
H862 H 0.56721 0.28667 0.26762 0.0
H863 H 0.60193 0.31671 0.26691 0.0
H864 H 0.5606 0.32897 0.22983 0.0
H865 H 0.52545 0.29909 0.23042 0.0
C866 C 0.48578 0.2141 0.20864 0.0
C867 C 0.46758 0.21742 0.19875 0.0
C868 C 0.49367 0.22239 0.22162 0.0
C869 C 0.48364 0.23419 0.22482 0.0
C870 C 0.46545 0.23749 0.21503 0.0
C871 C 0.45724 0.229 0.20215 0.0
C872 C 0.49371 0.24445 0.23787 0.0
C873 C 0.51343 0.26157 0.23785 0.0
C874 C 0.48369 0.2378 0.25007 0.0
C875 C 0.46342 0.21958 0.25069 0.0
C876 C 0.43913 0.21526 0.24289 0.0
C877 C 0.42003 0.19802 0.24364 0.0
C878 C 0.42499 0.18506 0.25223 0.0
C879 C 0.44905 0.18932 0.26012 0.0
C880 C 0.46821 0.20654 0.2594 0.0
C881 C 0.51548 0.30703 0.27948 0.0
C882 C 0.52804 0.30562 0.29282 0.0
C883 C 0.5095 0.29399 0.26952 0.0
C884 C 0.51591 0.27924 0.27265 0.0
C885 C 0.52744 0.27726 0.28609 0.0
C886 C 0.53359 0.29043 0.29613 0.0
C887 C 0.51124 0.26653 0.26147 0.0
C888 C 0.49266 0.24893 0.26181 0.0
C889 C 0.52252 0.27266 0.24956 0.0
C890 C 0.54362 0.29066 0.24912 0.0
C891 C 0.56543 0.29582 0.25937 0.0
C892 C 0.58521 0.31281 0.25898 0.0
C893 C 0.58346 0.32475 0.24834 0.0
C894 C 0.56193 0.31971 0.23806 0.0
C895 C 0.54209 0.30273 0.23841 0.0
H896 H 0.5988 0.3379 0.24805 0.0
H897 H 0.41018 0.17174 0.25281 0.0
H898 H 0.75209 0.7033 0.45368 0.0
H899 H 0.75191 0.71009 0.47737 0.0
H900 H 0.74478 0.75949 0.46376 0.0
H901 H 0.74537 0.75296 0.44005 0.0
H902 H 0.78207 0.76541 0.48524 0.0
H903 H 0.69509 0.72363 0.47438 0.0
H904 H 0.65979 0.695 0.46603 0.0
H905 H 0.68937 0.66624 0.49746 0.0
H906 H 0.72504 0.69468 0.50589 0.0
H907 H 0.73822 0.7562 0.55673 0.0
H908 H 0.72881 0.75231 0.53155 0.0
H909 H 0.80237 0.75248 0.53228 0.0
H910 H 0.81213 0.75677 0.55722 0.0
H911 H 0.72721 0.72399 0.51666 0.0
H912 H 0.82503 0.76993 0.50991 0.0
H913 H 0.85945 0.79904 0.51826 0.0
H914 H 0.80464 0.82018 0.52099 0.0
H915 H 0.76996 0.79104 0.51293 0.0
C916 C 0.75017 0.71551 0.45569 0.0
C917 C 0.74888 0.72764 0.445 0.0
C918 C 0.74995 0.71932 0.46924 0.0
C919 C 0.74817 0.73524 0.47231 0.0
C920 C 0.74617 0.74713 0.4616 0.0
C921 C 0.74649 0.74337 0.44806 0.0
C922 C 0.75027 0.7401 0.48682 0.0
C923 C 0.76985 0.75639 0.49203 0.0
C924 C 0.73434 0.72841 0.49573 0.0
C925 C 0.71283 0.71129 0.49071 0.0
C926 C 0.69416 0.71119 0.47946 0.0
C927 C 0.67407 0.695 0.47472 0.0
C928 C 0.67236 0.67881 0.4812 0.0
C929 C 0.69072 0.67879 0.49245 0.0
C930 C 0.71085 0.69495 0.49722 0.0
C931 C 0.75246 0.7556 0.55148 0.0
C932 C 0.77595 0.75687 0.55894 0.0
C933 C 0.74705 0.75337 0.53713 0.0
C934 C 0.76505 0.75239 0.53005 0.0
C935 C 0.78848 0.75368 0.53749 0.0
C936 C 0.79396 0.75604 0.55178 0.0
C937 C 0.75911 0.7491 0.51498 0.0
C938 C 0.73901 0.73307 0.50973 0.0
C939 C 0.77437 0.76101 0.50597 0.0
C940 C 0.79504 0.77841 0.51086 0.0
C941 C 0.82041 0.78083 0.51229 0.0
C942 C 0.83992 0.79728 0.51703 0.0
C943 C 0.83424 0.81145 0.52016 0.0
C944 C 0.80902 0.80917 0.51862 0.0
C945 C 0.78943 0.79267 0.51405 0.0
H946 H 0.84937 0.82421 0.52376 0.0
H947 H 0.65679 0.66629 0.47751 0.0
H948 H 0.27374 0.08308 0.76404 0.0
H949 H 0.27768 0.05424 0.7648 0.0
H950 H 0.19909 0.02628 0.76881 0.0
H951 H 0.19501 0.05491 0.76814 0.0
H952 H 0.22977 0.01192 0.78549 0.0
H953 H 0.21617 0.03143 0.73793 0.0
H954 H 0.22848 0.05419 0.71973 0.0
H955 H 0.29995 0.05025 0.72382 0.0
H956 H 0.28833 0.02782 0.74235 0.0
H957 H 0.17947 0.92585 0.75769 0.0
H958 H 0.19023 0.95786 0.75992 0.0
H959 H 0.26857 0.96989 0.75942 0.0
H960 H 0.25803 0.93759 0.75736 0.0
H961 H 0.24693 0.99397 0.7427 0.0
H962 H 0.2589 0.97187 0.78836 0.0
H963 H 0.24807 0.95058 0.80759 0.0
H964 H 0.18145 0.95993 0.80758 0.0
H965 H 0.19163 0.98105 0.78816 0.0
C966 C 0.25741 0.07081 0.7653 0.0
C967 C 0.23399 0.07127 0.7659 0.0
C968 C 0.25969 0.05435 0.7657 0.0
C969 C 0.2386 0.03812 0.76672 0.0
C970 C 0.21559 0.03865 0.76802 0.0
C971 C 0.21327 0.05503 0.76756 0.0
C972 C 0.23966 0.02046 0.76542 0.0
C973 C 0.23354 0.00799 0.77615 0.0
C974 C 0.24523 0.01552 0.75335 0.0
C975 C 0.25153 0.02813 0.74164 0.0
C976 C 0.23457 0.03549 0.735 0.0
C977 C 0.24146 0.04839 0.72467 0.0
C978 C 0.26508 0.05377 0.72071 0.0
C979 C 0.28173 0.04614 0.72697 0.0
C980 C 0.27502 0.03335 0.73739 0.0
C981 C 0.19898 0.93524 0.75788 0.0
C982 C 0.21791 0.92912 0.75741 0.0
C983 C 0.20508 0.95355 0.75918 0.0
C984 C 0.23019 0.96618 0.75995 0.0
C985 C 0.24906 0.9603 0.75885 0.0
C986 C 0.243 0.94186 0.75768 0.0
C987 C 0.23642 0.98533 0.76265 0.0
C988 C 0.24375 0.99802 0.75216 0.0
C989 C 0.2321 0.99054 0.77497 0.0
C990 C 0.22592 0.97794 0.78672 0.0
C991 C 0.24181 0.96927 0.79237 0.0
C992 C 0.23582 0.95725 0.80332 0.0
C993 C 0.21406 0.95388 0.80879 0.0
C994 C 0.19828 0.96255 0.80333 0.0
C995 C 0.20417 0.97456 0.79235 0.0
H996 H 0.20944 0.94457 0.81727 0.0
H997 H 0.27039 0.06376 0.71271 0.0
H998 H 0.99006 0.47693 0.94871 0.0
H999 H 0.99019 0.47736 0.97339 0.0
H1000 H 0.05629 0.52759 0.97758 0.0
H1001 H 0.05615 0.52754 0.95264 0.0
H1002 H 0.04746 0.4923 -0.00047 0.0
H1003 H 0.02054 0.53951 0.97977 0.0
H1004 H 0.99655 0.55151 0.96167 0.0
H1005 H 0.9272 0.50721 0.9675 0.0
H1006 H 0.95088 0.49483 0.98552 0.0
H1007 H 0.02599 0.50914 0.06564 0.0
H1008 H 0.03891 0.51211 0.04311 0.0
H1009 H 0.96171 0.48004 0.02455 0.0
H1010 H 0.94854 0.4772 0.04699 0.0
H1011 H 0.98174 0.5102 0.01027 0.0
H1012 H 0.00646 0.46295 0.02958 0.0
H1013 H 0.02853 0.44862 0.04681 0.0
H1014 H 0.10025 0.49053 0.04145 0.0
H1015 H 0.07856 0.50525 0.02431 0.0
C1016 C 0.00489 0.48798 0.95485 0.0
C1017 C 0.02293 0.50233 0.94868 0.0
C1018 C 0.00494 0.48815 0.96895 0.0
C1019 C 0.02314 0.50253 0.97718 0.0
C1020 C 0.04213 0.51639 0.9713 0.0
C1021 C 0.04196 0.51634 0.95709 0.0
C1022 C 0.02044 0.50357 0.99159 0.0
C1023 C 0.03362 0.49665 0.00204 0.0
C1024 C 0.0018 0.50872 0.99462 0.0
C1025 C 0.9875 0.51617 0.98387 0.0
C1026 C 0.00021 0.53225 0.97709 0.0
C1027 C 0.98666 0.53914 0.96688 0.0
C1028 C 0.96037 0.5301 0.96341 0.0
C1029 C 0.94757 0.51418 0.97018 0.0
C1030 C 0.96104 0.50724 0.98041 0.0
C1031 C 0.01178 0.50258 0.05678 0.0
C1032 C 0.9862 0.49298 0.05808 0.0
C1033 C 0.01923 0.50425 0.04393 0.0
C1034 C 0.00128 0.49626 0.03218 0.0
C1035 C 0.97584 0.48637 0.0335 0.0
C1036 C 0.96836 0.4847 0.04634 0.0
C1037 C 0.00868 0.49881 0.01838 0.0
C1038 C 0.99613 0.50627 0.00797 0.0
C1039 C 0.02783 0.49406 0.01543 0.0
C1040 C 0.04088 0.48532 0.0258 0.0
C1041 C 0.02693 0.46921 0.03218 0.0
C1042 C 0.03937 0.46099 0.04191 0.0
C1043 C 0.06577 0.46869 0.04526 0.0
C1044 C 0.07979 0.48461 0.03887 0.0
C1045 C 0.06744 0.49288 0.02914 0.0
H1046 H 0.07537 0.4623 0.05278 0.0
H1047 H 0.94992 0.53546 0.9555 0.0
H1048 H 0.53881 0.49785 0.4494 0.0
H1049 H 0.54378 0.49531 0.47462 0.0
H1050 H 0.47757 0.50606 0.47369 0.0
H1051 H 0.47335 0.50948 0.44873 0.0
H1052 H 0.5104 0.52322 0.49388 0.0
H1053 H 0.47764 0.46237 0.47705 0.0
H1054 H 0.47736 0.43741 0.46421 0.0
H1055 H 0.5483 0.4428 0.489 0.0
H1056 H 0.54915 0.46796 0.50187 0.0
H1057 H 0.45777 0.47512 0.55119 0.0
H1058 H 0.46684 0.4775 0.52778 0.0
H1059 H 0.54693 0.50134 0.54363 0.0
H1060 H 0.53809 0.49946 0.56721 0.0
H1061 H 0.51457 0.46838 0.51743 0.0
H1062 H 0.54326 0.53119 0.53441 0.0
H1063 H 0.53606 0.55317 0.54702 0.0
H1064 H 0.46384 0.54038 0.52088 0.0
H1065 H 0.47044 0.51805 0.50831 0.0
C1066 C 0.52543 0.49974 0.45464 0.0
C1067 C 0.50568 0.50384 0.44714 0.0
C1068 C 0.52821 0.49821 0.46902 0.0
C1069 C 0.51088 0.50028 0.47606 0.0
C1070 C 0.49128 0.5045 0.46853 0.0
C1071 C 0.48883 0.5064 0.45424 0.0
C1072 C 0.51268 0.49793 0.49123 0.0
C1073 C 0.51148 0.51125 0.49898 0.0
C1074 C 0.51416 0.48235 0.49799 0.0
C1075 C 0.51361 0.46717 0.49031 0.0
C1076 C 0.49326 0.45831 0.4797 0.0
C1077 C 0.49299 0.44412 0.47242 0.0
C1078 C 0.51284 0.43856 0.47576 0.0
C1079 C 0.53296 0.44714 0.48641 0.0
C1080 C 0.53335 0.46136 0.4937 0.0
C1081 C 0.47735 0.48056 0.54977 0.0
C1082 C 0.49724 0.48729 0.56102 0.0
C1083 C 0.48245 0.48187 0.5364 0.0
C1084 C 0.50749 0.48965 0.53408 0.0
C1085 C 0.52748 0.4953 0.54531 0.0
C1086 C 0.5224 0.49427 0.55872 0.0
C1087 C 0.51224 0.49362 0.51982 0.0
C1088 C 0.51434 0.48055 0.51228 0.0
C1089 C 0.51094 0.50918 0.51314 0.0
C1090 C 0.50723 0.52283 0.52054 0.0
C1091 C 0.52575 0.53294 0.53146 0.0
C1092 C 0.52179 0.54548 0.53858 0.0
C1093 C 0.49947 0.54813 0.53478 0.0
C1094 C 0.4811 0.53829 0.52383 0.0
C1095 C 0.48494 0.52569 0.51671 0.0
H1096 H 0.49645 0.55785 0.54031 0.0
H1097 H 0.5126 0.42757 0.47012 0.0
H1098 H 0.25403 0.72651 0.05796 0.0
H1099 H 0.2518 0.72264 0.03333 0.0
H1100 H 0.27094 0.7793 0.02681 0.0
H1101 H 0.2739 0.78346 0.05161 0.0
H1102 H 0.2251 0.74989 0.00728 0.0
H1103 H 0.3151 0.7732 0.02533 0.0
H1104 H 0.35278 0.77411 0.04172 0.0
H1105 H 0.33496 0.71934 0.03158 0.0
H1106 H 0.29696 0.71804 0.01525 0.0
H1107 H 0.24933 0.75358 0.93884 0.0
H1108 H 0.25054 0.75985 0.96288 0.0
H1109 H 0.26164 0.71153 0.9755 0.0
H1110 H 0.26103 0.70538 0.9515 0.0
H1111 H 0.29294 0.73827 0.99215 0.0
H1112 H 0.2041 0.71394 0.9745 0.0
H1113 H 0.165 0.7111 0.95857 0.0
H1114 H 0.1783 0.76512 0.96834 0.0
H1115 H 0.21767 0.76836 0.98421 0.0
C1116 C 0.25754 0.73815 0.0513 0.0
C1117 C 0.26417 0.75532 0.05674 0.0
C1118 C 0.25634 0.73591 0.03724 0.0
C1119 C 0.26133 0.75069 0.02833 0.0
C1120 C 0.26707 0.76774 0.03358 0.0
C1121 C 0.26875 0.77009 0.04772 0.0
C1122 C 0.26106 0.74822 0.01359 0.0
C1123 C 0.24011 0.74768 0.00387 0.0
C1124 C 0.28028 0.74475 0.00934 0.0
C1125 C 0.30303 0.74546 0.01919 0.0
C1126 C 0.31906 0.76129 0.02671 0.0
C1127 C 0.34052 0.76189 0.03596 0.0
C1128 C 0.34622 0.74677 0.03772 0.0
C1129 C 0.3305 0.73103 0.03022 0.0
C1130 C 0.30901 0.73036 0.02096 0.0
C1131 C 0.25188 0.74422 0.94672 0.0
C1132 C 0.25502 0.72895 0.94324 0.0
C1133 C 0.25249 0.74779 0.96046 0.0
C1134 C 0.25593 0.73607 0.97101 0.0
C1135 C 0.25898 0.72078 0.96755 0.0
C1136 C 0.25853 0.71725 0.95381 0.0
C1137 C 0.25689 0.73993 0.98566 0.0
C1138 C 0.27796 0.74064 0.99544 0.0
C1139 C 0.23758 0.74333 0.98998 0.0
C1140 C 0.21397 0.74146 0.98043 0.0
C1141 C 0.1988 0.72527 0.97316 0.0
C1142 C 0.17656 0.72357 0.96417 0.0
C1143 C 0.16921 0.73794 0.96242 0.0
C1144 C 0.18404 0.75401 0.96969 0.0
C1145 C 0.20631 0.75578 0.9787 0.0
H1146 H 0.15198 0.7366 0.95546 0.0
H1147 H 0.36285 0.74727 0.04487 0.0
H1148 H 0.26118 0.43587 0.27343 0.0
H1149 H 0.2738 0.46837 0.27553 0.0
H1150 H 0.20123 0.46282 0.25234 0.0
H1151 H 0.18835 0.43037 0.25033 0.0
H1152 H 0.24397 0.49216 0.24403 0.0
H1153 H 0.20998 0.46529 0.28589 0.0
H1154 H 0.20935 0.44785 0.30743 0.0
H1155 H 0.28582 0.48421 0.32283 0.0
H1156 H 0.28699 0.50175 0.30128 0.0
H1157 H 0.21362 0.56245 0.25532 0.0
H1158 H 0.21495 0.53299 0.2558 0.0
H1159 H 0.28849 0.55403 0.28174 0.0
H1160 H 0.28739 0.58387 0.28131 0.0
H1161 H 0.25522 0.51915 0.28969 0.0
H1162 H 0.28947 0.54801 0.25034 0.0
H1163 H 0.2923 0.56671 0.2294 0.0
H1164 H 0.22026 0.52805 0.20982 0.0
H1165 H 0.21696 0.50916 0.23065 0.0
C1166 C 0.24802 0.44161 0.26864 0.0
C1167 C 0.22375 0.43057 0.26169 0.0
C1168 C 0.25522 0.46014 0.26993 0.0
C1169 C 0.23838 0.46793 0.26416 0.0
C1170 C 0.21448 0.45703 0.25686 0.0
C1171 C 0.20715 0.4385 0.25574 0.0
C1172 C 0.24518 0.48737 0.26587 0.0
C1173 C 0.2464 0.49806 0.25401 0.0
C1174 C 0.24944 0.49523 0.27897 0.0
C1175 C 0.24869 0.48467 0.2919 0.0
C1176 C 0.22674 0.46946 0.29381 0.0
C1177 C 0.22627 0.45959 0.30604 0.0
C1178 C 0.24757 0.46488 0.31647 0.0
C1179 C 0.26936 0.4801 0.31473 0.0
C1180 C 0.26993 0.49002 0.30251 0.0
C1181 C 0.23004 0.56087 0.26124 0.0
C1182 C 0.2505 0.57557 0.2682 0.0
C1183 C 0.23078 0.54401 0.26147 0.0
C1184 C 0.25196 0.54141 0.26865 0.0
C1185 C 0.27203 0.55581 0.27609 0.0
C1186 C 0.27138 0.57283 0.2758 0.0
C1187 C 0.25305 0.5237 0.26778 0.0
C1188 C 0.25335 0.51336 0.27976 0.0
C1189 C 0.25075 0.51622 0.25483 0.0
C1190 C 0.25291 0.52722 0.24209 0.0
C1191 C 0.2742 0.54352 0.24157 0.0
C1192 C 0.27592 0.55414 0.2297 0.0
C1193 C 0.25649 0.54858 0.21826 0.0
C1194 C 0.23537 0.53233 0.21864 0.0
C1195 C 0.23359 0.52162 0.23047 0.0
H1196 H 0.25779 0.5569 0.20913 0.0
H1197 H 0.24716 0.45721 0.32593 0.0
H1198 H 0.4433 0.69161 0.71479 0.0
H1199 H 0.45872 0.71097 0.73529 0.0
H1200 H 0.51222 0.75258 0.71366 0.0
H1201 H 0.49706 0.73336 0.69318 0.0
H1202 H 0.53386 0.74639 0.73972 0.0
H1203 H 0.45865 0.75562 0.71816 0.0
H1204 H 0.41307 0.74593 0.70902 0.0
H1205 H 0.39525 0.7234 0.7484 0.0
H1206 H 0.44073 0.73279 0.75773 0.0
H1207 H 0.57014 0.82804 0.7741 0.0
H1208 H 0.55582 0.802 0.75907 0.0
H1209 H 0.50135 0.77075 0.78493 0.0
H1210 H 0.5151 0.79702 0.79982 0.0
H1211 H 0.47901 0.76737 0.75955 0.0
H1212 H 0.55345 0.76135 0.78232 0.0
H1213 H 0.59865 0.77033 0.79205 0.0
H1214 H 0.61795 0.78533 0.75171 0.0
H1215 H 0.57291 0.77667 0.74174 0.0
C1216 C 0.45829 0.70491 0.71438 0.0
C1217 C 0.46896 0.71096 0.70236 0.0
C1218 C 0.46703 0.71595 0.72609 0.0
C1219 C 0.48656 0.7332 0.72596 0.0
C1220 C 0.49718 0.73927 0.71397 0.0
C1221 C 0.48841 0.7283 0.70226 0.0
C1222 C 0.4962 0.74502 0.73829 0.0
C1223 C 0.52197 0.75111 0.74403 0.0
C1224 C 0.48037 0.75049 0.74425 0.0
C1225 C 0.45305 0.7447 0.73858 0.0
C1226 C 0.44499 0.74845 0.72483 0.0
C1227 C 0.41918 0.74305 0.71962 0.0
C1228 C 0.40127 0.734 0.72811 0.0
C1229 C 0.40914 0.73037 0.74183 0.0
C1230 C 0.43492 0.73574 0.74708 0.0
C1231 C 0.55539 0.81556 0.77673 0.0
C1232 C 0.5436 0.81463 0.78808 0.0
C1233 C 0.54733 0.8006 0.76817 0.0
C1234 C 0.52763 0.78433 0.77092 0.0
C1235 C 0.51656 0.78316 0.78259 0.0
C1236 C 0.52444 0.79819 0.79109 0.0
C1237 C 0.517 0.76927 0.76081 0.0
C1238 C 0.49096 0.76249 0.75546 0.0
C1239 C 0.53257 0.76303 0.75532 0.0
C1240 C 0.55977 0.76846 0.76129 0.0
C1241 C 0.56734 0.76671 0.77553 0.0
C1242 C 0.59294 0.77171 0.78109 0.0
C1243 C 0.61116 0.77842 0.77251 0.0
C1244 C 0.60382 0.78013 0.75835 0.0
C1245 C 0.57824 0.77515 0.75273 0.0
H1246 H 0.63097 0.78228 0.77683 0.0
H1247 H 0.38131 0.72985 0.72406 0.0
H1248 H 0.22809 0.18064 0.61027 0.0
H1249 H 0.18721 0.15454 0.60546 0.0
H1250 H 0.14832 0.1898 0.60203 0.0
H1251 H 0.18926 0.21584 0.60688 0.0
H1252 H 0.12945 0.16221 0.61906 0.0
H1253 H 0.14786 0.16877 0.57336 0.0
H1254 H 0.17421 0.17262 0.55565 0.0
H1255 H 0.17882 0.12215 0.56718 0.0
H1256 H 0.15271 0.11808 0.58506 0.0
H1257 H 0.01248 0.08615 0.6079 0.0
H1258 H 0.04623 0.11539 0.60423 0.0
H1259 H 0.09425 0.08882 0.59921 0.0
H1260 H 0.05959 0.05966 0.60137 0.0
H1261 H 0.10566 0.11488 0.58383 0.0
H1262 H 0.09501 0.11202 0.63274 0.0
H1263 H 0.07112 0.10956 0.65147 0.0
H1264 H 0.05271 0.15326 0.63414 0.0
H1265 H 0.07699 0.15629 0.61552 0.0
C1266 C 0.21076 0.18273 0.60826 0.0
C1267 C 0.21155 0.20007 0.60884 0.0
C1268 C 0.18746 0.16789 0.60547 0.0
C1269 C 0.16468 0.17023 0.60326 0.0
C1270 C 0.16562 0.18769 0.60364 0.0
C1271 C 0.18892 0.20251 0.60636 0.0
C1272 C 0.13996 0.15434 0.60163 0.0
C1273 C 0.12402 0.15197 0.61122 0.0
C1274 C 0.13303 0.14092 0.5915 0.0
C1275 C 0.14844 0.14318 0.58062 0.0
C1276 C 0.1546 0.15853 0.57217 0.0
C1277 C 0.16948 0.16075 0.56209 0.0
C1278 C 0.17822 0.14765 0.56031 0.0
C1279 C 0.17203 0.13228 0.56857 0.0
C1280 C 0.15714 0.13 0.57866 0.0
C1281 C 0.03013 0.08665 0.60575 0.0
C1282 C 0.0335 0.07072 0.60492 0.0
C1283 C 0.04961 0.10338 0.60386 0.0
C1284 C 0.07335 0.10454 0.60195 0.0
C1285 C 0.07629 0.08848 0.60069 0.0
C1286 C 0.05645 0.07176 0.60193 0.0
C1287 C 0.09546 0.12227 0.60167 0.0
C1288 C 0.11092 0.1251 0.59165 0.0
C1289 C 0.1021 0.13611 0.61149 0.0
C1290 C 0.08755 0.13424 0.62268 0.0
C1291 C 0.08581 0.12106 0.63293 0.0
C1292 C 0.07225 0.11959 0.64353 0.0
C1293 C 0.06027 0.13115 0.64393 0.0
C1294 C 0.06201 0.14432 0.63381 0.0
C1295 C 0.07577 0.14599 0.62328 0.0
H1296 H 0.04972 0.12994 0.65212 0.0
H1297 H 0.18977 0.14941 0.55251 0.0
H1298 H 0.75922 0.33821 0.7684 0.0
H1299 H 0.80087 0.33758 0.77431 0.0
H1300 H 0.83308 0.38793 0.75321 0.0
H1301 H 0.79129 0.38898 0.74757 0.0
H1302 H 0.84999 0.36197 0.74721 0.0
H1303 H 0.84395 0.38988 0.78627 0.0
H1304 H 0.827 0.39479 0.80592 0.0
H1305 H 0.82676 0.34533 0.82422 0.0
H1306 H 0.84355 0.34004 0.8046 0.0
H1307 H 0.97876 0.38874 0.78619 0.0
H1308 H 0.9369 0.38708 0.77518 0.0
H1309 H 0.90349 0.33077 0.78541 0.0
H1310 H 0.9456 0.33221 0.79596 0.0
H1311 H 0.8876 0.35968 0.79637 0.0
H1312 H 0.8955 0.33316 0.7562 0.0
H1313 H 0.91728 0.33191 0.73748 0.0
H1314 H 0.91725 0.38245 0.7219 0.0
H1315 H 0.8958 0.38414 0.74067 0.0
C1316 C 0.77509 0.34927 0.7651 0.0
C1317 C 0.77194 0.36382 0.75773 0.0
C1318 C 0.79892 0.34883 0.76846 0.0
C1319 C 0.82008 0.36281 0.76434 0.0
C1320 C 0.81696 0.37705 0.75652 0.0
C1321 C 0.79309 0.37762 0.75332 0.0
C1322 C 0.84541 0.36244 0.76835 0.0
C1323 C 0.85832 0.36164 0.75796 0.0
C1324 C 0.85614 0.36184 0.78238 0.0
C1325 C 0.84476 0.36446 0.79386 0.0
C1326 C 0.83994 0.37991 0.79437 0.0
C1327 C 0.83048 0.38281 0.80555 0.0
C1328 C 0.82583 0.37038 0.81632 0.0
C1329 C 0.83044 0.35497 0.81588 0.0
C1330 C 0.83993 0.35201 0.80473 0.0
C1331 C 0.96258 0.37587 0.78561 0.0
C1332 C 0.96528 0.36055 0.79174 0.0
C1333 C 0.93875 0.37496 0.77938 0.0
C1334 C 0.91723 0.35882 0.77951 0.0
C1335 C 0.91999 0.3433 0.78514 0.0
C1336 C 0.94397 0.34409 0.79105 0.0
C1337 C 0.89182 0.35884 0.77525 0.0
C1338 C 0.87905 0.35978 0.78563 0.0
C1339 C 0.88147 0.35986 0.76125 0.0
C1340 C 0.89432 0.35888 0.74994 0.0
C1341 C 0.9004 0.34411 0.74888 0.0
C1342 C 0.91262 0.34329 0.73823 0.0
C1343 C 0.91872 0.35712 0.72853 0.0
C1344 C 0.91255 0.37176 0.72943 0.0
C1345 C 0.90034 0.37265 0.74007 0.0
H1346 H 0.92818 0.35646 0.7203 0.0
H1347 H 0.81866 0.37268 0.82501 0.0
H1348 H 0.54507 0.08176 0.12433 0.0
H1349 H 0.5792 0.10931 0.11845 0.0
H1350 H 0.58415 0.08248 0.08373 0.0
H1351 H 0.54917 0.05489 0.08924 0.0
H1352 H 0.63172 0.10142 0.10184 0.0
H1353 H 0.56457 0.11243 0.07506 0.0
H1354 H 0.52325 0.11438 0.06875 0.0
H1355 H 0.54497 0.1538 0.10066 0.0
H1356 H 0.58635 0.15193 0.10729 0.0
H1357 H 0.72526 0.1924 0.09022 0.0
H1358 H 0.68829 0.16359 0.08458 0.0
H1359 H 0.66108 0.16874 0.12105 0.0
H1360 H 0.69776 0.19707 0.12674 0.0
H1361 H 0.62409 0.15993 0.09482 0.0
H1362 H 0.68781 0.1429 0.12408 0.0
H1363 H 0.7298 0.14184 0.12926 0.0
H1364 H 0.71405 0.1138 0.09109 0.0
H1365 H 0.67208 0.11498 0.08558 0.0
C1366 C 0.55286 0.0818 0.11522 0.0
C1367 C 0.54396 0.06618 0.10713 0.0
C1368 C 0.57251 0.09754 0.11192 0.0
C1369 C 0.58402 0.09795 0.10058 0.0
C1370 C 0.57535 0.08244 0.09246 0.0
C1371 C 0.55533 0.06672 0.09562 0.0
C1372 C 0.60592 0.11449 0.09788 0.0
C1373 C 0.62998 0.11415 0.09998 0.0
C1374 C 0.60366 0.13108 0.09537 0.0
C1375 C 0.57855 0.13196 0.09172 0.0
C1376 C 0.56047 0.12139 0.08082 0.0
C1377 C 0.53707 0.12255 0.07714 0.0
C1378 C 0.53153 0.13426 0.08426 0.0
C1379 C 0.54934 0.14478 0.09512 0.0
C1380 C 0.57278 0.1437 0.09883 0.0
C1381 C 0.71137 0.1873 0.09702 0.0
C1382 C 0.71448 0.19682 0.10905 0.0
C1383 C 0.69033 0.17091 0.09378 0.0
C1384 C 0.672 0.16415 0.10239 0.0
C1385 C 0.675 0.17377 0.11427 0.0
C1386 C 0.69611 0.18984 0.1176 0.0
C1387 C 0.64974 0.14685 0.09944 0.0
C1388 C 0.62566 0.1471 0.09632 0.0
C1389 C 0.65198 0.1302 0.10092 0.0
C1390 C 0.67699 0.12924 0.10433 0.0
C1391 C 0.6934 0.13666 0.11673 0.0
C1392 C 0.71717 0.13601 0.11974 0.0
C1393 C 0.72463 0.12781 0.11049 0.0
C1394 C 0.70827 0.12019 0.09823 0.0
C1395 C 0.68449 0.12084 0.09516 0.0
H1396 H 0.74304 0.12733 0.11283 0.0
H1397 H 0.51339 0.13512 0.08141 0.0
H1398 H 0.96065 0.84266 0.28487 0.0
H1399 H 0.92135 0.84349 0.27161 0.0
H1400 H 0.95005 0.90022 0.28053 0.0
H1401 H 0.98873 0.89935 0.29393 0.0
H1402 H 0.90678 0.88053 0.29021 0.0
H1403 H 0.93801 0.88436 0.24738 0.0
H1404 H 0.95496 0.87355 0.23056 0.0
H1405 H 0.88841 0.82395 0.22583 0.0
H1406 H 0.87119 0.83435 0.24277 0.0
H1407 H 0.80072 0.89679 0.26281 0.0
H1408 H 0.84392 0.89928 0.26367 0.0
H1409 H 0.81461 0.84276 0.25393 0.0
H1410 H 0.77153 0.84018 0.25326 0.0
H1411 H 0.85818 0.86213 0.24301 0.0
H1412 H 0.83015 0.85222 0.28587 0.0
H1413 H 0.81447 0.85495 0.30672 0.0
H1414 H 0.8731 0.90807 0.31414 0.0
H1415 H 0.88908 0.90581 0.29322 0.0
C1416 C 0.95879 0.85538 0.28362 0.0
C1417 C 0.9775 0.87088 0.29058 0.0
C1418 C 0.93639 0.85586 0.27602 0.0
C1419 C 0.93273 0.87192 0.27513 0.0
C1420 C 0.95241 0.88768 0.28112 0.0
C1421 C 0.97447 0.88715 0.2888 0.0
C1422 C 0.90732 0.87194 0.27019 0.0
C1423 C 0.8965 0.87702 0.27974 0.0
C1424 C 0.89324 0.86619 0.25682 0.0
C1425 C 0.9034 0.86009 0.24644 0.0
C1426 C 0.92705 0.8711 0.24283 0.0
C1427 C 0.9367 0.86505 0.23325 0.0
C1428 C 0.9228 0.84806 0.22716 0.0
C1429 C 0.89917 0.83711 0.23057 0.0
C1430 C 0.88944 0.84309 0.24014 0.0
C1431 C 0.80344 0.88511 0.26024 0.0
C1432 C 0.78284 0.8683 0.25795 0.0
C1433 C 0.82813 0.88649 0.26086 0.0
C1434 C 0.83247 0.87114 0.25904 0.0
C1435 C 0.81172 0.85476 0.25535 0.0
C1436 C 0.78712 0.85332 0.25495 0.0
C1437 C 0.85829 0.87153 0.26291 0.0
C1438 C 0.86891 0.86622 0.2533 0.0
C1439 C 0.87204 0.87644 0.27643 0.0
C1440 C 0.86055 0.87895 0.28785 0.0
C1441 C 0.83929 0.86469 0.29172 0.0
C1442 C 0.83043 0.8661 0.30359 0.0
C1443 C 0.8427 0.88168 0.31169 0.0
C1444 C 0.86354 0.89606 0.30779 0.0
C1445 C 0.8725 0.89473 0.29592 0.0
H1446 H 0.83631 0.88244 0.3211 0.0
H1447 H 0.93033 0.84339 0.21977 0.0
H1448 H 0.1521 0.10902 0.75116 0.0
H1449 H 0.11371 0.1118 0.73876 0.0
H1450 H 0.15731 0.16807 0.73168 0.0
H1451 H 0.19543 0.16553 0.74443 0.0
H1452 H 0.1112 0.16266 0.73642 0.0
H1453 H 0.1446 0.13562 0.70682 0.0
H1454 H 0.15873 0.1124 0.70205 0.0
H1455 H 0.08571 0.07104 0.70582 0.0
H1456 H 0.07111 0.09407 0.71056 0.0
H1457 H 0.04374 0.18478 0.67705 0.0
H1458 H 0.07495 0.17863 0.69418 0.0
H1459 H 0.02555 0.12198 0.69241 0.0
H1460 H 0.99499 0.12814 0.67442 0.0
H1461 H 0.07039 0.12471 0.69425 0.0
H1462 H 0.03465 0.15234 0.72042 0.0
H1463 H 0.02097 0.17546 0.72603 0.0
H1464 H 0.09748 0.21528 0.72997 0.0
H1465 H 0.11158 0.19245 0.72422 0.0
C1466 C 0.15339 0.12206 0.74721 0.0
C1467 C 0.1769 0.13698 0.74852 0.0
C1468 C 0.13146 0.12361 0.74004 0.0
C1469 C 0.13272 0.14005 0.73398 0.0
C1470 C 0.15587 0.15521 0.73613 0.0
C1471 C 0.17772 0.15369 0.74333 0.0
C1472 C 0.1106 0.14132 0.72456 0.0
C1473 C 0.10228 0.15442 0.72717 0.0
C1474 C 0.09852 0.13026 0.71268 0.0
C1475 C 0.10686 0.11652 0.70915 0.0
C1476 C 0.13157 0.12156 0.7066 0.0
C1477 C 0.13966 0.10844 0.70391 0.0
C1478 C 0.1232 0.09024 0.70371 0.0
C1479 C 0.09847 0.08514 0.706 0.0
C1480 C 0.09024 0.09822 0.70864 0.0
C1481 C 0.03962 0.17102 0.68034 0.0
C1482 C 0.01699 0.15692 0.67458 0.0
C1483 C 0.05733 0.16751 0.69024 0.0
C1484 C 0.05235 0.14989 0.69502 0.0
C1485 C 0.0298 0.13571 0.68904 0.0
C1486 C 0.01234 0.13919 0.67879 0.0
C1487 C 0.07105 0.14633 0.70593 0.0
C1488 C 0.07884 0.1328 0.70359 0.0
C1489 C 0.08252 0.15697 0.71812 0.0
C1490 C 0.07414 0.17068 0.7218 0.0
C1491 C 0.04854 0.16604 0.72243 0.0
C1492 C 0.04071 0.1791 0.72563 0.0
C1493 C 0.05833 0.19683 0.72833 0.0
C1494 C 0.08384 0.20153 0.72788 0.0
C1495 C 0.09177 0.18853 0.72467 0.0
H1496 H 0.05221 0.20693 0.73077 0.0
H1497 H 0.12959 0.08009 0.70177 0.0
H1498 H 0.84444 0.28372 0.90816 0.0
H1499 H 0.8705 0.31571 0.91309 0.0
H1500 H 0.80293 0.32528 0.91007 0.0
H1501 H 0.77687 0.29311 0.90545 0.0
H1502 H 0.83343 0.34392 0.89077 0.0
H1503 H 0.84298 0.33515 0.93945 0.0
H1504 H 0.85213 0.32093 0.96152 0.0
H1505 H 0.92838 0.33568 0.95532 0.0
H1506 H 0.9196 0.34976 0.9331 0.0
H1507 H 0.90288 0.43774 0.89387 0.0
H1508 H 0.87473 0.40739 0.89982 0.0
H1509 H 0.93806 0.39218 0.90819 0.0
H1510 H 0.9664 0.42294 0.90266 0.0
H1511 H 0.9073 0.37707 0.92655 0.0
H1512 H 0.89696 0.38277 0.87711 0.0
H1513 H 0.88854 0.39667 0.85473 0.0
H1514 H 0.81412 0.38663 0.86173 0.0
H1515 H 0.82227 0.37299 0.88428 0.0
C1516 C 0.83527 0.29254 0.90926 0.0
C1517 C 0.8088 0.28608 0.90656 0.0
C1518 C 0.85012 0.3108 0.91201 0.0
C1519 C 0.83864 0.32288 0.91186 0.0
C1520 C 0.81214 0.31616 0.91025 0.0
C1521 C 0.79729 0.29781 0.90772 0.0
C1522 C 0.85404 0.3425 0.911 0.0
C1523 C 0.84922 0.35131 0.89874 0.0
C1524 C 0.87516 0.35188 0.92118 0.0
C1525 C 0.88056 0.3434 0.93454 0.0
C1526 C 0.86164 0.33523 0.94273 0.0
C1527 C 0.86678 0.32722 0.95528 0.0
C1528 C 0.89081 0.32738 0.95981 0.0
C1529 C 0.90977 0.33557 0.9518 0.0
C1530 C 0.90473 0.34358 0.93923 0.0
C1531 C 0.91073 0.42793 0.8971 0.0
C1532 C 0.93659 0.43247 0.89775 0.0
C1533 C 0.89469 0.4106 0.90046 0.0
C1534 C 0.90419 0.39739 0.90422 0.0
C1535 C 0.9303 0.40214 0.9053 0.0
C1536 C 0.94642 0.4196 0.90209 0.0
C1537 C 0.88669 0.37846 0.90631 0.0
C1538 C 0.89126 0.36976 0.91869 0.0
C1539 C 0.86542 0.36905 0.89615 0.0
C1540 C 0.86034 0.37702 0.88247 0.0
C1541 C 0.87886 0.38364 0.87393 0.0
C1542 C 0.87414 0.39147 0.86121 0.0
C1543 C 0.85084 0.39258 0.85683 0.0
C1544 C 0.83219 0.38581 0.86515 0.0
C1545 C 0.83685 0.37803 0.8779 0.0
H1546 H 0.8472 0.39861 0.84698 0.0
H1547 H 0.89474 0.32118 0.96953 0.0
H1548 H 0.65342 0.11906 0.25347 0.0
H1549 H 0.6146 0.12169 0.24127 0.0
H1550 H 0.65952 0.16764 0.21906 0.0
H1551 H 0.69798 0.16519 0.23119 0.0
H1552 H 0.62147 0.17293 0.22649 0.0
H1553 H 0.63287 0.12654 0.20461 0.0
H1554 H 0.63841 0.09823 0.20401 0.0
H1555 H 0.56644 0.06878 0.21675 0.0
H1556 H 0.56067 0.09698 0.21763 0.0
H1557 H 0.53736 0.16107 0.15843 0.0
H1558 H 0.5694 0.15521 0.17541 0.0
H1559 H 0.52412 0.14722 0.20697 0.0
H1560 H 0.49263 0.15388 0.19023 0.0
H1561 H 0.55921 0.12174 0.19663 0.0
H1562 H 0.55374 0.17246 0.22151 0.0
H1563 H 0.5511 0.20198 0.22011 0.0
H1564 H 0.61543 0.22406 0.19945 0.0
H1565 H 0.61794 0.19449 0.20041 0.0
C1566 C 0.65494 0.12987 0.24615 0.0
C1567 C 0.67868 0.1418 0.24317 0.0
C1568 C 0.6328 0.13131 0.23914 0.0
C1569 C 0.63416 0.14475 0.22914 0.0
C1570 C 0.65797 0.15716 0.22671 0.0
C1571 C 0.67995 0.15566 0.2336 0.0
C1572 C 0.61101 0.14549 0.22054 0.0
C1573 C 0.60773 0.16163 0.22011 0.0
C1574 C 0.59319 0.13086 0.21204 0.0
C1575 C 0.59648 0.11388 0.21135 0.0
C1576 C 0.61832 0.11404 0.20738 0.0
C1577 C 0.62149 0.09802 0.20698 0.0
C1578 C 0.60282 0.08173 0.21038 0.0
C1579 C 0.58091 0.08142 0.21414 0.0
C1580 C 0.57767 0.09741 0.2146 0.0
C1581 C 0.53416 0.1579 0.16896 0.0
C1582 C 0.51263 0.15804 0.17306 0.0
C1583 C 0.55246 0.1546 0.17863 0.0
C1584 C 0.54926 0.15109 0.19246 0.0
C1585 C 0.52717 0.1503 0.19641 0.0
C1586 C 0.50918 0.15402 0.18684 0.0
C1587 C 0.56958 0.14901 0.20285 0.0
C1588 C 0.57255 0.13276 0.20339 0.0
C1589 C 0.58726 0.16355 0.21138 0.0
C1590 C 0.58569 0.18123 0.21078 0.0
C1591 C 0.56704 0.18354 0.21648 0.0
C1592 C 0.56562 0.20029 0.2158 0.0
C1593 C 0.58301 0.21487 0.20963 0.0
C1594 C 0.60189 0.21274 0.20415 0.0
C1595 C 0.60327 0.19598 0.20473 0.0
H1596 H 0.58193 0.22783 0.20915 0.0
H1597 H 0.60532 0.06934 0.21006 0.0
H1598 H 0.96522 0.93845 0.41841 0.0
H1599 H 0.93926 0.90739 0.4245 0.0
H1600 H 0.89681 0.89828 0.38305 0.0
H1601 H 0.92313 0.92899 0.37675 0.0
H1602 H 0.86759 0.88583 0.40707 0.0
H1603 H 0.93924 0.88499 0.38813 0.0
H1604 H 0.9852 0.89523 0.38905 0.0
H1605 H 0.99262 0.87471 0.43025 0.0
H1606 H 0.94673 0.86473 0.42968 0.0
H1607 H 0.81916 0.80097 0.3764 0.0
H1608 H 0.84735 0.83189 0.38336 0.0
H1609 H 0.85652 0.81536 0.42584 0.0
H1610 H 0.82748 0.7842 0.419 0.0
H1611 H 0.90449 0.84062 0.40957 0.0
H1612 H 0.83364 0.83649 0.42804 0.0
H1613 H 0.78852 0.82729 0.42904 0.0
H1614 H 0.78042 0.85754 0.39233 0.0
H1615 H 0.82543 0.86664 0.39096 0.0
C1616 C 0.95027 0.92982 0.41063 0.0
C1617 C 0.94625 0.93605 0.39708 0.0
C1618 C 0.93548 0.91216 0.41414 0.0
C1619 C 0.91616 0.90067 0.40422 0.0
C1620 C 0.91163 0.90703 0.39083 0.0
C1621 C 0.92677 0.92449 0.38723 0.0
C1622 C 0.90145 0.88163 0.40736 0.0
C1623 C 0.87563 0.87593 0.40775 0.0
C1624 C 0.91229 0.8689 0.40881 0.0
C1625 C 0.93966 0.87436 0.40893 0.0
C1626 C 0.95071 0.8828 0.39742 0.0
C1627 C 0.97674 0.88854 0.39788 0.0
C1628 C 0.99184 0.88569 0.40973 0.0
C1629 C 0.98091 0.87697 0.4211 0.0
C1630 C 0.9549 0.87128 0.42072 0.0
C1631 C 0.82715 0.80385 0.38723 0.0
C1632 C 0.82103 0.79018 0.39716 0.0
C1633 C 0.8432 0.82151 0.39118 0.0
C1634 C 0.85381 0.82582 0.40509 0.0
C1635 C 0.84833 0.81222 0.41506 0.0
C1636 C 0.83174 0.79451 0.41114 0.0
C1637 C 0.87042 0.84476 0.40881 0.0
C1638 C 0.89658 0.85053 0.40949 0.0
C1639 C 0.86002 0.85759 0.4087 0.0
C1640 C 0.83285 0.85204 0.4093 0.0
C1641 C 0.82216 0.84097 0.42006 0.0
C1642 C 0.79662 0.83583 0.42073 0.0
C1643 C 0.78158 0.84178 0.41073 0.0
C1644 C 0.79208 0.85291 0.40006 0.0
C1645 C 0.81762 0.85807 0.39933 0.0
H1646 H 0.76182 0.83781 0.41127 0.0
H1647 H 0.012 0.89022 0.4101 0.0
H1648 H 0.40379 0.14513 0.12541 0.0
H1649 H 0.39443 0.11533 0.1166 0.0
H1650 H 0.41402 0.09843 0.15795 0.0
H1651 H 0.42228 0.12793 0.16687 0.0
H1652 H 0.44123 0.10764 0.12482 0.0
H1653 H 0.38458 0.06754 0.15861 0.0
H1654 H 0.34574 0.059 0.16855 0.0
H1655 H 0.3021 0.05438 0.1278 0.0
H1656 H 0.34087 0.06329 0.11768 0.0
H1657 H 0.44095 0.01591 0.13092 0.0
H1658 H 0.42425 0.0369 0.13664 0.0
H1659 H 0.41904 0.05453 0.0943 0.0
H1660 H 0.43667 0.03394 0.08856 0.0
H1661 H 0.38008 0.04394 0.12645 0.0
H1662 H 0.44273 0.08839 0.09363 0.0
H1663 H 0.48443 0.09848 0.08643 0.0
H1664 H 0.51898 0.09586 0.12849 0.0
H1665 H 0.47733 0.08496 0.13575 0.0
C1666 C 0.40484 0.13473 0.13267 0.0
C1667 C 0.41366 0.13871 0.14679 0.0
C1668 C 0.39942 0.11773 0.12765 0.0
C1669 C 0.40311 0.10459 0.13665 0.0
C1670 C 0.41014 0.10813 0.1509 0.0
C1671 C 0.41504 0.12504 0.15598 0.0
C1672 C 0.40602 0.08953 0.13088 0.0
C1673 C 0.4276 0.09375 0.12496 0.0
C1674 C 0.38865 0.07144 0.1314 0.0
C1675 C 0.36556 0.06638 0.13744 0.0
C1676 C 0.36674 0.06496 0.15181 0.0
C1677 C 0.34476 0.06001 0.15746 0.0
C1678 C 0.32148 0.05623 0.14881 0.0
C1679 C 0.32015 0.0574 0.13449 0.0
C1680 C 0.34212 0.06244 0.12879 0.0
C1681 C 0.43604 0.02413 0.12278 0.0
C1682 C 0.44063 0.02359 0.10936 0.0
C1683 C 0.42633 0.03602 0.12605 0.0
C1684 C 0.42096 0.0475 0.11596 0.0
C1685 C 0.42362 0.04602 0.10229 0.0
C1686 C 0.43346 0.03415 0.09901 0.0
C1687 C 0.41509 0.06215 0.12014 0.0
C1688 C 0.39326 0.05789 0.12593 0.0
C1689 C 0.43244 0.0803 0.11972 0.0
C1690 C 0.457 0.08557 0.11516 0.0
C1691 C 0.45921 0.08964 0.10126 0.0
C1692 C 0.48281 0.09547 0.09717 0.0
C1693 C 0.50434 0.09764 0.10696 0.0
C1694 C 0.50228 0.09388 0.12085 0.0
C1695 C 0.47867 0.08775 0.12495 0.0
H1696 H 0.52263 0.10237 0.10381 0.0
H1697 H 0.30446 0.05234 0.15321 0.0
H1698 H 0.99641 0.84056 0.36418 0.0
H1699 H 0.96377 0.81548 0.37418 0.0
H1700 H 0.94454 0.78464 0.33683 0.0
H1701 H 0.97686 0.80973 0.32677 0.0
H1702 H 0.90358 0.78801 0.34477 0.0
H1703 H 0.97135 0.77114 0.36472 0.0
H1704 H 0.01344 0.77577 0.37794 0.0
H1705 H 0.99328 0.78854 0.41422 0.0
H1706 H 0.95116 0.78424 0.40117 0.0
H1707 H 0.80354 0.71753 0.36916 0.0
H1708 H 0.84302 0.73235 0.35995 0.0
H1709 H 0.87991 0.76089 0.39857 0.0
H1710 H 0.84112 0.74515 0.40805 0.0
H1711 H 0.91321 0.75589 0.38871 0.0
H1712 H 0.85112 0.77998 0.36838 0.0
H1713 H 0.81032 0.77879 0.3553 0.0
H1714 H 0.82049 0.755 0.32074 0.0
H1715 H 0.86153 0.75635 0.33349 0.0
C1716 C 0.98516 0.82845 0.35814 0.0
C1717 C 0.98875 0.82725 0.34462 0.0
C1718 C 0.96682 0.81404 0.36391 0.0
C1719 C 0.95177 0.79822 0.35623 0.0
C1720 C 0.95599 0.79674 0.34292 0.0
C1721 C 0.97448 0.81107 0.33721 0.0
C1722 C 0.93 0.784 0.3615 0.0
C1723 C 0.90568 0.78071 0.35424 0.0
C1724 C 0.93281 0.7749 0.37404 0.0
C1725 C 0.95815 0.77751 0.38193 0.0
C1726 C 0.97595 0.7751 0.37549 0.0
C1727 C 0.99981 0.77762 0.38296 0.0
C1728 C 0.00605 0.78248 0.3969 0.0
C1729 C 0.98842 0.78479 0.40342 0.0
C1730 C 0.96454 0.78229 0.39599 0.0
C1731 C 0.82036 0.72653 0.37579 0.0
C1732 C 0.81933 0.73018 0.3893 0.0
C1733 C 0.84282 0.7352 0.37048 0.0
C1734 C 0.86428 0.74825 0.37839 0.0
C1735 C 0.86366 0.75097 0.3922 0.0
C1736 C 0.84146 0.7419 0.39765 0.0
C1737 C 0.88663 0.76007 0.37208 0.0
C1738 C 0.91108 0.76299 0.37914 0.0
C1739 C 0.88402 0.76917 0.35947 0.0
C1740 C 0.85918 0.76806 0.35193 0.0
C1741 C 0.84456 0.7744 0.35803 0.0
C1742 C 0.82145 0.77374 0.35067 0.0
C1743 C 0.81273 0.76667 0.33728 0.0
C1744 C 0.82722 0.7604 0.33114 0.0
C1745 C 0.85045 0.7612 0.33839 0.0
H1746 H 0.79481 0.76613 0.33163 0.0
H1747 H 0.02453 0.78442 0.40267 0.0
H1748 H 0.25903 0.17091 0.71969 0.0
H1749 H 0.27608 0.18064 0.69864 0.0
H1750 H 0.33632 0.16371 0.71429 0.0
H1751 H 0.31817 0.15271 0.73548 0.0
H1752 H 0.33695 0.2063 0.70019 0.0
H1753 H 0.31924 0.14227 0.69401 0.0
H1754 H 0.29088 0.11016 0.69548 0.0
H1755 H 0.23133 0.119 0.66795 0.0
H1756 H 0.2591 0.15124 0.66662 0.0
H1757 H 0.35358 0.24166 0.63434 0.0
H1758 H 0.36048 0.22349 0.65439 0.0
H1759 H 0.28153 0.18685 0.64568 0.0
H1760 H 0.27554 0.204 0.62511 0.0
H1761 H 0.30372 0.16872 0.65773 0.0
H1762 H 0.30668 0.22668 0.66754 0.0
H1763 H 0.32268 0.25981 0.66724 0.0
H1764 H 0.39577 0.26402 0.68811 0.0
H1765 H 0.38022 0.23087 0.68838 0.0
C1766 C 0.27558 0.16888 0.71875 0.0
C1767 C 0.28687 0.16069 0.72928 0.0
C1768 C 0.28541 0.17456 0.70664 0.0
C1769 C 0.30717 0.17263 0.70485 0.0
C1770 C 0.31919 0.16499 0.71543 0.0
C1771 C 0.30888 0.15882 0.72752 0.0
C1772 C 0.31715 0.17944 0.69195 0.0
C1773 C 0.33067 0.19806 0.69094 0.0
C1774 C 0.30764 0.1687 0.67988 0.0
C1775 C 0.29121 0.1492 0.68033 0.0
C1776 C 0.30002 0.1374 0.68838 0.0
C1777 C 0.28405 0.11917 0.68918 0.0
C1778 C 0.25928 0.11256 0.68186 0.0
C1779 C 0.25048 0.12414 0.67365 0.0
C1780 C 0.26634 0.14239 0.67287 0.0
C1781 C 0.3381 0.22929 0.63648 0.0
C1782 C 0.31399 0.22421 0.62838 0.0
C1783 C 0.34191 0.21903 0.648 0.0
C1784 C 0.32135 0.20408 0.65188 0.0
C1785 C 0.29776 0.19831 0.64305 0.0
C1786 C 0.29421 0.20821 0.63134 0.0
C1787 C 0.32308 0.19582 0.66583 0.0
C1788 C 0.31142 0.17698 0.667 0.0
C1789 C 0.33296 0.20647 0.67804 0.0
C1790 C 0.34244 0.22636 0.67778 0.0
C1791 C 0.32622 0.23469 0.67196 0.0
C1792 C 0.33519 0.25346 0.67181 0.0
C1793 C 0.36026 0.26402 0.6776 0.0
C1794 C 0.37639 0.25582 0.68358 0.0
C1795 C 0.36752 0.23705 0.68373 0.0
H1796 H 0.36717 0.27855 0.67749 0.0
H1797 H 0.24694 0.09847 0.68254 0.0
H1798 H 0.76313 0.36971 0.81831 0.0
H1799 H 0.79453 0.39047 0.8362 0.0
H1800 H 0.80896 0.43398 0.8069 0.0
H1801 H 0.77756 0.41347 0.78908 0.0
H1802 H 0.85284 0.42748 0.82184 0.0
H1803 H 0.77683 0.43381 0.82981 0.0
H1804 H 0.73376 0.42088 0.83546 0.0
H1805 H 0.76058 0.40062 0.87368 0.0
H1806 H 0.80378 0.41331 0.8682 0.0
H1807 H 0.94094 0.5009 0.86032 0.0
H1808 H 0.90234 0.48218 0.84494 0.0
H1809 H 0.87284 0.451 0.87988 0.0
H1810 H 0.91031 0.47081 0.89532 0.0
H1811 H 0.83548 0.44876 0.86307 0.0
H1812 H 0.90626 0.43726 0.85737 0.0
H1813 H 0.94941 0.44401 0.85338 0.0
H1814 H 0.9339 0.4668 0.81393 0.0
H1815 H 0.89059 0.46002 0.81762 0.0
C1816 C 0.77293 0.3837 0.81572 0.0
C1817 C 0.76801 0.38995 0.80229 0.0
C1818 C 0.79069 0.39555 0.82596 0.0
C1819 C 0.80392 0.41371 0.82282 0.0
C1820 C 0.79884 0.41999 0.80948 0.0
C1821 C 0.78088 0.40826 0.79934 0.0
C1822 C 0.82419 0.42609 0.83312 0.0
C1823 C 0.8491 0.43236 0.83077 0.0
C1824 C 0.8193 0.43154 0.84514 0.0
C1825 C 0.79346 0.42435 0.84853 0.0
C1826 C 0.77351 0.4265 0.83938 0.0
C1827 C 0.74908 0.41924 0.84256 0.0
C1828 C 0.74442 0.40988 0.8549 0.0
C1829 C 0.76421 0.40785 0.86412 0.0
C1830 C 0.78867 0.4151 0.86099 0.0
C1831 C 0.92577 0.49043 0.86471 0.0
C1832 C 0.92857 0.4872 0.87895 0.0
C1833 C 0.90391 0.4795 0.85591 0.0
C1834 C 0.88514 0.46455 0.86113 0.0
C1835 C 0.8871 0.46225 0.87551 0.0
C1836 C 0.90852 0.47364 0.88435 0.0
C1837 C 0.86444 0.45078 0.85162 0.0
C1838 C 0.83944 0.44404 0.85415 0.0
C1839 C 0.86933 0.44415 0.84007 0.0
C1840 C 0.89534 0.44832 0.83783 0.0
C1841 C 0.91213 0.44379 0.84788 0.0
C1842 C 0.93656 0.44757 0.84565 0.0
C1843 C 0.94444 0.45594 0.83346 0.0
C1844 C 0.9278 0.46037 0.82339 0.0
C1845 C 0.90328 0.45649 0.82551 0.0
H1846 H 0.9634 0.45892 0.83179 0.0
H1847 H 0.72549 0.40424 0.85733 0.0
H1848 H 0.19831 0.58153 0.22006 0.0
H1849 H 0.17712 0.56102 0.20039 0.0
H1850 H 0.18189 0.60604 0.1735 0.0
H1851 H 0.20315 0.62672 0.19311 0.0
H1852 H 0.13366 0.58146 0.17415 0.0
H1853 H 0.21179 0.5815 0.16901 0.0
H1854 H 0.25234 0.57842 0.17509 0.0
H1855 H 0.21305 0.52234 0.18365 0.0
H1856 H 0.17228 0.52518 0.17825 0.0
H1857 H 0.06467 0.5286 0.11562 0.0
H1858 H 0.10592 0.54693 0.12896 0.0
H1859 H 0.09036 0.50969 0.16282 0.0
H1860 H 0.04817 0.49196 0.14984 0.0
H1861 H 0.14737 0.53146 0.15647 0.0
H1862 H 0.07031 0.53372 0.1656 0.0
H1863 H 0.03041 0.53771 0.16075 0.0
H1864 H 0.06941 0.59142 0.14662 0.0
H1865 H 0.10926 0.58727 0.15035 0.0
C1866 C 0.19524 0.58713 0.20992 0.0
C1867 C 0.2019 0.60574 0.2082 0.0
C1868 C 0.18341 0.57538 0.19867 0.0
C1869 C 0.178 0.58202 0.18551 0.0
C1870 C 0.18601 0.60068 0.1836 0.0
C1871 C 0.19802 0.61246 0.19483 0.0
C1872 C 0.16011 0.56946 0.17445 0.0
C1873 C 0.13692 0.57079 0.17003 0.0
C1874 C 0.1642 0.5552 0.1695 0.0
C1875 C 0.18886 0.55361 0.17333 0.0
C1876 C 0.21175 0.56857 0.17244 0.0
C1877 C 0.23482 0.56686 0.17574 0.0
C1878 C 0.23527 0.55021 0.17975 0.0
C1879 C 0.21267 0.53524 0.18056 0.0
C1880 C 0.18957 0.53691 0.17744 0.0
C1881 C 0.07061 0.52372 0.12558 0.0
C1882 C 0.05334 0.50887 0.13174 0.0
C1883 C 0.09409 0.53433 0.13324 0.0
C1884 C 0.10083 0.52978 0.14692 0.0
C1885 C 0.08532 0.51338 0.15227 0.0
C1886 C 0.06136 0.50315 0.14482 0.0
C1887 C 0.12109 0.54356 0.15632 0.0
C1888 C 0.14447 0.54237 0.16045 0.0
C1889 C 0.11724 0.55799 0.16115 0.0
C1890 C 0.09271 0.55988 0.15776 0.0
C1891 C 0.07026 0.54609 0.16088 0.0
C1892 C 0.04764 0.54845 0.15844 0.0
C1893 C 0.04734 0.56479 0.15331 0.0
C1894 C 0.06966 0.57878 0.15058 0.0
C1895 C 0.09219 0.57631 0.15265 0.0
H1896 H 0.02985 0.56665 0.1515 0.0
H1897 H 0.25314 0.54889 0.18223 0.0
H1898 H 0.72811 0.27618 0.13842 0.0
H1899 H 0.68696 0.27539 0.14016 0.0
H1900 H 0.66122 0.26265 0.0968 0.0
H1901 H 0.70261 0.26323 0.09495 0.0
H1902 H 0.64001 0.28584 0.10988 0.0
H1903 H 0.64391 0.22852 0.11141 0.0
H1904 H 0.65944 0.20478 0.11762 0.0
H1905 H 0.66293 0.21309 0.16063 0.0
H1906 H 0.64722 0.23694 0.1546 0.0
H1907 H 0.5118 0.21886 0.11413 0.0
H1908 H 0.55326 0.23896 0.10874 0.0
H1909 H 0.58066 0.25311 0.15181 0.0
H1910 H 0.53902 0.23331 0.15726 0.0
H1911 H 0.60096 0.23176 0.138 0.0
H1912 H 0.58596 0.28569 0.13315 0.0
H1913 H 0.56267 0.30422 0.12359 0.0
H1914 H 0.5742 0.29798 0.08286 0.0
H1915 H 0.59723 0.27917 0.09215 0.0
C1916 C 0.71404 0.27381 0.12912 0.0
C1917 C 0.71849 0.2695 0.11659 0.0
C1918 C 0.69053 0.27341 0.13014 0.0
C1919 C 0.67103 0.26878 0.11865 0.0
C1920 C 0.67613 0.26633 0.10576 0.0
C1921 C 0.6998 0.26669 0.10473 0.0
C1922 C 0.6447 0.26334 0.12088 0.0
C1923 C 0.6313 0.27396 0.11592 0.0
C1924 C 0.6334 0.24785 0.12875 0.0
C1925 C 0.64484 0.23469 0.13258 0.0
C1926 C 0.64847 0.22554 0.12221 0.0
C1927 C 0.65716 0.21198 0.12569 0.0
C1928 C 0.66232 0.20747 0.13953 0.0
C1929 C 0.65899 0.21663 0.14992 0.0
C1930 C 0.65015 0.23015 0.14647 0.0
C1931 C 0.52637 0.2268 0.12238 0.0
C1932 C 0.52232 0.22438 0.13614 0.0
C1933 C 0.54998 0.23838 0.11926 0.0
C1934 C 0.56995 0.24751 0.12987 0.0
C1935 C 0.56535 0.24631 0.14347 0.0
C1936 C 0.54157 0.23498 0.14657 0.0
C1937 C 0.59627 0.25442 0.12732 0.0
C1938 C 0.6097 0.24386 0.13214 0.0
C1939 C 0.60693 0.26954 0.11894 0.0
C1940 C 0.59313 0.28087 0.11334 0.0
C1941 C 0.58331 0.2881 0.12214 0.0
C1942 C 0.57021 0.2987 0.11677 0.0
C1943 C 0.56691 0.30224 0.10262 0.0
C1944 C 0.57676 0.29522 0.09382 0.0
C1945 C 0.58987 0.28461 0.09913 0.0
H1946 H 0.55676 0.31045 0.09849 0.0
H1947 H 0.6686 0.19675 0.1422 0.0
H1948 H 0.68692 0.86661 0.30531 0.0
H1949 H 0.68548 0.84814 0.32623 0.0
H1950 H 0.656 0.80034 0.30107 0.0
H1951 H 0.65832 0.81877 0.28018 0.0
H1952 H 0.6397 0.80619 0.33351 0.0
H1953 H 0.69767 0.79628 0.30586 0.0
H1954 H 0.73242 0.80615 0.29242 0.0
H1955 H 0.77856 0.84806 0.32209 0.0
H1956 H 0.74376 0.83867 0.33551 0.0
H1957 H 0.69031 0.7364 0.35473 0.0
H1958 H 0.67012 0.75572 0.34302 0.0
H1959 H 0.70754 0.79442 0.37619 0.0
H1960 H 0.72662 0.77463 0.3883 0.0
H1961 H 0.71928 0.79683 0.34328 0.0
H1962 H 0.66497 0.79524 0.37471 0.0
H1963 H 0.63139 0.78046 0.38871 0.0
H1964 H 0.57766 0.757 0.35209 0.0
H1965 H 0.61108 0.7714 0.33789 0.0
C1966 C 0.67902 0.85209 0.30427 0.0
C1967 C 0.67242 0.84404 0.29117 0.0
C1968 C 0.67841 0.84159 0.31621 0.0
C1969 C 0.67074 0.82293 0.31513 0.0
C1970 C 0.66194 0.81473 0.30207 0.0
C1971 C 0.66308 0.82523 0.29017 0.0
C1972 C 0.67557 0.8124 0.32731 0.0
C1973 C 0.65711 0.80417 0.33573 0.0
C1974 C 0.69835 0.80995 0.33028 0.0
C1975 C 0.71794 0.81714 0.32142 0.0
C1976 C 0.71499 0.80791 0.30929 0.0
C1977 C 0.73475 0.81331 0.30175 0.0
C1978 C 0.75757 0.82788 0.30629 0.0
C1979 C 0.76072 0.83701 0.31844 0.0
C1980 C 0.74095 0.8317 0.32598 0.0
C1981 C 0.69297 0.74852 0.35988 0.0
C1982 C 0.70974 0.754 0.37243 0.0
C1983 C 0.68139 0.75951 0.35322 0.0
C1984 C 0.68702 0.77635 0.35885 0.0
C1985 C 0.70233 0.78125 0.37189 0.0
C1986 C 0.71329 0.76996 0.37877 0.0
C1987 C 0.68334 0.7903 0.34942 0.0
C1988 C 0.7021 0.79919 0.34138 0.0
C1989 C 0.66072 0.79302 0.34679 0.0
C1990 C 0.64063 0.78418 0.35527 0.0
C1991 C 0.6461 0.7867 0.36966 0.0
C1992 C 0.62706 0.77846 0.37763 0.0
C1993 C 0.60242 0.76773 0.3713 0.0
C1994 C 0.59676 0.76528 0.35698 0.0
C1995 C 0.61575 0.77349 0.34897 0.0
H1996 H 0.5877 0.76138 0.37748 0.0
H1997 H 0.7728 0.83199 0.30042 0.0
H1998 H 0.03266 0.00934 0.65916 0.0
H1999 H 0.07443 0.02178 0.6736 0.0
H2000 H 0.10942 0.03045 0.63751 0.0
H2001 H 0.06753 0.01777 0.62293 0.0
H2002 H 0.13868 0.0241 0.66744 0.0
H2003 H 0.10222 0.06421 0.64001 0.0
H2004 H 0.06585 0.07195 0.63115 0.0
H2005 H 0.05061 0.07026 0.67225 0.0
H2006 H 0.08688 0.06239 0.68134 0.0
H2007 H 0.2111 0.12531 0.69458 0.0
H2008 H 0.18784 0.10231 0.67669 0.0
H2009 H 0.17713 0.06077 0.7076 0.0
H2010 H 0.20057 0.08368 0.72554 0.0
H2011 H 0.1398 0.08335 0.67712 0.0
H2012 H 0.16113 0.01986 0.69197 0.0
H2013 H 0.19766 0.01186 0.69928 0.0
H2014 H 0.24606 0.06135 0.68251 0.0
H2015 H 0.20976 0.06951 0.6749 0.0
C2016 C 0.04923 0.01304 0.65436 0.0
C2017 C 0.04692 0.01289 0.63992 0.0
C2018 C 0.07308 0.02006 0.66264 0.0
C2019 C 0.09489 0.02718 0.65657 0.0
C2020 C 0.09274 0.02489 0.64235 0.0
C2021 C 0.06879 0.01767 0.63404 0.0
C2022 C 0.11813 0.04096 0.66427 0.0
C2023 C 0.13914 0.03709 0.66962 0.0
C2024 C 0.11877 0.05797 0.66677 0.0
C2025 C 0.09713 0.06274 0.66133 0.0
C2026 C 0.09102 0.06542 0.64713 0.0
C2027 C 0.07041 0.06977 0.64206 0.0
C2028 C 0.05582 0.07144 0.65109 0.0
C2029 C 0.06188 0.06889 0.66525 0.0
C2030 C 0.0825 0.06456 0.67038 0.0
C2031 C 0.20428 0.11126 0.69754 0.0
C2032 C 0.20705 0.10632 0.7115 0.0
C2033 C 0.19117 0.09813 0.68729 0.0
C2034 C 0.18065 0.07982 0.6908 0.0
C2035 C 0.18531 0.07478 0.70461 0.0
C2036 C 0.19853 0.08793 0.71488 0.0
C2037 C 0.16077 0.06665 0.6807 0.0
C2038 C 0.13994 0.07055 0.67492 0.0
C2039 C 0.16062 0.0498 0.67785 0.0
C2040 C 0.18273 0.04535 0.68294 0.0
C2041 C 0.17956 0.02903 0.68983 0.0
C2042 C 0.2002 0.02443 0.69398 0.0
C2043 C 0.2241 0.03601 0.69125 0.0
C2044 C 0.22751 0.05235 0.68456 0.0
C2045 C 0.20692 0.05701 0.68038 0.0
H2046 H 0.24002 0.03236 0.69439 0.0
H2047 H 0.03998 0.0749 0.64713 0.0
H2048 H 0.55811 0.47853 0.36881 0.0
H2049 H 0.5742 0.45526 0.36971 0.0
H2050 H 0.56943 0.44718 0.41297 0.0
H2051 H 0.55339 0.47066 0.4122 0.0
H2052 H 0.61143 0.44063 0.40251 0.0
H2053 H 0.52265 0.42289 0.39697 0.0
H2054 H 0.48203 0.4249 0.38804 0.0
H2055 H 0.48813 0.41576 0.3468 0.0
H2056 H 0.52927 0.41419 0.35542 0.0
H2057 H 0.56129 0.3539 0.3546 0.0
H2058 H 0.56209 0.36698 0.37639 0.0
H2059 H 0.61721 0.41803 0.36511 0.0
H2060 H 0.61536 0.40522 0.34313 0.0
H2061 H 0.54442 0.39366 0.37083 0.0
H2062 H 0.6496 0.44244 0.39503 0.0
H2063 H 0.68925 0.43929 0.40483 0.0
H2064 H 0.64769 0.38267 0.41055 0.0
H2065 H 0.60772 0.38547 0.40104 0.0
C2066 C 0.5615 0.47237 0.37866 0.0
C2067 C 0.55412 0.47619 0.39037 0.0
C2068 C 0.57067 0.45907 0.37916 0.0
C2069 C 0.57243 0.44931 0.39134 0.0
C2070 C 0.56811 0.45458 0.40349 0.0
C2071 C 0.55902 0.46803 0.40302 0.0
C2072 C 0.57407 0.43187 0.39037 0.0
C2073 C 0.59681 0.4302 0.39572 0.0
C2074 C 0.55422 0.41784 0.38218 0.0
C2075 C 0.52927 0.41859 0.37687 0.0
C2076 C 0.51559 0.42161 0.38597 0.0
C2077 C 0.49243 0.42268 0.38095 0.0
C2078 C 0.48254 0.42058 0.36685 0.0
C2079 C 0.49583 0.41741 0.35773 0.0
C2080 C 0.51909 0.41642 0.36268 0.0
C2081 C 0.57461 0.36762 0.35717 0.0
C2082 C 0.58827 0.37865 0.34728 0.0
C2083 C 0.57505 0.37507 0.36961 0.0
C2084 C 0.58971 0.39347 0.37237 0.0
C2085 C 0.60603 0.40375 0.36329 0.0
C2086 C 0.60498 0.39646 0.35071 0.0
C2087 C 0.5828 0.40324 0.38183 0.0
C2088 C 0.55885 0.40362 0.37807 0.0
C2089 C 0.60135 0.41581 0.3916 0.0
C2090 C 0.62556 0.41418 0.39725 0.0
C2091 C 0.64883 0.42933 0.39846 0.0
C2092 C 0.67141 0.4276 0.40396 0.0
C2093 C 0.671 0.4108 0.40829 0.0
C2094 C 0.64801 0.39568 0.40715 0.0
C2095 C 0.62538 0.39733 0.40168 0.0
H2096 H 0.6885 0.40949 0.41255 0.0
H2097 H 0.46452 0.42133 0.36301 0.0
H2098 H 0.04239 0.73204 0.15489 0.0
H2099 H 0.08399 0.75043 0.14889 0.0
H2100 H 0.05263 0.73885 0.10568 0.0
H2101 H 0.01143 0.71961 0.11178 0.0
H2102 H 0.08947 0.72976 0.11197 0.0
H2103 H 0.08009 0.78352 0.12111 0.0
H2104 H 0.07077 0.80344 0.13476 0.0
H2105 H 0.13154 0.80535 0.16728 0.0
H2106 H 0.14104 0.78526 0.15391 0.0
H2107 H 0.20945 0.76579 0.09513 0.0
H2108 H 0.1689 0.76718 0.09568 0.0
H2109 H 0.18725 0.77204 0.14007 0.0
H2110 H 0.22792 0.77123 0.13959 0.0
H2111 H 0.15626 0.78826 0.13028 0.0
H2112 H 0.15905 0.73058 0.12471 0.0
H2113 H 0.16801 0.70855 0.11322 0.0
H2114 H 0.11898 0.71238 0.07612 0.0
H2115 H 0.10994 0.73458 0.08736 0.0
C2116 C 0.04425 0.73395 0.14409 0.0
C2117 C 0.02382 0.72439 0.13378 0.0
C2118 C 0.06805 0.74454 0.14064 0.0
C2119 C 0.07157 0.74611 0.1268 0.0
C2120 C 0.0505 0.7378 0.11643 0.0
C2121 C 0.02693 0.72686 0.11991 0.0
C2122 C 0.09752 0.75376 0.1233 0.0
C2123 C 0.10378 0.74284 0.11564 0.0
C2124 C 0.11663 0.77048 0.12854 0.0
C2125 C 0.1112 0.7828 0.13651 0.0
C2126 C 0.09139 0.78811 0.1312 0.0
C2127 C 0.08608 0.79945 0.13889 0.0
C2128 C 0.10053 0.80564 0.15189 0.0
C2129 C 0.12037 0.80055 0.15721 0.0
C2130 C 0.12576 0.78922 0.14956 0.0
C2131 C 0.20531 0.7679 0.10495 0.0
C2132 C 0.22164 0.76794 0.11735 0.0
C2133 C 0.18204 0.76859 0.10526 0.0
C2134 C 0.17473 0.76916 0.11796 0.0
C2135 C 0.19233 0.77142 0.13017 0.0
C2136 C 0.21558 0.77084 0.12986 0.0
C2137 C 0.14781 0.76431 0.11887 0.0
C2138 C 0.14153 0.77554 0.12622 0.0
C2139 C 0.12861 0.7477 0.11357 0.0
C2140 C 0.1341 0.7344 0.1068 0.0
C2141 C 0.15034 0.72682 0.11407 0.0
C2142 C 0.15541 0.71429 0.10761 0.0
C2143 C 0.14415 0.70914 0.09393 0.0
C2144 C 0.12774 0.71644 0.0867 0.0
C2145 C 0.12264 0.72898 0.09311 0.0
H2146 H 0.14804 0.69946 0.08892 0.0
H2147 H 0.09636 0.81439 0.15783 0.0
H2148 H 0.08625 0.36495 0.85678 0.0
H2149 H 0.10063 0.38574 0.87656 0.0
H2150 H 0.10064 0.42894 0.84848 0.0
H2151 H 0.08715 0.40856 0.82905 0.0
H2152 H 0.13539 0.44262 0.8702 0.0
H2153 H 0.03969 0.40114 0.86407 0.0
H2154 H 0.00546 0.37071 0.86388 0.0
H2155 H 0.04643 0.35735 0.90059 0.0
H2156 H 0.08059 0.388 0.9012 0.0
H2157 H 0.0508 0.48075 0.86783 0.0
H2158 H 0.07956 0.46626 0.86765 0.0
H2159 H 0.07975 0.45446 0.91104 0.0
H2160 H 0.05109 0.4693 0.91132 0.0
H2161 H 0.06198 0.42431 0.89433 0.0
H2162 H 0.13608 0.47795 0.90179 0.0
H2163 H 0.16306 0.51009 0.89918 0.0
H2164 H 0.15927 0.50157 0.85619 0.0
H2165 H 0.13195 0.46946 0.85845 0.0
C2166 C 0.09042 0.37908 0.85492 0.0
C2167 C 0.08545 0.38522 0.84147 0.0
C2168 C 0.09833 0.39089 0.8662 0.0
C2169 C 0.10117 0.40885 0.86406 0.0
C2170 C 0.09864 0.41521 0.85049 0.0
C2171 C 0.09081 0.40352 0.83934 0.0
C2172 C 0.10239 0.42047 0.87537 0.0
C2173 C 0.1197 0.43862 0.87577 0.0
C2174 C 0.08253 0.41518 0.88311 0.0
C2175 C 0.0627 0.39665 0.88258 0.0
C2176 C 0.04139 0.39164 0.87205 0.0
C2177 C 0.02201 0.37438 0.87188 0.0
C2178 C 0.02388 0.36199 0.88211 0.0
C2179 C 0.04506 0.36692 0.89263 0.0
C2180 C 0.06438 0.38426 0.89294 0.0
C2181 C 0.05761 0.4756 0.87743 0.0
C2182 C 0.04855 0.47601 0.88955 0.0
C2183 C 0.07424 0.46745 0.87736 0.0
C2184 C 0.08195 0.45938 0.88936 0.0
C2185 C 0.07424 0.46078 0.90171 0.0
C2186 C 0.05788 0.46925 0.90185 0.0
C2187 C 0.09356 0.44668 0.88802 0.0
C2188 C 0.07871 0.42832 0.88959 0.0
C2189 C 0.11524 0.4519 0.88176 0.0
C2190 C 0.13203 0.47121 0.88033 0.0
C2191 C 0.14094 0.48292 0.89176 0.0
C2192 C 0.15629 0.50116 0.89034 0.0
C2193 C 0.16291 0.50786 0.87754 0.0
C2194 C 0.1542 0.49635 0.86612 0.0
C2195 C 0.13884 0.4781 0.86748 0.0
H2196 H 0.17477 0.52199 0.87645 0.0
H2197 H 0.00886 0.34862 0.88195 0.0
H2198 H 0.18528 0.64285 0.22462 0.0
H2199 H 0.15004 0.64897 0.21231 0.0
H2200 H 0.11995 0.6424 0.25005 0.0
H2201 H 0.15489 0.63485 0.2623 0.0
H2202 H 0.08278 0.62866 0.23094 0.0
H2203 H 0.15107 0.68577 0.23429 0.0
H2204 H 0.19404 0.70877 0.23324 0.0
H2205 H 0.18183 0.70041 0.1895 0.0
H2206 H 0.13892 0.67718 0.19031 0.0
H2207 H 0.00207 0.67058 0.19219 0.0
H2208 H 0.03426 0.66533 0.20934 0.0
H2209 H 0.0608 0.6491 0.17693 0.0
H2210 H 0.02849 0.65402 0.15972 0.0
H2211 H 0.0988 0.6778 0.19642 0.0
H2212 H 0.02923 0.61792 0.1956 0.0
H2213 H 0.98557 0.59773 0.1983 0.0
H2214 H 0.00029 0.61606 0.24009 0.0
H2215 H 0.04394 0.63655 0.23756 0.0
C2216 C 0.1714 0.64292 0.23037 0.0
C2217 C 0.17312 0.63877 0.24447 0.0
C2218 C 0.1512 0.64653 0.22331 0.0
C2219 C 0.13266 0.64686 0.23029 0.0
C2220 C 0.13413 0.64247 0.24443 0.0
C2221 C 0.1541 0.63825 0.25144 0.0
C2222 C 0.11153 0.65117 0.2225 0.0
C2223 C 0.08641 0.63965 0.22361 0.0
C2224 C 0.11597 0.6656 0.21295 0.0
C2225 C 0.14178 0.67965 0.21238 0.0
C2226 C 0.15759 0.68876 0.22446 0.0
C2227 C 0.18194 0.70185 0.2239 0.0
C2228 C 0.19067 0.70603 0.21132 0.0
C2229 C 0.17505 0.69716 0.19925 0.0
C2230 C 0.15068 0.68405 0.19974 0.0
C2231 C 0.0146 0.66573 0.18871 0.0
C2232 C 0.01276 0.66277 0.17457 0.0
C2233 C 0.03292 0.66271 0.19854 0.0
C2234 C 0.04987 0.65688 0.19437 0.0
C2235 C 0.04786 0.65364 0.18032 0.0
C2236 C 0.02933 0.65639 0.17051 0.0
C2237 C 0.0705 0.65489 0.20454 0.0
C2238 C 0.09542 0.66698 0.20391 0.0
C2239 C 0.06584 0.64143 0.2148 0.0
C2240 C 0.03975 0.62888 0.21635 0.0
C2241 C 0.02309 0.61774 0.20533 0.0
C2242 C 0.99836 0.60622 0.20684 0.0
C2243 C 0.99014 0.60564 0.21935 0.0
C2244 C 0.00667 0.61653 0.2304 0.0
C2245 C 0.03141 0.62808 0.22894 0.0
H2246 H 0.97099 0.59673 0.22049 0.0
H2247 H 0.20953 0.71617 0.21091 0.0
H2248 H 0.3076 0.7875 0.91578 0.0
H2249 H 0.33931 0.8173 0.92404 0.0
H2250 H 0.35729 0.83032 0.88306 0.0
H2251 H 0.326 0.80086 0.87476 0.0
H2252 H 0.40003 0.8388 0.90388 0.0
H2253 H 0.31697 0.84334 0.89536 0.0
H2254 H 0.27453 0.83485 0.90117 0.0
H2255 H 0.30799 0.85347 0.94276 0.0
H2256 H 0.35059 0.86158 0.93732 0.0
H2257 H 0.43855 0.92349 0.87829 0.0
H2258 H 0.41415 0.89285 0.88502 0.0
H2259 H 0.42534 0.91042 0.9269 0.0
H2260 H 0.45012 0.94147 0.92026 0.0
H2261 H 0.37397 0.88581 0.91583 0.0
H2262 H 0.45649 0.88756 0.92381 0.0
H2263 H 0.49967 0.89621 0.91912 0.0
H2264 H 0.46907 0.8662 0.88111 0.0
H2265 H 0.42587 0.85735 0.88558 0.0
C2266 C 0.31833 0.79673 0.90854 0.0
C2267 C 0.31423 0.79179 0.89459 0.0
C2268 C 0.33643 0.81371 0.91329 0.0
C2269 C 0.35065 0.82594 0.90416 0.0
C2270 C 0.34661 0.821 0.89029 0.0
C2271 C 0.32857 0.80416 0.88554 0.0
C2272 C 0.36948 0.84418 0.90859 0.0
C2273 C 0.39445 0.84905 0.90667 0.0
C2274 C 0.3625 0.85736 0.91291 0.0
C2275 C 0.3369 0.85283 0.91599 0.0
C2276 C 0.31525 0.84548 0.90577 0.0
C2277 C 0.29118 0.84076 0.90898 0.0
C2278 C 0.28857 0.84362 0.92231 0.0
C2279 C 0.31003 0.85123 0.93245 0.0
C2280 C 0.33413 0.85585 0.92932 0.0
C2281 C 0.43596 0.92095 0.88895 0.0
C2282 C 0.44643 0.93496 0.89874 0.0
C2283 C 0.42201 0.9034 0.89279 0.0
C2284 C 0.41824 0.8994 0.90648 0.0
C2285 C 0.4282 0.91329 0.9163 0.0
C2286 C 0.44239 0.93097 0.91248 0.0
C2287 C 0.4039 0.88048 0.91016 0.0
C2288 C 0.37989 0.87547 0.91365 0.0
C2289 C 0.41187 0.86706 0.90757 0.0
C2290 C 0.43792 0.87179 0.90504 0.0
C2291 C 0.45901 0.8828 0.91446 0.0
C2292 C 0.48351 0.88772 0.91185 0.0
C2293 C 0.48717 0.88175 0.89984 0.0
C2294 C 0.46632 0.87081 0.89043 0.0
C2295 C 0.4418 0.86572 0.89304 0.0
H2296 H 0.50615 0.88563 0.89784 0.0
H2297 H 0.26993 0.83996 0.92477 0.0
H2298 H 0.05821 0.56206 0.12591 0.0
H2299 H 0.09152 0.59161 0.12263 0.0
H2300 H 0.0479 0.59667 0.08348 0.0
H2301 H 0.0139 0.56702 0.08709 0.0
H2302 H 0.10393 0.60708 0.08487 0.0
H2303 H 0.04644 0.61989 0.10554 0.0
H2304 H 0.01797 0.61708 0.12182 0.0
H2305 H 0.0802 0.63007 0.15567 0.0
H2306 H 0.10901 0.63262 0.13965 0.0
H2307 H 0.20018 0.69859 0.09016 0.0
H2308 H 0.16022 0.67202 0.08526 0.0
H2309 H 0.17019 0.65565 0.1278 0.0
H2310 H 0.20972 0.68232 0.13284 0.0
H2311 H 0.12436 0.65395 0.11999 0.0
H2312 H 0.17949 0.63529 0.0994 0.0
H2313 H 0.20812 0.63856 0.08306 0.0
H2314 H 0.15008 0.63718 0.04896 0.0
H2315 H 0.1212 0.6341 0.06512 0.0
C2316 C 0.05546 0.56978 0.11685 0.0
C2317 C 0.03309 0.56289 0.10717 0.0
C2318 C 0.07458 0.58644 0.11485 0.0
C2319 C 0.07184 0.59647 0.10299 0.0
C2320 C 0.05015 0.58917 0.09279 0.0
C2321 C 0.03083 0.57235 0.09485 0.0
C2322 C 0.09181 0.61469 0.10178 0.0
C2323 C 0.10816 0.61754 0.09232 0.0
C2324 C 0.09731 0.62821 0.1116 0.0
C2325 C 0.07991 0.62633 0.12135 0.0
C2326 C 0.05404 0.62193 0.11646 0.0
C2327 C 0.03783 0.6204 0.12565 0.0
C2328 C 0.04725 0.62333 0.13977 0.0
C2329 C 0.07293 0.62782 0.14473 0.0
C2330 C 0.08921 0.6293 0.13559 0.0
C2331 C 0.19401 0.68921 0.09844 0.0
C2332 C 0.20814 0.69262 0.11192 0.0
C2333 C 0.17116 0.674 0.0956 0.0
C2334 C 0.16217 0.66178 0.10614 0.0
C2335 C 0.17661 0.66495 0.11951 0.0
C2336 C 0.19928 0.68019 0.12237 0.0
C2337 C 0.13736 0.64599 0.10361 0.0
C2338 C 0.11999 0.64366 0.11236 0.0
C2339 C 0.13099 0.63302 0.09315 0.0
C2340 C 0.1483 0.63467 0.08347 0.0
C2341 C 0.1729 0.6358 0.08842 0.0
C2342 C 0.18916 0.6376 0.07919 0.0
C2343 C 0.18095 0.63814 0.06498 0.0
C2344 C 0.15643 0.63679 0.05997 0.0
C2345 C 0.1401 0.63501 0.06916 0.0
H2346 H 0.19358 0.63954 0.05786 0.0
H2347 H 0.03467 0.62217 0.14686 0.0
H2348 H 0.30108 0.89138 0.75644 0.0
H2349 H 0.34367 0.89336 0.75575 0.0
H2350 H 0.31491 0.83541 0.75578 0.0
H2351 H 0.27264 0.83337 0.75645 0.0
H2352 H 0.35106 0.85212 0.7788 0.0
H2353 H 0.33939 0.85607 0.72961 0.0
H2354 H 0.32967 0.86803 0.70661 0.0
H2355 H 0.39143 0.91909 0.71776 0.0
H2356 H 0.40129 0.90753 0.74092 0.0
H2357 H 0.46534 0.84285 0.78572 0.0
H2358 H 0.42452 0.84078 0.77259 0.0
H2359 H 0.45054 0.89844 0.77497 0.0
H2360 H 0.49111 0.90055 0.78836 0.0
H2361 H 0.41615 0.88142 0.74904 0.0
H2362 H 0.42425 0.87875 0.79875 0.0
H2363 H 0.43457 0.86727 0.82186 0.0
H2364 H 0.37868 0.81432 0.80982 0.0
H2365 H 0.36843 0.82542 0.7865 0.0
C2366 C 0.30368 0.8791 0.75569 0.0
C2367 C 0.28367 0.86222 0.75667 0.0
C2368 C 0.32802 0.88024 0.75534 0.0
C2369 C 0.33244 0.86451 0.75587 0.0
C2370 C 0.31192 0.8477 0.75544 0.0
C2371 C 0.28778 0.84656 0.75582 0.0
C2372 C 0.35853 0.8654 0.75939 0.0
C2373 C 0.36511 0.85824 0.77215 0.0
C2374 C 0.37707 0.87387 0.7509 0.0
C2375 C 0.37088 0.88099 0.73708 0.0
C2376 C 0.3507 0.86992 0.72723 0.0
C2377 C 0.34522 0.87661 0.71414 0.0
C2378 C 0.35987 0.89433 0.71074 0.0
C2379 C 0.38006 0.90538 0.72042 0.0
C2380 C 0.38561 0.89876 0.73353 0.0
C2381 C 0.46267 0.85513 0.78301 0.0
C2382 C 0.48125 0.87185 0.78813 0.0
C2383 C 0.43936 0.85393 0.77554 0.0
C2384 C 0.43453 0.86946 0.77292 0.0
C2385 C 0.45396 0.88633 0.77685 0.0
C2386 C 0.47705 0.8875 0.78455 0.0
C2387 C 0.4083 0.86789 0.76829 0.0
C2388 C 0.40186 0.8751 0.75552 0.0
C2389 C 0.38977 0.85957 0.77678 0.0
C2390 C 0.39587 0.85286 0.7908 0.0
C2391 C 0.41439 0.86461 0.80096 0.0
C2392 C 0.42019 0.85819 0.81412 0.0
C2393 C 0.40736 0.84006 0.81729 0.0
C2394 C 0.38866 0.82834 0.80733 0.0
C2395 C 0.38287 0.83469 0.79414 0.0
H2396 H 0.41183 0.83512 0.82749 0.0
H2397 H 0.35563 0.89947 0.70059 0.0
H2398 H 0.58527 0.86369 0.86052 0.0
H2399 H 0.59653 0.88046 0.88231 0.0
H2400 H 0.60209 0.92857 0.8592 0.0
H2401 H 0.59106 0.91207 0.83768 0.0
H2402 H 0.63768 0.93467 0.88538 0.0
H2403 H 0.53713 0.90579 0.86811 0.0
H2404 H 0.50059 0.87731 0.86052 0.0
H2405 H 0.52932 0.84882 0.89259 0.0
H2406 H 0.56579 0.87723 0.90049 0.0
H2407 H 0.56983 0.98584 0.87822 0.0
H2408 H 0.59411 0.96748 0.88018 0.0
H2409 H 0.5701 0.94633 0.91894 0.0
H2410 H 0.54627 0.96521 0.91719 0.0
H2411 H 0.55415 0.92052 0.89833 0.0
H2412 H 0.63169 0.9633 0.9198 0.0
H2413 H 0.6669 0.99299 0.9252 0.0
H2414 H 0.68427 0.99568 0.88447 0.0
H2415 H 0.64893 0.96617 0.87872 0.0
C2416 C 0.5898 0.87799 0.86018 0.0
C2417 C 0.58706 0.88661 0.84749 0.0
C2418 C 0.59611 0.88751 0.8726 0.0
C2419 C 0.59988 0.90571 0.87235 0.0
C2420 C 0.5994 0.91458 0.85964 0.0
C2421 C 0.59291 0.90511 0.84734 0.0
C2422 C 0.59944 0.91497 0.88459 0.0
C2423 C 0.61974 0.93146 0.88866 0.0
C2424 C 0.57627 0.91045 0.88921 0.0
C2425 C 0.55409 0.89352 0.88483 0.0
C2426 C 0.53554 0.89343 0.87355 0.0
C2427 C 0.51494 0.87732 0.86916 0.0
C2428 C 0.51278 0.86124 0.87599 0.0
C2429 C 0.53108 0.86127 0.88729 0.0
C2430 C 0.55166 0.87737 0.89175 0.0
C2431 C 0.57068 0.97791 0.88746 0.0
C2432 C 0.55621 0.97691 0.89754 0.0
C2433 C 0.58464 0.96746 0.88862 0.0
C2434 C 0.58397 0.95556 0.89974 0.0
C2435 C 0.57107 0.95556 0.91036 0.0
C2436 C 0.55755 0.96638 0.90936 0.0
C2437 C 0.59199 0.94084 0.89841 0.0
C2438 C 0.57284 0.92341 0.89616 0.0
C2439 C 0.6163 0.94455 0.89556 0.0
C2440 C 0.63763 0.96241 0.89885 0.0
C2441 C 0.64292 0.97025 0.91196 0.0
C2442 C 0.66293 0.98706 0.91508 0.0
C2443 C 0.67784 0.9962 0.90519 0.0
C2444 C 0.67275 0.98856 0.89214 0.0
C2445 C 0.65276 0.97175 0.88895 0.0
H2446 H 0.69333 0.00921 0.90763 0.0
H2447 H 0.49682 0.84878 0.8726 0.0
H2448 H 0.2135 0.26582 0.5975 0.0
H2449 H 0.17273 0.26487 0.60065 0.0
H2450 H 0.20361 0.28163 0.64306 0.0
H2451 H 0.24432 0.28261 0.63999 0.0
H2452 H 0.16511 0.24729 0.63988 0.0
H2453 H 0.18013 0.30662 0.62258 0.0
H2454 H 0.19168 0.33158 0.60597 0.0
H2455 H 0.13003 0.29928 0.57526 0.0
H2456 H 0.11831 0.27401 0.59162 0.0
H2457 H 0.04786 0.2298 0.65817 0.0
H2458 H 0.09045 0.24936 0.65384 0.0
H2459 H 0.0677 0.23338 0.61096 0.0
H2460 H 0.02529 0.21364 0.61525 0.0
H2461 H 0.1026 0.27027 0.61539 0.0
H2462 H 0.09124 0.21043 0.63021 0.0
H2463 H 0.07851 0.18407 0.64551 0.0
H2464 H 0.13326 0.21554 0.67922 0.0
H2465 H 0.14593 0.24225 0.66419 0.0
C2466 C 0.21201 0.27025 0.60727 0.0
C2467 C 0.23197 0.27405 0.61856 0.0
C2468 C 0.18862 0.2696 0.60909 0.0
C2469 C 0.18509 0.27291 0.62216 0.0
C2470 C 0.20592 0.27889 0.63293 0.0
C2471 C 0.22921 0.27953 0.63114 0.0
C2472 C 0.1592 0.26679 0.6253 0.0
C2473 C 0.15166 0.25266 0.63478 0.0
C2474 C 0.14139 0.27326 0.61821 0.0
C2475 C 0.14849 0.28836 0.6083 0.0
C2476 C 0.16918 0.30477 0.61224 0.0
C2477 C 0.17573 0.31899 0.60288 0.0
C2478 C 0.16164 0.31701 0.58956 0.0
C2479 C 0.14094 0.3008 0.58558 0.0
C2480 C 0.13432 0.28653 0.5949 0.0
C2481 C 0.05174 0.23091 0.64774 0.0
C2482 C 0.03343 0.22012 0.63706 0.0
C2483 C 0.07605 0.24203 0.64529 0.0
C2484 C 0.08218 0.24265 0.63211 0.0
C2485 C 0.06328 0.23309 0.62119 0.0
C2486 C 0.03915 0.22176 0.62367 0.0
C2487 C 0.10885 0.25108 0.6301 0.0
C2488 C 0.11635 0.26531 0.62072 0.0
C2489 C 0.12663 0.2445 0.63708 0.0
C2490 C 0.11924 0.22843 0.64613 0.0
C2491 C 0.10037 0.2118 0.64093 0.0
C2492 C 0.09319 0.19678 0.64954 0.0
C2493 C 0.10499 0.19814 0.66334 0.0
C2494 C 0.12407 0.21452 0.66854 0.0
C2495 C 0.13124 0.22961 0.65998 0.0
H2496 H 0.09942 0.18649 0.66999 0.0
H2497 H 0.16672 0.32804 0.58233 0.0
H2498 H 0.29474 0.73457 0.85982 0.0
H2499 H 0.33424 0.75156 0.8521 0.0
H2500 H 0.37439 0.74129 0.8909 0.0
H2501 H 0.33458 0.72776 0.89972 0.0
H2502 H 0.39966 0.7711 0.88703 0.0
H2503 H 0.36924 0.72451 0.85377 0.0
H2504 H 0.33962 0.70246 0.83595 0.0
H2505 H 0.3353 0.74543 0.80922 0.0
H2506 H 0.36463 0.76773 0.82691 0.0
H2507 H 0.50335 0.81385 0.84344 0.0
H2508 H 0.46993 0.78863 0.85286 0.0
H2509 H 0.4285 0.82152 0.85298 0.0
H2510 H 0.46198 0.8469 0.84385 0.0
H2511 H 0.41061 0.77685 0.83801 0.0
H2512 H 0.4377 0.82088 0.87922 0.0
H2513 H 0.4729 0.83884 0.89728 0.0
H2514 H 0.49026 0.79299 0.90857 0.0
H2515 H 0.45539 0.7748 0.89049 0.0
C2516 C 0.31192 0.7364 0.8669 0.0
C2517 C 0.31145 0.73093 0.88071 0.0
C2518 C 0.33484 0.74555 0.86222 0.0
C2519 C 0.35794 0.74787 0.87077 0.0
C2520 C 0.35715 0.74025 0.88408 0.0
C2521 C 0.33424 0.73222 0.8891 0.0
C2522 C 0.38262 0.75995 0.86644 0.0
C2523 C 0.40186 0.77189 0.8763 0.0
C2524 C 0.38655 0.76121 0.8525 0.0
C2525 C 0.36913 0.74781 0.84172 0.0
C2526 C 0.36193 0.72926 0.84411 0.0
C2527 C 0.34517 0.71671 0.83402 0.0
C2528 C 0.33557 0.72254 0.82147 0.0
C2529 C 0.34277 0.74093 0.81894 0.0
C2530 C 0.35952 0.75353 0.82898 0.0
C2531 C 0.48724 0.81575 0.84562 0.0
C2532 C 0.4853 0.83236 0.84296 0.0
C2533 C 0.46824 0.80136 0.851 0.0
C2534 C 0.44698 0.80334 0.85369 0.0
C2535 C 0.44502 0.81989 0.85113 0.0
C2536 C 0.46414 0.83435 0.84593 0.0
C2537 C 0.42601 0.78789 0.85847 0.0
C2538 C 0.40791 0.77545 0.8487 0.0
C2539 C 0.42362 0.78556 0.87249 0.0
C2540 C 0.44419 0.79657 0.88342 0.0
C2541 C 0.44917 0.81469 0.88547 0.0
C2542 C 0.46901 0.82489 0.89572 0.0
C2543 C 0.48385 0.8171 0.90401 0.0
C2544 C 0.47881 0.79903 0.90212 0.0
C2545 C 0.45902 0.78878 0.89189 0.0
H2546 H 0.49921 0.82505 0.91192 0.0
H2547 H 0.32257 0.7128 0.81369 0.0
H2548 H 0.9154 0.99722 0.38804 0.0
H2549 H 0.87512 0.98091 0.37304 0.0
H2550 H 0.91479 0.96961 0.34475 0.0
H2551 H 0.95476 0.98813 0.35854 0.0
H2552 H 0.87763 0.96933 0.33044 0.0
H2553 H 0.88581 0.93941 0.37378 0.0
H2554 H 0.89139 0.93543 0.39909 0.0
H2555 H 0.82466 0.94419 0.40008 0.0
H2556 H 0.81881 0.94835 0.3748 0.0
H2557 H 0.78952 0.87813 0.3137 0.0
H2558 H 0.82205 0.90154 0.32954 0.0
H2559 H 0.77656 0.93221 0.32344 0.0
H2560 H 0.74401 0.90899 0.30754 0.0
H2561 H 0.81216 0.92389 0.35463 0.0
H2562 H 0.80767 0.95053 0.30676 0.0
H2563 H 0.80469 0.94574 0.28194 0.0
H2564 H 0.87114 0.9346 0.29081 0.0
H2565 H 0.8742 0.93904 0.31571 0.0
C2566 C 0.91555 0.99165 0.37843 0.0
C2567 C 0.93841 0.99318 0.37489 0.0
C2568 C 0.89241 0.98203 0.36994 0.0
C2569 C 0.89158 0.97303 0.35809 0.0
C2570 C 0.91455 0.97598 0.35396 0.0
C2571 C 0.93765 0.98633 0.36208 0.0
C2572 C 0.86718 0.95983 0.35039 0.0
C2573 C 0.86342 0.95953 0.33586 0.0
C2574 C 0.84839 0.94666 0.35724 0.0
C2575 C 0.85206 0.94441 0.37245 0.0
C2576 C 0.87244 0.9406 0.37942 0.0
C2577 C 0.87563 0.93828 0.39374 0.0
C2578 C 0.85844 0.93961 0.40118 0.0
C2579 C 0.83799 0.94321 0.39431 0.0
C2580 C 0.83472 0.94554 0.37999 0.0
C2581 C 0.78613 0.88958 0.31608 0.0
C2582 C 0.76432 0.89177 0.30946 0.0
C2583 C 0.80474 0.90294 0.32498 0.0
C2584 C 0.80169 0.91854 0.32743 0.0
C2585 C 0.7792 0.92024 0.32158 0.0
C2586 C 0.76072 0.90702 0.31251 0.0
C2587 C 0.82313 0.9337 0.33502 0.0
C2588 C 0.82629 0.93415 0.34942 0.0
C2589 C 0.84201 0.94635 0.32814 0.0
C2590 C 0.84095 0.94487 0.3131 0.0
C2591 C 0.82152 0.94694 0.30343 0.0
C2592 C 0.81984 0.94431 0.28934 0.0
C2593 C 0.83765 0.93979 0.28481 0.0
C2594 C 0.85731 0.93806 0.29433 0.0
C2595 C 0.85903 0.94064 0.30842 0.0
H2596 H 0.83626 0.93769 0.27391 0.0
H2597 H 0.86092 0.9378 0.41226 0.0
H2598 H 0.39038 0.63552 0.6345 0.0
H2599 H 0.38265 0.6061 0.62556 0.0
H2600 H 0.43893 0.60165 0.6589 0.0
H2601 H 0.44537 0.6305 0.6682 0.0
H2602 H 0.41665 0.60227 0.61549 0.0
H2603 H 0.43693 0.56034 0.66243 0.0
H2604 H 0.42777 0.55333 0.68609 0.0
H2605 H 0.36075 0.56348 0.67459 0.0
H2606 H 0.36933 0.57034 0.6508 0.0
H2607 H 0.47547 0.54856 0.59957 0.0
H2608 H 0.46131 0.56937 0.60805 0.0
H2609 H 0.39592 0.52445 0.61886 0.0
H2610 H 0.41206 0.5036 0.6118 0.0
H2611 H 0.41352 0.54558 0.63865 0.0
H2612 H 0.39589 0.55743 0.5897 0.0
H2613 H 0.4063 0.5652 0.5663 0.0
H2614 H 0.46648 0.61524 0.58158 0.0
H2615 H 0.45661 0.60771 0.60506 0.0
C2616 C 0.40001 0.62772 0.64026 0.0
C2617 C 0.41808 0.63493 0.65211 0.0
C2618 C 0.39582 0.61103 0.63511 0.0
C2619 C 0.4102 0.6016 0.64152 0.0
C2620 C 0.42712 0.60837 0.65391 0.0
C2621 C 0.43083 0.62486 0.65925 0.0
C2622 C 0.41073 0.58659 0.63409 0.0
C2623 C 0.41548 0.58972 0.62048 0.0
C2624 C 0.40942 0.57026 0.64059 0.0
C2625 C 0.40385 0.56593 0.65483 0.0
C2626 C 0.42015 0.56096 0.66492 0.0
C2627 C 0.41508 0.55705 0.67836 0.0
C2628 C 0.39371 0.55798 0.68184 0.0
C2629 C 0.37734 0.56281 0.67188 0.0
C2630 C 0.38231 0.56674 0.65842 0.0
C2631 C 0.45789 0.54319 0.60358 0.0
C2632 C 0.4447 0.5246 0.60501 0.0
C2633 C 0.44956 0.5551 0.60828 0.0
C2634 C 0.42712 0.5486 0.61385 0.0
C2635 C 0.41324 0.52986 0.6146 0.0
C2636 C 0.42223 0.51794 0.61043 0.0
C2637 C 0.4195 0.56127 0.62003 0.0
C2638 C 0.41381 0.55784 0.63347 0.0
C2639 C 0.41988 0.57735 0.61336 0.0
C2640 C 0.4255 0.58197 0.59915 0.0
C2641 C 0.41137 0.57006 0.58807 0.0
C2642 C 0.41719 0.57443 0.57479 0.0
C2643 C 0.43704 0.59069 0.57246 0.0
C2644 C 0.45109 0.60266 0.58339 0.0
C2645 C 0.44534 0.59837 0.59668 0.0
H2646 H 0.44154 0.59403 0.56217 0.0
H2647 H 0.38983 0.55495 0.69226 0.0
H2648 H 0.80098 0.23718 0.86429 0.0
H2649 H 0.8421 0.25268 0.85788 0.0
H2650 H 0.87628 0.23682 0.89632 0.0
H2651 H 0.83488 0.22358 0.90374 0.0
H2652 H 0.90399 0.26843 0.89291 0.0
H2653 H 0.87052 0.21938 0.86118 0.0
H2654 H 0.83928 0.19763 0.84363 0.0
H2655 H 0.84223 0.24084 0.81542 0.0
H2656 H 0.87321 0.26287 0.83283 0.0
H2657 H 0.0004 0.30639 0.84097 0.0
H2658 H 0.96989 0.28119 0.85199 0.0
H2659 H 0.94169 0.31715 0.86562 0.0
H2660 H 0.97194 0.34234 0.85467 0.0
H2661 H 0.91812 0.2696 0.84471 0.0
H2662 H 0.93051 0.30981 0.89146 0.0
H2663 H 0.96522 0.33003 0.90872 0.0
H2664 H 0.00807 0.29868 0.90719 0.0
H2665 H 0.97384 0.27858 0.88972 0.0
C2666 C 0.81719 0.23727 0.87156 0.0
C2667 C 0.81471 0.22982 0.88478 0.0
C2668 C 0.84084 0.24569 0.86765 0.0
C2669 C 0.86254 0.24572 0.87645 0.0
C2670 C 0.8599 0.23709 0.88932 0.0
C2671 C 0.8362 0.22935 0.89352 0.0
C2672 C 0.88795 0.25624 0.87262 0.0
C2673 C 0.90703 0.26832 0.88241 0.0
C2674 C 0.89259 0.25608 0.85899 0.0
C2675 C 0.87424 0.2428 0.84836 0.0
C2676 C 0.86448 0.22426 0.85125 0.0
C2677 C 0.84679 0.21188 0.84132 0.0
C2678 C 0.83878 0.21785 0.82842 0.0
C2679 C 0.84848 0.23622 0.82541 0.0
C2680 C 0.86616 0.24866 0.83529 0.0
C2681 C 0.988 0.30901 0.84653 0.0
C2682 C 0.98865 0.32643 0.84695 0.0
C2683 C 0.97062 0.29458 0.85282 0.0
C2684 C 0.95377 0.29735 0.85975 0.0
C2685 C 0.95496 0.3148 0.86061 0.0
C2686 C 0.97227 0.32921 0.85431 0.0
C2687 C 0.93307 0.28191 0.86483 0.0
C2688 C 0.91502 0.26909 0.85527 0.0
C2689 C 0.92962 0.28094 0.87866 0.0
C2690 C 0.94973 0.29276 0.88936 0.0
C2691 C 0.94732 0.30724 0.89487 0.0
C2692 C 0.96695 0.31873 0.90461 0.0
C2693 C 0.98883 0.31564 0.90905 0.0
C2694 C 0.99116 0.3011 0.90372 0.0
C2695 C 0.97174 0.28973 0.89385 0.0
H2696 H 0.00398 0.32452 0.91661 0.0
H2697 H 0.82506 0.20825 0.82076 0.0
H2698 H 0.9197 0.52603 0.09159 0.0
H2699 H 0.90548 0.54748 0.09924 0.0
H2700 H 0.92842 0.5359 0.14174 0.0
H2701 H 0.9409 0.51355 0.13416 0.0
H2702 H 0.89127 0.54425 0.14105 0.0
H2703 H 0.96946 0.57309 0.1253 0.0
H2704 H 0.0013 0.58117 0.1102 0.0
H2705 H 0.95435 0.59785 0.07865 0.0
H2706 H 0.9223 0.59012 0.09376 0.0
H2707 H 0.93004 0.63351 0.16798 0.0
H2708 H 0.92269 0.6032 0.16126 0.0
H2709 H 0.89168 0.61278 0.11969 0.0
H2710 H 0.90052 0.64345 0.12626 0.0
H2711 H 0.92995 0.60434 0.11998 0.0
H2712 H 0.85611 0.57932 0.14342 0.0
H2713 H 0.83629 0.57584 0.16402 0.0
H2714 H 0.8885 0.55537 0.18693 0.0
H2715 H 0.90876 0.55888 0.16653 0.0
C2716 C 0.92107 0.52769 0.10256 0.0
C2717 C 0.93226 0.51856 0.11228 0.0
C2718 C 0.91316 0.54009 0.10693 0.0
C2719 C 0.91674 0.54381 0.12107 0.0
C2720 C 0.92577 0.5335 0.13077 0.0
C2721 C 0.93324 0.52086 0.12641 0.0
C2722 C 0.91334 0.55947 0.12569 0.0
C2723 C 0.89965 0.55739 0.13642 0.0
C2724 C 0.92476 0.57674 0.11994 0.0
C2725 C 0.94335 0.58076 0.11056 0.0
C2726 C 0.96579 0.57828 0.11508 0.0
C2727 C 0.9839 0.58283 0.10652 0.0
C2728 C 0.97976 0.58982 0.09338 0.0
C2729 C 0.9575 0.59236 0.08881 0.0
C2730 C 0.93938 0.58796 0.09738 0.0
C2731 C 0.92075 0.62883 0.15756 0.0
C2732 C 0.91566 0.64063 0.14761 0.0
C2733 C 0.9165 0.61149 0.15372 0.0
C2734 C 0.90644 0.60562 0.13997 0.0
C2735 C 0.89943 0.617 0.13035 0.0
C2736 C 0.90434 0.63446 0.13409 0.0
C2737 C 0.90712 0.58909 0.13502 0.0
C2738 C 0.92078 0.5911 0.12432 0.0
C2739 C 0.89684 0.57208 0.14137 0.0
C2740 C 0.88396 0.56939 0.15344 0.0
C2741 C 0.86336 0.57409 0.15286 0.0
C2742 C 0.85206 0.57212 0.1645 0.0
C2743 C 0.86113 0.5654 0.17678 0.0
C2744 C 0.88146 0.56055 0.17741 0.0
C2745 C 0.8928 0.56248 0.1658 0.0
H2746 H 0.85241 0.56394 0.18579 0.0
H2747 H 0.99387 0.59339 0.08679 0.0
H2748 H 0.56125 0.55358 0.59368 0.0
H2749 H 0.59703 0.58211 0.59073 0.0
H2750 H 0.56624 0.61013 0.61224 0.0
H2751 H 0.53071 0.58169 0.6155 0.0
H2752 H 0.59921 0.62112 0.58051 0.0
H2753 H 0.6008 0.61973 0.63484 0.0
H2754 H 0.59336 0.59897 0.65469 0.0
H2755 H 0.63535 0.57298 0.64094 0.0
H2756 H 0.64265 0.59344 0.62089 0.0
H2757 H 0.69012 0.70952 0.59956 0.0
H2758 H 0.65396 0.68044 0.595 0.0
H2759 H 0.70025 0.65357 0.616 0.0
H2760 H 0.73568 0.68283 0.62151 0.0
H2761 H 0.66014 0.63976 0.62452 0.0
H2762 H 0.67672 0.65226 0.57841 0.0
H2763 H 0.68438 0.66972 0.55698 0.0
H2764 H 0.61103 0.6709 0.55182 0.0
H2765 H 0.60305 0.65365 0.57332 0.0
C2766 C 0.56181 0.56588 0.59751 0.0
C2767 C 0.54333 0.56539 0.60495 0.0
C2768 C 0.58221 0.58214 0.59578 0.0
C2769 C 0.58422 0.59813 0.60131 0.0
C2770 C 0.56498 0.59786 0.60795 0.0
C2771 C 0.54478 0.58162 0.60984 0.0
C2772 C 0.60783 0.61461 0.60183 0.0
C2773 C 0.61263 0.62537 0.59008 0.0
C2774 C 0.62558 0.61967 0.61416 0.0
C2775 C 0.62216 0.60799 0.62644 0.0
C2776 C 0.60846 0.6096 0.6361 0.0
C2777 C 0.60419 0.59787 0.64732 0.0
C2778 C 0.61375 0.58463 0.64899 0.0
C2779 C 0.62784 0.58319 0.63955 0.0
C2780 C 0.632 0.59481 0.62826 0.0
C2781 C 0.69249 0.69732 0.60304 0.0
C2782 C 0.71546 0.69825 0.61088 0.0
C2783 C 0.67192 0.68068 0.60033 0.0
C2784 C 0.67431 0.66463 0.60494 0.0
C2785 C 0.69775 0.66567 0.61236 0.0
C2786 C 0.71802 0.68234 0.61548 0.0
C2787 C 0.65193 0.64697 0.60317 0.0
C2788 C 0.64717 0.63579 0.61478 0.0
C2789 C 0.63466 0.64143 0.59052 0.0
C2790 C 0.63938 0.65177 0.57755 0.0
C2791 C 0.66229 0.65634 0.57276 0.0
C2792 C 0.66668 0.66619 0.56059 0.0
C2793 C 0.64823 0.67145 0.55306 0.0
C2794 C 0.62532 0.66683 0.55767 0.0
C2795 C 0.62084 0.65699 0.56984 0.0
H2796 H 0.65167 0.67907 0.54364 0.0
H2797 H 0.61013 0.57547 0.65756 0.0
H2798 H 0.66583 0.63905 0.76644 0.0
H2799 H 0.62808 0.64423 0.75568 0.0
H2800 H 0.66046 0.66278 0.71869 0.0
H2801 H 0.69754 0.65794 0.72929 0.0
H2802 H 0.6398 0.68374 0.72418 0.0
H2803 H 0.61688 0.61929 0.72424 0.0
H2804 H 0.60888 0.58961 0.73498 0.0
H2805 H 0.55213 0.59367 0.7546 0.0
H2806 H 0.56007 0.62353 0.74413 0.0
H2807 H 0.53941 0.66006 0.66574 0.0
H2808 H 0.57329 0.65839 0.68377 0.0
H2809 H 0.53428 0.66336 0.7151 0.0
H2810 H 0.50098 0.66598 0.69711 0.0
H2811 H 0.55518 0.63282 0.71674 0.0
H2812 H 0.57483 0.69584 0.71379 0.0
H2813 H 0.58314 0.72536 0.70277 0.0
H2814 H 0.64748 0.72439 0.68889 0.0
H2815 H 0.63879 0.69441 0.69921 0.0
C2816 C 0.66491 0.64446 0.75609 0.0
C2817 C 0.68503 0.6485 0.74886 0.0
C2818 C 0.64334 0.64736 0.74993 0.0
C2819 C 0.6414 0.65393 0.73634 0.0
C2820 C 0.66158 0.658 0.72924 0.0
C2821 C 0.68305 0.65533 0.7354 0.0
C2822 C 0.61828 0.65605 0.729 0.0
C2823 C 0.6213 0.67258 0.72254 0.0
C2824 C 0.59393 0.64167 0.72722 0.0
C2825 C 0.58929 0.62375 0.73354 0.0
C2826 C 0.60288 0.61395 0.73097 0.0
C2827 C 0.59833 0.59707 0.73698 0.0
C2828 C 0.58007 0.58978 0.74551 0.0
C2829 C 0.5663 0.59935 0.74802 0.0
C2830 C 0.57082 0.61625 0.74204 0.0
C2831 C 0.53808 0.6608 0.67647 0.0
C2832 C 0.51769 0.6633 0.68001 0.0
C2833 C 0.55741 0.65987 0.68674 0.0
C2834 C 0.55631 0.6609 0.70073 0.0
C2835 C 0.53548 0.66265 0.70434 0.0
C2836 C 0.51653 0.66415 0.69406 0.0
C2837 C 0.57713 0.66023 0.7115 0.0
C2838 C 0.57361 0.64404 0.71858 0.0
C2839 C 0.60112 0.67487 0.71378 0.0
C2840 C 0.6058 0.69263 0.70707 0.0
C2841 C 0.59036 0.70166 0.70809 0.0
C2842 C 0.59519 0.71853 0.702 0.0
C2843 C 0.61574 0.7267 0.69506 0.0
C2844 C 0.63152 0.71803 0.69424 0.0
C2845 C 0.62652 0.70103 0.70012 0.0
H2846 H 0.6195 0.73978 0.69039 0.0
H2847 H 0.57654 0.5767 0.75014 0.0
H2848 H 0.26418 0.62712 0.21743 0.0
H2849 H 0.2783 0.63864 0.19567 0.0
H2850 H 0.33971 0.68454 0.21707 0.0
H2851 H 0.3239 0.67378 0.23868 0.0
H2852 H 0.31091 0.69512 0.19991 0.0
H2853 H 0.34514 0.65098 0.19531 0.0
H2854 H 0.34216 0.61993 0.19495 0.0
H2855 H 0.27909 0.60648 0.16153 0.0
H2856 H 0.28144 0.63733 0.16182 0.0
H2857 H 0.33921 0.7451 0.14139 0.0
H2858 H 0.34534 0.7269 0.16144 0.0
H2859 H 0.28525 0.67956 0.14106 0.0
H2860 H 0.28047 0.69764 0.12062 0.0
H2861 H 0.31642 0.66919 0.15732 0.0
H2862 H 0.27265 0.70514 0.16413 0.0
H2863 H 0.26442 0.73234 0.16493 0.0
H2864 H 0.33392 0.75722 0.19344 0.0
H2865 H 0.3423 0.73 0.19302 0.0
C2866 C 0.28139 0.63923 0.2176 0.0
C2867 C 0.29284 0.64969 0.22969 0.0
C2868 C 0.28958 0.64582 0.20508 0.0
C2869 C 0.31005 0.6626 0.20461 0.0
C2870 C 0.32372 0.67165 0.21711 0.0
C2871 C 0.31489 0.66543 0.22951 0.0
C2872 C 0.31358 0.67252 0.19132 0.0
C2873 C 0.313 0.6896 0.19076 0.0
C2874 C 0.31432 0.66488 0.17902 0.0
C2875 C 0.31344 0.64647 0.17863 0.0
C2876 C 0.33059 0.64138 0.18792 0.0
C2877 C 0.329 0.6238 0.18773 0.0
C2878 C 0.31041 0.61123 0.17824 0.0
C2879 C 0.29346 0.61622 0.16888 0.0
C2880 C 0.29496 0.63376 0.16903 0.0
C2881 C 0.32804 0.73069 0.14105 0.0
C2882 C 0.30956 0.72266 0.12953 0.0
C2883 C 0.3313 0.72032 0.15254 0.0
C2884 C 0.31523 0.70193 0.15295 0.0
C2885 C 0.29786 0.69369 0.14103 0.0
C2886 C 0.29516 0.704 0.12935 0.0
C2887 C 0.3147 0.69193 0.16622 0.0
C2888 C 0.31527 0.67483 0.16668 0.0
C2889 C 0.31282 0.6991 0.1784 0.0
C2890 C 0.30825 0.71567 0.1784 0.0
C2891 C 0.28626 0.71647 0.17048 0.0
C2892 C 0.28153 0.73186 0.17091 0.0
C2893 C 0.29876 0.74656 0.17912 0.0
C2894 C 0.32064 0.74585 0.18704 0.0
C2895 C 0.32533 0.73042 0.18677 0.0
H2896 H 0.29509 0.75848 0.1794 0.0
H2897 H 0.30916 0.59761 0.17814 0.0
H2898 H 0.70568 0.76661 0.59738 0.0
H2899 H 0.66381 0.76536 0.59858 0.0
H2900 H 0.68637 0.77574 0.64239 0.0
H2901 H 0.72802 0.77685 0.6413 0.0
H2902 H 0.64765 0.74178 0.63474 0.0
H2903 H 0.66905 0.80443 0.62177 0.0
H2904 H 0.68373 0.83046 0.60631 0.0
H2905 H 0.6233 0.80161 0.57371 0.0
H2906 H 0.60845 0.77532 0.58891 0.0
H2907 H 0.53759 0.73106 0.65609 0.0
H2908 H 0.57889 0.75021 0.64995 0.0
H2909 H 0.55087 0.732 0.6077 0.0
H2910 H 0.50975 0.71232 0.61387 0.0
H2911 H 0.591 0.77103 0.61281 0.0
H2912 H 0.57301 0.70932 0.62072 0.0
H2913 H 0.55774 0.67966 0.63192 0.0
H2914 H 0.61117 0.70202 0.66875 0.0
H2915 H 0.62613 0.73215 0.65801 0.0
C2916 C 0.70208 0.76941 0.60715 0.0
C2917 C 0.71995 0.77152 0.6193 0.0
C2918 C 0.67813 0.76869 0.60782 0.0
C2919 C 0.67196 0.7703 0.6206 0.0
C2920 C 0.69076 0.77441 0.63244 0.0
C2921 C 0.71454 0.77501 0.6318 0.0
C2922 C 0.64518 0.764 0.62226 0.0
C2923 C 0.63549 0.74847 0.6302 0.0
C2924 C 0.62887 0.772 0.61555 0.0
C2925 C 0.63777 0.78785 0.60645 0.0
C2926 C 0.65902 0.80357 0.61127 0.0
C2927 C 0.66734 0.81839 0.60256 0.0
C2928 C 0.65449 0.81767 0.58902 0.0
C2929 C 0.63325 0.80215 0.58419 0.0
C2930 C 0.62485 0.7873 0.59285 0.0
C2931 C 0.53992 0.73169 0.64539 0.0
C2932 C 0.52064 0.72012 0.63547 0.0
C2933 C 0.5635 0.74262 0.6419 0.0
C2934 C 0.56786 0.74239 0.6284 0.0
C2935 C 0.54777 0.73241 0.61814 0.0
C2936 C 0.52438 0.72112 0.6217 0.0
C2937 C 0.59415 0.74942 0.62581 0.0
C2938 C 0.60348 0.7647 0.61756 0.0
C2939 C 0.61008 0.74082 0.63174 0.0
C2940 C 0.60027 0.72309 0.63866 0.0
C2941 C 0.58105 0.70806 0.63135 0.0
C2942 C 0.57251 0.69117 0.63761 0.0
C2943 C 0.58339 0.68904 0.6511 0.0
C2944 C 0.60264 0.70383 0.65839 0.0
C2945 C 0.61109 0.72083 0.65224 0.0
H2946 H 0.57717 0.6759 0.65584 0.0
H2947 H 0.66097 0.82916 0.5823 0.0
H2948 H 0.68323 0.36226 0.80133 0.0
H2949 H 0.68391 0.34508 0.82279 0.0
H2950 H 0.66917 0.29811 0.79926 0.0
H2951 H 0.66924 0.31532 0.7779 0.0
H2952 H 0.65322 0.3128 0.83462 0.0
H2953 H 0.70481 0.28333 0.80854 0.0
H2954 H 0.73613 0.29094 0.79297 0.0
H2955 H 0.77279 0.34492 0.80896 0.0
H2956 H 0.74115 0.33774 0.82429 0.0
H2957 H 0.67418 0.23861 0.87298 0.0
H2958 H 0.66056 0.25943 0.8578 0.0
H2959 H 0.73586 0.30135 0.86735 0.0
H2960 H 0.74923 0.28087 0.88242 0.0
H2961 H 0.72191 0.29128 0.84024 0.0
H2962 H 0.69103 0.30889 0.87508 0.0
H2963 H 0.66634 0.30441 0.89369 0.0
H2964 H 0.59718 0.27981 0.86487 0.0
H2965 H 0.6215 0.28384 0.84611 0.0
C2966 C 0.67923 0.34809 0.80074 0.0
C2967 C 0.67623 0.34006 0.78801 0.0
C2968 C 0.67976 0.33834 0.81299 0.0
C2969 C 0.67711 0.32046 0.81259 0.0
C2970 C 0.67174 0.31201 0.79978 0.0
C2971 C 0.67156 0.32177 0.7876 0.0
C2972 C 0.68272 0.31121 0.82541 0.0
C2973 C 0.66813 0.308 0.83588 0.0
C2974 C 0.70267 0.30546 0.82722 0.0
C2975 C 0.72053 0.31009 0.81737 0.0
C2976 C 0.7194 0.29687 0.80858 0.0
C2977 C 0.73714 0.30112 0.79979 0.0
C2978 C 0.75637 0.31845 0.79993 0.0
C2979 C 0.75777 0.33157 0.80878 0.0
C2980 C 0.73979 0.32749 0.8174 0.0
C2981 C 0.68728 0.25254 0.87237 0.0
C2982 C 0.71265 0.25824 0.87878 0.0
C2983 C 0.67962 0.26437 0.86366 0.0
C2984 C 0.69737 0.2818 0.86136 0.0
C2985 C 0.72194 0.28795 0.86898 0.0
C2986 C 0.72947 0.27628 0.87765 0.0
C2987 C 0.69208 0.29245 0.84941 0.0
C2988 C 0.70683 0.29594 0.83904 0.0
C2989 C 0.67283 0.29882 0.848 0.0
C2990 C 0.65809 0.29651 0.8592 0.0
C2991 C 0.67056 0.30237 0.87273 0.0
C2992 C 0.65664 0.29993 0.8833 0.0
C2993 C 0.63021 0.29179 0.88047 0.0
C2994 C 0.61766 0.2861 0.86705 0.0
C2995 C 0.6315 0.28847 0.85643 0.0
H2996 H 0.61945 0.28993 0.88868 0.0
H2997 H 0.77023 0.32169 0.79322 0.0
H2998 H 0.05225 0.969 0.41674 0.0
H2999 H 0.07785 0.95165 0.41713 0.0
H3000 H 0.09822 0.97483 0.37809 0.0
H3001 H 0.07245 0.99182 0.37758 0.0
H3002 H 0.05828 0.92772 0.39565 0.0
H3003 H 0.14821 0.97018 0.37177 0.0
H3004 H 0.1847 0.99953 0.37563 0.0
H3005 H 0.17685 0.99891 0.41812 0.0
H3006 H 0.14048 0.96942 0.41459 0.0
H3007 H 0.10027 0.91088 0.33454 0.0
H3008 H 0.11096 0.9302 0.35453 0.0
H3009 H 0.08729 0.88332 0.38053 0.0
H3010 H 0.0765 0.86386 0.36029 0.0
H3011 H 0.13831 0.93853 0.37976 0.0
H3012 H 0.05161 0.88664 0.39897 0.0
H3013 H 0.00882 0.86318 0.39106 0.0
H3014 H 0.00484 0.89012 0.35219 0.0
H3015 H 0.04782 0.91341 0.35974 0.0
C3016 C 0.06325 0.97106 0.40861 0.0
C3017 C 0.06016 0.98152 0.39703 0.0
C3018 C 0.07789 0.96115 0.40885 0.0
C3019 C 0.08994 0.9619 0.39764 0.0
C3020 C 0.08942 0.97418 0.38696 0.0
C3021 C 0.07449 0.9838 0.3866 0.0
C3022 C 0.09644 0.94685 0.3949 0.0
C3023 C 0.07625 0.92985 0.39281 0.0
C3024 C 0.1195 0.94984 0.39066 0.0
C3025 C 0.14159 0.96752 0.39291 0.0
C3026 C 0.15438 0.97619 0.38198 0.0
C3027 C 0.17501 0.9929 0.3841 0.0
C3028 C 0.18309 0.00107 0.39711 0.0
C3029 C 0.17055 0.99257 0.40804 0.0
C3030 C 0.14988 0.97587 0.40597 0.0
C3031 C 0.0984 0.90476 0.34463 0.0
C3032 C 0.08777 0.88597 0.34596 0.0
C3033 C 0.1045 0.91579 0.35607 0.0
C3034 C 0.09966 0.90823 0.36902 0.0
C3035 C 0.09105 0.88944 0.37061 0.0
C3036 C 0.08514 0.87834 0.35911 0.0
C3037 C 0.09969 0.91989 0.37992 0.0
C3038 C 0.12098 0.93612 0.38345 0.0
C3039 C 0.07722 0.91666 0.38492 0.0
C3040 C 0.05291 0.90155 0.37984 0.0
C3041 C 0.04173 0.88733 0.38865 0.0
C3042 C 0.01748 0.87409 0.38423 0.0
C3043 C 0.00411 0.87522 0.37115 0.0
C3044 C 0.01523 0.88927 0.3623 0.0
C3045 C 0.0396 0.90237 0.36659 0.0
H3046 H 0.98509 0.86524 0.36788 0.0
H3047 H 0.19907 0.014 0.39873 0.0
H3048 H 0.46933 0.43961 0.41564 0.0
H3049 H 0.44551 0.40785 0.42115 0.0
H3050 H 0.39891 0.4 0.38082 0.0
H3051 H 0.42266 0.43143 0.37515 0.0
H3052 H 0.37357 0.3879 0.40655 0.0
H3053 H 0.43237 0.37487 0.37998 0.0
H3054 H 0.47518 0.3797 0.37649 0.0
H3055 H 0.49882 0.37842 0.42034 0.0
H3056 H 0.45597 0.37323 0.42403 0.0
H3057 H 0.31633 0.30179 0.37479 0.0
H3058 H 0.3435 0.33318 0.38126 0.0
H3059 H 0.36434 0.31669 0.42255 0.0
H3060 H 0.33619 0.28517 0.41629 0.0
H3061 H 0.40564 0.34091 0.40398 0.0
H3062 H 0.33785 0.3362 0.42545 0.0
H3063 H 0.29388 0.32851 0.42817 0.0
H3064 H 0.28711 0.36496 0.39559 0.0
H3065 H 0.33058 0.37215 0.39214 0.0
C3066 C 0.45387 0.43112 0.408 0.0
C3067 C 0.4478 0.438 0.39498 0.0
C3068 C 0.44048 0.413 0.41113 0.0
C3069 C 0.42061 0.40168 0.40135 0.0
C3070 C 0.41428 0.40858 0.38846 0.0
C3071 C 0.42784 0.42653 0.38526 0.0
C3072 C 0.40569 0.38267 0.40447 0.0
C3073 C 0.38053 0.37757 0.40613 0.0
C3074 C 0.41513 0.36937 0.40434 0.0
C3075 C 0.44122 0.37387 0.40227 0.0
C3076 C 0.44681 0.37576 0.38886 0.0
C3077 C 0.47097 0.3784 0.38684 0.0
C3078 C 0.48971 0.37938 0.39819 0.0
C3079 C 0.48431 0.37769 0.41157 0.0
C3080 C 0.46009 0.37485 0.41363 0.0
C3081 C 0.32648 0.30489 0.38529 0.0
C3082 C 0.32414 0.29116 0.39507 0.0
C3083 C 0.34189 0.32277 0.38897 0.0
C3084 C 0.35564 0.32716 0.40239 0.0
C3085 C 0.35359 0.31349 0.41219 0.0
C3086 C 0.33755 0.29559 0.40861 0.0
C3087 C 0.37319 0.34604 0.40564 0.0
C3088 C 0.39879 0.35117 0.40498 0.0
C3089 C 0.36409 0.35934 0.40679 0.0
C3090 C 0.33748 0.35453 0.4084 0.0
C3091 C 0.32683 0.34226 0.41863 0.0
C3092 C 0.30196 0.338 0.42031 0.0
C3093 C 0.28763 0.34613 0.41198 0.0
C3094 C 0.29815 0.35854 0.40195 0.0
C3095 C 0.32288 0.36265 0.40008 0.0
H3096 H 0.26843 0.34289 0.41335 0.0
H3097 H 0.50842 0.38147 0.39661 0.0
H3098 H 0.29691 0.39119 0.25745 0.0
H3099 H 0.34083 0.39618 0.25691 0.0
H3100 H 0.32228 0.33983 0.26473 0.0
H3101 H 0.27857 0.33464 0.26505 0.0
H3102 H 0.36264 0.37697 0.28543 0.0
H3103 H 0.33959 0.33807 0.2439 0.0
H3104 H 0.32001 0.33077 0.21947 0.0
H3105 H 0.36626 0.38435 0.20779 0.0
H3106 H 0.38586 0.39199 0.23222 0.0
H3107 H 0.47148 0.35184 0.28425 0.0
H3108 H 0.43034 0.3508 0.27253 0.0
H3109 H 0.45384 0.40639 0.28336 0.0
H3110 H 0.49458 0.40735 0.29552 0.0
H3111 H 0.41167 0.37145 0.25146 0.0
H3112 H 0.42168 0.40972 0.29698 0.0
H3113 H 0.43869 0.41349 0.322 0.0
H3114 H 0.4148 0.35627 0.32625 0.0
H3115 H 0.39811 0.35228 0.30121 0.0
C3116 C 0.30194 0.37974 0.25845 0.0
C3117 C 0.28434 0.36255 0.26143 0.0
C3118 C 0.32702 0.38262 0.25816 0.0
C3119 C 0.33464 0.36833 0.26065 0.0
C3120 C 0.31665 0.35096 0.26253 0.0
C3121 C 0.29169 0.34806 0.26281 0.0
C3122 C 0.36177 0.37191 0.26416 0.0
C3123 C 0.37347 0.37606 0.27795 0.0
C3124 C 0.37559 0.37022 0.25448 0.0
C3125 C 0.36388 0.36567 0.23986 0.0
C3126 C 0.34534 0.34834 0.23613 0.0
C3127 C 0.33431 0.34412 0.22229 0.0
C3128 C 0.34181 0.35711 0.21208 0.0
C3129 C 0.36042 0.37432 0.2157 0.0
C3130 C 0.37149 0.3786 0.22954 0.0
C3131 C 0.4681 0.36397 0.28384 0.0
C3132 C 0.48612 0.37963 0.29094 0.0
C3133 C 0.44459 0.36334 0.27714 0.0
C3134 C 0.43892 0.37842 0.27731 0.0
C3135 C 0.45768 0.3945 0.28337 0.0
C3136 C 0.48097 0.39505 0.29027 0.0
C3137 C 0.4126 0.37675 0.27273 0.0
C3138 C 0.40101 0.37281 0.25885 0.0
C3139 C 0.39856 0.3783 0.28236 0.0
C3140 C 0.40892 0.38074 0.2973 0.0
C3141 C 0.42024 0.398 0.30327 0.0
C3142 C 0.42985 0.40017 0.31743 0.0
C3143 C 0.4279 0.38514 0.32571 0.0
C3144 C 0.4164 0.36791 0.31983 0.0
C3145 C 0.40698 0.36569 0.30566 0.0
H3146 H 0.43523 0.38684 0.33667 0.0
H3147 H 0.33327 0.35382 0.20137 0.0
H3148 H 0.48825 0.35367 0.35653 0.0
H3149 H 0.45708 0.32961 0.36797 0.0
H3150 H 0.46227 0.29 0.34343 0.0
H3151 H 0.49317 0.31393 0.33178 0.0
H3152 H 0.41333 0.28477 0.3437 0.0
H3153 H 0.48953 0.29579 0.3778 0.0
H3154 H 0.52805 0.31612 0.39285 0.0
H3155 H 0.48287 0.33249 0.41367 0.0
H3156 H 0.4441 0.31233 0.3987 0.0
H3157 H 0.32373 0.21533 0.37572 0.0
H3158 H 0.36408 0.23233 0.36769 0.0
H3159 H 0.38255 0.274 0.39771 0.0
H3160 H 0.34417 0.25593 0.40679 0.0
H3161 H 0.42297 0.27598 0.39443 0.0
H3162 H 0.35015 0.27248 0.36021 0.0
H3163 H 0.30996 0.25736 0.34418 0.0
H3164 H 0.34526 0.23251 0.32312 0.0
H3165 H 0.38568 0.24754 0.33901 0.0
C3166 C 0.48288 0.33985 0.3536 0.0
C3167 C 0.49319 0.33575 0.3432 0.0
C3168 C 0.46516 0.3261 0.36021 0.0
C3169 C 0.45761 0.30802 0.35665 0.0
C3170 C 0.46793 0.30388 0.34635 0.0
C3171 C 0.4856 0.31759 0.33971 0.0
C3172 C 0.43806 0.29346 0.36322 0.0
C3173 C 0.41553 0.28259 0.35478 0.0
C3174 C 0.44071 0.29109 0.37769 0.0
C3175 C 0.46393 0.30255 0.38712 0.0
C3176 C 0.48782 0.3037 0.38561 0.0
C3177 C 0.50969 0.31521 0.39412 0.0
C3178 C 0.50791 0.32558 0.40422 0.0
C3179 C 0.48423 0.3244 0.40588 0.0
C3180 C 0.46229 0.3129 0.39741 0.0
C3181 C 0.337 0.2278 0.38088 0.0
C3182 C 0.33101 0.23435 0.39185 0.0
C3183 C 0.35983 0.23771 0.37614 0.0
C3184 C 0.37607 0.25492 0.38165 0.0
C3185 C 0.37057 0.26087 0.39317 0.0
C3186 C 0.34852 0.25052 0.39837 0.0
C3187 C 0.3976 0.26739 0.37494 0.0
C3188 C 0.42066 0.2779 0.38333 0.0
C3189 C 0.39506 0.26998 0.36042 0.0
C3190 C 0.3708 0.26095 0.35088 0.0
C3191 C 0.34928 0.26373 0.35219 0.0
C3192 C 0.32649 0.25519 0.34313 0.0
C3193 C 0.32502 0.2439 0.33269 0.0
C3194 C 0.34641 0.24121 0.33123 0.0
C3195 C 0.36927 0.24977 0.34024 0.0
H3196 H 0.30735 0.23727 0.32571 0.0
H3197 H 0.52487 0.33454 0.41075 0.0
H3198 H 0.92053 0.14821 0.62198 0.0
H3199 H 0.905 0.11789 0.61301 0.0
H3200 H 0.88903 0.09627 0.65312 0.0
H3201 H 0.90545 0.12693 0.66232 0.0
H3202 H 0.92304 0.0878 0.64542 0.0
H3203 H 0.84168 0.08386 0.62276 0.0
H3204 H 0.81167 0.09454 0.60822 0.0
H3205 H 0.8479 0.09832 0.57344 0.0
H3206 H 0.87831 0.08787 0.58779 0.0
H3207 H 0.92167 0.00925 0.62334 0.0
H3208 H 0.90194 0.02796 0.62977 0.0
H3209 H 0.91885 0.06008 0.59326 0.0
H3210 H 0.93791 0.04089 0.58653 0.0
H3211 H 0.87507 0.05863 0.60043 0.0
H3212 H 0.96229 0.07715 0.62269 0.0
H3213 H 1e-05 0.07382 0.63583 0.0
H3214 H 0.95917 0.04807 0.66872 0.0
H3215 H 0.92138 0.0519 0.6559 0.0
C3216 C 0.91303 0.137 0.62882 0.0
C3217 C 0.9148 0.13989 0.64293 0.0
C3218 C 0.90375 0.1196 0.6236 0.0
C3219 C 0.89579 0.10473 0.63236 0.0
C3220 C 0.89503 0.10756 0.64616 0.0
C3221 C 0.90444 0.12507 0.65142 0.0
C3222 C 0.89446 0.08727 0.62802 0.0
C3223 C 0.91169 0.081 0.63585 0.0
C3224 C 0.88083 0.07903 0.61512 0.0
C3225 C 0.86233 0.08509 0.60639 0.0
C3226 C 0.84333 0.08704 0.61203 0.0
C3227 C 0.82623 0.09305 0.60381 0.0
C3228 C 0.82788 0.09711 0.58992 0.0
C3229 C 0.84661 0.09514 0.5842 0.0
C3230 C 0.86374 0.08912 0.59236 0.0
C3231 C 0.92043 0.01995 0.61647 0.0
C3232 C 0.93143 0.02376 0.60452 0.0
C3233 C 0.90924 0.03065 0.62016 0.0
C3234 C 0.90943 0.04562 0.61215 0.0
C3235 C 0.91852 0.04858 0.59959 0.0
C3236 C 0.92939 0.03763 0.59575 0.0
C3237 C 0.90359 0.05945 0.61789 0.0
C3238 C 0.88541 0.06503 0.61028 0.0
C3239 C 0.91695 0.06766 0.63077 0.0
C3240 C 0.93901 0.06454 0.63828 0.0
C3241 C 0.96133 0.07064 0.63267 0.0
C3242 C 0.98275 0.06874 0.64009 0.0
C3243 C 0.98193 0.0605 0.65303 0.0
C3244 C 0.95974 0.05435 0.65866 0.0
C3245 C 0.93837 0.0565 0.65137 0.0
H3246 H 0.99853 0.05897 0.65874 0.0
H3247 H 0.81465 0.10179 0.58358 0.0
H3248 H 0.79517 0.20677 0.1153 0.0
H3249 H 0.79908 0.18576 0.13382 0.0
H3250 H 0.83747 0.23006 0.16264 0.0
H3251 H 0.83253 0.25097 0.14433 0.0
H3252 H 0.85534 0.197 0.1635 0.0
H3253 H 0.78974 0.21698 0.16917 0.0
H3254 H 0.75167 0.22325 0.16219 0.0
H3255 H 0.70992 0.16979 0.14548 0.0
H3256 H 0.74791 0.16325 0.15236 0.0
H3257 H 0.82559 0.18493 0.23112 0.0
H3258 H 0.83848 0.19222 0.20849 0.0
H3259 H 0.78735 0.13872 0.19401 0.0
H3260 H 0.77536 0.13111 0.21692 0.0
H3261 H 0.77562 0.16931 0.18264 0.0
H3262 H 0.84075 0.14874 0.18814 0.0
H3263 H 0.87884 0.14457 0.19973 0.0
H3264 H 0.92319 0.20149 0.19809 0.0
H3265 H 0.88527 0.20607 0.18668 0.0
C3266 C 0.80523 0.21205 0.12548 0.0
C3267 C 0.81382 0.23045 0.12843 0.0
C3268 C 0.80736 0.20006 0.13603 0.0
C3269 C 0.81872 0.20644 0.14952 0.0
C3270 C 0.82892 0.22497 0.15224 0.0
C3271 C 0.82612 0.23687 0.14181 0.0
C3272 C 0.81662 0.19374 0.16117 0.0
C3273 C 0.83793 0.19079 0.16768 0.0
C3274 C 0.79379 0.18548 0.16642 0.0
C3275 C 0.77168 0.18974 0.16106 0.0
C3276 C 0.77257 0.20669 0.16377 0.0
C3277 C 0.75099 0.21024 0.15994 0.0
C3278 C 0.7284 0.1969 0.15347 0.0
C3279 C 0.72744 0.18008 0.15055 0.0
C3280 C 0.74899 0.17645 0.15439 0.0
C3281 C 0.81832 0.17442 0.22336 0.0
C3282 C 0.7996 0.15748 0.22571 0.0
C3283 C 0.82562 0.17858 0.21042 0.0
C3284 C 0.8138 0.16601 0.19958 0.0
C3285 C 0.79687 0.14852 0.2023 0.0
C3286 C 0.7901 0.14418 0.21539 0.0
C3287 C 0.81444 0.17266 0.18524 0.0
C3288 C 0.7928 0.17474 0.1782 0.0
C3289 C 0.83713 0.18034 0.17976 0.0
C3290 C 0.86009 0.17776 0.1866 0.0
C3291 C 0.85857 0.1604 0.19035 0.0
C3292 C 0.88015 0.15795 0.19687 0.0
C3293 C 0.90342 0.17276 0.19966 0.0
C3294 C 0.90515 0.19004 0.19591 0.0
C3295 C 0.88362 0.19256 0.18939 0.0
H3296 H 0.92011 0.17084 0.20471 0.0
H3297 H 0.71164 0.19961 0.15081 0.0
H3298 H 0.26849 0.41201 0.29996 0.0
H3299 H 0.30177 0.43368 0.31617 0.0
H3300 H 0.30462 0.39063 0.34354 0.0
H3301 H 0.27142 0.36849 0.32711 0.0
H3302 H 0.30556 0.43929 0.34628 0.0
H3303 H 0.35045 0.39536 0.34794 0.0
H3304 H 0.35709 0.37372 0.33457 0.0
H3305 H 0.3726 0.41135 0.30115 0.0
H3306 H 0.36563 0.43308 0.31429 0.0
H3307 H 0.41922 0.4853 0.39427 0.0
H3308 H 0.3794 0.46508 0.38089 0.0
H3309 H 0.41265 0.47861 0.34391 0.0
H3310 H 0.45289 0.49865 0.35738 0.0
H3311 H 0.39232 0.44364 0.34685 0.0
H3312 H 0.36438 0.49089 0.34916 0.0
H3313 H 0.35642 0.51357 0.36043 0.0
H3314 H 0.30743 0.47209 0.38395 0.0
H3315 H 0.31533 0.44917 0.37294 0.0
C3316 C 0.27591 0.40702 0.30946 0.0
C3317 C 0.26745 0.38841 0.31214 0.0
C3318 C 0.29494 0.4195 0.31873 0.0
C3319 C 0.30586 0.41372 0.3309 0.0
C3320 C 0.29668 0.39528 0.33403 0.0
C3321 C 0.27766 0.38267 0.32467 0.0
C3322 C 0.32793 0.42712 0.33971 0.0
C3323 C 0.32455 0.44012 0.34668 0.0
C3324 C 0.35262 0.42848 0.33977 0.0
C3325 C 0.35723 0.41567 0.33199 0.0
C3326 C 0.35516 0.39894 0.33771 0.0
C3327 C 0.35894 0.38668 0.33018 0.0
C3328 C 0.36508 0.39112 0.31699 0.0
C3329 C 0.36767 0.4079 0.31134 0.0
C3330 C 0.36376 0.42017 0.31881 0.0
C3331 C 0.41789 0.48442 0.38322 0.0
C3332 C 0.43929 0.49342 0.37688 0.0
C3333 C 0.39505 0.4728 0.37557 0.0
C3334 C 0.39303 0.47024 0.3614 0.0
C3335 C 0.41385 0.48025 0.35487 0.0
C3336 C 0.4368 0.49175 0.36255 0.0
C3337 C 0.37016 0.45592 0.3537 0.0
C3338 C 0.37341 0.44279 0.34677 0.0
C3339 C 0.34537 0.45456 0.35367 0.0
C3340 C 0.34064 0.46834 0.36032 0.0
C3341 C 0.35207 0.48662 0.35682 0.0
C3342 C 0.34753 0.49951 0.36314 0.0
C3343 C 0.33148 0.49428 0.37292 0.0
C3344 C 0.31988 0.47613 0.37638 0.0
C3345 C 0.32436 0.46318 0.37009 0.0
H3346 H 0.32799 0.50428 0.3778 0.0
H3347 H 0.36786 0.38156 0.31117 0.0
H3348 H 0.57608 0.52276 0.62204 0.0
H3349 H 0.61566 0.5379 0.63789 0.0
H3350 H 0.58047 0.50851 0.67194 0.0
H3351 H 0.54048 0.49411 0.65613 0.0
H3352 H 0.59164 0.54296 0.67365 0.0
H3353 H 0.63754 0.50896 0.66459 0.0
H3354 H 0.65426 0.49513 0.64974 0.0
H3355 H 0.69612 0.54708 0.63353 0.0
H3356 H 0.6794 0.56121 0.64816 0.0
H3357 H 0.68476 0.58821 0.72802 0.0
H3358 H 0.65952 0.56479 0.71087 0.0
H3359 H 0.6902 0.60112 0.67847 0.0
H3360 H 0.7161 0.62488 0.69579 0.0
H3361 H 0.68402 0.56352 0.67543 0.0
H3362 H 0.63791 0.59743 0.68016 0.0
H3363 H 0.61749 0.61349 0.69017 0.0
H3364 H 0.5739 0.56493 0.70998 0.0
H3365 H 0.59429 0.54857 0.70019 0.0
C3366 C 0.57726 0.51873 0.63278 0.0
C3367 C 0.55532 0.50738 0.63793 0.0
C3368 C 0.59994 0.52746 0.64187 0.0
C3369 C 0.60097 0.52455 0.65616 0.0
C3370 C 0.58005 0.51106 0.66097 0.0
C3371 C 0.55724 0.50271 0.65194 0.0
C3372 C 0.62052 0.53834 0.66601 0.0
C3373 C 0.61184 0.54699 0.67433 0.0
C3374 C 0.64685 0.54459 0.66613 0.0
C3375 C 0.65711 0.53613 0.65743 0.0
C3376 C 0.65019 0.51743 0.6578 0.0
C3377 C 0.65969 0.50953 0.64943 0.0
C3378 C 0.67622 0.52022 0.64068 0.0
C3379 C 0.68333 0.53882 0.64031 0.0
C3380 C 0.67389 0.54678 0.64866 0.0
C3381 C 0.68644 0.59128 0.71728 0.0
C3382 C 0.70206 0.60857 0.71322 0.0
C3383 C 0.67199 0.57783 0.70749 0.0
C3384 C 0.6729 0.58129 0.69344 0.0
C3385 C 0.6893 0.59824 0.68931 0.0
C3386 C 0.70376 0.61184 0.69916 0.0
C3387 C 0.65486 0.56753 0.68322 0.0
C3388 C 0.66378 0.55907 0.67487 0.0
C3389 C 0.62856 0.56174 0.68263 0.0
C3390 C 0.61786 0.57181 0.68956 0.0
C3391 C 0.62435 0.59024 0.68688 0.0
C3392 C 0.61265 0.59937 0.69243 0.0
C3393 C 0.59433 0.5902 0.70064 0.0
C3394 C 0.58803 0.57198 0.70356 0.0
C3395 C 0.59966 0.56277 0.69802 0.0
H3396 H 0.58485 0.59719 0.70465 0.0
H3397 H 0.68354 0.51408 0.63421 0.0
H3398 H 0.18221 0.73643 0.85341 0.0
H3399 H 0.16143 0.75512 0.8417 0.0
H3400 H 0.18945 0.79025 0.87728 0.0
H3401 H 0.21066 0.77147 0.88901 0.0
H3402 H 0.13075 0.77119 0.84234 0.0
H3403 H 0.21804 0.83426 0.86433 0.0
H3404 H 0.26169 0.84281 0.87696 0.0
H3405 H 0.26442 0.79637 0.86065 0.0
H3406 H 0.22119 0.78796 0.84752 0.0
H3407 H 0.17841 0.86414 0.80235 0.0
H3408 H 0.17004 0.84674 0.82365 0.0
H3409 H 0.15715 0.79859 0.80222 0.0
H3410 H 0.16596 0.81592 0.78111 0.0
H3411 H 0.20183 0.82904 0.83504 0.0
H3412 H 0.11569 0.76263 0.81684 0.0
H3413 H 0.07481 0.75297 0.80093 0.0
H3414 H 0.07284 0.80428 0.80558 0.0
H3415 H 0.11352 0.81417 0.82168 0.0
C3416 C 0.18284 0.74761 0.859 0.0
C3417 C 0.19815 0.75264 0.87202 0.0
C3418 C 0.17095 0.75833 0.85229 0.0
C3419 C 0.17445 0.77437 0.85846 0.0
C3420 C 0.18681 0.77806 0.87226 0.0
C3421 C 0.19872 0.76723 0.87902 0.0
C3422 C 0.16986 0.78846 0.8494 0.0
C3423 C 0.14617 0.78396 0.84085 0.0
C3424 C 0.18998 0.80522 0.84751 0.0
C3425 C 0.21615 0.81027 0.85522 0.0
C3426 C 0.22798 0.82589 0.86344 0.0
C3427 C 0.25267 0.83074 0.87065 0.0
C3428 C 0.26573 0.82002 0.86974 0.0
C3429 C 0.25424 0.80459 0.86143 0.0
C3430 C 0.22967 0.79982 0.85407 0.0
C3431 C 0.17285 0.84972 0.80209 0.0
C3432 C 0.1727 0.8413 0.79011 0.0
C3433 C 0.16824 0.83984 0.81427 0.0
C3434 C 0.16282 0.82137 0.81449 0.0
C3435 C 0.16091 0.81277 0.80224 0.0
C3436 C 0.16598 0.82267 0.79019 0.0
C3437 C 0.16297 0.81148 0.8277 0.0
C3438 C 0.186 0.81671 0.83695 0.0
C3439 C 0.14254 0.79515 0.8299 0.0
C3440 C 0.11773 0.78915 0.82046 0.0
C3441 C 0.10645 0.77181 0.81457 0.0
C3442 C 0.08333 0.7663 0.80549 0.0
C3443 C 0.07125 0.77801 0.80223 0.0
C3444 C 0.08224 0.79524 0.80808 0.0
C3445 C 0.10535 0.8008 0.81718 0.0
H3446 H 0.05337 0.77373 0.79519 0.0
H3447 H 0.28478 0.82373 0.87539 0.0
H3448 H 0.67675 0.08765 0.22714 0.0
H3449 H 0.65079 0.06234 0.21164 0.0
H3450 H 0.70933 0.07878 0.1866 0.0
H3451 H 0.7345 0.1052 0.20162 0.0
H3452 H 0.66671 0.07328 0.17121 0.0
H3453 H 0.68544 0.02806 0.20585 0.0
H3454 H 0.68724 0.01482 0.22912 0.0
H3455 H 0.61627 0.0161 0.23234 0.0
H3456 H 0.61322 0.02812 0.20867 0.0
H3457 H 0.57331 0.01041 0.12497 0.0
H3458 H 0.61454 0.02071 0.14033 0.0
H3459 H 0.57691 0.012 0.17553 0.0
H3460 H 0.53623 0.00084 0.16042 0.0
H3461 H 0.61781 0.01028 0.18436 0.0
H3462 H 0.59332 0.05215 0.15485 0.0
H3463 H 0.58152 0.06461 0.13249 0.0
H3464 H 0.65337 0.07435 0.12169 0.0
H3465 H 0.66539 0.06152 0.14396 0.0
C3466 C 0.68429 0.08558 0.2185 0.0
C3467 C 0.70764 0.09819 0.21559 0.0
C3468 C 0.6696 0.07089 0.20973 0.0
C3469 C 0.67836 0.06809 0.19815 0.0
C3470 C 0.70223 0.08045 0.19555 0.0
C3471 C 0.71661 0.09552 0.20409 0.0
C3472 C 0.66119 0.05397 0.18776 0.0
C3473 C 0.65659 0.05937 0.17402 0.0
C3474 C 0.64704 0.03596 0.1914 0.0
C3475 C 0.64942 0.02933 0.2057 0.0
C3476 C 0.67034 0.02561 0.21158 0.0
C3477 C 0.67146 0.01818 0.22479 0.0
C3478 C 0.65223 0.01507 0.23237 0.0
C3479 C 0.63132 0.01872 0.22654 0.0
C3480 C 0.62969 0.02556 0.21317 0.0
C3481 C 0.5739 0.00977 0.13603 0.0
C3482 C 0.55171 0.00526 0.14153 0.0
C3483 C 0.59748 0.01591 0.14481 0.0
C3484 C 0.59895 0.0179 0.15906 0.0
C3485 C 0.5765 0.01089 0.1646 0.0
C3486 C 0.55312 0.00452 0.15592 0.0
C3487 C 0.62276 0.02976 0.16797 0.0
C3488 C 0.62872 0.024 0.1814 0.0
C3489 C 0.63703 0.04776 0.16425 0.0
C3490 C 0.63005 0.05559 0.15093 0.0
C3491 C 0.60653 0.05684 0.14767 0.0
C3492 C 0.5998 0.06396 0.13501 0.0
C3493 C 0.61662 0.07018 0.12564 0.0
C3494 C 0.6403 0.06941 0.12894 0.0
C3495 C 0.64706 0.06217 0.14156 0.0
H3496 H 0.6113 0.07558 0.11582 0.0
H3497 H 0.65335 0.00968 0.24271 0.0
H3498 H 0.41422 0.99315 0.89041 0.0
H3499 H 0.3739 0.97655 0.87551 0.0
H3500 H 0.41389 0.97154 0.84463 0.0
H3501 H 0.45399 0.98958 0.85886 0.0
H3502 H 0.37383 0.97291 0.83196 0.0
H3503 H 0.38986 0.93726 0.87241 0.0
H3504 H 0.39587 0.93016 0.89726 0.0
H3505 H 0.32642 0.93349 0.90072 0.0
H3506 H 0.31982 0.94053 0.87589 0.0
H3507 H 0.28487 0.87371 0.81835 0.0
H3508 H 0.31664 0.89721 0.83419 0.0
H3509 H 0.28462 0.93463 0.8167 0.0
H3510 H 0.25331 0.91143 0.80063 0.0
H3511 H 0.31674 0.91855 0.85389 0.0
H3512 H 0.32848 0.97358 0.81372 0.0
H3513 H 0.32095 0.97654 0.78833 0.0
H3514 H 0.33751 0.9308 0.78399 0.0
H3515 H 0.34503 0.92757 0.80934 0.0
C3516 C 0.41443 0.98889 0.8803 0.0
C3517 C 0.43744 0.99206 0.87608 0.0
C3518 C 0.3913 0.97917 0.87185 0.0
C3519 C 0.39073 0.97201 0.85918 0.0
C3520 C 0.41368 0.97656 0.85446 0.0
C3521 C 0.43675 0.9867 0.86273 0.0
C3522 C 0.36671 0.95887 0.85119 0.0
C3523 C 0.36133 0.96113 0.83683 0.0
C3524 C 0.35011 0.94338 0.85741 0.0
C3525 C 0.35451 0.93962 0.87236 0.0
C3526 C 0.37598 0.9366 0.8785 0.0
C3527 C 0.37947 0.93256 0.89256 0.0
C3528 C 0.36168 0.93148 0.90057 0.0
C3529 C 0.34024 0.93438 0.89452 0.0
C3530 C 0.33657 0.93836 0.88046 0.0
C3531 C 0.28439 0.88686 0.81802 0.0
C3532 C 0.26685 0.89079 0.80811 0.0
C3533 C 0.30252 0.90027 0.82708 0.0
C3534 C 0.30329 0.91776 0.82643 0.0
C3535 C 0.28474 0.92135 0.81717 0.0
C3536 C 0.26682 0.90804 0.80802 0.0
C3537 C 0.3245 0.93246 0.83479 0.0
C3538 C 0.32917 0.93051 0.84913 0.0
C3539 C 0.34069 0.94802 0.82857 0.0
C3540 C 0.33729 0.95035 0.81338 0.0
C3541 C 0.3307 0.96427 0.80733 0.0
C3542 C 0.32633 0.96594 0.79296 0.0
C3543 C 0.32876 0.95387 0.78456 0.0
C3544 C 0.33561 0.94012 0.79051 0.0
C3545 C 0.33988 0.93835 0.80487 0.0
H3546 H 0.32533 0.95517 0.77344 0.0
H3547 H 0.36447 0.92832 0.91144 0.0
H3548 H 0.83177 0.74823 0.64538 0.0
H3549 H 0.8341 0.72532 0.66246 0.0
H3550 H 0.791 0.68368 0.63185 0.0
H3551 H 0.78969 0.70665 0.61454 0.0
H3552 H 0.7721 0.6874 0.65984 0.0
H3553 H 0.83261 0.67707 0.64039 0.0
H3554 H 0.87112 0.68499 0.63036 0.0
H3555 H 0.91718 0.71083 0.66832 0.0
H3556 H 0.87888 0.70333 0.67852 0.0
H3557 H 0.76803 0.63081 0.71757 0.0
H3558 H 0.77603 0.63839 0.69393 0.0
H3559 H 0.83507 0.68975 0.70811 0.0
H3560 H 0.82639 0.68255 0.73165 0.0
H3561 H 0.84334 0.67321 0.68451 0.0
H3562 H 0.78301 0.69133 0.7003 0.0
H3563 H 0.74487 0.68678 0.70969 0.0
H3564 H 0.69869 0.64756 0.67807 0.0
H3565 H 0.73667 0.65193 0.66847 0.0
C3566 C 0.82374 0.73425 0.64219 0.0
C3567 C 0.81091 0.72916 0.62867 0.0
C3568 C 0.82506 0.7212 0.6519 0.0
C3569 C 0.81296 0.70288 0.64833 0.0
C3570 C 0.80086 0.69778 0.6347 0.0
C3571 C 0.80022 0.71089 0.62484 0.0
C3572 C 0.80957 0.68941 0.65945 0.0
C3573 C 0.7873 0.68371 0.66498 0.0
C3574 C 0.82967 0.68504 0.66623 0.0
C3575 C 0.85283 0.6898 0.66017 0.0
C3576 C 0.85093 0.68464 0.64655 0.0
C3577 C 0.87272 0.689 0.64085 0.0
C3578 C 0.89658 0.69845 0.64869 0.0
C3579 C 0.89868 0.70353 0.66226 0.0
C3580 C 0.87692 0.69921 0.66801 0.0
C3581 C 0.7835 0.64336 0.71575 0.0
C3582 C 0.7966 0.65616 0.7264 0.0
C3583 C 0.78795 0.6477 0.70223 0.0
C3584 C 0.80599 0.66467 0.6993 0.0
C3585 C 0.82115 0.67655 0.7102 0.0
C3586 C 0.81626 0.67242 0.72364 0.0
C3587 C 0.80599 0.67147 0.68498 0.0
C3588 C 0.82771 0.67616 0.67902 0.0
C3589 C 0.78536 0.675 0.67774 0.0
C3590 C 0.76269 0.67167 0.68386 0.0
C3591 C 0.76477 0.68152 0.69549 0.0
C3592 C 0.74317 0.67904 0.70081 0.0
C3593 C 0.71939 0.66674 0.69458 0.0
C3594 C 0.71714 0.65703 0.68292 0.0
C3595 C 0.73869 0.65949 0.67755 0.0
H3596 H 0.7027 0.66481 0.69874 0.0
H3597 H 0.91344 0.70179 0.64426 0.0
H3598 H 0.16105 0.31538 0.28174 0.0
H3599 H 0.15465 0.2963 0.30204 0.0
H3600 H 0.17347 0.34266 0.32736 0.0
H3601 H 0.17994 0.3619 0.30685 0.0
H3602 H 0.20461 0.32704 0.33582 0.0
H3603 H 0.11634 0.30587 0.32746 0.0
H3604 H 0.07278 0.29478 0.31442 0.0
H3605 H 0.07867 0.24703 0.30308 0.0
H3606 H 0.12241 0.25793 0.31588 0.0
H3607 H 0.21933 0.26362 0.38633 0.0
H3608 H 0.19646 0.28156 0.37504 0.0
H3609 H 0.1861 0.25645 0.33602 0.0
H3610 H 0.20949 0.23891 0.34715 0.0
H3611 H 0.14336 0.26404 0.34063 0.0
H3612 H 0.23593 0.29143 0.34386 0.0
H3613 H 0.27981 0.30357 0.35654 0.0
H3614 H 0.26449 0.34111 0.37765 0.0
H3615 H 0.22038 0.32889 0.36536 0.0
C3616 C 0.16266 0.32136 0.29154 0.0
C3617 C 0.17094 0.34005 0.29277 0.0
C3618 C 0.15892 0.31043 0.30317 0.0
C3619 C 0.16353 0.318 0.31628 0.0
C3620 C 0.16966 0.33651 0.31734 0.0
C3621 C 0.17317 0.34747 0.30562 0.0
C3622 C 0.16691 0.30722 0.32869 0.0
C3623 C 0.1908 0.31349 0.3372 0.0
C3624 C 0.14907 0.28947 0.33044 0.0
C3625 C 0.12275 0.28276 0.32264 0.0
C3626 C 0.10843 0.29306 0.32211 0.0
C3627 C 0.08368 0.28679 0.31477 0.0
C3628 C 0.07296 0.27021 0.30792 0.0
C3629 C 0.08699 0.25986 0.30841 0.0
C3630 C 0.11175 0.26606 0.31574 0.0
C3631 C 0.21136 0.26147 0.37545 0.0
C3632 C 0.21618 0.24992 0.36758 0.0
C3633 C 0.19841 0.27176 0.36902 0.0
C3634 C 0.18972 0.27035 0.35471 0.0
C3635 C 0.19255 0.25764 0.34709 0.0
C3636 C 0.20595 0.24767 0.35344 0.0
C3637 C 0.18122 0.28375 0.3472 0.0
C3638 C 0.15658 0.27787 0.33961 0.0
C3639 C 0.19828 0.30194 0.34633 0.0
C3640 C 0.22471 0.30899 0.35391 0.0
C3641 C 0.24181 0.30207 0.35138 0.0
C3642 C 0.26677 0.309 0.35849 0.0
C3643 C 0.27493 0.32302 0.368 0.0
C3644 C 0.25815 0.33016 0.37039 0.0
C3645 C 0.23316 0.32321 0.36338 0.0
H3646 H 0.29427 0.32844 0.37346 0.0
H3647 H 0.05379 0.26538 0.30224 0.0
loop_
_geom_bond_atom_site_label_1
_geom_bond_atom_site_label_2
_geom_bond_distance
_geom_bond_site_symmetry_2
_ccdc_geom_bond_type
Mg0 O1 2.028 . S
Mg0 O7 1.986 . S
Mg0 O9 2.114 1_455 S
Mg0 O10 2.251 . S
Mg0 O13 2.010 1_455 S
O1 Mg0 2.028 . S
O1 C4 1.250 . S
O2 Mg3 2.028 . S
O2 C4 1.248 . S
Mg3 O2 2.028 . S
Mg3 O8 2.032 . S
Mg3 O10 2.079 . S
C4 O1 1.250 . S
C4 O2 1.248 . S
C5 O6 1.264 1_545 S
C5 O13 1.249 . S
O6 C5 1.264 1_565 S
O7 Mg0 1.986 . S
O7 C11 1.246 . S
O8 Mg3 2.032 . S
O8 C11 1.259 . S
O9 Mg0 2.114 1_655 S
O9 C12 1.252 . S
O10 Mg0 2.251 . S
O10 Mg3 2.079 . S
O10 C12 1.273 1_455 S
C11 O7 1.246 . S
C11 O8 1.259 . S
C12 O9 1.252 . S
C12 O10 1.273 1_655 S
O13 Mg0 2.010 1_655 S
O13 C5 1.249 . S
Mg14 O15 2.028 1_455 S
Mg14 O21 1.986 1_455 S
Mg14 O23 2.114 . S
Mg14 O24 2.251 . S
Mg14 O27 2.010 . S
O15 Mg14 2.028 1_655 S
O15 C18 1.250 . S
O16 Mg17 2.028 . S
O16 C18 1.248 . S
Mg17 O16 2.028 . S
Mg17 O22 2.032 . S
Mg17 O24 2.079 1_655 S
C18 O15 1.250 . S
C18 O16 1.248 . S
C19 O20 1.264 . S
C19 O27 1.249 . S
O20 C19 1.264 . S
O21 Mg14 1.986 1_655 S
O21 C25 1.246 . S
O22 Mg17 2.032 . S
O22 C25 1.259 . S
O23 Mg14 2.114 . S
O23 C26 1.252 . S
O24 Mg14 2.251 . S
O24 Mg17 2.079 1_455 S
O24 C26 1.273 . S
C25 O21 1.246 . S
C25 O22 1.259 . S
C26 O23 1.252 . S
C26 O24 1.273 . S
O27 Mg14 2.010 . S
O27 C19 1.249 . S
Mg28 O29 2.028 . S
Mg28 O35 1.986 . S
Mg28 O37 2.114 . S
Mg28 O38 2.251 . S
Mg28 O41 2.010 . S
O29 Mg28 2.028 . S
O29 C32 1.250 . S
O30 Mg31 2.028 . S
O30 C32 1.248 . S
Mg31 O30 2.028 . S
Mg31 O36 2.032 . S
Mg31 O38 2.079 . S
C32 O29 1.250 . S
C32 O30 1.248 . S
C33 O34 1.264 . S
C33 O41 1.249 . S
O34 C33 1.264 . S
O35 Mg28 1.986 . S
O35 C39 1.246 . S
O36 Mg31 2.032 . S
O36 C39 1.259 . S
O37 Mg28 2.114 . S
O37 C40 1.252 . S
O38 Mg28 2.251 . S
O38 Mg31 2.079 . S
O38 C40 1.273 . S
C39 O35 1.246 . S
C39 O36 1.259 . S
C40 O37 1.252 . S
C40 O38 1.273 . S
O41 Mg28 2.010 . S
O41 C33 1.249 . S
Mg42 O43 2.028 . S
Mg42 O49 1.986 . S
Mg42 O51 2.114 . S
Mg42 O52 2.251 . S
Mg42 O55 2.010 . S
O43 Mg42 2.028 . S
O43 C46 1.250 . S
O44 Mg45 2.028 . S
O44 C46 1.248 . S
Mg45 O44 2.028 . S
Mg45 O50 2.032 . S
Mg45 O52 2.079 . S
C46 O43 1.250 . S
C46 O44 1.248 . S
C47 O48 1.264 . S
C47 O55 1.249 . S
O48 C47 1.264 . S
O49 Mg42 1.986 . S
O49 C53 1.246 . S
O50 Mg45 2.032 . S
O50 C53 1.259 . S
O51 Mg42 2.114 . S
O51 C54 1.252 . S
O52 Mg42 2.251 . S
O52 Mg45 2.079 . S
O52 C54 1.273 . S
C53 O49 1.246 . S
C53 O50 1.259 . S
C54 O51 1.252 . S
C54 O52 1.273 . S
O55 Mg42 2.010 . S
O55 C47 1.249 . S
Mg56 O57 2.028 1_655 S
Mg56 O63 1.986 1_655 S
Mg56 O65 2.114 . S
Mg56 O66 2.251 . S
Mg56 O69 2.010 . S
O57 Mg56 2.028 1_455 S
O57 C60 1.250 . S
O58 Mg59 2.028 . S
O58 C60 1.248 . S
Mg59 O58 2.028 . S
Mg59 O64 2.032 . S
Mg59 O66 2.079 1_455 S
C60 O57 1.250 . S
C60 O58 1.248 . S
C61 O62 1.264 . S
C61 O69 1.249 . S
O62 C61 1.264 . S
O63 Mg56 1.986 1_455 S
O63 C67 1.246 . S
O64 Mg59 2.032 . S
O64 C67 1.259 . S
O65 Mg56 2.114 . S
O65 C68 1.252 . S
O66 Mg56 2.251 . S
O66 Mg59 2.079 1_655 S
O66 C68 1.273 . S
C67 O63 1.246 . S
C67 O64 1.259 . S
C68 O65 1.252 . S
C68 O66 1.273 . S
O69 Mg56 2.010 . S
O69 C61 1.249 . S
Mg70 O71 2.028 . S
Mg70 O77 1.986 . S
Mg70 O79 2.114 . S
Mg70 O80 2.251 . S
Mg70 O83 2.010 . S
O71 Mg70 2.028 . S
O71 C74 1.250 . S
O72 Mg73 2.028 . S
O72 C74 1.248 . S
Mg73 O72 2.028 . S
Mg73 O78 2.032 . S
Mg73 O80 2.079 . S
C74 O71 1.250 . S
C74 O72 1.248 . S
C75 O76 1.264 . S
C75 O83 1.249 . S
O76 C75 1.264 . S
O77 Mg70 1.986 . S
O77 C81 1.246 . S
O78 Mg73 2.032 . S
O78 C81 1.259 . S
O79 Mg70 2.114 . S
O79 C82 1.252 . S
O80 Mg70 2.251 . S
O80 Mg73 2.079 . S
O80 C82 1.273 . S
C81 O77 1.246 . S
C81 O78 1.259 . S
C82 O79 1.252 . S
C82 O80 1.273 . S
O83 Mg70 2.010 . S
O83 C75 1.249 . S
Mg84 O85 2.028 . S
Mg84 O91 1.986 . S
Mg84 O93 2.114 . S
Mg84 O94 2.251 . S
Mg84 O97 2.010 . S
O85 Mg84 2.028 . S
O85 C88 1.250 . S
O86 Mg87 2.028 . S
O86 C88 1.248 . S
Mg87 O86 2.028 . S
Mg87 O92 2.032 . S
Mg87 O94 2.079 . S
C88 O85 1.250 . S
C88 O86 1.248 . S
C89 O90 1.264 . S
C89 O97 1.249 . S
O90 C89 1.264 . S
O91 Mg84 1.986 . S
O91 C95 1.246 . S
O92 Mg87 2.032 . S
O92 C95 1.259 . S
O93 Mg84 2.114 . S
O93 C96 1.252 . S
O94 Mg84 2.251 . S
O94 Mg87 2.079 . S
O94 C96 1.273 . S
C95 O91 1.246 . S
C95 O92 1.259 . S
C96 O93 1.252 . S
C96 O94 1.273 . S
O97 Mg84 2.010 . S
O97 C89 1.249 . S
Mg98 O99 2.028 . S
Mg98 O105 1.986 1_655 S
Mg98 O107 2.114 . S
Mg98 O108 2.251 . S
Mg98 O111 2.010 1_655 S
O99 Mg98 2.028 . S
O99 C102 1.250 . S
O100 Mg101 2.028 . S
O100 C102 1.248 . S
Mg101 O100 2.028 . S
Mg101 O106 2.026 1_655 S
Mg101 O108 2.079 . S
C102 O99 1.250 . S
C102 O100 1.248 . S
C103 O104 1.264 1_565 S
C103 O111 1.249 . S
O104 C103 1.264 1_545 S
O105 Mg98 1.986 1_455 S
O105 C109 1.246 . S
O106 Mg101 2.026 1_455 S
O106 C109 1.263 . S
O107 Mg98 2.114 . S
O107 C110 1.252 . S
O108 Mg98 2.251 . S
O108 Mg101 2.079 . S
O108 C110 1.273 . S
C109 O105 1.246 . S
C109 O106 1.263 . S
C110 O107 1.252 . S
C110 O108 1.273 . S
O111 Mg98 2.010 1_455 S
O111 C103 1.249 . S
Mg112 O113 2.028 . S
Mg112 O119 1.986 . S
Mg112 O121 2.114 . S
Mg112 O122 2.251 . S
Mg112 O125 2.010 . S
O113 Mg112 2.028 . S
O113 C116 1.250 . S
O114 Mg115 2.028 . S
O114 C116 1.248 . S
Mg115 O114 2.028 . S
Mg115 O120 2.032 . S
Mg115 O122 2.079 . S
C116 O113 1.250 . S
C116 O114 1.248 . S
C117 O118 1.264 1_545 S
C117 O125 1.249 . S
O118 C117 1.264 1_565 S
O119 Mg112 1.986 . S
O119 C123 1.246 . S
O120 Mg115 2.032 . S
O120 C123 1.259 . S
O121 Mg112 2.114 . S
O121 C124 1.252 . S
O122 Mg112 2.251 . S
O122 Mg115 2.079 . S
O122 C124 1.273 . S
C123 O119 1.246 . S
C123 O120 1.259 . S
C124 O121 1.252 . S
C124 O122 1.273 . S
O125 Mg112 2.010 . S
O125 C117 1.249 . S
Mg126 O127 2.028 1_455 S
Mg126 O133 1.986 1_455 S
Mg126 O135 2.114 . S
Mg126 O136 2.251 . S
Mg126 O139 2.010 . S
O127 Mg126 2.028 1_655 S
O127 C130 1.250 . S
O128 Mg129 2.028 . S
O128 C130 1.248 . S
Mg129 O128 2.028 . S
Mg129 O134 2.032 . S
Mg129 O136 2.079 1_655 S
C130 O127 1.250 . S
C130 O128 1.248 . S
C131 O132 1.264 . S
C131 O139 1.249 . S
O132 C131 1.264 . S
O133 Mg126 1.986 1_655 S
O133 C137 1.246 . S
O134 Mg129 2.032 . S
O134 C137 1.259 . S
O135 Mg126 2.114 . S
O135 C138 1.252 . S
O136 Mg126 2.251 . S
O136 Mg129 2.079 1_455 S
O136 C138 1.273 . S
C137 O133 1.246 . S
C137 O134 1.259 . S
C138 O135 1.252 . S
C138 O136 1.273 . S
O139 Mg126 2.010 . S
O139 C131 1.249 . S
Mg140 O141 2.028 . S
Mg140 O147 1.986 . S
Mg140 O149 2.114 . S
Mg140 O150 2.251 . S
Mg140 O153 2.010 . S
O141 Mg140 2.028 . S
O141 C144 1.250 . S
O142 Mg143 2.028 . S
O142 C144 1.248 . S
Mg143 O142 2.028 . S
Mg143 O148 2.032 . S
Mg143 O150 2.079 . S
C144 O141 1.250 . S
C144 O142 1.248 . S
C145 O146 1.264 . S
C145 O153 1.249 . S
O146 C145 1.264 . S
O147 Mg140 1.986 . S
O147 C151 1.246 . S
O148 Mg143 2.032 . S
O148 C151 1.259 . S
O149 Mg140 2.114 . S
O149 C152 1.252 . S
O150 Mg140 2.251 . S
O150 Mg143 2.079 . S
O150 C152 1.273 . S
C151 O147 1.246 . S
C151 O148 1.259 . S
C152 O149 1.252 . S
C152 O150 1.273 . S
O153 Mg140 2.010 . S
O153 C145 1.249 . S
Mg154 O155 2.028 . S
Mg154 O161 1.986 . S
Mg154 O163 2.114 . S
Mg154 O164 2.251 . S
Mg154 O167 2.010 . S
O155 Mg154 2.028 . S
O155 C158 1.250 . S
O156 Mg157 2.028 . S
O156 C158 1.248 . S
Mg157 O156 2.028 . S
Mg157 O162 2.032 . S
Mg157 O164 2.079 . S
C158 O155 1.250 . S
C158 O156 1.248 . S
C159 O160 1.264 . S
C159 O167 1.249 . S
O160 C159 1.264 . S
O161 Mg154 1.986 . S
O161 C165 1.246 . S
O162 Mg157 2.032 . S
O162 C165 1.259 . S
O163 Mg154 2.114 . S
O163 C166 1.252 . S
O164 Mg154 2.251 . S
O164 Mg157 2.079 . S
O164 C166 1.273 . S
C165 O161 1.246 . S
C165 O162 1.259 . S
C166 O163 1.252 . S
C166 O164 1.273 . S
O167 Mg154 2.010 . S
O167 C159 1.249 . S
Mg168 O169 2.028 . S
Mg168 O175 1.986 . S
Mg168 O177 2.114 . S
Mg168 O178 2.251 . S
Mg168 O181 2.010 . S
O169 Mg168 2.028 . S
O169 C172 1.250 . S
O170 Mg171 2.028 . S
O170 C172 1.248 . S
Mg171 O170 2.028 . S
Mg171 O176 2.032 . S
Mg171 O178 2.079 . S
C172 O169 1.250 . S
C172 O170 1.248 . S
C173 O174 1.264 . S
C173 O181 1.249 . S
O174 C173 1.264 . S
O175 Mg168 1.986 . S
O175 C179 1.246 . S
O176 Mg171 2.032 . S
O176 C179 1.259 . S
O177 Mg168 2.114 . S
O177 C180 1.252 . S
O178 Mg168 2.251 . S
O178 Mg171 2.079 . S
O178 C180 1.273 . S
C179 O175 1.246 . S
C179 O176 1.259 . S
C180 O177 1.252 . S
C180 O178 1.273 . S
O181 Mg168 2.010 . S
O181 C173 1.249 . S
Mg182 O183 2.028 . S
Mg182 O189 1.986 . S
Mg182 O191 2.114 . S
Mg182 O192 2.251 . S
Mg182 O195 2.010 . S
O183 Mg182 2.028 . S
O183 C186 1.250 . S
O184 Mg185 2.028 . S
O184 C186 1.248 . S
Mg185 O184 2.028 . S
Mg185 O190 2.032 . S
Mg185 O192 2.079 . S
C186 O183 1.250 . S
C186 O184 1.248 . S
C187 O188 1.264 . S
C187 O195 1.249 . S
O188 C187 1.264 . S
O189 Mg182 1.986 . S
O189 C193 1.246 . S
O190 Mg185 2.032 . S
O190 C193 1.259 . S
O191 Mg182 2.114 . S
O191 C194 1.252 . S
O192 Mg182 2.251 . S
O192 Mg185 2.079 . S
O192 C194 1.273 . S
C193 O189 1.246 . S
C193 O190 1.259 . S
C194 O191 1.252 . S
C194 O192 1.273 . S
O195 Mg182 2.010 . S
O195 C187 1.249 . S
Mg196 O197 2.028 . S
Mg196 O203 1.986 . S
Mg196 O205 2.114 . S
Mg196 O206 2.251 . S
Mg196 O209 2.010 . S
O197 Mg196 2.028 . S
O197 C200 1.250 . S
O198 Mg199 2.028 . S
O198 C200 1.248 . S
Mg199 O198 2.028 . S
Mg199 O204 2.032 . S
Mg199 O206 2.079 . S
C200 O197 1.250 . S
C200 O198 1.248 . S
C201 O202 1.264 . S
C201 O209 1.249 . S
O202 C201 1.264 . S
O203 Mg196 1.986 . S
O203 C207 1.246 . S
O204 Mg199 2.032 . S
O204 C207 1.259 . S
O205 Mg196 2.114 . S
O205 C208 1.252 . S
O206 Mg196 2.251 . S
O206 Mg199 2.079 . S
O206 C208 1.273 . S
C207 O203 1.246 . S
C207 O204 1.259 . S
C208 O205 1.252 . S
C208 O206 1.273 . S
O209 Mg196 2.010 . S
O209 C201 1.249 . S
Mg210 O211 2.028 . S
Mg210 O217 1.986 1_655 S
Mg210 O219 2.114 . S
Mg210 O220 2.251 . S
Mg210 O223 2.010 1_655 S
O211 Mg210 2.028 . S
O211 C214 1.250 . S
O212 Mg213 2.028 . S
O212 C214 1.248 . S
Mg213 O212 2.028 . S
Mg213 O218 2.023 1_655 S
Mg213 O220 2.079 . S
C214 O211 1.250 . S
C214 O212 1.248 . S
C215 O216 1.264 . S
C215 O223 1.249 . S
O216 C215 1.264 . S
O217 Mg210 1.986 1_455 S
O217 C221 1.246 . S
O218 Mg213 2.023 1_455 S
O218 C221 1.264 . S
O219 Mg210 2.114 . S
O219 C222 1.252 . S
O220 Mg210 2.251 . S
O220 Mg213 2.079 . S
O220 C222 1.273 . S
C221 O217 1.246 . S
C221 O218 1.264 . S
C222 O219 1.252 . S
C222 O220 1.273 . S
O223 Mg210 2.010 1_455 S
O223 C215 1.249 . S
Mg224 O225 2.028 . S
Mg224 O231 1.986 . S
Mg224 O233 2.114 1_455 S
Mg224 O234 2.251 . S
Mg224 O237 2.010 1_455 S
O225 Mg224 2.028 . S
O225 C228 1.250 . S
O226 Mg227 2.028 . S
O226 C228 1.248 . S
Mg227 O226 2.028 . S
Mg227 O232 2.032 . S
Mg227 O234 2.079 . S
C228 O225 1.250 . S
C228 O226 1.248 . S
C229 O230 1.264 . S
C229 O237 1.249 . S
O230 C229 1.264 . S
O231 Mg224 1.986 . S
O231 C235 1.246 . S
O232 Mg227 2.032 . S
O232 C235 1.259 . S
O233 Mg224 2.114 1_655 S
O233 C236 1.252 . S
O234 Mg224 2.251 . S
O234 Mg227 2.079 . S
O234 C236 1.273 1_455 S
C235 O231 1.246 . S
C235 O232 1.259 . S
C236 O233 1.252 . S
C236 O234 1.273 1_655 S
O237 Mg224 2.010 1_655 S
O237 C229 1.249 . S
Mg238 O239 2.028 . S
Mg238 O245 1.986 . S
Mg238 O247 2.114 . S
Mg238 O248 2.251 . S
Mg238 O251 2.010 . S
O239 Mg238 2.028 . S
O239 C242 1.250 . S
O240 Mg241 2.028 . S
O240 C242 1.248 . S
Mg241 O240 2.028 . S
Mg241 O246 2.032 . S
Mg241 O248 2.079 . S
C242 O239 1.250 . S
C242 O240 1.248 . S
C243 O244 1.264 . S
C243 O251 1.249 . S
O244 C243 1.264 . S
O245 Mg238 1.986 . S
O245 C249 1.246 . S
O246 Mg241 2.032 . S
O246 C249 1.259 . S
O247 Mg238 2.114 . S
O247 C250 1.252 . S
O248 Mg238 2.251 . S
O248 Mg241 2.079 . S
O248 C250 1.273 . S
C249 O245 1.246 . S
C249 O246 1.259 . S
C250 O247 1.252 . S
C250 O248 1.273 . S
O251 Mg238 2.010 . S
O251 C243 1.249 . S
Mg252 O253 2.028 . S
Mg252 O259 1.986 . S
Mg252 O261 2.114 . S
Mg252 O262 2.251 . S
Mg252 O265 2.010 . S
O253 Mg252 2.028 . S
O253 C256 1.250 . S
O254 Mg255 2.028 . S
O254 C256 1.248 . S
Mg255 O254 2.028 . S
Mg255 O260 2.032 . S
Mg255 O262 2.079 . S
C256 O253 1.250 . S
C256 O254 1.248 . S
C257 O258 1.264 . S
C257 O265 1.249 . S
O258 C257 1.264 . S
O259 Mg252 1.986 . S
O259 C263 1.246 . S
O260 Mg255 2.032 . S
O260 C263 1.259 . S
O261 Mg252 2.114 . S
O261 C264 1.252 . S
O262 Mg252 2.251 . S
O262 Mg255 2.079 . S
O262 C264 1.273 . S
C263 O259 1.246 . S
C263 O260 1.259 . S
C264 O261 1.252 . S
C264 O262 1.273 . S
O265 Mg252 2.010 . S
O265 C257 1.249 . S
Mg266 O267 2.028 1_655 S
Mg266 O273 1.986 1_655 S
Mg266 O275 2.114 . S
Mg266 O276 2.251 . S
Mg266 O279 2.010 . S
O267 Mg266 2.028 1_455 S
O267 C270 1.250 . S
O268 Mg269 2.028 . S
O268 C270 1.248 . S
Mg269 O268 2.028 . S
Mg269 O274 2.032 . S
Mg269 O276 2.079 1_455 S
C270 O267 1.250 . S
C270 O268 1.248 . S
C271 O272 1.264 . S
C271 O279 1.249 . S
O272 C271 1.264 . S
O273 Mg266 1.986 1_455 S
O273 C277 1.246 . S
O274 Mg269 2.032 . S
O274 C277 1.259 . S
O275 Mg266 2.114 . S
O275 C278 1.252 . S
O276 Mg266 2.251 . S
O276 Mg269 2.079 1_655 S
O276 C278 1.273 . S
C277 O273 1.246 . S
C277 O274 1.259 . S
C278 O275 1.252 . S
C278 O276 1.273 . S
O279 Mg266 2.010 . S
O279 C271 1.249 . S
Mg280 O281 2.028 . S
Mg280 O287 1.986 . S
Mg280 O289 2.114 . S
Mg280 O290 2.251 . S
Mg280 O293 2.010 . S
O281 Mg280 2.028 . S
O281 C284 1.250 . S
O282 Mg283 2.028 . S
O282 C284 1.248 . S
Mg283 O282 2.028 . S
Mg283 O288 2.032 . S
Mg283 O290 2.079 . S
C284 O281 1.250 . S
C284 O282 1.248 . S
C285 O286 1.264 . S
C285 O293 1.249 . S
O286 C285 1.264 . S
O287 Mg280 1.986 . S
O287 C291 1.246 . S
O288 Mg283 2.032 . S
O288 C291 1.259 . S
O289 Mg280 2.114 . S
O289 C292 1.252 . S
O290 Mg280 2.251 . S
O290 Mg283 2.079 . S
O290 C292 1.273 . S
C291 O287 1.246 . S
C291 O288 1.259 . S
C292 O289 1.252 . S
C292 O290 1.273 . S
O293 Mg280 2.010 . S
O293 C285 1.249 . S
Mg294 O295 2.028 . S
Mg294 O301 1.986 . S
Mg294 O303 2.114 . S
Mg294 O304 2.251 . S
Mg294 O307 2.010 . S
O295 Mg294 2.028 . S
O295 C298 1.250 . S
O296 Mg297 2.028 . S
O296 C298 1.248 . S
Mg297 O296 2.028 . S
Mg297 O302 2.032 . S
Mg297 O304 2.079 . S
C298 O295 1.250 . S
C298 O296 1.248 . S
C299 O300 1.264 . S
C299 O307 1.249 . S
O300 C299 1.264 . S
O301 Mg294 1.986 . S
O301 C305 1.246 . S
O302 Mg297 2.032 . S
O302 C305 1.259 . S
O303 Mg294 2.114 . S
O303 C306 1.252 . S
O304 Mg294 2.251 . S
O304 Mg297 2.079 . S
O304 C306 1.273 . S
C305 O301 1.246 . S
C305 O302 1.259 . S
C306 O303 1.252 . S
C306 O304 1.273 . S
O307 Mg294 2.010 . S
O307 C299 1.249 . S
Mg308 O309 2.028 . S
Mg308 O315 1.986 . S
Mg308 O317 2.114 . S
Mg308 O318 2.251 . S
Mg308 O321 2.010 . S
O309 Mg308 2.028 . S
O309 C312 1.250 . S
O310 Mg311 2.028 . S
O310 C312 1.248 . S
Mg311 O310 2.028 . S
Mg311 O316 2.032 . S
Mg311 O318 2.079 . S
C312 O309 1.250 . S
C312 O310 1.248 . S
C313 O314 1.264 1_565 S
C313 O321 1.249 . S
O314 C313 1.264 1_545 S
O315 Mg308 1.986 . S
O315 C319 1.246 . S
O316 Mg311 2.032 . S
O316 C319 1.259 . S
O317 Mg308 2.114 . S
O317 C320 1.252 . S
O318 Mg308 2.251 . S
O318 Mg311 2.079 . S
O318 C320 1.273 . S
C319 O315 1.246 . S
C319 O316 1.259 . S
C320 O317 1.252 . S
C320 O318 1.273 . S
O321 Mg308 2.010 . S
O321 C313 1.249 . S
Mg322 O323 2.028 . S
Mg322 O329 1.986 . S
Mg322 O331 2.114 . S
Mg322 O332 2.251 . S
Mg322 O335 2.010 . S
O323 Mg322 2.028 . S
O323 C326 1.250 . S
O324 Mg325 2.028 . S
O324 C326 1.248 . S
Mg325 O324 2.028 . S
Mg325 O330 2.032 . S
Mg325 O332 2.079 . S
C326 O323 1.250 . S
C326 O324 1.248 . S
C327 O328 1.264 . S
C327 O335 1.249 . S
O328 C327 1.264 . S
O329 Mg322 1.986 . S
O329 C333 1.246 . S
O330 Mg325 2.032 . S
O330 C333 1.259 . S
O331 Mg322 2.114 . S
O331 C334 1.252 . S
O332 Mg322 2.251 . S
O332 Mg325 2.079 . S
O332 C334 1.273 . S
C333 O329 1.246 . S
C333 O330 1.259 . S
C334 O331 1.252 . S
C334 O332 1.273 . S
O335 Mg322 2.010 . S
O335 C327 1.249 . S
Mg336 O337 2.028 . S
Mg336 O343 1.986 . S
Mg336 O345 2.114 . S
Mg336 O346 2.251 . S
Mg336 O349 2.010 . S
O337 Mg336 2.028 . S
O337 C340 1.250 . S
O338 Mg339 2.028 . S
O338 C340 1.248 . S
Mg339 O338 2.028 . S
Mg339 O344 2.032 . S
Mg339 O346 2.079 . S
C340 O337 1.250 . S
C340 O338 1.248 . S
C341 O342 1.264 . S
C341 O349 1.249 . S
O342 C341 1.264 . S
O343 Mg336 1.986 . S
O343 C347 1.246 . S
O344 Mg339 2.032 . S
O344 C347 1.259 . S
O345 Mg336 2.114 . S
O345 C348 1.252 . S
O346 Mg336 2.251 . S
O346 Mg339 2.079 . S
O346 C348 1.273 . S
C347 O343 1.246 . S
C347 O344 1.259 . S
C348 O345 1.252 . S
C348 O346 1.273 . S
O349 Mg336 2.010 . S
O349 C341 1.249 . S
Mg350 O351 2.028 . S
Mg350 O357 1.986 . S
Mg350 O359 2.114 . S
Mg350 O360 2.251 . S
Mg350 O363 2.010 . S
O351 Mg350 2.028 . S
O351 C354 1.250 . S
O352 Mg353 2.028 . S
O352 C354 1.248 . S
Mg353 O352 2.028 . S
Mg353 O358 2.032 . S
Mg353 O360 2.079 . S
C354 O351 1.250 . S
C354 O352 1.248 . S
C355 O356 1.264 . S
C355 O363 1.249 . S
O356 C355 1.264 . S
O357 Mg350 1.986 . S
O357 C361 1.246 . S
O358 Mg353 2.032 . S
O358 C361 1.259 . S
O359 Mg350 2.114 . S
O359 C362 1.252 . S
O360 Mg350 2.251 . S
O360 Mg353 2.079 . S
O360 C362 1.273 . S
C361 O357 1.246 . S
C361 O358 1.259 . S
C362 O359 1.252 . S
C362 O360 1.273 . S
O363 Mg350 2.010 . S
O363 C355 1.249 . S
Mg364 O365 2.028 . S
Mg364 O371 1.986 . S
Mg364 O373 2.114 . S
Mg364 O374 2.251 . S
Mg364 O377 2.010 . S
O365 Mg364 2.028 . S
O365 C368 1.250 . S
O366 Mg367 2.028 . S
O366 C368 1.248 . S
Mg367 O366 2.028 . S
Mg367 O372 2.032 . S
Mg367 O374 2.079 . S
C368 O365 1.250 . S
C368 O366 1.248 . S
C369 O370 1.264 . S
C369 O377 1.249 . S
O370 C369 1.264 . S
O371 Mg364 1.986 . S
O371 C375 1.246 . S
O372 Mg367 2.032 . S
O372 C375 1.259 . S
O373 Mg364 2.114 . S
O373 C376 1.252 . S
O374 Mg364 2.251 . S
O374 Mg367 2.079 . S
O374 C376 1.273 . S
C375 O371 1.246 . S
C375 O372 1.259 . S
C376 O373 1.252 . S
C376 O374 1.273 . S
O377 Mg364 2.010 . S
O377 C369 1.249 . S
Mg378 O379 2.028 . S
Mg378 O385 1.986 . S
Mg378 O387 2.114 . S
Mg378 O388 2.251 . S
Mg378 O391 2.010 . S
O379 Mg378 2.028 . S
O379 C382 1.250 . S
O380 Mg381 2.028 . S
O380 C382 1.248 . S
Mg381 O380 2.028 . S
Mg381 O386 2.032 . S
Mg381 O388 2.079 . S
C382 O379 1.250 . S
C382 O380 1.248 . S
C383 O384 1.264 . S
C383 O391 1.249 . S
O384 C383 1.264 . S
O385 Mg378 1.986 . S
O385 C389 1.246 . S
O386 Mg381 2.032 . S
O386 C389 1.259 . S
O387 Mg378 2.114 . S
O387 C390 1.252 . S
O388 Mg378 2.251 . S
O388 Mg381 2.079 . S
O388 C390 1.273 . S
C389 O385 1.246 . S
C389 O386 1.259 . S
C390 O387 1.252 . S
C390 O388 1.273 . S
O391 Mg378 2.010 . S
O391 C383 1.249 . S
Mg392 O393 2.028 . S
Mg392 O399 1.986 . S
Mg392 O401 2.114 . S
Mg392 O402 2.251 . S
Mg392 O405 2.010 . S
O393 Mg392 2.028 . S
O393 C396 1.250 . S
O394 Mg395 2.028 . S
O394 C396 1.248 . S
Mg395 O394 2.028 . S
Mg395 O400 2.032 . S
Mg395 O402 2.079 . S
C396 O393 1.250 . S
C396 O394 1.248 . S
C397 O398 1.264 . S
C397 O405 1.249 . S
O398 C397 1.264 . S
O399 Mg392 1.986 . S
O399 C403 1.246 . S
O400 Mg395 2.032 . S
O400 C403 1.259 . S
O401 Mg392 2.114 . S
O401 C404 1.252 . S
O402 Mg392 2.251 . S
O402 Mg395 2.079 . S
O402 C404 1.273 . S
C403 O399 1.246 . S
C403 O400 1.259 . S
C404 O401 1.252 . S
C404 O402 1.273 . S
O405 Mg392 2.010 . S
O405 C397 1.249 . S
Mg406 O407 2.028 . S
Mg406 O413 1.986 . S
Mg406 O415 2.114 . S
Mg406 O416 2.251 . S
Mg406 O419 2.010 . S
O407 Mg406 2.028 . S
O407 C410 1.250 . S
O408 Mg409 2.028 . S
O408 C410 1.248 . S
Mg409 O408 2.028 . S
Mg409 O414 2.032 . S
Mg409 O416 2.079 . S
C410 O407 1.250 . S
C410 O408 1.248 . S
C411 O412 1.264 . S
C411 O419 1.249 . S
O412 C411 1.264 . S
O413 Mg406 1.986 . S
O413 C417 1.246 . S
O414 Mg409 2.032 . S
O414 C417 1.259 . S
O415 Mg406 2.114 . S
O415 C418 1.252 . S
O416 Mg406 2.251 . S
O416 Mg409 2.079 . S
O416 C418 1.273 . S
C417 O413 1.246 . S
C417 O414 1.259 . S
C418 O415 1.252 . S
C418 O416 1.273 . S
O419 Mg406 2.010 . S
O419 C411 1.249 . S
Mg420 O421 2.028 . S
Mg420 O427 1.986 . S
Mg420 O429 2.114 . S
Mg420 O430 2.251 . S
Mg420 O433 2.010 . S
O421 Mg420 2.028 . S
O421 C424 1.250 . S
O422 Mg423 2.028 . S
O422 C424 1.248 . S
Mg423 O422 2.028 . S
Mg423 O428 2.032 . S
Mg423 O430 2.079 . S
C424 O421 1.250 . S
C424 O422 1.248 . S
C425 O426 1.264 . S
C425 O433 1.249 . S
O426 C425 1.264 . S
O427 Mg420 1.986 . S
O427 C431 1.246 . S
O428 Mg423 2.032 . S
O428 C431 1.259 . S
O429 Mg420 2.114 . S
O429 C432 1.252 . S
O430 Mg420 2.251 . S
O430 Mg423 2.079 . S
O430 C432 1.273 . S
C431 O427 1.246 . S
C431 O428 1.259 . S
C432 O429 1.252 . S
C432 O430 1.273 . S
O433 Mg420 2.010 . S
O433 C425 1.249 . S
Mg434 O435 2.028 . S
Mg434 O441 1.986 . S
Mg434 O443 2.114 . S
Mg434 O444 2.251 . S
Mg434 O447 2.010 . S
O435 Mg434 2.028 . S
O435 C438 1.250 . S
O436 Mg437 2.028 . S
O436 C438 1.248 . S
Mg437 O436 2.028 . S
Mg437 O442 2.032 . S
Mg437 O444 2.079 . S
C438 O435 1.250 . S
C438 O436 1.248 . S
C439 O440 1.264 . S
C439 O447 1.249 . S
O440 C439 1.264 . S
O441 Mg434 1.986 . S
O441 C445 1.246 . S
O442 Mg437 2.032 . S
O442 C445 1.259 . S
O443 Mg434 2.114 . S
O443 C446 1.252 . S
O444 Mg434 2.251 . S
O444 Mg437 2.079 . S
O444 C446 1.273 . S
C445 O441 1.246 . S
C445 O442 1.259 . S
C446 O443 1.252 . S
C446 O444 1.273 . S
O447 Mg434 2.010 . S
O447 C439 1.249 . S
H448 C466 0.951 . S
H449 C468 0.951 . S
H450 C470 0.950 . S
H451 C471 0.950 . S
H452 C473 0.950 . S
H453 C476 0.950 . S
H454 C477 0.950 . S
H455 C479 0.950 . S
H456 C480 0.950 . S
H457 C481 0.951 . S
H458 C483 0.951 . S
H459 C485 0.950 . S
H460 C486 0.950 . S
H461 C488 0.950 . S
H462 C491 0.950 . S
H463 C492 0.950 . S
H464 C494 0.950 . S
H465 C495 0.950 . S
C466 H448 0.951 . S
C466 C467 1.366 1_545 S
C466 C468 1.388 . S
C467 C466 1.366 1_565 S
C467 C471 1.385 1_455 S
C468 H449 0.951 . S
C468 C466 1.388 . S
C468 C469 1.366 1_545 S
C469 C468 1.366 1_565 S
C469 C470 1.414 1_455 S
C469 C472 1.514 . S
C470 H450 0.950 . S
C470 C469 1.414 1_655 S
C470 C471 1.374 . S
C471 H451 0.950 . S
C471 C467 1.385 1_655 S
C471 C470 1.374 . S
C472 C469 1.514 . S
C472 C473 1.326 1_455 S
C472 C474 1.420 1_565 S
C473 H452 0.950 . S
C473 C472 1.326 1_655 S
C473 C489 1.377 . S
C474 C472 1.420 1_545 S
C474 C475 1.524 . S
C474 C488 1.377 . S
C475 C474 1.524 . S
C475 C476 1.397 1_545 S
C475 C480 1.363 . S
C476 H453 0.950 . S
C476 C475 1.397 1_565 S
C476 C477 1.334 . S
C477 H454 0.950 . S
C477 C476 1.334 . S
C477 C478 1.287 1_565 S
C478 C477 1.287 1_545 S
C478 C479 1.524 . S
C478 H497 0.913 . S
C479 H455 0.950 . S
C479 C478 1.524 . S
C479 C480 1.415 . S
C480 H456 0.950 . S
C480 C475 1.363 . S
C480 C479 1.415 . S
C481 H457 0.951 . S
C481 C482 1.366 1_565 S
C481 C483 1.388 . S
C482 C481 1.366 1_545 S
C482 C486 1.385 1_655 S
C483 H458 0.951 . S
C483 C481 1.388 . S
C483 C484 1.366 1_565 S
C484 C483 1.366 1_545 S
C484 C485 1.414 1_655 S
C484 C487 1.499 . S
C485 H459 0.950 . S
C485 C484 1.414 1_455 S
C485 C486 1.374 . S
C486 H460 0.950 . S
C486 C482 1.385 1_455 S
C486 C485 1.374 . S
C487 C484 1.499 . S
C487 C488 1.373 1_655 S
C487 C489 1.389 1_545 S
C488 H461 0.950 . S
C488 C474 1.377 . S
C488 C487 1.373 1_455 S
C489 C473 1.377 . S
C489 C487 1.389 1_565 S
C489 C490 1.524 . S
C490 C489 1.524 . S
C490 C491 1.397 1_565 S
C490 C495 1.363 . S
C491 H462 0.950 . S
C491 C490 1.397 1_545 S
C491 C492 1.334 . S
C492 H463 0.950 . S
C492 C491 1.334 . S
C492 C493 1.287 1_545 S
C493 C492 1.287 1_565 S
C493 C494 1.524 . S
C493 H496 0.999 . S
C494 H464 0.950 . S
C494 C493 1.524 . S
C494 C495 1.415 . S
C495 H465 0.950 . S
C495 C490 1.363 . S
C495 C494 1.415 . S
H496 C493 0.999 . S
H497 C478 0.913 . S
H498 C516 0.951 . S
H499 C518 0.951 . S
H500 C520 0.950 . S
H501 C521 0.950 . S
H502 C523 0.950 . S
H503 C526 0.950 . S
H504 C527 0.950 . S
H505 C529 0.950 . S
H506 C530 0.950 . S
H507 C531 0.951 . S
H508 C533 0.951 . S
H509 C535 0.950 . S
H510 C536 0.950 . S
H511 C538 0.950 . S
H512 C541 0.950 . S
H513 C542 0.950 . S
H514 C544 0.950 . S
H515 C545 0.950 . S
C516 H498 0.951 . S
C516 C517 1.366 1_655 S
C516 C518 1.388 . S
C517 C516 1.366 1_455 S
C517 C521 1.385 . S
C518 H499 0.951 . S
C518 C516 1.388 . S
C518 C519 1.366 1_655 S
C519 C518 1.366 1_455 S
C519 C520 1.414 . S
C519 C522 1.499 . S
C520 H500 0.950 . S
C520 C519 1.414 . S
C520 C521 1.374 . S
C521 H501 0.950 . S
C521 C517 1.385 . S
C521 C520 1.374 . S
C522 C519 1.499 . S
C522 C523 1.373 . S
C522 C524 1.389 1_455 S
C523 H502 0.950 . S
C523 C522 1.373 . S
C523 C539 1.377 . S
C524 C522 1.389 1_655 S
C524 C525 1.524 . S
C524 C538 1.377 . S
C525 C524 1.524 . S
C525 C526 1.397 1_655 S
C525 C530 1.363 . S
C526 H503 0.950 . S
C526 C525 1.397 1_455 S
C526 C527 1.334 . S
C527 H504 0.950 . S
C527 C526 1.334 . S
C527 C528 1.287 1_455 S
C528 C527 1.287 1_655 S
C528 C529 1.524 . S
C528 H547 0.913 . S
C529 H505 0.950 . S
C529 C528 1.524 . S
C529 C530 1.415 . S
C530 H506 0.950 . S
C530 C525 1.363 . S
C530 C529 1.415 . S
C531 H507 0.951 . S
C531 C532 1.366 1_455 S
C531 C533 1.388 . S
C532 C531 1.366 1_655 S
C532 C536 1.385 . S
C533 H508 0.951 . S
C533 C531 1.388 . S
C533 C534 1.366 1_455 S
C534 C533 1.366 1_655 S
C534 C535 1.414 . S
C534 C537 1.499 . S
C535 H509 0.950 . S
C535 C534 1.414 . S
C535 C536 1.374 . S
C536 H510 0.950 . S
C536 C532 1.385 . S
C536 C535 1.374 . S
C537 C534 1.499 . S
C537 C538 1.373 . S
C537 C539 1.389 1_655 S
C538 H511 0.950 . S
C538 C524 1.377 . S
C538 C537 1.373 . S
C539 C523 1.377 . S
C539 C537 1.389 1_455 S
C539 C540 1.524 . S
C540 C539 1.524 . S
C540 C541 1.397 1_455 S
C540 C545 1.363 . S
C541 H512 0.950 . S
C541 C540 1.397 1_655 S
C541 C542 1.334 . S
C542 H513 0.950 . S
C542 C541 1.334 . S
C542 C543 1.287 1_655 S
C543 C542 1.287 1_455 S
C543 C544 1.524 . S
C543 H546 0.999 . S
C544 H514 0.950 . S
C544 C543 1.524 . S
C544 C545 1.415 . S
C545 H515 0.950 . S
C545 C540 1.363 . S
C545 C544 1.415 . S
H546 C543 0.999 . S
H547 C528 0.913 . S
H548 C566 0.951 . S
H549 C568 0.951 . S
H550 C570 0.950 . S
H551 C571 0.950 . S
H552 C573 0.950 . S
H553 C576 0.950 . S
H554 C577 0.950 . S
H555 C579 0.950 . S
H556 C580 0.950 . S
H557 C581 0.951 . S
H558 C583 0.951 . S
H559 C585 0.950 . S
H560 C586 0.950 . S
H561 C588 0.950 . S
H562 C591 0.950 . S
H563 C592 0.950 . S
H564 C594 0.950 . S
H565 C595 0.950 . S
C566 H548 0.951 . S
C566 C567 1.366 . S
C566 C568 1.388 . S
C567 C566 1.366 . S
C567 C571 1.385 . S
C568 H549 0.951 . S
C568 C566 1.388 . S
C568 C569 1.366 . S
C569 C568 1.366 . S
C569 C570 1.414 . S
C569 C572 1.499 . S
C570 H550 0.950 . S
C570 C569 1.414 . S
C570 C571 1.374 . S
C571 H551 0.950 . S
C571 C567 1.385 . S
C571 C570 1.374 . S
C572 C569 1.499 . S
C572 C573 1.373 . S
C572 C574 1.389 . S
C573 H552 0.950 . S
C573 C572 1.373 . S
C573 C589 1.377 1_556 S
C574 C572 1.389 . S
C574 C575 1.524 . S
C574 C588 1.377 1_556 S
C575 C574 1.524 . S
C575 C576 1.397 . S
C575 C580 1.363 . S
C576 H553 0.950 . S
C576 C575 1.397 . S
C576 C577 1.334 . S
C577 H554 0.950 . S
C577 C576 1.334 . S
C577 C578 1.287 . S
C578 C577 1.287 . S
C578 C579 1.524 . S
C578 H597 0.913 . S
C579 H555 0.950 . S
C579 C578 1.524 . S
C579 C580 1.415 . S
C580 H556 0.950 . S
C580 C575 1.363 . S
C580 C579 1.415 . S
C581 H557 0.951 . S
C581 C582 1.366 . S
C581 C583 1.388 . S
C582 C581 1.366 . S
C582 C586 1.385 . S
C583 H558 0.951 . S
C583 C581 1.388 . S
C583 C584 1.366 . S
C584 C583 1.366 . S
C584 C585 1.414 . S
C584 C587 1.499 . S
C585 H559 0.950 . S
C585 C584 1.414 . S
C585 C586 1.374 . S
C586 H560 0.950 . S
C586 C582 1.385 . S
C586 C585 1.374 . S
C587 C584 1.499 . S
C587 C588 1.373 . S
C587 C589 1.389 . S
C588 H561 0.950 . S
C588 C574 1.377 1_554 S
C588 C587 1.373 . S
C589 C573 1.377 1_554 S
C589 C587 1.389 . S
C589 C590 1.524 . S
C590 C589 1.524 . S
C590 C591 1.397 . S
C590 C595 1.363 . S
C591 H562 0.950 . S
C591 C590 1.397 . S
C591 C592 1.334 . S
C592 H563 0.950 . S
C592 C591 1.334 . S
C592 C593 1.287 . S
C593 C592 1.287 . S
C593 C594 1.524 . S
C593 H596 0.999 . S
C594 H564 0.950 . S
C594 C593 1.524 . S
C594 C595 1.415 . S
C595 H565 0.950 . S
C595 C590 1.363 . S
C595 C594 1.415 . S
H596 C593 0.999 . S
H597 C578 0.913 . S
H598 C616 0.951 . S
H599 C618 0.951 . S
H600 C620 0.950 . S
H601 C621 0.950 . S
H602 C623 0.950 . S
H603 C626 0.950 . S
H604 C627 0.950 . S
H605 C629 0.950 . S
H606 C630 0.950 . S
H607 C631 0.951 . S
H608 C633 0.951 . S
H609 C635 0.950 . S
H610 C636 0.950 . S
H611 C638 0.950 . S
H612 C641 0.950 . S
H613 C642 0.950 . S
H614 C644 0.950 . S
H615 C645 0.950 . S
C616 H598 0.951 . S
C616 C617 1.366 . S
C616 C618 1.388 . S
C617 C616 1.366 . S
C617 C621 1.385 . S
C618 H599 0.951 . S
C618 C616 1.388 . S
C618 C619 1.366 . S
C619 C618 1.366 . S
C619 C620 1.414 . S
C619 C622 1.499 . S
C620 H600 0.950 . S
C620 C619 1.414 . S
C620 C621 1.374 . S
C621 H601 0.950 . S
C621 C617 1.385 . S
C621 C620 1.374 . S
C622 C619 1.499 . S
C622 C623 1.373 . S
C622 C624 1.389 . S
C623 H602 0.950 . S
C623 C622 1.373 . S
C623 C639 1.377 1_545 S
C624 C622 1.389 . S
C624 C625 1.524 . S
C624 C638 1.377 1_545 S
C625 C624 1.524 . S
C625 C626 1.397 . S
C625 C630 1.363 . S
C626 H603 0.950 . S
C626 C625 1.397 . S
C626 C627 1.334 . S
C627 H604 0.950 . S
C627 C626 1.334 . S
C627 C628 1.287 . S
C628 C627 1.287 . S
C628 C629 1.524 . S
C628 H647 0.913 . S
C629 H605 0.950 . S
C629 C628 1.524 . S
C629 C630 1.415 . S
C630 H606 0.950 . S
C630 C625 1.363 . S
C630 C629 1.415 . S
C631 H607 0.951 . S
C631 C632 1.366 . S
C631 C633 1.388 . S
C632 C631 1.366 . S
C632 C636 1.385 . S
C633 H608 0.951 . S
C633 C631 1.388 . S
C633 C634 1.366 . S
C634 C633 1.366 . S
C634 C635 1.414 . S
C634 C637 1.499 . S
C635 H609 0.950 . S
C635 C634 1.414 . S
C635 C636 1.374 . S
C636 H610 0.950 . S
C636 C632 1.385 . S
C636 C635 1.374 . S
C637 C634 1.499 . S
C637 C638 1.373 . S
C637 C639 1.389 . S
C638 H611 0.950 . S
C638 C624 1.377 1_565 S
C638 C637 1.373 . S
C639 C623 1.377 1_565 S
C639 C637 1.389 . S
C639 C640 1.524 . S
C640 C639 1.524 . S
C640 C641 1.397 . S
C640 C645 1.363 . S
C641 H612 0.950 . S
C641 C640 1.397 . S
C641 C642 1.334 . S
C642 H613 0.950 . S
C642 C641 1.334 . S
C642 C643 1.287 . S
C643 C642 1.287 . S
C643 C644 1.524 . S
C643 H646 0.999 . S
C644 H614 0.950 . S
C644 C643 1.524 . S
C644 C645 1.415 . S
C645 H615 0.950 . S
C645 C640 1.363 . S
C645 C644 1.415 . S
H646 C643 0.999 . S
H647 C628 0.913 . S
H648 C666 0.951 . S
H649 C668 0.951 . S
H650 C670 0.950 . S
H651 C671 0.950 . S
H652 C673 0.950 . S
H653 C676 0.950 1_565 S
H654 C677 0.950 . S
H655 C679 0.950 . S
H656 C680 0.950 1_556 S
H657 C681 0.951 . S
H658 C683 0.951 . S
H659 C685 0.950 . S
H660 C686 0.950 . S
H661 C688 0.950 . S
H662 C691 0.916 1_545 S
H663 C692 0.950 . S
H664 C694 0.950 . S
H665 C695 0.950 . S
C666 H648 0.951 . S
C666 C667 1.366 . S
C666 C668 1.388 . S
C667 C666 1.366 . S
C667 C671 1.385 1_545 S
C668 H649 0.951 . S
C668 C666 1.388 . S
C668 C669 1.366 . S
C669 C668 1.366 . S
C669 C670 1.414 1_545 S
C669 C672 1.497 . S
C670 H650 0.950 . S
C670 C669 1.414 1_565 S
C670 C671 1.374 . S
C671 H651 0.950 . S
C671 C667 1.385 1_565 S
C671 C670 1.374 . S
C672 C669 1.497 . S
C672 C673 1.379 1_545 S
C672 C674 1.385 . S
C673 H652 0.950 . S
C673 C672 1.379 1_565 S
C673 C689 1.377 . S
C674 C672 1.385 . S
C674 C675 1.524 . S
C674 C688 1.377 1_554 S
C675 C674 1.524 . S
C675 C676 1.397 . S
C675 C680 1.363 . S
C676 H653 0.950 1_545 S
C676 C675 1.397 . S
C676 C677 1.334 . S
C677 H654 0.950 . S
C677 C676 1.334 . S
C677 C678 1.287 . S
C678 C677 1.287 . S
C678 C679 1.524 . S
C678 H697 0.913 . S
C679 H655 0.950 . S
C679 C678 1.524 . S
C679 C680 1.415 . S
C680 H656 0.950 1_554 S
C680 C675 1.363 . S
C680 C679 1.415 . S
C681 H657 0.951 . S
C681 C682 1.366 . S
C681 C683 1.388 . S
C682 C681 1.366 . S
C682 C686 1.385 1_565 S
C683 H658 0.951 . S
C683 C681 1.388 . S
C683 C684 1.366 . S
C684 C683 1.366 . S
C684 C685 1.414 1_565 S
C684 C687 1.499 . S
C685 H659 0.950 . S
C685 C684 1.414 1_545 S
C685 C686 1.374 . S
C686 H660 0.950 . S
C686 C682 1.385 1_545 S
C686 C685 1.374 . S
C687 C684 1.499 . S
C687 C688 1.373 1_565 S
C687 C689 1.389 1_556 S
C688 H661 0.950 . S
C688 C674 1.377 1_556 S
C688 C687 1.373 1_545 S
C689 C673 1.377 . S
C689 C687 1.389 1_554 S
C689 C690 1.524 . S
C690 C689 1.524 . S
C690 C691 1.397 1_554 S
C690 C695 1.363 . S
C691 H662 0.916 1_565 S
C691 C690 1.397 1_556 S
C691 C692 1.334 . S
C692 H663 0.950 . S
C692 C691 1.334 . S
C692 C693 1.287 . S
C693 C692 1.287 . S
C693 C694 1.524 1_556 S
C693 H696 0.999 . S
C694 H664 0.950 . S
C694 C693 1.524 1_554 S
C694 C695 1.415 . S
C695 H665 0.950 . S
C695 C690 1.363 . S
C695 C694 1.415 . S
H696 C693 0.999 . S
H697 C678 0.913 . S
H698 C716 0.951 . S
H699 C718 0.951 . S
H700 C720 0.950 1_655 S
H701 C721 0.950 . S
H702 C723 0.950 . S
H703 C726 0.950 . S
H704 C727 0.950 . S
H705 C729 0.950 . S
H706 C730 0.950 1_455 S
H707 C731 0.951 . S
H708 C733 0.951 . S
H709 C735 0.950 1_455 S
H710 C736 0.950 . S
H711 C738 0.950 . S
H712 C741 0.950 . S
H713 C742 0.950 . S
H714 C744 0.950 . S
H715 C745 0.950 . S
C716 H698 0.951 . S
C716 C717 1.366 . S
C716 C718 1.388 . S
C717 C716 1.366 . S
C717 C721 1.385 . S
C718 H699 0.951 . S
C718 C716 1.388 . S
C718 C719 1.366 . S
C719 C718 1.366 . S
C719 C720 1.414 . S
C719 C722 1.499 . S
C720 H700 0.950 1_455 S
C720 C719 1.414 . S
C720 C721 1.374 . S
C721 H701 0.950 . S
C721 C717 1.385 . S
C721 C720 1.374 . S
C722 C719 1.499 . S
C722 C723 1.373 . S
C722 C724 1.389 1_455 S
C723 H702 0.950 . S
C723 C722 1.373 . S
C723 C739 1.377 . S
C724 C722 1.389 1_655 S
C724 C725 1.524 . S
C724 C738 1.377 . S
C725 C724 1.524 . S
C725 C726 1.397 . S
C725 C730 1.363 . S
C726 H703 0.950 . S
C726 C725 1.397 . S
C726 C727 1.334 . S
C727 H704 0.950 . S
C727 C726 1.334 . S
C727 C728 1.287 . S
C728 C727 1.287 . S
C728 C729 1.524 . S
C728 H747 0.913 . S
C729 H705 0.950 . S
C729 C728 1.524 . S
C729 C730 1.415 . S
C730 H706 0.950 1_655 S
C730 C725 1.363 . S
C730 C729 1.415 . S
C731 H707 0.951 . S
C731 C732 1.366 . S
C731 C733 1.388 . S
C732 C731 1.366 . S
C732 C736 1.385 . S
C733 H708 0.951 . S
C733 C731 1.388 . S
C733 C734 1.366 . S
C734 C733 1.366 . S
C734 C735 1.414 . S
C734 C737 1.499 . S
C735 H709 0.950 1_655 S
C735 C734 1.414 . S
C735 C736 1.374 . S
C736 H710 0.950 . S
C736 C732 1.385 . S
C736 C735 1.374 . S
C737 C734 1.499 . S
C737 C738 1.373 . S
C737 C739 1.389 1_655 S
C738 H711 0.950 . S
C738 C724 1.377 . S
C738 C737 1.373 . S
C739 C723 1.377 . S
C739 C737 1.389 1_455 S
C739 C740 1.524 . S
C740 C739 1.524 . S
C740 C741 1.397 . S
C740 C745 1.363 . S
C741 H712 0.950 . S
C741 C740 1.397 . S
C741 C742 1.334 . S
C742 H713 0.950 . S
C742 C741 1.334 . S
C742 C743 1.287 . S
C743 C742 1.287 . S
C743 C744 1.524 . S
C743 H746 0.999 . S
C744 H714 0.950 . S
C744 C743 1.524 . S
C744 C745 1.415 . S
C745 H715 0.950 . S
C745 C740 1.363 . S
C745 C744 1.415 . S
H746 C743 0.999 . S
H747 C728 0.913 . S
H748 C766 0.951 . S
H749 C768 0.951 . S
H750 C770 0.950 . S
H751 C771 0.950 . S
H752 C773 0.950 . S
H753 C776 0.950 . S
H754 C777 0.950 . S
H755 C779 0.950 . S
H756 C780 0.950 . S
H757 C781 0.951 . S
H758 C783 0.951 . S
H759 C785 0.950 . S
H760 C786 0.950 . S
H761 C788 0.950 . S
H762 C791 0.950 . S
H763 C792 0.950 . S
H764 C794 0.950 . S
H765 C795 0.950 . S
C766 H748 0.951 . S
C766 C767 1.366 . S
C766 C768 1.388 . S
C767 C766 1.366 . S
C767 C771 1.385 . S
C768 H749 0.951 . S
C768 C766 1.388 . S
C768 C769 1.366 . S
C769 C768 1.366 . S
C769 C770 1.414 . S
C769 C772 1.499 . S
C770 H750 0.950 . S
C770 C769 1.414 . S
C770 C771 1.374 . S
C771 H751 0.950 . S
C771 C767 1.385 . S
C771 C770 1.374 . S
C772 C769 1.499 . S
C772 C773 1.373 . S
C772 C774 1.389 . S
C773 H752 0.950 . S
C773 C772 1.373 . S
C773 C789 1.377 . S
C774 C772 1.389 . S
C774 C775 1.524 . S
C774 C788 1.377 . S
C775 C774 1.524 . S
C775 C776 1.397 . S
C775 C780 1.363 . S
C776 H753 0.950 . S
C776 C775 1.397 . S
C776 C777 1.334 . S
C777 H754 0.950 . S
C777 C776 1.334 . S
C777 C778 1.287 . S
C778 C777 1.287 . S
C778 C779 1.524 . S
C778 H797 0.913 . S
C779 H755 0.950 . S
C779 C778 1.524 . S
C779 C780 1.415 . S
C780 H756 0.950 . S
C780 C775 1.363 . S
C780 C779 1.415 . S
C781 H757 0.951 . S
C781 C782 1.366 . S
C781 C783 1.388 . S
C782 C781 1.366 . S
C782 C786 1.385 . S
C783 H758 0.951 . S
C783 C781 1.388 . S
C783 C784 1.366 . S
C784 C783 1.366 . S
C784 C785 1.414 . S
C784 C787 1.499 . S
C785 H759 0.950 . S
C785 C784 1.414 . S
C785 C786 1.374 . S
C786 H760 0.950 . S
C786 C782 1.385 . S
C786 C785 1.374 . S
C787 C784 1.499 . S
C787 C788 1.373 . S
C787 C789 1.389 . S
C788 H761 0.950 . S
C788 C774 1.377 . S
C788 C787 1.373 . S
C789 C773 1.377 . S
C789 C787 1.389 . S
C789 C790 1.524 . S
C790 C789 1.524 . S
C790 C791 1.397 . S
C790 C795 1.363 . S
C791 H762 0.950 . S
C791 C790 1.397 . S
C791 C792 1.334 . S
C792 H763 0.950 . S
C792 C791 1.334 . S
C792 C793 1.287 . S
C793 C792 1.287 . S
C793 C794 1.524 . S
C793 H796 0.999 . S
C794 H764 0.950 . S
C794 C793 1.524 . S
C794 C795 1.415 . S
C795 H765 0.950 . S
C795 C790 1.363 . S
C795 C794 1.415 . S
H796 C793 0.999 . S
H797 C778 0.913 . S
H798 C816 0.951 . S
H799 C818 0.951 . S
H800 C820 0.950 . S
H801 C821 0.950 . S
H802 C823 0.950 . S
H803 C826 0.950 . S
H804 C827 0.950 . S
H805 C829 0.950 . S
H806 C830 0.950 . S
H807 C831 0.951 . S
H808 C833 0.951 . S
H809 C835 0.950 . S
H810 C836 0.950 . S
H811 C838 0.950 . S
H812 C841 0.950 . S
H813 C842 0.950 . S
H814 C844 0.950 . S
H815 C845 0.950 . S
C816 H798 0.951 . S
C816 C817 1.366 . S
C816 C818 1.388 . S
C817 C816 1.366 . S
C817 C821 1.385 . S
C818 H799 0.951 . S
C818 C816 1.388 . S
C818 C819 1.366 . S
C819 C818 1.366 . S
C819 C820 1.414 . S
C819 C822 1.499 . S
C820 H800 0.950 . S
C820 C819 1.414 . S
C820 C821 1.374 . S
C821 H801 0.950 . S
C821 C817 1.385 . S
C821 C820 1.374 . S
C822 C819 1.499 . S
C822 C823 1.373 . S
C822 C824 1.389 . S
C823 H802 0.950 . S
C823 C822 1.373 . S
C823 C839 1.377 . S
C824 C822 1.389 . S
C824 C825 1.524 . S
C824 C838 1.377 . S
C825 C824 1.524 . S
C825 C826 1.397 . S
C825 C830 1.363 . S
C826 H803 0.950 . S
C826 C825 1.397 . S
C826 C827 1.334 . S
C827 H804 0.950 . S
C827 C826 1.334 . S
C827 C828 1.287 . S
C828 C827 1.287 . S
C828 C829 1.524 . S
C828 H847 0.913 . S
C829 H805 0.950 . S
C829 C828 1.524 . S
C829 C830 1.415 . S
C830 H806 0.950 . S
C830 C825 1.363 . S
C830 C829 1.415 . S
C831 H807 0.951 . S
C831 C832 1.366 . S
C831 C833 1.388 . S
C832 C831 1.366 . S
C832 C836 1.385 . S
C833 H808 0.951 . S
C833 C831 1.388 . S
C833 C834 1.366 . S
C834 C833 1.366 . S
C834 C835 1.414 . S
C834 C837 1.499 . S
C835 H809 0.950 . S
C835 C834 1.414 . S
C835 C836 1.374 . S
C836 H810 0.950 . S
C836 C832 1.385 . S
C836 C835 1.374 . S
C837 C834 1.499 . S
C837 C838 1.373 . S
C837 C839 1.389 . S
C838 H811 0.950 . S
C838 C824 1.377 . S
C838 C837 1.373 . S
C839 C823 1.377 . S
C839 C837 1.389 . S
C839 C840 1.524 . S
C840 C839 1.524 . S
C840 C841 1.397 . S
C840 C845 1.363 . S
C841 H812 0.950 . S
C841 C840 1.397 . S
C841 C842 1.334 . S
C842 H813 0.950 . S
C842 C841 1.334 . S
C842 C843 1.287 . S
C843 C842 1.287 . S
C843 C844 1.524 . S
C843 H846 0.999 . S
C844 H814 0.950 . S
C844 C843 1.524 . S
C844 C845 1.415 . S
C845 H815 0.950 . S
C845 C840 1.363 . S
C845 C844 1.415 . S
H846 C843 0.999 . S
H847 C828 0.913 . S
H848 C866 0.951 . S
H849 C868 0.951 . S
H850 C870 0.950 . S
H851 C871 0.950 . S
H852 C873 0.950 . S
H853 C876 0.950 . S
H854 C877 0.950 . S
H855 C879 0.950 . S
H856 C880 0.950 . S
H857 C881 0.951 . S
H858 C883 0.951 . S
H859 C885 0.950 . S
H860 C886 0.950 . S
H861 C888 0.950 . S
H862 C891 0.950 . S
H863 C892 0.950 . S
H864 C894 0.950 . S
H865 C895 0.950 . S
C866 H848 0.951 . S
C866 C867 1.366 . S
C866 C868 1.388 . S
C867 C866 1.366 . S
C867 C871 1.385 . S
C868 H849 0.951 . S
C868 C866 1.388 . S
C868 C869 1.366 . S
C869 C868 1.366 . S
C869 C870 1.414 . S
C869 C872 1.499 . S
C870 H850 0.950 . S
C870 C869 1.414 . S
C870 C871 1.374 . S
C871 H851 0.950 . S
C871 C867 1.385 . S
C871 C870 1.374 . S
C872 C869 1.499 . S
C872 C873 1.373 . S
C872 C874 1.389 . S
C873 H852 0.950 . S
C873 C872 1.373 . S
C873 C889 1.377 . S
C874 C872 1.389 . S
C874 C875 1.524 . S
C874 C888 1.377 . S
C875 C874 1.524 . S
C875 C876 1.397 . S
C875 C880 1.363 . S
C876 H853 0.950 . S
C876 C875 1.397 . S
C876 C877 1.334 . S
C877 H854 0.950 . S
C877 C876 1.334 . S
C877 C878 1.287 . S
C878 C877 1.287 . S
C878 C879 1.524 . S
C878 H897 0.913 . S
C879 H855 0.950 . S
C879 C878 1.524 . S
C879 C880 1.415 . S
C880 H856 0.950 . S
C880 C875 1.363 . S
C880 C879 1.415 . S
C881 H857 0.951 . S
C881 C882 1.366 . S
C881 C883 1.388 . S
C882 C881 1.366 . S
C882 C886 1.385 . S
C883 H858 0.951 . S
C883 C881 1.388 . S
C883 C884 1.366 . S
C884 C883 1.366 . S
C884 C885 1.414 . S
C884 C887 1.499 . S
C885 H859 0.950 . S
C885 C884 1.414 . S
C885 C886 1.374 . S
C886 H860 0.950 . S
C886 C882 1.385 . S
C886 C885 1.374 . S
C887 C884 1.499 . S
C887 C888 1.373 . S
C887 C889 1.389 . S
C888 H861 0.950 . S
C888 C874 1.377 . S
C888 C887 1.373 . S
C889 C873 1.377 . S
C889 C887 1.389 . S
C889 C890 1.524 . S
C890 C889 1.524 . S
C890 C891 1.397 . S
C890 C895 1.363 . S
C891 H862 0.950 . S
C891 C890 1.397 . S
C891 C892 1.334 . S
C892 H863 0.950 . S
C892 C891 1.334 . S
C892 C893 1.287 . S
C893 C892 1.287 . S
C893 C894 1.524 . S
C893 H896 0.999 . S
C894 H864 0.950 . S
C894 C893 1.524 . S
C894 C895 1.415 . S
C895 H865 0.950 . S
C895 C890 1.363 . S
C895 C894 1.415 . S
H896 C893 0.999 . S
H897 C878 0.913 . S
H898 C916 0.951 . S
H899 C918 0.951 . S
H900 C920 0.950 . S
H901 C921 0.950 . S
H902 C923 0.950 . S
H903 C926 0.950 . S
H904 C927 0.950 . S
H905 C929 0.950 . S
H906 C930 0.950 . S
H907 C931 0.951 . S
H908 C933 0.951 . S
H909 C935 0.950 . S
H910 C936 0.950 . S
H911 C938 0.950 . S
H912 C941 0.950 . S
H913 C942 0.950 . S
H914 C944 0.950 . S
H915 C945 0.950 . S
C916 H898 0.951 . S
C916 C917 1.366 . S
C916 C918 1.388 . S
C917 C916 1.366 . S
C917 C921 1.385 . S
C918 H899 0.951 . S
C918 C916 1.388 . S
C918 C919 1.366 . S
C919 C918 1.366 . S
C919 C920 1.414 . S
C919 C922 1.499 . S
C920 H900 0.950 . S
C920 C919 1.414 . S
C920 C921 1.374 . S
C921 H901 0.950 . S
C921 C917 1.385 . S
C921 C920 1.374 . S
C922 C919 1.499 . S
C922 C923 1.373 . S
C922 C924 1.389 . S
C923 H902 0.950 . S
C923 C922 1.373 . S
C923 C939 1.377 . S
C924 C922 1.389 . S
C924 C925 1.524 . S
C924 C938 1.377 . S
C925 C924 1.524 . S
C925 C926 1.397 . S
C925 C930 1.363 . S
C926 H903 0.950 . S
C926 C925 1.397 . S
C926 C927 1.334 . S
C927 H904 0.950 . S
C927 C926 1.334 . S
C927 C928 1.287 . S
C928 C927 1.287 . S
C928 C929 1.524 . S
C928 H947 0.913 . S
C929 H905 0.950 . S
C929 C928 1.524 . S
C929 C930 1.415 . S
C930 H906 0.950 . S
C930 C925 1.363 . S
C930 C929 1.415 . S
C931 H907 0.951 . S
C931 C932 1.366 . S
C931 C933 1.388 . S
C932 C931 1.366 . S
C932 C936 1.385 . S
C933 H908 0.951 . S
C933 C931 1.388 . S
C933 C934 1.366 . S
C934 C933 1.366 . S
C934 C935 1.414 . S
C934 C937 1.499 . S
C935 H909 0.950 . S
C935 C934 1.414 . S
C935 C936 1.374 . S
C936 H910 0.950 . S
C936 C932 1.385 . S
C936 C935 1.374 . S
C937 C934 1.499 . S
C937 C938 1.373 . S
C937 C939 1.389 . S
C938 H911 0.950 . S
C938 C924 1.377 . S
C938 C937 1.373 . S
C939 C923 1.377 . S
C939 C937 1.389 . S
C939 C940 1.524 . S
C940 C939 1.524 . S
C940 C941 1.397 . S
C940 C945 1.363 . S
C941 H912 0.950 . S
C941 C940 1.397 . S
C941 C942 1.334 . S
C942 H913 0.950 . S
C942 C941 1.334 . S
C942 C943 1.287 . S
C943 C942 1.287 . S
C943 C944 1.524 . S
C943 H946 0.999 . S
C944 H914 0.950 . S
C944 C943 1.524 . S
C944 C945 1.415 . S
C945 H915 0.950 . S
C945 C940 1.363 . S
C945 C944 1.415 . S
H946 C943 0.999 . S
H947 C928 0.913 . S
H948 C966 0.951 . S
H949 C968 0.951 . S
H950 C970 0.950 . S
H951 C971 0.950 . S
H952 C973 0.950 . S
H953 C976 0.950 . S
H954 C977 0.950 . S
H955 C979 0.950 . S
H956 C980 0.950 . S
H957 C981 0.951 . S
H958 C983 0.951 . S
H959 C985 0.950 . S
H960 C986 0.950 . S
H961 C988 0.950 . S
H962 C991 0.950 . S
H963 C992 0.950 . S
H964 C994 0.950 . S
H965 C995 0.950 . S
C966 H948 0.951 . S
C966 C967 1.366 . S
C966 C968 1.388 . S
C967 C966 1.366 . S
C967 C971 1.385 . S
C968 H949 0.951 . S
C968 C966 1.388 . S
C968 C969 1.366 . S
C969 C968 1.366 . S
C969 C970 1.414 . S
C969 C972 1.499 . S
C970 H950 0.950 . S
C970 C969 1.414 . S
C970 C971 1.374 . S
C971 H951 0.950 . S
C971 C967 1.385 . S
C971 C970 1.374 . S
C972 C969 1.499 . S
C972 C973 1.373 . S
C972 C974 1.389 . S
C973 H952 0.950 . S
C973 C972 1.373 . S
C973 C989 1.377 1_545 S
C974 C972 1.389 . S
C974 C975 1.524 . S
C974 C988 1.377 1_545 S
C975 C974 1.524 . S
C975 C976 1.397 . S
C975 C980 1.363 . S
C976 H953 0.950 . S
C976 C975 1.397 . S
C976 C977 1.334 . S
C977 H954 0.950 . S
C977 C976 1.334 . S
C977 C978 1.287 . S
C978 C977 1.287 . S
C978 C979 1.524 . S
C978 H997 0.913 . S
C979 H955 0.950 . S
C979 C978 1.524 . S
C979 C980 1.415 . S
C980 H956 0.950 . S
C980 C975 1.363 . S
C980 C979 1.415 . S
C981 H957 0.951 . S
C981 C982 1.366 . S
C981 C983 1.388 . S
C982 C981 1.366 . S
C982 C986 1.385 . S
C983 H958 0.951 . S
C983 C981 1.388 . S
C983 C984 1.366 . S
C984 C983 1.366 . S
C984 C985 1.414 . S
C984 C987 1.499 . S
C985 H959 0.950 . S
C985 C984 1.414 . S
C985 C986 1.374 . S
C986 H960 0.950 . S
C986 C982 1.385 . S
C986 C985 1.374 . S
C987 C984 1.499 . S
C987 C988 1.373 . S
C987 C989 1.389 . S
C988 H961 0.950 . S
C988 C974 1.377 1_565 S
C988 C987 1.373 . S
C989 C973 1.377 1_565 S
C989 C987 1.389 . S
C989 C990 1.524 . S
C990 C989 1.524 . S
C990 C991 1.397 . S
C990 C995 1.363 . S
C991 H962 0.950 . S
C991 C990 1.397 . S
C991 C992 1.334 . S
C992 H963 0.950 . S
C992 C991 1.334 . S
C992 C993 1.287 . S
C993 C992 1.287 . S
C993 C994 1.524 . S
C993 H996 0.999 . S
C994 H964 0.950 . S
C994 C993 1.524 . S
C994 C995 1.415 . S
C995 H965 0.950 . S
C995 C990 1.363 . S
C995 C994 1.415 . S
H996 C993 0.999 . S
H997 C978 0.913 . S
H998 C1016 0.951 . S
H999 C1018 0.951 . S
H1000 C1020 0.950 . S
H1001 C1021 0.950 . S
H1002 C1023 0.949 1_556 S
H1003 C1026 0.950 1_455 S
H1004 C1027 0.950 . S
H1005 C1029 0.950 . S
H1006 C1030 0.950 . S
H1007 C1031 0.951 . S
H1008 C1033 0.951 . S
H1009 C1035 0.950 . S
H1010 C1036 0.950 . S
H1011 C1038 0.950 . S
H1012 C1041 0.950 1_655 S
H1013 C1042 0.950 . S
H1014 C1044 0.950 . S
H1015 C1045 0.950 . S
C1016 H998 0.951 . S
C1016 C1017 1.366 1_655 S
C1016 C1018 1.388 . S
C1017 C1016 1.366 1_455 S
C1017 C1021 1.385 . S
C1018 H999 0.951 . S
C1018 C1016 1.388 . S
C1018 C1019 1.366 1_655 S
C1019 C1018 1.366 1_455 S
C1019 C1020 1.414 . S
C1019 C1022 1.499 . S
C1020 H1000 0.950 . S
C1020 C1019 1.414 . S
C1020 C1021 1.374 . S
C1021 H1001 0.950 . S
C1021 C1017 1.385 . S
C1021 C1020 1.374 . S
C1022 C1019 1.499 . S
C1022 C1023 1.373 1_556 S
C1022 C1024 1.389 1_455 S
C1023 H1002 0.949 1_554 S
C1023 C1022 1.373 1_554 S
C1023 C1039 1.377 . S
C1024 C1022 1.389 1_655 S
C1024 C1025 1.524 . S
C1024 C1038 1.377 1_556 S
C1025 C1024 1.524 . S
C1025 C1026 1.397 . S
C1025 C1030 1.363 . S
C1026 H1003 0.950 1_655 S
C1026 C1025 1.397 . S
C1026 C1027 1.334 . S
C1027 H1004 0.950 . S
C1027 C1026 1.334 . S
C1027 C1028 1.287 . S
C1028 C1027 1.287 . S
C1028 C1029 1.524 . S
C1028 H1047 0.913 . S
C1029 H1005 0.950 . S
C1029 C1028 1.524 . S
C1029 C1030 1.415 . S
C1030 H1006 0.950 . S
C1030 C1025 1.363 . S
C1030 C1029 1.415 . S
C1031 H1007 0.951 . S
C1031 C1032 1.366 1_455 S
C1031 C1033 1.388 . S
C1032 C1031 1.366 1_655 S
C1032 C1036 1.385 . S
C1033 H1008 0.951 . S
C1033 C1031 1.388 . S
C1033 C1034 1.366 1_455 S
C1034 C1033 1.366 1_655 S
C1034 C1035 1.414 . S
C1034 C1037 1.499 . S
C1035 H1009 0.950 . S
C1035 C1034 1.414 . S
C1035 C1036 1.374 . S
C1036 H1010 0.950 . S
C1036 C1032 1.385 . S
C1036 C1035 1.374 . S
C1037 C1034 1.499 . S
C1037 C1038 1.373 . S
C1037 C1039 1.389 1_655 S
C1038 H1011 0.950 . S
C1038 C1024 1.377 1_554 S
C1038 C1037 1.373 . S
C1039 C1023 1.377 . S
C1039 C1037 1.389 1_455 S
C1039 C1040 1.524 . S
C1040 C1039 1.524 . S
C1040 C1041 1.397 . S
C1040 C1045 1.363 . S
C1041 H1012 0.950 1_455 S
C1041 C1040 1.397 . S
C1041 C1042 1.334 . S
C1042 H1013 0.950 . S
C1042 C1041 1.334 . S
C1042 C1043 1.287 . S
C1043 C1042 1.287 . S
C1043 C1044 1.524 . S
C1043 H1046 0.999 . S
C1044 H1014 0.950 . S
C1044 C1043 1.524 . S
C1044 C1045 1.415 . S
C1045 H1015 0.950 . S
C1045 C1040 1.363 . S
C1045 C1044 1.415 . S
H1046 C1043 0.999 . S
H1047 C1028 0.913 . S
H1048 C1066 0.951 . S
H1049 C1068 0.951 . S
H1050 C1070 0.950 . S
H1051 C1071 0.950 . S
H1052 C1073 0.950 . S
H1053 C1076 0.950 . S
H1054 C1077 0.950 . S
H1055 C1079 0.950 . S
H1056 C1080 0.950 . S
H1057 C1081 0.951 . S
H1058 C1083 0.951 . S
H1059 C1085 0.950 . S
H1060 C1086 0.950 . S
H1061 C1088 0.950 . S
H1062 C1091 0.950 . S
H1063 C1092 0.950 . S
H1064 C1094 0.950 . S
H1065 C1095 0.950 . S
C1066 H1048 0.951 . S
C1066 C1067 1.366 . S
C1066 C1068 1.388 . S
C1067 C1066 1.366 . S
C1067 C1071 1.385 . S
C1068 H1049 0.951 . S
C1068 C1066 1.388 . S
C1068 C1069 1.366 . S
C1069 C1068 1.366 . S
C1069 C1070 1.414 . S
C1069 C1072 1.499 . S
C1070 H1050 0.950 . S
C1070 C1069 1.414 . S
C1070 C1071 1.374 . S
C1071 H1051 0.950 . S
C1071 C1067 1.385 . S
C1071 C1070 1.374 . S
C1072 C1069 1.499 . S
C1072 C1073 1.373 . S
C1072 C1074 1.389 . S
C1073 H1052 0.950 . S
C1073 C1072 1.373 . S
C1073 C1089 1.377 . S
C1074 C1072 1.389 . S
C1074 C1075 1.524 . S
C1074 C1088 1.377 . S
C1075 C1074 1.524 . S
C1075 C1076 1.397 . S
C1075 C1080 1.363 . S
C1076 H1053 0.950 . S
C1076 C1075 1.397 . S
C1076 C1077 1.334 . S
C1077 H1054 0.950 . S
C1077 C1076 1.334 . S
C1077 C1078 1.287 . S
C1078 C1077 1.287 . S
C1078 C1079 1.524 . S
C1078 H1097 0.913 . S
C1079 H1055 0.950 . S
C1079 C1078 1.524 . S
C1079 C1080 1.415 . S
C1080 H1056 0.950 . S
C1080 C1075 1.363 . S
C1080 C1079 1.415 . S
C1081 H1057 0.951 . S
C1081 C1082 1.366 . S
C1081 C1083 1.388 . S
C1082 C1081 1.366 . S
C1082 C1086 1.385 . S
C1083 H1058 0.951 . S
C1083 C1081 1.388 . S
C1083 C1084 1.366 . S
C1084 C1083 1.366 . S
C1084 C1085 1.414 . S
C1084 C1087 1.499 . S
C1085 H1059 0.950 . S
C1085 C1084 1.414 . S
C1085 C1086 1.374 . S
C1086 H1060 0.950 . S
C1086 C1082 1.385 . S
C1086 C1085 1.374 . S
C1087 C1084 1.499 . S
C1087 C1088 1.373 . S
C1087 C1089 1.389 . S
C1088 H1061 0.950 . S
C1088 C1074 1.377 . S
C1088 C1087 1.373 . S
C1089 C1073 1.377 . S
C1089 C1087 1.389 . S
C1089 C1090 1.524 . S
C1090 C1089 1.524 . S
C1090 C1091 1.397 . S
C1090 C1095 1.363 . S
C1091 H1062 0.950 . S
C1091 C1090 1.397 . S
C1091 C1092 1.334 . S
C1092 H1063 0.950 . S
C1092 C1091 1.334 . S
C1092 C1093 1.287 . S
C1093 C1092 1.287 . S
C1093 C1094 1.524 . S
C1093 H1096 0.999 . S
C1094 H1064 0.950 . S
C1094 C1093 1.524 . S
C1094 C1095 1.415 . S
C1095 H1065 0.950 . S
C1095 C1090 1.363 . S
C1095 C1094 1.415 . S
H1096 C1093 0.999 . S
H1097 C1078 0.913 . S
H1098 C1116 0.951 . S
H1099 C1118 0.951 . S
H1100 C1120 0.950 . S
H1101 C1121 0.950 . S
H1102 C1123 0.950 . S
H1103 C1126 0.950 . S
H1104 C1127 0.950 . S
H1105 C1129 0.950 . S
H1106 C1130 0.950 . S
H1107 C1131 0.951 . S
H1108 C1133 0.951 . S
H1109 C1135 0.950 . S
H1110 C1136 0.950 . S
H1111 C1138 0.950 . S
H1112 C1141 0.950 . S
H1113 C1142 0.950 . S
H1114 C1144 0.950 . S
H1115 C1145 0.950 . S
C1116 H1098 0.951 . S
C1116 C1117 1.366 . S
C1116 C1118 1.388 . S
C1117 C1116 1.366 . S
C1117 C1121 1.385 . S
C1118 H1099 0.951 . S
C1118 C1116 1.388 . S
C1118 C1119 1.366 . S
C1119 C1118 1.366 . S
C1119 C1120 1.414 . S
C1119 C1122 1.499 . S
C1120 H1100 0.950 . S
C1120 C1119 1.414 . S
C1120 C1121 1.374 . S
C1121 H1101 0.950 . S
C1121 C1117 1.385 . S
C1121 C1120 1.374 . S
C1122 C1119 1.499 . S
C1122 C1123 1.373 . S
C1122 C1124 1.389 . S
C1123 H1102 0.950 . S
C1123 C1122 1.373 . S
C1123 C1139 1.377 1_554 S
C1124 C1122 1.389 . S
C1124 C1125 1.524 . S
C1124 C1138 1.377 1_554 S
C1125 C1124 1.524 . S
C1125 C1126 1.397 . S
C1125 C1130 1.363 . S
C1126 H1103 0.950 . S
C1126 C1125 1.397 . S
C1126 C1127 1.334 . S
C1127 H1104 0.950 . S
C1127 C1126 1.334 . S
C1127 C1128 1.287 . S
C1128 C1127 1.287 . S
C1128 C1129 1.524 . S
C1128 H1147 0.913 . S
C1129 H1105 0.950 . S
C1129 C1128 1.524 . S
C1129 C1130 1.415 . S
C1130 H1106 0.950 . S
C1130 C1125 1.363 . S
C1130 C1129 1.415 . S
C1131 H1107 0.951 . S
C1131 C1132 1.366 . S
C1131 C1133 1.388 . S
C1132 C1131 1.366 . S
C1132 C1136 1.385 . S
C1133 H1108 0.951 . S
C1133 C1131 1.388 . S
C1133 C1134 1.366 . S
C1134 C1133 1.366 . S
C1134 C1135 1.414 . S
C1134 C1137 1.499 . S
C1135 H1109 0.950 . S
C1135 C1134 1.414 . S
C1135 C1136 1.374 . S
C1136 H1110 0.950 . S
C1136 C1132 1.385 . S
C1136 C1135 1.374 . S
C1137 C1134 1.499 . S
C1137 C1138 1.373 . S
C1137 C1139 1.389 . S
C1138 H1111 0.950 . S
C1138 C1124 1.377 1_556 S
C1138 C1137 1.373 . S
C1139 C1123 1.377 1_556 S
C1139 C1137 1.389 . S
C1139 C1140 1.524 . S
C1140 C1139 1.524 . S
C1140 C1141 1.397 . S
C1140 C1145 1.363 . S
C1141 H1112 0.950 . S
C1141 C1140 1.397 . S
C1141 C1142 1.334 . S
C1142 H1113 0.950 . S
C1142 C1141 1.334 . S
C1142 C1143 1.287 . S
C1143 C1142 1.287 . S
C1143 C1144 1.524 . S
C1143 H1146 0.999 . S
C1144 H1114 0.950 . S
C1144 C1143 1.524 . S
C1144 C1145 1.415 . S
C1145 H1115 0.950 . S
C1145 C1140 1.363 . S
C1145 C1144 1.415 . S
H1146 C1143 0.999 . S
H1147 C1128 0.913 . S
H1148 C1166 0.951 . S
H1149 C1168 0.951 . S
H1150 C1170 0.950 . S
H1151 C1171 0.950 . S
H1152 C1173 0.950 . S
H1153 C1176 0.950 . S
H1154 C1177 0.950 . S
H1155 C1179 0.950 . S
H1156 C1180 0.950 . S
H1157 C1181 0.951 . S
H1158 C1183 0.951 . S
H1159 C1185 0.950 . S
H1160 C1186 0.950 . S
H1161 C1188 0.950 . S
H1162 C1191 0.950 . S
H1163 C1192 0.950 . S
H1164 C1194 0.950 . S
H1165 C1195 0.950 . S
C1166 H1148 0.951 . S
C1166 C1167 1.366 . S
C1166 C1168 1.388 . S
C1167 C1166 1.366 . S
C1167 C1171 1.385 . S
C1168 H1149 0.951 . S
C1168 C1166 1.388 . S
C1168 C1169 1.366 . S
C1169 C1168 1.366 . S
C1169 C1170 1.414 . S
C1169 C1172 1.499 . S
C1170 H1150 0.950 . S
C1170 C1169 1.414 . S
C1170 C1171 1.374 . S
C1171 H1151 0.950 . S
C1171 C1167 1.385 . S
C1171 C1170 1.374 . S
C1172 C1169 1.499 . S
C1172 C1173 1.373 . S
C1172 C1174 1.389 . S
C1173 H1152 0.950 . S
C1173 C1172 1.373 . S
C1173 C1189 1.377 . S
C1174 C1172 1.389 . S
C1174 C1175 1.524 . S
C1174 C1188 1.377 . S
C1175 C1174 1.524 . S
C1175 C1176 1.397 . S
C1175 C1180 1.363 . S
C1176 H1153 0.950 . S
C1176 C1175 1.397 . S
C1176 C1177 1.334 . S
C1177 H1154 0.950 . S
C1177 C1176 1.334 . S
C1177 C1178 1.287 . S
C1178 C1177 1.287 . S
C1178 C1179 1.524 . S
C1178 H1197 0.913 . S
C1179 H1155 0.950 . S
C1179 C1178 1.524 . S
C1179 C1180 1.415 . S
C1180 H1156 0.950 . S
C1180 C1175 1.363 . S
C1180 C1179 1.415 . S
C1181 H1157 0.951 . S
C1181 C1182 1.366 . S
C1181 C1183 1.388 . S
C1182 C1181 1.366 . S
C1182 C1186 1.385 . S
C1183 H1158 0.951 . S
C1183 C1181 1.388 . S
C1183 C1184 1.366 . S
C1184 C1183 1.366 . S
C1184 C1185 1.414 . S
C1184 C1187 1.499 . S
C1185 H1159 0.950 . S
C1185 C1184 1.414 . S
C1185 C1186 1.374 . S
C1186 H1160 0.950 . S
C1186 C1182 1.385 . S
C1186 C1185 1.374 . S
C1187 C1184 1.499 . S
C1187 C1188 1.373 . S
C1187 C1189 1.389 . S
C1188 H1161 0.950 . S
C1188 C1174 1.377 . S
C1188 C1187 1.373 . S
C1189 C1173 1.377 . S
C1189 C1187 1.389 . S
C1189 C1190 1.524 . S
C1190 C1189 1.524 . S
C1190 C1191 1.397 . S
C1190 C1195 1.363 . S
C1191 H1162 0.950 . S
C1191 C1190 1.397 . S
C1191 C1192 1.334 . S
C1192 H1163 0.950 . S
C1192 C1191 1.334 . S
C1192 C1193 1.287 . S
C1193 C1192 1.287 . S
C1193 C1194 1.524 . S
C1193 H1196 0.999 . S
C1194 H1164 0.950 . S
C1194 C1193 1.524 . S
C1194 C1195 1.415 . S
C1195 H1165 0.950 . S
C1195 C1190 1.363 . S
C1195 C1194 1.415 . S
H1196 C1193 0.999 . S
H1197 C1178 0.913 . S
H1198 C1216 0.951 . S
H1199 C1218 0.951 . S
H1200 C1220 0.950 . S
H1201 C1221 0.950 . S
H1202 C1223 0.950 . S
H1203 C1226 0.950 . S
H1204 C1227 0.950 . S
H1205 C1229 0.950 . S
H1206 C1230 0.950 . S
H1207 C1231 0.951 . S
H1208 C1233 0.951 . S
H1209 C1235 0.950 . S
H1210 C1236 0.950 . S
H1211 C1238 0.950 . S
H1212 C1241 0.950 . S
H1213 C1242 0.950 . S
H1214 C1244 0.950 . S
H1215 C1245 0.950 . S
C1216 H1198 0.951 . S
C1216 C1217 1.366 . S
C1216 C1218 1.388 . S
C1217 C1216 1.366 . S
C1217 C1221 1.385 . S
C1218 H1199 0.951 . S
C1218 C1216 1.388 . S
C1218 C1219 1.366 . S
C1219 C1218 1.366 . S
C1219 C1220 1.414 . S
C1219 C1222 1.499 . S
C1220 H1200 0.950 . S
C1220 C1219 1.414 . S
C1220 C1221 1.374 . S
C1221 H1201 0.950 . S
C1221 C1217 1.385 . S
C1221 C1220 1.374 . S
C1222 C1219 1.499 . S
C1222 C1223 1.373 . S
C1222 C1224 1.389 . S
C1223 H1202 0.950 . S
C1223 C1222 1.373 . S
C1223 C1239 1.377 . S
C1224 C1222 1.389 . S
C1224 C1225 1.524 . S
C1224 C1238 1.377 . S
C1225 C1224 1.524 . S
C1225 C1226 1.397 . S
C1225 C1230 1.363 . S
C1226 H1203 0.950 . S
C1226 C1225 1.397 . S
C1226 C1227 1.334 . S
C1227 H1204 0.950 . S
C1227 C1226 1.334 . S
C1227 C1228 1.287 . S
C1228 C1227 1.287 . S
C1228 C1229 1.524 . S
C1228 H1247 0.913 . S
C1229 H1205 0.950 . S
C1229 C1228 1.524 . S
C1229 C1230 1.415 . S
C1230 H1206 0.950 . S
C1230 C1225 1.363 . S
C1230 C1229 1.415 . S
C1231 H1207 0.951 . S
C1231 C1232 1.366 . S
C1231 C1233 1.388 . S
C1232 C1231 1.366 . S
C1232 C1236 1.385 . S
C1233 H1208 0.951 . S
C1233 C1231 1.388 . S
C1233 C1234 1.366 . S
C1234 C1233 1.366 . S
C1234 C1235 1.414 . S
C1234 C1237 1.499 . S
C1235 H1209 0.950 . S
C1235 C1234 1.414 . S
C1235 C1236 1.374 . S
C1236 H1210 0.950 . S
C1236 C1232 1.385 . S
C1236 C1235 1.374 . S
C1237 C1234 1.499 . S
C1237 C1238 1.373 . S
C1237 C1239 1.389 . S
C1238 H1211 0.950 . S
C1238 C1224 1.377 . S
C1238 C1237 1.373 . S
C1239 C1223 1.377 . S
C1239 C1237 1.389 . S
C1239 C1240 1.524 . S
C1240 C1239 1.524 . S
C1240 C1241 1.397 . S
C1240 C1245 1.363 . S
C1241 H1212 0.950 . S
C1241 C1240 1.397 . S
C1241 C1242 1.334 . S
C1242 H1213 0.950 . S
C1242 C1241 1.334 . S
C1242 C1243 1.287 . S
C1243 C1242 1.287 . S
C1243 C1244 1.524 . S
C1243 H1246 0.999 . S
C1244 H1214 0.950 . S
C1244 C1243 1.524 . S
C1244 C1245 1.415 . S
C1245 H1215 0.950 . S
C1245 C1240 1.363 . S
C1245 C1244 1.415 . S
H1246 C1243 0.999 . S
H1247 C1228 0.913 . S
H1248 C1266 0.951 . S
H1249 C1268 0.951 . S
H1250 C1270 0.950 . S
H1251 C1271 0.950 . S
H1252 C1273 0.950 . S
H1253 C1276 0.950 . S
H1254 C1277 0.950 . S
H1255 C1279 0.950 . S
H1256 C1280 0.950 . S
H1257 C1281 0.951 . S
H1258 C1283 0.951 . S
H1259 C1285 0.950 . S
H1260 C1286 0.950 . S
H1261 C1288 0.950 . S
H1262 C1291 0.950 . S
H1263 C1292 0.950 . S
H1264 C1294 0.950 . S
H1265 C1295 0.950 . S
C1266 H1248 0.951 . S
C1266 C1267 1.366 . S
C1266 C1268 1.388 . S
C1267 C1266 1.366 . S
C1267 C1271 1.385 . S
C1268 H1249 0.951 . S
C1268 C1266 1.388 . S
C1268 C1269 1.366 . S
C1269 C1268 1.366 . S
C1269 C1270 1.414 . S
C1269 C1272 1.499 . S
C1270 H1250 0.950 . S
C1270 C1269 1.414 . S
C1270 C1271 1.374 . S
C1271 H1251 0.950 . S
C1271 C1267 1.385 . S
C1271 C1270 1.374 . S
C1272 C1269 1.499 . S
C1272 C1273 1.373 . S
C1272 C1274 1.389 . S
C1273 H1252 0.950 . S
C1273 C1272 1.373 . S
C1273 C1289 1.377 . S
C1274 C1272 1.389 . S
C1274 C1275 1.524 . S
C1274 C1288 1.377 . S
C1275 C1274 1.524 . S
C1275 C1276 1.397 . S
C1275 C1280 1.363 . S
C1276 H1253 0.950 . S
C1276 C1275 1.397 . S
C1276 C1277 1.334 . S
C1277 H1254 0.950 . S
C1277 C1276 1.334 . S
C1277 C1278 1.287 . S
C1278 C1277 1.287 . S
C1278 C1279 1.524 . S
C1278 H1297 0.913 . S
C1279 H1255 0.950 . S
C1279 C1278 1.524 . S
C1279 C1280 1.415 . S
C1280 H1256 0.950 . S
C1280 C1275 1.363 . S
C1280 C1279 1.415 . S
C1281 H1257 0.951 . S
C1281 C1282 1.366 . S
C1281 C1283 1.388 . S
C1282 C1281 1.366 . S
C1282 C1286 1.385 . S
C1283 H1258 0.951 . S
C1283 C1281 1.388 . S
C1283 C1284 1.366 . S
C1284 C1283 1.366 . S
C1284 C1285 1.414 . S
C1284 C1287 1.499 . S
C1285 H1259 0.950 . S
C1285 C1284 1.414 . S
C1285 C1286 1.374 . S
C1286 H1260 0.950 . S
C1286 C1282 1.385 . S
C1286 C1285 1.374 . S
C1287 C1284 1.499 . S
C1287 C1288 1.373 . S
C1287 C1289 1.389 . S
C1288 H1261 0.950 . S
C1288 C1274 1.377 . S
C1288 C1287 1.373 . S
C1289 C1273 1.377 . S
C1289 C1287 1.389 . S
C1289 C1290 1.524 . S
C1290 C1289 1.524 . S
C1290 C1291 1.397 . S
C1290 C1295 1.363 . S
C1291 H1262 0.950 . S
C1291 C1290 1.397 . S
C1291 C1292 1.334 . S
C1292 H1263 0.950 . S
C1292 C1291 1.334 . S
C1292 C1293 1.287 . S
C1293 C1292 1.287 . S
C1293 C1294 1.524 . S
C1293 H1296 0.999 . S
C1294 H1264 0.950 . S
C1294 C1293 1.524 . S
C1294 C1295 1.415 . S
C1295 H1265 0.950 . S
C1295 C1290 1.363 . S
C1295 C1294 1.415 . S
H1296 C1293 0.999 . S
H1297 C1278 0.913 . S
H1298 C1316 0.951 . S
H1299 C1318 0.951 . S
H1300 C1320 0.950 . S
H1301 C1321 0.950 . S
H1302 C1323 0.950 . S
H1303 C1326 0.950 . S
H1304 C1327 0.950 . S
H1305 C1329 0.950 . S
H1306 C1330 0.950 . S
H1307 C1331 0.951 . S
H1308 C1333 0.951 . S
H1309 C1335 0.950 . S
H1310 C1336 0.950 . S
H1311 C1338 0.950 . S
H1312 C1341 0.950 . S
H1313 C1342 0.950 . S
H1314 C1344 0.950 . S
H1315 C1345 0.950 . S
C1316 H1298 0.951 . S
C1316 C1317 1.366 . S
C1316 C1318 1.388 . S
C1317 C1316 1.366 . S
C1317 C1321 1.385 . S
C1318 H1299 0.951 . S
C1318 C1316 1.388 . S
C1318 C1319 1.366 . S
C1319 C1318 1.366 . S
C1319 C1320 1.414 . S
C1319 C1322 1.499 . S
C1320 H1300 0.950 . S
C1320 C1319 1.414 . S
C1320 C1321 1.374 . S
C1321 H1301 0.950 . S
C1321 C1317 1.385 . S
C1321 C1320 1.374 . S
C1322 C1319 1.499 . S
C1322 C1323 1.373 . S
C1322 C1324 1.389 . S
C1323 H1302 0.950 . S
C1323 C1322 1.373 . S
C1323 C1339 1.377 . S
C1324 C1322 1.389 . S
C1324 C1325 1.524 . S
C1324 C1338 1.377 . S
C1325 C1324 1.524 . S
C1325 C1326 1.397 . S
C1325 C1330 1.363 . S
C1326 H1303 0.950 . S
C1326 C1325 1.397 . S
C1326 C1327 1.334 . S
C1327 H1304 0.950 . S
C1327 C1326 1.334 . S
C1327 C1328 1.287 . S
C1328 C1327 1.287 . S
C1328 C1329 1.524 . S
C1328 H1347 0.913 . S
C1329 H1305 0.950 . S
C1329 C1328 1.524 . S
C1329 C1330 1.415 . S
C1330 H1306 0.950 . S
C1330 C1325 1.363 . S
C1330 C1329 1.415 . S
C1331 H1307 0.951 . S
C1331 C1332 1.366 . S
C1331 C1333 1.388 . S
C1332 C1331 1.366 . S
C1332 C1336 1.385 . S
C1333 H1308 0.951 . S
C1333 C1331 1.388 . S
C1333 C1334 1.366 . S
C1334 C1333 1.366 . S
C1334 C1335 1.414 . S
C1334 C1337 1.499 . S
C1335 H1309 0.950 . S
C1335 C1334 1.414 . S
C1335 C1336 1.374 . S
C1336 H1310 0.950 . S
C1336 C1332 1.385 . S
C1336 C1335 1.374 . S
C1337 C1334 1.499 . S
C1337 C1338 1.373 . S
C1337 C1339 1.389 . S
C1338 H1311 0.950 . S
C1338 C1324 1.377 . S
C1338 C1337 1.373 . S
C1339 C1323 1.377 . S
C1339 C1337 1.389 . S
C1339 C1340 1.524 . S
C1340 C1339 1.524 . S
C1340 C1341 1.397 . S
C1340 C1345 1.363 . S
C1341 H1312 0.950 . S
C1341 C1340 1.397 . S
C1341 C1342 1.334 . S
C1342 H1313 0.950 . S
C1342 C1341 1.334 . S
C1342 C1343 1.287 . S
C1343 C1342 1.287 . S
C1343 C1344 1.524 . S
C1343 H1346 0.999 . S
C1344 H1314 0.950 . S
C1344 C1343 1.524 . S
C1344 C1345 1.415 . S
C1345 H1315 0.950 . S
C1345 C1340 1.363 . S
C1345 C1344 1.415 . S
H1346 C1343 0.999 . S
H1347 C1328 0.913 . S
H1348 C1366 0.951 . S
H1349 C1368 0.951 . S
H1350 C1370 0.950 . S
H1351 C1371 0.950 . S
H1352 C1373 0.950 . S
H1353 C1376 0.950 . S
H1354 C1377 0.950 . S
H1355 C1379 0.950 . S
H1356 C1380 0.950 . S
H1357 C1381 0.951 . S
H1358 C1383 0.951 . S
H1359 C1385 0.950 . S
H1360 C1386 0.950 . S
H1361 C1388 0.950 . S
H1362 C1391 0.950 . S
H1363 C1392 0.950 . S
H1364 C1394 0.950 . S
H1365 C1395 0.950 . S
C1366 H1348 0.951 . S
C1366 C1367 1.366 . S
C1366 C1368 1.388 . S
C1367 C1366 1.366 . S
C1367 C1371 1.385 . S
C1368 H1349 0.951 . S
C1368 C1366 1.388 . S
C1368 C1369 1.366 . S
C1369 C1368 1.366 . S
C1369 C1370 1.414 . S
C1369 C1372 1.499 . S
C1370 H1350 0.950 . S
C1370 C1369 1.414 . S
C1370 C1371 1.374 . S
C1371 H1351 0.950 . S
C1371 C1367 1.385 . S
C1371 C1370 1.374 . S
C1372 C1369 1.499 . S
C1372 C1373 1.373 . S
C1372 C1374 1.389 . S
C1373 H1352 0.950 . S
C1373 C1372 1.373 . S
C1373 C1389 1.377 . S
C1374 C1372 1.389 . S
C1374 C1375 1.524 . S
C1374 C1388 1.377 . S
C1375 C1374 1.524 . S
C1375 C1376 1.397 . S
C1375 C1380 1.363 . S
C1376 H1353 0.950 . S
C1376 C1375 1.397 . S
C1376 C1377 1.334 . S
C1377 H1354 0.950 . S
C1377 C1376 1.334 . S
C1377 C1378 1.287 . S
C1378 C1377 1.287 . S
C1378 C1379 1.524 . S
C1378 H1397 0.913 . S
C1379 H1355 0.950 . S
C1379 C1378 1.524 . S
C1379 C1380 1.415 . S
C1380 H1356 0.950 . S
C1380 C1375 1.363 . S
C1380 C1379 1.415 . S
C1381 H1357 0.951 . S
C1381 C1382 1.366 . S
C1381 C1383 1.388 . S
C1382 C1381 1.366 . S
C1382 C1386 1.385 . S
C1383 H1358 0.951 . S
C1383 C1381 1.388 . S
C1383 C1384 1.366 . S
C1384 C1383 1.366 . S
C1384 C1385 1.414 . S
C1384 C1387 1.499 . S
C1385 H1359 0.950 . S
C1385 C1384 1.414 . S
C1385 C1386 1.374 . S
C1386 H1360 0.950 . S
C1386 C1382 1.385 . S
C1386 C1385 1.374 . S
C1387 C1384 1.499 . S
C1387 C1388 1.373 . S
C1387 C1389 1.389 . S
C1388 H1361 0.950 . S
C1388 C1374 1.377 . S
C1388 C1387 1.373 . S
C1389 C1373 1.377 . S
C1389 C1387 1.389 . S
C1389 C1390 1.524 . S
C1390 C1389 1.524 . S
C1390 C1391 1.397 . S
C1390 C1395 1.363 . S
C1391 H1362 0.950 . S
C1391 C1390 1.397 . S
C1391 C1392 1.334 . S
C1392 H1363 0.950 . S
C1392 C1391 1.334 . S
C1392 C1393 1.287 . S
C1393 C1392 1.287 . S
C1393 C1394 1.524 . S
C1393 H1396 0.999 . S
C1394 H1364 0.950 . S
C1394 C1393 1.524 . S
C1394 C1395 1.415 . S
C1395 H1365 0.950 . S
C1395 C1390 1.363 . S
C1395 C1394 1.415 . S
H1396 C1393 0.999 . S
H1397 C1378 0.913 . S
H1398 C1416 0.951 . S
H1399 C1418 0.951 . S
H1400 C1420 0.950 . S
H1401 C1421 0.950 . S
H1402 C1423 0.950 . S
H1403 C1426 0.950 . S
H1404 C1427 0.950 . S
H1405 C1429 0.950 . S
H1406 C1430 0.950 . S
H1407 C1431 0.951 . S
H1408 C1433 0.951 . S
H1409 C1435 0.950 . S
H1410 C1436 0.950 . S
H1411 C1438 0.950 . S
H1412 C1441 0.950 . S
H1413 C1442 0.950 . S
H1414 C1444 0.950 . S
H1415 C1445 0.950 . S
C1416 H1398 0.951 . S
C1416 C1417 1.366 . S
C1416 C1418 1.388 . S
C1417 C1416 1.366 . S
C1417 C1421 1.385 . S
C1418 H1399 0.951 . S
C1418 C1416 1.388 . S
C1418 C1419 1.366 . S
C1419 C1418 1.366 . S
C1419 C1420 1.414 . S
C1419 C1422 1.499 . S
C1420 H1400 0.950 . S
C1420 C1419 1.414 . S
C1420 C1421 1.374 . S
C1421 H1401 0.950 . S
C1421 C1417 1.385 . S
C1421 C1420 1.374 . S
C1422 C1419 1.499 . S
C1422 C1423 1.373 . S
C1422 C1424 1.389 . S
C1423 H1402 0.950 . S
C1423 C1422 1.373 . S
C1423 C1439 1.377 . S
C1424 C1422 1.389 . S
C1424 C1425 1.524 . S
C1424 C1438 1.377 . S
C1425 C1424 1.524 . S
C1425 C1426 1.397 . S
C1425 C1430 1.363 . S
C1426 H1403 0.950 . S
C1426 C1425 1.397 . S
C1426 C1427 1.334 . S
C1427 H1404 0.950 . S
C1427 C1426 1.334 . S
C1427 C1428 1.287 . S
C1428 C1427 1.287 . S
C1428 C1429 1.524 . S
C1428 H1447 0.913 . S
C1429 H1405 0.950 . S
C1429 C1428 1.524 . S
C1429 C1430 1.415 . S
C1430 H1406 0.950 . S
C1430 C1425 1.363 . S
C1430 C1429 1.415 . S
C1431 H1407 0.951 . S
C1431 C1432 1.366 . S
C1431 C1433 1.388 . S
C1432 C1431 1.366 . S
C1432 C1436 1.385 . S
C1433 H1408 0.951 . S
C1433 C1431 1.388 . S
C1433 C1434 1.366 . S
C1434 C1433 1.366 . S
C1434 C1435 1.414 . S
C1434 C1437 1.499 . S
C1435 H1409 0.950 . S
C1435 C1434 1.414 . S
C1435 C1436 1.374 . S
C1436 H1410 0.950 . S
C1436 C1432 1.385 . S
C1436 C1435 1.374 . S
C1437 C1434 1.499 . S
C1437 C1438 1.373 . S
C1437 C1439 1.389 . S
C1438 H1411 0.950 . S
C1438 C1424 1.377 . S
C1438 C1437 1.373 . S
C1439 C1423 1.377 . S
C1439 C1437 1.389 . S
C1439 C1440 1.524 . S
C1440 C1439 1.524 . S
C1440 C1441 1.397 . S
C1440 C1445 1.363 . S
C1441 H1412 0.950 . S
C1441 C1440 1.397 . S
C1441 C1442 1.334 . S
C1442 H1413 0.950 . S
C1442 C1441 1.334 . S
C1442 C1443 1.287 . S
C1443 C1442 1.287 . S
C1443 C1444 1.524 . S
C1443 H1446 0.999 . S
C1444 H1414 0.950 . S
C1444 C1443 1.524 . S
C1444 C1445 1.415 . S
C1445 H1415 0.950 . S
C1445 C1440 1.363 . S
C1445 C1444 1.415 . S
H1446 C1443 0.999 . S
H1447 C1428 0.913 . S
H1448 C1466 0.951 . S
H1449 C1468 0.951 . S
H1450 C1470 0.950 . S
H1451 C1471 0.950 . S
H1452 C1473 0.950 . S
H1453 C1476 0.950 . S
H1454 C1477 0.950 . S
H1455 C1479 0.950 . S
H1456 C1480 0.950 . S
H1457 C1481 0.951 . S
H1458 C1483 0.951 . S
H1459 C1485 0.950 . S
H1460 C1486 0.950 . S
H1461 C1488 0.950 . S
H1462 C1491 0.950 . S
H1463 C1492 0.950 . S
H1464 C1494 0.950 . S
H1465 C1495 0.950 . S
C1466 H1448 0.951 . S
C1466 C1467 1.366 . S
C1466 C1468 1.388 . S
C1467 C1466 1.366 . S
C1467 C1471 1.385 . S
C1468 H1449 0.951 . S
C1468 C1466 1.388 . S
C1468 C1469 1.366 . S
C1469 C1468 1.366 . S
C1469 C1470 1.414 . S
C1469 C1472 1.499 . S
C1470 H1450 0.950 . S
C1470 C1469 1.414 . S
C1470 C1471 1.374 . S
C1471 H1451 0.950 . S
C1471 C1467 1.385 . S
C1471 C1470 1.374 . S
C1472 C1469 1.499 . S
C1472 C1473 1.373 . S
C1472 C1474 1.389 . S
C1473 H1452 0.950 . S
C1473 C1472 1.373 . S
C1473 C1489 1.377 . S
C1474 C1472 1.389 . S
C1474 C1475 1.524 . S
C1474 C1488 1.377 . S
C1475 C1474 1.524 . S
C1475 C1476 1.397 . S
C1475 C1480 1.363 . S
C1476 H1453 0.950 . S
C1476 C1475 1.397 . S
C1476 C1477 1.334 . S
C1477 H1454 0.950 . S
C1477 C1476 1.334 . S
C1477 C1478 1.287 . S
C1478 C1477 1.287 . S
C1478 C1479 1.524 . S
C1478 H1497 0.913 . S
C1479 H1455 0.950 . S
C1479 C1478 1.524 . S
C1479 C1480 1.415 . S
C1480 H1456 0.950 . S
C1480 C1475 1.363 . S
C1480 C1479 1.415 . S
C1481 H1457 0.951 . S
C1481 C1482 1.366 . S
C1481 C1483 1.388 . S
C1482 C1481 1.366 . S
C1482 C1486 1.385 . S
C1483 H1458 0.951 . S
C1483 C1481 1.388 . S
C1483 C1484 1.366 . S
C1484 C1483 1.366 . S
C1484 C1485 1.414 . S
C1484 C1487 1.499 . S
C1485 H1459 0.950 . S
C1485 C1484 1.414 . S
C1485 C1486 1.374 . S
C1486 H1460 0.950 . S
C1486 C1482 1.385 . S
C1486 C1485 1.374 . S
C1487 C1484 1.499 . S
C1487 C1488 1.373 . S
C1487 C1489 1.389 . S
C1488 H1461 0.950 . S
C1488 C1474 1.377 . S
C1488 C1487 1.373 . S
C1489 C1473 1.377 . S
C1489 C1487 1.389 . S
C1489 C1490 1.524 . S
C1490 C1489 1.524 . S
C1490 C1491 1.397 . S
C1490 C1495 1.363 . S
C1491 H1462 0.950 . S
C1491 C1490 1.397 . S
C1491 C1492 1.334 . S
C1492 H1463 0.950 . S
C1492 C1491 1.334 . S
C1492 C1493 1.287 . S
C1493 C1492 1.287 . S
C1493 C1494 1.524 . S
C1493 H1496 0.999 . S
C1494 H1464 0.950 . S
C1494 C1493 1.524 . S
C1494 C1495 1.415 . S
C1495 H1465 0.950 . S
C1495 C1490 1.363 . S
C1495 C1494 1.415 . S
H1496 C1493 0.999 . S
H1497 C1478 0.913 . S
H1498 C1516 0.951 . S
H1499 C1518 0.951 . S
H1500 C1520 0.950 . S
H1501 C1521 0.950 . S
H1502 C1523 0.950 . S
H1503 C1526 0.950 . S
H1504 C1527 0.950 . S
H1505 C1529 0.950 . S
H1506 C1530 0.950 . S
H1507 C1531 0.951 . S
H1508 C1533 0.951 . S
H1509 C1535 0.950 . S
H1510 C1536 0.950 . S
H1511 C1538 0.950 . S
H1512 C1541 0.950 . S
H1513 C1542 0.950 . S
H1514 C1544 0.950 . S
H1515 C1545 0.950 . S
C1516 H1498 0.951 . S
C1516 C1517 1.366 . S
C1516 C1518 1.388 . S
C1517 C1516 1.366 . S
C1517 C1521 1.385 . S
C1518 H1499 0.951 . S
C1518 C1516 1.388 . S
C1518 C1519 1.366 . S
C1519 C1518 1.366 . S
C1519 C1520 1.414 . S
C1519 C1522 1.499 . S
C1520 H1500 0.950 . S
C1520 C1519 1.414 . S
C1520 C1521 1.374 . S
C1521 H1501 0.950 . S
C1521 C1517 1.385 . S
C1521 C1520 1.374 . S
C1522 C1519 1.499 . S
C1522 C1523 1.373 . S
C1522 C1524 1.389 . S
C1523 H1502 0.950 . S
C1523 C1522 1.373 . S
C1523 C1539 1.377 . S
C1524 C1522 1.389 . S
C1524 C1525 1.524 . S
C1524 C1538 1.377 . S
C1525 C1524 1.524 . S
C1525 C1526 1.397 . S
C1525 C1530 1.363 . S
C1526 H1503 0.950 . S
C1526 C1525 1.397 . S
C1526 C1527 1.334 . S
C1527 H1504 0.950 . S
C1527 C1526 1.334 . S
C1527 C1528 1.287 . S
C1528 C1527 1.287 . S
C1528 C1529 1.524 . S
C1528 H1547 0.913 . S
C1529 H1505 0.950 . S
C1529 C1528 1.524 . S
C1529 C1530 1.415 . S
C1530 H1506 0.950 . S
C1530 C1525 1.363 . S
C1530 C1529 1.415 . S
C1531 H1507 0.951 . S
C1531 C1532 1.366 . S
C1531 C1533 1.388 . S
C1532 C1531 1.366 . S
C1532 C1536 1.385 . S
C1533 H1508 0.951 . S
C1533 C1531 1.388 . S
C1533 C1534 1.366 . S
C1534 C1533 1.366 . S
C1534 C1535 1.414 . S
C1534 C1537 1.499 . S
C1535 H1509 0.950 . S
C1535 C1534 1.414 . S
C1535 C1536 1.374 . S
C1536 H1510 0.950 . S
C1536 C1532 1.385 . S
C1536 C1535 1.374 . S
C1537 C1534 1.499 . S
C1537 C1538 1.373 . S
C1537 C1539 1.389 . S
C1538 H1511 0.950 . S
C1538 C1524 1.377 . S
C1538 C1537 1.373 . S
C1539 C1523 1.377 . S
C1539 C1537 1.389 . S
C1539 C1540 1.524 . S
C1540 C1539 1.524 . S
C1540 C1541 1.397 . S
C1540 C1545 1.363 . S
C1541 H1512 0.950 . S
C1541 C1540 1.397 . S
C1541 C1542 1.334 . S
C1542 H1513 0.950 . S
C1542 C1541 1.334 . S
C1542 C1543 1.287 . S
C1543 C1542 1.287 . S
C1543 C1544 1.524 . S
C1543 H1546 0.999 . S
C1544 H1514 0.950 . S
C1544 C1543 1.524 . S
C1544 C1545 1.415 . S
C1545 H1515 0.950 . S
C1545 C1540 1.363 . S
C1545 C1544 1.415 . S
H1546 C1543 0.999 . S
H1547 C1528 0.913 . S
H1548 C1566 0.951 . S
H1549 C1568 0.951 . S
H1550 C1570 0.950 . S
H1551 C1571 0.950 . S
H1552 C1573 0.950 . S
H1553 C1576 0.950 . S
H1554 C1577 0.950 . S
H1555 C1579 0.950 . S
H1556 C1580 0.950 . S
H1557 C1581 0.951 . S
H1558 C1583 0.951 . S
H1559 C1585 0.950 . S
H1560 C1586 0.950 . S
H1561 C1588 0.950 . S
H1562 C1591 0.950 . S
H1563 C1592 0.950 . S
H1564 C1594 0.950 . S
H1565 C1595 0.950 . S
C1566 H1548 0.951 . S
C1566 C1567 1.366 . S
C1566 C1568 1.388 . S
C1567 C1566 1.366 . S
C1567 C1571 1.385 . S
C1568 H1549 0.951 . S
C1568 C1566 1.388 . S
C1568 C1569 1.366 . S
C1569 C1568 1.366 . S
C1569 C1570 1.414 . S
C1569 C1572 1.499 . S
C1570 H1550 0.950 . S
C1570 C1569 1.414 . S
C1570 C1571 1.374 . S
C1571 H1551 0.950 . S
C1571 C1567 1.385 . S
C1571 C1570 1.374 . S
C1572 C1569 1.499 . S
C1572 C1573 1.373 . S
C1572 C1574 1.389 . S
C1573 H1552 0.950 . S
C1573 C1572 1.373 . S
C1573 C1589 1.377 . S
C1574 C1572 1.389 . S
C1574 C1575 1.524 . S
C1574 C1588 1.377 . S
C1575 C1574 1.524 . S
C1575 C1576 1.397 . S
C1575 C1580 1.363 . S
C1576 H1553 0.950 . S
C1576 C1575 1.397 . S
C1576 C1577 1.334 . S
C1577 H1554 0.950 . S
C1577 C1576 1.334 . S
C1577 C1578 1.287 . S
C1578 C1577 1.287 . S
C1578 C1579 1.524 . S
C1578 H1597 0.913 . S
C1579 H1555 0.950 . S
C1579 C1578 1.524 . S
C1579 C1580 1.415 . S
C1580 H1556 0.950 . S
C1580 C1575 1.363 . S
C1580 C1579 1.415 . S
C1581 H1557 0.951 . S
C1581 C1582 1.366 . S
C1581 C1583 1.388 . S
C1582 C1581 1.366 . S
C1582 C1586 1.385 . S
C1583 H1558 0.951 . S
C1583 C1581 1.388 . S
C1583 C1584 1.366 . S
C1584 C1583 1.366 . S
C1584 C1585 1.414 . S
C1584 C1587 1.499 . S
C1585 H1559 0.950 . S
C1585 C1584 1.414 . S
C1585 C1586 1.374 . S
C1586 H1560 0.950 . S
C1586 C1582 1.385 . S
C1586 C1585 1.374 . S
C1587 C1584 1.499 . S
C1587 C1588 1.373 . S
C1587 C1589 1.389 . S
C1588 H1561 0.950 . S
C1588 C1574 1.377 . S
C1588 C1587 1.373 . S
C1589 C1573 1.377 . S
C1589 C1587 1.389 . S
C1589 C1590 1.524 . S
C1590 C1589 1.524 . S
C1590 C1591 1.397 . S
C1590 C1595 1.363 . S
C1591 H1562 0.950 . S
C1591 C1590 1.397 . S
C1591 C1592 1.334 . S
C1592 H1563 0.950 . S
C1592 C1591 1.334 . S
C1592 C1593 1.287 . S
C1593 C1592 1.287 . S
C1593 C1594 1.524 . S
C1593 H1596 0.999 . S
C1594 H1564 0.950 . S
C1594 C1593 1.524 . S
C1594 C1595 1.415 . S
C1595 H1565 0.950 . S
C1595 C1590 1.363 . S
C1595 C1594 1.415 . S
H1596 C1593 0.999 . S
H1597 C1578 0.913 . S
H1598 C1616 0.951 . S
H1599 C1618 0.951 . S
H1600 C1620 0.950 . S
H1601 C1621 0.950 . S
H1602 C1623 0.950 . S
H1603 C1626 0.950 . S
H1604 C1627 0.950 . S
H1605 C1629 0.950 . S
H1606 C1630 0.950 . S
H1607 C1631 0.951 . S
H1608 C1633 0.951 . S
H1609 C1635 0.950 . S
H1610 C1636 0.950 . S
H1611 C1638 0.950 . S
H1612 C1641 0.950 . S
H1613 C1642 0.950 . S
H1614 C1644 0.950 . S
H1615 C1645 0.950 . S
C1616 H1598 0.951 . S
C1616 C1617 1.366 . S
C1616 C1618 1.388 . S
C1617 C1616 1.366 . S
C1617 C1621 1.385 . S
C1618 H1599 0.951 . S
C1618 C1616 1.388 . S
C1618 C1619 1.366 . S
C1619 C1618 1.366 . S
C1619 C1620 1.414 . S
C1619 C1622 1.499 . S
C1620 H1600 0.950 . S
C1620 C1619 1.414 . S
C1620 C1621 1.374 . S
C1621 H1601 0.950 . S
C1621 C1617 1.385 . S
C1621 C1620 1.374 . S
C1622 C1619 1.499 . S
C1622 C1623 1.373 . S
C1622 C1624 1.389 . S
C1623 H1602 0.950 . S
C1623 C1622 1.373 . S
C1623 C1639 1.377 . S
C1624 C1622 1.389 . S
C1624 C1625 1.524 . S
C1624 C1638 1.377 . S
C1625 C1624 1.524 . S
C1625 C1626 1.397 . S
C1625 C1630 1.363 . S
C1626 H1603 0.950 . S
C1626 C1625 1.397 . S
C1626 C1627 1.334 . S
C1627 H1604 0.950 . S
C1627 C1626 1.334 . S
C1627 C1628 1.287 . S
C1628 C1627 1.287 . S
C1628 C1629 1.524 . S
C1628 H1647 0.913 . S
C1629 H1605 0.950 . S
C1629 C1628 1.524 . S
C1629 C1630 1.415 . S
C1630 H1606 0.950 . S
C1630 C1625 1.363 . S
C1630 C1629 1.415 . S
C1631 H1607 0.951 . S
C1631 C1632 1.366 . S
C1631 C1633 1.388 . S
C1632 C1631 1.366 . S
C1632 C1636 1.385 . S
C1633 H1608 0.951 . S
C1633 C1631 1.388 . S
C1633 C1634 1.366 . S
C1634 C1633 1.366 . S
C1634 C1635 1.414 . S
C1634 C1637 1.499 . S
C1635 H1609 0.950 . S
C1635 C1634 1.414 . S
C1635 C1636 1.374 . S
C1636 H1610 0.950 . S
C1636 C1632 1.385 . S
C1636 C1635 1.374 . S
C1637 C1634 1.499 . S
C1637 C1638 1.373 . S
C1637 C1639 1.389 . S
C1638 H1611 0.950 . S
C1638 C1624 1.377 . S
C1638 C1637 1.373 . S
C1639 C1623 1.377 . S
C1639 C1637 1.389 . S
C1639 C1640 1.524 . S
C1640 C1639 1.524 . S
C1640 C1641 1.397 . S
C1640 C1645 1.363 . S
C1641 H1612 0.950 . S
C1641 C1640 1.397 . S
C1641 C1642 1.334 . S
C1642 H1613 0.950 . S
C1642 C1641 1.334 . S
C1642 C1643 1.287 . S
C1643 C1642 1.287 . S
C1643 C1644 1.524 . S
C1643 H1646 0.999 . S
C1644 H1614 0.950 . S
C1644 C1643 1.524 . S
C1644 C1645 1.415 . S
C1645 H1615 0.950 . S
C1645 C1640 1.363 . S
C1645 C1644 1.415 . S
H1646 C1643 0.999 . S
H1647 C1628 0.913 . S
H1648 C1666 0.951 . S
H1649 C1668 0.951 . S
H1650 C1670 0.950 . S
H1651 C1671 0.950 . S
H1652 C1673 0.950 . S
H1653 C1676 0.950 . S
H1654 C1677 0.950 . S
H1655 C1679 0.950 . S
H1656 C1680 0.950 . S
H1657 C1681 0.951 . S
H1658 C1683 0.951 . S
H1659 C1685 0.950 . S
H1660 C1686 0.950 . S
H1661 C1688 0.950 . S
H1662 C1691 0.950 . S
H1663 C1692 0.950 . S
H1664 C1694 0.950 . S
H1665 C1695 0.950 . S
C1666 H1648 0.951 . S
C1666 C1667 1.366 . S
C1666 C1668 1.388 . S
C1667 C1666 1.366 . S
C1667 C1671 1.385 . S
C1668 H1649 0.951 . S
C1668 C1666 1.388 . S
C1668 C1669 1.366 . S
C1669 C1668 1.366 . S
C1669 C1670 1.414 . S
C1669 C1672 1.499 . S
C1670 H1650 0.950 . S
C1670 C1669 1.414 . S
C1670 C1671 1.374 . S
C1671 H1651 0.950 . S
C1671 C1667 1.385 . S
C1671 C1670 1.374 . S
C1672 C1669 1.499 . S
C1672 C1673 1.373 . S
C1672 C1674 1.389 . S
C1673 H1652 0.950 . S
C1673 C1672 1.373 . S
C1673 C1689 1.377 . S
C1674 C1672 1.389 . S
C1674 C1675 1.524 . S
C1674 C1688 1.377 . S
C1675 C1674 1.524 . S
C1675 C1676 1.397 . S
C1675 C1680 1.363 . S
C1676 H1653 0.950 . S
C1676 C1675 1.397 . S
C1676 C1677 1.334 . S
C1677 H1654 0.950 . S
C1677 C1676 1.334 . S
C1677 C1678 1.287 . S
C1678 C1677 1.287 . S
C1678 C1679 1.524 . S
C1678 H1697 0.913 . S
C1679 H1655 0.950 . S
C1679 C1678 1.524 . S
C1679 C1680 1.415 . S
C1680 H1656 0.950 . S
C1680 C1675 1.363 . S
C1680 C1679 1.415 . S
C1681 H1657 0.951 . S
C1681 C1682 1.366 . S
C1681 C1683 1.388 . S
C1682 C1681 1.366 . S
C1682 C1686 1.385 . S
C1683 H1658 0.951 . S
C1683 C1681 1.388 . S
C1683 C1684 1.366 . S
C1684 C1683 1.366 . S
C1684 C1685 1.414 . S
C1684 C1687 1.499 . S
C1685 H1659 0.950 . S
C1685 C1684 1.414 . S
C1685 C1686 1.374 . S
C1686 H1660 0.950 . S
C1686 C1682 1.385 . S
C1686 C1685 1.374 . S
C1687 C1684 1.499 . S
C1687 C1688 1.373 . S
C1687 C1689 1.389 . S
C1688 H1661 0.950 . S
C1688 C1674 1.377 . S
C1688 C1687 1.373 . S
C1689 C1673 1.377 . S
C1689 C1687 1.389 . S
C1689 C1690 1.524 . S
C1690 C1689 1.524 . S
C1690 C1691 1.397 . S
C1690 C1695 1.363 . S
C1691 H1662 0.950 . S
C1691 C1690 1.397 . S
C1691 C1692 1.334 . S
C1692 H1663 0.950 . S
C1692 C1691 1.334 . S
C1692 C1693 1.287 . S
C1693 C1692 1.287 . S
C1693 C1694 1.524 . S
C1693 H1696 0.999 . S
C1694 H1664 0.950 . S
C1694 C1693 1.524 . S
C1694 C1695 1.415 . S
C1695 H1665 0.950 . S
C1695 C1690 1.363 . S
C1695 C1694 1.415 . S
H1696 C1693 0.999 . S
H1697 C1678 0.913 . S
H1698 C1716 0.951 . S
H1699 C1718 0.951 . S
H1700 C1720 0.950 . S
H1701 C1721 0.950 . S
H1702 C1723 0.950 . S
H1703 C1726 0.950 . S
H1704 C1727 0.950 . S
H1705 C1729 0.950 . S
H1706 C1730 0.950 . S
H1707 C1731 0.951 . S
H1708 C1733 0.951 . S
H1709 C1735 0.950 . S
H1710 C1736 0.950 . S
H1711 C1738 0.950 . S
H1712 C1741 0.950 . S
H1713 C1742 0.950 . S
H1714 C1744 0.950 . S
H1715 C1745 0.950 . S
C1716 H1698 0.951 . S
C1716 C1717 1.366 . S
C1716 C1718 1.388 . S
C1717 C1716 1.366 . S
C1717 C1721 1.385 . S
C1718 H1699 0.951 . S
C1718 C1716 1.388 . S
C1718 C1719 1.366 . S
C1719 C1718 1.366 . S
C1719 C1720 1.414 . S
C1719 C1722 1.499 . S
C1720 H1700 0.950 . S
C1720 C1719 1.414 . S
C1720 C1721 1.374 . S
C1721 H1701 0.950 . S
C1721 C1717 1.385 . S
C1721 C1720 1.374 . S
C1722 C1719 1.499 . S
C1722 C1723 1.373 . S
C1722 C1724 1.389 . S
C1723 H1702 0.950 . S
C1723 C1722 1.373 . S
C1723 C1739 1.377 . S
C1724 C1722 1.389 . S
C1724 C1725 1.524 . S
C1724 C1738 1.377 . S
C1725 C1724 1.524 . S
C1725 C1726 1.397 . S
C1725 C1730 1.363 . S
C1726 H1703 0.950 . S
C1726 C1725 1.397 . S
C1726 C1727 1.334 . S
C1727 H1704 0.950 . S
C1727 C1726 1.334 . S
C1727 C1728 1.287 . S
C1728 C1727 1.287 . S
C1728 C1729 1.524 . S
C1728 H1747 0.913 1_655 S
C1729 H1705 0.950 . S
C1729 C1728 1.524 . S
C1729 C1730 1.415 . S
C1730 H1706 0.950 . S
C1730 C1725 1.363 . S
C1730 C1729 1.415 . S
C1731 H1707 0.951 . S
C1731 C1732 1.366 . S
C1731 C1733 1.388 . S
C1732 C1731 1.366 . S
C1732 C1736 1.385 . S
C1733 H1708 0.951 . S
C1733 C1731 1.388 . S
C1733 C1734 1.366 . S
C1734 C1733 1.366 . S
C1734 C1735 1.414 . S
C1734 C1737 1.499 . S
C1735 H1709 0.950 . S
C1735 C1734 1.414 . S
C1735 C1736 1.374 . S
C1736 H1710 0.950 . S
C1736 C1732 1.385 . S
C1736 C1735 1.374 . S
C1737 C1734 1.499 . S
C1737 C1738 1.373 . S
C1737 C1739 1.389 . S
C1738 H1711 0.950 . S
C1738 C1724 1.377 . S
C1738 C1737 1.373 . S
C1739 C1723 1.377 . S
C1739 C1737 1.389 . S
C1739 C1740 1.524 . S
C1740 C1739 1.524 . S
C1740 C1741 1.397 . S
C1740 C1745 1.363 . S
C1741 H1712 0.950 . S
C1741 C1740 1.397 . S
C1741 C1742 1.334 . S
C1742 H1713 0.950 . S
C1742 C1741 1.334 . S
C1742 C1743 1.287 . S
C1743 C1742 1.287 . S
C1743 C1744 1.524 . S
C1743 H1746 0.999 . S
C1744 H1714 0.950 . S
C1744 C1743 1.524 . S
C1744 C1745 1.415 . S
C1745 H1715 0.950 . S
C1745 C1740 1.363 . S
C1745 C1744 1.415 . S
H1746 C1743 0.999 . S
H1747 C1728 0.913 1_455 S
H1748 C1766 0.951 . S
H1749 C1768 0.951 . S
H1750 C1770 0.950 . S
H1751 C1771 0.950 . S
H1752 C1773 0.950 . S
H1753 C1776 0.950 . S
H1754 C1777 0.950 . S
H1755 C1779 0.950 . S
H1756 C1780 0.950 . S
H1757 C1781 0.951 . S
H1758 C1783 0.951 . S
H1759 C1785 0.950 . S
H1760 C1786 0.950 . S
H1761 C1788 0.950 . S
H1762 C1791 0.950 . S
H1763 C1792 0.950 . S
H1764 C1794 0.950 . S
H1765 C1795 0.950 . S
C1766 H1748 0.951 . S
C1766 C1767 1.366 . S
C1766 C1768 1.388 . S
C1767 C1766 1.366 . S
C1767 C1771 1.385 . S
C1768 H1749 0.951 . S
C1768 C1766 1.388 . S
C1768 C1769 1.366 . S
C1769 C1768 1.366 . S
C1769 C1770 1.414 . S
C1769 C1772 1.499 . S
C1770 H1750 0.950 . S
C1770 C1769 1.414 . S
C1770 C1771 1.374 . S
C1771 H1751 0.950 . S
C1771 C1767 1.385 . S
C1771 C1770 1.374 . S
C1772 C1769 1.499 . S
C1772 C1773 1.373 . S
C1772 C1774 1.389 . S
C1773 H1752 0.950 . S
C1773 C1772 1.373 . S
C1773 C1789 1.377 . S
C1774 C1772 1.389 . S
C1774 C1775 1.524 . S
C1774 C1788 1.377 . S
C1775 C1774 1.524 . S
C1775 C1776 1.397 . S
C1775 C1780 1.363 . S
C1776 H1753 0.950 . S
C1776 C1775 1.397 . S
C1776 C1777 1.334 . S
C1777 H1754 0.950 . S
C1777 C1776 1.334 . S
C1777 C1778 1.287 . S
C1778 C1777 1.287 . S
C1778 C1779 1.524 . S
C1778 H1797 0.913 . S
C1779 H1755 0.950 . S
C1779 C1778 1.524 . S
C1779 C1780 1.415 . S
C1780 H1756 0.950 . S
C1780 C1775 1.363 . S
C1780 C1779 1.415 . S
C1781 H1757 0.951 . S
C1781 C1782 1.366 . S
C1781 C1783 1.388 . S
C1782 C1781 1.366 . S
C1782 C1786 1.385 . S
C1783 H1758 0.951 . S
C1783 C1781 1.388 . S
C1783 C1784 1.366 . S
C1784 C1783 1.366 . S
C1784 C1785 1.414 . S
C1784 C1787 1.499 . S
C1785 H1759 0.950 . S
C1785 C1784 1.414 . S
C1785 C1786 1.374 . S
C1786 H1760 0.950 . S
C1786 C1782 1.385 . S
C1786 C1785 1.374 . S
C1787 C1784 1.499 . S
C1787 C1788 1.373 . S
C1787 C1789 1.389 . S
C1788 H1761 0.950 . S
C1788 C1774 1.377 . S
C1788 C1787 1.373 . S
C1789 C1773 1.377 . S
C1789 C1787 1.389 . S
C1789 C1790 1.524 . S
C1790 C1789 1.524 . S
C1790 C1791 1.397 . S
C1790 C1795 1.363 . S
C1791 H1762 0.950 . S
C1791 C1790 1.397 . S
C1791 C1792 1.334 . S
C1792 H1763 0.950 . S
C1792 C1791 1.334 . S
C1792 C1793 1.287 . S
C1793 C1792 1.287 . S
C1793 C1794 1.524 . S
C1793 H1796 0.999 . S
C1794 H1764 0.950 . S
C1794 C1793 1.524 . S
C1794 C1795 1.415 . S
C1795 H1765 0.950 . S
C1795 C1790 1.363 . S
C1795 C1794 1.415 . S
H1796 C1793 0.999 . S
H1797 C1778 0.913 . S
H1798 C1816 0.951 . S
H1799 C1818 0.951 . S
H1800 C1820 0.950 . S
H1801 C1821 0.950 . S
H1802 C1823 0.950 . S
H1803 C1826 0.950 . S
H1804 C1827 0.950 . S
H1805 C1829 0.950 . S
H1806 C1830 0.950 . S
H1807 C1831 0.951 . S
H1808 C1833 0.951 . S
H1809 C1835 0.950 . S
H1810 C1836 0.950 . S
H1811 C1838 0.950 . S
H1812 C1841 0.950 . S
H1813 C1842 0.950 . S
H1814 C1844 0.950 . S
H1815 C1845 0.950 . S
C1816 H1798 0.951 . S
C1816 C1817 1.366 . S
C1816 C1818 1.388 . S
C1817 C1816 1.366 . S
C1817 C1821 1.385 . S
C1818 H1799 0.951 . S
C1818 C1816 1.388 . S
C1818 C1819 1.366 . S
C1819 C1818 1.366 . S
C1819 C1820 1.414 . S
C1819 C1822 1.499 . S
C1820 H1800 0.950 . S
C1820 C1819 1.414 . S
C1820 C1821 1.374 . S
C1821 H1801 0.950 . S
C1821 C1817 1.385 . S
C1821 C1820 1.374 . S
C1822 C1819 1.499 . S
C1822 C1823 1.373 . S
C1822 C1824 1.389 . S
C1823 H1802 0.950 . S
C1823 C1822 1.373 . S
C1823 C1839 1.377 . S
C1824 C1822 1.389 . S
C1824 C1825 1.524 . S
C1824 C1838 1.377 . S
C1825 C1824 1.524 . S
C1825 C1826 1.397 . S
C1825 C1830 1.363 . S
C1826 H1803 0.950 . S
C1826 C1825 1.397 . S
C1826 C1827 1.334 . S
C1827 H1804 0.950 . S
C1827 C1826 1.334 . S
C1827 C1828 1.287 . S
C1828 C1827 1.287 . S
C1828 C1829 1.524 . S
C1828 H1847 0.913 . S
C1829 H1805 0.950 . S
C1829 C1828 1.524 . S
C1829 C1830 1.415 . S
C1830 H1806 0.950 . S
C1830 C1825 1.363 . S
C1830 C1829 1.415 . S
C1831 H1807 0.951 . S
C1831 C1832 1.366 . S
C1831 C1833 1.388 . S
C1832 C1831 1.366 . S
C1832 C1836 1.385 . S
C1833 H1808 0.951 . S
C1833 C1831 1.388 . S
C1833 C1834 1.366 . S
C1834 C1833 1.366 . S
C1834 C1835 1.414 . S
C1834 C1837 1.499 . S
C1835 H1809 0.950 . S
C1835 C1834 1.414 . S
C1835 C1836 1.374 . S
C1836 H1810 0.950 . S
C1836 C1832 1.385 . S
C1836 C1835 1.374 . S
C1837 C1834 1.499 . S
C1837 C1838 1.373 . S
C1837 C1839 1.389 . S
C1838 H1811 0.950 . S
C1838 C1824 1.377 . S
C1838 C1837 1.373 . S
C1839 C1823 1.377 . S
C1839 C1837 1.389 . S
C1839 C1840 1.524 . S
C1840 C1839 1.524 . S
C1840 C1841 1.397 . S
C1840 C1845 1.363 . S
C1841 H1812 0.950 . S
C1841 C1840 1.397 . S
C1841 C1842 1.334 . S
C1842 H1813 0.950 . S
C1842 C1841 1.334 . S
C1842 C1843 1.287 . S
C1843 C1842 1.287 . S
C1843 C1844 1.524 . S
C1843 H1846 0.999 . S
C1844 H1814 0.950 . S
C1844 C1843 1.524 . S
C1844 C1845 1.415 . S
C1845 H1815 0.950 . S
C1845 C1840 1.363 . S
C1845 C1844 1.415 . S
H1846 C1843 0.999 . S
H1847 C1828 0.913 . S
H1848 C1866 0.951 . S
H1849 C1868 0.951 . S
H1850 C1870 0.950 . S
H1851 C1871 0.950 . S
H1852 C1873 0.950 . S
H1853 C1876 0.950 . S
H1854 C1877 0.950 . S
H1855 C1879 0.950 . S
H1856 C1880 0.950 . S
H1857 C1881 0.951 . S
H1858 C1883 0.951 . S
H1859 C1885 0.950 . S
H1860 C1886 0.950 . S
H1861 C1888 0.950 . S
H1862 C1891 0.950 . S
H1863 C1892 0.950 . S
H1864 C1894 0.950 . S
H1865 C1895 0.950 . S
C1866 H1848 0.951 . S
C1866 C1867 1.366 . S
C1866 C1868 1.388 . S
C1867 C1866 1.366 . S
C1867 C1871 1.385 . S
C1868 H1849 0.951 . S
C1868 C1866 1.388 . S
C1868 C1869 1.366 . S
C1869 C1868 1.366 . S
C1869 C1870 1.414 . S
C1869 C1872 1.499 . S
C1870 H1850 0.950 . S
C1870 C1869 1.414 . S
C1870 C1871 1.374 . S
C1871 H1851 0.950 . S
C1871 C1867 1.385 . S
C1871 C1870 1.374 . S
C1872 C1869 1.499 . S
C1872 C1873 1.373 . S
C1872 C1874 1.389 . S
C1873 H1852 0.950 . S
C1873 C1872 1.373 . S
C1873 C1889 1.377 . S
C1874 C1872 1.389 . S
C1874 C1875 1.524 . S
C1874 C1888 1.377 . S
C1875 C1874 1.524 . S
C1875 C1876 1.397 . S
C1875 C1880 1.363 . S
C1876 H1853 0.950 . S
C1876 C1875 1.397 . S
C1876 C1877 1.334 . S
C1877 H1854 0.950 . S
C1877 C1876 1.334 . S
C1877 C1878 1.287 . S
C1878 C1877 1.287 . S
C1878 C1879 1.524 . S
C1878 H1897 0.913 . S
C1879 H1855 0.950 . S
C1879 C1878 1.524 . S
C1879 C1880 1.415 . S
C1880 H1856 0.950 . S
C1880 C1875 1.363 . S
C1880 C1879 1.415 . S
C1881 H1857 0.951 . S
C1881 C1882 1.366 . S
C1881 C1883 1.388 . S
C1882 C1881 1.366 . S
C1882 C1886 1.385 . S
C1883 H1858 0.951 . S
C1883 C1881 1.388 . S
C1883 C1884 1.366 . S
C1884 C1883 1.366 . S
C1884 C1885 1.414 . S
C1884 C1887 1.499 . S
C1885 H1859 0.950 . S
C1885 C1884 1.414 . S
C1885 C1886 1.374 . S
C1886 H1860 0.950 . S
C1886 C1882 1.385 . S
C1886 C1885 1.374 . S
C1887 C1884 1.499 . S
C1887 C1888 1.373 . S
C1887 C1889 1.389 . S
C1888 H1861 0.950 . S
C1888 C1874 1.377 . S
C1888 C1887 1.373 . S
C1889 C1873 1.377 . S
C1889 C1887 1.389 . S
C1889 C1890 1.524 . S
C1890 C1889 1.524 . S
C1890 C1891 1.397 . S
C1890 C1895 1.363 . S
C1891 H1862 0.950 . S
C1891 C1890 1.397 . S
C1891 C1892 1.334 . S
C1892 H1863 0.950 . S
C1892 C1891 1.334 . S
C1892 C1893 1.287 . S
C1893 C1892 1.287 . S
C1893 C1894 1.524 . S
C1893 H1896 0.999 . S
C1894 H1864 0.950 . S
C1894 C1893 1.524 . S
C1894 C1895 1.415 . S
C1895 H1865 0.950 . S
C1895 C1890 1.363 . S
C1895 C1894 1.415 . S
H1896 C1893 0.999 . S
H1897 C1878 0.913 . S
H1898 C1916 0.951 . S
H1899 C1918 0.951 . S
H1900 C1920 0.950 . S
H1901 C1921 0.950 . S
H1902 C1923 0.950 . S
H1903 C1926 0.950 . S
H1904 C1927 0.950 . S
H1905 C1929 0.950 . S
H1906 C1930 0.950 . S
H1907 C1931 0.951 . S
H1908 C1933 0.951 . S
H1909 C1935 0.950 . S
H1910 C1936 0.950 . S
H1911 C1938 0.950 . S
H1912 C1941 0.950 . S
H1913 C1942 0.950 . S
H1914 C1944 0.950 . S
H1915 C1945 0.950 . S
C1916 H1898 0.951 . S
C1916 C1917 1.366 . S
C1916 C1918 1.388 . S
C1917 C1916 1.366 . S
C1917 C1921 1.385 . S
C1918 H1899 0.951 . S
C1918 C1916 1.388 . S
C1918 C1919 1.366 . S
C1919 C1918 1.366 . S
C1919 C1920 1.414 . S
C1919 C1922 1.499 . S
C1920 H1900 0.950 . S
C1920 C1919 1.414 . S
C1920 C1921 1.374 . S
C1921 H1901 0.950 . S
C1921 C1917 1.385 . S
C1921 C1920 1.374 . S
C1922 C1919 1.499 . S
C1922 C1923 1.373 . S
C1922 C1924 1.389 . S
C1923 H1902 0.950 . S
C1923 C1922 1.373 . S
C1923 C1939 1.377 . S
C1924 C1922 1.389 . S
C1924 C1925 1.524 . S
C1924 C1938 1.377 . S
C1925 C1924 1.524 . S
C1925 C1926 1.397 . S
C1925 C1930 1.363 . S
C1926 H1903 0.950 . S
C1926 C1925 1.397 . S
C1926 C1927 1.334 . S
C1927 H1904 0.950 . S
C1927 C1926 1.334 . S
C1927 C1928 1.287 . S
C1928 C1927 1.287 . S
C1928 C1929 1.524 . S
C1928 H1947 0.913 . S
C1929 H1905 0.950 . S
C1929 C1928 1.524 . S
C1929 C1930 1.415 . S
C1930 H1906 0.950 . S
C1930 C1925 1.363 . S
C1930 C1929 1.415 . S
C1931 H1907 0.951 . S
C1931 C1932 1.366 . S
C1931 C1933 1.388 . S
C1932 C1931 1.366 . S
C1932 C1936 1.385 . S
C1933 H1908 0.951 . S
C1933 C1931 1.388 . S
C1933 C1934 1.366 . S
C1934 C1933 1.366 . S
C1934 C1935 1.414 . S
C1934 C1937 1.499 . S
C1935 H1909 0.950 . S
C1935 C1934 1.414 . S
C1935 C1936 1.374 . S
C1936 H1910 0.950 . S
C1936 C1932 1.385 . S
C1936 C1935 1.374 . S
C1937 C1934 1.499 . S
C1937 C1938 1.373 . S
C1937 C1939 1.389 . S
C1938 H1911 0.950 . S
C1938 C1924 1.377 . S
C1938 C1937 1.373 . S
C1939 C1923 1.377 . S
C1939 C1937 1.389 . S
C1939 C1940 1.524 . S
C1940 C1939 1.524 . S
C1940 C1941 1.397 . S
C1940 C1945 1.363 . S
C1941 H1912 0.950 . S
C1941 C1940 1.397 . S
C1941 C1942 1.334 . S
C1942 H1913 0.950 . S
C1942 C1941 1.334 . S
C1942 C1943 1.287 . S
C1943 C1942 1.287 . S
C1943 C1944 1.524 . S
C1943 H1946 0.999 . S
C1944 H1914 0.950 . S
C1944 C1943 1.524 . S
C1944 C1945 1.415 . S
C1945 H1915 0.950 . S
C1945 C1940 1.363 . S
C1945 C1944 1.415 . S
H1946 C1943 0.999 . S
H1947 C1928 0.913 . S
H1948 C1966 0.951 . S
H1949 C1968 0.951 . S
H1950 C1970 0.950 . S
H1951 C1971 0.950 . S
H1952 C1973 0.950 . S
H1953 C1976 0.950 . S
H1954 C1977 0.950 . S
H1955 C1979 0.950 . S
H1956 C1980 0.950 . S
H1957 C1981 0.951 . S
H1958 C1983 0.951 . S
H1959 C1985 0.950 . S
H1960 C1986 0.950 . S
H1961 C1988 0.950 . S
H1962 C1991 0.950 . S
H1963 C1992 0.950 . S
H1964 C1994 0.950 . S
H1965 C1995 0.950 . S
C1966 H1948 0.951 . S
C1966 C1967 1.366 . S
C1966 C1968 1.388 . S
C1967 C1966 1.366 . S
C1967 C1971 1.385 . S
C1968 H1949 0.951 . S
C1968 C1966 1.388 . S
C1968 C1969 1.366 . S
C1969 C1968 1.366 . S
C1969 C1970 1.414 . S
C1969 C1972 1.499 . S
C1970 H1950 0.950 . S
C1970 C1969 1.414 . S
C1970 C1971 1.374 . S
C1971 H1951 0.950 . S
C1971 C1967 1.385 . S
C1971 C1970 1.374 . S
C1972 C1969 1.499 . S
C1972 C1973 1.373 . S
C1972 C1974 1.389 . S
C1973 H1952 0.950 . S
C1973 C1972 1.373 . S
C1973 C1989 1.377 . S
C1974 C1972 1.389 . S
C1974 C1975 1.524 . S
C1974 C1988 1.377 . S
C1975 C1974 1.524 . S
C1975 C1976 1.397 . S
C1975 C1980 1.363 . S
C1976 H1953 0.950 . S
C1976 C1975 1.397 . S
C1976 C1977 1.334 . S
C1977 H1954 0.950 . S
C1977 C1976 1.334 . S
C1977 C1978 1.287 . S
C1978 C1977 1.287 . S
C1978 C1979 1.524 . S
C1978 H1997 0.913 . S
C1979 H1955 0.950 . S
C1979 C1978 1.524 . S
C1979 C1980 1.415 . S
C1980 H1956 0.950 . S
C1980 C1975 1.363 . S
C1980 C1979 1.415 . S
C1981 H1957 0.951 . S
C1981 C1982 1.366 . S
C1981 C1983 1.388 . S
C1982 C1981 1.366 . S
C1982 C1986 1.385 . S
C1983 H1958 0.951 . S
C1983 C1981 1.388 . S
C1983 C1984 1.366 . S
C1984 C1983 1.366 . S
C1984 C1985 1.414 . S
C1984 C1987 1.499 . S
C1985 H1959 0.950 . S
C1985 C1984 1.414 . S
C1985 C1986 1.374 . S
C1986 H1960 0.950 . S
C1986 C1982 1.385 . S
C1986 C1985 1.374 . S
C1987 C1984 1.499 . S
C1987 C1988 1.373 . S
C1987 C1989 1.389 . S
C1988 H1961 0.950 . S
C1988 C1974 1.377 . S
C1988 C1987 1.373 . S
C1989 C1973 1.377 . S
C1989 C1987 1.389 . S
C1989 C1990 1.524 . S
C1990 C1989 1.524 . S
C1990 C1991 1.397 . S
C1990 C1995 1.363 . S
C1991 H1962 0.950 . S
C1991 C1990 1.397 . S
C1991 C1992 1.334 . S
C1992 H1963 0.950 . S
C1992 C1991 1.334 . S
C1992 C1993 1.287 . S
C1993 C1992 1.287 . S
C1993 C1994 1.524 . S
C1993 H1996 0.999 . S
C1994 H1964 0.950 . S
C1994 C1993 1.524 . S
C1994 C1995 1.415 . S
C1995 H1965 0.950 . S
C1995 C1990 1.363 . S
C1995 C1994 1.415 . S
H1996 C1993 0.999 . S
H1997 C1978 0.913 . S
H1998 C2016 0.951 . S
H1999 C2018 0.951 . S
H2000 C2020 0.950 . S
H2001 C2021 0.950 . S
H2002 C2023 0.950 . S
H2003 C2026 0.950 . S
H2004 C2027 0.950 . S
H2005 C2029 0.950 . S
H2006 C2030 0.950 . S
H2007 C2031 0.951 . S
H2008 C2033 0.951 . S
H2009 C2035 0.950 . S
H2010 C2036 0.950 . S
H2011 C2038 0.950 . S
H2012 C2041 0.950 . S
H2013 C2042 0.950 . S
H2014 C2044 0.950 . S
H2015 C2045 0.950 . S
C2016 H1998 0.951 . S
C2016 C2017 1.366 . S
C2016 C2018 1.388 . S
C2017 C2016 1.366 . S
C2017 C2021 1.385 . S
C2018 H1999 0.951 . S
C2018 C2016 1.388 . S
C2018 C2019 1.366 . S
C2019 C2018 1.366 . S
C2019 C2020 1.414 . S
C2019 C2022 1.499 . S
C2020 H2000 0.950 . S
C2020 C2019 1.414 . S
C2020 C2021 1.374 . S
C2021 H2001 0.950 . S
C2021 C2017 1.385 . S
C2021 C2020 1.374 . S
C2022 C2019 1.499 . S
C2022 C2023 1.373 . S
C2022 C2024 1.389 . S
C2023 H2002 0.950 . S
C2023 C2022 1.373 . S
C2023 C2039 1.377 . S
C2024 C2022 1.389 . S
C2024 C2025 1.524 . S
C2024 C2038 1.377 . S
C2025 C2024 1.524 . S
C2025 C2026 1.397 . S
C2025 C2030 1.363 . S
C2026 H2003 0.950 . S
C2026 C2025 1.397 . S
C2026 C2027 1.334 . S
C2027 H2004 0.950 . S
C2027 C2026 1.334 . S
C2027 C2028 1.287 . S
C2028 C2027 1.287 . S
C2028 C2029 1.524 . S
C2028 H2047 0.913 . S
C2029 H2005 0.950 . S
C2029 C2028 1.524 . S
C2029 C2030 1.415 . S
C2030 H2006 0.950 . S
C2030 C2025 1.363 . S
C2030 C2029 1.415 . S
C2031 H2007 0.951 . S
C2031 C2032 1.366 . S
C2031 C2033 1.388 . S
C2032 C2031 1.366 . S
C2032 C2036 1.385 . S
C2033 H2008 0.951 . S
C2033 C2031 1.388 . S
C2033 C2034 1.366 . S
C2034 C2033 1.366 . S
C2034 C2035 1.414 . S
C2034 C2037 1.499 . S
C2035 H2009 0.950 . S
C2035 C2034 1.414 . S
C2035 C2036 1.374 . S
C2036 H2010 0.950 . S
C2036 C2032 1.385 . S
C2036 C2035 1.374 . S
C2037 C2034 1.499 . S
C2037 C2038 1.373 . S
C2037 C2039 1.389 . S
C2038 H2011 0.950 . S
C2038 C2024 1.377 . S
C2038 C2037 1.373 . S
C2039 C2023 1.377 . S
C2039 C2037 1.389 . S
C2039 C2040 1.524 . S
C2040 C2039 1.524 . S
C2040 C2041 1.397 . S
C2040 C2045 1.363 . S
C2041 H2012 0.950 . S
C2041 C2040 1.397 . S
C2041 C2042 1.334 . S
C2042 H2013 0.950 . S
C2042 C2041 1.334 . S
C2042 C2043 1.287 . S
C2043 C2042 1.287 . S
C2043 C2044 1.524 . S
C2043 H2046 0.999 . S
C2044 H2014 0.950 . S
C2044 C2043 1.524 . S
C2044 C2045 1.415 . S
C2045 H2015 0.950 . S
C2045 C2040 1.363 . S
C2045 C2044 1.415 . S
H2046 C2043 0.999 . S
H2047 C2028 0.913 . S
H2048 C2066 0.951 . S
H2049 C2068 0.951 . S
H2050 C2070 0.950 . S
H2051 C2071 0.950 . S
H2052 C2073 0.950 . S
H2053 C2076 0.950 . S
H2054 C2077 0.950 . S
H2055 C2079 0.950 . S
H2056 C2080 0.950 . S
H2057 C2081 0.951 . S
H2058 C2083 0.951 . S
H2059 C2085 0.950 . S
H2060 C2086 0.950 . S
H2061 C2088 0.950 . S
H2062 C2091 0.950 . S
H2063 C2092 0.950 . S
H2064 C2094 0.950 . S
H2065 C2095 0.950 . S
C2066 H2048 0.951 . S
C2066 C2067 1.366 . S
C2066 C2068 1.388 . S
C2067 C2066 1.366 . S
C2067 C2071 1.385 . S
C2068 H2049 0.951 . S
C2068 C2066 1.388 . S
C2068 C2069 1.366 . S
C2069 C2068 1.366 . S
C2069 C2070 1.414 . S
C2069 C2072 1.499 . S
C2070 H2050 0.950 . S
C2070 C2069 1.414 . S
C2070 C2071 1.374 . S
C2071 H2051 0.950 . S
C2071 C2067 1.385 . S
C2071 C2070 1.374 . S
C2072 C2069 1.499 . S
C2072 C2073 1.373 . S
C2072 C2074 1.389 . S
C2073 H2052 0.950 . S
C2073 C2072 1.373 . S
C2073 C2089 1.377 . S
C2074 C2072 1.389 . S
C2074 C2075 1.524 . S
C2074 C2088 1.377 . S
C2075 C2074 1.524 . S
C2075 C2076 1.397 . S
C2075 C2080 1.363 . S
C2076 H2053 0.950 . S
C2076 C2075 1.397 . S
C2076 C2077 1.334 . S
C2077 H2054 0.950 . S
C2077 C2076 1.334 . S
C2077 C2078 1.287 . S
C2078 C2077 1.287 . S
C2078 C2079 1.524 . S
C2078 H2097 0.913 . S
C2079 H2055 0.950 . S
C2079 C2078 1.524 . S
C2079 C2080 1.415 . S
C2080 H2056 0.950 . S
C2080 C2075 1.363 . S
C2080 C2079 1.415 . S
C2081 H2057 0.951 . S
C2081 C2082 1.366 . S
C2081 C2083 1.388 . S
C2082 C2081 1.366 . S
C2082 C2086 1.385 . S
C2083 H2058 0.951 . S
C2083 C2081 1.388 . S
C2083 C2084 1.366 . S
C2084 C2083 1.366 . S
C2084 C2085 1.414 . S
C2084 C2087 1.499 . S
C2085 H2059 0.950 . S
C2085 C2084 1.414 . S
C2085 C2086 1.374 . S
C2086 H2060 0.950 . S
C2086 C2082 1.385 . S
C2086 C2085 1.374 . S
C2087 C2084 1.499 . S
C2087 C2088 1.373 . S
C2087 C2089 1.389 . S
C2088 H2061 0.950 . S
C2088 C2074 1.377 . S
C2088 C2087 1.373 . S
C2089 C2073 1.377 . S
C2089 C2087 1.389 . S
C2089 C2090 1.524 . S
C2090 C2089 1.524 . S
C2090 C2091 1.397 . S
C2090 C2095 1.363 . S
C2091 H2062 0.950 . S
C2091 C2090 1.397 . S
C2091 C2092 1.334 . S
C2092 H2063 0.950 . S
C2092 C2091 1.334 . S
C2092 C2093 1.287 . S
C2093 C2092 1.287 . S
C2093 C2094 1.524 . S
C2093 H2096 0.999 . S
C2094 H2064 0.950 . S
C2094 C2093 1.524 . S
C2094 C2095 1.415 . S
C2095 H2065 0.950 . S
C2095 C2090 1.363 . S
C2095 C2094 1.415 . S
H2096 C2093 0.999 . S
H2097 C2078 0.913 . S
H2098 C2116 0.951 . S
H2099 C2118 0.951 . S
H2100 C2120 0.950 . S
H2101 C2121 0.950 . S
H2102 C2123 0.950 . S
H2103 C2126 0.950 . S
H2104 C2127 0.950 . S
H2105 C2129 0.950 . S
H2106 C2130 0.950 . S
H2107 C2131 0.951 . S
H2108 C2133 0.951 . S
H2109 C2135 0.950 . S
H2110 C2136 0.950 . S
H2111 C2138 0.950 . S
H2112 C2141 0.950 . S
H2113 C2142 0.950 . S
H2114 C2144 0.950 . S
H2115 C2145 0.950 . S
C2116 H2098 0.951 . S
C2116 C2117 1.366 . S
C2116 C2118 1.388 . S
C2117 C2116 1.366 . S
C2117 C2121 1.385 . S
C2118 H2099 0.951 . S
C2118 C2116 1.388 . S
C2118 C2119 1.366 . S
C2119 C2118 1.366 . S
C2119 C2120 1.414 . S
C2119 C2122 1.499 . S
C2120 H2100 0.950 . S
C2120 C2119 1.414 . S
C2120 C2121 1.374 . S
C2121 H2101 0.950 . S
C2121 C2117 1.385 . S
C2121 C2120 1.374 . S
C2122 C2119 1.499 . S
C2122 C2123 1.373 . S
C2122 C2124 1.389 . S
C2123 H2102 0.950 . S
C2123 C2122 1.373 . S
C2123 C2139 1.377 . S
C2124 C2122 1.389 . S
C2124 C2125 1.524 . S
C2124 C2138 1.377 . S
C2125 C2124 1.524 . S
C2125 C2126 1.397 . S
C2125 C2130 1.363 . S
C2126 H2103 0.950 . S
C2126 C2125 1.397 . S
C2126 C2127 1.334 . S
C2127 H2104 0.950 . S
C2127 C2126 1.334 . S
C2127 C2128 1.287 . S
C2128 C2127 1.287 . S
C2128 C2129 1.524 . S
C2128 H2147 0.913 . S
C2129 H2105 0.950 . S
C2129 C2128 1.524 . S
C2129 C2130 1.415 . S
C2130 H2106 0.950 . S
C2130 C2125 1.363 . S
C2130 C2129 1.415 . S
C2131 H2107 0.951 . S
C2131 C2132 1.366 . S
C2131 C2133 1.388 . S
C2132 C2131 1.366 . S
C2132 C2136 1.385 . S
C2133 H2108 0.951 . S
C2133 C2131 1.388 . S
C2133 C2134 1.366 . S
C2134 C2133 1.366 . S
C2134 C2135 1.414 . S
C2134 C2137 1.499 . S
C2135 H2109 0.950 . S
C2135 C2134 1.414 . S
C2135 C2136 1.374 . S
C2136 H2110 0.950 . S
C2136 C2132 1.385 . S
C2136 C2135 1.374 . S
C2137 C2134 1.499 . S
C2137 C2138 1.373 . S
C2137 C2139 1.389 . S
C2138 H2111 0.950 . S
C2138 C2124 1.377 . S
C2138 C2137 1.373 . S
C2139 C2123 1.377 . S
C2139 C2137 1.389 . S
C2139 C2140 1.524 . S
C2140 C2139 1.524 . S
C2140 C2141 1.397 . S
C2140 C2145 1.363 . S
C2141 H2112 0.950 . S
C2141 C2140 1.397 . S
C2141 C2142 1.334 . S
C2142 H2113 0.950 . S
C2142 C2141 1.334 . S
C2142 C2143 1.287 . S
C2143 C2142 1.287 . S
C2143 C2144 1.524 . S
C2143 H2146 0.999 . S
C2144 H2114 0.950 . S
C2144 C2143 1.524 . S
C2144 C2145 1.415 . S
C2145 H2115 0.950 . S
C2145 C2140 1.363 . S
C2145 C2144 1.415 . S
H2146 C2143 0.999 . S
H2147 C2128 0.913 . S
H2148 C2166 0.951 . S
H2149 C2168 0.951 . S
H2150 C2170 0.950 . S
H2151 C2171 0.950 . S
H2152 C2173 0.950 . S
H2153 C2176 0.950 . S
H2154 C2177 0.950 . S
H2155 C2179 0.950 . S
H2156 C2180 0.950 . S
H2157 C2181 0.951 . S
H2158 C2183 0.951 . S
H2159 C2185 0.950 . S
H2160 C2186 0.950 . S
H2161 C2188 0.950 . S
H2162 C2191 0.950 . S
H2163 C2192 0.950 . S
H2164 C2194 0.950 . S
H2165 C2195 0.950 . S
C2166 H2148 0.951 . S
C2166 C2167 1.366 . S
C2166 C2168 1.388 . S
C2167 C2166 1.366 . S
C2167 C2171 1.385 . S
C2168 H2149 0.951 . S
C2168 C2166 1.388 . S
C2168 C2169 1.366 . S
C2169 C2168 1.366 . S
C2169 C2170 1.414 . S
C2169 C2172 1.499 . S
C2170 H2150 0.950 . S
C2170 C2169 1.414 . S
C2170 C2171 1.374 . S
C2171 H2151 0.950 . S
C2171 C2167 1.385 . S
C2171 C2170 1.374 . S
C2172 C2169 1.499 . S
C2172 C2173 1.373 . S
C2172 C2174 1.389 . S
C2173 H2152 0.950 . S
C2173 C2172 1.373 . S
C2173 C2189 1.377 . S
C2174 C2172 1.389 . S
C2174 C2175 1.524 . S
C2174 C2188 1.377 . S
C2175 C2174 1.524 . S
C2175 C2176 1.397 1_455 S
C2175 C2180 1.363 . S
C2176 H2153 0.950 . S
C2176 C2175 1.397 1_655 S
C2176 C2177 1.334 . S
C2177 H2154 0.950 . S
C2177 C2176 1.334 . S
C2177 C2178 1.287 . S
C2178 C2177 1.287 . S
C2178 C2179 1.524 . S
C2178 H2197 0.913 . S
C2179 H2155 0.950 . S
C2179 C2178 1.524 . S
C2179 C2180 1.415 1_655 S
C2180 H2156 0.950 . S
C2180 C2175 1.363 . S
C2180 C2179 1.415 1_455 S
C2181 H2157 0.951 . S
C2181 C2182 1.366 . S
C2181 C2183 1.388 . S
C2182 C2181 1.366 . S
C2182 C2186 1.385 . S
C2183 H2158 0.951 . S
C2183 C2181 1.388 . S
C2183 C2184 1.366 . S
C2184 C2183 1.366 . S
C2184 C2185 1.414 . S
C2184 C2187 1.499 . S
C2185 H2159 0.950 . S
C2185 C2184 1.414 . S
C2185 C2186 1.374 . S
C2186 H2160 0.950 . S
C2186 C2182 1.385 . S
C2186 C2185 1.374 . S
C2187 C2184 1.499 . S
C2187 C2188 1.373 . S
C2187 C2189 1.389 . S
C2188 H2161 0.950 . S
C2188 C2174 1.377 . S
C2188 C2187 1.373 . S
C2189 C2173 1.377 . S
C2189 C2187 1.389 . S
C2189 C2190 1.524 . S
C2190 C2189 1.524 . S
C2190 C2191 1.397 . S
C2190 C2195 1.363 . S
C2191 H2162 0.950 . S
C2191 C2190 1.397 . S
C2191 C2192 1.334 . S
C2192 H2163 0.950 . S
C2192 C2191 1.334 . S
C2192 C2193 1.287 . S
C2193 C2192 1.287 . S
C2193 C2194 1.524 . S
C2193 H2196 0.999 . S
C2194 H2164 0.950 . S
C2194 C2193 1.524 . S
C2194 C2195 1.415 . S
C2195 H2165 0.950 . S
C2195 C2190 1.363 . S
C2195 C2194 1.415 . S
H2196 C2193 0.999 . S
H2197 C2178 0.913 . S
H2198 C2216 0.951 . S
H2199 C2218 0.951 . S
H2200 C2220 0.950 . S
H2201 C2221 0.950 . S
H2202 C2223 0.950 . S
H2203 C2226 0.950 . S
H2204 C2227 0.950 . S
H2205 C2229 0.950 . S
H2206 C2230 0.950 . S
H2207 C2231 0.951 . S
H2208 C2233 0.951 . S
H2209 C2235 0.950 . S
H2210 C2236 0.950 . S
H2211 C2238 0.950 . S
H2212 C2241 0.950 . S
H2213 C2242 0.950 . S
H2214 C2244 0.950 . S
H2215 C2245 0.950 . S
C2216 H2198 0.951 . S
C2216 C2217 1.366 . S
C2216 C2218 1.388 . S
C2217 C2216 1.366 . S
C2217 C2221 1.385 . S
C2218 H2199 0.951 . S
C2218 C2216 1.388 . S
C2218 C2219 1.366 . S
C2219 C2218 1.366 . S
C2219 C2220 1.414 . S
C2219 C2222 1.499 . S
C2220 H2200 0.950 . S
C2220 C2219 1.414 . S
C2220 C2221 1.374 . S
C2221 H2201 0.950 . S
C2221 C2217 1.385 . S
C2221 C2220 1.374 . S
C2222 C2219 1.499 . S
C2222 C2223 1.373 . S
C2222 C2224 1.389 . S
C2223 H2202 0.950 . S
C2223 C2222 1.373 . S
C2223 C2239 1.377 . S
C2224 C2222 1.389 . S
C2224 C2225 1.524 . S
C2224 C2238 1.377 . S
C2225 C2224 1.524 . S
C2225 C2226 1.397 . S
C2225 C2230 1.363 . S
C2226 H2203 0.950 . S
C2226 C2225 1.397 . S
C2226 C2227 1.334 . S
C2227 H2204 0.950 . S
C2227 C2226 1.334 . S
C2227 C2228 1.287 . S
C2228 C2227 1.287 . S
C2228 C2229 1.524 . S
C2228 H2247 0.913 . S
C2229 H2205 0.950 . S
C2229 C2228 1.524 . S
C2229 C2230 1.415 . S
C2230 H2206 0.950 . S
C2230 C2225 1.363 . S
C2230 C2229 1.415 . S
C2231 H2207 0.951 . S
C2231 C2232 1.366 . S
C2231 C2233 1.388 . S
C2232 C2231 1.366 . S
C2232 C2236 1.385 . S
C2233 H2208 0.951 . S
C2233 C2231 1.388 . S
C2233 C2234 1.366 . S
C2234 C2233 1.366 . S
C2234 C2235 1.414 . S
C2234 C2237 1.499 . S
C2235 H2209 0.950 . S
C2235 C2234 1.414 . S
C2235 C2236 1.374 . S
C2236 H2210 0.950 . S
C2236 C2232 1.385 . S
C2236 C2235 1.374 . S
C2237 C2234 1.499 . S
C2237 C2238 1.373 . S
C2237 C2239 1.389 . S
C2238 H2211 0.950 . S
C2238 C2224 1.377 . S
C2238 C2237 1.373 . S
C2239 C2223 1.377 . S
C2239 C2237 1.389 . S
C2239 C2240 1.524 . S
C2240 C2239 1.524 . S
C2240 C2241 1.397 . S
C2240 C2245 1.363 . S
C2241 H2212 0.950 . S
C2241 C2240 1.397 . S
C2241 C2242 1.334 . S
C2242 H2213 0.950 . S
C2242 C2241 1.334 . S
C2242 C2243 1.287 . S
C2243 C2242 1.287 . S
C2243 C2244 1.524 . S
C2243 H2246 0.999 1_455 S
C2244 H2214 0.950 . S
C2244 C2243 1.524 . S
C2244 C2245 1.415 . S
C2245 H2215 0.950 . S
C2245 C2240 1.363 . S
C2245 C2244 1.415 . S
H2246 C2243 0.999 1_655 S
H2247 C2228 0.913 . S
H2248 C2266 0.951 . S
H2249 C2268 0.951 . S
H2250 C2270 0.950 . S
H2251 C2271 0.950 . S
H2252 C2273 0.950 . S
H2253 C2276 0.950 . S
H2254 C2277 0.950 . S
H2255 C2279 0.950 . S
H2256 C2280 0.950 . S
H2257 C2281 0.951 . S
H2258 C2283 0.951 . S
H2259 C2285 0.950 . S
H2260 C2286 0.950 . S
H2261 C2288 0.950 . S
H2262 C2291 0.950 . S
H2263 C2292 0.950 . S
H2264 C2294 0.950 . S
H2265 C2295 0.950 . S
C2266 H2248 0.951 . S
C2266 C2267 1.366 . S
C2266 C2268 1.388 . S
C2267 C2266 1.366 . S
C2267 C2271 1.385 . S
C2268 H2249 0.951 . S
C2268 C2266 1.388 . S
C2268 C2269 1.366 . S
C2269 C2268 1.366 . S
C2269 C2270 1.414 . S
C2269 C2272 1.499 . S
C2270 H2250 0.950 . S
C2270 C2269 1.414 . S
C2270 C2271 1.374 . S
C2271 H2251 0.950 . S
C2271 C2267 1.385 . S
C2271 C2270 1.374 . S
C2272 C2269 1.499 . S
C2272 C2273 1.373 . S
C2272 C2274 1.389 . S
C2273 H2252 0.950 . S
C2273 C2272 1.373 . S
C2273 C2289 1.377 . S
C2274 C2272 1.389 . S
C2274 C2275 1.524 . S
C2274 C2288 1.377 . S
C2275 C2274 1.524 . S
C2275 C2276 1.397 . S
C2275 C2280 1.363 . S
C2276 H2253 0.950 . S
C2276 C2275 1.397 . S
C2276 C2277 1.334 . S
C2277 H2254 0.950 . S
C2277 C2276 1.334 . S
C2277 C2278 1.287 . S
C2278 C2277 1.287 . S
C2278 C2279 1.524 . S
C2278 H2297 0.913 . S
C2279 H2255 0.950 . S
C2279 C2278 1.524 . S
C2279 C2280 1.415 . S
C2280 H2256 0.950 . S
C2280 C2275 1.363 . S
C2280 C2279 1.415 . S
C2281 H2257 0.951 . S
C2281 C2282 1.366 . S
C2281 C2283 1.388 . S
C2282 C2281 1.366 . S
C2282 C2286 1.385 . S
C2283 H2258 0.951 . S
C2283 C2281 1.388 . S
C2283 C2284 1.366 . S
C2284 C2283 1.366 . S
C2284 C2285 1.414 . S
C2284 C2287 1.499 . S
C2285 H2259 0.950 . S
C2285 C2284 1.414 . S
C2285 C2286 1.374 . S
C2286 H2260 0.950 . S
C2286 C2282 1.385 . S
C2286 C2285 1.374 . S
C2287 C2284 1.499 . S
C2287 C2288 1.373 . S
C2287 C2289 1.389 . S
C2288 H2261 0.950 . S
C2288 C2274 1.377 . S
C2288 C2287 1.373 . S
C2289 C2273 1.377 . S
C2289 C2287 1.389 . S
C2289 C2290 1.524 . S
C2290 C2289 1.524 . S
C2290 C2291 1.397 . S
C2290 C2295 1.363 . S
C2291 H2262 0.950 . S
C2291 C2290 1.397 . S
C2291 C2292 1.334 . S
C2292 H2263 0.950 . S
C2292 C2291 1.334 . S
C2292 C2293 1.287 . S
C2293 C2292 1.287 . S
C2293 C2294 1.524 . S
C2293 H2296 0.999 . S
C2294 H2264 0.950 . S
C2294 C2293 1.524 . S
C2294 C2295 1.415 . S
C2295 H2265 0.950 . S
C2295 C2290 1.363 . S
C2295 C2294 1.415 . S
H2296 C2293 0.999 . S
H2297 C2278 0.913 . S
H2298 C2316 0.951 . S
H2299 C2318 0.951 . S
H2300 C2320 0.950 . S
H2301 C2321 0.950 . S
H2302 C2323 0.950 . S
H2303 C2326 0.950 . S
H2304 C2327 0.950 . S
H2305 C2329 0.950 . S
H2306 C2330 0.950 . S
H2307 C2331 0.951 . S
H2308 C2333 0.951 . S
H2309 C2335 0.950 . S
H2310 C2336 0.950 . S
H2311 C2338 0.950 . S
H2312 C2341 0.950 . S
H2313 C2342 0.950 . S
H2314 C2344 0.950 . S
H2315 C2345 0.950 . S
C2316 H2298 0.951 . S
C2316 C2317 1.366 . S
C2316 C2318 1.388 . S
C2317 C2316 1.366 . S
C2317 C2321 1.385 . S
C2318 H2299 0.951 . S
C2318 C2316 1.388 . S
C2318 C2319 1.366 . S
C2319 C2318 1.366 . S
C2319 C2320 1.414 . S
C2319 C2322 1.499 . S
C2320 H2300 0.950 . S
C2320 C2319 1.414 . S
C2320 C2321 1.374 . S
C2321 H2301 0.950 . S
C2321 C2317 1.385 . S
C2321 C2320 1.374 . S
C2322 C2319 1.499 . S
C2322 C2323 1.373 . S
C2322 C2324 1.389 . S
C2323 H2302 0.950 . S
C2323 C2322 1.373 . S
C2323 C2339 1.377 . S
C2324 C2322 1.389 . S
C2324 C2325 1.524 . S
C2324 C2338 1.377 . S
C2325 C2324 1.524 . S
C2325 C2326 1.397 . S
C2325 C2330 1.363 . S
C2326 H2303 0.950 . S
C2326 C2325 1.397 . S
C2326 C2327 1.334 . S
C2327 H2304 0.950 . S
C2327 C2326 1.334 . S
C2327 C2328 1.287 . S
C2328 C2327 1.287 . S
C2328 C2329 1.524 . S
C2328 H2347 0.913 . S
C2329 H2305 0.950 . S
C2329 C2328 1.524 . S
C2329 C2330 1.415 . S
C2330 H2306 0.950 . S
C2330 C2325 1.363 . S
C2330 C2329 1.415 . S
C2331 H2307 0.951 . S
C2331 C2332 1.366 . S
C2331 C2333 1.388 . S
C2332 C2331 1.366 . S
C2332 C2336 1.385 . S
C2333 H2308 0.951 . S
C2333 C2331 1.388 . S
C2333 C2334 1.366 . S
C2334 C2333 1.366 . S
C2334 C2335 1.414 . S
C2334 C2337 1.499 . S
C2335 H2309 0.950 . S
C2335 C2334 1.414 . S
C2335 C2336 1.374 . S
C2336 H2310 0.950 . S
C2336 C2332 1.385 . S
C2336 C2335 1.374 . S
C2337 C2334 1.499 . S
C2337 C2338 1.373 . S
C2337 C2339 1.389 . S
C2338 H2311 0.950 . S
C2338 C2324 1.377 . S
C2338 C2337 1.373 . S
C2339 C2323 1.377 . S
C2339 C2337 1.389 . S
C2339 C2340 1.524 . S
C2340 C2339 1.524 . S
C2340 C2341 1.397 . S
C2340 C2345 1.363 . S
C2341 H2312 0.950 . S
C2341 C2340 1.397 . S
C2341 C2342 1.334 . S
C2342 H2313 0.950 . S
C2342 C2341 1.334 . S
C2342 C2343 1.287 . S
C2343 C2342 1.287 . S
C2343 C2344 1.524 . S
C2343 H2346 0.999 . S
C2344 H2314 0.950 . S
C2344 C2343 1.524 . S
C2344 C2345 1.415 . S
C2345 H2315 0.950 . S
C2345 C2340 1.363 . S
C2345 C2344 1.415 . S
H2346 C2343 0.999 . S
H2347 C2328 0.913 . S
H2348 C2366 0.951 . S
H2349 C2368 0.951 . S
H2350 C2370 0.950 . S
H2351 C2371 0.950 . S
H2352 C2373 0.950 . S
H2353 C2376 0.950 . S
H2354 C2377 0.950 . S
H2355 C2379 0.950 . S
H2356 C2380 0.950 . S
H2357 C2381 0.951 . S
H2358 C2383 0.951 . S
H2359 C2385 0.950 . S
H2360 C2386 0.950 . S
H2361 C2388 0.950 . S
H2362 C2391 0.950 . S
H2363 C2392 0.950 . S
H2364 C2394 0.950 . S
H2365 C2395 0.950 . S
C2366 H2348 0.951 . S
C2366 C2367 1.366 . S
C2366 C2368 1.388 . S
C2367 C2366 1.366 . S
C2367 C2371 1.385 . S
C2368 H2349 0.951 . S
C2368 C2366 1.388 . S
C2368 C2369 1.366 . S
C2369 C2368 1.366 . S
C2369 C2370 1.414 . S
C2369 C2372 1.499 . S
C2370 H2350 0.950 . S
C2370 C2369 1.414 . S
C2370 C2371 1.374 . S
C2371 H2351 0.950 . S
C2371 C2367 1.385 . S
C2371 C2370 1.374 . S
C2372 C2369 1.499 . S
C2372 C2373 1.373 . S
C2372 C2374 1.389 . S
C2373 H2352 0.950 . S
C2373 C2372 1.373 . S
C2373 C2389 1.377 . S
C2374 C2372 1.389 . S
C2374 C2375 1.524 . S
C2374 C2388 1.377 . S
C2375 C2374 1.524 . S
C2375 C2376 1.397 . S
C2375 C2380 1.363 . S
C2376 H2353 0.950 . S
C2376 C2375 1.397 . S
C2376 C2377 1.334 . S
C2377 H2354 0.950 . S
C2377 C2376 1.334 . S
C2377 C2378 1.287 . S
C2378 C2377 1.287 . S
C2378 C2379 1.524 . S
C2378 H2397 0.913 . S
C2379 H2355 0.950 . S
C2379 C2378 1.524 . S
C2379 C2380 1.415 . S
C2380 H2356 0.950 . S
C2380 C2375 1.363 . S
C2380 C2379 1.415 . S
C2381 H2357 0.951 . S
C2381 C2382 1.366 . S
C2381 C2383 1.388 . S
C2382 C2381 1.366 . S
C2382 C2386 1.385 . S
C2383 H2358 0.951 . S
C2383 C2381 1.388 . S
C2383 C2384 1.366 . S
C2384 C2383 1.366 . S
C2384 C2385 1.414 . S
C2384 C2387 1.499 . S
C2385 H2359 0.950 . S
C2385 C2384 1.414 . S
C2385 C2386 1.374 . S
C2386 H2360 0.950 . S
C2386 C2382 1.385 . S
C2386 C2385 1.374 . S
C2387 C2384 1.499 . S
C2387 C2388 1.373 . S
C2387 C2389 1.389 . S
C2388 H2361 0.950 . S
C2388 C2374 1.377 . S
C2388 C2387 1.373 . S
C2389 C2373 1.377 . S
C2389 C2387 1.389 . S
C2389 C2390 1.524 . S
C2390 C2389 1.524 . S
C2390 C2391 1.397 . S
C2390 C2395 1.363 . S
C2391 H2362 0.950 . S
C2391 C2390 1.397 . S
C2391 C2392 1.334 . S
C2392 H2363 0.950 . S
C2392 C2391 1.334 . S
C2392 C2393 1.287 . S
C2393 C2392 1.287 . S
C2393 C2394 1.524 . S
C2393 H2396 0.999 . S
C2394 H2364 0.950 . S
C2394 C2393 1.524 . S
C2394 C2395 1.415 . S
C2395 H2365 0.950 . S
C2395 C2390 1.363 . S
C2395 C2394 1.415 . S
H2396 C2393 0.999 . S
H2397 C2378 0.913 . S
H2398 C2416 0.951 . S
H2399 C2418 0.951 . S
H2400 C2420 0.950 . S
H2401 C2421 0.950 . S
H2402 C2423 0.950 . S
H2403 C2426 0.950 . S
H2404 C2427 0.950 . S
H2405 C2429 0.950 . S
H2406 C2430 0.950 . S
H2407 C2431 0.951 . S
H2408 C2433 0.951 . S
H2409 C2435 0.950 . S
H2410 C2436 0.950 . S
H2411 C2438 0.950 . S
H2412 C2441 0.950 . S
H2413 C2442 0.950 . S
H2414 C2444 0.950 . S
H2415 C2445 0.950 . S
C2416 H2398 0.951 . S
C2416 C2417 1.366 . S
C2416 C2418 1.388 . S
C2417 C2416 1.366 . S
C2417 C2421 1.385 . S
C2418 H2399 0.951 . S
C2418 C2416 1.388 . S
C2418 C2419 1.366 . S
C2419 C2418 1.366 . S
C2419 C2420 1.414 . S
C2419 C2422 1.499 . S
C2420 H2400 0.950 . S
C2420 C2419 1.414 . S
C2420 C2421 1.374 . S
C2421 H2401 0.950 . S
C2421 C2417 1.385 . S
C2421 C2420 1.374 . S
C2422 C2419 1.499 . S
C2422 C2423 1.373 . S
C2422 C2424 1.389 . S
C2423 H2402 0.950 . S
C2423 C2422 1.373 . S
C2423 C2439 1.377 . S
C2424 C2422 1.389 . S
C2424 C2425 1.524 . S
C2424 C2438 1.377 . S
C2425 C2424 1.524 . S
C2425 C2426 1.397 . S
C2425 C2430 1.363 . S
C2426 H2403 0.950 . S
C2426 C2425 1.397 . S
C2426 C2427 1.334 . S
C2427 H2404 0.950 . S
C2427 C2426 1.334 . S
C2427 C2428 1.287 . S
C2428 C2427 1.287 . S
C2428 C2429 1.524 . S
C2428 H2447 0.913 . S
C2429 H2405 0.950 . S
C2429 C2428 1.524 . S
C2429 C2430 1.415 . S
C2430 H2406 0.950 . S
C2430 C2425 1.363 . S
C2430 C2429 1.415 . S
C2431 H2407 0.951 . S
C2431 C2432 1.366 . S
C2431 C2433 1.388 . S
C2432 C2431 1.366 . S
C2432 C2436 1.385 . S
C2433 H2408 0.951 . S
C2433 C2431 1.388 . S
C2433 C2434 1.366 . S
C2434 C2433 1.366 . S
C2434 C2435 1.414 . S
C2434 C2437 1.499 . S
C2435 H2409 0.950 . S
C2435 C2434 1.414 . S
C2435 C2436 1.374 . S
C2436 H2410 0.950 . S
C2436 C2432 1.385 . S
C2436 C2435 1.374 . S
C2437 C2434 1.499 . S
C2437 C2438 1.373 . S
C2437 C2439 1.389 . S
C2438 H2411 0.950 . S
C2438 C2424 1.377 . S
C2438 C2437 1.373 . S
C2439 C2423 1.377 . S
C2439 C2437 1.389 . S
C2439 C2440 1.524 . S
C2440 C2439 1.524 . S
C2440 C2441 1.397 . S
C2440 C2445 1.363 . S
C2441 H2412 0.950 . S
C2441 C2440 1.397 . S
C2441 C2442 1.334 . S
C2442 H2413 0.950 . S
C2442 C2441 1.334 . S
C2442 C2443 1.287 . S
C2443 C2442 1.287 . S
C2443 C2444 1.524 . S
C2443 H2446 0.999 . S
C2444 H2414 0.950 . S
C2444 C2443 1.524 . S
C2444 C2445 1.415 . S
C2445 H2415 0.950 . S
C2445 C2440 1.363 . S
C2445 C2444 1.415 . S
H2446 C2443 0.999 . S
H2447 C2428 0.913 . S
H2448 C2466 0.951 . S
H2449 C2468 0.951 . S
H2450 C2470 0.950 . S
H2451 C2471 0.950 . S
H2452 C2473 0.950 . S
H2453 C2476 0.950 . S
H2454 C2477 0.950 . S
H2455 C2479 0.950 . S
H2456 C2480 0.950 . S
H2457 C2481 0.951 . S
H2458 C2483 0.951 . S
H2459 C2485 0.950 . S
H2460 C2486 0.950 . S
H2461 C2488 0.950 . S
H2462 C2491 0.950 . S
H2463 C2492 0.950 . S
H2464 C2494 0.950 . S
H2465 C2495 0.950 . S
C2466 H2448 0.951 . S
C2466 C2467 1.366 . S
C2466 C2468 1.388 . S
C2467 C2466 1.366 . S
C2467 C2471 1.385 . S
C2468 H2449 0.951 . S
C2468 C2466 1.388 . S
C2468 C2469 1.366 . S
C2469 C2468 1.366 . S
C2469 C2470 1.414 . S
C2469 C2472 1.499 . S
C2470 H2450 0.950 . S
C2470 C2469 1.414 . S
C2470 C2471 1.374 . S
C2471 H2451 0.950 . S
C2471 C2467 1.385 . S
C2471 C2470 1.374 . S
C2472 C2469 1.499 . S
C2472 C2473 1.373 . S
C2472 C2474 1.389 . S
C2473 H2452 0.950 . S
C2473 C2472 1.373 . S
C2473 C2489 1.377 . S
C2474 C2472 1.389 . S
C2474 C2475 1.524 . S
C2474 C2488 1.377 . S
C2475 C2474 1.524 . S
C2475 C2476 1.397 . S
C2475 C2480 1.363 . S
C2476 H2453 0.950 . S
C2476 C2475 1.397 . S
C2476 C2477 1.334 . S
C2477 H2454 0.950 . S
C2477 C2476 1.334 . S
C2477 C2478 1.287 . S
C2478 C2477 1.287 . S
C2478 C2479 1.524 . S
C2478 H2497 0.913 . S
C2479 H2455 0.950 . S
C2479 C2478 1.524 . S
C2479 C2480 1.415 . S
C2480 H2456 0.950 . S
C2480 C2475 1.363 . S
C2480 C2479 1.415 . S
C2481 H2457 0.951 . S
C2481 C2482 1.366 . S
C2481 C2483 1.388 . S
C2482 C2481 1.366 . S
C2482 C2486 1.385 . S
C2483 H2458 0.951 . S
C2483 C2481 1.388 . S
C2483 C2484 1.366 . S
C2484 C2483 1.366 . S
C2484 C2485 1.414 . S
C2484 C2487 1.499 . S
C2485 H2459 0.950 . S
C2485 C2484 1.414 . S
C2485 C2486 1.374 . S
C2486 H2460 0.950 . S
C2486 C2482 1.385 . S
C2486 C2485 1.374 . S
C2487 C2484 1.499 . S
C2487 C2488 1.373 . S
C2487 C2489 1.389 . S
C2488 H2461 0.950 . S
C2488 C2474 1.377 . S
C2488 C2487 1.373 . S
C2489 C2473 1.377 . S
C2489 C2487 1.389 . S
C2489 C2490 1.524 . S
C2490 C2489 1.524 . S
C2490 C2491 1.397 . S
C2490 C2495 1.363 . S
C2491 H2462 0.950 . S
C2491 C2490 1.397 . S
C2491 C2492 1.334 . S
C2492 H2463 0.950 . S
C2492 C2491 1.334 . S
C2492 C2493 1.287 . S
C2493 C2492 1.287 . S
C2493 C2494 1.524 . S
C2493 H2496 0.999 . S
C2494 H2464 0.950 . S
C2494 C2493 1.524 . S
C2494 C2495 1.415 . S
C2495 H2465 0.950 . S
C2495 C2490 1.363 . S
C2495 C2494 1.415 . S
H2496 C2493 0.999 . S
H2497 C2478 0.913 . S
H2498 C2516 0.951 . S
H2499 C2518 0.951 . S
H2500 C2520 0.950 . S
H2501 C2521 0.950 . S
H2502 C2523 0.950 . S
H2503 C2526 0.950 . S
H2504 C2527 0.950 . S
H2505 C2529 0.950 . S
H2506 C2530 0.950 . S
H2507 C2531 0.951 . S
H2508 C2533 0.951 . S
H2509 C2535 0.950 . S
H2510 C2536 0.950 . S
H2511 C2538 0.950 . S
H2512 C2541 0.950 . S
H2513 C2542 0.950 . S
H2514 C2544 0.950 . S
H2515 C2545 0.950 . S
C2516 H2498 0.951 . S
C2516 C2517 1.366 . S
C2516 C2518 1.388 . S
C2517 C2516 1.366 . S
C2517 C2521 1.385 . S
C2518 H2499 0.951 . S
C2518 C2516 1.388 . S
C2518 C2519 1.366 . S
C2519 C2518 1.366 . S
C2519 C2520 1.414 . S
C2519 C2522 1.499 . S
C2520 H2500 0.950 . S
C2520 C2519 1.414 . S
C2520 C2521 1.374 . S
C2521 H2501 0.950 . S
C2521 C2517 1.385 . S
C2521 C2520 1.374 . S
C2522 C2519 1.499 . S
C2522 C2523 1.373 . S
C2522 C2524 1.389 . S
C2523 H2502 0.950 . S
C2523 C2522 1.373 . S
C2523 C2539 1.377 . S
C2524 C2522 1.389 . S
C2524 C2525 1.524 . S
C2524 C2538 1.377 . S
C2525 C2524 1.524 . S
C2525 C2526 1.397 . S
C2525 C2530 1.363 . S
C2526 H2503 0.950 . S
C2526 C2525 1.397 . S
C2526 C2527 1.334 . S
C2527 H2504 0.950 . S
C2527 C2526 1.334 . S
C2527 C2528 1.287 . S
C2528 C2527 1.287 . S
C2528 C2529 1.524 . S
C2528 H2547 0.913 . S
C2529 H2505 0.950 . S
C2529 C2528 1.524 . S
C2529 C2530 1.415 . S
C2530 H2506 0.950 . S
C2530 C2525 1.363 . S
C2530 C2529 1.415 . S
C2531 H2507 0.951 . S
C2531 C2532 1.366 . S
C2531 C2533 1.388 . S
C2532 C2531 1.366 . S
C2532 C2536 1.385 . S
C2533 H2508 0.951 . S
C2533 C2531 1.388 . S
C2533 C2534 1.366 . S
C2534 C2533 1.366 . S
C2534 C2535 1.414 . S
C2534 C2537 1.499 . S
C2535 H2509 0.950 . S
C2535 C2534 1.414 . S
C2535 C2536 1.374 . S
C2536 H2510 0.950 . S
C2536 C2532 1.385 . S
C2536 C2535 1.374 . S
C2537 C2534 1.499 . S
C2537 C2538 1.373 . S
C2537 C2539 1.389 . S
C2538 H2511 0.950 . S
C2538 C2524 1.377 . S
C2538 C2537 1.373 . S
C2539 C2523 1.377 . S
C2539 C2537 1.389 . S
C2539 C2540 1.524 . S
C2540 C2539 1.524 . S
C2540 C2541 1.397 . S
C2540 C2545 1.363 . S
C2541 H2512 0.950 . S
C2541 C2540 1.397 . S
C2541 C2542 1.334 . S
C2542 H2513 0.950 . S
C2542 C2541 1.334 . S
C2542 C2543 1.287 . S
C2543 C2542 1.287 . S
C2543 C2544 1.524 . S
C2543 H2546 0.999 . S
C2544 H2514 0.950 . S
C2544 C2543 1.524 . S
C2544 C2545 1.415 . S
C2545 H2515 0.950 . S
C2545 C2540 1.363 . S
C2545 C2544 1.415 . S
H2546 C2543 0.999 . S
H2547 C2528 0.913 . S
H2548 C2566 0.951 . S
H2549 C2568 0.951 . S
H2550 C2570 0.950 . S
H2551 C2571 0.950 . S
H2552 C2573 0.950 . S
H2553 C2576 0.950 . S
H2554 C2577 0.950 . S
H2555 C2579 0.950 . S
H2556 C2580 0.950 . S
H2557 C2581 0.951 . S
H2558 C2583 0.951 . S
H2559 C2585 0.950 . S
H2560 C2586 0.950 . S
H2561 C2588 0.950 . S
H2562 C2591 0.950 . S
H2563 C2592 0.950 . S
H2564 C2594 0.950 . S
H2565 C2595 0.950 . S
C2566 H2548 0.951 . S
C2566 C2567 1.366 . S
C2566 C2568 1.388 . S
C2567 C2566 1.366 . S
C2567 C2571 1.385 . S
C2568 H2549 0.951 . S
C2568 C2566 1.388 . S
C2568 C2569 1.366 . S
C2569 C2568 1.366 . S
C2569 C2570 1.414 . S
C2569 C2572 1.499 . S
C2570 H2550 0.950 . S
C2570 C2569 1.414 . S
C2570 C2571 1.374 . S
C2571 H2551 0.950 . S
C2571 C2567 1.385 . S
C2571 C2570 1.374 . S
C2572 C2569 1.499 . S
C2572 C2573 1.373 . S
C2572 C2574 1.389 . S
C2573 H2552 0.950 . S
C2573 C2572 1.373 . S
C2573 C2589 1.377 . S
C2574 C2572 1.389 . S
C2574 C2575 1.524 . S
C2574 C2588 1.377 . S
C2575 C2574 1.524 . S
C2575 C2576 1.397 . S
C2575 C2580 1.363 . S
C2576 H2553 0.950 . S
C2576 C2575 1.397 . S
C2576 C2577 1.334 . S
C2577 H2554 0.950 . S
C2577 C2576 1.334 . S
C2577 C2578 1.287 . S
C2578 C2577 1.287 . S
C2578 C2579 1.524 . S
C2578 H2597 0.913 . S
C2579 H2555 0.950 . S
C2579 C2578 1.524 . S
C2579 C2580 1.415 . S
C2580 H2556 0.950 . S
C2580 C2575 1.363 . S
C2580 C2579 1.415 . S
C2581 H2557 0.951 . S
C2581 C2582 1.366 . S
C2581 C2583 1.388 . S
C2582 C2581 1.366 . S
C2582 C2586 1.385 . S
C2583 H2558 0.951 . S
C2583 C2581 1.388 . S
C2583 C2584 1.366 . S
C2584 C2583 1.366 . S
C2584 C2585 1.414 . S
C2584 C2587 1.499 . S
C2585 H2559 0.950 . S
C2585 C2584 1.414 . S
C2585 C2586 1.374 . S
C2586 H2560 0.950 . S
C2586 C2582 1.385 . S
C2586 C2585 1.374 . S
C2587 C2584 1.499 . S
C2587 C2588 1.373 . S
C2587 C2589 1.389 . S
C2588 H2561 0.950 . S
C2588 C2574 1.377 . S
C2588 C2587 1.373 . S
C2589 C2573 1.377 . S
C2589 C2587 1.389 . S
C2589 C2590 1.524 . S
C2590 C2589 1.524 . S
C2590 C2591 1.397 . S
C2590 C2595 1.363 . S
C2591 H2562 0.950 . S
C2591 C2590 1.397 . S
C2591 C2592 1.334 . S
C2592 H2563 0.950 . S
C2592 C2591 1.334 . S
C2592 C2593 1.287 . S
C2593 C2592 1.287 . S
C2593 C2594 1.524 . S
C2593 H2596 0.999 . S
C2594 H2564 0.950 . S
C2594 C2593 1.524 . S
C2594 C2595 1.415 . S
C2595 H2565 0.950 . S
C2595 C2590 1.363 . S
C2595 C2594 1.415 . S
H2596 C2593 0.999 . S
H2597 C2578 0.913 . S
H2598 C2616 0.951 . S
H2599 C2618 0.951 . S
H2600 C2620 0.950 . S
H2601 C2621 0.950 . S
H2602 C2623 0.950 . S
H2603 C2626 0.950 . S
H2604 C2627 0.950 . S
H2605 C2629 0.950 . S
H2606 C2630 0.950 . S
H2607 C2631 0.951 . S
H2608 C2633 0.951 . S
H2609 C2635 0.950 . S
H2610 C2636 0.950 . S
H2611 C2638 0.950 . S
H2612 C2641 0.950 . S
H2613 C2642 0.950 . S
H2614 C2644 0.950 . S
H2615 C2645 0.950 . S
C2616 H2598 0.951 . S
C2616 C2617 1.366 . S
C2616 C2618 1.388 . S
C2617 C2616 1.366 . S
C2617 C2621 1.385 . S
C2618 H2599 0.951 . S
C2618 C2616 1.388 . S
C2618 C2619 1.366 . S
C2619 C2618 1.366 . S
C2619 C2620 1.414 . S
C2619 C2622 1.499 . S
C2620 H2600 0.950 . S
C2620 C2619 1.414 . S
C2620 C2621 1.374 . S
C2621 H2601 0.950 . S
C2621 C2617 1.385 . S
C2621 C2620 1.374 . S
C2622 C2619 1.499 . S
C2622 C2623 1.373 . S
C2622 C2624 1.389 . S
C2623 H2602 0.950 . S
C2623 C2622 1.373 . S
C2623 C2639 1.377 . S
C2624 C2622 1.389 . S
C2624 C2625 1.524 . S
C2624 C2638 1.377 . S
C2625 C2624 1.524 . S
C2625 C2626 1.397 . S
C2625 C2630 1.363 . S
C2626 H2603 0.950 . S
C2626 C2625 1.397 . S
C2626 C2627 1.334 . S
C2627 H2604 0.950 . S
C2627 C2626 1.334 . S
C2627 C2628 1.287 . S
C2628 C2627 1.287 . S
C2628 C2629 1.524 . S
C2628 H2647 0.913 . S
C2629 H2605 0.950 . S
C2629 C2628 1.524 . S
C2629 C2630 1.415 . S
C2630 H2606 0.950 . S
C2630 C2625 1.363 . S
C2630 C2629 1.415 . S
C2631 H2607 0.951 . S
C2631 C2632 1.366 . S
C2631 C2633 1.388 . S
C2632 C2631 1.366 . S
C2632 C2636 1.385 . S
C2633 H2608 0.951 . S
C2633 C2631 1.388 . S
C2633 C2634 1.366 . S
C2634 C2633 1.366 . S
C2634 C2635 1.414 . S
C2634 C2637 1.499 . S
C2635 H2609 0.950 . S
C2635 C2634 1.414 . S
C2635 C2636 1.374 . S
C2636 H2610 0.950 . S
C2636 C2632 1.385 . S
C2636 C2635 1.374 . S
C2637 C2634 1.499 . S
C2637 C2638 1.373 . S
C2637 C2639 1.389 . S
C2638 H2611 0.950 . S
C2638 C2624 1.377 . S
C2638 C2637 1.373 . S
C2639 C2623 1.377 . S
C2639 C2637 1.389 . S
C2639 C2640 1.524 . S
C2640 C2639 1.524 . S
C2640 C2641 1.397 . S
C2640 C2645 1.363 . S
C2641 H2612 0.950 . S
C2641 C2640 1.397 . S
C2641 C2642 1.334 . S
C2642 H2613 0.950 . S
C2642 C2641 1.334 . S
C2642 C2643 1.287 . S
C2643 C2642 1.287 . S
C2643 C2644 1.524 . S
C2643 H2646 0.999 . S
C2644 H2614 0.950 . S
C2644 C2643 1.524 . S
C2644 C2645 1.415 . S
C2645 H2615 0.950 . S
C2645 C2640 1.363 . S
C2645 C2644 1.415 . S
H2646 C2643 0.999 . S
H2647 C2628 0.913 . S
H2648 C2666 0.951 . S
H2649 C2668 0.951 . S
H2650 C2670 0.950 . S
H2651 C2671 0.950 . S
H2652 C2673 0.950 . S
H2653 C2676 0.950 . S
H2654 C2677 0.950 . S
H2655 C2679 0.950 . S
H2656 C2680 0.950 . S
H2657 C2681 0.951 . S
H2658 C2683 0.951 . S
H2659 C2685 0.950 . S
H2660 C2686 0.950 . S
H2661 C2688 0.950 . S
H2662 C2691 0.950 . S
H2663 C2692 0.950 . S
H2664 C2694 0.950 . S
H2665 C2695 0.950 . S
C2666 H2648 0.951 . S
C2666 C2667 1.366 . S
C2666 C2668 1.388 . S
C2667 C2666 1.366 . S
C2667 C2671 1.385 . S
C2668 H2649 0.951 . S
C2668 C2666 1.388 . S
C2668 C2669 1.366 . S
C2669 C2668 1.366 . S
C2669 C2670 1.414 . S
C2669 C2672 1.499 . S
C2670 H2650 0.950 . S
C2670 C2669 1.414 . S
C2670 C2671 1.374 . S
C2671 H2651 0.950 . S
C2671 C2667 1.385 . S
C2671 C2670 1.374 . S
C2672 C2669 1.499 . S
C2672 C2673 1.373 . S
C2672 C2674 1.389 . S
C2673 H2652 0.950 . S
C2673 C2672 1.373 . S
C2673 C2689 1.377 . S
C2674 C2672 1.389 . S
C2674 C2675 1.524 . S
C2674 C2688 1.377 . S
C2675 C2674 1.524 . S
C2675 C2676 1.397 . S
C2675 C2680 1.363 . S
C2676 H2653 0.950 . S
C2676 C2675 1.397 . S
C2676 C2677 1.334 . S
C2677 H2654 0.950 . S
C2677 C2676 1.334 . S
C2677 C2678 1.287 . S
C2678 C2677 1.287 . S
C2678 C2679 1.524 . S
C2678 H2697 0.913 . S
C2679 H2655 0.950 . S
C2679 C2678 1.524 . S
C2679 C2680 1.415 . S
C2680 H2656 0.950 . S
C2680 C2675 1.363 . S
C2680 C2679 1.415 . S
C2681 H2657 0.951 . S
C2681 C2682 1.366 . S
C2681 C2683 1.388 . S
C2682 C2681 1.366 . S
C2682 C2686 1.385 . S
C2683 H2658 0.951 . S
C2683 C2681 1.388 . S
C2683 C2684 1.366 . S
C2684 C2683 1.366 . S
C2684 C2685 1.414 . S
C2684 C2687 1.499 . S
C2685 H2659 0.950 . S
C2685 C2684 1.414 . S
C2685 C2686 1.374 . S
C2686 H2660 0.950 . S
C2686 C2682 1.385 . S
C2686 C2685 1.374 . S
C2687 C2684 1.499 . S
C2687 C2688 1.373 . S
C2687 C2689 1.389 . S
C2688 H2661 0.950 . S
C2688 C2674 1.377 . S
C2688 C2687 1.373 . S
C2689 C2673 1.377 . S
C2689 C2687 1.389 . S
C2689 C2690 1.524 . S
C2690 C2689 1.524 . S
C2690 C2691 1.397 . S
C2690 C2695 1.363 . S
C2691 H2662 0.950 . S
C2691 C2690 1.397 . S
C2691 C2692 1.334 . S
C2692 H2663 0.950 . S
C2692 C2691 1.334 . S
C2692 C2693 1.287 . S
C2693 C2692 1.287 . S
C2693 C2694 1.524 . S
C2693 H2696 0.999 1_655 S
C2694 H2664 0.950 . S
C2694 C2693 1.524 . S
C2694 C2695 1.415 . S
C2695 H2665 0.950 . S
C2695 C2690 1.363 . S
C2695 C2694 1.415 . S
H2696 C2693 0.999 1_455 S
H2697 C2678 0.913 . S
H2698 C2716 0.951 . S
H2699 C2718 0.951 . S
H2700 C2720 0.950 1_455 S
H2701 C2721 0.950 1_455 S
H2702 C2723 0.950 . S
H2703 C2726 0.933 1_455 S
H2704 C2727 0.950 1_455 S
H2705 C2729 0.950 . S
H2706 C2730 0.950 . S
H2707 C2731 0.951 . S
H2708 C2733 0.951 . S
H2709 C2735 0.950 . S
H2710 C2736 0.950 . S
H2711 C2738 0.950 . S
H2712 C2741 0.950 . S
H2713 C2742 0.950 . S
H2714 C2744 0.950 . S
H2715 C2745 0.950 . S
C2716 H2698 0.951 . S
C2716 C2717 1.366 . S
C2716 C2718 1.388 . S
C2717 C2716 1.366 . S
C2717 C2721 1.385 . S
C2718 H2699 0.951 . S
C2718 C2716 1.388 . S
C2718 C2719 1.366 . S
C2719 C2718 1.366 . S
C2719 C2720 1.414 . S
C2719 C2722 1.499 . S
C2720 H2700 0.950 1_655 S
C2720 C2719 1.414 . S
C2720 C2721 1.374 . S
C2721 H2701 0.950 1_655 S
C2721 C2717 1.385 . S
C2721 C2720 1.374 . S
C2722 C2719 1.499 . S
C2722 C2723 1.373 . S
C2722 C2724 1.389 . S
C2723 H2702 0.950 . S
C2723 C2722 1.373 . S
C2723 C2739 1.377 . S
C2724 C2722 1.389 . S
C2724 C2725 1.524 . S
C2724 C2738 1.377 . S
C2725 C2724 1.524 . S
C2725 C2726 1.397 . S
C2725 C2730 1.363 . S
C2726 H2703 0.933 1_655 S
C2726 C2725 1.397 . S
C2726 C2727 1.334 . S
C2727 H2704 0.950 1_655 S
C2727 C2726 1.334 . S
C2727 C2728 1.287 . S
C2728 C2727 1.287 . S
C2728 C2729 1.524 . S
C2728 H2747 0.913 . S
C2729 H2705 0.950 . S
C2729 C2728 1.524 . S
C2729 C2730 1.415 . S
C2730 H2706 0.950 . S
C2730 C2725 1.363 . S
C2730 C2729 1.415 . S
C2731 H2707 0.951 . S
C2731 C2732 1.366 . S
C2731 C2733 1.388 . S
C2732 C2731 1.366 . S
C2732 C2736 1.385 . S
C2733 H2708 0.951 . S
C2733 C2731 1.388 . S
C2733 C2734 1.366 . S
C2734 C2733 1.366 . S
C2734 C2735 1.414 . S
C2734 C2737 1.499 . S
C2735 H2709 0.950 . S
C2735 C2734 1.414 . S
C2735 C2736 1.374 . S
C2736 H2710 0.950 . S
C2736 C2732 1.385 . S
C2736 C2735 1.374 . S
C2737 C2734 1.499 . S
C2737 C2738 1.373 . S
C2737 C2739 1.389 . S
C2738 H2711 0.950 . S
C2738 C2724 1.377 . S
C2738 C2737 1.373 . S
C2739 C2723 1.377 . S
C2739 C2737 1.389 . S
C2739 C2740 1.524 . S
C2740 C2739 1.524 . S
C2740 C2741 1.397 . S
C2740 C2745 1.363 . S
C2741 H2712 0.950 . S
C2741 C2740 1.397 . S
C2741 C2742 1.334 . S
C2742 H2713 0.950 . S
C2742 C2741 1.334 . S
C2742 C2743 1.287 . S
C2743 C2742 1.287 . S
C2743 C2744 1.524 . S
C2743 H2746 0.999 . S
C2744 H2714 0.950 . S
C2744 C2743 1.524 . S
C2744 C2745 1.415 . S
C2745 H2715 0.950 . S
C2745 C2740 1.363 . S
C2745 C2744 1.415 . S
H2746 C2743 0.999 . S
H2747 C2728 0.913 . S
H2748 C2766 0.951 . S
H2749 C2768 0.951 . S
H2750 C2770 0.950 . S
H2751 C2771 0.950 . S
H2752 C2773 0.950 . S
H2753 C2776 0.950 . S
H2754 C2777 0.950 . S
H2755 C2779 0.950 . S
H2756 C2780 0.950 . S
H2757 C2781 0.951 . S
H2758 C2783 0.951 . S
H2759 C2785 0.950 . S
H2760 C2786 0.950 . S
H2761 C2788 0.950 . S
H2762 C2791 0.950 . S
H2763 C2792 0.950 . S
H2764 C2794 0.950 . S
H2765 C2795 0.950 . S
C2766 H2748 0.951 . S
C2766 C2767 1.366 . S
C2766 C2768 1.388 . S
C2767 C2766 1.366 . S
C2767 C2771 1.385 . S
C2768 H2749 0.951 . S
C2768 C2766 1.388 . S
C2768 C2769 1.366 . S
C2769 C2768 1.366 . S
C2769 C2770 1.414 . S
C2769 C2772 1.499 . S
C2770 H2750 0.950 . S
C2770 C2769 1.414 . S
C2770 C2771 1.374 . S
C2771 H2751 0.950 . S
C2771 C2767 1.385 . S
C2771 C2770 1.374 . S
C2772 C2769 1.499 . S
C2772 C2773 1.373 . S
C2772 C2774 1.389 . S
C2773 H2752 0.950 . S
C2773 C2772 1.373 . S
C2773 C2789 1.377 . S
C2774 C2772 1.389 . S
C2774 C2775 1.524 . S
C2774 C2788 1.377 . S
C2775 C2774 1.524 . S
C2775 C2776 1.397 . S
C2775 C2780 1.363 . S
C2776 H2753 0.950 . S
C2776 C2775 1.397 . S
C2776 C2777 1.334 . S
C2777 H2754 0.950 . S
C2777 C2776 1.334 . S
C2777 C2778 1.287 . S
C2778 C2777 1.287 . S
C2778 C2779 1.524 . S
C2778 H2797 0.913 . S
C2779 H2755 0.950 . S
C2779 C2778 1.524 . S
C2779 C2780 1.415 . S
C2780 H2756 0.950 . S
C2780 C2775 1.363 . S
C2780 C2779 1.415 . S
C2781 H2757 0.951 . S
C2781 C2782 1.366 . S
C2781 C2783 1.388 . S
C2782 C2781 1.366 . S
C2782 C2786 1.385 . S
C2783 H2758 0.951 . S
C2783 C2781 1.388 . S
C2783 C2784 1.366 . S
C2784 C2783 1.366 . S
C2784 C2785 1.414 . S
C2784 C2787 1.499 . S
C2785 H2759 0.950 . S
C2785 C2784 1.414 . S
C2785 C2786 1.374 . S
C2786 H2760 0.950 . S
C2786 C2782 1.385 . S
C2786 C2785 1.374 . S
C2787 C2784 1.499 . S
C2787 C2788 1.373 . S
C2787 C2789 1.389 . S
C2788 H2761 0.950 . S
C2788 C2774 1.377 . S
C2788 C2787 1.373 . S
C2789 C2773 1.377 . S
C2789 C2787 1.389 . S
C2789 C2790 1.524 . S
C2790 C2789 1.524 . S
C2790 C2791 1.397 . S
C2790 C2795 1.363 . S
C2791 H2762 0.950 . S
C2791 C2790 1.397 . S
C2791 C2792 1.334 . S
C2792 H2763 0.950 . S
C2792 C2791 1.334 . S
C2792 C2793 1.287 . S
C2793 C2792 1.287 . S
C2793 C2794 1.524 . S
C2793 H2796 0.999 . S
C2794 H2764 0.950 . S
C2794 C2793 1.524 . S
C2794 C2795 1.415 . S
C2795 H2765 0.950 . S
C2795 C2790 1.363 . S
C2795 C2794 1.415 . S
H2796 C2793 0.999 . S
H2797 C2778 0.913 . S
H2798 C2816 0.951 . S
H2799 C2818 0.951 . S
H2800 C2820 0.950 . S
H2801 C2821 0.950 . S
H2802 C2823 0.950 . S
H2803 C2826 0.950 . S
H2804 C2827 0.950 . S
H2805 C2829 0.950 . S
H2806 C2830 0.950 . S
H2807 C2831 0.951 . S
H2808 C2833 0.951 . S
H2809 C2835 0.950 . S
H2810 C2836 0.950 . S
H2811 C2838 0.950 . S
H2812 C2841 0.950 . S
H2813 C2842 0.950 . S
H2814 C2844 0.950 . S
H2815 C2845 0.950 . S
C2816 H2798 0.951 . S
C2816 C2817 1.366 . S
C2816 C2818 1.388 . S
C2817 C2816 1.366 . S
C2817 C2821 1.385 . S
C2818 H2799 0.951 . S
C2818 C2816 1.388 . S
C2818 C2819 1.366 . S
C2819 C2818 1.366 . S
C2819 C2820 1.414 . S
C2819 C2822 1.499 . S
C2820 H2800 0.950 . S
C2820 C2819 1.414 . S
C2820 C2821 1.374 . S
C2821 H2801 0.950 . S
C2821 C2817 1.385 . S
C2821 C2820 1.374 . S
C2822 C2819 1.499 . S
C2822 C2823 1.373 . S
C2822 C2824 1.389 . S
C2823 H2802 0.950 . S
C2823 C2822 1.373 . S
C2823 C2839 1.377 . S
C2824 C2822 1.389 . S
C2824 C2825 1.524 . S
C2824 C2838 1.377 . S
C2825 C2824 1.524 . S
C2825 C2826 1.397 . S
C2825 C2830 1.363 . S
C2826 H2803 0.950 . S
C2826 C2825 1.397 . S
C2826 C2827 1.334 . S
C2827 H2804 0.950 . S
C2827 C2826 1.334 . S
C2827 C2828 1.287 . S
C2828 C2827 1.287 . S
C2828 C2829 1.524 . S
C2828 H2847 0.913 . S
C2829 H2805 0.950 . S
C2829 C2828 1.524 . S
C2829 C2830 1.415 . S
C2830 H2806 0.950 . S
C2830 C2825 1.363 . S
C2830 C2829 1.415 . S
C2831 H2807 0.951 . S
C2831 C2832 1.366 . S
C2831 C2833 1.388 . S
C2832 C2831 1.366 . S
C2832 C2836 1.385 . S
C2833 H2808 0.951 . S
C2833 C2831 1.388 . S
C2833 C2834 1.366 . S
C2834 C2833 1.366 . S
C2834 C2835 1.414 . S
C2834 C2837 1.499 . S
C2835 H2809 0.950 . S
C2835 C2834 1.414 . S
C2835 C2836 1.374 . S
C2836 H2810 0.950 . S
C2836 C2832 1.385 . S
C2836 C2835 1.374 . S
C2837 C2834 1.499 . S
C2837 C2838 1.373 . S
C2837 C2839 1.389 . S
C2838 H2811 0.950 . S
C2838 C2824 1.377 . S
C2838 C2837 1.373 . S
C2839 C2823 1.377 . S
C2839 C2837 1.389 . S
C2839 C2840 1.524 . S
C2840 C2839 1.524 . S
C2840 C2841 1.397 . S
C2840 C2845 1.363 . S
C2841 H2812 0.950 . S
C2841 C2840 1.397 . S
C2841 C2842 1.334 . S
C2842 H2813 0.950 . S
C2842 C2841 1.334 . S
C2842 C2843 1.287 . S
C2843 C2842 1.287 . S
C2843 C2844 1.524 . S
C2843 H2846 0.999 . S
C2844 H2814 0.950 . S
C2844 C2843 1.524 . S
C2844 C2845 1.415 . S
C2845 H2815 0.950 . S
C2845 C2840 1.363 . S
C2845 C2844 1.415 . S
H2846 C2843 0.999 . S
H2847 C2828 0.913 . S
H2848 C2866 0.951 . S
H2849 C2868 0.951 . S
H2850 C2870 0.950 . S
H2851 C2871 0.950 . S
H2852 C2873 0.950 . S
H2853 C2876 0.950 . S
H2854 C2877 0.950 . S
H2855 C2879 0.950 . S
H2856 C2880 0.950 . S
H2857 C2881 0.951 . S
H2858 C2883 0.951 . S
H2859 C2885 0.950 . S
H2860 C2886 0.950 . S
H2861 C2888 0.950 . S
H2862 C2891 0.950 . S
H2863 C2892 0.950 . S
H2864 C2894 0.950 . S
H2865 C2895 0.950 . S
C2866 H2848 0.951 . S
C2866 C2867 1.366 . S
C2866 C2868 1.388 . S
C2867 C2866 1.366 . S
C2867 C2871 1.385 . S
C2868 H2849 0.951 . S
C2868 C2866 1.388 . S
C2868 C2869 1.366 . S
C2869 C2868 1.366 . S
C2869 C2870 1.414 . S
C2869 C2872 1.499 . S
C2870 H2850 0.950 . S
C2870 C2869 1.414 . S
C2870 C2871 1.374 . S
C2871 H2851 0.950 . S
C2871 C2867 1.385 . S
C2871 C2870 1.374 . S
C2872 C2869 1.499 . S
C2872 C2873 1.373 . S
C2872 C2874 1.389 . S
C2873 H2852 0.950 . S
C2873 C2872 1.373 . S
C2873 C2889 1.377 . S
C2874 C2872 1.389 . S
C2874 C2875 1.524 . S
C2874 C2888 1.377 . S
C2875 C2874 1.524 . S
C2875 C2876 1.397 . S
C2875 C2880 1.363 . S
C2876 H2853 0.950 . S
C2876 C2875 1.397 . S
C2876 C2877 1.334 . S
C2877 H2854 0.950 . S
C2877 C2876 1.334 . S
C2877 C2878 1.287 . S
C2878 C2877 1.287 . S
C2878 C2879 1.524 . S
C2878 H2897 0.913 . S
C2879 H2855 0.950 . S
C2879 C2878 1.524 . S
C2879 C2880 1.415 . S
C2880 H2856 0.950 . S
C2880 C2875 1.363 . S
C2880 C2879 1.415 . S
C2881 H2857 0.951 . S
C2881 C2882 1.366 . S
C2881 C2883 1.388 . S
C2882 C2881 1.366 . S
C2882 C2886 1.385 . S
C2883 H2858 0.951 . S
C2883 C2881 1.388 . S
C2883 C2884 1.366 . S
C2884 C2883 1.366 . S
C2884 C2885 1.414 . S
C2884 C2887 1.499 . S
C2885 H2859 0.950 . S
C2885 C2884 1.414 . S
C2885 C2886 1.374 . S
C2886 H2860 0.950 . S
C2886 C2882 1.385 . S
C2886 C2885 1.374 . S
C2887 C2884 1.499 . S
C2887 C2888 1.373 . S
C2887 C2889 1.389 . S
C2888 H2861 0.950 . S
C2888 C2874 1.377 . S
C2888 C2887 1.373 . S
C2889 C2873 1.377 . S
C2889 C2887 1.389 . S
C2889 C2890 1.524 . S
C2890 C2889 1.524 . S
C2890 C2891 1.397 . S
C2890 C2895 1.363 . S
C2891 H2862 0.950 . S
C2891 C2890 1.397 . S
C2891 C2892 1.334 . S
C2892 H2863 0.950 . S
C2892 C2891 1.334 . S
C2892 C2893 1.287 . S
C2893 C2892 1.287 . S
C2893 C2894 1.524 . S
C2893 H2896 0.999 . S
C2894 H2864 0.950 . S
C2894 C2893 1.524 . S
C2894 C2895 1.415 . S
C2895 H2865 0.950 . S
C2895 C2890 1.363 . S
C2895 C2894 1.415 . S
H2896 C2893 0.999 . S
H2897 C2878 0.913 . S
H2898 C2916 0.951 . S
H2899 C2918 0.951 . S
H2900 C2920 0.950 . S
H2901 C2921 0.950 . S
H2902 C2923 0.950 . S
H2903 C2926 0.950 . S
H2904 C2927 0.950 . S
H2905 C2929 0.950 . S
H2906 C2930 0.950 . S
H2907 C2931 0.951 . S
H2908 C2933 0.951 . S
H2909 C2935 0.950 . S
H2910 C2936 0.950 . S
H2911 C2938 0.950 . S
H2912 C2941 0.950 . S
H2913 C2942 0.950 . S
H2914 C2944 0.950 . S
H2915 C2945 0.950 . S
C2916 H2898 0.951 . S
C2916 C2917 1.366 . S
C2916 C2918 1.388 . S
C2917 C2916 1.366 . S
C2917 C2921 1.385 . S
C2918 H2899 0.951 . S
C2918 C2916 1.388 . S
C2918 C2919 1.366 . S
C2919 C2918 1.366 . S
C2919 C2920 1.414 . S
C2919 C2922 1.499 . S
C2920 H2900 0.950 . S
C2920 C2919 1.414 . S
C2920 C2921 1.374 . S
C2921 H2901 0.950 . S
C2921 C2917 1.385 . S
C2921 C2920 1.374 . S
C2922 C2919 1.499 . S
C2922 C2923 1.373 . S
C2922 C2924 1.389 . S
C2923 H2902 0.950 . S
C2923 C2922 1.373 . S
C2923 C2939 1.377 . S
C2924 C2922 1.389 . S
C2924 C2925 1.524 . S
C2924 C2938 1.377 . S
C2925 C2924 1.524 . S
C2925 C2926 1.397 . S
C2925 C2930 1.363 . S
C2926 H2903 0.950 . S
C2926 C2925 1.397 . S
C2926 C2927 1.334 . S
C2927 H2904 0.950 . S
C2927 C2926 1.334 . S
C2927 C2928 1.287 . S
C2928 C2927 1.287 . S
C2928 C2929 1.524 . S
C2928 H2947 0.913 . S
C2929 H2905 0.950 . S
C2929 C2928 1.524 . S
C2929 C2930 1.415 . S
C2930 H2906 0.950 . S
C2930 C2925 1.363 . S
C2930 C2929 1.415 . S
C2931 H2907 0.951 . S
C2931 C2932 1.366 . S
C2931 C2933 1.388 . S
C2932 C2931 1.366 . S
C2932 C2936 1.385 . S
C2933 H2908 0.951 . S
C2933 C2931 1.388 . S
C2933 C2934 1.366 . S
C2934 C2933 1.366 . S
C2934 C2935 1.414 . S
C2934 C2937 1.499 . S
C2935 H2909 0.950 . S
C2935 C2934 1.414 . S
C2935 C2936 1.374 . S
C2936 H2910 0.950 . S
C2936 C2932 1.385 . S
C2936 C2935 1.374 . S
C2937 C2934 1.499 . S
C2937 C2938 1.373 . S
C2937 C2939 1.389 . S
C2938 H2911 0.950 . S
C2938 C2924 1.377 . S
C2938 C2937 1.373 . S
C2939 C2923 1.377 . S
C2939 C2937 1.389 . S
C2939 C2940 1.524 . S
C2940 C2939 1.524 . S
C2940 C2941 1.397 . S
C2940 C2945 1.363 . S
C2941 H2912 0.950 . S
C2941 C2940 1.397 . S
C2941 C2942 1.334 . S
C2942 H2913 0.950 . S
C2942 C2941 1.334 . S
C2942 C2943 1.287 . S
C2943 C2942 1.287 . S
C2943 C2944 1.524 . S
C2943 H2946 0.999 . S
C2944 H2914 0.950 . S
C2944 C2943 1.524 . S
C2944 C2945 1.415 . S
C2945 H2915 0.950 . S
C2945 C2940 1.363 . S
C2945 C2944 1.415 . S
H2946 C2943 0.999 . S
H2947 C2928 0.913 . S
H2948 C2966 0.951 . S
H2949 C2968 0.951 . S
H2950 C2970 0.950 . S
H2951 C2971 0.950 . S
H2952 C2973 0.950 . S
H2953 C2976 0.950 . S
H2954 C2977 0.950 . S
H2955 C2979 0.950 . S
H2956 C2980 0.950 . S
H2957 C2981 0.951 . S
H2958 C2983 0.951 . S
H2959 C2985 0.950 . S
H2960 C2986 0.950 . S
H2961 C2988 0.950 . S
H2962 C2991 0.950 . S
H2963 C2992 0.950 . S
H2964 C2994 0.950 . S
H2965 C2995 0.950 . S
C2966 H2948 0.951 . S
C2966 C2967 1.366 . S
C2966 C2968 1.388 . S
C2967 C2966 1.366 . S
C2967 C2971 1.385 . S
C2968 H2949 0.951 . S
C2968 C2966 1.388 . S
C2968 C2969 1.366 . S
C2969 C2968 1.366 . S
C2969 C2970 1.414 . S
C2969 C2972 1.499 . S
C2970 H2950 0.950 . S
C2970 C2969 1.414 . S
C2970 C2971 1.374 . S
C2971 H2951 0.950 . S
C2971 C2967 1.385 . S
C2971 C2970 1.374 . S
C2972 C2969 1.499 . S
C2972 C2973 1.373 . S
C2972 C2974 1.389 . S
C2973 H2952 0.950 . S
C2973 C2972 1.373 . S
C2973 C2989 1.377 . S
C2974 C2972 1.389 . S
C2974 C2975 1.524 . S
C2974 C2988 1.377 . S
C2975 C2974 1.524 . S
C2975 C2976 1.397 . S
C2975 C2980 1.363 . S
C2976 H2953 0.950 . S
C2976 C2975 1.397 . S
C2976 C2977 1.334 . S
C2977 H2954 0.950 . S
C2977 C2976 1.334 . S
C2977 C2978 1.287 . S
C2978 C2977 1.287 . S
C2978 C2979 1.524 . S
C2978 H2997 0.913 . S
C2979 H2955 0.950 . S
C2979 C2978 1.524 . S
C2979 C2980 1.415 . S
C2980 H2956 0.950 . S
C2980 C2975 1.363 . S
C2980 C2979 1.415 . S
C2981 H2957 0.951 . S
C2981 C2982 1.366 . S
C2981 C2983 1.388 . S
C2982 C2981 1.366 . S
C2982 C2986 1.385 . S
C2983 H2958 0.951 . S
C2983 C2981 1.388 . S
C2983 C2984 1.366 . S
C2984 C2983 1.366 . S
C2984 C2985 1.414 . S
C2984 C2987 1.499 . S
C2985 H2959 0.950 . S
C2985 C2984 1.414 . S
C2985 C2986 1.374 . S
C2986 H2960 0.950 . S
C2986 C2982 1.385 . S
C2986 C2985 1.374 . S
C2987 C2984 1.499 . S
C2987 C2988 1.373 . S
C2987 C2989 1.389 . S
C2988 H2961 0.950 . S
C2988 C2974 1.377 . S
C2988 C2987 1.373 . S
C2989 C2973 1.377 . S
C2989 C2987 1.389 . S
C2989 C2990 1.524 . S
C2990 C2989 1.524 . S
C2990 C2991 1.397 . S
C2990 C2995 1.363 . S
C2991 H2962 0.950 . S
C2991 C2990 1.397 . S
C2991 C2992 1.334 . S
C2992 H2963 0.950 . S
C2992 C2991 1.334 . S
C2992 C2993 1.287 . S
C2993 C2992 1.287 . S
C2993 C2994 1.524 . S
C2993 H2996 0.999 . S
C2994 H2964 0.950 . S
C2994 C2993 1.524 . S
C2994 C2995 1.415 . S
C2995 H2965 0.950 . S
C2995 C2990 1.363 . S
C2995 C2994 1.415 . S
H2996 C2993 0.999 . S
H2997 C2978 0.913 . S
H2998 C3016 0.951 . S
H2999 C3018 0.951 . S
H3000 C3020 0.950 . S
H3001 C3021 0.950 . S
H3002 C3023 0.918 1_655 S
H3003 C3026 0.950 . S
H3004 C3027 0.950 . S
H3005 C3029 0.950 . S
H3006 C3030 0.950 . S
H3007 C3031 0.951 . S
H3008 C3033 0.951 . S
H3009 C3035 0.950 . S
H3010 C3036 0.950 . S
H3011 C3038 0.950 . S
H3012 C3041 0.950 1_455 S
H3013 C3042 0.950 . S
H3014 C3044 0.950 . S
H3015 C3045 0.950 . S
C3016 H2998 0.951 . S
C3016 C3017 1.366 . S
C3016 C3018 1.388 . S
C3017 C3016 1.366 . S
C3017 C3021 1.385 . S
C3018 H2999 0.951 . S
C3018 C3016 1.388 . S
C3018 C3019 1.366 . S
C3019 C3018 1.366 . S
C3019 C3020 1.414 . S
C3019 C3022 1.499 . S
C3020 H3000 0.950 . S
C3020 C3019 1.414 . S
C3020 C3021 1.374 . S
C3021 H3001 0.950 . S
C3021 C3017 1.385 . S
C3021 C3020 1.374 . S
C3022 C3019 1.499 . S
C3022 C3023 1.373 . S
C3022 C3024 1.389 . S
C3023 H3002 0.918 1_455 S
C3023 C3022 1.373 . S
C3023 C3039 1.377 . S
C3024 C3022 1.389 . S
C3024 C3025 1.524 . S
C3024 C3038 1.377 . S
C3025 C3024 1.524 . S
C3025 C3026 1.397 . S
C3025 C3030 1.363 . S
C3026 H3003 0.950 . S
C3026 C3025 1.397 . S
C3026 C3027 1.334 . S
C3027 H3004 0.950 . S
C3027 C3026 1.334 . S
C3027 C3028 1.287 . S
C3028 C3027 1.287 . S
C3028 C3029 1.524 . S
C3028 H3047 0.913 . S
C3029 H3005 0.950 . S
C3029 C3028 1.524 . S
C3029 C3030 1.415 . S
C3030 H3006 0.950 . S
C3030 C3025 1.363 . S
C3030 C3029 1.415 . S
C3031 H3007 0.951 . S
C3031 C3032 1.366 . S
C3031 C3033 1.388 . S
C3032 C3031 1.366 . S
C3032 C3036 1.385 . S
C3033 H3008 0.951 . S
C3033 C3031 1.388 . S
C3033 C3034 1.366 . S
C3034 C3033 1.366 . S
C3034 C3035 1.414 . S
C3034 C3037 1.499 . S
C3035 H3009 0.950 . S
C3035 C3034 1.414 . S
C3035 C3036 1.374 . S
C3036 H3010 0.950 . S
C3036 C3032 1.385 . S
C3036 C3035 1.374 . S
C3037 C3034 1.499 . S
C3037 C3038 1.373 . S
C3037 C3039 1.389 . S
C3038 H3011 0.950 . S
C3038 C3024 1.377 . S
C3038 C3037 1.373 . S
C3039 C3023 1.377 . S
C3039 C3037 1.389 . S
C3039 C3040 1.524 1_455 S
C3040 C3039 1.524 1_655 S
C3040 C3041 1.397 . S
C3040 C3045 1.363 . S
C3041 H3012 0.950 1_655 S
C3041 C3040 1.397 . S
C3041 C3042 1.334 . S
C3042 H3013 0.950 . S
C3042 C3041 1.334 . S
C3042 C3043 1.287 . S
C3043 C3042 1.287 . S
C3043 C3044 1.524 . S
C3043 H3046 0.999 . S
C3044 H3014 0.950 . S
C3044 C3043 1.524 . S
C3044 C3045 1.415 . S
C3045 H3015 0.950 . S
C3045 C3040 1.363 . S
C3045 C3044 1.415 . S
H3046 C3043 0.999 . S
H3047 C3028 0.913 . S
H3048 C3066 0.951 . S
H3049 C3068 0.951 . S
H3050 C3070 0.950 . S
H3051 C3071 0.950 . S
H3052 C3073 0.950 . S
H3053 C3076 0.950 . S
H3054 C3077 0.950 . S
H3055 C3079 0.950 . S
H3056 C3080 0.950 . S
H3057 C3081 0.951 . S
H3058 C3083 0.951 . S
H3059 C3085 0.950 . S
H3060 C3086 0.950 . S
H3061 C3088 0.950 . S
H3062 C3091 0.950 . S
H3063 C3092 0.950 . S
H3064 C3094 0.950 . S
H3065 C3095 0.950 . S
C3066 H3048 0.951 . S
C3066 C3067 1.366 . S
C3066 C3068 1.388 . S
C3067 C3066 1.366 . S
C3067 C3071 1.385 . S
C3068 H3049 0.951 . S
C3068 C3066 1.388 . S
C3068 C3069 1.366 . S
C3069 C3068 1.366 . S
C3069 C3070 1.414 . S
C3069 C3072 1.499 . S
C3070 H3050 0.950 . S
C3070 C3069 1.414 . S
C3070 C3071 1.374 . S
C3071 H3051 0.950 . S
C3071 C3067 1.385 . S
C3071 C3070 1.374 . S
C3072 C3069 1.499 . S
C3072 C3073 1.373 . S
C3072 C3074 1.389 . S
C3073 H3052 0.950 . S
C3073 C3072 1.373 . S
C3073 C3089 1.377 . S
C3074 C3072 1.389 . S
C3074 C3075 1.524 . S
C3074 C3088 1.377 . S
C3075 C3074 1.524 . S
C3075 C3076 1.397 . S
C3075 C3080 1.363 . S
C3076 H3053 0.950 . S
C3076 C3075 1.397 . S
C3076 C3077 1.334 . S
C3077 H3054 0.950 . S
C3077 C3076 1.334 . S
C3077 C3078 1.287 . S
C3078 C3077 1.287 . S
C3078 C3079 1.524 . S
C3078 H3097 0.913 . S
C3079 H3055 0.950 . S
C3079 C3078 1.524 . S
C3079 C3080 1.415 . S
C3080 H3056 0.950 . S
C3080 C3075 1.363 . S
C3080 C3079 1.415 . S
C3081 H3057 0.951 . S
C3081 C3082 1.366 . S
C3081 C3083 1.388 . S
C3082 C3081 1.366 . S
C3082 C3086 1.385 . S
C3083 H3058 0.951 . S
C3083 C3081 1.388 . S
C3083 C3084 1.366 . S
C3084 C3083 1.366 . S
C3084 C3085 1.414 . S
C3084 C3087 1.499 . S
C3085 H3059 0.950 . S
C3085 C3084 1.414 . S
C3085 C3086 1.374 . S
C3086 H3060 0.950 . S
C3086 C3082 1.385 . S
C3086 C3085 1.374 . S
C3087 C3084 1.499 . S
C3087 C3088 1.373 . S
C3087 C3089 1.389 . S
C3088 H3061 0.950 . S
C3088 C3074 1.377 . S
C3088 C3087 1.373 . S
C3089 C3073 1.377 . S
C3089 C3087 1.389 . S
C3089 C3090 1.524 . S
C3090 C3089 1.524 . S
C3090 C3091 1.397 . S
C3090 C3095 1.363 . S
C3091 H3062 0.950 . S
C3091 C3090 1.397 . S
C3091 C3092 1.334 . S
C3092 H3063 0.950 . S
C3092 C3091 1.334 . S
C3092 C3093 1.287 . S
C3093 C3092 1.287 . S
C3093 C3094 1.524 . S
C3093 H3096 0.999 . S
C3094 H3064 0.950 . S
C3094 C3093 1.524 . S
C3094 C3095 1.415 . S
C3095 H3065 0.950 . S
C3095 C3090 1.363 . S
C3095 C3094 1.415 . S
H3096 C3093 0.999 . S
H3097 C3078 0.913 . S
H3098 C3116 0.951 . S
H3099 C3118 0.951 . S
H3100 C3120 0.950 . S
H3101 C3121 0.950 . S
H3102 C3123 0.950 . S
H3103 C3126 0.950 . S
H3104 C3127 0.950 . S
H3105 C3129 0.950 . S
H3106 C3130 0.950 . S
H3107 C3131 0.951 . S
H3108 C3133 0.951 . S
H3109 C3135 0.950 . S
H3110 C3136 0.950 . S
H3111 C3138 0.950 . S
H3112 C3141 0.950 . S
H3113 C3142 0.950 . S
H3114 C3144 0.950 . S
H3115 C3145 0.950 . S
C3116 H3098 0.951 . S
C3116 C3117 1.366 . S
C3116 C3118 1.388 . S
C3117 C3116 1.366 . S
C3117 C3121 1.385 . S
C3118 H3099 0.951 . S
C3118 C3116 1.388 . S
C3118 C3119 1.366 . S
C3119 C3118 1.366 . S
C3119 C3120 1.414 . S
C3119 C3122 1.499 . S
C3120 H3100 0.950 . S
C3120 C3119 1.414 . S
C3120 C3121 1.374 . S
C3121 H3101 0.950 . S
C3121 C3117 1.385 . S
C3121 C3120 1.374 . S
C3122 C3119 1.499 . S
C3122 C3123 1.373 . S
C3122 C3124 1.389 . S
C3123 H3102 0.950 . S
C3123 C3122 1.373 . S
C3123 C3139 1.377 . S
C3124 C3122 1.389 . S
C3124 C3125 1.524 . S
C3124 C3138 1.377 . S
C3125 C3124 1.524 . S
C3125 C3126 1.397 . S
C3125 C3130 1.363 . S
C3126 H3103 0.950 . S
C3126 C3125 1.397 . S
C3126 C3127 1.334 . S
C3127 H3104 0.950 . S
C3127 C3126 1.334 . S
C3127 C3128 1.287 . S
C3128 C3127 1.287 . S
C3128 C3129 1.524 . S
C3128 H3147 0.913 . S
C3129 H3105 0.950 . S
C3129 C3128 1.524 . S
C3129 C3130 1.415 . S
C3130 H3106 0.950 . S
C3130 C3125 1.363 . S
C3130 C3129 1.415 . S
C3131 H3107 0.951 . S
C3131 C3132 1.366 . S
C3131 C3133 1.388 . S
C3132 C3131 1.366 . S
C3132 C3136 1.385 . S
C3133 H3108 0.951 . S
C3133 C3131 1.388 . S
C3133 C3134 1.366 . S
C3134 C3133 1.366 . S
C3134 C3135 1.414 . S
C3134 C3137 1.499 . S
C3135 H3109 0.950 . S
C3135 C3134 1.414 . S
C3135 C3136 1.374 . S
C3136 H3110 0.950 . S
C3136 C3132 1.385 . S
C3136 C3135 1.374 . S
C3137 C3134 1.499 . S
C3137 C3138 1.373 . S
C3137 C3139 1.389 . S
C3138 H3111 0.950 . S
C3138 C3124 1.377 . S
C3138 C3137 1.373 . S
C3139 C3123 1.377 . S
C3139 C3137 1.389 . S
C3139 C3140 1.524 . S
C3140 C3139 1.524 . S
C3140 C3141 1.397 . S
C3140 C3145 1.363 . S
C3141 H3112 0.950 . S
C3141 C3140 1.397 . S
C3141 C3142 1.334 . S
C3142 H3113 0.950 . S
C3142 C3141 1.334 . S
C3142 C3143 1.287 . S
C3143 C3142 1.287 . S
C3143 C3144 1.524 . S
C3143 H3146 0.999 . S
C3144 H3114 0.950 . S
C3144 C3143 1.524 . S
C3144 C3145 1.415 . S
C3145 H3115 0.950 . S
C3145 C3140 1.363 . S
C3145 C3144 1.415 . S
H3146 C3143 0.999 . S
H3147 C3128 0.913 . S
H3148 C3166 0.951 . S
H3149 C3168 0.951 . S
H3150 C3170 0.950 . S
H3151 C3171 0.950 . S
H3152 C3173 0.950 . S
H3153 C3176 0.950 . S
H3154 C3177 0.950 . S
H3155 C3179 0.950 . S
H3156 C3180 0.950 . S
H3157 C3181 0.951 . S
H3158 C3183 0.951 . S
H3159 C3185 0.950 . S
H3160 C3186 0.950 . S
H3161 C3188 0.950 . S
H3162 C3191 0.950 . S
H3163 C3192 0.950 . S
H3164 C3194 0.950 . S
H3165 C3195 0.950 . S
C3166 H3148 0.951 . S
C3166 C3167 1.366 . S
C3166 C3168 1.388 . S
C3167 C3166 1.366 . S
C3167 C3171 1.385 . S
C3168 H3149 0.951 . S
C3168 C3166 1.388 . S
C3168 C3169 1.366 . S
C3169 C3168 1.366 . S
C3169 C3170 1.414 . S
C3169 C3172 1.499 . S
C3170 H3150 0.950 . S
C3170 C3169 1.414 . S
C3170 C3171 1.374 . S
C3171 H3151 0.950 . S
C3171 C3167 1.385 . S
C3171 C3170 1.374 . S
C3172 C3169 1.499 . S
C3172 C3173 1.373 . S
C3172 C3174 1.389 . S
C3173 H3152 0.950 . S
C3173 C3172 1.373 . S
C3173 C3189 1.377 . S
C3174 C3172 1.389 . S
C3174 C3175 1.524 . S
C3174 C3188 1.377 . S
C3175 C3174 1.524 . S
C3175 C3176 1.397 . S
C3175 C3180 1.363 . S
C3176 H3153 0.950 . S
C3176 C3175 1.397 . S
C3176 C3177 1.334 . S
C3177 H3154 0.950 . S
C3177 C3176 1.334 . S
C3177 C3178 1.287 . S
C3178 C3177 1.287 . S
C3178 C3179 1.524 . S
C3178 H3197 0.913 . S
C3179 H3155 0.950 . S
C3179 C3178 1.524 . S
C3179 C3180 1.415 . S
C3180 H3156 0.950 . S
C3180 C3175 1.363 . S
C3180 C3179 1.415 . S
C3181 H3157 0.951 . S
C3181 C3182 1.366 . S
C3181 C3183 1.388 . S
C3182 C3181 1.366 . S
C3182 C3186 1.385 . S
C3183 H3158 0.951 . S
C3183 C3181 1.388 . S
C3183 C3184 1.366 . S
C3184 C3183 1.366 . S
C3184 C3185 1.414 . S
C3184 C3187 1.499 . S
C3185 H3159 0.950 . S
C3185 C3184 1.414 . S
C3185 C3186 1.374 . S
C3186 H3160 0.950 . S
C3186 C3182 1.385 . S
C3186 C3185 1.374 . S
C3187 C3184 1.499 . S
C3187 C3188 1.373 . S
C3187 C3189 1.389 . S
C3188 H3161 0.950 . S
C3188 C3174 1.377 . S
C3188 C3187 1.373 . S
C3189 C3173 1.377 . S
C3189 C3187 1.389 . S
C3189 C3190 1.524 . S
C3190 C3189 1.524 . S
C3190 C3191 1.397 . S
C3190 C3195 1.363 . S
C3191 H3162 0.950 . S
C3191 C3190 1.397 . S
C3191 C3192 1.334 . S
C3192 H3163 0.950 . S
C3192 C3191 1.334 . S
C3192 C3193 1.287 . S
C3193 C3192 1.287 . S
C3193 C3194 1.524 . S
C3193 H3196 0.999 . S
C3194 H3164 0.950 . S
C3194 C3193 1.524 . S
C3194 C3195 1.415 . S
C3195 H3165 0.950 . S
C3195 C3190 1.363 . S
C3195 C3194 1.415 . S
H3196 C3193 0.999 . S
H3197 C3178 0.913 . S
H3198 C3216 0.951 . S
H3199 C3218 0.951 . S
H3200 C3220 0.950 . S
H3201 C3221 0.950 . S
H3202 C3223 0.950 . S
H3203 C3226 0.950 . S
H3204 C3227 0.950 . S
H3205 C3229 0.950 . S
H3206 C3230 0.950 . S
H3207 C3231 0.951 . S
H3208 C3233 0.951 . S
H3209 C3235 0.950 . S
H3210 C3236 0.950 . S
H3211 C3238 0.950 . S
H3212 C3241 0.950 . S
H3213 C3242 0.950 . S
H3214 C3244 0.954 . S
H3215 C3245 0.950 . S
C3216 H3198 0.951 . S
C3216 C3217 1.366 . S
C3216 C3218 1.388 . S
C3217 C3216 1.366 . S
C3217 C3221 1.385 . S
C3218 H3199 0.951 . S
C3218 C3216 1.388 . S
C3218 C3219 1.366 . S
C3219 C3218 1.366 . S
C3219 C3220 1.414 . S
C3219 C3222 1.499 . S
C3220 H3200 0.950 . S
C3220 C3219 1.414 . S
C3220 C3221 1.374 . S
C3221 H3201 0.950 . S
C3221 C3217 1.385 . S
C3221 C3220 1.374 . S
C3222 C3219 1.499 . S
C3222 C3223 1.373 . S
C3222 C3224 1.389 . S
C3223 H3202 0.950 . S
C3223 C3222 1.373 . S
C3223 C3239 1.377 . S
C3224 C3222 1.389 . S
C3224 C3225 1.524 . S
C3224 C3238 1.377 . S
C3225 C3224 1.524 . S
C3225 C3226 1.397 . S
C3225 C3230 1.363 . S
C3226 H3203 0.950 . S
C3226 C3225 1.397 . S
C3226 C3227 1.334 . S
C3227 H3204 0.950 . S
C3227 C3226 1.334 . S
C3227 C3228 1.287 . S
C3228 C3227 1.287 . S
C3228 C3229 1.524 . S
C3228 H3247 0.913 . S
C3229 H3205 0.950 . S
C3229 C3228 1.524 . S
C3229 C3230 1.415 . S
C3230 H3206 0.950 . S
C3230 C3225 1.363 . S
C3230 C3229 1.415 . S
C3231 H3207 0.951 . S
C3231 C3232 1.366 . S
C3231 C3233 1.388 . S
C3232 C3231 1.366 . S
C3232 C3236 1.385 . S
C3233 H3208 0.951 . S
C3233 C3231 1.388 . S
C3233 C3234 1.366 . S
C3234 C3233 1.366 . S
C3234 C3235 1.414 . S
C3234 C3237 1.499 . S
C3235 H3209 0.950 . S
C3235 C3234 1.414 . S
C3235 C3236 1.374 . S
C3236 H3210 0.950 . S
C3236 C3232 1.385 . S
C3236 C3235 1.374 . S
C3237 C3234 1.499 . S
C3237 C3238 1.373 . S
C3237 C3239 1.389 . S
C3238 H3211 0.950 . S
C3238 C3224 1.377 . S
C3238 C3237 1.373 . S
C3239 C3223 1.377 . S
C3239 C3237 1.389 . S
C3239 C3240 1.524 . S
C3240 C3239 1.524 . S
C3240 C3241 1.397 1_655 S
C3240 C3245 1.363 . S
C3241 H3212 0.950 . S
C3241 C3240 1.397 1_455 S
C3241 C3242 1.334 . S
C3242 H3213 0.950 . S
C3242 C3241 1.334 . S
C3242 C3243 1.287 . S
C3243 C3242 1.287 . S
C3243 C3244 1.524 . S
C3243 H3246 0.999 . S
C3244 H3214 0.954 . S
C3244 C3243 1.524 . S
C3244 C3245 1.415 1_455 S
C3245 H3215 0.950 . S
C3245 C3240 1.363 . S
C3245 C3244 1.415 1_655 S
H3246 C3243 0.999 . S
H3247 C3228 0.913 . S
H3248 C3266 0.951 . S
H3249 C3268 0.951 . S
H3250 C3270 0.950 . S
H3251 C3271 0.950 . S
H3252 C3273 0.950 . S
H3253 C3276 0.950 . S
H3254 C3277 0.950 . S
H3255 C3279 0.950 . S
H3256 C3280 0.950 . S
H3257 C3281 0.951 . S
H3258 C3283 0.951 . S
H3259 C3285 0.950 . S
H3260 C3286 0.950 . S
H3261 C3288 0.950 . S
H3262 C3291 0.950 . S
H3263 C3292 0.950 . S
H3264 C3294 0.950 . S
H3265 C3295 0.950 . S
C3266 H3248 0.951 . S
C3266 C3267 1.366 . S
C3266 C3268 1.388 . S
C3267 C3266 1.366 . S
C3267 C3271 1.385 . S
C3268 H3249 0.951 . S
C3268 C3266 1.388 . S
C3268 C3269 1.366 . S
C3269 C3268 1.366 . S
C3269 C3270 1.414 . S
C3269 C3272 1.499 . S
C3270 H3250 0.950 . S
C3270 C3269 1.414 . S
C3270 C3271 1.374 . S
C3271 H3251 0.950 . S
C3271 C3267 1.385 . S
C3271 C3270 1.374 . S
C3272 C3269 1.499 . S
C3272 C3273 1.373 . S
C3272 C3274 1.389 . S
C3273 H3252 0.950 . S
C3273 C3272 1.373 . S
C3273 C3289 1.377 . S
C3274 C3272 1.389 . S
C3274 C3275 1.524 . S
C3274 C3288 1.377 . S
C3275 C3274 1.524 . S
C3275 C3276 1.397 . S
C3275 C3280 1.363 . S
C3276 H3253 0.950 . S
C3276 C3275 1.397 . S
C3276 C3277 1.334 . S
C3277 H3254 0.950 . S
C3277 C3276 1.334 . S
C3277 C3278 1.287 . S
C3278 C3277 1.287 . S
C3278 C3279 1.524 . S
C3278 H3297 0.913 . S
C3279 H3255 0.950 . S
C3279 C3278 1.524 . S
C3279 C3280 1.415 . S
C3280 H3256 0.950 . S
C3280 C3275 1.363 . S
C3280 C3279 1.415 . S
C3281 H3257 0.951 . S
C3281 C3282 1.366 . S
C3281 C3283 1.388 . S
C3282 C3281 1.366 . S
C3282 C3286 1.385 . S
C3283 H3258 0.951 . S
C3283 C3281 1.388 . S
C3283 C3284 1.366 . S
C3284 C3283 1.366 . S
C3284 C3285 1.414 . S
C3284 C3287 1.499 . S
C3285 H3259 0.950 . S
C3285 C3284 1.414 . S
C3285 C3286 1.374 . S
C3286 H3260 0.950 . S
C3286 C3282 1.385 . S
C3286 C3285 1.374 . S
C3287 C3284 1.499 . S
C3287 C3288 1.373 . S
C3287 C3289 1.389 . S
C3288 H3261 0.950 . S
C3288 C3274 1.377 . S
C3288 C3287 1.373 . S
C3289 C3273 1.377 . S
C3289 C3287 1.389 . S
C3289 C3290 1.524 . S
C3290 C3289 1.524 . S
C3290 C3291 1.397 . S
C3290 C3295 1.363 . S
C3291 H3262 0.950 . S
C3291 C3290 1.397 . S
C3291 C3292 1.334 . S
C3292 H3263 0.950 . S
C3292 C3291 1.334 . S
C3292 C3293 1.287 . S
C3293 C3292 1.287 . S
C3293 C3294 1.524 . S
C3293 H3296 0.999 . S
C3294 H3264 0.950 . S
C3294 C3293 1.524 . S
C3294 C3295 1.415 . S
C3295 H3265 0.950 . S
C3295 C3290 1.363 . S
C3295 C3294 1.415 . S
H3296 C3293 0.999 . S
H3297 C3278 0.913 . S
H3298 C3316 0.951 . S
H3299 C3318 0.951 . S
H3300 C3320 0.950 . S
H3301 C3321 0.950 . S
H3302 C3323 0.950 . S
H3303 C3326 0.950 . S
H3304 C3327 0.950 . S
H3305 C3329 0.950 . S
H3306 C3330 0.950 . S
H3307 C3331 0.951 . S
H3308 C3333 0.951 . S
H3309 C3335 0.950 . S
H3310 C3336 0.950 . S
H3311 C3338 0.950 . S
H3312 C3341 0.950 . S
H3313 C3342 0.950 . S
H3314 C3344 0.950 . S
H3315 C3345 0.950 . S
C3316 H3298 0.951 . S
C3316 C3317 1.366 . S
C3316 C3318 1.388 . S
C3317 C3316 1.366 . S
C3317 C3321 1.385 . S
C3318 H3299 0.951 . S
C3318 C3316 1.388 . S
C3318 C3319 1.366 . S
C3319 C3318 1.366 . S
C3319 C3320 1.414 . S
C3319 C3322 1.499 . S
C3320 H3300 0.950 . S
C3320 C3319 1.414 . S
C3320 C3321 1.374 . S
C3321 H3301 0.950 . S
C3321 C3317 1.385 . S
C3321 C3320 1.374 . S
C3322 C3319 1.499 . S
C3322 C3323 1.373 . S
C3322 C3324 1.389 . S
C3323 H3302 0.950 . S
C3323 C3322 1.373 . S
C3323 C3339 1.377 . S
C3324 C3322 1.389 . S
C3324 C3325 1.524 . S
C3324 C3338 1.377 . S
C3325 C3324 1.524 . S
C3325 C3326 1.397 . S
C3325 C3330 1.363 . S
C3326 H3303 0.950 . S
C3326 C3325 1.397 . S
C3326 C3327 1.334 . S
C3327 H3304 0.950 . S
C3327 C3326 1.334 . S
C3327 C3328 1.287 . S
C3328 C3327 1.287 . S
C3328 C3329 1.524 . S
C3328 H3347 0.913 . S
C3329 H3305 0.950 . S
C3329 C3328 1.524 . S
C3329 C3330 1.415 . S
C3330 H3306 0.950 . S
C3330 C3325 1.363 . S
C3330 C3329 1.415 . S
C3331 H3307 0.951 . S
C3331 C3332 1.366 . S
C3331 C3333 1.388 . S
C3332 C3331 1.366 . S
C3332 C3336 1.385 . S
C3333 H3308 0.951 . S
C3333 C3331 1.388 . S
C3333 C3334 1.366 . S
C3334 C3333 1.366 . S
C3334 C3335 1.414 . S
C3334 C3337 1.499 . S
C3335 H3309 0.950 . S
C3335 C3334 1.414 . S
C3335 C3336 1.374 . S
C3336 H3310 0.950 . S
C3336 C3332 1.385 . S
C3336 C3335 1.374 . S
C3337 C3334 1.499 . S
C3337 C3338 1.373 . S
C3337 C3339 1.389 . S
C3338 H3311 0.950 . S
C3338 C3324 1.377 . S
C3338 C3337 1.373 . S
C3339 C3323 1.377 . S
C3339 C3337 1.389 . S
C3339 C3340 1.524 . S
C3340 C3339 1.524 . S
C3340 C3341 1.397 . S
C3340 C3345 1.363 . S
C3341 H3312 0.950 . S
C3341 C3340 1.397 . S
C3341 C3342 1.334 . S
C3342 H3313 0.950 . S
C3342 C3341 1.334 . S
C3342 C3343 1.287 . S
C3343 C3342 1.287 . S
C3343 C3344 1.524 . S
C3343 H3346 0.999 . S
C3344 H3314 0.950 . S
C3344 C3343 1.524 . S
C3344 C3345 1.415 . S
C3345 H3315 0.950 . S
C3345 C3340 1.363 . S
C3345 C3344 1.415 . S
H3346 C3343 0.999 . S
H3347 C3328 0.913 . S
H3348 C3366 0.951 . S
H3349 C3368 0.951 . S
H3350 C3370 0.950 . S
H3351 C3371 0.950 . S
H3352 C3373 0.950 . S
H3353 C3376 0.950 . S
H3354 C3377 0.950 . S
H3355 C3379 0.950 . S
H3356 C3380 0.950 . S
H3357 C3381 0.951 . S
H3358 C3383 0.951 . S
H3359 C3385 0.950 . S
H3360 C3386 0.950 . S
H3361 C3388 0.950 . S
H3362 C3391 0.950 . S
H3363 C3392 0.950 . S
H3364 C3394 0.950 . S
H3365 C3395 0.950 . S
C3366 H3348 0.951 . S
C3366 C3367 1.366 . S
C3366 C3368 1.388 . S
C3367 C3366 1.366 . S
C3367 C3371 1.385 . S
C3368 H3349 0.951 . S
C3368 C3366 1.388 . S
C3368 C3369 1.366 . S
C3369 C3368 1.366 . S
C3369 C3370 1.414 . S
C3369 C3372 1.499 . S
C3370 H3350 0.950 . S
C3370 C3369 1.414 . S
C3370 C3371 1.374 . S
C3371 H3351 0.950 . S
C3371 C3367 1.385 . S
C3371 C3370 1.374 . S
C3372 C3369 1.499 . S
C3372 C3373 1.373 . S
C3372 C3374 1.389 . S
C3373 H3352 0.950 . S
C3373 C3372 1.373 . S
C3373 C3389 1.377 . S
C3374 C3372 1.389 . S
C3374 C3375 1.524 . S
C3374 C3388 1.377 . S
C3375 C3374 1.524 . S
C3375 C3376 1.397 . S
C3375 C3380 1.363 . S
C3376 H3353 0.950 . S
C3376 C3375 1.397 . S
C3376 C3377 1.334 . S
C3377 H3354 0.950 . S
C3377 C3376 1.334 . S
C3377 C3378 1.287 . S
C3378 C3377 1.287 . S
C3378 C3379 1.524 . S
C3378 H3397 0.913 . S
C3379 H3355 0.950 . S
C3379 C3378 1.524 . S
C3379 C3380 1.415 . S
C3380 H3356 0.950 . S
C3380 C3375 1.363 . S
C3380 C3379 1.415 . S
C3381 H3357 0.951 . S
C3381 C3382 1.366 . S
C3381 C3383 1.388 . S
C3382 C3381 1.366 . S
C3382 C3386 1.385 . S
C3383 H3358 0.951 . S
C3383 C3381 1.388 . S
C3383 C3384 1.366 . S
C3384 C3383 1.366 . S
C3384 C3385 1.414 . S
C3384 C3387 1.499 . S
C3385 H3359 0.950 . S
C3385 C3384 1.414 . S
C3385 C3386 1.374 . S
C3386 H3360 0.950 . S
C3386 C3382 1.385 . S
C3386 C3385 1.374 . S
C3387 C3384 1.499 . S
C3387 C3388 1.373 . S
C3387 C3389 1.389 . S
C3388 H3361 0.950 . S
C3388 C3374 1.377 . S
C3388 C3387 1.373 . S
C3389 C3373 1.377 . S
C3389 C3387 1.389 . S
C3389 C3390 1.524 . S
C3390 C3389 1.524 . S
C3390 C3391 1.397 . S
C3390 C3395 1.363 . S
C3391 H3362 0.950 . S
C3391 C3390 1.397 . S
C3391 C3392 1.334 . S
C3392 H3363 0.950 . S
C3392 C3391 1.334 . S
C3392 C3393 1.287 . S
C3393 C3392 1.287 . S
C3393 C3394 1.524 . S
C3393 H3396 0.999 . S
C3394 H3364 0.950 . S
C3394 C3393 1.524 . S
C3394 C3395 1.415 . S
C3395 H3365 0.950 . S
C3395 C3390 1.363 . S
C3395 C3394 1.415 . S
H3396 C3393 0.999 . S
H3397 C3378 0.913 . S
H3398 C3416 0.951 . S
H3399 C3418 0.951 . S
H3400 C3420 0.950 . S
H3401 C3421 0.950 . S
H3402 C3423 0.950 . S
H3403 C3426 0.950 . S
H3404 C3427 0.950 . S
H3405 C3429 0.950 . S
H3406 C3430 0.950 . S
H3407 C3431 0.951 . S
H3408 C3433 0.951 . S
H3409 C3435 0.950 . S
H3410 C3436 0.950 . S
H3411 C3438 0.950 . S
H3412 C3441 0.950 . S
H3413 C3442 0.950 . S
H3414 C3444 0.950 . S
H3415 C3445 0.950 . S
C3416 H3398 0.951 . S
C3416 C3417 1.366 . S
C3416 C3418 1.388 . S
C3417 C3416 1.366 . S
C3417 C3421 1.385 . S
C3418 H3399 0.951 . S
C3418 C3416 1.388 . S
C3418 C3419 1.366 . S
C3419 C3418 1.366 . S
C3419 C3420 1.414 . S
C3419 C3422 1.499 . S
C3420 H3400 0.950 . S
C3420 C3419 1.414 . S
C3420 C3421 1.374 . S
C3421 H3401 0.950 . S
C3421 C3417 1.385 . S
C3421 C3420 1.374 . S
C3422 C3419 1.499 . S
C3422 C3423 1.373 . S
C3422 C3424 1.389 . S
C3423 H3402 0.950 . S
C3423 C3422 1.373 . S
C3423 C3439 1.377 . S
C3424 C3422 1.389 . S
C3424 C3425 1.524 . S
C3424 C3438 1.377 . S
C3425 C3424 1.524 . S
C3425 C3426 1.397 . S
C3425 C3430 1.363 . S
C3426 H3403 0.950 . S
C3426 C3425 1.397 . S
C3426 C3427 1.334 . S
C3427 H3404 0.950 . S
C3427 C3426 1.334 . S
C3427 C3428 1.287 . S
C3428 C3427 1.287 . S
C3428 C3429 1.524 . S
C3428 H3447 0.913 . S
C3429 H3405 0.950 . S
C3429 C3428 1.524 . S
C3429 C3430 1.415 . S
C3430 H3406 0.950 . S
C3430 C3425 1.363 . S
C3430 C3429 1.415 . S
C3431 H3407 0.951 . S
C3431 C3432 1.366 . S
C3431 C3433 1.388 . S
C3432 C3431 1.366 . S
C3432 C3436 1.385 . S
C3433 H3408 0.951 . S
C3433 C3431 1.388 . S
C3433 C3434 1.366 . S
C3434 C3433 1.366 . S
C3434 C3435 1.414 . S
C3434 C3437 1.499 . S
C3435 H3409 0.950 . S
C3435 C3434 1.414 . S
C3435 C3436 1.374 . S
C3436 H3410 0.950 . S
C3436 C3432 1.385 . S
C3436 C3435 1.374 . S
C3437 C3434 1.499 . S
C3437 C3438 1.373 . S
C3437 C3439 1.389 . S
C3438 H3411 0.950 . S
C3438 C3424 1.377 . S
C3438 C3437 1.373 . S
C3439 C3423 1.377 . S
C3439 C3437 1.389 . S
C3439 C3440 1.524 . S
C3440 C3439 1.524 . S
C3440 C3441 1.397 . S
C3440 C3445 1.363 . S
C3441 H3412 0.950 . S
C3441 C3440 1.397 . S
C3441 C3442 1.334 . S
C3442 H3413 0.950 . S
C3442 C3441 1.334 . S
C3442 C3443 1.287 . S
C3443 C3442 1.287 . S
C3443 C3444 1.524 . S
C3443 H3446 0.999 . S
C3444 H3414 0.950 . S
C3444 C3443 1.524 . S
C3444 C3445 1.415 . S
C3445 H3415 0.950 . S
C3445 C3440 1.363 . S
C3445 C3444 1.415 . S
H3446 C3443 0.999 . S
H3447 C3428 0.913 . S
H3448 C3466 0.951 . S
H3449 C3468 0.951 . S
H3450 C3470 0.950 . S
H3451 C3471 0.950 . S
H3452 C3473 0.950 . S
H3453 C3476 0.950 . S
H3454 C3477 0.950 . S
H3455 C3479 0.950 . S
H3456 C3480 0.950 . S
H3457 C3481 0.951 . S
H3458 C3483 0.951 . S
H3459 C3485 0.950 . S
H3460 C3486 0.950 . S
H3461 C3488 0.950 . S
H3462 C3491 0.950 . S
H3463 C3492 0.950 . S
H3464 C3494 0.950 . S
H3465 C3495 0.950 . S
C3466 H3448 0.951 . S
C3466 C3467 1.366 . S
C3466 C3468 1.388 . S
C3467 C3466 1.366 . S
C3467 C3471 1.385 . S
C3468 H3449 0.951 . S
C3468 C3466 1.388 . S
C3468 C3469 1.366 . S
C3469 C3468 1.366 . S
C3469 C3470 1.414 . S
C3469 C3472 1.499 . S
C3470 H3450 0.950 . S
C3470 C3469 1.414 . S
C3470 C3471 1.374 . S
C3471 H3451 0.950 . S
C3471 C3467 1.385 . S
C3471 C3470 1.374 . S
C3472 C3469 1.499 . S
C3472 C3473 1.373 . S
C3472 C3474 1.389 . S
C3473 H3452 0.950 . S
C3473 C3472 1.373 . S
C3473 C3489 1.377 . S
C3474 C3472 1.389 . S
C3474 C3475 1.524 . S
C3474 C3488 1.377 . S
C3475 C3474 1.524 . S
C3475 C3476 1.397 . S
C3475 C3480 1.363 . S
C3476 H3453 0.950 . S
C3476 C3475 1.397 . S
C3476 C3477 1.334 . S
C3477 H3454 0.950 . S
C3477 C3476 1.334 . S
C3477 C3478 1.287 . S
C3478 C3477 1.287 . S
C3478 C3479 1.524 . S
C3478 H3497 0.913 . S
C3479 H3455 0.950 . S
C3479 C3478 1.524 . S
C3479 C3480 1.415 . S
C3480 H3456 0.950 . S
C3480 C3475 1.363 . S
C3480 C3479 1.415 . S
C3481 H3457 0.951 . S
C3481 C3482 1.366 . S
C3481 C3483 1.388 . S
C3482 C3481 1.366 . S
C3482 C3486 1.385 . S
C3483 H3458 0.951 . S
C3483 C3481 1.388 . S
C3483 C3484 1.366 . S
C3484 C3483 1.366 . S
C3484 C3485 1.414 . S
C3484 C3487 1.499 . S
C3485 H3459 0.950 . S
C3485 C3484 1.414 . S
C3485 C3486 1.374 . S
C3486 H3460 0.950 . S
C3486 C3482 1.385 . S
C3486 C3485 1.374 . S
C3487 C3484 1.499 . S
C3487 C3488 1.373 . S
C3487 C3489 1.389 . S
C3488 H3461 0.950 . S
C3488 C3474 1.377 . S
C3488 C3487 1.373 . S
C3489 C3473 1.377 . S
C3489 C3487 1.389 . S
C3489 C3490 1.524 . S
C3490 C3489 1.524 . S
C3490 C3491 1.397 . S
C3490 C3495 1.363 . S
C3491 H3462 0.950 . S
C3491 C3490 1.397 . S
C3491 C3492 1.334 . S
C3492 H3463 0.950 . S
C3492 C3491 1.334 . S
C3492 C3493 1.287 . S
C3493 C3492 1.287 . S
C3493 C3494 1.524 . S
C3493 H3496 0.999 . S
C3494 H3464 0.950 . S
C3494 C3493 1.524 . S
C3494 C3495 1.415 . S
C3495 H3465 0.950 . S
C3495 C3490 1.363 . S
C3495 C3494 1.415 . S
H3496 C3493 0.999 . S
H3497 C3478 0.913 . S
H3498 C3516 0.951 . S
H3499 C3518 0.951 . S
H3500 C3520 0.950 . S
H3501 C3521 0.950 . S
H3502 C3523 0.950 . S
H3503 C3526 0.950 . S
H3504 C3527 0.950 . S
H3505 C3529 0.950 . S
H3506 C3530 0.950 . S
H3507 C3531 0.951 . S
H3508 C3533 0.951 . S
H3509 C3535 0.950 . S
H3510 C3536 0.950 . S
H3511 C3538 0.950 . S
H3512 C3541 0.950 . S
H3513 C3542 0.950 . S
H3514 C3544 0.950 . S
H3515 C3545 0.950 . S
C3516 H3498 0.951 . S
C3516 C3517 1.366 . S
C3516 C3518 1.388 . S
C3517 C3516 1.366 . S
C3517 C3521 1.385 . S
C3518 H3499 0.951 . S
C3518 C3516 1.388 . S
C3518 C3519 1.366 . S
C3519 C3518 1.366 . S
C3519 C3520 1.414 . S
C3519 C3522 1.499 . S
C3520 H3500 0.950 . S
C3520 C3519 1.414 . S
C3520 C3521 1.374 . S
C3521 H3501 0.950 . S
C3521 C3517 1.385 . S
C3521 C3520 1.374 . S
C3522 C3519 1.499 . S
C3522 C3523 1.373 . S
C3522 C3524 1.389 . S
C3523 H3502 0.950 . S
C3523 C3522 1.373 . S
C3523 C3539 1.377 . S
C3524 C3522 1.389 . S
C3524 C3525 1.524 . S
C3524 C3538 1.377 . S
C3525 C3524 1.524 . S
C3525 C3526 1.397 . S
C3525 C3530 1.363 . S
C3526 H3503 0.950 . S
C3526 C3525 1.397 . S
C3526 C3527 1.334 . S
C3527 H3504 0.950 . S
C3527 C3526 1.334 . S
C3527 C3528 1.287 . S
C3528 C3527 1.287 . S
C3528 C3529 1.524 . S
C3528 H3547 0.913 . S
C3529 H3505 0.950 . S
C3529 C3528 1.524 . S
C3529 C3530 1.415 . S
C3530 H3506 0.950 . S
C3530 C3525 1.363 . S
C3530 C3529 1.415 . S
C3531 H3507 0.951 . S
C3531 C3532 1.366 . S
C3531 C3533 1.388 . S
C3532 C3531 1.366 . S
C3532 C3536 1.385 . S
C3533 H3508 0.951 . S
C3533 C3531 1.388 . S
C3533 C3534 1.366 . S
C3534 C3533 1.366 . S
C3534 C3535 1.414 . S
C3534 C3537 1.499 . S
C3535 H3509 0.950 . S
C3535 C3534 1.414 . S
C3535 C3536 1.374 . S
C3536 H3510 0.950 . S
C3536 C3532 1.385 . S
C3536 C3535 1.374 . S
C3537 C3534 1.499 . S
C3537 C3538 1.373 . S
C3537 C3539 1.389 . S
C3538 H3511 0.950 . S
C3538 C3524 1.377 . S
C3538 C3537 1.373 . S
C3539 C3523 1.377 . S
C3539 C3537 1.389 . S
C3539 C3540 1.524 . S
C3540 C3539 1.524 . S
C3540 C3541 1.397 . S
C3540 C3545 1.363 . S
C3541 H3512 0.950 . S
C3541 C3540 1.397 . S
C3541 C3542 1.334 . S
C3542 H3513 0.950 . S
C3542 C3541 1.334 . S
C3542 C3543 1.287 . S
C3543 C3542 1.287 . S
C3543 C3544 1.524 . S
C3543 H3546 0.999 . S
C3544 H3514 0.950 . S
C3544 C3543 1.524 . S
C3544 C3545 1.415 . S
C3545 H3515 0.950 . S
C3545 C3540 1.363 . S
C3545 C3544 1.415 . S
H3546 C3543 0.999 . S
H3547 C3528 0.913 . S
H3548 C3566 0.951 . S
H3549 C3568 0.951 . S
H3550 C3570 0.950 . S
H3551 C3571 0.950 . S
H3552 C3573 0.950 . S
H3553 C3576 0.950 . S
H3554 C3577 0.950 . S
H3555 C3579 0.950 . S
H3556 C3580 0.950 . S
H3557 C3581 0.951 . S
H3558 C3583 0.951 . S
H3559 C3585 0.950 . S
H3560 C3586 0.950 . S
H3561 C3588 0.950 . S
H3562 C3591 0.950 . S
H3563 C3592 0.950 . S
H3564 C3594 0.950 . S
H3565 C3595 0.950 . S
C3566 H3548 0.951 . S
C3566 C3567 1.366 . S
C3566 C3568 1.388 . S
C3567 C3566 1.366 . S
C3567 C3571 1.385 . S
C3568 H3549 0.951 . S
C3568 C3566 1.388 . S
C3568 C3569 1.366 . S
C3569 C3568 1.366 . S
C3569 C3570 1.414 . S
C3569 C3572 1.499 . S
C3570 H3550 0.950 . S
C3570 C3569 1.414 . S
C3570 C3571 1.374 . S
C3571 H3551 0.950 . S
C3571 C3567 1.385 . S
C3571 C3570 1.374 . S
C3572 C3569 1.499 . S
C3572 C3573 1.373 . S
C3572 C3574 1.389 . S
C3573 H3552 0.950 . S
C3573 C3572 1.373 . S
C3573 C3589 1.377 . S
C3574 C3572 1.389 . S
C3574 C3575 1.524 . S
C3574 C3588 1.377 . S
C3575 C3574 1.524 . S
C3575 C3576 1.397 . S
C3575 C3580 1.363 . S
C3576 H3553 0.950 . S
C3576 C3575 1.397 . S
C3576 C3577 1.334 . S
C3577 H3554 0.950 . S
C3577 C3576 1.334 . S
C3577 C3578 1.287 . S
C3578 C3577 1.287 . S
C3578 C3579 1.524 . S
C3578 H3597 0.913 . S
C3579 H3555 0.950 . S
C3579 C3578 1.524 . S
C3579 C3580 1.415 . S
C3580 H3556 0.950 . S
C3580 C3575 1.363 . S
C3580 C3579 1.415 . S
C3581 H3557 0.951 . S
C3581 C3582 1.366 . S
C3581 C3583 1.388 . S
C3582 C3581 1.366 . S
C3582 C3586 1.385 . S
C3583 H3558 0.951 . S
C3583 C3581 1.388 . S
C3583 C3584 1.366 . S
C3584 C3583 1.366 . S
C3584 C3585 1.414 . S
C3584 C3587 1.499 . S
C3585 H3559 0.950 . S
C3585 C3584 1.414 . S
C3585 C3586 1.374 . S
C3586 H3560 0.950 . S
C3586 C3582 1.385 . S
C3586 C3585 1.374 . S
C3587 C3584 1.499 . S
C3587 C3588 1.373 . S
C3587 C3589 1.389 . S
C3588 H3561 0.950 . S
C3588 C3574 1.377 . S
C3588 C3587 1.373 . S
C3589 C3573 1.377 . S
C3589 C3587 1.389 . S
C3589 C3590 1.524 . S
C3590 C3589 1.524 . S
C3590 C3591 1.397 . S
C3590 C3595 1.363 . S
C3591 H3562 0.950 . S
C3591 C3590 1.397 . S
C3591 C3592 1.334 . S
C3592 H3563 0.950 . S
C3592 C3591 1.334 . S
C3592 C3593 1.287 . S
C3593 C3592 1.287 . S
C3593 C3594 1.524 . S
C3593 H3596 0.999 . S
C3594 H3564 0.950 . S
C3594 C3593 1.524 . S
C3594 C3595 1.415 . S
C3595 H3565 0.950 . S
C3595 C3590 1.363 . S
C3595 C3594 1.415 . S
H3596 C3593 0.999 . S
H3597 C3578 0.913 . S
H3598 C3616 0.951 . S
H3599 C3618 0.951 . S
H3600 C3620 0.950 . S
H3601 C3621 0.950 . S
H3602 C3623 0.950 . S
H3603 C3626 0.950 . S
H3604 C3627 0.950 . S
H3605 C3629 0.950 . S
H3606 C3630 0.950 . S
H3607 C3631 0.951 . S
H3608 C3633 0.951 . S
H3609 C3635 0.950 . S
H3610 C3636 0.950 . S
H3611 C3638 0.950 . S
H3612 C3641 0.950 . S
H3613 C3642 0.950 . S
H3614 C3644 0.950 . S
H3615 C3645 0.950 . S
C3616 H3598 0.951 . S
C3616 C3617 1.366 . S
C3616 C3618 1.388 . S
C3617 C3616 1.366 . S
C3617 C3621 1.385 . S
C3618 H3599 0.951 . S
C3618 C3616 1.388 . S
C3618 C3619 1.366 . S
C3619 C3618 1.366 . S
C3619 C3620 1.414 . S
C3619 C3622 1.499 . S
C3620 H3600 0.950 . S
C3620 C3619 1.414 . S
C3620 C3621 1.374 . S
C3621 H3601 0.950 . S
C3621 C3617 1.385 . S
C3621 C3620 1.374 . S
C3622 C3619 1.499 . S
C3622 C3623 1.373 . S
C3622 C3624 1.389 . S
C3623 H3602 0.950 . S
C3623 C3622 1.373 . S
C3623 C3639 1.377 . S
C3624 C3622 1.389 . S
C3624 C3625 1.524 . S
C3624 C3638 1.377 . S
C3625 C3624 1.524 . S
C3625 C3626 1.397 . S
C3625 C3630 1.363 . S
C3626 H3603 0.950 . S
C3626 C3625 1.397 . S
C3626 C3627 1.334 . S
C3627 H3604 0.950 . S
C3627 C3626 1.334 . S
C3627 C3628 1.287 . S
C3628 C3627 1.287 . S
C3628 C3629 1.524 . S
C3628 H3647 0.913 . S
C3629 H3605 0.950 . S
C3629 C3628 1.524 . S
C3629 C3630 1.415 . S
C3630 H3606 0.950 . S
C3630 C3625 1.363 . S
C3630 C3629 1.415 . S
C3631 H3607 0.951 . S
C3631 C3632 1.366 . S
C3631 C3633 1.388 . S
C3632 C3631 1.366 . S
C3632 C3636 1.385 . S
C3633 H3608 0.951 . S
C3633 C3631 1.388 . S
C3633 C3634 1.366 . S
C3634 C3633 1.366 . S
C3634 C3635 1.414 . S
C3634 C3637 1.499 . S
C3635 H3609 0.950 . S
C3635 C3634 1.414 . S
C3635 C3636 1.374 . S
C3636 H3610 0.950 . S
C3636 C3632 1.385 . S
C3636 C3635 1.374 . S
C3637 C3634 1.499 . S
C3637 C3638 1.373 . S
C3637 C3639 1.389 . S
C3638 H3611 0.950 . S
C3638 C3624 1.377 . S
C3638 C3637 1.373 . S
C3639 C3623 1.377 . S
C3639 C3637 1.389 . S
C3639 C3640 1.524 . S
C3640 C3639 1.524 . S
C3640 C3641 1.397 . S
C3640 C3645 1.363 . S
C3641 H3612 0.950 . S
C3641 C3640 1.397 . S
C3641 C3642 1.334 . S
C3642 H3613 0.950 . S
C3642 C3641 1.334 . S
C3642 C3643 1.287 . S
C3643 C3642 1.287 . S
C3643 C3644 1.524 . S
C3643 H3646 0.999 . S
C3644 H3614 0.950 . S
C3644 C3643 1.524 . S
C3644 C3645 1.415 . S
C3645 H3615 0.950 . S
C3645 C3640 1.363 . S
C3645 C3644 1.415 . S
H3646 C3643 0.999 . S
H3647 C3628 0.913 . S
C467 C103 1.360 . S
C482 C5 1.375 . S
C517 C19 1.145 . S
C532 C61 1.243 . S
C567 C75 1.465 . S
C582 C33 1.459 . S
C617 C89 1.419 . S
C632 C47 1.413 . S
C667 C117 1.375 . S
C682 C313 1.360 . S
C717 C131 1.147 . S
C732 C271 1.242 . S
C767 C411 1.466 . S
C782 C145 1.460 . S
C817 C383 1.419 . S
C832 C159 1.412 . S
C867 C173 1.242 . S
C882 C439 1.148 . S
C917 C187 1.466 . S
C932 C369 1.459 . S
C967 C201 1.419 . S
C982 C299 1.412 . S
C1017 C215 1.361 . S
C1032 C229 1.375 . S
C1067 C243 1.360 . S
C1082 C355 1.374 . S
C1117 C257 1.459 . S
C1132 C285 1.466 . S
C1167 C425 1.412 . S
C1182 C327 1.419 . S
C1217 C397 1.243 . S
C1232 C341 1.146 . S
C1267 C144 0.522 . S
C1282 C4 0.493 . S
C1317 C165 0.685 . S
C1332 C25 0.495 . S
C1367 C116 0.491 . S
C1382 C32 0.524 . S
C1417 C137 0.495 . S
C1432 C53 0.685 . S
C1467 C208 0.662 . S
C1482 C60 0.643 . S
C1517 C74 0.496 . S
C1532 C214 0.524 . S
C1567 C96 0.662 . S
C1582 C172 0.643 . S
C1617 C102 0.523 . S
C1632 C186 0.497 . S
C1667 C180 0.600 . S
C1682 C124 0.457 . S
C1717 C130 0.600 . S
C1732 C194 0.592 . S
C1767 C207 0.682 . S
C1782 C152 0.514 . S
C1817 C158 0.478 . S
C1832 C222 0.498 . S
C1867 C326 0.418 . S
C1882 C235 0.832 . S
C1917 C39 0.709 . S
C1932 C179 0.568 . S
C1967 C54 0.535 . S
C1982 C193 0.656 . S
C2017 C11 0.832 . S
C2032 C200 0.418 . S
C2067 C249 0.801 . S
C2082 C446 0.629 . S
C2117 C277 0.569 . S
C2132 C263 0.709 . S
C2167 C26 0.632 . S
C2182 C221 0.798 . S
C2217 C334 0.660 . S
C2232 C270 0.644 . S
C2267 C284 0.498 . S
C2282 C312 0.522 . S
C2317 C228 0.493 . S
C2332 C256 0.522 . S
C2367 C305 0.680 . S
C2382 C347 0.499 . S
C2417 C348 0.633 . S
C2432 C319 0.798 . S
C2467 C151 0.705 . S
C2482 C67 0.573 . S
C2517 C292 0.590 . S
C2532 C340 0.601 . S
C2567 C110 0.500 . S
C2582 C46 0.478 . S
C2617 C404 0.602 . S
C2632 C362 0.456 . S
C2667 C82 0.590 . S
C2682 C18 0.602 . S
C2717 C236 0.456 . S
C2732 C278 0.601 . S
C2767 C354 0.493 . S
C2782 C368 0.522 . S
C2817 C390 0.661 . S
C2832 C396 0.644 . S
C2867 C333 0.681 . S
C2882 C264 0.515 . S
C2917 C375 0.705 . S
C2932 C403 0.573 . S
C2967 C166 0.534 . S
C2982 C81 0.657 . S
C3017 C109 0.798 . S
C3032 C138 0.632 . S
C3067 C242 0.523 . S
C3082 C410 0.497 . S
C3117 C431 0.681 . S
C3132 C445 0.498 . S
C3167 C438 0.601 . S
C3182 C418 0.591 . S
C3217 C68 0.600 . S
C3232 C12 0.457 . S
C3267 C40 0.516 . S
C3282 C95 0.679 . S
C3317 C424 0.481 . S
C3332 C250 0.496 . S
C3367 C361 0.829 . S
C3382 C382 0.421 . S
C3417 C291 0.659 . S
C3432 C306 0.531 . S
C3467 C88 0.418 . S
C3482 C123 0.832 . S
C3517 C320 0.500 . S
C3532 C298 0.479 . S
C3567 C376 0.514 . S
C3582 C389 0.682 . S
C3617 C432 0.531 . S
C3632 C417 0.660 . S
