# Generated by pormake.
# Topology ecf, (8)-cn, num edge types: 1
# Building blocks:
#     Node 0, Type 0, BuildingBlock: TAGTUT_clean_sbu_3, # of connection points: 8
#     Node 1, Type 0, BuildingBlock: TAGTUT_clean_sbu_3, # of connection points: 8
#     Node 2, Type 0, BuildingBlock: TAGTUT_clean_sbu_3, # of connection points: 8
#     Node 3, Type 0, BuildingBlock: TAGTUT_clean_sbu_3, # of connection points: 8
#     Node 4, Type 0, BuildingBlock: TAGTUT_clean_sbu_3, # of connection points: 8
#     Node 5, Type 0, BuildingBlock: TAGTUT_clean_sbu_3, # of connection points: 8
#     Edge 6, Type (0, 0), BuildingBlock: EZIPEK_clean_linker_0, # of connection points: 2
#     Edge 7, Type (0, 0), BuildingBlock: EZIPEK_clean_linker_0, # of connection points: 2
#     Edge 8, Type (0, 0), BuildingBlock: EZIPEK_clean_linker_0, # of connection points: 2
#     Edge 9, Type (0, 0), BuildingBlock: EZIPEK_clean_linker_0, # of connection points: 2
#     Edge 10, Type (0, 0), BuildingBlock: EZIPEK_clean_linker_0, # of connection points: 2
#     Edge 11, Type (0, 0), BuildingBlock: EZIPEK_clean_linker_0, # of connection points: 2
#     Edge 12, Type (0, 0), BuildingBlock: EZIPEK_clean_linker_0, # of connection points: 2
#     Edge 13, Type (0, 0), BuildingBlock: EZIPEK_clean_linker_0, # of connection points: 2
#     Edge 14, Type (0, 0), BuildingBlock: EZIPEK_clean_linker_0, # of connection points: 2
#     Edge 15, Type (0, 0), BuildingBlock: EZIPEK_clean_linker_0, # of connection points: 2
#     Edge 16, Type (0, 0), BuildingBlock: EZIPEK_clean_linker_0, # of connection points: 2
#     Edge 17, Type (0, 0), BuildingBlock: EZIPEK_clean_linker_0, # of connection points: 2
#     Edge 18, Type (0, 0), BuildingBlock: EZIPEK_clean_linker_0, # of connection points: 2
#     Edge 19, Type (0, 0), BuildingBlock: EZIPEK_clean_linker_0, # of connection points: 2
#     Edge 20, Type (0, 0), BuildingBlock: EZIPEK_clean_linker_0, # of connection points: 2
#     Edge 21, Type (0, 0), BuildingBlock: EZIPEK_clean_linker_0, # of connection points: 2
#     Edge 22, Type (0, 0), BuildingBlock: EZIPEK_clean_linker_0, # of connection points: 2
#     Edge 23, Type (0, 0), BuildingBlock: EZIPEK_clean_linker_0, # of connection points: 2
#     Edge 24, Type (0, 0), BuildingBlock: EZIPEK_clean_linker_0, # of connection points: 2
#     Edge 25, Type (0, 0), BuildingBlock: EZIPEK_clean_linker_0, # of connection points: 2
#     Edge 26, Type (0, 0), BuildingBlock: EZIPEK_clean_linker_0, # of connection points: 2
#     Edge 27, Type (0, 0), BuildingBlock: EZIPEK_clean_linker_0, # of connection points: 2
#     Edge 28, Type (0, 0), BuildingBlock: EZIPEK_clean_linker_0, # of connection points: 2
#     Edge 29, Type (0, 0), BuildingBlock: EZIPEK_clean_linker_0, # of connection points: 2
# Relax obj value: 0.257
# Max RMSD: 0.185
# Mean RMSD: 0.185
data_MOF--net-ecf--node1-TAGTUT_clean_sbu_3--edge1-EZIPEK_clean_linker_0
_symmetry_space_group_name_H-M    P1
_symmetry_Int_Tables_number       1
_symmetry_cell_setting            triclinic
loop_
_symmetry_equiv_pos_as_xyz
'x, y, z'
_cell_length_a     26.339084
_cell_length_b     26.409179
_cell_length_c     20.09244
_cell_angle_alpha  88.802766
_cell_angle_beta   89.680177
_cell_angle_gamma 118.65833
loop_
_atom_site_label
_atom_site_type_symbol
_atom_site_fract_x
_atom_site_fract_y
_atom_site_fract_z
_atom_type_partial_charge
C0 C 0.10635 0.32293 0.11578 0.0
C1 C 0.95003 0.14809 0.22941 0.0
C2 C 0.05514 0.21905 0.40609 0.0
Mg3 Mg 0.24585 0.40513 0.16601 0.0
Mg4 Mg 0.31762 0.36216 0.27161 0.0
O5 O 0.24799 0.3594 0.24599 0.0
Mg6 Mg 0.1716 0.2927 0.2419 0.0
O7 O 0.09031 0.2322 0.23627 0.0
Mg8 Mg 0.05196 0.27936 0.26346 0.0
Mg9 Mg 0.06676 0.16283 0.28133 0.0
C10 C 0.24631 0.25769 0.37317 0.0
O11 O 0.19878 0.23393 0.19087 0.0
O12 O 0.32785 0.48223 0.20895 0.0
O13 O 0.1304 0.14744 0.23184 0.0
O14 O 0.30544 0.37742 0.11247 0.0
O15 O 0.36349 0.44992 0.29167 0.0
O16 O 0.35472 0.35127 0.18308 0.0
O17 O 0.13903 0.35386 0.28747 0.0
O18 O 0.19153 0.43242 0.22367 0.0
C19 C 0.1525 0.40563 0.26791 0.0
C20 C 0.36259 0.49054 0.2572 0.0
O21 O 0.19783 0.25093 0.34645 0.0
O22 O 0.96672 0.2017 0.23661 0.0
O23 O 0.29458 0.29931 0.35226 0.0
O24 O 0.04377 0.25107 0.36825 0.0
O25 O -0.01853 0.12489 0.24479 0.0
O26 O 0.06863 0.18205 0.38427 0.0
O27 O 0.15494 0.32399 0.13263 0.0
O28 O 0.06596 0.30978 0.1585 0.0
C29 C 0.34379 0.36167 0.12429 0.0
C30 C 0.17564 0.17896 0.19568 0.0
C31 C 0.72477 0.17948 0.76998 0.0
C32 C 0.87652 0.38282 0.6986 0.0
C33 C 0.96534 0.28359 0.61448 0.0
Mg34 Mg 0.74343 0.07317 0.81251 0.0
Mg35 Mg 0.87012 0.0804 0.84793 0.0
O36 O 0.82801 0.10088 0.7906 0.0
Mg37 Mg 0.85125 0.18203 0.77115 0.0
O38 O 0.86676 0.26001 0.74705 0.0
Mg39 Mg 0.82618 0.24225 0.6585 0.0
Mg40 Mg 0.94345 0.32165 0.7471 0.0
C41 C -0.02603 0.17517 0.76467 0.0
O42 O 0.90511 0.22492 0.87811 0.0
O43 O 0.73318 -0.01571 0.81882 0.0
O44 O -0.02797 0.31394 0.84481 0.0
O45 O 0.76135 0.08084 0.92237 0.0
O46 O 0.82112 -0.00913 0.83345 0.0
O47 O 0.85042 0.09618 0.94364 0.0
O48 O 0.80721 0.14399 0.66324 0.0
O49 O 0.72897 0.06475 0.70263 0.0
C50 C 0.75937 0.09578 0.65334 0.0
C51 C 0.76651 0.96209 0.82511 0.0
O52 O 0.94234 0.19607 0.74144 0.0
O53 O 0.84154 0.33681 0.66841 0.0
O54 O 0.95549 0.13302 0.80709 0.0
O55 O 0.91261 0.26862 0.60072 0.0
O56 O 0.92144 0.38815 0.72847 0.0
O57 O -0.0134 0.3034 0.67057 0.0
O58 O 0.75835 0.16497 0.80209 0.0
O59 O 0.74293 0.21056 0.71666 0.0
C60 C 0.80156 0.08944 0.96277 0.0
C61 C 0.95053 0.27469 0.89062 0.0
C62 C 0.62676 0.74933 0.17188 0.0
C63 C 0.77583 0.75708 0.3365 0.0
C64 C 0.64985 0.77101 0.4768 0.0
Mg65 Mg 0.54803 0.81996 0.19744 0.0
Mg66 Mg 0.58883 0.93376 0.2947 0.0
O67 O 0.57483 0.85687 0.28644 0.0
Mg68 Mg 0.63786 0.83899 0.29848 0.0
O69 O 0.6976 0.81496 0.31002 0.0
Mg70 Mg 0.64341 0.72943 0.32728 0.0
Mg71 Mg 0.7449 0.8518 0.38217 0.0
C72 C 0.65645 0.94078 0.42473 0.0
O73 O 0.70671 0.9243 0.26174 0.0
O74 O 0.47256 0.8408 0.21888 0.0
O75 O 0.77816 0.93694 0.33175 0.0
O76 O 0.60382 0.90768 0.14044 0.0
O77 O 0.50325 0.91813 0.2843 0.0
O78 O 0.64173 -0.0217 0.21398 0.0
O79 O 0.56807 0.74833 0.33238 0.0
O80 O 0.50066 0.7364 0.25806 0.0
C81 C 0.51836 0.7174 0.30687 0.0
C82 C 0.46363 0.87668 0.25288 0.0
O83 O 0.65803 0.89406 0.40676 0.0
O84 O 0.72396 0.7228 0.32013 0.0
O85 O 0.63206 0.96227 0.38752 0.0
O86 O 0.64947 0.73427 0.43703 0.0
O87 O 0.79103 0.80425 0.36725 0.0
O88 O 0.6859 0.82426 0.46824 0.0
O89 O 0.6258 0.79708 0.18695 0.0
O90 O 0.63342 0.71943 0.21774 0.0
C91 C 0.63914 0.95971 0.15587 0.0
C92 C 0.75699 0.95479 0.28504 0.0
C93 C 0.79075 0.53818 0.75935 0.0
C94 C 0.57298 0.45977 0.73825 0.0
C95 C 0.61885 0.63765 0.68009 0.0
Mg96 Mg 0.88451 0.65875 0.8125 0.0
Mg97 Mg 0.84398 0.73783 0.89169 0.0
O98 O 0.8442 0.70756 0.80987 0.0
Mg99 Mg 0.76531 0.64542 0.79438 0.0
O100 O 0.69036 0.57956 0.77866 0.0
Mg101 Mg 0.70302 0.57034 0.68121 0.0
Mg102 Mg 0.61902 0.57492 0.80734 0.0
C103 C 0.74763 0.75281 0.81519 0.0
O104 O 0.72776 0.65136 0.91183 0.0
O105 O 0.96392 0.74458 0.82839 0.0
O106 O 0.63214 0.61471 0.90397 0.0
O107 O 0.87692 0.63821 0.92238 0.0
O108 O 0.93313 0.79595 0.8893 0.0
O109 O 0.82313 0.6721 0.9671 0.0
O110 O 0.7971 0.65498 0.67724 0.0
O111 O 0.88795 0.6754 0.70154 0.0
C112 C 0.85016 0.66816 0.65811 0.0
C113 C -0.02749 0.79015 0.85862 0.0
O114 O 0.73498 0.70946 0.7792 0.0
O115 O 0.61534 0.48419 0.69591 0.0
O116 O 0.78499 0.7685 0.86131 0.0
O117 O 0.65357 0.62199 0.65369 0.0
O118 O 0.566 0.48589 0.78761 0.0
O119 O 0.5993 0.62345 0.73908 0.0
O120 O 0.79908 0.57802 0.80077 0.0
O121 O 0.75324 0.52464 0.71361 0.0
C122 C 0.84749 0.64097 0.97101 0.0
C123 C 0.67826 0.64359 0.93697 0.0
C124 C 0.19156 0.86802 0.15524 0.0
C125 C 0.18075 0.01223 0.29017 0.0
C126 C 0.1584 0.88854 0.4609 0.0
Mg127 Mg 0.13841 0.72222 0.19488 0.0
Mg128 Mg 0.02996 0.64361 0.30401 0.0
O129 O 0.09462 0.71433 0.28048 0.0
Mg130 Mg 0.10341 0.79204 0.28624 0.0
O131 O 0.12273 0.87431 0.29048 0.0
Mg132 Mg 0.2086 0.90684 0.30812 0.0
Mg133 Mg 0.08383 0.89601 0.35154 0.0
C134 C 0.0008 0.7081 0.41812 0.0
O135 O 0.01588 0.77216 0.251 0.0
O136 O 0.13143 0.63104 0.22607 0.0
O137 O 0.00137 0.83514 0.31236 0.0
O138 O 0.05184 0.67727 0.14078 0.0
O139 O 0.06786 0.58968 0.31161 0.0
O140 O -0.01819 0.62343 0.21552 0.0
O141 O 0.1954 0.81732 0.32128 0.0
O142 O 0.21968 0.7668 0.25289 0.0
C143 C 0.23225 0.80302 0.29913 0.0
C144 C 0.10638 0.59124 0.27174 0.0
O145 O 0.04226 0.75799 0.39469 0.0
O146 O 0.21593 -0.00781 0.29081 0.0
O147 O -0.00753 0.66131 0.39117 0.0
O148 O 0.19874 0.90861 0.4174 0.0
O149 O 0.1289 -0.0155 0.31402 0.0
O150 O 0.10668 0.87564 0.44688 0.0
O151 O 0.14684 0.81797 0.17247 0.0
O152 O 0.21965 0.90388 0.19955 0.0
C153 C -0.00112 0.64301 0.15651 0.0
C154 C -0.01592 0.79292 0.27227 0.0
C155 C 0.42376 0.2136 0.72392 0.0
C156 C 0.47917 0.06484 0.73532 0.0
C157 C 0.29691 0.94436 0.66417 0.0
Mg158 Mg 0.31605 0.22433 0.74772 0.0
Mg159 Mg 0.20798 0.13476 0.8437 0.0
O160 O 0.25203 0.14192 0.76845 0.0
Mg161 Mg 0.29815 0.09967 0.76337 0.0
O162 O 0.35292 0.06952 0.75172 0.0
Mg163 Mg 0.37829 0.0916 0.65571 0.0
Mg164 Mg 0.35532 0.00445 0.78915 0.0
C165 C 0.17098 0.00429 0.80652 0.0
O166 O 0.28817 0.06412 0.88721 0.0
O167 O 0.24615 0.25181 0.73805 0.0
O168 O 0.31628 -0.00428 0.88485 0.0
O169 O 0.32984 0.24847 0.85298 0.0
O170 O 0.17177 0.18508 0.80054 0.0
O171 O 0.26421 0.18275 0.92267 0.0
O172 O 0.29775 0.11251 0.64032 0.0
O173 O 0.30307 0.1998 0.64145 0.0
C174 C 0.29657 0.15625 0.60929 0.0
C175 C 0.19425 0.22935 0.7608 0.0
O176 O 0.21411 0.01639 0.76707 0.0
O177 O 0.46077 0.08129 0.68417 0.0
O178 O 0.16432 0.04155 0.84034 0.0
O179 O 0.31935 -0.00561 0.63529 0.0
O180 O 0.44558 0.03449 0.78311 0.0
O181 O 0.30586 0.9368 0.72468 0.0
O182 O 0.3782 0.1894 0.76039 0.0
O183 O 0.43407 0.18565 0.67996 0.0
C184 C 0.31007 0.23045 0.91124 0.0
C185 C 0.29267 0.02094 0.91604 0.0
C186 C 0.15597 0.48491 0.33411 0.0
C187 C 0.1234 0.43798 0.29244 0.0
C188 C 0.08286 0.49316 0.23611 0.0
C189 C 0.11682 0.5411 0.27573 0.0
N190 N 0.17783 0.58052 0.37065 0.0
N191 N 0.0375 0.38967 0.22875 0.0
C192 C 0.15066 0.53615 0.32789 0.0
C193 C 0.08126 0.43981 0.25084 0.0
N194 N 0.1934 0.48055 0.37764 0.0
N195 N 0.05199 0.49841 0.18444 0.0
H196 H 0.0314 0.35042 0.24798 0.0
H197 H 0.00297 0.3871 0.20125 0.0
H198 H 0.05112 0.53665 0.17271 0.0
H199 H 0.03127 0.46627 0.14984 0.0
H200 H 0.22267 0.51426 0.4061 0.0
H201 H 0.19538 0.44218 0.38408 0.0
H202 H 0.19944 0.57832 0.41288 0.0
H203 H 0.17683 0.6194 0.36516 0.0
C204 C 0.57034 0.06351 0.77167 0.0
C205 C 0.54226 0.09497 0.74956 0.0
C206 C 0.63224 0.18544 0.7648 0.0
C207 C 0.66081 0.15352 0.78379 0.0
N208 N 0.64473 0.06793 0.84455 0.0
N209 N 0.54099 0.18568 0.7564 0.0
C210 C 0.62663 0.09388 0.79857 0.0
C211 C 0.57159 0.1561 0.75486 0.0
N212 N 0.54361 0.00489 0.76744 0.0
N213 N 0.66293 0.24409 0.75789 0.0
H214 H 0.49601 0.16491 0.75776 0.0
H215 H 0.55955 0.22961 0.76553 0.0
H216 H 0.70542 0.2673 0.77367 0.0
H217 H 0.64663 0.26907 0.73531 0.0
H218 H 0.56463 -0.01905 0.77867 0.0
H219 H 0.5026 -0.01874 0.74728 0.0
H220 H 0.61985 0.02493 0.86026 0.0
H221 H 0.67984 0.09272 0.87439 0.0
C222 C 0.46273 0.56655 0.27486 0.0
C223 C 0.40287 0.54921 0.27642 0.0
C224 C 0.42217 0.63679 0.33441 0.0
C225 C 0.48173 0.65592 0.32603 0.0
N226 N 0.55151 0.62283 0.33182 0.0
N227 N 0.32354 0.56495 0.31103 0.0
C228 C 0.50067 0.61654 0.30833 0.0
C229 C 0.38166 0.58323 0.30789 0.0
N230 N 0.4835 0.53591 0.24076 0.0
N231 N 0.40565 0.66956 0.37068 0.0
H232 H 0.29267 0.52509 0.29386 0.0
H233 H 0.30562 0.58992 0.32811 0.0
H234 H 0.43662 0.7067 0.39344 0.0
H235 H 0.36301 0.65779 0.38336 0.0
H236 H 0.52767 0.5504 0.23389 0.0
H237 H 0.4569 0.49924 0.21416 0.0
H238 H 0.56652 0.59344 0.32338 0.0
H239 H 0.57146 0.65077 0.37043 0.0
C240 C 0.81508 0.40867 0.77064 0.0
C241 C 0.85597 0.42377 0.71716 0.0
C242 C 0.87214 0.5223 0.71972 0.0
C243 C 0.82287 0.50467 0.762 0.0
N244 N 0.74554 0.4292 0.82685 0.0
N245 N 0.92081 0.49464 0.63708 0.0
C246 C 0.79397 0.44726 0.78762 0.0
C247 C 0.88345 0.48046 0.69018 0.0
N248 N 0.79824 0.35875 0.80708 0.0
N249 N 0.91128 0.5791 0.71321 0.0
H250 H 0.93056 0.46482 0.61503 0.0
H251 H 0.93789 0.53442 0.61173 0.0
H252 H 0.91057 0.60747 0.74738 0.0
H253 H 0.9495 0.59507 0.68514 0.0
H254 H 0.77366 0.34905 0.85092 0.0
H255 H 0.81245 0.32904 0.79652 0.0
H256 H 0.71852 0.38599 0.84018 0.0
H257 H 0.73117 0.45747 0.84333 0.0
C258 C 0.31654 0.79498 0.33651 0.0
C259 C 0.29302 0.83149 0.32019 0.0
C260 C 0.38161 0.89853 0.26126 0.0
C261 C 0.4042 0.86038 0.27352 0.0
N262 N 0.40309 0.78669 0.34835 0.0
N263 N 0.32005 0.93165 0.31106 0.0
C264 C 0.37481 0.81277 0.31896 0.0
C265 C 0.32994 0.88756 0.29468 0.0
N266 N 0.28219 0.7422 0.36599 0.0
N267 N 0.40964 0.94548 0.21945 0.0
H268 H 0.29209 0.92601 0.35075 0.0
H269 H 0.34721 0.97441 0.29591 0.0
H270 H 0.44808 0.95485 0.19435 0.0
H271 H 0.39177 0.97193 0.20618 0.0
H272 H 0.29499 0.71064 0.37177 0.0
H273 H 0.24 0.72993 0.38216 0.0
H274 H 0.38544 0.7588 0.38951 0.0
H275 H 0.44602 0.79797 0.33731 0.0
C276 C 0.49345 0.30017 0.7858 0.0
C277 C 0.46156 0.27679 0.72729 0.0
C278 C 0.49855 0.37446 0.67848 0.0
C279 C 0.53428 0.39703 0.73429 0.0
N280 N 0.57512 0.38095 0.83472 0.0
N281 N 0.43894 0.29079 0.6141 0.0
C282 C 0.53413 0.35985 0.78647 0.0
C283 C 0.46583 0.31367 0.67234 0.0
N284 N 0.48524 0.26544 0.84074 0.0
N285 N 0.49411 0.41116 0.63273 0.0
H286 H 0.41229 0.24687 0.60834 0.0
H287 H 0.44614 0.31486 0.57 0.0
H288 H 0.51741 0.45598 0.63581 0.0
H289 H 0.46383 0.3975 0.59496 0.0
H290 H 0.5017 0.28141 0.88725 0.0
H291 H 0.45886 0.22079 0.84128 0.0
H292 H 0.58135 0.35478 0.86956 0.0
H293 H 0.60683 0.42415 0.83624 0.0
C294 C 0.16619 0.09478 0.14341 0.0
C295 C 0.20474 0.14988 0.16512 0.0
C296 C 0.24755 0.1111 0.24249 0.0
C297 C 0.1945 0.05854 0.2408 0.0
N298 N 0.11714 -0.00781 0.17073 0.0
N299 N 0.30153 0.20954 0.19698 0.0
C300 C 0.15823 0.0472 0.18433 0.0
C301 C 0.25348 0.15704 0.19983 0.0
N302 N 0.13334 0.09012 0.08943 0.0
N303 N 0.29018 0.11737 0.2852 0.0
H304 H 0.30161 0.24264 0.16782 0.0
H305 H 0.34048 0.21897 0.21931 0.0
H306 H 0.28477 0.08682 0.3221 0.0
H307 H 0.33166 0.15232 0.28298 0.0
H308 H 0.10299 0.05119 0.06989 0.0
H309 H 0.13918 0.12712 0.06302 0.0
H310 H 0.08754 -0.01802 0.13261 0.0
H311 H 0.11376 0.95603 0.19663 0.0
C312 C 0.07408 0.24388 0.79973 0.0
C313 C 0.03668 0.20651 0.75088 0.0
C314 C 0.12095 0.22292 0.68432 0.0
C315 C 0.15606 0.25167 0.73791 0.0
N316 N 0.17219 0.31414 0.82788 0.0
N317 N 0.02488 0.15426 0.65022 0.0
C318 C 0.13436 0.27175 0.78828 0.0
C319 C 0.06003 0.19574 0.69266 0.0
N320 N 0.05287 0.24634 0.86062 0.0
N321 N 0.14641 0.22114 0.62616 0.0
H322 H -0.02003 0.13181 0.65642 0.0
H323 H 0.04079 0.13909 0.61233 0.0
H324 H 0.19138 0.24007 0.62091 0.0
H325 H 0.12302 0.20753 0.5827 0.0
H326 H 0.07924 0.26847 0.8999 0.0
H327 H 0.00981 0.2198 0.87405 0.0
H328 H 0.15942 0.33389 0.86377 0.0
H329 H 0.21675 0.33312 0.81883 0.0
C330 C 0.84437 0.11245 0.23787 0.0
C331 C 0.891 0.10923 0.20751 0.0
C332 C 0.83402 0.00542 0.20018 0.0
C333 C 0.79578 0.00778 0.24827 0.0
N334 N 0.75663 0.06142 0.30455 0.0
N335 N 0.92243 0.05943 0.13402 0.0
C336 C 0.79756 0.06071 0.26337 0.0
C337 C 0.88214 0.0576 0.17844 0.0
N338 N 0.84513 0.1643 0.24158 0.0
N339 N 0.8254 0.95335 0.17834 0.0
H340 H 0.95743 0.09868 0.11859 0.0
H341 H 0.92081 0.02382 0.111 0.0
H342 H 0.78922 0.91467 0.19263 0.0
H343 H 0.85264 0.94812 0.14493 0.0
H344 H 0.81074 0.16901 0.26028 0.0
H345 H 0.87756 0.20149 0.2181 0.0
H346 H 0.75911 0.09893 0.32345 0.0
H347 H 0.7209 0.02357 0.32143 0.0
C348 C 0.70834 0.85989 0.8602 0.0
C349 C 0.74248 0.90185 0.81137 0.0
C350 C 0.75248 0.83143 0.74532 0.0
C351 C 0.72528 0.79163 0.79865 0.0
N352 N 0.65576 0.75779 0.88824 0.0
N353 N 0.77942 0.9263 0.6987 0.0
C354 C 0.6955 0.80257 0.84993 0.0
C355 C 0.75839 0.88698 0.75051 0.0
N356 N 0.69171 0.87537 0.91747 0.0
N357 N 0.77577 0.81718 0.69266 0.0
H358 H 0.78329 0.96734 0.70196 0.0
H359 H 0.78772 0.91671 0.65123 0.0
H360 H 0.76849 0.77526 0.68566 0.0
H361 H 0.80275 0.84672 0.65641 0.0
H362 H 0.67211 0.84703 0.95787 0.0
H363 H 0.70024 0.91756 0.92588 0.0
H364 H 0.63011 0.76209 0.92495 0.0
H365 H 0.64438 0.71541 0.87685 0.0
C366 C 0.85317 0.8013 0.25145 0.0
C367 C 0.82075 0.75461 0.29673 0.0
C368 C 0.88333 0.71405 0.27183 0.0
C369 C 0.92493 0.76974 0.24951 0.0
N370 N 0.94638 0.86008 0.19693 0.0
N371 N 0.7931 0.65722 0.33335 0.0
C372 C 0.90794 0.81069 0.23033 0.0
C373 C 0.83113 0.70701 0.30045 0.0
N374 N 0.83116 0.8356 0.22863 0.0
N375 N 0.89444 0.66924 0.26565 0.0
H376 H 0.75528 0.65205 0.35639 0.0
H377 H 0.79895 0.62112 0.33796 0.0
H378 H 0.93388 0.67602 0.24653 0.0
H379 H 0.86338 0.62616 0.27287 0.0
H380 H 0.85115 0.86655 0.19087 0.0
H381 H 0.78992 0.82846 0.24207 0.0
H382 H 0.9398 0.89553 0.18848 0.0
H383 H -0.01385 0.86546 0.17937 0.0
C384 C 0.12784 0.90368 0.85077 0.0
C385 C 0.12328 0.94569 0.81004 0.0
C386 C 0.02163 0.88037 0.79249 0.0
C387 C 0.02478 0.84259 0.84162 0.0
N388 N 0.07779 0.81852 0.92208 0.0
N389 N 0.06738 -0.02388 0.74153 0.0
C390 C 0.07703 0.85415 0.87217 0.0
C391 C 0.07056 0.93458 0.7804 0.0
N392 N 0.18079 0.90981 0.86557 0.0
N393 N -0.02764 0.86375 0.75655 0.0
H394 H 0.10369 0.01487 0.72731 0.0
H395 H 0.02861 0.97341 0.72566 0.0
H396 H 0.93495 0.8243 0.76436 0.0
H397 H 0.96976 0.88691 0.71535 0.0
H398 H 0.18722 0.8789 0.8916 0.0
H399 H 0.21789 0.94214 0.84259 0.0
H400 H 0.11402 0.82822 0.95069 0.0
H401 H 0.04082 0.78112 0.93822 0.0
C402 C 0.36171 0.36778 1.00449 0.0
C403 C 0.3703 0.34876 0.06675 0.0
C404 C 0.36103 0.26088 1.01964 0.0
C405 C 0.33534 0.27244 0.96356 0.0
N406 N 0.30936 0.33738 0.90291 0.0
N407 N 0.41452 0.29882 0.12144 0.0
C408 C 0.33684 0.3269 0.95471 0.0
C409 C 0.38194 0.30199 0.0707 0.0
N410 N 0.37414 0.4239 0.99547 0.0
N411 N 0.36354 0.21047 1.02479 0.0
H412 H 0.43317 0.33165 0.1558 0.0
H413 H 0.4276 0.26745 0.1256 0.0
H414 H 0.35052 0.18079 0.98667 0.0
H415 H 0.3764 0.1971 0.06756 0.0
H416 H 0.3725 0.44185 0.94938 0.0
H417 H 0.39188 0.45331 0.03372 0.0
H418 H 0.30516 0.37457 0.89853 0.0
H419 H 0.28541 0.30682 0.86791 0.0
C420 C 0.97017 0.2054 0.55184 0.0
C421 C -0.00233 0.26414 0.57077 0.0
C422 C 0.08148 0.28326 0.5008 0.0
C423 C 0.05002 0.22645 0.47692 0.0
N424 N -0.02358 0.12868 0.49471 0.0
N425 N 0.08404 0.357 0.57316 0.0
C426 C -0.00171 0.18595 0.50762 0.0
C427 C 0.05546 0.30229 0.54952 0.0
N428 N 0.9166 0.16777 0.57591 0.0
N429 N 0.13405 0.31981 0.47203 0.0
H430 H 0.06439 0.37441 0.60339 0.0
H431 H 0.12777 0.38512 0.56444 0.0
H432 H 0.15343 0.30563 0.43689 0.0
H433 H 0.15794 0.36359 0.48136 0.0
H434 H 0.8887 0.13136 0.55018 0.0
H435 H 0.90086 0.17425 0.62051 0.0
H436 H 0.9406 0.09582 0.51963 0.0
H437 H -0.00199 0.11372 0.46377 0.0
C438 C 0.69916 0.0555 0.0991 0.0
C439 C 0.68659 -0.00283 0.10997 0.0
C440 C 0.77489 0.01596 0.04949 0.0
C441 C 0.78272 0.07116 0.03156 0.0
N442 N 0.76588 0.15051 0.05154 0.0
N443 N 0.71261 0.92137 0.0964 0.0
C444 C 0.74944 0.09337 0.06152 0.0
C445 C 0.72449 -0.02278 0.08547 0.0
N446 N 0.66085 0.07309 0.12053 0.0
N447 N 0.81628 0.00109 0.0324 0.0
H448 H 0.68333 0.89391 0.13221 0.0
H449 H 0.73094 0.90144 0.0684 0.0
H450 H 0.85713 0.03112 1.01438 0.0
H451 H 0.81362 0.96115 0.04251 0.0
H452 H 0.66558 0.11401 0.11122 0.0
H453 H 0.62154 0.04526 0.14416 0.0
H454 H 0.74615 0.17178 0.07421 0.0
H455 H 0.80296 0.17765 1.02344 0.0
C456 C 0.61797 0.73055 0.65433 0.0
C457 C 0.59947 0.67196 0.63996 0.0
C458 C 0.56886 0.6886 0.53313 0.0
C459 C 0.61219 0.74683 0.53671 0.0
N460 N 0.65704 0.82821 0.60761 0.0
N461 N 0.54129 0.59126 0.57132 0.0
C462 C 0.62976 0.77004 0.59997 0.0
C463 C 0.56862 0.6492 0.58139 0.0
N464 N 0.62012 0.74685 0.71835 0.0
N465 N 0.53085 0.67199 0.48235 0.0
H466 H 0.53889 0.56164 0.60812 0.0
H467 H 0.52272 0.57342 0.52614 0.0
H468 H 0.53109 0.70282 0.44888 0.0
H469 H 0.49666 0.63019 0.47839 0.0
H470 H 0.62673 0.78764 0.73079 0.0
H471 H 0.60827 0.71723 0.75815 0.0
H472 H 0.67364 0.84745 0.65268 0.0
H473 H 0.66106 0.85667 0.5686 0.0
C474 C 0.8707 0.57748 0.04195 0.0
C475 C 0.85938 0.62465 0.0369 0.0
C476 C 0.94129 0.68291 0.10342 0.0
C477 C 0.95393 0.63657 0.10992 0.0
N478 N 0.92383 0.53532 0.09746 0.0
N479 N 0.86337 0.70589 0.09271 0.0
C480 C 0.91588 0.58186 0.0838 0.0
C481 C 0.8871 0.67125 0.07925 0.0
N482 N 0.84035 0.53061 1.00367 0.0
N483 N -0.01886 0.73807 0.11771 0.0
H484 H 0.8209 0.69447 0.08007 0.0
H485 H 0.88315 0.7416 0.12268 0.0
H486 H 0.02321 0.74962 0.13166 0.0
H487 H -0.02582 0.77321 0.10818 0.0
H488 H 0.85035 0.49716 0.9991 0.0
H489 H 0.80588 0.52691 0.97483 0.0
H490 H 0.89453 0.49348 0.08414 0.0
H491 H 0.95858 0.53838 0.12509 0.0
C492 C 0.19393 0.89388 0.64171 0.0
C493 C 0.24841 0.89747 0.63116 0.0
C494 C 0.21538 0.85387 0.52509 0.0
C495 C 0.17403 0.874 0.52578 0.0
N496 N 0.12096 0.91058 0.59019 0.0
N497 N 0.30893 0.87211 0.56589 0.0
C498 C 0.16088 0.89177 0.58614 0.0
C499 C 0.25824 0.87348 0.57417 0.0
N500 N 0.17406 0.89202 0.70441 0.0
N501 N 0.21392 0.81773 0.47692 0.0
H502 H 0.33977 0.88522 0.60326 0.0
H503 H 0.32048 0.85999 0.52166 0.0
H504 H 0.17967 0.80031 0.44384 0.0
H505 H 0.24196 0.80026 0.47557 0.0
H506 H 0.13126 0.882 0.71363 0.0
H507 H 0.19775 0.89074 0.74509 0.0
H508 H 0.11529 0.92907 0.63307 0.0
H509 H 0.0954 0.90981 0.55051 0.0
C510 C 0.71053 0.72855 1.02441 0.0
C511 C 0.67018 0.67191 1.00206 0.0
C512 C 0.59703 0.67738 0.07865 0.0
C513 C 0.63783 0.7323 0.10254 0.0
N514 N 0.73766 0.80419 0.10579 0.0
N515 N 0.58018 0.58696 0.03077 0.0
C516 C 0.69548 0.75637 0.07664 0.0
C517 C 0.61473 0.64518 0.03553 0.0
N518 N 0.76457 0.75621 0.99741 0.0
N519 N 0.54051 0.65508 0.09847 0.0
H520 H 0.59383 0.56087 1.00666 0.0
H521 H 0.54187 0.56352 0.05817 0.0
H522 H 0.52662 0.67716 0.12994 0.0
H523 H 0.50705 0.61805 0.07864 0.0
H524 H 0.792 0.80051 1.0 0.0
H525 H 0.78182 0.73385 0.97344 0.0
H526 H 0.78175 0.82041 0.09661 0.0
H527 H 0.72855 0.82591 0.14269 0.0
C528 C 0.89863 0.65337 0.47913 0.0
C529 C 0.95719 0.70136 0.47569 0.0
C530 C 0.93051 0.73564 0.57803 0.0
C531 C 0.87656 0.68381 0.58716 0.0
N532 N 0.81491 0.58872 0.54865 0.0
N533 N 0.03013 0.7759 0.54062 0.0
C534 C 0.86229 0.64153 0.5381 0.0
C535 C -0.02684 0.73965 0.52983 0.0
N536 N 0.876 0.61919 0.42562 0.0
N537 N 0.94204 0.78127 0.61734 0.0
H538 H 0.06294 0.77556 0.51184 0.0
H539 H 0.04423 0.79896 0.5842 0.0
H540 H 0.91163 0.78014 0.65175 0.0
H541 H -0.02128 0.82147 0.61041 0.0
H542 H 0.8334 0.58614 0.42425 0.0
H543 H 0.89676 0.62756 0.37969 0.0
H544 H 0.80646 0.55284 0.52065 0.0
H545 H 0.78616 0.57997 0.58856 0.0
C546 C 0.20726 0.9697 1.00449 0.0
C547 C 0.26638 -0.00973 0.98464 0.0
C548 C 0.2686 0.91792 0.06578 0.0
C549 C 0.20953 0.89631 0.08503 0.0
N550 N 0.12126 0.89989 0.06875 0.0
N551 N 0.35663 -0.0046 1.01541 0.0
C552 C 0.17858 0.9219 0.05294 0.0
C553 C 0.29761 0.96725 1.02099 0.0
N554 N 0.17967 -0.00167 0.9801 0.0
N555 N 0.29727 0.89022 0.09038 0.0
H556 H 0.3792 0.03334 0.98672 0.0
H557 H 0.38333 -0.01447 0.04475 0.0
H558 H 0.27724 0.85403 0.12233 0.0
H559 H 0.33845 0.89919 0.07427 0.0
H560 H 0.13738 -0.01181 0.99212 0.0
H561 H 0.20191 0.03673 0.95255 0.0
H562 H 0.09365 0.9122 0.04536 0.0
H563 H 0.10009 0.86564 0.10298 0.0
C564 C 0.31727 0.18594 0.4867 0.0
C565 C 0.27575 0.15715 0.53823 0.0
C566 C 0.20837 0.18301 0.47655 0.0
C567 C 0.25178 0.21643 0.42727 0.0
N568 N 0.33919 0.22618 0.37434 0.0
N569 N 0.17796 0.11959 0.57664 0.0
C570 C 0.30378 0.21091 0.42933 0.0
C571 C 0.21951 0.15159 0.52976 0.0
N572 N 0.37089 0.19065 0.49348 0.0
N573 N 0.15683 0.18273 0.47406 0.0
H574 H 0.18523 0.09598 0.61418 0.0
H575 H 0.13654 0.11506 0.57829 0.0
H576 H 0.15355 0.21638 0.45089 0.0
H577 H 0.11877 0.15113 0.49648 0.0
H578 H 0.4068 0.21848 0.46445 0.0
H579 H 0.37974 0.16825 0.53112 0.0
H580 H 0.37579 0.22089 0.37083 0.0
H581 H 0.32765 0.23611 0.3285 0.0
C582 C 0.0777 0.35839 1.01212 0.0
C583 C 0.08127 0.31271 0.04641 0.0
C584 C -0.01164 0.24416 0.99544 0.0
C585 C -0.0126 0.28818 0.95472 0.0
N586 N 0.02065 0.39053 0.9458 0.0
N587 N 0.0456 0.21057 0.05771 0.0
C588 C 0.02989 0.34653 0.96848 0.0
C589 C 0.03859 0.25523 0.03304 0.0
N590 N 0.12054 0.41341 1.02183 0.0
N591 N 0.93874 0.19365 1.00497 0.0
H592 H 0.08144 0.21731 0.08584 0.0
H593 H 0.01967 0.16821 0.04321 0.0
H594 H 0.8996 0.19062 0.99029 0.0
H595 H 0.93511 0.16077 0.0375 0.0
H596 H 0.12477 0.44958 0.9955 0.0
H597 H 0.15511 0.42198 0.05317 0.0
H598 H 0.04712 0.43381 0.95588 0.0
H599 H -0.01795 0.38299 0.92354 0.0
C600 C 0.76675 0.03119 0.56355 0.0
C601 C 0.74113 0.06459 0.58718 0.0
C602 C 0.65485 0.00265 0.52048 0.0
C603 C 0.68364 0.97526 0.48848 0.0
N604 N 0.77174 0.96873 0.47979 0.0
N605 N 0.66194 0.08518 0.57995 0.0
C606 C 0.74102 -0.00876 0.51006 0.0
C607 C 0.68573 0.05128 0.5625 0.0
N608 N 0.81397 0.03456 0.59516 0.0
N609 N 0.59636 -0.02029 0.51406 0.0
H610 H 0.68318 0.12067 0.61039 0.0
H611 H 0.62429 0.08163 0.55906 0.0
H612 H 0.57152 0.94172 0.48873 0.0
H613 H 0.57167 -0.00615 0.54066 0.0
H614 H 0.83197 0.00799 0.58497 0.0
H615 H 0.83316 0.06171 0.6349 0.0
H616 H 0.8161 -0.0151 0.48545 0.0
H617 H 0.75297 0.93498 0.44737 0.0
loop_
_geom_bond_atom_site_label_1
_geom_bond_atom_site_label_2
_geom_bond_distance
_geom_bond_site_symmetry_2
_ccdc_geom_bond_type
C0 O27 1.312 . S
C0 O28 1.208 . S
C1 O22 1.331 . S
C1 O25 1.244 . S
C2 O24 1.264 . S
C2 O26 1.273 . S
Mg3 O5 1.936 . S
Mg3 O12 2.081 . S
Mg3 O14 2.023 . S
Mg3 O18 2.031 . S
Mg3 O27 2.291 . S
Mg4 O5 1.963 . S
Mg4 O15 1.942 . S
Mg4 O16 1.955 . S
Mg4 O23 1.986 . S
O5 Mg3 1.936 . S
O5 Mg4 1.963 . S
O5 Mg6 1.915 . S
Mg6 O5 1.915 . S
Mg6 O7 1.915 . S
Mg6 O11 2.013 . S
Mg6 O17 2.114 . S
Mg6 O21 2.013 . S
Mg6 O27 2.114 . S
O7 Mg6 1.915 . S
O7 Mg8 1.936 . S
O7 Mg9 1.963 . S
Mg8 O7 1.936 . S
Mg8 O17 2.291 . S
Mg8 O22 2.081 1_455 S
Mg8 O24 2.023 . S
Mg8 O28 2.031 . S
Mg9 O7 1.963 . S
Mg9 O13 1.986 . S
Mg9 O25 1.942 1_455 S
Mg9 O26 1.955 . S
C10 O21 1.191 . S
C10 O23 1.307 . S
O11 Mg6 2.013 . S
O11 C30 1.191 . S
O12 Mg3 2.081 . S
O12 C20 1.331 . S
O13 Mg9 1.986 . S
O13 C30 1.307 . S
O14 Mg3 2.023 . S
O14 C29 1.264 . S
O15 Mg4 1.942 . S
O15 C20 1.244 . S
O16 Mg4 1.955 . S
O16 C29 1.273 . S
O17 Mg6 2.114 . S
O17 Mg8 2.291 . S
O17 C19 1.312 . S
O18 Mg3 2.031 . S
O18 C19 1.208 . S
C19 O17 1.312 . S
C19 O18 1.208 . S
C20 O12 1.331 . S
C20 O15 1.244 . S
O21 Mg6 2.013 . S
O21 C10 1.191 . S
O22 C1 1.331 . S
O22 Mg8 2.081 1_655 S
O23 Mg4 1.986 . S
O23 C10 1.307 . S
O24 C2 1.264 . S
O24 Mg8 2.023 . S
O25 C1 1.244 . S
O25 Mg9 1.942 1_655 S
O26 C2 1.273 . S
O26 Mg9 1.955 . S
O27 C0 1.312 . S
O27 Mg3 2.291 . S
O27 Mg6 2.114 . S
O28 C0 1.208 . S
O28 Mg8 2.031 . S
C29 O14 1.264 . S
C29 O16 1.273 . S
C30 O11 1.191 . S
C30 O13 1.307 . S
C31 O58 1.312 . S
C31 O59 1.208 . S
C32 O53 1.331 . S
C32 O56 1.244 . S
C33 O55 1.264 . S
C33 O57 1.273 . S
Mg34 O36 1.936 . S
Mg34 O43 2.081 1_545 S
Mg34 O45 2.023 . S
Mg34 O49 2.031 . S
Mg34 O58 2.291 . S
Mg35 O36 1.963 . S
Mg35 O46 1.942 1_545 S
Mg35 O47 1.955 . S
Mg35 O54 1.986 . S
O36 Mg34 1.936 . S
O36 Mg35 1.963 . S
O36 Mg37 1.915 . S
Mg37 O36 1.915 . S
Mg37 O38 1.915 . S
Mg37 O42 2.013 . S
Mg37 O48 2.114 . S
Mg37 O52 2.013 . S
Mg37 O58 2.114 . S
O38 Mg37 1.915 . S
O38 Mg39 1.936 . S
O38 Mg40 1.963 . S
Mg39 O38 1.936 . S
Mg39 O48 2.291 . S
Mg39 O53 2.081 . S
Mg39 O55 2.023 . S
Mg39 O59 2.031 . S
Mg40 O38 1.963 . S
Mg40 O44 1.986 . S
Mg40 O56 1.942 . S
Mg40 O57 1.955 . S
C41 O52 1.191 . S
C41 O54 1.307 . S
O42 Mg37 2.013 . S
O42 C61 1.191 . S
O43 Mg34 2.081 1_565 S
O43 C51 1.331 . S
O44 Mg40 1.986 . S
O44 C61 1.307 . S
O45 Mg34 2.023 . S
O45 C60 1.264 . S
O46 Mg35 1.942 1_565 S
O46 C51 1.244 . S
O47 Mg35 1.955 . S
O47 C60 1.273 . S
O48 Mg37 2.114 . S
O48 Mg39 2.291 . S
O48 C50 1.312 . S
O49 Mg34 2.031 . S
O49 C50 1.208 . S
C50 O48 1.312 . S
C50 O49 1.208 . S
C51 O43 1.331 . S
C51 O46 1.244 . S
O52 Mg37 2.013 . S
O52 C41 1.191 . S
O53 C32 1.331 . S
O53 Mg39 2.081 . S
O54 Mg35 1.986 . S
O54 C41 1.307 . S
O55 C33 1.264 . S
O55 Mg39 2.023 . S
O56 C32 1.244 . S
O56 Mg40 1.942 . S
O57 C33 1.273 . S
O57 Mg40 1.955 . S
O58 C31 1.312 . S
O58 Mg34 2.291 . S
O58 Mg37 2.114 . S
O59 C31 1.208 . S
O59 Mg39 2.031 . S
C60 O45 1.264 . S
C60 O47 1.273 . S
C61 O42 1.191 . S
C61 O44 1.307 . S
C62 O89 1.312 . S
C62 O90 1.208 . S
C63 O84 1.331 . S
C63 O87 1.244 . S
C64 O86 1.264 . S
C64 O88 1.273 . S
Mg65 O67 1.936 . S
Mg65 O74 2.081 . S
Mg65 O76 2.023 . S
Mg65 O80 2.031 . S
Mg65 O89 2.291 . S
Mg66 O67 1.963 . S
Mg66 O77 1.942 . S
Mg66 O78 1.955 . S
Mg66 O85 1.986 . S
O67 Mg65 1.936 . S
O67 Mg66 1.963 . S
O67 Mg68 1.915 . S
Mg68 O67 1.915 . S
Mg68 O69 1.915 . S
Mg68 O73 2.013 . S
Mg68 O79 2.114 . S
Mg68 O83 2.013 . S
Mg68 O89 2.114 . S
O69 Mg68 1.915 . S
O69 Mg70 1.936 . S
O69 Mg71 1.963 . S
Mg70 O69 1.936 . S
Mg70 O79 2.291 . S
Mg70 O84 2.081 . S
Mg70 O86 2.023 . S
Mg70 O90 2.031 . S
Mg71 O69 1.963 . S
Mg71 O75 1.986 . S
Mg71 O87 1.942 . S
Mg71 O88 1.955 . S
C72 O83 1.191 . S
C72 O85 1.307 . S
O73 Mg68 2.013 . S
O73 C92 1.191 . S
O74 Mg65 2.081 . S
O74 C82 1.331 . S
O75 Mg71 1.986 . S
O75 C92 1.307 . S
O76 Mg65 2.023 . S
O76 C91 1.264 . S
O77 Mg66 1.942 . S
O77 C82 1.244 . S
O78 Mg66 1.955 . S
O78 C91 1.273 . S
O79 Mg68 2.114 . S
O79 Mg70 2.291 . S
O79 C81 1.312 . S
O80 Mg65 2.031 . S
O80 C81 1.208 . S
C81 O79 1.312 . S
C81 O80 1.208 . S
C82 O74 1.331 . S
C82 O77 1.244 . S
O83 Mg68 2.013 . S
O83 C72 1.191 . S
O84 C63 1.331 . S
O84 Mg70 2.081 . S
O85 Mg66 1.986 . S
O85 C72 1.307 . S
O86 C64 1.264 . S
O86 Mg70 2.023 . S
O87 C63 1.244 . S
O87 Mg71 1.942 . S
O88 C64 1.273 . S
O88 Mg71 1.955 . S
O89 C62 1.312 . S
O89 Mg65 2.291 . S
O89 Mg68 2.114 . S
O90 C62 1.208 . S
O90 Mg70 2.031 . S
C91 O76 1.264 . S
C91 O78 1.273 . S
C92 O73 1.191 . S
C92 O75 1.307 . S
C93 O120 1.312 . S
C93 O121 1.208 . S
C94 O115 1.331 . S
C94 O118 1.244 . S
C95 O117 1.264 . S
C95 O119 1.273 . S
Mg96 O98 1.936 . S
Mg96 O105 2.081 1_655 S
Mg96 O107 2.023 . S
Mg96 O111 2.031 . S
Mg96 O120 2.291 . S
Mg97 O98 1.963 . S
Mg97 O108 1.942 1_655 S
Mg97 O109 1.955 . S
Mg97 O116 1.986 . S
O98 Mg96 1.936 . S
O98 Mg97 1.963 . S
O98 Mg99 1.915 . S
Mg99 O98 1.915 . S
Mg99 O100 1.915 . S
Mg99 O104 2.013 . S
Mg99 O110 2.114 . S
Mg99 O114 2.013 . S
Mg99 O120 2.114 . S
O100 Mg99 1.915 . S
O100 Mg101 1.936 . S
O100 Mg102 1.963 . S
Mg101 O100 1.936 . S
Mg101 O110 2.291 . S
Mg101 O115 2.081 . S
Mg101 O117 2.023 . S
Mg101 O121 2.031 . S
Mg102 O100 1.963 . S
Mg102 O106 1.986 . S
Mg102 O118 1.942 . S
Mg102 O119 1.955 . S
C103 O114 1.191 . S
C103 O116 1.307 . S
O104 Mg99 2.013 . S
O104 C123 1.191 . S
O105 Mg96 2.081 1_455 S
O105 C113 1.331 . S
O106 Mg102 1.986 . S
O106 C123 1.307 . S
O107 Mg96 2.023 . S
O107 C122 1.264 . S
O108 Mg97 1.942 1_455 S
O108 C113 1.244 . S
O109 Mg97 1.955 . S
O109 C122 1.273 . S
O110 Mg99 2.114 . S
O110 Mg101 2.291 . S
O110 C112 1.312 . S
O111 Mg96 2.031 . S
O111 C112 1.208 . S
C112 O110 1.312 . S
C112 O111 1.208 . S
C113 O105 1.331 . S
C113 O108 1.244 . S
O114 Mg99 2.013 . S
O114 C103 1.191 . S
O115 C94 1.331 . S
O115 Mg101 2.081 . S
O116 Mg97 1.986 . S
O116 C103 1.307 . S
O117 C95 1.264 . S
O117 Mg101 2.023 . S
O118 C94 1.244 . S
O118 Mg102 1.942 . S
O119 C95 1.273 . S
O119 Mg102 1.955 . S
O120 C93 1.312 . S
O120 Mg96 2.291 . S
O120 Mg99 2.114 . S
O121 C93 1.208 . S
O121 Mg101 2.031 . S
C122 O107 1.264 . S
C122 O109 1.273 . S
C123 O104 1.191 . S
C123 O106 1.307 . S
C124 O151 1.312 . S
C124 O152 1.208 . S
C125 O146 1.331 . S
C125 O149 1.244 . S
C126 O148 1.264 . S
C126 O150 1.273 . S
Mg127 O129 1.936 . S
Mg127 O136 2.081 . S
Mg127 O138 2.023 . S
Mg127 O142 2.031 . S
Mg127 O151 2.291 . S
Mg128 O129 1.963 . S
Mg128 O139 1.942 . S
Mg128 O140 1.955 . S
Mg128 O147 1.986 . S
O129 Mg127 1.936 . S
O129 Mg128 1.963 . S
O129 Mg130 1.915 . S
Mg130 O129 1.915 . S
Mg130 O131 1.915 . S
Mg130 O135 2.013 . S
Mg130 O141 2.114 . S
Mg130 O145 2.013 . S
Mg130 O151 2.114 . S
O131 Mg130 1.915 . S
O131 Mg132 1.936 . S
O131 Mg133 1.963 . S
Mg132 O131 1.936 . S
Mg132 O141 2.291 . S
Mg132 O146 2.081 1_565 S
Mg132 O148 2.023 . S
Mg132 O152 2.031 . S
Mg133 O131 1.963 . S
Mg133 O137 1.986 . S
Mg133 O149 1.942 1_565 S
Mg133 O150 1.955 . S
C134 O145 1.191 . S
C134 O147 1.307 . S
O135 Mg130 2.013 . S
O135 C154 1.191 . S
O136 Mg127 2.081 . S
O136 C144 1.331 . S
O137 Mg133 1.986 . S
O137 C154 1.307 . S
O138 Mg127 2.023 . S
O138 C153 1.264 . S
O139 Mg128 1.942 . S
O139 C144 1.244 . S
O140 Mg128 1.955 . S
O140 C153 1.273 . S
O141 Mg130 2.114 . S
O141 Mg132 2.291 . S
O141 C143 1.312 . S
O142 Mg127 2.031 . S
O142 C143 1.208 . S
C143 O141 1.312 . S
C143 O142 1.208 . S
C144 O136 1.331 . S
C144 O139 1.244 . S
O145 Mg130 2.013 . S
O145 C134 1.191 . S
O146 C125 1.331 . S
O146 Mg132 2.081 1_545 S
O147 Mg128 1.986 . S
O147 C134 1.307 . S
O148 C126 1.264 . S
O148 Mg132 2.023 . S
O149 C125 1.244 . S
O149 Mg133 1.942 1_545 S
O150 C126 1.273 . S
O150 Mg133 1.955 . S
O151 C124 1.312 . S
O151 Mg127 2.291 . S
O151 Mg130 2.114 . S
O152 C124 1.208 . S
O152 Mg132 2.031 . S
C153 O138 1.264 . S
C153 O140 1.273 . S
C154 O135 1.191 . S
C154 O137 1.307 . S
C155 O182 1.312 . S
C155 O183 1.208 . S
C156 O177 1.331 . S
C156 O180 1.244 . S
C157 O179 1.264 . S
C157 O181 1.273 . S
Mg158 O160 1.936 . S
Mg158 O167 2.081 . S
Mg158 O169 2.023 . S
Mg158 O173 2.031 . S
Mg158 O182 2.291 . S
Mg159 O160 1.963 . S
Mg159 O170 1.942 . S
Mg159 O171 1.955 . S
Mg159 O178 1.986 . S
O160 Mg158 1.936 . S
O160 Mg159 1.963 . S
O160 Mg161 1.915 . S
Mg161 O160 1.915 . S
Mg161 O162 1.915 . S
Mg161 O166 2.013 . S
Mg161 O172 2.114 . S
Mg161 O176 2.013 . S
Mg161 O182 2.114 . S
O162 Mg161 1.915 . S
O162 Mg163 1.936 . S
O162 Mg164 1.963 . S
Mg163 O162 1.936 . S
Mg163 O172 2.291 . S
Mg163 O177 2.081 . S
Mg163 O179 2.023 . S
Mg163 O183 2.031 . S
Mg164 O162 1.963 . S
Mg164 O168 1.986 . S
Mg164 O180 1.942 . S
Mg164 O181 1.955 . S
C165 O176 1.191 . S
C165 O178 1.307 . S
O166 Mg161 2.013 . S
O166 C185 1.191 . S
O167 Mg158 2.081 . S
O167 C175 1.331 . S
O168 Mg164 1.986 . S
O168 C185 1.307 . S
O169 Mg158 2.023 . S
O169 C184 1.264 . S
O170 Mg159 1.942 . S
O170 C175 1.244 . S
O171 Mg159 1.955 . S
O171 C184 1.273 . S
O172 Mg161 2.114 . S
O172 Mg163 2.291 . S
O172 C174 1.312 . S
O173 Mg158 2.031 . S
O173 C174 1.208 . S
C174 O172 1.312 . S
C174 O173 1.208 . S
C175 O167 1.331 . S
C175 O170 1.244 . S
O176 Mg161 2.013 . S
O176 C165 1.191 . S
O177 C156 1.331 . S
O177 Mg163 2.081 . S
O178 Mg159 1.986 . S
O178 C165 1.307 . S
O179 C157 1.264 . S
O179 Mg163 2.023 . S
O180 C156 1.244 . S
O180 Mg164 1.942 . S
O181 C157 1.273 . S
O181 Mg164 1.955 . S
O182 C155 1.312 . S
O182 Mg158 2.291 . S
O182 Mg161 2.114 . S
O183 C155 1.208 . S
O183 Mg163 2.031 . S
C184 O169 1.264 . S
C184 O171 1.273 . S
C185 O166 1.191 . S
C185 O168 1.307 . S
C186 C187 1.363 . S
C186 C192 1.379 . S
C186 N194 1.356 . S
C187 C186 1.363 . S
C187 C193 1.363 . S
C188 C189 1.363 . S
C188 C193 1.379 . S
C188 N195 1.356 . S
C189 C188 1.363 . S
C189 C192 1.363 . S
N190 C192 1.356 . S
N190 H202 0.984 . S
N190 H203 0.985 . S
N191 C193 1.356 . S
N191 H196 0.984 . S
N191 H197 0.985 . S
C192 C186 1.379 . S
C192 C189 1.363 . S
C192 N190 1.356 . S
C193 C187 1.363 . S
C193 C188 1.379 . S
C193 N191 1.356 . S
N194 C186 1.356 . S
N194 H200 0.984 . S
N194 H201 0.984 . S
N195 C188 1.356 . S
N195 H198 0.984 . S
N195 H199 0.985 . S
H196 N191 0.984 . S
H197 N191 0.985 . S
H198 N195 0.984 . S
H199 N195 0.985 . S
H200 N194 0.984 . S
H201 N194 0.984 . S
H202 N190 0.984 . S
H203 N190 0.985 . S
C204 C205 1.363 . S
C204 C210 1.379 . S
C204 N212 1.356 . S
C205 C204 1.363 . S
C205 C211 1.363 . S
C206 C207 1.363 . S
C206 C211 1.379 . S
C206 N213 1.356 . S
C207 C206 1.363 . S
C207 C210 1.363 . S
N208 C210 1.356 . S
N208 H220 0.984 . S
N208 H221 0.985 . S
N209 C211 1.356 . S
N209 H214 0.984 . S
N209 H215 0.985 . S
C210 C204 1.379 . S
C210 C207 1.363 . S
C210 N208 1.356 . S
C211 C205 1.363 . S
C211 C206 1.379 . S
C211 N209 1.356 . S
N212 C204 1.356 . S
N212 H218 0.984 . S
N212 H219 0.984 . S
N213 C206 1.356 . S
N213 H216 0.984 . S
N213 H217 0.985 . S
H214 N209 0.984 . S
H215 N209 0.985 . S
H216 N213 0.984 . S
H217 N213 0.985 . S
H218 N212 0.984 . S
H219 N212 0.984 . S
H220 N208 0.984 . S
H221 N208 0.985 . S
C222 C223 1.363 . S
C222 C228 1.379 . S
C222 N230 1.356 . S
C223 C222 1.363 . S
C223 C229 1.363 . S
C224 C225 1.363 . S
C224 C229 1.379 . S
C224 N231 1.356 . S
C225 C224 1.363 . S
C225 C228 1.363 . S
N226 C228 1.356 . S
N226 H238 0.984 . S
N226 H239 0.985 . S
N227 C229 1.356 . S
N227 H232 0.984 . S
N227 H233 0.985 . S
C228 C222 1.379 . S
C228 C225 1.363 . S
C228 N226 1.356 . S
C229 C223 1.363 . S
C229 C224 1.379 . S
C229 N227 1.356 . S
N230 C222 1.356 . S
N230 H236 0.984 . S
N230 H237 0.984 . S
N231 C224 1.356 . S
N231 H234 0.984 . S
N231 H235 0.985 . S
H232 N227 0.984 . S
H233 N227 0.985 . S
H234 N231 0.984 . S
H235 N231 0.985 . S
H236 N230 0.984 . S
H237 N230 0.984 . S
H238 N226 0.984 . S
H239 N226 0.985 . S
C240 C241 1.363 . S
C240 C246 1.379 . S
C240 N248 1.356 . S
C241 C240 1.363 . S
C241 C247 1.363 . S
C242 C243 1.363 . S
C242 C247 1.379 . S
C242 N249 1.356 . S
C243 C242 1.363 . S
C243 C246 1.363 . S
N244 C246 1.356 . S
N244 H256 0.984 . S
N244 H257 0.985 . S
N245 C247 1.356 . S
N245 H250 0.984 . S
N245 H251 0.985 . S
C246 C240 1.379 . S
C246 C243 1.363 . S
C246 N244 1.356 . S
C247 C241 1.363 . S
C247 C242 1.379 . S
C247 N245 1.356 . S
N248 C240 1.356 . S
N248 H254 0.984 . S
N248 H255 0.984 . S
N249 C242 1.356 . S
N249 H252 0.984 . S
N249 H253 0.985 . S
H250 N245 0.984 . S
H251 N245 0.985 . S
H252 N249 0.984 . S
H253 N249 0.985 . S
H254 N248 0.984 . S
H255 N248 0.984 . S
H256 N244 0.984 . S
H257 N244 0.985 . S
C258 C259 1.363 . S
C258 C264 1.379 . S
C258 N266 1.356 . S
C259 C258 1.363 . S
C259 C265 1.363 . S
C260 C261 1.363 . S
C260 C265 1.379 . S
C260 N267 1.356 . S
C261 C260 1.363 . S
C261 C264 1.363 . S
N262 C264 1.356 . S
N262 H274 0.984 . S
N262 H275 0.985 . S
N263 C265 1.356 . S
N263 H268 0.984 . S
N263 H269 0.985 . S
C264 C258 1.379 . S
C264 C261 1.363 . S
C264 N262 1.356 . S
C265 C259 1.363 . S
C265 C260 1.379 . S
C265 N263 1.356 . S
N266 C258 1.356 . S
N266 H272 0.984 . S
N266 H273 0.984 . S
N267 C260 1.356 . S
N267 H270 0.984 . S
N267 H271 0.985 . S
H268 N263 0.984 . S
H269 N263 0.985 . S
H270 N267 0.984 . S
H271 N267 0.985 . S
H272 N266 0.984 . S
H273 N266 0.984 . S
H274 N262 0.984 . S
H275 N262 0.985 . S
C276 C277 1.363 . S
C276 C282 1.379 . S
C276 N284 1.356 . S
C277 C276 1.363 . S
C277 C283 1.363 . S
C278 C279 1.363 . S
C278 C283 1.379 . S
C278 N285 1.356 . S
C279 C278 1.363 . S
C279 C282 1.363 . S
N280 C282 1.356 . S
N280 H292 0.984 . S
N280 H293 0.985 . S
N281 C283 1.356 . S
N281 H286 0.984 . S
N281 H287 0.985 . S
C282 C276 1.379 . S
C282 C279 1.363 . S
C282 N280 1.356 . S
C283 C277 1.363 . S
C283 C278 1.379 . S
C283 N281 1.356 . S
N284 C276 1.356 . S
N284 H290 0.984 . S
N284 H291 0.984 . S
N285 C278 1.356 . S
N285 H288 0.984 . S
N285 H289 0.985 . S
H286 N281 0.984 . S
H287 N281 0.985 . S
H288 N285 0.984 . S
H289 N285 0.985 . S
H290 N284 0.984 . S
H291 N284 0.984 . S
H292 N280 0.984 . S
H293 N280 0.985 . S
C294 C295 1.363 . S
C294 C300 1.379 . S
C294 N302 1.356 . S
C295 C294 1.363 . S
C295 C301 1.363 . S
C296 C297 1.363 . S
C296 C301 1.379 . S
C296 N303 1.356 . S
C297 C296 1.363 . S
C297 C300 1.363 . S
N298 C300 1.356 . S
N298 H310 0.984 . S
N298 H311 0.985 . S
N299 C301 1.356 . S
N299 H304 0.984 . S
N299 H305 0.985 . S
C300 C294 1.379 . S
C300 C297 1.363 . S
C300 N298 1.356 . S
C301 C295 1.363 . S
C301 C296 1.379 . S
C301 N299 1.356 . S
N302 C294 1.356 . S
N302 H308 0.984 . S
N302 H309 0.984 . S
N303 C296 1.356 . S
N303 H306 0.984 . S
N303 H307 0.985 . S
H304 N299 0.984 . S
H305 N299 0.985 . S
H306 N303 0.984 . S
H307 N303 0.985 . S
H308 N302 0.984 . S
H309 N302 0.984 . S
H310 N298 0.984 . S
H311 N298 0.985 . S
C312 C313 1.363 1_455 S
C312 C318 1.379 . S
C312 N320 1.356 1_455 S
C313 C312 1.363 1_655 S
C313 C319 1.363 1_655 S
C314 C315 1.363 . S
C314 C319 1.379 . S
C314 N321 1.356 . S
C315 C314 1.363 . S
C315 C318 1.363 . S
N316 C318 1.356 . S
N316 H328 0.984 . S
N316 H329 0.985 . S
N317 C319 1.356 1_655 S
N317 H322 0.984 . S
N317 H323 0.985 1_655 S
C318 C312 1.379 . S
C318 C315 1.363 . S
C318 N316 1.356 . S
C319 C313 1.363 1_455 S
C319 C314 1.379 . S
C319 N317 1.356 1_455 S
N320 C312 1.356 1_655 S
N320 H326 0.984 . S
N320 H327 0.984 . S
N321 C314 1.356 . S
N321 H324 0.984 . S
N321 H325 0.985 . S
H322 N317 0.984 . S
H323 N317 0.985 1_455 S
H324 N321 0.984 . S
H325 N321 0.985 . S
H326 N320 0.984 . S
H327 N320 0.984 . S
H328 N316 0.984 . S
H329 N316 0.985 . S
C330 C331 1.363 . S
C330 C336 1.379 . S
C330 N338 1.356 . S
C331 C330 1.363 . S
C331 C337 1.363 . S
C332 C333 1.363 1_545 S
C332 C337 1.379 . S
C332 N339 1.356 1_545 S
C333 C332 1.363 1_565 S
C333 C336 1.363 1_565 S
N334 C336 1.356 1_565 S
N334 H346 0.984 . S
N334 H347 0.985 . S
N335 C337 1.356 . S
N335 H340 0.984 . S
N335 H341 0.985 1_655 S
C336 C330 1.379 . S
C336 C333 1.363 1_545 S
C336 N334 1.356 1_545 S
C337 C331 1.363 . S
C337 C332 1.379 . S
C337 N335 1.356 . S
N338 C330 1.356 . S
N338 H344 0.984 . S
N338 H345 0.984 . S
N339 C332 1.356 1_565 S
N339 H342 0.984 . S
N339 H343 0.985 . S
H340 N335 0.984 . S
H341 N335 0.985 1_455 S
H342 N339 0.984 . S
H343 N339 0.985 . S
H344 N338 0.984 . S
H345 N338 0.984 . S
H346 N334 0.984 . S
H347 N334 0.985 . S
C348 C349 1.363 . S
C348 C354 1.379 . S
C348 N356 1.356 . S
C349 C348 1.363 . S
C349 C355 1.363 . S
C350 C351 1.363 . S
C350 C355 1.379 . S
C350 N357 1.356 . S
C351 C350 1.363 . S
C351 C354 1.363 . S
N352 C354 1.356 . S
N352 H364 0.984 . S
N352 H365 0.985 . S
N353 C355 1.356 . S
N353 H358 0.984 . S
N353 H359 0.985 . S
C354 C348 1.379 . S
C354 C351 1.363 . S
C354 N352 1.356 . S
C355 C349 1.363 . S
C355 C350 1.379 . S
C355 N353 1.356 . S
N356 C348 1.356 . S
N356 H362 0.984 . S
N356 H363 0.984 . S
N357 C350 1.356 . S
N357 H360 0.984 . S
N357 H361 0.985 . S
H358 N353 0.984 . S
H359 N353 0.985 . S
H360 N357 0.984 . S
H361 N357 0.985 . S
H362 N356 0.984 . S
H363 N356 0.984 . S
H364 N352 0.984 . S
H365 N352 0.985 . S
C366 C367 1.363 . S
C366 C372 1.379 . S
C366 N374 1.356 . S
C367 C366 1.363 . S
C367 C373 1.363 . S
C368 C369 1.363 1_655 S
C368 C373 1.379 . S
C368 N375 1.356 1_655 S
C369 C368 1.363 1_455 S
C369 C372 1.363 1_455 S
N370 C372 1.356 1_455 S
N370 H382 0.984 . S
N370 H383 0.985 . S
N371 C373 1.356 . S
N371 H376 0.984 . S
N371 H377 0.985 . S
C372 C366 1.379 . S
C372 C369 1.363 1_655 S
C372 N370 1.356 1_655 S
C373 C367 1.363 . S
C373 C368 1.379 . S
C373 N371 1.356 . S
N374 C366 1.356 . S
N374 H380 0.984 . S
N374 H381 0.984 . S
N375 C368 1.356 1_455 S
N375 H378 0.984 . S
N375 H379 0.985 . S
H376 N371 0.984 . S
H377 N371 0.985 . S
H378 N375 0.984 . S
H379 N375 0.985 . S
H380 N374 0.984 . S
H381 N374 0.984 . S
H382 N370 0.984 . S
H383 N370 0.985 . S
C384 C385 1.363 1_565 S
C384 C390 1.379 . S
C384 N392 1.356 1_565 S
C385 C384 1.363 1_545 S
C385 C391 1.363 1_545 S
C386 C387 1.363 . S
C386 C391 1.379 . S
C386 N393 1.356 . S
C387 C386 1.363 . S
C387 C390 1.363 . S
N388 C390 1.356 . S
N388 H400 0.984 . S
N388 H401 0.985 . S
N389 C391 1.356 1_545 S
N389 H394 0.984 . S
N389 H395 0.984 . S
C390 C384 1.379 . S
C390 C387 1.363 . S
C390 N388 1.356 . S
C391 C385 1.363 1_565 S
C391 C386 1.379 . S
C391 N389 1.356 1_565 S
N392 C384 1.356 1_545 S
N392 H398 0.984 . S
N392 H399 0.984 . S
N393 C386 1.356 . S
N393 H396 0.984 . S
N393 H397 0.985 . S
H394 N389 0.984 . S
H395 N389 0.984 . S
H396 N393 0.984 . S
H397 N393 0.985 . S
H398 N392 0.984 . S
H399 N392 0.984 . S
H400 N388 0.984 . S
H401 N388 0.985 . S
C402 C403 1.363 . S
C402 C408 1.379 1_554 S
C402 N410 1.356 . S
C403 C402 1.363 . S
C403 C409 1.363 . S
C404 C405 1.363 1_554 S
C404 C409 1.379 . S
C404 N411 1.356 1_554 S
C405 C404 1.363 1_556 S
C405 C408 1.363 . S
N406 C408 1.356 . S
N406 H418 0.984 . S
N406 H419 0.985 . S
N407 C409 1.356 . S
N407 H412 0.984 . S
N407 H413 0.985 . S
C408 C402 1.379 1_556 S
C408 C405 1.363 . S
C408 N406 1.356 . S
C409 C403 1.363 . S
C409 C404 1.379 . S
C409 N407 1.356 . S
N410 C402 1.356 . S
N410 H416 0.984 1_554 S
N410 H417 0.984 . S
N411 C404 1.356 1_556 S
N411 H414 0.984 . S
N411 H415 0.985 1_556 S
H412 N407 0.984 . S
H413 N407 0.985 . S
H414 N411 0.984 . S
H415 N411 0.985 1_554 S
H416 N410 0.984 1_556 S
H417 N410 0.984 . S
H418 N406 0.984 . S
H419 N406 0.985 . S
C420 C421 1.363 . S
C420 C426 1.379 . S
C420 N428 1.356 . S
C421 C420 1.363 . S
C421 C427 1.363 . S
C422 C423 1.363 . S
C422 C427 1.379 1_455 S
C422 N429 1.356 . S
C423 C422 1.363 . S
C423 C426 1.363 1_455 S
N424 C426 1.356 1_455 S
N424 H436 0.984 1_455 S
N424 H437 0.985 . S
N425 C427 1.356 . S
N425 H430 0.984 . S
N425 H431 0.985 . S
C426 C420 1.379 . S
C426 C423 1.363 1_655 S
C426 N424 1.356 1_655 S
C427 C421 1.363 . S
C427 C422 1.379 1_655 S
C427 N425 1.356 . S
N428 C420 1.356 . S
N428 H434 0.984 . S
N428 H435 0.984 . S
N429 C422 1.356 . S
N429 H432 0.984 . S
N429 H433 0.985 . S
H430 N425 0.984 . S
H431 N425 0.985 . S
H432 N429 0.984 . S
H433 N429 0.985 . S
H434 N428 0.984 . S
H435 N428 0.984 . S
H436 N424 0.984 1_655 S
H437 N424 0.985 . S
C438 C439 1.363 1_545 S
C438 C444 1.379 . S
C438 N446 1.356 . S
C439 C438 1.363 1_565 S
C439 C445 1.363 . S
C440 C441 1.363 1_565 S
C440 C445 1.379 1_556 S
C440 N447 1.356 . S
C441 C440 1.363 1_545 S
C441 C444 1.363 1_556 S
N442 C444 1.356 1_556 S
N442 H454 0.984 1_556 S
N442 H455 0.985 . S
N443 C445 1.356 . S
N443 H448 0.984 . S
N443 H449 0.985 . S
C444 C438 1.379 . S
C444 C441 1.363 1_554 S
C444 N442 1.356 1_554 S
C445 C439 1.363 . S
C445 C440 1.379 1_554 S
C445 N443 1.356 . S
N446 C438 1.356 . S
N446 H452 0.984 . S
N446 H453 0.984 1_545 S
N447 C440 1.356 . S
N447 H450 0.984 . S
N447 H451 0.985 . S
H448 N443 0.984 . S
H449 N443 0.985 . S
H450 N447 0.984 . S
H451 N447 0.985 . S
H452 N446 0.984 . S
H453 N446 0.984 1_565 S
H454 N442 0.984 1_554 S
H455 N442 0.985 . S
C456 C457 1.363 . S
C456 C462 1.379 . S
C456 N464 1.356 . S
C457 C456 1.363 . S
C457 C463 1.363 . S
C458 C459 1.363 . S
C458 C463 1.379 . S
C458 N465 1.356 . S
C459 C458 1.363 . S
C459 C462 1.363 . S
N460 C462 1.356 . S
N460 H472 0.984 . S
N460 H473 0.985 . S
N461 C463 1.356 . S
N461 H466 0.984 . S
N461 H467 0.985 . S
C462 C456 1.379 . S
C462 C459 1.363 . S
C462 N460 1.356 . S
C463 C457 1.363 . S
C463 C458 1.379 . S
C463 N461 1.356 . S
N464 C456 1.356 . S
N464 H470 0.984 . S
N464 H471 0.984 . S
N465 C458 1.356 . S
N465 H468 0.984 . S
N465 H469 0.985 . S
H466 N461 0.984 . S
H467 N461 0.985 . S
H468 N465 0.984 . S
H469 N465 0.985 . S
H470 N464 0.984 . S
H471 N464 0.984 . S
H472 N460 0.984 . S
H473 N460 0.985 . S
C474 C475 1.365 . S
C474 C480 1.377 1_656 S
C474 N482 1.356 . S
C475 C474 1.365 . S
C475 C481 1.363 . S
C476 C477 1.363 . S
C476 C481 1.379 1_454 S
C476 N483 1.356 . S
C477 C476 1.363 . S
C477 C480 1.363 . S
N478 C480 1.356 . S
N478 H490 0.984 . S
N478 H491 0.985 . S
N479 C481 1.356 . S
N479 H484 0.984 . S
N479 H485 0.985 . S
C480 C474 1.377 1_454 S
C480 C477 1.363 . S
C480 N478 1.356 . S
C481 C475 1.363 . S
C481 C476 1.379 1_656 S
C481 N479 1.356 . S
N482 C474 1.356 . S
N482 H488 0.984 . S
N482 H489 0.984 . S
N483 C476 1.356 . S
N483 H486 0.984 . S
N483 H487 0.985 . S
H484 N479 0.984 . S
H485 N479 0.985 . S
H486 N483 0.984 . S
H487 N483 0.985 . S
H488 N482 0.984 . S
H489 N482 0.984 . S
H490 N478 0.984 . S
H491 N478 0.985 . S
C492 C493 1.363 . S
C492 C498 1.379 . S
C492 N500 1.356 . S
C493 C492 1.363 . S
C493 C499 1.363 . S
C494 C495 1.363 . S
C494 C499 1.379 1_565 S
C494 N501 1.356 . S
C495 C494 1.363 . S
C495 C498 1.363 1_565 S
N496 C498 1.356 . S
N496 H508 0.984 . S
N496 H509 0.985 1_545 S
N497 C499 1.356 . S
N497 H502 0.984 . S
N497 H503 0.985 1_545 S
C498 C492 1.379 . S
C498 C495 1.363 1_545 S
C498 N496 1.356 . S
C499 C493 1.363 . S
C499 C494 1.379 1_545 S
C499 N497 1.356 . S
N500 C492 1.356 . S
N500 H506 0.984 . S
N500 H507 0.984 . S
N501 C494 1.356 . S
N501 H504 0.984 . S
N501 H505 0.985 . S
H502 N497 0.984 . S
H503 N497 0.985 1_565 S
H504 N501 0.984 . S
H505 N501 0.985 . S
H506 N500 0.984 . S
H507 N500 0.984 . S
H508 N496 0.984 . S
H509 N496 0.985 1_565 S
C510 C511 1.363 1_554 S
C510 C516 1.379 . S
C510 N518 1.356 1_554 S
C511 C510 1.363 1_556 S
C511 C517 1.363 . S
C512 C513 1.363 1_556 S
C512 C517 1.379 . S
C512 N519 1.356 1_556 S
C513 C512 1.363 1_554 S
C513 C516 1.363 . S
N514 C516 1.356 . S
N514 H526 0.984 . S
N514 H527 0.985 . S
N515 C517 1.356 . S
N515 H520 0.984 . S
N515 H521 0.985 . S
C516 C510 1.379 . S
C516 C513 1.363 . S
C516 N514 1.356 . S
C517 C511 1.363 . S
C517 C512 1.379 . S
C517 N515 1.356 . S
N518 C510 1.356 1_556 S
N518 H524 0.984 1_556 S
N518 H525 0.984 . S
N519 C512 1.356 1_554 S
N519 H522 0.984 . S
N519 H523 0.985 1_554 S
H520 N515 0.984 . S
H521 N515 0.985 . S
H522 N519 0.984 . S
H523 N519 0.985 1_556 S
H524 N518 0.984 1_554 S
H525 N518 0.984 . S
H526 N514 0.984 . S
H527 N514 0.985 . S
C528 C529 1.363 . S
C528 C534 1.379 1_455 S
C528 N536 1.356 . S
C529 C528 1.363 . S
C529 C535 1.363 . S
C530 C531 1.363 1_455 S
C530 C535 1.379 . S
C530 N537 1.356 . S
C531 C530 1.363 1_655 S
C531 C534 1.363 . S
N532 C534 1.356 . S
N532 H544 0.984 . S
N532 H545 0.985 . S
N533 C535 1.356 . S
N533 H538 0.984 . S
N533 H539 0.985 . S
C534 C528 1.379 1_655 S
C534 C531 1.363 . S
C534 N532 1.356 . S
C535 C529 1.363 . S
C535 C530 1.379 . S
C535 N533 1.356 . S
N536 C528 1.356 . S
N536 H542 0.984 1_455 S
N536 H543 0.984 . S
N537 C530 1.356 . S
N537 H540 0.984 . S
N537 H541 0.985 . S
H538 N533 0.984 . S
H539 N533 0.985 . S
H540 N537 0.984 . S
H541 N537 0.985 . S
H542 N536 0.984 1_655 S
H543 N536 0.984 . S
H544 N532 0.984 . S
H545 N532 0.985 . S
C546 C547 1.363 . S
C546 C552 1.379 1_545 S
C546 N554 1.356 . S
C547 C546 1.363 . S
C547 C553 1.363 1_556 S
C548 C549 1.363 1_545 S
C548 C553 1.379 . S
C548 N555 1.356 . S
C549 C548 1.363 1_565 S
C549 C552 1.363 1_554 S
N550 C552 1.356 1_554 S
N550 H562 0.984 1_554 S
N550 H563 0.985 . S
N551 C553 1.357 . S
N551 H556 0.981 1_554 S
N551 H557 0.987 . S
C552 C546 1.379 1_565 S
C552 C549 1.363 1_556 S
C552 N550 1.356 1_556 S
C553 C547 1.363 1_554 S
C553 C548 1.379 . S
C553 N551 1.357 . S
N554 C546 1.356 . S
N554 H560 0.984 1_545 S
N554 H561 0.984 . S
N555 C548 1.356 . S
N555 H558 0.984 1_545 S
N555 H559 0.985 . S
H556 N551 0.981 1_556 S
H557 N551 0.987 . S
H558 N555 0.984 1_565 S
H559 N555 0.985 . S
H560 N554 0.984 1_565 S
H561 N554 0.984 . S
H562 N550 0.984 1_556 S
H563 N550 0.985 . S
C564 C565 1.363 . S
C564 C570 1.379 . S
C564 N572 1.356 . S
C565 C564 1.363 . S
C565 C571 1.363 . S
C566 C567 1.363 . S
C566 C571 1.379 . S
C566 N573 1.356 . S
C567 C566 1.363 . S
C567 C570 1.363 . S
N568 C570 1.356 . S
N568 H580 0.984 . S
N568 H581 0.985 . S
N569 C571 1.356 . S
N569 H574 0.984 . S
N569 H575 0.985 . S
C570 C564 1.379 . S
C570 C567 1.363 . S
C570 N568 1.356 . S
C571 C565 1.363 . S
C571 C566 1.379 . S
C571 N569 1.356 . S
N572 C564 1.356 . S
N572 H578 0.984 . S
N572 H579 0.984 . S
N573 C566 1.356 . S
N573 H576 0.984 . S
N573 H577 0.985 . S
H574 N569 0.984 . S
H575 N569 0.985 . S
H576 N573 0.984 . S
H577 N573 0.985 . S
H578 N572 0.984 . S
H579 N572 0.984 . S
H580 N568 0.984 . S
H581 N568 0.985 . S
C582 C583 1.363 1_556 S
C582 C588 1.379 1_455 S
C582 N590 1.356 1_556 S
C583 C582 1.363 1_554 S
C583 C589 1.363 1_455 S
C584 C585 1.363 1_554 S
C584 C589 1.379 . S
C584 N591 1.356 1_554 S
C585 C584 1.363 1_556 S
C585 C588 1.363 . S
N586 C588 1.356 . S
N586 H598 0.984 1_655 S
N586 H599 0.985 . S
N587 C589 1.356 . S
N587 H592 0.984 1_655 S
N587 H593 0.985 . S
C588 C582 1.379 1_655 S
C588 C585 1.363 . S
C588 N586 1.356 . S
C589 C583 1.363 1_655 S
C589 C584 1.379 . S
C589 N587 1.356 . S
N590 C582 1.356 1_554 S
N590 H596 0.984 1_554 S
N590 H597 0.984 . S
N591 C584 1.356 1_556 S
N591 H594 0.984 . S
N591 H595 0.985 1_556 S
H592 N587 0.984 1_455 S
H593 N587 0.985 . S
H594 N591 0.984 . S
H595 N591 0.985 1_554 S
H596 N590 0.984 1_556 S
H597 N590 0.984 . S
H598 N586 0.984 1_455 S
H599 N586 0.985 . S
C600 C601 1.363 1_565 S
C600 C606 1.379 . S
C600 N608 1.356 1_565 S
C601 C600 1.363 1_545 S
C601 C607 1.363 1_545 S
C602 C603 1.363 . S
C602 C607 1.379 . S
C602 N609 1.356 . S
C603 C602 1.363 . S
C603 C606 1.363 . S
N604 C606 1.356 . S
N604 H616 0.984 . S
N604 H617 0.985 . S
N605 C607 1.356 1_545 S
N605 H610 0.984 . S
N605 H611 0.985 . S
C606 C600 1.379 . S
C606 C603 1.363 . S
C606 N604 1.356 . S
C607 C601 1.363 1_565 S
C607 C602 1.379 . S
C607 N605 1.356 1_565 S
N608 C600 1.356 1_545 S
N608 H614 0.984 . S
N608 H615 0.984 . S
N609 C602 1.356 . S
N609 H612 0.984 . S
N609 H613 0.985 . S
H610 N605 0.984 . S
H611 N605 0.985 . S
H612 N609 0.984 . S
H613 N609 0.985 . S
H614 N608 0.984 . S
H615 N608 0.984 . S
H616 N604 0.984 . S
H617 N604 0.985 . S
C187 C19 1.253 . S
C189 C144 1.394 . S
C205 C156 1.394 . S
C207 C31 1.254 . S
C223 C20 1.394 . S
C225 C81 1.254 . S
C241 C32 1.394 . S
C243 C93 1.253 . S
C259 C143 1.254 . S
C261 C82 1.394 . S
C277 C155 1.254 . S
C279 C94 1.394 . S
C295 C30 1.214 . S
C297 C125 1.267 . S
C313 C41 1.214 . S
C315 C175 1.267 . S
C331 C1 1.267 . S
C333 C92 1.214 . S
C349 C51 1.267 . S
C351 C103 1.214 . S
C367 C63 1.267 . S
C369 C154 1.214 . S
C385 C165 1.214 . S
C387 C113 1.267 . S
C403 C29 1.065 . S
C405 C184 1.036 . S
C421 C33 1.065 . S
C423 C2 1.036 . S
C439 C91 1.065 . S
C441 C60 1.036 . S
C457 C95 1.065 . S
C459 C64 1.036 . S
C475 C122 1.036 . S
C477 C153 1.065 . S
C493 C157 1.065 . S
C495 C126 1.036 . S
C511 C123 2.277 . S
C513 C62 2.317 . S
C529 C134 2.277 . S
C531 C112 2.317 . S
C547 C185 2.277 . S
C549 C124 2.317 . S
C565 C174 2.317 . S
C567 C10 2.277 . S
C583 C0 2.317 . S
C585 C61 2.277 . S
C601 C50 2.317 . S
C603 C72 2.277 . S
