# Generated by pormake.
# Topology unt, (4)-cn, num edge types: 1
# Building blocks:
#     Node 0, Type 0, BuildingBlock: NAWXER_clean_sbu_0, # of connection points: 4
#     Node 1, Type 0, BuildingBlock: NAWXER_clean_sbu_0, # of connection points: 4
#     Node 2, Type 0, BuildingBlock: NAWXER_clean_sbu_0, # of connection points: 4
#     Node 3, Type 0, BuildingBlock: NAWXER_clean_sbu_0, # of connection points: 4
#     Node 4, Type 0, BuildingBlock: NAWXER_clean_sbu_0, # of connection points: 4
#     Node 5, Type 0, BuildingBlock: NAWXER_clean_sbu_0, # of connection points: 4
#     Node 6, Type 0, BuildingBlock: NAWXER_clean_sbu_0, # of connection points: 4
#     Node 7, Type 0, BuildingBlock: NAWXER_clean_sbu_0, # of connection points: 4
#     Node 8, Type 0, BuildingBlock: NAWXER_clean_sbu_0, # of connection points: 4
#     Node 9, Type 0, BuildingBlock: NAWXER_clean_sbu_0, # of connection points: 4
#     Node 10, Type 0, BuildingBlock: NAWXER_clean_sbu_0, # of connection points: 4
#     Node 11, Type 0, BuildingBlock: NAWXER_clean_sbu_0, # of connection points: 4
#     Node 12, Type 0, BuildingBlock: NAWXER_clean_sbu_0, # of connection points: 4
#     Node 13, Type 0, BuildingBlock: NAWXER_clean_sbu_0, # of connection points: 4
#     Node 14, Type 0, BuildingBlock: NAWXER_clean_sbu_0, # of connection points: 4
#     Node 15, Type 0, BuildingBlock: NAWXER_clean_sbu_0, # of connection points: 4
#     Node 16, Type 0, BuildingBlock: NAWXER_clean_sbu_0, # of connection points: 4
#     Node 17, Type 0, BuildingBlock: NAWXER_clean_sbu_0, # of connection points: 4
#     Node 18, Type 0, BuildingBlock: NAWXER_clean_sbu_0, # of connection points: 4
#     Node 19, Type 0, BuildingBlock: NAWXER_clean_sbu_0, # of connection points: 4
#     Node 20, Type 0, BuildingBlock: NAWXER_clean_sbu_0, # of connection points: 4
#     Node 21, Type 0, BuildingBlock: NAWXER_clean_sbu_0, # of connection points: 4
#     Node 22, Type 0, BuildingBlock: NAWXER_clean_sbu_0, # of connection points: 4
#     Node 23, Type 0, BuildingBlock: NAWXER_clean_sbu_0, # of connection points: 4
#     Node 24, Type 0, BuildingBlock: NAWXER_clean_sbu_0, # of connection points: 4
#     Node 25, Type 0, BuildingBlock: NAWXER_clean_sbu_0, # of connection points: 4
#     Node 26, Type 0, BuildingBlock: NAWXER_clean_sbu_0, # of connection points: 4
#     Node 27, Type 0, BuildingBlock: NAWXER_clean_sbu_0, # of connection points: 4
#     Node 28, Type 0, BuildingBlock: NAWXER_clean_sbu_0, # of connection points: 4
#     Node 29, Type 0, BuildingBlock: NAWXER_clean_sbu_0, # of connection points: 4
#     Node 30, Type 0, BuildingBlock: NAWXER_clean_sbu_0, # of connection points: 4
#     Node 31, Type 0, BuildingBlock: NAWXER_clean_sbu_0, # of connection points: 4
#     Node 32, Type 0, BuildingBlock: NAWXER_clean_sbu_0, # of connection points: 4
#     Node 33, Type 0, BuildingBlock: NAWXER_clean_sbu_0, # of connection points: 4
#     Node 34, Type 0, BuildingBlock: NAWXER_clean_sbu_0, # of connection points: 4
#     Node 35, Type 0, BuildingBlock: NAWXER_clean_sbu_0, # of connection points: 4
#     Node 36, Type 0, BuildingBlock: NAWXER_clean_sbu_0, # of connection points: 4
#     Node 37, Type 0, BuildingBlock: NAWXER_clean_sbu_0, # of connection points: 4
#     Node 38, Type 0, BuildingBlock: NAWXER_clean_sbu_0, # of connection points: 4
#     Node 39, Type 0, BuildingBlock: NAWXER_clean_sbu_0, # of connection points: 4
#     Node 40, Type 0, BuildingBlock: NAWXER_clean_sbu_0, # of connection points: 4
#     Node 41, Type 0, BuildingBlock: NAWXER_clean_sbu_0, # of connection points: 4
#     Node 42, Type 0, BuildingBlock: NAWXER_clean_sbu_0, # of connection points: 4
#     Node 43, Type 0, BuildingBlock: NAWXER_clean_sbu_0, # of connection points: 4
#     Node 44, Type 0, BuildingBlock: NAWXER_clean_sbu_0, # of connection points: 4
#     Node 45, Type 0, BuildingBlock: NAWXER_clean_sbu_0, # of connection points: 4
#     Node 46, Type 0, BuildingBlock: NAWXER_clean_sbu_0, # of connection points: 4
#     Node 47, Type 0, BuildingBlock: NAWXER_clean_sbu_0, # of connection points: 4
#     Node 48, Type 0, BuildingBlock: NAWXER_clean_sbu_0, # of connection points: 4
#     Node 49, Type 0, BuildingBlock: NAWXER_clean_sbu_0, # of connection points: 4
#     Node 50, Type 0, BuildingBlock: NAWXER_clean_sbu_0, # of connection points: 4
#     Node 51, Type 0, BuildingBlock: NAWXER_clean_sbu_0, # of connection points: 4
#     Node 52, Type 0, BuildingBlock: NAWXER_clean_sbu_0, # of connection points: 4
#     Node 53, Type 0, BuildingBlock: NAWXER_clean_sbu_0, # of connection points: 4
#     Node 54, Type 0, BuildingBlock: NAWXER_clean_sbu_0, # of connection points: 4
#     Node 55, Type 0, BuildingBlock: NAWXER_clean_sbu_0, # of connection points: 4
#     Node 56, Type 0, BuildingBlock: NAWXER_clean_sbu_0, # of connection points: 4
#     Node 57, Type 0, BuildingBlock: NAWXER_clean_sbu_0, # of connection points: 4
#     Node 58, Type 0, BuildingBlock: NAWXER_clean_sbu_0, # of connection points: 4
#     Node 59, Type 0, BuildingBlock: NAWXER_clean_sbu_0, # of connection points: 4
#     Node 60, Type 0, BuildingBlock: NAWXER_clean_sbu_0, # of connection points: 4
#     Node 61, Type 0, BuildingBlock: NAWXER_clean_sbu_0, # of connection points: 4
#     Node 62, Type 0, BuildingBlock: NAWXER_clean_sbu_0, # of connection points: 4
#     Node 63, Type 0, BuildingBlock: NAWXER_clean_sbu_0, # of connection points: 4
#     Node 64, Type 0, BuildingBlock: NAWXER_clean_sbu_0, # of connection points: 4
#     Node 65, Type 0, BuildingBlock: NAWXER_clean_sbu_0, # of connection points: 4
#     Node 66, Type 0, BuildingBlock: NAWXER_clean_sbu_0, # of connection points: 4
#     Node 67, Type 0, BuildingBlock: NAWXER_clean_sbu_0, # of connection points: 4
#     Node 68, Type 0, BuildingBlock: NAWXER_clean_sbu_0, # of connection points: 4
#     Node 69, Type 0, BuildingBlock: NAWXER_clean_sbu_0, # of connection points: 4
#     Node 70, Type 0, BuildingBlock: NAWXER_clean_sbu_0, # of connection points: 4
#     Node 71, Type 0, BuildingBlock: NAWXER_clean_sbu_0, # of connection points: 4
#     Node 72, Type 0, BuildingBlock: NAWXER_clean_sbu_0, # of connection points: 4
#     Node 73, Type 0, BuildingBlock: NAWXER_clean_sbu_0, # of connection points: 4
#     Node 74, Type 0, BuildingBlock: NAWXER_clean_sbu_0, # of connection points: 4
#     Node 75, Type 0, BuildingBlock: NAWXER_clean_sbu_0, # of connection points: 4
#     Node 76, Type 0, BuildingBlock: NAWXER_clean_sbu_0, # of connection points: 4
#     Node 77, Type 0, BuildingBlock: NAWXER_clean_sbu_0, # of connection points: 4
#     Node 78, Type 0, BuildingBlock: NAWXER_clean_sbu_0, # of connection points: 4
#     Node 79, Type 0, BuildingBlock: NAWXER_clean_sbu_0, # of connection points: 4
#     Node 80, Type 0, BuildingBlock: NAWXER_clean_sbu_0, # of connection points: 4
#     Node 81, Type 0, BuildingBlock: NAWXER_clean_sbu_0, # of connection points: 4
#     Node 82, Type 0, BuildingBlock: NAWXER_clean_sbu_0, # of connection points: 4
#     Node 83, Type 0, BuildingBlock: NAWXER_clean_sbu_0, # of connection points: 4
#     Node 84, Type 0, BuildingBlock: NAWXER_clean_sbu_0, # of connection points: 4
#     Node 85, Type 0, BuildingBlock: NAWXER_clean_sbu_0, # of connection points: 4
#     Node 86, Type 0, BuildingBlock: NAWXER_clean_sbu_0, # of connection points: 4
#     Node 87, Type 0, BuildingBlock: NAWXER_clean_sbu_0, # of connection points: 4
#     Node 88, Type 0, BuildingBlock: NAWXER_clean_sbu_0, # of connection points: 4
#     Node 89, Type 0, BuildingBlock: NAWXER_clean_sbu_0, # of connection points: 4
#     Node 90, Type 0, BuildingBlock: NAWXER_clean_sbu_0, # of connection points: 4
#     Node 91, Type 0, BuildingBlock: NAWXER_clean_sbu_0, # of connection points: 4
#     Node 92, Type 0, BuildingBlock: NAWXER_clean_sbu_0, # of connection points: 4
#     Node 93, Type 0, BuildingBlock: NAWXER_clean_sbu_0, # of connection points: 4
#     Node 94, Type 0, BuildingBlock: NAWXER_clean_sbu_0, # of connection points: 4
#     Node 95, Type 0, BuildingBlock: NAWXER_clean_sbu_0, # of connection points: 4
#     Node 96, Type 0, BuildingBlock: NAWXER_clean_sbu_0, # of connection points: 4
#     Node 97, Type 0, BuildingBlock: NAWXER_clean_sbu_0, # of connection points: 4
#     Node 98, Type 0, BuildingBlock: NAWXER_clean_sbu_0, # of connection points: 4
#     Node 99, Type 0, BuildingBlock: NAWXER_clean_sbu_0, # of connection points: 4
#     Node 100, Type 0, BuildingBlock: NAWXER_clean_sbu_0, # of connection points: 4
#     Node 101, Type 0, BuildingBlock: NAWXER_clean_sbu_0, # of connection points: 4
#     Node 102, Type 0, BuildingBlock: NAWXER_clean_sbu_0, # of connection points: 4
#     Node 103, Type 0, BuildingBlock: NAWXER_clean_sbu_0, # of connection points: 4
#     Node 104, Type 0, BuildingBlock: NAWXER_clean_sbu_0, # of connection points: 4
#     Node 105, Type 0, BuildingBlock: NAWXER_clean_sbu_0, # of connection points: 4
#     Node 106, Type 0, BuildingBlock: NAWXER_clean_sbu_0, # of connection points: 4
#     Node 107, Type 0, BuildingBlock: NAWXER_clean_sbu_0, # of connection points: 4
#     Node 108, Type 0, BuildingBlock: NAWXER_clean_sbu_0, # of connection points: 4
#     Node 109, Type 0, BuildingBlock: NAWXER_clean_sbu_0, # of connection points: 4
#     Node 110, Type 0, BuildingBlock: NAWXER_clean_sbu_0, # of connection points: 4
#     Node 111, Type 0, BuildingBlock: NAWXER_clean_sbu_0, # of connection points: 4
#     Node 112, Type 0, BuildingBlock: NAWXER_clean_sbu_0, # of connection points: 4
#     Node 113, Type 0, BuildingBlock: NAWXER_clean_sbu_0, # of connection points: 4
#     Node 114, Type 0, BuildingBlock: NAWXER_clean_sbu_0, # of connection points: 4
#     Node 115, Type 0, BuildingBlock: NAWXER_clean_sbu_0, # of connection points: 4
#     Node 116, Type 0, BuildingBlock: NAWXER_clean_sbu_0, # of connection points: 4
#     Node 117, Type 0, BuildingBlock: NAWXER_clean_sbu_0, # of connection points: 4
#     Node 118, Type 0, BuildingBlock: NAWXER_clean_sbu_0, # of connection points: 4
#     Node 119, Type 0, BuildingBlock: NAWXER_clean_sbu_0, # of connection points: 4
#     Node 120, Type 0, BuildingBlock: NAWXER_clean_sbu_0, # of connection points: 4
#     Node 121, Type 0, BuildingBlock: NAWXER_clean_sbu_0, # of connection points: 4
#     Node 122, Type 0, BuildingBlock: NAWXER_clean_sbu_0, # of connection points: 4
#     Node 123, Type 0, BuildingBlock: NAWXER_clean_sbu_0, # of connection points: 4
#     Node 124, Type 0, BuildingBlock: NAWXER_clean_sbu_0, # of connection points: 4
#     Node 125, Type 0, BuildingBlock: NAWXER_clean_sbu_0, # of connection points: 4
#     Node 126, Type 0, BuildingBlock: NAWXER_clean_sbu_0, # of connection points: 4
#     Node 127, Type 0, BuildingBlock: NAWXER_clean_sbu_0, # of connection points: 4
#     Node 128, Type 0, BuildingBlock: NAWXER_clean_sbu_0, # of connection points: 4
#     Node 129, Type 0, BuildingBlock: NAWXER_clean_sbu_0, # of connection points: 4
#     Node 130, Type 0, BuildingBlock: NAWXER_clean_sbu_0, # of connection points: 4
#     Node 131, Type 0, BuildingBlock: NAWXER_clean_sbu_0, # of connection points: 4
#     Node 132, Type 0, BuildingBlock: NAWXER_clean_sbu_0, # of connection points: 4
#     Node 133, Type 0, BuildingBlock: NAWXER_clean_sbu_0, # of connection points: 4
#     Node 134, Type 0, BuildingBlock: NAWXER_clean_sbu_0, # of connection points: 4
#     Node 135, Type 0, BuildingBlock: NAWXER_clean_sbu_0, # of connection points: 4
#     Node 136, Type 0, BuildingBlock: NAWXER_clean_sbu_0, # of connection points: 4
#     Node 137, Type 0, BuildingBlock: NAWXER_clean_sbu_0, # of connection points: 4
#     Node 138, Type 0, BuildingBlock: NAWXER_clean_sbu_0, # of connection points: 4
#     Node 139, Type 0, BuildingBlock: NAWXER_clean_sbu_0, # of connection points: 4
#     Node 140, Type 0, BuildingBlock: NAWXER_clean_sbu_0, # of connection points: 4
#     Node 141, Type 0, BuildingBlock: NAWXER_clean_sbu_0, # of connection points: 4
#     Node 142, Type 0, BuildingBlock: NAWXER_clean_sbu_0, # of connection points: 4
#     Node 143, Type 0, BuildingBlock: NAWXER_clean_sbu_0, # of connection points: 4
#     Node 144, Type 0, BuildingBlock: NAWXER_clean_sbu_0, # of connection points: 4
#     Node 145, Type 0, BuildingBlock: NAWXER_clean_sbu_0, # of connection points: 4
#     Node 146, Type 0, BuildingBlock: NAWXER_clean_sbu_0, # of connection points: 4
#     Node 147, Type 0, BuildingBlock: NAWXER_clean_sbu_0, # of connection points: 4
#     Node 148, Type 0, BuildingBlock: NAWXER_clean_sbu_0, # of connection points: 4
#     Node 149, Type 0, BuildingBlock: NAWXER_clean_sbu_0, # of connection points: 4
#     Node 150, Type 0, BuildingBlock: NAWXER_clean_sbu_0, # of connection points: 4
#     Node 151, Type 0, BuildingBlock: NAWXER_clean_sbu_0, # of connection points: 4
#     Node 152, Type 0, BuildingBlock: NAWXER_clean_sbu_0, # of connection points: 4
#     Node 153, Type 0, BuildingBlock: NAWXER_clean_sbu_0, # of connection points: 4
#     Node 154, Type 0, BuildingBlock: NAWXER_clean_sbu_0, # of connection points: 4
#     Node 155, Type 0, BuildingBlock: NAWXER_clean_sbu_0, # of connection points: 4
#     Node 156, Type 0, BuildingBlock: NAWXER_clean_sbu_0, # of connection points: 4
#     Node 157, Type 0, BuildingBlock: NAWXER_clean_sbu_0, # of connection points: 4
#     Node 158, Type 0, BuildingBlock: NAWXER_clean_sbu_0, # of connection points: 4
#     Node 159, Type 0, BuildingBlock: NAWXER_clean_sbu_0, # of connection points: 4
#     Node 160, Type 0, BuildingBlock: NAWXER_clean_sbu_0, # of connection points: 4
#     Node 161, Type 0, BuildingBlock: NAWXER_clean_sbu_0, # of connection points: 4
#     Node 162, Type 0, BuildingBlock: NAWXER_clean_sbu_0, # of connection points: 4
#     Node 163, Type 0, BuildingBlock: NAWXER_clean_sbu_0, # of connection points: 4
#     Node 164, Type 0, BuildingBlock: NAWXER_clean_sbu_0, # of connection points: 4
#     Node 165, Type 0, BuildingBlock: NAWXER_clean_sbu_0, # of connection points: 4
#     Node 166, Type 0, BuildingBlock: NAWXER_clean_sbu_0, # of connection points: 4
#     Node 167, Type 0, BuildingBlock: NAWXER_clean_sbu_0, # of connection points: 4
#     Node 168, Type 0, BuildingBlock: NAWXER_clean_sbu_0, # of connection points: 4
#     Node 169, Type 0, BuildingBlock: NAWXER_clean_sbu_0, # of connection points: 4
#     Node 170, Type 0, BuildingBlock: NAWXER_clean_sbu_0, # of connection points: 4
#     Node 171, Type 0, BuildingBlock: NAWXER_clean_sbu_0, # of connection points: 4
#     Node 172, Type 0, BuildingBlock: NAWXER_clean_sbu_0, # of connection points: 4
#     Node 173, Type 0, BuildingBlock: NAWXER_clean_sbu_0, # of connection points: 4
#     Node 174, Type 0, BuildingBlock: NAWXER_clean_sbu_0, # of connection points: 4
#     Node 175, Type 0, BuildingBlock: NAWXER_clean_sbu_0, # of connection points: 4
#     Node 176, Type 0, BuildingBlock: NAWXER_clean_sbu_0, # of connection points: 4
#     Node 177, Type 0, BuildingBlock: NAWXER_clean_sbu_0, # of connection points: 4
#     Node 178, Type 0, BuildingBlock: NAWXER_clean_sbu_0, # of connection points: 4
#     Node 179, Type 0, BuildingBlock: NAWXER_clean_sbu_0, # of connection points: 4
#     Node 180, Type 0, BuildingBlock: NAWXER_clean_sbu_0, # of connection points: 4
#     Node 181, Type 0, BuildingBlock: NAWXER_clean_sbu_0, # of connection points: 4
#     Node 182, Type 0, BuildingBlock: NAWXER_clean_sbu_0, # of connection points: 4
#     Node 183, Type 0, BuildingBlock: NAWXER_clean_sbu_0, # of connection points: 4
#     Node 184, Type 0, BuildingBlock: NAWXER_clean_sbu_0, # of connection points: 4
#     Node 185, Type 0, BuildingBlock: NAWXER_clean_sbu_0, # of connection points: 4
#     Node 186, Type 0, BuildingBlock: NAWXER_clean_sbu_0, # of connection points: 4
#     Node 187, Type 0, BuildingBlock: NAWXER_clean_sbu_0, # of connection points: 4
#     Node 188, Type 0, BuildingBlock: NAWXER_clean_sbu_0, # of connection points: 4
#     Node 189, Type 0, BuildingBlock: NAWXER_clean_sbu_0, # of connection points: 4
#     Node 190, Type 0, BuildingBlock: NAWXER_clean_sbu_0, # of connection points: 4
#     Node 191, Type 0, BuildingBlock: NAWXER_clean_sbu_0, # of connection points: 4
#     Edge 192, Type (0, 0), BuildingBlock: OJICUG_clean_linker_0, # of connection points: 2
#     Edge 193, Type (0, 0), BuildingBlock: OJICUG_clean_linker_0, # of connection points: 2
#     Edge 194, Type (0, 0), BuildingBlock: OJICUG_clean_linker_0, # of connection points: 2
#     Edge 195, Type (0, 0), BuildingBlock: OJICUG_clean_linker_0, # of connection points: 2
#     Edge 196, Type (0, 0), BuildingBlock: OJICUG_clean_linker_0, # of connection points: 2
#     Edge 197, Type (0, 0), BuildingBlock: OJICUG_clean_linker_0, # of connection points: 2
#     Edge 198, Type (0, 0), BuildingBlock: OJICUG_clean_linker_0, # of connection points: 2
#     Edge 199, Type (0, 0), BuildingBlock: OJICUG_clean_linker_0, # of connection points: 2
#     Edge 200, Type (0, 0), BuildingBlock: OJICUG_clean_linker_0, # of connection points: 2
#     Edge 201, Type (0, 0), BuildingBlock: OJICUG_clean_linker_0, # of connection points: 2
#     Edge 202, Type (0, 0), BuildingBlock: OJICUG_clean_linker_0, # of connection points: 2
#     Edge 203, Type (0, 0), BuildingBlock: OJICUG_clean_linker_0, # of connection points: 2
#     Edge 204, Type (0, 0), BuildingBlock: OJICUG_clean_linker_0, # of connection points: 2
#     Edge 205, Type (0, 0), BuildingBlock: OJICUG_clean_linker_0, # of connection points: 2
#     Edge 206, Type (0, 0), BuildingBlock: OJICUG_clean_linker_0, # of connection points: 2
#     Edge 207, Type (0, 0), BuildingBlock: OJICUG_clean_linker_0, # of connection points: 2
#     Edge 208, Type (0, 0), BuildingBlock: OJICUG_clean_linker_0, # of connection points: 2
#     Edge 209, Type (0, 0), BuildingBlock: OJICUG_clean_linker_0, # of connection points: 2
#     Edge 210, Type (0, 0), BuildingBlock: OJICUG_clean_linker_0, # of connection points: 2
#     Edge 211, Type (0, 0), BuildingBlock: OJICUG_clean_linker_0, # of connection points: 2
#     Edge 212, Type (0, 0), BuildingBlock: OJICUG_clean_linker_0, # of connection points: 2
#     Edge 213, Type (0, 0), BuildingBlock: OJICUG_clean_linker_0, # of connection points: 2
#     Edge 214, Type (0, 0), BuildingBlock: OJICUG_clean_linker_0, # of connection points: 2
#     Edge 215, Type (0, 0), BuildingBlock: OJICUG_clean_linker_0, # of connection points: 2
#     Edge 216, Type (0, 0), BuildingBlock: OJICUG_clean_linker_0, # of connection points: 2
#     Edge 217, Type (0, 0), BuildingBlock: OJICUG_clean_linker_0, # of connection points: 2
#     Edge 218, Type (0, 0), BuildingBlock: OJICUG_clean_linker_0, # of connection points: 2
#     Edge 219, Type (0, 0), BuildingBlock: OJICUG_clean_linker_0, # of connection points: 2
#     Edge 220, Type (0, 0), BuildingBlock: OJICUG_clean_linker_0, # of connection points: 2
#     Edge 221, Type (0, 0), BuildingBlock: OJICUG_clean_linker_0, # of connection points: 2
#     Edge 222, Type (0, 0), BuildingBlock: OJICUG_clean_linker_0, # of connection points: 2
#     Edge 223, Type (0, 0), BuildingBlock: OJICUG_clean_linker_0, # of connection points: 2
#     Edge 224, Type (0, 0), BuildingBlock: OJICUG_clean_linker_0, # of connection points: 2
#     Edge 225, Type (0, 0), BuildingBlock: OJICUG_clean_linker_0, # of connection points: 2
#     Edge 226, Type (0, 0), BuildingBlock: OJICUG_clean_linker_0, # of connection points: 2
#     Edge 227, Type (0, 0), BuildingBlock: OJICUG_clean_linker_0, # of connection points: 2
#     Edge 228, Type (0, 0), BuildingBlock: OJICUG_clean_linker_0, # of connection points: 2
#     Edge 229, Type (0, 0), BuildingBlock: OJICUG_clean_linker_0, # of connection points: 2
#     Edge 230, Type (0, 0), BuildingBlock: OJICUG_clean_linker_0, # of connection points: 2
#     Edge 231, Type (0, 0), BuildingBlock: OJICUG_clean_linker_0, # of connection points: 2
#     Edge 232, Type (0, 0), BuildingBlock: OJICUG_clean_linker_0, # of connection points: 2
#     Edge 233, Type (0, 0), BuildingBlock: OJICUG_clean_linker_0, # of connection points: 2
#     Edge 234, Type (0, 0), BuildingBlock: OJICUG_clean_linker_0, # of connection points: 2
#     Edge 235, Type (0, 0), BuildingBlock: OJICUG_clean_linker_0, # of connection points: 2
#     Edge 236, Type (0, 0), BuildingBlock: OJICUG_clean_linker_0, # of connection points: 2
#     Edge 237, Type (0, 0), BuildingBlock: OJICUG_clean_linker_0, # of connection points: 2
#     Edge 238, Type (0, 0), BuildingBlock: OJICUG_clean_linker_0, # of connection points: 2
#     Edge 239, Type (0, 0), BuildingBlock: OJICUG_clean_linker_0, # of connection points: 2
#     Edge 240, Type (0, 0), BuildingBlock: OJICUG_clean_linker_0, # of connection points: 2
#     Edge 241, Type (0, 0), BuildingBlock: OJICUG_clean_linker_0, # of connection points: 2
#     Edge 242, Type (0, 0), BuildingBlock: OJICUG_clean_linker_0, # of connection points: 2
#     Edge 243, Type (0, 0), BuildingBlock: OJICUG_clean_linker_0, # of connection points: 2
#     Edge 244, Type (0, 0), BuildingBlock: OJICUG_clean_linker_0, # of connection points: 2
#     Edge 245, Type (0, 0), BuildingBlock: OJICUG_clean_linker_0, # of connection points: 2
#     Edge 246, Type (0, 0), BuildingBlock: OJICUG_clean_linker_0, # of connection points: 2
#     Edge 247, Type (0, 0), BuildingBlock: OJICUG_clean_linker_0, # of connection points: 2
#     Edge 248, Type (0, 0), BuildingBlock: OJICUG_clean_linker_0, # of connection points: 2
#     Edge 249, Type (0, 0), BuildingBlock: OJICUG_clean_linker_0, # of connection points: 2
#     Edge 250, Type (0, 0), BuildingBlock: OJICUG_clean_linker_0, # of connection points: 2
#     Edge 251, Type (0, 0), BuildingBlock: OJICUG_clean_linker_0, # of connection points: 2
#     Edge 252, Type (0, 0), BuildingBlock: OJICUG_clean_linker_0, # of connection points: 2
#     Edge 253, Type (0, 0), BuildingBlock: OJICUG_clean_linker_0, # of connection points: 2
#     Edge 254, Type (0, 0), BuildingBlock: OJICUG_clean_linker_0, # of connection points: 2
#     Edge 255, Type (0, 0), BuildingBlock: OJICUG_clean_linker_0, # of connection points: 2
#     Edge 256, Type (0, 0), BuildingBlock: OJICUG_clean_linker_0, # of connection points: 2
#     Edge 257, Type (0, 0), BuildingBlock: OJICUG_clean_linker_0, # of connection points: 2
#     Edge 258, Type (0, 0), BuildingBlock: OJICUG_clean_linker_0, # of connection points: 2
#     Edge 259, Type (0, 0), BuildingBlock: OJICUG_clean_linker_0, # of connection points: 2
#     Edge 260, Type (0, 0), BuildingBlock: OJICUG_clean_linker_0, # of connection points: 2
#     Edge 261, Type (0, 0), BuildingBlock: OJICUG_clean_linker_0, # of connection points: 2
#     Edge 262, Type (0, 0), BuildingBlock: OJICUG_clean_linker_0, # of connection points: 2
#     Edge 263, Type (0, 0), BuildingBlock: OJICUG_clean_linker_0, # of connection points: 2
#     Edge 264, Type (0, 0), BuildingBlock: OJICUG_clean_linker_0, # of connection points: 2
#     Edge 265, Type (0, 0), BuildingBlock: OJICUG_clean_linker_0, # of connection points: 2
#     Edge 266, Type (0, 0), BuildingBlock: OJICUG_clean_linker_0, # of connection points: 2
#     Edge 267, Type (0, 0), BuildingBlock: OJICUG_clean_linker_0, # of connection points: 2
#     Edge 268, Type (0, 0), BuildingBlock: OJICUG_clean_linker_0, # of connection points: 2
#     Edge 269, Type (0, 0), BuildingBlock: OJICUG_clean_linker_0, # of connection points: 2
#     Edge 270, Type (0, 0), BuildingBlock: OJICUG_clean_linker_0, # of connection points: 2
#     Edge 271, Type (0, 0), BuildingBlock: OJICUG_clean_linker_0, # of connection points: 2
#     Edge 272, Type (0, 0), BuildingBlock: OJICUG_clean_linker_0, # of connection points: 2
#     Edge 273, Type (0, 0), BuildingBlock: OJICUG_clean_linker_0, # of connection points: 2
#     Edge 274, Type (0, 0), BuildingBlock: OJICUG_clean_linker_0, # of connection points: 2
#     Edge 275, Type (0, 0), BuildingBlock: OJICUG_clean_linker_0, # of connection points: 2
#     Edge 276, Type (0, 0), BuildingBlock: OJICUG_clean_linker_0, # of connection points: 2
#     Edge 277, Type (0, 0), BuildingBlock: OJICUG_clean_linker_0, # of connection points: 2
#     Edge 278, Type (0, 0), BuildingBlock: OJICUG_clean_linker_0, # of connection points: 2
#     Edge 279, Type (0, 0), BuildingBlock: OJICUG_clean_linker_0, # of connection points: 2
#     Edge 280, Type (0, 0), BuildingBlock: OJICUG_clean_linker_0, # of connection points: 2
#     Edge 281, Type (0, 0), BuildingBlock: OJICUG_clean_linker_0, # of connection points: 2
#     Edge 282, Type (0, 0), BuildingBlock: OJICUG_clean_linker_0, # of connection points: 2
#     Edge 283, Type (0, 0), BuildingBlock: OJICUG_clean_linker_0, # of connection points: 2
#     Edge 284, Type (0, 0), BuildingBlock: OJICUG_clean_linker_0, # of connection points: 2
#     Edge 285, Type (0, 0), BuildingBlock: OJICUG_clean_linker_0, # of connection points: 2
#     Edge 286, Type (0, 0), BuildingBlock: OJICUG_clean_linker_0, # of connection points: 2
#     Edge 287, Type (0, 0), BuildingBlock: OJICUG_clean_linker_0, # of connection points: 2
#     Edge 288, Type (0, 0), BuildingBlock: OJICUG_clean_linker_0, # of connection points: 2
#     Edge 289, Type (0, 0), BuildingBlock: OJICUG_clean_linker_0, # of connection points: 2
#     Edge 290, Type (0, 0), BuildingBlock: OJICUG_clean_linker_0, # of connection points: 2
#     Edge 291, Type (0, 0), BuildingBlock: OJICUG_clean_linker_0, # of connection points: 2
#     Edge 292, Type (0, 0), BuildingBlock: OJICUG_clean_linker_0, # of connection points: 2
#     Edge 293, Type (0, 0), BuildingBlock: OJICUG_clean_linker_0, # of connection points: 2
#     Edge 294, Type (0, 0), BuildingBlock: OJICUG_clean_linker_0, # of connection points: 2
#     Edge 295, Type (0, 0), BuildingBlock: OJICUG_clean_linker_0, # of connection points: 2
#     Edge 296, Type (0, 0), BuildingBlock: OJICUG_clean_linker_0, # of connection points: 2
#     Edge 297, Type (0, 0), BuildingBlock: OJICUG_clean_linker_0, # of connection points: 2
#     Edge 298, Type (0, 0), BuildingBlock: OJICUG_clean_linker_0, # of connection points: 2
#     Edge 299, Type (0, 0), BuildingBlock: OJICUG_clean_linker_0, # of connection points: 2
#     Edge 300, Type (0, 0), BuildingBlock: OJICUG_clean_linker_0, # of connection points: 2
#     Edge 301, Type (0, 0), BuildingBlock: OJICUG_clean_linker_0, # of connection points: 2
#     Edge 302, Type (0, 0), BuildingBlock: OJICUG_clean_linker_0, # of connection points: 2
#     Edge 303, Type (0, 0), BuildingBlock: OJICUG_clean_linker_0, # of connection points: 2
#     Edge 304, Type (0, 0), BuildingBlock: OJICUG_clean_linker_0, # of connection points: 2
#     Edge 305, Type (0, 0), BuildingBlock: OJICUG_clean_linker_0, # of connection points: 2
#     Edge 306, Type (0, 0), BuildingBlock: OJICUG_clean_linker_0, # of connection points: 2
#     Edge 307, Type (0, 0), BuildingBlock: OJICUG_clean_linker_0, # of connection points: 2
#     Edge 308, Type (0, 0), BuildingBlock: OJICUG_clean_linker_0, # of connection points: 2
#     Edge 309, Type (0, 0), BuildingBlock: OJICUG_clean_linker_0, # of connection points: 2
#     Edge 310, Type (0, 0), BuildingBlock: OJICUG_clean_linker_0, # of connection points: 2
#     Edge 311, Type (0, 0), BuildingBlock: OJICUG_clean_linker_0, # of connection points: 2
#     Edge 312, Type (0, 0), BuildingBlock: OJICUG_clean_linker_0, # of connection points: 2
#     Edge 313, Type (0, 0), BuildingBlock: OJICUG_clean_linker_0, # of connection points: 2
#     Edge 314, Type (0, 0), BuildingBlock: OJICUG_clean_linker_0, # of connection points: 2
#     Edge 315, Type (0, 0), BuildingBlock: OJICUG_clean_linker_0, # of connection points: 2
#     Edge 316, Type (0, 0), BuildingBlock: OJICUG_clean_linker_0, # of connection points: 2
#     Edge 317, Type (0, 0), BuildingBlock: OJICUG_clean_linker_0, # of connection points: 2
#     Edge 318, Type (0, 0), BuildingBlock: OJICUG_clean_linker_0, # of connection points: 2
#     Edge 319, Type (0, 0), BuildingBlock: OJICUG_clean_linker_0, # of connection points: 2
#     Edge 320, Type (0, 0), BuildingBlock: OJICUG_clean_linker_0, # of connection points: 2
#     Edge 321, Type (0, 0), BuildingBlock: OJICUG_clean_linker_0, # of connection points: 2
#     Edge 322, Type (0, 0), BuildingBlock: OJICUG_clean_linker_0, # of connection points: 2
#     Edge 323, Type (0, 0), BuildingBlock: OJICUG_clean_linker_0, # of connection points: 2
#     Edge 324, Type (0, 0), BuildingBlock: OJICUG_clean_linker_0, # of connection points: 2
#     Edge 325, Type (0, 0), BuildingBlock: OJICUG_clean_linker_0, # of connection points: 2
#     Edge 326, Type (0, 0), BuildingBlock: OJICUG_clean_linker_0, # of connection points: 2
#     Edge 327, Type (0, 0), BuildingBlock: OJICUG_clean_linker_0, # of connection points: 2
#     Edge 328, Type (0, 0), BuildingBlock: OJICUG_clean_linker_0, # of connection points: 2
#     Edge 329, Type (0, 0), BuildingBlock: OJICUG_clean_linker_0, # of connection points: 2
#     Edge 330, Type (0, 0), BuildingBlock: OJICUG_clean_linker_0, # of connection points: 2
#     Edge 331, Type (0, 0), BuildingBlock: OJICUG_clean_linker_0, # of connection points: 2
#     Edge 332, Type (0, 0), BuildingBlock: OJICUG_clean_linker_0, # of connection points: 2
#     Edge 333, Type (0, 0), BuildingBlock: OJICUG_clean_linker_0, # of connection points: 2
#     Edge 334, Type (0, 0), BuildingBlock: OJICUG_clean_linker_0, # of connection points: 2
#     Edge 335, Type (0, 0), BuildingBlock: OJICUG_clean_linker_0, # of connection points: 2
#     Edge 336, Type (0, 0), BuildingBlock: OJICUG_clean_linker_0, # of connection points: 2
#     Edge 337, Type (0, 0), BuildingBlock: OJICUG_clean_linker_0, # of connection points: 2
#     Edge 338, Type (0, 0), BuildingBlock: OJICUG_clean_linker_0, # of connection points: 2
#     Edge 339, Type (0, 0), BuildingBlock: OJICUG_clean_linker_0, # of connection points: 2
#     Edge 340, Type (0, 0), BuildingBlock: OJICUG_clean_linker_0, # of connection points: 2
#     Edge 341, Type (0, 0), BuildingBlock: OJICUG_clean_linker_0, # of connection points: 2
#     Edge 342, Type (0, 0), BuildingBlock: OJICUG_clean_linker_0, # of connection points: 2
#     Edge 343, Type (0, 0), BuildingBlock: OJICUG_clean_linker_0, # of connection points: 2
#     Edge 344, Type (0, 0), BuildingBlock: OJICUG_clean_linker_0, # of connection points: 2
#     Edge 345, Type (0, 0), BuildingBlock: OJICUG_clean_linker_0, # of connection points: 2
#     Edge 346, Type (0, 0), BuildingBlock: OJICUG_clean_linker_0, # of connection points: 2
#     Edge 347, Type (0, 0), BuildingBlock: OJICUG_clean_linker_0, # of connection points: 2
#     Edge 348, Type (0, 0), BuildingBlock: OJICUG_clean_linker_0, # of connection points: 2
#     Edge 349, Type (0, 0), BuildingBlock: OJICUG_clean_linker_0, # of connection points: 2
#     Edge 350, Type (0, 0), BuildingBlock: OJICUG_clean_linker_0, # of connection points: 2
#     Edge 351, Type (0, 0), BuildingBlock: OJICUG_clean_linker_0, # of connection points: 2
#     Edge 352, Type (0, 0), BuildingBlock: OJICUG_clean_linker_0, # of connection points: 2
#     Edge 353, Type (0, 0), BuildingBlock: OJICUG_clean_linker_0, # of connection points: 2
#     Edge 354, Type (0, 0), BuildingBlock: OJICUG_clean_linker_0, # of connection points: 2
#     Edge 355, Type (0, 0), BuildingBlock: OJICUG_clean_linker_0, # of connection points: 2
#     Edge 356, Type (0, 0), BuildingBlock: OJICUG_clean_linker_0, # of connection points: 2
#     Edge 357, Type (0, 0), BuildingBlock: OJICUG_clean_linker_0, # of connection points: 2
#     Edge 358, Type (0, 0), BuildingBlock: OJICUG_clean_linker_0, # of connection points: 2
#     Edge 359, Type (0, 0), BuildingBlock: OJICUG_clean_linker_0, # of connection points: 2
#     Edge 360, Type (0, 0), BuildingBlock: OJICUG_clean_linker_0, # of connection points: 2
#     Edge 361, Type (0, 0), BuildingBlock: OJICUG_clean_linker_0, # of connection points: 2
#     Edge 362, Type (0, 0), BuildingBlock: OJICUG_clean_linker_0, # of connection points: 2
#     Edge 363, Type (0, 0), BuildingBlock: OJICUG_clean_linker_0, # of connection points: 2
#     Edge 364, Type (0, 0), BuildingBlock: OJICUG_clean_linker_0, # of connection points: 2
#     Edge 365, Type (0, 0), BuildingBlock: OJICUG_clean_linker_0, # of connection points: 2
#     Edge 366, Type (0, 0), BuildingBlock: OJICUG_clean_linker_0, # of connection points: 2
#     Edge 367, Type (0, 0), BuildingBlock: OJICUG_clean_linker_0, # of connection points: 2
#     Edge 368, Type (0, 0), BuildingBlock: OJICUG_clean_linker_0, # of connection points: 2
#     Edge 369, Type (0, 0), BuildingBlock: OJICUG_clean_linker_0, # of connection points: 2
#     Edge 370, Type (0, 0), BuildingBlock: OJICUG_clean_linker_0, # of connection points: 2
#     Edge 371, Type (0, 0), BuildingBlock: OJICUG_clean_linker_0, # of connection points: 2
#     Edge 372, Type (0, 0), BuildingBlock: OJICUG_clean_linker_0, # of connection points: 2
#     Edge 373, Type (0, 0), BuildingBlock: OJICUG_clean_linker_0, # of connection points: 2
#     Edge 374, Type (0, 0), BuildingBlock: OJICUG_clean_linker_0, # of connection points: 2
#     Edge 375, Type (0, 0), BuildingBlock: OJICUG_clean_linker_0, # of connection points: 2
#     Edge 376, Type (0, 0), BuildingBlock: OJICUG_clean_linker_0, # of connection points: 2
#     Edge 377, Type (0, 0), BuildingBlock: OJICUG_clean_linker_0, # of connection points: 2
#     Edge 378, Type (0, 0), BuildingBlock: OJICUG_clean_linker_0, # of connection points: 2
#     Edge 379, Type (0, 0), BuildingBlock: OJICUG_clean_linker_0, # of connection points: 2
#     Edge 380, Type (0, 0), BuildingBlock: OJICUG_clean_linker_0, # of connection points: 2
#     Edge 381, Type (0, 0), BuildingBlock: OJICUG_clean_linker_0, # of connection points: 2
#     Edge 382, Type (0, 0), BuildingBlock: OJICUG_clean_linker_0, # of connection points: 2
#     Edge 383, Type (0, 0), BuildingBlock: OJICUG_clean_linker_0, # of connection points: 2
#     Edge 384, Type (0, 0), BuildingBlock: OJICUG_clean_linker_0, # of connection points: 2
#     Edge 385, Type (0, 0), BuildingBlock: OJICUG_clean_linker_0, # of connection points: 2
#     Edge 386, Type (0, 0), BuildingBlock: OJICUG_clean_linker_0, # of connection points: 2
#     Edge 387, Type (0, 0), BuildingBlock: OJICUG_clean_linker_0, # of connection points: 2
#     Edge 388, Type (0, 0), BuildingBlock: OJICUG_clean_linker_0, # of connection points: 2
#     Edge 389, Type (0, 0), BuildingBlock: OJICUG_clean_linker_0, # of connection points: 2
#     Edge 390, Type (0, 0), BuildingBlock: OJICUG_clean_linker_0, # of connection points: 2
#     Edge 391, Type (0, 0), BuildingBlock: OJICUG_clean_linker_0, # of connection points: 2
#     Edge 392, Type (0, 0), BuildingBlock: OJICUG_clean_linker_0, # of connection points: 2
#     Edge 393, Type (0, 0), BuildingBlock: OJICUG_clean_linker_0, # of connection points: 2
#     Edge 394, Type (0, 0), BuildingBlock: OJICUG_clean_linker_0, # of connection points: 2
#     Edge 395, Type (0, 0), BuildingBlock: OJICUG_clean_linker_0, # of connection points: 2
#     Edge 396, Type (0, 0), BuildingBlock: OJICUG_clean_linker_0, # of connection points: 2
#     Edge 397, Type (0, 0), BuildingBlock: OJICUG_clean_linker_0, # of connection points: 2
#     Edge 398, Type (0, 0), BuildingBlock: OJICUG_clean_linker_0, # of connection points: 2
#     Edge 399, Type (0, 0), BuildingBlock: OJICUG_clean_linker_0, # of connection points: 2
#     Edge 400, Type (0, 0), BuildingBlock: OJICUG_clean_linker_0, # of connection points: 2
#     Edge 401, Type (0, 0), BuildingBlock: OJICUG_clean_linker_0, # of connection points: 2
#     Edge 402, Type (0, 0), BuildingBlock: OJICUG_clean_linker_0, # of connection points: 2
#     Edge 403, Type (0, 0), BuildingBlock: OJICUG_clean_linker_0, # of connection points: 2
#     Edge 404, Type (0, 0), BuildingBlock: OJICUG_clean_linker_0, # of connection points: 2
#     Edge 405, Type (0, 0), BuildingBlock: OJICUG_clean_linker_0, # of connection points: 2
#     Edge 406, Type (0, 0), BuildingBlock: OJICUG_clean_linker_0, # of connection points: 2
#     Edge 407, Type (0, 0), BuildingBlock: OJICUG_clean_linker_0, # of connection points: 2
#     Edge 408, Type (0, 0), BuildingBlock: OJICUG_clean_linker_0, # of connection points: 2
#     Edge 409, Type (0, 0), BuildingBlock: OJICUG_clean_linker_0, # of connection points: 2
#     Edge 410, Type (0, 0), BuildingBlock: OJICUG_clean_linker_0, # of connection points: 2
#     Edge 411, Type (0, 0), BuildingBlock: OJICUG_clean_linker_0, # of connection points: 2
#     Edge 412, Type (0, 0), BuildingBlock: OJICUG_clean_linker_0, # of connection points: 2
#     Edge 413, Type (0, 0), BuildingBlock: OJICUG_clean_linker_0, # of connection points: 2
#     Edge 414, Type (0, 0), BuildingBlock: OJICUG_clean_linker_0, # of connection points: 2
#     Edge 415, Type (0, 0), BuildingBlock: OJICUG_clean_linker_0, # of connection points: 2
#     Edge 416, Type (0, 0), BuildingBlock: OJICUG_clean_linker_0, # of connection points: 2
#     Edge 417, Type (0, 0), BuildingBlock: OJICUG_clean_linker_0, # of connection points: 2
#     Edge 418, Type (0, 0), BuildingBlock: OJICUG_clean_linker_0, # of connection points: 2
#     Edge 419, Type (0, 0), BuildingBlock: OJICUG_clean_linker_0, # of connection points: 2
#     Edge 420, Type (0, 0), BuildingBlock: OJICUG_clean_linker_0, # of connection points: 2
#     Edge 421, Type (0, 0), BuildingBlock: OJICUG_clean_linker_0, # of connection points: 2
#     Edge 422, Type (0, 0), BuildingBlock: OJICUG_clean_linker_0, # of connection points: 2
#     Edge 423, Type (0, 0), BuildingBlock: OJICUG_clean_linker_0, # of connection points: 2
#     Edge 424, Type (0, 0), BuildingBlock: OJICUG_clean_linker_0, # of connection points: 2
#     Edge 425, Type (0, 0), BuildingBlock: OJICUG_clean_linker_0, # of connection points: 2
#     Edge 426, Type (0, 0), BuildingBlock: OJICUG_clean_linker_0, # of connection points: 2
#     Edge 427, Type (0, 0), BuildingBlock: OJICUG_clean_linker_0, # of connection points: 2
#     Edge 428, Type (0, 0), BuildingBlock: OJICUG_clean_linker_0, # of connection points: 2
#     Edge 429, Type (0, 0), BuildingBlock: OJICUG_clean_linker_0, # of connection points: 2
#     Edge 430, Type (0, 0), BuildingBlock: OJICUG_clean_linker_0, # of connection points: 2
#     Edge 431, Type (0, 0), BuildingBlock: OJICUG_clean_linker_0, # of connection points: 2
#     Edge 432, Type (0, 0), BuildingBlock: OJICUG_clean_linker_0, # of connection points: 2
#     Edge 433, Type (0, 0), BuildingBlock: OJICUG_clean_linker_0, # of connection points: 2
#     Edge 434, Type (0, 0), BuildingBlock: OJICUG_clean_linker_0, # of connection points: 2
#     Edge 435, Type (0, 0), BuildingBlock: OJICUG_clean_linker_0, # of connection points: 2
#     Edge 436, Type (0, 0), BuildingBlock: OJICUG_clean_linker_0, # of connection points: 2
#     Edge 437, Type (0, 0), BuildingBlock: OJICUG_clean_linker_0, # of connection points: 2
#     Edge 438, Type (0, 0), BuildingBlock: OJICUG_clean_linker_0, # of connection points: 2
#     Edge 439, Type (0, 0), BuildingBlock: OJICUG_clean_linker_0, # of connection points: 2
#     Edge 440, Type (0, 0), BuildingBlock: OJICUG_clean_linker_0, # of connection points: 2
#     Edge 441, Type (0, 0), BuildingBlock: OJICUG_clean_linker_0, # of connection points: 2
#     Edge 442, Type (0, 0), BuildingBlock: OJICUG_clean_linker_0, # of connection points: 2
#     Edge 443, Type (0, 0), BuildingBlock: OJICUG_clean_linker_0, # of connection points: 2
#     Edge 444, Type (0, 0), BuildingBlock: OJICUG_clean_linker_0, # of connection points: 2
#     Edge 445, Type (0, 0), BuildingBlock: OJICUG_clean_linker_0, # of connection points: 2
#     Edge 446, Type (0, 0), BuildingBlock: OJICUG_clean_linker_0, # of connection points: 2
#     Edge 447, Type (0, 0), BuildingBlock: OJICUG_clean_linker_0, # of connection points: 2
#     Edge 448, Type (0, 0), BuildingBlock: OJICUG_clean_linker_0, # of connection points: 2
#     Edge 449, Type (0, 0), BuildingBlock: OJICUG_clean_linker_0, # of connection points: 2
#     Edge 450, Type (0, 0), BuildingBlock: OJICUG_clean_linker_0, # of connection points: 2
#     Edge 451, Type (0, 0), BuildingBlock: OJICUG_clean_linker_0, # of connection points: 2
#     Edge 452, Type (0, 0), BuildingBlock: OJICUG_clean_linker_0, # of connection points: 2
#     Edge 453, Type (0, 0), BuildingBlock: OJICUG_clean_linker_0, # of connection points: 2
#     Edge 454, Type (0, 0), BuildingBlock: OJICUG_clean_linker_0, # of connection points: 2
#     Edge 455, Type (0, 0), BuildingBlock: OJICUG_clean_linker_0, # of connection points: 2
#     Edge 456, Type (0, 0), BuildingBlock: OJICUG_clean_linker_0, # of connection points: 2
#     Edge 457, Type (0, 0), BuildingBlock: OJICUG_clean_linker_0, # of connection points: 2
#     Edge 458, Type (0, 0), BuildingBlock: OJICUG_clean_linker_0, # of connection points: 2
#     Edge 459, Type (0, 0), BuildingBlock: OJICUG_clean_linker_0, # of connection points: 2
#     Edge 460, Type (0, 0), BuildingBlock: OJICUG_clean_linker_0, # of connection points: 2
#     Edge 461, Type (0, 0), BuildingBlock: OJICUG_clean_linker_0, # of connection points: 2
#     Edge 462, Type (0, 0), BuildingBlock: OJICUG_clean_linker_0, # of connection points: 2
#     Edge 463, Type (0, 0), BuildingBlock: OJICUG_clean_linker_0, # of connection points: 2
#     Edge 464, Type (0, 0), BuildingBlock: OJICUG_clean_linker_0, # of connection points: 2
#     Edge 465, Type (0, 0), BuildingBlock: OJICUG_clean_linker_0, # of connection points: 2
#     Edge 466, Type (0, 0), BuildingBlock: OJICUG_clean_linker_0, # of connection points: 2
#     Edge 467, Type (0, 0), BuildingBlock: OJICUG_clean_linker_0, # of connection points: 2
#     Edge 468, Type (0, 0), BuildingBlock: OJICUG_clean_linker_0, # of connection points: 2
#     Edge 469, Type (0, 0), BuildingBlock: OJICUG_clean_linker_0, # of connection points: 2
#     Edge 470, Type (0, 0), BuildingBlock: OJICUG_clean_linker_0, # of connection points: 2
#     Edge 471, Type (0, 0), BuildingBlock: OJICUG_clean_linker_0, # of connection points: 2
#     Edge 472, Type (0, 0), BuildingBlock: OJICUG_clean_linker_0, # of connection points: 2
#     Edge 473, Type (0, 0), BuildingBlock: OJICUG_clean_linker_0, # of connection points: 2
#     Edge 474, Type (0, 0), BuildingBlock: OJICUG_clean_linker_0, # of connection points: 2
#     Edge 475, Type (0, 0), BuildingBlock: OJICUG_clean_linker_0, # of connection points: 2
#     Edge 476, Type (0, 0), BuildingBlock: OJICUG_clean_linker_0, # of connection points: 2
#     Edge 477, Type (0, 0), BuildingBlock: OJICUG_clean_linker_0, # of connection points: 2
#     Edge 478, Type (0, 0), BuildingBlock: OJICUG_clean_linker_0, # of connection points: 2
#     Edge 479, Type (0, 0), BuildingBlock: OJICUG_clean_linker_0, # of connection points: 2
#     Edge 480, Type (0, 0), BuildingBlock: OJICUG_clean_linker_0, # of connection points: 2
#     Edge 481, Type (0, 0), BuildingBlock: OJICUG_clean_linker_0, # of connection points: 2
#     Edge 482, Type (0, 0), BuildingBlock: OJICUG_clean_linker_0, # of connection points: 2
#     Edge 483, Type (0, 0), BuildingBlock: OJICUG_clean_linker_0, # of connection points: 2
#     Edge 484, Type (0, 0), BuildingBlock: OJICUG_clean_linker_0, # of connection points: 2
#     Edge 485, Type (0, 0), BuildingBlock: OJICUG_clean_linker_0, # of connection points: 2
#     Edge 486, Type (0, 0), BuildingBlock: OJICUG_clean_linker_0, # of connection points: 2
#     Edge 487, Type (0, 0), BuildingBlock: OJICUG_clean_linker_0, # of connection points: 2
#     Edge 488, Type (0, 0), BuildingBlock: OJICUG_clean_linker_0, # of connection points: 2
#     Edge 489, Type (0, 0), BuildingBlock: OJICUG_clean_linker_0, # of connection points: 2
#     Edge 490, Type (0, 0), BuildingBlock: OJICUG_clean_linker_0, # of connection points: 2
#     Edge 491, Type (0, 0), BuildingBlock: OJICUG_clean_linker_0, # of connection points: 2
#     Edge 492, Type (0, 0), BuildingBlock: OJICUG_clean_linker_0, # of connection points: 2
#     Edge 493, Type (0, 0), BuildingBlock: OJICUG_clean_linker_0, # of connection points: 2
#     Edge 494, Type (0, 0), BuildingBlock: OJICUG_clean_linker_0, # of connection points: 2
#     Edge 495, Type (0, 0), BuildingBlock: OJICUG_clean_linker_0, # of connection points: 2
#     Edge 496, Type (0, 0), BuildingBlock: OJICUG_clean_linker_0, # of connection points: 2
#     Edge 497, Type (0, 0), BuildingBlock: OJICUG_clean_linker_0, # of connection points: 2
#     Edge 498, Type (0, 0), BuildingBlock: OJICUG_clean_linker_0, # of connection points: 2
#     Edge 499, Type (0, 0), BuildingBlock: OJICUG_clean_linker_0, # of connection points: 2
#     Edge 500, Type (0, 0), BuildingBlock: OJICUG_clean_linker_0, # of connection points: 2
#     Edge 501, Type (0, 0), BuildingBlock: OJICUG_clean_linker_0, # of connection points: 2
#     Edge 502, Type (0, 0), BuildingBlock: OJICUG_clean_linker_0, # of connection points: 2
#     Edge 503, Type (0, 0), BuildingBlock: OJICUG_clean_linker_0, # of connection points: 2
#     Edge 504, Type (0, 0), BuildingBlock: OJICUG_clean_linker_0, # of connection points: 2
#     Edge 505, Type (0, 0), BuildingBlock: OJICUG_clean_linker_0, # of connection points: 2
#     Edge 506, Type (0, 0), BuildingBlock: OJICUG_clean_linker_0, # of connection points: 2
#     Edge 507, Type (0, 0), BuildingBlock: OJICUG_clean_linker_0, # of connection points: 2
#     Edge 508, Type (0, 0), BuildingBlock: OJICUG_clean_linker_0, # of connection points: 2
#     Edge 509, Type (0, 0), BuildingBlock: OJICUG_clean_linker_0, # of connection points: 2
#     Edge 510, Type (0, 0), BuildingBlock: OJICUG_clean_linker_0, # of connection points: 2
#     Edge 511, Type (0, 0), BuildingBlock: OJICUG_clean_linker_0, # of connection points: 2
#     Edge 512, Type (0, 0), BuildingBlock: OJICUG_clean_linker_0, # of connection points: 2
#     Edge 513, Type (0, 0), BuildingBlock: OJICUG_clean_linker_0, # of connection points: 2
#     Edge 514, Type (0, 0), BuildingBlock: OJICUG_clean_linker_0, # of connection points: 2
#     Edge 515, Type (0, 0), BuildingBlock: OJICUG_clean_linker_0, # of connection points: 2
#     Edge 516, Type (0, 0), BuildingBlock: OJICUG_clean_linker_0, # of connection points: 2
#     Edge 517, Type (0, 0), BuildingBlock: OJICUG_clean_linker_0, # of connection points: 2
#     Edge 518, Type (0, 0), BuildingBlock: OJICUG_clean_linker_0, # of connection points: 2
#     Edge 519, Type (0, 0), BuildingBlock: OJICUG_clean_linker_0, # of connection points: 2
#     Edge 520, Type (0, 0), BuildingBlock: OJICUG_clean_linker_0, # of connection points: 2
#     Edge 521, Type (0, 0), BuildingBlock: OJICUG_clean_linker_0, # of connection points: 2
#     Edge 522, Type (0, 0), BuildingBlock: OJICUG_clean_linker_0, # of connection points: 2
#     Edge 523, Type (0, 0), BuildingBlock: OJICUG_clean_linker_0, # of connection points: 2
#     Edge 524, Type (0, 0), BuildingBlock: OJICUG_clean_linker_0, # of connection points: 2
#     Edge 525, Type (0, 0), BuildingBlock: OJICUG_clean_linker_0, # of connection points: 2
#     Edge 526, Type (0, 0), BuildingBlock: OJICUG_clean_linker_0, # of connection points: 2
#     Edge 527, Type (0, 0), BuildingBlock: OJICUG_clean_linker_0, # of connection points: 2
#     Edge 528, Type (0, 0), BuildingBlock: OJICUG_clean_linker_0, # of connection points: 2
#     Edge 529, Type (0, 0), BuildingBlock: OJICUG_clean_linker_0, # of connection points: 2
#     Edge 530, Type (0, 0), BuildingBlock: OJICUG_clean_linker_0, # of connection points: 2
#     Edge 531, Type (0, 0), BuildingBlock: OJICUG_clean_linker_0, # of connection points: 2
#     Edge 532, Type (0, 0), BuildingBlock: OJICUG_clean_linker_0, # of connection points: 2
#     Edge 533, Type (0, 0), BuildingBlock: OJICUG_clean_linker_0, # of connection points: 2
#     Edge 534, Type (0, 0), BuildingBlock: OJICUG_clean_linker_0, # of connection points: 2
#     Edge 535, Type (0, 0), BuildingBlock: OJICUG_clean_linker_0, # of connection points: 2
#     Edge 536, Type (0, 0), BuildingBlock: OJICUG_clean_linker_0, # of connection points: 2
#     Edge 537, Type (0, 0), BuildingBlock: OJICUG_clean_linker_0, # of connection points: 2
#     Edge 538, Type (0, 0), BuildingBlock: OJICUG_clean_linker_0, # of connection points: 2
#     Edge 539, Type (0, 0), BuildingBlock: OJICUG_clean_linker_0, # of connection points: 2
#     Edge 540, Type (0, 0), BuildingBlock: OJICUG_clean_linker_0, # of connection points: 2
#     Edge 541, Type (0, 0), BuildingBlock: OJICUG_clean_linker_0, # of connection points: 2
#     Edge 542, Type (0, 0), BuildingBlock: OJICUG_clean_linker_0, # of connection points: 2
#     Edge 543, Type (0, 0), BuildingBlock: OJICUG_clean_linker_0, # of connection points: 2
#     Edge 544, Type (0, 0), BuildingBlock: OJICUG_clean_linker_0, # of connection points: 2
#     Edge 545, Type (0, 0), BuildingBlock: OJICUG_clean_linker_0, # of connection points: 2
#     Edge 546, Type (0, 0), BuildingBlock: OJICUG_clean_linker_0, # of connection points: 2
#     Edge 547, Type (0, 0), BuildingBlock: OJICUG_clean_linker_0, # of connection points: 2
#     Edge 548, Type (0, 0), BuildingBlock: OJICUG_clean_linker_0, # of connection points: 2
#     Edge 549, Type (0, 0), BuildingBlock: OJICUG_clean_linker_0, # of connection points: 2
#     Edge 550, Type (0, 0), BuildingBlock: OJICUG_clean_linker_0, # of connection points: 2
#     Edge 551, Type (0, 0), BuildingBlock: OJICUG_clean_linker_0, # of connection points: 2
#     Edge 552, Type (0, 0), BuildingBlock: OJICUG_clean_linker_0, # of connection points: 2
#     Edge 553, Type (0, 0), BuildingBlock: OJICUG_clean_linker_0, # of connection points: 2
#     Edge 554, Type (0, 0), BuildingBlock: OJICUG_clean_linker_0, # of connection points: 2
#     Edge 555, Type (0, 0), BuildingBlock: OJICUG_clean_linker_0, # of connection points: 2
#     Edge 556, Type (0, 0), BuildingBlock: OJICUG_clean_linker_0, # of connection points: 2
#     Edge 557, Type (0, 0), BuildingBlock: OJICUG_clean_linker_0, # of connection points: 2
#     Edge 558, Type (0, 0), BuildingBlock: OJICUG_clean_linker_0, # of connection points: 2
#     Edge 559, Type (0, 0), BuildingBlock: OJICUG_clean_linker_0, # of connection points: 2
#     Edge 560, Type (0, 0), BuildingBlock: OJICUG_clean_linker_0, # of connection points: 2
#     Edge 561, Type (0, 0), BuildingBlock: OJICUG_clean_linker_0, # of connection points: 2
#     Edge 562, Type (0, 0), BuildingBlock: OJICUG_clean_linker_0, # of connection points: 2
#     Edge 563, Type (0, 0), BuildingBlock: OJICUG_clean_linker_0, # of connection points: 2
#     Edge 564, Type (0, 0), BuildingBlock: OJICUG_clean_linker_0, # of connection points: 2
#     Edge 565, Type (0, 0), BuildingBlock: OJICUG_clean_linker_0, # of connection points: 2
#     Edge 566, Type (0, 0), BuildingBlock: OJICUG_clean_linker_0, # of connection points: 2
#     Edge 567, Type (0, 0), BuildingBlock: OJICUG_clean_linker_0, # of connection points: 2
#     Edge 568, Type (0, 0), BuildingBlock: OJICUG_clean_linker_0, # of connection points: 2
#     Edge 569, Type (0, 0), BuildingBlock: OJICUG_clean_linker_0, # of connection points: 2
#     Edge 570, Type (0, 0), BuildingBlock: OJICUG_clean_linker_0, # of connection points: 2
#     Edge 571, Type (0, 0), BuildingBlock: OJICUG_clean_linker_0, # of connection points: 2
#     Edge 572, Type (0, 0), BuildingBlock: OJICUG_clean_linker_0, # of connection points: 2
#     Edge 573, Type (0, 0), BuildingBlock: OJICUG_clean_linker_0, # of connection points: 2
#     Edge 574, Type (0, 0), BuildingBlock: OJICUG_clean_linker_0, # of connection points: 2
#     Edge 575, Type (0, 0), BuildingBlock: OJICUG_clean_linker_0, # of connection points: 2
# Relax obj value: 0.144
# Max RMSD: 0.284
# Mean RMSD: 0.284
data_MOF--net-unt--node1-NAWXER_clean_sbu_0--edge1-OJICUG_clean_linker_0
_symmetry_space_group_name_H-M    P1
_symmetry_Int_Tables_number       1
_symmetry_cell_setting            triclinic
loop_
_symmetry_equiv_pos_as_xyz
'x, y, z'
_cell_length_a     77.016561
_cell_length_b     76.98546
_cell_length_c     76.97303
_cell_angle_alpha  89.999744
_cell_angle_beta   90.003435
_cell_angle_gamma 90.002008
loop_
_atom_site_label
_atom_site_type_symbol
_atom_site_fract_x
_atom_site_fract_y
_atom_site_fract_z
_atom_type_partial_charge
C0 C 0.07981 0.21629 0.10139 0.0
C1 C 0.07265 0.16104 0.13048 0.0
O2 O 0.07467 0.20481 0.09045 0.0
Zn3 Zn 0.06789 0.17747 0.09207 0.0
O4 O 0.08152 0.2122 0.11723 0.0
Zn5 Zn 0.07485 0.18847 0.11553 0.0
O6 O 0.09598 0.1768 0.1005 0.0
O7 O 0.08391 0.16661 0.07659 0.0
O8 O 0.07663 0.17574 0.13674 0.0
O9 O 0.0688 0.15975 0.11427 0.0
O10 O 0.04462 0.17661 0.08452 0.0
O11 O 0.04693 0.18878 0.11029 0.0
C12 C 0.0973 0.16875 0.08592 0.0
C13 C 0.03745 0.18365 0.09753 0.0
C14 C 0.31593 0.03762 0.09882 0.0
C15 C 0.33166 0.0972 0.08698 0.0
O16 O 0.31093 0.04719 0.11156 0.0
Zn17 Zn 0.31161 0.07514 0.11668 0.0
O18 O 0.32311 0.04466 0.08581 0.0
Zn19 Zn 0.32257 0.06795 0.09328 0.0
O20 O 0.34025 0.06875 0.11551 0.0
O21 O 0.3243 0.07685 0.1379 0.0
O22 O 0.33367 0.08372 0.07774 0.0
O23 O 0.32357 0.09606 0.10155 0.0
O24 O 0.28798 0.08217 0.11831 0.0
O25 O 0.29537 0.07514 0.09157 0.0
C26 C 0.33897 0.07269 0.13169 0.0
C27 C 0.28394 0.08049 0.10246 0.0
C28 C 0.40241 0.3311 0.08658 0.0
C29 C 0.46233 0.31638 0.098 0.0
O30 O 0.40378 0.32307 0.10117 0.0
Zn31 Zn 0.42501 0.31146 0.11616 0.0
O32 O 0.41577 0.33323 0.07721 0.0
Zn33 Zn 0.43183 0.32244 0.09265 0.0
O34 O 0.42509 0.29511 0.09109 0.0
O35 O 0.41841 0.28772 0.11792 0.0
O36 O 0.45506 0.32337 0.08501 0.0
O37 O 0.45293 0.31125 0.11082 0.0
O38 O 0.42321 0.3242 0.13737 0.0
O39 O 0.43091 0.34016 0.11483 0.0
C40 C 0.42003 0.28363 0.10207 0.0
C41 C 0.42709 0.3389 0.13105 0.0
C42 C 0.1606 0.42762 0.13102 0.0
C43 C 0.21556 0.41958 0.10183 0.0
O44 O 0.15929 0.4315 0.11482 0.0
Zn45 Zn 0.17697 0.43221 0.09258 0.0
O46 O 0.17528 0.42351 0.13723 0.0
Zn47 Zn 0.18792 0.42511 0.116 0.0
O48 O 0.18866 0.45304 0.11077 0.0
O49 O 0.1765 0.45548 0.08501 0.0
O50 O 0.2115 0.41802 0.11769 0.0
O51 O 0.20416 0.4249 0.09089 0.0
O52 O 0.16583 0.41642 0.0771 0.0
O53 O 0.17591 0.40414 0.10095 0.0
C54 C 0.18368 0.46257 0.09799 0.0
C55 C 0.16781 0.40297 0.08639 0.0
C56 C 0.07857 0.78366 0.89934 0.0
C57 C 0.07232 0.83866 0.86937 0.0
O58 O 0.07472 0.79575 0.91013 0.0
Zn59 Zn 0.06763 0.82287 0.90801 0.0
O60 O 0.07915 0.78699 0.88324 0.0
Zn61 Zn 0.07393 0.81127 0.8846 0.0
O62 O 0.0956 0.82272 0.89942 0.0
O63 O 0.08374 0.83381 0.92308 0.0
O64 O 0.07592 0.82381 0.86319 0.0
O65 O 0.06866 0.84018 0.88559 0.0
O66 O 0.04435 0.82396 0.9158 0.0
O67 O 0.04619 0.81189 0.88998 0.0
C68 C 0.09709 0.83114 0.9138 0.0
C69 C 0.03692 0.81714 0.90282 0.0
C70 C 0.71582 0.08045 0.89878 0.0
C71 C 0.66084 0.07279 0.86942 0.0
O72 O 0.70435 0.0752 0.90967 0.0
Zn73 Zn 0.67711 0.06813 0.90791 0.0
O74 O 0.71181 0.08209 0.88292 0.0
Zn75 Zn 0.68815 0.07518 0.88451 0.0
O76 O 0.67622 0.09621 0.89951 0.0
O77 O 0.66603 0.084 0.92335 0.0
O78 O 0.67554 0.07687 0.86324 0.0
O79 O 0.65949 0.06891 0.88561 0.0
O80 O 0.67643 0.04487 0.91546 0.0
O81 O 0.68864 0.04725 0.88972 0.0
C82 C 0.66809 0.09743 0.91405 0.0
C83 C 0.68356 0.03774 0.90247 0.0
C84 C 0.4199 0.71654 0.89898 0.0
C85 C 0.42734 0.66126 0.87005 0.0
O86 O 0.42507 0.70511 0.90996 0.0
Zn87 Zn 0.43197 0.67781 0.90843 0.0
O88 O 0.41826 0.71241 0.88314 0.0
Zn89 Zn 0.42502 0.68871 0.88492 0.0
O90 O 0.40391 0.677 0.89995 0.0
O91 O 0.41599 0.66692 0.92391 0.0
O92 O 0.42333 0.67595 0.86375 0.0
O93 O 0.43117 0.66003 0.88626 0.0
O94 O 0.45522 0.67706 0.91602 0.0
O95 O 0.45293 0.68911 0.8902 0.0
C96 C 0.4026 0.66898 0.91455 0.0
C97 C 0.46239 0.68406 0.903 0.0
C98 C 0.78337 0.41968 0.8985 0.0
C99 C 0.83837 0.42739 0.86929 0.0
O100 O 0.79482 0.4249 0.90943 0.0
Zn101 Zn 0.82206 0.4319 0.90776 0.0
O102 O 0.78742 0.41804 0.88265 0.0
Zn103 Zn 0.81107 0.4249 0.88433 0.0
O104 O 0.82296 0.40378 0.89928 0.0
O105 O 0.83304 0.41595 0.92318 0.0
O106 O 0.82368 0.42329 0.86308 0.0
O107 O 0.8397 0.43121 0.8855 0.0
O108 O 0.82275 0.45515 0.9154 0.0
O109 O 0.81058 0.45285 0.88963 0.0
C110 C 0.83102 0.40253 0.91386 0.0
C111 C 0.81564 0.46232 0.90242 0.0
C112 C 0.10084 0.07989 0.21552 0.0
C113 C 0.13003 0.07281 0.1604 0.0
O114 O 0.08987 0.07485 0.20402 0.0
Zn115 Zn 0.09155 0.06811 0.17665 0.0
O116 O 0.11669 0.08148 0.21147 0.0
Zn117 Zn 0.11498 0.07487 0.18775 0.0
O118 O 0.10014 0.09616 0.17605 0.0
O119 O 0.0762 0.08425 0.16578 0.0
O120 O 0.13624 0.0766 0.17518 0.0
O121 O 0.11382 0.06905 0.159 0.0
O122 O 0.08389 0.04486 0.17565 0.0
O123 O 0.10961 0.04696 0.18791 0.0
C124 C 0.08561 0.09758 0.16795 0.0
C125 C 0.09683 0.03757 0.18269 0.0
C126 C 0.42016 0.10119 0.21646 0.0
C127 C 0.42731 0.13009 0.16115 0.0
O128 O 0.42521 0.09019 0.205 0.0
Zn129 Zn 0.43192 0.0917 0.17764 0.0
O130 O 0.41853 0.11703 0.21234 0.0
Zn131 Zn 0.42513 0.11522 0.1886 0.0
O132 O 0.40388 0.10029 0.17702 0.0
O133 O 0.41578 0.07629 0.16687 0.0
O134 O 0.42344 0.1364 0.17586 0.0
O135 O 0.43107 0.11386 0.15987 0.0
O136 O 0.45515 0.08403 0.17672 0.0
O137 O 0.45301 0.10984 0.18883 0.0
C138 C 0.40245 0.08571 0.169 0.0
C139 C 0.46241 0.09703 0.1837 0.0
C140 C 0.40019 0.42147 0.21541 0.0
C141 C 0.36947 0.42733 0.16086 0.0
O142 O 0.41081 0.42517 0.20314 0.0
Zn143 Zn 0.40829 0.43217 0.17605 0.0
O144 O 0.38404 0.42093 0.21238 0.0
Zn145 Zn 0.38506 0.42594 0.18804 0.0
O146 O 0.39974 0.40419 0.17652 0.0
O147 O 0.42319 0.41602 0.16498 0.0
O148 O 0.3635 0.42385 0.17582 0.0
O149 O 0.38565 0.43099 0.15909 0.0
O150 O 0.41604 0.45546 0.17472 0.0
O151 O 0.39043 0.45368 0.18721 0.0
C152 C 0.41399 0.40267 0.16789 0.0
C153 C 0.40318 0.46292 0.18171 0.0
C154 C 0.08004 0.39881 0.21605 0.0
C155 C 0.07243 0.37 0.1607 0.0
O156 O 0.07489 0.40983 0.20464 0.0
Zn157 Zn 0.06791 0.40836 0.17732 0.0
O158 O 0.0816 0.38297 0.21189 0.0
Zn159 Zn 0.07476 0.38483 0.18821 0.0
O160 O 0.09593 0.3998 0.17651 0.0
O161 O 0.08393 0.42381 0.16646 0.0
O162 O 0.07636 0.36367 0.17539 0.0
O163 O 0.06867 0.38623 0.15948 0.0
O164 O 0.04469 0.41606 0.17661 0.0
O165 O 0.04688 0.39025 0.18871 0.0
C166 C 0.09729 0.41441 0.16851 0.0
C167 C 0.03746 0.4031 0.18368 0.0
C168 C 0.13007 0.92687 0.83954 0.0
C169 C 0.10092 0.91979 0.78439 0.0
O170 O 0.11385 0.93061 0.84092 0.0
Zn171 Zn 0.0916 0.93154 0.82325 0.0
O172 O 0.1363 0.9231 0.82476 0.0
Zn173 Zn 0.11505 0.92481 0.81217 0.0
O174 O 0.10966 0.95273 0.81204 0.0
O175 O 0.08392 0.95479 0.82427 0.0
O176 O 0.11678 0.91824 0.78843 0.0
O177 O 0.08995 0.92482 0.7959 0.0
O178 O 0.07626 0.91536 0.83405 0.0
O179 O 0.10022 0.90347 0.82381 0.0
C180 C 0.09686 0.9621 0.81726 0.0
C181 C 0.08567 0.90202 0.83187 0.0
C182 C 0.58015 0.10113 0.7841 0.0
C183 C 0.57272 0.13015 0.83932 0.0
O184 O 0.57504 0.09015 0.79555 0.0
Zn185 Zn 0.56817 0.09172 0.82288 0.0
O186 O 0.58174 0.11698 0.7882 0.0
Zn187 Zn 0.57501 0.11521 0.81191 0.0
O188 O 0.5962 0.10031 0.82365 0.0
O189 O 0.58423 0.07632 0.83378 0.0
O190 O 0.57666 0.13642 0.8246 0.0
O191 O 0.56895 0.11392 0.84061 0.0
O192 O 0.54492 0.08406 0.82369 0.0
O193 O 0.54712 0.10986 0.81157 0.0
C194 C 0.59758 0.08574 0.8317 0.0
C195 C 0.5377 0.09705 0.81668 0.0
C196 C 0.3993 0.58022 0.78508 0.0
C197 C 0.37003 0.57297 0.84011 0.0
O198 O 0.41024 0.57513 0.79659 0.0
Zn199 Zn 0.40852 0.5683 0.82392 0.0
O200 O 0.38344 0.58179 0.7891 0.0
Zn201 Zn 0.3851 0.57511 0.8128 0.0
O202 O 0.39995 0.59634 0.82454 0.0
O203 O 0.42386 0.5844 0.83486 0.0
O204 O 0.36384 0.57681 0.82534 0.0
O205 O 0.38623 0.56919 0.84153 0.0
O206 O 0.41615 0.54503 0.82486 0.0
O207 O 0.39045 0.54721 0.81255 0.0
C208 C 0.41447 0.59775 0.83268 0.0
C209 C 0.40321 0.53779 0.81776 0.0
C210 C 0.91979 0.39942 0.7843 0.0
C211 C 0.92655 0.37047 0.8396 0.0
O212 O 0.9247 0.41046 0.7958 0.0
Zn213 Zn 0.93122 0.40893 0.8232 0.0
O214 O 0.91823 0.38358 0.78841 0.0
Zn215 Zn 0.92461 0.3854 0.8122 0.0
O216 O 0.90322 0.40023 0.82369 0.0
O217 O 0.91501 0.42428 0.83388 0.0
O218 O 0.92281 0.36416 0.82485 0.0
O219 O 0.93028 0.38671 0.84092 0.0
O220 O 0.9544 0.4167 0.82441 0.0
O221 O 0.9525 0.39087 0.81232 0.0
C222 C 0.90173 0.41481 0.8317 0.0
C223 C 0.96179 0.40371 0.81758 0.0
C224 C 0.18369 0.09821 0.03777 0.0
C225 C 0.16782 0.08668 0.09737 0.0
O226 O 0.1887 0.11099 0.04729 0.0
Zn227 Zn 0.18797 0.11625 0.07522 0.0
O228 O 0.17647 0.08526 0.04487 0.0
Zn229 Zn 0.17698 0.09285 0.06813 0.0
O230 O 0.15932 0.1151 0.06882 0.0
O231 O 0.17533 0.1375 0.07681 0.0
O232 O 0.16583 0.07739 0.08393 0.0
O233 O 0.17594 0.10123 0.0962 0.0
O234 O 0.21158 0.11789 0.08229 0.0
O235 O 0.20417 0.09112 0.07539 0.0
C236 C 0.16064 0.1313 0.07269 0.0
C237 C 0.21561 0.10203 0.08071 0.0
C238 C 0.21542 0.39822 0.42041 0.0
C239 C 0.16045 0.36888 0.42804 0.0
O240 O 0.20395 0.40913 0.42562 0.0
Zn241 Zn 0.17671 0.40736 0.43276 0.0
O242 O 0.21143 0.38234 0.41889 0.0
Zn243 Zn 0.18777 0.38396 0.42577 0.0
O244 O 0.17589 0.39894 0.40468 0.0
O245 O 0.16563 0.42278 0.41682 0.0
O246 O 0.17518 0.3627 0.42405 0.0
O247 O 0.15909 0.38508 0.4319 0.0
O248 O 0.17602 0.41491 0.45606 0.0
O249 O 0.18822 0.38917 0.45371 0.0
C250 C 0.16775 0.41347 0.40341 0.0
C251 C 0.18313 0.40192 0.46322 0.0
C252 C 0.08599 0.1674 0.40288 0.0
C253 C 0.09724 0.18267 0.46272 0.0
O254 O 0.10051 0.17555 0.40421 0.0
Zn255 Zn 0.11536 0.18745 0.42537 0.0
O256 O 0.07662 0.1653 0.41626 0.0
Zn257 Zn 0.09197 0.17635 0.43225 0.0
O258 O 0.0902 0.20364 0.42527 0.0
O259 O 0.11698 0.21113 0.41856 0.0
O260 O 0.08431 0.17553 0.45549 0.0
O261 O 0.11001 0.18784 0.45328 0.0
O262 O 0.13665 0.17492 0.42373 0.0
O263 O 0.11428 0.15875 0.43144 0.0
C264 C 0.10111 0.21514 0.42012 0.0
C265 C 0.13048 0.16016 0.42765 0.0
C266 C 0.31657 0.09835 0.463 0.0
C267 C 0.3323 0.08663 0.40338 0.0
O268 O 0.3115 0.11107 0.45343 0.0
Zn269 Zn 0.31215 0.11621 0.42549 0.0
O270 O 0.3238 0.08538 0.45594 0.0
Zn271 Zn 0.3232 0.09286 0.43264 0.0
O272 O 0.3408 0.11515 0.43182 0.0
O273 O 0.32473 0.13748 0.42378 0.0
O274 O 0.33434 0.07737 0.41684 0.0
O275 O 0.32415 0.10117 0.40453 0.0
O276 O 0.28852 0.11778 0.41848 0.0
O277 O 0.29598 0.09105 0.42549 0.0
C278 C 0.33944 0.13133 0.4279 0.0
C279 C 0.28451 0.10191 0.42017 0.0
C280 C 0.40244 0.81783 0.96275 0.0
C281 C 0.41375 0.8328 0.90277 0.0
O282 O 0.3897 0.8126 0.9533 0.0
Zn283 Zn 0.3844 0.81283 0.92538 0.0
O284 O 0.41538 0.82493 0.95552 0.0
Zn285 Zn 0.40779 0.824 0.93222 0.0
O286 O 0.38546 0.84156 0.93128 0.0
O287 O 0.36311 0.82533 0.92364 0.0
O288 O 0.42312 0.835 0.91614 0.0
O289 O 0.39925 0.82463 0.90415 0.0
O290 O 0.3828 0.78912 0.91868 0.0
O291 O 0.40959 0.79668 0.92532 0.0
C292 C 0.36927 0.84011 0.92747 0.0
C293 C 0.39868 0.78515 0.92022 0.0
C294 C 0.78437 0.89825 0.07985 0.0
C295 C 0.83928 0.86885 0.07207 0.0
O296 O 0.79585 0.90914 0.07459 0.0
Zn297 Zn 0.82307 0.90735 0.06744 0.0
O298 O 0.78836 0.88238 0.08145 0.0
Zn299 Zn 0.812 0.88397 0.07447 0.0
O300 O 0.824 0.89892 0.09552 0.0
O301 O 0.83421 0.92276 0.08332 0.0
O302 O 0.82456 0.86268 0.07611 0.0
O303 O 0.84066 0.88504 0.06821 0.0
O304 O 0.8237 0.91493 0.04417 0.0
O305 O 0.81138 0.88925 0.04654 0.0
C306 C 0.83216 0.91345 0.09674 0.0
C307 C 0.81647 0.90201 0.03704 0.0
C308 C 0.0862 0.83259 0.59693 0.0
C309 C 0.09745 0.81753 0.53704 0.0
O310 O 0.10073 0.82447 0.59557 0.0
Zn311 Zn 0.11561 0.8127 0.57435 0.0
O312 O 0.07685 0.83476 0.58355 0.0
Zn313 Zn 0.09222 0.82383 0.56752 0.0
O314 O 0.09049 0.79651 0.5744 0.0
O315 O 0.11729 0.78903 0.58109 0.0
O316 O 0.08456 0.82471 0.54428 0.0
O317 O 0.11022 0.81233 0.54646 0.0
O318 O 0.13688 0.82523 0.57602 0.0
O319 O 0.1145 0.84144 0.56841 0.0
C320 C 0.10143 0.78501 0.57951 0.0
C321 C 0.13071 0.84001 0.57218 0.0
C322 C 0.39872 0.71526 0.5805 0.0
C323 C 0.36967 0.66003 0.57313 0.0
O324 O 0.40967 0.7038 0.57532 0.0
Zn325 Zn 0.40805 0.67649 0.56839 0.0
O326 O 0.38288 0.71117 0.58212 0.0
Zn327 Zn 0.3846 0.68747 0.57531 0.0
O328 O 0.3996 0.67571 0.59645 0.0
O329 O 0.42351 0.66557 0.58436 0.0
O330 O 0.3634 0.67475 0.57704 0.0
O331 O 0.38587 0.65874 0.56929 0.0
O332 O 0.41564 0.67569 0.54512 0.0
O333 O 0.38989 0.68787 0.54738 0.0
C334 C 0.41416 0.66765 0.59775 0.0
C335 C 0.40267 0.68277 0.53792 0.0
C336 C 0.96184 0.81697 0.90297 0.0
C337 C 0.9019 0.83149 0.91425 0.0
O338 O 0.95453 0.82383 0.916 0.0
Zn339 Zn 0.93133 0.82283 0.90829 0.0
O340 O 0.95248 0.81184 0.89012 0.0
Zn341 Zn 0.92457 0.81194 0.88472 0.0
O342 O 0.92282 0.82476 0.86354 0.0
O343 O 0.93047 0.84064 0.88615 0.0
O344 O 0.90332 0.82351 0.89965 0.0
O345 O 0.91521 0.83357 0.92371 0.0
O346 O 0.92463 0.79548 0.90975 0.0
O347 O 0.918 0.78817 0.88289 0.0
C348 C 0.9267 0.83945 0.86992 0.0
C349 C 0.9196 0.78403 0.89873 0.0
C350 C 0.66013 0.92777 0.86913 0.0
C351 C 0.71519 0.91999 0.8982 0.0
O352 O 0.67482 0.92374 0.86289 0.0
Zn353 Zn 0.68749 0.92535 0.8841 0.0
O354 O 0.65883 0.93161 0.88534 0.0
Zn355 Zn 0.67654 0.93236 0.90755 0.0
O356 O 0.67594 0.9556 0.91517 0.0
O357 O 0.68815 0.95325 0.88942 0.0
O358 O 0.70377 0.92524 0.90916 0.0
O359 O 0.7111 0.9184 0.88235 0.0
O360 O 0.67563 0.90429 0.89913 0.0
O361 O 0.66554 0.91647 0.92303 0.0
C362 C 0.68313 0.96274 0.90222 0.0
C363 C 0.66757 0.90305 0.91371 0.0
C364 C 0.57247 0.66093 0.86969 0.0
C365 C 0.57979 0.71622 0.89858 0.0
O366 O 0.5764 0.67563 0.86338 0.0
Zn367 Zn 0.57472 0.68839 0.88456 0.0
O368 O 0.56868 0.65967 0.88591 0.0
Zn369 Zn 0.56783 0.67745 0.90806 0.0
O370 O 0.54461 0.67666 0.9157 0.0
O371 O 0.54683 0.68882 0.88992 0.0
O372 O 0.57467 0.70478 0.90957 0.0
O373 O 0.58143 0.71209 0.88274 0.0
O374 O 0.59589 0.67674 0.89957 0.0
O375 O 0.58385 0.66664 0.92354 0.0
C376 C 0.5374 0.68375 0.90274 0.0
C377 C 0.59723 0.66873 0.91418 0.0
C378 C 0.78385 0.58024 0.89861 0.0
C379 C 0.83882 0.57229 0.86936 0.0
O380 O 0.78788 0.58181 0.88274 0.0
Zn381 Zn 0.8115 0.5748 0.8844 0.0
O382 O 0.79529 0.57497 0.90953 0.0
Zn383 Zn 0.8225 0.56777 0.90783 0.0
O384 O 0.83363 0.58366 0.92324 0.0
O385 O 0.82348 0.59584 0.89936 0.0
O386 O 0.84013 0.56844 0.88556 0.0
O387 O 0.82413 0.5764 0.86314 0.0
O388 O 0.81087 0.54688 0.88967 0.0
O389 O 0.82306 0.54449 0.91542 0.0
C390 C 0.83161 0.59708 0.91391 0.0
C391 C 0.81589 0.53737 0.90245 0.0
C392 C 0.96241 0.18367 0.0978 0.0
C393 C 0.90252 0.16881 0.08646 0.0
O394 O 0.95515 0.17664 0.08483 0.0
Zn395 Zn 0.93193 0.17755 0.09249 0.0
O396 O 0.95301 0.18879 0.11062 0.0
Zn397 Zn 0.9251 0.18852 0.11599 0.0
O398 O 0.92336 0.1758 0.13722 0.0
O399 O 0.93107 0.15983 0.11468 0.0
O400 O 0.90389 0.17685 0.10104 0.0
O401 O 0.91587 0.16672 0.07706 0.0
O402 O 0.92519 0.20487 0.09093 0.0
O403 O 0.91845 0.21224 0.11775 0.0
C404 C 0.92726 0.1611 0.1309 0.0
C405 C 0.92011 0.21634 0.10191 0.0
C406 C 0.33124 0.903 0.08713 0.0
C407 C 0.31574 0.96262 0.09894 0.0
O408 O 0.33329 0.91648 0.0779 0.0
Zn409 Zn 0.32223 0.93225 0.09343 0.0
O410 O 0.32312 0.90415 0.10169 0.0
Zn411 Zn 0.31121 0.92511 0.11682 0.0
O412 O 0.28754 0.91817 0.11838 0.0
O413 O 0.29503 0.92514 0.09165 0.0
O414 O 0.31068 0.95309 0.11169 0.0
O415 O 0.32288 0.95551 0.08595 0.0
O416 O 0.33985 0.93135 0.11568 0.0
O417 O 0.32388 0.92328 0.13808 0.0
C418 C 0.28355 0.91984 0.10251 0.0
C419 C 0.33857 0.92738 0.13186 0.0
C420 C 0.53738 0.31663 0.09779 0.0
C421 C 0.59721 0.33176 0.08624 0.0
O422 O 0.54455 0.32371 0.08479 0.0
Zn423 Zn 0.56783 0.32293 0.09235 0.0
O424 O 0.54687 0.31152 0.11055 0.0
Zn425 Zn 0.57479 0.31192 0.1158 0.0
O426 O 0.57651 0.32461 0.13703 0.0
O427 O 0.56868 0.34062 0.11457 0.0
O428 O 0.5959 0.32368 0.10081 0.0
O429 O 0.58382 0.33387 0.0769 0.0
O430 O 0.57473 0.29562 0.0907 0.0
O431 O 0.58156 0.28822 0.1175 0.0
C432 C 0.57252 0.33932 0.13078 0.0
C433 C 0.57991 0.28415 0.10165 0.0
C434 C 0.16061 0.57248 0.13095 0.0
C435 C 0.21563 0.58051 0.10175 0.0
O436 O 0.17529 0.57664 0.13716 0.0
Zn437 Zn 0.18794 0.57504 0.11592 0.0
O438 O 0.15932 0.56858 0.11475 0.0
Zn439 Zn 0.17703 0.5679 0.09251 0.0
O440 O 0.17654 0.54463 0.08495 0.0
O441 O 0.18868 0.5471 0.11072 0.0
O442 O 0.20423 0.57516 0.09082 0.0
O443 O 0.21155 0.58214 0.1176 0.0
O444 O 0.17587 0.59597 0.10088 0.0
O445 O 0.16587 0.58366 0.07701 0.0
C446 C 0.18371 0.53756 0.09795 0.0
C447 C 0.16777 0.59711 0.08632 0.0
C448 C 0.86957 0.92807 0.83954 0.0
C449 C 0.90059 0.92167 0.78523 0.0
O450 O 0.86368 0.92452 0.82456 0.0
Zn451 Zn 0.88531 0.92652 0.81246 0.0
O452 O 0.88576 0.93171 0.84138 0.0
Zn453 Zn 0.9085 0.93277 0.82453 0.0
O454 O 0.91626 0.9561 0.8257 0.0
O455 O 0.89068 0.95425 0.81317 0.0
O456 O 0.91117 0.92546 0.79753 0.0
O457 O 0.88442 0.92129 0.78815 0.0
O458 O 0.89986 0.9048 0.82421 0.0
O459 O 0.92327 0.91662 0.83586 0.0
C460 C 0.90341 0.96353 0.81865 0.0
C461 C 0.91404 0.90328 0.83296 0.0
C462 C 0.57204 0.86998 0.83948 0.0
C463 C 0.57949 0.89885 0.78422 0.0
O464 O 0.57595 0.86368 0.82477 0.0
Zn465 Zn 0.57429 0.88485 0.81203 0.0
O466 O 0.56825 0.8862 0.84075 0.0
Zn467 Zn 0.56742 0.90835 0.82295 0.0
O468 O 0.54418 0.916 0.82371 0.0
O469 O 0.5464 0.8902 0.8116 0.0
O470 O 0.57436 0.90986 0.79563 0.0
O471 O 0.58105 0.883 0.78835 0.0
O472 O 0.59545 0.89984 0.82371 0.0
O473 O 0.58342 0.92382 0.83381 0.0
C474 C 0.53697 0.90301 0.81666 0.0
C475 C 0.59679 0.91444 0.83172 0.0
C476 C 0.5971 0.53756 0.8174 0.0
C477 C 0.58575 0.59747 0.83238 0.0
O478 O 0.58416 0.5448 0.82451 0.0
Zn479 Zn 0.59179 0.56805 0.82364 0.0
O480 O 0.60988 0.54699 0.81224 0.0
Zn481 Zn 0.61523 0.57489 0.81258 0.0
O482 O 0.63645 0.5766 0.8252 0.0
O483 O 0.61402 0.56896 0.84132 0.0
O484 O 0.6003 0.59611 0.8243 0.0
O485 O 0.57639 0.5841 0.83453 0.0
O486 O 0.59015 0.57492 0.79631 0.0
O487 O 0.61696 0.58161 0.78889 0.0
C488 C 0.63023 0.57275 0.83996 0.0
C489 C 0.60111 0.58003 0.78483 0.0
C490 C 0.9271 0.62963 0.83975 0.0
C491 C 0.9201 0.60059 0.78456 0.0
O492 O 0.92332 0.63587 0.82498 0.0
Zn493 Zn 0.92504 0.61463 0.81239 0.0
O494 O 0.93082 0.61341 0.84114 0.0
Zn495 Zn 0.93173 0.59115 0.82344 0.0
O496 O 0.95494 0.58343 0.82456 0.0
O497 O 0.95292 0.60921 0.81238 0.0
O498 O 0.92507 0.58957 0.79605 0.0
O499 O 0.91856 0.61644 0.78866 0.0
O500 O 0.90371 0.59978 0.82396 0.0
O501 O 0.91557 0.57579 0.83419 0.0
C502 C 0.96227 0.59641 0.81763 0.0
C503 C 0.90225 0.58521 0.832 0.0
C504 C 0.90048 0.07893 0.21553 0.0
C505 C 0.86968 0.07274 0.16102 0.0
O506 O 0.88433 0.07946 0.21253 0.0
Zn507 Zn 0.88529 0.07428 0.1882 0.0
O508 O 0.91108 0.07512 0.20326 0.0
Zn509 Zn 0.90851 0.06795 0.17623 0.0
O510 O 0.92341 0.08403 0.16503 0.0
O511 O 0.89999 0.09594 0.17656 0.0
O512 O 0.88586 0.06905 0.15927 0.0
O513 O 0.86372 0.07634 0.17596 0.0
O514 O 0.89059 0.04653 0.18746 0.0
O515 O 0.91622 0.04464 0.17504 0.0
C516 C 0.91423 0.0974 0.1679 0.0
C517 C 0.90332 0.03723 0.18202 0.0
C518 C 0.46261 0.90358 0.18243 0.0
C519 C 0.40233 0.91435 0.16871 0.0
O520 O 0.45512 0.91651 0.17559 0.0
Zn521 Zn 0.43185 0.90867 0.17683 0.0
O522 O 0.4534 0.89075 0.18779 0.0
Zn523 Zn 0.42568 0.8853 0.18858 0.0
O524 O 0.42366 0.86383 0.17614 0.0
O525 O 0.43077 0.88619 0.15964 0.0
O526 O 0.40389 0.90002 0.17721 0.0
O527 O 0.41564 0.92363 0.1659 0.0
O528 O 0.42486 0.91091 0.20394 0.0
O529 O 0.42069 0.88404 0.21294 0.0
C530 C 0.42717 0.86996 0.16124 0.0
C531 C 0.42118 0.90017 0.21613 0.0
C532 C 0.63015 0.42747 0.16068 0.0
C533 C 0.60086 0.42037 0.21578 0.0
O534 O 0.63633 0.42362 0.17546 0.0
Zn535 Zn 0.61507 0.42535 0.18802 0.0
O536 O 0.61394 0.43126 0.15928 0.0
Zn537 Zn 0.59166 0.43219 0.1769 0.0
O538 O 0.58404 0.45544 0.17592 0.0
O539 O 0.60973 0.45327 0.18826 0.0
O540 O 0.58994 0.42546 0.20425 0.0
O541 O 0.61671 0.41871 0.21175 0.0
O542 O 0.60018 0.40412 0.17631 0.0
O543 O 0.57629 0.41611 0.16601 0.0
C544 C 0.59697 0.46268 0.18303 0.0
C545 C 0.58565 0.40274 0.1682 0.0
C546 C 0.07234 0.6298 0.16089 0.0
C547 C 0.07992 0.60084 0.21613 0.0
O548 O 0.07633 0.6361 0.17558 0.0
Zn549 Zn 0.07472 0.6149 0.18832 0.0
O550 O 0.06857 0.61358 0.15963 0.0
Zn551 Zn 0.06785 0.59139 0.17738 0.0
O552 O 0.0446 0.58372 0.17663 0.0
O553 O 0.04683 0.60953 0.18873 0.0
O554 O 0.07479 0.58985 0.20469 0.0
O555 O 0.0815 0.61668 0.21202 0.0
O556 O 0.09588 0.59998 0.17657 0.0
O557 O 0.08392 0.57599 0.16645 0.0
C558 C 0.03739 0.59672 0.18366 0.0
C559 C 0.09726 0.58541 0.16852 0.0
C560 C 0.83866 0.86924 0.92694 0.0
C561 C 0.78367 0.89848 0.91936 0.0
O562 O 0.82397 0.86306 0.92284 0.0
Zn563 Zn 0.81138 0.88431 0.92451 0.0
O564 O 0.84001 0.88544 0.93081 0.0
Zn565 Zn 0.82237 0.9077 0.93158 0.0
O566 O 0.82309 0.91526 0.95485 0.0
O567 O 0.81092 0.8895 0.95248 0.0
O568 O 0.79512 0.9094 0.92461 0.0
O569 O 0.78773 0.88264 0.91766 0.0
O570 O 0.82328 0.89932 0.90344 0.0
O571 O 0.83333 0.92318 0.91569 0.0
C572 C 0.816 0.90226 0.96199 0.0
C573 C 0.83133 0.9139 0.90223 0.0
C574 C 0.7841 0.60219 0.5807 0.0
C575 C 0.83913 0.63152 0.57331 0.0
O576 O 0.78812 0.61805 0.58245 0.0
Zn577 Zn 0.81179 0.61648 0.57555 0.0
O578 O 0.79558 0.59133 0.57541 0.0
Zn579 Zn 0.82281 0.59309 0.56841 0.0
O580 O 0.83385 0.57757 0.58422 0.0
O581 O 0.82369 0.60137 0.59653 0.0
O582 O 0.84043 0.61534 0.56934 0.0
O583 O 0.82444 0.63774 0.57738 0.0
O584 O 0.81127 0.61135 0.54757 0.0
O585 O 0.82351 0.58563 0.54513 0.0
C586 C 0.83181 0.58682 0.59769 0.0
C587 C 0.81636 0.59861 0.53803 0.0
C588 C 0.9032 0.81827 0.5383 0.0
C589 C 0.91383 0.83181 0.59872 0.0
O590 O 0.91609 0.82511 0.54584 0.0
Zn591 Zn 0.90825 0.8237 0.56913 0.0
O592 O 0.89041 0.81277 0.54749 0.0
Zn593 Zn 0.88499 0.81174 0.57524 0.0
O594 O 0.86342 0.82395 0.5773 0.0
O595 O 0.88562 0.84068 0.57026 0.0
O596 O 0.89956 0.82322 0.59713 0.0
O597 O 0.92309 0.83469 0.5854 0.0
O598 O 0.91074 0.79662 0.57609 0.0
O599 O 0.88395 0.78736 0.58014 0.0
C600 C 0.86941 0.83891 0.57385 0.0
C601 C 0.90011 0.78433 0.57971 0.0
C602 C 0.66778 0.91353 0.59733 0.0
C603 C 0.68341 0.90215 0.53762 0.0
O604 O 0.66574 0.92288 0.58393 0.0
Zn605 Zn 0.67682 0.90746 0.56803 0.0
O606 O 0.67586 0.89897 0.59607 0.0
Zn607 Zn 0.68778 0.88401 0.57499 0.0
O608 O 0.71139 0.88228 0.58201 0.0
O609 O 0.70402 0.90911 0.57531 0.0
O610 O 0.68843 0.88934 0.54709 0.0
O611 O 0.67627 0.91511 0.54478 0.0
O612 O 0.65912 0.88523 0.56873 0.0
O613 O 0.67513 0.86278 0.57657 0.0
C614 C 0.71543 0.89815 0.58055 0.0
C615 C 0.66043 0.86901 0.57255 0.0
C616 C 0.63026 0.16052 0.07264 0.0
C617 C 0.60104 0.21557 0.08022 0.0
O618 O 0.63646 0.17526 0.07657 0.0
Zn619 Zn 0.61521 0.18786 0.07492 0.0
O620 O 0.61405 0.15915 0.06883 0.0
Zn621 Zn 0.59179 0.17682 0.06801 0.0
O622 O 0.58416 0.17607 0.04476 0.0
O623 O 0.60988 0.1883 0.04701 0.0
O624 O 0.5901 0.2041 0.07505 0.0
O625 O 0.61689 0.21153 0.08177 0.0
O626 O 0.6003 0.176 0.09606 0.0
O627 O 0.5764 0.16579 0.08399 0.0
C628 C 0.5971 0.18319 0.03755 0.0
C629 C 0.58577 0.16788 0.09737 0.0
C630 C 0.16793 0.0863 0.90321 0.0
C631 C 0.18386 0.09799 0.96277 0.0
O632 O 0.16597 0.07703 0.91667 0.0
Zn633 Zn 0.17716 0.09251 0.93243 0.0
O634 O 0.17604 0.10085 0.90434 0.0
Zn635 Zn 0.18811 0.11591 0.92527 0.0
O636 O 0.21169 0.11757 0.91817 0.0
O637 O 0.20434 0.09079 0.92511 0.0
O638 O 0.18884 0.11074 0.95321 0.0
O639 O 0.1767 0.08499 0.95571 0.0
O640 O 0.15951 0.11478 0.93174 0.0
O641 O 0.17551 0.13715 0.92364 0.0
C642 C 0.21574 0.10171 0.91976 0.0
C643 C 0.16083 0.13097 0.92783 0.0
C644 C 0.91387 0.16812 0.40205 0.0
C645 C 0.90253 0.18294 0.46206 0.0
O646 O 0.92323 0.16598 0.41542 0.0
Zn647 Zn 0.90787 0.17685 0.43152 0.0
O648 O 0.89933 0.17622 0.40342 0.0
Zn649 Zn 0.88446 0.18796 0.42469 0.0
O650 O 0.88281 0.21168 0.41803 0.0
O651 O 0.90959 0.20418 0.42471 0.0
O652 O 0.88977 0.18815 0.45263 0.0
O653 O 0.91549 0.17589 0.4548 0.0
O654 O 0.88558 0.15923 0.43058 0.0
O655 O 0.86319 0.17542 0.42294 0.0
C656 C 0.89867 0.21569 0.41961 0.0
C657 C 0.86938 0.16065 0.42679 0.0
C658 C 0.60107 0.28502 0.41988 0.0
C659 C 0.63038 0.34 0.42755 0.0
O660 O 0.61692 0.28906 0.41827 0.0
Zn661 Zn 0.61528 0.3127 0.42519 0.0
O662 O 0.59015 0.29648 0.42512 0.0
Zn663 Zn 0.5919 0.32375 0.43219 0.0
O664 O 0.57649 0.33484 0.41628 0.0
O665 O 0.60035 0.32467 0.40412 0.0
O666 O 0.61418 0.34138 0.43139 0.0
O667 O 0.63655 0.32527 0.42356 0.0
O668 O 0.61 0.31216 0.45312 0.0
O669 O 0.5843 0.32446 0.45545 0.0
C670 C 0.58582 0.33281 0.40288 0.0
C671 C 0.59724 0.31727 0.4626 0.0
C672 C 0.08034 0.71639 0.60068 0.0
C673 C 0.07314 0.66134 0.62992 0.0
O674 O 0.07533 0.70488 0.5897 0.0
Zn675 Zn 0.06862 0.67755 0.59136 0.0
O676 O 0.0819 0.71234 0.61654 0.0
Zn677 Zn 0.07536 0.68861 0.61485 0.0
O678 O 0.09663 0.67687 0.60006 0.0
O679 O 0.08475 0.66665 0.57608 0.0
O680 O 0.07709 0.67606 0.63615 0.0
O681 O 0.06938 0.65997 0.61369 0.0
O682 O 0.04542 0.6765 0.58363 0.0
O683 O 0.04746 0.6886 0.60945 0.0
C684 C 0.09806 0.66877 0.58553 0.0
C685 C 0.0381 0.68338 0.59664 0.0
C686 C 0.28454 0.57973 0.60211 0.0
C687 C 0.33951 0.57206 0.63141 0.0
O688 O 0.296 0.57448 0.5912 0.0
Zn689 Zn 0.32324 0.56735 0.59293 0.0
O690 O 0.28856 0.58131 0.61798 0.0
Zn691 Zn 0.3122 0.57438 0.61634 0.0
O692 O 0.3241 0.59544 0.60133 0.0
O693 O 0.33432 0.58326 0.57749 0.0
O694 O 0.3248 0.57608 0.6376 0.0
O695 O 0.34086 0.56818 0.61521 0.0
O696 O 0.32389 0.54404 0.58541 0.0
O697 O 0.31163 0.54645 0.61112 0.0
C698 C 0.33223 0.59669 0.58679 0.0
C699 C 0.31671 0.53692 0.59837 0.0
C700 C 0.41977 0.78404 0.60148 0.0
C701 C 0.42721 0.83943 0.63025 0.0
O702 O 0.42497 0.79543 0.59047 0.0
Zn703 Zn 0.43191 0.82275 0.59194 0.0
O704 O 0.41812 0.78822 0.6173 0.0
Zn705 Zn 0.42494 0.81191 0.61545 0.0
O706 O 0.40385 0.82361 0.60035 0.0
O707 O 0.41599 0.83358 0.57638 0.0
O708 O 0.42323 0.82476 0.63659 0.0
O709 O 0.43106 0.84062 0.61403 0.0
O710 O 0.45515 0.82346 0.58435 0.0
O711 O 0.45286 0.81143 0.61018 0.0
C712 C 0.40258 0.83158 0.58572 0.0
C713 C 0.46233 0.81644 0.59737 0.0
C714 C 0.18407 0.96252 0.59823 0.0
C715 C 0.16849 0.90296 0.58625 0.0
O716 O 0.1891 0.95293 0.61094 0.0
Zn717 Zn 0.18849 0.92497 0.616 0.0
O718 O 0.17692 0.95549 0.5852 0.0
Zn719 Zn 0.17752 0.93221 0.59262 0.0
O720 O 0.15986 0.93134 0.61484 0.0
O721 O 0.17581 0.92319 0.63722 0.0
O722 O 0.16646 0.91646 0.57704 0.0
O723 O 0.17658 0.90407 0.60082 0.0
O724 O 0.21214 0.91802 0.6176 0.0
O725 O 0.20474 0.92514 0.59088 0.0
C726 C 0.16114 0.92736 0.63102 0.0
C727 C 0.21619 0.9198 0.60176 0.0
C728 C 0.07992 0.28377 0.39893 0.0
C729 C 0.0726 0.33899 0.36992 0.0
O730 O 0.07477 0.29521 0.40991 0.0
Zn731 Zn 0.06788 0.32253 0.40832 0.0
O732 O 0.08155 0.28788 0.38309 0.0
Zn733 Zn 0.07482 0.31158 0.38486 0.0
O734 O 0.09595 0.3233 0.39989 0.0
O735 O 0.08385 0.33341 0.42381 0.0
O736 O 0.07656 0.32428 0.36366 0.0
O737 O 0.06876 0.34028 0.38613 0.0
O738 O 0.04464 0.32333 0.41591 0.0
O739 O 0.0469 0.31123 0.39011 0.0
C740 C 0.09724 0.33133 0.41448 0.0
C741 C 0.03744 0.31632 0.4029 0.0
C742 C 0.71566 0.58069 0.39868 0.0
C743 C 0.66068 0.57279 0.36937 0.0
O744 O 0.70421 0.5754 0.40959 0.0
Zn745 Zn 0.67699 0.56822 0.40785 0.0
O746 O 0.71164 0.58227 0.38281 0.0
Zn747 Zn 0.68801 0.57526 0.38444 0.0
O748 O 0.67603 0.59628 0.39941 0.0
O749 O 0.66587 0.58408 0.42328 0.0
O750 O 0.67538 0.57688 0.36317 0.0
O751 O 0.65936 0.56894 0.38557 0.0
O752 O 0.67641 0.54496 0.41544 0.0
O753 O 0.68864 0.54734 0.38971 0.0
C754 C 0.6679 0.59751 0.41396 0.0
C755 C 0.6836 0.53784 0.40249 0.0
C756 C 0.42005 0.21647 0.39909 0.0
C757 C 0.4275 0.16128 0.37012 0.0
O758 O 0.42521 0.20504 0.41008 0.0
Zn759 Zn 0.43208 0.17774 0.40853 0.0
O760 O 0.4184 0.21235 0.38325 0.0
Zn761 Zn 0.42515 0.18868 0.38504 0.0
O762 O 0.40402 0.17694 0.40002 0.0
O763 O 0.41607 0.16684 0.42398 0.0
O764 O 0.42349 0.17597 0.36384 0.0
O765 O 0.43131 0.16001 0.38634 0.0
O766 O 0.45533 0.17698 0.41614 0.0
O767 O 0.45304 0.18909 0.39034 0.0
C768 C 0.40269 0.16891 0.41461 0.0
C769 C 0.46251 0.18402 0.40314 0.0
C770 C 0.78405 0.92 0.39832 0.0
C771 C 0.83904 0.92779 0.36899 0.0
O772 O 0.79548 0.92538 0.4092 0.0
Zn773 Zn 0.82269 0.93261 0.40742 0.0
O774 O 0.7881 0.9183 0.38247 0.0
Zn775 Zn 0.81172 0.92537 0.38406 0.0
O776 O 0.82378 0.90449 0.3992 0.0
O777 O 0.83385 0.91691 0.42299 0.0
O778 O 0.82435 0.92363 0.36282 0.0
O779 O 0.84035 0.93177 0.38516 0.0
O780 O 0.82322 0.95592 0.41484 0.0
O781 O 0.81104 0.95334 0.3891 0.0
C782 C 0.8319 0.90341 0.41376 0.0
C783 C 0.81605 0.96294 0.40182 0.0
C784 C 0.09896 0.57886 0.71499 0.0
C785 C 0.12968 0.57283 0.66047 0.0
O786 O 0.08828 0.57528 0.70272 0.0
Zn787 Zn 0.09077 0.5683 0.6756 0.0
O788 O 0.1151 0.57923 0.71194 0.0
Zn789 Zn 0.11403 0.57432 0.68759 0.0
O790 O 0.09957 0.5962 0.67604 0.0
O791 O 0.07601 0.58455 0.66454 0.0
O792 O 0.13564 0.57626 0.67545 0.0
O793 O 0.11346 0.56931 0.65865 0.0
O794 O 0.08281 0.54509 0.67415 0.0
O795 O 0.10847 0.54664 0.68656 0.0
C796 C 0.08534 0.59781 0.6674 0.0
C797 C 0.09567 0.53751 0.68102 0.0
C798 C 0.40279 0.5856 0.66885 0.0
C799 C 0.46262 0.59709 0.68374 0.0
O800 O 0.40412 0.6002 0.67685 0.0
Zn801 Zn 0.4253 0.61522 0.68849 0.0
O802 O 0.41617 0.57624 0.66675 0.0
Zn803 Zn 0.43218 0.59173 0.67756 0.0
O804 O 0.42537 0.59021 0.7049 0.0
O805 O 0.41863 0.61705 0.71219 0.0
O806 O 0.45541 0.5841 0.67671 0.0
O807 O 0.45319 0.6099 0.68884 0.0
O808 O 0.42358 0.6364 0.67578 0.0
O809 O 0.4313 0.6139 0.65977 0.0
C810 C 0.42027 0.60122 0.71634 0.0
C811 C 0.42749 0.63011 0.66106 0.0
C812 C 0.39877 0.92034 0.7151 0.0
C813 C 0.36971 0.92777 0.65991 0.0
O814 O 0.40975 0.92547 0.70364 0.0
Zn815 Zn 0.40813 0.93244 0.67632 0.0
O816 O 0.38292 0.91883 0.71103 0.0
Zn817 Zn 0.38466 0.92561 0.68733 0.0
O818 O 0.39957 0.9044 0.67559 0.0
O819 O 0.42351 0.91636 0.66537 0.0
O820 O 0.36345 0.92393 0.67466 0.0
O821 O 0.38592 0.93156 0.65859 0.0
O822 O 0.41575 0.95573 0.6755 0.0
O823 O 0.39001 0.95353 0.6877 0.0
C824 C 0.41411 0.90301 0.6675 0.0
C825 C 0.4028 0.96297 0.68257 0.0
C826 C 0.07986 0.89884 0.71565 0.0
C827 C 0.07284 0.86995 0.66033 0.0
O828 O 0.07484 0.90986 0.70418 0.0
Zn829 Zn 0.06816 0.90835 0.67681 0.0
O830 O 0.08145 0.883 0.71153 0.0
Zn831 Zn 0.07491 0.88482 0.68779 0.0
O832 O 0.0962 0.89975 0.67626 0.0
O833 O 0.08432 0.92375 0.66608 0.0
O834 O 0.07666 0.86364 0.67506 0.0
O835 O 0.06909 0.88618 0.65904 0.0
O836 O 0.04493 0.91602 0.67577 0.0
O837 O 0.04702 0.89021 0.6879 0.0
C838 C 0.09764 0.91434 0.66826 0.0
C839 C 0.03764 0.90302 0.68271 0.0
C840 C 0.13034 0.42701 0.34004 0.0
C841 C 0.10127 0.41968 0.2848 0.0
O842 O 0.11413 0.43083 0.34133 0.0
Zn843 Zn 0.09194 0.43171 0.3236 0.0
O844 O 0.1366 0.4231 0.32531 0.0
Zn845 Zn 0.1154 0.42481 0.3126 0.0
O846 O 0.11009 0.45273 0.31223 0.0
O847 O 0.08434 0.45497 0.32443 0.0
O848 O 0.11711 0.41804 0.28888 0.0
O849 O 0.09032 0.42484 0.29627 0.0
O850 O 0.0765 0.4157 0.3345 0.0
O851 O 0.10043 0.40365 0.32434 0.0
C852 C 0.09731 0.46218 0.31735 0.0
C853 C 0.08587 0.40232 0.3324 0.0
C854 C 0.59732 0.58588 0.33188 0.0
C855 C 0.53741 0.59714 0.31696 0.0
O856 O 0.59593 0.60045 0.32383 0.0
Zn857 Zn 0.57471 0.61535 0.31213 0.0
O858 O 0.58398 0.57648 0.33401 0.0
Zn859 Zn 0.56789 0.59187 0.32314 0.0
O860 O 0.57471 0.59028 0.2958 0.0
O861 O 0.58138 0.61712 0.28843 0.0
O862 O 0.54467 0.58418 0.32401 0.0
O863 O 0.54682 0.60995 0.31183 0.0
O864 O 0.57636 0.63657 0.32479 0.0
O865 O 0.5687 0.6141 0.34085 0.0
C866 C 0.57979 0.60127 0.28433 0.0
C867 C 0.57246 0.63032 0.33952 0.0
C868 C 0.39938 0.08012 0.28525 0.0
C869 C 0.37023 0.07298 0.34038 0.0
O870 O 0.41036 0.07511 0.29675 0.0
Zn871 Zn 0.40872 0.06836 0.32412 0.0
O872 O 0.38352 0.08164 0.28931 0.0
Zn873 Zn 0.38526 0.07506 0.31303 0.0
O874 O 0.40008 0.09638 0.32468 0.0
O875 O 0.42405 0.0845 0.33495 0.0
O876 O 0.36401 0.07676 0.3256 0.0
O877 O 0.38645 0.06926 0.34179 0.0
O878 O 0.41645 0.04515 0.32518 0.0
O879 O 0.3907 0.04718 0.31294 0.0
C880 C 0.41463 0.09782 0.33276 0.0
C881 C 0.4035 0.03783 0.31819 0.0
C882 C 0.91972 0.89887 0.28394 0.0
C883 C 0.92714 0.87006 0.33929 0.0
O884 O 0.9249 0.90987 0.29535 0.0
Zn885 Zn 0.93175 0.9084 0.32268 0.0
O886 O 0.91803 0.88305 0.2881 0.0
Zn887 Zn 0.9248 0.88487 0.3118 0.0
O888 O 0.90368 0.8999 0.32349 0.0
O889 O 0.91572 0.92388 0.33353 0.0
O890 O 0.92312 0.86372 0.32463 0.0
O891 O 0.93097 0.88628 0.34049 0.0
O892 O 0.95502 0.91599 0.32342 0.0
O893 O 0.95271 0.89017 0.31136 0.0
C894 C 0.90235 0.9145 0.33148 0.0
C895 C 0.96218 0.90297 0.3164 0.0
C896 C 0.21614 0.60139 0.58073 0.0
C897 C 0.16124 0.63084 0.57297 0.0
O898 O 0.20465 0.5905 0.57552 0.0
Zn899 Zn 0.17742 0.59229 0.56849 0.0
O900 O 0.21214 0.61726 0.58235 0.0
Zn901 Zn 0.18848 0.61568 0.57546 0.0
O902 O 0.17645 0.60084 0.59658 0.0
O903 O 0.16634 0.57694 0.58445 0.0
O904 O 0.17596 0.63699 0.57705 0.0
O905 O 0.15985 0.61463 0.56916 0.0
O906 O 0.17668 0.58463 0.54525 0.0
O907 O 0.18891 0.61037 0.54752 0.0
C908 C 0.16832 0.58631 0.59785 0.0
C909 C 0.1838 0.59759 0.53805 0.0
C910 C 0.1606 0.86831 0.92704 0.0
C911 C 0.21551 0.89778 0.91948 0.0
O912 O 0.15925 0.88449 0.93099 0.0
Zn913 Zn 0.17681 0.90679 0.93189 0.0
O914 O 0.17532 0.86215 0.92298 0.0
Zn915 Zn 0.1879 0.88344 0.92477 0.0
O916 O 0.18847 0.88861 0.95274 0.0
O917 O 0.17615 0.91429 0.95516 0.0
O918 O 0.21154 0.88191 0.91782 0.0
O919 O 0.20401 0.90863 0.92478 0.0
O920 O 0.1657 0.92228 0.91609 0.0
O921 O 0.17594 0.89851 0.90378 0.0
C922 C 0.18337 0.90135 0.96227 0.0
C923 C 0.16778 0.91304 0.90262 0.0
C924 C 0.08599 0.66768 0.90188 0.0
C925 C 0.09657 0.6817 0.9622 0.0
O926 O 0.10023 0.67633 0.90342 0.0
Zn927 Zn 0.11478 0.68796 0.92521 0.0
O928 O 0.07675 0.66482 0.91521 0.0
Zn929 Zn 0.09157 0.67595 0.93142 0.0
O930 O 0.08898 0.70299 0.9243 0.0
O931 O 0.11573 0.71231 0.92005 0.0
O932 O 0.08373 0.67468 0.9547 0.0
O933 O 0.10933 0.68719 0.95297 0.0
O934 O 0.13639 0.67577 0.92324 0.0
O935 O 0.11424 0.65902 0.93036 0.0
C936 C 0.09957 0.71527 0.92054 0.0
C937 C 0.13044 0.66081 0.92676 0.0
C938 C 0.28448 0.60204 0.9198 0.0
C939 C 0.33939 0.63136 0.92782 0.0
O940 O 0.29592 0.59113 0.92511 0.0
Zn941 Zn 0.3231 0.59288 0.9324 0.0
O942 O 0.2885 0.61791 0.91828 0.0
Zn943 Zn 0.31209 0.61627 0.92534 0.0
O944 O 0.32411 0.60128 0.90434 0.0
O945 O 0.33425 0.57744 0.91659 0.0
O946 O 0.32468 0.63753 0.92373 0.0
O947 O 0.34074 0.61516 0.93168 0.0
O948 O 0.32364 0.58529 0.95565 0.0
O949 O 0.31141 0.61102 0.95326 0.0
C950 C 0.33223 0.58673 0.90315 0.0
C951 C 0.31644 0.59824 0.96277 0.0
C952 C 0.40326 0.31837 0.46219 0.0
C953 C 0.41414 0.33267 0.40204 0.0
O954 O 0.39045 0.31303 0.45289 0.0
Zn955 Zn 0.38492 0.31296 0.425 0.0
O956 O 0.41617 0.32534 0.45478 0.0
Zn957 Zn 0.40836 0.32413 0.43159 0.0
O958 O 0.38602 0.34171 0.4307 0.0
O959 O 0.36362 0.32541 0.42334 0.0
O960 O 0.42359 0.33489 0.41533 0.0
O961 O 0.39961 0.32459 0.40355 0.0
O962 O 0.38321 0.28921 0.41855 0.0
O963 O 0.41005 0.29674 0.42499 0.0
C964 C 0.36979 0.34022 0.42705 0.0
C965 C 0.39908 0.2852 0.42006 0.0
C966 C 0.78398 0.39819 0.58061 0.0
C967 C 0.83902 0.36895 0.5729 0.0
O968 O 0.79543 0.4091 0.57533 0.0
Zn969 Zn 0.82266 0.40739 0.56823 0.0
O970 O 0.78803 0.38234 0.58227 0.0
Zn971 Zn 0.81168 0.38399 0.57531 0.0
O972 O 0.82362 0.39903 0.59632 0.0
O973 O 0.83371 0.42289 0.58405 0.0
O974 O 0.82432 0.36275 0.57698 0.0
O975 O 0.84034 0.38514 0.56902 0.0
O976 O 0.82329 0.41495 0.54498 0.0
O977 O 0.81109 0.38921 0.54737 0.0
C978 C 0.83171 0.4136 0.5975 0.0
C979 C 0.81614 0.40198 0.53786 0.0
C980 C 0.13 0.33996 0.07253 0.0
C981 C 0.10072 0.28494 0.0799 0.0
O982 O 0.1138 0.34136 0.0687 0.0
Zn983 Zn 0.09151 0.32373 0.06779 0.0
O984 O 0.13618 0.32519 0.07639 0.0
Zn985 Zn 0.11492 0.31264 0.07465 0.0
O986 O 0.10967 0.31236 0.04673 0.0
O987 O 0.08394 0.32459 0.04447 0.0
O988 O 0.11658 0.28896 0.08141 0.0
O989 O 0.08977 0.29642 0.07477 0.0
O990 O 0.07615 0.33475 0.08383 0.0
O991 O 0.10003 0.32446 0.09585 0.0
C992 C 0.09692 0.31754 0.03726 0.0
C993 C 0.08551 0.3326 0.0972 0.0
C994 C 0.41403 0.16747 0.09773 0.0
C995 C 0.40265 0.18272 0.0379 0.0
O996 O 0.39952 0.17562 0.09642 0.0
Zn997 Zn 0.38461 0.18747 0.07528 0.0
O998 O 0.42336 0.1653 0.08434 0.0
Zn999 Zn 0.40798 0.17634 0.06836 0.0
O1000 O 0.40977 0.20361 0.07539 0.0
O1001 O 0.38299 0.21113 0.08211 0.0
O1002 O 0.41557 0.17555 0.04509 0.0
O1003 O 0.3899 0.18788 0.04737 0.0
O1004 O 0.36333 0.17495 0.07697 0.0
O1005 O 0.38567 0.15875 0.06925 0.0
C1006 C 0.39887 0.21511 0.08057 0.0
C1007 C 0.36948 0.16018 0.07307 0.0
C1008 C 0.92737 0.33968 0.3698 0.0
C1009 C 0.91992 0.28435 0.39858 0.0
O1010 O 0.92342 0.32501 0.36346 0.0
Zn1011 Zn 0.92509 0.31218 0.3846 0.0
O1012 O 0.93118 0.34089 0.38602 0.0
Zn1013 Zn 0.932 0.32306 0.40813 0.0
O1014 O 0.95525 0.32377 0.41575 0.0
O1015 O 0.95298 0.31168 0.38994 0.0
O1016 O 0.92508 0.29575 0.4096 0.0
O1017 O 0.91829 0.2885 0.38275 0.0
O1018 O 0.90395 0.32384 0.39965 0.0
O1019 O 0.916 0.33389 0.42363 0.0
C1020 C 0.96243 0.31671 0.40276 0.0
C1021 C 0.90262 0.33182 0.41426 0.0
C1022 C 0.66087 0.42789 0.36948 0.0
C1023 C 0.71586 0.42001 0.3987 0.0
O1024 O 0.67555 0.42378 0.36327 0.0
Zn1025 Zn 0.68819 0.4254 0.38451 0.0
O1026 O 0.65956 0.43174 0.38569 0.0
Zn1027 Zn 0.67721 0.43243 0.40795 0.0
O1028 O 0.67663 0.45569 0.41555 0.0
O1029 O 0.68878 0.45332 0.38978 0.0
O1030 O 0.70442 0.42527 0.40963 0.0
O1031 O 0.71181 0.41843 0.38283 0.0
O1032 O 0.67624 0.40436 0.39949 0.0
O1033 O 0.66612 0.41654 0.42338 0.0
C1034 C 0.68376 0.46282 0.40256 0.0
C1035 C 0.66814 0.40313 0.41405 0.0
C1036 C 0.53751 0.1839 0.40292 0.0
C1037 C 0.59731 0.16875 0.41429 0.0
O1038 O 0.54472 0.17681 0.41589 0.0
Zn1039 Zn 0.56794 0.17758 0.40822 0.0
O1040 O 0.54694 0.18897 0.3901 0.0
Zn1041 Zn 0.57483 0.18852 0.38473 0.0
O1042 O 0.57646 0.17581 0.36353 0.0
O1043 O 0.56871 0.15982 0.38603 0.0
O1044 O 0.59598 0.17678 0.3997 0.0
O1045 O 0.58393 0.16669 0.42367 0.0
O1046 O 0.57484 0.20489 0.40976 0.0
O1047 O 0.58161 0.2122 0.38293 0.0
C1048 C 0.5725 0.1611 0.3698 0.0
C1049 C 0.57999 0.21633 0.39877 0.0
C1050 C 0.78381 0.08063 0.39777 0.0
C1051 C 0.83881 0.07309 0.36844 0.0
O1052 O 0.78782 0.08232 0.38191 0.0
Zn1053 Zn 0.81148 0.07541 0.38349 0.0
O1054 O 0.79529 0.07537 0.40865 0.0
Zn1055 Zn 0.82251 0.06834 0.4069 0.0
O1056 O 0.83357 0.08418 0.42237 0.0
O1057 O 0.8234 0.09643 0.39854 0.0
O1058 O 0.84012 0.06917 0.38462 0.0
O1059 O 0.82412 0.07717 0.36222 0.0
O1060 O 0.81095 0.04745 0.38871 0.0
O1061 O 0.82319 0.04508 0.41444 0.0
C1062 C 0.83153 0.09762 0.41309 0.0
C1063 C 0.81602 0.03795 0.40148 0.0
C1064 C 0.96303 0.6826 0.5971 0.0
C1065 C 0.90283 0.66845 0.58643 0.0
O1066 O 0.95557 0.67567 0.5842 0.0
Zn1067 Zn 0.9323 0.67673 0.59208 0.0
O1068 O 0.9538 0.68789 0.60995 0.0
Zn1069 Zn 0.9261 0.68847 0.61545 0.0
O1070 O 0.92419 0.67602 0.63693 0.0
O1071 O 0.93136 0.65955 0.61457 0.0
O1072 O 0.90436 0.67696 0.60075 0.0
O1073 O 0.91615 0.66568 0.57714 0.0
O1074 O 0.92509 0.70378 0.58982 0.0
O1075 O 0.92093 0.71278 0.6167 0.0
C1076 C 0.92777 0.66114 0.6308 0.0
C1077 C 0.92135 0.71595 0.60056 0.0
C1078 C 0.28375 0.41921 0.60239 0.0
C1079 C 0.33882 0.42677 0.63157 0.0
O1080 O 0.28781 0.41761 0.61824 0.0
Zn1081 Zn 0.3115 0.42442 0.61654 0.0
O1082 O 0.2952 0.4244 0.59144 0.0
Zn1083 Zn 0.32247 0.43137 0.59311 0.0
O1084 O 0.33339 0.41541 0.57767 0.0
O1085 O 0.32335 0.40326 0.60159 0.0
O1086 O 0.34015 0.43059 0.61536 0.0
O1087 O 0.32412 0.42276 0.63779 0.0
O1088 O 0.31111 0.45239 0.61125 0.0
O1089 O 0.32323 0.45462 0.58546 0.0
C1090 C 0.33139 0.40199 0.587 0.0
C1091 C 0.3162 0.46184 0.59845 0.0
C1092 C 0.57242 0.83917 0.63039 0.0
C1093 C 0.57985 0.78396 0.60139 0.0
O1094 O 0.57638 0.82446 0.63666 0.0
Zn1095 Zn 0.5747 0.81175 0.61546 0.0
O1096 O 0.5686 0.84046 0.61418 0.0
Zn1097 Zn 0.56777 0.82271 0.59198 0.0
O1098 O 0.54453 0.82347 0.58438 0.0
O1099 O 0.5468 0.81133 0.61016 0.0
O1100 O 0.57469 0.7954 0.59041 0.0
O1101 O 0.58147 0.78807 0.61723 0.0
O1102 O 0.59583 0.82349 0.60046 0.0
O1103 O 0.58375 0.83362 0.57652 0.0
C1104 C 0.53734 0.81641 0.59737 0.0
C1105 C 0.59714 0.83153 0.58587 0.0
C1106 C 0.16075 0.07245 0.63166 0.0
C1107 C 0.21573 0.08036 0.6024 0.0
O1108 O 0.17545 0.07656 0.63785 0.0
Zn1109 Zn 0.1881 0.07491 0.61662 0.0
O1110 O 0.15944 0.06856 0.61546 0.0
Zn1111 Zn 0.1771 0.0678 0.59322 0.0
O1112 O 0.17658 0.04456 0.58566 0.0
O1113 O 0.18883 0.04699 0.61138 0.0
O1114 O 0.2043 0.07504 0.5915 0.0
O1115 O 0.2117 0.08197 0.61827 0.0
O1116 O 0.17615 0.09588 0.60152 0.0
O1117 O 0.16602 0.08355 0.57771 0.0
C1118 C 0.18382 0.03747 0.5986 0.0
C1119 C 0.16806 0.09702 0.58695 0.0
C1120 C 0.8696 0.42795 0.34024 0.0
C1121 C 0.89882 0.42076 0.28518 0.0
O1122 O 0.8634 0.42412 0.32546 0.0
Zn1123 Zn 0.88465 0.42587 0.3129 0.0
O1124 O 0.8858 0.43175 0.34164 0.0
Zn1125 Zn 0.90806 0.43271 0.32401 0.0
O1126 O 0.91566 0.45598 0.32493 0.0
O1127 O 0.88997 0.45378 0.31263 0.0
O1128 O 0.90976 0.42585 0.29669 0.0
O1129 O 0.88296 0.4192 0.2892 0.0
O1130 O 0.89957 0.40465 0.3246 0.0
O1131 O 0.92345 0.41665 0.33492 0.0
C1132 C 0.90272 0.46321 0.31783 0.0
C1133 C 0.9141 0.40327 0.33271 0.0
C1134 C 0.53744 0.40408 0.31757 0.0
C1135 C 0.59746 0.4151 0.33203 0.0
O1136 O 0.54481 0.41704 0.3245 0.0
Zn1137 Zn 0.56799 0.40923 0.32343 0.0
O1138 O 0.54676 0.39123 0.31235 0.0
Zn1139 Zn 0.57462 0.38572 0.31242 0.0
O1140 O 0.57627 0.36449 0.32504 0.0
O1141 O 0.56883 0.387 0.34117 0.0
O1142 O 0.59598 0.40053 0.324 0.0
O1143 O 0.58417 0.42456 0.33419 0.0
O1144 O 0.57469 0.41077 0.29604 0.0
O1145 O 0.58114 0.38388 0.28869 0.0
C1146 C 0.57251 0.37076 0.3398 0.0
C1147 C 0.57966 0.39973 0.28457 0.0
C1148 C 0.59689 0.03784 0.31725 0.0
C1149 C 0.58556 0.09774 0.33226 0.0
O1150 O 0.58394 0.04507 0.32433 0.0
Zn1151 Zn 0.59156 0.06832 0.32345 0.0
O1152 O 0.60966 0.04727 0.31208 0.0
Zn1153 Zn 0.61499 0.07518 0.31239 0.0
O1154 O 0.63624 0.07688 0.32498 0.0
O1155 O 0.61382 0.0692 0.34111 0.0
O1156 O 0.6001 0.09638 0.32415 0.0
O1157 O 0.57618 0.08437 0.33438 0.0
O1158 O 0.58989 0.07519 0.29612 0.0
O1159 O 0.6167 0.0819 0.28869 0.0
C1160 C 0.63002 0.073 0.33973 0.0
C1161 C 0.60085 0.0803 0.28464 0.0
C1162 C 0.96273 0.09673 0.31762 0.0
C1163 C 0.90248 0.08599 0.33142 0.0
O1164 O 0.95524 0.0838 0.32448 0.0
Zn1165 Zn 0.93199 0.09166 0.32325 0.0
O1166 O 0.95352 0.10956 0.31227 0.0
Zn1167 Zn 0.9258 0.11504 0.31152 0.0
O1168 O 0.92384 0.1365 0.32396 0.0
O1169 O 0.93096 0.11415 0.34046 0.0
O1170 O 0.90404 0.10033 0.32294 0.0
O1171 O 0.91579 0.07669 0.33419 0.0
O1172 O 0.92502 0.08945 0.29612 0.0
O1173 O 0.92072 0.11631 0.2872 0.0
C1174 C 0.92736 0.13038 0.33886 0.0
C1175 C 0.92127 0.1002 0.28395 0.0
C1176 C 0.86977 0.57308 0.66064 0.0
C1177 C 0.899 0.57992 0.71576 0.0
O1178 O 0.86358 0.57686 0.67543 0.0
Zn1179 Zn 0.88484 0.57508 0.68797 0.0
O1180 O 0.88597 0.56931 0.65921 0.0
Zn1181 Zn 0.90825 0.5683 0.67685 0.0
O1182 O 0.91588 0.54504 0.67573 0.0
O1183 O 0.89018 0.54715 0.68805 0.0
O1184 O 0.90994 0.57489 0.70423 0.0
O1185 O 0.88315 0.58158 0.71172 0.0
O1186 O 0.89971 0.59641 0.67638 0.0
O1187 O 0.92363 0.58447 0.6661 0.0
C1188 C 0.90294 0.53775 0.68278 0.0
C1189 C 0.91427 0.59783 0.66831 0.0
C1190 C 0.46207 0.40247 0.68386 0.0
C1191 C 0.40212 0.41384 0.66922 0.0
O1192 O 0.45479 0.41547 0.67691 0.0
Zn1193 Zn 0.43156 0.40782 0.67788 0.0
O1194 O 0.45268 0.38965 0.68901 0.0
Zn1195 Zn 0.42476 0.38431 0.68887 0.0
O1196 O 0.42295 0.36309 0.67613 0.0
O1197 O 0.43064 0.38563 0.66016 0.0
O1198 O 0.40351 0.39926 0.67726 0.0
O1199 O 0.41546 0.42324 0.66708 0.0
O1200 O 0.42487 0.4094 0.70523 0.0
O1201 O 0.41822 0.38258 0.71265 0.0
C1202 C 0.42683 0.36941 0.66142 0.0
C1203 C 0.41985 0.39843 0.71674 0.0
C1204 C 0.60088 0.9198 0.71557 0.0
C1205 C 0.63018 0.92713 0.66053 0.0
O1206 O 0.61674 0.91815 0.71156 0.0
Zn1207 Zn 0.61511 0.92493 0.68787 0.0
O1208 O 0.58998 0.92498 0.70407 0.0
Zn1209 Zn 0.59172 0.93188 0.67677 0.0
O1210 O 0.5763 0.9159 0.66578 0.0
O1211 O 0.60016 0.90381 0.67605 0.0
O1212 O 0.61399 0.93098 0.65915 0.0
O1213 O 0.63637 0.92319 0.67527 0.0
O1214 O 0.60987 0.95285 0.68823 0.0
O1215 O 0.58417 0.95516 0.67594 0.0
C1216 C 0.58563 0.9025 0.66792 0.0
C1217 C 0.59713 0.96233 0.68307 0.0
C1218 C 0.07271 0.13009 0.6612 0.0
C1219 C 0.07979 0.10126 0.71659 0.0
O1220 O 0.07663 0.13643 0.6759 0.0
Zn1221 Zn 0.07488 0.11527 0.6887 0.0
O1222 O 0.0689 0.11388 0.65997 0.0
Zn1223 Zn 0.06799 0.09175 0.67778 0.0
O1224 O 0.04474 0.08417 0.67689 0.0
O1225 O 0.04697 0.10999 0.68895 0.0
O1226 O 0.0747 0.09026 0.70514 0.0
O1227 O 0.08149 0.11708 0.71245 0.0
O1228 O 0.09606 0.10025 0.67711 0.0
O1229 O 0.08405 0.07626 0.66702 0.0
C1230 C 0.03753 0.0972 0.68386 0.0
C1231 C 0.09742 0.08564 0.66912 0.0
C1232 C 0.83928 0.36917 0.42773 0.0
C1233 C 0.78425 0.39839 0.42009 0.0
O1234 O 0.82459 0.36297 0.42363 0.0
Zn1235 Zn 0.81193 0.38419 0.42537 0.0
O1236 O 0.84059 0.38535 0.43166 0.0
Zn1237 Zn 0.82292 0.40757 0.43253 0.0
O1238 O 0.82352 0.41505 0.45581 0.0
O1239 O 0.81129 0.38933 0.45331 0.0
O1240 O 0.79569 0.40928 0.42541 0.0
O1241 O 0.7883 0.38254 0.41839 0.0
O1242 O 0.82384 0.39932 0.40441 0.0
O1243 O 0.83396 0.42312 0.41675 0.0
C1244 C 0.81632 0.40206 0.46287 0.0
C1245 C 0.83192 0.41389 0.40327 0.0
C1246 C 0.83928 0.13115 0.07333 0.0
C1247 C 0.78418 0.10196 0.0806 0.0
O1248 O 0.82455 0.13736 0.07729 0.0
Zn1249 Zn 0.81193 0.11612 0.07556 0.0
O1250 O 0.84062 0.11494 0.0695 0.0
Zn1251 Zn 0.82295 0.0927 0.06862 0.0
O1252 O 0.82382 0.08512 0.04533 0.0
O1253 O 0.81161 0.11086 0.04761 0.0
O1254 O 0.79566 0.09103 0.07544 0.0
O1255 O 0.78823 0.11781 0.08228 0.0
O1256 O 0.82368 0.10116 0.09675 0.0
O1257 O 0.83381 0.07725 0.08464 0.0
C1258 C 0.81675 0.0981 0.03813 0.0
C1259 C 0.83172 0.08658 0.09806 0.0
C1260 C 0.91451 0.33262 0.09824 0.0
C1261 C 0.90334 0.31797 0.03829 0.0
O1262 O 0.92392 0.33478 0.0849 0.0
Zn1263 Zn 0.90859 0.32389 0.06881 0.0
O1264 O 0.89998 0.32452 0.09684 0.0
Zn1265 Zn 0.88516 0.31279 0.07555 0.0
O1266 O 0.88346 0.28908 0.08215 0.0
O1267 O 0.91029 0.29655 0.07562 0.0
O1268 O 0.89055 0.31273 0.04766 0.0
O1269 O 0.91631 0.32493 0.04561 0.0
O1270 O 0.88628 0.34151 0.06968 0.0
O1271 O 0.86389 0.32529 0.07725 0.0
C1272 C 0.89932 0.28505 0.08065 0.0
C1273 C 0.87006 0.34007 0.07342 0.0
C1274 C 0.71563 0.39841 0.08061 0.0
C1275 C 0.66053 0.36926 0.07295 0.0
O1276 O 0.71156 0.38256 0.08219 0.0
Zn1277 Zn 0.6879 0.38426 0.07529 0.0
O1278 O 0.70419 0.40936 0.07538 0.0
Zn1279 Zn 0.67694 0.40769 0.06829 0.0
O1280 O 0.66592 0.42316 0.08418 0.0
O1281 O 0.67602 0.39927 0.09636 0.0
O1282 O 0.65923 0.38546 0.06909 0.0
O1283 O 0.67523 0.36303 0.07698 0.0
O1284 O 0.68837 0.38949 0.04735 0.0
O1285 O 0.67626 0.41527 0.04502 0.0
C1286 C 0.66794 0.41383 0.0976 0.0
C1287 C 0.68332 0.40227 0.03786 0.0
C1288 C 0.58579 0.66768 0.59757 0.0
C1289 C 0.5971 0.68284 0.53771 0.0
O1290 O 0.57642 0.66555 0.5842 0.0
Zn1291 Zn 0.5918 0.67652 0.56818 0.0
O1292 O 0.60032 0.6758 0.59623 0.0
Zn1293 Zn 0.61522 0.6876 0.57506 0.0
O1294 O 0.61689 0.71129 0.58185 0.0
O1295 O 0.5901 0.70383 0.57511 0.0
O1296 O 0.60987 0.688 0.54716 0.0
O1297 O 0.58418 0.67569 0.54493 0.0
O1298 O 0.61407 0.65888 0.56904 0.0
O1299 O 0.63647 0.67502 0.57674 0.0
C1300 C 0.60103 0.71532 0.58026 0.0
C1301 C 0.63027 0.66026 0.57284 0.0
C1302 C 0.21551 0.60154 0.42016 0.0
C1303 C 0.16042 0.63063 0.42792 0.0
O1304 O 0.21143 0.61739 0.41861 0.0
Zn1305 Zn 0.1878 0.61566 0.42556 0.0
O1306 O 0.20409 0.59058 0.4254 0.0
Zn1307 Zn 0.17685 0.59221 0.43256 0.0
O1308 O 0.16581 0.57675 0.41665 0.0
O1309 O 0.17592 0.60065 0.40449 0.0
O1310 O 0.15913 0.61442 0.43177 0.0
O1311 O 0.17512 0.63688 0.42392 0.0
O1312 O 0.18841 0.61038 0.45348 0.0
O1313 O 0.17623 0.58463 0.45584 0.0
C1314 C 0.16784 0.58609 0.40323 0.0
C1315 C 0.18338 0.5976 0.46298 0.0
C1316 C 0.91383 0.6676 0.90279 0.0
C1317 C 0.90246 0.68288 0.96256 0.0
O1318 O 0.92319 0.66557 0.91619 0.0
Zn1319 Zn 0.90778 0.67658 0.93211 0.0
O1320 O 0.89929 0.67571 0.90407 0.0
Zn1321 Zn 0.88437 0.6876 0.92519 0.0
O1322 O 0.88271 0.71128 0.91833 0.0
O1323 O 0.90949 0.70386 0.9251 0.0
O1324 O 0.88967 0.68801 0.95312 0.0
O1325 O 0.91541 0.6758 0.95534 0.0
O1326 O 0.88553 0.6589 0.93127 0.0
O1327 O 0.86312 0.67499 0.92351 0.0
C1328 C 0.89856 0.71533 0.9199 0.0
C1329 C 0.86933 0.66025 0.92745 0.0
C1330 C 0.60078 0.78486 0.9199 0.0
C1331 C 0.63002 0.83987 0.92744 0.0
O1332 O 0.61663 0.7889 0.9183 0.0
Zn1333 Zn 0.61497 0.81254 0.92519 0.0
O1334 O 0.58985 0.79632 0.92513 0.0
Zn1335 Zn 0.59157 0.82359 0.93217 0.0
O1336 O 0.57614 0.83463 0.91624 0.0
O1337 O 0.59999 0.8244 0.9041 0.0
O1338 O 0.61383 0.84124 0.9313 0.0
O1339 O 0.63621 0.82514 0.92348 0.0
O1340 O 0.60973 0.81207 0.95311 0.0
O1341 O 0.58402 0.82432 0.95546 0.0
C1342 C 0.58546 0.83253 0.90283 0.0
C1343 C 0.59699 0.81718 0.96261 0.0
C1344 C 0.58004 0.21556 0.60083 0.0
C1345 C 0.57292 0.16033 0.62982 0.0
O1346 O 0.57504 0.20409 0.5898 0.0
Zn1347 Zn 0.56836 0.17671 0.59134 0.0
O1348 O 0.58158 0.21144 0.61668 0.0
Zn1349 Zn 0.57505 0.18771 0.61485 0.0
O1350 O 0.59637 0.17612 0.60001 0.0
O1351 O 0.58451 0.16595 0.57599 0.0
O1352 O 0.57673 0.17508 0.63608 0.0
O1353 O 0.56921 0.15898 0.61358 0.0
O1354 O 0.54516 0.17566 0.58359 0.0
O1355 O 0.54718 0.1878 0.6094 0.0
C1356 C 0.59782 0.16809 0.58543 0.0
C1357 C 0.53783 0.18259 0.59657 0.0
C1358 C 0.81671 0.03678 0.59841 0.0
C1359 C 0.83217 0.0965 0.58647 0.0
O1360 O 0.81162 0.04638 0.61109 0.0
Zn1361 Zn 0.81214 0.07434 0.61613 0.0
O1362 O 0.82386 0.04383 0.58539 0.0
Zn1363 Zn 0.82319 0.06719 0.59277 0.0
O1364 O 0.8408 0.06815 0.61505 0.0
O1365 O 0.82472 0.07618 0.63739 0.0
O1366 O 0.83428 0.08302 0.57725 0.0
O1367 O 0.82402 0.09533 0.60101 0.0
O1368 O 0.7885 0.08125 0.61772 0.0
O1369 O 0.79595 0.07429 0.59098 0.0
C1370 C 0.83944 0.07212 0.63122 0.0
C1371 C 0.78448 0.07959 0.60186 0.0
C1372 C 0.90227 0.33133 0.58613 0.0
C1373 C 0.96205 0.31609 0.59774 0.0
O1374 O 0.90356 0.32326 0.60069 0.0
Zn1375 Zn 0.92462 0.31147 0.61573 0.0
O1376 O 0.91567 0.33341 0.57679 0.0
Zn1377 Zn 0.93163 0.32245 0.59226 0.0
O1378 O 0.9247 0.29516 0.59061 0.0
O1379 O 0.91778 0.28775 0.61738 0.0
O1380 O 0.95492 0.32319 0.58473 0.0
O1381 O 0.95255 0.31101 0.6105 0.0
O1382 O 0.92289 0.32424 0.63694 0.0
O1383 O 0.9308 0.34017 0.61446 0.0
C1384 C 0.91948 0.28368 0.60153 0.0
C1385 C 0.92693 0.33893 0.63066 0.0
C1386 C 0.66036 0.4274 0.63096 0.0
C1387 C 0.71548 0.41965 0.60189 0.0
O1388 O 0.65909 0.43125 0.61475 0.0
Zn1389 Zn 0.67681 0.43202 0.59255 0.0
O1390 O 0.67505 0.42337 0.63722 0.0
Zn1391 Zn 0.68776 0.425 0.61601 0.0
O1392 O 0.68837 0.45292 0.61073 0.0
O1393 O 0.67621 0.45528 0.58496 0.0
O1394 O 0.7114 0.41805 0.61774 0.0
O1395 O 0.70406 0.42491 0.59093 0.0
O1396 O 0.6658 0.41612 0.57708 0.0
O1397 O 0.67589 0.40395 0.60099 0.0
C1398 C 0.68335 0.46242 0.59794 0.0
C1399 C 0.66782 0.4027 0.58641 0.0
C1400 C 0.59711 0.83192 0.41435 0.0
C1401 C 0.53726 0.81682 0.40286 0.0
O1402 O 0.59578 0.82385 0.39979 0.0
Zn1403 Zn 0.57464 0.81211 0.38481 0.0
O1404 O 0.58374 0.83404 0.42371 0.0
Zn1405 Zn 0.56771 0.82311 0.40827 0.0
O1406 O 0.57461 0.7958 0.40989 0.0
O1407 O 0.5814 0.78842 0.38308 0.0
O1408 O 0.54443 0.8239 0.41585 0.0
O1409 O 0.54673 0.81172 0.39009 0.0
O1410 O 0.57634 0.8248 0.36359 0.0
O1411 O 0.56856 0.84082 0.38606 0.0
C1412 C 0.57976 0.78434 0.39893 0.0
C1413 C 0.57238 0.83952 0.36984 0.0
C1414 C 0.16115 0.07247 0.36946 0.0
C1415 C 0.21613 0.08023 0.39874 0.0
O1416 O 0.15982 0.06859 0.38566 0.0
Zn1417 Zn 0.17746 0.06784 0.40794 0.0
O1418 O 0.17584 0.0766 0.36327 0.0
Zn1419 Zn 0.18844 0.07491 0.38452 0.0
O1420 O 0.18894 0.04697 0.3897 0.0
O1421 O 0.17683 0.04456 0.41548 0.0
O1422 O 0.21209 0.08183 0.38288 0.0
O1423 O 0.20469 0.07497 0.40966 0.0
O1424 O 0.16636 0.0837 0.42339 0.0
O1425 O 0.17649 0.09592 0.39953 0.0
C1426 C 0.18389 0.03745 0.40246 0.0
C1427 C 0.16838 0.09713 0.41409 0.0
C1428 C 0.90234 0.66921 0.41485 0.0
C1429 C 0.96225 0.68397 0.40337 0.0
O1430 O 0.90371 0.67728 0.40028 0.0
Zn1431 Zn 0.92489 0.68895 0.38533 0.0
O1432 O 0.91571 0.66707 0.42422 0.0
Zn1433 Zn 0.93177 0.67792 0.40879 0.0
O1434 O 0.92507 0.70527 0.41044 0.0
O1435 O 0.91828 0.7127 0.38365 0.0
O1436 O 0.95503 0.67698 0.41638 0.0
O1437 O 0.95281 0.68913 0.39059 0.0
O1438 O 0.92311 0.67629 0.36409 0.0
O1439 O 0.93087 0.66023 0.38655 0.0
C1440 C 0.91997 0.71677 0.39949 0.0
C1441 C 0.92704 0.66156 0.37033 0.0
C1442 C 0.28365 0.41977 0.39837 0.0
C1443 C 0.33854 0.42746 0.3688 0.0
O1444 O 0.29515 0.42508 0.4092 0.0
Zn1445 Zn 0.32235 0.43222 0.40732 0.0
O1446 O 0.28761 0.41811 0.38249 0.0
Zn1447 Zn 0.31127 0.42509 0.38397 0.0
O1448 O 0.32333 0.40414 0.39899 0.0
O1449 O 0.33352 0.41645 0.42278 0.0
O1450 O 0.32383 0.42333 0.36265 0.0
O1451 O 0.33989 0.43141 0.38498 0.0
O1452 O 0.323 0.45546 0.41485 0.0
O1453 O 0.31072 0.45306 0.38914 0.0
C1454 C 0.33151 0.403 0.41351 0.0
C1455 C 0.31581 0.46258 0.40189 0.0
C1456 C 0.60128 0.08 0.71541 0.0
C1457 C 0.63057 0.07243 0.66039 0.0
O1458 O 0.59036 0.07482 0.70393 0.0
Zn1459 Zn 0.59208 0.06783 0.67664 0.0
O1460 O 0.61714 0.08158 0.71138 0.0
Zn1461 Zn 0.61549 0.07473 0.68771 0.0
O1462 O 0.60061 0.09587 0.6758 0.0
O1463 O 0.57671 0.0838 0.6656 0.0
O1464 O 0.63676 0.07636 0.67514 0.0
O1465 O 0.61437 0.06863 0.659 0.0
O1466 O 0.58443 0.0446 0.67586 0.0
O1467 O 0.61014 0.04682 0.68815 0.0
C1468 C 0.58608 0.09718 0.66767 0.0
C1469 C 0.59735 0.03738 0.68301 0.0
C1470 C 0.92008 0.1016 0.71608 0.0
C1471 C 0.92732 0.13032 0.66066 0.0
O1472 O 0.92523 0.09057 0.70468 0.0
Zn1473 Zn 0.93206 0.09202 0.67733 0.0
O1474 O 0.91842 0.11742 0.71189 0.0
Zn1475 Zn 0.92515 0.11554 0.68819 0.0
O1476 O 0.904 0.10045 0.67659 0.0
O1477 O 0.91608 0.07647 0.66658 0.0
O1478 O 0.92342 0.13667 0.67535 0.0
O1479 O 0.93115 0.1141 0.65945 0.0
O1480 O 0.95529 0.08441 0.67653 0.0
O1481 O 0.95306 0.11022 0.6886 0.0
C1482 C 0.90269 0.08582 0.66864 0.0
C1483 C 0.9625 0.0974 0.68355 0.0
C1484 C 0.91402 0.40254 0.66791 0.0
C1485 C 0.90289 0.46261 0.68265 0.0
O1486 O 0.89951 0.404 0.67605 0.0
Zn1487 Zn 0.88472 0.42532 0.68775 0.0
O1488 O 0.92343 0.41587 0.66569 0.0
Zn1489 Zn 0.90814 0.43205 0.67659 0.0
O1490 O 0.90986 0.42531 0.70395 0.0
O1491 O 0.88305 0.41873 0.71147 0.0
O1492 O 0.91581 0.45532 0.67557 0.0
O1493 O 0.89012 0.45322 0.68791 0.0
O1494 O 0.86343 0.42363 0.67524 0.0
O1495 O 0.88582 0.43115 0.65901 0.0
C1496 C 0.89892 0.42029 0.71548 0.0
C1497 C 0.86961 0.42741 0.66045 0.0
C1498 C 0.59697 0.4141 0.66833 0.0
C1499 C 0.53713 0.40259 0.68344 0.0
O1500 O 0.59565 0.39955 0.67642 0.0
Zn1501 Zn 0.57452 0.38457 0.68818 0.0
O1502 O 0.58358 0.42344 0.66619 0.0
Zn1503 Zn 0.56758 0.408 0.67714 0.0
O1504 O 0.5745 0.40968 0.70445 0.0
O1505 O 0.58129 0.38288 0.71188 0.0
O1506 O 0.5443 0.41556 0.67633 0.0
O1507 O 0.54661 0.38984 0.68858 0.0
O1508 O 0.57624 0.36333 0.67553 0.0
O1509 O 0.56846 0.38576 0.65946 0.0
C1510 C 0.57967 0.39874 0.71593 0.0
C1511 C 0.57229 0.36956 0.6608 0.0
C1512 C 0.60082 0.92034 0.2847 0.0
C1513 C 0.63006 0.92758 0.3398 0.0
O1514 O 0.58989 0.92547 0.2962 0.0
Zn1515 Zn 0.59159 0.93229 0.32354 0.0
O1516 O 0.61667 0.9187 0.28875 0.0
Zn1517 Zn 0.615 0.92541 0.31246 0.0
O1518 O 0.6001 0.90422 0.32422 0.0
O1519 O 0.5762 0.91625 0.33447 0.0
O1520 O 0.63626 0.9237 0.32504 0.0
O1521 O 0.61386 0.93139 0.34119 0.0
O1522 O 0.58398 0.95554 0.32445 0.0
O1523 O 0.60968 0.95333 0.31215 0.0
C1524 C 0.58556 0.90287 0.33233 0.0
C1525 C 0.59692 0.96276 0.31733 0.0
C1526 C 0.07997 0.10065 0.2844 0.0
C1527 C 0.07291 0.12961 0.33967 0.0
O1528 O 0.07498 0.08962 0.29587 0.0
Zn1529 Zn 0.06833 0.09116 0.32326 0.0
O1530 O 0.08155 0.11649 0.28852 0.0
Zn1531 Zn 0.07504 0.11467 0.31227 0.0
O1532 O 0.09635 0.09982 0.32386 0.0
O1533 O 0.0845 0.0758 0.33402 0.0
O1534 O 0.07674 0.13589 0.32492 0.0
O1535 O 0.06919 0.11338 0.341 0.0
O1536 O 0.04513 0.08342 0.32433 0.0
O1537 O 0.04716 0.10924 0.31222 0.0
C1538 C 0.0978 0.08525 0.33188 0.0
C1539 C 0.03781 0.09642 0.31742 0.0
C1540 C 0.89876 0.58067 0.28508 0.0
C1541 C 0.8695 0.57346 0.34017 0.0
O1542 O 0.90969 0.57557 0.29659 0.0
Zn1543 Zn 0.90798 0.56879 0.32394 0.0
O1544 O 0.88291 0.58231 0.28911 0.0
Zn1545 Zn 0.88457 0.57563 0.31283 0.0
O1546 O 0.89943 0.59685 0.3246 0.0
O1547 O 0.92335 0.58487 0.33486 0.0
O1548 O 0.8633 0.57733 0.3254 0.0
O1549 O 0.8857 0.56968 0.34156 0.0
O1550 O 0.91562 0.54554 0.32488 0.0
O1551 O 0.88992 0.54772 0.31258 0.0
C1552 C 0.91396 0.59823 0.33272 0.0
C1553 C 0.90268 0.5383 0.31778 0.0
C1554 C 0.42089 0.40061 0.28394 0.0
C1555 C 0.4271 0.3704 0.33877 0.0
O1556 O 0.42461 0.41137 0.29611 0.0
Zn1557 Zn 0.43162 0.40915 0.32322 0.0
O1558 O 0.42036 0.38449 0.28718 0.0
Zn1559 Zn 0.42542 0.38577 0.3115 0.0
O1560 O 0.40367 0.40042 0.32299 0.0
O1561 O 0.4154 0.42407 0.33422 0.0
O1562 O 0.4235 0.36429 0.32389 0.0
O1563 O 0.43069 0.38663 0.34038 0.0
O1564 O 0.45489 0.41701 0.32441 0.0
O1565 O 0.45314 0.39123 0.31225 0.0
C1566 C 0.4021 0.41474 0.33149 0.0
C1567 C 0.46236 0.40406 0.31759 0.0
C1568 C 0.66117 0.13056 0.5726 0.0
C1569 C 0.71613 0.10121 0.58031 0.0
O1570 O 0.65983 0.11436 0.56871 0.0
Zn1571 Zn 0.67743 0.09207 0.56796 0.0
O1572 O 0.67586 0.13674 0.57672 0.0
Zn1573 Zn 0.68846 0.11547 0.57503 0.0
O1574 O 0.68896 0.11029 0.54709 0.0
O1575 O 0.67678 0.08454 0.54467 0.0
O1576 O 0.71211 0.11707 0.58194 0.0
O1577 O 0.70466 0.09032 0.57506 0.0
O1578 O 0.66632 0.07664 0.58384 0.0
O1579 O 0.6765 0.10048 0.59605 0.0
C1580 C 0.68389 0.09754 0.53756 0.0
C1581 C 0.66837 0.08594 0.59727 0.0
C1582 C 0.68284 0.4021 0.96282 0.0
C1583 C 0.66733 0.41358 0.90307 0.0
O1584 O 0.68793 0.38934 0.95332 0.0
Zn1585 Zn 0.68734 0.38406 0.9254 0.0
O1586 O 0.67563 0.41503 0.95568 0.0
Zn1587 Zn 0.67628 0.40746 0.93241 0.0
O1588 O 0.65867 0.38519 0.93159 0.0
O1589 O 0.67475 0.3628 0.92374 0.0
O1590 O 0.66523 0.42289 0.91649 0.0
O1591 O 0.67545 0.39904 0.90433 0.0
O1592 O 0.71097 0.3824 0.91848 0.0
O1593 O 0.70352 0.40919 0.9253 0.0
C1594 C 0.66003 0.36899 0.92773 0.0
C1595 C 0.71498 0.39827 0.92006 0.0
C1596 C 0.59707 0.18312 0.96249 0.0
C1597 C 0.58579 0.16774 0.90266 0.0
O1598 O 0.60982 0.18826 0.95303 0.0
Zn1599 Zn 0.61516 0.18781 0.92513 0.0
O1600 O 0.58414 0.17594 0.95531 0.0
Zn1601 Zn 0.59176 0.17669 0.93204 0.0
O1602 O 0.61408 0.15911 0.93127 0.0
O1603 O 0.63644 0.17527 0.92351 0.0
O1604 O 0.57642 0.16561 0.91604 0.0
O1605 O 0.60029 0.1759 0.90399 0.0
O1606 O 0.61677 0.21147 0.91826 0.0
O1607 O 0.58999 0.20396 0.92501 0.0
C1608 C 0.63028 0.16052 0.92747 0.0
C1609 C 0.60089 0.21546 0.91982 0.0
C1610 C 0.78422 0.10197 0.92035 0.0
C1611 C 0.83916 0.13142 0.92779 0.0
O1612 O 0.79573 0.09107 0.92552 0.0
Zn1613 Zn 0.82299 0.09288 0.93253 0.0
O1614 O 0.7882 0.11785 0.9188 0.0
Zn1615 Zn 0.81189 0.11628 0.92561 0.0
O1616 O 0.82381 0.10137 0.90447 0.0
O1617 O 0.83405 0.0775 0.91658 0.0
O1618 O 0.82442 0.13759 0.92386 0.0
O1619 O 0.84055 0.11522 0.93164 0.0
O1620 O 0.82382 0.08528 0.95579 0.0
O1621 O 0.81155 0.11099 0.95357 0.0
C1622 C 0.83197 0.08685 0.90318 0.0
C1623 C 0.81672 0.09822 0.96302 0.0
C1624 C 0.89922 0.7855 0.42083 0.0
C1625 C 0.86999 0.8406 0.42783 0.0
O1626 O 0.9102 0.79703 0.42579 0.0
Zn1627 Zn 0.90851 0.82442 0.43251 0.0
O1628 O 0.88335 0.78953 0.41938 0.0
Zn1629 Zn 0.88507 0.81327 0.42589 0.0
O1630 O 0.89984 0.82487 0.40449 0.0
O1631 O 0.9238 0.83524 0.4163 0.0
O1632 O 0.86379 0.82579 0.42415 0.0
O1633 O 0.88621 0.84205 0.43153 0.0
O1634 O 0.91624 0.82557 0.45576 0.0
O1635 O 0.89052 0.81327 0.45377 0.0
C1636 C 0.91436 0.83298 0.403 0.0
C1637 C 0.90331 0.81858 0.46312 0.0
C1638 C 0.28454 0.89853 0.57986 0.0
C1639 C 0.33946 0.86922 0.5721 0.0
O1640 O 0.29598 0.90945 0.57458 0.0
Zn1641 Zn 0.3232 0.90769 0.56736 0.0
O1642 O 0.28856 0.88266 0.5814 0.0
Zn1643 Zn 0.31217 0.88431 0.57442 0.0
O1644 O 0.32411 0.89934 0.59545 0.0
O1645 O 0.33432 0.92316 0.58321 0.0
O1646 O 0.32473 0.86305 0.57612 0.0
O1647 O 0.34083 0.8854 0.56821 0.0
O1648 O 0.32381 0.91521 0.54405 0.0
O1649 O 0.31157 0.8895 0.54648 0.0
C1650 C 0.33224 0.91388 0.59666 0.0
C1651 C 0.31664 0.90223 0.53694 0.0
C1652 C 0.58594 0.8327 0.09745 0.0
C1653 C 0.59718 0.81723 0.03767 0.0
O1654 O 0.60045 0.82454 0.09615 0.0
Zn1655 Zn 0.61531 0.81258 0.07503 0.0
O1656 O 0.57657 0.83475 0.08407 0.0
Zn1657 Zn 0.59192 0.82366 0.06811 0.0
O1658 O 0.59016 0.7964 0.07517 0.0
O1659 O 0.61693 0.78892 0.08193 0.0
O1660 O 0.58427 0.8244 0.04487 0.0
O1661 O 0.60996 0.8121 0.04712 0.0
O1662 O 0.63659 0.82512 0.07664 0.0
O1663 O 0.61422 0.84127 0.06888 0.0
C1664 C 0.60107 0.78491 0.08037 0.0
C1665 C 0.63042 0.83987 0.07268 0.0
C1666 C 0.91402 0.66735 0.09745 0.0
C1667 C 0.90254 0.68256 0.03762 0.0
O1668 O 0.89951 0.67552 0.09615 0.0
Zn1669 Zn 0.88457 0.68735 0.07502 0.0
O1670 O 0.92332 0.66518 0.08404 0.0
Zn1671 Zn 0.90792 0.67619 0.06806 0.0
O1672 O 0.90972 0.7035 0.07495 0.0
O1673 O 0.88296 0.71101 0.08179 0.0
O1674 O 0.91546 0.67535 0.04477 0.0
O1675 O 0.88982 0.68775 0.04711 0.0
O1676 O 0.86328 0.67486 0.07674 0.0
O1677 O 0.8856 0.65864 0.06897 0.0
C1678 C 0.89882 0.71501 0.08013 0.0
C1679 C 0.86941 0.66009 0.07282 0.0
C1680 C 0.42701 0.8389 0.36945 0.0
C1681 C 0.41986 0.78375 0.39864 0.0
O1682 O 0.42313 0.82417 0.36318 0.0
Zn1683 Zn 0.42489 0.81153 0.38445 0.0
O1684 O 0.43082 0.84022 0.38567 0.0
Zn1685 Zn 0.43169 0.82258 0.40792 0.0
O1686 O 0.45492 0.82353 0.41559 0.0
O1687 O 0.45281 0.81133 0.38982 0.0
O1688 O 0.42493 0.79526 0.40959 0.0
O1689 O 0.41826 0.78779 0.38277 0.0
O1690 O 0.40366 0.82323 0.39934 0.0
O1691 O 0.41561 0.83346 0.4233 0.0
C1692 C 0.4622 0.8165 0.40263 0.0
C1693 C 0.40227 0.83132 0.4139 0.0
C1694 C 0.21541 0.91966 0.39797 0.0
C1695 C 0.1604 0.92747 0.36875 0.0
O1696 O 0.21138 0.9181 0.3821 0.0
Zn1697 Zn 0.18775 0.92507 0.38378 0.0
O1698 O 0.20397 0.92489 0.40891 0.0
Zn1699 Zn 0.17673 0.93202 0.40722 0.0
O1700 O 0.16569 0.9161 0.42263 0.0
O1701 O 0.17585 0.90398 0.39873 0.0
O1702 O 0.15907 0.93129 0.38497 0.0
O1703 O 0.17511 0.92348 0.36253 0.0
O1704 O 0.18839 0.95297 0.38916 0.0
O1705 O 0.1761 0.95525 0.41487 0.0
C1706 C 0.16774 0.9027 0.41328 0.0
C1707 C 0.18332 0.96243 0.40196 0.0
C1708 C 0.03728 0.68326 0.40308 0.0
C1709 C 0.09708 0.66802 0.41446 0.0
O1710 O 0.04447 0.67613 0.41603 0.0
Zn1711 Zn 0.06771 0.67686 0.40838 0.0
O1712 O 0.04672 0.68833 0.39027 0.0
Zn1713 Zn 0.0746 0.6878 0.38489 0.0
O1714 O 0.07622 0.67509 0.36369 0.0
O1715 O 0.0685 0.65909 0.38619 0.0
O1716 O 0.09575 0.67605 0.39987 0.0
O1717 O 0.0837 0.66595 0.42383 0.0
O1718 O 0.07467 0.70417 0.40991 0.0
O1719 O 0.08143 0.71144 0.38306 0.0
C1720 C 0.07228 0.66038 0.36997 0.0
C1721 C 0.07984 0.71558 0.3989 0.0
C1722 C 0.28397 0.58035 0.39846 0.0
C1723 C 0.33901 0.57268 0.36917 0.0
O1724 O 0.28801 0.58209 0.38261 0.0
Zn1725 Zn 0.31165 0.5751 0.38421 0.0
O1726 O 0.29542 0.57502 0.40934 0.0
Zn1727 Zn 0.32265 0.56792 0.4076 0.0
O1728 O 0.33373 0.58371 0.42313 0.0
O1729 O 0.3236 0.59603 0.39932 0.0
O1730 O 0.3403 0.56874 0.38535 0.0
O1731 O 0.32432 0.57682 0.36297 0.0
O1732 O 0.311 0.54715 0.38934 0.0
O1733 O 0.32324 0.54462 0.41506 0.0
C1734 C 0.3317 0.59718 0.41389 0.0
C1735 C 0.31604 0.53758 0.40206 0.0
C1736 C 0.46275 0.1826 0.59673 0.0
C1737 C 0.4025 0.1688 0.58597 0.0
O1738 O 0.45526 0.17578 0.58378 0.0
Zn1739 Zn 0.432 0.177 0.59163 0.0
O1740 O 0.45354 0.18795 0.60956 0.0
Zn1741 Zn 0.42582 0.18874 0.61501 0.0
O1742 O 0.42382 0.1763 0.63648 0.0
O1743 O 0.43097 0.15981 0.61413 0.0
O1744 O 0.40406 0.1773 0.6003 0.0
O1745 O 0.41581 0.16604 0.57667 0.0
O1746 O 0.42499 0.20411 0.58937 0.0
O1747 O 0.42078 0.21309 0.61624 0.0
C1748 C 0.42736 0.16141 0.63036 0.0
C1749 C 0.42128 0.2163 0.60011 0.0
C1750 C 0.83872 0.9265 0.6322 0.0
C1751 C 0.78372 0.91927 0.60276 0.0
O1752 O 0.82399 0.92254 0.6384 0.0
Zn1753 Zn 0.81142 0.9243 0.61708 0.0
O1754 O 0.84009 0.93033 0.61599 0.0
Zn1755 Zn 0.82253 0.9312 0.59368 0.0
O1756 O 0.82346 0.95443 0.58603 0.0
O1757 O 0.81116 0.95228 0.61175 0.0
O1758 O 0.79527 0.92441 0.59189 0.0
O1759 O 0.78768 0.91761 0.61863 0.0
O1760 O 0.82322 0.90309 0.60217 0.0
O1761 O 0.83343 0.91519 0.57829 0.0
C1762 C 0.81636 0.96169 0.59896 0.0
C1763 C 0.83132 0.90178 0.58762 0.0
C1764 C 0.0371 0.31584 0.59794 0.0
C1765 C 0.09695 0.33095 0.58662 0.0
O1766 O 0.04433 0.3229 0.58497 0.0
Zn1767 Zn 0.06756 0.32209 0.59262 0.0
O1768 O 0.04652 0.31072 0.61074 0.0
Zn1769 Zn 0.07444 0.31105 0.61609 0.0
O1770 O 0.07617 0.32365 0.63736 0.0
O1771 O 0.06834 0.33969 0.6149 0.0
O1772 O 0.09561 0.32284 0.60116 0.0
O1773 O 0.08358 0.33307 0.57725 0.0
O1774 O 0.07447 0.29482 0.59095 0.0
O1775 O 0.08118 0.28736 0.61776 0.0
C1776 C 0.07217 0.33836 0.63112 0.0
C1777 C 0.0796 0.28334 0.60189 0.0
C1778 C 0.6607 0.5724 0.631 0.0
C1779 C 0.71571 0.5803 0.60184 0.0
O1780 O 0.6754 0.57645 0.63722 0.0
Zn1781 Zn 0.68803 0.57484 0.61599 0.0
O1782 O 0.65938 0.56857 0.61479 0.0
Zn1783 Zn 0.67707 0.56785 0.59254 0.0
O1784 O 0.67648 0.54459 0.58492 0.0
O1785 O 0.68861 0.54692 0.6107 0.0
O1786 O 0.70429 0.57506 0.59088 0.0
O1787 O 0.71165 0.58181 0.61771 0.0
O1788 O 0.67609 0.5959 0.60101 0.0
O1789 O 0.66599 0.58373 0.57711 0.0
C1790 C 0.68359 0.53744 0.5979 0.0
C1791 C 0.668 0.59714 0.58645 0.0
C1792 C 0.40031 0.92113 0.2846 0.0
C1793 C 0.3696 0.92727 0.33914 0.0
O1794 O 0.38416 0.92068 0.28764 0.0
Zn1795 Zn 0.3852 0.92575 0.31198 0.0
O1796 O 0.41095 0.92484 0.29686 0.0
Zn1797 Zn 0.40844 0.93197 0.32393 0.0
O1798 O 0.42331 0.91585 0.33508 0.0
O1799 O 0.39983 0.90401 0.3236 0.0
O1800 O 0.38579 0.93091 0.34091 0.0
O1801 O 0.36363 0.92373 0.32419 0.0
O1802 O 0.39058 0.95349 0.31278 0.0
O1803 O 0.41624 0.95526 0.32516 0.0
C1804 C 0.41407 0.90251 0.33225 0.0
C1805 C 0.40336 0.96272 0.31822 0.0
C1806 C 0.03722 0.90279 0.31626 0.0
C1807 C 0.09708 0.91414 0.33127 0.0
O1808 O 0.04445 0.91574 0.32333 0.0
Zn1809 Zn 0.06768 0.90809 0.32248 0.0
O1810 O 0.04663 0.88998 0.31113 0.0
Zn1811 Zn 0.07454 0.88464 0.31146 0.0
O1812 O 0.07623 0.8634 0.32411 0.0
O1813 O 0.06852 0.88585 0.34018 0.0
O1814 O 0.09573 0.89957 0.3232 0.0
O1815 O 0.08371 0.9235 0.33339 0.0
O1816 O 0.07454 0.90972 0.29516 0.0
O1817 O 0.08125 0.8829 0.28776 0.0
C1818 C 0.07231 0.86963 0.33884 0.0
C1819 C 0.07964 0.89875 0.28368 0.0
C1820 C 0.13024 0.57249 0.34 0.0
C1821 C 0.10109 0.57981 0.28485 0.0
O1822 O 0.13646 0.57642 0.32527 0.0
Zn1823 Zn 0.11524 0.57466 0.31261 0.0
O1824 O 0.11404 0.56863 0.34134 0.0
Zn1825 Zn 0.09182 0.56771 0.32364 0.0
O1826 O 0.08427 0.54443 0.32445 0.0
O1827 O 0.11 0.54673 0.31223 0.0
O1828 O 0.09015 0.57463 0.29632 0.0
O1829 O 0.11693 0.58145 0.28891 0.0
O1830 O 0.10023 0.59578 0.32438 0.0
O1831 O 0.07636 0.58366 0.33458 0.0
C1832 C 0.09724 0.53725 0.31736 0.0
C1833 C 0.08568 0.59707 0.33247 0.0
C1834 C 0.42725 0.63012 0.33959 0.0
C1835 C 0.42011 0.60121 0.28428 0.0
O1836 O 0.42337 0.63642 0.32487 0.0
Zn1837 Zn 0.42507 0.61524 0.31214 0.0
O1838 O 0.43102 0.6139 0.34087 0.0
Zn1839 Zn 0.43189 0.59173 0.3231 0.0
O1840 O 0.45514 0.58408 0.32401 0.0
O1841 O 0.45295 0.60987 0.31187 0.0
O1842 O 0.42517 0.59021 0.29574 0.0
O1843 O 0.41846 0.61704 0.28841 0.0
O1844 O 0.40384 0.6003 0.32374 0.0
O1845 O 0.41577 0.5763 0.33389 0.0
C1846 C 0.46237 0.59707 0.31699 0.0
C1847 C 0.40243 0.58571 0.33176 0.0
C1848 C 0.4028 0.03811 0.68288 0.0
C1849 C 0.414 0.09816 0.66808 0.0
O1850 O 0.41573 0.04538 0.67581 0.0
Zn1851 Zn 0.40808 0.06866 0.6768 0.0
O1852 O 0.39004 0.04751 0.68812 0.0
Zn1853 Zn 0.38469 0.07544 0.68796 0.0
O1854 O 0.36339 0.07715 0.67547 0.0
O1855 O 0.38576 0.06955 0.65924 0.0
O1856 O 0.39948 0.09675 0.67621 0.0
O1857 O 0.42339 0.08481 0.6659 0.0
O1858 O 0.40985 0.07542 0.70413 0.0
O1859 O 0.38307 0.08207 0.71169 0.0
C1860 C 0.36955 0.07332 0.66069 0.0
C1861 C 0.39893 0.08049 0.71567 0.0
C1862 C 0.96254 0.90279 0.68307 0.0
C1863 C 0.90227 0.91365 0.66946 0.0
O1864 O 0.95504 0.91573 0.67624 0.0
Zn1865 Zn 0.93178 0.90795 0.67762 0.0
O1866 O 0.95332 0.89 0.68852 0.0
Zn1867 Zn 0.92555 0.88464 0.68947 0.0
O1868 O 0.9234 0.8631 0.67713 0.0
O1869 O 0.93063 0.88538 0.66057 0.0
O1870 O 0.9038 0.89935 0.67802 0.0
O1871 O 0.9156 0.9229 0.66664 0.0
O1872 O 0.92493 0.91036 0.70473 0.0
O1873 O 0.92058 0.88357 0.71385 0.0
C1874 C 0.92695 0.86917 0.66222 0.0
C1875 C 0.9212 0.89971 0.71699 0.0
C1876 C 0.12923 0.42682 0.66085 0.0
C1877 C 0.09873 0.42128 0.71557 0.0
O1878 O 0.13524 0.42344 0.67582 0.0
Zn1879 Zn 0.1137 0.42555 0.68806 0.0
O1880 O 0.11302 0.4304 0.65909 0.0
Zn1881 Zn 0.09041 0.4316 0.67614 0.0
O1882 O 0.08254 0.45483 0.67457 0.0
O1883 O 0.10826 0.45325 0.68686 0.0
O1884 O 0.08802 0.42483 0.70331 0.0
O1885 O 0.11486 0.4208 0.71245 0.0
O1886 O 0.09909 0.40366 0.67673 0.0
O1887 O 0.07553 0.41534 0.66526 0.0
C1888 C 0.09547 0.4624 0.68131 0.0
C1889 C 0.08481 0.40205 0.66817 0.0
C1890 C 0.53763 0.59707 0.68365 0.0
C1891 C 0.59743 0.58564 0.66854 0.0
O1892 O 0.54482 0.5841 0.67657 0.0
Zn1893 Zn 0.56806 0.59172 0.67735 0.0
O1894 O 0.54708 0.60987 0.68874 0.0
Zn1895 Zn 0.57497 0.61519 0.68832 0.0
O1896 O 0.57664 0.6364 0.67563 0.0
O1897 O 0.56887 0.61392 0.65962 0.0
O1898 O 0.59611 0.60021 0.67659 0.0
O1899 O 0.58406 0.57627 0.66645 0.0
O1900 O 0.57495 0.59014 0.70467 0.0
O1901 O 0.58173 0.61696 0.71201 0.0
C1902 C 0.57267 0.63013 0.66092 0.0
C1903 C 0.5801 0.60112 0.71612 0.0
C1904 C 0.33895 0.86894 0.42682 0.0
C1905 C 0.28387 0.89811 0.41929 0.0
O1906 O 0.32425 0.86271 0.42282 0.0
Zn1907 Zn 0.31161 0.88395 0.42447 0.0
O1908 O 0.34028 0.88515 0.43063 0.0
Zn1909 Zn 0.3226 0.90739 0.4314 0.0
O1910 O 0.32338 0.91504 0.45465 0.0
O1911 O 0.31121 0.88928 0.45242 0.0
O1912 O 0.29533 0.90905 0.42447 0.0
O1913 O 0.28792 0.88226 0.41767 0.0
O1914 O 0.32343 0.89888 0.4033 0.0
O1915 O 0.33351 0.92281 0.4154 0.0
C1916 C 0.31631 0.90208 0.46187 0.0
C1917 C 0.33148 0.91346 0.402 0.0
C1918 C 0.33198 0.58668 0.09744 0.0
C1919 C 0.31632 0.59819 0.03778 0.0
O1920 O 0.33394 0.57734 0.08402 0.0
Zn1921 Zn 0.32285 0.59279 0.06816 0.0
O1922 O 0.32387 0.60123 0.09623 0.0
Zn1923 Zn 0.31187 0.61621 0.07522 0.0
O1924 O 0.28822 0.61785 0.08219 0.0
O1925 O 0.29561 0.59109 0.07526 0.0
O1926 O 0.31128 0.61096 0.04729 0.0
O1927 O 0.32347 0.58522 0.04491 0.0
O1928 O 0.34052 0.61505 0.0689 0.0
O1929 O 0.32451 0.63746 0.07685 0.0
C1930 C 0.28416 0.602 0.08054 0.0
C1931 C 0.33921 0.63125 0.07277 0.0
C1932 C 0.39829 0.78498 0.08017 0.0
C1933 C 0.36904 0.84004 0.07318 0.0
O1934 O 0.38243 0.78899 0.08177 0.0
Zn1935 Zn 0.38412 0.81272 0.07521 0.0
O1936 O 0.40922 0.79651 0.07514 0.0
Zn1937 Zn 0.40752 0.82385 0.06844 0.0
O1938 O 0.42289 0.83464 0.08459 0.0
O1939 O 0.39898 0.82436 0.09655 0.0
O1940 O 0.38525 0.84147 0.06942 0.0
O1941 O 0.36285 0.82525 0.07695 0.0
O1942 O 0.38948 0.81257 0.04728 0.0
O1943 O 0.41518 0.8249 0.04518 0.0
C1944 C 0.41353 0.83244 0.09796 0.0
C1945 C 0.40226 0.81782 0.03789 0.0
C1946 C 0.21545 0.89807 0.08033 0.0
C1947 C 0.16059 0.86863 0.07236 0.0
O1948 O 0.21148 0.88219 0.08189 0.0
Zn1949 Zn 0.18787 0.88375 0.07481 0.0
O1950 O 0.20399 0.90893 0.07497 0.0
Zn1951 Zn 0.17683 0.9071 0.06764 0.0
O1952 O 0.16563 0.92258 0.0834 0.0
O1953 O 0.17583 0.89882 0.09574 0.0
O1954 O 0.15924 0.8848 0.06842 0.0
O1955 O 0.17529 0.86248 0.07651 0.0
O1956 O 0.18854 0.88887 0.04686 0.0
O1957 O 0.17632 0.91459 0.04434 0.0
C1958 C 0.16767 0.91335 0.09688 0.0
C1959 C 0.1835 0.90159 0.03729 0.0
C1960 C 0.13039 0.16003 0.57292 0.0
C1961 C 0.10102 0.21493 0.58037 0.0
O1962 O 0.13656 0.1748 0.5768 0.0
Zn1963 Zn 0.11527 0.18731 0.57513 0.0
O1964 O 0.1142 0.15859 0.56912 0.0
Zn1965 Zn 0.09189 0.17615 0.56825 0.0
O1966 O 0.08428 0.17533 0.54497 0.0
O1967 O 0.10994 0.18769 0.54724 0.0
O1968 O 0.09011 0.20342 0.57523 0.0
O1969 O 0.11689 0.21097 0.58191 0.0
O1970 O 0.1004 0.17549 0.59631 0.0
O1971 O 0.07655 0.16512 0.58429 0.0
C1972 C 0.09719 0.18251 0.53778 0.0
C1973 C 0.0859 0.16732 0.59767 0.0
C1974 C 0.66053 0.13116 0.42763 0.0
C1975 C 0.71547 0.10191 0.41965 0.0
O1976 O 0.67524 0.13735 0.4236 0.0
Zn1977 Zn 0.68784 0.1161 0.42516 0.0
O1978 O 0.65918 0.11495 0.43145 0.0
Zn1979 Zn 0.67683 0.09268 0.43215 0.0
O1980 O 0.67626 0.08502 0.45538 0.0
O1981 O 0.68852 0.11074 0.45307 0.0
O1982 O 0.70404 0.09098 0.42491 0.0
O1983 O 0.71144 0.11778 0.41814 0.0
O1984 O 0.67586 0.10115 0.4041 0.0
O1985 O 0.66572 0.07727 0.41627 0.0
C1986 C 0.68348 0.09794 0.46254 0.0
C1987 C 0.66775 0.0866 0.40286 0.0
C1988 C 0.36949 0.1602 0.92763 0.0
C1989 C 0.39867 0.21524 0.92023 0.0
O1990 O 0.36329 0.17496 0.92376 0.0
Zn1991 Zn 0.38453 0.18753 0.92547 0.0
O1992 O 0.38569 0.15881 0.93145 0.0
Zn1993 Zn 0.40794 0.17648 0.93236 0.0
O1994 O 0.41555 0.17566 0.95562 0.0
O1995 O 0.38983 0.18792 0.95339 0.0
O1996 O 0.40962 0.20378 0.92539 0.0
O1997 O 0.38281 0.21119 0.91868 0.0
O1998 O 0.39948 0.17575 0.9043 0.0
O1999 O 0.42336 0.16552 0.91639 0.0
C2000 C 0.4026 0.18277 0.96283 0.0
C2001 C 0.41403 0.16765 0.90299 0.0
C2002 C 0.09724 0.31762 0.96211 0.0
C2003 C 0.08595 0.33228 0.90207 0.0
O2004 O 0.08431 0.32468 0.95482 0.0
Zn2005 Zn 0.09197 0.32366 0.93157 0.0
O2006 O 0.11003 0.31241 0.95272 0.0
Zn2007 Zn 0.11541 0.31261 0.92477 0.0
O2008 O 0.13665 0.32526 0.92304 0.0
O2009 O 0.11419 0.34137 0.93062 0.0
O2010 O 0.10052 0.32425 0.90347 0.0
O2011 O 0.07657 0.33441 0.91544 0.0
O2012 O 0.09033 0.29629 0.92491 0.0
O2013 O 0.11711 0.28885 0.91816 0.0
C2014 C 0.1304 0.34002 0.92685 0.0
C2015 C 0.10127 0.28478 0.91983 0.0
C2016 C 0.57987 0.71629 0.1016 0.0
C2017 C 0.57236 0.66107 0.13057 0.0
O2018 O 0.57474 0.70485 0.09061 0.0
Zn2019 Zn 0.56782 0.67754 0.09216 0.0
O2020 O 0.58147 0.71219 0.11744 0.0
Zn2021 Zn 0.57469 0.6885 0.11565 0.0
O2022 O 0.59586 0.67677 0.10071 0.0
O2023 O 0.58386 0.66665 0.07673 0.0
O2024 O 0.57631 0.67577 0.13686 0.0
O2025 O 0.56859 0.65979 0.11434 0.0
O2026 O 0.54459 0.67679 0.08448 0.0
O2027 O 0.5468 0.68896 0.11025 0.0
C2028 C 0.59722 0.66873 0.08613 0.0
C2029 C 0.53738 0.68389 0.09743 0.0
C2030 C 0.83899 0.5726 0.13132 0.0
C2031 C 0.7839 0.58032 0.10216 0.0
O2032 O 0.84026 0.5687 0.11513 0.0
Zn2033 Zn 0.82255 0.56788 0.09292 0.0
O2034 O 0.8243 0.57669 0.13755 0.0
Zn2035 Zn 0.8116 0.57499 0.11634 0.0
O2036 O 0.81099 0.54705 0.11115 0.0
O2037 O 0.82314 0.54463 0.08538 0.0
O2038 O 0.78796 0.58196 0.11802 0.0
O2039 O 0.79532 0.57502 0.09124 0.0
O2040 O 0.83357 0.58368 0.07738 0.0
O2041 O 0.8235 0.59597 0.10124 0.0
C2042 C 0.81601 0.53753 0.09838 0.0
C2043 C 0.83157 0.59714 0.08665 0.0
C2044 C 0.91995 0.78371 0.101 0.0
C2045 C 0.9273 0.83888 0.12997 0.0
O2046 O 0.92506 0.79514 0.08998 0.0
Zn2047 Zn 0.9319 0.82247 0.09153 0.0
O2048 O 0.91835 0.78784 0.11683 0.0
Zn2049 Zn 0.92503 0.81152 0.11501 0.0
O2050 O 0.90384 0.82323 0.10005 0.0
O2051 O 0.91588 0.83334 0.07609 0.0
O2052 O 0.92334 0.82416 0.13622 0.0
O2053 O 0.93109 0.84019 0.11375 0.0
O2054 O 0.95513 0.82331 0.08388 0.0
O2055 O 0.95293 0.81119 0.10969 0.0
C2056 C 0.90251 0.83126 0.08546 0.0
C2057 C 0.96235 0.81629 0.09688 0.0
C2058 C 0.71601 0.91987 0.10142 0.0
C2059 C 0.66107 0.92771 0.13077 0.0
O2060 O 0.70455 0.92513 0.09052 0.0
Zn2061 Zn 0.67733 0.93226 0.09227 0.0
O2062 O 0.712 0.91827 0.11729 0.0
Zn2063 Zn 0.68836 0.92523 0.11568 0.0
O2064 O 0.67638 0.90419 0.10071 0.0
O2065 O 0.66621 0.91638 0.07685 0.0
O2066 O 0.67577 0.92359 0.13695 0.0
O2067 O 0.65973 0.93156 0.11457 0.0
O2068 O 0.6767 0.95552 0.08467 0.0
O2069 O 0.6889 0.95316 0.11042 0.0
C2070 C 0.66825 0.90296 0.08617 0.0
C2071 C 0.68384 0.96266 0.09765 0.0
C2072 C 0.59681 0.33153 0.91411 0.0
C2073 C 0.53704 0.31639 0.90267 0.0
O2074 O 0.59551 0.32351 0.89951 0.0
Zn2075 Zn 0.57436 0.31179 0.88449 0.0
O2076 O 0.58342 0.33361 0.92345 0.0
Zn2077 Zn 0.56746 0.32274 0.90797 0.0
O2078 O 0.57439 0.29544 0.90953 0.0
O2079 O 0.58116 0.28811 0.8827 0.0
O2080 O 0.54425 0.32349 0.91563 0.0
O2081 O 0.54646 0.31132 0.88985 0.0
O2082 O 0.57603 0.32451 0.8633 0.0
O2083 O 0.56828 0.3405 0.88579 0.0
C2084 C 0.57955 0.284 0.89854 0.0
C2085 C 0.57209 0.33922 0.86957 0.0
C2086 C 0.18374 0.53809 0.90138 0.0
C2087 C 0.16859 0.59796 0.91292 0.0
O2088 O 0.18889 0.54756 0.88863 0.0
Zn2089 Zn 0.18855 0.57555 0.8834 0.0
O2090 O 0.17664 0.54528 0.91435 0.0
Zn2091 Zn 0.17747 0.56856 0.90679 0.0
O2092 O 0.15991 0.56942 0.88448 0.0
O2093 O 0.17597 0.57734 0.86209 0.0
O2094 O 0.1665 0.58453 0.92221 0.0
O2095 O 0.1767 0.5967 0.89836 0.0
O2096 O 0.21226 0.58233 0.88184 0.0
O2097 O 0.20472 0.57546 0.90858 0.0
C2098 C 0.16126 0.57331 0.86829 0.0
C2099 C 0.21624 0.58066 0.89771 0.0
C2100 C 0.90245 0.16908 0.91466 0.0
C2101 C 0.96254 0.18342 0.90378 0.0
O2102 O 0.90387 0.17762 0.90034 0.0
Zn2103 Zn 0.9255 0.18929 0.88561 0.0
O2104 O 0.91581 0.16647 0.92393 0.0
Zn2105 Zn 0.93185 0.17762 0.90895 0.0
O2106 O 0.92467 0.20469 0.91122 0.0
O2107 O 0.92026 0.21356 0.88435 0.0
O2108 O 0.95512 0.17657 0.91676 0.0
O2109 O 0.95326 0.18869 0.89096 0.0
O2110 O 0.92357 0.17692 0.86412 0.0
O2111 O 0.93094 0.16045 0.88641 0.0
C2112 C 0.92083 0.21682 0.90046 0.0
C2113 C 0.92728 0.16206 0.8702 0.0
C2114 C 0.28375 0.91974 0.89797 0.0
C2115 C 0.33873 0.92768 0.86876 0.0
O2116 O 0.29517 0.92506 0.90889 0.0
Zn2117 Zn 0.32235 0.93231 0.9072 0.0
O2118 O 0.2878 0.91816 0.88211 0.0
Zn2119 Zn 0.31141 0.92519 0.88378 0.0
O2120 O 0.32338 0.90423 0.89886 0.0
O2121 O 0.33346 0.91654 0.9227 0.0
O2122 O 0.32405 0.92355 0.86256 0.0
O2123 O 0.34003 0.93158 0.88496 0.0
O2124 O 0.32286 0.95556 0.91475 0.0
O2125 O 0.31073 0.95312 0.88897 0.0
C2126 C 0.33147 0.90308 0.91344 0.0
C2127 C 0.31572 0.96265 0.90175 0.0
C2128 C 0.60082 0.58023 0.21561 0.0
C2129 C 0.63003 0.57292 0.16054 0.0
O2130 O 0.58987 0.57511 0.20412 0.0
Zn2131 Zn 0.59156 0.56824 0.17679 0.0
O2132 O 0.61667 0.58183 0.21156 0.0
Zn2133 Zn 0.61498 0.57511 0.18787 0.0
O2134 O 0.60007 0.5963 0.17611 0.0
O2135 O 0.57617 0.58428 0.16585 0.0
O2136 O 0.63623 0.57681 0.17529 0.0
O2137 O 0.61383 0.56913 0.15915 0.0
O2138 O 0.58395 0.54498 0.17591 0.0
O2139 O 0.60966 0.5472 0.18818 0.0
C2140 C 0.58553 0.59765 0.16799 0.0
C2141 C 0.59689 0.53776 0.18301 0.0
C2142 C 0.91991 0.60128 0.21624 0.0
C2143 C 0.92735 0.63001 0.16089 0.0
O2144 O 0.92498 0.59022 0.20483 0.0
Zn2145 Zn 0.93184 0.59165 0.17749 0.0
O2146 O 0.91837 0.61711 0.21206 0.0
Zn2147 Zn 0.92508 0.6152 0.18837 0.0
O2148 O 0.90383 0.60029 0.17673 0.0
O2149 O 0.91573 0.57624 0.16668 0.0
O2150 O 0.92349 0.63636 0.17559 0.0
O2151 O 0.93108 0.61377 0.15965 0.0
O2152 O 0.95507 0.58391 0.17669 0.0
O2153 O 0.95296 0.60975 0.18874 0.0
C2154 C 0.90241 0.58569 0.16874 0.0
C2155 C 0.96234 0.59689 0.18368 0.0
C2156 C 0.90323 0.96213 0.18214 0.0
C2157 C 0.91433 0.90218 0.16756 0.0
O2158 O 0.8904 0.95281 0.18736 0.0
Zn2159 Zn 0.88493 0.92491 0.18725 0.0
O2160 O 0.91617 0.95478 0.17519 0.0
Zn2161 Zn 0.90841 0.9316 0.17624 0.0
O2162 O 0.88618 0.93072 0.1585 0.0
O2163 O 0.8637 0.92323 0.17462 0.0
O2164 O 0.92376 0.9155 0.16544 0.0
O2165 O 0.89976 0.9036 0.1756 0.0
O2166 O 0.88313 0.91832 0.21099 0.0
O2167 O 0.90999 0.92485 0.20361 0.0
C2168 C 0.86996 0.927 0.15986 0.0
C2169 C 0.89898 0.91984 0.21508 0.0
C2170 C 0.57985 0.89959 0.21586 0.0
C2171 C 0.57283 0.87062 0.16059 0.0
O2172 O 0.57489 0.91062 0.20438 0.0
Zn2173 Zn 0.56825 0.90909 0.17698 0.0
O2174 O 0.58139 0.88375 0.21173 0.0
Zn2175 Zn 0.57491 0.88557 0.18798 0.0
O2176 O 0.59626 0.9004 0.1764 0.0
O2177 O 0.58443 0.92443 0.16623 0.0
O2178 O 0.57662 0.86435 0.17534 0.0
O2179 O 0.56912 0.88685 0.15924 0.0
O2180 O 0.54506 0.91684 0.17587 0.0
O2181 O 0.54704 0.89102 0.18797 0.0
C2182 C 0.59773 0.91497 0.16838 0.0
C2183 C 0.5377 0.90384 0.18274 0.0
C2184 C 0.62989 0.42724 0.83977 0.0
C2185 C 0.60083 0.41999 0.78457 0.0
O2186 O 0.61369 0.43107 0.84109 0.0
Zn2187 Zn 0.59149 0.432 0.82336 0.0
O2188 O 0.63614 0.42335 0.82504 0.0
Zn2189 Zn 0.61494 0.42511 0.81236 0.0
O2190 O 0.60968 0.45303 0.81206 0.0
O2191 O 0.58391 0.45527 0.82421 0.0
O2192 O 0.61667 0.41839 0.78865 0.0
O2193 O 0.58987 0.42512 0.79604 0.0
O2194 O 0.57605 0.41598 0.83425 0.0
O2195 O 0.59996 0.40393 0.82407 0.0
C2196 C 0.5969 0.46248 0.81719 0.0
C2197 C 0.5854 0.4026 0.83214 0.0
C2198 C 0.09767 0.58593 0.83102 0.0
C2199 C 0.03736 0.59665 0.81751 0.0
O2200 O 0.09609 0.60024 0.82249 0.0
Zn2201 Zn 0.07427 0.61491 0.8111 0.0
O2202 O 0.08438 0.57663 0.83385 0.0
Zn2203 Zn 0.06813 0.59155 0.82292 0.0
O2204 O 0.07496 0.58923 0.7958 0.0
O2205 O 0.07915 0.61607 0.78671 0.0
O2206 O 0.04489 0.58372 0.82431 0.0
O2207 O 0.04655 0.60947 0.81208 0.0
O2208 O 0.07637 0.63643 0.82348 0.0
O2209 O 0.06925 0.61409 0.84001 0.0
C2210 C 0.07859 0.59993 0.78356 0.0
C2211 C 0.07287 0.63031 0.83839 0.0
C2212 C 0.87002 0.07377 0.84012 0.0
C2213 C 0.89917 0.08082 0.78494 0.0
O2214 O 0.88626 0.07011 0.84152 0.0
Zn2215 Zn 0.90854 0.06928 0.82385 0.0
O2216 O 0.86379 0.07753 0.82534 0.0
Zn2217 Zn 0.88506 0.07587 0.81277 0.0
O2218 O 0.89059 0.04797 0.81284 0.0
O2219 O 0.91637 0.0461 0.82504 0.0
O2220 O 0.88331 0.08234 0.78899 0.0
O2221 O 0.91016 0.07587 0.79646 0.0
O2222 O 0.9238 0.08554 0.83458 0.0
O2223 O 0.89977 0.09731 0.82437 0.0
C2224 C 0.90343 0.03868 0.81813 0.0
C2225 C 0.91433 0.09883 0.83242 0.0
C2226 C 0.40208 0.91458 0.83132 0.0
C2227 C 0.46195 0.90309 0.8165 0.0
O2228 O 0.40344 0.89998 0.82332 0.0
Zn2229 Zn 0.42461 0.88497 0.81171 0.0
O2230 O 0.41544 0.92396 0.83344 0.0
Zn2231 Zn 0.43149 0.90848 0.82265 0.0
O2232 O 0.42472 0.91 0.7953 0.0
O2233 O 0.41793 0.88318 0.78797 0.0
O2234 O 0.45473 0.9161 0.82351 0.0
O2235 O 0.45251 0.89029 0.81141 0.0
O2236 O 0.42288 0.8638 0.82453 0.0
O2237 O 0.43061 0.88635 0.84045 0.0
C2238 C 0.41961 0.89902 0.78384 0.0
C2239 C 0.4268 0.87013 0.83923 0.0
C2240 C 0.68339 0.59823 0.0378 0.0
C2241 C 0.6678 0.58659 0.09746 0.0
O2242 O 0.68844 0.61098 0.04733 0.0
Zn2243 Zn 0.68786 0.61618 0.07527 0.0
O2244 O 0.67623 0.58525 0.04491 0.0
Zn2245 Zn 0.67685 0.59278 0.06818 0.0
O2246 O 0.6592 0.61504 0.06899 0.0
O2247 O 0.67524 0.63743 0.07696 0.0
O2248 O 0.66576 0.57731 0.08402 0.0
O2249 O 0.67592 0.60114 0.09627 0.0
O2250 O 0.71151 0.61779 0.08224 0.0
O2251 O 0.70407 0.59104 0.07533 0.0
C2252 C 0.66053 0.63123 0.07289 0.0
C2253 C 0.71553 0.60193 0.08061 0.0
C2254 C 0.68344 0.90234 0.46259 0.0
C2255 C 0.66787 0.91396 0.40289 0.0
O2256 O 0.68846 0.88958 0.45306 0.0
Zn2257 Zn 0.68787 0.88436 0.42513 0.0
O2258 O 0.67631 0.91534 0.45547 0.0
Zn2259 Zn 0.67691 0.90779 0.43219 0.0
O2260 O 0.65921 0.88556 0.43142 0.0
O2261 O 0.67519 0.86314 0.42346 0.0
O2262 O 0.66586 0.92327 0.41632 0.0
O2263 O 0.67595 0.89939 0.40411 0.0
O2264 O 0.71152 0.88269 0.41817 0.0
O2265 O 0.70416 0.90946 0.42507 0.0
C2266 C 0.6605 0.86936 0.42754 0.0
C2267 C 0.71559 0.89854 0.4198 0.0
C2268 C 0.59698 0.6831 0.46264 0.0
C2269 C 0.58561 0.66801 0.40278 0.0
O2270 O 0.60975 0.68826 0.4532 0.0
Zn2271 Zn 0.61505 0.68794 0.42528 0.0
O2272 O 0.58402 0.67603 0.45542 0.0
Zn2273 Zn 0.59163 0.67688 0.43216 0.0
O2274 O 0.6139 0.65922 0.4313 0.0
O2275 O 0.6363 0.67535 0.42358 0.0
O2276 O 0.57624 0.66591 0.41616 0.0
O2277 O 0.60014 0.67612 0.40411 0.0
O2278 O 0.61673 0.71163 0.41852 0.0
O2279 O 0.58993 0.70419 0.42525 0.0
C2280 C 0.6301 0.6606 0.42749 0.0
C2281 C 0.60087 0.71567 0.42011 0.0
C2282 C 0.81623 0.59863 0.46299 0.0
C2283 C 0.83174 0.58708 0.40328 0.0
O2284 O 0.81116 0.61139 0.45349 0.0
Zn2285 Zn 0.81169 0.61662 0.42555 0.0
O2286 O 0.82337 0.58565 0.45586 0.0
Zn2287 Zn 0.82271 0.59321 0.43259 0.0
O2288 O 0.84035 0.61549 0.43182 0.0
O2289 O 0.82431 0.63788 0.42387 0.0
O2290 O 0.83379 0.57777 0.41671 0.0
O2291 O 0.82362 0.60162 0.40451 0.0
O2292 O 0.78803 0.61823 0.41862 0.0
O2293 O 0.79548 0.59147 0.42548 0.0
C2294 C 0.83902 0.63168 0.42795 0.0
C2295 C 0.78401 0.60237 0.42023 0.0
C2296 C 0.90296 0.31862 0.9632 0.0
C2297 C 0.91364 0.33303 0.90308 0.0
O2298 O 0.8902 0.31319 0.95394 0.0
Zn2299 Zn 0.8848 0.31258 0.92619 0.0
O2300 O 0.91579 0.32571 0.95578 0.0
Zn2301 Zn 0.908 0.32456 0.9325 0.0
O2302 O 0.88533 0.34149 0.93148 0.0
O2303 O 0.8632 0.32475 0.92424 0.0
O2304 O 0.92286 0.33582 0.91644 0.0
O2305 O 0.89942 0.32434 0.90453 0.0
O2306 O 0.88383 0.28827 0.92096 0.0
O2307 O 0.91059 0.29754 0.92529 0.0
C2308 C 0.86914 0.33971 0.92782 0.0
C2309 C 0.89998 0.28527 0.92149 0.0
C2310 C 0.33906 0.36853 0.07331 0.0
C2311 C 0.28396 0.39772 0.08068 0.0
O2312 O 0.34038 0.38473 0.06946 0.0
Zn2313 Zn 0.32271 0.40696 0.06859 0.0
O2314 O 0.32434 0.36231 0.07729 0.0
Zn2315 Zn 0.31169 0.38355 0.07558 0.0
O2316 O 0.31124 0.38883 0.04762 0.0
O2317 O 0.3235 0.41456 0.04534 0.0
O2318 O 0.288 0.38187 0.08237 0.0
O2319 O 0.29544 0.40863 0.07548 0.0
O2320 O 0.33357 0.42243 0.08455 0.0
O2321 O 0.32347 0.39855 0.09673 0.0
C2322 C 0.31636 0.40161 0.03815 0.0
C2323 C 0.33151 0.41314 0.09799 0.0
C2324 C 0.59714 0.31696 0.53765 0.0
C2325 C 0.58565 0.33199 0.59751 0.0
O2326 O 0.60991 0.31182 0.54711 0.0
Zn2327 Zn 0.61517 0.31216 0.57504 0.0
O2328 O 0.58417 0.32403 0.54485 0.0
Zn2329 Zn 0.59175 0.32318 0.56811 0.0
O2330 O 0.61399 0.34087 0.56901 0.0
O2331 O 0.6364 0.32478 0.57677 0.0
O2332 O 0.57631 0.33409 0.58411 0.0
O2333 O 0.60021 0.32391 0.59619 0.0
O2334 O 0.61688 0.28846 0.58176 0.0
O2335 O 0.59009 0.29586 0.57494 0.0
C2336 C 0.63018 0.33952 0.57285 0.0
C2337 C 0.60104 0.28438 0.58009 0.0
C2338 C 0.90249 0.1826 0.5372 0.0
C2339 C 0.91392 0.16752 0.59713 0.0
O2340 O 0.8897 0.1877 0.54665 0.0
Zn2341 Zn 0.88438 0.1873 0.57458 0.0
O2342 O 0.91546 0.17555 0.54443 0.0
Zn2343 Zn 0.90785 0.17633 0.56772 0.0
O2344 O 0.88569 0.15855 0.56864 0.0
O2345 O 0.86319 0.17456 0.57629 0.0
O2346 O 0.92329 0.16541 0.58375 0.0
O2347 O 0.89935 0.17558 0.59577 0.0
O2348 O 0.88261 0.21099 0.58139 0.0
O2349 O 0.90945 0.20364 0.57474 0.0
C2350 C 0.86948 0.15983 0.57245 0.0
C2351 C 0.89846 0.21508 0.57989 0.0
C2352 C 0.46205 0.31631 0.90302 0.0
C2353 C 0.40226 0.33147 0.91461 0.0
O2354 O 0.45491 0.32335 0.91605 0.0
Zn2355 Zn 0.43164 0.32264 0.90848 0.0
O2356 O 0.45255 0.31129 0.89023 0.0
Zn2357 Zn 0.42466 0.31175 0.88497 0.0
O2358 O 0.42299 0.32453 0.86381 0.0
O2359 O 0.43087 0.34042 0.88634 0.0
O2360 O 0.40357 0.32347 0.9 0.0
O2361 O 0.41565 0.33352 0.92397 0.0
O2362 O 0.42476 0.29534 0.90998 0.0
O2363 O 0.41788 0.28806 0.88317 0.0
C2364 C 0.42704 0.3392 0.87012 0.0
C2365 C 0.41958 0.28392 0.899 0.0
C2366 C 0.2159 0.42018 0.89805 0.0
C2367 C 0.16089 0.42766 0.86861 0.0
O2368 O 0.21192 0.41854 0.88218 0.0
Zn2369 Zn 0.18823 0.42544 0.88369 0.0
O2370 O 0.20439 0.42545 0.90891 0.0
Zn2371 Zn 0.17717 0.43252 0.90708 0.0
O2372 O 0.16606 0.41664 0.92254 0.0
O2373 O 0.1763 0.40441 0.89874 0.0
O2374 O 0.15959 0.43162 0.88479 0.0
O2375 O 0.17559 0.4236 0.8624 0.0
O2376 O 0.18868 0.45342 0.88882 0.0
O2377 O 0.17646 0.45585 0.91454 0.0
C2378 C 0.16814 0.4032 0.91326 0.0
C2379 C 0.18357 0.46297 0.90154 0.0
C2380 C 0.07255 0.16055 0.87059 0.0
C2381 C 0.08 0.21595 0.89929 0.0
O2382 O 0.07641 0.17524 0.86423 0.0
Zn2383 Zn 0.07482 0.18805 0.88539 0.0
O2384 O 0.06884 0.15933 0.88683 0.0
Zn2385 Zn 0.06809 0.1772 0.90896 0.0
O2386 O 0.0449 0.17633 0.91674 0.0
O2387 O 0.04695 0.18834 0.89088 0.0
O2388 O 0.07495 0.20455 0.91037 0.0
O2389 O 0.0815 0.21176 0.88346 0.0
O2390 O 0.09608 0.17645 0.90029 0.0
O2391 O 0.08419 0.16643 0.92437 0.0
C2392 C 0.0376 0.18326 0.90375 0.0
C2393 C 0.09751 0.16849 0.91491 0.0
C2394 C 0.3318 0.09717 0.91359 0.0
C2395 C 0.31608 0.03761 0.90174 0.0
O2396 O 0.33381 0.08369 0.92282 0.0
Zn2397 Zn 0.32277 0.06793 0.90725 0.0
O2398 O 0.32373 0.09604 0.899 0.0
Zn2399 Zn 0.31182 0.07512 0.88384 0.0
O2400 O 0.28819 0.08214 0.88217 0.0
O2401 O 0.29555 0.07506 0.90892 0.0
O2402 O 0.31109 0.04718 0.88899 0.0
O2403 O 0.32329 0.04465 0.91473 0.0
O2404 O 0.34047 0.06874 0.88506 0.0
O2405 O 0.32454 0.07683 0.86264 0.0
C2406 C 0.28412 0.0804 0.89802 0.0
C2407 C 0.33921 0.07269 0.86887 0.0
C2408 C 0.46236 0.68409 0.09723 0.0
C2409 C 0.40254 0.66877 0.08591 0.0
O2410 O 0.45518 0.677 0.08424 0.0
Zn2411 Zn 0.43193 0.67771 0.09189 0.0
O2412 O 0.4529 0.68916 0.11002 0.0
Zn2413 Zn 0.42502 0.68871 0.11536 0.0
O2414 O 0.42341 0.6761 0.13661 0.0
O2415 O 0.43123 0.66006 0.11416 0.0
O2416 O 0.40388 0.67687 0.10046 0.0
O2417 O 0.41591 0.66668 0.07653 0.0
O2418 O 0.4249 0.70497 0.09025 0.0
O2419 O 0.41818 0.71237 0.11708 0.0
C2420 C 0.42744 0.6614 0.13038 0.0
C2421 C 0.41974 0.71642 0.10121 0.0
C2422 C 0.83913 0.42761 0.13146 0.0
C2423 C 0.7841 0.41973 0.10218 0.0
O2424 O 0.82445 0.42348 0.13767 0.0
Zn2425 Zn 0.81179 0.42509 0.11642 0.0
O2426 O 0.84043 0.43148 0.11526 0.0
Zn2427 Zn 0.82277 0.43219 0.093 0.0
O2428 O 0.82333 0.45545 0.08544 0.0
O2429 O 0.81112 0.45302 0.11118 0.0
O2430 O 0.79555 0.42504 0.09128 0.0
O2431 O 0.78815 0.41807 0.11804 0.0
O2432 O 0.8238 0.40413 0.10141 0.0
O2433 O 0.83388 0.41638 0.07754 0.0
C2434 C 0.81614 0.46254 0.09841 0.0
C2435 C 0.83191 0.40295 0.08685 0.0
C2436 C 0.03738 0.8164 0.09695 0.0
C2437 C 0.09728 0.83113 0.08551 0.0
O2438 O 0.04461 0.82343 0.08396 0.0
Zn2439 Zn 0.06783 0.82251 0.0916 0.0
O2440 O 0.04679 0.81128 0.10975 0.0
Zn2441 Zn 0.07469 0.81156 0.11511 0.0
O2442 O 0.07641 0.82434 0.13629 0.0
O2443 O 0.06872 0.8403 0.11375 0.0
O2444 O 0.0959 0.82314 0.10012 0.0
O2445 O 0.08392 0.83325 0.07613 0.0
O2446 O 0.07449 0.79514 0.09009 0.0
O2447 O 0.08129 0.78781 0.11691 0.0
C2448 C 0.07251 0.83905 0.12997 0.0
C2449 C 0.07957 0.78367 0.10108 0.0
C2450 C 0.6606 0.07264 0.13081 0.0
C2451 C 0.71563 0.08047 0.10166 0.0
O2452 O 0.6753 0.0767 0.13703 0.0
Zn2453 Zn 0.68794 0.07509 0.1158 0.0
O2454 O 0.65929 0.06879 0.1146 0.0
Zn2455 Zn 0.67698 0.06806 0.09236 0.0
O2456 O 0.67639 0.0448 0.08476 0.0
O2457 O 0.68859 0.04717 0.11051 0.0
O2458 O 0.70422 0.07521 0.09071 0.0
O2459 O 0.71156 0.08206 0.11751 0.0
O2460 O 0.67603 0.09613 0.10079 0.0
O2461 O 0.66592 0.08394 0.0769 0.0
C2462 C 0.68356 0.03767 0.09773 0.0
C2463 C 0.66794 0.09736 0.08623 0.0
C2464 C 0.36976 0.42757 0.84039 0.0
C2465 C 0.39902 0.42009 0.78534 0.0
O2466 O 0.36356 0.42375 0.82561 0.0
Zn2467 Zn 0.38481 0.42541 0.81302 0.0
O2468 O 0.38597 0.43133 0.84178 0.0
Zn2469 Zn 0.40825 0.43219 0.82414 0.0
O2470 O 0.41593 0.45543 0.82501 0.0
O2471 O 0.39024 0.4533 0.81268 0.0
O2472 O 0.40996 0.42521 0.79683 0.0
O2473 O 0.38314 0.41861 0.78934 0.0
O2474 O 0.39965 0.40417 0.82478 0.0
O2475 O 0.42357 0.4161 0.8351 0.0
C2476 C 0.40303 0.46269 0.81787 0.0
C2477 C 0.41418 0.40276 0.8329 0.0
C2478 C 0.0724 0.3701 0.83897 0.0
C2479 C 0.07824 0.40056 0.78421 0.0
O2480 O 0.07594 0.36405 0.82404 0.0
Zn2481 Zn 0.07387 0.38557 0.81171 0.0
O2482 O 0.06876 0.38631 0.84064 0.0
Zn2483 Zn 0.06763 0.40887 0.82357 0.0
O2484 O 0.04434 0.41663 0.82487 0.0
O2485 O 0.04614 0.39093 0.81256 0.0
O2486 O 0.07456 0.41125 0.79645 0.0
O2487 O 0.07882 0.38442 0.78734 0.0
O2488 O 0.09563 0.40029 0.82313 0.0
O2489 O 0.08383 0.42382 0.83455 0.0
C2490 C 0.03689 0.4037 0.81798 0.0
C2491 C 0.09717 0.41459 0.83169 0.0
C2492 C 0.09679 0.03723 0.81773 0.0
C2493 C 0.0855 0.09711 0.83306 0.0
O2494 O 0.08386 0.04442 0.8249 0.0
Zn2495 Zn 0.09146 0.06772 0.8241 0.0
O2496 O 0.10953 0.04669 0.81256 0.0
Zn2497 Zn 0.11485 0.0746 0.81298 0.0
O2498 O 0.13614 0.07627 0.82549 0.0
O2499 O 0.11378 0.06859 0.8417 0.0
O2500 O 0.1 0.09577 0.82488 0.0
O2501 O 0.07612 0.08374 0.83519 0.0
O2502 O 0.08969 0.07477 0.79681 0.0
O2503 O 0.11648 0.08145 0.78932 0.0
C2504 C 0.12998 0.07239 0.84027 0.0
C2505 C 0.10061 0.07994 0.78532 0.0
C2506 C 0.42755 0.13031 0.83961 0.0
C2507 C 0.42026 0.10147 0.78432 0.0
O2508 O 0.42371 0.13663 0.82489 0.0
Zn2509 Zn 0.42538 0.11545 0.81214 0.0
O2510 O 0.43131 0.11408 0.84088 0.0
Zn2511 Zn 0.43217 0.09193 0.82309 0.0
O2512 O 0.45541 0.08425 0.82393 0.0
O2513 O 0.45325 0.11004 0.81179 0.0
O2514 O 0.42533 0.09044 0.79575 0.0
O2515 O 0.4187 0.11731 0.78844 0.0
O2516 O 0.40414 0.1005 0.82372 0.0
O2517 O 0.41607 0.0765 0.83388 0.0
C2518 C 0.46266 0.09722 0.81689 0.0
C2519 C 0.40273 0.0859 0.83173 0.0
C2520 C 0.37019 0.57326 0.16032 0.0
C2521 C 0.39941 0.58022 0.21543 0.0
O2522 O 0.364 0.57702 0.17511 0.0
Zn2523 Zn 0.38528 0.57526 0.18763 0.0
O2524 O 0.38641 0.56953 0.15888 0.0
Zn2525 Zn 0.40871 0.56858 0.17652 0.0
O2526 O 0.41643 0.54539 0.17534 0.0
O2527 O 0.39067 0.54736 0.18756 0.0
O2528 O 0.41039 0.57523 0.20391 0.0
O2529 O 0.38356 0.58175 0.21138 0.0
O2530 O 0.40009 0.5966 0.176 0.0
O2531 O 0.42404 0.58472 0.16572 0.0
C2532 C 0.40347 0.53803 0.18225 0.0
C2533 C 0.41463 0.59804 0.16792 0.0
C2534 C 0.92743 0.37025 0.16154 0.0
C2535 C 0.91998 0.39946 0.2166 0.0
O2536 O 0.92344 0.36403 0.17626 0.0
Zn2537 Zn 0.9251 0.38528 0.18886 0.0
O2538 O 0.93121 0.38646 0.16018 0.0
Zn2539 Zn 0.93197 0.40874 0.17781 0.0
O2540 O 0.95523 0.41638 0.17699 0.0
O2541 O 0.95299 0.39061 0.18917 0.0
O2542 O 0.92509 0.41041 0.20511 0.0
O2543 O 0.91839 0.3836 0.21256 0.0
O2544 O 0.90392 0.40015 0.17708 0.0
O2545 O 0.91588 0.42409 0.16683 0.0
C2546 C 0.96243 0.40339 0.18404 0.0
C2547 C 0.90254 0.41469 0.16897 0.0
C2548 C 0.12998 0.92729 0.15995 0.0
C2549 C 0.10073 0.91995 0.21501 0.0
O2550 O 0.13618 0.92345 0.17472 0.0
Zn2551 Zn 0.11492 0.92513 0.18729 0.0
O2552 O 0.11377 0.93107 0.15855 0.0
Zn2553 Zn 0.0915 0.93196 0.17619 0.0
O2554 O 0.08388 0.95523 0.1753 0.0
O2555 O 0.10957 0.95303 0.18761 0.0
O2556 O 0.08979 0.92506 0.20351 0.0
O2557 O 0.1166 0.9184 0.21099 0.0
O2558 O 0.10006 0.90391 0.17551 0.0
O2559 O 0.07615 0.91588 0.16522 0.0
C2560 C 0.09681 0.96247 0.18242 0.0
C2561 C 0.08554 0.90252 0.16738 0.0
C2562 C 0.53744 0.09715 0.18335 0.0
C2563 C 0.59729 0.0858 0.16832 0.0
O2564 O 0.54466 0.08419 0.17627 0.0
Zn2565 Zn 0.56789 0.09185 0.17709 0.0
O2566 O 0.54687 0.10995 0.18846 0.0
Zn2567 Zn 0.57475 0.11533 0.18807 0.0
O2568 O 0.57641 0.13653 0.17538 0.0
O2569 O 0.56872 0.11405 0.15935 0.0
O2570 O 0.59593 0.10038 0.17636 0.0
O2571 O 0.58393 0.07642 0.16622 0.0
O2572 O 0.57475 0.09029 0.20443 0.0
O2573 O 0.58148 0.11712 0.21176 0.0
C2574 C 0.5725 0.13027 0.16066 0.0
C2575 C 0.57987 0.10128 0.21587 0.0
C2576 C 0.33903 0.36907 0.92794 0.0
C2577 C 0.28411 0.39851 0.9201 0.0
O2578 O 0.32431 0.36292 0.92383 0.0
Zn2579 Zn 0.31173 0.38419 0.92555 0.0
O2580 O 0.34038 0.38525 0.93187 0.0
Zn2581 Zn 0.32277 0.40755 0.93269 0.0
O2582 O 0.32336 0.41502 0.956 0.0
O2583 O 0.31116 0.38929 0.95352 0.0
O2584 O 0.29558 0.40938 0.92543 0.0
O2585 O 0.2881 0.38264 0.91853 0.0
O2586 O 0.32377 0.39924 0.90459 0.0
O2587 O 0.33396 0.42303 0.9169 0.0
C2588 C 0.31623 0.40201 0.96308 0.0
C2589 C 0.33193 0.41377 0.90343 0.0
C2590 C 0.33891 0.13162 0.57315 0.0
C2591 C 0.28395 0.10225 0.58075 0.0
O2592 O 0.32421 0.13782 0.57722 0.0
Zn2593 Zn 0.3116 0.11654 0.57546 0.0
O2594 O 0.34023 0.11543 0.56925 0.0
Zn2595 Zn 0.32264 0.09315 0.56842 0.0
O2596 O 0.32334 0.08557 0.54518 0.0
O2597 O 0.31112 0.11131 0.5475 0.0
O2598 O 0.29543 0.09137 0.5755 0.0
O2599 O 0.28794 0.11812 0.58236 0.0
O2600 O 0.32353 0.10152 0.5965 0.0
O2601 O 0.33371 0.07769 0.58426 0.0
C2602 C 0.31621 0.09853 0.53802 0.0
C2603 C 0.33165 0.08697 0.5977 0.0
C2604 C 0.41403 0.33238 0.59765 0.0
C2605 C 0.4033 0.31846 0.53735 0.0
O2606 O 0.42326 0.33527 0.58432 0.0
Zn2607 Zn 0.40842 0.32409 0.56814 0.0
O2608 O 0.39981 0.32369 0.59612 0.0
Zn2609 Zn 0.38521 0.31207 0.57435 0.0
O2610 O 0.38426 0.28772 0.57939 0.0
O2611 O 0.41103 0.29703 0.57526 0.0
O2612 O 0.39056 0.31296 0.5466 0.0
O2613 O 0.41618 0.3254 0.54482 0.0
O2614 O 0.38573 0.34101 0.56928 0.0
O2615 O 0.36361 0.32423 0.57643 0.0
C2616 C 0.40042 0.28473 0.57895 0.0
C2617 C 0.36955 0.33921 0.57294 0.0
C2618 C 0.16757 0.41306 0.59811 0.0
C2619 C 0.18298 0.40168 0.5383 0.0
O2620 O 0.16558 0.4224 0.5847 0.0
Zn2621 Zn 0.17657 0.40699 0.56875 0.0
O2622 O 0.17565 0.39849 0.59685 0.0
Zn2623 Zn 0.18757 0.38357 0.57572 0.0
O2624 O 0.21123 0.38191 0.58261 0.0
O2625 O 0.20381 0.40869 0.57578 0.0
O2626 O 0.18807 0.38889 0.54777 0.0
O2627 O 0.17584 0.41462 0.5455 0.0
O2628 O 0.1589 0.38473 0.56954 0.0
O2629 O 0.17495 0.36231 0.57735 0.0
C2630 C 0.21527 0.39777 0.581 0.0
C2631 C 0.16024 0.36852 0.57336 0.0
C2632 C 0.08508 0.66726 0.09739 0.0
C2633 C 0.0962 0.68192 0.03736 0.0
O2634 O 0.07566 0.66506 0.08407 0.0
Zn2635 Zn 0.09095 0.676 0.06793 0.0
O2636 O 0.09959 0.67541 0.09596 0.0
Zn2637 Zn 0.11436 0.68715 0.07464 0.0
O2638 O 0.11603 0.71087 0.08125 0.0
O2639 O 0.08919 0.70336 0.07477 0.0
O2640 O 0.10897 0.6872 0.04674 0.0
O2641 O 0.08325 0.67494 0.04468 0.0
O2642 O 0.1133 0.65841 0.06885 0.0
O2643 O 0.13566 0.67469 0.07636 0.0
C2644 C 0.10016 0.71487 0.0798 0.0
C2645 C 0.12951 0.65989 0.07259 0.0
C2646 C 0.66781 0.58662 0.90311 0.0
C2647 C 0.68332 0.59828 0.96278 0.0
O2648 O 0.66574 0.57736 0.91656 0.0
Zn2649 Zn 0.67679 0.59285 0.9324 0.0
O2650 O 0.67593 0.60117 0.9043 0.0
Zn2651 Zn 0.68784 0.61622 0.92532 0.0
O2652 O 0.71149 0.61783 0.91839 0.0
O2653 O 0.70403 0.59108 0.92532 0.0
O2654 O 0.6884 0.61103 0.95326 0.0
O2655 O 0.67613 0.58532 0.95567 0.0
O2656 O 0.65917 0.61511 0.93155 0.0
O2657 O 0.67524 0.63748 0.92359 0.0
C2658 C 0.7155 0.60197 0.92005 0.0
C2659 C 0.66052 0.6313 0.92764 0.0
C2660 C 0.41397 0.66756 0.40298 0.0
C2661 C 0.40264 0.68278 0.46284 0.0
O2662 O 0.42333 0.66543 0.41636 0.0
Zn2663 Zn 0.40796 0.67645 0.43236 0.0
O2664 O 0.39945 0.6757 0.40431 0.0
Zn2665 Zn 0.38455 0.68754 0.42548 0.0
O2666 O 0.3829 0.7112 0.41866 0.0
O2667 O 0.4097 0.70373 0.42534 0.0
O2668 O 0.38988 0.68793 0.45339 0.0
O2669 O 0.41558 0.67565 0.45563 0.0
O2670 O 0.38567 0.65882 0.43151 0.0
O2671 O 0.36329 0.67498 0.42381 0.0
C2672 C 0.39876 0.71521 0.42018 0.0
C2673 C 0.36947 0.66022 0.42771 0.0
C2674 C 0.08557 0.83198 0.4021 0.0
C2675 C 0.09709 0.81708 0.46198 0.0
O2676 O 0.07623 0.83409 0.41549 0.0
Zn2677 Zn 0.09166 0.82319 0.4315 0.0
O2678 O 0.10013 0.8239 0.40342 0.0
Zn2679 Zn 0.11509 0.81216 0.42459 0.0
O2680 O 0.11679 0.78845 0.41792 0.0
O2681 O 0.09001 0.79586 0.42472 0.0
O2682 O 0.10985 0.81192 0.45252 0.0
O2683 O 0.0841 0.82411 0.45477 0.0
O2684 O 0.1139 0.84087 0.43058 0.0
O2685 O 0.13632 0.82478 0.42283 0.0
C2686 C 0.10096 0.78438 0.4196 0.0
C2687 C 0.1301 0.83952 0.42675 0.0
C2688 C 0.00911 0.18977 0.11297 0.0
C2689 C 0.01829 0.18529 0.09779 0.0
H2690 H 0.98407 0.1928 0.12497 0.0
C2691 C 0.0089 0.18149 0.08262 0.0
H2692 H 0.016 0.19279 0.12485 0.0
C2693 C 0.99085 0.18149 0.08269 0.0
C2694 C 0.98157 0.1853 0.09793 0.0
H2695 H 0.01548 0.17818 0.07064 0.0
H2696 H 0.98417 0.17818 0.07075 0.0
C2697 C 0.99086 0.18977 0.11303 0.0
C2698 C 0.31718 0.00911 0.08375 0.0
C2699 C 0.31402 0.01848 0.09908 0.0
H2700 H 0.31999 0.9844 0.07172 0.0
C2701 C 0.31003 0.00929 0.11437 0.0
H2702 H 0.32007 0.01572 0.07166 0.0
C2703 C 0.30998 0.99102 0.11441 0.0
C2704 C 0.31391 0.98177 0.09914 0.0
H2705 H 0.30749 0.01617 0.12638 0.0
H2706 H 0.3074 0.9842 0.12644 0.0
C2707 C 0.31713 0.99107 0.08378 0.0
C2708 C 0.50883 0.31871 0.08286 0.0
C2709 C 0.51822 0.31493 0.09804 0.0
H2710 H 0.48411 0.32194 0.07097 0.0
C2711 C 0.50905 0.31043 0.1132 0.0
H2712 H 0.51542 0.32204 0.07088 0.0
C2713 C 0.49079 0.31037 0.11326 0.0
C2714 C 0.48151 0.31481 0.09815 0.0
H2715 H 0.51593 0.30742 0.1251 0.0
H2716 H 0.484 0.30732 0.12519 0.0
C2717 C 0.49078 0.31865 0.08292 0.0
C2718 C 0.18247 0.49103 0.08283 0.0
C2719 C 0.1856 0.48171 0.09819 0.0
H2720 H 0.17964 0.51571 0.07073 0.0
C2721 C 0.18953 0.49094 0.11348 0.0
H2722 H 0.17963 0.48438 0.07075 0.0
C2723 C 0.18954 0.5092 0.11347 0.0
C2724 C 0.18562 0.51842 0.09817 0.0
H2725 H 0.19203 0.4841 0.12551 0.0
H2726 H 0.19205 0.51605 0.12549 0.0
C2727 C 0.18248 0.50908 0.08282 0.0
C2728 C 0.00843 0.82004 0.91777 0.0
C2729 C 0.01774 0.81577 0.90268 0.0
H2730 H 0.98376 0.82357 0.92969 0.0
C2731 C 0.00849 0.81086 0.88769 0.0
H2732 H 0.01509 0.82372 0.92961 0.0
C2733 C 0.99024 0.81078 0.88773 0.0
C2734 C 0.98103 0.81559 0.90276 0.0
H2735 H 0.01531 0.80746 0.87586 0.0
H2736 H 0.9834 0.80734 0.87593 0.0
C2737 C 0.99038 0.81994 0.91781 0.0
C2738 C 0.68934 0.00939 0.88694 0.0
C2739 C 0.68529 0.01859 0.90221 0.0
H2740 H 0.69187 0.98431 0.87486 0.0
C2741 C 0.68187 0.00922 0.91749 0.0
H2742 H 0.69207 0.01626 0.87497 0.0
C2743 C 0.68175 0.99117 0.91743 0.0
C2744 C 0.68505 0.98188 0.90208 0.0
H2745 H 0.67891 0.01584 0.92956 0.0
H2746 H 0.67871 0.98451 0.92945 0.0
C2747 C 0.68923 0.99113 0.88688 0.0
C2748 C 0.49092 0.68207 0.91797 0.0
C2749 C 0.48155 0.6857 0.90274 0.0
H2750 H 0.51563 0.67879 0.92988 0.0
C2751 C 0.49074 0.68995 0.88752 0.0
H2752 H 0.48431 0.67894 0.92999 0.0
C2753 C 0.50899 0.68986 0.88745 0.0
C2754 C 0.51825 0.68552 0.90261 0.0
H2755 H 0.48387 0.69284 0.87559 0.0
H2756 H 0.5158 0.6927 0.87547 0.0
C2757 C 0.50896 0.68198 0.9179 0.0
C2758 C 0.80978 0.49074 0.88701 0.0
C2759 C 0.8139 0.48149 0.90223 0.0
H2760 H 0.80714 0.51586 0.87503 0.0
C2761 C 0.81735 0.49081 0.91754 0.0
H2762 H 0.80703 0.48391 0.87502 0.0
C2763 C 0.81741 0.50886 0.91754 0.0
C2764 C 0.81403 0.51822 0.90225 0.0
H2765 H 0.82036 0.48416 0.92957 0.0
H2766 H 0.82047 0.51549 0.92958 0.0
C2767 C 0.80984 0.509 0.88702 0.0
C2768 C 0.08186 0.00906 0.18016 0.0
C2769 C 0.097 0.01838 0.18422 0.0
H2770 H 0.06994 0.98438 0.1766 0.0
C2771 C 0.11206 0.00912 0.18884 0.0
H2772 H 0.06995 0.01571 0.17671 0.0
C2773 C 0.11206 0.99086 0.18878 0.0
C2774 C 0.09699 0.98164 0.18408 0.0
H2775 H 0.12393 0.01595 0.19206 0.0
H2776 H 0.12392 0.98401 0.19195 0.0
C2777 C 0.08185 0.991 0.18009 0.0
C2778 C 0.49081 0.11238 0.18969 0.0
C2779 C 0.48158 0.09723 0.18526 0.0
H2780 H 0.51589 0.12433 0.19262 0.0
C2781 C 0.49091 0.08205 0.18139 0.0
H2782 H 0.48396 0.12428 0.19277 0.0
C2783 C 0.50896 0.08208 0.1813 0.0
C2784 C 0.51829 0.0973 0.18508 0.0
H2785 H 0.48428 0.07008 0.1781 0.0
H2786 H 0.5156 0.07014 0.17795 0.0
C2787 C 0.50905 0.11241 0.18961 0.0
C2788 C 0.41802 0.49142 0.1783 0.0
C2789 C 0.40308 0.48211 0.18307 0.0
H2790 H 0.42985 0.51609 0.17448 0.0
C2791 C 0.38829 0.49136 0.18852 0.0
H2792 H 0.42971 0.48476 0.17416 0.0
C2793 C 0.38837 0.50961 0.1887 0.0
C2794 C 0.40324 0.51883 0.18344 0.0
H2795 H 0.37659 0.48454 0.19231 0.0
H2796 H 0.37672 0.51646 0.1926 0.0
C2797 C 0.4181 0.50947 0.17849 0.0
C2798 C 0.00902 0.41826 0.18181 0.0
C2799 C 0.01831 0.40299 0.18546 0.0
H2800 H 0.98437 0.43034 0.1787 0.0
C2801 C 0.00904 0.38787 0.18989 0.0
H2802 H 0.01569 0.43021 0.17854 0.0
C2803 C 0.99079 0.38795 0.18998 0.0
C2804 C 0.9816 0.40314 0.18565 0.0
H2805 H 0.01585 0.37591 0.1928 0.0
H2806 H 0.98392 0.37604 0.19296 0.0
C2807 C 0.99097 0.41834 0.1819 0.0
C2808 C 0.11207 0.00885 0.81133 0.0
C2809 C 0.09698 0.01805 0.81601 0.0
H2810 H 0.12397 0.98378 0.80802 0.0
C2811 C 0.08184 0.00867 0.81992 0.0
H2812 H 0.12394 0.01573 0.80822 0.0
C2813 C 0.08185 0.99061 0.8198 0.0
C2814 C 0.09702 0.9813 0.81577 0.0
H2815 H 0.06991 0.01527 0.82339 0.0
H2816 H 0.06994 0.98394 0.82319 0.0
C2817 C 0.11209 0.99059 0.81122 0.0
C2818 C 0.49107 0.11246 0.81068 0.0
C2819 C 0.48182 0.09735 0.8152 0.0
H2820 H 0.51618 0.12431 0.80756 0.0
C2821 C 0.49112 0.08213 0.81899 0.0
H2822 H 0.48425 0.12438 0.80766 0.0
C2823 C 0.50917 0.08209 0.81893 0.0
C2824 C 0.51853 0.09726 0.81507 0.0
H2825 H 0.48447 0.07019 0.82233 0.0
H2826 H 0.51579 0.07012 0.82223 0.0
C2827 C 0.50932 0.11241 0.81062 0.0
C2828 C 0.41807 0.49118 0.82027 0.0
C2829 C 0.40292 0.48187 0.81623 0.0
H2830 H 0.43003 0.51585 0.82374 0.0
C2831 C 0.38788 0.49114 0.81152 0.0
H2832 H 0.42996 0.48452 0.82378 0.0
C2833 C 0.38793 0.5094 0.81149 0.0
C2834 C 0.40301 0.5186 0.81618 0.0
H2835 H 0.37601 0.48432 0.8083 0.0
H2836 H 0.37609 0.51626 0.80826 0.0
C2837 C 0.41812 0.50924 0.82024 0.0
C2838 C 0.99025 0.38864 0.81126 0.0
C2839 C 0.98099 0.40354 0.81636 0.0
H2840 H 0.01534 0.37691 0.80774 0.0
C2841 C 0.9903 0.4185 0.82112 0.0
H2842 H 0.98344 0.37691 0.80752 0.0
C2843 C 0.00835 0.41849 0.82127 0.0
C2844 C 0.0177 0.40353 0.81666 0.0
H2845 H 0.98365 0.43028 0.82499 0.0
H2846 H 0.01497 0.43026 0.82524 0.0
C2847 C 0.00849 0.38864 0.8114 0.0
C2848 C 0.18254 0.08298 0.00934 0.0
C2849 C 0.18565 0.09837 0.01863 0.0
H2850 H 0.17978 0.07082 0.98467 0.0
C2851 C 0.18959 0.11363 0.00937 0.0
H2852 H 0.1797 0.07092 0.01601 0.0
C2853 C 0.18963 0.11357 0.99111 0.0
C2854 C 0.18574 0.09825 0.98192 0.0
H2855 H 0.19207 0.12568 0.01619 0.0
H2856 H 0.19215 0.12558 0.98423 0.0
C2857 C 0.18259 0.08292 0.99129 0.0
C2858 C 0.18907 0.38639 0.50985 0.0
C2859 C 0.18475 0.40154 0.51913 0.0
H2860 H 0.19199 0.37452 0.48471 0.0
C2861 C 0.18118 0.41682 0.50984 0.0
H2862 H 0.19192 0.37441 0.51667 0.0
C2863 C 0.18122 0.41689 0.49177 0.0
C2864 C 0.18483 0.40167 0.48239 0.0
H2865 H 0.17801 0.4288 0.5165 0.0
H2866 H 0.17807 0.42891 0.48517 0.0
C2867 C 0.18911 0.38645 0.49159 0.0
C2868 C 0.08218 0.18056 0.4912 0.0
C2869 C 0.0974 0.18434 0.48189 0.0
H2870 H 0.0702 0.17721 0.51589 0.0
C2871 C 0.11252 0.18877 0.49114 0.0
H2872 H 0.07022 0.17729 0.48455 0.0
C2873 C 0.11251 0.18873 0.5094 0.0
C2874 C 0.09737 0.18425 0.51862 0.0
H2875 H 0.12444 0.19178 0.48431 0.0
H2876 H 0.12442 0.19171 0.51626 0.0
C2877 C 0.08217 0.18051 0.50926 0.0
C2878 C 0.31037 0.11391 0.50957 0.0
C2879 C 0.31447 0.0987 0.51886 0.0
H2880 H 0.30778 0.12583 0.48442 0.0
C2881 C 0.31791 0.08338 0.50958 0.0
H2882 H 0.30762 0.12591 0.51638 0.0
C2883 C 0.31801 0.08333 0.49153 0.0
C2884 C 0.31466 0.09861 0.48214 0.0
H2885 H 0.3209 0.07136 0.51626 0.0
H2886 H 0.32107 0.07128 0.48493 0.0
C2887 C 0.31046 0.11386 0.49131 0.0
C2888 C 0.38714 0.81154 0.99115 0.0
C2889 C 0.40221 0.81626 0.98194 0.0
H2890 H 0.37523 0.80829 0.01623 0.0
C2891 C 0.41731 0.82036 0.99132 0.0
H2892 H 0.37531 0.80829 0.98428 0.0
C2893 C 0.41726 0.82036 0.00939 0.0
C2894 C 0.40212 0.81627 0.0187 0.0
H2895 H 0.42922 0.82389 0.98472 0.0
H2896 H 0.42914 0.82389 0.01605 0.0
C2897 C 0.38709 0.81154 0.00941 0.0
C2898 C 0.81019 0.88675 0.99037 0.0
C2899 C 0.81432 0.902 0.98116 0.0
H2900 H 0.80761 0.87469 0.01546 0.0
C2901 C 0.81783 0.91725 0.99053 0.0
H2902 H 0.8074 0.8748 0.9835 0.0
C2903 C 0.81795 0.91719 0.00859 0.0
C2904 C 0.81456 0.90187 0.01789 0.0
H2905 H 0.82084 0.9293 0.98391 0.0
H2906 H 0.82105 0.92919 0.01524 0.0
C2907 C 0.81031 0.88669 0.00864 0.0
C2908 C 0.08223 0.8195 0.49054 0.0
C2909 C 0.09736 0.81554 0.48116 0.0
H2910 H 0.07042 0.82304 0.51527 0.0
C2911 C 0.11251 0.81104 0.49034 0.0
H2912 H 0.07026 0.82284 0.48394 0.0
C2913 C 0.1126 0.81115 0.50861 0.0
C2914 C 0.09754 0.81578 0.51788 0.0
H2915 H 0.12436 0.8079 0.48346 0.0
H2916 H 0.12452 0.8081 0.51541 0.0
C2917 C 0.08232 0.81962 0.5086 0.0
C2918 C 0.41768 0.68069 0.5094 0.0
C2919 C 0.40247 0.68446 0.51875 0.0
H2920 H 0.42963 0.6774 0.4847 0.0
C2921 C 0.38734 0.68892 0.50951 0.0
H2922 H 0.42964 0.67739 0.51604 0.0
C2923 C 0.38734 0.68892 0.49125 0.0
C2924 C 0.40247 0.68447 0.48201 0.0
H2925 H 0.37543 0.69192 0.51636 0.0
H2926 H 0.37542 0.69193 0.48441 0.0
C2927 C 0.41767 0.68069 0.49134 0.0
C2928 C 0.88841 0.01019 0.81176 0.0
C2929 C 0.90328 0.01947 0.8169 0.0
H2930 H 0.87669 0.98508 0.80824 0.0
C2931 C 0.91822 0.01016 0.8217 0.0
H2932 H 0.87669 0.01699 0.80797 0.0
C2933 C 0.91821 0.99209 0.82188 0.0
C2934 C 0.90327 0.98273 0.81724 0.0
H2935 H 0.92998 0.01682 0.82561 0.0
H2936 H 0.92996 0.98548 0.8259 0.0
C2937 C 0.8884 0.99194 0.81192 0.0
C2938 C 0.49045 0.9181 0.81863 0.0
C2939 C 0.48111 0.90289 0.81488 0.0
H2940 H 0.51513 0.93005 0.82195 0.0
C2941 C 0.49033 0.88773 0.81048 0.0
H2942 H 0.48382 0.93008 0.82188 0.0
C2943 C 0.50858 0.88771 0.81052 0.0
C2944 C 0.51782 0.90285 0.81496 0.0
H2945 H 0.48348 0.87581 0.80749 0.0
H2946 H 0.51541 0.87577 0.80756 0.0
C2947 C 0.50849 0.91808 0.81867 0.0
C2948 C 0.61233 0.50913 0.81118 0.0
C2949 C 0.59724 0.51839 0.81571 0.0
H2950 H 0.62417 0.48401 0.80805 0.0
C2951 C 0.58202 0.50908 0.81952 0.0
H2952 H 0.62425 0.51595 0.80815 0.0
C2953 C 0.58197 0.49103 0.81946 0.0
C2954 C 0.59714 0.48166 0.81559 0.0
H2955 H 0.57009 0.51574 0.82287 0.0
H2956 H 0.57001 0.48441 0.82277 0.0
C2957 C 0.61228 0.49087 0.81112 0.0
C2958 C 0.00888 0.61159 0.81105 0.0
C2959 C 0.01817 0.59676 0.81633 0.0
H2960 H 0.98376 0.62321 0.80726 0.0
C2961 C 0.00889 0.5818 0.82111 0.0
H2962 H 0.01567 0.62332 0.80726 0.0
C2963 C 0.99084 0.58173 0.82109 0.0
C2964 C 0.98145 0.59663 0.8163 0.0
H2965 H 0.01557 0.57008 0.82512 0.0
H2966 H 0.98425 0.56996 0.82509 0.0
C2967 C 0.99064 0.61153 0.81104 0.0
C2968 C 0.91812 0.00869 0.17884 0.0
C2969 C 0.90314 0.01805 0.18338 0.0
H2970 H 0.92988 0.98398 0.17509 0.0
C2971 C 0.88821 0.00884 0.18852 0.0
H2972 H 0.92991 0.01531 0.17497 0.0
C2973 C 0.88818 0.99059 0.18858 0.0
C2974 C 0.90309 0.98132 0.18352 0.0
H2975 H 0.87647 0.0157 0.19212 0.0
H2976 H 0.87643 0.98378 0.19221 0.0
C2977 C 0.9181 0.99063 0.17892 0.0
C2978 C 0.5093 0.88867 0.18907 0.0
C2979 C 0.51851 0.90362 0.18401 0.0
H2980 H 0.48426 0.87683 0.19257 0.0
C2981 C 0.50915 0.91857 0.17933 0.0
H2982 H 0.51616 0.87695 0.19276 0.0
C2983 C 0.49109 0.9185 0.1792 0.0
C2984 C 0.4818 0.90348 0.18376 0.0
H2985 H 0.51576 0.93038 0.17549 0.0
H2986 H 0.48443 0.93025 0.17528 0.0
C2987 C 0.49106 0.8886 0.18895 0.0
C2988 C 0.6122 0.50937 0.18923 0.0
C2989 C 0.59709 0.51859 0.18465 0.0
H2990 H 0.62411 0.48428 0.19234 0.0
C2991 C 0.58193 0.50923 0.18073 0.0
H2992 H 0.62407 0.51622 0.19234 0.0
C2993 C 0.58195 0.49118 0.18074 0.0
C2994 C 0.59713 0.48186 0.18466 0.0
H2995 H 0.56999 0.51586 0.17734 0.0
H2996 H 0.57002 0.48453 0.17734 0.0
C2997 C 0.61221 0.49111 0.18923 0.0
C2998 C 0.9908 0.58179 0.18156 0.0
C2999 C 0.98151 0.59702 0.18533 0.0
H3000 H 0.01546 0.56976 0.17827 0.0
C3001 C 0.99078 0.61214 0.18977 0.0
H3002 H 0.98414 0.56984 0.17827 0.0
C3003 C 0.00903 0.6121 0.18977 0.0
C3004 C 0.01822 0.59693 0.18533 0.0
H3005 H 0.98397 0.62408 0.19278 0.0
H3006 H 0.0159 0.624 0.19277 0.0
C3007 C 0.00885 0.58174 0.18156 0.0
C3008 C 0.81035 0.61407 0.49139 0.0
C3009 C 0.81445 0.59884 0.48215 0.0
H3010 H 0.8077 0.62606 0.51651 0.0
C3011 C 0.81784 0.58353 0.49148 0.0
H3012 H 0.80764 0.62606 0.48455 0.0
C3013 C 0.81788 0.58353 0.50953 0.0
C3014 C 0.81452 0.59884 0.51888 0.0
H3015 H 0.82083 0.57149 0.48484 0.0
H3016 H 0.82089 0.57149 0.51616 0.0
C3017 C 0.81039 0.61407 0.50966 0.0
C3018 C 0.88828 0.81186 0.49153 0.0
C3019 C 0.90313 0.81723 0.48233 0.0
H3020 H 0.87657 0.80793 0.51659 0.0
C3021 C 0.918 0.82208 0.49171 0.0
H3022 H 0.87662 0.80803 0.48467 0.0
C3023 C 0.91797 0.82205 0.50978 0.0
C3024 C 0.90306 0.81715 0.51908 0.0
H3025 H 0.92973 0.82617 0.48511 0.0
H3026 H 0.92967 0.8261 0.51646 0.0
C3027 C 0.88825 0.81181 0.50978 0.0
C3028 C 0.68937 0.8868 0.5092 0.0
C3029 C 0.68525 0.90201 0.51847 0.0
H3030 H 0.69207 0.87487 0.48406 0.0
C3031 C 0.68188 0.91734 0.50917 0.0
H3032 H 0.69206 0.87479 0.51602 0.0
C3033 C 0.68188 0.91738 0.49111 0.0
C3034 C 0.68526 0.9021 0.48174 0.0
H3035 H 0.67887 0.92936 0.51584 0.0
H3036 H 0.67888 0.92944 0.4845 0.0
C3037 C 0.68938 0.88685 0.49093 0.0
C3038 C 0.58203 0.18124 0.00906 0.0
C3039 C 0.59727 0.18491 0.01839 0.0
H3040 H 0.57003 0.17801 0.98437 0.0
C3041 C 0.61243 0.18925 0.00914 0.0
H3042 H 0.57005 0.17804 0.01571 0.0
C3043 C 0.61241 0.18924 0.99088 0.0
C3044 C 0.59725 0.18487 0.98166 0.0
H3045 H 0.62437 0.19217 0.01598 0.0
H3046 H 0.62435 0.19214 0.98403 0.0
C3047 C 0.58202 0.18123 0.991 0.0
C3048 C 0.88723 0.18893 0.50878 0.0
C3049 C 0.90231 0.18429 0.51802 0.0
H3050 H 0.87537 0.19219 0.48368 0.0
C3051 C 0.91747 0.18037 0.50866 0.0
H3052 H 0.87535 0.19204 0.51563 0.0
C3053 C 0.91748 0.18046 0.4906 0.0
C3054 C 0.90233 0.18446 0.48126 0.0
H3055 H 0.92939 0.17692 0.51529 0.0
H3056 H 0.92941 0.17707 0.48396 0.0
C3057 C 0.88724 0.18902 0.49051 0.0
C3058 C 0.58214 0.319 0.49109 0.0
C3059 C 0.59741 0.31545 0.48176 0.0
H3060 H 0.57012 0.32206 0.51578 0.0
C3061 C 0.61257 0.31111 0.49099 0.0
H3062 H 0.57016 0.32219 0.48444 0.0
C3063 C 0.61255 0.31104 0.50925 0.0
C3064 C 0.59736 0.3153 0.51848 0.0
H3065 H 0.62453 0.30828 0.48415 0.0
H3066 H 0.62449 0.30815 0.5161 0.0
C3067 C 0.58212 0.31893 0.50914 0.0
C3068 C 0.00971 0.68946 0.61194 0.0
C3069 C 0.01891 0.68462 0.5969 0.0
H3070 H 0.98468 0.69264 0.62389 0.0
C3071 C 0.00953 0.68007 0.58192 0.0
H3072 H 0.01658 0.69304 0.62368 0.0
C3073 C 0.99148 0.67981 0.58204 0.0
C3074 C 0.9822 0.68411 0.59715 0.0
H3075 H 0.01613 0.67641 0.57004 0.0
H3076 H 0.9848 0.67598 0.57026 0.0
C3077 C 0.99148 0.68921 0.61206 0.0
C3078 C 0.3105 0.50857 0.61379 0.0
C3079 C 0.31485 0.51776 0.5986 0.0
H3080 H 0.30747 0.48349 0.62578 0.0
C3081 C 0.31836 0.50838 0.58335 0.0
H3082 H 0.3077 0.51545 0.62574 0.0
C3083 C 0.31822 0.49032 0.58336 0.0
C3084 C 0.31458 0.48102 0.59863 0.0
H3085 H 0.32156 0.51498 0.57134 0.0
H3086 H 0.32132 0.48366 0.57136 0.0
C3087 C 0.31036 0.4903 0.61381 0.0
C3088 C 0.49081 0.81829 0.58231 0.0
C3089 C 0.48148 0.81472 0.59757 0.0
H3090 H 0.51549 0.82143 0.5703 0.0
C3091 C 0.49071 0.81043 0.61276 0.0
H3092 H 0.48418 0.82144 0.5703 0.0
C3093 C 0.50896 0.81042 0.61276 0.0
C3094 C 0.51819 0.8147 0.59757 0.0
H3095 H 0.48386 0.80758 0.62472 0.0
H3096 H 0.5158 0.80757 0.62471 0.0
C3097 C 0.50886 0.81829 0.58231 0.0
C3098 C 0.1897 0.00907 0.614 0.0
C3099 C 0.1858 0.01835 0.59873 0.0
H3100 H 0.19224 0.98391 0.62591 0.0
C3101 C 0.18277 0.00909 0.58331 0.0
H3102 H 0.19213 0.01587 0.62607 0.0
C3103 C 0.18283 0.99104 0.58322 0.0
C3104 C 0.18593 0.98165 0.59855 0.0
H3105 H 0.17997 0.01578 0.57125 0.0
H3106 H 0.18007 0.98446 0.57109 0.0
C3107 C 0.18976 0.99081 0.6139 0.0
C3108 C 0.00894 0.31833 0.41791 0.0
C3109 C 0.01828 0.3147 0.40267 0.0
H3110 H 0.98426 0.32163 0.42987 0.0
C3111 C 0.00906 0.31047 0.38746 0.0
H3112 H 0.01557 0.32144 0.42993 0.0
C3113 C 0.99081 0.31057 0.38742 0.0
C3114 C 0.98158 0.31491 0.4026 0.0
H3115 H 0.01591 0.30757 0.37552 0.0
H3116 H 0.98397 0.30775 0.37546 0.0
C3117 C 0.9909 0.31844 0.41788 0.0
C3118 C 0.6896 0.50946 0.38708 0.0
C3119 C 0.68547 0.51869 0.40231 0.0
H3120 H 0.69233 0.48434 0.37511 0.0
C3121 C 0.68215 0.50937 0.41763 0.0
H3122 H 0.69226 0.5163 0.37507 0.0
C3123 C 0.68219 0.49131 0.41765 0.0
C3124 C 0.68556 0.48197 0.40235 0.0
H3125 H 0.67914 0.51601 0.42967 0.0
H3126 H 0.67921 0.48468 0.4297 0.0
C3127 C 0.68964 0.4912 0.38709 0.0
C3128 C 0.50907 0.18205 0.41807 0.0
C3129 C 0.51836 0.18564 0.40279 0.0
H3130 H 0.48442 0.17893 0.43014 0.0
C3131 C 0.5091 0.18997 0.38763 0.0
H3132 H 0.51574 0.17887 0.43005 0.0
C3133 C 0.49085 0.19 0.38768 0.0
C3134 C 0.48166 0.18571 0.4029 0.0
H3135 H 0.51591 0.19283 0.37566 0.0
H3136 H 0.48398 0.19289 0.37575 0.0
C3137 C 0.49103 0.18209 0.41812 0.0
C3138 C 0.8102 0.00951 0.38609 0.0
C3139 C 0.81416 0.0188 0.40133 0.0
H3140 H 0.80766 0.98434 0.37419 0.0
C3141 C 0.81735 0.00954 0.41672 0.0
H3142 H 0.80765 0.0163 0.37404 0.0
C3143 C 0.81735 0.99149 0.41681 0.0
C3144 C 0.81416 0.98209 0.40151 0.0
H3145 H 0.82021 0.01623 0.42877 0.0
H3146 H 0.82022 0.98491 0.42891 0.0
C3147 C 0.81021 0.99124 0.38618 0.0
C3148 C 0.11036 0.49083 0.68798 0.0
C3149 C 0.09566 0.4816 0.68225 0.0
H3150 H 0.12196 0.51587 0.69213 0.0
C3151 C 0.08096 0.49094 0.67683 0.0
H3152 H 0.12188 0.48399 0.69226 0.0
C3153 C 0.08101 0.50901 0.67676 0.0
C3154 C 0.09576 0.51831 0.68211 0.0
H3155 H 0.06936 0.48431 0.67242 0.0
H3156 H 0.06945 0.51567 0.6723 0.0
C3157 C 0.1104 0.50906 0.68791 0.0
C3158 C 0.4911 0.58204 0.68169 0.0
C3159 C 0.48178 0.59728 0.6854 0.0
H3160 H 0.51577 0.57005 0.67842 0.0
C3161 C 0.49102 0.61243 0.68978 0.0
H3162 H 0.48446 0.57006 0.67846 0.0
C3163 C 0.50927 0.61243 0.68976 0.0
C3164 C 0.51848 0.59726 0.68536 0.0
H3165 H 0.48418 0.62437 0.69273 0.0
H3166 H 0.51611 0.62436 0.6927 0.0
C3167 C 0.50914 0.58204 0.68167 0.0
C3168 C 0.38754 0.99138 0.6889 0.0
C3169 C 0.40262 0.98215 0.68424 0.0
H3170 H 0.37567 0.01647 0.69217 0.0
C3171 C 0.41777 0.99151 0.6803 0.0
H3172 H 0.37566 0.98453 0.69203 0.0
C3173 C 0.41777 0.00958 0.68038 0.0
C3174 C 0.40262 0.01891 0.6844 0.0
H3175 H 0.42969 0.98489 0.67684 0.0
H3176 H 0.42969 0.01623 0.67698 0.0
C3177 C 0.38754 0.00965 0.68898 0.0
C3178 C 0.99104 0.88777 0.68932 0.0
C3179 C 0.98174 0.90267 0.68425 0.0
H3180 H 0.01617 0.8761 0.69286 0.0
C3181 C 0.991 0.91769 0.67964 0.0
H3182 H 0.98426 0.876 0.69298 0.0
C3183 C 0.00906 0.91775 0.67959 0.0
C3184 C 0.01846 0.90279 0.68414 0.0
H3185 H 0.98431 0.92946 0.67581 0.0
H3186 H 0.01564 0.92957 0.67571 0.0
C3187 C 0.00929 0.88783 0.68926 0.0
C3188 C 0.08226 0.49067 0.3194 0.0
C3189 C 0.09749 0.48135 0.31567 0.0
H3190 H 0.07027 0.51535 0.32265 0.0
C3191 C 0.11262 0.4906 0.31126 0.0
H3192 H 0.0703 0.48403 0.32265 0.0
C3193 C 0.11261 0.50886 0.31126 0.0
C3194 C 0.09745 0.51808 0.31567 0.0
H3195 H 0.12455 0.48377 0.3083 0.0
H3196 H 0.12452 0.51572 0.3083 0.0
C3197 C 0.08224 0.50873 0.3194 0.0
C3198 C 0.509 0.61242 0.31084 0.0
C3199 C 0.51825 0.5973 0.31534 0.0
H3200 H 0.4839 0.6243 0.30779 0.0
C3201 C 0.50893 0.5821 0.31919 0.0
H3202 H 0.51583 0.62433 0.30777 0.0
C3203 C 0.49088 0.58208 0.3192 0.0
C3204 C 0.48154 0.59727 0.31536 0.0
H3205 H 0.51558 0.57015 0.32253 0.0
H3206 H 0.48426 0.57013 0.32255 0.0
C3207 C 0.49075 0.6124 0.31085 0.0
C3208 C 0.38833 0.99118 0.31179 0.0
C3209 C 0.40324 0.98192 0.31691 0.0
H3210 H 0.37663 0.01628 0.30813 0.0
C3211 C 0.41825 0.99122 0.32144 0.0
H3212 H 0.37657 0.98436 0.30819 0.0
C3213 C 0.41829 0.00928 0.32138 0.0
C3214 C 0.40332 0.01864 0.31681 0.0
H3215 H 0.43003 0.98456 0.32529 0.0
H3216 H 0.4301 0.0159 0.32521 0.0
C3217 C 0.38837 0.00943 0.31174 0.0
C3218 C 0.99053 0.88754 0.31031 0.0
C3219 C 0.98134 0.90273 0.31468 0.0
H3220 H 0.01558 0.87554 0.30735 0.0
C3221 C 0.99072 0.91794 0.31833 0.0
H3222 H 0.98365 0.87561 0.30741 0.0
C3223 C 0.00877 0.9179 0.31829 0.0
C3224 C 0.01805 0.90264 0.31461 0.0
H3225 H 0.98412 0.92995 0.32155 0.0
H3226 H 0.01544 0.92987 0.32148 0.0
C3227 C 0.00878 0.88749 0.31028 0.0
C3228 C 0.18957 0.61298 0.49136 0.0
C3229 C 0.18523 0.59779 0.48214 0.0
H3230 H 0.19255 0.62493 0.51645 0.0
C3231 C 0.18173 0.58252 0.4915 0.0
H3232 H 0.19236 0.62494 0.4845 0.0
C3233 C 0.18185 0.58252 0.50956 0.0
C3234 C 0.18546 0.59778 0.51888 0.0
H3235 H 0.17855 0.57052 0.48488 0.0
H3236 H 0.17875 0.57051 0.51621 0.0
C3237 C 0.18968 0.61297 0.50962 0.0
C3238 C 0.18934 0.88602 0.00895 0.0
C3239 C 0.18536 0.90132 0.01814 0.0
H3240 H 0.19187 0.87392 0.98387 0.0
C3241 C 0.1821 0.91662 0.00876 0.0
H3242 H 0.19194 0.87403 0.01584 0.0
C3243 C 0.18206 0.91656 0.9907 0.0
C3244 C 0.18527 0.90119 0.98141 0.0
H3245 H 0.17921 0.92871 0.01536 0.0
H3246 H 0.17914 0.9286 0.98403 0.0
C3247 C 0.1893 0.88595 0.99068 0.0
C3248 C 0.08162 0.67843 0.99068 0.0
C3249 C 0.09663 0.68304 0.9814 0.0
H3250 H 0.06972 0.67464 0.01534 0.0
C3251 C 0.11147 0.68829 0.9907 0.0
H3252 H 0.0699 0.67447 0.98399 0.0
C3253 C 0.11138 0.68838 0.00896 0.0
C3254 C 0.09644 0.68325 0.01815 0.0
H3255 H 0.12323 0.69195 0.98392 0.0
H3256 H 0.12307 0.69209 0.01584 0.0
C3257 C 0.08153 0.67854 0.00875 0.0
C3258 C 0.31789 0.5831 0.00929 0.0
C3259 C 0.3145 0.5984 0.01863 0.0
H3260 H 0.32093 0.57108 0.9846 0.0
C3261 C 0.31039 0.61364 0.00941 0.0
H3262 H 0.32089 0.57106 0.01593 0.0
C3263 C 0.31042 0.61365 0.99114 0.0
C3264 C 0.31456 0.59843 0.98191 0.0
H3265 H 0.30769 0.62563 0.01626 0.0
H3266 H 0.30774 0.62565 0.9843 0.0
C3267 C 0.31791 0.58311 0.99124 0.0
C3268 C 0.38829 0.31178 0.49066 0.0
C3269 C 0.40312 0.31709 0.4814 0.0
H3270 H 0.37662 0.30801 0.51576 0.0
C3271 C 0.41803 0.32197 0.49072 0.0
H3272 H 0.37661 0.30793 0.48384 0.0
C3273 C 0.41803 0.32204 0.50879 0.0
C3274 C 0.40313 0.31721 0.51814 0.0
H3275 H 0.42975 0.32601 0.48407 0.0
H3276 H 0.42975 0.32612 0.51542 0.0
C3277 C 0.3883 0.31184 0.50891 0.0
C3278 C 0.81756 0.41713 0.50941 0.0
C3279 C 0.81431 0.40178 0.51872 0.0
H3280 H 0.82053 0.42922 0.48474 0.0
C3281 C 0.81034 0.38652 0.50947 0.0
H3282 H 0.82044 0.42919 0.51607 0.0
C3283 C 0.81039 0.38654 0.4912 0.0
C3284 C 0.81441 0.40182 0.48201 0.0
H3285 H 0.80774 0.3745 0.5163 0.0
H3286 H 0.80783 0.37454 0.48433 0.0
C3287 C 0.81761 0.41715 0.49136 0.0
C3288 C 0.11237 0.31134 0.99061 0.0
C3289 C 0.09735 0.31603 0.98131 0.0
H3290 H 0.12411 0.30808 0.01577 0.0
C3291 C 0.08218 0.32007 0.99059 0.0
H3292 H 0.12425 0.30813 0.98382 0.0
C3293 C 0.08209 0.32004 0.00866 0.0
C3294 C 0.09718 0.31598 0.01806 0.0
H3295 H 0.0703 0.32357 0.98391 0.0
H3296 H 0.07016 0.32353 0.01524 0.0
C3297 C 0.11229 0.31131 0.00888 0.0
C3298 C 0.38731 0.18891 0.99125 0.0
C3299 C 0.40243 0.18446 0.982 0.0
H3300 H 0.37541 0.19189 0.01637 0.0
C3301 C 0.41765 0.18068 0.99133 0.0
H3302 H 0.37539 0.19191 0.98441 0.0
C3303 C 0.41766 0.18067 0.00939 0.0
C3304 C 0.40246 0.18443 0.01873 0.0
H3305 H 0.4296 0.1774 0.98469 0.0
H3306 H 0.42962 0.17737 0.01602 0.0
C3307 C 0.38732 0.1889 0.00951 0.0
C3308 C 0.88744 0.50987 0.31156 0.0
C3309 C 0.90252 0.51912 0.31618 0.0
H3310 H 0.87558 0.48476 0.30841 0.0
C3311 C 0.91768 0.50979 0.32016 0.0
H3312 H 0.87557 0.5167 0.30839 0.0
C3313 C 0.91769 0.49173 0.32017 0.0
C3314 C 0.90254 0.48239 0.3162 0.0
H3315 H 0.92959 0.51643 0.32359 0.0
H3316 H 0.92961 0.48511 0.32362 0.0
C3317 C 0.88745 0.49161 0.31157 0.0
C3318 C 0.49078 0.389 0.31117 0.0
C3319 C 0.48155 0.40392 0.3163 0.0
H3320 H 0.51585 0.37725 0.30749 0.0
C3321 C 0.49087 0.41891 0.32086 0.0
H3322 H 0.48395 0.37725 0.30754 0.0
C3323 C 0.50893 0.41892 0.32081 0.0
C3324 C 0.51826 0.40393 0.3162 0.0
H3325 H 0.48423 0.4307 0.32474 0.0
H3326 H 0.51557 0.43072 0.32466 0.0
C3327 C 0.50902 0.389 0.31112 0.0
C3328 C 0.61219 0.99117 0.31111 0.0
C3329 C 0.59709 0.98194 0.31567 0.0
H3330 H 0.62407 0.01627 0.30799 0.0
C3331 C 0.58191 0.99127 0.31954 0.0
H3332 H 0.62408 0.98433 0.30803 0.0
C3333 C 0.5819 0.00933 0.31952 0.0
C3334 C 0.59707 0.01866 0.31562 0.0
H3335 H 0.56997 0.98463 0.32292 0.0
H3336 H 0.56996 0.01596 0.32288 0.0
C3337 C 0.61218 0.00943 0.31109 0.0
C3338 C 0.00925 0.08167 0.32065 0.0
C3339 C 0.01862 0.09665 0.31609 0.0
H3340 H 0.98451 0.06998 0.32459 0.0
C3341 C 0.00944 0.11164 0.3111 0.0
H3342 H 0.01584 0.06983 0.32443 0.0
C3343 C 0.9912 0.11172 0.31119 0.0
C3344 C 0.98192 0.09681 0.31629 0.0
H3345 H 0.0163 0.12337 0.30751 0.0
H3346 H 0.9844 0.12351 0.30764 0.0
C3347 C 0.99119 0.08176 0.32075 0.0
C3348 C 0.91782 0.49114 0.67997 0.0
C3349 C 0.90273 0.4818 0.6842 0.0
H3350 H 0.92969 0.51584 0.67638 0.0
C3351 C 0.88773 0.49105 0.68906 0.0
H3352 H 0.92967 0.48451 0.67633 0.0
C3353 C 0.88774 0.50931 0.68909 0.0
C3354 C 0.90275 0.51855 0.68426 0.0
H3355 H 0.87591 0.48421 0.69242 0.0
H3356 H 0.87593 0.51615 0.69247 0.0
C3357 C 0.91783 0.50921 0.68 0.0
C3358 C 0.49054 0.41751 0.68146 0.0
C3359 C 0.48125 0.4023 0.68537 0.0
H3360 H 0.51518 0.4295 0.67797 0.0
C3361 C 0.49053 0.3872 0.68983 0.0
H3362 H 0.48387 0.42945 0.67815 0.0
C3363 C 0.50878 0.38723 0.68973 0.0
C3364 C 0.51797 0.40237 0.68516 0.0
H3365 H 0.48373 0.37529 0.69294 0.0
H3366 H 0.51566 0.37534 0.69276 0.0
C3367 C 0.50859 0.41754 0.68136 0.0
C3368 C 0.58224 0.00893 0.68102 0.0
C3369 C 0.59748 0.01822 0.68474 0.0
H3370 H 0.57019 0.98427 0.67778 0.0
C3371 C 0.6126 0.00895 0.68916 0.0
H3372 H 0.57029 0.01559 0.67776 0.0
C3373 C 0.61254 0.99069 0.68918 0.0
C3374 C 0.59737 0.9815 0.68477 0.0
H3375 H 0.62454 0.01576 0.69212 0.0
H3376 H 0.62445 0.98381 0.69215 0.0
C3377 C 0.58218 0.99087 0.68104 0.0
C3378 C 0.99096 0.0823 0.6816 0.0
C3379 C 0.98165 0.09756 0.68527 0.0
H3380 H 0.01561 0.07025 0.67847 0.0
C3381 C 0.99091 0.11269 0.68969 0.0
H3382 H 0.98431 0.07034 0.67834 0.0
C3383 C 0.00916 0.11264 0.68977 0.0
C3384 C 0.01836 0.09745 0.68543 0.0
H3385 H 0.98409 0.12464 0.69262 0.0
H3386 H 0.01602 0.12455 0.69276 0.0
C3387 C 0.009 0.08225 0.68168 0.0
C3388 C 0.81896 0.08319 0.99152 0.0
C3389 C 0.81507 0.09839 0.9822 0.0
H3390 H 0.82234 0.0712 0.01619 0.0
C3391 C 0.81055 0.11348 0.99147 0.0
H3392 H 0.82232 0.07125 0.98487 0.0
C3393 C 0.81056 0.11345 0.00974 0.0
C3394 C 0.8151 0.09833 0.01895 0.0
H3395 H 0.80746 0.12539 0.98464 0.0
H3396 H 0.80748 0.12534 0.0166 0.0
C3397 C 0.81897 0.08316 0.00958 0.0
C3398 C 0.8881 0.31178 0.00989 0.0
C3399 C 0.90311 0.31667 0.0191 0.0
H3400 H 0.87619 0.30853 0.98483 0.0
C3401 C 0.91808 0.32122 0.00973 0.0
H3402 H 0.87636 0.30819 0.01676 0.0
C3403 C 0.91798 0.32145 0.99167 0.0
C3404 C 0.9029 0.31711 0.98238 0.0
H3405 H 0.92994 0.32492 0.01634 0.0
H3406 H 0.92975 0.32529 0.985 0.0
C3407 C 0.888 0.31199 0.99164 0.0
C3408 C 0.68913 0.3868 0.00947 0.0
C3409 C 0.685 0.40203 0.01869 0.0
H3410 H 0.69173 0.37477 0.98437 0.0
C3411 C 0.68146 0.41729 0.00934 0.0
H3412 H 0.69195 0.37484 0.01632 0.0
C3413 C 0.68133 0.41725 0.99129 0.0
C3414 C 0.68474 0.40194 0.98197 0.0
H3415 H 0.67843 0.42933 0.01597 0.0
H3416 H 0.67821 0.42925 0.98464 0.0
C3417 C 0.68901 0.38675 0.99121 0.0
C3418 C 0.61232 0.68919 0.49104 0.0
C3419 C 0.59719 0.68471 0.48182 0.0
H3420 H 0.62426 0.69216 0.51614 0.0
C3421 C 0.58201 0.68082 0.49116 0.0
H3422 H 0.6242 0.69227 0.48419 0.0
C3423 C 0.58205 0.68075 0.50922 0.0
C3424 C 0.59725 0.68457 0.51855 0.0
H3425 H 0.57006 0.6775 0.48454 0.0
H3426 H 0.57011 0.67738 0.51586 0.0
C3427 C 0.61235 0.68912 0.50931 0.0
C3428 C 0.91754 0.68064 0.00909 0.0
C3429 C 0.90234 0.68434 0.01846 0.0
H3430 H 0.92948 0.67749 0.98438 0.0
C3431 C 0.88719 0.68883 0.00926 0.0
H3432 H 0.92951 0.67733 0.0157 0.0
C3433 C 0.88717 0.68892 0.991 0.0
C3434 C 0.9023 0.68453 0.98173 0.0
H3435 H 0.87528 0.69179 0.01613 0.0
H3436 H 0.87525 0.69193 0.98418 0.0
C3437 C 0.91752 0.68074 0.99104 0.0
C3438 C 0.582 0.81906 0.99115 0.0
C3439 C 0.59722 0.81544 0.98178 0.0
H3440 H 0.57008 0.82226 0.01587 0.0
C3441 C 0.61242 0.81112 0.99097 0.0
H3442 H 0.57 0.82224 0.98454 0.0
C3443 C 0.61246 0.81113 0.00924 0.0
C3444 C 0.59732 0.81546 0.0185 0.0
H3445 H 0.62434 0.80824 0.9841 0.0
H3446 H 0.62442 0.80825 0.01605 0.0
C3447 C 0.58205 0.81907 0.00921 0.0
C3448 C 0.50944 0.18902 0.61172 0.0
C3449 C 0.51865 0.18396 0.59676 0.0
H3450 H 0.4844 0.1926 0.62353 0.0
C3451 C 0.50928 0.17938 0.58178 0.0
H3452 H 0.5163 0.19264 0.62346 0.0
C3453 C 0.49123 0.17934 0.58183 0.0
C3454 C 0.48194 0.18388 0.59685 0.0
H3455 H 0.51589 0.17555 0.56996 0.0
H3456 H 0.48456 0.17549 0.57005 0.0
C3457 C 0.4912 0.18899 0.61176 0.0
C3458 C 0.81838 0.99009 0.58372 0.0
C3459 C 0.81473 0.98087 0.59904 0.0
H3460 H 0.82167 0.01467 0.57153 0.0
C3461 C 0.81047 0.99024 0.61415 0.0
H3462 H 0.82151 0.98335 0.57176 0.0
C3463 C 0.81056 0.00851 0.61402 0.0
C3464 C 0.81491 0.01761 0.59876 0.0
H3465 H 0.80756 0.9835 0.62615 0.0
H3466 H 0.80771 0.01546 0.62591 0.0
C3467 C 0.81847 0.00814 0.58358 0.0
C3468 C 0.00865 0.3179 0.58282 0.0
C3469 C 0.01793 0.3142 0.59809 0.0
H3470 H 0.98401 0.3212 0.57077 0.0
C3471 C 0.00864 0.30988 0.61323 0.0
H3472 H 0.01532 0.32109 0.57085 0.0
C3473 C 0.99039 0.30995 0.61318 0.0
C3474 C 0.98121 0.31433 0.59799 0.0
H3475 H 0.01544 0.30694 0.62519 0.0
H3476 H 0.98351 0.30705 0.6251 0.0
C3477 C 0.9906 0.31797 0.58277 0.0
C3478 C 0.68193 0.50895 0.58281 0.0
C3479 C 0.68535 0.51828 0.59811 0.0
H3480 H 0.67882 0.48426 0.57078 0.0
C3481 C 0.68945 0.50905 0.61334 0.0
H3482 H 0.67893 0.51559 0.57076 0.0
C3483 C 0.68939 0.49079 0.61335 0.0
C3484 C 0.68522 0.48156 0.59813 0.0
H3485 H 0.69218 0.51589 0.62533 0.0
H3486 H 0.69207 0.48394 0.62535 0.0
C3487 C 0.68186 0.4909 0.58282 0.0
C3488 C 0.49067 0.81048 0.38741 0.0
C3489 C 0.48137 0.81495 0.4025 0.0
H3490 H 0.51581 0.80752 0.37558 0.0
C3491 C 0.49065 0.81884 0.41772 0.0
H3492 H 0.48388 0.80739 0.37548 0.0
C3493 C 0.5087 0.81892 0.41778 0.0
C3494 C 0.51809 0.81511 0.40261 0.0
H3495 H 0.48397 0.82216 0.42966 0.0
H3496 H 0.51528 0.8223 0.42975 0.0
C3497 C 0.50892 0.81056 0.38746 0.0
C3498 C 0.18185 0.99082 0.41724 0.0
C3499 C 0.18525 0.98157 0.40189 0.0
H3500 H 0.17898 0.01546 0.42943 0.0
C3501 C 0.18954 0.99086 0.38674 0.0
H3502 H 0.17872 0.98413 0.42922 0.0
C3503 C 0.18969 0.00912 0.38687 0.0
C3504 C 0.18556 0.01828 0.40214 0.0
H3505 H 0.19226 0.98407 0.37472 0.0
H3506 H 0.19251 0.01602 0.37494 0.0
C3507 C 0.18201 0.00888 0.41737 0.0
C3508 C 0.99078 0.68168 0.41831 0.0
C3509 C 0.98142 0.68548 0.40311 0.0
H3510 H 0.01548 0.67819 0.43019 0.0
C3511 C 0.99063 0.68978 0.38792 0.0
H3512 H 0.98416 0.6785 0.43031 0.0
C3513 C 0.00888 0.6896 0.38784 0.0
C3514 C 0.01813 0.68511 0.40296 0.0
H3515 H 0.98377 0.6928 0.37601 0.0
H3516 H 0.0157 0.69248 0.37588 0.0
C3517 C 0.00883 0.68149 0.41823 0.0
C3518 C 0.31728 0.49101 0.41707 0.0
C3519 C 0.31399 0.48173 0.40171 0.0
H3520 H 0.32028 0.51566 0.42919 0.0
C3521 C 0.31001 0.491 0.38647 0.0
H3522 H 0.32017 0.48434 0.42912 0.0
C3523 C 0.31007 0.50926 0.38651 0.0
C3524 C 0.31413 0.51844 0.4018 0.0
H3525 H 0.30739 0.48419 0.37444 0.0
H3526 H 0.3075 0.51615 0.37452 0.0
C3527 C 0.31734 0.50906 0.41711 0.0
C3528 C 0.68971 0.11311 0.50923 0.0
C3529 C 0.68562 0.09783 0.5184 0.0
H3530 H 0.69227 0.12524 0.48417 0.0
C3531 C 0.68217 0.08258 0.50901 0.0
H3532 H 0.69245 0.12506 0.51613 0.0
C3533 C 0.68207 0.08268 0.49095 0.0
C3534 C 0.68541 0.09804 0.48168 0.0
H3535 H 0.67919 0.07051 0.5156 0.0
H3536 H 0.67901 0.07069 0.48426 0.0
C3537 C 0.6896 0.11321 0.49097 0.0
C3538 C 0.31824 0.9172 0.49034 0.0
C3539 C 0.31463 0.90192 0.48104 0.0
H3540 H 0.32149 0.92926 0.51499 0.0
C3541 C 0.31041 0.88675 0.49033 0.0
H3542 H 0.32134 0.92919 0.48366 0.0
C3543 C 0.31049 0.88679 0.5086 0.0
C3544 C 0.3148 0.902 0.51778 0.0
H3545 H 0.30754 0.87477 0.48352 0.0
H3546 H 0.30769 0.87484 0.51548 0.0
C3547 C 0.31832 0.91724 0.50839 0.0
C3548 C 0.50897 0.69 0.11272 0.0
C3549 C 0.51823 0.68566 0.09756 0.0
H3550 H 0.48385 0.69295 0.1246 0.0
C3551 C 0.50893 0.68208 0.08228 0.0
H3552 H 0.51578 0.69285 0.12469 0.0
C3553 C 0.49088 0.68214 0.08222 0.0
C3554 C 0.48152 0.68578 0.09745 0.0
H3555 H 0.51559 0.67889 0.0703 0.0
H3556 H 0.48427 0.67899 0.07021 0.0
C3557 C 0.49072 0.69006 0.11266 0.0
C3558 C 0.81018 0.4909 0.11386 0.0
C3559 C 0.81425 0.48168 0.09861 0.0
H3560 H 0.80752 0.51601 0.12586 0.0
C3561 C 0.81751 0.49101 0.08328 0.0
H3562 H 0.80758 0.48405 0.12587 0.0
C3563 C 0.81747 0.50905 0.08327 0.0
C3564 C 0.81418 0.51838 0.09859 0.0
H3565 H 0.82046 0.48437 0.07122 0.0
H3566 H 0.8204 0.51569 0.07121 0.0
C3567 C 0.81015 0.50916 0.11386 0.0
C3568 C 0.99073 0.81021 0.11222 0.0
C3569 C 0.98151 0.81468 0.09708 0.0
H3570 H 0.01582 0.80721 0.12416 0.0
C3571 C 0.99085 0.81853 0.08189 0.0
H3572 H 0.98389 0.80716 0.12413 0.0
C3573 C 0.0089 0.81856 0.08191 0.0
C3574 C 0.01822 0.81475 0.09712 0.0
H3575 H 0.98422 0.82184 0.06992 0.0
H3576 H 0.01553 0.8219 0.06996 0.0
C3577 C 0.00898 0.81025 0.11224 0.0
C3578 C 0.6896 0.0093 0.11313 0.0
C3579 C 0.68545 0.01853 0.09791 0.0
H3580 H 0.69239 0.98419 0.1251 0.0
C3581 C 0.68213 0.0092 0.08258 0.0
H3582 H 0.69226 0.01614 0.12514 0.0
C3583 C 0.68221 0.99115 0.08256 0.0
C3584 C 0.68561 0.98181 0.09786 0.0
H3585 H 0.6791 0.01584 0.07055 0.0
H3586 H 0.67924 0.98451 0.07051 0.0
C3587 C 0.68968 0.99104 0.11311 0.0
C3588 C 0.5086 0.3104 0.8874 0.0
C3589 C 0.51789 0.31462 0.90256 0.0
H3590 H 0.48346 0.30758 0.87555 0.0
C3591 C 0.50864 0.31811 0.91789 0.0
H3592 H 0.51539 0.30761 0.87539 0.0
C3593 C 0.49059 0.31809 0.91798 0.0
C3594 C 0.4812 0.31459 0.90274 0.0
H3595 H 0.51532 0.32121 0.92988 0.0
H3596 H 0.48401 0.32118 0.93003 0.0
C3597 C 0.49035 0.31038 0.88748 0.0
C3598 C 0.18173 0.49153 0.91651 0.0
C3599 C 0.18533 0.48215 0.90128 0.0
H3600 H 0.17861 0.51625 0.92846 0.0
C3601 C 0.18966 0.49135 0.88608 0.0
H3602 H 0.17854 0.48493 0.92852 0.0
C3603 C 0.1897 0.50962 0.88604 0.0
C3604 C 0.18541 0.5189 0.9012 0.0
H3605 H 0.19252 0.48447 0.87415 0.0
H3606 H 0.19259 0.51643 0.87408 0.0
C3607 C 0.18177 0.50959 0.91647 0.0
C3608 C 0.00919 0.18957 0.88857 0.0
C3609 C 0.01842 0.18478 0.9036 0.0
H3610 H 0.98411 0.19293 0.87675 0.0
C3611 C 0.00909 0.18056 0.9187 0.0
H3612 H 0.01602 0.1929 0.87673 0.0
C3613 C 0.99104 0.18056 0.91871 0.0
C3614 C 0.98172 0.18478 0.90361 0.0
H3615 H 0.01573 0.17696 0.93058 0.0
H3616 H 0.9844 0.17697 0.93059 0.0
C3617 C 0.99095 0.18958 0.88858 0.0
C3618 C 0.31694 0.99111 0.9169 0.0
C3619 C 0.31387 0.98179 0.90153 0.0
H3620 H 0.31983 0.01578 0.929 0.0
C3621 C 0.31009 0.99103 0.88621 0.0
H3622 H 0.31966 0.98445 0.92901 0.0
C3623 C 0.31019 0.00929 0.8862 0.0
C3624 C 0.31407 0.01849 0.90151 0.0
H3625 H 0.30763 0.98419 0.87416 0.0
H3626 H 0.3078 0.01615 0.87415 0.0
C3627 C 0.31704 0.00915 0.9169 0.0
C3628 C 0.68187 0.58314 0.00931 0.0
C3629 C 0.68521 0.59845 0.01865 0.0
H3630 H 0.67887 0.57111 0.98461 0.0
C3631 C 0.68928 0.61371 0.00943 0.0
H3632 H 0.67891 0.57109 0.01594 0.0
C3633 C 0.68926 0.61372 0.99117 0.0
C3634 C 0.68517 0.59848 0.98193 0.0
H3635 H 0.69194 0.6257 0.01629 0.0
H3636 H 0.69191 0.62572 0.98432 0.0
C3637 C 0.68185 0.58316 0.99126 0.0
C3638 C 0.3103 0.38644 0.99141 0.0
C3639 C 0.31447 0.4017 0.98225 0.0
H3640 H 0.30759 0.37432 0.01647 0.0
C3641 C 0.31796 0.41693 0.99167 0.0
H3642 H 0.30752 0.3745 0.9845 0.0
C3643 C 0.31801 0.41683 0.00972 0.0
C3644 C 0.31456 0.4015 0.01899 0.0
H3645 H 0.32102 0.42899 0.98509 0.0
H3646 H 0.32109 0.42882 0.01642 0.0
C3647 C 0.31034 0.38633 0.00968 0.0
C3648 C 0.09831 0.24254 0.10423 0.0
C3649 C 0.08478 0.23387 0.09564 0.0
H3650 H 0.1141 0.26532 0.10569 0.0
C3651 C 0.07633 0.24212 0.08171 0.0
H3652 H 0.10511 0.23645 0.11494 0.0
C3653 C 0.08121 0.25895 0.07668 0.0
C3654 C 0.09498 0.26743 0.08514 0.0
H3655 H 0.06582 0.23568 0.07492 0.0
H3656 H 0.07446 0.26518 0.06602 0.0
C3657 C 0.10351 0.25903 0.09888 0.0
C3658 C 0.24152 0.10473 0.0997 0.0
C3659 C 0.23306 0.09621 0.08598 0.0
H3660 H 0.26408 0.10614 0.11582 0.0
C3661 C 0.24142 0.08231 0.0776 0.0
H3662 H 0.23533 0.11542 0.10644 0.0
C3663 C 0.25816 0.07726 0.0827 0.0
C3664 C 0.26646 0.08568 0.09662 0.0
H3665 H 0.23514 0.07558 0.06696 0.0
H3666 H 0.26449 0.06664 0.07599 0.0
C3667 C 0.25793 0.09937 0.10512 0.0
C3668 C 0.40161 0.25735 0.10509 0.0
C3669 C 0.41502 0.26606 0.09635 0.0
H3670 H 0.38585 0.23456 0.10666 0.0
C3671 C 0.42328 0.25788 0.08227 0.0
H3672 H 0.39496 0.26339 0.11592 0.0
C3673 C 0.41833 0.24109 0.07722 0.0
C3674 C 0.40468 0.23257 0.08583 0.0
H3675 H 0.43369 0.26436 0.07536 0.0
H3676 H 0.42492 0.23491 0.06643 0.0
C3677 C 0.39634 0.24089 0.09973 0.0
C3678 C 0.25777 0.395 0.09929 0.0
C3679 C 0.26643 0.40354 0.08571 0.0
H3680 H 0.23506 0.39367 0.11517 0.0
C3681 C 0.25824 0.41752 0.0773 0.0
H3682 H 0.26384 0.38425 0.10606 0.0
C3683 C 0.24148 0.42265 0.08226 0.0
C3684 C 0.23301 0.41424 0.09606 0.0
H3685 H 0.26467 0.42428 0.06677 0.0
H3686 H 0.23529 0.43335 0.07554 0.0
C3687 C 0.24135 0.40044 0.10456 0.0
C3688 C 0.09788 0.74713 0.92584 0.0
C3689 C 0.09304 0.73258 0.91599 0.0
H3690 H 0.09654 0.77485 0.9285 0.0
C3691 C 0.08278 0.73479 0.90112 0.0
H3692 H 0.10586 0.74562 0.93734 0.0
C3693 C 0.07795 0.75145 0.89576 0.0
C3694 C 0.08284 0.76606 0.90554 0.0
H3695 H 0.07905 0.72368 0.89331 0.0
H3696 H 0.07044 0.75293 0.88395 0.0
C3697 C 0.09254 0.76376 0.92082 0.0
C3698 C 0.75845 0.08216 0.92346 0.0
C3699 C 0.76673 0.09615 0.91515 0.0
H3700 H 0.73542 0.06642 0.92506 0.0
C3701 C 0.75817 0.10477 0.90157 0.0
H3702 H 0.76481 0.07534 0.93401 0.0
C3703 C 0.74175 0.09942 0.89619 0.0
C3704 C 0.7333 0.08563 0.90461 0.0
H3705 H 0.7643 0.11553 0.89487 0.0
H3706 H 0.73553 0.10627 0.88559 0.0
C3707 C 0.74169 0.07712 0.91841 0.0
C3708 C 0.40126 0.74268 0.89605 0.0
C3709 C 0.41484 0.73411 0.90468 0.0
H3710 H 0.38537 0.76538 0.89451 0.0
C3711 C 0.42324 0.74244 0.91858 0.0
H3712 H 0.3945 0.73651 0.88536 0.0
C3713 C 0.41828 0.75926 0.92355 0.0
C3714 C 0.40448 0.76765 0.91505 0.0
H3715 H 0.43378 0.73608 0.92539 0.0
H3716 H 0.425 0.76557 0.93419 0.0
C3717 C 0.39598 0.75916 0.90134 0.0
C3718 C 0.75734 0.40088 0.89576 0.0
C3719 C 0.76587 0.41454 0.90429 0.0
H3720 H 0.73471 0.38488 0.89436 0.0
C3721 C 0.75756 0.42297 0.91819 0.0
H3722 H 0.7635 0.3941 0.88507 0.0
C3723 C 0.7408 0.41795 0.92325 0.0
C3724 C 0.73245 0.40407 0.91484 0.0
H3725 H 0.7639 0.43357 0.92493 0.0
H3726 H 0.73451 0.42469 0.93388 0.0
C3727 C 0.74091 0.39555 0.90113 0.0
C3728 C 0.0985 0.1037 0.2582 0.0
C3729 C 0.08497 0.09503 0.26678 0.0
H3730 H 0.11427 0.10543 0.23543 0.0
C3731 C 0.07651 0.08119 0.25839 0.0
H3732 H 0.1053 0.11435 0.26442 0.0
C3733 C 0.08138 0.07635 0.2415 0.0
C3734 C 0.09513 0.08491 0.2331 0.0
H3735 H 0.066 0.07434 0.26476 0.0
H3736 H 0.07462 0.06577 0.23515 0.0
C3737 C 0.10369 0.09854 0.24166 0.0
C3738 C 0.40172 0.1042 0.24273 0.0
C3739 C 0.4152 0.09553 0.23407 0.0
H3740 H 0.386 0.10583 0.26554 0.0
C3741 C 0.42363 0.08162 0.24237 0.0
H3742 H 0.39494 0.1149 0.23659 0.0
C3743 C 0.41878 0.07669 0.25923 0.0
C3744 C 0.40506 0.08524 0.2677 0.0
H3745 H 0.4341 0.07477 0.23594 0.0
H3746 H 0.42551 0.06604 0.2655 0.0
C3747 C 0.39654 0.09895 0.25925 0.0
C3748 C 0.42291 0.39789 0.25174 0.0
C3749 C 0.41672 0.40685 0.26637 0.0
H3750 H 0.4229 0.39602 0.2239 0.0
C3751 C 0.40577 0.42125 0.26409 0.0
H3752 H 0.43138 0.38675 0.25324 0.0
C3753 C 0.40049 0.42615 0.2474 0.0
C3754 C 0.40664 0.41713 0.23281 0.0
H3755 H 0.40077 0.42827 0.27522 0.0
H3756 H 0.39156 0.43691 0.24589 0.0
C3757 C 0.41815 0.4032 0.23504 0.0
C3758 C 0.09876 0.3958 0.24214 0.0
C3759 C 0.08516 0.40445 0.23362 0.0
H3760 H 0.11466 0.39414 0.26483 0.0
C3761 C 0.07676 0.4183 0.24204 0.0
H3762 H 0.10552 0.38515 0.23591 0.0
C3763 C 0.08172 0.42318 0.25889 0.0
C3764 C 0.09553 0.41464 0.26723 0.0
H3765 H 0.0662 0.42513 0.23572 0.0
H3766 H 0.07499 0.43377 0.26525 0.0
C3767 C 0.10405 0.401 0.25865 0.0
C3768 C 0.0985 0.89588 0.74178 0.0
C3769 C 0.0849 0.90449 0.73323 0.0
H3770 H 0.11437 0.89427 0.76449 0.0
C3771 C 0.07645 0.91833 0.74162 0.0
H3772 H 0.1053 0.88524 0.73556 0.0
C3773 C 0.08138 0.92324 0.75846 0.0
C3774 C 0.0952 0.91474 0.76683 0.0
H3775 H 0.0659 0.92514 0.73527 0.0
H3776 H 0.07462 0.93382 0.76481 0.0
C3777 C 0.10375 0.9011 0.75828 0.0
C3778 C 0.59877 0.10409 0.75794 0.0
C3779 C 0.58521 0.09544 0.76652 0.0
H3780 H 0.61462 0.10568 0.73521 0.0
C3781 C 0.57681 0.08155 0.75818 0.0
H3782 H 0.60553 0.11478 0.76411 0.0
C3783 C 0.58174 0.07661 0.74135 0.0
C3784 C 0.59552 0.08513 0.73294 0.0
H3785 H 0.56629 0.07472 0.76455 0.0
H3786 H 0.57503 0.06597 0.73504 0.0
C3787 C 0.60402 0.09883 0.74144 0.0
C3788 C 0.42355 0.58155 0.7422 0.0
C3789 C 0.41527 0.59558 0.73394 0.0
H3790 H 0.42527 0.5659 0.76529 0.0
C3791 C 0.4019 0.60439 0.74264 0.0
H3792 H 0.43393 0.57459 0.73574 0.0
C3793 C 0.39669 0.59917 0.75916 0.0
C3794 C 0.40505 0.58533 0.76756 0.0
H3795 H 0.39524 0.61518 0.73654 0.0
H3796 H 0.38623 0.60615 0.76548 0.0
C3797 C 0.41866 0.57664 0.75905 0.0
C3798 C 0.89614 0.40153 0.74153 0.0
C3799 C 0.90465 0.41522 0.73303 0.0
H3800 H 0.89456 0.38566 0.76425 0.0
C3801 C 0.91837 0.42381 0.74146 0.0
H3802 H 0.88559 0.39464 0.73528 0.0
C3803 C 0.92324 0.41894 0.75834 0.0
C3804 C 0.91483 0.40505 0.76668 0.0
H3805 H 0.92509 0.43444 0.73515 0.0
H3806 H 0.93372 0.42581 0.76474 0.0
C3807 C 0.90133 0.39635 0.75807 0.0
C3808 C 0.25767 0.40086 0.39587 0.0
C3809 C 0.2662 0.41458 0.40429 0.0
H3810 H 0.23508 0.38477 0.39467 0.0
C3811 C 0.25795 0.42303 0.41821 0.0
H3812 H 0.26378 0.39406 0.38517 0.0
C3813 C 0.24123 0.41798 0.42339 0.0
C3814 C 0.23286 0.40404 0.41508 0.0
H3815 H 0.26429 0.43368 0.42487 0.0
H3816 H 0.23498 0.42474 0.43403 0.0
C3817 C 0.24129 0.39549 0.40137 0.0
C3818 C 0.09858 0.25765 0.39602 0.0
C3819 C 0.08499 0.26621 0.40463 0.0
H3820 H 0.11447 0.23495 0.39446 0.0
C3821 C 0.07657 0.25785 0.41851 0.0
H3822 H 0.10535 0.26383 0.38534 0.0
C3823 C 0.08152 0.24103 0.42347 0.0
C3824 C 0.09533 0.23265 0.41497 0.0
H3825 H 0.06602 0.26421 0.42532 0.0
H3826 H 0.07479 0.23471 0.43409 0.0
C3827 C 0.10385 0.24116 0.40129 0.0
C3828 C 0.24197 0.0771 0.41844 0.0
C3829 C 0.23361 0.08546 0.40452 0.0
H3830 H 0.26505 0.07549 0.4341 0.0
C3831 C 0.2421 0.09913 0.39595 0.0
H3832 H 0.23567 0.0665 0.42521 0.0
C3833 C 0.25852 0.10452 0.40128 0.0
C3834 C 0.26704 0.09606 0.41499 0.0
H3835 H 0.23591 0.10586 0.38525 0.0
H3836 H 0.26468 0.11519 0.39447 0.0
C3837 C 0.25873 0.08218 0.42345 0.0
C3838 C 0.74185 0.9231 0.08175 0.0
C3839 C 0.73349 0.91465 0.0956 0.0
H3840 H 0.76494 0.92481 0.06611 0.0
C3841 C 0.74194 0.90091 0.10407 0.0
H3842 H 0.73558 0.93377 0.07505 0.0
C3843 C 0.75836 0.89553 0.0987 0.0
C3844 C 0.7669 0.90409 0.08506 0.0
H3845 H 0.73574 0.89411 0.11472 0.0
H3846 H 0.7645 0.8848 0.10543 0.0
C3847 C 0.75861 0.91804 0.0767 0.0
C3848 C 0.10421 0.759 0.59832 0.0
C3849 C 0.09568 0.76749 0.58463 0.0
H3850 H 0.10574 0.73634 0.61426 0.0
C3851 C 0.08189 0.7591 0.57612 0.0
H3852 H 0.11481 0.76523 0.60516 0.0
C3853 C 0.07696 0.74227 0.58107 0.0
C3854 C 0.08539 0.73394 0.59496 0.0
H3855 H 0.07516 0.76541 0.5655 0.0
H3856 H 0.06642 0.73589 0.57427 0.0
C3857 C 0.09896 0.74251 0.60358 0.0
C3858 C 0.40116 0.75786 0.60448 0.0
C3859 C 0.41472 0.76644 0.59583 0.0
H3860 H 0.38533 0.73512 0.60612 0.0
C3861 C 0.42314 0.75807 0.58196 0.0
H3862 H 0.39439 0.76405 0.61516 0.0
C3863 C 0.41822 0.74122 0.57705 0.0
C3864 C 0.40444 0.73282 0.58558 0.0
H3865 H 0.43366 0.76443 0.57512 0.0
H3866 H 0.42495 0.7349 0.56644 0.0
C3867 C 0.39592 0.74135 0.59926 0.0
C3868 C 0.92298 0.75812 0.91832 0.0
C3869 C 0.9146 0.76643 0.90438 0.0
H3870 H 0.92476 0.73502 0.93394 0.0
C3871 C 0.90108 0.7578 0.89571 0.0
H3872 H 0.93347 0.76453 0.92517 0.0
C3873 C 0.89584 0.7413 0.90099 0.0
C3874 C 0.90432 0.73285 0.91474 0.0
H3875 H 0.89433 0.76394 0.885 0.0
H3876 H 0.88527 0.73504 0.89412 0.0
C3877 C 0.91806 0.74129 0.92327 0.0
C3878 C 0.75786 0.91814 0.92275 0.0
C3879 C 0.76616 0.90427 0.91427 0.0
H3880 H 0.73479 0.93379 0.92458 0.0
C3881 C 0.7576 0.89576 0.90062 0.0
H3882 H 0.76422 0.92487 0.93335 0.0
C3883 C 0.74115 0.90111 0.89535 0.0
C3884 C 0.73268 0.91478 0.90393 0.0
H3885 H 0.76375 0.88509 0.8938 0.0
H3886 H 0.73492 0.89435 0.88468 0.0
C3887 C 0.74107 0.92318 0.9178 0.0
C3888 C 0.57657 0.74197 0.9184 0.0
C3889 C 0.58477 0.73382 0.90426 0.0
H3890 H 0.57493 0.76494 0.93423 0.0
C3891 C 0.59807 0.7426 0.89541 0.0
H3892 H 0.56625 0.73545 0.92539 0.0
C3893 C 0.60329 0.75909 0.90072 0.0
C3894 C 0.59501 0.76738 0.91468 0.0
H3895 H 0.60467 0.73659 0.88453 0.0
H3896 H 0.61369 0.76548 0.89372 0.0
C3897 C 0.58147 0.75879 0.92339 0.0
C3898 C 0.74127 0.58223 0.92333 0.0
C3899 C 0.73298 0.59613 0.91488 0.0
H3900 H 0.7643 0.5665 0.92506 0.0
C3901 C 0.74152 0.60461 0.90119 0.0
H3902 H 0.73493 0.57552 0.93395 0.0
C3903 C 0.75793 0.5992 0.89585 0.0
C3904 C 0.76639 0.5855 0.9044 0.0
H3905 H 0.73537 0.6153 0.8944 0.0
H3906 H 0.76413 0.60594 0.88516 0.0
C3907 C 0.75802 0.57713 0.9183 0.0
C3908 C 0.89652 0.25913 0.09958 0.0
C3909 C 0.90502 0.26753 0.08582 0.0
H3910 H 0.89492 0.23652 0.1156 0.0
C3911 C 0.91873 0.25903 0.07729 0.0
H3912 H 0.88598 0.26544 0.10644 0.0
C3913 C 0.92358 0.24219 0.08226 0.0
C3914 C 0.91516 0.23394 0.09621 0.0
H3915 H 0.92545 0.26527 0.06661 0.0
H3916 H 0.93404 0.23573 0.07542 0.0
C3917 C 0.90169 0.24262 0.10487 0.0
C3918 C 0.2412 0.89553 0.09955 0.0
C3919 C 0.23284 0.90396 0.08572 0.0
H3920 H 0.26362 0.89425 0.11587 0.0
C3921 C 0.24122 0.91786 0.07736 0.0
H3922 H 0.23497 0.88485 0.10629 0.0
C3923 C 0.2579 0.92298 0.08259 0.0
C3924 C 0.2661 0.91464 0.09661 0.0
H3925 H 0.23501 0.92453 0.06664 0.0
H3926 H 0.26426 0.93358 0.07588 0.0
C3927 C 0.25754 0.90097 0.10509 0.0
C3928 C 0.57653 0.2583 0.08199 0.0
C3929 C 0.58497 0.2666 0.09588 0.0
H3930 H 0.57472 0.23521 0.06634 0.0
C3931 C 0.59857 0.25801 0.10445 0.0
H3932 H 0.56597 0.26468 0.07522 0.0
C3933 C 0.60383 0.24154 0.09912 0.0
C3934 C 0.59529 0.23308 0.08542 0.0
H3935 H 0.60537 0.26416 0.11514 0.0
H3936 H 0.61446 0.2353 0.10591 0.0
C3937 C 0.58146 0.24149 0.07697 0.0
C3938 C 0.25834 0.58231 0.07722 0.0
C3939 C 0.26664 0.59621 0.08565 0.0
H3940 H 0.23528 0.56664 0.07543 0.0
C3941 C 0.25805 0.60478 0.09925 0.0
H3942 H 0.26472 0.57554 0.06666 0.0
C3943 C 0.24159 0.59944 0.10453 0.0
C3944 C 0.23313 0.58573 0.096 0.0
H3945 H 0.26419 0.61548 0.10604 0.0
H3946 H 0.23535 0.60624 0.11516 0.0
C3947 C 0.24155 0.57728 0.08217 0.0
C3948 C 0.91781 0.90243 0.76588 0.0
C3949 C 0.90711 0.91701 0.76794 0.0
H3950 H 0.93036 0.88525 0.74788 0.0
C3951 C 0.90172 0.92637 0.75326 0.0
H3952 H 0.92196 0.89499 0.77708 0.0
C3953 C 0.90695 0.92116 0.73666 0.0
C3954 C 0.91707 0.90615 0.73452 0.0
H3955 H 0.89339 0.93763 0.75465 0.0
H3956 H 0.90252 0.92846 0.72547 0.0
C3957 C 0.92252 0.89685 0.74925 0.0
C3958 C 0.5813 0.92332 0.74145 0.0
C3959 C 0.59508 0.91473 0.7331 0.0
H3960 H 0.56578 0.92528 0.7646 0.0
C3961 C 0.60351 0.90102 0.74164 0.0
H3962 H 0.57464 0.93396 0.73511 0.0
C3963 C 0.59819 0.8958 0.75813 0.0
C3964 C 0.58463 0.9045 0.76666 0.0
H3965 H 0.6141 0.89412 0.73545 0.0
H3966 H 0.6049 0.8851 0.76434 0.0
C3967 C 0.5763 0.91841 0.75828 0.0
C3968 C 0.58159 0.57664 0.75889 0.0
C3969 C 0.5954 0.58513 0.76728 0.0
H3970 H 0.56613 0.57478 0.73568 0.0
C3971 C 0.60396 0.59878 0.75876 0.0
H3972 H 0.57483 0.56605 0.76521 0.0
C3973 C 0.59874 0.60402 0.74225 0.0
C3974 C 0.58515 0.59542 0.73369 0.0
H3975 H 0.61458 0.6056 0.76499 0.0
H3976 H 0.60554 0.61468 0.73606 0.0
C3977 C 0.57668 0.58157 0.74204 0.0
C3978 C 0.92342 0.5811 0.75857 0.0
C3979 C 0.91503 0.59496 0.76698 0.0
H3980 H 0.9252 0.56568 0.73532 0.0
C3981 C 0.90149 0.60367 0.75845 0.0
H3982 H 0.93394 0.57423 0.76491 0.0
C3983 C 0.89624 0.59853 0.74192 0.0
C3984 C 0.90474 0.58488 0.73334 0.0
H3985 H 0.89473 0.61433 0.76468 0.0
H3986 H 0.88566 0.60544 0.73572 0.0
C3987 C 0.91849 0.57627 0.7417 0.0
C3988 C 0.90161 0.07394 0.24746 0.0
C3989 C 0.90698 0.08344 0.23287 0.0
H3990 H 0.9025 0.07156 0.27523 0.0
C3991 C 0.91771 0.09798 0.23505 0.0
H3992 H 0.89327 0.06271 0.24598 0.0
C3993 C 0.92249 0.10336 0.25172 0.0
C3994 C 0.91708 0.09393 0.26637 0.0
H3995 H 0.92186 0.10552 0.22391 0.0
H3996 H 0.93037 0.11494 0.25318 0.0
C3997 C 0.90691 0.07896 0.2641 0.0
C3998 C 0.42388 0.89821 0.24834 0.0
C3999 C 0.41691 0.90647 0.23365 0.0
H4000 H 0.42445 0.89692 0.27621 0.0
C4001 C 0.40512 0.92019 0.23584 0.0
H4002 H 0.433 0.88759 0.2469 0.0
C4003 C 0.3998 0.92508 0.2525 0.0
C4004 C 0.40673 0.91678 0.26718 0.0
H4005 H 0.39952 0.92664 0.22465 0.0
H4006 H 0.39023 0.9353 0.25395 0.0
C4007 C 0.41907 0.90356 0.26502 0.0
C4008 C 0.59829 0.39661 0.25847 0.0
C4009 C 0.58475 0.40534 0.26699 0.0
H4010 H 0.61414 0.39482 0.23575 0.0
C4011 C 0.57639 0.4192 0.25856 0.0
H4012 H 0.60502 0.38594 0.26471 0.0
C4013 C 0.58134 0.42402 0.24169 0.0
C4014 C 0.59509 0.4154 0.23334 0.0
H4015 H 0.56588 0.42609 0.26488 0.0
H4016 H 0.57465 0.43463 0.23531 0.0
C4017 C 0.60356 0.40174 0.24194 0.0
C4018 C 0.09858 0.60381 0.24227 0.0
C4019 C 0.08501 0.59516 0.2337 0.0
H4020 H 0.11444 0.60544 0.26499 0.0
C4021 C 0.07661 0.58128 0.24207 0.0
H4022 H 0.10534 0.61449 0.23607 0.0
C4023 C 0.08156 0.57636 0.25891 0.0
C4024 C 0.09534 0.58489 0.2673 0.0
H4025 H 0.06608 0.57445 0.23571 0.0
H4026 H 0.07484 0.56574 0.26524 0.0
C4027 C 0.10385 0.59858 0.25877 0.0
C4028 C 0.75799 0.60478 0.59943 0.0
C4029 C 0.7666 0.59633 0.58577 0.0
H4030 H 0.7353 0.60604 0.61537 0.0
C4031 C 0.75836 0.58243 0.57727 0.0
H4032 H 0.76408 0.61547 0.60626 0.0
C4033 C 0.7416 0.57729 0.58222 0.0
C4034 C 0.73317 0.58562 0.5961 0.0
H4035 H 0.76476 0.57574 0.56667 0.0
H4036 H 0.73538 0.56665 0.57543 0.0
C4037 C 0.74156 0.59933 0.6047 0.0
C4038 C 0.90458 0.73553 0.58103 0.0
C4039 C 0.91694 0.73342 0.59425 0.0
H4040 H 0.88919 0.75357 0.56635 0.0
C4041 C 0.92435 0.74814 0.60206 0.0
H4042 H 0.89864 0.72431 0.57495 0.0
C4043 C 0.91943 0.76479 0.59672 0.0
C4044 C 0.90655 0.76689 0.58401 0.0
H4045 H 0.9339 0.74674 0.61229 0.0
H4046 H 0.92517 0.776 0.603 0.0
C4047 C 0.89917 0.75218 0.57618 0.0
C4048 C 0.75753 0.90066 0.60534 0.0
C4049 C 0.76622 0.91425 0.59686 0.0
H4050 H 0.73481 0.88477 0.60653 0.0
C4051 C 0.7581 0.92267 0.58284 0.0
H4052 H 0.76354 0.89388 0.61611 0.0
C4053 C 0.74137 0.91772 0.57762 0.0
C4054 C 0.73286 0.9039 0.58597 0.0
H4055 H 0.76456 0.93322 0.57613 0.0
H4056 H 0.73523 0.92445 0.56689 0.0
C4057 C 0.74114 0.89539 0.5998 0.0
C4058 C 0.25836 0.07707 0.91775 0.0
C4059 C 0.26662 0.08551 0.90383 0.0
H4060 H 0.23536 0.07532 0.9335 0.0
C4061 C 0.25804 0.09915 0.89531 0.0
H4062 H 0.26473 0.06649 0.92448 0.0
C4063 C 0.24161 0.10446 0.90073 0.0
C4064 C 0.2332 0.09592 0.91446 0.0
H4065 H 0.26415 0.10594 0.88461 0.0
H4066 H 0.23537 0.11512 0.89397 0.0
C4067 C 0.2416 0.08206 0.92285 0.0
C4068 C 0.92324 0.25839 0.4181 0.0
C4069 C 0.91482 0.26678 0.40424 0.0
H4070 H 0.925 0.23522 0.43363 0.0
C4071 C 0.90122 0.25825 0.39561 0.0
H4072 H 0.9338 0.26472 0.42491 0.0
C4073 C 0.89593 0.24177 0.40086 0.0
C4074 C 0.90444 0.23322 0.41452 0.0
H4075 H 0.89445 0.26447 0.38495 0.0
H4076 H 0.8853 0.23558 0.39402 0.0
C4077 C 0.91827 0.24157 0.42303 0.0
C4078 C 0.58158 0.25906 0.42331 0.0
C4079 C 0.5953 0.2675 0.41474 0.0
H4080 H 0.56618 0.23582 0.42525 0.0
C4081 C 0.60377 0.25903 0.401 0.0
H4082 H 0.57489 0.26534 0.43398 0.0
C4083 C 0.59853 0.24253 0.39575 0.0
C4084 C 0.58503 0.23391 0.40445 0.0
H4085 H 0.61432 0.26529 0.39411 0.0
H4086 H 0.60526 0.23638 0.38503 0.0
C4087 C 0.57666 0.24222 0.41838 0.0
C4088 C 0.24221 0.6041 0.5995 0.0
C4089 C 0.23363 0.59556 0.58587 0.0
H4090 H 0.26487 0.60549 0.61547 0.0
C4091 C 0.2419 0.58162 0.57747 0.0
H4092 H 0.23609 0.61482 0.60627 0.0
C4093 C 0.25867 0.57654 0.58247 0.0
C4094 C 0.26707 0.58497 0.59632 0.0
H4095 H 0.23553 0.57487 0.56689 0.0
H4096 H 0.26492 0.56588 0.57575 0.0
C4097 C 0.25864 0.59871 0.60482 0.0
C4098 C 0.24193 0.92319 0.58199 0.0
C4099 C 0.23369 0.91471 0.59591 0.0
H4100 H 0.26491 0.92498 0.5662 0.0
C4101 C 0.24229 0.90105 0.60437 0.0
H4102 H 0.23555 0.93379 0.5753 0.0
C4103 C 0.2587 0.89576 0.59892 0.0
C4104 C 0.26709 0.90432 0.58519 0.0
H4105 H 0.23619 0.89424 0.61507 0.0
H4106 H 0.26494 0.88508 0.60564 0.0
C4107 C 0.25868 0.91821 0.57685 0.0
C4108 C 0.75826 0.58257 0.42339 0.0
C4109 C 0.76653 0.59654 0.41504 0.0
H4110 H 0.73526 0.5668 0.42503 0.0
C4111 C 0.75797 0.60511 0.40142 0.0
H4112 H 0.76462 0.57579 0.43396 0.0
C4113 C 0.74155 0.59971 0.39605 0.0
C4114 C 0.73312 0.58594 0.40451 0.0
H4115 H 0.76409 0.61585 0.3947 0.0
H4116 H 0.73533 0.60651 0.38542 0.0
C4117 C 0.74151 0.57748 0.41834 0.0
C4118 C 0.39616 0.25908 0.40143 0.0
C4119 C 0.40479 0.26765 0.41501 0.0
H4120 H 0.39452 0.23633 0.38561 0.0
C4121 C 0.41865 0.2593 0.42345 0.0
H4122 H 0.3855 0.26527 0.39464 0.0
C4123 C 0.42354 0.24245 0.41855 0.0
C4124 C 0.41502 0.23404 0.40477 0.0
H4125 H 0.42546 0.26567 0.43399 0.0
H4126 H 0.43414 0.23612 0.4253 0.0
C4127 C 0.40137 0.24256 0.39621 0.0
C4128 C 0.7582 0.92326 0.41797 0.0
C4129 C 0.76657 0.91479 0.40414 0.0
H4130 H 0.73509 0.92503 0.43357 0.0
C4131 C 0.75809 0.90106 0.39566 0.0
H4132 H 0.76449 0.93392 0.42467 0.0
C4133 C 0.74165 0.89572 0.40101 0.0
C4134 C 0.7331 0.90431 0.41463 0.0
H4135 H 0.76429 0.89424 0.38502 0.0
H4136 H 0.73549 0.88501 0.39427 0.0
C4137 C 0.74142 0.91824 0.423 0.0
C4138 C 0.09973 0.57498 0.74709 0.0
C4139 C 0.0926 0.58317 0.73245 0.0
H4140 H 0.10031 0.57355 0.77494 0.0
C4141 C 0.08019 0.59632 0.73467 0.0
H4142 H 0.10936 0.56483 0.7456 0.0
C4143 C 0.07551 0.60171 0.75138 0.0
C4144 C 0.0827 0.59357 0.76603 0.0
H4145 H 0.07466 0.60287 0.72351 0.0
H4146 H 0.06634 0.61228 0.75287 0.0
C4147 C 0.09455 0.57991 0.76379 0.0
C4148 C 0.40112 0.89611 0.75757 0.0
C4149 C 0.41464 0.90472 0.76623 0.0
H4150 H 0.38535 0.8946 0.73477 0.0
C4151 C 0.4231 0.91863 0.75796 0.0
H4152 H 0.39432 0.88542 0.76369 0.0
C4153 C 0.41823 0.92362 0.74111 0.0
C4154 C 0.40447 0.91514 0.73263 0.0
H4155 H 0.4336 0.92543 0.76439 0.0
H4156 H 0.42499 0.93426 0.73486 0.0
C4157 C 0.39593 0.90142 0.74106 0.0
C4158 C 0.58133 0.57678 0.24157 0.0
C4159 C 0.59508 0.58533 0.23315 0.0
H4160 H 0.56592 0.57485 0.2648 0.0
C4161 C 0.60359 0.59902 0.24164 0.0
H4162 H 0.57461 0.56614 0.23526 0.0
C4163 C 0.59836 0.60426 0.25816 0.0
C4164 C 0.58483 0.59559 0.26675 0.0
H4165 H 0.61416 0.6059 0.2354 0.0
H4166 H 0.60512 0.61495 0.26433 0.0
C4167 C 0.57642 0.58169 0.25842 0.0
C4168 C 0.92331 0.91829 0.25794 0.0
C4169 C 0.91474 0.90452 0.26633 0.0
H4170 H 0.92531 0.93373 0.23472 0.0
C4171 C 0.90113 0.89597 0.25776 0.0
H4172 H 0.93388 0.92505 0.2643 0.0
C4173 C 0.89597 0.9012 0.24122 0.0
C4174 C 0.90463 0.91476 0.23266 0.0
H4175 H 0.89424 0.88538 0.26397 0.0
H4176 H 0.88532 0.89441 0.23499 0.0
C4177 C 0.91847 0.9232 0.24106 0.0
C4178 C 0.25788 0.90071 0.89522 0.0
C4179 C 0.2663 0.91444 0.90376 0.0
H4180 H 0.23538 0.88453 0.8938 0.0
C4181 C 0.25793 0.92278 0.91767 0.0
H4182 H 0.26409 0.894 0.88453 0.0
C4183 C 0.2412 0.91762 0.92272 0.0
C4184 C 0.23296 0.90369 0.91429 0.0
H4185 H 0.26418 0.93343 0.92442 0.0
H4186 H 0.23486 0.9243 0.93336 0.0
C4187 C 0.2415 0.89524 0.90059 0.0
C4188 C 0.25863 0.58235 0.92277 0.0
C4189 C 0.26706 0.59623 0.91443 0.0
H4190 H 0.23552 0.56674 0.92427 0.0
C4191 C 0.25871 0.60475 0.90064 0.0
H4192 H 0.26483 0.57562 0.93346 0.0
C4193 C 0.24233 0.59941 0.89513 0.0
C4194 C 0.23372 0.58576 0.9036 0.0
H4195 H 0.26497 0.61541 0.89392 0.0
H4196 H 0.23625 0.60619 0.8844 0.0
C4197 C 0.24191 0.57734 0.91758 0.0
C4198 C 0.75793 0.39546 0.59942 0.0
C4199 C 0.76647 0.40398 0.58575 0.0
H4200 H 0.73528 0.39404 0.61538 0.0
C4201 C 0.75815 0.41785 0.57729 0.0
H4202 H 0.7641 0.3848 0.60622 0.0
C4203 C 0.74136 0.42288 0.58227 0.0
C4204 C 0.73299 0.41447 0.59614 0.0
H4205 H 0.76448 0.42458 0.56668 0.0
H4206 H 0.73506 0.43348 0.5755 0.0
C4207 C 0.74148 0.40081 0.60471 0.0
C4208 C 0.75845 0.41808 0.42339 0.0
C4209 C 0.76676 0.4042 0.41493 0.0
H4210 H 0.7354 0.43376 0.42515 0.0
C4211 C 0.75824 0.39572 0.40124 0.0
H4212 H 0.76478 0.42479 0.43402 0.0
C4213 C 0.74181 0.4011 0.39591 0.0
C4214 C 0.73334 0.41478 0.40448 0.0
H4215 H 0.7644 0.38505 0.39443 0.0
H4216 H 0.73562 0.39436 0.38522 0.0
C4217 C 0.74169 0.42315 0.41838 0.0
C4218 C 0.75772 0.09939 0.39514 0.0
C4219 C 0.76632 0.08574 0.40362 0.0
H4220 H 0.73506 0.11535 0.39386 0.0
C4221 C 0.75809 0.07728 0.41755 0.0
H4222 H 0.76382 0.10619 0.38443 0.0
C4223 C 0.74134 0.08227 0.42269 0.0
C4224 C 0.73292 0.09614 0.41433 0.0
H4225 H 0.76447 0.06669 0.42426 0.0
H4226 H 0.73511 0.07551 0.43335 0.0
C4227 C 0.74131 0.10469 0.40059 0.0
C4228 C 0.25773 0.40039 0.60518 0.0
C4229 C 0.26624 0.41405 0.59663 0.0
H4230 H 0.23511 0.38438 0.60665 0.0
C4231 C 0.25789 0.42246 0.58274 0.0
H4232 H 0.26391 0.39362 0.61586 0.0
C4233 C 0.24111 0.41743 0.57772 0.0
C4234 C 0.23278 0.40356 0.58617 0.0
H4235 H 0.26421 0.43306 0.57597 0.0
H4236 H 0.2348 0.42416 0.56711 0.0
C4237 C 0.24129 0.39504 0.59985 0.0
C4238 C 0.59851 0.75784 0.60432 0.0
C4239 C 0.58493 0.7664 0.59569 0.0
H4240 H 0.61439 0.73514 0.60591 0.0
C4241 C 0.57652 0.75805 0.5818 0.0
H4242 H 0.60528 0.76403 0.615 0.0
C4243 C 0.58147 0.74123 0.57686 0.0
C4244 C 0.59527 0.73284 0.58537 0.0
H4245 H 0.56598 0.76441 0.57498 0.0
H4246 H 0.57475 0.73491 0.56624 0.0
C4247 C 0.60378 0.74135 0.59906 0.0
C4248 C 0.24158 0.09943 0.60504 0.0
C4249 C 0.23317 0.08566 0.59657 0.0
H4250 H 0.26408 0.11562 0.60637 0.0
C4251 C 0.24153 0.07727 0.58268 0.0
H4252 H 0.23538 0.10618 0.61571 0.0
C4253 C 0.25824 0.08241 0.57759 0.0
C4254 C 0.2665 0.09638 0.58596 0.0
H4255 H 0.23528 0.06659 0.57598 0.0
H4256 H 0.26458 0.07569 0.56699 0.0
C4257 C 0.25796 0.10489 0.59964 0.0
C4258 C 0.9233 0.41913 0.24244 0.0
C4259 C 0.9149 0.40521 0.23414 0.0
H4260 H 0.92507 0.43477 0.26554 0.0
C4261 C 0.90134 0.39659 0.24273 0.0
H4262 H 0.93383 0.42594 0.23606 0.0
C4263 C 0.89607 0.40189 0.25921 0.0
C4264 C 0.90457 0.41561 0.26767 0.0
H4265 H 0.89458 0.38588 0.23658 0.0
H4266 H 0.88548 0.39505 0.26545 0.0
C4267 C 0.91836 0.42412 0.25925 0.0
C4268 C 0.58138 0.07683 0.25866 0.0
C4269 C 0.59513 0.08538 0.26708 0.0
H4270 H 0.56597 0.07489 0.23542 0.0
C4271 C 0.60365 0.09906 0.25858 0.0
H4272 H 0.57465 0.06621 0.26498 0.0
C4273 C 0.59844 0.10427 0.24205 0.0
C4274 C 0.5849 0.09561 0.23346 0.0
H4275 H 0.61423 0.10593 0.26482 0.0
H4276 H 0.60521 0.11495 0.23587 0.0
C4277 C 0.57648 0.08173 0.2418 0.0
C4278 C 0.41805 0.42367 0.75908 0.0
C4279 C 0.40479 0.41476 0.76789 0.0
H4280 H 0.43298 0.42574 0.73556 0.0
C4281 C 0.39678 0.4005 0.75987 0.0
H4282 H 0.42437 0.43475 0.76503 0.0
C4283 C 0.40198 0.3951 0.7434 0.0
C4284 C 0.41496 0.40416 0.73436 0.0
H4285 H 0.38661 0.39334 0.76645 0.0
H4286 H 0.39558 0.384 0.73759 0.0
C4287 C 0.42291 0.41858 0.74227 0.0
C4288 C 0.08116 0.07663 0.7593 0.0
C4289 C 0.09485 0.08518 0.76782 0.0
H4290 H 0.06587 0.07476 0.73598 0.0
C4291 C 0.10332 0.09898 0.75944 0.0
H4292 H 0.07448 0.06593 0.76552 0.0
C4293 C 0.09815 0.10428 0.74293 0.0
C4294 C 0.08471 0.09559 0.73422 0.0
H4295 H 0.11385 0.10585 0.76577 0.0
H4296 H 0.1049 0.11502 0.73685 0.0
C4297 C 0.07631 0.08162 0.74245 0.0
C4298 C 0.75801 0.10477 0.09921 0.0
C4299 C 0.76663 0.09619 0.08564 0.0
H4300 H 0.73528 0.10622 0.11507 0.0
C4301 C 0.75837 0.08227 0.0772 0.0
H4302 H 0.76413 0.11547 0.106 0.0
C4303 C 0.74157 0.07723 0.08213 0.0
C4304 C 0.73313 0.08569 0.09592 0.0
H4305 H 0.76478 0.07549 0.06666 0.0
H4306 H 0.73533 0.06658 0.07539 0.0
C4307 C 0.74155 0.09942 0.10446 0.0
C4308 C 0.74161 0.39561 0.0995 0.0
C4309 C 0.73313 0.40417 0.08582 0.0
H4310 H 0.76421 0.39411 0.11555 0.0
C4311 C 0.74151 0.41804 0.07742 0.0
H4312 H 0.7354 0.38494 0.10626 0.0
C4313 C 0.75829 0.42303 0.08247 0.0
C4314 C 0.7666 0.41458 0.09636 0.0
H4315 H 0.73522 0.42481 0.0668 0.0
H4316 H 0.76463 0.43364 0.07575 0.0
C4317 C 0.75805 0.40091 0.10487 0.0
C4318 C 0.24147 0.60443 0.40126 0.0
C4319 C 0.233 0.59581 0.41491 0.0
H4320 H 0.26405 0.60601 0.38521 0.0
C4321 C 0.24139 0.5819 0.42324 0.0
H4322 H 0.23525 0.61513 0.39455 0.0
C4323 C 0.25817 0.57694 0.41816 0.0
C4324 C 0.26647 0.58546 0.4043 0.0
H4325 H 0.23511 0.57508 0.43383 0.0
H4326 H 0.26452 0.56631 0.42483 0.0
C4327 C 0.25791 0.59916 0.39586 0.0
C4328 C 0.60384 0.25825 0.59875 0.0
C4329 C 0.59532 0.26681 0.5851 0.0
H4330 H 0.60539 0.23549 0.61456 0.0
C4331 C 0.58157 0.25843 0.57651 0.0
H4332 H 0.61442 0.26446 0.60564 0.0
C4333 C 0.57666 0.24155 0.58135 0.0
C4334 C 0.58508 0.23315 0.59521 0.0
H4335 H 0.57484 0.26478 0.56592 0.0
H4336 H 0.56615 0.2352 0.57449 0.0
C4337 C 0.59862 0.24171 0.6039 0.0
C4338 C 0.75857 0.09857 0.60449 0.0
C4339 C 0.76702 0.08482 0.59602 0.0
H4340 H 0.73601 0.11467 0.60587 0.0
C4341 C 0.75865 0.07637 0.58217 0.0
H4342 H 0.76477 0.10537 0.61514 0.0
C4343 C 0.7419 0.08144 0.57712 0.0
C4344 C 0.73361 0.09539 0.58549 0.0
H4345 H 0.76492 0.06571 0.57548 0.0
H4346 H 0.73555 0.07468 0.56654 0.0
C4347 C 0.74215 0.10395 0.59913 0.0
C4348 C 0.89556 0.24105 0.59881 0.0
C4349 C 0.90417 0.23261 0.58514 0.0
H4350 H 0.89395 0.26365 0.61487 0.0
C4351 C 0.91803 0.24104 0.57678 0.0
H4352 H 0.8849 0.2348 0.60554 0.0
C4353 C 0.92294 0.25785 0.58185 0.0
C4354 C 0.91444 0.26613 0.59573 0.0
H4355 H 0.92483 0.23478 0.56617 0.0
H4356 H 0.93353 0.26424 0.57515 0.0
C4357 C 0.9008 0.25752 0.60421 0.0
C4358 C 0.6037 0.74173 0.40134 0.0
C4359 C 0.59513 0.73321 0.41499 0.0
H4360 H 0.60525 0.76442 0.38542 0.0
C4361 C 0.5813 0.74159 0.42345 0.0
H4362 H 0.61433 0.73552 0.39453 0.0
C4363 C 0.57637 0.75842 0.4185 0.0
C4364 C 0.58483 0.76678 0.40465 0.0
H4365 H 0.57454 0.73526 0.43405 0.0
H4366 H 0.5658 0.76477 0.42528 0.0
C4367 C 0.59845 0.75823 0.39607 0.0
C4368 C 0.89628 0.7595 0.40202 0.0
C4369 C 0.90491 0.76796 0.41566 0.0
H4370 H 0.89458 0.73685 0.38606 0.0
C4371 C 0.91872 0.75951 0.42408 0.0
H4372 H 0.88565 0.76577 0.39524 0.0
C4373 C 0.92356 0.74266 0.41909 0.0
C4374 C 0.91503 0.73436 0.40524 0.0
H4375 H 0.92554 0.76579 0.43467 0.0
H4376 H 0.93411 0.73625 0.42583 0.0
C4377 C 0.90144 0.74299 0.3967 0.0
C4378 C 0.89624 0.09941 0.75876 0.0
C4379 C 0.90485 0.08583 0.76735 0.0
H4380 H 0.89461 0.11519 0.73598 0.0
C4381 C 0.91868 0.07734 0.75899 0.0
H4382 H 0.88561 0.10623 0.76495 0.0
C4383 C 0.92356 0.0822 0.74211 0.0
C4384 C 0.91506 0.09598 0.73369 0.0
H4385 H 0.92547 0.0668 0.76537 0.0
H4386 H 0.93413 0.0754 0.73578 0.0
C4387 C 0.90145 0.10459 0.74222 0.0
C4388 C 0.59843 0.39597 0.742 0.0
C4389 C 0.58478 0.4045 0.73347 0.0
H4390 H 0.61436 0.39448 0.76468 0.0
C4391 C 0.5763 0.41833 0.74183 0.0
H4392 H 0.60525 0.38533 0.7358 0.0
C4393 C 0.58125 0.42331 0.75865 0.0
C4394 C 0.59511 0.41488 0.76702 0.0
H4395 H 0.5657 0.42507 0.7355 0.0
H4396 H 0.57446 0.43388 0.76499 0.0
C4397 C 0.6037 0.40126 0.75848 0.0
C4398 C 0.60355 0.90161 0.25862 0.0
C4399 C 0.59508 0.91531 0.26714 0.0
H4400 H 0.60507 0.88575 0.23589 0.0
C4401 C 0.58138 0.92395 0.25871 0.0
H4402 H 0.61408 0.89467 0.26486 0.0
C4403 C 0.57649 0.91911 0.24183 0.0
C4404 C 0.58486 0.9052 0.23347 0.0
H4405 H 0.5747 0.93459 0.26504 0.0
H4406 H 0.56603 0.92602 0.23544 0.0
C4407 C 0.59833 0.89645 0.24208 0.0
C4408 C 0.89603 0.5993 0.25891 0.0
C4409 C 0.90452 0.58566 0.2675 0.0
H4410 H 0.89454 0.61508 0.23612 0.0
C4411 C 0.91828 0.57705 0.25915 0.0
H4412 H 0.88545 0.60622 0.26509 0.0
C4413 C 0.92321 0.58185 0.24228 0.0
C4414 C 0.91482 0.5957 0.23384 0.0
H4415 H 0.92498 0.56645 0.26554 0.0
H4416 H 0.93372 0.57497 0.23595 0.0
C4417 C 0.90129 0.60443 0.24237 0.0
C4418 C 0.59824 0.2579 0.89562 0.0
C4419 C 0.58466 0.26645 0.90425 0.0
H4420 H 0.61417 0.23522 0.89408 0.0
C4421 C 0.57628 0.25812 0.91817 0.0
H4422 H 0.60498 0.26407 0.88492 0.0
C4423 C 0.58127 0.24132 0.92315 0.0
C4424 C 0.59508 0.23295 0.91465 0.0
H4425 H 0.56574 0.26447 0.92498 0.0
H4426 H 0.57458 0.23502 0.9338 0.0
C4427 C 0.60356 0.24143 0.90092 0.0
C4428 C 0.59851 0.74244 0.10453 0.0
C4429 C 0.58495 0.73386 0.0959 0.0
H4430 H 0.61439 0.76515 0.10609 0.0
C4431 C 0.57654 0.74219 0.08199 0.0
H4432 H 0.60527 0.73627 0.11523 0.0
C4433 C 0.58149 0.75901 0.07703 0.0
C4434 C 0.59529 0.76741 0.08554 0.0
H4435 H 0.56601 0.73582 0.07517 0.0
H4436 H 0.57478 0.76531 0.06638 0.0
C4437 C 0.60378 0.75892 0.09925 0.0
C4438 C 0.90143 0.75754 0.10412 0.0
C4439 C 0.9149 0.76613 0.09536 0.0
H4440 H 0.88566 0.73478 0.10589 0.0
C4441 C 0.92324 0.75779 0.08142 0.0
H4442 H 0.89473 0.76371 0.11485 0.0
C4443 C 0.9183 0.74094 0.07655 0.0
C4444 C 0.90461 0.73253 0.08519 0.0
H4445 H 0.93369 0.76418 0.07451 0.0
H4446 H 0.92495 0.73463 0.06588 0.0
C4447 C 0.89619 0.74102 0.09894 0.0
C4448 C 0.40132 0.75754 0.39578 0.0
C4449 C 0.41484 0.7662 0.40441 0.0
H4450 H 0.3855 0.73478 0.39431 0.0
C4451 C 0.42322 0.75797 0.41839 0.0
H4452 H 0.39458 0.76362 0.38503 0.0
C4453 C 0.41828 0.74117 0.42344 0.0
C4454 C 0.40454 0.7327 0.41494 0.0
H4455 H 0.43371 0.7644 0.42521 0.0
H4456 H 0.42497 0.73495 0.43414 0.0
C4457 C 0.39607 0.74108 0.40115 0.0
C4458 C 0.25777 0.89532 0.40057 0.0
C4459 C 0.26634 0.90389 0.41418 0.0
H4460 H 0.2351 0.89389 0.38462 0.0
C4461 C 0.25807 0.91782 0.42258 0.0
H4462 H 0.2639 0.8846 0.39381 0.0
C4463 C 0.24129 0.92287 0.41759 0.0
C4464 C 0.23289 0.91443 0.40376 0.0
H4465 H 0.26444 0.92459 0.43315 0.0
H4466 H 0.23503 0.93353 0.42431 0.0
C4467 C 0.24133 0.90069 0.39526 0.0
C4468 C 0.0814 0.75848 0.42314 0.0
C4469 C 0.09524 0.76679 0.41463 0.0
H4470 H 0.06587 0.73533 0.42511 0.0
C4471 C 0.10383 0.75815 0.40107 0.0
H4472 H 0.07461 0.7649 0.43367 0.0
C4473 C 0.09859 0.74162 0.39593 0.0
C4474 C 0.08495 0.73315 0.40454 0.0
H4475 H 0.11448 0.7643 0.39423 0.0
H4476 H 0.10541 0.73535 0.38534 0.0
C4477 C 0.07647 0.74161 0.41831 0.0
C4478 C 0.42342 0.24853 0.60253 0.0
C4479 C 0.41704 0.23384 0.5938 0.0
H4480 H 0.42353 0.27639 0.60414 0.0
C4481 C 0.40587 0.23603 0.57956 0.0
H4482 H 0.43206 0.24711 0.61355 0.0
C4483 C 0.40056 0.25268 0.57459 0.0
C4484 C 0.4069 0.26735 0.58337 0.0
H4485 H 0.40072 0.22486 0.57272 0.0
H4486 H 0.39146 0.25412 0.56396 0.0
C4487 C 0.41862 0.2652 0.59714 0.0
C4488 C 0.10367 0.24084 0.59934 0.0
C4489 C 0.0952 0.2324 0.58558 0.0
H4490 H 0.10507 0.26341 0.61542 0.0
C4491 C 0.08137 0.24077 0.57712 0.0
H4492 H 0.11429 0.23462 0.60615 0.0
C4493 C 0.07635 0.25754 0.58216 0.0
C4494 C 0.08473 0.26583 0.59611 0.0
H4495 H 0.07468 0.2345 0.56645 0.0
H4496 H 0.0658 0.2639 0.57538 0.0
C4497 C 0.09833 0.25727 0.6047 0.0
C4498 C 0.10347 0.90108 0.241 0.0
C4499 C 0.09498 0.91482 0.23254 0.0
H4500 H 0.10497 0.8851 0.26364 0.0
C4501 C 0.08124 0.92336 0.24097 0.0
H4502 H 0.11404 0.89422 0.23474 0.0
C4503 C 0.07631 0.9184 0.25781 0.0
C4504 C 0.0847 0.90447 0.26611 0.0
H4505 H 0.07454 0.93402 0.23469 0.0
H4506 H 0.06581 0.92524 0.2642 0.0
C4507 C 0.09822 0.89581 0.2575 0.0
C4508 C 0.42356 0.5816 0.25839 0.0
C4509 C 0.41517 0.59555 0.26665 0.0
H4510 H 0.42542 0.566 0.23526 0.0
C4511 C 0.40176 0.6043 0.25794 0.0
H4512 H 0.43397 0.57469 0.26485 0.0
C4513 C 0.39662 0.59907 0.2414 0.0
C4514 C 0.40509 0.58531 0.23299 0.0
H4515 H 0.39502 0.61504 0.26405 0.0
H4516 H 0.38613 0.606 0.23507 0.0
C4517 C 0.41874 0.57669 0.24151 0.0
C4518 C 0.39626 0.09925 0.74174 0.0
C4519 C 0.40473 0.08556 0.7332 0.0
H4520 H 0.39483 0.11515 0.76445 0.0
C4521 C 0.41853 0.07702 0.74154 0.0
H4522 H 0.38564 0.10611 0.73556 0.0
C4523 C 0.42353 0.08193 0.75837 0.0
C4524 C 0.41515 0.09581 0.76675 0.0
H4525 H 0.42523 0.0664 0.73519 0.0
H4526 H 0.43407 0.07509 0.76469 0.0
C4527 C 0.40157 0.10447 0.75823 0.0
C4528 C 0.09503 0.41985 0.76444 0.0
C4529 C 0.0824 0.40693 0.76671 0.0
H4530 H 0.11046 0.43423 0.7462 0.0
C4531 C 0.0745 0.39942 0.75209 0.0
H4532 H 0.10135 0.4257 0.77558 0.0
C4533 C 0.07924 0.40473 0.73538 0.0
C4534 C 0.09241 0.41711 0.7331 0.0
H4535 H 0.06473 0.38941 0.75362 0.0
H4536 H 0.07313 0.39866 0.72424 0.0
C4537 C 0.10025 0.42467 0.74772 0.0
C4538 C 0.42305 0.7424 0.08174 0.0
C4539 C 0.41453 0.73392 0.09548 0.0
H4540 H 0.42484 0.76564 0.06633 0.0
C4541 C 0.40076 0.74231 0.10396 0.0
H4542 H 0.43374 0.73617 0.07505 0.0
C4543 C 0.39542 0.75877 0.09872 0.0
C4544 C 0.40405 0.76743 0.0852 0.0
H4545 H 0.39391 0.73601 0.11452 0.0
H4546 H 0.38467 0.76486 0.10546 0.0
C4547 C 0.41802 0.75921 0.07682 0.0
C4548 C 0.41818 0.24119 0.92353 0.0
C4549 C 0.40439 0.23276 0.91506 0.0
H4550 H 0.43359 0.26442 0.92535 0.0
C4551 C 0.39583 0.24122 0.90137 0.0
H4552 H 0.42494 0.23491 0.93415 0.0
C4553 C 0.40103 0.25772 0.89608 0.0
C4554 C 0.41459 0.26634 0.90468 0.0
H4555 H 0.38523 0.23496 0.89455 0.0
H4556 H 0.39422 0.26387 0.88541 0.0
C4557 C 0.42306 0.25803 0.91856 0.0
C4558 C 0.10402 0.25854 0.90128 0.0
C4559 C 0.09552 0.26719 0.91489 0.0
H4560 H 0.10547 0.23573 0.88553 0.0
C4561 C 0.08172 0.25889 0.92349 0.0
H4562 H 0.11463 0.26469 0.89438 0.0
C4563 C 0.07675 0.24202 0.91869 0.0
C4564 C 0.08513 0.23354 0.90487 0.0
H4565 H 0.07501 0.26531 0.93405 0.0
H4566 H 0.0662 0.23574 0.92556 0.0
C4567 C 0.09872 0.24201 0.89617 0.0
C4568 C 0.74149 0.60459 0.09954 0.0
C4569 C 0.733 0.5961 0.08582 0.0
H4570 H 0.76408 0.60595 0.11561 0.0
C4571 C 0.74133 0.58221 0.0774 0.0
H4572 H 0.73532 0.61526 0.10632 0.0
C4573 C 0.75808 0.57714 0.08245 0.0
C4574 C 0.76641 0.58553 0.09637 0.0
H4575 H 0.73502 0.5755 0.06676 0.0
H4576 H 0.76439 0.56653 0.0757 0.0
C4577 C 0.75791 0.5992 0.10491 0.0
C4578 C 0.90079 0.25332 0.92638 0.0
C4579 C 0.90647 0.26791 0.91705 0.0
H4580 H 0.90146 0.22554 0.92869 0.0
C4581 C 0.91753 0.26571 0.90277 0.0
H4582 H 0.89219 0.25482 0.93742 0.0
C4583 C 0.92233 0.24903 0.89744 0.0
C4584 C 0.9166 0.23439 0.9067 0.0
H4585 H 0.92192 0.27685 0.89536 0.0
H4586 H 0.93045 0.24755 0.88604 0.0
C4587 C 0.9061 0.23667 0.92143 0.0
C4588 C 0.25829 0.41826 0.92314 0.0
C4589 C 0.26669 0.40438 0.91476 0.0
H4590 H 0.23522 0.43393 0.92468 0.0
C4591 C 0.2583 0.39593 0.90095 0.0
H4592 H 0.26451 0.42494 0.93384 0.0
C4593 C 0.24193 0.40133 0.89545 0.0
C4594 C 0.23336 0.41499 0.90396 0.0
H4595 H 0.26453 0.38527 0.8942 0.0
H4596 H 0.23584 0.3946 0.88469 0.0
C4597 C 0.24158 0.42334 0.91796 0.0
C4598 C 0.07603 0.75783 0.08141 0.0
C4599 C 0.08442 0.76603 0.0954 0.0
H4600 H 0.07413 0.73478 0.0657 0.0
C4601 C 0.0978 0.75725 0.10412 0.0
H4602 H 0.06563 0.76435 0.07452 0.0
C4603 C 0.10292 0.74073 0.09883 0.0
C4604 C 0.09445 0.73239 0.08501 0.0
H4605 H 0.10455 0.7633 0.11489 0.0
H4606 H 0.1134 0.73435 0.10574 0.0
C4607 C 0.08082 0.74097 0.07643 0.0
C4608 C 0.0883 0.12988 0.1651 0.0
C4609 C 0.08065 0.11422 0.15974 0.0
H4610 H 0.09143 0.15708 0.16026 0.0
C4611 C 0.06917 0.11438 0.14553 0.0
H4612 H 0.09716 0.13016 0.17603 0.0
C4613 C 0.06611 0.12972 0.1363 0.0
C4614 C 0.07418 0.14527 0.14134 0.0
H4615 H 0.06311 0.1025 0.14105 0.0
H4616 H 0.05773 0.12932 0.12501 0.0
C4617 C 0.08495 0.14529 0.1561 0.0
C4618 C 0.35474 0.08501 0.15728 0.0
C4619 C 0.35473 0.07418 0.14256 0.0
H4620 H 0.36992 0.0973 0.17712 0.0
C4621 C 0.37025 0.06604 0.13755 0.0
H4622 H 0.34299 0.09153 0.16142 0.0
C4623 C 0.3856 0.06912 0.14673 0.0
C4624 C 0.3858 0.08069 0.16088 0.0
H4625 H 0.37062 0.05761 0.12629 0.0
H4626 H 0.39746 0.06303 0.14226 0.0
C4627 C 0.37017 0.08838 0.16624 0.0
C4628 C 0.43047 0.38561 0.14575 0.0
C4629 C 0.41889 0.38591 0.15989 0.0
H4630 H 0.44205 0.3705 0.12546 0.0
C4631 C 0.41122 0.3703 0.16537 0.0
H4632 H 0.43657 0.39743 0.14117 0.0
C4633 C 0.41463 0.3548 0.15652 0.0
C4634 C 0.42549 0.3547 0.14182 0.0
H4635 H 0.4023 0.37013 0.17625 0.0
H4636 H 0.40814 0.34305 0.16073 0.0
C4637 C 0.43359 0.3702 0.1367 0.0
C4638 C 0.14495 0.41532 0.15668 0.0
C4639 C 0.14487 0.4261 0.14192 0.0
H4640 H 0.12988 0.40302 0.1766 0.0
C4641 C 0.1293 0.43413 0.1369 0.0
H4642 H 0.15675 0.40888 0.16083 0.0
C4643 C 0.11398 0.431 0.14613 0.0
C4644 C 0.11388 0.41948 0.16032 0.0
H4645 H 0.12886 0.44252 0.12562 0.0
H4646 H 0.10208 0.43701 0.14166 0.0
C4647 C 0.12956 0.4119 0.16568 0.0
C4648 C 0.08841 0.8697 0.83482 0.0
C4649 C 0.08066 0.88536 0.84003 0.0
H4650 H 0.0915 0.8425 0.83979 0.0
C4651 C 0.06897 0.88521 0.85407 0.0
H4652 H 0.09743 0.86942 0.82402 0.0
C4653 C 0.06581 0.86989 0.86328 0.0
C4654 C 0.07397 0.85434 0.85841 0.0
H4655 H 0.06282 0.89708 0.85844 0.0
H4656 H 0.05725 0.87031 0.87445 0.0
C4657 C 0.08495 0.85429 0.8438 0.0
C4658 C 0.61428 0.06923 0.85414 0.0
C4659 C 0.61417 0.08074 0.83995 0.0
H4660 H 0.62914 0.05777 0.87472 0.0
C4661 C 0.62984 0.0884 0.83465 0.0
H4662 H 0.60239 0.06316 0.85857 0.0
C4663 C 0.64521 0.08505 0.84371 0.0
C4664 C 0.64513 0.07427 0.85847 0.0
H4665 H 0.63016 0.09727 0.82373 0.0
H4666 H 0.657 0.09154 0.83961 0.0
C4667 C 0.62958 0.06617 0.86343 0.0
C4668 C 0.41183 0.63005 0.83542 0.0
C4669 C 0.41943 0.61439 0.84086 0.0
H4670 H 0.40873 0.65726 0.84018 0.0
C4671 C 0.43085 0.61457 0.85513 0.0
H4672 H 0.40303 0.63031 0.82445 0.0
C4673 C 0.43388 0.62993 0.86433 0.0
C4674 C 0.42585 0.64548 0.85922 0.0
H4675 H 0.43686 0.60269 0.85967 0.0
H4676 H 0.44221 0.62955 0.87567 0.0
C4677 C 0.41516 0.64548 0.8444 0.0
C4678 C 0.86956 0.43422 0.86332 0.0
C4679 C 0.85407 0.42601 0.85835 0.0
H4680 H 0.89673 0.43741 0.85849 0.0
C4681 C 0.85407 0.41522 0.8436 0.0
H4682 H 0.86993 0.44263 0.8746 0.0
C4683 C 0.86947 0.41197 0.83455 0.0
C4684 C 0.88508 0.41974 0.83987 0.0
H4685 H 0.84233 0.40865 0.83949 0.0
H4686 H 0.86923 0.40308 0.82365 0.0
C4687 C 0.88488 0.43127 0.85405 0.0
C4688 C 0.15573 0.08529 0.14499 0.0
C4689 C 0.14094 0.07456 0.14471 0.0
H4690 H 0.17575 0.0977 0.13016 0.0
C4691 C 0.13595 0.06678 0.129 0.0
H4692 H 0.15986 0.09154 0.1569 0.0
C4693 C 0.14524 0.07007 0.11376 0.0
C4694 C 0.15948 0.08152 0.11387 0.0
H4695 H 0.12463 0.05843 0.12841 0.0
H4696 H 0.1408 0.06424 0.10175 0.0
C4697 C 0.1648 0.08889 0.12968 0.0
C4698 C 0.43362 0.13578 0.12976 0.0
C4699 C 0.42573 0.14091 0.14537 0.0
H4700 H 0.43638 0.14042 0.10249 0.0
C4701 C 0.41506 0.15575 0.14546 0.0
H4702 H 0.44192 0.12443 0.12932 0.0
C4703 C 0.41162 0.16472 0.13005 0.0
C4704 C 0.41908 0.15926 0.11434 0.0
H4705 H 0.40873 0.15999 0.15729 0.0
H4706 H 0.40285 0.17572 0.13038 0.0
C4707 C 0.43048 0.14498 0.11442 0.0
C4708 C 0.36296 0.43359 0.12967 0.0
C4709 C 0.35833 0.42549 0.14533 0.0
H4710 H 0.35785 0.43632 0.10251 0.0
C4711 C 0.34386 0.41436 0.14561 0.0
H4712 H 0.37403 0.44226 0.12908 0.0
C4713 C 0.33477 0.41067 0.13031 0.0
C4714 C 0.33976 0.41835 0.11454 0.0
H4715 H 0.34004 0.40785 0.15749 0.0
H4716 H 0.32408 0.40153 0.13077 0.0
C4717 C 0.35366 0.43021 0.11447 0.0
C4718 C 0.08801 0.33536 0.12952 0.0
C4719 C 0.08052 0.34083 0.11382 0.0
H4720 H 0.09098 0.34009 0.15675 0.0
C4721 C 0.06915 0.35514 0.11394 0.0
H4722 H 0.09677 0.32436 0.12983 0.0
C4723 C 0.06607 0.36435 0.1293 0.0
C4724 C 0.07398 0.35919 0.1449 0.0
H4725 H 0.06322 0.35971 0.10203 0.0
H4726 H 0.05778 0.37571 0.12887 0.0
C4727 C 0.08462 0.34434 0.14494 0.0
C4728 C 0.15579 0.91447 0.85497 0.0
C4729 C 0.14097 0.92516 0.85523 0.0
H4730 H 0.17582 0.9021 0.86983 0.0
C4731 C 0.13593 0.93292 0.87094 0.0
H4732 H 0.15995 0.90824 0.84307 0.0
C4733 C 0.14521 0.92963 0.8862 0.0
C4734 C 0.15948 0.91822 0.8861 0.0
H4735 H 0.1246 0.94123 0.87152 0.0
H4736 H 0.14073 0.93545 0.8982 0.0
C4737 C 0.16485 0.91089 0.8703 0.0
C4738 C 0.5849 0.15586 0.85497 0.0
C4739 C 0.57425 0.14101 0.85507 0.0
H4740 H 0.59705 0.17589 0.87002 0.0
C4741 C 0.56633 0.13592 0.87068 0.0
H4742 H 0.59126 0.16007 0.84315 0.0
C4743 C 0.56942 0.14517 0.886 0.0
C4744 C 0.58079 0.15947 0.88607 0.0
H4745 H 0.55804 0.12456 0.87114 0.0
H4746 H 0.56348 0.14064 0.89793 0.0
C4747 C 0.58829 0.16489 0.87036 0.0
C4748 C 0.36407 0.56683 0.87148 0.0
C4749 C 0.35909 0.57467 0.85579 0.0
H4750 H 0.3592 0.56423 0.89872 0.0
C4751 C 0.34433 0.58543 0.85554 0.0
H4752 H 0.37536 0.55847 0.87205 0.0
C4753 C 0.33526 0.589 0.87085 0.0
C4754 C 0.34056 0.58158 0.88664 0.0
H4755 H 0.34022 0.59172 0.84364 0.0
H4756 H 0.32432 0.59783 0.87039 0.0
C4757 C 0.35477 0.5701 0.88673 0.0
C4758 C 0.93295 0.36471 0.87091 0.0
C4759 C 0.92495 0.35962 0.85535 0.0
H4760 H 0.93592 0.36004 0.89811 0.0
C4761 C 0.91423 0.34482 0.85531 0.0
H4762 H 0.94131 0.37603 0.87132 0.0
C4763 C 0.91087 0.33582 0.87073 0.0
C4764 C 0.91847 0.34123 0.8864 0.0
H4765 H 0.90781 0.34064 0.84351 0.0
H4766 H 0.90206 0.32485 0.87045 0.0
C4767 C 0.92989 0.3555 0.88624 0.0
C4768 C 0.12959 0.16597 0.08838 0.0
C4769 C 0.11391 0.16059 0.08082 0.0
H4770 H 0.15679 0.16114 0.09138 0.0
C4771 C 0.11401 0.14639 0.06931 0.0
H4772 H 0.12991 0.17689 0.09725 0.0
C4773 C 0.12933 0.13717 0.06618 0.0
C4774 C 0.14491 0.1422 0.07419 0.0
H4775 H 0.10211 0.1419 0.06332 0.0
H4776 H 0.1289 0.12588 0.0578 0.0
C4777 C 0.14499 0.15698 0.08495 0.0
C4778 C 0.14489 0.34324 0.41559 0.0
C4779 C 0.14475 0.35797 0.42641 0.0
H4780 H 0.1299 0.32333 0.40318 0.0
C4781 C 0.12914 0.36294 0.43438 0.0
H4782 H 0.15673 0.33913 0.40919 0.0
C4783 C 0.11385 0.3537 0.43117 0.0
C4784 C 0.11381 0.33954 0.41961 0.0
H4785 H 0.12865 0.37421 0.44281 0.0
H4786 H 0.10192 0.35814 0.43714 0.0
C4787 C 0.12953 0.33423 0.41208 0.0
C4788 C 0.1458 0.11357 0.43066 0.0
C4789 C 0.16004 0.11364 0.41921 0.0
H4790 H 0.12516 0.12825 0.44222 0.0
C4791 C 0.16533 0.12942 0.41178 0.0
H4792 H 0.14137 0.10159 0.43655 0.0
C4793 C 0.15624 0.14474 0.41529 0.0
C4794 C 0.14145 0.14449 0.42601 0.0
H4795 H 0.17629 0.12988 0.40296 0.0
H4796 H 0.16035 0.15662 0.40897 0.0
C4797 C 0.13648 0.12881 0.43388 0.0
C4798 C 0.35504 0.15698 0.41553 0.0
C4799 C 0.35514 0.14225 0.42635 0.0
H4800 H 0.37008 0.1769 0.40318 0.0
C4801 C 0.37073 0.13729 0.43439 0.0
H4802 H 0.34324 0.16109 0.40908 0.0
C4803 C 0.38603 0.14654 0.43124 0.0
C4804 C 0.38611 0.1607 0.41969 0.0
H4805 H 0.37119 0.12603 0.44281 0.0
H4806 H 0.39794 0.14211 0.43726 0.0
C4807 C 0.37041 0.16601 0.41208 0.0
C4808 C 0.35397 0.88672 0.93017 0.0
C4809 C 0.33978 0.88659 0.91866 0.0
H4810 H 0.37455 0.87209 0.9419 0.0
C4811 C 0.3345 0.87078 0.91129 0.0
H4812 H 0.35839 0.89873 0.93601 0.0
C4813 C 0.34357 0.85547 0.91493 0.0
C4814 C 0.35831 0.85577 0.92572 0.0
H4815 H 0.32358 0.87028 0.90243 0.0
H4816 H 0.33948 0.84356 0.90866 0.0
C4817 C 0.36327 0.87149 0.93351 0.0
C4818 C 0.87057 0.86286 0.06561 0.0
C4819 C 0.85498 0.85791 0.07364 0.0
H4820 H 0.89778 0.85804 0.06278 0.0
C4821 C 0.85486 0.84319 0.08448 0.0
H4822 H 0.87104 0.87412 0.05718 0.0
C4823 C 0.87022 0.83417 0.08795 0.0
C4824 C 0.88592 0.83947 0.08036 0.0
H4825 H 0.84304 0.8391 0.09092 0.0
H4826 H 0.86987 0.82329 0.09687 0.0
C4827 C 0.88586 0.85361 0.06879 0.0
C4828 C 0.16551 0.87066 0.58829 0.0
C4829 C 0.16019 0.88649 0.58098 0.0
H4830 H 0.16057 0.84344 0.59087 0.0
C4831 C 0.14595 0.88663 0.56953 0.0
H4832 H 0.17647 0.87015 0.5971 0.0
C4833 C 0.13666 0.8714 0.56618 0.0
C4834 C 0.14165 0.85567 0.57392 0.0
H4835 H 0.14151 0.89866 0.56373 0.0
H4836 H 0.12534 0.87202 0.55784 0.0
C4837 C 0.15645 0.85536 0.58464 0.0
C4838 C 0.35471 0.61329 0.57021 0.0
C4839 C 0.34047 0.61326 0.58167 0.0
H4840 H 0.37522 0.62811 0.55862 0.0
C4841 C 0.33507 0.62901 0.58909 0.0
H4842 H 0.35922 0.60133 0.56433 0.0
C4843 C 0.34405 0.6444 0.58555 0.0
C4844 C 0.35883 0.64426 0.57481 0.0
H4845 H 0.32412 0.6294 0.59792 0.0
H4846 H 0.33985 0.65625 0.59186 0.0
C4847 C 0.36391 0.6286 0.56697 0.0
C4848 C 0.93022 0.8862 0.85532 0.0
C4849 C 0.91882 0.88652 0.84104 0.0
H4850 H 0.94157 0.87107 0.87574 0.0
C4851 C 0.91119 0.87092 0.83548 0.0
H4852 H 0.93628 0.89802 0.85997 0.0
C4853 C 0.91449 0.85541 0.84436 0.0
C4854 C 0.92519 0.85529 0.85917 0.0
H4855 H 0.9024 0.87076 0.82449 0.0
H4856 H 0.90804 0.84367 0.84005 0.0
C4857 C 0.93323 0.87078 0.8644 0.0
C4858 C 0.64447 0.91544 0.8435 0.0
C4859 C 0.64439 0.92622 0.85826 0.0
H4860 H 0.6294 0.90311 0.8236 0.0
C4861 C 0.62881 0.93421 0.86329 0.0
H4862 H 0.65628 0.90902 0.83934 0.0
C4863 C 0.61349 0.93105 0.85408 0.0
C4864 C 0.61339 0.91954 0.83989 0.0
H4865 H 0.62837 0.94261 0.87458 0.0
H4866 H 0.60158 0.93704 0.85857 0.0
C4867 C 0.62908 0.91198 0.83452 0.0
C4868 C 0.5661 0.62956 0.86397 0.0
C4869 C 0.57406 0.64515 0.85887 0.0
H4870 H 0.56329 0.6023 0.85932 0.0
C4871 C 0.58479 0.6452 0.84408 0.0
H4872 H 0.55775 0.62914 0.87529 0.0
C4873 C 0.58823 0.62978 0.83512 0.0
C4874 C 0.5807 0.61409 0.84056 0.0
H4875 H 0.59117 0.65701 0.83987 0.0
H4876 H 0.59706 0.63008 0.82417 0.0
C4877 C 0.56925 0.61421 0.85479 0.0
C4878 C 0.85456 0.58458 0.84374 0.0
C4879 C 0.85454 0.57374 0.85846 0.0
H4880 H 0.86973 0.59685 0.82389 0.0
C4881 C 0.87005 0.56558 0.86346 0.0
H4882 H 0.8428 0.59112 0.83962 0.0
C4883 C 0.8854 0.56864 0.85426 0.0
C4884 C 0.8856 0.58022 0.84012 0.0
H4885 H 0.87042 0.55714 0.87471 0.0
H4886 H 0.89725 0.56253 0.85873 0.0
C4887 C 0.86998 0.58793 0.83477 0.0
C4888 C 0.91153 0.12976 0.16535 0.0
C4889 C 0.91913 0.11413 0.15984 0.0
H4890 H 0.90849 0.15702 0.1607 0.0
C4891 C 0.93061 0.11439 0.14563 0.0
H4892 H 0.90268 0.12997 0.17628 0.0
C4893 C 0.93372 0.12978 0.13654 0.0
C4894 C 0.9257 0.1453 0.1417 0.0
H4895 H 0.93666 0.10254 0.14103 0.0
H4896 H 0.94211 0.12944 0.12525 0.0
C4897 C 0.91493 0.14525 0.15646 0.0
C4898 C 0.36999 0.91143 0.16613 0.0
C4899 C 0.38555 0.91926 0.16076 0.0
H4900 H 0.34278 0.90821 0.16141 0.0
C4901 C 0.38519 0.93097 0.14672 0.0
H4902 H 0.36985 0.9024 0.17692 0.0
C4903 C 0.36979 0.93408 0.13767 0.0
C4904 C 0.35434 0.92583 0.14268 0.0
H4905 H 0.39698 0.9372 0.14223 0.0
H4906 H 0.37006 0.94265 0.12651 0.0
C4907 C 0.35448 0.91483 0.15728 0.0
C4908 C 0.58483 0.35503 0.15641 0.0
C4909 C 0.57407 0.35507 0.14164 0.0
H4910 H 0.59709 0.37015 0.17632 0.0
C4911 C 0.56604 0.37064 0.1366 0.0
H4912 H 0.59127 0.34323 0.16057 0.0
C4913 C 0.56914 0.38598 0.14581 0.0
C4914 C 0.58063 0.38611 0.16002 0.0
H4915 H 0.55765 0.37105 0.1253 0.0
H4916 H 0.56312 0.39787 0.14131 0.0
C4917 C 0.58823 0.37044 0.16539 0.0
C4918 C 0.12953 0.58802 0.16566 0.0
C4919 C 0.11387 0.58041 0.1603 0.0
H4920 H 0.15671 0.59113 0.1608 0.0
C4921 C 0.114 0.56894 0.14607 0.0
H4922 H 0.12983 0.59686 0.17661 0.0
C4923 C 0.12932 0.56588 0.13682 0.0
C4924 C 0.14488 0.57394 0.14185 0.0
H4925 H 0.1021 0.56291 0.14159 0.0
H4926 H 0.1289 0.55752 0.12551 0.0
C4927 C 0.14492 0.58467 0.15664 0.0
C4928 C 0.86295 0.93433 0.8707 0.0
C4929 C 0.85837 0.92626 0.85501 0.0
H4930 H 0.85774 0.93703 0.89785 0.0
C4931 C 0.84386 0.91516 0.85466 0.0
H4932 H 0.87404 0.94297 0.87135 0.0
C4933 C 0.83471 0.91147 0.86992 0.0
C4934 C 0.83965 0.91912 0.88572 0.0
H4935 H 0.84008 0.90867 0.84276 0.0
H4936 H 0.824 0.90236 0.86941 0.0
C4937 C 0.85357 0.93095 0.88586 0.0
C4938 C 0.56582 0.86428 0.8709 0.0
C4939 C 0.57365 0.85915 0.85525 0.0
H4940 H 0.56313 0.85962 0.89817 0.0
C4941 C 0.5843 0.8443 0.85513 0.0
H4942 H 0.55753 0.87565 0.87137 0.0
C4943 C 0.58778 0.83531 0.87052 0.0
C4944 C 0.58037 0.84076 0.88625 0.0
H4945 H 0.59059 0.84006 0.84328 0.0
H4946 H 0.59654 0.82431 0.87015 0.0
C4947 C 0.569 0.85506 0.88622 0.0
C4948 C 0.64533 0.56997 0.88663 0.0
C4949 C 0.65955 0.58144 0.88658 0.0
H4950 H 0.62478 0.55831 0.87191 0.0
C4951 C 0.6649 0.58882 0.87079 0.0
H4952 H 0.64085 0.56412 0.89862 0.0
C4953 C 0.65589 0.58522 0.85545 0.0
C4954 C 0.64111 0.57448 0.85567 0.0
H4955 H 0.67585 0.59765 0.87035 0.0
H4956 H 0.66004 0.5915 0.84356 0.0
C4957 C 0.63608 0.56667 0.87136 0.0
C4958 C 0.9148 0.6554 0.8552 0.0
C4959 C 0.92548 0.64058 0.85543 0.0
H4960 H 0.90259 0.67551 0.87008 0.0
C4961 C 0.93339 0.6356 0.87108 0.0
H4962 H 0.90846 0.65951 0.84333 0.0
C4963 C 0.93026 0.64496 0.88632 0.0
C4964 C 0.91887 0.65924 0.88627 0.0
H4965 H 0.9417 0.62426 0.87163 0.0
H4966 H 0.93619 0.64053 0.89829 0.0
C4967 C 0.91138 0.66453 0.87052 0.0
C4968 C 0.84405 0.0856 0.1457 0.0
C4969 C 0.85854 0.07448 0.14548 0.0
H4970 H 0.82426 0.09832 0.13078 0.0
C4971 C 0.86318 0.0663 0.12986 0.0
H4972 H 0.84022 0.09217 0.15754 0.0
C4973 C 0.85386 0.06959 0.11464 0.0
C4974 C 0.83995 0.08143 0.11464 0.0
H4975 H 0.87425 0.05764 0.12932 0.0
H4976 H 0.85807 0.06342 0.10271 0.0
C4977 C 0.83495 0.08919 0.13038 0.0
C4978 C 0.41085 0.83543 0.1303 0.0
C4979 C 0.4186 0.84058 0.1146 0.0
H4980 H 0.40784 0.84046 0.1575 0.0
C4981 C 0.43037 0.85456 0.11472 0.0
H4982 H 0.40178 0.82468 0.13061 0.0
C4983 C 0.4336 0.86377 0.13002 0.0
C4984 C 0.42544 0.85896 0.1456 0.0
H4985 H 0.43652 0.85889 0.10283 0.0
H4986 H 0.44221 0.87489 0.12957 0.0
C4987 C 0.41439 0.84442 0.14569 0.0
C4988 C 0.64542 0.43044 0.11407 0.0
C4989 C 0.65963 0.41896 0.11413 0.0
H4990 H 0.62482 0.44204 0.12877 0.0
C4991 C 0.66492 0.4115 0.1299 0.0
H4992 H 0.64099 0.43635 0.10209 0.0
C4993 C 0.65584 0.41503 0.14523 0.0
C4994 C 0.64108 0.42579 0.145 0.0
H4995 H 0.67585 0.40265 0.13034 0.0
H4996 H 0.65995 0.4087 0.15711 0.0
C4997 C 0.63612 0.43367 0.12933 0.0
C4998 C 0.08777 0.66448 0.12969 0.0
C4999 C 0.08017 0.65905 0.11404 0.0
H5000 H 0.09091 0.6597 0.1569 0.0
C5001 C 0.06877 0.64476 0.11421 0.0
H5002 H 0.09656 0.67546 0.12996 0.0
C5003 C 0.06577 0.63554 0.12956 0.0
C5004 C 0.0738 0.64065 0.14511 0.0
H5005 H 0.06276 0.64022 0.10233 0.0
H5006 H 0.05746 0.62419 0.12917 0.0
C5007 C 0.08447 0.65548 0.14512 0.0
C5008 C 0.86965 0.83442 0.91151 0.0
C5009 C 0.88529 0.83971 0.91922 0.0
H5010 H 0.84251 0.83941 0.90826 0.0
C5011 C 0.88517 0.85392 0.93071 0.0
H5012 H 0.86935 0.82349 0.90265 0.0
C5013 C 0.86988 0.86323 0.93369 0.0
C5014 C 0.85435 0.85829 0.92554 0.0
H5015 H 0.89705 0.85835 0.93681 0.0
H5016 H 0.8703 0.87453 0.94207 0.0
C5017 C 0.85428 0.8435 0.91479 0.0
C5018 C 0.87037 0.63733 0.56668 0.0
C5019 C 0.8549 0.64234 0.57489 0.0
H5020 H 0.89757 0.6419 0.56363 0.0
C5021 C 0.85501 0.65695 0.58587 0.0
H5022 H 0.87067 0.62615 0.55813 0.0
C5023 C 0.87049 0.66582 0.58929 0.0
C5024 C 0.88608 0.66044 0.58151 0.0
H5025 H 0.84328 0.66108 0.59245 0.0
H5026 H 0.87032 0.67662 0.59831 0.0
C5027 C 0.88576 0.64639 0.56982 0.0
C5028 C 0.85357 0.88527 0.57074 0.0
C5029 C 0.83961 0.88522 0.58251 0.0
H5030 H 0.87404 0.87064 0.55885 0.0
C5031 C 0.8346 0.86947 0.59023 0.0
H5032 H 0.85779 0.89721 0.56461 0.0
C5033 C 0.84373 0.85417 0.58666 0.0
C5034 C 0.85827 0.85443 0.5756 0.0
H5035 H 0.82386 0.86904 0.59931 0.0
H5036 H 0.83989 0.84231 0.59318 0.0
C5037 C 0.86292 0.87007 0.56746 0.0
C5038 C 0.6291 0.86317 0.56613 0.0
C5039 C 0.64471 0.85813 0.57409 0.0
H5040 H 0.60187 0.85844 0.56334 0.0
C5041 C 0.64481 0.84334 0.58483 0.0
H5042 H 0.62865 0.87449 0.55777 0.0
C5043 C 0.62943 0.83434 0.58829 0.0
C5044 C 0.61372 0.83973 0.58077 0.0
H5045 H 0.65663 0.83917 0.59122 0.0
H5046 H 0.62977 0.8234 0.59713 0.0
C5047 C 0.61379 0.85395 0.56929 0.0
C5048 C 0.665 0.12966 0.08853 0.0
C5049 C 0.65966 0.1139 0.0811 0.0
H5050 H 0.6601 0.15688 0.09133 0.0
C5051 C 0.64542 0.11387 0.06964 0.0
H5052 H 0.67595 0.13008 0.09736 0.0
C5053 C 0.63615 0.12915 0.06641 0.0
C5054 C 0.64117 0.14481 0.07428 0.0
H5055 H 0.64096 0.1019 0.06375 0.0
H5056 H 0.62484 0.12861 0.05806 0.0
C5057 C 0.65596 0.14501 0.08501 0.0
C5058 C 0.12976 0.16564 0.91223 0.0
C5059 C 0.11412 0.16031 0.91992 0.0
H5060 H 0.15692 0.16074 0.90907 0.0
C5061 C 0.11427 0.14615 0.93147 0.0
H5062 H 0.13004 0.17654 0.90334 0.0
C5063 C 0.12959 0.13691 0.93452 0.0
C5064 C 0.14512 0.14188 0.92639 0.0
H5065 H 0.10239 0.1417 0.93755 0.0
H5066 H 0.12919 0.12564 0.94294 0.0
C5067 C 0.14516 0.15663 0.91558 0.0
C5068 C 0.83456 0.12992 0.41082 0.0
C5069 C 0.83985 0.11413 0.41824 0.0
H5070 H 0.83954 0.15712 0.40807 0.0
C5071 C 0.85409 0.11405 0.42969 0.0
H5072 H 0.82361 0.13038 0.402 0.0
C5073 C 0.8634 0.12928 0.43294 0.0
C5074 C 0.85843 0.14497 0.4251 0.0
H5075 H 0.85851 0.10205 0.43557 0.0
H5076 H 0.87471 0.12871 0.44129 0.0
C5077 C 0.84365 0.14523 0.41437 0.0
C5078 C 0.66515 0.37083 0.41169 0.0
C5079 C 0.65984 0.38659 0.41916 0.0
H5080 H 0.66022 0.34364 0.40886 0.0
C5081 C 0.64561 0.38662 0.43062 0.0
H5082 H 0.6761 0.37041 0.40286 0.0
C5083 C 0.63632 0.37135 0.43383 0.0
C5084 C 0.64131 0.3557 0.42594 0.0
H5085 H 0.64117 0.39859 0.43654 0.0
H5086 H 0.62501 0.37189 0.44219 0.0
C5087 C 0.65609 0.3555 0.4152 0.0
C5088 C 0.08851 0.63011 0.6646 0.0
C5089 C 0.08064 0.61455 0.65927 0.0
H5090 H 0.09198 0.65726 0.65967 0.0
C5091 C 0.0691 0.61486 0.64509 0.0
H5092 H 0.09741 0.63028 0.6755 0.0
C5093 C 0.06622 0.6302 0.63587 0.0
C5094 C 0.07452 0.64563 0.64084 0.0
H5095 H 0.06285 0.60307 0.64063 0.0
H5096 H 0.05777 0.6299 0.62461 0.0
C5097 C 0.08534 0.64555 0.65558 0.0
C5098 C 0.37081 0.56565 0.63734 0.0
C5099 C 0.35522 0.57367 0.64231 0.0
H5100 H 0.39803 0.56285 0.64212 0.0
C5101 C 0.35512 0.58454 0.65701 0.0
H5102 H 0.37127 0.55719 0.6261 0.0
C5103 C 0.3705 0.58805 0.66599 0.0
C5104 C 0.38619 0.58046 0.66068 0.0
H5105 H 0.3433 0.59097 0.66111 0.0
H5106 H 0.37016 0.59698 0.67686 0.0
C5107 C 0.38612 0.56886 0.64656 0.0
C5108 C 0.43052 0.8862 0.64505 0.0
C5109 C 0.41911 0.88636 0.65932 0.0
H5110 H 0.44194 0.87122 0.62454 0.0
C5111 C 0.41156 0.87069 0.66479 0.0
H5112 H 0.43649 0.8981 0.64048 0.0
C5113 C 0.41496 0.85525 0.65584 0.0
C5114 C 0.42565 0.85526 0.64103 0.0
H5115 H 0.40277 0.87042 0.67576 0.0
H5116 H 0.40857 0.84346 0.66009 0.0
C5117 C 0.43361 0.87083 0.63588 0.0
C5118 C 0.12989 0.93405 0.63689 0.0
C5119 C 0.14539 0.92587 0.64189 0.0
H5120 H 0.10268 0.9371 0.6416 0.0
C5121 C 0.14536 0.915 0.65658 0.0
H5122 H 0.12954 0.94252 0.62566 0.0
C5123 C 0.12993 0.91163 0.66552 0.0
C5124 C 0.11431 0.91936 0.66017 0.0
H5125 H 0.1571 0.90845 0.6607 0.0
H5126 H 0.13015 0.90268 0.67638 0.0
C5127 C 0.11453 0.93097 0.64606 0.0
C5128 C 0.06622 0.37034 0.3641 0.0
C5129 C 0.07418 0.35474 0.35905 0.0
H5130 H 0.06339 0.39758 0.35935 0.0
C5131 C 0.08492 0.35464 0.34427 0.0
H5132 H 0.05786 0.37079 0.37541 0.0
C5133 C 0.08835 0.37002 0.33525 0.0
C5134 C 0.08081 0.38573 0.34063 0.0
H5135 H 0.09131 0.34282 0.3401 0.0
H5136 H 0.09718 0.36969 0.3243 0.0
C5137 C 0.06935 0.38565 0.35486 0.0
C5138 C 0.645 0.5851 0.34372 0.0
C5139 C 0.64496 0.57429 0.35847 0.0
H5140 H 0.6299 0.59739 0.32382 0.0
C5141 C 0.62941 0.56621 0.36346 0.0
H5142 H 0.65679 0.59158 0.33959 0.0
C5143 C 0.61408 0.56931 0.35423 0.0
C5144 C 0.61394 0.58085 0.34006 0.0
H5145 H 0.62899 0.55779 0.37473 0.0
H5146 H 0.6022 0.56325 0.3587 0.0
C5147 C 0.62961 0.58849 0.33472 0.0
C5148 C 0.41195 0.13011 0.33551 0.0
C5149 C 0.41959 0.11446 0.34091 0.0
H5150 H 0.40881 0.1573 0.3403 0.0
C5151 C 0.43107 0.11464 0.35513 0.0
H5152 H 0.4031 0.13036 0.32457 0.0
C5153 C 0.43411 0.12999 0.36434 0.0
C5154 C 0.42603 0.14553 0.35927 0.0
H5155 H 0.43712 0.10277 0.35965 0.0
H5156 H 0.44248 0.12962 0.37564 0.0
C5157 C 0.41528 0.14553 0.34449 0.0
C5158 C 0.87035 0.93429 0.36307 0.0
C5159 C 0.85477 0.92624 0.35808 0.0
H5160 H 0.89757 0.93716 0.35829 0.0
C5161 C 0.85469 0.91544 0.34335 0.0
H5162 H 0.87079 0.9427 0.37434 0.0
C5163 C 0.87007 0.912 0.33434 0.0
C5164 C 0.88575 0.9196 0.33967 0.0
H5165 H 0.84289 0.90899 0.33922 0.0
H5166 H 0.86974 0.9031 0.32344 0.0
C5167 C 0.88566 0.93114 0.35384 0.0
C5168 C 0.14577 0.56963 0.61419 0.0
C5169 C 0.15985 0.58127 0.61434 0.0
H5170 H 0.1251 0.55793 0.62867 0.0
C5171 C 0.16481 0.58895 0.63012 0.0
H5172 H 0.14159 0.56354 0.60221 0.0
C5173 C 0.15554 0.58545 0.64536 0.0
C5174 C 0.1409 0.57452 0.64499 0.0
H5175 H 0.17563 0.59793 0.63064 0.0
H5176 H 0.15935 0.59194 0.65725 0.0
C5177 C 0.13628 0.56644 0.62932 0.0
C5178 C 0.43065 0.64515 0.61438 0.0
C5179 C 0.41924 0.65941 0.61433 0.0
H5180 H 0.44212 0.62457 0.62921 0.0
C5181 C 0.41175 0.66481 0.63006 0.0
H5182 H 0.43658 0.64064 0.60244 0.0
C5183 C 0.4152 0.65579 0.64543 0.0
C5184 C 0.42589 0.64097 0.64531 0.0
H5185 H 0.40295 0.67578 0.63042 0.0
H5186 H 0.40885 0.65997 0.65727 0.0
C5187 C 0.4338 0.6359 0.62968 0.0
C5188 C 0.34408 0.9153 0.64435 0.0
C5189 C 0.35886 0.92604 0.64417 0.0
H5190 H 0.32415 0.90287 0.62941 0.0
C5191 C 0.36393 0.93382 0.62848 0.0
H5192 H 0.33989 0.90904 0.65624 0.0
C5193 C 0.35472 0.93052 0.61318 0.0
C5194 C 0.34049 0.91906 0.61321 0.0
H5195 H 0.37524 0.94218 0.62795 0.0
H5196 H 0.35923 0.93636 0.6012 0.0
C5197 C 0.3351 0.91169 0.62899 0.0
C5198 C 0.06968 0.855 0.61364 0.0
C5199 C 0.08116 0.84079 0.61354 0.0
H5200 H 0.05814 0.87549 0.62853 0.0
C5201 C 0.08869 0.83539 0.62924 0.0
H5202 H 0.06371 0.85951 0.60172 0.0
C5203 C 0.08523 0.84436 0.64465 0.0
C5204 C 0.07447 0.85912 0.64457 0.0
H5205 H 0.09754 0.82445 0.62956 0.0
H5206 H 0.09162 0.84018 0.65647 0.0
C5207 C 0.06652 0.8642 0.62897 0.0
C5208 C 0.13609 0.43324 0.37144 0.0
C5209 C 0.14118 0.42536 0.3558 0.0
H5210 H 0.14077 0.43593 0.39872 0.0
C5211 C 0.15596 0.41464 0.35569 0.0
H5212 H 0.12477 0.44158 0.37192 0.0
C5213 C 0.16494 0.41113 0.37108 0.0
C5214 C 0.15953 0.41857 0.38682 0.0
H5215 H 0.16016 0.40831 0.34384 0.0
H5216 H 0.17589 0.40231 0.37072 0.0
C5217 C 0.14529 0.43002 0.38677 0.0
C5218 C 0.58811 0.66509 0.37049 0.0
C5219 C 0.58059 0.65973 0.3862 0.0
H5220 H 0.59109 0.66019 0.34329 0.0
C5221 C 0.56917 0.64547 0.38616 0.0
H5222 H 0.59691 0.67606 0.37013 0.0
C5223 C 0.56607 0.63618 0.37086 0.0
C5224 C 0.57402 0.64122 0.35525 0.0
H5225 H 0.56321 0.64099 0.39809 0.0
H5226 H 0.55774 0.62485 0.37134 0.0
C5227 C 0.58471 0.65603 0.35512 0.0
C5228 C 0.35496 0.0701 0.387 0.0
C5229 C 0.34066 0.08148 0.38688 0.0
H5230 H 0.37564 0.05858 0.37237 0.0
C5231 C 0.33534 0.08884 0.37108 0.0
H5232 H 0.35941 0.06427 0.39901 0.0
C5233 C 0.34445 0.08531 0.35578 0.0
C5234 C 0.35929 0.07465 0.35606 0.0
H5235 H 0.32435 0.09761 0.37059 0.0
H5236 H 0.34031 0.09156 0.34387 0.0
C5237 C 0.36429 0.06687 0.37177 0.0
C5238 C 0.93378 0.86442 0.37062 0.0
C5239 C 0.92567 0.85928 0.35512 0.0
H5240 H 0.93684 0.85985 0.39787 0.0
C5241 C 0.91492 0.84451 0.35521 0.0
H5242 H 0.94216 0.87572 0.37093 0.0
C5243 C 0.91161 0.83561 0.37068 0.0
C5244 C 0.91929 0.84107 0.38629 0.0
H5245 H 0.90842 0.84028 0.34346 0.0
H5246 H 0.90276 0.82467 0.37049 0.0
C5247 C 0.93076 0.85529 0.38602 0.0
C5248 C 0.14566 0.65663 0.58507 0.0
C5249 C 0.14558 0.64183 0.57435 0.0
H5250 H 0.13063 0.67671 0.59716 0.0
C5251 C 0.13004 0.63689 0.56621 0.0
H5252 H 0.15744 0.66072 0.59159 0.0
C5253 C 0.11476 0.64624 0.56917 0.0
C5254 C 0.11466 0.66048 0.58062 0.0
H5255 H 0.12959 0.62557 0.55786 0.0
H5256 H 0.10288 0.64181 0.56308 0.0
C5257 C 0.13031 0.66576 0.58832 0.0
C5258 C 0.11404 0.85323 0.93049 0.0
C5259 C 0.1138 0.83919 0.91878 0.0
H5260 H 0.12903 0.87353 0.94221 0.0
C5261 C 0.12942 0.83389 0.91102 0.0
H5262 H 0.1022 0.85766 0.93666 0.0
C5263 C 0.14486 0.84281 0.91446 0.0
C5264 C 0.14489 0.85742 0.92545 0.0
H5265 H 0.12964 0.82309 0.90199 0.0
H5266 H 0.15661 0.83874 0.90789 0.0
C5267 C 0.12938 0.86236 0.93365 0.0
C5268 C 0.15616 0.64557 0.91398 0.0
C5269 C 0.14161 0.64529 0.92501 0.0
H5270 H 0.17605 0.63074 0.90131 0.0
C5271 C 0.13695 0.62964 0.93312 0.0
H5272 H 0.16 0.65744 0.90747 0.0
C5273 C 0.14631 0.61444 0.92982 0.0
C5274 C 0.16029 0.61451 0.91806 0.0
H5275 H 0.12583 0.62904 0.94171 0.0
H5276 H 0.14209 0.60249 0.93592 0.0
C5277 C 0.1653 0.63028 0.91038 0.0
C5278 C 0.38598 0.64656 0.93115 0.0
C5279 C 0.38603 0.66076 0.91965 0.0
H5280 H 0.37116 0.626 0.94267 0.0
C5281 C 0.37032 0.6661 0.91209 0.0
H5282 H 0.3979 0.64211 0.93713 0.0
C5283 C 0.35496 0.65706 0.91553 0.0
C5284 C 0.35509 0.64229 0.92629 0.0
H5285 H 0.36997 0.67702 0.90323 0.0
H5286 H 0.34315 0.66119 0.90912 0.0
C5287 C 0.37069 0.6373 0.93429 0.0
C5288 C 0.34391 0.35547 0.41477 0.0
C5289 C 0.35877 0.35584 0.42539 0.0
H5290 H 0.32369 0.37018 0.40253 0.0
C5291 C 0.36371 0.37156 0.43317 0.0
H5292 H 0.33982 0.34355 0.40852 0.0
C5293 C 0.35428 0.38674 0.42997 0.0
C5294 C 0.33996 0.38655 0.41863 0.0
H5295 H 0.37508 0.37222 0.44144 0.0
H5296 H 0.35868 0.39877 0.4358 0.0
C5297 C 0.3347 0.37072 0.41127 0.0
C5298 C 0.88564 0.35381 0.56959 0.0
C5299 C 0.8857 0.33956 0.58104 0.0
H5300 H 0.87082 0.3744 0.55813 0.0
C5301 C 0.86999 0.33419 0.58856 0.0
H5302 H 0.89757 0.3583 0.56364 0.0
C5303 C 0.85462 0.34323 0.58514 0.0
C5304 C 0.85474 0.35804 0.57443 0.0
H5305 H 0.86963 0.32323 0.59738 0.0
H5306 H 0.8428 0.33906 0.59153 0.0
C5307 C 0.87034 0.36307 0.56647 0.0
C5308 C 0.13595 0.37134 0.06645 0.0
C5309 C 0.14093 0.35564 0.07425 0.0
H5310 H 0.14082 0.39859 0.06389 0.0
C5311 C 0.1557 0.35537 0.085 0.0
H5312 H 0.12465 0.37193 0.05809 0.0
C5313 C 0.16477 0.37068 0.0886 0.0
C5314 C 0.15947 0.38648 0.08121 0.0
H5315 H 0.15982 0.34347 0.09127 0.0
H5316 H 0.17572 0.3702 0.09743 0.0
C5317 C 0.14525 0.38659 0.06975 0.0
C5318 C 0.33468 0.1295 0.08913 0.0
C5319 C 0.33997 0.11369 0.08176 0.0
H5320 H 0.33965 0.15671 0.0918 0.0
C5321 C 0.35419 0.11357 0.07028 0.0
H5322 H 0.32374 0.12998 0.09797 0.0
C5323 C 0.36349 0.12881 0.06697 0.0
C5324 C 0.35853 0.14452 0.07478 0.0
H5325 H 0.35861 0.10156 0.06443 0.0
H5326 H 0.37479 0.12821 0.05861 0.0
C5327 C 0.34375 0.1448 0.08552 0.0
C5328 C 0.91507 0.3555 0.34424 0.0
C5329 C 0.9258 0.3555 0.35903 0.0
H5330 H 0.90281 0.37068 0.32438 0.0
C5331 C 0.93375 0.37107 0.36419 0.0
H5332 H 0.90869 0.3437 0.33998 0.0
C5333 C 0.93061 0.38645 0.35507 0.0
C5334 C 0.91915 0.38662 0.34083 0.0
H5335 H 0.9421 0.37145 0.37551 0.0
H5336 H 0.93656 0.39835 0.35965 0.0
C5337 C 0.91163 0.37095 0.33534 0.0
C5338 C 0.62964 0.43463 0.36357 0.0
C5339 C 0.64515 0.42645 0.35858 0.0
H5340 H 0.60246 0.43773 0.3588 0.0
C5341 C 0.64514 0.41563 0.34385 0.0
H5342 H 0.62928 0.44306 0.37483 0.0
C5343 C 0.62972 0.41231 0.33486 0.0
C5344 C 0.61411 0.42005 0.34019 0.0
H5345 H 0.65688 0.40908 0.33974 0.0
H5346 H 0.62996 0.4034 0.32397 0.0
C5347 C 0.61431 0.43161 0.35434 0.0
C5348 C 0.56914 0.11443 0.35476 0.0
C5349 C 0.58055 0.11434 0.34049 0.0
H5350 H 0.55774 0.12932 0.37535 0.0
C5351 C 0.5881 0.13003 0.33509 0.0
H5352 H 0.56317 0.10252 0.35928 0.0
C5353 C 0.58472 0.14542 0.34411 0.0
C5354 C 0.57403 0.14535 0.35894 0.0
H5355 H 0.59689 0.13036 0.32412 0.0
H5356 H 0.59111 0.15724 0.33992 0.0
C5357 C 0.56606 0.12976 0.36401 0.0
C5358 C 0.85467 0.08556 0.34295 0.0
C5359 C 0.85456 0.0746 0.35758 0.0
H5360 H 0.87 0.09792 0.32325 0.0
C5361 C 0.87001 0.06635 0.36258 0.0
H5362 H 0.84296 0.09217 0.33884 0.0
C5363 C 0.8854 0.06943 0.35348 0.0
C5364 C 0.88572 0.0811 0.33942 0.0
H5365 H 0.8703 0.05781 0.37376 0.0
H5366 H 0.89719 0.06321 0.35797 0.0
C5367 C 0.87015 0.08892 0.33406 0.0
C5368 C 0.93108 0.61463 0.6462 0.0
C5369 C 0.91934 0.61449 0.66019 0.0
H5370 H 0.94287 0.62951 0.62585 0.0
C5371 C 0.91159 0.63017 0.66538 0.0
H5372 H 0.93724 0.60275 0.64185 0.0
C5373 C 0.91509 0.64557 0.65639 0.0
C5374 C 0.92611 0.6455 0.64181 0.0
H5375 H 0.90253 0.63047 0.67614 0.0
H5376 H 0.90854 0.65737 0.66036 0.0
C5377 C 0.93429 0.62994 0.63699 0.0
C5378 C 0.38539 0.43034 0.6468 0.0
C5379 C 0.38551 0.41884 0.661 0.0
H5380 H 0.37052 0.44177 0.62622 0.0
C5381 C 0.36984 0.41119 0.66632 0.0
H5382 H 0.39728 0.43639 0.64235 0.0
C5383 C 0.35447 0.41453 0.65727 0.0
C5384 C 0.35454 0.42529 0.64249 0.0
H5385 H 0.36953 0.40232 0.67725 0.0
H5386 H 0.34268 0.40805 0.66139 0.0
C5387 C 0.37009 0.43338 0.63752 0.0
C5388 C 0.56918 0.88584 0.64541 0.0
C5389 C 0.58058 0.88591 0.65969 0.0
H5390 H 0.55774 0.87099 0.62483 0.0
C5391 C 0.58807 0.8702 0.6651 0.0
H5392 H 0.56324 0.89778 0.64089 0.0
C5393 C 0.58466 0.85482 0.65609 0.0
C5394 C 0.57398 0.85492 0.64126 0.0
H5395 H 0.59686 0.86986 0.67609 0.0
H5396 H 0.59101 0.84299 0.66029 0.0
C5397 C 0.56605 0.87053 0.63617 0.0
C5398 C 0.1297 0.08819 0.66629 0.0
C5399 C 0.11403 0.08056 0.66096 0.0
H5400 H 0.15688 0.09125 0.66142 0.0
C5401 C 0.11415 0.069 0.6468 0.0
H5402 H 0.13 0.0971 0.67719 0.0
C5403 C 0.12947 0.06588 0.63758 0.0
C5404 C 0.14503 0.07396 0.64256 0.0
H5405 H 0.10226 0.06296 0.64235 0.0
H5406 H 0.12905 0.05746 0.62631 0.0
C5407 C 0.14509 0.08478 0.65729 0.0
C5408 C 0.84392 0.41542 0.35564 0.0
C5409 C 0.85868 0.42619 0.35592 0.0
H5410 H 0.82395 0.40294 0.37048 0.0
C5411 C 0.86367 0.43397 0.37163 0.0
H5412 H 0.8398 0.40917 0.34373 0.0
C5413 C 0.8544 0.43062 0.38688 0.0
C5414 C 0.8402 0.41913 0.38677 0.0
H5415 H 0.87497 0.44234 0.37222 0.0
H5416 H 0.85885 0.43645 0.39889 0.0
C5417 C 0.83488 0.41178 0.37096 0.0
C5418 C 0.56631 0.36487 0.37118 0.0
C5419 C 0.57413 0.35983 0.3555 0.0
H5420 H 0.56359 0.36 0.39841 0.0
C5421 C 0.58474 0.34496 0.35527 0.0
H5422 H 0.55805 0.37625 0.37174 0.0
C5423 C 0.58818 0.33584 0.37059 0.0
C5424 C 0.58077 0.34119 0.38636 0.0
H5425 H 0.59102 0.34079 0.34338 0.0
H5426 H 0.59691 0.32481 0.37014 0.0
C5427 C 0.56945 0.35552 0.38643 0.0
C5428 C 0.65571 0.08541 0.35522 0.0
C5429 C 0.64093 0.07467 0.35543 0.0
H5430 H 0.67571 0.09777 0.37014 0.0
C5431 C 0.63593 0.0668 0.3711 0.0
H5432 H 0.65984 0.09173 0.34335 0.0
C5433 C 0.64521 0.07003 0.38637 0.0
C5434 C 0.65944 0.0815 0.38633 0.0
H5435 H 0.62463 0.05844 0.37164 0.0
H5436 H 0.64076 0.06413 0.39834 0.0
C5437 C 0.66476 0.08894 0.37056 0.0
C5438 C 0.93059 0.14585 0.38536 0.0
C5439 C 0.91892 0.1599 0.38543 0.0
H5440 H 0.94232 0.1254 0.37058 0.0
C5441 C 0.91123 0.16507 0.36972 0.0
H5442 H 0.9367 0.14151 0.39728 0.0
C5443 C 0.91472 0.15602 0.35435 0.0
C5444 C 0.92568 0.1414 0.35449 0.0
H5445 H 0.90222 0.17587 0.36937 0.0
H5446 H 0.90822 0.15999 0.34252 0.0
C5447 C 0.93379 0.13658 0.37009 0.0
C5448 C 0.86376 0.56698 0.62927 0.0
C5449 C 0.85881 0.57479 0.64498 0.0
H5450 H 0.85883 0.56437 0.60204 0.0
C5451 C 0.844 0.58549 0.64528 0.0
H5452 H 0.87509 0.55865 0.62867 0.0
C5453 C 0.83488 0.58904 0.62999 0.0
C5454 C 0.84016 0.58165 0.61418 0.0
H5455 H 0.8399 0.59177 0.65719 0.0
H5456 H 0.82392 0.59784 0.63048 0.0
C5457 C 0.85441 0.57022 0.61405 0.0
C5458 C 0.43338 0.36376 0.63011 0.0
C5459 C 0.42528 0.35862 0.64561 0.0
H5460 H 0.43644 0.35924 0.60289 0.0
C5461 C 0.41448 0.34388 0.64551 0.0
H5462 H 0.44179 0.37503 0.62981 0.0
C5463 C 0.41115 0.33498 0.63001 0.0
C5464 C 0.41884 0.34045 0.61441 0.0
H5465 H 0.40798 0.33966 0.65726 0.0
H5466 H 0.40228 0.32406 0.63019 0.0
C5467 C 0.43033 0.35466 0.61471 0.0
C5468 C 0.63609 0.9334 0.62917 0.0
C5469 C 0.64108 0.92548 0.64482 0.0
H5470 H 0.64089 0.93611 0.60193 0.0
C5471 C 0.65582 0.91468 0.64499 0.0
H5472 H 0.62482 0.9418 0.62867 0.0
C5473 C 0.66484 0.91115 0.62963 0.0
C5474 C 0.65952 0.91865 0.61389 0.0
H5475 H 0.65994 0.90832 0.65685 0.0
H5476 H 0.67575 0.90228 0.63003 0.0
C5477 C 0.64534 0.93017 0.61389 0.0
C5478 C 0.08499 0.15569 0.64542 0.0
C5479 C 0.07429 0.14088 0.6454 0.0
H5480 H 0.0972 0.17561 0.63027 0.0
C5481 C 0.06635 0.13572 0.62981 0.0
H5482 H 0.09135 0.15994 0.65723 0.0
C5483 C 0.06947 0.14488 0.61445 0.0
C5484 C 0.08089 0.15915 0.6143 0.0
H5485 H 0.05802 0.12439 0.62941 0.0
H5486 H 0.06352 0.14031 0.60254 0.0
C5487 C 0.0884 0.16463 0.62998 0.0
C5488 C 0.87033 0.33461 0.41181 0.0
C5489 C 0.88602 0.33996 0.41939 0.0
H5490 H 0.84314 0.33944 0.40886 0.0
C5491 C 0.88592 0.3541 0.43097 0.0
H5492 H 0.87001 0.32373 0.4029 0.0
C5493 C 0.8706 0.3633 0.43416 0.0
C5494 C 0.85502 0.35829 0.42614 0.0
H5495 H 0.89783 0.35857 0.43698 0.0
H5496 H 0.87103 0.37455 0.4426 0.0
C5497 C 0.85494 0.34358 0.4153 0.0
C5498 C 0.85488 0.15681 0.08568 0.0
C5499 C 0.85498 0.14206 0.07488 0.0
H5500 H 0.86992 0.17677 0.09796 0.0
C5501 C 0.87056 0.13711 0.06682 0.0
H5502 H 0.84308 0.16091 0.09215 0.0
C5503 C 0.88584 0.14639 0.06992 0.0
C5504 C 0.88593 0.16057 0.08144 0.0
H5505 H 0.87101 0.12583 0.05841 0.0
H5506 H 0.89775 0.14196 0.06387 0.0
C5507 C 0.87025 0.16586 0.08907 0.0
C5508 C 0.83506 0.37068 0.08918 0.0
C5509 C 0.84032 0.38647 0.08175 0.0
H5510 H 0.84014 0.34351 0.092 0.0
C5511 C 0.85461 0.38661 0.07037 0.0
H5512 H 0.82407 0.37018 0.09795 0.0
C5513 C 0.86401 0.3714 0.06719 0.0
C5514 C 0.85907 0.35571 0.07504 0.0
H5515 H 0.85901 0.39861 0.06449 0.0
H5516 H 0.87536 0.37201 0.0589 0.0
C5517 C 0.84423 0.35541 0.0857 0.0
C5518 C 0.6295 0.3346 0.0887 0.0
C5519 C 0.6138 0.33997 0.08116 0.0
H5520 H 0.6567 0.33943 0.09166 0.0
C5521 C 0.61388 0.35419 0.06968 0.0
H5522 H 0.62984 0.32365 0.09754 0.0
C5523 C 0.62919 0.36342 0.06654 0.0
C5524 C 0.64479 0.35838 0.07451 0.0
H5525 H 0.60196 0.35868 0.06371 0.0
H5526 H 0.62874 0.37473 0.05817 0.0
C5527 C 0.64488 0.3436 0.08526 0.0
C5528 C 0.6362 0.6289 0.56662 0.0
C5529 C 0.64119 0.64457 0.5745 0.0
H5530 H 0.64104 0.60166 0.56395 0.0
C5531 C 0.65596 0.64477 0.58526 0.0
H5532 H 0.6249 0.62836 0.55826 0.0
C5533 C 0.66501 0.62944 0.58879 0.0
C5534 C 0.6597 0.61367 0.58133 0.0
H5535 H 0.66009 0.65664 0.59159 0.0
H5536 H 0.67595 0.62986 0.59763 0.0
C5537 C 0.64548 0.61364 0.56986 0.0
C5538 C 0.12938 0.66522 0.41205 0.0
C5539 C 0.11367 0.65983 0.41957 0.0
H5540 H 0.15659 0.66042 0.40917 0.0
C5541 C 0.11375 0.64563 0.43107 0.0
H5542 H 0.12971 0.67615 0.40319 0.0
C5543 C 0.12907 0.63643 0.43427 0.0
C5544 C 0.14467 0.64148 0.42632 0.0
H5545 H 0.10182 0.64113 0.43702 0.0
H5546 H 0.12862 0.62513 0.44265 0.0
C5547 C 0.14476 0.65625 0.41555 0.0
C5548 C 0.83458 0.62938 0.91156 0.0
C5549 C 0.83992 0.61362 0.91901 0.0
H5550 H 0.83948 0.65659 0.90875 0.0
C5551 C 0.85416 0.61359 0.93045 0.0
H5552 H 0.82363 0.6298 0.90274 0.0
C5553 C 0.86344 0.62887 0.93367 0.0
C5554 C 0.85842 0.64453 0.9258 0.0
H5555 H 0.85863 0.60163 0.93635 0.0
H5556 H 0.87476 0.62834 0.94201 0.0
C5557 C 0.84363 0.64472 0.91507 0.0
C5558 C 0.63594 0.87123 0.93368 0.0
C5559 C 0.64092 0.85558 0.92577 0.0
H5560 H 0.64073 0.89847 0.93634 0.0
C5561 C 0.65565 0.8554 0.91496 0.0
H5562 H 0.62467 0.87174 0.94209 0.0
C5563 C 0.66466 0.87075 0.9114 0.0
C5564 C 0.65934 0.8865 0.91887 0.0
H5565 H 0.65977 0.84354 0.90861 0.0
H5566 H 0.67556 0.87035 0.90251 0.0
C5567 C 0.64518 0.88651 0.93041 0.0
C5568 C 0.58517 0.1448 0.65557 0.0
C5569 C 0.57451 0.14462 0.64073 0.0
H5570 H 0.59734 0.12986 0.67567 0.0
C5571 C 0.5666 0.12898 0.6357 0.0
H5572 H 0.59151 0.15665 0.65973 0.0
C5573 C 0.5697 0.11372 0.64503 0.0
C5574 C 0.58108 0.11372 0.65933 0.0
H5575 H 0.5583 0.12847 0.62435 0.0
H5576 H 0.56377 0.10177 0.64056 0.0
C5577 C 0.58857 0.12946 0.66467 0.0
C5578 C 0.85503 0.0847 0.65679 0.0
C5579 C 0.85514 0.07378 0.64213 0.0
H5580 H 0.87005 0.09722 0.6766 0.0
C5581 C 0.87074 0.06574 0.6372 0.0
H5582 H 0.84321 0.09115 0.66086 0.0
C5583 C 0.88603 0.06899 0.64641 0.0
C5584 C 0.8861 0.08064 0.66049 0.0
H5585 H 0.8712 0.05724 0.626 0.0
H5586 H 0.89796 0.06297 0.64201 0.0
C5587 C 0.8704 0.08824 0.66577 0.0
C5588 C 0.93047 0.38563 0.64558 0.0
C5589 C 0.91896 0.38586 0.65977 0.0
H5590 H 0.94193 0.3706 0.62514 0.0
C5591 C 0.91128 0.37023 0.66517 0.0
H5592 H 0.93656 0.39749 0.64106 0.0
C5593 C 0.91462 0.35478 0.65623 0.0
C5594 C 0.92542 0.35473 0.64149 0.0
H5595 H 0.9024 0.37001 0.67608 0.0
H5596 H 0.90812 0.34302 0.66042 0.0
C5597 C 0.93352 0.37025 0.63641 0.0
C5598 C 0.61368 0.43066 0.64592 0.0
C5599 C 0.61357 0.41919 0.66015 0.0
H5600 H 0.62858 0.44217 0.62541 0.0
C5601 C 0.62926 0.41167 0.66558 0.0
H5602 H 0.60177 0.43661 0.6414 0.0
C5603 C 0.64467 0.41512 0.65661 0.0
C5604 C 0.6446 0.42585 0.64181 0.0
H5605 H 0.62958 0.40284 0.67653 0.0
H5606 H 0.65648 0.40874 0.66081 0.0
C5607 C 0.62901 0.43381 0.63673 0.0
C5608 C 0.58809 0.87057 0.33517 0.0
C5609 C 0.58053 0.88627 0.34055 0.0
H5610 H 0.59108 0.84337 0.34001 0.0
C5611 C 0.56908 0.88618 0.35479 0.0
H5612 H 0.59692 0.87025 0.32422 0.0
C5613 C 0.56596 0.87086 0.36402 0.0
C5614 C 0.57394 0.85526 0.35897 0.0
H5615 H 0.5631 0.89809 0.35928 0.0
H5616 H 0.55761 0.8713 0.37534 0.0
C5617 C 0.58468 0.85518 0.34418 0.0
C5618 C 0.1146 0.06875 0.35424 0.0
C5619 C 0.11443 0.08029 0.34007 0.0
H5620 H 0.12953 0.05732 0.37478 0.0
C5621 C 0.13006 0.08802 0.33476 0.0
H5622 H 0.10274 0.06263 0.35868 0.0
C5623 C 0.14546 0.08471 0.3438 0.0
C5624 C 0.14543 0.07391 0.35854 0.0
H5625 H 0.13033 0.09692 0.32386 0.0
H5626 H 0.15721 0.09126 0.33969 0.0
C5627 C 0.12992 0.06574 0.3635 0.0
C5628 C 0.93351 0.63024 0.36446 0.0
C5629 C 0.92548 0.64582 0.35944 0.0
H5630 H 0.93644 0.60302 0.35966 0.0
C5631 C 0.91473 0.6459 0.34467 0.0
H5632 H 0.94188 0.6298 0.37576 0.0
C5633 C 0.91135 0.63052 0.33563 0.0
C5634 C 0.91895 0.61483 0.34097 0.0
H5635 H 0.9083 0.65771 0.34053 0.0
H5636 H 0.9025 0.63084 0.32469 0.0
C5637 C 0.93042 0.61493 0.35519 0.0
C5638 C 0.35434 0.41504 0.34325 0.0
C5639 C 0.35426 0.42598 0.35789 0.0
H5640 H 0.36961 0.40274 0.32346 0.0
C5641 C 0.36972 0.43426 0.36283 0.0
H5642 H 0.34262 0.40841 0.33917 0.0
C5643 C 0.38507 0.43123 0.35366 0.0
C5644 C 0.38537 0.41958 0.33958 0.0
H5645 H 0.37003 0.44279 0.37402 0.0
H5646 H 0.39687 0.43747 0.3581 0.0
C5647 C 0.36979 0.41173 0.33428 0.0
C5648 C 0.66538 0.08826 0.62957 0.0
C5649 C 0.66005 0.08083 0.6138 0.0
H5650 H 0.66045 0.09108 0.65678 0.0
C5651 C 0.6458 0.06939 0.61376 0.0
H5652 H 0.67634 0.09707 0.63001 0.0
C5653 C 0.6365 0.06619 0.62902 0.0
C5654 C 0.64151 0.07405 0.64469 0.0
H5655 H 0.64135 0.0635 0.60178 0.0
H5656 H 0.62518 0.05786 0.62847 0.0
C5657 C 0.65631 0.08476 0.64491 0.0
C5658 C 0.93362 0.13597 0.62924 0.0
C5659 C 0.92569 0.14109 0.64484 0.0
H5660 H 0.9364 0.14058 0.60197 0.0
C5661 C 0.91493 0.15586 0.64488 0.0
H5662 H 0.94198 0.12466 0.62883 0.0
C5663 C 0.91147 0.16479 0.62945 0.0
C5664 C 0.91898 0.15935 0.61375 0.0
H5665 H 0.90857 0.16009 0.65669 0.0
H5666 H 0.90263 0.17574 0.62975 0.0
C5667 C 0.93045 0.14513 0.61388 0.0
C5668 C 0.84387 0.41496 0.64509 0.0
C5669 C 0.85865 0.4257 0.6448 0.0
H5670 H 0.82383 0.40254 0.63028 0.0
C5671 C 0.8636 0.43352 0.62909 0.0
H5672 H 0.83978 0.40867 0.657 0.0
C5673 C 0.85427 0.43024 0.61387 0.0
C5674 C 0.84005 0.41878 0.61399 0.0
H5675 H 0.8749 0.44188 0.62849 0.0
H5676 H 0.85868 0.43611 0.60186 0.0
C5677 C 0.83477 0.41138 0.62979 0.0
C5678 C 0.58465 0.3439 0.64519 0.0
C5679 C 0.57389 0.35867 0.64507 0.0
H5680 H 0.59696 0.32394 0.63017 0.0
C5681 C 0.56594 0.36368 0.62945 0.0
H5682 H 0.59104 0.33975 0.65702 0.0
C5683 C 0.5691 0.35443 0.61415 0.0
C5684 C 0.58058 0.34022 0.61409 0.0
H5685 H 0.55756 0.37498 0.62897 0.0
H5686 H 0.56313 0.3589 0.60221 0.0
C5687 C 0.58811 0.33488 0.62981 0.0
C5688 C 0.63601 0.93377 0.37117 0.0
C5689 C 0.64099 0.92591 0.3555 0.0
H5690 H 0.64088 0.93643 0.39841 0.0
C5691 C 0.65578 0.91518 0.35527 0.0
H5692 H 0.6247 0.94212 0.37173 0.0
C5693 C 0.66485 0.91165 0.37059 0.0
C5694 C 0.65955 0.91909 0.38637 0.0
H5695 H 0.6599 0.90887 0.34338 0.0
H5696 H 0.6758 0.90283 0.37015 0.0
C5697 C 0.64532 0.93054 0.38643 0.0
C5698 C 0.06964 0.14477 0.3863 0.0
C5699 C 0.08101 0.15908 0.38632 0.0
H5700 H 0.05826 0.12411 0.37151 0.0
C5701 C 0.08852 0.16444 0.37059 0.0
H5702 H 0.0637 0.14029 0.39824 0.0
C5703 C 0.08513 0.15536 0.35524 0.0
C5704 C 0.07448 0.14051 0.35539 0.0
H5705 H 0.09728 0.17544 0.37022 0.0
H5706 H 0.09149 0.15953 0.3434 0.0
C5707 C 0.06656 0.13547 0.37101 0.0
C5708 C 0.86356 0.56726 0.37153 0.0
C5709 C 0.85857 0.57513 0.35586 0.0
H5710 H 0.85872 0.56459 0.39877 0.0
C5711 C 0.84379 0.58587 0.35564 0.0
H5712 H 0.87487 0.5589 0.37208 0.0
C5713 C 0.83473 0.5894 0.37098 0.0
C5714 C 0.84004 0.58195 0.38675 0.0
H5715 H 0.83967 0.59219 0.34377 0.0
H5716 H 0.82379 0.59823 0.37054 0.0
C5717 C 0.85427 0.57049 0.38679 0.0
C5718 C 0.43078 0.35486 0.3852 0.0
C5719 C 0.41906 0.34085 0.38537 0.0
H5720 H 0.44242 0.37529 0.37031 0.0
C5721 C 0.41119 0.33572 0.36974 0.0
H5722 H 0.43703 0.35918 0.39705 0.0
C5723 C 0.41455 0.34477 0.35434 0.0
C5724 C 0.42555 0.35936 0.35439 0.0
H5725 H 0.40214 0.32494 0.36947 0.0
H5726 H 0.40791 0.34083 0.34258 0.0
C5727 C 0.43385 0.36414 0.3699 0.0
C5728 C 0.61463 0.14577 0.5689 0.0
C5729 C 0.61446 0.15992 0.58047 0.0
H5730 H 0.62956 0.12527 0.55743 0.0
C5731 C 0.63008 0.16522 0.5882 0.0
H5732 H 0.60277 0.14134 0.56277 0.0
C5733 C 0.64548 0.1562 0.58487 0.0
C5734 C 0.64546 0.14148 0.57404 0.0
H5735 H 0.63035 0.17611 0.59712 0.0
H5736 H 0.65724 0.1603 0.59143 0.0
C5737 C 0.62995 0.13653 0.56587 0.0
C5738 C 0.6291 0.33439 0.91172 0.0
C5739 C 0.61338 0.33971 0.91926 0.0
H5740 H 0.6563 0.33927 0.90885 0.0
C5741 C 0.61343 0.35384 0.93084 0.0
H5742 H 0.62946 0.32351 0.9028 0.0
C5743 C 0.62872 0.36306 0.93408 0.0
C5744 C 0.64433 0.35808 0.9261 0.0
H5745 H 0.60149 0.35829 0.93682 0.0
H5746 H 0.62824 0.37431 0.94252 0.0
C5747 C 0.64446 0.34338 0.91526 0.0
C5748 C 0.64554 0.11392 0.93059 0.0
C5749 C 0.65979 0.11396 0.91916 0.0
H5750 H 0.6249 0.12864 0.9421 0.0
C5751 C 0.66512 0.12973 0.91172 0.0
H5752 H 0.64108 0.10195 0.93649 0.0
C5753 C 0.65605 0.14505 0.9152 0.0
C5754 C 0.64123 0.14484 0.92589 0.0
H5755 H 0.67609 0.13015 0.90292 0.0
H5756 H 0.66018 0.15692 0.90887 0.0
C5757 C 0.63623 0.12918 0.93378 0.0
C5758 C 0.88575 0.14655 0.93098 0.0
C5759 C 0.88582 0.16083 0.91957 0.0
H5760 H 0.87095 0.12597 0.94244 0.0
C5761 C 0.87011 0.16621 0.91204 0.0
H5762 H 0.89766 0.14204 0.93695 0.0
C5763 C 0.85474 0.15716 0.91547 0.0
C5764 C 0.85486 0.14235 0.92618 0.0
H5765 H 0.86977 0.17719 0.90325 0.0
H5766 H 0.8429 0.16133 0.9091 0.0
C5767 C 0.87046 0.1373 0.93411 0.0
C5768 C 0.83504 0.87111 0.41172 0.0
C5769 C 0.84032 0.88698 0.41899 0.0
H5770 H 0.84008 0.8439 0.40918 0.0
C5771 C 0.85461 0.8872 0.43037 0.0
H5772 H 0.82405 0.87055 0.40296 0.0
C5773 C 0.86399 0.87201 0.43371 0.0
C5774 C 0.85902 0.85624 0.42603 0.0
H5775 H 0.85903 0.89926 0.43613 0.0
H5776 H 0.87533 0.87269 0.442 0.0
C5777 C 0.84419 0.85586 0.41536 0.0
C5778 C 0.38604 0.85396 0.56899 0.0
C5779 C 0.38604 0.8398 0.58055 0.0
H5780 H 0.37128 0.87449 0.55734 0.0
C5781 C 0.3703 0.83452 0.58808 0.0
H5782 H 0.39799 0.85837 0.56303 0.0
C5783 C 0.35496 0.84356 0.58455 0.0
C5784 C 0.35514 0.85828 0.57373 0.0
H5785 H 0.36991 0.82363 0.59698 0.0
H5786 H 0.34312 0.83947 0.59094 0.0
C5787 C 0.37077 0.86323 0.56576 0.0
C5788 C 0.65617 0.85534 0.08501 0.0
C5789 C 0.64137 0.85556 0.07429 0.0
H5790 H 0.6762 0.87024 0.09733 0.0
C5791 C 0.63638 0.87122 0.06642 0.0
H5792 H 0.6603 0.84347 0.09133 0.0
C5793 C 0.64568 0.88648 0.06963 0.0
C5794 C 0.65993 0.88644 0.08107 0.0
H5795 H 0.62506 0.87177 0.05808 0.0
H5796 H 0.64123 0.89846 0.06373 0.0
C5797 C 0.66525 0.87067 0.08851 0.0
C5798 C 0.8437 0.64472 0.0853 0.0
C5799 C 0.85844 0.64444 0.07451 0.0
H5800 H 0.82371 0.6299 0.09776 0.0
C5801 C 0.86336 0.62876 0.06664 0.0
H5802 H 0.83963 0.65661 0.09162 0.0
C5803 C 0.85404 0.61353 0.06992 0.0
C5804 C 0.83987 0.61363 0.08145 0.0
H5805 H 0.87463 0.62817 0.05824 0.0
H5806 H 0.85844 0.60153 0.06403 0.0
C5807 C 0.83461 0.62942 0.08888 0.0
C5808 C 0.41461 0.8547 0.34388 0.0
C5809 C 0.42545 0.85466 0.3586 0.0
H5810 H 0.40235 0.86994 0.32404 0.0
C5811 C 0.43355 0.87017 0.36366 0.0
H5812 H 0.40812 0.84293 0.33971 0.0
C5813 C 0.43047 0.88554 0.35452 0.0
C5814 C 0.41893 0.88578 0.34035 0.0
H5815 H 0.44199 0.87052 0.37492 0.0
H5816 H 0.43657 0.89737 0.35905 0.0
C5817 C 0.41124 0.87016 0.33494 0.0
C5818 C 0.12937 0.91164 0.33412 0.0
C5819 C 0.11368 0.91921 0.33947 0.0
H5820 H 0.15657 0.90869 0.33897 0.0
C5821 C 0.11377 0.93073 0.35366 0.0
H5822 H 0.1297 0.90277 0.3232 0.0
C5823 C 0.12908 0.9339 0.36288 0.0
C5824 C 0.14467 0.9259 0.35786 0.0
H5825 H 0.10185 0.93672 0.35813 0.0
H5826 H 0.12863 0.9423 0.37416 0.0
C5827 C 0.14476 0.91511 0.34311 0.0
C5828 C 0.08457 0.64476 0.34429 0.0
C5829 C 0.07388 0.64463 0.35911 0.0
H5830 H 0.09684 0.62974 0.32431 0.0
C5831 C 0.06599 0.629 0.36419 0.0
H5832 H 0.09091 0.6566 0.34009 0.0
C5833 C 0.06916 0.61369 0.35496 0.0
C5834 C 0.08058 0.61365 0.34069 0.0
H5835 H 0.05766 0.62853 0.37553 0.0
H5836 H 0.06325 0.60175 0.35947 0.0
C5837 C 0.08804 0.62938 0.33528 0.0
C5838 C 0.37014 0.58836 0.33457 0.0
C5839 C 0.38579 0.58069 0.33991 0.0
H5840 H 0.34297 0.59149 0.33942 0.0
C5841 C 0.38562 0.56913 0.35407 0.0
H5842 H 0.36987 0.59726 0.32367 0.0
C5843 C 0.37028 0.56605 0.36328 0.0
C5844 C 0.35475 0.57417 0.35828 0.0
H5845 H 0.39749 0.56305 0.35854 0.0
H5846 H 0.37067 0.55763 0.37455 0.0
C5847 C 0.35473 0.58499 0.34355 0.0
C5848 C 0.43068 0.1149 0.64581 0.0
C5849 C 0.41901 0.1148 0.65986 0.0
H5850 H 0.44239 0.12973 0.62538 0.0
C5851 C 0.41127 0.13049 0.66503 0.0
H5852 H 0.43682 0.10301 0.64147 0.0
C5853 C 0.41473 0.14587 0.65599 0.0
C5854 C 0.4257 0.14577 0.64138 0.0
H5855 H 0.40226 0.13081 0.67583 0.0
H5856 H 0.40819 0.15768 0.65997 0.0
C5857 C 0.43385 0.13019 0.63655 0.0
C5858 C 0.86994 0.91072 0.66673 0.0
C5859 C 0.88554 0.91852 0.6614 0.0
H5860 H 0.84276 0.90747 0.66186 0.0
C5861 C 0.88526 0.93016 0.6473 0.0
H5862 H 0.86975 0.90175 0.67757 0.0
C5863 C 0.86991 0.93321 0.63814 0.0
C5864 C 0.85444 0.92498 0.6431 0.0
H5865 H 0.89707 0.93636 0.64284 0.0
H5866 H 0.87024 0.94172 0.62693 0.0
C5867 C 0.85449 0.91407 0.65777 0.0
C5868 C 0.06532 0.36953 0.63699 0.0
C5869 C 0.07362 0.3541 0.64198 0.0
H5870 H 0.06208 0.39669 0.64161 0.0
C5871 C 0.08455 0.35423 0.65663 0.0
H5872 H 0.0568 0.3698 0.62579 0.0
C5873 C 0.08785 0.36972 0.66555 0.0
C5874 C 0.07998 0.38527 0.66018 0.0
H5875 H 0.0912 0.34253 0.66074 0.0
H5876 H 0.09683 0.36959 0.67637 0.0
C5877 C 0.06833 0.38491 0.6461 0.0
C5878 C 0.61409 0.56907 0.64612 0.0
C5879 C 0.61402 0.58056 0.66034 0.0
H5880 H 0.62894 0.55757 0.62557 0.0
C5881 C 0.62971 0.5881 0.6657 0.0
H5882 H 0.60217 0.56309 0.64164 0.0
C5883 C 0.64509 0.58467 0.65669 0.0
C5884 C 0.64498 0.57393 0.6419 0.0
H5885 H 0.63005 0.59695 0.67664 0.0
H5886 H 0.6569 0.59108 0.66084 0.0
C5887 C 0.62939 0.56594 0.63688 0.0
C5888 C 0.36309 0.93366 0.37031 0.0
C5889 C 0.35845 0.92553 0.35467 0.0
H5890 H 0.35794 0.9365 0.39746 0.0
C5891 C 0.34391 0.91446 0.3544 0.0
H5892 H 0.3742 0.94227 0.37089 0.0
C5893 C 0.33478 0.91088 0.36969 0.0
C5894 C 0.33977 0.91859 0.38545 0.0
H5895 H 0.34008 0.90794 0.34253 0.0
H5896 H 0.32405 0.90179 0.36925 0.0
C5897 C 0.35373 0.93038 0.38551 0.0
C5898 C 0.08805 0.83489 0.3698 0.0
C5899 C 0.08052 0.84023 0.38552 0.0
H5900 H 0.09101 0.8398 0.3426 0.0
C5901 C 0.06906 0.85446 0.38547 0.0
H5902 H 0.09689 0.82395 0.36944 0.0
C5903 C 0.06592 0.86374 0.37018 0.0
C5904 C 0.07389 0.85873 0.35456 0.0
H5905 H 0.06309 0.85893 0.39741 0.0
H5906 H 0.05757 0.87505 0.37066 0.0
C5907 C 0.08462 0.84394 0.35443 0.0
C5908 C 0.1649 0.58845 0.37093 0.0
C5909 C 0.15957 0.58097 0.38668 0.0
H5910 H 0.16002 0.59127 0.34371 0.0
C5911 C 0.14536 0.56949 0.38668 0.0
H5912 H 0.17584 0.59729 0.37053 0.0
C5913 C 0.13611 0.56627 0.37139 0.0
C5914 C 0.14112 0.57416 0.35573 0.0
H5915 H 0.1409 0.56357 0.39864 0.0
H5916 H 0.12481 0.55789 0.3719 0.0
C5917 C 0.15588 0.58492 0.35557 0.0
C5918 C 0.43042 0.64507 0.3863 0.0
C5919 C 0.41901 0.65933 0.38638 0.0
H5920 H 0.44189 0.62452 0.37142 0.0
C5921 C 0.41151 0.66475 0.37067 0.0
H5922 H 0.43636 0.64054 0.39823 0.0
C5923 C 0.41495 0.65577 0.35527 0.0
C5924 C 0.42565 0.64096 0.35536 0.0
H5925 H 0.40271 0.67573 0.37034 0.0
H5926 H 0.40859 0.65997 0.34344 0.0
C5927 C 0.43357 0.63586 0.37097 0.0
C5928 C 0.35419 0.07035 0.61412 0.0
C5929 C 0.33997 0.08183 0.61421 0.0
H5930 H 0.37481 0.05874 0.62878 0.0
C5931 C 0.33471 0.08927 0.63 0.0
H5932 H 0.35859 0.06445 0.60213 0.0
C5933 C 0.34381 0.08574 0.6453 0.0
C5934 C 0.35858 0.07498 0.64504 0.0
H5935 H 0.32377 0.09812 0.63046 0.0
H5936 H 0.33972 0.09206 0.65719 0.0
C5937 C 0.36351 0.06711 0.62935 0.0
C5938 C 0.93057 0.85373 0.6158 0.0
C5939 C 0.91869 0.83985 0.6155 0.0
H5940 H 0.94242 0.87392 0.6308 0.0
C5941 C 0.9107 0.83473 0.63108 0.0
H5942 H 0.93694 0.85803 0.60401 0.0
C5943 C 0.91412 0.84369 0.64654 0.0
C5944 C 0.9253 0.85814 0.64659 0.0
H5945 H 0.90153 0.82406 0.63126 0.0
H5946 H 0.90739 0.8398 0.65827 0.0
C5947 C 0.9337 0.86288 0.63114 0.0
C5948 C 0.16418 0.4105 0.63041 0.0
C5949 C 0.15918 0.41815 0.61462 0.0
H5950 H 0.15883 0.4076 0.65756 0.0
C5951 C 0.14514 0.42984 0.6145 0.0
H5952 H 0.17497 0.40149 0.6309 0.0
C5953 C 0.13572 0.43309 0.62966 0.0
C5954 C 0.14038 0.42504 0.64534 0.0
H5955 H 0.14093 0.43591 0.60252 0.0
H5956 H 0.12456 0.44164 0.62903 0.0
C5957 C 0.15498 0.41406 0.64567 0.0
C5958 C 0.56935 0.64518 0.61425 0.0
C5959 C 0.58077 0.65945 0.61417 0.0
H5960 H 0.55792 0.62461 0.62912 0.0
C5961 C 0.5883 0.66484 0.62987 0.0
H5962 H 0.56338 0.64068 0.60233 0.0
C5963 C 0.58491 0.65582 0.64526 0.0
C5964 C 0.57421 0.64101 0.64517 0.0
H5965 H 0.5971 0.67581 0.63021 0.0
H5966 H 0.59129 0.66001 0.65708 0.0
C5967 C 0.56625 0.63594 0.62957 0.0
C5968 C 0.36999 0.83421 0.41124 0.0
C5969 C 0.38566 0.83954 0.41888 0.0
H5970 H 0.34282 0.83911 0.40812 0.0
C5971 C 0.38554 0.85376 0.43036 0.0
H5972 H 0.36968 0.82327 0.40239 0.0
C5973 C 0.37023 0.86303 0.43341 0.0
C5974 C 0.35467 0.85803 0.42534 0.0
H5975 H 0.39743 0.85823 0.43641 0.0
H5976 H 0.37066 0.87433 0.44178 0.0
C5977 C 0.35461 0.84325 0.41459 0.0
C5978 C 0.37053 0.63708 0.06629 0.0
C5979 C 0.35494 0.64213 0.07428 0.0
H5980 H 0.39776 0.64181 0.06343 0.0
C5981 C 0.35487 0.65693 0.08502 0.0
H5982 H 0.37097 0.62577 0.05794 0.0
C5983 C 0.37026 0.66593 0.08843 0.0
C5984 C 0.38595 0.66054 0.08088 0.0
H5985 H 0.34306 0.6611 0.09142 0.0
H5986 H 0.36993 0.67688 0.09726 0.0
C5987 C 0.38585 0.64631 0.06941 0.0
C5988 C 0.35377 0.88665 0.07046 0.0
C5989 C 0.33954 0.88652 0.08191 0.0
H5990 H 0.37439 0.87202 0.05879 0.0
C5991 C 0.33424 0.8707 0.08927 0.0
H5992 H 0.35821 0.89866 0.06463 0.0
C5993 C 0.34332 0.8554 0.08566 0.0
C5994 C 0.3581 0.8557 0.07492 0.0
H5995 H 0.32329 0.87021 0.09809 0.0
H5996 H 0.3392 0.84349 0.09191 0.0
C5997 C 0.36308 0.87142 0.06714 0.0
C5998 C 0.12935 0.86262 0.06572 0.0
C5999 C 0.14489 0.8577 0.07386 0.0
H6000 H 0.10215 0.85781 0.06273 0.0
C6001 C 0.14494 0.843 0.08473 0.0
H6002 H 0.12893 0.87386 0.05725 0.0
C6003 C 0.12955 0.834 0.08814 0.0
C6004 C 0.1139 0.83928 0.08044 0.0
H6005 H 0.15672 0.83893 0.09126 0.0
H6006 H 0.12985 0.82314 0.09709 0.0
C6007 C 0.11403 0.85339 0.06883 0.0
C6008 C 0.14561 0.11342 0.57019 0.0
C6009 C 0.1598 0.11352 0.58171 0.0
H6010 H 0.12506 0.12808 0.55846 0.0
C6011 C 0.16512 0.12933 0.58906 0.0
H6012 H 0.14117 0.10141 0.56435 0.0
C6013 C 0.15609 0.14464 0.58542 0.0
C6014 C 0.14134 0.14437 0.57464 0.0
H6015 H 0.17604 0.1298 0.59792 0.0
H6016 H 0.1602 0.15655 0.59168 0.0
C6017 C 0.13635 0.12866 0.56684 0.0
C6018 C 0.61393 0.14633 0.43089 0.0
C6019 C 0.61388 0.16053 0.41938 0.0
H6020 H 0.62875 0.12578 0.44244 0.0
C6021 C 0.62959 0.16586 0.41184 0.0
H6022 H 0.602 0.14187 0.43687 0.0
C6023 C 0.64495 0.15684 0.4153 0.0
C6024 C 0.64483 0.14207 0.42608 0.0
H6025 H 0.62994 0.17678 0.40297 0.0
H6026 H 0.65677 0.16097 0.40889 0.0
C6027 C 0.62922 0.13708 0.43406 0.0
C6028 C 0.34379 0.14479 0.91516 0.0
C6029 C 0.35857 0.14451 0.92589 0.0
H6030 H 0.32379 0.12997 0.9027 0.0
C6031 C 0.36358 0.12879 0.93365 0.0
H6032 H 0.33964 0.15671 0.90892 0.0
C6033 C 0.35431 0.11355 0.9303 0.0
C6034 C 0.34008 0.11367 0.91884 0.0
H6035 H 0.3749 0.1282 0.94199 0.0
H6036 H 0.35877 0.10153 0.93611 0.0
C6037 C 0.33474 0.12948 0.91152 0.0
C6038 C 0.13626 0.37143 0.93299 0.0
C6039 C 0.1413 0.35575 0.92517 0.0
H6040 H 0.14106 0.39868 0.93564 0.0
C6041 C 0.15611 0.35554 0.91448 0.0
H6042 H 0.12492 0.37197 0.9413 0.0
C6043 C 0.16517 0.37089 0.91097 0.0
C6044 C 0.15982 0.38666 0.91837 0.0
H6045 H 0.16028 0.34366 0.90819 0.0
H6046 H 0.17615 0.37045 0.90218 0.0
C6047 C 0.14554 0.3867 0.92978 0.0
C6048 C 0.56908 0.61437 0.14553 0.0
C6049 C 0.5805 0.61427 0.15979 0.0
H6050 H 0.55763 0.62928 0.12498 0.0
C6051 C 0.58802 0.62996 0.16522 0.0
H6052 H 0.56312 0.60246 0.141 0.0
C6053 C 0.58461 0.64537 0.15623 0.0
C6054 C 0.57391 0.6453 0.14142 0.0
H6055 H 0.59683 0.63028 0.17619 0.0
H6056 H 0.59099 0.65718 0.16044 0.0
C6057 C 0.56596 0.62971 0.13632 0.0
C6058 C 0.85472 0.58496 0.15691 0.0
C6059 C 0.85474 0.57413 0.14219 0.0
H6060 H 0.86985 0.59725 0.17679 0.0
C6061 C 0.87028 0.56604 0.13718 0.0
H6062 H 0.84295 0.59145 0.16105 0.0
C6063 C 0.88562 0.56913 0.1464 0.0
C6064 C 0.88578 0.58068 0.16056 0.0
H6065 H 0.87068 0.55761 0.12592 0.0
H6066 H 0.89749 0.56306 0.14193 0.0
C6067 C 0.87013 0.58835 0.1659 0.0
C6068 C 0.915 0.85452 0.15561 0.0
C6069 C 0.92578 0.8546 0.14086 0.0
H6070 H 0.90277 0.8696 0.17557 0.0
C6071 C 0.93386 0.87015 0.13587 0.0
H6072 H 0.90852 0.84273 0.15973 0.0
C6073 C 0.9308 0.88546 0.14514 0.0
C6074 C 0.9193 0.88557 0.15934 0.0
H6075 H 0.94226 0.87058 0.12459 0.0
H6076 H 0.93686 0.89735 0.14069 0.0
C6077 C 0.91164 0.86991 0.16465 0.0
C6078 C 0.62986 0.93448 0.13677 0.0
C6079 C 0.64537 0.92628 0.14171 0.0
H6080 H 0.60269 0.93762 0.14161 0.0
C6081 C 0.64539 0.91546 0.15644 0.0
H6082 H 0.62948 0.94292 0.12551 0.0
C6083 C 0.62999 0.91216 0.16548 0.0
C6084 C 0.61437 0.91992 0.16019 0.0
H6085 H 0.65714 0.90889 0.16053 0.0
H6086 H 0.63025 0.90325 0.17637 0.0
C6087 C 0.61455 0.93148 0.14604 0.0
C6088 C 0.56573 0.37059 0.86379 0.0
C6089 C 0.57367 0.35498 0.85872 0.0
H6090 H 0.56292 0.39783 0.85908 0.0
C6091 C 0.5844 0.3549 0.84393 0.0
H6092 H 0.55738 0.37103 0.87511 0.0
C6093 C 0.58785 0.37029 0.83494 0.0
C6094 C 0.58033 0.386 0.84034 0.0
H6095 H 0.59078 0.34308 0.83974 0.0
H6096 H 0.59668 0.36996 0.82399 0.0
C6097 C 0.56887 0.38591 0.85457 0.0
C6098 C 0.11474 0.56946 0.85316 0.0
C6099 C 0.11442 0.58111 0.83907 0.0
H6100 H 0.1298 0.55794 0.87352 0.0
C6101 C 0.12998 0.58898 0.83376 0.0
H6102 H 0.10296 0.5632 0.85761 0.0
C6103 C 0.14544 0.5857 0.84273 0.0
C6104 C 0.14554 0.57477 0.85738 0.0
H6105 H 0.13015 0.59797 0.82294 0.0
H6106 H 0.15715 0.59235 0.83865 0.0
C6107 C 0.1301 0.56647 0.86233 0.0
C6108 C 0.91136 0.13111 0.8355 0.0
C6109 C 0.91926 0.11549 0.84061 0.0
H6110 H 0.90806 0.15825 0.84065 0.0
C6111 C 0.931 0.11566 0.8546 0.0
H6112 H 0.90229 0.13138 0.82474 0.0
C6113 C 0.93407 0.13094 0.86389 0.0
C6114 C 0.92574 0.14645 0.85914 0.0
H6115 H 0.93726 0.10381 0.85889 0.0
H6116 H 0.94266 0.13053 0.87502 0.0
C6117 C 0.91472 0.1465 0.84457 0.0
C6118 C 0.38533 0.93118 0.85365 0.0
C6119 C 0.38546 0.91965 0.83947 0.0
H6120 H 0.37042 0.94268 0.87416 0.0
C6121 C 0.3698 0.91204 0.83411 0.0
H6122 H 0.39722 0.93722 0.85813 0.0
C6123 C 0.3544 0.91543 0.8431 0.0
C6124 C 0.35446 0.92621 0.85786 0.0
H6125 H 0.3695 0.90315 0.8232 0.0
H6126 H 0.34262 0.90896 0.83896 0.0
C6127 C 0.37001 0.93428 0.86288 0.0
C6128 C 0.63595 0.56676 0.12916 0.0
C6129 C 0.64096 0.57459 0.14485 0.0
H6130 H 0.64079 0.56414 0.10191 0.0
C6131 C 0.65576 0.5853 0.14509 0.0
H6132 H 0.62463 0.55843 0.1286 0.0
C6133 C 0.66483 0.58884 0.12976 0.0
C6134 C 0.6595 0.58144 0.11398 0.0
H6135 H 0.6599 0.59159 0.15698 0.0
H6136 H 0.67579 0.59765 0.13021 0.0
C6137 C 0.64525 0.57 0.11391 0.0
C6138 C 0.91514 0.65568 0.14518 0.0
C6139 C 0.92577 0.64082 0.14509 0.0
H6140 H 0.90294 0.67566 0.13011 0.0
C6141 C 0.9336 0.63564 0.12946 0.0
H6142 H 0.90885 0.65995 0.15702 0.0
C6143 C 0.93044 0.64483 0.11412 0.0
C6144 C 0.91909 0.65915 0.11405 0.0
H6145 H 0.94187 0.62426 0.12901 0.0
H6146 H 0.93631 0.64024 0.10218 0.0
C6147 C 0.91168 0.66464 0.12977 0.0
C6148 C 0.85479 0.92993 0.1132 0.0
C6149 C 0.8405 0.91854 0.11327 0.0
H6150 H 0.87543 0.94144 0.12791 0.0
C6151 C 0.83515 0.91114 0.12905 0.0
H6152 H 0.85926 0.93579 0.10122 0.0
C6153 C 0.84423 0.91465 0.14438 0.0
C6154 C 0.85906 0.92532 0.14415 0.0
H6155 H 0.82417 0.90236 0.12949 0.0
H6156 H 0.84007 0.90837 0.15626 0.0
C6157 C 0.86409 0.93314 0.12846 0.0
C6158 C 0.56652 0.86473 0.12923 0.0
C6159 C 0.57441 0.8597 0.14488 0.0
H6160 H 0.56369 0.85986 0.10201 0.0
C6161 C 0.58505 0.84484 0.14507 0.0
H6162 H 0.55824 0.87609 0.12871 0.0
C6163 C 0.58844 0.83573 0.12974 0.0
C6164 C 0.58095 0.84107 0.11399 0.0
H6165 H 0.59138 0.84069 0.15693 0.0
H6166 H 0.59719 0.82472 0.13015 0.0
C6167 C 0.56961 0.85539 0.11397 0.0
C6168 C 0.64489 0.43019 0.88648 0.0
C6169 C 0.6591 0.41871 0.8865 0.0
H6170 H 0.62438 0.4418 0.87166 0.0
C6171 C 0.66449 0.41127 0.87075 0.0
H6172 H 0.64039 0.43609 0.89844 0.0
C6173 C 0.6555 0.41481 0.85538 0.0
C6174 C 0.64074 0.42556 0.85552 0.0
H6175 H 0.67543 0.40243 0.87037 0.0
H6176 H 0.65968 0.40849 0.84352 0.0
C6177 C 0.63568 0.43343 0.87117 0.0
C6178 C 0.08902 0.66481 0.86951 0.0
C6179 C 0.08113 0.65962 0.88512 0.0
H6180 H 0.09225 0.6598 0.8423 0.0
C6181 C 0.06935 0.64565 0.88485 0.0
H6182 H 0.09811 0.67554 0.8693 0.0
C6183 C 0.06622 0.6365 0.86952 0.0
C6184 C 0.07452 0.64132 0.85403 0.0
H6185 H 0.06306 0.64129 0.89666 0.0
H6186 H 0.05758 0.62539 0.86987 0.0
C6187 C 0.0856 0.65585 0.85405 0.0
C6188 C 0.86402 0.0674 0.87144 0.0
C6189 C 0.85906 0.07534 0.8558 0.0
H6190 H 0.85907 0.06453 0.89864 0.0
C6191 C 0.84422 0.086 0.85558 0.0
H6192 H 0.87537 0.0591 0.87198 0.0
C6193 C 0.83507 0.08937 0.8709 0.0
C6194 C 0.84035 0.08186 0.88665 0.0
H6195 H 0.84011 0.09236 0.84372 0.0
H6196 H 0.82408 0.09815 0.87047 0.0
C6197 C 0.85465 0.07048 0.88668 0.0
C6198 C 0.41456 0.84451 0.85502 0.0
C6199 C 0.42524 0.85933 0.85503 0.0
H6200 H 0.40239 0.82456 0.87017 0.0
C6201 C 0.4332 0.86447 0.87062 0.0
H6202 H 0.40817 0.84027 0.84322 0.0
C6203 C 0.43012 0.85528 0.88598 0.0
C6204 C 0.41872 0.841 0.88613 0.0
H6205 H 0.44152 0.87581 0.87101 0.0
H6206 H 0.43609 0.85985 0.89788 0.0
C6207 C 0.41118 0.83555 0.87045 0.0
C6208 C 0.6295 0.66586 0.08868 0.0
C6209 C 0.61382 0.66053 0.08107 0.0
H6210 H 0.65668 0.66099 0.0917 0.0
C6211 C 0.61392 0.64637 0.06953 0.0
H6212 H 0.62982 0.67676 0.09758 0.0
C6213 C 0.62924 0.63714 0.06639 0.0
C6214 C 0.64481 0.64213 0.07443 0.0
H6215 H 0.60202 0.64192 0.06349 0.0
H6216 H 0.6288 0.62587 0.05797 0.0
C6217 C 0.64488 0.65686 0.08525 0.0
C6218 C 0.62917 0.86355 0.43402 0.0
C6219 C 0.64475 0.85849 0.42602 0.0
H6220 H 0.60193 0.85884 0.43688 0.0
C6221 C 0.64481 0.8437 0.41528 0.0
H6222 H 0.62874 0.87486 0.44238 0.0
C6223 C 0.62941 0.83472 0.41186 0.0
C6224 C 0.61372 0.84011 0.41942 0.0
H6225 H 0.65661 0.83952 0.40886 0.0
H6226 H 0.62972 0.82377 0.40302 0.0
C6227 C 0.61384 0.85433 0.4309 0.0
C6228 C 0.6649 0.6298 0.41163 0.0
C6229 C 0.65957 0.61403 0.41906 0.0
H6230 H 0.65997 0.657 0.40883 0.0
C6231 C 0.64531 0.61397 0.43049 0.0
H6232 H 0.67587 0.63023 0.40283 0.0
C6233 C 0.63602 0.62923 0.4337 0.0
C6234 C 0.64102 0.64491 0.42584 0.0
H6235 H 0.64086 0.602 0.43638 0.0
H6236 H 0.62469 0.62868 0.44203 0.0
C6237 C 0.65583 0.64512 0.41514 0.0
C6238 C 0.85467 0.65735 0.41567 0.0
C6239 C 0.85474 0.64259 0.42644 0.0
H6240 H 0.86975 0.67729 0.4034 0.0
C6241 C 0.8703 0.63759 0.4345 0.0
H6242 H 0.84288 0.66149 0.40921 0.0
C6243 C 0.88562 0.64683 0.43141 0.0
C6244 C 0.88573 0.66103 0.41989 0.0
H6245 H 0.87073 0.6263 0.4429 0.0
H6246 H 0.89751 0.64236 0.43744 0.0
C6247 C 0.87006 0.66637 0.41228 0.0
C6248 C 0.83432 0.37022 0.91136 0.0
C6249 C 0.83932 0.38599 0.91903 0.0
H6250 H 0.83961 0.34305 0.90849 0.0
C6251 C 0.85327 0.38607 0.93082 0.0
H6252 H 0.82359 0.36975 0.90227 0.0
C6253 C 0.86262 0.37088 0.93415 0.0
C6254 C 0.85797 0.35522 0.92606 0.0
H6255 H 0.85748 0.39803 0.93692 0.0
H6256 H 0.87373 0.37148 0.94277 0.0
C6257 C 0.84344 0.35493 0.91499 0.0
C6258 C 0.35472 0.34292 0.08571 0.0
C6259 C 0.35479 0.35765 0.07488 0.0
H6260 H 0.36981 0.32304 0.09805 0.0
C6261 C 0.37035 0.36264 0.06682 0.0
H6262 H 0.34293 0.3388 0.09217 0.0
C6263 C 0.38567 0.35342 0.06996 0.0
C6264 C 0.38579 0.33926 0.08152 0.0
H6265 H 0.37078 0.3739 0.05839 0.0
H6266 H 0.39757 0.35788 0.06392 0.0
C6267 C 0.37012 0.33393 0.08914 0.0
C6268 C 0.66489 0.3704 0.58875 0.0
C6269 C 0.65955 0.38616 0.58129 0.0
H6270 H 0.66 0.34319 0.59157 0.0
C6271 C 0.64533 0.38617 0.56982 0.0
H6272 H 0.67584 0.37 0.59758 0.0
C6273 C 0.63606 0.37089 0.56661 0.0
C6274 C 0.64108 0.35524 0.57449 0.0
H6275 H 0.64087 0.39813 0.56391 0.0
H6276 H 0.62476 0.37141 0.55825 0.0
C6277 C 0.65586 0.35506 0.58524 0.0
C6278 C 0.8638 0.12836 0.56648 0.0
C6279 C 0.85867 0.14405 0.57421 0.0
H6280 H 0.85918 0.10105 0.56402 0.0
C6281 C 0.84387 0.14422 0.58492 0.0
H6282 H 0.87513 0.12783 0.55815 0.0
C6283 C 0.83492 0.12884 0.58855 0.0
C6284 C 0.84038 0.11306 0.58124 0.0
H6285 H 0.83963 0.15611 0.59113 0.0
H6286 H 0.82395 0.12926 0.59735 0.0
C6287 C 0.85463 0.11304 0.56981 0.0
C6288 C 0.43361 0.37053 0.86446 0.0
C6289 C 0.42558 0.35499 0.85931 0.0
H6290 H 0.43657 0.39778 0.85988 0.0
C6291 C 0.4149 0.35502 0.84449 0.0
H6292 H 0.44193 0.37089 0.8758 0.0
C6293 C 0.41157 0.37047 0.83555 0.0
C6294 C 0.41915 0.38611 0.84104 0.0
H6295 H 0.40847 0.34325 0.84024 0.0
H6296 H 0.40277 0.37022 0.82457 0.0
C6297 C 0.43057 0.38591 0.8553 0.0
C6298 C 0.11427 0.4312 0.85371 0.0
C6299 C 0.11394 0.41951 0.83967 0.0
H6300 H 0.12938 0.44288 0.87395 0.0
C6301 C 0.12952 0.41171 0.8343 0.0
H6302 H 0.10247 0.43741 0.85821 0.0
C6303 C 0.14501 0.41512 0.84316 0.0
C6304 C 0.14513 0.4261 0.85777 0.0
H6305 H 0.12967 0.40269 0.82349 0.0
H6306 H 0.15673 0.40852 0.83904 0.0
C6307 C 0.12967 0.43433 0.86278 0.0
C6308 C 0.08464 0.14482 0.84486 0.0
C6309 C 0.07407 0.14475 0.85977 0.0
H6310 H 0.09669 0.12975 0.82479 0.0
C6311 C 0.0662 0.12914 0.86495 0.0
H6312 H 0.09095 0.15665 0.84058 0.0
C6313 C 0.06925 0.11381 0.8557 0.0
C6314 C 0.08053 0.11372 0.84133 0.0
H6315 H 0.05797 0.1287 0.87635 0.0
H6316 H 0.06335 0.10188 0.86029 0.0
C6317 C 0.08799 0.12942 0.83584 0.0
C6318 C 0.3705 0.06611 0.86307 0.0
C6319 C 0.35497 0.07421 0.85804 0.0
H6320 H 0.39773 0.06317 0.85843 0.0
C6321 C 0.355 0.08507 0.84334 0.0
H6322 H 0.37086 0.05765 0.87432 0.0
C6323 C 0.37043 0.0885 0.83442 0.0
C6324 C 0.38607 0.08084 0.83981 0.0
H6325 H 0.34323 0.09157 0.83917 0.0
H6326 H 0.37019 0.09743 0.82355 0.0
C6327 C 0.38587 0.06924 0.85393 0.0
C6328 C 0.41192 0.63032 0.16509 0.0
C6329 C 0.41959 0.61467 0.15974 0.0
H6330 H 0.40874 0.65749 0.1602 0.0
C6331 C 0.43109 0.61483 0.14554 0.0
H6332 H 0.40306 0.63059 0.17601 0.0
C6333 C 0.43412 0.63015 0.13629 0.0
C6334 C 0.426 0.64568 0.14129 0.0
H6335 H 0.43716 0.60295 0.14107 0.0
H6336 H 0.4425 0.62975 0.12499 0.0
C6337 C 0.41524 0.64572 0.15606 0.0
C6338 C 0.85485 0.41541 0.15714 0.0
C6339 C 0.85488 0.42615 0.14235 0.0
H6340 H 0.86997 0.40322 0.17709 0.0
C6341 C 0.87043 0.43421 0.13731 0.0
H6342 H 0.84307 0.40895 0.16131 0.0
C6343 C 0.88576 0.43115 0.14654 0.0
C6344 C 0.88591 0.41968 0.16076 0.0
H6345 H 0.87083 0.44257 0.126 0.0
H6346 H 0.89765 0.43719 0.14204 0.0
C6347 C 0.87025 0.41206 0.16615 0.0
C6348 C 0.08475 0.8548 0.15561 0.0
C6349 C 0.07406 0.85484 0.14079 0.0
H6350 H 0.09691 0.86992 0.17558 0.0
C6351 C 0.06609 0.87041 0.13567 0.0
H6352 H 0.09114 0.843 0.15984 0.0
C6353 C 0.06916 0.88576 0.14489 0.0
C6354 C 0.08057 0.8859 0.15916 0.0
H6355 H 0.05777 0.87082 0.12433 0.0
H6356 H 0.06319 0.89766 0.14034 0.0
C6357 C 0.08812 0.87022 0.1646 0.0
C6358 C 0.64495 0.08492 0.15647 0.0
C6359 C 0.64488 0.07416 0.1417 0.0
H6360 H 0.62989 0.0972 0.17641 0.0
C6361 C 0.6293 0.06613 0.13668 0.0
H6362 H 0.65675 0.09136 0.16062 0.0
C6363 C 0.61399 0.06925 0.14592 0.0
C6364 C 0.61389 0.08075 0.16012 0.0
H6365 H 0.62887 0.05775 0.12538 0.0
H6366 H 0.60208 0.06324 0.14144 0.0
C6367 C 0.62957 0.08833 0.16548 0.0
C6368 C 0.36384 0.43364 0.87179 0.0
C6369 C 0.35883 0.42586 0.85608 0.0
H6370 H 0.35898 0.4362 0.89904 0.0
C6371 C 0.34404 0.41514 0.85581 0.0
H6372 H 0.37516 0.44197 0.87238 0.0
C6373 C 0.33496 0.41157 0.87113 0.0
C6374 C 0.34028 0.41893 0.88693 0.0
H6375 H 0.3399 0.40888 0.84391 0.0
H6376 H 0.324 0.40276 0.87065 0.0
C6377 C 0.35453 0.43036 0.88704 0.0
C6378 C 0.08516 0.34449 0.8544 0.0
C6379 C 0.0741 0.35902 0.85455 0.0
H6380 H 0.09777 0.32468 0.86941 0.0
C6381 C 0.06589 0.36373 0.87013 0.0
H6382 H 0.09175 0.34061 0.84259 0.0
C6383 C 0.06909 0.35443 0.88538 0.0
C6384 C 0.08088 0.34048 0.88546 0.0
H6385 H 0.05726 0.37483 0.87061 0.0
H6386 H 0.06291 0.35869 0.89728 0.0
C6387 C 0.08867 0.33541 0.86976 0.0
C6388 C 0.16484 0.08845 0.87091 0.0
C6389 C 0.15955 0.08111 0.88673 0.0
H6390 H 0.15984 0.09109 0.8437 0.0
C6391 C 0.14531 0.06967 0.88688 0.0
H6392 H 0.17579 0.09726 0.8704 0.0
C6393 C 0.13598 0.06635 0.87166 0.0
C6394 C 0.14094 0.07412 0.85593 0.0
H6395 H 0.14089 0.06384 0.89891 0.0
H6396 H 0.12466 0.05802 0.87228 0.0
C6397 C 0.15573 0.08484 0.85562 0.0
C6398 C 0.43377 0.13601 0.87101 0.0
C6399 C 0.4259 0.14112 0.85538 0.0
H6400 H 0.43647 0.14067 0.89828 0.0
C6401 C 0.41517 0.15592 0.85527 0.0
H6402 H 0.44211 0.12469 0.87147 0.0
C6403 C 0.41167 0.16488 0.87067 0.0
C6404 C 0.41912 0.15945 0.8864 0.0
H6405 H 0.40885 0.16013 0.84343 0.0
H6406 H 0.40285 0.17584 0.87032 0.0
C6407 C 0.43056 0.1452 0.88634 0.0
C6408 C 0.34438 0.58561 0.14498 0.0
C6409 C 0.3592 0.57492 0.14467 0.0
H6410 H 0.32422 0.59786 0.13021 0.0
C6411 C 0.36411 0.56705 0.12898 0.0
H6412 H 0.34031 0.59192 0.15688 0.0
C6413 C 0.3547 0.57021 0.11378 0.0
C6414 C 0.34042 0.58161 0.11392 0.0
H6415 H 0.37544 0.55874 0.12837 0.0
H6416 H 0.35908 0.56432 0.10178 0.0
C6417 C 0.33519 0.58907 0.12971 0.0
C6418 C 0.9152 0.34455 0.14591 0.0
C6419 C 0.92594 0.35933 0.14583 0.0
H6420 H 0.90301 0.32456 0.13083 0.0
C6421 C 0.934 0.36434 0.13026 0.0
H6422 H 0.90875 0.34041 0.1577 0.0
C6423 C 0.93095 0.35507 0.11496 0.0
C6424 C 0.91948 0.34085 0.11485 0.0
H6425 H 0.94237 0.37564 0.12983 0.0
H6426 H 0.93699 0.35954 0.10306 0.0
C6427 C 0.91186 0.3355 0.13052 0.0
C6428 C 0.15569 0.91485 0.14452 0.0
C6429 C 0.14089 0.92557 0.14425 0.0
H6430 H 0.17569 0.90243 0.12967 0.0
C6431 C 0.13586 0.93332 0.12853 0.0
H6432 H 0.15985 0.90862 0.15643 0.0
C6433 C 0.14512 0.92999 0.11328 0.0
C6434 C 0.15937 0.91856 0.11338 0.0
H6435 H 0.12453 0.94164 0.12795 0.0
H6436 H 0.14065 0.9358 0.10127 0.0
C6437 C 0.16473 0.91124 0.12919 0.0
C6438 C 0.56932 0.14533 0.11398 0.0
C6439 C 0.58073 0.15961 0.11395 0.0
H6440 H 0.55786 0.12474 0.12881 0.0
C6441 C 0.58822 0.16499 0.12967 0.0
H6442 H 0.56339 0.14084 0.10204 0.0
C6443 C 0.58478 0.15596 0.14505 0.0
C6444 C 0.57409 0.14114 0.14491 0.0
H6445 H 0.59701 0.17597 0.13004 0.0
H6446 H 0.59113 0.16014 0.15689 0.0
C6447 C 0.56618 0.13607 0.12929 0.0
C6448 C 0.35461 0.3434 0.91558 0.0
C6449 C 0.35473 0.35814 0.92638 0.0
H6450 H 0.36963 0.32347 0.90323 0.0
C6451 C 0.37032 0.3631 0.93441 0.0
H6452 H 0.3428 0.33929 0.90914 0.0
C6453 C 0.38561 0.35385 0.93126 0.0
C6454 C 0.38568 0.33968 0.91971 0.0
H6455 H 0.37079 0.37437 0.94283 0.0
H6456 H 0.39753 0.35829 0.93727 0.0
C6457 C 0.36998 0.33438 0.91213 0.0
C6458 C 0.35472 0.15715 0.58558 0.0
C6459 C 0.35464 0.1425 0.57465 0.0
H6460 H 0.37001 0.17692 0.5979 0.0
C6461 C 0.3701 0.13753 0.5664 0.0
H6462 H 0.343 0.16125 0.59219 0.0
C6463 C 0.38546 0.14667 0.56945 0.0
C6464 C 0.38576 0.16075 0.5811 0.0
H6465 H 0.37041 0.12633 0.55788 0.0
H6466 H 0.39727 0.1422 0.56324 0.0
C6467 C 0.37018 0.16609 0.58892 0.0
C6468 C 0.34389 0.3544 0.58588 0.0
C6469 C 0.35838 0.35471 0.57476 0.0
H6470 H 0.32405 0.36921 0.59866 0.0
C6471 C 0.36297 0.37037 0.56665 0.0
H6472 H 0.3401 0.34252 0.5924 0.0
C6473 C 0.35362 0.38555 0.57 0.0
C6474 C 0.3397 0.38546 0.58183 0.0
H6475 H 0.37405 0.37098 0.55799 0.0
H6476 H 0.35778 0.39752 0.56388 0.0
C6477 C 0.33475 0.36968 0.58954 0.0
C6478 C 0.12892 0.36263 0.56693 0.0
C6479 C 0.14451 0.35762 0.57492 0.0
H6480 H 0.1017 0.35786 0.56408 0.0
C6481 C 0.14462 0.34286 0.58569 0.0
H6482 H 0.12846 0.37393 0.55854 0.0
C6483 C 0.12924 0.33384 0.58913 0.0
C6484 C 0.11354 0.33918 0.58157 0.0
H6485 H 0.15643 0.33872 0.59211 0.0
H6486 H 0.12958 0.32291 0.598 0.0
C6487 C 0.11362 0.35339 0.57007 0.0
C6488 C 0.13562 0.62853 0.06651 0.0
C6489 C 0.14052 0.64426 0.0743 0.0
H6490 H 0.14067 0.60132 0.06392 0.0
C6491 C 0.15534 0.64463 0.08499 0.0
H6492 H 0.12429 0.62787 0.0582 0.0
C6493 C 0.16453 0.62938 0.08855 0.0
C6494 C 0.15931 0.61355 0.08117 0.0
H6495 H 0.1594 0.65656 0.09125 0.0
H6496 H 0.1755 0.62993 0.09733 0.0
C6497 C 0.14504 0.61335 0.06976 0.0
C6498 C 0.6449 0.6569 0.91518 0.0
C6499 C 0.64481 0.6422 0.92605 0.0
H6500 H 0.62985 0.67675 0.90276 0.0
C6501 C 0.62923 0.63724 0.93409 0.0
H6502 H 0.65671 0.661 0.90873 0.0
C6503 C 0.61392 0.64645 0.9309 0.0
C6504 C 0.61383 0.66058 0.9193 0.0
H6505 H 0.62878 0.626 0.94255 0.0
H6506 H 0.60201 0.64202 0.93692 0.0
C6507 C 0.62952 0.66589 0.91169 0.0
C6508 C 0.35424 0.61359 0.43054 0.0
C6509 C 0.34 0.61369 0.41909 0.0
H6510 H 0.37486 0.62826 0.44216 0.0
C6511 C 0.33467 0.62949 0.41173 0.0
H6512 H 0.3587 0.60159 0.43638 0.0
C6513 C 0.34374 0.6448 0.41531 0.0
C6514 C 0.35853 0.64454 0.42603 0.0
H6515 H 0.32371 0.62996 0.40292 0.0
H6516 H 0.3396 0.6567 0.40904 0.0
C6517 C 0.36354 0.62884 0.43382 0.0
C6518 C 0.1648 0.87041 0.41087 0.0
C6519 C 0.15947 0.88615 0.41837 0.0
H6520 H 0.1599 0.84321 0.40799 0.0
C6521 C 0.14526 0.88614 0.42985 0.0
H6522 H 0.17574 0.87002 0.40202 0.0
C6523 C 0.13599 0.87086 0.43304 0.0
C6524 C 0.141 0.85523 0.42511 0.0
H6525 H 0.14081 0.8981 0.43579 0.0
H6526 H 0.1247 0.87137 0.44141 0.0
C6527 C 0.15576 0.85506 0.41436 0.0
loop_
_geom_bond_atom_site_label_1
_geom_bond_atom_site_label_2
_geom_bond_distance
_geom_bond_site_symmetry_2
_ccdc_geom_bond_type
C0 O2 1.247 . S
C0 O4 1.258 . S
C1 O8 1.247 . S
C1 O9 1.258 . S
O2 C0 1.247 . S
O2 Zn3 2.028 . S
Zn3 O2 2.028 . S
Zn3 O7 2.035 . S
Zn3 O9 2.035 . S
Zn3 O10 2.028 . S
O4 C0 1.258 . S
O4 Zn5 2.035 . S
Zn5 O4 2.035 . S
Zn5 O6 2.028 . S
Zn5 O8 2.028 . S
Zn5 O11 2.035 . S
O6 Zn5 2.028 . S
O6 C12 1.247 . S
O7 Zn3 2.035 . S
O7 C12 1.258 . S
O8 C1 1.247 . S
O8 Zn5 2.028 . S
O9 C1 1.258 . S
O9 Zn3 2.035 . S
O10 Zn3 2.028 . S
O10 C13 1.247 . S
O11 Zn5 2.035 . S
O11 C13 1.258 . S
C12 O6 1.247 . S
C12 O7 1.258 . S
C13 O10 1.247 . S
C13 O11 1.258 . S
C14 O16 1.247 . S
C14 O18 1.258 . S
C15 O22 1.247 . S
C15 O23 1.258 . S
O16 C14 1.247 . S
O16 Zn17 2.028 . S
Zn17 O16 2.028 . S
Zn17 O21 2.035 . S
Zn17 O23 2.035 . S
Zn17 O24 2.028 . S
O18 C14 1.258 . S
O18 Zn19 2.035 . S
Zn19 O18 2.035 . S
Zn19 O20 2.028 . S
Zn19 O22 2.028 . S
Zn19 O25 2.035 . S
O20 Zn19 2.028 . S
O20 C26 1.247 . S
O21 Zn17 2.035 . S
O21 C26 1.258 . S
O22 C15 1.247 . S
O22 Zn19 2.028 . S
O23 C15 1.258 . S
O23 Zn17 2.035 . S
O24 Zn17 2.028 . S
O24 C27 1.247 . S
O25 Zn19 2.035 . S
O25 C27 1.258 . S
C26 O20 1.247 . S
C26 O21 1.258 . S
C27 O24 1.247 . S
C27 O25 1.258 . S
C28 O30 1.247 . S
C28 O32 1.258 . S
C29 O36 1.247 . S
C29 O37 1.258 . S
O30 C28 1.247 . S
O30 Zn31 2.028 . S
Zn31 O30 2.028 . S
Zn31 O35 2.035 . S
Zn31 O37 2.035 . S
Zn31 O38 2.028 . S
O32 C28 1.258 . S
O32 Zn33 2.035 . S
Zn33 O32 2.035 . S
Zn33 O34 2.028 . S
Zn33 O36 2.028 . S
Zn33 O39 2.035 . S
O34 Zn33 2.028 . S
O34 C40 1.247 . S
O35 Zn31 2.035 . S
O35 C40 1.258 . S
O36 C29 1.247 . S
O36 Zn33 2.028 . S
O37 C29 1.258 . S
O37 Zn31 2.035 . S
O38 Zn31 2.028 . S
O38 C41 1.247 . S
O39 Zn33 2.035 . S
O39 C41 1.258 . S
C40 O34 1.247 . S
C40 O35 1.258 . S
C41 O38 1.247 . S
C41 O39 1.258 . S
C42 O44 1.247 . S
C42 O46 1.258 . S
C43 O50 1.247 . S
C43 O51 1.258 . S
O44 C42 1.247 . S
O44 Zn45 2.028 . S
Zn45 O44 2.028 . S
Zn45 O49 2.035 . S
Zn45 O51 2.035 . S
Zn45 O52 2.028 . S
O46 C42 1.258 . S
O46 Zn47 2.035 . S
Zn47 O46 2.035 . S
Zn47 O48 2.028 . S
Zn47 O50 2.028 . S
Zn47 O53 2.035 . S
O48 Zn47 2.028 . S
O48 C54 1.247 . S
O49 Zn45 2.035 . S
O49 C54 1.258 . S
O50 C43 1.247 . S
O50 Zn47 2.028 . S
O51 C43 1.258 . S
O51 Zn45 2.035 . S
O52 Zn45 2.028 . S
O52 C55 1.247 . S
O53 Zn47 2.035 . S
O53 C55 1.258 . S
C54 O48 1.247 . S
C54 O49 1.258 . S
C55 O52 1.247 . S
C55 O53 1.258 . S
C56 O58 1.247 . S
C56 O60 1.258 . S
C57 O64 1.247 . S
C57 O65 1.258 . S
O58 C56 1.247 . S
O58 Zn59 2.028 . S
Zn59 O58 2.028 . S
Zn59 O63 2.035 . S
Zn59 O65 2.035 . S
Zn59 O66 2.028 . S
O60 C56 1.258 . S
O60 Zn61 2.035 . S
Zn61 O60 2.035 . S
Zn61 O62 2.028 . S
Zn61 O64 2.028 . S
Zn61 O67 2.035 . S
O62 Zn61 2.028 . S
O62 C68 1.247 . S
O63 Zn59 2.035 . S
O63 C68 1.258 . S
O64 C57 1.247 . S
O64 Zn61 2.028 . S
O65 C57 1.258 . S
O65 Zn59 2.035 . S
O66 Zn59 2.028 . S
O66 C69 1.247 . S
O67 Zn61 2.035 . S
O67 C69 1.258 . S
C68 O62 1.247 . S
C68 O63 1.258 . S
C69 O66 1.247 . S
C69 O67 1.258 . S
C70 O72 1.247 . S
C70 O74 1.258 . S
C71 O78 1.247 . S
C71 O79 1.258 . S
O72 C70 1.247 . S
O72 Zn73 2.028 . S
Zn73 O72 2.028 . S
Zn73 O77 2.035 . S
Zn73 O79 2.035 . S
Zn73 O80 2.028 . S
O74 C70 1.258 . S
O74 Zn75 2.035 . S
Zn75 O74 2.035 . S
Zn75 O76 2.028 . S
Zn75 O78 2.028 . S
Zn75 O81 2.035 . S
O76 Zn75 2.028 . S
O76 C82 1.247 . S
O77 Zn73 2.035 . S
O77 C82 1.258 . S
O78 C71 1.247 . S
O78 Zn75 2.028 . S
O79 C71 1.258 . S
O79 Zn73 2.035 . S
O80 Zn73 2.028 . S
O80 C83 1.247 . S
O81 Zn75 2.035 . S
O81 C83 1.258 . S
C82 O76 1.247 . S
C82 O77 1.258 . S
C83 O80 1.247 . S
C83 O81 1.258 . S
C84 O86 1.247 . S
C84 O88 1.258 . S
C85 O92 1.247 . S
C85 O93 1.258 . S
O86 C84 1.247 . S
O86 Zn87 2.028 . S
Zn87 O86 2.028 . S
Zn87 O91 2.035 . S
Zn87 O93 2.035 . S
Zn87 O94 2.028 . S
O88 C84 1.258 . S
O88 Zn89 2.035 . S
Zn89 O88 2.035 . S
Zn89 O90 2.028 . S
Zn89 O92 2.028 . S
Zn89 O95 2.035 . S
O90 Zn89 2.028 . S
O90 C96 1.247 . S
O91 Zn87 2.035 . S
O91 C96 1.258 . S
O92 C85 1.247 . S
O92 Zn89 2.028 . S
O93 C85 1.258 . S
O93 Zn87 2.035 . S
O94 Zn87 2.028 . S
O94 C97 1.247 . S
O95 Zn89 2.035 . S
O95 C97 1.258 . S
C96 O90 1.247 . S
C96 O91 1.258 . S
C97 O94 1.247 . S
C97 O95 1.258 . S
C98 O100 1.247 . S
C98 O102 1.258 . S
C99 O106 1.247 . S
C99 O107 1.258 . S
O100 C98 1.247 . S
O100 Zn101 2.028 . S
Zn101 O100 2.028 . S
Zn101 O105 2.035 . S
Zn101 O107 2.035 . S
Zn101 O108 2.028 . S
O102 C98 1.258 . S
O102 Zn103 2.035 . S
Zn103 O102 2.035 . S
Zn103 O104 2.028 . S
Zn103 O106 2.028 . S
Zn103 O109 2.035 . S
O104 Zn103 2.028 . S
O104 C110 1.247 . S
O105 Zn101 2.035 . S
O105 C110 1.258 . S
O106 C99 1.247 . S
O106 Zn103 2.028 . S
O107 C99 1.258 . S
O107 Zn101 2.035 . S
O108 Zn101 2.028 . S
O108 C111 1.247 . S
O109 Zn103 2.035 . S
O109 C111 1.258 . S
C110 O104 1.247 . S
C110 O105 1.258 . S
C111 O108 1.247 . S
C111 O109 1.258 . S
C112 O114 1.247 . S
C112 O116 1.258 . S
C113 O120 1.247 . S
C113 O121 1.258 . S
O114 C112 1.247 . S
O114 Zn115 2.028 . S
Zn115 O114 2.028 . S
Zn115 O119 2.035 . S
Zn115 O121 2.035 . S
Zn115 O122 2.028 . S
O116 C112 1.258 . S
O116 Zn117 2.035 . S
Zn117 O116 2.035 . S
Zn117 O118 2.028 . S
Zn117 O120 2.028 . S
Zn117 O123 2.035 . S
O118 Zn117 2.028 . S
O118 C124 1.247 . S
O119 Zn115 2.035 . S
O119 C124 1.258 . S
O120 C113 1.247 . S
O120 Zn117 2.028 . S
O121 C113 1.258 . S
O121 Zn115 2.035 . S
O122 Zn115 2.028 . S
O122 C125 1.247 . S
O123 Zn117 2.035 . S
O123 C125 1.258 . S
C124 O118 1.247 . S
C124 O119 1.258 . S
C125 O122 1.247 . S
C125 O123 1.258 . S
C126 O128 1.247 . S
C126 O130 1.258 . S
C127 O134 1.247 . S
C127 O135 1.258 . S
O128 C126 1.247 . S
O128 Zn129 2.028 . S
Zn129 O128 2.028 . S
Zn129 O133 2.035 . S
Zn129 O135 2.035 . S
Zn129 O136 2.028 . S
O130 C126 1.258 . S
O130 Zn131 2.035 . S
Zn131 O130 2.035 . S
Zn131 O132 2.028 . S
Zn131 O134 2.028 . S
Zn131 O137 2.035 . S
O132 Zn131 2.028 . S
O132 C138 1.247 . S
O133 Zn129 2.035 . S
O133 C138 1.258 . S
O134 C127 1.247 . S
O134 Zn131 2.028 . S
O135 C127 1.258 . S
O135 Zn129 2.035 . S
O136 Zn129 2.028 . S
O136 C139 1.247 . S
O137 Zn131 2.035 . S
O137 C139 1.258 . S
C138 O132 1.247 . S
C138 O133 1.258 . S
C139 O136 1.247 . S
C139 O137 1.258 . S
C140 O142 1.247 . S
C140 O144 1.258 . S
C141 O148 1.247 . S
C141 O149 1.258 . S
O142 C140 1.247 . S
O142 Zn143 2.028 . S
Zn143 O142 2.028 . S
Zn143 O147 2.035 . S
Zn143 O149 2.035 . S
Zn143 O150 2.028 . S
O144 C140 1.258 . S
O144 Zn145 2.035 . S
Zn145 O144 2.035 . S
Zn145 O146 2.028 . S
Zn145 O148 2.028 . S
Zn145 O151 2.035 . S
O146 Zn145 2.028 . S
O146 C152 1.247 . S
O147 Zn143 2.035 . S
O147 C152 1.258 . S
O148 C141 1.247 . S
O148 Zn145 2.028 . S
O149 C141 1.258 . S
O149 Zn143 2.035 . S
O150 Zn143 2.028 . S
O150 C153 1.247 . S
O151 Zn145 2.035 . S
O151 C153 1.258 . S
C152 O146 1.247 . S
C152 O147 1.258 . S
C153 O150 1.247 . S
C153 O151 1.258 . S
C154 O156 1.247 . S
C154 O158 1.258 . S
C155 O162 1.247 . S
C155 O163 1.258 . S
O156 C154 1.247 . S
O156 Zn157 2.028 . S
Zn157 O156 2.028 . S
Zn157 O161 2.035 . S
Zn157 O163 2.035 . S
Zn157 O164 2.028 . S
O158 C154 1.258 . S
O158 Zn159 2.035 . S
Zn159 O158 2.035 . S
Zn159 O160 2.028 . S
Zn159 O162 2.028 . S
Zn159 O165 2.035 . S
O160 Zn159 2.028 . S
O160 C166 1.247 . S
O161 Zn157 2.035 . S
O161 C166 1.258 . S
O162 C155 1.247 . S
O162 Zn159 2.028 . S
O163 C155 1.258 . S
O163 Zn157 2.035 . S
O164 Zn157 2.028 . S
O164 C167 1.247 . S
O165 Zn159 2.035 . S
O165 C167 1.258 . S
C166 O160 1.247 . S
C166 O161 1.258 . S
C167 O164 1.247 . S
C167 O165 1.258 . S
C168 O170 1.247 . S
C168 O172 1.258 . S
C169 O176 1.247 . S
C169 O177 1.258 . S
O170 C168 1.247 . S
O170 Zn171 2.028 . S
Zn171 O170 2.028 . S
Zn171 O175 2.035 . S
Zn171 O177 2.035 . S
Zn171 O178 2.028 . S
O172 C168 1.258 . S
O172 Zn173 2.035 . S
Zn173 O172 2.035 . S
Zn173 O174 2.028 . S
Zn173 O176 2.028 . S
Zn173 O179 2.035 . S
O174 Zn173 2.028 . S
O174 C180 1.247 . S
O175 Zn171 2.035 . S
O175 C180 1.258 . S
O176 C169 1.247 . S
O176 Zn173 2.028 . S
O177 C169 1.258 . S
O177 Zn171 2.035 . S
O178 Zn171 2.028 . S
O178 C181 1.247 . S
O179 Zn173 2.035 . S
O179 C181 1.258 . S
C180 O174 1.247 . S
C180 O175 1.258 . S
C181 O178 1.247 . S
C181 O179 1.258 . S
C182 O184 1.247 . S
C182 O186 1.258 . S
C183 O190 1.247 . S
C183 O191 1.258 . S
O184 C182 1.247 . S
O184 Zn185 2.028 . S
Zn185 O184 2.028 . S
Zn185 O189 2.035 . S
Zn185 O191 2.035 . S
Zn185 O192 2.028 . S
O186 C182 1.258 . S
O186 Zn187 2.035 . S
Zn187 O186 2.035 . S
Zn187 O188 2.028 . S
Zn187 O190 2.028 . S
Zn187 O193 2.035 . S
O188 Zn187 2.028 . S
O188 C194 1.247 . S
O189 Zn185 2.035 . S
O189 C194 1.258 . S
O190 C183 1.247 . S
O190 Zn187 2.028 . S
O191 C183 1.258 . S
O191 Zn185 2.035 . S
O192 Zn185 2.028 . S
O192 C195 1.247 . S
O193 Zn187 2.035 . S
O193 C195 1.258 . S
C194 O188 1.247 . S
C194 O189 1.258 . S
C195 O192 1.247 . S
C195 O193 1.258 . S
C196 O198 1.247 . S
C196 O200 1.258 . S
C197 O204 1.247 . S
C197 O205 1.258 . S
O198 C196 1.247 . S
O198 Zn199 2.028 . S
Zn199 O198 2.028 . S
Zn199 O203 2.035 . S
Zn199 O205 2.035 . S
Zn199 O206 2.028 . S
O200 C196 1.258 . S
O200 Zn201 2.035 . S
Zn201 O200 2.035 . S
Zn201 O202 2.028 . S
Zn201 O204 2.028 . S
Zn201 O207 2.035 . S
O202 Zn201 2.028 . S
O202 C208 1.247 . S
O203 Zn199 2.035 . S
O203 C208 1.258 . S
O204 C197 1.247 . S
O204 Zn201 2.028 . S
O205 C197 1.258 . S
O205 Zn199 2.035 . S
O206 Zn199 2.028 . S
O206 C209 1.247 . S
O207 Zn201 2.035 . S
O207 C209 1.258 . S
C208 O202 1.247 . S
C208 O203 1.258 . S
C209 O206 1.247 . S
C209 O207 1.258 . S
C210 O212 1.247 . S
C210 O214 1.258 . S
C211 O218 1.247 . S
C211 O219 1.258 . S
O212 C210 1.247 . S
O212 Zn213 2.028 . S
Zn213 O212 2.028 . S
Zn213 O217 2.035 . S
Zn213 O219 2.035 . S
Zn213 O220 2.028 . S
O214 C210 1.258 . S
O214 Zn215 2.035 . S
Zn215 O214 2.035 . S
Zn215 O216 2.028 . S
Zn215 O218 2.028 . S
Zn215 O221 2.035 . S
O216 Zn215 2.028 . S
O216 C222 1.247 . S
O217 Zn213 2.035 . S
O217 C222 1.258 . S
O218 C211 1.247 . S
O218 Zn215 2.028 . S
O219 C211 1.258 . S
O219 Zn213 2.035 . S
O220 Zn213 2.028 . S
O220 C223 1.247 . S
O221 Zn215 2.035 . S
O221 C223 1.258 . S
C222 O216 1.247 . S
C222 O217 1.258 . S
C223 O220 1.247 . S
C223 O221 1.258 . S
C224 O226 1.247 . S
C224 O228 1.258 . S
C225 O232 1.247 . S
C225 O233 1.258 . S
O226 C224 1.247 . S
O226 Zn227 2.028 . S
Zn227 O226 2.028 . S
Zn227 O231 2.035 . S
Zn227 O233 2.035 . S
Zn227 O234 2.028 . S
O228 C224 1.258 . S
O228 Zn229 2.035 . S
Zn229 O228 2.035 . S
Zn229 O230 2.028 . S
Zn229 O232 2.028 . S
Zn229 O235 2.035 . S
O230 Zn229 2.028 . S
O230 C236 1.247 . S
O231 Zn227 2.035 . S
O231 C236 1.258 . S
O232 C225 1.247 . S
O232 Zn229 2.028 . S
O233 C225 1.258 . S
O233 Zn227 2.035 . S
O234 Zn227 2.028 . S
O234 C237 1.247 . S
O235 Zn229 2.035 . S
O235 C237 1.258 . S
C236 O230 1.247 . S
C236 O231 1.258 . S
C237 O234 1.247 . S
C237 O235 1.258 . S
C238 O240 1.247 . S
C238 O242 1.258 . S
C239 O246 1.247 . S
C239 O247 1.258 . S
O240 C238 1.247 . S
O240 Zn241 2.028 . S
Zn241 O240 2.028 . S
Zn241 O245 2.035 . S
Zn241 O247 2.035 . S
Zn241 O248 2.028 . S
O242 C238 1.258 . S
O242 Zn243 2.035 . S
Zn243 O242 2.035 . S
Zn243 O244 2.028 . S
Zn243 O246 2.028 . S
Zn243 O249 2.035 . S
O244 Zn243 2.028 . S
O244 C250 1.247 . S
O245 Zn241 2.035 . S
O245 C250 1.258 . S
O246 C239 1.247 . S
O246 Zn243 2.028 . S
O247 C239 1.258 . S
O247 Zn241 2.035 . S
O248 Zn241 2.028 . S
O248 C251 1.247 . S
O249 Zn243 2.035 . S
O249 C251 1.258 . S
C250 O244 1.247 . S
C250 O245 1.258 . S
C251 O248 1.247 . S
C251 O249 1.258 . S
C252 O254 1.247 . S
C252 O256 1.258 . S
C253 O260 1.247 . S
C253 O261 1.258 . S
O254 C252 1.247 . S
O254 Zn255 2.028 . S
Zn255 O254 2.028 . S
Zn255 O259 2.035 . S
Zn255 O261 2.035 . S
Zn255 O262 2.028 . S
O256 C252 1.258 . S
O256 Zn257 2.035 . S
Zn257 O256 2.035 . S
Zn257 O258 2.028 . S
Zn257 O260 2.028 . S
Zn257 O263 2.035 . S
O258 Zn257 2.028 . S
O258 C264 1.247 . S
O259 Zn255 2.035 . S
O259 C264 1.258 . S
O260 C253 1.247 . S
O260 Zn257 2.028 . S
O261 C253 1.258 . S
O261 Zn255 2.035 . S
O262 Zn255 2.028 . S
O262 C265 1.247 . S
O263 Zn257 2.035 . S
O263 C265 1.258 . S
C264 O258 1.247 . S
C264 O259 1.258 . S
C265 O262 1.247 . S
C265 O263 1.258 . S
C266 O268 1.247 . S
C266 O270 1.258 . S
C267 O274 1.247 . S
C267 O275 1.258 . S
O268 C266 1.247 . S
O268 Zn269 2.028 . S
Zn269 O268 2.028 . S
Zn269 O273 2.035 . S
Zn269 O275 2.035 . S
Zn269 O276 2.028 . S
O270 C266 1.258 . S
O270 Zn271 2.035 . S
Zn271 O270 2.035 . S
Zn271 O272 2.028 . S
Zn271 O274 2.028 . S
Zn271 O277 2.035 . S
O272 Zn271 2.028 . S
O272 C278 1.247 . S
O273 Zn269 2.035 . S
O273 C278 1.258 . S
O274 C267 1.247 . S
O274 Zn271 2.028 . S
O275 C267 1.258 . S
O275 Zn269 2.035 . S
O276 Zn269 2.028 . S
O276 C279 1.247 . S
O277 Zn271 2.035 . S
O277 C279 1.258 . S
C278 O272 1.247 . S
C278 O273 1.258 . S
C279 O276 1.247 . S
C279 O277 1.258 . S
C280 O282 1.247 . S
C280 O284 1.258 . S
C281 O288 1.247 . S
C281 O289 1.258 . S
O282 C280 1.247 . S
O282 Zn283 2.028 . S
Zn283 O282 2.028 . S
Zn283 O287 2.035 . S
Zn283 O289 2.035 . S
Zn283 O290 2.028 . S
O284 C280 1.258 . S
O284 Zn285 2.035 . S
Zn285 O284 2.035 . S
Zn285 O286 2.028 . S
Zn285 O288 2.028 . S
Zn285 O291 2.035 . S
O286 Zn285 2.028 . S
O286 C292 1.247 . S
O287 Zn283 2.035 . S
O287 C292 1.258 . S
O288 C281 1.247 . S
O288 Zn285 2.028 . S
O289 C281 1.258 . S
O289 Zn283 2.035 . S
O290 Zn283 2.028 . S
O290 C293 1.247 . S
O291 Zn285 2.035 . S
O291 C293 1.258 . S
C292 O286 1.247 . S
C292 O287 1.258 . S
C293 O290 1.247 . S
C293 O291 1.258 . S
C294 O296 1.247 . S
C294 O298 1.258 . S
C295 O302 1.247 . S
C295 O303 1.258 . S
O296 C294 1.247 . S
O296 Zn297 2.028 . S
Zn297 O296 2.028 . S
Zn297 O301 2.035 . S
Zn297 O303 2.035 . S
Zn297 O304 2.028 . S
O298 C294 1.258 . S
O298 Zn299 2.035 . S
Zn299 O298 2.035 . S
Zn299 O300 2.028 . S
Zn299 O302 2.028 . S
Zn299 O305 2.035 . S
O300 Zn299 2.028 . S
O300 C306 1.247 . S
O301 Zn297 2.035 . S
O301 C306 1.258 . S
O302 C295 1.247 . S
O302 Zn299 2.028 . S
O303 C295 1.258 . S
O303 Zn297 2.035 . S
O304 Zn297 2.028 . S
O304 C307 1.247 . S
O305 Zn299 2.035 . S
O305 C307 1.258 . S
C306 O300 1.247 . S
C306 O301 1.258 . S
C307 O304 1.247 . S
C307 O305 1.258 . S
C308 O310 1.247 . S
C308 O312 1.258 . S
C309 O316 1.247 . S
C309 O317 1.258 . S
O310 C308 1.247 . S
O310 Zn311 2.028 . S
Zn311 O310 2.028 . S
Zn311 O315 2.035 . S
Zn311 O317 2.035 . S
Zn311 O318 2.028 . S
O312 C308 1.258 . S
O312 Zn313 2.035 . S
Zn313 O312 2.035 . S
Zn313 O314 2.028 . S
Zn313 O316 2.028 . S
Zn313 O319 2.035 . S
O314 Zn313 2.028 . S
O314 C320 1.247 . S
O315 Zn311 2.035 . S
O315 C320 1.258 . S
O316 C309 1.247 . S
O316 Zn313 2.028 . S
O317 C309 1.258 . S
O317 Zn311 2.035 . S
O318 Zn311 2.028 . S
O318 C321 1.247 . S
O319 Zn313 2.035 . S
O319 C321 1.258 . S
C320 O314 1.247 . S
C320 O315 1.258 . S
C321 O318 1.247 . S
C321 O319 1.258 . S
C322 O324 1.247 . S
C322 O326 1.258 . S
C323 O330 1.247 . S
C323 O331 1.258 . S
O324 C322 1.247 . S
O324 Zn325 2.028 . S
Zn325 O324 2.028 . S
Zn325 O329 2.035 . S
Zn325 O331 2.035 . S
Zn325 O332 2.028 . S
O326 C322 1.258 . S
O326 Zn327 2.035 . S
Zn327 O326 2.035 . S
Zn327 O328 2.028 . S
Zn327 O330 2.028 . S
Zn327 O333 2.035 . S
O328 Zn327 2.028 . S
O328 C334 1.247 . S
O329 Zn325 2.035 . S
O329 C334 1.258 . S
O330 C323 1.247 . S
O330 Zn327 2.028 . S
O331 C323 1.258 . S
O331 Zn325 2.035 . S
O332 Zn325 2.028 . S
O332 C335 1.247 . S
O333 Zn327 2.035 . S
O333 C335 1.258 . S
C334 O328 1.247 . S
C334 O329 1.258 . S
C335 O332 1.247 . S
C335 O333 1.258 . S
C336 O338 1.247 . S
C336 O340 1.258 . S
C337 O344 1.247 . S
C337 O345 1.258 . S
O338 C336 1.247 . S
O338 Zn339 2.028 . S
Zn339 O338 2.028 . S
Zn339 O343 2.035 . S
Zn339 O345 2.035 . S
Zn339 O346 2.028 . S
O340 C336 1.258 . S
O340 Zn341 2.035 . S
Zn341 O340 2.035 . S
Zn341 O342 2.028 . S
Zn341 O344 2.028 . S
Zn341 O347 2.035 . S
O342 Zn341 2.028 . S
O342 C348 1.247 . S
O343 Zn339 2.035 . S
O343 C348 1.258 . S
O344 C337 1.247 . S
O344 Zn341 2.028 . S
O345 C337 1.258 . S
O345 Zn339 2.035 . S
O346 Zn339 2.028 . S
O346 C349 1.247 . S
O347 Zn341 2.035 . S
O347 C349 1.258 . S
C348 O342 1.247 . S
C348 O343 1.258 . S
C349 O346 1.247 . S
C349 O347 1.258 . S
C350 O352 1.247 . S
C350 O354 1.258 . S
C351 O358 1.247 . S
C351 O359 1.258 . S
O352 C350 1.247 . S
O352 Zn353 2.028 . S
Zn353 O352 2.028 . S
Zn353 O357 2.035 . S
Zn353 O359 2.035 . S
Zn353 O360 2.028 . S
O354 C350 1.258 . S
O354 Zn355 2.035 . S
Zn355 O354 2.035 . S
Zn355 O356 2.028 . S
Zn355 O358 2.028 . S
Zn355 O361 2.035 . S
O356 Zn355 2.028 . S
O356 C362 1.247 . S
O357 Zn353 2.035 . S
O357 C362 1.258 . S
O358 C351 1.247 . S
O358 Zn355 2.028 . S
O359 C351 1.258 . S
O359 Zn353 2.035 . S
O360 Zn353 2.028 . S
O360 C363 1.247 . S
O361 Zn355 2.035 . S
O361 C363 1.258 . S
C362 O356 1.247 . S
C362 O357 1.258 . S
C363 O360 1.247 . S
C363 O361 1.258 . S
C364 O366 1.247 . S
C364 O368 1.258 . S
C365 O372 1.247 . S
C365 O373 1.258 . S
O366 C364 1.247 . S
O366 Zn367 2.028 . S
Zn367 O366 2.028 . S
Zn367 O371 2.035 . S
Zn367 O373 2.035 . S
Zn367 O374 2.028 . S
O368 C364 1.258 . S
O368 Zn369 2.035 . S
Zn369 O368 2.035 . S
Zn369 O370 2.028 . S
Zn369 O372 2.028 . S
Zn369 O375 2.035 . S
O370 Zn369 2.028 . S
O370 C376 1.247 . S
O371 Zn367 2.035 . S
O371 C376 1.258 . S
O372 C365 1.247 . S
O372 Zn369 2.028 . S
O373 C365 1.258 . S
O373 Zn367 2.035 . S
O374 Zn367 2.028 . S
O374 C377 1.247 . S
O375 Zn369 2.035 . S
O375 C377 1.258 . S
C376 O370 1.247 . S
C376 O371 1.258 . S
C377 O374 1.247 . S
C377 O375 1.258 . S
C378 O380 1.247 . S
C378 O382 1.258 . S
C379 O386 1.247 . S
C379 O387 1.258 . S
O380 C378 1.247 . S
O380 Zn381 2.028 . S
Zn381 O380 2.028 . S
Zn381 O385 2.035 . S
Zn381 O387 2.035 . S
Zn381 O388 2.028 . S
O382 C378 1.258 . S
O382 Zn383 2.035 . S
Zn383 O382 2.035 . S
Zn383 O384 2.028 . S
Zn383 O386 2.028 . S
Zn383 O389 2.035 . S
O384 Zn383 2.028 . S
O384 C390 1.247 . S
O385 Zn381 2.035 . S
O385 C390 1.258 . S
O386 C379 1.247 . S
O386 Zn383 2.028 . S
O387 C379 1.258 . S
O387 Zn381 2.035 . S
O388 Zn381 2.028 . S
O388 C391 1.247 . S
O389 Zn383 2.035 . S
O389 C391 1.258 . S
C390 O384 1.247 . S
C390 O385 1.258 . S
C391 O388 1.247 . S
C391 O389 1.258 . S
C392 O394 1.247 . S
C392 O396 1.258 . S
C393 O400 1.247 . S
C393 O401 1.258 . S
O394 C392 1.247 . S
O394 Zn395 2.028 . S
Zn395 O394 2.028 . S
Zn395 O399 2.035 . S
Zn395 O401 2.035 . S
Zn395 O402 2.028 . S
O396 C392 1.258 . S
O396 Zn397 2.035 . S
Zn397 O396 2.035 . S
Zn397 O398 2.028 . S
Zn397 O400 2.028 . S
Zn397 O403 2.035 . S
O398 Zn397 2.028 . S
O398 C404 1.247 . S
O399 Zn395 2.035 . S
O399 C404 1.258 . S
O400 C393 1.247 . S
O400 Zn397 2.028 . S
O401 C393 1.258 . S
O401 Zn395 2.035 . S
O402 Zn395 2.028 . S
O402 C405 1.247 . S
O403 Zn397 2.035 . S
O403 C405 1.258 . S
C404 O398 1.247 . S
C404 O399 1.258 . S
C405 O402 1.247 . S
C405 O403 1.258 . S
C406 O408 1.247 . S
C406 O410 1.258 . S
C407 O414 1.247 . S
C407 O415 1.258 . S
O408 C406 1.247 . S
O408 Zn409 2.028 . S
Zn409 O408 2.028 . S
Zn409 O413 2.035 . S
Zn409 O415 2.035 . S
Zn409 O416 2.028 . S
O410 C406 1.258 . S
O410 Zn411 2.035 . S
Zn411 O410 2.035 . S
Zn411 O412 2.028 . S
Zn411 O414 2.028 . S
Zn411 O417 2.035 . S
O412 Zn411 2.028 . S
O412 C418 1.247 . S
O413 Zn409 2.035 . S
O413 C418 1.258 . S
O414 C407 1.247 . S
O414 Zn411 2.028 . S
O415 C407 1.258 . S
O415 Zn409 2.035 . S
O416 Zn409 2.028 . S
O416 C419 1.247 . S
O417 Zn411 2.035 . S
O417 C419 1.258 . S
C418 O412 1.247 . S
C418 O413 1.258 . S
C419 O416 1.247 . S
C419 O417 1.258 . S
C420 O422 1.247 . S
C420 O424 1.258 . S
C421 O428 1.247 . S
C421 O429 1.258 . S
O422 C420 1.247 . S
O422 Zn423 2.028 . S
Zn423 O422 2.028 . S
Zn423 O427 2.035 . S
Zn423 O429 2.035 . S
Zn423 O430 2.028 . S
O424 C420 1.258 . S
O424 Zn425 2.035 . S
Zn425 O424 2.035 . S
Zn425 O426 2.028 . S
Zn425 O428 2.028 . S
Zn425 O431 2.035 . S
O426 Zn425 2.028 . S
O426 C432 1.247 . S
O427 Zn423 2.035 . S
O427 C432 1.258 . S
O428 C421 1.247 . S
O428 Zn425 2.028 . S
O429 C421 1.258 . S
O429 Zn423 2.035 . S
O430 Zn423 2.028 . S
O430 C433 1.247 . S
O431 Zn425 2.035 . S
O431 C433 1.258 . S
C432 O426 1.247 . S
C432 O427 1.258 . S
C433 O430 1.247 . S
C433 O431 1.258 . S
C434 O436 1.247 . S
C434 O438 1.258 . S
C435 O442 1.247 . S
C435 O443 1.258 . S
O436 C434 1.247 . S
O436 Zn437 2.028 . S
Zn437 O436 2.028 . S
Zn437 O441 2.035 . S
Zn437 O443 2.035 . S
Zn437 O444 2.028 . S
O438 C434 1.258 . S
O438 Zn439 2.035 . S
Zn439 O438 2.035 . S
Zn439 O440 2.028 . S
Zn439 O442 2.028 . S
Zn439 O445 2.035 . S
O440 Zn439 2.028 . S
O440 C446 1.247 . S
O441 Zn437 2.035 . S
O441 C446 1.258 . S
O442 C435 1.247 . S
O442 Zn439 2.028 . S
O443 C435 1.258 . S
O443 Zn437 2.035 . S
O444 Zn437 2.028 . S
O444 C447 1.247 . S
O445 Zn439 2.035 . S
O445 C447 1.258 . S
C446 O440 1.247 . S
C446 O441 1.258 . S
C447 O444 1.247 . S
C447 O445 1.258 . S
C448 O450 1.247 . S
C448 O452 1.258 . S
C449 O456 1.247 . S
C449 O457 1.258 . S
O450 C448 1.247 . S
O450 Zn451 2.028 . S
Zn451 O450 2.028 . S
Zn451 O455 2.035 . S
Zn451 O457 2.035 . S
Zn451 O458 2.028 . S
O452 C448 1.258 . S
O452 Zn453 2.035 . S
Zn453 O452 2.035 . S
Zn453 O454 2.028 . S
Zn453 O456 2.028 . S
Zn453 O459 2.035 . S
O454 Zn453 2.028 . S
O454 C460 1.247 . S
O455 Zn451 2.035 . S
O455 C460 1.258 . S
O456 C449 1.247 . S
O456 Zn453 2.028 . S
O457 C449 1.258 . S
O457 Zn451 2.035 . S
O458 Zn451 2.028 . S
O458 C461 1.247 . S
O459 Zn453 2.035 . S
O459 C461 1.258 . S
C460 O454 1.247 . S
C460 O455 1.258 . S
C461 O458 1.247 . S
C461 O459 1.258 . S
C462 O464 1.247 . S
C462 O466 1.258 . S
C463 O470 1.247 . S
C463 O471 1.258 . S
O464 C462 1.247 . S
O464 Zn465 2.028 . S
Zn465 O464 2.028 . S
Zn465 O469 2.035 . S
Zn465 O471 2.035 . S
Zn465 O472 2.028 . S
O466 C462 1.258 . S
O466 Zn467 2.035 . S
Zn467 O466 2.035 . S
Zn467 O468 2.028 . S
Zn467 O470 2.028 . S
Zn467 O473 2.035 . S
O468 Zn467 2.028 . S
O468 C474 1.247 . S
O469 Zn465 2.035 . S
O469 C474 1.258 . S
O470 C463 1.247 . S
O470 Zn467 2.028 . S
O471 C463 1.258 . S
O471 Zn465 2.035 . S
O472 Zn465 2.028 . S
O472 C475 1.247 . S
O473 Zn467 2.035 . S
O473 C475 1.258 . S
C474 O468 1.247 . S
C474 O469 1.258 . S
C475 O472 1.247 . S
C475 O473 1.258 . S
C476 O478 1.247 . S
C476 O480 1.258 . S
C477 O484 1.247 . S
C477 O485 1.258 . S
O478 C476 1.247 . S
O478 Zn479 2.028 . S
Zn479 O478 2.028 . S
Zn479 O483 2.035 . S
Zn479 O485 2.035 . S
Zn479 O486 2.028 . S
O480 C476 1.258 . S
O480 Zn481 2.035 . S
Zn481 O480 2.035 . S
Zn481 O482 2.028 . S
Zn481 O484 2.028 . S
Zn481 O487 2.035 . S
O482 Zn481 2.028 . S
O482 C488 1.247 . S
O483 Zn479 2.035 . S
O483 C488 1.258 . S
O484 C477 1.247 . S
O484 Zn481 2.028 . S
O485 C477 1.258 . S
O485 Zn479 2.035 . S
O486 Zn479 2.028 . S
O486 C489 1.247 . S
O487 Zn481 2.035 . S
O487 C489 1.258 . S
C488 O482 1.247 . S
C488 O483 1.258 . S
C489 O486 1.247 . S
C489 O487 1.258 . S
C490 O492 1.247 . S
C490 O494 1.258 . S
C491 O498 1.247 . S
C491 O499 1.258 . S
O492 C490 1.247 . S
O492 Zn493 2.028 . S
Zn493 O492 2.028 . S
Zn493 O497 2.035 . S
Zn493 O499 2.035 . S
Zn493 O500 2.028 . S
O494 C490 1.258 . S
O494 Zn495 2.035 . S
Zn495 O494 2.035 . S
Zn495 O496 2.028 . S
Zn495 O498 2.028 . S
Zn495 O501 2.035 . S
O496 Zn495 2.028 . S
O496 C502 1.247 . S
O497 Zn493 2.035 . S
O497 C502 1.258 . S
O498 C491 1.247 . S
O498 Zn495 2.028 . S
O499 C491 1.258 . S
O499 Zn493 2.035 . S
O500 Zn493 2.028 . S
O500 C503 1.247 . S
O501 Zn495 2.035 . S
O501 C503 1.258 . S
C502 O496 1.247 . S
C502 O497 1.258 . S
C503 O500 1.247 . S
C503 O501 1.258 . S
C504 O506 1.247 . S
C504 O508 1.258 . S
C505 O512 1.247 . S
C505 O513 1.258 . S
O506 C504 1.247 . S
O506 Zn507 2.028 . S
Zn507 O506 2.028 . S
Zn507 O511 2.035 . S
Zn507 O513 2.035 . S
Zn507 O514 2.028 . S
O508 C504 1.258 . S
O508 Zn509 2.035 . S
Zn509 O508 2.035 . S
Zn509 O510 2.028 . S
Zn509 O512 2.028 . S
Zn509 O515 2.035 . S
O510 Zn509 2.028 . S
O510 C516 1.247 . S
O511 Zn507 2.035 . S
O511 C516 1.258 . S
O512 C505 1.247 . S
O512 Zn509 2.028 . S
O513 C505 1.258 . S
O513 Zn507 2.035 . S
O514 Zn507 2.028 . S
O514 C517 1.247 . S
O515 Zn509 2.035 . S
O515 C517 1.258 . S
C516 O510 1.247 . S
C516 O511 1.258 . S
C517 O514 1.247 . S
C517 O515 1.258 . S
C518 O520 1.247 . S
C518 O522 1.258 . S
C519 O526 1.247 . S
C519 O527 1.258 . S
O520 C518 1.247 . S
O520 Zn521 2.028 . S
Zn521 O520 2.028 . S
Zn521 O525 2.035 . S
Zn521 O527 2.035 . S
Zn521 O528 2.028 . S
O522 C518 1.258 . S
O522 Zn523 2.035 . S
Zn523 O522 2.035 . S
Zn523 O524 2.028 . S
Zn523 O526 2.028 . S
Zn523 O529 2.035 . S
O524 Zn523 2.028 . S
O524 C530 1.247 . S
O525 Zn521 2.035 . S
O525 C530 1.258 . S
O526 C519 1.247 . S
O526 Zn523 2.028 . S
O527 C519 1.258 . S
O527 Zn521 2.035 . S
O528 Zn521 2.028 . S
O528 C531 1.247 . S
O529 Zn523 2.035 . S
O529 C531 1.258 . S
C530 O524 1.247 . S
C530 O525 1.258 . S
C531 O528 1.247 . S
C531 O529 1.258 . S
C532 O534 1.247 . S
C532 O536 1.258 . S
C533 O540 1.247 . S
C533 O541 1.258 . S
O534 C532 1.247 . S
O534 Zn535 2.028 . S
Zn535 O534 2.028 . S
Zn535 O539 2.035 . S
Zn535 O541 2.035 . S
Zn535 O542 2.028 . S
O536 C532 1.258 . S
O536 Zn537 2.035 . S
Zn537 O536 2.035 . S
Zn537 O538 2.028 . S
Zn537 O540 2.028 . S
Zn537 O543 2.035 . S
O538 Zn537 2.028 . S
O538 C544 1.247 . S
O539 Zn535 2.035 . S
O539 C544 1.258 . S
O540 C533 1.247 . S
O540 Zn537 2.028 . S
O541 C533 1.258 . S
O541 Zn535 2.035 . S
O542 Zn535 2.028 . S
O542 C545 1.247 . S
O543 Zn537 2.035 . S
O543 C545 1.258 . S
C544 O538 1.247 . S
C544 O539 1.258 . S
C545 O542 1.247 . S
C545 O543 1.258 . S
C546 O548 1.247 . S
C546 O550 1.258 . S
C547 O554 1.247 . S
C547 O555 1.258 . S
O548 C546 1.247 . S
O548 Zn549 2.028 . S
Zn549 O548 2.028 . S
Zn549 O553 2.035 . S
Zn549 O555 2.035 . S
Zn549 O556 2.028 . S
O550 C546 1.258 . S
O550 Zn551 2.035 . S
Zn551 O550 2.035 . S
Zn551 O552 2.028 . S
Zn551 O554 2.028 . S
Zn551 O557 2.035 . S
O552 Zn551 2.028 . S
O552 C558 1.247 . S
O553 Zn549 2.035 . S
O553 C558 1.258 . S
O554 C547 1.247 . S
O554 Zn551 2.028 . S
O555 C547 1.258 . S
O555 Zn549 2.035 . S
O556 Zn549 2.028 . S
O556 C559 1.247 . S
O557 Zn551 2.035 . S
O557 C559 1.258 . S
C558 O552 1.247 . S
C558 O553 1.258 . S
C559 O556 1.247 . S
C559 O557 1.258 . S
C560 O562 1.247 . S
C560 O564 1.258 . S
C561 O568 1.247 . S
C561 O569 1.258 . S
O562 C560 1.247 . S
O562 Zn563 2.028 . S
Zn563 O562 2.028 . S
Zn563 O567 2.035 . S
Zn563 O569 2.035 . S
Zn563 O570 2.028 . S
O564 C560 1.258 . S
O564 Zn565 2.035 . S
Zn565 O564 2.035 . S
Zn565 O566 2.028 . S
Zn565 O568 2.028 . S
Zn565 O571 2.035 . S
O566 Zn565 2.028 . S
O566 C572 1.247 . S
O567 Zn563 2.035 . S
O567 C572 1.258 . S
O568 C561 1.247 . S
O568 Zn565 2.028 . S
O569 C561 1.258 . S
O569 Zn563 2.035 . S
O570 Zn563 2.028 . S
O570 C573 1.247 . S
O571 Zn565 2.035 . S
O571 C573 1.258 . S
C572 O566 1.247 . S
C572 O567 1.258 . S
C573 O570 1.247 . S
C573 O571 1.258 . S
C574 O576 1.247 . S
C574 O578 1.258 . S
C575 O582 1.247 . S
C575 O583 1.258 . S
O576 C574 1.247 . S
O576 Zn577 2.028 . S
Zn577 O576 2.028 . S
Zn577 O581 2.035 . S
Zn577 O583 2.035 . S
Zn577 O584 2.028 . S
O578 C574 1.258 . S
O578 Zn579 2.035 . S
Zn579 O578 2.035 . S
Zn579 O580 2.028 . S
Zn579 O582 2.028 . S
Zn579 O585 2.035 . S
O580 Zn579 2.028 . S
O580 C586 1.247 . S
O581 Zn577 2.035 . S
O581 C586 1.258 . S
O582 C575 1.247 . S
O582 Zn579 2.028 . S
O583 C575 1.258 . S
O583 Zn577 2.035 . S
O584 Zn577 2.028 . S
O584 C587 1.247 . S
O585 Zn579 2.035 . S
O585 C587 1.258 . S
C586 O580 1.247 . S
C586 O581 1.258 . S
C587 O584 1.247 . S
C587 O585 1.258 . S
C588 O590 1.247 . S
C588 O592 1.258 . S
C589 O596 1.247 . S
C589 O597 1.258 . S
O590 C588 1.247 . S
O590 Zn591 2.028 . S
Zn591 O590 2.028 . S
Zn591 O595 2.035 . S
Zn591 O597 2.035 . S
Zn591 O598 2.028 . S
O592 C588 1.258 . S
O592 Zn593 2.035 . S
Zn593 O592 2.035 . S
Zn593 O594 2.028 . S
Zn593 O596 2.028 . S
Zn593 O599 2.035 . S
O594 Zn593 2.028 . S
O594 C600 1.247 . S
O595 Zn591 2.035 . S
O595 C600 1.258 . S
O596 C589 1.247 . S
O596 Zn593 2.028 . S
O597 C589 1.258 . S
O597 Zn591 2.035 . S
O598 Zn591 2.028 . S
O598 C601 1.247 . S
O599 Zn593 2.035 . S
O599 C601 1.258 . S
C600 O594 1.247 . S
C600 O595 1.258 . S
C601 O598 1.247 . S
C601 O599 1.258 . S
C602 O604 1.247 . S
C602 O606 1.258 . S
C603 O610 1.247 . S
C603 O611 1.258 . S
O604 C602 1.247 . S
O604 Zn605 2.028 . S
Zn605 O604 2.028 . S
Zn605 O609 2.035 . S
Zn605 O611 2.035 . S
Zn605 O612 2.028 . S
O606 C602 1.258 . S
O606 Zn607 2.035 . S
Zn607 O606 2.035 . S
Zn607 O608 2.028 . S
Zn607 O610 2.028 . S
Zn607 O613 2.035 . S
O608 Zn607 2.028 . S
O608 C614 1.247 . S
O609 Zn605 2.035 . S
O609 C614 1.258 . S
O610 C603 1.247 . S
O610 Zn607 2.028 . S
O611 C603 1.258 . S
O611 Zn605 2.035 . S
O612 Zn605 2.028 . S
O612 C615 1.247 . S
O613 Zn607 2.035 . S
O613 C615 1.258 . S
C614 O608 1.247 . S
C614 O609 1.258 . S
C615 O612 1.247 . S
C615 O613 1.258 . S
C616 O618 1.247 . S
C616 O620 1.258 . S
C617 O624 1.247 . S
C617 O625 1.258 . S
O618 C616 1.247 . S
O618 Zn619 2.028 . S
Zn619 O618 2.028 . S
Zn619 O623 2.035 . S
Zn619 O625 2.035 . S
Zn619 O626 2.028 . S
O620 C616 1.258 . S
O620 Zn621 2.035 . S
Zn621 O620 2.035 . S
Zn621 O622 2.028 . S
Zn621 O624 2.028 . S
Zn621 O627 2.035 . S
O622 Zn621 2.028 . S
O622 C628 1.247 . S
O623 Zn619 2.035 . S
O623 C628 1.258 . S
O624 C617 1.247 . S
O624 Zn621 2.028 . S
O625 C617 1.258 . S
O625 Zn619 2.035 . S
O626 Zn619 2.028 . S
O626 C629 1.247 . S
O627 Zn621 2.035 . S
O627 C629 1.258 . S
C628 O622 1.247 . S
C628 O623 1.258 . S
C629 O626 1.247 . S
C629 O627 1.258 . S
C630 O632 1.247 . S
C630 O634 1.258 . S
C631 O638 1.247 . S
C631 O639 1.258 . S
O632 C630 1.247 . S
O632 Zn633 2.028 . S
Zn633 O632 2.028 . S
Zn633 O637 2.035 . S
Zn633 O639 2.035 . S
Zn633 O640 2.028 . S
O634 C630 1.258 . S
O634 Zn635 2.035 . S
Zn635 O634 2.035 . S
Zn635 O636 2.028 . S
Zn635 O638 2.028 . S
Zn635 O641 2.035 . S
O636 Zn635 2.028 . S
O636 C642 1.247 . S
O637 Zn633 2.035 . S
O637 C642 1.258 . S
O638 C631 1.247 . S
O638 Zn635 2.028 . S
O639 C631 1.258 . S
O639 Zn633 2.035 . S
O640 Zn633 2.028 . S
O640 C643 1.247 . S
O641 Zn635 2.035 . S
O641 C643 1.258 . S
C642 O636 1.247 . S
C642 O637 1.258 . S
C643 O640 1.247 . S
C643 O641 1.258 . S
C644 O646 1.247 . S
C644 O648 1.258 . S
C645 O652 1.247 . S
C645 O653 1.258 . S
O646 C644 1.247 . S
O646 Zn647 2.028 . S
Zn647 O646 2.028 . S
Zn647 O651 2.035 . S
Zn647 O653 2.035 . S
Zn647 O654 2.028 . S
O648 C644 1.258 . S
O648 Zn649 2.035 . S
Zn649 O648 2.035 . S
Zn649 O650 2.028 . S
Zn649 O652 2.028 . S
Zn649 O655 2.035 . S
O650 Zn649 2.028 . S
O650 C656 1.247 . S
O651 Zn647 2.035 . S
O651 C656 1.258 . S
O652 C645 1.247 . S
O652 Zn649 2.028 . S
O653 C645 1.258 . S
O653 Zn647 2.035 . S
O654 Zn647 2.028 . S
O654 C657 1.247 . S
O655 Zn649 2.035 . S
O655 C657 1.258 . S
C656 O650 1.247 . S
C656 O651 1.258 . S
C657 O654 1.247 . S
C657 O655 1.258 . S
C658 O660 1.247 . S
C658 O662 1.258 . S
C659 O666 1.247 . S
C659 O667 1.258 . S
O660 C658 1.247 . S
O660 Zn661 2.028 . S
Zn661 O660 2.028 . S
Zn661 O665 2.035 . S
Zn661 O667 2.035 . S
Zn661 O668 2.028 . S
O662 C658 1.258 . S
O662 Zn663 2.035 . S
Zn663 O662 2.035 . S
Zn663 O664 2.028 . S
Zn663 O666 2.028 . S
Zn663 O669 2.035 . S
O664 Zn663 2.028 . S
O664 C670 1.247 . S
O665 Zn661 2.035 . S
O665 C670 1.258 . S
O666 C659 1.247 . S
O666 Zn663 2.028 . S
O667 C659 1.258 . S
O667 Zn661 2.035 . S
O668 Zn661 2.028 . S
O668 C671 1.247 . S
O669 Zn663 2.035 . S
O669 C671 1.258 . S
C670 O664 1.247 . S
C670 O665 1.258 . S
C671 O668 1.247 . S
C671 O669 1.258 . S
C672 O674 1.247 . S
C672 O676 1.258 . S
C673 O680 1.247 . S
C673 O681 1.258 . S
O674 C672 1.247 . S
O674 Zn675 2.028 . S
Zn675 O674 2.028 . S
Zn675 O679 2.035 . S
Zn675 O681 2.035 . S
Zn675 O682 2.028 . S
O676 C672 1.258 . S
O676 Zn677 2.035 . S
Zn677 O676 2.035 . S
Zn677 O678 2.028 . S
Zn677 O680 2.028 . S
Zn677 O683 2.035 . S
O678 Zn677 2.028 . S
O678 C684 1.247 . S
O679 Zn675 2.035 . S
O679 C684 1.258 . S
O680 C673 1.247 . S
O680 Zn677 2.028 . S
O681 C673 1.258 . S
O681 Zn675 2.035 . S
O682 Zn675 2.028 . S
O682 C685 1.247 . S
O683 Zn677 2.035 . S
O683 C685 1.258 . S
C684 O678 1.247 . S
C684 O679 1.258 . S
C685 O682 1.247 . S
C685 O683 1.258 . S
C686 O688 1.247 . S
C686 O690 1.258 . S
C687 O694 1.247 . S
C687 O695 1.258 . S
O688 C686 1.247 . S
O688 Zn689 2.028 . S
Zn689 O688 2.028 . S
Zn689 O693 2.035 . S
Zn689 O695 2.035 . S
Zn689 O696 2.028 . S
O690 C686 1.258 . S
O690 Zn691 2.035 . S
Zn691 O690 2.035 . S
Zn691 O692 2.028 . S
Zn691 O694 2.028 . S
Zn691 O697 2.035 . S
O692 Zn691 2.028 . S
O692 C698 1.247 . S
O693 Zn689 2.035 . S
O693 C698 1.258 . S
O694 C687 1.247 . S
O694 Zn691 2.028 . S
O695 C687 1.258 . S
O695 Zn689 2.035 . S
O696 Zn689 2.028 . S
O696 C699 1.247 . S
O697 Zn691 2.035 . S
O697 C699 1.258 . S
C698 O692 1.247 . S
C698 O693 1.258 . S
C699 O696 1.247 . S
C699 O697 1.258 . S
C700 O702 1.247 . S
C700 O704 1.258 . S
C701 O708 1.247 . S
C701 O709 1.258 . S
O702 C700 1.247 . S
O702 Zn703 2.028 . S
Zn703 O702 2.028 . S
Zn703 O707 2.035 . S
Zn703 O709 2.035 . S
Zn703 O710 2.028 . S
O704 C700 1.258 . S
O704 Zn705 2.035 . S
Zn705 O704 2.035 . S
Zn705 O706 2.028 . S
Zn705 O708 2.028 . S
Zn705 O711 2.035 . S
O706 Zn705 2.028 . S
O706 C712 1.247 . S
O707 Zn703 2.035 . S
O707 C712 1.258 . S
O708 C701 1.247 . S
O708 Zn705 2.028 . S
O709 C701 1.258 . S
O709 Zn703 2.035 . S
O710 Zn703 2.028 . S
O710 C713 1.247 . S
O711 Zn705 2.035 . S
O711 C713 1.258 . S
C712 O706 1.247 . S
C712 O707 1.258 . S
C713 O710 1.247 . S
C713 O711 1.258 . S
C714 O716 1.247 . S
C714 O718 1.258 . S
C715 O722 1.247 . S
C715 O723 1.258 . S
O716 C714 1.247 . S
O716 Zn717 2.028 . S
Zn717 O716 2.028 . S
Zn717 O721 2.035 . S
Zn717 O723 2.035 . S
Zn717 O724 2.028 . S
O718 C714 1.258 . S
O718 Zn719 2.035 . S
Zn719 O718 2.035 . S
Zn719 O720 2.028 . S
Zn719 O722 2.028 . S
Zn719 O725 2.035 . S
O720 Zn719 2.028 . S
O720 C726 1.247 . S
O721 Zn717 2.035 . S
O721 C726 1.258 . S
O722 C715 1.247 . S
O722 Zn719 2.028 . S
O723 C715 1.258 . S
O723 Zn717 2.035 . S
O724 Zn717 2.028 . S
O724 C727 1.247 . S
O725 Zn719 2.035 . S
O725 C727 1.258 . S
C726 O720 1.247 . S
C726 O721 1.258 . S
C727 O724 1.247 . S
C727 O725 1.258 . S
C728 O730 1.247 . S
C728 O732 1.258 . S
C729 O736 1.247 . S
C729 O737 1.258 . S
O730 C728 1.247 . S
O730 Zn731 2.028 . S
Zn731 O730 2.028 . S
Zn731 O735 2.035 . S
Zn731 O737 2.035 . S
Zn731 O738 2.028 . S
O732 C728 1.258 . S
O732 Zn733 2.035 . S
Zn733 O732 2.035 . S
Zn733 O734 2.028 . S
Zn733 O736 2.028 . S
Zn733 O739 2.035 . S
O734 Zn733 2.028 . S
O734 C740 1.247 . S
O735 Zn731 2.035 . S
O735 C740 1.258 . S
O736 C729 1.247 . S
O736 Zn733 2.028 . S
O737 C729 1.258 . S
O737 Zn731 2.035 . S
O738 Zn731 2.028 . S
O738 C741 1.247 . S
O739 Zn733 2.035 . S
O739 C741 1.258 . S
C740 O734 1.247 . S
C740 O735 1.258 . S
C741 O738 1.247 . S
C741 O739 1.258 . S
C742 O744 1.247 . S
C742 O746 1.258 . S
C743 O750 1.247 . S
C743 O751 1.258 . S
O744 C742 1.247 . S
O744 Zn745 2.028 . S
Zn745 O744 2.028 . S
Zn745 O749 2.035 . S
Zn745 O751 2.035 . S
Zn745 O752 2.028 . S
O746 C742 1.258 . S
O746 Zn747 2.035 . S
Zn747 O746 2.035 . S
Zn747 O748 2.028 . S
Zn747 O750 2.028 . S
Zn747 O753 2.035 . S
O748 Zn747 2.028 . S
O748 C754 1.247 . S
O749 Zn745 2.035 . S
O749 C754 1.258 . S
O750 C743 1.247 . S
O750 Zn747 2.028 . S
O751 C743 1.258 . S
O751 Zn745 2.035 . S
O752 Zn745 2.028 . S
O752 C755 1.247 . S
O753 Zn747 2.035 . S
O753 C755 1.258 . S
C754 O748 1.247 . S
C754 O749 1.258 . S
C755 O752 1.247 . S
C755 O753 1.258 . S
C756 O758 1.247 . S
C756 O760 1.258 . S
C757 O764 1.247 . S
C757 O765 1.258 . S
O758 C756 1.247 . S
O758 Zn759 2.028 . S
Zn759 O758 2.028 . S
Zn759 O763 2.035 . S
Zn759 O765 2.035 . S
Zn759 O766 2.028 . S
O760 C756 1.258 . S
O760 Zn761 2.035 . S
Zn761 O760 2.035 . S
Zn761 O762 2.028 . S
Zn761 O764 2.028 . S
Zn761 O767 2.035 . S
O762 Zn761 2.028 . S
O762 C768 1.247 . S
O763 Zn759 2.035 . S
O763 C768 1.258 . S
O764 C757 1.247 . S
O764 Zn761 2.028 . S
O765 C757 1.258 . S
O765 Zn759 2.035 . S
O766 Zn759 2.028 . S
O766 C769 1.247 . S
O767 Zn761 2.035 . S
O767 C769 1.258 . S
C768 O762 1.247 . S
C768 O763 1.258 . S
C769 O766 1.247 . S
C769 O767 1.258 . S
C770 O772 1.247 . S
C770 O774 1.258 . S
C771 O778 1.247 . S
C771 O779 1.258 . S
O772 C770 1.247 . S
O772 Zn773 2.028 . S
Zn773 O772 2.028 . S
Zn773 O777 2.035 . S
Zn773 O779 2.035 . S
Zn773 O780 2.028 . S
O774 C770 1.258 . S
O774 Zn775 2.035 . S
Zn775 O774 2.035 . S
Zn775 O776 2.028 . S
Zn775 O778 2.028 . S
Zn775 O781 2.035 . S
O776 Zn775 2.028 . S
O776 C782 1.247 . S
O777 Zn773 2.035 . S
O777 C782 1.258 . S
O778 C771 1.247 . S
O778 Zn775 2.028 . S
O779 C771 1.258 . S
O779 Zn773 2.035 . S
O780 Zn773 2.028 . S
O780 C783 1.247 . S
O781 Zn775 2.035 . S
O781 C783 1.258 . S
C782 O776 1.247 . S
C782 O777 1.258 . S
C783 O780 1.247 . S
C783 O781 1.258 . S
C784 O786 1.247 . S
C784 O788 1.258 . S
C785 O792 1.247 . S
C785 O793 1.258 . S
O786 C784 1.247 . S
O786 Zn787 2.028 . S
Zn787 O786 2.028 . S
Zn787 O791 2.035 . S
Zn787 O793 2.035 . S
Zn787 O794 2.028 . S
O788 C784 1.258 . S
O788 Zn789 2.035 . S
Zn789 O788 2.035 . S
Zn789 O790 2.028 . S
Zn789 O792 2.028 . S
Zn789 O795 2.035 . S
O790 Zn789 2.028 . S
O790 C796 1.247 . S
O791 Zn787 2.035 . S
O791 C796 1.258 . S
O792 C785 1.247 . S
O792 Zn789 2.028 . S
O793 C785 1.258 . S
O793 Zn787 2.035 . S
O794 Zn787 2.028 . S
O794 C797 1.247 . S
O795 Zn789 2.035 . S
O795 C797 1.258 . S
C796 O790 1.247 . S
C796 O791 1.258 . S
C797 O794 1.247 . S
C797 O795 1.258 . S
C798 O800 1.247 . S
C798 O802 1.258 . S
C799 O806 1.247 . S
C799 O807 1.258 . S
O800 C798 1.247 . S
O800 Zn801 2.028 . S
Zn801 O800 2.028 . S
Zn801 O805 2.035 . S
Zn801 O807 2.035 . S
Zn801 O808 2.028 . S
O802 C798 1.258 . S
O802 Zn803 2.035 . S
Zn803 O802 2.035 . S
Zn803 O804 2.028 . S
Zn803 O806 2.028 . S
Zn803 O809 2.035 . S
O804 Zn803 2.028 . S
O804 C810 1.247 . S
O805 Zn801 2.035 . S
O805 C810 1.258 . S
O806 C799 1.247 . S
O806 Zn803 2.028 . S
O807 C799 1.258 . S
O807 Zn801 2.035 . S
O808 Zn801 2.028 . S
O808 C811 1.247 . S
O809 Zn803 2.035 . S
O809 C811 1.258 . S
C810 O804 1.247 . S
C810 O805 1.258 . S
C811 O808 1.247 . S
C811 O809 1.258 . S
C812 O814 1.247 . S
C812 O816 1.258 . S
C813 O820 1.247 . S
C813 O821 1.258 . S
O814 C812 1.247 . S
O814 Zn815 2.028 . S
Zn815 O814 2.028 . S
Zn815 O819 2.035 . S
Zn815 O821 2.035 . S
Zn815 O822 2.028 . S
O816 C812 1.258 . S
O816 Zn817 2.035 . S
Zn817 O816 2.035 . S
Zn817 O818 2.028 . S
Zn817 O820 2.028 . S
Zn817 O823 2.035 . S
O818 Zn817 2.028 . S
O818 C824 1.247 . S
O819 Zn815 2.035 . S
O819 C824 1.258 . S
O820 C813 1.247 . S
O820 Zn817 2.028 . S
O821 C813 1.258 . S
O821 Zn815 2.035 . S
O822 Zn815 2.028 . S
O822 C825 1.247 . S
O823 Zn817 2.035 . S
O823 C825 1.258 . S
C824 O818 1.247 . S
C824 O819 1.258 . S
C825 O822 1.247 . S
C825 O823 1.258 . S
C826 O828 1.247 . S
C826 O830 1.258 . S
C827 O834 1.247 . S
C827 O835 1.258 . S
O828 C826 1.247 . S
O828 Zn829 2.028 . S
Zn829 O828 2.028 . S
Zn829 O833 2.035 . S
Zn829 O835 2.035 . S
Zn829 O836 2.028 . S
O830 C826 1.258 . S
O830 Zn831 2.035 . S
Zn831 O830 2.035 . S
Zn831 O832 2.028 . S
Zn831 O834 2.028 . S
Zn831 O837 2.035 . S
O832 Zn831 2.028 . S
O832 C838 1.247 . S
O833 Zn829 2.035 . S
O833 C838 1.258 . S
O834 C827 1.247 . S
O834 Zn831 2.028 . S
O835 C827 1.258 . S
O835 Zn829 2.035 . S
O836 Zn829 2.028 . S
O836 C839 1.247 . S
O837 Zn831 2.035 . S
O837 C839 1.258 . S
C838 O832 1.247 . S
C838 O833 1.258 . S
C839 O836 1.247 . S
C839 O837 1.258 . S
C840 O842 1.247 . S
C840 O844 1.258 . S
C841 O848 1.247 . S
C841 O849 1.258 . S
O842 C840 1.247 . S
O842 Zn843 2.028 . S
Zn843 O842 2.028 . S
Zn843 O847 2.035 . S
Zn843 O849 2.035 . S
Zn843 O850 2.028 . S
O844 C840 1.258 . S
O844 Zn845 2.035 . S
Zn845 O844 2.035 . S
Zn845 O846 2.028 . S
Zn845 O848 2.028 . S
Zn845 O851 2.035 . S
O846 Zn845 2.028 . S
O846 C852 1.247 . S
O847 Zn843 2.035 . S
O847 C852 1.258 . S
O848 C841 1.247 . S
O848 Zn845 2.028 . S
O849 C841 1.258 . S
O849 Zn843 2.035 . S
O850 Zn843 2.028 . S
O850 C853 1.247 . S
O851 Zn845 2.035 . S
O851 C853 1.258 . S
C852 O846 1.247 . S
C852 O847 1.258 . S
C853 O850 1.247 . S
C853 O851 1.258 . S
C854 O856 1.247 . S
C854 O858 1.258 . S
C855 O862 1.247 . S
C855 O863 1.258 . S
O856 C854 1.247 . S
O856 Zn857 2.028 . S
Zn857 O856 2.028 . S
Zn857 O861 2.035 . S
Zn857 O863 2.035 . S
Zn857 O864 2.028 . S
O858 C854 1.258 . S
O858 Zn859 2.035 . S
Zn859 O858 2.035 . S
Zn859 O860 2.028 . S
Zn859 O862 2.028 . S
Zn859 O865 2.035 . S
O860 Zn859 2.028 . S
O860 C866 1.247 . S
O861 Zn857 2.035 . S
O861 C866 1.258 . S
O862 C855 1.247 . S
O862 Zn859 2.028 . S
O863 C855 1.258 . S
O863 Zn857 2.035 . S
O864 Zn857 2.028 . S
O864 C867 1.247 . S
O865 Zn859 2.035 . S
O865 C867 1.258 . S
C866 O860 1.247 . S
C866 O861 1.258 . S
C867 O864 1.247 . S
C867 O865 1.258 . S
C868 O870 1.247 . S
C868 O872 1.258 . S
C869 O876 1.247 . S
C869 O877 1.258 . S
O870 C868 1.247 . S
O870 Zn871 2.028 . S
Zn871 O870 2.028 . S
Zn871 O875 2.035 . S
Zn871 O877 2.035 . S
Zn871 O878 2.028 . S
O872 C868 1.258 . S
O872 Zn873 2.035 . S
Zn873 O872 2.035 . S
Zn873 O874 2.028 . S
Zn873 O876 2.028 . S
Zn873 O879 2.035 . S
O874 Zn873 2.028 . S
O874 C880 1.247 . S
O875 Zn871 2.035 . S
O875 C880 1.258 . S
O876 C869 1.247 . S
O876 Zn873 2.028 . S
O877 C869 1.258 . S
O877 Zn871 2.035 . S
O878 Zn871 2.028 . S
O878 C881 1.247 . S
O879 Zn873 2.035 . S
O879 C881 1.258 . S
C880 O874 1.247 . S
C880 O875 1.258 . S
C881 O878 1.247 . S
C881 O879 1.258 . S
C882 O884 1.247 . S
C882 O886 1.258 . S
C883 O890 1.247 . S
C883 O891 1.258 . S
O884 C882 1.247 . S
O884 Zn885 2.028 . S
Zn885 O884 2.028 . S
Zn885 O889 2.035 . S
Zn885 O891 2.035 . S
Zn885 O892 2.028 . S
O886 C882 1.258 . S
O886 Zn887 2.035 . S
Zn887 O886 2.035 . S
Zn887 O888 2.028 . S
Zn887 O890 2.028 . S
Zn887 O893 2.035 . S
O888 Zn887 2.028 . S
O888 C894 1.247 . S
O889 Zn885 2.035 . S
O889 C894 1.258 . S
O890 C883 1.247 . S
O890 Zn887 2.028 . S
O891 C883 1.258 . S
O891 Zn885 2.035 . S
O892 Zn885 2.028 . S
O892 C895 1.247 . S
O893 Zn887 2.035 . S
O893 C895 1.258 . S
C894 O888 1.247 . S
C894 O889 1.258 . S
C895 O892 1.247 . S
C895 O893 1.258 . S
C896 O898 1.247 . S
C896 O900 1.258 . S
C897 O904 1.247 . S
C897 O905 1.258 . S
O898 C896 1.247 . S
O898 Zn899 2.028 . S
Zn899 O898 2.028 . S
Zn899 O903 2.035 . S
Zn899 O905 2.035 . S
Zn899 O906 2.028 . S
O900 C896 1.258 . S
O900 Zn901 2.035 . S
Zn901 O900 2.035 . S
Zn901 O902 2.028 . S
Zn901 O904 2.028 . S
Zn901 O907 2.035 . S
O902 Zn901 2.028 . S
O902 C908 1.247 . S
O903 Zn899 2.035 . S
O903 C908 1.258 . S
O904 C897 1.247 . S
O904 Zn901 2.028 . S
O905 C897 1.258 . S
O905 Zn899 2.035 . S
O906 Zn899 2.028 . S
O906 C909 1.247 . S
O907 Zn901 2.035 . S
O907 C909 1.258 . S
C908 O902 1.247 . S
C908 O903 1.258 . S
C909 O906 1.247 . S
C909 O907 1.258 . S
C910 O912 1.247 . S
C910 O914 1.258 . S
C911 O918 1.247 . S
C911 O919 1.258 . S
O912 C910 1.247 . S
O912 Zn913 2.028 . S
Zn913 O912 2.028 . S
Zn913 O917 2.035 . S
Zn913 O919 2.035 . S
Zn913 O920 2.028 . S
O914 C910 1.258 . S
O914 Zn915 2.035 . S
Zn915 O914 2.035 . S
Zn915 O916 2.028 . S
Zn915 O918 2.028 . S
Zn915 O921 2.035 . S
O916 Zn915 2.028 . S
O916 C922 1.247 . S
O917 Zn913 2.035 . S
O917 C922 1.258 . S
O918 C911 1.247 . S
O918 Zn915 2.028 . S
O919 C911 1.258 . S
O919 Zn913 2.035 . S
O920 Zn913 2.028 . S
O920 C923 1.247 . S
O921 Zn915 2.035 . S
O921 C923 1.258 . S
C922 O916 1.247 . S
C922 O917 1.258 . S
C923 O920 1.247 . S
C923 O921 1.258 . S
C924 O926 1.247 . S
C924 O928 1.258 . S
C925 O932 1.247 . S
C925 O933 1.258 . S
O926 C924 1.247 . S
O926 Zn927 2.028 . S
Zn927 O926 2.028 . S
Zn927 O931 2.035 . S
Zn927 O933 2.035 . S
Zn927 O934 2.028 . S
O928 C924 1.258 . S
O928 Zn929 2.035 . S
Zn929 O928 2.035 . S
Zn929 O930 2.028 . S
Zn929 O932 2.028 . S
Zn929 O935 2.035 . S
O930 Zn929 2.028 . S
O930 C936 1.247 . S
O931 Zn927 2.035 . S
O931 C936 1.258 . S
O932 C925 1.247 . S
O932 Zn929 2.028 . S
O933 C925 1.258 . S
O933 Zn927 2.035 . S
O934 Zn927 2.028 . S
O934 C937 1.247 . S
O935 Zn929 2.035 . S
O935 C937 1.258 . S
C936 O930 1.247 . S
C936 O931 1.258 . S
C937 O934 1.247 . S
C937 O935 1.258 . S
C938 O940 1.247 . S
C938 O942 1.258 . S
C939 O946 1.247 . S
C939 O947 1.258 . S
O940 C938 1.247 . S
O940 Zn941 2.028 . S
Zn941 O940 2.028 . S
Zn941 O945 2.035 . S
Zn941 O947 2.035 . S
Zn941 O948 2.028 . S
O942 C938 1.258 . S
O942 Zn943 2.035 . S
Zn943 O942 2.035 . S
Zn943 O944 2.028 . S
Zn943 O946 2.028 . S
Zn943 O949 2.035 . S
O944 Zn943 2.028 . S
O944 C950 1.247 . S
O945 Zn941 2.035 . S
O945 C950 1.258 . S
O946 C939 1.247 . S
O946 Zn943 2.028 . S
O947 C939 1.258 . S
O947 Zn941 2.035 . S
O948 Zn941 2.028 . S
O948 C951 1.247 . S
O949 Zn943 2.035 . S
O949 C951 1.258 . S
C950 O944 1.247 . S
C950 O945 1.258 . S
C951 O948 1.247 . S
C951 O949 1.258 . S
C952 O954 1.247 . S
C952 O956 1.258 . S
C953 O960 1.247 . S
C953 O961 1.258 . S
O954 C952 1.247 . S
O954 Zn955 2.028 . S
Zn955 O954 2.028 . S
Zn955 O959 2.035 . S
Zn955 O961 2.035 . S
Zn955 O962 2.028 . S
O956 C952 1.258 . S
O956 Zn957 2.035 . S
Zn957 O956 2.035 . S
Zn957 O958 2.028 . S
Zn957 O960 2.028 . S
Zn957 O963 2.035 . S
O958 Zn957 2.028 . S
O958 C964 1.247 . S
O959 Zn955 2.035 . S
O959 C964 1.258 . S
O960 C953 1.247 . S
O960 Zn957 2.028 . S
O961 C953 1.258 . S
O961 Zn955 2.035 . S
O962 Zn955 2.028 . S
O962 C965 1.247 . S
O963 Zn957 2.035 . S
O963 C965 1.258 . S
C964 O958 1.247 . S
C964 O959 1.258 . S
C965 O962 1.247 . S
C965 O963 1.258 . S
C966 O968 1.247 . S
C966 O970 1.258 . S
C967 O974 1.247 . S
C967 O975 1.258 . S
O968 C966 1.247 . S
O968 Zn969 2.028 . S
Zn969 O968 2.028 . S
Zn969 O973 2.035 . S
Zn969 O975 2.035 . S
Zn969 O976 2.028 . S
O970 C966 1.258 . S
O970 Zn971 2.035 . S
Zn971 O970 2.035 . S
Zn971 O972 2.028 . S
Zn971 O974 2.028 . S
Zn971 O977 2.035 . S
O972 Zn971 2.028 . S
O972 C978 1.247 . S
O973 Zn969 2.035 . S
O973 C978 1.258 . S
O974 C967 1.247 . S
O974 Zn971 2.028 . S
O975 C967 1.258 . S
O975 Zn969 2.035 . S
O976 Zn969 2.028 . S
O976 C979 1.247 . S
O977 Zn971 2.035 . S
O977 C979 1.258 . S
C978 O972 1.247 . S
C978 O973 1.258 . S
C979 O976 1.247 . S
C979 O977 1.258 . S
C980 O982 1.247 . S
C980 O984 1.258 . S
C981 O988 1.247 . S
C981 O989 1.258 . S
O982 C980 1.247 . S
O982 Zn983 2.028 . S
Zn983 O982 2.028 . S
Zn983 O987 2.035 . S
Zn983 O989 2.035 . S
Zn983 O990 2.028 . S
O984 C980 1.258 . S
O984 Zn985 2.035 . S
Zn985 O984 2.035 . S
Zn985 O986 2.028 . S
Zn985 O988 2.028 . S
Zn985 O991 2.035 . S
O986 Zn985 2.028 . S
O986 C992 1.247 . S
O987 Zn983 2.035 . S
O987 C992 1.258 . S
O988 C981 1.247 . S
O988 Zn985 2.028 . S
O989 C981 1.258 . S
O989 Zn983 2.035 . S
O990 Zn983 2.028 . S
O990 C993 1.247 . S
O991 Zn985 2.035 . S
O991 C993 1.258 . S
C992 O986 1.247 . S
C992 O987 1.258 . S
C993 O990 1.247 . S
C993 O991 1.258 . S
C994 O996 1.247 . S
C994 O998 1.258 . S
C995 O1002 1.247 . S
C995 O1003 1.258 . S
O996 C994 1.247 . S
O996 Zn997 2.028 . S
Zn997 O996 2.028 . S
Zn997 O1001 2.035 . S
Zn997 O1003 2.035 . S
Zn997 O1004 2.028 . S
O998 C994 1.258 . S
O998 Zn999 2.035 . S
Zn999 O998 2.035 . S
Zn999 O1000 2.028 . S
Zn999 O1002 2.028 . S
Zn999 O1005 2.035 . S
O1000 Zn999 2.028 . S
O1000 C1006 1.247 . S
O1001 Zn997 2.035 . S
O1001 C1006 1.258 . S
O1002 C995 1.247 . S
O1002 Zn999 2.028 . S
O1003 C995 1.258 . S
O1003 Zn997 2.035 . S
O1004 Zn997 2.028 . S
O1004 C1007 1.247 . S
O1005 Zn999 2.035 . S
O1005 C1007 1.258 . S
C1006 O1000 1.247 . S
C1006 O1001 1.258 . S
C1007 O1004 1.247 . S
C1007 O1005 1.258 . S
C1008 O1010 1.247 . S
C1008 O1012 1.258 . S
C1009 O1016 1.247 . S
C1009 O1017 1.258 . S
O1010 C1008 1.247 . S
O1010 Zn1011 2.028 . S
Zn1011 O1010 2.028 . S
Zn1011 O1015 2.035 . S
Zn1011 O1017 2.035 . S
Zn1011 O1018 2.028 . S
O1012 C1008 1.258 . S
O1012 Zn1013 2.035 . S
Zn1013 O1012 2.035 . S
Zn1013 O1014 2.028 . S
Zn1013 O1016 2.028 . S
Zn1013 O1019 2.035 . S
O1014 Zn1013 2.028 . S
O1014 C1020 1.247 . S
O1015 Zn1011 2.035 . S
O1015 C1020 1.258 . S
O1016 C1009 1.247 . S
O1016 Zn1013 2.028 . S
O1017 C1009 1.258 . S
O1017 Zn1011 2.035 . S
O1018 Zn1011 2.028 . S
O1018 C1021 1.247 . S
O1019 Zn1013 2.035 . S
O1019 C1021 1.258 . S
C1020 O1014 1.247 . S
C1020 O1015 1.258 . S
C1021 O1018 1.247 . S
C1021 O1019 1.258 . S
C1022 O1024 1.247 . S
C1022 O1026 1.258 . S
C1023 O1030 1.247 . S
C1023 O1031 1.258 . S
O1024 C1022 1.247 . S
O1024 Zn1025 2.028 . S
Zn1025 O1024 2.028 . S
Zn1025 O1029 2.035 . S
Zn1025 O1031 2.035 . S
Zn1025 O1032 2.028 . S
O1026 C1022 1.258 . S
O1026 Zn1027 2.035 . S
Zn1027 O1026 2.035 . S
Zn1027 O1028 2.028 . S
Zn1027 O1030 2.028 . S
Zn1027 O1033 2.035 . S
O1028 Zn1027 2.028 . S
O1028 C1034 1.247 . S
O1029 Zn1025 2.035 . S
O1029 C1034 1.258 . S
O1030 C1023 1.247 . S
O1030 Zn1027 2.028 . S
O1031 C1023 1.258 . S
O1031 Zn1025 2.035 . S
O1032 Zn1025 2.028 . S
O1032 C1035 1.247 . S
O1033 Zn1027 2.035 . S
O1033 C1035 1.258 . S
C1034 O1028 1.247 . S
C1034 O1029 1.258 . S
C1035 O1032 1.247 . S
C1035 O1033 1.258 . S
C1036 O1038 1.247 . S
C1036 O1040 1.258 . S
C1037 O1044 1.247 . S
C1037 O1045 1.258 . S
O1038 C1036 1.247 . S
O1038 Zn1039 2.028 . S
Zn1039 O1038 2.028 . S
Zn1039 O1043 2.035 . S
Zn1039 O1045 2.035 . S
Zn1039 O1046 2.028 . S
O1040 C1036 1.258 . S
O1040 Zn1041 2.035 . S
Zn1041 O1040 2.035 . S
Zn1041 O1042 2.028 . S
Zn1041 O1044 2.028 . S
Zn1041 O1047 2.035 . S
O1042 Zn1041 2.028 . S
O1042 C1048 1.247 . S
O1043 Zn1039 2.035 . S
O1043 C1048 1.258 . S
O1044 C1037 1.247 . S
O1044 Zn1041 2.028 . S
O1045 C1037 1.258 . S
O1045 Zn1039 2.035 . S
O1046 Zn1039 2.028 . S
O1046 C1049 1.247 . S
O1047 Zn1041 2.035 . S
O1047 C1049 1.258 . S
C1048 O1042 1.247 . S
C1048 O1043 1.258 . S
C1049 O1046 1.247 . S
C1049 O1047 1.258 . S
C1050 O1052 1.247 . S
C1050 O1054 1.258 . S
C1051 O1058 1.247 . S
C1051 O1059 1.258 . S
O1052 C1050 1.247 . S
O1052 Zn1053 2.028 . S
Zn1053 O1052 2.028 . S
Zn1053 O1057 2.035 . S
Zn1053 O1059 2.035 . S
Zn1053 O1060 2.028 . S
O1054 C1050 1.258 . S
O1054 Zn1055 2.035 . S
Zn1055 O1054 2.035 . S
Zn1055 O1056 2.028 . S
Zn1055 O1058 2.028 . S
Zn1055 O1061 2.035 . S
O1056 Zn1055 2.028 . S
O1056 C1062 1.247 . S
O1057 Zn1053 2.035 . S
O1057 C1062 1.258 . S
O1058 C1051 1.247 . S
O1058 Zn1055 2.028 . S
O1059 C1051 1.258 . S
O1059 Zn1053 2.035 . S
O1060 Zn1053 2.028 . S
O1060 C1063 1.247 . S
O1061 Zn1055 2.035 . S
O1061 C1063 1.258 . S
C1062 O1056 1.247 . S
C1062 O1057 1.258 . S
C1063 O1060 1.247 . S
C1063 O1061 1.258 . S
C1064 O1066 1.247 . S
C1064 O1068 1.258 . S
C1065 O1072 1.247 . S
C1065 O1073 1.258 . S
O1066 C1064 1.247 . S
O1066 Zn1067 2.028 . S
Zn1067 O1066 2.028 . S
Zn1067 O1071 2.035 . S
Zn1067 O1073 2.035 . S
Zn1067 O1074 2.028 . S
O1068 C1064 1.258 . S
O1068 Zn1069 2.035 . S
Zn1069 O1068 2.035 . S
Zn1069 O1070 2.028 . S
Zn1069 O1072 2.028 . S
Zn1069 O1075 2.035 . S
O1070 Zn1069 2.028 . S
O1070 C1076 1.247 . S
O1071 Zn1067 2.035 . S
O1071 C1076 1.258 . S
O1072 C1065 1.247 . S
O1072 Zn1069 2.028 . S
O1073 C1065 1.258 . S
O1073 Zn1067 2.035 . S
O1074 Zn1067 2.028 . S
O1074 C1077 1.247 . S
O1075 Zn1069 2.035 . S
O1075 C1077 1.258 . S
C1076 O1070 1.247 . S
C1076 O1071 1.258 . S
C1077 O1074 1.247 . S
C1077 O1075 1.258 . S
C1078 O1080 1.247 . S
C1078 O1082 1.258 . S
C1079 O1086 1.247 . S
C1079 O1087 1.258 . S
O1080 C1078 1.247 . S
O1080 Zn1081 2.028 . S
Zn1081 O1080 2.028 . S
Zn1081 O1085 2.035 . S
Zn1081 O1087 2.035 . S
Zn1081 O1088 2.028 . S
O1082 C1078 1.258 . S
O1082 Zn1083 2.035 . S
Zn1083 O1082 2.035 . S
Zn1083 O1084 2.028 . S
Zn1083 O1086 2.028 . S
Zn1083 O1089 2.035 . S
O1084 Zn1083 2.028 . S
O1084 C1090 1.247 . S
O1085 Zn1081 2.035 . S
O1085 C1090 1.258 . S
O1086 C1079 1.247 . S
O1086 Zn1083 2.028 . S
O1087 C1079 1.258 . S
O1087 Zn1081 2.035 . S
O1088 Zn1081 2.028 . S
O1088 C1091 1.247 . S
O1089 Zn1083 2.035 . S
O1089 C1091 1.258 . S
C1090 O1084 1.247 . S
C1090 O1085 1.258 . S
C1091 O1088 1.247 . S
C1091 O1089 1.258 . S
C1092 O1094 1.247 . S
C1092 O1096 1.258 . S
C1093 O1100 1.247 . S
C1093 O1101 1.258 . S
O1094 C1092 1.247 . S
O1094 Zn1095 2.028 . S
Zn1095 O1094 2.028 . S
Zn1095 O1099 2.035 . S
Zn1095 O1101 2.035 . S
Zn1095 O1102 2.028 . S
O1096 C1092 1.258 . S
O1096 Zn1097 2.035 . S
Zn1097 O1096 2.035 . S
Zn1097 O1098 2.028 . S
Zn1097 O1100 2.028 . S
Zn1097 O1103 2.035 . S
O1098 Zn1097 2.028 . S
O1098 C1104 1.247 . S
O1099 Zn1095 2.035 . S
O1099 C1104 1.258 . S
O1100 C1093 1.247 . S
O1100 Zn1097 2.028 . S
O1101 C1093 1.258 . S
O1101 Zn1095 2.035 . S
O1102 Zn1095 2.028 . S
O1102 C1105 1.247 . S
O1103 Zn1097 2.035 . S
O1103 C1105 1.258 . S
C1104 O1098 1.247 . S
C1104 O1099 1.258 . S
C1105 O1102 1.247 . S
C1105 O1103 1.258 . S
C1106 O1108 1.247 . S
C1106 O1110 1.258 . S
C1107 O1114 1.247 . S
C1107 O1115 1.258 . S
O1108 C1106 1.247 . S
O1108 Zn1109 2.028 . S
Zn1109 O1108 2.028 . S
Zn1109 O1113 2.035 . S
Zn1109 O1115 2.035 . S
Zn1109 O1116 2.028 . S
O1110 C1106 1.258 . S
O1110 Zn1111 2.035 . S
Zn1111 O1110 2.035 . S
Zn1111 O1112 2.028 . S
Zn1111 O1114 2.028 . S
Zn1111 O1117 2.035 . S
O1112 Zn1111 2.028 . S
O1112 C1118 1.247 . S
O1113 Zn1109 2.035 . S
O1113 C1118 1.258 . S
O1114 C1107 1.247 . S
O1114 Zn1111 2.028 . S
O1115 C1107 1.258 . S
O1115 Zn1109 2.035 . S
O1116 Zn1109 2.028 . S
O1116 C1119 1.247 . S
O1117 Zn1111 2.035 . S
O1117 C1119 1.258 . S
C1118 O1112 1.247 . S
C1118 O1113 1.258 . S
C1119 O1116 1.247 . S
C1119 O1117 1.258 . S
C1120 O1122 1.247 . S
C1120 O1124 1.258 . S
C1121 O1128 1.247 . S
C1121 O1129 1.258 . S
O1122 C1120 1.247 . S
O1122 Zn1123 2.028 . S
Zn1123 O1122 2.028 . S
Zn1123 O1127 2.035 . S
Zn1123 O1129 2.035 . S
Zn1123 O1130 2.028 . S
O1124 C1120 1.258 . S
O1124 Zn1125 2.035 . S
Zn1125 O1124 2.035 . S
Zn1125 O1126 2.028 . S
Zn1125 O1128 2.028 . S
Zn1125 O1131 2.035 . S
O1126 Zn1125 2.028 . S
O1126 C1132 1.247 . S
O1127 Zn1123 2.035 . S
O1127 C1132 1.258 . S
O1128 C1121 1.247 . S
O1128 Zn1125 2.028 . S
O1129 C1121 1.258 . S
O1129 Zn1123 2.035 . S
O1130 Zn1123 2.028 . S
O1130 C1133 1.247 . S
O1131 Zn1125 2.035 . S
O1131 C1133 1.258 . S
C1132 O1126 1.247 . S
C1132 O1127 1.258 . S
C1133 O1130 1.247 . S
C1133 O1131 1.258 . S
C1134 O1136 1.247 . S
C1134 O1138 1.258 . S
C1135 O1142 1.247 . S
C1135 O1143 1.258 . S
O1136 C1134 1.247 . S
O1136 Zn1137 2.028 . S
Zn1137 O1136 2.028 . S
Zn1137 O1141 2.035 . S
Zn1137 O1143 2.035 . S
Zn1137 O1144 2.028 . S
O1138 C1134 1.258 . S
O1138 Zn1139 2.035 . S
Zn1139 O1138 2.035 . S
Zn1139 O1140 2.028 . S
Zn1139 O1142 2.028 . S
Zn1139 O1145 2.035 . S
O1140 Zn1139 2.028 . S
O1140 C1146 1.247 . S
O1141 Zn1137 2.035 . S
O1141 C1146 1.258 . S
O1142 C1135 1.247 . S
O1142 Zn1139 2.028 . S
O1143 C1135 1.258 . S
O1143 Zn1137 2.035 . S
O1144 Zn1137 2.028 . S
O1144 C1147 1.247 . S
O1145 Zn1139 2.035 . S
O1145 C1147 1.258 . S
C1146 O1140 1.247 . S
C1146 O1141 1.258 . S
C1147 O1144 1.247 . S
C1147 O1145 1.258 . S
C1148 O1150 1.247 . S
C1148 O1152 1.258 . S
C1149 O1156 1.247 . S
C1149 O1157 1.258 . S
O1150 C1148 1.247 . S
O1150 Zn1151 2.028 . S
Zn1151 O1150 2.028 . S
Zn1151 O1155 2.035 . S
Zn1151 O1157 2.035 . S
Zn1151 O1158 2.028 . S
O1152 C1148 1.258 . S
O1152 Zn1153 2.035 . S
Zn1153 O1152 2.035 . S
Zn1153 O1154 2.028 . S
Zn1153 O1156 2.028 . S
Zn1153 O1159 2.035 . S
O1154 Zn1153 2.028 . S
O1154 C1160 1.247 . S
O1155 Zn1151 2.035 . S
O1155 C1160 1.258 . S
O1156 C1149 1.247 . S
O1156 Zn1153 2.028 . S
O1157 C1149 1.258 . S
O1157 Zn1151 2.035 . S
O1158 Zn1151 2.028 . S
O1158 C1161 1.247 . S
O1159 Zn1153 2.035 . S
O1159 C1161 1.258 . S
C1160 O1154 1.247 . S
C1160 O1155 1.258 . S
C1161 O1158 1.247 . S
C1161 O1159 1.258 . S
C1162 O1164 1.247 . S
C1162 O1166 1.258 . S
C1163 O1170 1.247 . S
C1163 O1171 1.258 . S
O1164 C1162 1.247 . S
O1164 Zn1165 2.028 . S
Zn1165 O1164 2.028 . S
Zn1165 O1169 2.035 . S
Zn1165 O1171 2.035 . S
Zn1165 O1172 2.028 . S
O1166 C1162 1.258 . S
O1166 Zn1167 2.035 . S
Zn1167 O1166 2.035 . S
Zn1167 O1168 2.028 . S
Zn1167 O1170 2.028 . S
Zn1167 O1173 2.035 . S
O1168 Zn1167 2.028 . S
O1168 C1174 1.247 . S
O1169 Zn1165 2.035 . S
O1169 C1174 1.258 . S
O1170 C1163 1.247 . S
O1170 Zn1167 2.028 . S
O1171 C1163 1.258 . S
O1171 Zn1165 2.035 . S
O1172 Zn1165 2.028 . S
O1172 C1175 1.247 . S
O1173 Zn1167 2.035 . S
O1173 C1175 1.258 . S
C1174 O1168 1.247 . S
C1174 O1169 1.258 . S
C1175 O1172 1.247 . S
C1175 O1173 1.258 . S
C1176 O1178 1.247 . S
C1176 O1180 1.258 . S
C1177 O1184 1.247 . S
C1177 O1185 1.258 . S
O1178 C1176 1.247 . S
O1178 Zn1179 2.028 . S
Zn1179 O1178 2.028 . S
Zn1179 O1183 2.035 . S
Zn1179 O1185 2.035 . S
Zn1179 O1186 2.028 . S
O1180 C1176 1.258 . S
O1180 Zn1181 2.035 . S
Zn1181 O1180 2.035 . S
Zn1181 O1182 2.028 . S
Zn1181 O1184 2.028 . S
Zn1181 O1187 2.035 . S
O1182 Zn1181 2.028 . S
O1182 C1188 1.247 . S
O1183 Zn1179 2.035 . S
O1183 C1188 1.258 . S
O1184 C1177 1.247 . S
O1184 Zn1181 2.028 . S
O1185 C1177 1.258 . S
O1185 Zn1179 2.035 . S
O1186 Zn1179 2.028 . S
O1186 C1189 1.247 . S
O1187 Zn1181 2.035 . S
O1187 C1189 1.258 . S
C1188 O1182 1.247 . S
C1188 O1183 1.258 . S
C1189 O1186 1.247 . S
C1189 O1187 1.258 . S
C1190 O1192 1.247 . S
C1190 O1194 1.258 . S
C1191 O1198 1.247 . S
C1191 O1199 1.258 . S
O1192 C1190 1.247 . S
O1192 Zn1193 2.028 . S
Zn1193 O1192 2.028 . S
Zn1193 O1197 2.035 . S
Zn1193 O1199 2.035 . S
Zn1193 O1200 2.028 . S
O1194 C1190 1.258 . S
O1194 Zn1195 2.035 . S
Zn1195 O1194 2.035 . S
Zn1195 O1196 2.028 . S
Zn1195 O1198 2.028 . S
Zn1195 O1201 2.035 . S
O1196 Zn1195 2.028 . S
O1196 C1202 1.247 . S
O1197 Zn1193 2.035 . S
O1197 C1202 1.258 . S
O1198 C1191 1.247 . S
O1198 Zn1195 2.028 . S
O1199 C1191 1.258 . S
O1199 Zn1193 2.035 . S
O1200 Zn1193 2.028 . S
O1200 C1203 1.247 . S
O1201 Zn1195 2.035 . S
O1201 C1203 1.258 . S
C1202 O1196 1.247 . S
C1202 O1197 1.258 . S
C1203 O1200 1.247 . S
C1203 O1201 1.258 . S
C1204 O1206 1.247 . S
C1204 O1208 1.258 . S
C1205 O1212 1.247 . S
C1205 O1213 1.258 . S
O1206 C1204 1.247 . S
O1206 Zn1207 2.028 . S
Zn1207 O1206 2.028 . S
Zn1207 O1211 2.035 . S
Zn1207 O1213 2.035 . S
Zn1207 O1214 2.028 . S
O1208 C1204 1.258 . S
O1208 Zn1209 2.035 . S
Zn1209 O1208 2.035 . S
Zn1209 O1210 2.028 . S
Zn1209 O1212 2.028 . S
Zn1209 O1215 2.035 . S
O1210 Zn1209 2.028 . S
O1210 C1216 1.247 . S
O1211 Zn1207 2.035 . S
O1211 C1216 1.258 . S
O1212 C1205 1.247 . S
O1212 Zn1209 2.028 . S
O1213 C1205 1.258 . S
O1213 Zn1207 2.035 . S
O1214 Zn1207 2.028 . S
O1214 C1217 1.247 . S
O1215 Zn1209 2.035 . S
O1215 C1217 1.258 . S
C1216 O1210 1.247 . S
C1216 O1211 1.258 . S
C1217 O1214 1.247 . S
C1217 O1215 1.258 . S
C1218 O1220 1.247 . S
C1218 O1222 1.258 . S
C1219 O1226 1.247 . S
C1219 O1227 1.258 . S
O1220 C1218 1.247 . S
O1220 Zn1221 2.028 . S
Zn1221 O1220 2.028 . S
Zn1221 O1225 2.035 . S
Zn1221 O1227 2.035 . S
Zn1221 O1228 2.028 . S
O1222 C1218 1.258 . S
O1222 Zn1223 2.035 . S
Zn1223 O1222 2.035 . S
Zn1223 O1224 2.028 . S
Zn1223 O1226 2.028 . S
Zn1223 O1229 2.035 . S
O1224 Zn1223 2.028 . S
O1224 C1230 1.247 . S
O1225 Zn1221 2.035 . S
O1225 C1230 1.258 . S
O1226 C1219 1.247 . S
O1226 Zn1223 2.028 . S
O1227 C1219 1.258 . S
O1227 Zn1221 2.035 . S
O1228 Zn1221 2.028 . S
O1228 C1231 1.247 . S
O1229 Zn1223 2.035 . S
O1229 C1231 1.258 . S
C1230 O1224 1.247 . S
C1230 O1225 1.258 . S
C1231 O1228 1.247 . S
C1231 O1229 1.258 . S
C1232 O1234 1.247 . S
C1232 O1236 1.258 . S
C1233 O1240 1.247 . S
C1233 O1241 1.258 . S
O1234 C1232 1.247 . S
O1234 Zn1235 2.028 . S
Zn1235 O1234 2.028 . S
Zn1235 O1239 2.035 . S
Zn1235 O1241 2.035 . S
Zn1235 O1242 2.028 . S
O1236 C1232 1.258 . S
O1236 Zn1237 2.035 . S
Zn1237 O1236 2.035 . S
Zn1237 O1238 2.028 . S
Zn1237 O1240 2.028 . S
Zn1237 O1243 2.035 . S
O1238 Zn1237 2.028 . S
O1238 C1244 1.247 . S
O1239 Zn1235 2.035 . S
O1239 C1244 1.258 . S
O1240 C1233 1.247 . S
O1240 Zn1237 2.028 . S
O1241 C1233 1.258 . S
O1241 Zn1235 2.035 . S
O1242 Zn1235 2.028 . S
O1242 C1245 1.247 . S
O1243 Zn1237 2.035 . S
O1243 C1245 1.258 . S
C1244 O1238 1.247 . S
C1244 O1239 1.258 . S
C1245 O1242 1.247 . S
C1245 O1243 1.258 . S
C1246 O1248 1.247 . S
C1246 O1250 1.258 . S
C1247 O1254 1.247 . S
C1247 O1255 1.258 . S
O1248 C1246 1.247 . S
O1248 Zn1249 2.028 . S
Zn1249 O1248 2.028 . S
Zn1249 O1253 2.035 . S
Zn1249 O1255 2.035 . S
Zn1249 O1256 2.028 . S
O1250 C1246 1.258 . S
O1250 Zn1251 2.035 . S
Zn1251 O1250 2.035 . S
Zn1251 O1252 2.028 . S
Zn1251 O1254 2.028 . S
Zn1251 O1257 2.035 . S
O1252 Zn1251 2.028 . S
O1252 C1258 1.247 . S
O1253 Zn1249 2.035 . S
O1253 C1258 1.258 . S
O1254 C1247 1.247 . S
O1254 Zn1251 2.028 . S
O1255 C1247 1.258 . S
O1255 Zn1249 2.035 . S
O1256 Zn1249 2.028 . S
O1256 C1259 1.247 . S
O1257 Zn1251 2.035 . S
O1257 C1259 1.258 . S
C1258 O1252 1.247 . S
C1258 O1253 1.258 . S
C1259 O1256 1.247 . S
C1259 O1257 1.258 . S
C1260 O1262 1.247 . S
C1260 O1264 1.258 . S
C1261 O1268 1.247 . S
C1261 O1269 1.258 . S
O1262 C1260 1.247 . S
O1262 Zn1263 2.028 . S
Zn1263 O1262 2.028 . S
Zn1263 O1267 2.035 . S
Zn1263 O1269 2.035 . S
Zn1263 O1270 2.028 . S
O1264 C1260 1.258 . S
O1264 Zn1265 2.035 . S
Zn1265 O1264 2.035 . S
Zn1265 O1266 2.028 . S
Zn1265 O1268 2.028 . S
Zn1265 O1271 2.035 . S
O1266 Zn1265 2.028 . S
O1266 C1272 1.247 . S
O1267 Zn1263 2.035 . S
O1267 C1272 1.258 . S
O1268 C1261 1.247 . S
O1268 Zn1265 2.028 . S
O1269 C1261 1.258 . S
O1269 Zn1263 2.035 . S
O1270 Zn1263 2.028 . S
O1270 C1273 1.247 . S
O1271 Zn1265 2.035 . S
O1271 C1273 1.258 . S
C1272 O1266 1.247 . S
C1272 O1267 1.258 . S
C1273 O1270 1.247 . S
C1273 O1271 1.258 . S
C1274 O1276 1.247 . S
C1274 O1278 1.258 . S
C1275 O1282 1.247 . S
C1275 O1283 1.258 . S
O1276 C1274 1.247 . S
O1276 Zn1277 2.028 . S
Zn1277 O1276 2.028 . S
Zn1277 O1281 2.035 . S
Zn1277 O1283 2.035 . S
Zn1277 O1284 2.028 . S
O1278 C1274 1.258 . S
O1278 Zn1279 2.035 . S
Zn1279 O1278 2.035 . S
Zn1279 O1280 2.028 . S
Zn1279 O1282 2.028 . S
Zn1279 O1285 2.035 . S
O1280 Zn1279 2.028 . S
O1280 C1286 1.247 . S
O1281 Zn1277 2.035 . S
O1281 C1286 1.258 . S
O1282 C1275 1.247 . S
O1282 Zn1279 2.028 . S
O1283 C1275 1.258 . S
O1283 Zn1277 2.035 . S
O1284 Zn1277 2.028 . S
O1284 C1287 1.247 . S
O1285 Zn1279 2.035 . S
O1285 C1287 1.258 . S
C1286 O1280 1.247 . S
C1286 O1281 1.258 . S
C1287 O1284 1.247 . S
C1287 O1285 1.258 . S
C1288 O1290 1.247 . S
C1288 O1292 1.258 . S
C1289 O1296 1.247 . S
C1289 O1297 1.258 . S
O1290 C1288 1.247 . S
O1290 Zn1291 2.028 . S
Zn1291 O1290 2.028 . S
Zn1291 O1295 2.035 . S
Zn1291 O1297 2.035 . S
Zn1291 O1298 2.028 . S
O1292 C1288 1.258 . S
O1292 Zn1293 2.035 . S
Zn1293 O1292 2.035 . S
Zn1293 O1294 2.028 . S
Zn1293 O1296 2.028 . S
Zn1293 O1299 2.035 . S
O1294 Zn1293 2.028 . S
O1294 C1300 1.247 . S
O1295 Zn1291 2.035 . S
O1295 C1300 1.258 . S
O1296 C1289 1.247 . S
O1296 Zn1293 2.028 . S
O1297 C1289 1.258 . S
O1297 Zn1291 2.035 . S
O1298 Zn1291 2.028 . S
O1298 C1301 1.247 . S
O1299 Zn1293 2.035 . S
O1299 C1301 1.258 . S
C1300 O1294 1.247 . S
C1300 O1295 1.258 . S
C1301 O1298 1.247 . S
C1301 O1299 1.258 . S
C1302 O1304 1.247 . S
C1302 O1306 1.258 . S
C1303 O1310 1.247 . S
C1303 O1311 1.258 . S
O1304 C1302 1.247 . S
O1304 Zn1305 2.028 . S
Zn1305 O1304 2.028 . S
Zn1305 O1309 2.035 . S
Zn1305 O1311 2.035 . S
Zn1305 O1312 2.028 . S
O1306 C1302 1.258 . S
O1306 Zn1307 2.035 . S
Zn1307 O1306 2.035 . S
Zn1307 O1308 2.028 . S
Zn1307 O1310 2.028 . S
Zn1307 O1313 2.035 . S
O1308 Zn1307 2.028 . S
O1308 C1314 1.247 . S
O1309 Zn1305 2.035 . S
O1309 C1314 1.258 . S
O1310 C1303 1.247 . S
O1310 Zn1307 2.028 . S
O1311 C1303 1.258 . S
O1311 Zn1305 2.035 . S
O1312 Zn1305 2.028 . S
O1312 C1315 1.247 . S
O1313 Zn1307 2.035 . S
O1313 C1315 1.258 . S
C1314 O1308 1.247 . S
C1314 O1309 1.258 . S
C1315 O1312 1.247 . S
C1315 O1313 1.258 . S
C1316 O1318 1.247 . S
C1316 O1320 1.258 . S
C1317 O1324 1.247 . S
C1317 O1325 1.258 . S
O1318 C1316 1.247 . S
O1318 Zn1319 2.028 . S
Zn1319 O1318 2.028 . S
Zn1319 O1323 2.035 . S
Zn1319 O1325 2.035 . S
Zn1319 O1326 2.028 . S
O1320 C1316 1.258 . S
O1320 Zn1321 2.035 . S
Zn1321 O1320 2.035 . S
Zn1321 O1322 2.028 . S
Zn1321 O1324 2.028 . S
Zn1321 O1327 2.035 . S
O1322 Zn1321 2.028 . S
O1322 C1328 1.247 . S
O1323 Zn1319 2.035 . S
O1323 C1328 1.258 . S
O1324 C1317 1.247 . S
O1324 Zn1321 2.028 . S
O1325 C1317 1.258 . S
O1325 Zn1319 2.035 . S
O1326 Zn1319 2.028 . S
O1326 C1329 1.247 . S
O1327 Zn1321 2.035 . S
O1327 C1329 1.258 . S
C1328 O1322 1.247 . S
C1328 O1323 1.258 . S
C1329 O1326 1.247 . S
C1329 O1327 1.258 . S
C1330 O1332 1.247 . S
C1330 O1334 1.258 . S
C1331 O1338 1.247 . S
C1331 O1339 1.258 . S
O1332 C1330 1.247 . S
O1332 Zn1333 2.028 . S
Zn1333 O1332 2.028 . S
Zn1333 O1337 2.035 . S
Zn1333 O1339 2.035 . S
Zn1333 O1340 2.028 . S
O1334 C1330 1.258 . S
O1334 Zn1335 2.035 . S
Zn1335 O1334 2.035 . S
Zn1335 O1336 2.028 . S
Zn1335 O1338 2.028 . S
Zn1335 O1341 2.035 . S
O1336 Zn1335 2.028 . S
O1336 C1342 1.247 . S
O1337 Zn1333 2.035 . S
O1337 C1342 1.258 . S
O1338 C1331 1.247 . S
O1338 Zn1335 2.028 . S
O1339 C1331 1.258 . S
O1339 Zn1333 2.035 . S
O1340 Zn1333 2.028 . S
O1340 C1343 1.247 . S
O1341 Zn1335 2.035 . S
O1341 C1343 1.258 . S
C1342 O1336 1.247 . S
C1342 O1337 1.258 . S
C1343 O1340 1.247 . S
C1343 O1341 1.258 . S
C1344 O1346 1.247 . S
C1344 O1348 1.258 . S
C1345 O1352 1.247 . S
C1345 O1353 1.258 . S
O1346 C1344 1.247 . S
O1346 Zn1347 2.028 . S
Zn1347 O1346 2.028 . S
Zn1347 O1351 2.035 . S
Zn1347 O1353 2.035 . S
Zn1347 O1354 2.028 . S
O1348 C1344 1.258 . S
O1348 Zn1349 2.035 . S
Zn1349 O1348 2.035 . S
Zn1349 O1350 2.028 . S
Zn1349 O1352 2.028 . S
Zn1349 O1355 2.035 . S
O1350 Zn1349 2.028 . S
O1350 C1356 1.247 . S
O1351 Zn1347 2.035 . S
O1351 C1356 1.258 . S
O1352 C1345 1.247 . S
O1352 Zn1349 2.028 . S
O1353 C1345 1.258 . S
O1353 Zn1347 2.035 . S
O1354 Zn1347 2.028 . S
O1354 C1357 1.247 . S
O1355 Zn1349 2.035 . S
O1355 C1357 1.258 . S
C1356 O1350 1.247 . S
C1356 O1351 1.258 . S
C1357 O1354 1.247 . S
C1357 O1355 1.258 . S
C1358 O1360 1.247 . S
C1358 O1362 1.258 . S
C1359 O1366 1.247 . S
C1359 O1367 1.258 . S
O1360 C1358 1.247 . S
O1360 Zn1361 2.028 . S
Zn1361 O1360 2.028 . S
Zn1361 O1365 2.035 . S
Zn1361 O1367 2.035 . S
Zn1361 O1368 2.028 . S
O1362 C1358 1.258 . S
O1362 Zn1363 2.035 . S
Zn1363 O1362 2.035 . S
Zn1363 O1364 2.028 . S
Zn1363 O1366 2.028 . S
Zn1363 O1369 2.035 . S
O1364 Zn1363 2.028 . S
O1364 C1370 1.247 . S
O1365 Zn1361 2.035 . S
O1365 C1370 1.258 . S
O1366 C1359 1.247 . S
O1366 Zn1363 2.028 . S
O1367 C1359 1.258 . S
O1367 Zn1361 2.035 . S
O1368 Zn1361 2.028 . S
O1368 C1371 1.247 . S
O1369 Zn1363 2.035 . S
O1369 C1371 1.258 . S
C1370 O1364 1.247 . S
C1370 O1365 1.258 . S
C1371 O1368 1.247 . S
C1371 O1369 1.258 . S
C1372 O1374 1.247 . S
C1372 O1376 1.258 . S
C1373 O1380 1.247 . S
C1373 O1381 1.258 . S
O1374 C1372 1.247 . S
O1374 Zn1375 2.028 . S
Zn1375 O1374 2.028 . S
Zn1375 O1379 2.035 . S
Zn1375 O1381 2.035 . S
Zn1375 O1382 2.028 . S
O1376 C1372 1.258 . S
O1376 Zn1377 2.035 . S
Zn1377 O1376 2.035 . S
Zn1377 O1378 2.028 . S
Zn1377 O1380 2.028 . S
Zn1377 O1383 2.035 . S
O1378 Zn1377 2.028 . S
O1378 C1384 1.247 . S
O1379 Zn1375 2.035 . S
O1379 C1384 1.258 . S
O1380 C1373 1.247 . S
O1380 Zn1377 2.028 . S
O1381 C1373 1.258 . S
O1381 Zn1375 2.035 . S
O1382 Zn1375 2.028 . S
O1382 C1385 1.247 . S
O1383 Zn1377 2.035 . S
O1383 C1385 1.258 . S
C1384 O1378 1.247 . S
C1384 O1379 1.258 . S
C1385 O1382 1.247 . S
C1385 O1383 1.258 . S
C1386 O1388 1.247 . S
C1386 O1390 1.258 . S
C1387 O1394 1.247 . S
C1387 O1395 1.258 . S
O1388 C1386 1.247 . S
O1388 Zn1389 2.028 . S
Zn1389 O1388 2.028 . S
Zn1389 O1393 2.035 . S
Zn1389 O1395 2.035 . S
Zn1389 O1396 2.028 . S
O1390 C1386 1.258 . S
O1390 Zn1391 2.035 . S
Zn1391 O1390 2.035 . S
Zn1391 O1392 2.028 . S
Zn1391 O1394 2.028 . S
Zn1391 O1397 2.035 . S
O1392 Zn1391 2.028 . S
O1392 C1398 1.247 . S
O1393 Zn1389 2.035 . S
O1393 C1398 1.258 . S
O1394 C1387 1.247 . S
O1394 Zn1391 2.028 . S
O1395 C1387 1.258 . S
O1395 Zn1389 2.035 . S
O1396 Zn1389 2.028 . S
O1396 C1399 1.247 . S
O1397 Zn1391 2.035 . S
O1397 C1399 1.258 . S
C1398 O1392 1.247 . S
C1398 O1393 1.258 . S
C1399 O1396 1.247 . S
C1399 O1397 1.258 . S
C1400 O1402 1.247 . S
C1400 O1404 1.258 . S
C1401 O1408 1.247 . S
C1401 O1409 1.258 . S
O1402 C1400 1.247 . S
O1402 Zn1403 2.028 . S
Zn1403 O1402 2.028 . S
Zn1403 O1407 2.035 . S
Zn1403 O1409 2.035 . S
Zn1403 O1410 2.028 . S
O1404 C1400 1.258 . S
O1404 Zn1405 2.035 . S
Zn1405 O1404 2.035 . S
Zn1405 O1406 2.028 . S
Zn1405 O1408 2.028 . S
Zn1405 O1411 2.035 . S
O1406 Zn1405 2.028 . S
O1406 C1412 1.247 . S
O1407 Zn1403 2.035 . S
O1407 C1412 1.258 . S
O1408 C1401 1.247 . S
O1408 Zn1405 2.028 . S
O1409 C1401 1.258 . S
O1409 Zn1403 2.035 . S
O1410 Zn1403 2.028 . S
O1410 C1413 1.247 . S
O1411 Zn1405 2.035 . S
O1411 C1413 1.258 . S
C1412 O1406 1.247 . S
C1412 O1407 1.258 . S
C1413 O1410 1.247 . S
C1413 O1411 1.258 . S
C1414 O1416 1.247 . S
C1414 O1418 1.258 . S
C1415 O1422 1.247 . S
C1415 O1423 1.258 . S
O1416 C1414 1.247 . S
O1416 Zn1417 2.028 . S
Zn1417 O1416 2.028 . S
Zn1417 O1421 2.035 . S
Zn1417 O1423 2.035 . S
Zn1417 O1424 2.028 . S
O1418 C1414 1.258 . S
O1418 Zn1419 2.035 . S
Zn1419 O1418 2.035 . S
Zn1419 O1420 2.028 . S
Zn1419 O1422 2.028 . S
Zn1419 O1425 2.035 . S
O1420 Zn1419 2.028 . S
O1420 C1426 1.247 . S
O1421 Zn1417 2.035 . S
O1421 C1426 1.258 . S
O1422 C1415 1.247 . S
O1422 Zn1419 2.028 . S
O1423 C1415 1.258 . S
O1423 Zn1417 2.035 . S
O1424 Zn1417 2.028 . S
O1424 C1427 1.247 . S
O1425 Zn1419 2.035 . S
O1425 C1427 1.258 . S
C1426 O1420 1.247 . S
C1426 O1421 1.258 . S
C1427 O1424 1.247 . S
C1427 O1425 1.258 . S
C1428 O1430 1.247 . S
C1428 O1432 1.258 . S
C1429 O1436 1.247 . S
C1429 O1437 1.258 . S
O1430 C1428 1.247 . S
O1430 Zn1431 2.028 . S
Zn1431 O1430 2.028 . S
Zn1431 O1435 2.035 . S
Zn1431 O1437 2.035 . S
Zn1431 O1438 2.028 . S
O1432 C1428 1.258 . S
O1432 Zn1433 2.035 . S
Zn1433 O1432 2.035 . S
Zn1433 O1434 2.028 . S
Zn1433 O1436 2.028 . S
Zn1433 O1439 2.035 . S
O1434 Zn1433 2.028 . S
O1434 C1440 1.247 . S
O1435 Zn1431 2.035 . S
O1435 C1440 1.258 . S
O1436 C1429 1.247 . S
O1436 Zn1433 2.028 . S
O1437 C1429 1.258 . S
O1437 Zn1431 2.035 . S
O1438 Zn1431 2.028 . S
O1438 C1441 1.247 . S
O1439 Zn1433 2.035 . S
O1439 C1441 1.258 . S
C1440 O1434 1.247 . S
C1440 O1435 1.258 . S
C1441 O1438 1.247 . S
C1441 O1439 1.258 . S
C1442 O1444 1.247 . S
C1442 O1446 1.258 . S
C1443 O1450 1.247 . S
C1443 O1451 1.258 . S
O1444 C1442 1.247 . S
O1444 Zn1445 2.028 . S
Zn1445 O1444 2.028 . S
Zn1445 O1449 2.035 . S
Zn1445 O1451 2.035 . S
Zn1445 O1452 2.028 . S
O1446 C1442 1.258 . S
O1446 Zn1447 2.035 . S
Zn1447 O1446 2.035 . S
Zn1447 O1448 2.028 . S
Zn1447 O1450 2.028 . S
Zn1447 O1453 2.035 . S
O1448 Zn1447 2.028 . S
O1448 C1454 1.247 . S
O1449 Zn1445 2.035 . S
O1449 C1454 1.258 . S
O1450 C1443 1.247 . S
O1450 Zn1447 2.028 . S
O1451 C1443 1.258 . S
O1451 Zn1445 2.035 . S
O1452 Zn1445 2.028 . S
O1452 C1455 1.247 . S
O1453 Zn1447 2.035 . S
O1453 C1455 1.258 . S
C1454 O1448 1.247 . S
C1454 O1449 1.258 . S
C1455 O1452 1.247 . S
C1455 O1453 1.258 . S
C1456 O1458 1.247 . S
C1456 O1460 1.258 . S
C1457 O1464 1.247 . S
C1457 O1465 1.258 . S
O1458 C1456 1.247 . S
O1458 Zn1459 2.028 . S
Zn1459 O1458 2.028 . S
Zn1459 O1463 2.035 . S
Zn1459 O1465 2.035 . S
Zn1459 O1466 2.028 . S
O1460 C1456 1.258 . S
O1460 Zn1461 2.035 . S
Zn1461 O1460 2.035 . S
Zn1461 O1462 2.028 . S
Zn1461 O1464 2.028 . S
Zn1461 O1467 2.035 . S
O1462 Zn1461 2.028 . S
O1462 C1468 1.247 . S
O1463 Zn1459 2.035 . S
O1463 C1468 1.258 . S
O1464 C1457 1.247 . S
O1464 Zn1461 2.028 . S
O1465 C1457 1.258 . S
O1465 Zn1459 2.035 . S
O1466 Zn1459 2.028 . S
O1466 C1469 1.247 . S
O1467 Zn1461 2.035 . S
O1467 C1469 1.258 . S
C1468 O1462 1.247 . S
C1468 O1463 1.258 . S
C1469 O1466 1.247 . S
C1469 O1467 1.258 . S
C1470 O1472 1.247 . S
C1470 O1474 1.258 . S
C1471 O1478 1.247 . S
C1471 O1479 1.258 . S
O1472 C1470 1.247 . S
O1472 Zn1473 2.028 . S
Zn1473 O1472 2.028 . S
Zn1473 O1477 2.035 . S
Zn1473 O1479 2.035 . S
Zn1473 O1480 2.028 . S
O1474 C1470 1.258 . S
O1474 Zn1475 2.035 . S
Zn1475 O1474 2.035 . S
Zn1475 O1476 2.028 . S
Zn1475 O1478 2.028 . S
Zn1475 O1481 2.035 . S
O1476 Zn1475 2.028 . S
O1476 C1482 1.247 . S
O1477 Zn1473 2.035 . S
O1477 C1482 1.258 . S
O1478 C1471 1.247 . S
O1478 Zn1475 2.028 . S
O1479 C1471 1.258 . S
O1479 Zn1473 2.035 . S
O1480 Zn1473 2.028 . S
O1480 C1483 1.247 . S
O1481 Zn1475 2.035 . S
O1481 C1483 1.258 . S
C1482 O1476 1.247 . S
C1482 O1477 1.258 . S
C1483 O1480 1.247 . S
C1483 O1481 1.258 . S
C1484 O1486 1.247 . S
C1484 O1488 1.258 . S
C1485 O1492 1.247 . S
C1485 O1493 1.258 . S
O1486 C1484 1.247 . S
O1486 Zn1487 2.028 . S
Zn1487 O1486 2.028 . S
Zn1487 O1491 2.035 . S
Zn1487 O1493 2.035 . S
Zn1487 O1494 2.028 . S
O1488 C1484 1.258 . S
O1488 Zn1489 2.035 . S
Zn1489 O1488 2.035 . S
Zn1489 O1490 2.028 . S
Zn1489 O1492 2.028 . S
Zn1489 O1495 2.035 . S
O1490 Zn1489 2.028 . S
O1490 C1496 1.247 . S
O1491 Zn1487 2.035 . S
O1491 C1496 1.258 . S
O1492 C1485 1.247 . S
O1492 Zn1489 2.028 . S
O1493 C1485 1.258 . S
O1493 Zn1487 2.035 . S
O1494 Zn1487 2.028 . S
O1494 C1497 1.247 . S
O1495 Zn1489 2.035 . S
O1495 C1497 1.258 . S
C1496 O1490 1.247 . S
C1496 O1491 1.258 . S
C1497 O1494 1.247 . S
C1497 O1495 1.258 . S
C1498 O1500 1.247 . S
C1498 O1502 1.258 . S
C1499 O1506 1.247 . S
C1499 O1507 1.258 . S
O1500 C1498 1.247 . S
O1500 Zn1501 2.028 . S
Zn1501 O1500 2.028 . S
Zn1501 O1505 2.035 . S
Zn1501 O1507 2.035 . S
Zn1501 O1508 2.028 . S
O1502 C1498 1.258 . S
O1502 Zn1503 2.035 . S
Zn1503 O1502 2.035 . S
Zn1503 O1504 2.028 . S
Zn1503 O1506 2.028 . S
Zn1503 O1509 2.035 . S
O1504 Zn1503 2.028 . S
O1504 C1510 1.247 . S
O1505 Zn1501 2.035 . S
O1505 C1510 1.258 . S
O1506 C1499 1.247 . S
O1506 Zn1503 2.028 . S
O1507 C1499 1.258 . S
O1507 Zn1501 2.035 . S
O1508 Zn1501 2.028 . S
O1508 C1511 1.247 . S
O1509 Zn1503 2.035 . S
O1509 C1511 1.258 . S
C1510 O1504 1.247 . S
C1510 O1505 1.258 . S
C1511 O1508 1.247 . S
C1511 O1509 1.258 . S
C1512 O1514 1.247 . S
C1512 O1516 1.258 . S
C1513 O1520 1.247 . S
C1513 O1521 1.258 . S
O1514 C1512 1.247 . S
O1514 Zn1515 2.028 . S
Zn1515 O1514 2.028 . S
Zn1515 O1519 2.035 . S
Zn1515 O1521 2.035 . S
Zn1515 O1522 2.028 . S
O1516 C1512 1.258 . S
O1516 Zn1517 2.035 . S
Zn1517 O1516 2.035 . S
Zn1517 O1518 2.028 . S
Zn1517 O1520 2.028 . S
Zn1517 O1523 2.035 . S
O1518 Zn1517 2.028 . S
O1518 C1524 1.247 . S
O1519 Zn1515 2.035 . S
O1519 C1524 1.258 . S
O1520 C1513 1.247 . S
O1520 Zn1517 2.028 . S
O1521 C1513 1.258 . S
O1521 Zn1515 2.035 . S
O1522 Zn1515 2.028 . S
O1522 C1525 1.247 . S
O1523 Zn1517 2.035 . S
O1523 C1525 1.258 . S
C1524 O1518 1.247 . S
C1524 O1519 1.258 . S
C1525 O1522 1.247 . S
C1525 O1523 1.258 . S
C1526 O1528 1.247 . S
C1526 O1530 1.258 . S
C1527 O1534 1.247 . S
C1527 O1535 1.258 . S
O1528 C1526 1.247 . S
O1528 Zn1529 2.028 . S
Zn1529 O1528 2.028 . S
Zn1529 O1533 2.035 . S
Zn1529 O1535 2.035 . S
Zn1529 O1536 2.028 . S
O1530 C1526 1.258 . S
O1530 Zn1531 2.035 . S
Zn1531 O1530 2.035 . S
Zn1531 O1532 2.028 . S
Zn1531 O1534 2.028 . S
Zn1531 O1537 2.035 . S
O1532 Zn1531 2.028 . S
O1532 C1538 1.247 . S
O1533 Zn1529 2.035 . S
O1533 C1538 1.258 . S
O1534 C1527 1.247 . S
O1534 Zn1531 2.028 . S
O1535 C1527 1.258 . S
O1535 Zn1529 2.035 . S
O1536 Zn1529 2.028 . S
O1536 C1539 1.247 . S
O1537 Zn1531 2.035 . S
O1537 C1539 1.258 . S
C1538 O1532 1.247 . S
C1538 O1533 1.258 . S
C1539 O1536 1.247 . S
C1539 O1537 1.258 . S
C1540 O1542 1.247 . S
C1540 O1544 1.258 . S
C1541 O1548 1.247 . S
C1541 O1549 1.258 . S
O1542 C1540 1.247 . S
O1542 Zn1543 2.028 . S
Zn1543 O1542 2.028 . S
Zn1543 O1547 2.035 . S
Zn1543 O1549 2.035 . S
Zn1543 O1550 2.028 . S
O1544 C1540 1.258 . S
O1544 Zn1545 2.035 . S
Zn1545 O1544 2.035 . S
Zn1545 O1546 2.028 . S
Zn1545 O1548 2.028 . S
Zn1545 O1551 2.035 . S
O1546 Zn1545 2.028 . S
O1546 C1552 1.247 . S
O1547 Zn1543 2.035 . S
O1547 C1552 1.258 . S
O1548 C1541 1.247 . S
O1548 Zn1545 2.028 . S
O1549 C1541 1.258 . S
O1549 Zn1543 2.035 . S
O1550 Zn1543 2.028 . S
O1550 C1553 1.247 . S
O1551 Zn1545 2.035 . S
O1551 C1553 1.258 . S
C1552 O1546 1.247 . S
C1552 O1547 1.258 . S
C1553 O1550 1.247 . S
C1553 O1551 1.258 . S
C1554 O1556 1.247 . S
C1554 O1558 1.258 . S
C1555 O1562 1.247 . S
C1555 O1563 1.258 . S
O1556 C1554 1.247 . S
O1556 Zn1557 2.028 . S
Zn1557 O1556 2.028 . S
Zn1557 O1561 2.035 . S
Zn1557 O1563 2.035 . S
Zn1557 O1564 2.028 . S
O1558 C1554 1.258 . S
O1558 Zn1559 2.035 . S
Zn1559 O1558 2.035 . S
Zn1559 O1560 2.028 . S
Zn1559 O1562 2.028 . S
Zn1559 O1565 2.035 . S
O1560 Zn1559 2.028 . S
O1560 C1566 1.247 . S
O1561 Zn1557 2.035 . S
O1561 C1566 1.258 . S
O1562 C1555 1.247 . S
O1562 Zn1559 2.028 . S
O1563 C1555 1.258 . S
O1563 Zn1557 2.035 . S
O1564 Zn1557 2.028 . S
O1564 C1567 1.247 . S
O1565 Zn1559 2.035 . S
O1565 C1567 1.258 . S
C1566 O1560 1.247 . S
C1566 O1561 1.258 . S
C1567 O1564 1.247 . S
C1567 O1565 1.258 . S
C1568 O1570 1.247 . S
C1568 O1572 1.258 . S
C1569 O1576 1.247 . S
C1569 O1577 1.258 . S
O1570 C1568 1.247 . S
O1570 Zn1571 2.028 . S
Zn1571 O1570 2.028 . S
Zn1571 O1575 2.035 . S
Zn1571 O1577 2.035 . S
Zn1571 O1578 2.028 . S
O1572 C1568 1.258 . S
O1572 Zn1573 2.035 . S
Zn1573 O1572 2.035 . S
Zn1573 O1574 2.028 . S
Zn1573 O1576 2.028 . S
Zn1573 O1579 2.035 . S
O1574 Zn1573 2.028 . S
O1574 C1580 1.247 . S
O1575 Zn1571 2.035 . S
O1575 C1580 1.258 . S
O1576 C1569 1.247 . S
O1576 Zn1573 2.028 . S
O1577 C1569 1.258 . S
O1577 Zn1571 2.035 . S
O1578 Zn1571 2.028 . S
O1578 C1581 1.247 . S
O1579 Zn1573 2.035 . S
O1579 C1581 1.258 . S
C1580 O1574 1.247 . S
C1580 O1575 1.258 . S
C1581 O1578 1.247 . S
C1581 O1579 1.258 . S
C1582 O1584 1.247 . S
C1582 O1586 1.258 . S
C1583 O1590 1.247 . S
C1583 O1591 1.258 . S
O1584 C1582 1.247 . S
O1584 Zn1585 2.028 . S
Zn1585 O1584 2.028 . S
Zn1585 O1589 2.035 . S
Zn1585 O1591 2.035 . S
Zn1585 O1592 2.028 . S
O1586 C1582 1.258 . S
O1586 Zn1587 2.035 . S
Zn1587 O1586 2.035 . S
Zn1587 O1588 2.028 . S
Zn1587 O1590 2.028 . S
Zn1587 O1593 2.035 . S
O1588 Zn1587 2.028 . S
O1588 C1594 1.247 . S
O1589 Zn1585 2.035 . S
O1589 C1594 1.258 . S
O1590 C1583 1.247 . S
O1590 Zn1587 2.028 . S
O1591 C1583 1.258 . S
O1591 Zn1585 2.035 . S
O1592 Zn1585 2.028 . S
O1592 C1595 1.247 . S
O1593 Zn1587 2.035 . S
O1593 C1595 1.258 . S
C1594 O1588 1.247 . S
C1594 O1589 1.258 . S
C1595 O1592 1.247 . S
C1595 O1593 1.258 . S
C1596 O1598 1.247 . S
C1596 O1600 1.258 . S
C1597 O1604 1.247 . S
C1597 O1605 1.258 . S
O1598 C1596 1.247 . S
O1598 Zn1599 2.028 . S
Zn1599 O1598 2.028 . S
Zn1599 O1603 2.035 . S
Zn1599 O1605 2.035 . S
Zn1599 O1606 2.028 . S
O1600 C1596 1.258 . S
O1600 Zn1601 2.035 . S
Zn1601 O1600 2.035 . S
Zn1601 O1602 2.028 . S
Zn1601 O1604 2.028 . S
Zn1601 O1607 2.035 . S
O1602 Zn1601 2.028 . S
O1602 C1608 1.247 . S
O1603 Zn1599 2.035 . S
O1603 C1608 1.258 . S
O1604 C1597 1.247 . S
O1604 Zn1601 2.028 . S
O1605 C1597 1.258 . S
O1605 Zn1599 2.035 . S
O1606 Zn1599 2.028 . S
O1606 C1609 1.247 . S
O1607 Zn1601 2.035 . S
O1607 C1609 1.258 . S
C1608 O1602 1.247 . S
C1608 O1603 1.258 . S
C1609 O1606 1.247 . S
C1609 O1607 1.258 . S
C1610 O1612 1.247 . S
C1610 O1614 1.258 . S
C1611 O1618 1.247 . S
C1611 O1619 1.258 . S
O1612 C1610 1.247 . S
O1612 Zn1613 2.028 . S
Zn1613 O1612 2.028 . S
Zn1613 O1617 2.035 . S
Zn1613 O1619 2.035 . S
Zn1613 O1620 2.028 . S
O1614 C1610 1.258 . S
O1614 Zn1615 2.035 . S
Zn1615 O1614 2.035 . S
Zn1615 O1616 2.028 . S
Zn1615 O1618 2.028 . S
Zn1615 O1621 2.035 . S
O1616 Zn1615 2.028 . S
O1616 C1622 1.247 . S
O1617 Zn1613 2.035 . S
O1617 C1622 1.258 . S
O1618 C1611 1.247 . S
O1618 Zn1615 2.028 . S
O1619 C1611 1.258 . S
O1619 Zn1613 2.035 . S
O1620 Zn1613 2.028 . S
O1620 C1623 1.247 . S
O1621 Zn1615 2.035 . S
O1621 C1623 1.258 . S
C1622 O1616 1.247 . S
C1622 O1617 1.258 . S
C1623 O1620 1.247 . S
C1623 O1621 1.258 . S
C1624 O1626 1.247 . S
C1624 O1628 1.258 . S
C1625 O1632 1.247 . S
C1625 O1633 1.258 . S
O1626 C1624 1.247 . S
O1626 Zn1627 2.028 . S
Zn1627 O1626 2.028 . S
Zn1627 O1631 2.035 . S
Zn1627 O1633 2.035 . S
Zn1627 O1634 2.028 . S
O1628 C1624 1.258 . S
O1628 Zn1629 2.035 . S
Zn1629 O1628 2.035 . S
Zn1629 O1630 2.028 . S
Zn1629 O1632 2.028 . S
Zn1629 O1635 2.035 . S
O1630 Zn1629 2.028 . S
O1630 C1636 1.247 . S
O1631 Zn1627 2.035 . S
O1631 C1636 1.258 . S
O1632 C1625 1.247 . S
O1632 Zn1629 2.028 . S
O1633 C1625 1.258 . S
O1633 Zn1627 2.035 . S
O1634 Zn1627 2.028 . S
O1634 C1637 1.247 . S
O1635 Zn1629 2.035 . S
O1635 C1637 1.258 . S
C1636 O1630 1.247 . S
C1636 O1631 1.258 . S
C1637 O1634 1.247 . S
C1637 O1635 1.258 . S
C1638 O1640 1.247 . S
C1638 O1642 1.258 . S
C1639 O1646 1.247 . S
C1639 O1647 1.258 . S
O1640 C1638 1.247 . S
O1640 Zn1641 2.028 . S
Zn1641 O1640 2.028 . S
Zn1641 O1645 2.035 . S
Zn1641 O1647 2.035 . S
Zn1641 O1648 2.028 . S
O1642 C1638 1.258 . S
O1642 Zn1643 2.035 . S
Zn1643 O1642 2.035 . S
Zn1643 O1644 2.028 . S
Zn1643 O1646 2.028 . S
Zn1643 O1649 2.035 . S
O1644 Zn1643 2.028 . S
O1644 C1650 1.247 . S
O1645 Zn1641 2.035 . S
O1645 C1650 1.258 . S
O1646 C1639 1.247 . S
O1646 Zn1643 2.028 . S
O1647 C1639 1.258 . S
O1647 Zn1641 2.035 . S
O1648 Zn1641 2.028 . S
O1648 C1651 1.247 . S
O1649 Zn1643 2.035 . S
O1649 C1651 1.258 . S
C1650 O1644 1.247 . S
C1650 O1645 1.258 . S
C1651 O1648 1.247 . S
C1651 O1649 1.258 . S
C1652 O1654 1.247 . S
C1652 O1656 1.258 . S
C1653 O1660 1.247 . S
C1653 O1661 1.258 . S
O1654 C1652 1.247 . S
O1654 Zn1655 2.028 . S
Zn1655 O1654 2.028 . S
Zn1655 O1659 2.035 . S
Zn1655 O1661 2.035 . S
Zn1655 O1662 2.028 . S
O1656 C1652 1.258 . S
O1656 Zn1657 2.035 . S
Zn1657 O1656 2.035 . S
Zn1657 O1658 2.028 . S
Zn1657 O1660 2.028 . S
Zn1657 O1663 2.035 . S
O1658 Zn1657 2.028 . S
O1658 C1664 1.247 . S
O1659 Zn1655 2.035 . S
O1659 C1664 1.258 . S
O1660 C1653 1.247 . S
O1660 Zn1657 2.028 . S
O1661 C1653 1.258 . S
O1661 Zn1655 2.035 . S
O1662 Zn1655 2.028 . S
O1662 C1665 1.247 . S
O1663 Zn1657 2.035 . S
O1663 C1665 1.258 . S
C1664 O1658 1.247 . S
C1664 O1659 1.258 . S
C1665 O1662 1.247 . S
C1665 O1663 1.258 . S
C1666 O1668 1.247 . S
C1666 O1670 1.258 . S
C1667 O1674 1.247 . S
C1667 O1675 1.258 . S
O1668 C1666 1.247 . S
O1668 Zn1669 2.028 . S
Zn1669 O1668 2.028 . S
Zn1669 O1673 2.035 . S
Zn1669 O1675 2.035 . S
Zn1669 O1676 2.028 . S
O1670 C1666 1.258 . S
O1670 Zn1671 2.035 . S
Zn1671 O1670 2.035 . S
Zn1671 O1672 2.028 . S
Zn1671 O1674 2.028 . S
Zn1671 O1677 2.035 . S
O1672 Zn1671 2.028 . S
O1672 C1678 1.247 . S
O1673 Zn1669 2.035 . S
O1673 C1678 1.258 . S
O1674 C1667 1.247 . S
O1674 Zn1671 2.028 . S
O1675 C1667 1.258 . S
O1675 Zn1669 2.035 . S
O1676 Zn1669 2.028 . S
O1676 C1679 1.247 . S
O1677 Zn1671 2.035 . S
O1677 C1679 1.258 . S
C1678 O1672 1.247 . S
C1678 O1673 1.258 . S
C1679 O1676 1.247 . S
C1679 O1677 1.258 . S
C1680 O1682 1.247 . S
C1680 O1684 1.258 . S
C1681 O1688 1.247 . S
C1681 O1689 1.258 . S
O1682 C1680 1.247 . S
O1682 Zn1683 2.028 . S
Zn1683 O1682 2.028 . S
Zn1683 O1687 2.035 . S
Zn1683 O1689 2.035 . S
Zn1683 O1690 2.028 . S
O1684 C1680 1.258 . S
O1684 Zn1685 2.035 . S
Zn1685 O1684 2.035 . S
Zn1685 O1686 2.028 . S
Zn1685 O1688 2.028 . S
Zn1685 O1691 2.035 . S
O1686 Zn1685 2.028 . S
O1686 C1692 1.247 . S
O1687 Zn1683 2.035 . S
O1687 C1692 1.258 . S
O1688 C1681 1.247 . S
O1688 Zn1685 2.028 . S
O1689 C1681 1.258 . S
O1689 Zn1683 2.035 . S
O1690 Zn1683 2.028 . S
O1690 C1693 1.247 . S
O1691 Zn1685 2.035 . S
O1691 C1693 1.258 . S
C1692 O1686 1.247 . S
C1692 O1687 1.258 . S
C1693 O1690 1.247 . S
C1693 O1691 1.258 . S
C1694 O1696 1.247 . S
C1694 O1698 1.258 . S
C1695 O1702 1.247 . S
C1695 O1703 1.258 . S
O1696 C1694 1.247 . S
O1696 Zn1697 2.028 . S
Zn1697 O1696 2.028 . S
Zn1697 O1701 2.035 . S
Zn1697 O1703 2.035 . S
Zn1697 O1704 2.028 . S
O1698 C1694 1.258 . S
O1698 Zn1699 2.035 . S
Zn1699 O1698 2.035 . S
Zn1699 O1700 2.028 . S
Zn1699 O1702 2.028 . S
Zn1699 O1705 2.035 . S
O1700 Zn1699 2.028 . S
O1700 C1706 1.247 . S
O1701 Zn1697 2.035 . S
O1701 C1706 1.258 . S
O1702 C1695 1.247 . S
O1702 Zn1699 2.028 . S
O1703 C1695 1.258 . S
O1703 Zn1697 2.035 . S
O1704 Zn1697 2.028 . S
O1704 C1707 1.247 . S
O1705 Zn1699 2.035 . S
O1705 C1707 1.258 . S
C1706 O1700 1.247 . S
C1706 O1701 1.258 . S
C1707 O1704 1.247 . S
C1707 O1705 1.258 . S
C1708 O1710 1.247 . S
C1708 O1712 1.258 . S
C1709 O1716 1.247 . S
C1709 O1717 1.258 . S
O1710 C1708 1.247 . S
O1710 Zn1711 2.028 . S
Zn1711 O1710 2.028 . S
Zn1711 O1715 2.035 . S
Zn1711 O1717 2.035 . S
Zn1711 O1718 2.028 . S
O1712 C1708 1.258 . S
O1712 Zn1713 2.035 . S
Zn1713 O1712 2.035 . S
Zn1713 O1714 2.028 . S
Zn1713 O1716 2.028 . S
Zn1713 O1719 2.035 . S
O1714 Zn1713 2.028 . S
O1714 C1720 1.247 . S
O1715 Zn1711 2.035 . S
O1715 C1720 1.258 . S
O1716 C1709 1.247 . S
O1716 Zn1713 2.028 . S
O1717 C1709 1.258 . S
O1717 Zn1711 2.035 . S
O1718 Zn1711 2.028 . S
O1718 C1721 1.247 . S
O1719 Zn1713 2.035 . S
O1719 C1721 1.258 . S
C1720 O1714 1.247 . S
C1720 O1715 1.258 . S
C1721 O1718 1.247 . S
C1721 O1719 1.258 . S
C1722 O1724 1.247 . S
C1722 O1726 1.258 . S
C1723 O1730 1.247 . S
C1723 O1731 1.258 . S
O1724 C1722 1.247 . S
O1724 Zn1725 2.028 . S
Zn1725 O1724 2.028 . S
Zn1725 O1729 2.035 . S
Zn1725 O1731 2.035 . S
Zn1725 O1732 2.028 . S
O1726 C1722 1.258 . S
O1726 Zn1727 2.035 . S
Zn1727 O1726 2.035 . S
Zn1727 O1728 2.028 . S
Zn1727 O1730 2.028 . S
Zn1727 O1733 2.035 . S
O1728 Zn1727 2.028 . S
O1728 C1734 1.247 . S
O1729 Zn1725 2.035 . S
O1729 C1734 1.258 . S
O1730 C1723 1.247 . S
O1730 Zn1727 2.028 . S
O1731 C1723 1.258 . S
O1731 Zn1725 2.035 . S
O1732 Zn1725 2.028 . S
O1732 C1735 1.247 . S
O1733 Zn1727 2.035 . S
O1733 C1735 1.258 . S
C1734 O1728 1.247 . S
C1734 O1729 1.258 . S
C1735 O1732 1.247 . S
C1735 O1733 1.258 . S
C1736 O1738 1.247 . S
C1736 O1740 1.258 . S
C1737 O1744 1.247 . S
C1737 O1745 1.258 . S
O1738 C1736 1.247 . S
O1738 Zn1739 2.028 . S
Zn1739 O1738 2.028 . S
Zn1739 O1743 2.035 . S
Zn1739 O1745 2.035 . S
Zn1739 O1746 2.028 . S
O1740 C1736 1.258 . S
O1740 Zn1741 2.035 . S
Zn1741 O1740 2.035 . S
Zn1741 O1742 2.028 . S
Zn1741 O1744 2.028 . S
Zn1741 O1747 2.035 . S
O1742 Zn1741 2.028 . S
O1742 C1748 1.247 . S
O1743 Zn1739 2.035 . S
O1743 C1748 1.258 . S
O1744 C1737 1.247 . S
O1744 Zn1741 2.028 . S
O1745 C1737 1.258 . S
O1745 Zn1739 2.035 . S
O1746 Zn1739 2.028 . S
O1746 C1749 1.247 . S
O1747 Zn1741 2.035 . S
O1747 C1749 1.258 . S
C1748 O1742 1.247 . S
C1748 O1743 1.258 . S
C1749 O1746 1.247 . S
C1749 O1747 1.258 . S
C1750 O1752 1.247 . S
C1750 O1754 1.258 . S
C1751 O1758 1.247 . S
C1751 O1759 1.258 . S
O1752 C1750 1.247 . S
O1752 Zn1753 2.028 . S
Zn1753 O1752 2.028 . S
Zn1753 O1757 2.035 . S
Zn1753 O1759 2.035 . S
Zn1753 O1760 2.028 . S
O1754 C1750 1.258 . S
O1754 Zn1755 2.035 . S
Zn1755 O1754 2.035 . S
Zn1755 O1756 2.028 . S
Zn1755 O1758 2.028 . S
Zn1755 O1761 2.035 . S
O1756 Zn1755 2.028 . S
O1756 C1762 1.247 . S
O1757 Zn1753 2.035 . S
O1757 C1762 1.258 . S
O1758 C1751 1.247 . S
O1758 Zn1755 2.028 . S
O1759 C1751 1.258 . S
O1759 Zn1753 2.035 . S
O1760 Zn1753 2.028 . S
O1760 C1763 1.247 . S
O1761 Zn1755 2.035 . S
O1761 C1763 1.258 . S
C1762 O1756 1.247 . S
C1762 O1757 1.258 . S
C1763 O1760 1.247 . S
C1763 O1761 1.258 . S
C1764 O1766 1.247 . S
C1764 O1768 1.258 . S
C1765 O1772 1.247 . S
C1765 O1773 1.258 . S
O1766 C1764 1.247 . S
O1766 Zn1767 2.028 . S
Zn1767 O1766 2.028 . S
Zn1767 O1771 2.035 . S
Zn1767 O1773 2.035 . S
Zn1767 O1774 2.028 . S
O1768 C1764 1.258 . S
O1768 Zn1769 2.035 . S
Zn1769 O1768 2.035 . S
Zn1769 O1770 2.028 . S
Zn1769 O1772 2.028 . S
Zn1769 O1775 2.035 . S
O1770 Zn1769 2.028 . S
O1770 C1776 1.247 . S
O1771 Zn1767 2.035 . S
O1771 C1776 1.258 . S
O1772 C1765 1.247 . S
O1772 Zn1769 2.028 . S
O1773 C1765 1.258 . S
O1773 Zn1767 2.035 . S
O1774 Zn1767 2.028 . S
O1774 C1777 1.247 . S
O1775 Zn1769 2.035 . S
O1775 C1777 1.258 . S
C1776 O1770 1.247 . S
C1776 O1771 1.258 . S
C1777 O1774 1.247 . S
C1777 O1775 1.258 . S
C1778 O1780 1.247 . S
C1778 O1782 1.258 . S
C1779 O1786 1.247 . S
C1779 O1787 1.258 . S
O1780 C1778 1.247 . S
O1780 Zn1781 2.028 . S
Zn1781 O1780 2.028 . S
Zn1781 O1785 2.035 . S
Zn1781 O1787 2.035 . S
Zn1781 O1788 2.028 . S
O1782 C1778 1.258 . S
O1782 Zn1783 2.035 . S
Zn1783 O1782 2.035 . S
Zn1783 O1784 2.028 . S
Zn1783 O1786 2.028 . S
Zn1783 O1789 2.035 . S
O1784 Zn1783 2.028 . S
O1784 C1790 1.247 . S
O1785 Zn1781 2.035 . S
O1785 C1790 1.258 . S
O1786 C1779 1.247 . S
O1786 Zn1783 2.028 . S
O1787 C1779 1.258 . S
O1787 Zn1781 2.035 . S
O1788 Zn1781 2.028 . S
O1788 C1791 1.247 . S
O1789 Zn1783 2.035 . S
O1789 C1791 1.258 . S
C1790 O1784 1.247 . S
C1790 O1785 1.258 . S
C1791 O1788 1.247 . S
C1791 O1789 1.258 . S
C1792 O1794 1.247 . S
C1792 O1796 1.258 . S
C1793 O1800 1.247 . S
C1793 O1801 1.258 . S
O1794 C1792 1.247 . S
O1794 Zn1795 2.028 . S
Zn1795 O1794 2.028 . S
Zn1795 O1799 2.035 . S
Zn1795 O1801 2.035 . S
Zn1795 O1802 2.028 . S
O1796 C1792 1.258 . S
O1796 Zn1797 2.035 . S
Zn1797 O1796 2.035 . S
Zn1797 O1798 2.028 . S
Zn1797 O1800 2.028 . S
Zn1797 O1803 2.035 . S
O1798 Zn1797 2.028 . S
O1798 C1804 1.247 . S
O1799 Zn1795 2.035 . S
O1799 C1804 1.258 . S
O1800 C1793 1.247 . S
O1800 Zn1797 2.028 . S
O1801 C1793 1.258 . S
O1801 Zn1795 2.035 . S
O1802 Zn1795 2.028 . S
O1802 C1805 1.247 . S
O1803 Zn1797 2.035 . S
O1803 C1805 1.258 . S
C1804 O1798 1.247 . S
C1804 O1799 1.258 . S
C1805 O1802 1.247 . S
C1805 O1803 1.258 . S
C1806 O1808 1.247 . S
C1806 O1810 1.258 . S
C1807 O1814 1.247 . S
C1807 O1815 1.258 . S
O1808 C1806 1.247 . S
O1808 Zn1809 2.028 . S
Zn1809 O1808 2.028 . S
Zn1809 O1813 2.035 . S
Zn1809 O1815 2.035 . S
Zn1809 O1816 2.028 . S
O1810 C1806 1.258 . S
O1810 Zn1811 2.035 . S
Zn1811 O1810 2.035 . S
Zn1811 O1812 2.028 . S
Zn1811 O1814 2.028 . S
Zn1811 O1817 2.035 . S
O1812 Zn1811 2.028 . S
O1812 C1818 1.247 . S
O1813 Zn1809 2.035 . S
O1813 C1818 1.258 . S
O1814 C1807 1.247 . S
O1814 Zn1811 2.028 . S
O1815 C1807 1.258 . S
O1815 Zn1809 2.035 . S
O1816 Zn1809 2.028 . S
O1816 C1819 1.247 . S
O1817 Zn1811 2.035 . S
O1817 C1819 1.258 . S
C1818 O1812 1.247 . S
C1818 O1813 1.258 . S
C1819 O1816 1.247 . S
C1819 O1817 1.258 . S
C1820 O1822 1.247 . S
C1820 O1824 1.258 . S
C1821 O1828 1.247 . S
C1821 O1829 1.258 . S
O1822 C1820 1.247 . S
O1822 Zn1823 2.028 . S
Zn1823 O1822 2.028 . S
Zn1823 O1827 2.035 . S
Zn1823 O1829 2.035 . S
Zn1823 O1830 2.028 . S
O1824 C1820 1.258 . S
O1824 Zn1825 2.035 . S
Zn1825 O1824 2.035 . S
Zn1825 O1826 2.028 . S
Zn1825 O1828 2.028 . S
Zn1825 O1831 2.035 . S
O1826 Zn1825 2.028 . S
O1826 C1832 1.247 . S
O1827 Zn1823 2.035 . S
O1827 C1832 1.258 . S
O1828 C1821 1.247 . S
O1828 Zn1825 2.028 . S
O1829 C1821 1.258 . S
O1829 Zn1823 2.035 . S
O1830 Zn1823 2.028 . S
O1830 C1833 1.247 . S
O1831 Zn1825 2.035 . S
O1831 C1833 1.258 . S
C1832 O1826 1.247 . S
C1832 O1827 1.258 . S
C1833 O1830 1.247 . S
C1833 O1831 1.258 . S
C1834 O1836 1.247 . S
C1834 O1838 1.258 . S
C1835 O1842 1.247 . S
C1835 O1843 1.258 . S
O1836 C1834 1.247 . S
O1836 Zn1837 2.028 . S
Zn1837 O1836 2.028 . S
Zn1837 O1841 2.035 . S
Zn1837 O1843 2.035 . S
Zn1837 O1844 2.028 . S
O1838 C1834 1.258 . S
O1838 Zn1839 2.035 . S
Zn1839 O1838 2.035 . S
Zn1839 O1840 2.028 . S
Zn1839 O1842 2.028 . S
Zn1839 O1845 2.035 . S
O1840 Zn1839 2.028 . S
O1840 C1846 1.247 . S
O1841 Zn1837 2.035 . S
O1841 C1846 1.258 . S
O1842 C1835 1.247 . S
O1842 Zn1839 2.028 . S
O1843 C1835 1.258 . S
O1843 Zn1837 2.035 . S
O1844 Zn1837 2.028 . S
O1844 C1847 1.247 . S
O1845 Zn1839 2.035 . S
O1845 C1847 1.258 . S
C1846 O1840 1.247 . S
C1846 O1841 1.258 . S
C1847 O1844 1.247 . S
C1847 O1845 1.258 . S
C1848 O1850 1.247 . S
C1848 O1852 1.258 . S
C1849 O1856 1.247 . S
C1849 O1857 1.258 . S
O1850 C1848 1.247 . S
O1850 Zn1851 2.028 . S
Zn1851 O1850 2.028 . S
Zn1851 O1855 2.035 . S
Zn1851 O1857 2.035 . S
Zn1851 O1858 2.028 . S
O1852 C1848 1.258 . S
O1852 Zn1853 2.035 . S
Zn1853 O1852 2.035 . S
Zn1853 O1854 2.028 . S
Zn1853 O1856 2.028 . S
Zn1853 O1859 2.035 . S
O1854 Zn1853 2.028 . S
O1854 C1860 1.247 . S
O1855 Zn1851 2.035 . S
O1855 C1860 1.258 . S
O1856 C1849 1.247 . S
O1856 Zn1853 2.028 . S
O1857 C1849 1.258 . S
O1857 Zn1851 2.035 . S
O1858 Zn1851 2.028 . S
O1858 C1861 1.247 . S
O1859 Zn1853 2.035 . S
O1859 C1861 1.258 . S
C1860 O1854 1.247 . S
C1860 O1855 1.258 . S
C1861 O1858 1.247 . S
C1861 O1859 1.258 . S
C1862 O1864 1.247 . S
C1862 O1866 1.258 . S
C1863 O1870 1.247 . S
C1863 O1871 1.258 . S
O1864 C1862 1.247 . S
O1864 Zn1865 2.028 . S
Zn1865 O1864 2.028 . S
Zn1865 O1869 2.035 . S
Zn1865 O1871 2.035 . S
Zn1865 O1872 2.028 . S
O1866 C1862 1.258 . S
O1866 Zn1867 2.035 . S
Zn1867 O1866 2.035 . S
Zn1867 O1868 2.028 . S
Zn1867 O1870 2.028 . S
Zn1867 O1873 2.035 . S
O1868 Zn1867 2.028 . S
O1868 C1874 1.247 . S
O1869 Zn1865 2.035 . S
O1869 C1874 1.258 . S
O1870 C1863 1.247 . S
O1870 Zn1867 2.028 . S
O1871 C1863 1.258 . S
O1871 Zn1865 2.035 . S
O1872 Zn1865 2.028 . S
O1872 C1875 1.247 . S
O1873 Zn1867 2.035 . S
O1873 C1875 1.258 . S
C1874 O1868 1.247 . S
C1874 O1869 1.258 . S
C1875 O1872 1.247 . S
C1875 O1873 1.258 . S
C1876 O1878 1.247 . S
C1876 O1880 1.258 . S
C1877 O1884 1.247 . S
C1877 O1885 1.258 . S
O1878 C1876 1.247 . S
O1878 Zn1879 2.028 . S
Zn1879 O1878 2.028 . S
Zn1879 O1883 2.035 . S
Zn1879 O1885 2.035 . S
Zn1879 O1886 2.028 . S
O1880 C1876 1.258 . S
O1880 Zn1881 2.035 . S
Zn1881 O1880 2.035 . S
Zn1881 O1882 2.028 . S
Zn1881 O1884 2.028 . S
Zn1881 O1887 2.035 . S
O1882 Zn1881 2.028 . S
O1882 C1888 1.247 . S
O1883 Zn1879 2.035 . S
O1883 C1888 1.258 . S
O1884 C1877 1.247 . S
O1884 Zn1881 2.028 . S
O1885 C1877 1.258 . S
O1885 Zn1879 2.035 . S
O1886 Zn1879 2.028 . S
O1886 C1889 1.247 . S
O1887 Zn1881 2.035 . S
O1887 C1889 1.258 . S
C1888 O1882 1.247 . S
C1888 O1883 1.258 . S
C1889 O1886 1.247 . S
C1889 O1887 1.258 . S
C1890 O1892 1.247 . S
C1890 O1894 1.258 . S
C1891 O1898 1.247 . S
C1891 O1899 1.258 . S
O1892 C1890 1.247 . S
O1892 Zn1893 2.028 . S
Zn1893 O1892 2.028 . S
Zn1893 O1897 2.035 . S
Zn1893 O1899 2.035 . S
Zn1893 O1900 2.028 . S
O1894 C1890 1.258 . S
O1894 Zn1895 2.035 . S
Zn1895 O1894 2.035 . S
Zn1895 O1896 2.028 . S
Zn1895 O1898 2.028 . S
Zn1895 O1901 2.035 . S
O1896 Zn1895 2.028 . S
O1896 C1902 1.247 . S
O1897 Zn1893 2.035 . S
O1897 C1902 1.258 . S
O1898 C1891 1.247 . S
O1898 Zn1895 2.028 . S
O1899 C1891 1.258 . S
O1899 Zn1893 2.035 . S
O1900 Zn1893 2.028 . S
O1900 C1903 1.247 . S
O1901 Zn1895 2.035 . S
O1901 C1903 1.258 . S
C1902 O1896 1.247 . S
C1902 O1897 1.258 . S
C1903 O1900 1.247 . S
C1903 O1901 1.258 . S
C1904 O1906 1.247 . S
C1904 O1908 1.258 . S
C1905 O1912 1.247 . S
C1905 O1913 1.258 . S
O1906 C1904 1.247 . S
O1906 Zn1907 2.028 . S
Zn1907 O1906 2.028 . S
Zn1907 O1911 2.035 . S
Zn1907 O1913 2.035 . S
Zn1907 O1914 2.028 . S
O1908 C1904 1.258 . S
O1908 Zn1909 2.035 . S
Zn1909 O1908 2.035 . S
Zn1909 O1910 2.028 . S
Zn1909 O1912 2.028 . S
Zn1909 O1915 2.035 . S
O1910 Zn1909 2.028 . S
O1910 C1916 1.247 . S
O1911 Zn1907 2.035 . S
O1911 C1916 1.258 . S
O1912 C1905 1.247 . S
O1912 Zn1909 2.028 . S
O1913 C1905 1.258 . S
O1913 Zn1907 2.035 . S
O1914 Zn1907 2.028 . S
O1914 C1917 1.247 . S
O1915 Zn1909 2.035 . S
O1915 C1917 1.258 . S
C1916 O1910 1.247 . S
C1916 O1911 1.258 . S
C1917 O1914 1.247 . S
C1917 O1915 1.258 . S
C1918 O1920 1.247 . S
C1918 O1922 1.258 . S
C1919 O1926 1.247 . S
C1919 O1927 1.258 . S
O1920 C1918 1.247 . S
O1920 Zn1921 2.028 . S
Zn1921 O1920 2.028 . S
Zn1921 O1925 2.035 . S
Zn1921 O1927 2.035 . S
Zn1921 O1928 2.028 . S
O1922 C1918 1.258 . S
O1922 Zn1923 2.035 . S
Zn1923 O1922 2.035 . S
Zn1923 O1924 2.028 . S
Zn1923 O1926 2.028 . S
Zn1923 O1929 2.035 . S
O1924 Zn1923 2.028 . S
O1924 C1930 1.247 . S
O1925 Zn1921 2.035 . S
O1925 C1930 1.258 . S
O1926 C1919 1.247 . S
O1926 Zn1923 2.028 . S
O1927 C1919 1.258 . S
O1927 Zn1921 2.035 . S
O1928 Zn1921 2.028 . S
O1928 C1931 1.247 . S
O1929 Zn1923 2.035 . S
O1929 C1931 1.258 . S
C1930 O1924 1.247 . S
C1930 O1925 1.258 . S
C1931 O1928 1.247 . S
C1931 O1929 1.258 . S
C1932 O1934 1.247 . S
C1932 O1936 1.258 . S
C1933 O1940 1.247 . S
C1933 O1941 1.258 . S
O1934 C1932 1.247 . S
O1934 Zn1935 2.028 . S
Zn1935 O1934 2.028 . S
Zn1935 O1939 2.035 . S
Zn1935 O1941 2.035 . S
Zn1935 O1942 2.028 . S
O1936 C1932 1.258 . S
O1936 Zn1937 2.035 . S
Zn1937 O1936 2.035 . S
Zn1937 O1938 2.028 . S
Zn1937 O1940 2.028 . S
Zn1937 O1943 2.035 . S
O1938 Zn1937 2.028 . S
O1938 C1944 1.247 . S
O1939 Zn1935 2.035 . S
O1939 C1944 1.258 . S
O1940 C1933 1.247 . S
O1940 Zn1937 2.028 . S
O1941 C1933 1.258 . S
O1941 Zn1935 2.035 . S
O1942 Zn1935 2.028 . S
O1942 C1945 1.247 . S
O1943 Zn1937 2.035 . S
O1943 C1945 1.258 . S
C1944 O1938 1.247 . S
C1944 O1939 1.258 . S
C1945 O1942 1.247 . S
C1945 O1943 1.258 . S
C1946 O1948 1.247 . S
C1946 O1950 1.258 . S
C1947 O1954 1.247 . S
C1947 O1955 1.258 . S
O1948 C1946 1.247 . S
O1948 Zn1949 2.028 . S
Zn1949 O1948 2.028 . S
Zn1949 O1953 2.035 . S
Zn1949 O1955 2.035 . S
Zn1949 O1956 2.028 . S
O1950 C1946 1.258 . S
O1950 Zn1951 2.035 . S
Zn1951 O1950 2.035 . S
Zn1951 O1952 2.028 . S
Zn1951 O1954 2.028 . S
Zn1951 O1957 2.035 . S
O1952 Zn1951 2.028 . S
O1952 C1958 1.247 . S
O1953 Zn1949 2.035 . S
O1953 C1958 1.258 . S
O1954 C1947 1.247 . S
O1954 Zn1951 2.028 . S
O1955 C1947 1.258 . S
O1955 Zn1949 2.035 . S
O1956 Zn1949 2.028 . S
O1956 C1959 1.247 . S
O1957 Zn1951 2.035 . S
O1957 C1959 1.258 . S
C1958 O1952 1.247 . S
C1958 O1953 1.258 . S
C1959 O1956 1.247 . S
C1959 O1957 1.258 . S
C1960 O1962 1.247 . S
C1960 O1964 1.258 . S
C1961 O1968 1.247 . S
C1961 O1969 1.258 . S
O1962 C1960 1.247 . S
O1962 Zn1963 2.028 . S
Zn1963 O1962 2.028 . S
Zn1963 O1967 2.035 . S
Zn1963 O1969 2.035 . S
Zn1963 O1970 2.028 . S
O1964 C1960 1.258 . S
O1964 Zn1965 2.035 . S
Zn1965 O1964 2.035 . S
Zn1965 O1966 2.028 . S
Zn1965 O1968 2.028 . S
Zn1965 O1971 2.035 . S
O1966 Zn1965 2.028 . S
O1966 C1972 1.247 . S
O1967 Zn1963 2.035 . S
O1967 C1972 1.258 . S
O1968 C1961 1.247 . S
O1968 Zn1965 2.028 . S
O1969 C1961 1.258 . S
O1969 Zn1963 2.035 . S
O1970 Zn1963 2.028 . S
O1970 C1973 1.247 . S
O1971 Zn1965 2.035 . S
O1971 C1973 1.258 . S
C1972 O1966 1.247 . S
C1972 O1967 1.258 . S
C1973 O1970 1.247 . S
C1973 O1971 1.258 . S
C1974 O1976 1.247 . S
C1974 O1978 1.258 . S
C1975 O1982 1.247 . S
C1975 O1983 1.258 . S
O1976 C1974 1.247 . S
O1976 Zn1977 2.028 . S
Zn1977 O1976 2.028 . S
Zn1977 O1981 2.035 . S
Zn1977 O1983 2.035 . S
Zn1977 O1984 2.028 . S
O1978 C1974 1.258 . S
O1978 Zn1979 2.035 . S
Zn1979 O1978 2.035 . S
Zn1979 O1980 2.028 . S
Zn1979 O1982 2.028 . S
Zn1979 O1985 2.035 . S
O1980 Zn1979 2.028 . S
O1980 C1986 1.247 . S
O1981 Zn1977 2.035 . S
O1981 C1986 1.258 . S
O1982 C1975 1.247 . S
O1982 Zn1979 2.028 . S
O1983 C1975 1.258 . S
O1983 Zn1977 2.035 . S
O1984 Zn1977 2.028 . S
O1984 C1987 1.247 . S
O1985 Zn1979 2.035 . S
O1985 C1987 1.258 . S
C1986 O1980 1.247 . S
C1986 O1981 1.258 . S
C1987 O1984 1.247 . S
C1987 O1985 1.258 . S
C1988 O1990 1.247 . S
C1988 O1992 1.258 . S
C1989 O1996 1.247 . S
C1989 O1997 1.258 . S
O1990 C1988 1.247 . S
O1990 Zn1991 2.028 . S
Zn1991 O1990 2.028 . S
Zn1991 O1995 2.035 . S
Zn1991 O1997 2.035 . S
Zn1991 O1998 2.028 . S
O1992 C1988 1.258 . S
O1992 Zn1993 2.035 . S
Zn1993 O1992 2.035 . S
Zn1993 O1994 2.028 . S
Zn1993 O1996 2.028 . S
Zn1993 O1999 2.035 . S
O1994 Zn1993 2.028 . S
O1994 C2000 1.247 . S
O1995 Zn1991 2.035 . S
O1995 C2000 1.258 . S
O1996 C1989 1.247 . S
O1996 Zn1993 2.028 . S
O1997 C1989 1.258 . S
O1997 Zn1991 2.035 . S
O1998 Zn1991 2.028 . S
O1998 C2001 1.247 . S
O1999 Zn1993 2.035 . S
O1999 C2001 1.258 . S
C2000 O1994 1.247 . S
C2000 O1995 1.258 . S
C2001 O1998 1.247 . S
C2001 O1999 1.258 . S
C2002 O2004 1.247 . S
C2002 O2006 1.258 . S
C2003 O2010 1.247 . S
C2003 O2011 1.258 . S
O2004 C2002 1.247 . S
O2004 Zn2005 2.028 . S
Zn2005 O2004 2.028 . S
Zn2005 O2009 2.035 . S
Zn2005 O2011 2.035 . S
Zn2005 O2012 2.028 . S
O2006 C2002 1.258 . S
O2006 Zn2007 2.035 . S
Zn2007 O2006 2.035 . S
Zn2007 O2008 2.028 . S
Zn2007 O2010 2.028 . S
Zn2007 O2013 2.035 . S
O2008 Zn2007 2.028 . S
O2008 C2014 1.247 . S
O2009 Zn2005 2.035 . S
O2009 C2014 1.258 . S
O2010 C2003 1.247 . S
O2010 Zn2007 2.028 . S
O2011 C2003 1.258 . S
O2011 Zn2005 2.035 . S
O2012 Zn2005 2.028 . S
O2012 C2015 1.247 . S
O2013 Zn2007 2.035 . S
O2013 C2015 1.258 . S
C2014 O2008 1.247 . S
C2014 O2009 1.258 . S
C2015 O2012 1.247 . S
C2015 O2013 1.258 . S
C2016 O2018 1.247 . S
C2016 O2020 1.258 . S
C2017 O2024 1.247 . S
C2017 O2025 1.258 . S
O2018 C2016 1.247 . S
O2018 Zn2019 2.028 . S
Zn2019 O2018 2.028 . S
Zn2019 O2023 2.035 . S
Zn2019 O2025 2.035 . S
Zn2019 O2026 2.028 . S
O2020 C2016 1.258 . S
O2020 Zn2021 2.035 . S
Zn2021 O2020 2.035 . S
Zn2021 O2022 2.028 . S
Zn2021 O2024 2.028 . S
Zn2021 O2027 2.035 . S
O2022 Zn2021 2.028 . S
O2022 C2028 1.247 . S
O2023 Zn2019 2.035 . S
O2023 C2028 1.258 . S
O2024 C2017 1.247 . S
O2024 Zn2021 2.028 . S
O2025 C2017 1.258 . S
O2025 Zn2019 2.035 . S
O2026 Zn2019 2.028 . S
O2026 C2029 1.247 . S
O2027 Zn2021 2.035 . S
O2027 C2029 1.258 . S
C2028 O2022 1.247 . S
C2028 O2023 1.258 . S
C2029 O2026 1.247 . S
C2029 O2027 1.258 . S
C2030 O2032 1.247 . S
C2030 O2034 1.258 . S
C2031 O2038 1.247 . S
C2031 O2039 1.258 . S
O2032 C2030 1.247 . S
O2032 Zn2033 2.028 . S
Zn2033 O2032 2.028 . S
Zn2033 O2037 2.035 . S
Zn2033 O2039 2.035 . S
Zn2033 O2040 2.028 . S
O2034 C2030 1.258 . S
O2034 Zn2035 2.035 . S
Zn2035 O2034 2.035 . S
Zn2035 O2036 2.028 . S
Zn2035 O2038 2.028 . S
Zn2035 O2041 2.035 . S
O2036 Zn2035 2.028 . S
O2036 C2042 1.247 . S
O2037 Zn2033 2.035 . S
O2037 C2042 1.258 . S
O2038 C2031 1.247 . S
O2038 Zn2035 2.028 . S
O2039 C2031 1.258 . S
O2039 Zn2033 2.035 . S
O2040 Zn2033 2.028 . S
O2040 C2043 1.247 . S
O2041 Zn2035 2.035 . S
O2041 C2043 1.258 . S
C2042 O2036 1.247 . S
C2042 O2037 1.258 . S
C2043 O2040 1.247 . S
C2043 O2041 1.258 . S
C2044 O2046 1.247 . S
C2044 O2048 1.258 . S
C2045 O2052 1.247 . S
C2045 O2053 1.258 . S
O2046 C2044 1.247 . S
O2046 Zn2047 2.028 . S
Zn2047 O2046 2.028 . S
Zn2047 O2051 2.035 . S
Zn2047 O2053 2.035 . S
Zn2047 O2054 2.028 . S
O2048 C2044 1.258 . S
O2048 Zn2049 2.035 . S
Zn2049 O2048 2.035 . S
Zn2049 O2050 2.028 . S
Zn2049 O2052 2.028 . S
Zn2049 O2055 2.035 . S
O2050 Zn2049 2.028 . S
O2050 C2056 1.247 . S
O2051 Zn2047 2.035 . S
O2051 C2056 1.258 . S
O2052 C2045 1.247 . S
O2052 Zn2049 2.028 . S
O2053 C2045 1.258 . S
O2053 Zn2047 2.035 . S
O2054 Zn2047 2.028 . S
O2054 C2057 1.247 . S
O2055 Zn2049 2.035 . S
O2055 C2057 1.258 . S
C2056 O2050 1.247 . S
C2056 O2051 1.258 . S
C2057 O2054 1.247 . S
C2057 O2055 1.258 . S
C2058 O2060 1.247 . S
C2058 O2062 1.258 . S
C2059 O2066 1.247 . S
C2059 O2067 1.258 . S
O2060 C2058 1.247 . S
O2060 Zn2061 2.028 . S
Zn2061 O2060 2.028 . S
Zn2061 O2065 2.035 . S
Zn2061 O2067 2.035 . S
Zn2061 O2068 2.028 . S
O2062 C2058 1.258 . S
O2062 Zn2063 2.035 . S
Zn2063 O2062 2.035 . S
Zn2063 O2064 2.028 . S
Zn2063 O2066 2.028 . S
Zn2063 O2069 2.035 . S
O2064 Zn2063 2.028 . S
O2064 C2070 1.247 . S
O2065 Zn2061 2.035 . S
O2065 C2070 1.258 . S
O2066 C2059 1.247 . S
O2066 Zn2063 2.028 . S
O2067 C2059 1.258 . S
O2067 Zn2061 2.035 . S
O2068 Zn2061 2.028 . S
O2068 C2071 1.247 . S
O2069 Zn2063 2.035 . S
O2069 C2071 1.258 . S
C2070 O2064 1.247 . S
C2070 O2065 1.258 . S
C2071 O2068 1.247 . S
C2071 O2069 1.258 . S
C2072 O2074 1.247 . S
C2072 O2076 1.258 . S
C2073 O2080 1.247 . S
C2073 O2081 1.258 . S
O2074 C2072 1.247 . S
O2074 Zn2075 2.028 . S
Zn2075 O2074 2.028 . S
Zn2075 O2079 2.035 . S
Zn2075 O2081 2.035 . S
Zn2075 O2082 2.028 . S
O2076 C2072 1.258 . S
O2076 Zn2077 2.035 . S
Zn2077 O2076 2.035 . S
Zn2077 O2078 2.028 . S
Zn2077 O2080 2.028 . S
Zn2077 O2083 2.035 . S
O2078 Zn2077 2.028 . S
O2078 C2084 1.247 . S
O2079 Zn2075 2.035 . S
O2079 C2084 1.258 . S
O2080 C2073 1.247 . S
O2080 Zn2077 2.028 . S
O2081 C2073 1.258 . S
O2081 Zn2075 2.035 . S
O2082 Zn2075 2.028 . S
O2082 C2085 1.247 . S
O2083 Zn2077 2.035 . S
O2083 C2085 1.258 . S
C2084 O2078 1.247 . S
C2084 O2079 1.258 . S
C2085 O2082 1.247 . S
C2085 O2083 1.258 . S
C2086 O2088 1.247 . S
C2086 O2090 1.258 . S
C2087 O2094 1.247 . S
C2087 O2095 1.258 . S
O2088 C2086 1.247 . S
O2088 Zn2089 2.028 . S
Zn2089 O2088 2.028 . S
Zn2089 O2093 2.035 . S
Zn2089 O2095 2.035 . S
Zn2089 O2096 2.028 . S
O2090 C2086 1.258 . S
O2090 Zn2091 2.035 . S
Zn2091 O2090 2.035 . S
Zn2091 O2092 2.028 . S
Zn2091 O2094 2.028 . S
Zn2091 O2097 2.035 . S
O2092 Zn2091 2.028 . S
O2092 C2098 1.247 . S
O2093 Zn2089 2.035 . S
O2093 C2098 1.258 . S
O2094 C2087 1.247 . S
O2094 Zn2091 2.028 . S
O2095 C2087 1.258 . S
O2095 Zn2089 2.035 . S
O2096 Zn2089 2.028 . S
O2096 C2099 1.247 . S
O2097 Zn2091 2.035 . S
O2097 C2099 1.258 . S
C2098 O2092 1.247 . S
C2098 O2093 1.258 . S
C2099 O2096 1.247 . S
C2099 O2097 1.258 . S
C2100 O2102 1.247 . S
C2100 O2104 1.258 . S
C2101 O2108 1.247 . S
C2101 O2109 1.258 . S
O2102 C2100 1.247 . S
O2102 Zn2103 2.028 . S
Zn2103 O2102 2.028 . S
Zn2103 O2107 2.035 . S
Zn2103 O2109 2.035 . S
Zn2103 O2110 2.028 . S
O2104 C2100 1.258 . S
O2104 Zn2105 2.035 . S
Zn2105 O2104 2.035 . S
Zn2105 O2106 2.028 . S
Zn2105 O2108 2.028 . S
Zn2105 O2111 2.035 . S
O2106 Zn2105 2.028 . S
O2106 C2112 1.247 . S
O2107 Zn2103 2.035 . S
O2107 C2112 1.258 . S
O2108 C2101 1.247 . S
O2108 Zn2105 2.028 . S
O2109 C2101 1.258 . S
O2109 Zn2103 2.035 . S
O2110 Zn2103 2.028 . S
O2110 C2113 1.247 . S
O2111 Zn2105 2.035 . S
O2111 C2113 1.258 . S
C2112 O2106 1.247 . S
C2112 O2107 1.258 . S
C2113 O2110 1.247 . S
C2113 O2111 1.258 . S
C2114 O2116 1.247 . S
C2114 O2118 1.258 . S
C2115 O2122 1.247 . S
C2115 O2123 1.258 . S
O2116 C2114 1.247 . S
O2116 Zn2117 2.028 . S
Zn2117 O2116 2.028 . S
Zn2117 O2121 2.035 . S
Zn2117 O2123 2.035 . S
Zn2117 O2124 2.028 . S
O2118 C2114 1.258 . S
O2118 Zn2119 2.035 . S
Zn2119 O2118 2.035 . S
Zn2119 O2120 2.028 . S
Zn2119 O2122 2.028 . S
Zn2119 O2125 2.035 . S
O2120 Zn2119 2.028 . S
O2120 C2126 1.247 . S
O2121 Zn2117 2.035 . S
O2121 C2126 1.258 . S
O2122 C2115 1.247 . S
O2122 Zn2119 2.028 . S
O2123 C2115 1.258 . S
O2123 Zn2117 2.035 . S
O2124 Zn2117 2.028 . S
O2124 C2127 1.247 . S
O2125 Zn2119 2.035 . S
O2125 C2127 1.258 . S
C2126 O2120 1.247 . S
C2126 O2121 1.258 . S
C2127 O2124 1.247 . S
C2127 O2125 1.258 . S
C2128 O2130 1.247 . S
C2128 O2132 1.258 . S
C2129 O2136 1.247 . S
C2129 O2137 1.258 . S
O2130 C2128 1.247 . S
O2130 Zn2131 2.028 . S
Zn2131 O2130 2.028 . S
Zn2131 O2135 2.035 . S
Zn2131 O2137 2.035 . S
Zn2131 O2138 2.028 . S
O2132 C2128 1.258 . S
O2132 Zn2133 2.035 . S
Zn2133 O2132 2.035 . S
Zn2133 O2134 2.028 . S
Zn2133 O2136 2.028 . S
Zn2133 O2139 2.035 . S
O2134 Zn2133 2.028 . S
O2134 C2140 1.247 . S
O2135 Zn2131 2.035 . S
O2135 C2140 1.258 . S
O2136 C2129 1.247 . S
O2136 Zn2133 2.028 . S
O2137 C2129 1.258 . S
O2137 Zn2131 2.035 . S
O2138 Zn2131 2.028 . S
O2138 C2141 1.247 . S
O2139 Zn2133 2.035 . S
O2139 C2141 1.258 . S
C2140 O2134 1.247 . S
C2140 O2135 1.258 . S
C2141 O2138 1.247 . S
C2141 O2139 1.258 . S
C2142 O2144 1.247 . S
C2142 O2146 1.258 . S
C2143 O2150 1.247 . S
C2143 O2151 1.258 . S
O2144 C2142 1.247 . S
O2144 Zn2145 2.028 . S
Zn2145 O2144 2.028 . S
Zn2145 O2149 2.035 . S
Zn2145 O2151 2.035 . S
Zn2145 O2152 2.028 . S
O2146 C2142 1.258 . S
O2146 Zn2147 2.035 . S
Zn2147 O2146 2.035 . S
Zn2147 O2148 2.028 . S
Zn2147 O2150 2.028 . S
Zn2147 O2153 2.035 . S
O2148 Zn2147 2.028 . S
O2148 C2154 1.247 . S
O2149 Zn2145 2.035 . S
O2149 C2154 1.258 . S
O2150 C2143 1.247 . S
O2150 Zn2147 2.028 . S
O2151 C2143 1.258 . S
O2151 Zn2145 2.035 . S
O2152 Zn2145 2.028 . S
O2152 C2155 1.247 . S
O2153 Zn2147 2.035 . S
O2153 C2155 1.258 . S
C2154 O2148 1.247 . S
C2154 O2149 1.258 . S
C2155 O2152 1.247 . S
C2155 O2153 1.258 . S
C2156 O2158 1.247 . S
C2156 O2160 1.258 . S
C2157 O2164 1.247 . S
C2157 O2165 1.258 . S
O2158 C2156 1.247 . S
O2158 Zn2159 2.028 . S
Zn2159 O2158 2.028 . S
Zn2159 O2163 2.035 . S
Zn2159 O2165 2.035 . S
Zn2159 O2166 2.028 . S
O2160 C2156 1.258 . S
O2160 Zn2161 2.035 . S
Zn2161 O2160 2.035 . S
Zn2161 O2162 2.028 . S
Zn2161 O2164 2.028 . S
Zn2161 O2167 2.035 . S
O2162 Zn2161 2.028 . S
O2162 C2168 1.247 . S
O2163 Zn2159 2.035 . S
O2163 C2168 1.258 . S
O2164 C2157 1.247 . S
O2164 Zn2161 2.028 . S
O2165 C2157 1.258 . S
O2165 Zn2159 2.035 . S
O2166 Zn2159 2.028 . S
O2166 C2169 1.247 . S
O2167 Zn2161 2.035 . S
O2167 C2169 1.258 . S
C2168 O2162 1.247 . S
C2168 O2163 1.258 . S
C2169 O2166 1.247 . S
C2169 O2167 1.258 . S
C2170 O2172 1.247 . S
C2170 O2174 1.258 . S
C2171 O2178 1.247 . S
C2171 O2179 1.258 . S
O2172 C2170 1.247 . S
O2172 Zn2173 2.028 . S
Zn2173 O2172 2.028 . S
Zn2173 O2177 2.035 . S
Zn2173 O2179 2.035 . S
Zn2173 O2180 2.028 . S
O2174 C2170 1.258 . S
O2174 Zn2175 2.035 . S
Zn2175 O2174 2.035 . S
Zn2175 O2176 2.028 . S
Zn2175 O2178 2.028 . S
Zn2175 O2181 2.035 . S
O2176 Zn2175 2.028 . S
O2176 C2182 1.247 . S
O2177 Zn2173 2.035 . S
O2177 C2182 1.258 . S
O2178 C2171 1.247 . S
O2178 Zn2175 2.028 . S
O2179 C2171 1.258 . S
O2179 Zn2173 2.035 . S
O2180 Zn2173 2.028 . S
O2180 C2183 1.247 . S
O2181 Zn2175 2.035 . S
O2181 C2183 1.258 . S
C2182 O2176 1.247 . S
C2182 O2177 1.258 . S
C2183 O2180 1.247 . S
C2183 O2181 1.258 . S
C2184 O2186 1.247 . S
C2184 O2188 1.258 . S
C2185 O2192 1.247 . S
C2185 O2193 1.258 . S
O2186 C2184 1.247 . S
O2186 Zn2187 2.028 . S
Zn2187 O2186 2.028 . S
Zn2187 O2191 2.035 . S
Zn2187 O2193 2.035 . S
Zn2187 O2194 2.028 . S
O2188 C2184 1.258 . S
O2188 Zn2189 2.035 . S
Zn2189 O2188 2.035 . S
Zn2189 O2190 2.028 . S
Zn2189 O2192 2.028 . S
Zn2189 O2195 2.035 . S
O2190 Zn2189 2.028 . S
O2190 C2196 1.247 . S
O2191 Zn2187 2.035 . S
O2191 C2196 1.258 . S
O2192 C2185 1.247 . S
O2192 Zn2189 2.028 . S
O2193 C2185 1.258 . S
O2193 Zn2187 2.035 . S
O2194 Zn2187 2.028 . S
O2194 C2197 1.247 . S
O2195 Zn2189 2.035 . S
O2195 C2197 1.258 . S
C2196 O2190 1.247 . S
C2196 O2191 1.258 . S
C2197 O2194 1.247 . S
C2197 O2195 1.258 . S
C2198 O2200 1.247 . S
C2198 O2202 1.258 . S
C2199 O2206 1.247 . S
C2199 O2207 1.258 . S
O2200 C2198 1.247 . S
O2200 Zn2201 2.028 . S
Zn2201 O2200 2.028 . S
Zn2201 O2205 2.035 . S
Zn2201 O2207 2.035 . S
Zn2201 O2208 2.028 . S
O2202 C2198 1.258 . S
O2202 Zn2203 2.035 . S
Zn2203 O2202 2.035 . S
Zn2203 O2204 2.028 . S
Zn2203 O2206 2.028 . S
Zn2203 O2209 2.035 . S
O2204 Zn2203 2.028 . S
O2204 C2210 1.247 . S
O2205 Zn2201 2.035 . S
O2205 C2210 1.258 . S
O2206 C2199 1.247 . S
O2206 Zn2203 2.028 . S
O2207 C2199 1.258 . S
O2207 Zn2201 2.035 . S
O2208 Zn2201 2.028 . S
O2208 C2211 1.247 . S
O2209 Zn2203 2.035 . S
O2209 C2211 1.258 . S
C2210 O2204 1.247 . S
C2210 O2205 1.258 . S
C2211 O2208 1.247 . S
C2211 O2209 1.258 . S
C2212 O2214 1.247 . S
C2212 O2216 1.258 . S
C2213 O2220 1.247 . S
C2213 O2221 1.258 . S
O2214 C2212 1.247 . S
O2214 Zn2215 2.028 . S
Zn2215 O2214 2.028 . S
Zn2215 O2219 2.035 . S
Zn2215 O2221 2.035 . S
Zn2215 O2222 2.028 . S
O2216 C2212 1.258 . S
O2216 Zn2217 2.035 . S
Zn2217 O2216 2.035 . S
Zn2217 O2218 2.028 . S
Zn2217 O2220 2.028 . S
Zn2217 O2223 2.035 . S
O2218 Zn2217 2.028 . S
O2218 C2224 1.247 . S
O2219 Zn2215 2.035 . S
O2219 C2224 1.258 . S
O2220 C2213 1.247 . S
O2220 Zn2217 2.028 . S
O2221 C2213 1.258 . S
O2221 Zn2215 2.035 . S
O2222 Zn2215 2.028 . S
O2222 C2225 1.247 . S
O2223 Zn2217 2.035 . S
O2223 C2225 1.258 . S
C2224 O2218 1.247 . S
C2224 O2219 1.258 . S
C2225 O2222 1.247 . S
C2225 O2223 1.258 . S
C2226 O2228 1.247 . S
C2226 O2230 1.258 . S
C2227 O2234 1.247 . S
C2227 O2235 1.258 . S
O2228 C2226 1.247 . S
O2228 Zn2229 2.028 . S
Zn2229 O2228 2.028 . S
Zn2229 O2233 2.035 . S
Zn2229 O2235 2.035 . S
Zn2229 O2236 2.028 . S
O2230 C2226 1.258 . S
O2230 Zn2231 2.035 . S
Zn2231 O2230 2.035 . S
Zn2231 O2232 2.028 . S
Zn2231 O2234 2.028 . S
Zn2231 O2237 2.035 . S
O2232 Zn2231 2.028 . S
O2232 C2238 1.247 . S
O2233 Zn2229 2.035 . S
O2233 C2238 1.258 . S
O2234 C2227 1.247 . S
O2234 Zn2231 2.028 . S
O2235 C2227 1.258 . S
O2235 Zn2229 2.035 . S
O2236 Zn2229 2.028 . S
O2236 C2239 1.247 . S
O2237 Zn2231 2.035 . S
O2237 C2239 1.258 . S
C2238 O2232 1.247 . S
C2238 O2233 1.258 . S
C2239 O2236 1.247 . S
C2239 O2237 1.258 . S
C2240 O2242 1.247 . S
C2240 O2244 1.258 . S
C2241 O2248 1.247 . S
C2241 O2249 1.258 . S
O2242 C2240 1.247 . S
O2242 Zn2243 2.028 . S
Zn2243 O2242 2.028 . S
Zn2243 O2247 2.035 . S
Zn2243 O2249 2.035 . S
Zn2243 O2250 2.028 . S
O2244 C2240 1.258 . S
O2244 Zn2245 2.035 . S
Zn2245 O2244 2.035 . S
Zn2245 O2246 2.028 . S
Zn2245 O2248 2.028 . S
Zn2245 O2251 2.035 . S
O2246 Zn2245 2.028 . S
O2246 C2252 1.247 . S
O2247 Zn2243 2.035 . S
O2247 C2252 1.258 . S
O2248 C2241 1.247 . S
O2248 Zn2245 2.028 . S
O2249 C2241 1.258 . S
O2249 Zn2243 2.035 . S
O2250 Zn2243 2.028 . S
O2250 C2253 1.247 . S
O2251 Zn2245 2.035 . S
O2251 C2253 1.258 . S
C2252 O2246 1.247 . S
C2252 O2247 1.258 . S
C2253 O2250 1.247 . S
C2253 O2251 1.258 . S
C2254 O2256 1.247 . S
C2254 O2258 1.258 . S
C2255 O2262 1.247 . S
C2255 O2263 1.258 . S
O2256 C2254 1.247 . S
O2256 Zn2257 2.028 . S
Zn2257 O2256 2.028 . S
Zn2257 O2261 2.035 . S
Zn2257 O2263 2.035 . S
Zn2257 O2264 2.028 . S
O2258 C2254 1.258 . S
O2258 Zn2259 2.035 . S
Zn2259 O2258 2.035 . S
Zn2259 O2260 2.028 . S
Zn2259 O2262 2.028 . S
Zn2259 O2265 2.035 . S
O2260 Zn2259 2.028 . S
O2260 C2266 1.247 . S
O2261 Zn2257 2.035 . S
O2261 C2266 1.258 . S
O2262 C2255 1.247 . S
O2262 Zn2259 2.028 . S
O2263 C2255 1.258 . S
O2263 Zn2257 2.035 . S
O2264 Zn2257 2.028 . S
O2264 C2267 1.247 . S
O2265 Zn2259 2.035 . S
O2265 C2267 1.258 . S
C2266 O2260 1.247 . S
C2266 O2261 1.258 . S
C2267 O2264 1.247 . S
C2267 O2265 1.258 . S
C2268 O2270 1.247 . S
C2268 O2272 1.258 . S
C2269 O2276 1.247 . S
C2269 O2277 1.258 . S
O2270 C2268 1.247 . S
O2270 Zn2271 2.028 . S
Zn2271 O2270 2.028 . S
Zn2271 O2275 2.035 . S
Zn2271 O2277 2.035 . S
Zn2271 O2278 2.028 . S
O2272 C2268 1.258 . S
O2272 Zn2273 2.035 . S
Zn2273 O2272 2.035 . S
Zn2273 O2274 2.028 . S
Zn2273 O2276 2.028 . S
Zn2273 O2279 2.035 . S
O2274 Zn2273 2.028 . S
O2274 C2280 1.247 . S
O2275 Zn2271 2.035 . S
O2275 C2280 1.258 . S
O2276 C2269 1.247 . S
O2276 Zn2273 2.028 . S
O2277 C2269 1.258 . S
O2277 Zn2271 2.035 . S
O2278 Zn2271 2.028 . S
O2278 C2281 1.247 . S
O2279 Zn2273 2.035 . S
O2279 C2281 1.258 . S
C2280 O2274 1.247 . S
C2280 O2275 1.258 . S
C2281 O2278 1.247 . S
C2281 O2279 1.258 . S
C2282 O2284 1.247 . S
C2282 O2286 1.258 . S
C2283 O2290 1.247 . S
C2283 O2291 1.258 . S
O2284 C2282 1.247 . S
O2284 Zn2285 2.028 . S
Zn2285 O2284 2.028 . S
Zn2285 O2289 2.035 . S
Zn2285 O2291 2.035 . S
Zn2285 O2292 2.028 . S
O2286 C2282 1.258 . S
O2286 Zn2287 2.035 . S
Zn2287 O2286 2.035 . S
Zn2287 O2288 2.028 . S
Zn2287 O2290 2.028 . S
Zn2287 O2293 2.035 . S
O2288 Zn2287 2.028 . S
O2288 C2294 1.247 . S
O2289 Zn2285 2.035 . S
O2289 C2294 1.258 . S
O2290 C2283 1.247 . S
O2290 Zn2287 2.028 . S
O2291 C2283 1.258 . S
O2291 Zn2285 2.035 . S
O2292 Zn2285 2.028 . S
O2292 C2295 1.247 . S
O2293 Zn2287 2.035 . S
O2293 C2295 1.258 . S
C2294 O2288 1.247 . S
C2294 O2289 1.258 . S
C2295 O2292 1.247 . S
C2295 O2293 1.258 . S
C2296 O2298 1.247 . S
C2296 O2300 1.258 . S
C2297 O2304 1.247 . S
C2297 O2305 1.258 . S
O2298 C2296 1.247 . S
O2298 Zn2299 2.028 . S
Zn2299 O2298 2.028 . S
Zn2299 O2303 2.035 . S
Zn2299 O2305 2.035 . S
Zn2299 O2306 2.028 . S
O2300 C2296 1.258 . S
O2300 Zn2301 2.035 . S
Zn2301 O2300 2.035 . S
Zn2301 O2302 2.028 . S
Zn2301 O2304 2.028 . S
Zn2301 O2307 2.035 . S
O2302 Zn2301 2.028 . S
O2302 C2308 1.247 . S
O2303 Zn2299 2.035 . S
O2303 C2308 1.258 . S
O2304 C2297 1.247 . S
O2304 Zn2301 2.028 . S
O2305 C2297 1.258 . S
O2305 Zn2299 2.035 . S
O2306 Zn2299 2.028 . S
O2306 C2309 1.247 . S
O2307 Zn2301 2.035 . S
O2307 C2309 1.258 . S
C2308 O2302 1.247 . S
C2308 O2303 1.258 . S
C2309 O2306 1.247 . S
C2309 O2307 1.258 . S
C2310 O2312 1.247 . S
C2310 O2314 1.258 . S
C2311 O2318 1.247 . S
C2311 O2319 1.258 . S
O2312 C2310 1.247 . S
O2312 Zn2313 2.028 . S
Zn2313 O2312 2.028 . S
Zn2313 O2317 2.035 . S
Zn2313 O2319 2.035 . S
Zn2313 O2320 2.028 . S
O2314 C2310 1.258 . S
O2314 Zn2315 2.035 . S
Zn2315 O2314 2.035 . S
Zn2315 O2316 2.028 . S
Zn2315 O2318 2.028 . S
Zn2315 O2321 2.035 . S
O2316 Zn2315 2.028 . S
O2316 C2322 1.247 . S
O2317 Zn2313 2.035 . S
O2317 C2322 1.258 . S
O2318 C2311 1.247 . S
O2318 Zn2315 2.028 . S
O2319 C2311 1.258 . S
O2319 Zn2313 2.035 . S
O2320 Zn2313 2.028 . S
O2320 C2323 1.247 . S
O2321 Zn2315 2.035 . S
O2321 C2323 1.258 . S
C2322 O2316 1.247 . S
C2322 O2317 1.258 . S
C2323 O2320 1.247 . S
C2323 O2321 1.258 . S
C2324 O2326 1.247 . S
C2324 O2328 1.258 . S
C2325 O2332 1.247 . S
C2325 O2333 1.258 . S
O2326 C2324 1.247 . S
O2326 Zn2327 2.028 . S
Zn2327 O2326 2.028 . S
Zn2327 O2331 2.035 . S
Zn2327 O2333 2.035 . S
Zn2327 O2334 2.028 . S
O2328 C2324 1.258 . S
O2328 Zn2329 2.035 . S
Zn2329 O2328 2.035 . S
Zn2329 O2330 2.028 . S
Zn2329 O2332 2.028 . S
Zn2329 O2335 2.035 . S
O2330 Zn2329 2.028 . S
O2330 C2336 1.247 . S
O2331 Zn2327 2.035 . S
O2331 C2336 1.258 . S
O2332 C2325 1.247 . S
O2332 Zn2329 2.028 . S
O2333 C2325 1.258 . S
O2333 Zn2327 2.035 . S
O2334 Zn2327 2.028 . S
O2334 C2337 1.247 . S
O2335 Zn2329 2.035 . S
O2335 C2337 1.258 . S
C2336 O2330 1.247 . S
C2336 O2331 1.258 . S
C2337 O2334 1.247 . S
C2337 O2335 1.258 . S
C2338 O2340 1.247 . S
C2338 O2342 1.258 . S
C2339 O2346 1.247 . S
C2339 O2347 1.258 . S
O2340 C2338 1.247 . S
O2340 Zn2341 2.028 . S
Zn2341 O2340 2.028 . S
Zn2341 O2345 2.035 . S
Zn2341 O2347 2.035 . S
Zn2341 O2348 2.028 . S
O2342 C2338 1.258 . S
O2342 Zn2343 2.035 . S
Zn2343 O2342 2.035 . S
Zn2343 O2344 2.028 . S
Zn2343 O2346 2.028 . S
Zn2343 O2349 2.035 . S
O2344 Zn2343 2.028 . S
O2344 C2350 1.247 . S
O2345 Zn2341 2.035 . S
O2345 C2350 1.258 . S
O2346 C2339 1.247 . S
O2346 Zn2343 2.028 . S
O2347 C2339 1.258 . S
O2347 Zn2341 2.035 . S
O2348 Zn2341 2.028 . S
O2348 C2351 1.247 . S
O2349 Zn2343 2.035 . S
O2349 C2351 1.258 . S
C2350 O2344 1.247 . S
C2350 O2345 1.258 . S
C2351 O2348 1.247 . S
C2351 O2349 1.258 . S
C2352 O2354 1.247 . S
C2352 O2356 1.258 . S
C2353 O2360 1.247 . S
C2353 O2361 1.258 . S
O2354 C2352 1.247 . S
O2354 Zn2355 2.028 . S
Zn2355 O2354 2.028 . S
Zn2355 O2359 2.035 . S
Zn2355 O2361 2.035 . S
Zn2355 O2362 2.028 . S
O2356 C2352 1.258 . S
O2356 Zn2357 2.035 . S
Zn2357 O2356 2.035 . S
Zn2357 O2358 2.028 . S
Zn2357 O2360 2.028 . S
Zn2357 O2363 2.035 . S
O2358 Zn2357 2.028 . S
O2358 C2364 1.247 . S
O2359 Zn2355 2.035 . S
O2359 C2364 1.258 . S
O2360 C2353 1.247 . S
O2360 Zn2357 2.028 . S
O2361 C2353 1.258 . S
O2361 Zn2355 2.035 . S
O2362 Zn2355 2.028 . S
O2362 C2365 1.247 . S
O2363 Zn2357 2.035 . S
O2363 C2365 1.258 . S
C2364 O2358 1.247 . S
C2364 O2359 1.258 . S
C2365 O2362 1.247 . S
C2365 O2363 1.258 . S
C2366 O2368 1.247 . S
C2366 O2370 1.258 . S
C2367 O2374 1.247 . S
C2367 O2375 1.258 . S
O2368 C2366 1.247 . S
O2368 Zn2369 2.028 . S
Zn2369 O2368 2.028 . S
Zn2369 O2373 2.035 . S
Zn2369 O2375 2.035 . S
Zn2369 O2376 2.028 . S
O2370 C2366 1.258 . S
O2370 Zn2371 2.035 . S
Zn2371 O2370 2.035 . S
Zn2371 O2372 2.028 . S
Zn2371 O2374 2.028 . S
Zn2371 O2377 2.035 . S
O2372 Zn2371 2.028 . S
O2372 C2378 1.247 . S
O2373 Zn2369 2.035 . S
O2373 C2378 1.258 . S
O2374 C2367 1.247 . S
O2374 Zn2371 2.028 . S
O2375 C2367 1.258 . S
O2375 Zn2369 2.035 . S
O2376 Zn2369 2.028 . S
O2376 C2379 1.247 . S
O2377 Zn2371 2.035 . S
O2377 C2379 1.258 . S
C2378 O2372 1.247 . S
C2378 O2373 1.258 . S
C2379 O2376 1.247 . S
C2379 O2377 1.258 . S
C2380 O2382 1.247 . S
C2380 O2384 1.258 . S
C2381 O2388 1.247 . S
C2381 O2389 1.258 . S
O2382 C2380 1.247 . S
O2382 Zn2383 2.028 . S
Zn2383 O2382 2.028 . S
Zn2383 O2387 2.035 . S
Zn2383 O2389 2.035 . S
Zn2383 O2390 2.028 . S
O2384 C2380 1.258 . S
O2384 Zn2385 2.035 . S
Zn2385 O2384 2.035 . S
Zn2385 O2386 2.028 . S
Zn2385 O2388 2.028 . S
Zn2385 O2391 2.035 . S
O2386 Zn2385 2.028 . S
O2386 C2392 1.247 . S
O2387 Zn2383 2.035 . S
O2387 C2392 1.258 . S
O2388 C2381 1.247 . S
O2388 Zn2385 2.028 . S
O2389 C2381 1.258 . S
O2389 Zn2383 2.035 . S
O2390 Zn2383 2.028 . S
O2390 C2393 1.247 . S
O2391 Zn2385 2.035 . S
O2391 C2393 1.258 . S
C2392 O2386 1.247 . S
C2392 O2387 1.258 . S
C2393 O2390 1.247 . S
C2393 O2391 1.258 . S
C2394 O2396 1.247 . S
C2394 O2398 1.258 . S
C2395 O2402 1.247 . S
C2395 O2403 1.258 . S
O2396 C2394 1.247 . S
O2396 Zn2397 2.028 . S
Zn2397 O2396 2.028 . S
Zn2397 O2401 2.035 . S
Zn2397 O2403 2.035 . S
Zn2397 O2404 2.028 . S
O2398 C2394 1.258 . S
O2398 Zn2399 2.035 . S
Zn2399 O2398 2.035 . S
Zn2399 O2400 2.028 . S
Zn2399 O2402 2.028 . S
Zn2399 O2405 2.035 . S
O2400 Zn2399 2.028 . S
O2400 C2406 1.247 . S
O2401 Zn2397 2.035 . S
O2401 C2406 1.258 . S
O2402 C2395 1.247 . S
O2402 Zn2399 2.028 . S
O2403 C2395 1.258 . S
O2403 Zn2397 2.035 . S
O2404 Zn2397 2.028 . S
O2404 C2407 1.247 . S
O2405 Zn2399 2.035 . S
O2405 C2407 1.258 . S
C2406 O2400 1.247 . S
C2406 O2401 1.258 . S
C2407 O2404 1.247 . S
C2407 O2405 1.258 . S
C2408 O2410 1.247 . S
C2408 O2412 1.258 . S
C2409 O2416 1.247 . S
C2409 O2417 1.258 . S
O2410 C2408 1.247 . S
O2410 Zn2411 2.028 . S
Zn2411 O2410 2.028 . S
Zn2411 O2415 2.035 . S
Zn2411 O2417 2.035 . S
Zn2411 O2418 2.028 . S
O2412 C2408 1.258 . S
O2412 Zn2413 2.035 . S
Zn2413 O2412 2.035 . S
Zn2413 O2414 2.028 . S
Zn2413 O2416 2.028 . S
Zn2413 O2419 2.035 . S
O2414 Zn2413 2.028 . S
O2414 C2420 1.247 . S
O2415 Zn2411 2.035 . S
O2415 C2420 1.258 . S
O2416 C2409 1.247 . S
O2416 Zn2413 2.028 . S
O2417 C2409 1.258 . S
O2417 Zn2411 2.035 . S
O2418 Zn2411 2.028 . S
O2418 C2421 1.247 . S
O2419 Zn2413 2.035 . S
O2419 C2421 1.258 . S
C2420 O2414 1.247 . S
C2420 O2415 1.258 . S
C2421 O2418 1.247 . S
C2421 O2419 1.258 . S
C2422 O2424 1.247 . S
C2422 O2426 1.258 . S
C2423 O2430 1.247 . S
C2423 O2431 1.258 . S
O2424 C2422 1.247 . S
O2424 Zn2425 2.028 . S
Zn2425 O2424 2.028 . S
Zn2425 O2429 2.035 . S
Zn2425 O2431 2.035 . S
Zn2425 O2432 2.028 . S
O2426 C2422 1.258 . S
O2426 Zn2427 2.035 . S
Zn2427 O2426 2.035 . S
Zn2427 O2428 2.028 . S
Zn2427 O2430 2.028 . S
Zn2427 O2433 2.035 . S
O2428 Zn2427 2.028 . S
O2428 C2434 1.247 . S
O2429 Zn2425 2.035 . S
O2429 C2434 1.258 . S
O2430 C2423 1.247 . S
O2430 Zn2427 2.028 . S
O2431 C2423 1.258 . S
O2431 Zn2425 2.035 . S
O2432 Zn2425 2.028 . S
O2432 C2435 1.247 . S
O2433 Zn2427 2.035 . S
O2433 C2435 1.258 . S
C2434 O2428 1.247 . S
C2434 O2429 1.258 . S
C2435 O2432 1.247 . S
C2435 O2433 1.258 . S
C2436 O2438 1.247 . S
C2436 O2440 1.258 . S
C2437 O2444 1.247 . S
C2437 O2445 1.258 . S
O2438 C2436 1.247 . S
O2438 Zn2439 2.028 . S
Zn2439 O2438 2.028 . S
Zn2439 O2443 2.035 . S
Zn2439 O2445 2.035 . S
Zn2439 O2446 2.028 . S
O2440 C2436 1.258 . S
O2440 Zn2441 2.035 . S
Zn2441 O2440 2.035 . S
Zn2441 O2442 2.028 . S
Zn2441 O2444 2.028 . S
Zn2441 O2447 2.035 . S
O2442 Zn2441 2.028 . S
O2442 C2448 1.247 . S
O2443 Zn2439 2.035 . S
O2443 C2448 1.258 . S
O2444 C2437 1.247 . S
O2444 Zn2441 2.028 . S
O2445 C2437 1.258 . S
O2445 Zn2439 2.035 . S
O2446 Zn2439 2.028 . S
O2446 C2449 1.247 . S
O2447 Zn2441 2.035 . S
O2447 C2449 1.258 . S
C2448 O2442 1.247 . S
C2448 O2443 1.258 . S
C2449 O2446 1.247 . S
C2449 O2447 1.258 . S
C2450 O2452 1.247 . S
C2450 O2454 1.258 . S
C2451 O2458 1.247 . S
C2451 O2459 1.258 . S
O2452 C2450 1.247 . S
O2452 Zn2453 2.028 . S
Zn2453 O2452 2.028 . S
Zn2453 O2457 2.035 . S
Zn2453 O2459 2.035 . S
Zn2453 O2460 2.028 . S
O2454 C2450 1.258 . S
O2454 Zn2455 2.035 . S
Zn2455 O2454 2.035 . S
Zn2455 O2456 2.028 . S
Zn2455 O2458 2.028 . S
Zn2455 O2461 2.035 . S
O2456 Zn2455 2.028 . S
O2456 C2462 1.247 . S
O2457 Zn2453 2.035 . S
O2457 C2462 1.258 . S
O2458 C2451 1.247 . S
O2458 Zn2455 2.028 . S
O2459 C2451 1.258 . S
O2459 Zn2453 2.035 . S
O2460 Zn2453 2.028 . S
O2460 C2463 1.247 . S
O2461 Zn2455 2.035 . S
O2461 C2463 1.258 . S
C2462 O2456 1.247 . S
C2462 O2457 1.258 . S
C2463 O2460 1.247 . S
C2463 O2461 1.258 . S
C2464 O2466 1.247 . S
C2464 O2468 1.258 . S
C2465 O2472 1.247 . S
C2465 O2473 1.258 . S
O2466 C2464 1.247 . S
O2466 Zn2467 2.028 . S
Zn2467 O2466 2.028 . S
Zn2467 O2471 2.035 . S
Zn2467 O2473 2.035 . S
Zn2467 O2474 2.028 . S
O2468 C2464 1.258 . S
O2468 Zn2469 2.035 . S
Zn2469 O2468 2.035 . S
Zn2469 O2470 2.028 . S
Zn2469 O2472 2.028 . S
Zn2469 O2475 2.035 . S
O2470 Zn2469 2.028 . S
O2470 C2476 1.247 . S
O2471 Zn2467 2.035 . S
O2471 C2476 1.258 . S
O2472 C2465 1.247 . S
O2472 Zn2469 2.028 . S
O2473 C2465 1.258 . S
O2473 Zn2467 2.035 . S
O2474 Zn2467 2.028 . S
O2474 C2477 1.247 . S
O2475 Zn2469 2.035 . S
O2475 C2477 1.258 . S
C2476 O2470 1.247 . S
C2476 O2471 1.258 . S
C2477 O2474 1.247 . S
C2477 O2475 1.258 . S
C2478 O2480 1.247 . S
C2478 O2482 1.258 . S
C2479 O2486 1.247 . S
C2479 O2487 1.258 . S
O2480 C2478 1.247 . S
O2480 Zn2481 2.028 . S
Zn2481 O2480 2.028 . S
Zn2481 O2485 2.035 . S
Zn2481 O2487 2.035 . S
Zn2481 O2488 2.028 . S
O2482 C2478 1.258 . S
O2482 Zn2483 2.035 . S
Zn2483 O2482 2.035 . S
Zn2483 O2484 2.028 . S
Zn2483 O2486 2.028 . S
Zn2483 O2489 2.035 . S
O2484 Zn2483 2.028 . S
O2484 C2490 1.247 . S
O2485 Zn2481 2.035 . S
O2485 C2490 1.258 . S
O2486 C2479 1.247 . S
O2486 Zn2483 2.028 . S
O2487 C2479 1.258 . S
O2487 Zn2481 2.035 . S
O2488 Zn2481 2.028 . S
O2488 C2491 1.247 . S
O2489 Zn2483 2.035 . S
O2489 C2491 1.258 . S
C2490 O2484 1.247 . S
C2490 O2485 1.258 . S
C2491 O2488 1.247 . S
C2491 O2489 1.258 . S
C2492 O2494 1.247 . S
C2492 O2496 1.258 . S
C2493 O2500 1.247 . S
C2493 O2501 1.258 . S
O2494 C2492 1.247 . S
O2494 Zn2495 2.028 . S
Zn2495 O2494 2.028 . S
Zn2495 O2499 2.035 . S
Zn2495 O2501 2.035 . S
Zn2495 O2502 2.028 . S
O2496 C2492 1.258 . S
O2496 Zn2497 2.035 . S
Zn2497 O2496 2.035 . S
Zn2497 O2498 2.028 . S
Zn2497 O2500 2.028 . S
Zn2497 O2503 2.035 . S
O2498 Zn2497 2.028 . S
O2498 C2504 1.247 . S
O2499 Zn2495 2.035 . S
O2499 C2504 1.258 . S
O2500 C2493 1.247 . S
O2500 Zn2497 2.028 . S
O2501 C2493 1.258 . S
O2501 Zn2495 2.035 . S
O2502 Zn2495 2.028 . S
O2502 C2505 1.247 . S
O2503 Zn2497 2.035 . S
O2503 C2505 1.258 . S
C2504 O2498 1.247 . S
C2504 O2499 1.258 . S
C2505 O2502 1.247 . S
C2505 O2503 1.258 . S
C2506 O2508 1.247 . S
C2506 O2510 1.258 . S
C2507 O2514 1.247 . S
C2507 O2515 1.258 . S
O2508 C2506 1.247 . S
O2508 Zn2509 2.028 . S
Zn2509 O2508 2.028 . S
Zn2509 O2513 2.035 . S
Zn2509 O2515 2.035 . S
Zn2509 O2516 2.028 . S
O2510 C2506 1.258 . S
O2510 Zn2511 2.035 . S
Zn2511 O2510 2.035 . S
Zn2511 O2512 2.028 . S
Zn2511 O2514 2.028 . S
Zn2511 O2517 2.035 . S
O2512 Zn2511 2.028 . S
O2512 C2518 1.247 . S
O2513 Zn2509 2.035 . S
O2513 C2518 1.258 . S
O2514 C2507 1.247 . S
O2514 Zn2511 2.028 . S
O2515 C2507 1.258 . S
O2515 Zn2509 2.035 . S
O2516 Zn2509 2.028 . S
O2516 C2519 1.247 . S
O2517 Zn2511 2.035 . S
O2517 C2519 1.258 . S
C2518 O2512 1.247 . S
C2518 O2513 1.258 . S
C2519 O2516 1.247 . S
C2519 O2517 1.258 . S
C2520 O2522 1.247 . S
C2520 O2524 1.258 . S
C2521 O2528 1.247 . S
C2521 O2529 1.258 . S
O2522 C2520 1.247 . S
O2522 Zn2523 2.028 . S
Zn2523 O2522 2.028 . S
Zn2523 O2527 2.035 . S
Zn2523 O2529 2.035 . S
Zn2523 O2530 2.028 . S
O2524 C2520 1.258 . S
O2524 Zn2525 2.035 . S
Zn2525 O2524 2.035 . S
Zn2525 O2526 2.028 . S
Zn2525 O2528 2.028 . S
Zn2525 O2531 2.035 . S
O2526 Zn2525 2.028 . S
O2526 C2532 1.247 . S
O2527 Zn2523 2.035 . S
O2527 C2532 1.258 . S
O2528 C2521 1.247 . S
O2528 Zn2525 2.028 . S
O2529 C2521 1.258 . S
O2529 Zn2523 2.035 . S
O2530 Zn2523 2.028 . S
O2530 C2533 1.247 . S
O2531 Zn2525 2.035 . S
O2531 C2533 1.258 . S
C2532 O2526 1.247 . S
C2532 O2527 1.258 . S
C2533 O2530 1.247 . S
C2533 O2531 1.258 . S
C2534 O2536 1.247 . S
C2534 O2538 1.258 . S
C2535 O2542 1.247 . S
C2535 O2543 1.258 . S
O2536 C2534 1.247 . S
O2536 Zn2537 2.028 . S
Zn2537 O2536 2.028 . S
Zn2537 O2541 2.035 . S
Zn2537 O2543 2.035 . S
Zn2537 O2544 2.028 . S
O2538 C2534 1.258 . S
O2538 Zn2539 2.035 . S
Zn2539 O2538 2.035 . S
Zn2539 O2540 2.028 . S
Zn2539 O2542 2.028 . S
Zn2539 O2545 2.035 . S
O2540 Zn2539 2.028 . S
O2540 C2546 1.247 . S
O2541 Zn2537 2.035 . S
O2541 C2546 1.258 . S
O2542 C2535 1.247 . S
O2542 Zn2539 2.028 . S
O2543 C2535 1.258 . S
O2543 Zn2537 2.035 . S
O2544 Zn2537 2.028 . S
O2544 C2547 1.247 . S
O2545 Zn2539 2.035 . S
O2545 C2547 1.258 . S
C2546 O2540 1.247 . S
C2546 O2541 1.258 . S
C2547 O2544 1.247 . S
C2547 O2545 1.258 . S
C2548 O2550 1.247 . S
C2548 O2552 1.258 . S
C2549 O2556 1.247 . S
C2549 O2557 1.258 . S
O2550 C2548 1.247 . S
O2550 Zn2551 2.028 . S
Zn2551 O2550 2.028 . S
Zn2551 O2555 2.035 . S
Zn2551 O2557 2.035 . S
Zn2551 O2558 2.028 . S
O2552 C2548 1.258 . S
O2552 Zn2553 2.035 . S
Zn2553 O2552 2.035 . S
Zn2553 O2554 2.028 . S
Zn2553 O2556 2.028 . S
Zn2553 O2559 2.035 . S
O2554 Zn2553 2.028 . S
O2554 C2560 1.247 . S
O2555 Zn2551 2.035 . S
O2555 C2560 1.258 . S
O2556 C2549 1.247 . S
O2556 Zn2553 2.028 . S
O2557 C2549 1.258 . S
O2557 Zn2551 2.035 . S
O2558 Zn2551 2.028 . S
O2558 C2561 1.247 . S
O2559 Zn2553 2.035 . S
O2559 C2561 1.258 . S
C2560 O2554 1.247 . S
C2560 O2555 1.258 . S
C2561 O2558 1.247 . S
C2561 O2559 1.258 . S
C2562 O2564 1.247 . S
C2562 O2566 1.258 . S
C2563 O2570 1.247 . S
C2563 O2571 1.258 . S
O2564 C2562 1.247 . S
O2564 Zn2565 2.028 . S
Zn2565 O2564 2.028 . S
Zn2565 O2569 2.035 . S
Zn2565 O2571 2.035 . S
Zn2565 O2572 2.028 . S
O2566 C2562 1.258 . S
O2566 Zn2567 2.035 . S
Zn2567 O2566 2.035 . S
Zn2567 O2568 2.028 . S
Zn2567 O2570 2.028 . S
Zn2567 O2573 2.035 . S
O2568 Zn2567 2.028 . S
O2568 C2574 1.247 . S
O2569 Zn2565 2.035 . S
O2569 C2574 1.258 . S
O2570 C2563 1.247 . S
O2570 Zn2567 2.028 . S
O2571 C2563 1.258 . S
O2571 Zn2565 2.035 . S
O2572 Zn2565 2.028 . S
O2572 C2575 1.247 . S
O2573 Zn2567 2.035 . S
O2573 C2575 1.258 . S
C2574 O2568 1.247 . S
C2574 O2569 1.258 . S
C2575 O2572 1.247 . S
C2575 O2573 1.258 . S
C2576 O2578 1.247 . S
C2576 O2580 1.258 . S
C2577 O2584 1.247 . S
C2577 O2585 1.258 . S
O2578 C2576 1.247 . S
O2578 Zn2579 2.028 . S
Zn2579 O2578 2.028 . S
Zn2579 O2583 2.035 . S
Zn2579 O2585 2.035 . S
Zn2579 O2586 2.028 . S
O2580 C2576 1.258 . S
O2580 Zn2581 2.035 . S
Zn2581 O2580 2.035 . S
Zn2581 O2582 2.028 . S
Zn2581 O2584 2.028 . S
Zn2581 O2587 2.035 . S
O2582 Zn2581 2.028 . S
O2582 C2588 1.247 . S
O2583 Zn2579 2.035 . S
O2583 C2588 1.258 . S
O2584 C2577 1.247 . S
O2584 Zn2581 2.028 . S
O2585 C2577 1.258 . S
O2585 Zn2579 2.035 . S
O2586 Zn2579 2.028 . S
O2586 C2589 1.247 . S
O2587 Zn2581 2.035 . S
O2587 C2589 1.258 . S
C2588 O2582 1.247 . S
C2588 O2583 1.258 . S
C2589 O2586 1.247 . S
C2589 O2587 1.258 . S
C2590 O2592 1.247 . S
C2590 O2594 1.258 . S
C2591 O2598 1.247 . S
C2591 O2599 1.258 . S
O2592 C2590 1.247 . S
O2592 Zn2593 2.028 . S
Zn2593 O2592 2.028 . S
Zn2593 O2597 2.035 . S
Zn2593 O2599 2.035 . S
Zn2593 O2600 2.028 . S
O2594 C2590 1.258 . S
O2594 Zn2595 2.035 . S
Zn2595 O2594 2.035 . S
Zn2595 O2596 2.028 . S
Zn2595 O2598 2.028 . S
Zn2595 O2601 2.035 . S
O2596 Zn2595 2.028 . S
O2596 C2602 1.247 . S
O2597 Zn2593 2.035 . S
O2597 C2602 1.258 . S
O2598 C2591 1.247 . S
O2598 Zn2595 2.028 . S
O2599 C2591 1.258 . S
O2599 Zn2593 2.035 . S
O2600 Zn2593 2.028 . S
O2600 C2603 1.247 . S
O2601 Zn2595 2.035 . S
O2601 C2603 1.258 . S
C2602 O2596 1.247 . S
C2602 O2597 1.258 . S
C2603 O2600 1.247 . S
C2603 O2601 1.258 . S
C2604 O2606 1.247 . S
C2604 O2608 1.258 . S
C2605 O2612 1.247 . S
C2605 O2613 1.258 . S
O2606 C2604 1.247 . S
O2606 Zn2607 2.028 . S
Zn2607 O2606 2.028 . S
Zn2607 O2611 2.035 . S
Zn2607 O2613 2.035 . S
Zn2607 O2614 2.028 . S
O2608 C2604 1.258 . S
O2608 Zn2609 2.035 . S
Zn2609 O2608 2.035 . S
Zn2609 O2610 2.028 . S
Zn2609 O2612 2.028 . S
Zn2609 O2615 2.035 . S
O2610 Zn2609 2.028 . S
O2610 C2616 1.247 . S
O2611 Zn2607 2.035 . S
O2611 C2616 1.258 . S
O2612 C2605 1.247 . S
O2612 Zn2609 2.028 . S
O2613 C2605 1.258 . S
O2613 Zn2607 2.035 . S
O2614 Zn2607 2.028 . S
O2614 C2617 1.247 . S
O2615 Zn2609 2.035 . S
O2615 C2617 1.258 . S
C2616 O2610 1.247 . S
C2616 O2611 1.258 . S
C2617 O2614 1.247 . S
C2617 O2615 1.258 . S
C2618 O2620 1.247 . S
C2618 O2622 1.258 . S
C2619 O2626 1.247 . S
C2619 O2627 1.258 . S
O2620 C2618 1.247 . S
O2620 Zn2621 2.028 . S
Zn2621 O2620 2.028 . S
Zn2621 O2625 2.035 . S
Zn2621 O2627 2.035 . S
Zn2621 O2628 2.028 . S
O2622 C2618 1.258 . S
O2622 Zn2623 2.035 . S
Zn2623 O2622 2.035 . S
Zn2623 O2624 2.028 . S
Zn2623 O2626 2.028 . S
Zn2623 O2629 2.035 . S
O2624 Zn2623 2.028 . S
O2624 C2630 1.247 . S
O2625 Zn2621 2.035 . S
O2625 C2630 1.258 . S
O2626 C2619 1.247 . S
O2626 Zn2623 2.028 . S
O2627 C2619 1.258 . S
O2627 Zn2621 2.035 . S
O2628 Zn2621 2.028 . S
O2628 C2631 1.247 . S
O2629 Zn2623 2.035 . S
O2629 C2631 1.258 . S
C2630 O2624 1.247 . S
C2630 O2625 1.258 . S
C2631 O2628 1.247 . S
C2631 O2629 1.258 . S
C2632 O2634 1.247 . S
C2632 O2636 1.258 . S
C2633 O2640 1.247 . S
C2633 O2641 1.258 . S
O2634 C2632 1.247 . S
O2634 Zn2635 2.028 . S
Zn2635 O2634 2.028 . S
Zn2635 O2639 2.035 . S
Zn2635 O2641 2.035 . S
Zn2635 O2642 2.028 . S
O2636 C2632 1.258 . S
O2636 Zn2637 2.035 . S
Zn2637 O2636 2.035 . S
Zn2637 O2638 2.028 . S
Zn2637 O2640 2.028 . S
Zn2637 O2643 2.035 . S
O2638 Zn2637 2.028 . S
O2638 C2644 1.247 . S
O2639 Zn2635 2.035 . S
O2639 C2644 1.258 . S
O2640 C2633 1.247 . S
O2640 Zn2637 2.028 . S
O2641 C2633 1.258 . S
O2641 Zn2635 2.035 . S
O2642 Zn2635 2.028 . S
O2642 C2645 1.247 . S
O2643 Zn2637 2.035 . S
O2643 C2645 1.258 . S
C2644 O2638 1.247 . S
C2644 O2639 1.258 . S
C2645 O2642 1.247 . S
C2645 O2643 1.258 . S
C2646 O2648 1.247 . S
C2646 O2650 1.258 . S
C2647 O2654 1.247 . S
C2647 O2655 1.258 . S
O2648 C2646 1.247 . S
O2648 Zn2649 2.028 . S
Zn2649 O2648 2.028 . S
Zn2649 O2653 2.035 . S
Zn2649 O2655 2.035 . S
Zn2649 O2656 2.028 . S
O2650 C2646 1.258 . S
O2650 Zn2651 2.035 . S
Zn2651 O2650 2.035 . S
Zn2651 O2652 2.028 . S
Zn2651 O2654 2.028 . S
Zn2651 O2657 2.035 . S
O2652 Zn2651 2.028 . S
O2652 C2658 1.247 . S
O2653 Zn2649 2.035 . S
O2653 C2658 1.258 . S
O2654 C2647 1.247 . S
O2654 Zn2651 2.028 . S
O2655 C2647 1.258 . S
O2655 Zn2649 2.035 . S
O2656 Zn2649 2.028 . S
O2656 C2659 1.247 . S
O2657 Zn2651 2.035 . S
O2657 C2659 1.258 . S
C2658 O2652 1.247 . S
C2658 O2653 1.258 . S
C2659 O2656 1.247 . S
C2659 O2657 1.258 . S
C2660 O2662 1.247 . S
C2660 O2664 1.258 . S
C2661 O2668 1.247 . S
C2661 O2669 1.258 . S
O2662 C2660 1.247 . S
O2662 Zn2663 2.028 . S
Zn2663 O2662 2.028 . S
Zn2663 O2667 2.035 . S
Zn2663 O2669 2.035 . S
Zn2663 O2670 2.028 . S
O2664 C2660 1.258 . S
O2664 Zn2665 2.035 . S
Zn2665 O2664 2.035 . S
Zn2665 O2666 2.028 . S
Zn2665 O2668 2.028 . S
Zn2665 O2671 2.035 . S
O2666 Zn2665 2.028 . S
O2666 C2672 1.247 . S
O2667 Zn2663 2.035 . S
O2667 C2672 1.258 . S
O2668 C2661 1.247 . S
O2668 Zn2665 2.028 . S
O2669 C2661 1.258 . S
O2669 Zn2663 2.035 . S
O2670 Zn2663 2.028 . S
O2670 C2673 1.247 . S
O2671 Zn2665 2.035 . S
O2671 C2673 1.258 . S
C2672 O2666 1.247 . S
C2672 O2667 1.258 . S
C2673 O2670 1.247 . S
C2673 O2671 1.258 . S
C2674 O2676 1.247 . S
C2674 O2678 1.258 . S
C2675 O2682 1.247 . S
C2675 O2683 1.258 . S
O2676 C2674 1.247 . S
O2676 Zn2677 2.028 . S
Zn2677 O2676 2.028 . S
Zn2677 O2681 2.035 . S
Zn2677 O2683 2.035 . S
Zn2677 O2684 2.028 . S
O2678 C2674 1.258 . S
O2678 Zn2679 2.035 . S
Zn2679 O2678 2.035 . S
Zn2679 O2680 2.028 . S
Zn2679 O2682 2.028 . S
Zn2679 O2685 2.035 . S
O2680 Zn2679 2.028 . S
O2680 C2686 1.247 . S
O2681 Zn2677 2.035 . S
O2681 C2686 1.258 . S
O2682 C2675 1.247 . S
O2682 Zn2679 2.028 . S
O2683 C2675 1.258 . S
O2683 Zn2677 2.035 . S
O2684 Zn2677 2.028 . S
O2684 C2687 1.247 . S
O2685 Zn2679 2.035 . S
O2685 C2687 1.258 . S
C2686 O2680 1.247 . S
C2686 O2681 1.258 . S
C2687 O2684 1.247 . S
C2687 O2685 1.258 . S
C2688 C2689 1.387 . S
C2688 H2692 0.950 . S
C2688 C2697 1.390 1_455 S
C2689 C2688 1.387 . S
C2689 C2691 1.387 . S
H2690 C2697 0.950 . S
C2691 C2689 1.387 . S
C2691 C2693 1.390 1_455 S
C2691 H2695 0.950 . S
H2692 C2688 0.950 . S
C2693 C2691 1.390 1_655 S
C2693 C2694 1.387 . S
C2693 H2696 0.950 . S
C2694 C2693 1.387 . S
C2694 C2697 1.387 . S
H2695 C2691 0.950 . S
H2696 C2693 0.950 . S
C2697 C2688 1.390 1_655 S
C2697 H2690 0.950 . S
C2697 C2694 1.387 . S
C2698 C2699 1.387 . S
C2698 H2702 0.950 . S
C2698 C2707 1.390 1_545 S
C2699 C2698 1.387 . S
C2699 C2701 1.387 . S
H2700 C2707 0.950 . S
C2701 C2699 1.387 . S
C2701 C2703 1.390 1_545 S
C2701 H2705 0.950 . S
H2702 C2698 0.950 . S
C2703 C2701 1.390 1_565 S
C2703 C2704 1.387 . S
C2703 H2706 0.950 . S
C2704 C2703 1.387 . S
C2704 C2707 1.387 . S
H2705 C2701 0.950 . S
H2706 C2703 0.950 . S
C2707 C2698 1.390 1_565 S
C2707 H2700 0.950 . S
C2707 C2704 1.387 . S
C2708 C2709 1.387 . S
C2708 H2712 0.950 . S
C2708 C2717 1.390 . S
C2709 C2708 1.387 . S
C2709 C2711 1.387 . S
H2710 C2717 0.950 . S
C2711 C2709 1.387 . S
C2711 C2713 1.390 . S
C2711 H2715 0.950 . S
H2712 C2708 0.950 . S
C2713 C2711 1.390 . S
C2713 C2714 1.387 . S
C2713 H2716 0.950 . S
C2714 C2713 1.387 . S
C2714 C2717 1.387 . S
H2715 C2711 0.950 . S
H2716 C2713 0.950 . S
C2717 C2708 1.390 . S
C2717 H2710 0.950 . S
C2717 C2714 1.387 . S
C2718 C2719 1.387 . S
C2718 H2722 0.950 . S
C2718 C2727 1.390 . S
C2719 C2718 1.387 . S
C2719 C2721 1.387 . S
H2720 C2727 0.950 . S
C2721 C2719 1.387 . S
C2721 C2723 1.390 . S
C2721 H2725 0.950 . S
H2722 C2718 0.950 . S
C2723 C2721 1.390 . S
C2723 C2724 1.387 . S
C2723 H2726 0.950 . S
C2724 C2723 1.387 . S
C2724 C2727 1.387 . S
H2725 C2721 0.950 . S
H2726 C2723 0.950 . S
C2727 C2718 1.390 . S
C2727 H2720 0.950 . S
C2727 C2724 1.387 . S
C2728 C2729 1.387 . S
C2728 H2732 0.950 . S
C2728 C2737 1.390 1_455 S
C2729 C2728 1.387 . S
C2729 C2731 1.387 . S
H2730 C2737 0.950 . S
C2731 C2729 1.387 . S
C2731 C2733 1.390 1_455 S
C2731 H2735 0.950 . S
H2732 C2728 0.950 . S
C2733 C2731 1.390 1_655 S
C2733 C2734 1.387 . S
C2733 H2736 0.950 . S
C2734 C2733 1.387 . S
C2734 C2737 1.387 . S
H2735 C2731 0.950 . S
H2736 C2733 0.950 . S
C2737 C2728 1.390 1_655 S
C2737 H2730 0.950 . S
C2737 C2734 1.387 . S
C2738 C2739 1.387 . S
C2738 H2742 0.950 . S
C2738 C2747 1.390 1_545 S
C2739 C2738 1.387 . S
C2739 C2741 1.387 . S
H2740 C2747 0.950 . S
C2741 C2739 1.387 . S
C2741 C2743 1.390 1_545 S
C2741 H2745 0.950 . S
H2742 C2738 0.950 . S
C2743 C2741 1.390 1_565 S
C2743 C2744 1.387 . S
C2743 H2746 0.950 . S
C2744 C2743 1.387 . S
C2744 C2747 1.387 . S
H2745 C2741 0.950 . S
H2746 C2743 0.950 . S
C2747 C2738 1.390 1_565 S
C2747 H2740 0.950 . S
C2747 C2744 1.387 . S
C2748 C2749 1.387 . S
C2748 H2752 0.950 . S
C2748 C2757 1.390 . S
C2749 C2748 1.387 . S
C2749 C2751 1.387 . S
H2750 C2757 0.950 . S
C2751 C2749 1.387 . S
C2751 C2753 1.390 . S
C2751 H2755 0.950 . S
H2752 C2748 0.950 . S
C2753 C2751 1.390 . S
C2753 C2754 1.387 . S
C2753 H2756 0.950 . S
C2754 C2753 1.387 . S
C2754 C2757 1.387 . S
H2755 C2751 0.950 . S
H2756 C2753 0.950 . S
C2757 C2748 1.390 . S
C2757 H2750 0.950 . S
C2757 C2754 1.387 . S
C2758 C2759 1.387 . S
C2758 H2762 0.950 . S
C2758 C2767 1.390 . S
C2759 C2758 1.387 . S
C2759 C2761 1.387 . S
H2760 C2767 0.950 . S
C2761 C2759 1.387 . S
C2761 C2763 1.390 . S
C2761 H2765 0.950 . S
H2762 C2758 0.950 . S
C2763 C2761 1.390 . S
C2763 C2764 1.387 . S
C2763 H2766 0.950 . S
C2764 C2763 1.387 . S
C2764 C2767 1.387 . S
H2765 C2761 0.950 . S
H2766 C2763 0.950 . S
C2767 C2758 1.390 . S
C2767 H2760 0.950 . S
C2767 C2764 1.387 . S
C2768 C2769 1.387 . S
C2768 H2772 0.950 . S
C2768 C2777 1.390 1_545 S
C2769 C2768 1.387 . S
C2769 C2771 1.387 . S
H2770 C2777 0.950 . S
C2771 C2769 1.387 . S
C2771 C2773 1.390 1_545 S
C2771 H2775 0.950 . S
H2772 C2768 0.950 . S
C2773 C2771 1.390 1_565 S
C2773 C2774 1.387 . S
C2773 H2776 0.950 . S
C2774 C2773 1.387 . S
C2774 C2777 1.387 . S
H2775 C2771 0.950 . S
H2776 C2773 0.950 . S
C2777 C2768 1.390 1_565 S
C2777 H2770 0.950 . S
C2777 C2774 1.387 . S
C2778 C2779 1.387 . S
C2778 H2782 0.950 . S
C2778 C2787 1.390 . S
C2779 C2778 1.387 . S
C2779 C2781 1.387 . S
H2780 C2787 0.950 . S
C2781 C2779 1.387 . S
C2781 C2783 1.390 . S
C2781 H2785 0.950 . S
H2782 C2778 0.950 . S
C2783 C2781 1.390 . S
C2783 C2784 1.387 . S
C2783 H2786 0.950 . S
C2784 C2783 1.387 . S
C2784 C2787 1.387 . S
H2785 C2781 0.950 . S
H2786 C2783 0.950 . S
C2787 C2778 1.390 . S
C2787 H2780 0.950 . S
C2787 C2784 1.387 . S
C2788 C2789 1.387 . S
C2788 H2792 0.950 . S
C2788 C2797 1.390 . S
C2789 C2788 1.387 . S
C2789 C2791 1.387 . S
H2790 C2797 0.950 . S
C2791 C2789 1.387 . S
C2791 C2793 1.390 . S
C2791 H2795 0.950 . S
H2792 C2788 0.950 . S
C2793 C2791 1.390 . S
C2793 C2794 1.387 . S
C2793 H2796 0.950 . S
C2794 C2793 1.387 . S
C2794 C2797 1.387 . S
H2795 C2791 0.950 . S
H2796 C2793 0.950 . S
C2797 C2788 1.390 . S
C2797 H2790 0.950 . S
C2797 C2794 1.387 . S
C2798 C2799 1.387 . S
C2798 H2802 0.950 . S
C2798 C2807 1.390 1_455 S
C2799 C2798 1.387 . S
C2799 C2801 1.387 . S
H2800 C2807 0.950 . S
C2801 C2799 1.387 . S
C2801 C2803 1.390 1_455 S
C2801 H2805 0.950 . S
H2802 C2798 0.950 . S
C2803 C2801 1.390 1_655 S
C2803 C2804 1.387 . S
C2803 H2806 0.950 . S
C2804 C2803 1.387 . S
C2804 C2807 1.387 . S
H2805 C2801 0.950 . S
H2806 C2803 0.950 . S
C2807 C2798 1.390 1_655 S
C2807 H2800 0.950 . S
C2807 C2804 1.387 . S
C2808 C2809 1.387 . S
C2808 H2812 0.950 . S
C2808 C2817 1.390 1_545 S
C2809 C2808 1.387 . S
C2809 C2811 1.387 . S
H2810 C2817 0.950 . S
C2811 C2809 1.387 . S
C2811 C2813 1.390 1_545 S
C2811 H2815 0.950 . S
H2812 C2808 0.950 . S
C2813 C2811 1.390 1_565 S
C2813 C2814 1.387 . S
C2813 H2816 0.950 . S
C2814 C2813 1.387 . S
C2814 C2817 1.387 . S
H2815 C2811 0.950 . S
H2816 C2813 0.950 . S
C2817 C2808 1.390 1_565 S
C2817 H2810 0.950 . S
C2817 C2814 1.387 . S
C2818 C2819 1.387 . S
C2818 H2822 0.950 . S
C2818 C2827 1.390 . S
C2819 C2818 1.387 . S
C2819 C2821 1.387 . S
H2820 C2827 0.950 . S
C2821 C2819 1.387 . S
C2821 C2823 1.390 . S
C2821 H2825 0.950 . S
H2822 C2818 0.950 . S
C2823 C2821 1.390 . S
C2823 C2824 1.387 . S
C2823 H2826 0.950 . S
C2824 C2823 1.387 . S
C2824 C2827 1.387 . S
H2825 C2821 0.950 . S
H2826 C2823 0.950 . S
C2827 C2818 1.390 . S
C2827 H2820 0.950 . S
C2827 C2824 1.387 . S
C2828 C2829 1.387 . S
C2828 H2832 0.950 . S
C2828 C2837 1.390 . S
C2829 C2828 1.387 . S
C2829 C2831 1.387 . S
H2830 C2837 0.950 . S
C2831 C2829 1.387 . S
C2831 C2833 1.390 . S
C2831 H2835 0.950 . S
H2832 C2828 0.950 . S
C2833 C2831 1.390 . S
C2833 C2834 1.387 . S
C2833 H2836 0.950 . S
C2834 C2833 1.387 . S
C2834 C2837 1.387 . S
H2835 C2831 0.950 . S
H2836 C2833 0.950 . S
C2837 C2828 1.390 . S
C2837 H2830 0.950 . S
C2837 C2834 1.387 . S
C2838 C2839 1.387 . S
C2838 H2842 0.950 . S
C2838 C2847 1.390 1_655 S
C2839 C2838 1.387 . S
C2839 C2841 1.387 . S
H2840 C2847 0.950 . S
C2841 C2839 1.387 . S
C2841 C2843 1.390 1_655 S
C2841 H2845 0.950 . S
H2842 C2838 0.950 . S
C2843 C2841 1.390 1_455 S
C2843 C2844 1.387 . S
C2843 H2846 0.950 . S
C2844 C2843 1.387 . S
C2844 C2847 1.387 . S
H2845 C2841 0.950 . S
H2846 C2843 0.950 . S
C2847 C2838 1.390 1_455 S
C2847 H2840 0.950 . S
C2847 C2844 1.387 . S
C2848 C2849 1.387 . S
C2848 H2852 0.950 . S
C2848 C2857 1.390 1_554 S
C2849 C2848 1.387 . S
C2849 C2851 1.387 . S
H2850 C2857 0.950 . S
C2851 C2849 1.387 . S
C2851 C2853 1.390 1_554 S
C2851 H2855 0.950 . S
H2852 C2848 0.950 . S
C2853 C2851 1.390 1_556 S
C2853 C2854 1.387 . S
C2853 H2856 0.950 . S
C2854 C2853 1.387 . S
C2854 C2857 1.387 . S
H2855 C2851 0.950 . S
H2856 C2853 0.950 . S
C2857 C2848 1.390 1_556 S
C2857 H2850 0.950 . S
C2857 C2854 1.387 . S
C2858 C2859 1.387 . S
C2858 H2862 0.950 . S
C2858 C2867 1.390 . S
C2859 C2858 1.387 . S
C2859 C2861 1.387 . S
H2860 C2867 0.950 . S
C2861 C2859 1.387 . S
C2861 C2863 1.390 . S
C2861 H2865 0.950 . S
H2862 C2858 0.950 . S
C2863 C2861 1.390 . S
C2863 C2864 1.387 . S
C2863 H2866 0.950 . S
C2864 C2863 1.387 . S
C2864 C2867 1.387 . S
H2865 C2861 0.950 . S
H2866 C2863 0.950 . S
C2867 C2858 1.390 . S
C2867 H2860 0.950 . S
C2867 C2864 1.387 . S
C2868 C2869 1.387 . S
C2868 H2872 0.950 . S
C2868 C2877 1.390 . S
C2869 C2868 1.387 . S
C2869 C2871 1.387 . S
H2870 C2877 0.950 . S
C2871 C2869 1.387 . S
C2871 C2873 1.390 . S
C2871 H2875 0.950 . S
H2872 C2868 0.950 . S
C2873 C2871 1.390 . S
C2873 C2874 1.387 . S
C2873 H2876 0.950 . S
C2874 C2873 1.387 . S
C2874 C2877 1.387 . S
H2875 C2871 0.950 . S
H2876 C2873 0.950 . S
C2877 C2868 1.390 . S
C2877 H2870 0.950 . S
C2877 C2874 1.387 . S
C2878 C2879 1.387 . S
C2878 H2882 0.950 . S
C2878 C2887 1.390 . S
C2879 C2878 1.387 . S
C2879 C2881 1.387 . S
H2880 C2887 0.950 . S
C2881 C2879 1.387 . S
C2881 C2883 1.390 . S
C2881 H2885 0.950 . S
H2882 C2878 0.950 . S
C2883 C2881 1.390 . S
C2883 C2884 1.387 . S
C2883 H2886 0.950 . S
C2884 C2883 1.387 . S
C2884 C2887 1.387 . S
H2885 C2881 0.950 . S
H2886 C2883 0.950 . S
C2887 C2878 1.390 . S
C2887 H2880 0.950 . S
C2887 C2884 1.387 . S
C2888 C2889 1.387 . S
C2888 H2892 0.950 . S
C2888 C2897 1.390 1_556 S
C2889 C2888 1.387 . S
C2889 C2891 1.387 . S
H2890 C2897 0.950 . S
C2891 C2889 1.387 . S
C2891 C2893 1.390 1_556 S
C2891 H2895 0.950 . S
H2892 C2888 0.950 . S
C2893 C2891 1.390 1_554 S
C2893 C2894 1.387 . S
C2893 H2896 0.950 . S
C2894 C2893 1.387 . S
C2894 C2897 1.387 . S
H2895 C2891 0.950 . S
H2896 C2893 0.950 . S
C2897 C2888 1.390 1_554 S
C2897 H2890 0.950 . S
C2897 C2894 1.387 . S
C2898 C2899 1.387 . S
C2898 H2902 0.950 . S
C2898 C2907 1.390 1_556 S
C2899 C2898 1.387 . S
C2899 C2901 1.387 . S
H2900 C2907 0.950 . S
C2901 C2899 1.387 . S
C2901 C2903 1.390 1_556 S
C2901 H2905 0.950 . S
H2902 C2898 0.950 . S
C2903 C2901 1.390 1_554 S
C2903 C2904 1.387 . S
C2903 H2906 0.950 . S
C2904 C2903 1.387 . S
C2904 C2907 1.387 . S
H2905 C2901 0.950 . S
H2906 C2903 0.950 . S
C2907 C2898 1.390 1_554 S
C2907 H2900 0.950 . S
C2907 C2904 1.387 . S
C2908 C2909 1.387 . S
C2908 H2912 0.950 . S
C2908 C2917 1.390 . S
C2909 C2908 1.387 . S
C2909 C2911 1.387 . S
H2910 C2917 0.950 . S
C2911 C2909 1.387 . S
C2911 C2913 1.390 . S
C2911 H2915 0.950 . S
H2912 C2908 0.950 . S
C2913 C2911 1.390 . S
C2913 C2914 1.387 . S
C2913 H2916 0.950 . S
C2914 C2913 1.387 . S
C2914 C2917 1.387 . S
H2915 C2911 0.950 . S
H2916 C2913 0.950 . S
C2917 C2908 1.390 . S
C2917 H2910 0.950 . S
C2917 C2914 1.387 . S
C2918 C2919 1.387 . S
C2918 H2922 0.950 . S
C2918 C2927 1.390 . S
C2919 C2918 1.387 . S
C2919 C2921 1.387 . S
H2920 C2927 0.950 . S
C2921 C2919 1.387 . S
C2921 C2923 1.390 . S
C2921 H2925 0.950 . S
H2922 C2918 0.950 . S
C2923 C2921 1.390 . S
C2923 C2924 1.387 . S
C2923 H2926 0.950 . S
C2924 C2923 1.387 . S
C2924 C2927 1.387 . S
H2925 C2921 0.950 . S
H2926 C2923 0.950 . S
C2927 C2918 1.390 . S
C2927 H2920 0.950 . S
C2927 C2924 1.387 . S
C2928 C2929 1.387 . S
C2928 H2932 0.950 . S
C2928 C2937 1.390 1_545 S
C2929 C2928 1.387 . S
C2929 C2931 1.387 . S
H2930 C2937 0.950 . S
C2931 C2929 1.387 . S
C2931 C2933 1.390 1_545 S
C2931 H2935 0.950 . S
H2932 C2928 0.950 . S
C2933 C2931 1.390 1_565 S
C2933 C2934 1.387 . S
C2933 H2936 0.950 . S
C2934 C2933 1.387 . S
C2934 C2937 1.387 . S
H2935 C2931 0.950 . S
H2936 C2933 0.950 . S
C2937 C2928 1.390 1_565 S
C2937 H2930 0.950 . S
C2937 C2934 1.387 . S
C2938 C2939 1.387 . S
C2938 H2942 0.950 . S
C2938 C2947 1.390 . S
C2939 C2938 1.387 . S
C2939 C2941 1.387 . S
H2940 C2947 0.950 . S
C2941 C2939 1.387 . S
C2941 C2943 1.390 . S
C2941 H2945 0.950 . S
H2942 C2938 0.950 . S
C2943 C2941 1.390 . S
C2943 C2944 1.387 . S
C2943 H2946 0.950 . S
C2944 C2943 1.387 . S
C2944 C2947 1.387 . S
H2945 C2941 0.950 . S
H2946 C2943 0.950 . S
C2947 C2938 1.390 . S
C2947 H2940 0.950 . S
C2947 C2944 1.387 . S
C2948 C2949 1.387 . S
C2948 H2952 0.950 . S
C2948 C2957 1.390 . S
C2949 C2948 1.387 . S
C2949 C2951 1.387 . S
H2950 C2957 0.950 . S
C2951 C2949 1.387 . S
C2951 C2953 1.390 . S
C2951 H2955 0.950 . S
H2952 C2948 0.950 . S
C2953 C2951 1.390 . S
C2953 C2954 1.387 . S
C2953 H2956 0.950 . S
C2954 C2953 1.387 . S
C2954 C2957 1.387 . S
H2955 C2951 0.950 . S
H2956 C2953 0.950 . S
C2957 C2948 1.390 . S
C2957 H2950 0.950 . S
C2957 C2954 1.387 . S
C2958 C2959 1.387 . S
C2958 H2962 0.950 . S
C2958 C2967 1.390 1_455 S
C2959 C2958 1.387 . S
C2959 C2961 1.387 . S
H2960 C2967 0.950 . S
C2961 C2959 1.387 . S
C2961 C2963 1.390 1_455 S
C2961 H2965 0.950 . S
H2962 C2958 0.950 . S
C2963 C2961 1.390 1_655 S
C2963 C2964 1.387 . S
C2963 H2966 0.950 . S
C2964 C2963 1.387 . S
C2964 C2967 1.387 . S
H2965 C2961 0.950 . S
H2966 C2963 0.950 . S
C2967 C2958 1.390 1_655 S
C2967 H2960 0.950 . S
C2967 C2964 1.387 . S
C2968 C2969 1.387 . S
C2968 H2972 0.950 . S
C2968 C2977 1.390 1_545 S
C2969 C2968 1.387 . S
C2969 C2971 1.387 . S
H2970 C2977 0.950 . S
C2971 C2969 1.387 . S
C2971 C2973 1.390 1_545 S
C2971 H2975 0.950 . S
H2972 C2968 0.950 . S
C2973 C2971 1.390 1_565 S
C2973 C2974 1.387 . S
C2973 H2976 0.950 . S
C2974 C2973 1.387 . S
C2974 C2977 1.387 . S
H2975 C2971 0.950 . S
H2976 C2973 0.950 . S
C2977 C2968 1.390 1_565 S
C2977 H2970 0.950 . S
C2977 C2974 1.387 . S
C2978 C2979 1.387 . S
C2978 H2982 0.950 . S
C2978 C2987 1.390 . S
C2979 C2978 1.387 . S
C2979 C2981 1.387 . S
H2980 C2987 0.950 . S
C2981 C2979 1.387 . S
C2981 C2983 1.390 . S
C2981 H2985 0.950 . S
H2982 C2978 0.950 . S
C2983 C2981 1.390 . S
C2983 C2984 1.387 . S
C2983 H2986 0.950 . S
C2984 C2983 1.387 . S
C2984 C2987 1.387 . S
H2985 C2981 0.950 . S
H2986 C2983 0.950 . S
C2987 C2978 1.390 . S
C2987 H2980 0.950 . S
C2987 C2984 1.387 . S
C2988 C2989 1.387 . S
C2988 H2992 0.950 . S
C2988 C2997 1.390 . S
C2989 C2988 1.387 . S
C2989 C2991 1.387 . S
H2990 C2997 0.950 . S
C2991 C2989 1.387 . S
C2991 C2993 1.390 . S
C2991 H2995 0.950 . S
H2992 C2988 0.950 . S
C2993 C2991 1.390 . S
C2993 C2994 1.387 . S
C2993 H2996 0.950 . S
C2994 C2993 1.387 . S
C2994 C2997 1.387 . S
H2995 C2991 0.950 . S
H2996 C2993 0.950 . S
C2997 C2988 1.390 . S
C2997 H2990 0.950 . S
C2997 C2994 1.387 . S
C2998 C2999 1.387 . S
C2998 H3002 0.950 . S
C2998 C3007 1.390 1_655 S
C2999 C2998 1.387 . S
C2999 C3001 1.387 . S
H3000 C3007 0.950 . S
C3001 C2999 1.387 . S
C3001 C3003 1.390 1_655 S
C3001 H3005 0.950 . S
H3002 C2998 0.950 . S
C3003 C3001 1.390 1_455 S
C3003 C3004 1.387 . S
C3003 H3006 0.950 . S
C3004 C3003 1.387 . S
C3004 C3007 1.387 . S
H3005 C3001 0.950 . S
H3006 C3003 0.950 . S
C3007 C2998 1.390 1_455 S
C3007 H3000 0.950 . S
C3007 C3004 1.387 . S
C3008 C3009 1.387 . S
C3008 H3012 0.950 . S
C3008 C3017 1.390 . S
C3009 C3008 1.387 . S
C3009 C3011 1.387 . S
H3010 C3017 0.950 . S
C3011 C3009 1.387 . S
C3011 C3013 1.390 . S
C3011 H3015 0.950 . S
H3012 C3008 0.950 . S
C3013 C3011 1.390 . S
C3013 C3014 1.387 . S
C3013 H3016 0.950 . S
C3014 C3013 1.387 . S
C3014 C3017 1.387 . S
H3015 C3011 0.950 . S
H3016 C3013 0.950 . S
C3017 C3008 1.390 . S
C3017 H3010 0.950 . S
C3017 C3014 1.387 . S
C3018 C3019 1.387 . S
C3018 H3022 0.950 . S
C3018 C3027 1.390 . S
C3019 C3018 1.387 . S
C3019 C3021 1.387 . S
H3020 C3027 0.950 . S
C3021 C3019 1.387 . S
C3021 C3023 1.390 . S
C3021 H3025 0.950 . S
H3022 C3018 0.950 . S
C3023 C3021 1.390 . S
C3023 C3024 1.387 . S
C3023 H3026 0.950 . S
C3024 C3023 1.387 . S
C3024 C3027 1.387 . S
H3025 C3021 0.950 . S
H3026 C3023 0.950 . S
C3027 C3018 1.390 . S
C3027 H3020 0.950 . S
C3027 C3024 1.387 . S
C3028 C3029 1.387 . S
C3028 H3032 0.950 . S
C3028 C3037 1.390 . S
C3029 C3028 1.387 . S
C3029 C3031 1.387 . S
H3030 C3037 0.950 . S
C3031 C3029 1.387 . S
C3031 C3033 1.390 . S
C3031 H3035 0.950 . S
H3032 C3028 0.950 . S
C3033 C3031 1.390 . S
C3033 C3034 1.387 . S
C3033 H3036 0.950 . S
C3034 C3033 1.387 . S
C3034 C3037 1.387 . S
H3035 C3031 0.950 . S
H3036 C3033 0.950 . S
C3037 C3028 1.390 . S
C3037 H3030 0.950 . S
C3037 C3034 1.387 . S
C3038 C3039 1.387 . S
C3038 H3042 0.950 . S
C3038 C3047 1.390 1_554 S
C3039 C3038 1.387 . S
C3039 C3041 1.387 . S
H3040 C3047 0.950 . S
C3041 C3039 1.387 . S
C3041 C3043 1.390 1_554 S
C3041 H3045 0.950 . S
H3042 C3038 0.950 . S
C3043 C3041 1.390 1_556 S
C3043 C3044 1.387 . S
C3043 H3046 0.950 . S
C3044 C3043 1.387 . S
C3044 C3047 1.387 . S
H3045 C3041 0.950 . S
H3046 C3043 0.950 . S
C3047 C3038 1.390 1_556 S
C3047 H3040 0.950 . S
C3047 C3044 1.387 . S
C3048 C3049 1.387 . S
C3048 H3052 0.950 . S
C3048 C3057 1.390 . S
C3049 C3048 1.387 . S
C3049 C3051 1.387 . S
H3050 C3057 0.950 . S
C3051 C3049 1.387 . S
C3051 C3053 1.390 . S
C3051 H3055 0.950 . S
H3052 C3048 0.950 . S
C3053 C3051 1.390 . S
C3053 C3054 1.387 . S
C3053 H3056 0.950 . S
C3054 C3053 1.387 . S
C3054 C3057 1.387 . S
H3055 C3051 0.950 . S
H3056 C3053 0.950 . S
C3057 C3048 1.390 . S
C3057 H3050 0.950 . S
C3057 C3054 1.387 . S
C3058 C3059 1.387 . S
C3058 H3062 0.950 . S
C3058 C3067 1.390 . S
C3059 C3058 1.387 . S
C3059 C3061 1.387 . S
H3060 C3067 0.950 . S
C3061 C3059 1.387 . S
C3061 C3063 1.390 . S
C3061 H3065 0.950 . S
H3062 C3058 0.950 . S
C3063 C3061 1.390 . S
C3063 C3064 1.387 . S
C3063 H3066 0.950 . S
C3064 C3063 1.387 . S
C3064 C3067 1.387 . S
H3065 C3061 0.950 . S
H3066 C3063 0.950 . S
C3067 C3058 1.390 . S
C3067 H3060 0.950 . S
C3067 C3064 1.387 . S
C3068 C3069 1.387 . S
C3068 H3072 0.950 . S
C3068 C3077 1.390 1_455 S
C3069 C3068 1.387 . S
C3069 C3071 1.387 . S
H3070 C3077 0.950 . S
C3071 C3069 1.387 . S
C3071 C3073 1.390 1_455 S
C3071 H3075 0.950 . S
H3072 C3068 0.950 . S
C3073 C3071 1.390 1_655 S
C3073 C3074 1.387 . S
C3073 H3076 0.950 . S
C3074 C3073 1.387 . S
C3074 C3077 1.387 . S
H3075 C3071 0.950 . S
H3076 C3073 0.950 . S
C3077 C3068 1.390 1_655 S
C3077 H3070 0.950 . S
C3077 C3074 1.387 . S
C3078 C3079 1.387 . S
C3078 H3082 0.950 . S
C3078 C3087 1.390 . S
C3079 C3078 1.387 . S
C3079 C3081 1.387 . S
H3080 C3087 0.950 . S
C3081 C3079 1.387 . S
C3081 C3083 1.390 . S
C3081 H3085 0.950 . S
H3082 C3078 0.950 . S
C3083 C3081 1.390 . S
C3083 C3084 1.387 . S
C3083 H3086 0.950 . S
C3084 C3083 1.387 . S
C3084 C3087 1.387 . S
H3085 C3081 0.950 . S
H3086 C3083 0.950 . S
C3087 C3078 1.390 . S
C3087 H3080 0.950 . S
C3087 C3084 1.387 . S
C3088 C3089 1.387 . S
C3088 H3092 0.950 . S
C3088 C3097 1.390 . S
C3089 C3088 1.387 . S
C3089 C3091 1.387 . S
H3090 C3097 0.950 . S
C3091 C3089 1.387 . S
C3091 C3093 1.390 . S
C3091 H3095 0.950 . S
H3092 C3088 0.950 . S
C3093 C3091 1.390 . S
C3093 C3094 1.387 . S
C3093 H3096 0.950 . S
C3094 C3093 1.387 . S
C3094 C3097 1.387 . S
H3095 C3091 0.950 . S
H3096 C3093 0.950 . S
C3097 C3088 1.390 . S
C3097 H3090 0.950 . S
C3097 C3094 1.387 . S
C3098 C3099 1.387 . S
C3098 H3102 0.950 . S
C3098 C3107 1.390 1_545 S
C3099 C3098 1.387 . S
C3099 C3101 1.387 . S
H3100 C3107 0.950 . S
C3101 C3099 1.387 . S
C3101 C3103 1.390 1_545 S
C3101 H3105 0.950 . S
H3102 C3098 0.950 . S
C3103 C3101 1.390 1_565 S
C3103 C3104 1.387 . S
C3103 H3106 0.950 . S
C3104 C3103 1.387 . S
C3104 C3107 1.387 . S
H3105 C3101 0.950 . S
H3106 C3103 0.950 . S
C3107 C3098 1.390 1_565 S
C3107 H3100 0.950 . S
C3107 C3104 1.387 . S
C3108 C3109 1.387 . S
C3108 H3112 0.950 . S
C3108 C3117 1.390 1_455 S
C3109 C3108 1.387 . S
C3109 C3111 1.387 . S
H3110 C3117 0.950 . S
C3111 C3109 1.387 . S
C3111 C3113 1.390 1_455 S
C3111 H3115 0.950 . S
H3112 C3108 0.950 . S
C3113 C3111 1.390 1_655 S
C3113 C3114 1.387 . S
C3113 H3116 0.950 . S
C3114 C3113 1.387 . S
C3114 C3117 1.387 . S
H3115 C3111 0.950 . S
H3116 C3113 0.950 . S
C3117 C3108 1.390 1_655 S
C3117 H3110 0.950 . S
C3117 C3114 1.387 . S
C3118 C3119 1.387 . S
C3118 H3122 0.950 . S
C3118 C3127 1.390 . S
C3119 C3118 1.387 . S
C3119 C3121 1.387 . S
H3120 C3127 0.950 . S
C3121 C3119 1.387 . S
C3121 C3123 1.390 . S
C3121 H3125 0.950 . S
H3122 C3118 0.950 . S
C3123 C3121 1.390 . S
C3123 C3124 1.387 . S
C3123 H3126 0.950 . S
C3124 C3123 1.387 . S
C3124 C3127 1.387 . S
H3125 C3121 0.950 . S
H3126 C3123 0.950 . S
C3127 C3118 1.390 . S
C3127 H3120 0.950 . S
C3127 C3124 1.387 . S
C3128 C3129 1.387 . S
C3128 H3132 0.950 . S
C3128 C3137 1.390 . S
C3129 C3128 1.387 . S
C3129 C3131 1.387 . S
H3130 C3137 0.950 . S
C3131 C3129 1.387 . S
C3131 C3133 1.390 . S
C3131 H3135 0.950 . S
H3132 C3128 0.950 . S
C3133 C3131 1.390 . S
C3133 C3134 1.387 . S
C3133 H3136 0.950 . S
C3134 C3133 1.387 . S
C3134 C3137 1.387 . S
H3135 C3131 0.950 . S
H3136 C3133 0.950 . S
C3137 C3128 1.390 . S
C3137 H3130 0.950 . S
C3137 C3134 1.387 . S
C3138 C3139 1.387 . S
C3138 H3142 0.950 . S
C3138 C3147 1.390 1_545 S
C3139 C3138 1.387 . S
C3139 C3141 1.387 . S
H3140 C3147 0.950 . S
C3141 C3139 1.387 . S
C3141 C3143 1.390 1_545 S
C3141 H3145 0.950 . S
H3142 C3138 0.950 . S
C3143 C3141 1.390 1_565 S
C3143 C3144 1.387 . S
C3143 H3146 0.950 . S
C3144 C3143 1.387 . S
C3144 C3147 1.387 . S
H3145 C3141 0.950 . S
H3146 C3143 0.950 . S
C3147 C3138 1.390 1_565 S
C3147 H3140 0.950 . S
C3147 C3144 1.387 . S
C3148 C3149 1.387 . S
C3148 H3152 0.950 . S
C3148 C3157 1.390 . S
C3149 C3148 1.387 . S
C3149 C3151 1.387 . S
H3150 C3157 0.950 . S
C3151 C3149 1.387 . S
C3151 C3153 1.390 . S
C3151 H3155 0.950 . S
H3152 C3148 0.950 . S
C3153 C3151 1.390 . S
C3153 C3154 1.387 . S
C3153 H3156 0.950 . S
C3154 C3153 1.387 . S
C3154 C3157 1.387 . S
H3155 C3151 0.950 . S
H3156 C3153 0.950 . S
C3157 C3148 1.390 . S
C3157 H3150 0.950 . S
C3157 C3154 1.387 . S
C3158 C3159 1.387 . S
C3158 H3162 0.950 . S
C3158 C3167 1.390 . S
C3159 C3158 1.387 . S
C3159 C3161 1.387 . S
H3160 C3167 0.950 . S
C3161 C3159 1.387 . S
C3161 C3163 1.390 . S
C3161 H3165 0.950 . S
H3162 C3158 0.950 . S
C3163 C3161 1.390 . S
C3163 C3164 1.387 . S
C3163 H3166 0.950 . S
C3164 C3163 1.387 . S
C3164 C3167 1.387 . S
H3165 C3161 0.950 . S
H3166 C3163 0.950 . S
C3167 C3158 1.390 . S
C3167 H3160 0.950 . S
C3167 C3164 1.387 . S
C3168 C3169 1.387 . S
C3168 H3172 0.950 . S
C3168 C3177 1.390 1_565 S
C3169 C3168 1.387 . S
C3169 C3171 1.387 . S
H3170 C3177 0.950 . S
C3171 C3169 1.387 . S
C3171 C3173 1.390 1_565 S
C3171 H3175 0.950 . S
H3172 C3168 0.950 . S
C3173 C3171 1.390 1_545 S
C3173 C3174 1.387 . S
C3173 H3176 0.950 . S
C3174 C3173 1.387 . S
C3174 C3177 1.387 . S
H3175 C3171 0.950 . S
H3176 C3173 0.950 . S
C3177 C3168 1.390 1_545 S
C3177 H3170 0.950 . S
C3177 C3174 1.387 . S
C3178 C3179 1.387 . S
C3178 H3182 0.950 . S
C3178 C3187 1.390 1_655 S
C3179 C3178 1.387 . S
C3179 C3181 1.387 . S
H3180 C3187 0.950 . S
C3181 C3179 1.387 . S
C3181 C3183 1.390 1_655 S
C3181 H3185 0.950 . S
H3182 C3178 0.950 . S
C3183 C3181 1.390 1_455 S
C3183 C3184 1.387 . S
C3183 H3186 0.950 . S
C3184 C3183 1.387 . S
C3184 C3187 1.387 . S
H3185 C3181 0.950 . S
H3186 C3183 0.950 . S
C3187 C3178 1.390 1_455 S
C3187 H3180 0.950 . S
C3187 C3184 1.387 . S
C3188 C3189 1.387 . S
C3188 H3192 0.950 . S
C3188 C3197 1.390 . S
C3189 C3188 1.387 . S
C3189 C3191 1.387 . S
H3190 C3197 0.950 . S
C3191 C3189 1.387 . S
C3191 C3193 1.390 . S
C3191 H3195 0.950 . S
H3192 C3188 0.950 . S
C3193 C3191 1.390 . S
C3193 C3194 1.387 . S
C3193 H3196 0.950 . S
C3194 C3193 1.387 . S
C3194 C3197 1.387 . S
H3195 C3191 0.950 . S
H3196 C3193 0.950 . S
C3197 C3188 1.390 . S
C3197 H3190 0.950 . S
C3197 C3194 1.387 . S
C3198 C3199 1.387 . S
C3198 H3202 0.950 . S
C3198 C3207 1.390 . S
C3199 C3198 1.387 . S
C3199 C3201 1.387 . S
H3200 C3207 0.950 . S
C3201 C3199 1.387 . S
C3201 C3203 1.390 . S
C3201 H3205 0.950 . S
H3202 C3198 0.950 . S
C3203 C3201 1.390 . S
C3203 C3204 1.387 . S
C3203 H3206 0.950 . S
C3204 C3203 1.387 . S
C3204 C3207 1.387 . S
H3205 C3201 0.950 . S
H3206 C3203 0.950 . S
C3207 C3198 1.390 . S
C3207 H3200 0.950 . S
C3207 C3204 1.387 . S
C3208 C3209 1.387 . S
C3208 H3212 0.950 . S
C3208 C3217 1.390 1_565 S
C3209 C3208 1.387 . S
C3209 C3211 1.387 . S
H3210 C3217 0.950 . S
C3211 C3209 1.387 . S
C3211 C3213 1.390 1_565 S
C3211 H3215 0.950 . S
H3212 C3208 0.950 . S
C3213 C3211 1.390 1_545 S
C3213 C3214 1.387 . S
C3213 H3216 0.950 . S
C3214 C3213 1.387 . S
C3214 C3217 1.387 . S
H3215 C3211 0.950 . S
H3216 C3213 0.950 . S
C3217 C3208 1.390 1_545 S
C3217 H3210 0.950 . S
C3217 C3214 1.387 . S
C3218 C3219 1.387 . S
C3218 H3222 0.950 . S
C3218 C3227 1.390 1_655 S
C3219 C3218 1.387 . S
C3219 C3221 1.387 . S
H3220 C3227 0.950 . S
C3221 C3219 1.387 . S
C3221 C3223 1.390 1_655 S
C3221 H3225 0.950 . S
H3222 C3218 0.950 . S
C3223 C3221 1.390 1_455 S
C3223 C3224 1.387 . S
C3223 H3226 0.950 . S
C3224 C3223 1.387 . S
C3224 C3227 1.387 . S
H3225 C3221 0.950 . S
H3226 C3223 0.950 . S
C3227 C3218 1.390 1_455 S
C3227 H3220 0.950 . S
C3227 C3224 1.387 . S
C3228 C3229 1.387 . S
C3228 H3232 0.950 . S
C3228 C3237 1.390 . S
C3229 C3228 1.387 . S
C3229 C3231 1.387 . S
H3230 C3237 0.950 . S
C3231 C3229 1.387 . S
C3231 C3233 1.390 . S
C3231 H3235 0.950 . S
H3232 C3228 0.950 . S
C3233 C3231 1.390 . S
C3233 C3234 1.387 . S
C3233 H3236 0.950 . S
C3234 C3233 1.387 . S
C3234 C3237 1.387 . S
H3235 C3231 0.950 . S
H3236 C3233 0.950 . S
C3237 C3228 1.390 . S
C3237 H3230 0.950 . S
C3237 C3234 1.387 . S
C3238 C3239 1.387 . S
C3238 H3242 0.950 . S
C3238 C3247 1.390 1_554 S
C3239 C3238 1.387 . S
C3239 C3241 1.387 . S
H3240 C3247 0.950 . S
C3241 C3239 1.387 . S
C3241 C3243 1.390 1_554 S
C3241 H3245 0.950 . S
H3242 C3238 0.950 . S
C3243 C3241 1.390 1_556 S
C3243 C3244 1.387 . S
C3243 H3246 0.950 . S
C3244 C3243 1.387 . S
C3244 C3247 1.387 . S
H3245 C3241 0.950 . S
H3246 C3243 0.950 . S
C3247 C3238 1.390 1_556 S
C3247 H3240 0.950 . S
C3247 C3244 1.387 . S
C3248 C3249 1.387 . S
C3248 H3252 0.950 . S
C3248 C3257 1.390 1_556 S
C3249 C3248 1.387 . S
C3249 C3251 1.387 . S
H3250 C3257 0.950 . S
C3251 C3249 1.387 . S
C3251 C3253 1.390 1_556 S
C3251 H3255 0.950 . S
H3252 C3248 0.950 . S
C3253 C3251 1.390 1_554 S
C3253 C3254 1.387 . S
C3253 H3256 0.950 . S
C3254 C3253 1.387 . S
C3254 C3257 1.387 . S
H3255 C3251 0.950 . S
H3256 C3253 0.950 . S
C3257 C3248 1.390 1_554 S
C3257 H3250 0.950 . S
C3257 C3254 1.387 . S
C3258 C3259 1.387 . S
C3258 H3262 0.950 . S
C3258 C3267 1.390 1_554 S
C3259 C3258 1.387 . S
C3259 C3261 1.387 . S
H3260 C3267 0.950 . S
C3261 C3259 1.387 . S
C3261 C3263 1.390 1_554 S
C3261 H3265 0.950 . S
H3262 C3258 0.950 . S
C3263 C3261 1.390 1_556 S
C3263 C3264 1.387 . S
C3263 H3266 0.950 . S
C3264 C3263 1.387 . S
C3264 C3267 1.387 . S
H3265 C3261 0.950 . S
H3266 C3263 0.950 . S
C3267 C3258 1.390 1_556 S
C3267 H3260 0.950 . S
C3267 C3264 1.387 . S
C3268 C3269 1.387 . S
C3268 H3272 0.950 . S
C3268 C3277 1.390 . S
C3269 C3268 1.387 . S
C3269 C3271 1.387 . S
H3270 C3277 0.950 . S
C3271 C3269 1.387 . S
C3271 C3273 1.390 . S
C3271 H3275 0.950 . S
H3272 C3268 0.950 . S
C3273 C3271 1.390 . S
C3273 C3274 1.387 . S
C3273 H3276 0.950 . S
C3274 C3273 1.387 . S
C3274 C3277 1.387 . S
H3275 C3271 0.950 . S
H3276 C3273 0.950 . S
C3277 C3268 1.390 . S
C3277 H3270 0.950 . S
C3277 C3274 1.387 . S
C3278 C3279 1.387 . S
C3278 H3282 0.950 . S
C3278 C3287 1.390 . S
C3279 C3278 1.387 . S
C3279 C3281 1.387 . S
H3280 C3287 0.950 . S
C3281 C3279 1.387 . S
C3281 C3283 1.390 . S
C3281 H3285 0.950 . S
H3282 C3278 0.950 . S
C3283 C3281 1.390 . S
C3283 C3284 1.387 . S
C3283 H3286 0.950 . S
C3284 C3283 1.387 . S
C3284 C3287 1.387 . S
H3285 C3281 0.950 . S
H3286 C3283 0.950 . S
C3287 C3278 1.390 . S
C3287 H3280 0.950 . S
C3287 C3284 1.387 . S
C3288 C3289 1.387 . S
C3288 H3292 0.950 . S
C3288 C3297 1.390 1_556 S
C3289 C3288 1.387 . S
C3289 C3291 1.387 . S
H3290 C3297 0.950 . S
C3291 C3289 1.387 . S
C3291 C3293 1.390 1_556 S
C3291 H3295 0.950 . S
H3292 C3288 0.950 . S
C3293 C3291 1.390 1_554 S
C3293 C3294 1.387 . S
C3293 H3296 0.950 . S
C3294 C3293 1.387 . S
C3294 C3297 1.387 . S
H3295 C3291 0.950 . S
H3296 C3293 0.950 . S
C3297 C3288 1.390 1_554 S
C3297 H3290 0.950 . S
C3297 C3294 1.387 . S
C3298 C3299 1.387 . S
C3298 H3302 0.950 . S
C3298 C3307 1.390 1_556 S
C3299 C3298 1.387 . S
C3299 C3301 1.387 . S
H3300 C3307 0.950 . S
C3301 C3299 1.387 . S
C3301 C3303 1.390 1_556 S
C3301 H3305 0.950 . S
H3302 C3298 0.950 . S
C3303 C3301 1.390 1_554 S
C3303 C3304 1.387 . S
C3303 H3306 0.950 . S
C3304 C3303 1.387 . S
C3304 C3307 1.387 . S
H3305 C3301 0.950 . S
H3306 C3303 0.950 . S
C3307 C3298 1.390 1_554 S
C3307 H3300 0.950 . S
C3307 C3304 1.387 . S
C3308 C3309 1.387 . S
C3308 H3312 0.950 . S
C3308 C3317 1.390 . S
C3309 C3308 1.387 . S
C3309 C3311 1.387 . S
H3310 C3317 0.950 . S
C3311 C3309 1.387 . S
C3311 C3313 1.390 . S
C3311 H3315 0.950 . S
H3312 C3308 0.950 . S
C3313 C3311 1.390 . S
C3313 C3314 1.387 . S
C3313 H3316 0.950 . S
C3314 C3313 1.387 . S
C3314 C3317 1.387 . S
H3315 C3311 0.950 . S
H3316 C3313 0.950 . S
C3317 C3308 1.390 . S
C3317 H3310 0.950 . S
C3317 C3314 1.387 . S
C3318 C3319 1.387 . S
C3318 H3322 0.950 . S
C3318 C3327 1.390 . S
C3319 C3318 1.387 . S
C3319 C3321 1.387 . S
H3320 C3327 0.950 . S
C3321 C3319 1.387 . S
C3321 C3323 1.390 . S
C3321 H3325 0.950 . S
H3322 C3318 0.950 . S
C3323 C3321 1.390 . S
C3323 C3324 1.387 . S
C3323 H3326 0.950 . S
C3324 C3323 1.387 . S
C3324 C3327 1.387 . S
H3325 C3321 0.950 . S
H3326 C3323 0.950 . S
C3327 C3318 1.390 . S
C3327 H3320 0.950 . S
C3327 C3324 1.387 . S
C3328 C3329 1.387 . S
C3328 H3332 0.950 . S
C3328 C3337 1.390 1_565 S
C3329 C3328 1.387 . S
C3329 C3331 1.387 . S
H3330 C3337 0.950 . S
C3331 C3329 1.387 . S
C3331 C3333 1.390 1_565 S
C3331 H3335 0.950 . S
H3332 C3328 0.950 . S
C3333 C3331 1.390 1_545 S
C3333 C3334 1.387 . S
C3333 H3336 0.950 . S
C3334 C3333 1.387 . S
C3334 C3337 1.387 . S
H3335 C3331 0.950 . S
H3336 C3333 0.950 . S
C3337 C3328 1.390 1_545 S
C3337 H3330 0.950 . S
C3337 C3334 1.387 . S
C3338 C3339 1.387 . S
C3338 H3342 0.950 . S
C3338 C3347 1.390 1_455 S
C3339 C3338 1.387 . S
C3339 C3341 1.387 . S
H3340 C3347 0.950 . S
C3341 C3339 1.387 . S
C3341 C3343 1.390 1_455 S
C3341 H3345 0.950 . S
H3342 C3338 0.950 . S
C3343 C3341 1.390 1_655 S
C3343 C3344 1.387 . S
C3343 H3346 0.950 . S
C3344 C3343 1.387 . S
C3344 C3347 1.387 . S
H3345 C3341 0.950 . S
H3346 C3343 0.950 . S
C3347 C3338 1.390 1_655 S
C3347 H3340 0.950 . S
C3347 C3344 1.387 . S
C3348 C3349 1.387 . S
C3348 H3352 0.950 . S
C3348 C3357 1.390 . S
C3349 C3348 1.387 . S
C3349 C3351 1.387 . S
H3350 C3357 0.950 . S
C3351 C3349 1.387 . S
C3351 C3353 1.390 . S
C3351 H3355 0.950 . S
H3352 C3348 0.950 . S
C3353 C3351 1.390 . S
C3353 C3354 1.387 . S
C3353 H3356 0.950 . S
C3354 C3353 1.387 . S
C3354 C3357 1.387 . S
H3355 C3351 0.950 . S
H3356 C3353 0.950 . S
C3357 C3348 1.390 . S
C3357 H3350 0.950 . S
C3357 C3354 1.387 . S
C3358 C3359 1.387 . S
C3358 H3362 0.950 . S
C3358 C3367 1.390 . S
C3359 C3358 1.387 . S
C3359 C3361 1.387 . S
H3360 C3367 0.950 . S
C3361 C3359 1.387 . S
C3361 C3363 1.390 . S
C3361 H3365 0.950 . S
H3362 C3358 0.950 . S
C3363 C3361 1.390 . S
C3363 C3364 1.387 . S
C3363 H3366 0.950 . S
C3364 C3363 1.387 . S
C3364 C3367 1.387 . S
H3365 C3361 0.950 . S
H3366 C3363 0.950 . S
C3367 C3358 1.390 . S
C3367 H3360 0.950 . S
C3367 C3364 1.387 . S
C3368 C3369 1.387 . S
C3368 H3372 0.950 . S
C3368 C3377 1.390 1_545 S
C3369 C3368 1.387 . S
C3369 C3371 1.387 . S
H3370 C3377 0.950 . S
C3371 C3369 1.387 . S
C3371 C3373 1.390 1_545 S
C3371 H3375 0.950 . S
H3372 C3368 0.950 . S
C3373 C3371 1.390 1_565 S
C3373 C3374 1.387 . S
C3373 H3376 0.950 . S
C3374 C3373 1.387 . S
C3374 C3377 1.387 . S
H3375 C3371 0.950 . S
H3376 C3373 0.950 . S
C3377 C3368 1.390 1_565 S
C3377 H3370 0.950 . S
C3377 C3374 1.387 . S
C3378 C3379 1.387 . S
C3378 H3382 0.950 . S
C3378 C3387 1.390 1_655 S
C3379 C3378 1.387 . S
C3379 C3381 1.387 . S
H3380 C3387 0.950 . S
C3381 C3379 1.387 . S
C3381 C3383 1.390 1_655 S
C3381 H3385 0.950 . S
H3382 C3378 0.950 . S
C3383 C3381 1.390 1_455 S
C3383 C3384 1.387 . S
C3383 H3386 0.950 . S
C3384 C3383 1.387 . S
C3384 C3387 1.387 . S
H3385 C3381 0.950 . S
H3386 C3383 0.950 . S
C3387 C3378 1.390 1_455 S
C3387 H3380 0.950 . S
C3387 C3384 1.387 . S
C3388 C3389 1.387 . S
C3388 H3392 0.950 . S
C3388 C3397 1.390 1_556 S
C3389 C3388 1.387 . S
C3389 C3391 1.387 . S
H3390 C3397 0.950 . S
C3391 C3389 1.387 . S
C3391 C3393 1.390 1_556 S
C3391 H3395 0.950 . S
H3392 C3388 0.950 . S
C3393 C3391 1.390 1_554 S
C3393 C3394 1.387 . S
C3393 H3396 0.950 . S
C3394 C3393 1.387 . S
C3394 C3397 1.387 . S
H3395 C3391 0.950 . S
H3396 C3393 0.950 . S
C3397 C3388 1.390 1_554 S
C3397 H3390 0.950 . S
C3397 C3394 1.387 . S
C3398 C3399 1.387 . S
C3398 H3402 0.950 . S
C3398 C3407 1.390 1_554 S
C3399 C3398 1.387 . S
C3399 C3401 1.387 . S
H3400 C3407 0.950 . S
C3401 C3399 1.387 . S
C3401 C3403 1.390 1_554 S
C3401 H3405 0.950 . S
H3402 C3398 0.950 . S
C3403 C3401 1.390 1_556 S
C3403 C3404 1.387 . S
C3403 H3406 0.950 . S
C3404 C3403 1.387 . S
C3404 C3407 1.387 . S
H3405 C3401 0.950 . S
H3406 C3403 0.950 . S
C3407 C3398 1.390 1_556 S
C3407 H3400 0.950 . S
C3407 C3404 1.387 . S
C3408 C3409 1.387 . S
C3408 H3412 0.950 . S
C3408 C3417 1.390 1_554 S
C3409 C3408 1.387 . S
C3409 C3411 1.387 . S
H3410 C3417 0.950 . S
C3411 C3409 1.387 . S
C3411 C3413 1.390 1_554 S
C3411 H3415 0.950 . S
H3412 C3408 0.950 . S
C3413 C3411 1.390 1_556 S
C3413 C3414 1.387 . S
C3413 H3416 0.950 . S
C3414 C3413 1.387 . S
C3414 C3417 1.387 . S
H3415 C3411 0.950 . S
H3416 C3413 0.950 . S
C3417 C3408 1.390 1_556 S
C3417 H3410 0.950 . S
C3417 C3414 1.387 . S
C3418 C3419 1.387 . S
C3418 H3422 0.950 . S
C3418 C3427 1.390 . S
C3419 C3418 1.387 . S
C3419 C3421 1.387 . S
H3420 C3427 0.950 . S
C3421 C3419 1.387 . S
C3421 C3423 1.390 . S
C3421 H3425 0.950 . S
H3422 C3418 0.950 . S
C3423 C3421 1.390 . S
C3423 C3424 1.387 . S
C3423 H3426 0.950 . S
C3424 C3423 1.387 . S
C3424 C3427 1.387 . S
H3425 C3421 0.950 . S
H3426 C3423 0.950 . S
C3427 C3418 1.390 . S
C3427 H3420 0.950 . S
C3427 C3424 1.387 . S
C3428 C3429 1.387 . S
C3428 H3432 0.950 . S
C3428 C3437 1.390 1_554 S
C3429 C3428 1.387 . S
C3429 C3431 1.387 . S
H3430 C3437 0.950 . S
C3431 C3429 1.387 . S
C3431 C3433 1.390 1_554 S
C3431 H3435 0.950 . S
H3432 C3428 0.950 . S
C3433 C3431 1.390 1_556 S
C3433 C3434 1.387 . S
C3433 H3436 0.950 . S
C3434 C3433 1.387 . S
C3434 C3437 1.387 . S
H3435 C3431 0.950 . S
H3436 C3433 0.950 . S
C3437 C3428 1.390 1_556 S
C3437 H3430 0.950 . S
C3437 C3434 1.387 . S
C3438 C3439 1.387 . S
C3438 H3442 0.950 . S
C3438 C3447 1.390 1_556 S
C3439 C3438 1.387 . S
C3439 C3441 1.387 . S
H3440 C3447 0.950 . S
C3441 C3439 1.387 . S
C3441 C3443 1.390 1_556 S
C3441 H3445 0.950 . S
H3442 C3438 0.950 . S
C3443 C3441 1.390 1_554 S
C3443 C3444 1.387 . S
C3443 H3446 0.950 . S
C3444 C3443 1.387 . S
C3444 C3447 1.387 . S
H3445 C3441 0.950 . S
H3446 C3443 0.950 . S
C3447 C3438 1.390 1_554 S
C3447 H3440 0.950 . S
C3447 C3444 1.387 . S
C3448 C3449 1.387 . S
C3448 H3452 0.950 . S
C3448 C3457 1.390 . S
C3449 C3448 1.387 . S
C3449 C3451 1.387 . S
H3450 C3457 0.950 . S
C3451 C3449 1.387 . S
C3451 C3453 1.390 . S
C3451 H3455 0.950 . S
H3452 C3448 0.950 . S
C3453 C3451 1.390 . S
C3453 C3454 1.387 . S
C3453 H3456 0.950 . S
C3454 C3453 1.387 . S
C3454 C3457 1.387 . S
H3455 C3451 0.950 . S
H3456 C3453 0.950 . S
C3457 C3448 1.390 . S
C3457 H3450 0.950 . S
C3457 C3454 1.387 . S
C3458 C3459 1.387 . S
C3458 H3462 0.950 . S
C3458 C3467 1.390 1_565 S
C3459 C3458 1.387 . S
C3459 C3461 1.387 . S
H3460 C3467 0.950 . S
C3461 C3459 1.387 . S
C3461 C3463 1.390 1_565 S
C3461 H3465 0.950 . S
H3462 C3458 0.950 . S
C3463 C3461 1.390 1_545 S
C3463 C3464 1.387 . S
C3463 H3466 0.950 . S
C3464 C3463 1.387 . S
C3464 C3467 1.387 . S
H3465 C3461 0.950 . S
H3466 C3463 0.950 . S
C3467 C3458 1.390 1_545 S
C3467 H3460 0.950 . S
C3467 C3464 1.387 . S
C3468 C3469 1.387 . S
C3468 H3472 0.950 . S
C3468 C3477 1.390 1_455 S
C3469 C3468 1.387 . S
C3469 C3471 1.387 . S
H3470 C3477 0.950 . S
C3471 C3469 1.387 . S
C3471 C3473 1.390 1_455 S
C3471 H3475 0.950 . S
H3472 C3468 0.950 . S
C3473 C3471 1.390 1_655 S
C3473 C3474 1.387 . S
C3473 H3476 0.950 . S
C3474 C3473 1.387 . S
C3474 C3477 1.387 . S
H3475 C3471 0.950 . S
H3476 C3473 0.950 . S
C3477 C3468 1.390 1_655 S
C3477 H3470 0.950 . S
C3477 C3474 1.387 . S
C3478 C3479 1.387 . S
C3478 H3482 0.950 . S
C3478 C3487 1.390 . S
C3479 C3478 1.387 . S
C3479 C3481 1.387 . S
H3480 C3487 0.950 . S
C3481 C3479 1.387 . S
C3481 C3483 1.390 . S
C3481 H3485 0.950 . S
H3482 C3478 0.950 . S
C3483 C3481 1.390 . S
C3483 C3484 1.387 . S
C3483 H3486 0.950 . S
C3484 C3483 1.387 . S
C3484 C3487 1.387 . S
H3485 C3481 0.950 . S
H3486 C3483 0.950 . S
C3487 C3478 1.390 . S
C3487 H3480 0.950 . S
C3487 C3484 1.387 . S
C3488 C3489 1.387 . S
C3488 H3492 0.950 . S
C3488 C3497 1.390 . S
C3489 C3488 1.387 . S
C3489 C3491 1.387 . S
H3490 C3497 0.950 . S
C3491 C3489 1.387 . S
C3491 C3493 1.390 . S
C3491 H3495 0.950 . S
H3492 C3488 0.950 . S
C3493 C3491 1.390 . S
C3493 C3494 1.387 . S
C3493 H3496 0.950 . S
C3494 C3493 1.387 . S
C3494 C3497 1.387 . S
H3495 C3491 0.950 . S
H3496 C3493 0.950 . S
C3497 C3488 1.390 . S
C3497 H3490 0.950 . S
C3497 C3494 1.387 . S
C3498 C3499 1.387 . S
C3498 H3502 0.950 . S
C3498 C3507 1.390 1_565 S
C3499 C3498 1.387 . S
C3499 C3501 1.387 . S
H3500 C3507 0.950 . S
C3501 C3499 1.387 . S
C3501 C3503 1.390 1_565 S
C3501 H3505 0.950 . S
H3502 C3498 0.950 . S
C3503 C3501 1.390 1_545 S
C3503 C3504 1.387 . S
C3503 H3506 0.950 . S
C3504 C3503 1.387 . S
C3504 C3507 1.387 . S
H3505 C3501 0.950 . S
H3506 C3503 0.950 . S
C3507 C3498 1.390 1_545 S
C3507 H3500 0.950 . S
C3507 C3504 1.387 . S
C3508 C3509 1.387 . S
C3508 H3512 0.950 . S
C3508 C3517 1.390 1_655 S
C3509 C3508 1.387 . S
C3509 C3511 1.387 . S
H3510 C3517 0.950 . S
C3511 C3509 1.387 . S
C3511 C3513 1.390 1_655 S
C3511 H3515 0.950 . S
H3512 C3508 0.950 . S
C3513 C3511 1.390 1_455 S
C3513 C3514 1.387 . S
C3513 H3516 0.950 . S
C3514 C3513 1.387 . S
C3514 C3517 1.387 . S
H3515 C3511 0.950 . S
H3516 C3513 0.950 . S
C3517 C3508 1.390 1_455 S
C3517 H3510 0.950 . S
C3517 C3514 1.387 . S
C3518 C3519 1.387 . S
C3518 H3522 0.950 . S
C3518 C3527 1.390 . S
C3519 C3518 1.387 . S
C3519 C3521 1.387 . S
H3520 C3527 0.950 . S
C3521 C3519 1.387 . S
C3521 C3523 1.390 . S
C3521 H3525 0.950 . S
H3522 C3518 0.950 . S
C3523 C3521 1.390 . S
C3523 C3524 1.387 . S
C3523 H3526 0.950 . S
C3524 C3523 1.387 . S
C3524 C3527 1.387 . S
H3525 C3521 0.950 . S
H3526 C3523 0.950 . S
C3527 C3518 1.390 . S
C3527 H3520 0.950 . S
C3527 C3524 1.387 . S
C3528 C3529 1.387 . S
C3528 H3532 0.950 . S
C3528 C3537 1.390 . S
C3529 C3528 1.387 . S
C3529 C3531 1.387 . S
H3530 C3537 0.950 . S
C3531 C3529 1.387 . S
C3531 C3533 1.390 . S
C3531 H3535 0.950 . S
H3532 C3528 0.950 . S
C3533 C3531 1.390 . S
C3533 C3534 1.387 . S
C3533 H3536 0.950 . S
C3534 C3533 1.387 . S
C3534 C3537 1.387 . S
H3535 C3531 0.950 . S
H3536 C3533 0.950 . S
C3537 C3528 1.390 . S
C3537 H3530 0.950 . S
C3537 C3534 1.387 . S
C3538 C3539 1.387 . S
C3538 H3542 0.950 . S
C3538 C3547 1.390 . S
C3539 C3538 1.387 . S
C3539 C3541 1.387 . S
H3540 C3547 0.950 . S
C3541 C3539 1.387 . S
C3541 C3543 1.390 . S
C3541 H3545 0.950 . S
H3542 C3538 0.950 . S
C3543 C3541 1.390 . S
C3543 C3544 1.387 . S
C3543 H3546 0.950 . S
C3544 C3543 1.387 . S
C3544 C3547 1.387 . S
H3545 C3541 0.950 . S
H3546 C3543 0.950 . S
C3547 C3538 1.390 . S
C3547 H3540 0.950 . S
C3547 C3544 1.387 . S
C3548 C3549 1.387 . S
C3548 H3552 0.950 . S
C3548 C3557 1.390 . S
C3549 C3548 1.387 . S
C3549 C3551 1.387 . S
H3550 C3557 0.950 . S
C3551 C3549 1.387 . S
C3551 C3553 1.390 . S
C3551 H3555 0.950 . S
H3552 C3548 0.950 . S
C3553 C3551 1.390 . S
C3553 C3554 1.387 . S
C3553 H3556 0.950 . S
C3554 C3553 1.387 . S
C3554 C3557 1.387 . S
H3555 C3551 0.950 . S
H3556 C3553 0.950 . S
C3557 C3548 1.390 . S
C3557 H3550 0.950 . S
C3557 C3554 1.387 . S
C3558 C3559 1.387 . S
C3558 H3562 0.950 . S
C3558 C3567 1.390 . S
C3559 C3558 1.387 . S
C3559 C3561 1.387 . S
H3560 C3567 0.950 . S
C3561 C3559 1.387 . S
C3561 C3563 1.390 . S
C3561 H3565 0.950 . S
H3562 C3558 0.950 . S
C3563 C3561 1.390 . S
C3563 C3564 1.387 . S
C3563 H3566 0.950 . S
C3564 C3563 1.387 . S
C3564 C3567 1.387 . S
H3565 C3561 0.950 . S
H3566 C3563 0.950 . S
C3567 C3558 1.390 . S
C3567 H3560 0.950 . S
C3567 C3564 1.387 . S
C3568 C3569 1.387 . S
C3568 H3572 0.950 . S
C3568 C3577 1.390 1_655 S
C3569 C3568 1.387 . S
C3569 C3571 1.387 . S
H3570 C3577 0.950 . S
C3571 C3569 1.387 . S
C3571 C3573 1.390 1_655 S
C3571 H3575 0.950 . S
H3572 C3568 0.950 . S
C3573 C3571 1.390 1_455 S
C3573 C3574 1.387 . S
C3573 H3576 0.950 . S
C3574 C3573 1.387 . S
C3574 C3577 1.387 . S
H3575 C3571 0.950 . S
H3576 C3573 0.950 . S
C3577 C3568 1.390 1_455 S
C3577 H3570 0.950 . S
C3577 C3574 1.387 . S
C3578 C3579 1.387 . S
C3578 H3582 0.950 . S
C3578 C3587 1.390 1_545 S
C3579 C3578 1.387 . S
C3579 C3581 1.387 . S
H3580 C3587 0.950 . S
C3581 C3579 1.387 . S
C3581 C3583 1.390 1_545 S
C3581 H3585 0.950 . S
H3582 C3578 0.950 . S
C3583 C3581 1.390 1_565 S
C3583 C3584 1.387 . S
C3583 H3586 0.950 . S
C3584 C3583 1.387 . S
C3584 C3587 1.387 . S
H3585 C3581 0.950 . S
H3586 C3583 0.950 . S
C3587 C3578 1.390 1_565 S
C3587 H3580 0.950 . S
C3587 C3584 1.387 . S
C3588 C3589 1.387 . S
C3588 H3592 0.950 . S
C3588 C3597 1.390 . S
C3589 C3588 1.387 . S
C3589 C3591 1.387 . S
H3590 C3597 0.950 . S
C3591 C3589 1.387 . S
C3591 C3593 1.390 . S
C3591 H3595 0.950 . S
H3592 C3588 0.950 . S
C3593 C3591 1.390 . S
C3593 C3594 1.387 . S
C3593 H3596 0.950 . S
C3594 C3593 1.387 . S
C3594 C3597 1.387 . S
H3595 C3591 0.950 . S
H3596 C3593 0.950 . S
C3597 C3588 1.390 . S
C3597 H3590 0.950 . S
C3597 C3594 1.387 . S
C3598 C3599 1.387 . S
C3598 H3602 0.950 . S
C3598 C3607 1.390 . S
C3599 C3598 1.387 . S
C3599 C3601 1.387 . S
H3600 C3607 0.950 . S
C3601 C3599 1.387 . S
C3601 C3603 1.390 . S
C3601 H3605 0.950 . S
H3602 C3598 0.950 . S
C3603 C3601 1.390 . S
C3603 C3604 1.387 . S
C3603 H3606 0.950 . S
C3604 C3603 1.387 . S
C3604 C3607 1.387 . S
H3605 C3601 0.950 . S
H3606 C3603 0.950 . S
C3607 C3598 1.390 . S
C3607 H3600 0.950 . S
C3607 C3604 1.387 . S
C3608 C3609 1.387 . S
C3608 H3612 0.950 . S
C3608 C3617 1.390 1_455 S
C3609 C3608 1.387 . S
C3609 C3611 1.387 . S
H3610 C3617 0.950 . S
C3611 C3609 1.387 . S
C3611 C3613 1.390 1_455 S
C3611 H3615 0.950 . S
H3612 C3608 0.950 . S
C3613 C3611 1.390 1_655 S
C3613 C3614 1.387 . S
C3613 H3616 0.950 . S
C3614 C3613 1.387 . S
C3614 C3617 1.387 . S
H3615 C3611 0.950 . S
H3616 C3613 0.950 . S
C3617 C3608 1.390 1_655 S
C3617 H3610 0.950 . S
C3617 C3614 1.387 . S
C3618 C3619 1.387 . S
C3618 H3622 0.950 . S
C3618 C3627 1.390 1_565 S
C3619 C3618 1.387 . S
C3619 C3621 1.387 . S
H3620 C3627 0.950 . S
C3621 C3619 1.387 . S
C3621 C3623 1.390 1_565 S
C3621 H3625 0.950 . S
H3622 C3618 0.950 . S
C3623 C3621 1.390 1_545 S
C3623 C3624 1.387 . S
C3623 H3626 0.950 . S
C3624 C3623 1.387 . S
C3624 C3627 1.387 . S
H3625 C3621 0.950 . S
H3626 C3623 0.950 . S
C3627 C3618 1.390 1_545 S
C3627 H3620 0.950 . S
C3627 C3624 1.387 . S
C3628 C3629 1.387 . S
C3628 H3632 0.950 . S
C3628 C3637 1.390 1_554 S
C3629 C3628 1.387 . S
C3629 C3631 1.387 . S
H3630 C3637 0.950 . S
C3631 C3629 1.387 . S
C3631 C3633 1.390 1_554 S
C3631 H3635 0.950 . S
H3632 C3628 0.950 . S
C3633 C3631 1.390 1_556 S
C3633 C3634 1.387 . S
C3633 H3636 0.950 . S
C3634 C3633 1.387 . S
C3634 C3637 1.387 . S
H3635 C3631 0.950 . S
H3636 C3633 0.950 . S
C3637 C3628 1.390 1_556 S
C3637 H3630 0.950 . S
C3637 C3634 1.387 . S
C3638 C3639 1.387 . S
C3638 H3642 0.950 . S
C3638 C3647 1.390 1_556 S
C3639 C3638 1.387 . S
C3639 C3641 1.387 . S
H3640 C3647 0.950 . S
C3641 C3639 1.387 . S
C3641 C3643 1.390 1_556 S
C3641 H3645 0.950 . S
H3642 C3638 0.950 . S
C3643 C3641 1.390 1_554 S
C3643 C3644 1.387 . S
C3643 H3646 0.950 . S
C3644 C3643 1.387 . S
C3644 C3647 1.387 . S
H3645 C3641 0.950 . S
H3646 C3643 0.950 . S
C3647 C3638 1.390 1_554 S
C3647 H3640 0.950 . S
C3647 C3644 1.387 . S
C3648 C3649 1.387 . S
C3648 H3652 0.950 . S
C3648 C3657 1.390 . S
C3649 C3648 1.387 . S
C3649 C3651 1.387 . S
H3650 C3657 0.950 . S
C3651 C3649 1.387 . S
C3651 C3653 1.390 . S
C3651 H3655 0.950 . S
H3652 C3648 0.950 . S
C3653 C3651 1.390 . S
C3653 C3654 1.387 . S
C3653 H3656 0.950 . S
C3654 C3653 1.387 . S
C3654 C3657 1.387 . S
H3655 C3651 0.950 . S
H3656 C3653 0.950 . S
C3657 C3648 1.390 . S
C3657 H3650 0.950 . S
C3657 C3654 1.387 . S
C3658 C3659 1.387 . S
C3658 H3662 0.950 . S
C3658 C3667 1.390 . S
C3659 C3658 1.387 . S
C3659 C3661 1.387 . S
H3660 C3667 0.950 . S
C3661 C3659 1.387 . S
C3661 C3663 1.390 . S
C3661 H3665 0.950 . S
H3662 C3658 0.950 . S
C3663 C3661 1.390 . S
C3663 C3664 1.387 . S
C3663 H3666 0.950 . S
C3664 C3663 1.387 . S
C3664 C3667 1.387 . S
H3665 C3661 0.950 . S
H3666 C3663 0.950 . S
C3667 C3658 1.390 . S
C3667 H3660 0.950 . S
C3667 C3664 1.387 . S
C3668 C3669 1.387 . S
C3668 H3672 0.950 . S
C3668 C3677 1.390 . S
C3669 C3668 1.387 . S
C3669 C3671 1.387 . S
H3670 C3677 0.950 . S
C3671 C3669 1.387 . S
C3671 C3673 1.390 . S
C3671 H3675 0.950 . S
H3672 C3668 0.950 . S
C3673 C3671 1.390 . S
C3673 C3674 1.387 . S
C3673 H3676 0.950 . S
C3674 C3673 1.387 . S
C3674 C3677 1.387 . S
H3675 C3671 0.950 . S
H3676 C3673 0.950 . S
C3677 C3668 1.390 . S
C3677 H3670 0.950 . S
C3677 C3674 1.387 . S
C3678 C3679 1.387 . S
C3678 H3682 0.950 . S
C3678 C3687 1.390 . S
C3679 C3678 1.387 . S
C3679 C3681 1.387 . S
H3680 C3687 0.950 . S
C3681 C3679 1.387 . S
C3681 C3683 1.390 . S
C3681 H3685 0.950 . S
H3682 C3678 0.950 . S
C3683 C3681 1.390 . S
C3683 C3684 1.387 . S
C3683 H3686 0.950 . S
C3684 C3683 1.387 . S
C3684 C3687 1.387 . S
H3685 C3681 0.950 . S
H3686 C3683 0.950 . S
C3687 C3678 1.390 . S
C3687 H3680 0.950 . S
C3687 C3684 1.387 . S
C3688 C3689 1.387 . S
C3688 H3692 0.950 . S
C3688 C3697 1.390 . S
C3689 C3688 1.387 . S
C3689 C3691 1.387 . S
H3690 C3697 0.950 . S
C3691 C3689 1.387 . S
C3691 C3693 1.390 . S
C3691 H3695 0.950 . S
H3692 C3688 0.950 . S
C3693 C3691 1.390 . S
C3693 C3694 1.387 . S
C3693 H3696 0.950 . S
C3694 C3693 1.387 . S
C3694 C3697 1.387 . S
H3695 C3691 0.950 . S
H3696 C3693 0.950 . S
C3697 C3688 1.390 . S
C3697 H3690 0.950 . S
C3697 C3694 1.387 . S
C3698 C3699 1.387 . S
C3698 H3702 0.950 . S
C3698 C3707 1.390 . S
C3699 C3698 1.387 . S
C3699 C3701 1.387 . S
H3700 C3707 0.950 . S
C3701 C3699 1.387 . S
C3701 C3703 1.390 . S
C3701 H3705 0.950 . S
H3702 C3698 0.950 . S
C3703 C3701 1.390 . S
C3703 C3704 1.387 . S
C3703 H3706 0.950 . S
C3704 C3703 1.387 . S
C3704 C3707 1.387 . S
H3705 C3701 0.950 . S
H3706 C3703 0.950 . S
C3707 C3698 1.390 . S
C3707 H3700 0.950 . S
C3707 C3704 1.387 . S
C3708 C3709 1.387 . S
C3708 H3712 0.950 . S
C3708 C3717 1.390 . S
C3709 C3708 1.387 . S
C3709 C3711 1.387 . S
H3710 C3717 0.950 . S
C3711 C3709 1.387 . S
C3711 C3713 1.390 . S
C3711 H3715 0.950 . S
H3712 C3708 0.950 . S
C3713 C3711 1.390 . S
C3713 C3714 1.387 . S
C3713 H3716 0.950 . S
C3714 C3713 1.387 . S
C3714 C3717 1.387 . S
H3715 C3711 0.950 . S
H3716 C3713 0.950 . S
C3717 C3708 1.390 . S
C3717 H3710 0.950 . S
C3717 C3714 1.387 . S
C3718 C3719 1.387 . S
C3718 H3722 0.950 . S
C3718 C3727 1.390 . S
C3719 C3718 1.387 . S
C3719 C3721 1.387 . S
H3720 C3727 0.950 . S
C3721 C3719 1.387 . S
C3721 C3723 1.390 . S
C3721 H3725 0.950 . S
H3722 C3718 0.950 . S
C3723 C3721 1.390 . S
C3723 C3724 1.387 . S
C3723 H3726 0.950 . S
C3724 C3723 1.387 . S
C3724 C3727 1.387 . S
H3725 C3721 0.950 . S
H3726 C3723 0.950 . S
C3727 C3718 1.390 . S
C3727 H3720 0.950 . S
C3727 C3724 1.387 . S
C3728 C3729 1.387 . S
C3728 H3732 0.950 . S
C3728 C3737 1.390 . S
C3729 C3728 1.387 . S
C3729 C3731 1.387 . S
H3730 C3737 0.950 . S
C3731 C3729 1.387 . S
C3731 C3733 1.390 . S
C3731 H3735 0.950 . S
H3732 C3728 0.950 . S
C3733 C3731 1.390 . S
C3733 C3734 1.387 . S
C3733 H3736 0.950 . S
C3734 C3733 1.387 . S
C3734 C3737 1.387 . S
H3735 C3731 0.950 . S
H3736 C3733 0.950 . S
C3737 C3728 1.390 . S
C3737 H3730 0.950 . S
C3737 C3734 1.387 . S
C3738 C3739 1.387 . S
C3738 H3742 0.950 . S
C3738 C3747 1.390 . S
C3739 C3738 1.387 . S
C3739 C3741 1.387 . S
H3740 C3747 0.950 . S
C3741 C3739 1.387 . S
C3741 C3743 1.390 . S
C3741 H3745 0.950 . S
H3742 C3738 0.950 . S
C3743 C3741 1.390 . S
C3743 C3744 1.387 . S
C3743 H3746 0.950 . S
C3744 C3743 1.387 . S
C3744 C3747 1.387 . S
H3745 C3741 0.950 . S
H3746 C3743 0.950 . S
C3747 C3738 1.390 . S
C3747 H3740 0.950 . S
C3747 C3744 1.387 . S
C3748 C3749 1.387 . S
C3748 H3752 0.950 . S
C3748 C3757 1.390 . S
C3749 C3748 1.387 . S
C3749 C3751 1.387 . S
H3750 C3757 0.950 . S
C3751 C3749 1.387 . S
C3751 C3753 1.390 . S
C3751 H3755 0.950 . S
H3752 C3748 0.950 . S
C3753 C3751 1.390 . S
C3753 C3754 1.387 . S
C3753 H3756 0.950 . S
C3754 C3753 1.387 . S
C3754 C3757 1.387 . S
H3755 C3751 0.950 . S
H3756 C3753 0.950 . S
C3757 C3748 1.390 . S
C3757 H3750 0.950 . S
C3757 C3754 1.387 . S
C3758 C3759 1.387 . S
C3758 H3762 0.950 . S
C3758 C3767 1.390 . S
C3759 C3758 1.387 . S
C3759 C3761 1.387 . S
H3760 C3767 0.950 . S
C3761 C3759 1.387 . S
C3761 C3763 1.390 . S
C3761 H3765 0.950 . S
H3762 C3758 0.950 . S
C3763 C3761 1.390 . S
C3763 C3764 1.387 . S
C3763 H3766 0.950 . S
C3764 C3763 1.387 . S
C3764 C3767 1.387 . S
H3765 C3761 0.950 . S
H3766 C3763 0.950 . S
C3767 C3758 1.390 . S
C3767 H3760 0.950 . S
C3767 C3764 1.387 . S
C3768 C3769 1.387 . S
C3768 H3772 0.950 . S
C3768 C3777 1.390 . S
C3769 C3768 1.387 . S
C3769 C3771 1.387 . S
H3770 C3777 0.950 . S
C3771 C3769 1.387 . S
C3771 C3773 1.390 . S
C3771 H3775 0.950 . S
H3772 C3768 0.950 . S
C3773 C3771 1.390 . S
C3773 C3774 1.387 . S
C3773 H3776 0.950 . S
C3774 C3773 1.387 . S
C3774 C3777 1.387 . S
H3775 C3771 0.950 . S
H3776 C3773 0.950 . S
C3777 C3768 1.390 . S
C3777 H3770 0.950 . S
C3777 C3774 1.387 . S
C3778 C3779 1.387 . S
C3778 H3782 0.950 . S
C3778 C3787 1.390 . S
C3779 C3778 1.387 . S
C3779 C3781 1.387 . S
H3780 C3787 0.950 . S
C3781 C3779 1.387 . S
C3781 C3783 1.390 . S
C3781 H3785 0.950 . S
H3782 C3778 0.950 . S
C3783 C3781 1.390 . S
C3783 C3784 1.387 . S
C3783 H3786 0.950 . S
C3784 C3783 1.387 . S
C3784 C3787 1.387 . S
H3785 C3781 0.950 . S
H3786 C3783 0.950 . S
C3787 C3778 1.390 . S
C3787 H3780 0.950 . S
C3787 C3784 1.387 . S
C3788 C3789 1.387 . S
C3788 H3792 0.950 . S
C3788 C3797 1.390 . S
C3789 C3788 1.387 . S
C3789 C3791 1.387 . S
H3790 C3797 0.950 . S
C3791 C3789 1.387 . S
C3791 C3793 1.390 . S
C3791 H3795 0.950 . S
H3792 C3788 0.950 . S
C3793 C3791 1.390 . S
C3793 C3794 1.387 . S
C3793 H3796 0.950 . S
C3794 C3793 1.387 . S
C3794 C3797 1.387 . S
H3795 C3791 0.950 . S
H3796 C3793 0.950 . S
C3797 C3788 1.390 . S
C3797 H3790 0.950 . S
C3797 C3794 1.387 . S
C3798 C3799 1.387 . S
C3798 H3802 0.950 . S
C3798 C3807 1.390 . S
C3799 C3798 1.387 . S
C3799 C3801 1.387 . S
H3800 C3807 0.950 . S
C3801 C3799 1.387 . S
C3801 C3803 1.390 . S
C3801 H3805 0.950 . S
H3802 C3798 0.950 . S
C3803 C3801 1.390 . S
C3803 C3804 1.387 . S
C3803 H3806 0.950 . S
C3804 C3803 1.387 . S
C3804 C3807 1.387 . S
H3805 C3801 0.950 . S
H3806 C3803 0.950 . S
C3807 C3798 1.390 . S
C3807 H3800 0.950 . S
C3807 C3804 1.387 . S
C3808 C3809 1.387 . S
C3808 H3812 0.950 . S
C3808 C3817 1.390 . S
C3809 C3808 1.387 . S
C3809 C3811 1.387 . S
H3810 C3817 0.950 . S
C3811 C3809 1.387 . S
C3811 C3813 1.390 . S
C3811 H3815 0.950 . S
H3812 C3808 0.950 . S
C3813 C3811 1.390 . S
C3813 C3814 1.387 . S
C3813 H3816 0.950 . S
C3814 C3813 1.387 . S
C3814 C3817 1.387 . S
H3815 C3811 0.950 . S
H3816 C3813 0.950 . S
C3817 C3808 1.390 . S
C3817 H3810 0.950 . S
C3817 C3814 1.387 . S
C3818 C3819 1.387 . S
C3818 H3822 0.950 . S
C3818 C3827 1.390 . S
C3819 C3818 1.387 . S
C3819 C3821 1.387 . S
H3820 C3827 0.950 . S
C3821 C3819 1.387 . S
C3821 C3823 1.390 . S
C3821 H3825 0.950 . S
H3822 C3818 0.950 . S
C3823 C3821 1.390 . S
C3823 C3824 1.387 . S
C3823 H3826 0.950 . S
C3824 C3823 1.387 . S
C3824 C3827 1.387 . S
H3825 C3821 0.950 . S
H3826 C3823 0.950 . S
C3827 C3818 1.390 . S
C3827 H3820 0.950 . S
C3827 C3824 1.387 . S
C3828 C3829 1.387 . S
C3828 H3832 0.950 . S
C3828 C3837 1.390 . S
C3829 C3828 1.387 . S
C3829 C3831 1.387 . S
H3830 C3837 0.950 . S
C3831 C3829 1.387 . S
C3831 C3833 1.390 . S
C3831 H3835 0.950 . S
H3832 C3828 0.950 . S
C3833 C3831 1.390 . S
C3833 C3834 1.387 . S
C3833 H3836 0.950 . S
C3834 C3833 1.387 . S
C3834 C3837 1.387 . S
H3835 C3831 0.950 . S
H3836 C3833 0.950 . S
C3837 C3828 1.390 . S
C3837 H3830 0.950 . S
C3837 C3834 1.387 . S
C3838 C3839 1.387 . S
C3838 H3842 0.950 . S
C3838 C3847 1.390 . S
C3839 C3838 1.387 . S
C3839 C3841 1.387 . S
H3840 C3847 0.950 . S
C3841 C3839 1.387 . S
C3841 C3843 1.390 . S
C3841 H3845 0.950 . S
H3842 C3838 0.950 . S
C3843 C3841 1.390 . S
C3843 C3844 1.387 . S
C3843 H3846 0.950 . S
C3844 C3843 1.387 . S
C3844 C3847 1.387 . S
H3845 C3841 0.950 . S
H3846 C3843 0.950 . S
C3847 C3838 1.390 . S
C3847 H3840 0.950 . S
C3847 C3844 1.387 . S
C3848 C3849 1.387 . S
C3848 H3852 0.950 . S
C3848 C3857 1.390 . S
C3849 C3848 1.387 . S
C3849 C3851 1.387 . S
H3850 C3857 0.950 . S
C3851 C3849 1.387 . S
C3851 C3853 1.390 . S
C3851 H3855 0.950 . S
H3852 C3848 0.950 . S
C3853 C3851 1.390 . S
C3853 C3854 1.387 . S
C3853 H3856 0.950 . S
C3854 C3853 1.387 . S
C3854 C3857 1.387 . S
H3855 C3851 0.950 . S
H3856 C3853 0.950 . S
C3857 C3848 1.390 . S
C3857 H3850 0.950 . S
C3857 C3854 1.387 . S
C3858 C3859 1.387 . S
C3858 H3862 0.950 . S
C3858 C3867 1.390 . S
C3859 C3858 1.387 . S
C3859 C3861 1.387 . S
H3860 C3867 0.950 . S
C3861 C3859 1.387 . S
C3861 C3863 1.390 . S
C3861 H3865 0.950 . S
H3862 C3858 0.950 . S
C3863 C3861 1.390 . S
C3863 C3864 1.387 . S
C3863 H3866 0.950 . S
C3864 C3863 1.387 . S
C3864 C3867 1.387 . S
H3865 C3861 0.950 . S
H3866 C3863 0.950 . S
C3867 C3858 1.390 . S
C3867 H3860 0.950 . S
C3867 C3864 1.387 . S
C3868 C3869 1.387 . S
C3868 H3872 0.950 . S
C3868 C3877 1.390 . S
C3869 C3868 1.387 . S
C3869 C3871 1.387 . S
H3870 C3877 0.950 . S
C3871 C3869 1.387 . S
C3871 C3873 1.390 . S
C3871 H3875 0.950 . S
H3872 C3868 0.950 . S
C3873 C3871 1.390 . S
C3873 C3874 1.387 . S
C3873 H3876 0.950 . S
C3874 C3873 1.387 . S
C3874 C3877 1.387 . S
H3875 C3871 0.950 . S
H3876 C3873 0.950 . S
C3877 C3868 1.390 . S
C3877 H3870 0.950 . S
C3877 C3874 1.387 . S
C3878 C3879 1.387 . S
C3878 H3882 0.950 . S
C3878 C3887 1.390 . S
C3879 C3878 1.387 . S
C3879 C3881 1.387 . S
H3880 C3887 0.950 . S
C3881 C3879 1.387 . S
C3881 C3883 1.390 . S
C3881 H3885 0.950 . S
H3882 C3878 0.950 . S
C3883 C3881 1.390 . S
C3883 C3884 1.387 . S
C3883 H3886 0.950 . S
C3884 C3883 1.387 . S
C3884 C3887 1.387 . S
H3885 C3881 0.950 . S
H3886 C3883 0.950 . S
C3887 C3878 1.390 . S
C3887 H3880 0.950 . S
C3887 C3884 1.387 . S
C3888 C3889 1.387 . S
C3888 H3892 0.950 . S
C3888 C3897 1.390 . S
C3889 C3888 1.387 . S
C3889 C3891 1.387 . S
H3890 C3897 0.950 . S
C3891 C3889 1.387 . S
C3891 C3893 1.390 . S
C3891 H3895 0.950 . S
H3892 C3888 0.950 . S
C3893 C3891 1.390 . S
C3893 C3894 1.387 . S
C3893 H3896 0.950 . S
C3894 C3893 1.387 . S
C3894 C3897 1.387 . S
H3895 C3891 0.950 . S
H3896 C3893 0.950 . S
C3897 C3888 1.390 . S
C3897 H3890 0.950 . S
C3897 C3894 1.387 . S
C3898 C3899 1.387 . S
C3898 H3902 0.950 . S
C3898 C3907 1.390 . S
C3899 C3898 1.387 . S
C3899 C3901 1.387 . S
H3900 C3907 0.950 . S
C3901 C3899 1.387 . S
C3901 C3903 1.390 . S
C3901 H3905 0.950 . S
H3902 C3898 0.950 . S
C3903 C3901 1.390 . S
C3903 C3904 1.387 . S
C3903 H3906 0.950 . S
C3904 C3903 1.387 . S
C3904 C3907 1.387 . S
H3905 C3901 0.950 . S
H3906 C3903 0.950 . S
C3907 C3898 1.390 . S
C3907 H3900 0.950 . S
C3907 C3904 1.387 . S
C3908 C3909 1.387 . S
C3908 H3912 0.950 . S
C3908 C3917 1.390 . S
C3909 C3908 1.387 . S
C3909 C3911 1.387 . S
H3910 C3917 0.950 . S
C3911 C3909 1.387 . S
C3911 C3913 1.390 . S
C3911 H3915 0.950 . S
H3912 C3908 0.950 . S
C3913 C3911 1.390 . S
C3913 C3914 1.387 . S
C3913 H3916 0.950 . S
C3914 C3913 1.387 . S
C3914 C3917 1.387 . S
H3915 C3911 0.950 . S
H3916 C3913 0.950 . S
C3917 C3908 1.390 . S
C3917 H3910 0.950 . S
C3917 C3914 1.387 . S
C3918 C3919 1.387 . S
C3918 H3922 0.950 . S
C3918 C3927 1.390 . S
C3919 C3918 1.387 . S
C3919 C3921 1.387 . S
H3920 C3927 0.950 . S
C3921 C3919 1.387 . S
C3921 C3923 1.390 . S
C3921 H3925 0.950 . S
H3922 C3918 0.950 . S
C3923 C3921 1.390 . S
C3923 C3924 1.387 . S
C3923 H3926 0.950 . S
C3924 C3923 1.387 . S
C3924 C3927 1.387 . S
H3925 C3921 0.950 . S
H3926 C3923 0.950 . S
C3927 C3918 1.390 . S
C3927 H3920 0.950 . S
C3927 C3924 1.387 . S
C3928 C3929 1.387 . S
C3928 H3932 0.950 . S
C3928 C3937 1.390 . S
C3929 C3928 1.387 . S
C3929 C3931 1.387 . S
H3930 C3937 0.950 . S
C3931 C3929 1.387 . S
C3931 C3933 1.390 . S
C3931 H3935 0.950 . S
H3932 C3928 0.950 . S
C3933 C3931 1.390 . S
C3933 C3934 1.387 . S
C3933 H3936 0.950 . S
C3934 C3933 1.387 . S
C3934 C3937 1.387 . S
H3935 C3931 0.950 . S
H3936 C3933 0.950 . S
C3937 C3928 1.390 . S
C3937 H3930 0.950 . S
C3937 C3934 1.387 . S
C3938 C3939 1.387 . S
C3938 H3942 0.950 . S
C3938 C3947 1.390 . S
C3939 C3938 1.387 . S
C3939 C3941 1.387 . S
H3940 C3947 0.950 . S
C3941 C3939 1.387 . S
C3941 C3943 1.390 . S
C3941 H3945 0.950 . S
H3942 C3938 0.950 . S
C3943 C3941 1.390 . S
C3943 C3944 1.387 . S
C3943 H3946 0.950 . S
C3944 C3943 1.387 . S
C3944 C3947 1.387 . S
H3945 C3941 0.950 . S
H3946 C3943 0.950 . S
C3947 C3938 1.390 . S
C3947 H3940 0.950 . S
C3947 C3944 1.387 . S
C3948 C3949 1.387 . S
C3948 H3952 0.950 . S
C3948 C3957 1.390 . S
C3949 C3948 1.387 . S
C3949 C3951 1.387 . S
H3950 C3957 0.950 . S
C3951 C3949 1.387 . S
C3951 C3953 1.390 . S
C3951 H3955 0.950 . S
H3952 C3948 0.950 . S
C3953 C3951 1.390 . S
C3953 C3954 1.387 . S
C3953 H3956 0.950 . S
C3954 C3953 1.387 . S
C3954 C3957 1.387 . S
H3955 C3951 0.950 . S
H3956 C3953 0.950 . S
C3957 C3948 1.390 . S
C3957 H3950 0.950 . S
C3957 C3954 1.387 . S
C3958 C3959 1.387 . S
C3958 H3962 0.950 . S
C3958 C3967 1.390 . S
C3959 C3958 1.387 . S
C3959 C3961 1.387 . S
H3960 C3967 0.950 . S
C3961 C3959 1.387 . S
C3961 C3963 1.390 . S
C3961 H3965 0.950 . S
H3962 C3958 0.950 . S
C3963 C3961 1.390 . S
C3963 C3964 1.387 . S
C3963 H3966 0.950 . S
C3964 C3963 1.387 . S
C3964 C3967 1.387 . S
H3965 C3961 0.950 . S
H3966 C3963 0.950 . S
C3967 C3958 1.390 . S
C3967 H3960 0.950 . S
C3967 C3964 1.387 . S
C3968 C3969 1.387 . S
C3968 H3972 0.950 . S
C3968 C3977 1.390 . S
C3969 C3968 1.387 . S
C3969 C3971 1.387 . S
H3970 C3977 0.950 . S
C3971 C3969 1.387 . S
C3971 C3973 1.390 . S
C3971 H3975 0.950 . S
H3972 C3968 0.950 . S
C3973 C3971 1.390 . S
C3973 C3974 1.387 . S
C3973 H3976 0.950 . S
C3974 C3973 1.387 . S
C3974 C3977 1.387 . S
H3975 C3971 0.950 . S
H3976 C3973 0.950 . S
C3977 C3968 1.390 . S
C3977 H3970 0.950 . S
C3977 C3974 1.387 . S
C3978 C3979 1.387 . S
C3978 H3982 0.950 . S
C3978 C3987 1.390 . S
C3979 C3978 1.387 . S
C3979 C3981 1.387 . S
H3980 C3987 0.950 . S
C3981 C3979 1.387 . S
C3981 C3983 1.390 . S
C3981 H3985 0.950 . S
H3982 C3978 0.950 . S
C3983 C3981 1.390 . S
C3983 C3984 1.387 . S
C3983 H3986 0.950 . S
C3984 C3983 1.387 . S
C3984 C3987 1.387 . S
H3985 C3981 0.950 . S
H3986 C3983 0.950 . S
C3987 C3978 1.390 . S
C3987 H3980 0.950 . S
C3987 C3984 1.387 . S
C3988 C3989 1.387 . S
C3988 H3992 0.950 . S
C3988 C3997 1.390 . S
C3989 C3988 1.387 . S
C3989 C3991 1.387 . S
H3990 C3997 0.950 . S
C3991 C3989 1.387 . S
C3991 C3993 1.390 . S
C3991 H3995 0.950 . S
H3992 C3988 0.950 . S
C3993 C3991 1.390 . S
C3993 C3994 1.387 . S
C3993 H3996 0.950 . S
C3994 C3993 1.387 . S
C3994 C3997 1.387 . S
H3995 C3991 0.950 . S
H3996 C3993 0.950 . S
C3997 C3988 1.390 . S
C3997 H3990 0.950 . S
C3997 C3994 1.387 . S
C3998 C3999 1.387 . S
C3998 H4002 0.950 . S
C3998 C4007 1.390 . S
C3999 C3998 1.387 . S
C3999 C4001 1.387 . S
H4000 C4007 0.950 . S
C4001 C3999 1.387 . S
C4001 C4003 1.390 . S
C4001 H4005 0.950 . S
H4002 C3998 0.950 . S
C4003 C4001 1.390 . S
C4003 C4004 1.387 . S
C4003 H4006 0.950 . S
C4004 C4003 1.387 . S
C4004 C4007 1.387 . S
H4005 C4001 0.950 . S
H4006 C4003 0.950 . S
C4007 C3998 1.390 . S
C4007 H4000 0.950 . S
C4007 C4004 1.387 . S
C4008 C4009 1.387 . S
C4008 H4012 0.950 . S
C4008 C4017 1.390 . S
C4009 C4008 1.387 . S
C4009 C4011 1.387 . S
H4010 C4017 0.950 . S
C4011 C4009 1.387 . S
C4011 C4013 1.390 . S
C4011 H4015 0.950 . S
H4012 C4008 0.950 . S
C4013 C4011 1.390 . S
C4013 C4014 1.387 . S
C4013 H4016 0.950 . S
C4014 C4013 1.387 . S
C4014 C4017 1.387 . S
H4015 C4011 0.950 . S
H4016 C4013 0.950 . S
C4017 C4008 1.390 . S
C4017 H4010 0.950 . S
C4017 C4014 1.387 . S
C4018 C4019 1.387 . S
C4018 H4022 0.950 . S
C4018 C4027 1.390 . S
C4019 C4018 1.387 . S
C4019 C4021 1.387 . S
H4020 C4027 0.950 . S
C4021 C4019 1.387 . S
C4021 C4023 1.390 . S
C4021 H4025 0.950 . S
H4022 C4018 0.950 . S
C4023 C4021 1.390 . S
C4023 C4024 1.387 . S
C4023 H4026 0.950 . S
C4024 C4023 1.387 . S
C4024 C4027 1.387 . S
H4025 C4021 0.950 . S
H4026 C4023 0.950 . S
C4027 C4018 1.390 . S
C4027 H4020 0.950 . S
C4027 C4024 1.387 . S
C4028 C4029 1.387 . S
C4028 H4032 0.950 . S
C4028 C4037 1.390 . S
C4029 C4028 1.387 . S
C4029 C4031 1.387 . S
H4030 C4037 0.950 . S
C4031 C4029 1.387 . S
C4031 C4033 1.390 . S
C4031 H4035 0.950 . S
H4032 C4028 0.950 . S
C4033 C4031 1.390 . S
C4033 C4034 1.387 . S
C4033 H4036 0.950 . S
C4034 C4033 1.387 . S
C4034 C4037 1.387 . S
H4035 C4031 0.950 . S
H4036 C4033 0.950 . S
C4037 C4028 1.390 . S
C4037 H4030 0.950 . S
C4037 C4034 1.387 . S
C4038 C4039 1.387 . S
C4038 H4042 0.950 . S
C4038 C4047 1.390 . S
C4039 C4038 1.387 . S
C4039 C4041 1.387 . S
H4040 C4047 0.950 . S
C4041 C4039 1.387 . S
C4041 C4043 1.390 . S
C4041 H4045 0.950 . S
H4042 C4038 0.950 . S
C4043 C4041 1.390 . S
C4043 C4044 1.387 . S
C4043 H4046 0.950 . S
C4044 C4043 1.387 . S
C4044 C4047 1.387 . S
H4045 C4041 0.950 . S
H4046 C4043 0.950 . S
C4047 C4038 1.390 . S
C4047 H4040 0.950 . S
C4047 C4044 1.387 . S
C4048 C4049 1.387 . S
C4048 H4052 0.950 . S
C4048 C4057 1.390 . S
C4049 C4048 1.387 . S
C4049 C4051 1.387 . S
H4050 C4057 0.950 . S
C4051 C4049 1.387 . S
C4051 C4053 1.390 . S
C4051 H4055 0.950 . S
H4052 C4048 0.950 . S
C4053 C4051 1.390 . S
C4053 C4054 1.387 . S
C4053 H4056 0.950 . S
C4054 C4053 1.387 . S
C4054 C4057 1.387 . S
H4055 C4051 0.950 . S
H4056 C4053 0.950 . S
C4057 C4048 1.390 . S
C4057 H4050 0.950 . S
C4057 C4054 1.387 . S
C4058 C4059 1.387 . S
C4058 H4062 0.950 . S
C4058 C4067 1.390 . S
C4059 C4058 1.387 . S
C4059 C4061 1.387 . S
H4060 C4067 0.950 . S
C4061 C4059 1.387 . S
C4061 C4063 1.390 . S
C4061 H4065 0.950 . S
H4062 C4058 0.950 . S
C4063 C4061 1.390 . S
C4063 C4064 1.387 . S
C4063 H4066 0.950 . S
C4064 C4063 1.387 . S
C4064 C4067 1.387 . S
H4065 C4061 0.950 . S
H4066 C4063 0.950 . S
C4067 C4058 1.390 . S
C4067 H4060 0.950 . S
C4067 C4064 1.387 . S
C4068 C4069 1.387 . S
C4068 H4072 0.950 . S
C4068 C4077 1.390 . S
C4069 C4068 1.387 . S
C4069 C4071 1.387 . S
H4070 C4077 0.950 . S
C4071 C4069 1.387 . S
C4071 C4073 1.390 . S
C4071 H4075 0.950 . S
H4072 C4068 0.950 . S
C4073 C4071 1.390 . S
C4073 C4074 1.387 . S
C4073 H4076 0.950 . S
C4074 C4073 1.387 . S
C4074 C4077 1.387 . S
H4075 C4071 0.950 . S
H4076 C4073 0.950 . S
C4077 C4068 1.390 . S
C4077 H4070 0.950 . S
C4077 C4074 1.387 . S
C4078 C4079 1.387 . S
C4078 H4082 0.950 . S
C4078 C4087 1.390 . S
C4079 C4078 1.387 . S
C4079 C4081 1.387 . S
H4080 C4087 0.950 . S
C4081 C4079 1.387 . S
C4081 C4083 1.390 . S
C4081 H4085 0.950 . S
H4082 C4078 0.950 . S
C4083 C4081 1.390 . S
C4083 C4084 1.387 . S
C4083 H4086 0.950 . S
C4084 C4083 1.387 . S
C4084 C4087 1.387 . S
H4085 C4081 0.950 . S
H4086 C4083 0.950 . S
C4087 C4078 1.390 . S
C4087 H4080 0.950 . S
C4087 C4084 1.387 . S
C4088 C4089 1.387 . S
C4088 H4092 0.950 . S
C4088 C4097 1.390 . S
C4089 C4088 1.387 . S
C4089 C4091 1.387 . S
H4090 C4097 0.950 . S
C4091 C4089 1.387 . S
C4091 C4093 1.390 . S
C4091 H4095 0.950 . S
H4092 C4088 0.950 . S
C4093 C4091 1.390 . S
C4093 C4094 1.387 . S
C4093 H4096 0.950 . S
C4094 C4093 1.387 . S
C4094 C4097 1.387 . S
H4095 C4091 0.950 . S
H4096 C4093 0.950 . S
C4097 C4088 1.390 . S
C4097 H4090 0.950 . S
C4097 C4094 1.387 . S
C4098 C4099 1.387 . S
C4098 H4102 0.950 . S
C4098 C4107 1.390 . S
C4099 C4098 1.387 . S
C4099 C4101 1.387 . S
H4100 C4107 0.950 . S
C4101 C4099 1.387 . S
C4101 C4103 1.390 . S
C4101 H4105 0.950 . S
H4102 C4098 0.950 . S
C4103 C4101 1.390 . S
C4103 C4104 1.387 . S
C4103 H4106 0.950 . S
C4104 C4103 1.387 . S
C4104 C4107 1.387 . S
H4105 C4101 0.950 . S
H4106 C4103 0.950 . S
C4107 C4098 1.390 . S
C4107 H4100 0.950 . S
C4107 C4104 1.387 . S
C4108 C4109 1.387 . S
C4108 H4112 0.950 . S
C4108 C4117 1.390 . S
C4109 C4108 1.387 . S
C4109 C4111 1.387 . S
H4110 C4117 0.950 . S
C4111 C4109 1.387 . S
C4111 C4113 1.390 . S
C4111 H4115 0.950 . S
H4112 C4108 0.950 . S
C4113 C4111 1.390 . S
C4113 C4114 1.387 . S
C4113 H4116 0.950 . S
C4114 C4113 1.387 . S
C4114 C4117 1.387 . S
H4115 C4111 0.950 . S
H4116 C4113 0.950 . S
C4117 C4108 1.390 . S
C4117 H4110 0.950 . S
C4117 C4114 1.387 . S
C4118 C4119 1.387 . S
C4118 H4122 0.950 . S
C4118 C4127 1.390 . S
C4119 C4118 1.387 . S
C4119 C4121 1.387 . S
H4120 C4127 0.950 . S
C4121 C4119 1.387 . S
C4121 C4123 1.390 . S
C4121 H4125 0.950 . S
H4122 C4118 0.950 . S
C4123 C4121 1.390 . S
C4123 C4124 1.387 . S
C4123 H4126 0.950 . S
C4124 C4123 1.387 . S
C4124 C4127 1.387 . S
H4125 C4121 0.950 . S
H4126 C4123 0.950 . S
C4127 C4118 1.390 . S
C4127 H4120 0.950 . S
C4127 C4124 1.387 . S
C4128 C4129 1.387 . S
C4128 H4132 0.950 . S
C4128 C4137 1.390 . S
C4129 C4128 1.387 . S
C4129 C4131 1.387 . S
H4130 C4137 0.950 . S
C4131 C4129 1.387 . S
C4131 C4133 1.390 . S
C4131 H4135 0.950 . S
H4132 C4128 0.950 . S
C4133 C4131 1.390 . S
C4133 C4134 1.387 . S
C4133 H4136 0.950 . S
C4134 C4133 1.387 . S
C4134 C4137 1.387 . S
H4135 C4131 0.950 . S
H4136 C4133 0.950 . S
C4137 C4128 1.390 . S
C4137 H4130 0.950 . S
C4137 C4134 1.387 . S
C4138 C4139 1.387 . S
C4138 H4142 0.950 . S
C4138 C4147 1.390 . S
C4139 C4138 1.387 . S
C4139 C4141 1.387 . S
H4140 C4147 0.950 . S
C4141 C4139 1.387 . S
C4141 C4143 1.390 . S
C4141 H4145 0.950 . S
H4142 C4138 0.950 . S
C4143 C4141 1.390 . S
C4143 C4144 1.387 . S
C4143 H4146 0.950 . S
C4144 C4143 1.387 . S
C4144 C4147 1.387 . S
H4145 C4141 0.950 . S
H4146 C4143 0.950 . S
C4147 C4138 1.390 . S
C4147 H4140 0.950 . S
C4147 C4144 1.387 . S
C4148 C4149 1.387 . S
C4148 H4152 0.950 . S
C4148 C4157 1.390 . S
C4149 C4148 1.387 . S
C4149 C4151 1.387 . S
H4150 C4157 0.950 . S
C4151 C4149 1.387 . S
C4151 C4153 1.390 . S
C4151 H4155 0.950 . S
H4152 C4148 0.950 . S
C4153 C4151 1.390 . S
C4153 C4154 1.387 . S
C4153 H4156 0.950 . S
C4154 C4153 1.387 . S
C4154 C4157 1.387 . S
H4155 C4151 0.950 . S
H4156 C4153 0.950 . S
C4157 C4148 1.390 . S
C4157 H4150 0.950 . S
C4157 C4154 1.387 . S
C4158 C4159 1.387 . S
C4158 H4162 0.950 . S
C4158 C4167 1.390 . S
C4159 C4158 1.387 . S
C4159 C4161 1.387 . S
H4160 C4167 0.950 . S
C4161 C4159 1.387 . S
C4161 C4163 1.390 . S
C4161 H4165 0.950 . S
H4162 C4158 0.950 . S
C4163 C4161 1.390 . S
C4163 C4164 1.387 . S
C4163 H4166 0.950 . S
C4164 C4163 1.387 . S
C4164 C4167 1.387 . S
H4165 C4161 0.950 . S
H4166 C4163 0.950 . S
C4167 C4158 1.390 . S
C4167 H4160 0.950 . S
C4167 C4164 1.387 . S
C4168 C4169 1.387 . S
C4168 H4172 0.950 . S
C4168 C4177 1.390 . S
C4169 C4168 1.387 . S
C4169 C4171 1.387 . S
H4170 C4177 0.950 . S
C4171 C4169 1.387 . S
C4171 C4173 1.390 . S
C4171 H4175 0.950 . S
H4172 C4168 0.950 . S
C4173 C4171 1.390 . S
C4173 C4174 1.387 . S
C4173 H4176 0.950 . S
C4174 C4173 1.387 . S
C4174 C4177 1.387 . S
H4175 C4171 0.950 . S
H4176 C4173 0.950 . S
C4177 C4168 1.390 . S
C4177 H4170 0.950 . S
C4177 C4174 1.387 . S
C4178 C4179 1.387 . S
C4178 H4182 0.950 . S
C4178 C4187 1.390 . S
C4179 C4178 1.387 . S
C4179 C4181 1.387 . S
H4180 C4187 0.950 . S
C4181 C4179 1.387 . S
C4181 C4183 1.390 . S
C4181 H4185 0.950 . S
H4182 C4178 0.950 . S
C4183 C4181 1.390 . S
C4183 C4184 1.387 . S
C4183 H4186 0.950 . S
C4184 C4183 1.387 . S
C4184 C4187 1.387 . S
H4185 C4181 0.950 . S
H4186 C4183 0.950 . S
C4187 C4178 1.390 . S
C4187 H4180 0.950 . S
C4187 C4184 1.387 . S
C4188 C4189 1.387 . S
C4188 H4192 0.950 . S
C4188 C4197 1.390 . S
C4189 C4188 1.387 . S
C4189 C4191 1.387 . S
H4190 C4197 0.950 . S
C4191 C4189 1.387 . S
C4191 C4193 1.390 . S
C4191 H4195 0.950 . S
H4192 C4188 0.950 . S
C4193 C4191 1.390 . S
C4193 C4194 1.387 . S
C4193 H4196 0.950 . S
C4194 C4193 1.387 . S
C4194 C4197 1.387 . S
H4195 C4191 0.950 . S
H4196 C4193 0.950 . S
C4197 C4188 1.390 . S
C4197 H4190 0.950 . S
C4197 C4194 1.387 . S
C4198 C4199 1.387 . S
C4198 H4202 0.950 . S
C4198 C4207 1.390 . S
C4199 C4198 1.387 . S
C4199 C4201 1.387 . S
H4200 C4207 0.950 . S
C4201 C4199 1.387 . S
C4201 C4203 1.390 . S
C4201 H4205 0.950 . S
H4202 C4198 0.950 . S
C4203 C4201 1.390 . S
C4203 C4204 1.387 . S
C4203 H4206 0.950 . S
C4204 C4203 1.387 . S
C4204 C4207 1.387 . S
H4205 C4201 0.950 . S
H4206 C4203 0.950 . S
C4207 C4198 1.390 . S
C4207 H4200 0.950 . S
C4207 C4204 1.387 . S
C4208 C4209 1.387 . S
C4208 H4212 0.950 . S
C4208 C4217 1.390 . S
C4209 C4208 1.387 . S
C4209 C4211 1.387 . S
H4210 C4217 0.950 . S
C4211 C4209 1.387 . S
C4211 C4213 1.390 . S
C4211 H4215 0.950 . S
H4212 C4208 0.950 . S
C4213 C4211 1.390 . S
C4213 C4214 1.387 . S
C4213 H4216 0.950 . S
C4214 C4213 1.387 . S
C4214 C4217 1.387 . S
H4215 C4211 0.950 . S
H4216 C4213 0.950 . S
C4217 C4208 1.390 . S
C4217 H4210 0.950 . S
C4217 C4214 1.387 . S
C4218 C4219 1.387 . S
C4218 H4222 0.950 . S
C4218 C4227 1.390 . S
C4219 C4218 1.387 . S
C4219 C4221 1.387 . S
H4220 C4227 0.950 . S
C4221 C4219 1.387 . S
C4221 C4223 1.390 . S
C4221 H4225 0.950 . S
H4222 C4218 0.950 . S
C4223 C4221 1.390 . S
C4223 C4224 1.387 . S
C4223 H4226 0.950 . S
C4224 C4223 1.387 . S
C4224 C4227 1.387 . S
H4225 C4221 0.950 . S
H4226 C4223 0.950 . S
C4227 C4218 1.390 . S
C4227 H4220 0.950 . S
C4227 C4224 1.387 . S
C4228 C4229 1.387 . S
C4228 H4232 0.950 . S
C4228 C4237 1.390 . S
C4229 C4228 1.387 . S
C4229 C4231 1.387 . S
H4230 C4237 0.950 . S
C4231 C4229 1.387 . S
C4231 C4233 1.390 . S
C4231 H4235 0.950 . S
H4232 C4228 0.950 . S
C4233 C4231 1.390 . S
C4233 C4234 1.387 . S
C4233 H4236 0.950 . S
C4234 C4233 1.387 . S
C4234 C4237 1.387 . S
H4235 C4231 0.950 . S
H4236 C4233 0.950 . S
C4237 C4228 1.390 . S
C4237 H4230 0.950 . S
C4237 C4234 1.387 . S
C4238 C4239 1.387 . S
C4238 H4242 0.950 . S
C4238 C4247 1.390 . S
C4239 C4238 1.387 . S
C4239 C4241 1.387 . S
H4240 C4247 0.950 . S
C4241 C4239 1.387 . S
C4241 C4243 1.390 . S
C4241 H4245 0.950 . S
H4242 C4238 0.950 . S
C4243 C4241 1.390 . S
C4243 C4244 1.387 . S
C4243 H4246 0.950 . S
C4244 C4243 1.387 . S
C4244 C4247 1.387 . S
H4245 C4241 0.950 . S
H4246 C4243 0.950 . S
C4247 C4238 1.390 . S
C4247 H4240 0.950 . S
C4247 C4244 1.387 . S
C4248 C4249 1.387 . S
C4248 H4252 0.950 . S
C4248 C4257 1.390 . S
C4249 C4248 1.387 . S
C4249 C4251 1.387 . S
H4250 C4257 0.950 . S
C4251 C4249 1.387 . S
C4251 C4253 1.390 . S
C4251 H4255 0.950 . S
H4252 C4248 0.950 . S
C4253 C4251 1.390 . S
C4253 C4254 1.387 . S
C4253 H4256 0.950 . S
C4254 C4253 1.387 . S
C4254 C4257 1.387 . S
H4255 C4251 0.950 . S
H4256 C4253 0.950 . S
C4257 C4248 1.390 . S
C4257 H4250 0.950 . S
C4257 C4254 1.387 . S
C4258 C4259 1.387 . S
C4258 H4262 0.950 . S
C4258 C4267 1.390 . S
C4259 C4258 1.387 . S
C4259 C4261 1.387 . S
H4260 C4267 0.950 . S
C4261 C4259 1.387 . S
C4261 C4263 1.390 . S
C4261 H4265 0.950 . S
H4262 C4258 0.950 . S
C4263 C4261 1.390 . S
C4263 C4264 1.387 . S
C4263 H4266 0.950 . S
C4264 C4263 1.387 . S
C4264 C4267 1.387 . S
H4265 C4261 0.950 . S
H4266 C4263 0.950 . S
C4267 C4258 1.390 . S
C4267 H4260 0.950 . S
C4267 C4264 1.387 . S
C4268 C4269 1.387 . S
C4268 H4272 0.950 . S
C4268 C4277 1.390 . S
C4269 C4268 1.387 . S
C4269 C4271 1.387 . S
H4270 C4277 0.950 . S
C4271 C4269 1.387 . S
C4271 C4273 1.390 . S
C4271 H4275 0.950 . S
H4272 C4268 0.950 . S
C4273 C4271 1.390 . S
C4273 C4274 1.387 . S
C4273 H4276 0.950 . S
C4274 C4273 1.387 . S
C4274 C4277 1.387 . S
H4275 C4271 0.950 . S
H4276 C4273 0.950 . S
C4277 C4268 1.390 . S
C4277 H4270 0.950 . S
C4277 C4274 1.387 . S
C4278 C4279 1.387 . S
C4278 H4282 0.950 . S
C4278 C4287 1.390 . S
C4279 C4278 1.387 . S
C4279 C4281 1.387 . S
H4280 C4287 0.950 . S
C4281 C4279 1.387 . S
C4281 C4283 1.390 . S
C4281 H4285 0.950 . S
H4282 C4278 0.950 . S
C4283 C4281 1.390 . S
C4283 C4284 1.387 . S
C4283 H4286 0.950 . S
C4284 C4283 1.387 . S
C4284 C4287 1.387 . S
H4285 C4281 0.950 . S
H4286 C4283 0.950 . S
C4287 C4278 1.390 . S
C4287 H4280 0.950 . S
C4287 C4284 1.387 . S
C4288 C4289 1.387 . S
C4288 H4292 0.950 . S
C4288 C4297 1.390 . S
C4289 C4288 1.387 . S
C4289 C4291 1.387 . S
H4290 C4297 0.950 . S
C4291 C4289 1.387 . S
C4291 C4293 1.390 . S
C4291 H4295 0.950 . S
H4292 C4288 0.950 . S
C4293 C4291 1.390 . S
C4293 C4294 1.387 . S
C4293 H4296 0.950 . S
C4294 C4293 1.387 . S
C4294 C4297 1.387 . S
H4295 C4291 0.950 . S
H4296 C4293 0.950 . S
C4297 C4288 1.390 . S
C4297 H4290 0.950 . S
C4297 C4294 1.387 . S
C4298 C4299 1.387 . S
C4298 H4302 0.950 . S
C4298 C4307 1.390 . S
C4299 C4298 1.387 . S
C4299 C4301 1.387 . S
H4300 C4307 0.950 . S
C4301 C4299 1.387 . S
C4301 C4303 1.390 . S
C4301 H4305 0.950 . S
H4302 C4298 0.950 . S
C4303 C4301 1.390 . S
C4303 C4304 1.387 . S
C4303 H4306 0.950 . S
C4304 C4303 1.387 . S
C4304 C4307 1.387 . S
H4305 C4301 0.950 . S
H4306 C4303 0.950 . S
C4307 C4298 1.390 . S
C4307 H4300 0.950 . S
C4307 C4304 1.387 . S
C4308 C4309 1.387 . S
C4308 H4312 0.950 . S
C4308 C4317 1.390 . S
C4309 C4308 1.387 . S
C4309 C4311 1.387 . S
H4310 C4317 0.950 . S
C4311 C4309 1.387 . S
C4311 C4313 1.390 . S
C4311 H4315 0.950 . S
H4312 C4308 0.950 . S
C4313 C4311 1.390 . S
C4313 C4314 1.387 . S
C4313 H4316 0.950 . S
C4314 C4313 1.387 . S
C4314 C4317 1.387 . S
H4315 C4311 0.950 . S
H4316 C4313 0.950 . S
C4317 C4308 1.390 . S
C4317 H4310 0.950 . S
C4317 C4314 1.387 . S
C4318 C4319 1.387 . S
C4318 H4322 0.950 . S
C4318 C4327 1.390 . S
C4319 C4318 1.387 . S
C4319 C4321 1.387 . S
H4320 C4327 0.950 . S
C4321 C4319 1.387 . S
C4321 C4323 1.390 . S
C4321 H4325 0.950 . S
H4322 C4318 0.950 . S
C4323 C4321 1.390 . S
C4323 C4324 1.387 . S
C4323 H4326 0.950 . S
C4324 C4323 1.387 . S
C4324 C4327 1.387 . S
H4325 C4321 0.950 . S
H4326 C4323 0.950 . S
C4327 C4318 1.390 . S
C4327 H4320 0.950 . S
C4327 C4324 1.387 . S
C4328 C4329 1.387 . S
C4328 H4332 0.950 . S
C4328 C4337 1.390 . S
C4329 C4328 1.387 . S
C4329 C4331 1.387 . S
H4330 C4337 0.950 . S
C4331 C4329 1.387 . S
C4331 C4333 1.390 . S
C4331 H4335 0.950 . S
H4332 C4328 0.950 . S
C4333 C4331 1.390 . S
C4333 C4334 1.387 . S
C4333 H4336 0.950 . S
C4334 C4333 1.387 . S
C4334 C4337 1.387 . S
H4335 C4331 0.950 . S
H4336 C4333 0.950 . S
C4337 C4328 1.390 . S
C4337 H4330 0.950 . S
C4337 C4334 1.387 . S
C4338 C4339 1.387 . S
C4338 H4342 0.950 . S
C4338 C4347 1.390 . S
C4339 C4338 1.387 . S
C4339 C4341 1.387 . S
H4340 C4347 0.950 . S
C4341 C4339 1.387 . S
C4341 C4343 1.390 . S
C4341 H4345 0.950 . S
H4342 C4338 0.950 . S
C4343 C4341 1.390 . S
C4343 C4344 1.387 . S
C4343 H4346 0.950 . S
C4344 C4343 1.387 . S
C4344 C4347 1.387 . S
H4345 C4341 0.950 . S
H4346 C4343 0.950 . S
C4347 C4338 1.390 . S
C4347 H4340 0.950 . S
C4347 C4344 1.387 . S
C4348 C4349 1.387 . S
C4348 H4352 0.950 . S
C4348 C4357 1.390 . S
C4349 C4348 1.387 . S
C4349 C4351 1.387 . S
H4350 C4357 0.950 . S
C4351 C4349 1.387 . S
C4351 C4353 1.390 . S
C4351 H4355 0.950 . S
H4352 C4348 0.950 . S
C4353 C4351 1.390 . S
C4353 C4354 1.387 . S
C4353 H4356 0.950 . S
C4354 C4353 1.387 . S
C4354 C4357 1.387 . S
H4355 C4351 0.950 . S
H4356 C4353 0.950 . S
C4357 C4348 1.390 . S
C4357 H4350 0.950 . S
C4357 C4354 1.387 . S
C4358 C4359 1.387 . S
C4358 H4362 0.950 . S
C4358 C4367 1.390 . S
C4359 C4358 1.387 . S
C4359 C4361 1.387 . S
H4360 C4367 0.950 . S
C4361 C4359 1.387 . S
C4361 C4363 1.390 . S
C4361 H4365 0.950 . S
H4362 C4358 0.950 . S
C4363 C4361 1.390 . S
C4363 C4364 1.387 . S
C4363 H4366 0.950 . S
C4364 C4363 1.387 . S
C4364 C4367 1.387 . S
H4365 C4361 0.950 . S
H4366 C4363 0.950 . S
C4367 C4358 1.390 . S
C4367 H4360 0.950 . S
C4367 C4364 1.387 . S
C4368 C4369 1.387 . S
C4368 H4372 0.950 . S
C4368 C4377 1.390 . S
C4369 C4368 1.387 . S
C4369 C4371 1.387 . S
H4370 C4377 0.950 . S
C4371 C4369 1.387 . S
C4371 C4373 1.390 . S
C4371 H4375 0.950 . S
H4372 C4368 0.950 . S
C4373 C4371 1.390 . S
C4373 C4374 1.387 . S
C4373 H4376 0.950 . S
C4374 C4373 1.387 . S
C4374 C4377 1.387 . S
H4375 C4371 0.950 . S
H4376 C4373 0.950 . S
C4377 C4368 1.390 . S
C4377 H4370 0.950 . S
C4377 C4374 1.387 . S
C4378 C4379 1.387 . S
C4378 H4382 0.950 . S
C4378 C4387 1.390 . S
C4379 C4378 1.387 . S
C4379 C4381 1.387 . S
H4380 C4387 0.950 . S
C4381 C4379 1.387 . S
C4381 C4383 1.390 . S
C4381 H4385 0.950 . S
H4382 C4378 0.950 . S
C4383 C4381 1.390 . S
C4383 C4384 1.387 . S
C4383 H4386 0.950 . S
C4384 C4383 1.387 . S
C4384 C4387 1.387 . S
H4385 C4381 0.950 . S
H4386 C4383 0.950 . S
C4387 C4378 1.390 . S
C4387 H4380 0.950 . S
C4387 C4384 1.387 . S
C4388 C4389 1.387 . S
C4388 H4392 0.950 . S
C4388 C4397 1.390 . S
C4389 C4388 1.387 . S
C4389 C4391 1.387 . S
H4390 C4397 0.950 . S
C4391 C4389 1.387 . S
C4391 C4393 1.390 . S
C4391 H4395 0.950 . S
H4392 C4388 0.950 . S
C4393 C4391 1.390 . S
C4393 C4394 1.387 . S
C4393 H4396 0.950 . S
C4394 C4393 1.387 . S
C4394 C4397 1.387 . S
H4395 C4391 0.950 . S
H4396 C4393 0.950 . S
C4397 C4388 1.390 . S
C4397 H4390 0.950 . S
C4397 C4394 1.387 . S
C4398 C4399 1.387 . S
C4398 H4402 0.950 . S
C4398 C4407 1.390 . S
C4399 C4398 1.387 . S
C4399 C4401 1.387 . S
H4400 C4407 0.950 . S
C4401 C4399 1.387 . S
C4401 C4403 1.390 . S
C4401 H4405 0.950 . S
H4402 C4398 0.950 . S
C4403 C4401 1.390 . S
C4403 C4404 1.387 . S
C4403 H4406 0.950 . S
C4404 C4403 1.387 . S
C4404 C4407 1.387 . S
H4405 C4401 0.950 . S
H4406 C4403 0.950 . S
C4407 C4398 1.390 . S
C4407 H4400 0.950 . S
C4407 C4404 1.387 . S
C4408 C4409 1.387 . S
C4408 H4412 0.950 . S
C4408 C4417 1.390 . S
C4409 C4408 1.387 . S
C4409 C4411 1.387 . S
H4410 C4417 0.950 . S
C4411 C4409 1.387 . S
C4411 C4413 1.390 . S
C4411 H4415 0.950 . S
H4412 C4408 0.950 . S
C4413 C4411 1.390 . S
C4413 C4414 1.387 . S
C4413 H4416 0.950 . S
C4414 C4413 1.387 . S
C4414 C4417 1.387 . S
H4415 C4411 0.950 . S
H4416 C4413 0.950 . S
C4417 C4408 1.390 . S
C4417 H4410 0.950 . S
C4417 C4414 1.387 . S
C4418 C4419 1.387 . S
C4418 H4422 0.950 . S
C4418 C4427 1.390 . S
C4419 C4418 1.387 . S
C4419 C4421 1.387 . S
H4420 C4427 0.950 . S
C4421 C4419 1.387 . S
C4421 C4423 1.390 . S
C4421 H4425 0.950 . S
H4422 C4418 0.950 . S
C4423 C4421 1.390 . S
C4423 C4424 1.387 . S
C4423 H4426 0.950 . S
C4424 C4423 1.387 . S
C4424 C4427 1.387 . S
H4425 C4421 0.950 . S
H4426 C4423 0.950 . S
C4427 C4418 1.390 . S
C4427 H4420 0.950 . S
C4427 C4424 1.387 . S
C4428 C4429 1.387 . S
C4428 H4432 0.950 . S
C4428 C4437 1.390 . S
C4429 C4428 1.387 . S
C4429 C4431 1.387 . S
H4430 C4437 0.950 . S
C4431 C4429 1.387 . S
C4431 C4433 1.390 . S
C4431 H4435 0.950 . S
H4432 C4428 0.950 . S
C4433 C4431 1.390 . S
C4433 C4434 1.387 . S
C4433 H4436 0.950 . S
C4434 C4433 1.387 . S
C4434 C4437 1.387 . S
H4435 C4431 0.950 . S
H4436 C4433 0.950 . S
C4437 C4428 1.390 . S
C4437 H4430 0.950 . S
C4437 C4434 1.387 . S
C4438 C4439 1.387 . S
C4438 H4442 0.950 . S
C4438 C4447 1.390 . S
C4439 C4438 1.387 . S
C4439 C4441 1.387 . S
H4440 C4447 0.950 . S
C4441 C4439 1.387 . S
C4441 C4443 1.390 . S
C4441 H4445 0.950 . S
H4442 C4438 0.950 . S
C4443 C4441 1.390 . S
C4443 C4444 1.387 . S
C4443 H4446 0.950 . S
C4444 C4443 1.387 . S
C4444 C4447 1.387 . S
H4445 C4441 0.950 . S
H4446 C4443 0.950 . S
C4447 C4438 1.390 . S
C4447 H4440 0.950 . S
C4447 C4444 1.387 . S
C4448 C4449 1.387 . S
C4448 H4452 0.950 . S
C4448 C4457 1.390 . S
C4449 C4448 1.387 . S
C4449 C4451 1.387 . S
H4450 C4457 0.950 . S
C4451 C4449 1.387 . S
C4451 C4453 1.390 . S
C4451 H4455 0.950 . S
H4452 C4448 0.950 . S
C4453 C4451 1.390 . S
C4453 C4454 1.387 . S
C4453 H4456 0.950 . S
C4454 C4453 1.387 . S
C4454 C4457 1.387 . S
H4455 C4451 0.950 . S
H4456 C4453 0.950 . S
C4457 C4448 1.390 . S
C4457 H4450 0.950 . S
C4457 C4454 1.387 . S
C4458 C4459 1.387 . S
C4458 H4462 0.950 . S
C4458 C4467 1.390 . S
C4459 C4458 1.387 . S
C4459 C4461 1.387 . S
H4460 C4467 0.950 . S
C4461 C4459 1.387 . S
C4461 C4463 1.390 . S
C4461 H4465 0.950 . S
H4462 C4458 0.950 . S
C4463 C4461 1.390 . S
C4463 C4464 1.387 . S
C4463 H4466 0.950 . S
C4464 C4463 1.387 . S
C4464 C4467 1.387 . S
H4465 C4461 0.950 . S
H4466 C4463 0.950 . S
C4467 C4458 1.390 . S
C4467 H4460 0.950 . S
C4467 C4464 1.387 . S
C4468 C4469 1.387 . S
C4468 H4472 0.950 . S
C4468 C4477 1.390 . S
C4469 C4468 1.387 . S
C4469 C4471 1.387 . S
H4470 C4477 0.950 . S
C4471 C4469 1.387 . S
C4471 C4473 1.390 . S
C4471 H4475 0.950 . S
H4472 C4468 0.950 . S
C4473 C4471 1.390 . S
C4473 C4474 1.387 . S
C4473 H4476 0.950 . S
C4474 C4473 1.387 . S
C4474 C4477 1.387 . S
H4475 C4471 0.950 . S
H4476 C4473 0.950 . S
C4477 C4468 1.390 . S
C4477 H4470 0.950 . S
C4477 C4474 1.387 . S
C4478 C4479 1.387 . S
C4478 H4482 0.950 . S
C4478 C4487 1.390 . S
C4479 C4478 1.387 . S
C4479 C4481 1.387 . S
H4480 C4487 0.950 . S
C4481 C4479 1.387 . S
C4481 C4483 1.390 . S
C4481 H4485 0.950 . S
H4482 C4478 0.950 . S
C4483 C4481 1.390 . S
C4483 C4484 1.387 . S
C4483 H4486 0.950 . S
C4484 C4483 1.387 . S
C4484 C4487 1.387 . S
H4485 C4481 0.950 . S
H4486 C4483 0.950 . S
C4487 C4478 1.390 . S
C4487 H4480 0.950 . S
C4487 C4484 1.387 . S
C4488 C4489 1.387 . S
C4488 H4492 0.950 . S
C4488 C4497 1.390 . S
C4489 C4488 1.387 . S
C4489 C4491 1.387 . S
H4490 C4497 0.950 . S
C4491 C4489 1.387 . S
C4491 C4493 1.390 . S
C4491 H4495 0.950 . S
H4492 C4488 0.950 . S
C4493 C4491 1.390 . S
C4493 C4494 1.387 . S
C4493 H4496 0.950 . S
C4494 C4493 1.387 . S
C4494 C4497 1.387 . S
H4495 C4491 0.950 . S
H4496 C4493 0.950 . S
C4497 C4488 1.390 . S
C4497 H4490 0.950 . S
C4497 C4494 1.387 . S
C4498 C4499 1.387 . S
C4498 H4502 0.950 . S
C4498 C4507 1.390 . S
C4499 C4498 1.387 . S
C4499 C4501 1.387 . S
H4500 C4507 0.950 . S
C4501 C4499 1.387 . S
C4501 C4503 1.390 . S
C4501 H4505 0.950 . S
H4502 C4498 0.950 . S
C4503 C4501 1.390 . S
C4503 C4504 1.387 . S
C4503 H4506 0.950 . S
C4504 C4503 1.387 . S
C4504 C4507 1.387 . S
H4505 C4501 0.950 . S
H4506 C4503 0.950 . S
C4507 C4498 1.390 . S
C4507 H4500 0.950 . S
C4507 C4504 1.387 . S
C4508 C4509 1.387 . S
C4508 H4512 0.950 . S
C4508 C4517 1.390 . S
C4509 C4508 1.387 . S
C4509 C4511 1.387 . S
H4510 C4517 0.950 . S
C4511 C4509 1.387 . S
C4511 C4513 1.390 . S
C4511 H4515 0.950 . S
H4512 C4508 0.950 . S
C4513 C4511 1.390 . S
C4513 C4514 1.387 . S
C4513 H4516 0.950 . S
C4514 C4513 1.387 . S
C4514 C4517 1.387 . S
H4515 C4511 0.950 . S
H4516 C4513 0.950 . S
C4517 C4508 1.390 . S
C4517 H4510 0.950 . S
C4517 C4514 1.387 . S
C4518 C4519 1.387 . S
C4518 H4522 0.950 . S
C4518 C4527 1.390 . S
C4519 C4518 1.387 . S
C4519 C4521 1.387 . S
H4520 C4527 0.950 . S
C4521 C4519 1.387 . S
C4521 C4523 1.390 . S
C4521 H4525 0.950 . S
H4522 C4518 0.950 . S
C4523 C4521 1.390 . S
C4523 C4524 1.387 . S
C4523 H4526 0.950 . S
C4524 C4523 1.387 . S
C4524 C4527 1.387 . S
H4525 C4521 0.950 . S
H4526 C4523 0.950 . S
C4527 C4518 1.390 . S
C4527 H4520 0.950 . S
C4527 C4524 1.387 . S
C4528 C4529 1.387 . S
C4528 H4532 0.950 . S
C4528 C4537 1.390 . S
C4529 C4528 1.387 . S
C4529 C4531 1.387 . S
H4530 C4537 0.950 . S
C4531 C4529 1.387 . S
C4531 C4533 1.390 . S
C4531 H4535 0.950 . S
H4532 C4528 0.950 . S
C4533 C4531 1.390 . S
C4533 C4534 1.387 . S
C4533 H4536 0.950 . S
C4534 C4533 1.387 . S
C4534 C4537 1.387 . S
H4535 C4531 0.950 . S
H4536 C4533 0.950 . S
C4537 C4528 1.390 . S
C4537 H4530 0.950 . S
C4537 C4534 1.387 . S
C4538 C4539 1.387 . S
C4538 H4542 0.950 . S
C4538 C4547 1.390 . S
C4539 C4538 1.387 . S
C4539 C4541 1.387 . S
H4540 C4547 0.950 . S
C4541 C4539 1.387 . S
C4541 C4543 1.390 . S
C4541 H4545 0.950 . S
H4542 C4538 0.950 . S
C4543 C4541 1.390 . S
C4543 C4544 1.387 . S
C4543 H4546 0.950 . S
C4544 C4543 1.387 . S
C4544 C4547 1.387 . S
H4545 C4541 0.950 . S
H4546 C4543 0.950 . S
C4547 C4538 1.390 . S
C4547 H4540 0.950 . S
C4547 C4544 1.387 . S
C4548 C4549 1.387 . S
C4548 H4552 0.950 . S
C4548 C4557 1.390 . S
C4549 C4548 1.387 . S
C4549 C4551 1.387 . S
H4550 C4557 0.950 . S
C4551 C4549 1.387 . S
C4551 C4553 1.390 . S
C4551 H4555 0.950 . S
H4552 C4548 0.950 . S
C4553 C4551 1.390 . S
C4553 C4554 1.387 . S
C4553 H4556 0.950 . S
C4554 C4553 1.387 . S
C4554 C4557 1.387 . S
H4555 C4551 0.950 . S
H4556 C4553 0.950 . S
C4557 C4548 1.390 . S
C4557 H4550 0.950 . S
C4557 C4554 1.387 . S
C4558 C4559 1.387 . S
C4558 H4562 0.950 . S
C4558 C4567 1.390 . S
C4559 C4558 1.387 . S
C4559 C4561 1.387 . S
H4560 C4567 0.950 . S
C4561 C4559 1.387 . S
C4561 C4563 1.390 . S
C4561 H4565 0.950 . S
H4562 C4558 0.950 . S
C4563 C4561 1.390 . S
C4563 C4564 1.387 . S
C4563 H4566 0.950 . S
C4564 C4563 1.387 . S
C4564 C4567 1.387 . S
H4565 C4561 0.950 . S
H4566 C4563 0.950 . S
C4567 C4558 1.390 . S
C4567 H4560 0.950 . S
C4567 C4564 1.387 . S
C4568 C4569 1.387 . S
C4568 H4572 0.950 . S
C4568 C4577 1.390 . S
C4569 C4568 1.387 . S
C4569 C4571 1.387 . S
H4570 C4577 0.950 . S
C4571 C4569 1.387 . S
C4571 C4573 1.390 . S
C4571 H4575 0.950 . S
H4572 C4568 0.950 . S
C4573 C4571 1.390 . S
C4573 C4574 1.387 . S
C4573 H4576 0.950 . S
C4574 C4573 1.387 . S
C4574 C4577 1.387 . S
H4575 C4571 0.950 . S
H4576 C4573 0.950 . S
C4577 C4568 1.390 . S
C4577 H4570 0.950 . S
C4577 C4574 1.387 . S
C4578 C4579 1.387 . S
C4578 H4582 0.950 . S
C4578 C4587 1.390 . S
C4579 C4578 1.387 . S
C4579 C4581 1.387 . S
H4580 C4587 0.950 . S
C4581 C4579 1.387 . S
C4581 C4583 1.390 . S
C4581 H4585 0.950 . S
H4582 C4578 0.950 . S
C4583 C4581 1.390 . S
C4583 C4584 1.387 . S
C4583 H4586 0.950 . S
C4584 C4583 1.387 . S
C4584 C4587 1.387 . S
H4585 C4581 0.950 . S
H4586 C4583 0.950 . S
C4587 C4578 1.390 . S
C4587 H4580 0.950 . S
C4587 C4584 1.387 . S
C4588 C4589 1.387 . S
C4588 H4592 0.950 . S
C4588 C4597 1.390 . S
C4589 C4588 1.387 . S
C4589 C4591 1.387 . S
H4590 C4597 0.950 . S
C4591 C4589 1.387 . S
C4591 C4593 1.390 . S
C4591 H4595 0.950 . S
H4592 C4588 0.950 . S
C4593 C4591 1.390 . S
C4593 C4594 1.387 . S
C4593 H4596 0.950 . S
C4594 C4593 1.387 . S
C4594 C4597 1.387 . S
H4595 C4591 0.950 . S
H4596 C4593 0.950 . S
C4597 C4588 1.390 . S
C4597 H4590 0.950 . S
C4597 C4594 1.387 . S
C4598 C4599 1.387 . S
C4598 H4602 0.950 . S
C4598 C4607 1.390 . S
C4599 C4598 1.387 . S
C4599 C4601 1.387 . S
H4600 C4607 0.950 . S
C4601 C4599 1.387 . S
C4601 C4603 1.390 . S
C4601 H4605 0.950 . S
H4602 C4598 0.950 . S
C4603 C4601 1.390 . S
C4603 C4604 1.387 . S
C4603 H4606 0.950 . S
C4604 C4603 1.387 . S
C4604 C4607 1.387 . S
H4605 C4601 0.950 . S
H4606 C4603 0.950 . S
C4607 C4598 1.390 . S
C4607 H4600 0.950 . S
C4607 C4604 1.387 . S
C4608 C4609 1.387 . S
C4608 H4612 0.950 . S
C4608 C4617 1.390 . S
C4609 C4608 1.387 . S
C4609 C4611 1.387 . S
H4610 C4617 0.950 . S
C4611 C4609 1.387 . S
C4611 C4613 1.390 . S
C4611 H4615 0.950 . S
H4612 C4608 0.950 . S
C4613 C4611 1.390 . S
C4613 C4614 1.387 . S
C4613 H4616 0.950 . S
C4614 C4613 1.387 . S
C4614 C4617 1.387 . S
H4615 C4611 0.950 . S
H4616 C4613 0.950 . S
C4617 C4608 1.390 . S
C4617 H4610 0.950 . S
C4617 C4614 1.387 . S
C4618 C4619 1.387 . S
C4618 H4622 0.950 . S
C4618 C4627 1.390 . S
C4619 C4618 1.387 . S
C4619 C4621 1.387 . S
H4620 C4627 0.950 . S
C4621 C4619 1.387 . S
C4621 C4623 1.390 . S
C4621 H4625 0.950 . S
H4622 C4618 0.950 . S
C4623 C4621 1.390 . S
C4623 C4624 1.387 . S
C4623 H4626 0.950 . S
C4624 C4623 1.387 . S
C4624 C4627 1.387 . S
H4625 C4621 0.950 . S
H4626 C4623 0.950 . S
C4627 C4618 1.390 . S
C4627 H4620 0.950 . S
C4627 C4624 1.387 . S
C4628 C4629 1.387 . S
C4628 H4632 0.950 . S
C4628 C4637 1.390 . S
C4629 C4628 1.387 . S
C4629 C4631 1.387 . S
H4630 C4637 0.950 . S
C4631 C4629 1.387 . S
C4631 C4633 1.390 . S
C4631 H4635 0.950 . S
H4632 C4628 0.950 . S
C4633 C4631 1.390 . S
C4633 C4634 1.387 . S
C4633 H4636 0.950 . S
C4634 C4633 1.387 . S
C4634 C4637 1.387 . S
H4635 C4631 0.950 . S
H4636 C4633 0.950 . S
C4637 C4628 1.390 . S
C4637 H4630 0.950 . S
C4637 C4634 1.387 . S
C4638 C4639 1.387 . S
C4638 H4642 0.950 . S
C4638 C4647 1.390 . S
C4639 C4638 1.387 . S
C4639 C4641 1.387 . S
H4640 C4647 0.950 . S
C4641 C4639 1.387 . S
C4641 C4643 1.390 . S
C4641 H4645 0.950 . S
H4642 C4638 0.950 . S
C4643 C4641 1.390 . S
C4643 C4644 1.387 . S
C4643 H4646 0.950 . S
C4644 C4643 1.387 . S
C4644 C4647 1.387 . S
H4645 C4641 0.950 . S
H4646 C4643 0.950 . S
C4647 C4638 1.390 . S
C4647 H4640 0.950 . S
C4647 C4644 1.387 . S
C4648 C4649 1.387 . S
C4648 H4652 0.950 . S
C4648 C4657 1.390 . S
C4649 C4648 1.387 . S
C4649 C4651 1.387 . S
H4650 C4657 0.950 . S
C4651 C4649 1.387 . S
C4651 C4653 1.390 . S
C4651 H4655 0.950 . S
H4652 C4648 0.950 . S
C4653 C4651 1.390 . S
C4653 C4654 1.387 . S
C4653 H4656 0.950 . S
C4654 C4653 1.387 . S
C4654 C4657 1.387 . S
H4655 C4651 0.950 . S
H4656 C4653 0.950 . S
C4657 C4648 1.390 . S
C4657 H4650 0.950 . S
C4657 C4654 1.387 . S
C4658 C4659 1.387 . S
C4658 H4662 0.950 . S
C4658 C4667 1.390 . S
C4659 C4658 1.387 . S
C4659 C4661 1.387 . S
H4660 C4667 0.950 . S
C4661 C4659 1.387 . S
C4661 C4663 1.390 . S
C4661 H4665 0.950 . S
H4662 C4658 0.950 . S
C4663 C4661 1.390 . S
C4663 C4664 1.387 . S
C4663 H4666 0.950 . S
C4664 C4663 1.387 . S
C4664 C4667 1.387 . S
H4665 C4661 0.950 . S
H4666 C4663 0.950 . S
C4667 C4658 1.390 . S
C4667 H4660 0.950 . S
C4667 C4664 1.387 . S
C4668 C4669 1.387 . S
C4668 H4672 0.950 . S
C4668 C4677 1.390 . S
C4669 C4668 1.387 . S
C4669 C4671 1.387 . S
H4670 C4677 0.950 . S
C4671 C4669 1.387 . S
C4671 C4673 1.390 . S
C4671 H4675 0.950 . S
H4672 C4668 0.950 . S
C4673 C4671 1.390 . S
C4673 C4674 1.387 . S
C4673 H4676 0.950 . S
C4674 C4673 1.387 . S
C4674 C4677 1.387 . S
H4675 C4671 0.950 . S
H4676 C4673 0.950 . S
C4677 C4668 1.390 . S
C4677 H4670 0.950 . S
C4677 C4674 1.387 . S
C4678 C4679 1.387 . S
C4678 H4682 0.950 . S
C4678 C4687 1.390 . S
C4679 C4678 1.387 . S
C4679 C4681 1.387 . S
H4680 C4687 0.950 . S
C4681 C4679 1.387 . S
C4681 C4683 1.390 . S
C4681 H4685 0.950 . S
H4682 C4678 0.950 . S
C4683 C4681 1.390 . S
C4683 C4684 1.387 . S
C4683 H4686 0.950 . S
C4684 C4683 1.387 . S
C4684 C4687 1.387 . S
H4685 C4681 0.950 . S
H4686 C4683 0.950 . S
C4687 C4678 1.390 . S
C4687 H4680 0.950 . S
C4687 C4684 1.387 . S
C4688 C4689 1.387 . S
C4688 H4692 0.950 . S
C4688 C4697 1.390 . S
C4689 C4688 1.387 . S
C4689 C4691 1.387 . S
H4690 C4697 0.950 . S
C4691 C4689 1.387 . S
C4691 C4693 1.390 . S
C4691 H4695 0.950 . S
H4692 C4688 0.950 . S
C4693 C4691 1.390 . S
C4693 C4694 1.387 . S
C4693 H4696 0.950 . S
C4694 C4693 1.387 . S
C4694 C4697 1.387 . S
H4695 C4691 0.950 . S
H4696 C4693 0.950 . S
C4697 C4688 1.390 . S
C4697 H4690 0.950 . S
C4697 C4694 1.387 . S
C4698 C4699 1.387 . S
C4698 H4702 0.950 . S
C4698 C4707 1.390 . S
C4699 C4698 1.387 . S
C4699 C4701 1.387 . S
H4700 C4707 0.950 . S
C4701 C4699 1.387 . S
C4701 C4703 1.390 . S
C4701 H4705 0.950 . S
H4702 C4698 0.950 . S
C4703 C4701 1.390 . S
C4703 C4704 1.387 . S
C4703 H4706 0.950 . S
C4704 C4703 1.387 . S
C4704 C4707 1.387 . S
H4705 C4701 0.950 . S
H4706 C4703 0.950 . S
C4707 C4698 1.390 . S
C4707 H4700 0.950 . S
C4707 C4704 1.387 . S
C4708 C4709 1.387 . S
C4708 H4712 0.950 . S
C4708 C4717 1.390 . S
C4709 C4708 1.387 . S
C4709 C4711 1.387 . S
H4710 C4717 0.950 . S
C4711 C4709 1.387 . S
C4711 C4713 1.390 . S
C4711 H4715 0.950 . S
H4712 C4708 0.950 . S
C4713 C4711 1.390 . S
C4713 C4714 1.387 . S
C4713 H4716 0.950 . S
C4714 C4713 1.387 . S
C4714 C4717 1.387 . S
H4715 C4711 0.950 . S
H4716 C4713 0.950 . S
C4717 C4708 1.390 . S
C4717 H4710 0.950 . S
C4717 C4714 1.387 . S
C4718 C4719 1.387 . S
C4718 H4722 0.950 . S
C4718 C4727 1.390 . S
C4719 C4718 1.387 . S
C4719 C4721 1.387 . S
H4720 C4727 0.950 . S
C4721 C4719 1.387 . S
C4721 C4723 1.390 . S
C4721 H4725 0.950 . S
H4722 C4718 0.950 . S
C4723 C4721 1.390 . S
C4723 C4724 1.387 . S
C4723 H4726 0.950 . S
C4724 C4723 1.387 . S
C4724 C4727 1.387 . S
H4725 C4721 0.950 . S
H4726 C4723 0.950 . S
C4727 C4718 1.390 . S
C4727 H4720 0.950 . S
C4727 C4724 1.387 . S
C4728 C4729 1.387 . S
C4728 H4732 0.950 . S
C4728 C4737 1.390 . S
C4729 C4728 1.387 . S
C4729 C4731 1.387 . S
H4730 C4737 0.950 . S
C4731 C4729 1.387 . S
C4731 C4733 1.390 . S
C4731 H4735 0.950 . S
H4732 C4728 0.950 . S
C4733 C4731 1.390 . S
C4733 C4734 1.387 . S
C4733 H4736 0.950 . S
C4734 C4733 1.387 . S
C4734 C4737 1.387 . S
H4735 C4731 0.950 . S
H4736 C4733 0.950 . S
C4737 C4728 1.390 . S
C4737 H4730 0.950 . S
C4737 C4734 1.387 . S
C4738 C4739 1.387 . S
C4738 H4742 0.950 . S
C4738 C4747 1.390 . S
C4739 C4738 1.387 . S
C4739 C4741 1.387 . S
H4740 C4747 0.950 . S
C4741 C4739 1.387 . S
C4741 C4743 1.390 . S
C4741 H4745 0.950 . S
H4742 C4738 0.950 . S
C4743 C4741 1.390 . S
C4743 C4744 1.387 . S
C4743 H4746 0.950 . S
C4744 C4743 1.387 . S
C4744 C4747 1.387 . S
H4745 C4741 0.950 . S
H4746 C4743 0.950 . S
C4747 C4738 1.390 . S
C4747 H4740 0.950 . S
C4747 C4744 1.387 . S
C4748 C4749 1.387 . S
C4748 H4752 0.950 . S
C4748 C4757 1.390 . S
C4749 C4748 1.387 . S
C4749 C4751 1.387 . S
H4750 C4757 0.950 . S
C4751 C4749 1.387 . S
C4751 C4753 1.390 . S
C4751 H4755 0.950 . S
H4752 C4748 0.950 . S
C4753 C4751 1.390 . S
C4753 C4754 1.387 . S
C4753 H4756 0.950 . S
C4754 C4753 1.387 . S
C4754 C4757 1.387 . S
H4755 C4751 0.950 . S
H4756 C4753 0.950 . S
C4757 C4748 1.390 . S
C4757 H4750 0.950 . S
C4757 C4754 1.387 . S
C4758 C4759 1.387 . S
C4758 H4762 0.950 . S
C4758 C4767 1.390 . S
C4759 C4758 1.387 . S
C4759 C4761 1.387 . S
H4760 C4767 0.950 . S
C4761 C4759 1.387 . S
C4761 C4763 1.390 . S
C4761 H4765 0.950 . S
H4762 C4758 0.950 . S
C4763 C4761 1.390 . S
C4763 C4764 1.387 . S
C4763 H4766 0.950 . S
C4764 C4763 1.387 . S
C4764 C4767 1.387 . S
H4765 C4761 0.950 . S
H4766 C4763 0.950 . S
C4767 C4758 1.390 . S
C4767 H4760 0.950 . S
C4767 C4764 1.387 . S
C4768 C4769 1.387 . S
C4768 H4772 0.950 . S
C4768 C4777 1.390 . S
C4769 C4768 1.387 . S
C4769 C4771 1.387 . S
H4770 C4777 0.950 . S
C4771 C4769 1.387 . S
C4771 C4773 1.390 . S
C4771 H4775 0.950 . S
H4772 C4768 0.950 . S
C4773 C4771 1.390 . S
C4773 C4774 1.387 . S
C4773 H4776 0.950 . S
C4774 C4773 1.387 . S
C4774 C4777 1.387 . S
H4775 C4771 0.950 . S
H4776 C4773 0.950 . S
C4777 C4768 1.390 . S
C4777 H4770 0.950 . S
C4777 C4774 1.387 . S
C4778 C4779 1.387 . S
C4778 H4782 0.950 . S
C4778 C4787 1.390 . S
C4779 C4778 1.387 . S
C4779 C4781 1.387 . S
H4780 C4787 0.950 . S
C4781 C4779 1.387 . S
C4781 C4783 1.390 . S
C4781 H4785 0.950 . S
H4782 C4778 0.950 . S
C4783 C4781 1.390 . S
C4783 C4784 1.387 . S
C4783 H4786 0.950 . S
C4784 C4783 1.387 . S
C4784 C4787 1.387 . S
H4785 C4781 0.950 . S
H4786 C4783 0.950 . S
C4787 C4778 1.390 . S
C4787 H4780 0.950 . S
C4787 C4784 1.387 . S
C4788 C4789 1.387 . S
C4788 H4792 0.950 . S
C4788 C4797 1.390 . S
C4789 C4788 1.387 . S
C4789 C4791 1.387 . S
H4790 C4797 0.950 . S
C4791 C4789 1.387 . S
C4791 C4793 1.390 . S
C4791 H4795 0.950 . S
H4792 C4788 0.950 . S
C4793 C4791 1.390 . S
C4793 C4794 1.387 . S
C4793 H4796 0.950 . S
C4794 C4793 1.387 . S
C4794 C4797 1.387 . S
H4795 C4791 0.950 . S
H4796 C4793 0.950 . S
C4797 C4788 1.390 . S
C4797 H4790 0.950 . S
C4797 C4794 1.387 . S
C4798 C4799 1.387 . S
C4798 H4802 0.950 . S
C4798 C4807 1.390 . S
C4799 C4798 1.387 . S
C4799 C4801 1.387 . S
H4800 C4807 0.950 . S
C4801 C4799 1.387 . S
C4801 C4803 1.390 . S
C4801 H4805 0.950 . S
H4802 C4798 0.950 . S
C4803 C4801 1.390 . S
C4803 C4804 1.387 . S
C4803 H4806 0.950 . S
C4804 C4803 1.387 . S
C4804 C4807 1.387 . S
H4805 C4801 0.950 . S
H4806 C4803 0.950 . S
C4807 C4798 1.390 . S
C4807 H4800 0.950 . S
C4807 C4804 1.387 . S
C4808 C4809 1.387 . S
C4808 H4812 0.950 . S
C4808 C4817 1.390 . S
C4809 C4808 1.387 . S
C4809 C4811 1.387 . S
H4810 C4817 0.950 . S
C4811 C4809 1.387 . S
C4811 C4813 1.390 . S
C4811 H4815 0.950 . S
H4812 C4808 0.950 . S
C4813 C4811 1.390 . S
C4813 C4814 1.387 . S
C4813 H4816 0.950 . S
C4814 C4813 1.387 . S
C4814 C4817 1.387 . S
H4815 C4811 0.950 . S
H4816 C4813 0.950 . S
C4817 C4808 1.390 . S
C4817 H4810 0.950 . S
C4817 C4814 1.387 . S
C4818 C4819 1.387 . S
C4818 H4822 0.950 . S
C4818 C4827 1.390 . S
C4819 C4818 1.387 . S
C4819 C4821 1.387 . S
H4820 C4827 0.950 . S
C4821 C4819 1.387 . S
C4821 C4823 1.390 . S
C4821 H4825 0.950 . S
H4822 C4818 0.950 . S
C4823 C4821 1.390 . S
C4823 C4824 1.387 . S
C4823 H4826 0.950 . S
C4824 C4823 1.387 . S
C4824 C4827 1.387 . S
H4825 C4821 0.950 . S
H4826 C4823 0.950 . S
C4827 C4818 1.390 . S
C4827 H4820 0.950 . S
C4827 C4824 1.387 . S
C4828 C4829 1.387 . S
C4828 H4832 0.950 . S
C4828 C4837 1.390 . S
C4829 C4828 1.387 . S
C4829 C4831 1.387 . S
H4830 C4837 0.950 . S
C4831 C4829 1.387 . S
C4831 C4833 1.390 . S
C4831 H4835 0.950 . S
H4832 C4828 0.950 . S
C4833 C4831 1.390 . S
C4833 C4834 1.387 . S
C4833 H4836 0.950 . S
C4834 C4833 1.387 . S
C4834 C4837 1.387 . S
H4835 C4831 0.950 . S
H4836 C4833 0.950 . S
C4837 C4828 1.390 . S
C4837 H4830 0.950 . S
C4837 C4834 1.387 . S
C4838 C4839 1.387 . S
C4838 H4842 0.950 . S
C4838 C4847 1.390 . S
C4839 C4838 1.387 . S
C4839 C4841 1.387 . S
H4840 C4847 0.950 . S
C4841 C4839 1.387 . S
C4841 C4843 1.390 . S
C4841 H4845 0.950 . S
H4842 C4838 0.950 . S
C4843 C4841 1.390 . S
C4843 C4844 1.387 . S
C4843 H4846 0.950 . S
C4844 C4843 1.387 . S
C4844 C4847 1.387 . S
H4845 C4841 0.950 . S
H4846 C4843 0.950 . S
C4847 C4838 1.390 . S
C4847 H4840 0.950 . S
C4847 C4844 1.387 . S
C4848 C4849 1.387 . S
C4848 H4852 0.950 . S
C4848 C4857 1.390 . S
C4849 C4848 1.387 . S
C4849 C4851 1.387 . S
H4850 C4857 0.950 . S
C4851 C4849 1.387 . S
C4851 C4853 1.390 . S
C4851 H4855 0.950 . S
H4852 C4848 0.950 . S
C4853 C4851 1.390 . S
C4853 C4854 1.387 . S
C4853 H4856 0.950 . S
C4854 C4853 1.387 . S
C4854 C4857 1.387 . S
H4855 C4851 0.950 . S
H4856 C4853 0.950 . S
C4857 C4848 1.390 . S
C4857 H4850 0.950 . S
C4857 C4854 1.387 . S
C4858 C4859 1.387 . S
C4858 H4862 0.950 . S
C4858 C4867 1.390 . S
C4859 C4858 1.387 . S
C4859 C4861 1.387 . S
H4860 C4867 0.950 . S
C4861 C4859 1.387 . S
C4861 C4863 1.390 . S
C4861 H4865 0.950 . S
H4862 C4858 0.950 . S
C4863 C4861 1.390 . S
C4863 C4864 1.387 . S
C4863 H4866 0.950 . S
C4864 C4863 1.387 . S
C4864 C4867 1.387 . S
H4865 C4861 0.950 . S
H4866 C4863 0.950 . S
C4867 C4858 1.390 . S
C4867 H4860 0.950 . S
C4867 C4864 1.387 . S
C4868 C4869 1.387 . S
C4868 H4872 0.950 . S
C4868 C4877 1.390 . S
C4869 C4868 1.387 . S
C4869 C4871 1.387 . S
H4870 C4877 0.950 . S
C4871 C4869 1.387 . S
C4871 C4873 1.390 . S
C4871 H4875 0.950 . S
H4872 C4868 0.950 . S
C4873 C4871 1.390 . S
C4873 C4874 1.387 . S
C4873 H4876 0.950 . S
C4874 C4873 1.387 . S
C4874 C4877 1.387 . S
H4875 C4871 0.950 . S
H4876 C4873 0.950 . S
C4877 C4868 1.390 . S
C4877 H4870 0.950 . S
C4877 C4874 1.387 . S
C4878 C4879 1.387 . S
C4878 H4882 0.950 . S
C4878 C4887 1.390 . S
C4879 C4878 1.387 . S
C4879 C4881 1.387 . S
H4880 C4887 0.950 . S
C4881 C4879 1.387 . S
C4881 C4883 1.390 . S
C4881 H4885 0.950 . S
H4882 C4878 0.950 . S
C4883 C4881 1.390 . S
C4883 C4884 1.387 . S
C4883 H4886 0.950 . S
C4884 C4883 1.387 . S
C4884 C4887 1.387 . S
H4885 C4881 0.950 . S
H4886 C4883 0.950 . S
C4887 C4878 1.390 . S
C4887 H4880 0.950 . S
C4887 C4884 1.387 . S
C4888 C4889 1.387 . S
C4888 H4892 0.950 . S
C4888 C4897 1.390 . S
C4889 C4888 1.387 . S
C4889 C4891 1.387 . S
H4890 C4897 0.950 . S
C4891 C4889 1.387 . S
C4891 C4893 1.390 . S
C4891 H4895 0.950 . S
H4892 C4888 0.950 . S
C4893 C4891 1.390 . S
C4893 C4894 1.387 . S
C4893 H4896 0.950 . S
C4894 C4893 1.387 . S
C4894 C4897 1.387 . S
H4895 C4891 0.950 . S
H4896 C4893 0.950 . S
C4897 C4888 1.390 . S
C4897 H4890 0.950 . S
C4897 C4894 1.387 . S
C4898 C4899 1.387 . S
C4898 H4902 0.950 . S
C4898 C4907 1.390 . S
C4899 C4898 1.387 . S
C4899 C4901 1.387 . S
H4900 C4907 0.950 . S
C4901 C4899 1.387 . S
C4901 C4903 1.390 . S
C4901 H4905 0.950 . S
H4902 C4898 0.950 . S
C4903 C4901 1.390 . S
C4903 C4904 1.387 . S
C4903 H4906 0.950 . S
C4904 C4903 1.387 . S
C4904 C4907 1.387 . S
H4905 C4901 0.950 . S
H4906 C4903 0.950 . S
C4907 C4898 1.390 . S
C4907 H4900 0.950 . S
C4907 C4904 1.387 . S
C4908 C4909 1.387 . S
C4908 H4912 0.950 . S
C4908 C4917 1.390 . S
C4909 C4908 1.387 . S
C4909 C4911 1.387 . S
H4910 C4917 0.950 . S
C4911 C4909 1.387 . S
C4911 C4913 1.390 . S
C4911 H4915 0.950 . S
H4912 C4908 0.950 . S
C4913 C4911 1.390 . S
C4913 C4914 1.387 . S
C4913 H4916 0.950 . S
C4914 C4913 1.387 . S
C4914 C4917 1.387 . S
H4915 C4911 0.950 . S
H4916 C4913 0.950 . S
C4917 C4908 1.390 . S
C4917 H4910 0.950 . S
C4917 C4914 1.387 . S
C4918 C4919 1.387 . S
C4918 H4922 0.950 . S
C4918 C4927 1.390 . S
C4919 C4918 1.387 . S
C4919 C4921 1.387 . S
H4920 C4927 0.950 . S
C4921 C4919 1.387 . S
C4921 C4923 1.390 . S
C4921 H4925 0.950 . S
H4922 C4918 0.950 . S
C4923 C4921 1.390 . S
C4923 C4924 1.387 . S
C4923 H4926 0.950 . S
C4924 C4923 1.387 . S
C4924 C4927 1.387 . S
H4925 C4921 0.950 . S
H4926 C4923 0.950 . S
C4927 C4918 1.390 . S
C4927 H4920 0.950 . S
C4927 C4924 1.387 . S
C4928 C4929 1.387 . S
C4928 H4932 0.950 . S
C4928 C4937 1.390 . S
C4929 C4928 1.387 . S
C4929 C4931 1.387 . S
H4930 C4937 0.950 . S
C4931 C4929 1.387 . S
C4931 C4933 1.390 . S
C4931 H4935 0.950 . S
H4932 C4928 0.950 . S
C4933 C4931 1.390 . S
C4933 C4934 1.387 . S
C4933 H4936 0.950 . S
C4934 C4933 1.387 . S
C4934 C4937 1.387 . S
H4935 C4931 0.950 . S
H4936 C4933 0.950 . S
C4937 C4928 1.390 . S
C4937 H4930 0.950 . S
C4937 C4934 1.387 . S
C4938 C4939 1.387 . S
C4938 H4942 0.950 . S
C4938 C4947 1.390 . S
C4939 C4938 1.387 . S
C4939 C4941 1.387 . S
H4940 C4947 0.950 . S
C4941 C4939 1.387 . S
C4941 C4943 1.390 . S
C4941 H4945 0.950 . S
H4942 C4938 0.950 . S
C4943 C4941 1.390 . S
C4943 C4944 1.387 . S
C4943 H4946 0.950 . S
C4944 C4943 1.387 . S
C4944 C4947 1.387 . S
H4945 C4941 0.950 . S
H4946 C4943 0.950 . S
C4947 C4938 1.390 . S
C4947 H4940 0.950 . S
C4947 C4944 1.387 . S
C4948 C4949 1.387 . S
C4948 H4952 0.950 . S
C4948 C4957 1.390 . S
C4949 C4948 1.387 . S
C4949 C4951 1.387 . S
H4950 C4957 0.950 . S
C4951 C4949 1.387 . S
C4951 C4953 1.390 . S
C4951 H4955 0.950 . S
H4952 C4948 0.950 . S
C4953 C4951 1.390 . S
C4953 C4954 1.387 . S
C4953 H4956 0.950 . S
C4954 C4953 1.387 . S
C4954 C4957 1.387 . S
H4955 C4951 0.950 . S
H4956 C4953 0.950 . S
C4957 C4948 1.390 . S
C4957 H4950 0.950 . S
C4957 C4954 1.387 . S
C4958 C4959 1.387 . S
C4958 H4962 0.950 . S
C4958 C4967 1.390 . S
C4959 C4958 1.387 . S
C4959 C4961 1.387 . S
H4960 C4967 0.950 . S
C4961 C4959 1.387 . S
C4961 C4963 1.390 . S
C4961 H4965 0.950 . S
H4962 C4958 0.950 . S
C4963 C4961 1.390 . S
C4963 C4964 1.387 . S
C4963 H4966 0.950 . S
C4964 C4963 1.387 . S
C4964 C4967 1.387 . S
H4965 C4961 0.950 . S
H4966 C4963 0.950 . S
C4967 C4958 1.390 . S
C4967 H4960 0.950 . S
C4967 C4964 1.387 . S
C4968 C4969 1.387 . S
C4968 H4972 0.950 . S
C4968 C4977 1.390 . S
C4969 C4968 1.387 . S
C4969 C4971 1.387 . S
H4970 C4977 0.950 . S
C4971 C4969 1.387 . S
C4971 C4973 1.390 . S
C4971 H4975 0.950 . S
H4972 C4968 0.950 . S
C4973 C4971 1.390 . S
C4973 C4974 1.387 . S
C4973 H4976 0.950 . S
C4974 C4973 1.387 . S
C4974 C4977 1.387 . S
H4975 C4971 0.950 . S
H4976 C4973 0.950 . S
C4977 C4968 1.390 . S
C4977 H4970 0.950 . S
C4977 C4974 1.387 . S
C4978 C4979 1.387 . S
C4978 H4982 0.950 . S
C4978 C4987 1.390 . S
C4979 C4978 1.387 . S
C4979 C4981 1.387 . S
H4980 C4987 0.950 . S
C4981 C4979 1.387 . S
C4981 C4983 1.390 . S
C4981 H4985 0.950 . S
H4982 C4978 0.950 . S
C4983 C4981 1.390 . S
C4983 C4984 1.387 . S
C4983 H4986 0.950 . S
C4984 C4983 1.387 . S
C4984 C4987 1.387 . S
H4985 C4981 0.950 . S
H4986 C4983 0.950 . S
C4987 C4978 1.390 . S
C4987 H4980 0.950 . S
C4987 C4984 1.387 . S
C4988 C4989 1.387 . S
C4988 H4992 0.950 . S
C4988 C4997 1.390 . S
C4989 C4988 1.387 . S
C4989 C4991 1.387 . S
H4990 C4997 0.950 . S
C4991 C4989 1.387 . S
C4991 C4993 1.390 . S
C4991 H4995 0.950 . S
H4992 C4988 0.950 . S
C4993 C4991 1.390 . S
C4993 C4994 1.387 . S
C4993 H4996 0.950 . S
C4994 C4993 1.387 . S
C4994 C4997 1.387 . S
H4995 C4991 0.950 . S
H4996 C4993 0.950 . S
C4997 C4988 1.390 . S
C4997 H4990 0.950 . S
C4997 C4994 1.387 . S
C4998 C4999 1.387 . S
C4998 H5002 0.950 . S
C4998 C5007 1.390 . S
C4999 C4998 1.387 . S
C4999 C5001 1.387 . S
H5000 C5007 0.950 . S
C5001 C4999 1.387 . S
C5001 C5003 1.390 . S
C5001 H5005 0.950 . S
H5002 C4998 0.950 . S
C5003 C5001 1.390 . S
C5003 C5004 1.387 . S
C5003 H5006 0.950 . S
C5004 C5003 1.387 . S
C5004 C5007 1.387 . S
H5005 C5001 0.950 . S
H5006 C5003 0.950 . S
C5007 C4998 1.390 . S
C5007 H5000 0.950 . S
C5007 C5004 1.387 . S
C5008 C5009 1.387 . S
C5008 H5012 0.950 . S
C5008 C5017 1.390 . S
C5009 C5008 1.387 . S
C5009 C5011 1.387 . S
H5010 C5017 0.950 . S
C5011 C5009 1.387 . S
C5011 C5013 1.390 . S
C5011 H5015 0.950 . S
H5012 C5008 0.950 . S
C5013 C5011 1.390 . S
C5013 C5014 1.387 . S
C5013 H5016 0.950 . S
C5014 C5013 1.387 . S
C5014 C5017 1.387 . S
H5015 C5011 0.950 . S
H5016 C5013 0.950 . S
C5017 C5008 1.390 . S
C5017 H5010 0.950 . S
C5017 C5014 1.387 . S
C5018 C5019 1.387 . S
C5018 H5022 0.950 . S
C5018 C5027 1.390 . S
C5019 C5018 1.387 . S
C5019 C5021 1.387 . S
H5020 C5027 0.950 . S
C5021 C5019 1.387 . S
C5021 C5023 1.390 . S
C5021 H5025 0.950 . S
H5022 C5018 0.950 . S
C5023 C5021 1.390 . S
C5023 C5024 1.387 . S
C5023 H5026 0.950 . S
C5024 C5023 1.387 . S
C5024 C5027 1.387 . S
H5025 C5021 0.950 . S
H5026 C5023 0.950 . S
C5027 C5018 1.390 . S
C5027 H5020 0.950 . S
C5027 C5024 1.387 . S
C5028 C5029 1.387 . S
C5028 H5032 0.950 . S
C5028 C5037 1.390 . S
C5029 C5028 1.387 . S
C5029 C5031 1.387 . S
H5030 C5037 0.950 . S
C5031 C5029 1.387 . S
C5031 C5033 1.390 . S
C5031 H5035 0.950 . S
H5032 C5028 0.950 . S
C5033 C5031 1.390 . S
C5033 C5034 1.387 . S
C5033 H5036 0.950 . S
C5034 C5033 1.387 . S
C5034 C5037 1.387 . S
H5035 C5031 0.950 . S
H5036 C5033 0.950 . S
C5037 C5028 1.390 . S
C5037 H5030 0.950 . S
C5037 C5034 1.387 . S
C5038 C5039 1.387 . S
C5038 H5042 0.950 . S
C5038 C5047 1.390 . S
C5039 C5038 1.387 . S
C5039 C5041 1.387 . S
H5040 C5047 0.950 . S
C5041 C5039 1.387 . S
C5041 C5043 1.390 . S
C5041 H5045 0.950 . S
H5042 C5038 0.950 . S
C5043 C5041 1.390 . S
C5043 C5044 1.387 . S
C5043 H5046 0.950 . S
C5044 C5043 1.387 . S
C5044 C5047 1.387 . S
H5045 C5041 0.950 . S
H5046 C5043 0.950 . S
C5047 C5038 1.390 . S
C5047 H5040 0.950 . S
C5047 C5044 1.387 . S
C5048 C5049 1.387 . S
C5048 H5052 0.950 . S
C5048 C5057 1.390 . S
C5049 C5048 1.387 . S
C5049 C5051 1.387 . S
H5050 C5057 0.950 . S
C5051 C5049 1.387 . S
C5051 C5053 1.390 . S
C5051 H5055 0.950 . S
H5052 C5048 0.950 . S
C5053 C5051 1.390 . S
C5053 C5054 1.387 . S
C5053 H5056 0.950 . S
C5054 C5053 1.387 . S
C5054 C5057 1.387 . S
H5055 C5051 0.950 . S
H5056 C5053 0.950 . S
C5057 C5048 1.390 . S
C5057 H5050 0.950 . S
C5057 C5054 1.387 . S
C5058 C5059 1.387 . S
C5058 H5062 0.950 . S
C5058 C5067 1.390 . S
C5059 C5058 1.387 . S
C5059 C5061 1.387 . S
H5060 C5067 0.950 . S
C5061 C5059 1.387 . S
C5061 C5063 1.390 . S
C5061 H5065 0.950 . S
H5062 C5058 0.950 . S
C5063 C5061 1.390 . S
C5063 C5064 1.387 . S
C5063 H5066 0.950 . S
C5064 C5063 1.387 . S
C5064 C5067 1.387 . S
H5065 C5061 0.950 . S
H5066 C5063 0.950 . S
C5067 C5058 1.390 . S
C5067 H5060 0.950 . S
C5067 C5064 1.387 . S
C5068 C5069 1.387 . S
C5068 H5072 0.950 . S
C5068 C5077 1.390 . S
C5069 C5068 1.387 . S
C5069 C5071 1.387 . S
H5070 C5077 0.950 . S
C5071 C5069 1.387 . S
C5071 C5073 1.390 . S
C5071 H5075 0.950 . S
H5072 C5068 0.950 . S
C5073 C5071 1.390 . S
C5073 C5074 1.387 . S
C5073 H5076 0.950 . S
C5074 C5073 1.387 . S
C5074 C5077 1.387 . S
H5075 C5071 0.950 . S
H5076 C5073 0.950 . S
C5077 C5068 1.390 . S
C5077 H5070 0.950 . S
C5077 C5074 1.387 . S
C5078 C5079 1.387 . S
C5078 H5082 0.950 . S
C5078 C5087 1.390 . S
C5079 C5078 1.387 . S
C5079 C5081 1.387 . S
H5080 C5087 0.950 . S
C5081 C5079 1.387 . S
C5081 C5083 1.390 . S
C5081 H5085 0.950 . S
H5082 C5078 0.950 . S
C5083 C5081 1.390 . S
C5083 C5084 1.387 . S
C5083 H5086 0.950 . S
C5084 C5083 1.387 . S
C5084 C5087 1.387 . S
H5085 C5081 0.950 . S
H5086 C5083 0.950 . S
C5087 C5078 1.390 . S
C5087 H5080 0.950 . S
C5087 C5084 1.387 . S
C5088 C5089 1.387 . S
C5088 H5092 0.950 . S
C5088 C5097 1.390 . S
C5089 C5088 1.387 . S
C5089 C5091 1.387 . S
H5090 C5097 0.950 . S
C5091 C5089 1.387 . S
C5091 C5093 1.390 . S
C5091 H5095 0.950 . S
H5092 C5088 0.950 . S
C5093 C5091 1.390 . S
C5093 C5094 1.387 . S
C5093 H5096 0.950 . S
C5094 C5093 1.387 . S
C5094 C5097 1.387 . S
H5095 C5091 0.950 . S
H5096 C5093 0.950 . S
C5097 C5088 1.390 . S
C5097 H5090 0.950 . S
C5097 C5094 1.387 . S
C5098 C5099 1.387 . S
C5098 H5102 0.950 . S
C5098 C5107 1.390 . S
C5099 C5098 1.387 . S
C5099 C5101 1.387 . S
H5100 C5107 0.950 . S
C5101 C5099 1.387 . S
C5101 C5103 1.390 . S
C5101 H5105 0.950 . S
H5102 C5098 0.950 . S
C5103 C5101 1.390 . S
C5103 C5104 1.387 . S
C5103 H5106 0.950 . S
C5104 C5103 1.387 . S
C5104 C5107 1.387 . S
H5105 C5101 0.950 . S
H5106 C5103 0.950 . S
C5107 C5098 1.390 . S
C5107 H5100 0.950 . S
C5107 C5104 1.387 . S
C5108 C5109 1.387 . S
C5108 H5112 0.950 . S
C5108 C5117 1.390 . S
C5109 C5108 1.387 . S
C5109 C5111 1.387 . S
H5110 C5117 0.950 . S
C5111 C5109 1.387 . S
C5111 C5113 1.390 . S
C5111 H5115 0.950 . S
H5112 C5108 0.950 . S
C5113 C5111 1.390 . S
C5113 C5114 1.387 . S
C5113 H5116 0.950 . S
C5114 C5113 1.387 . S
C5114 C5117 1.387 . S
H5115 C5111 0.950 . S
H5116 C5113 0.950 . S
C5117 C5108 1.390 . S
C5117 H5110 0.950 . S
C5117 C5114 1.387 . S
C5118 C5119 1.387 . S
C5118 H5122 0.950 . S
C5118 C5127 1.390 . S
C5119 C5118 1.387 . S
C5119 C5121 1.387 . S
H5120 C5127 0.950 . S
C5121 C5119 1.387 . S
C5121 C5123 1.390 . S
C5121 H5125 0.950 . S
H5122 C5118 0.950 . S
C5123 C5121 1.390 . S
C5123 C5124 1.387 . S
C5123 H5126 0.950 . S
C5124 C5123 1.387 . S
C5124 C5127 1.387 . S
H5125 C5121 0.950 . S
H5126 C5123 0.950 . S
C5127 C5118 1.390 . S
C5127 H5120 0.950 . S
C5127 C5124 1.387 . S
C5128 C5129 1.387 . S
C5128 H5132 0.950 . S
C5128 C5137 1.390 . S
C5129 C5128 1.387 . S
C5129 C5131 1.387 . S
H5130 C5137 0.950 . S
C5131 C5129 1.387 . S
C5131 C5133 1.390 . S
C5131 H5135 0.950 . S
H5132 C5128 0.950 . S
C5133 C5131 1.390 . S
C5133 C5134 1.387 . S
C5133 H5136 0.950 . S
C5134 C5133 1.387 . S
C5134 C5137 1.387 . S
H5135 C5131 0.950 . S
H5136 C5133 0.950 . S
C5137 C5128 1.390 . S
C5137 H5130 0.950 . S
C5137 C5134 1.387 . S
C5138 C5139 1.387 . S
C5138 H5142 0.950 . S
C5138 C5147 1.390 . S
C5139 C5138 1.387 . S
C5139 C5141 1.387 . S
H5140 C5147 0.950 . S
C5141 C5139 1.387 . S
C5141 C5143 1.390 . S
C5141 H5145 0.950 . S
H5142 C5138 0.950 . S
C5143 C5141 1.390 . S
C5143 C5144 1.387 . S
C5143 H5146 0.950 . S
C5144 C5143 1.387 . S
C5144 C5147 1.387 . S
H5145 C5141 0.950 . S
H5146 C5143 0.950 . S
C5147 C5138 1.390 . S
C5147 H5140 0.950 . S
C5147 C5144 1.387 . S
C5148 C5149 1.387 . S
C5148 H5152 0.950 . S
C5148 C5157 1.390 . S
C5149 C5148 1.387 . S
C5149 C5151 1.387 . S
H5150 C5157 0.950 . S
C5151 C5149 1.387 . S
C5151 C5153 1.390 . S
C5151 H5155 0.950 . S
H5152 C5148 0.950 . S
C5153 C5151 1.390 . S
C5153 C5154 1.387 . S
C5153 H5156 0.950 . S
C5154 C5153 1.387 . S
C5154 C5157 1.387 . S
H5155 C5151 0.950 . S
H5156 C5153 0.950 . S
C5157 C5148 1.390 . S
C5157 H5150 0.950 . S
C5157 C5154 1.387 . S
C5158 C5159 1.387 . S
C5158 H5162 0.950 . S
C5158 C5167 1.390 . S
C5159 C5158 1.387 . S
C5159 C5161 1.387 . S
H5160 C5167 0.950 . S
C5161 C5159 1.387 . S
C5161 C5163 1.390 . S
C5161 H5165 0.950 . S
H5162 C5158 0.950 . S
C5163 C5161 1.390 . S
C5163 C5164 1.387 . S
C5163 H5166 0.950 . S
C5164 C5163 1.387 . S
C5164 C5167 1.387 . S
H5165 C5161 0.950 . S
H5166 C5163 0.950 . S
C5167 C5158 1.390 . S
C5167 H5160 0.950 . S
C5167 C5164 1.387 . S
C5168 C5169 1.387 . S
C5168 H5172 0.950 . S
C5168 C5177 1.390 . S
C5169 C5168 1.387 . S
C5169 C5171 1.387 . S
H5170 C5177 0.950 . S
C5171 C5169 1.387 . S
C5171 C5173 1.390 . S
C5171 H5175 0.950 . S
H5172 C5168 0.950 . S
C5173 C5171 1.390 . S
C5173 C5174 1.387 . S
C5173 H5176 0.950 . S
C5174 C5173 1.387 . S
C5174 C5177 1.387 . S
H5175 C5171 0.950 . S
H5176 C5173 0.950 . S
C5177 C5168 1.390 . S
C5177 H5170 0.950 . S
C5177 C5174 1.387 . S
C5178 C5179 1.387 . S
C5178 H5182 0.950 . S
C5178 C5187 1.390 . S
C5179 C5178 1.387 . S
C5179 C5181 1.387 . S
H5180 C5187 0.950 . S
C5181 C5179 1.387 . S
C5181 C5183 1.390 . S
C5181 H5185 0.950 . S
H5182 C5178 0.950 . S
C5183 C5181 1.390 . S
C5183 C5184 1.387 . S
C5183 H5186 0.950 . S
C5184 C5183 1.387 . S
C5184 C5187 1.387 . S
H5185 C5181 0.950 . S
H5186 C5183 0.950 . S
C5187 C5178 1.390 . S
C5187 H5180 0.950 . S
C5187 C5184 1.387 . S
C5188 C5189 1.387 . S
C5188 H5192 0.950 . S
C5188 C5197 1.390 . S
C5189 C5188 1.387 . S
C5189 C5191 1.387 . S
H5190 C5197 0.950 . S
C5191 C5189 1.387 . S
C5191 C5193 1.390 . S
C5191 H5195 0.950 . S
H5192 C5188 0.950 . S
C5193 C5191 1.390 . S
C5193 C5194 1.387 . S
C5193 H5196 0.950 . S
C5194 C5193 1.387 . S
C5194 C5197 1.387 . S
H5195 C5191 0.950 . S
H5196 C5193 0.950 . S
C5197 C5188 1.390 . S
C5197 H5190 0.950 . S
C5197 C5194 1.387 . S
C5198 C5199 1.387 . S
C5198 H5202 0.950 . S
C5198 C5207 1.390 . S
C5199 C5198 1.387 . S
C5199 C5201 1.387 . S
H5200 C5207 0.950 . S
C5201 C5199 1.387 . S
C5201 C5203 1.390 . S
C5201 H5205 0.950 . S
H5202 C5198 0.950 . S
C5203 C5201 1.390 . S
C5203 C5204 1.387 . S
C5203 H5206 0.950 . S
C5204 C5203 1.387 . S
C5204 C5207 1.387 . S
H5205 C5201 0.950 . S
H5206 C5203 0.950 . S
C5207 C5198 1.390 . S
C5207 H5200 0.950 . S
C5207 C5204 1.387 . S
C5208 C5209 1.387 . S
C5208 H5212 0.950 . S
C5208 C5217 1.390 . S
C5209 C5208 1.387 . S
C5209 C5211 1.387 . S
H5210 C5217 0.950 . S
C5211 C5209 1.387 . S
C5211 C5213 1.390 . S
C5211 H5215 0.950 . S
H5212 C5208 0.950 . S
C5213 C5211 1.390 . S
C5213 C5214 1.387 . S
C5213 H5216 0.950 . S
C5214 C5213 1.387 . S
C5214 C5217 1.387 . S
H5215 C5211 0.950 . S
H5216 C5213 0.950 . S
C5217 C5208 1.390 . S
C5217 H5210 0.950 . S
C5217 C5214 1.387 . S
C5218 C5219 1.387 . S
C5218 H5222 0.950 . S
C5218 C5227 1.390 . S
C5219 C5218 1.387 . S
C5219 C5221 1.387 . S
H5220 C5227 0.950 . S
C5221 C5219 1.387 . S
C5221 C5223 1.390 . S
C5221 H5225 0.950 . S
H5222 C5218 0.950 . S
C5223 C5221 1.390 . S
C5223 C5224 1.387 . S
C5223 H5226 0.950 . S
C5224 C5223 1.387 . S
C5224 C5227 1.387 . S
H5225 C5221 0.950 . S
H5226 C5223 0.950 . S
C5227 C5218 1.390 . S
C5227 H5220 0.950 . S
C5227 C5224 1.387 . S
C5228 C5229 1.387 . S
C5228 H5232 0.950 . S
C5228 C5237 1.390 . S
C5229 C5228 1.387 . S
C5229 C5231 1.387 . S
H5230 C5237 0.950 . S
C5231 C5229 1.387 . S
C5231 C5233 1.390 . S
C5231 H5235 0.950 . S
H5232 C5228 0.950 . S
C5233 C5231 1.390 . S
C5233 C5234 1.387 . S
C5233 H5236 0.950 . S
C5234 C5233 1.387 . S
C5234 C5237 1.387 . S
H5235 C5231 0.950 . S
H5236 C5233 0.950 . S
C5237 C5228 1.390 . S
C5237 H5230 0.950 . S
C5237 C5234 1.387 . S
C5238 C5239 1.387 . S
C5238 H5242 0.950 . S
C5238 C5247 1.390 . S
C5239 C5238 1.387 . S
C5239 C5241 1.387 . S
H5240 C5247 0.950 . S
C5241 C5239 1.387 . S
C5241 C5243 1.390 . S
C5241 H5245 0.950 . S
H5242 C5238 0.950 . S
C5243 C5241 1.390 . S
C5243 C5244 1.387 . S
C5243 H5246 0.950 . S
C5244 C5243 1.387 . S
C5244 C5247 1.387 . S
H5245 C5241 0.950 . S
H5246 C5243 0.950 . S
C5247 C5238 1.390 . S
C5247 H5240 0.950 . S
C5247 C5244 1.387 . S
C5248 C5249 1.387 . S
C5248 H5252 0.950 . S
C5248 C5257 1.390 . S
C5249 C5248 1.387 . S
C5249 C5251 1.387 . S
H5250 C5257 0.950 . S
C5251 C5249 1.387 . S
C5251 C5253 1.390 . S
C5251 H5255 0.950 . S
H5252 C5248 0.950 . S
C5253 C5251 1.390 . S
C5253 C5254 1.387 . S
C5253 H5256 0.950 . S
C5254 C5253 1.387 . S
C5254 C5257 1.387 . S
H5255 C5251 0.950 . S
H5256 C5253 0.950 . S
C5257 C5248 1.390 . S
C5257 H5250 0.950 . S
C5257 C5254 1.387 . S
C5258 C5259 1.387 . S
C5258 H5262 0.950 . S
C5258 C5267 1.390 . S
C5259 C5258 1.387 . S
C5259 C5261 1.387 . S
H5260 C5267 0.950 . S
C5261 C5259 1.387 . S
C5261 C5263 1.390 . S
C5261 H5265 0.950 . S
H5262 C5258 0.950 . S
C5263 C5261 1.390 . S
C5263 C5264 1.387 . S
C5263 H5266 0.950 . S
C5264 C5263 1.387 . S
C5264 C5267 1.387 . S
H5265 C5261 0.950 . S
H5266 C5263 0.950 . S
C5267 C5258 1.390 . S
C5267 H5260 0.950 . S
C5267 C5264 1.387 . S
C5268 C5269 1.387 . S
C5268 H5272 0.950 . S
C5268 C5277 1.390 . S
C5269 C5268 1.387 . S
C5269 C5271 1.387 . S
H5270 C5277 0.950 . S
C5271 C5269 1.387 . S
C5271 C5273 1.390 . S
C5271 H5275 0.950 . S
H5272 C5268 0.950 . S
C5273 C5271 1.390 . S
C5273 C5274 1.387 . S
C5273 H5276 0.950 . S
C5274 C5273 1.387 . S
C5274 C5277 1.387 . S
H5275 C5271 0.950 . S
H5276 C5273 0.950 . S
C5277 C5268 1.390 . S
C5277 H5270 0.950 . S
C5277 C5274 1.387 . S
C5278 C5279 1.387 . S
C5278 H5282 0.950 . S
C5278 C5287 1.390 . S
C5279 C5278 1.387 . S
C5279 C5281 1.387 . S
H5280 C5287 0.950 . S
C5281 C5279 1.387 . S
C5281 C5283 1.390 . S
C5281 H5285 0.950 . S
H5282 C5278 0.950 . S
C5283 C5281 1.390 . S
C5283 C5284 1.387 . S
C5283 H5286 0.950 . S
C5284 C5283 1.387 . S
C5284 C5287 1.387 . S
H5285 C5281 0.950 . S
H5286 C5283 0.950 . S
C5287 C5278 1.390 . S
C5287 H5280 0.950 . S
C5287 C5284 1.387 . S
C5288 C5289 1.387 . S
C5288 H5292 0.950 . S
C5288 C5297 1.390 . S
C5289 C5288 1.387 . S
C5289 C5291 1.387 . S
H5290 C5297 0.950 . S
C5291 C5289 1.387 . S
C5291 C5293 1.390 . S
C5291 H5295 0.950 . S
H5292 C5288 0.950 . S
C5293 C5291 1.390 . S
C5293 C5294 1.387 . S
C5293 H5296 0.950 . S
C5294 C5293 1.387 . S
C5294 C5297 1.387 . S
H5295 C5291 0.950 . S
H5296 C5293 0.950 . S
C5297 C5288 1.390 . S
C5297 H5290 0.950 . S
C5297 C5294 1.387 . S
C5298 C5299 1.387 . S
C5298 H5302 0.950 . S
C5298 C5307 1.390 . S
C5299 C5298 1.387 . S
C5299 C5301 1.387 . S
H5300 C5307 0.950 . S
C5301 C5299 1.387 . S
C5301 C5303 1.390 . S
C5301 H5305 0.950 . S
H5302 C5298 0.950 . S
C5303 C5301 1.390 . S
C5303 C5304 1.387 . S
C5303 H5306 0.950 . S
C5304 C5303 1.387 . S
C5304 C5307 1.387 . S
H5305 C5301 0.950 . S
H5306 C5303 0.950 . S
C5307 C5298 1.390 . S
C5307 H5300 0.950 . S
C5307 C5304 1.387 . S
C5308 C5309 1.387 . S
C5308 H5312 0.950 . S
C5308 C5317 1.390 . S
C5309 C5308 1.387 . S
C5309 C5311 1.387 . S
H5310 C5317 0.950 . S
C5311 C5309 1.387 . S
C5311 C5313 1.390 . S
C5311 H5315 0.950 . S
H5312 C5308 0.950 . S
C5313 C5311 1.390 . S
C5313 C5314 1.387 . S
C5313 H5316 0.950 . S
C5314 C5313 1.387 . S
C5314 C5317 1.387 . S
H5315 C5311 0.950 . S
H5316 C5313 0.950 . S
C5317 C5308 1.390 . S
C5317 H5310 0.950 . S
C5317 C5314 1.387 . S
C5318 C5319 1.387 . S
C5318 H5322 0.950 . S
C5318 C5327 1.390 . S
C5319 C5318 1.387 . S
C5319 C5321 1.387 . S
H5320 C5327 0.950 . S
C5321 C5319 1.387 . S
C5321 C5323 1.390 . S
C5321 H5325 0.950 . S
H5322 C5318 0.950 . S
C5323 C5321 1.390 . S
C5323 C5324 1.387 . S
C5323 H5326 0.950 . S
C5324 C5323 1.387 . S
C5324 C5327 1.387 . S
H5325 C5321 0.950 . S
H5326 C5323 0.950 . S
C5327 C5318 1.390 . S
C5327 H5320 0.950 . S
C5327 C5324 1.387 . S
C5328 C5329 1.387 . S
C5328 H5332 0.950 . S
C5328 C5337 1.390 . S
C5329 C5328 1.387 . S
C5329 C5331 1.387 . S
H5330 C5337 0.950 . S
C5331 C5329 1.387 . S
C5331 C5333 1.390 . S
C5331 H5335 0.950 . S
H5332 C5328 0.950 . S
C5333 C5331 1.390 . S
C5333 C5334 1.387 . S
C5333 H5336 0.950 . S
C5334 C5333 1.387 . S
C5334 C5337 1.387 . S
H5335 C5331 0.950 . S
H5336 C5333 0.950 . S
C5337 C5328 1.390 . S
C5337 H5330 0.950 . S
C5337 C5334 1.387 . S
C5338 C5339 1.387 . S
C5338 H5342 0.950 . S
C5338 C5347 1.390 . S
C5339 C5338 1.387 . S
C5339 C5341 1.387 . S
H5340 C5347 0.950 . S
C5341 C5339 1.387 . S
C5341 C5343 1.390 . S
C5341 H5345 0.950 . S
H5342 C5338 0.950 . S
C5343 C5341 1.390 . S
C5343 C5344 1.387 . S
C5343 H5346 0.950 . S
C5344 C5343 1.387 . S
C5344 C5347 1.387 . S
H5345 C5341 0.950 . S
H5346 C5343 0.950 . S
C5347 C5338 1.390 . S
C5347 H5340 0.950 . S
C5347 C5344 1.387 . S
C5348 C5349 1.387 . S
C5348 H5352 0.950 . S
C5348 C5357 1.390 . S
C5349 C5348 1.387 . S
C5349 C5351 1.387 . S
H5350 C5357 0.950 . S
C5351 C5349 1.387 . S
C5351 C5353 1.390 . S
C5351 H5355 0.950 . S
H5352 C5348 0.950 . S
C5353 C5351 1.390 . S
C5353 C5354 1.387 . S
C5353 H5356 0.950 . S
C5354 C5353 1.387 . S
C5354 C5357 1.387 . S
H5355 C5351 0.950 . S
H5356 C5353 0.950 . S
C5357 C5348 1.390 . S
C5357 H5350 0.950 . S
C5357 C5354 1.387 . S
C5358 C5359 1.387 . S
C5358 H5362 0.950 . S
C5358 C5367 1.390 . S
C5359 C5358 1.387 . S
C5359 C5361 1.387 . S
H5360 C5367 0.950 . S
C5361 C5359 1.387 . S
C5361 C5363 1.390 . S
C5361 H5365 0.950 . S
H5362 C5358 0.950 . S
C5363 C5361 1.390 . S
C5363 C5364 1.387 . S
C5363 H5366 0.950 . S
C5364 C5363 1.387 . S
C5364 C5367 1.387 . S
H5365 C5361 0.950 . S
H5366 C5363 0.950 . S
C5367 C5358 1.390 . S
C5367 H5360 0.950 . S
C5367 C5364 1.387 . S
C5368 C5369 1.387 . S
C5368 H5372 0.950 . S
C5368 C5377 1.390 . S
C5369 C5368 1.387 . S
C5369 C5371 1.387 . S
H5370 C5377 0.950 . S
C5371 C5369 1.387 . S
C5371 C5373 1.390 . S
C5371 H5375 0.950 . S
H5372 C5368 0.950 . S
C5373 C5371 1.390 . S
C5373 C5374 1.387 . S
C5373 H5376 0.950 . S
C5374 C5373 1.387 . S
C5374 C5377 1.387 . S
H5375 C5371 0.950 . S
H5376 C5373 0.950 . S
C5377 C5368 1.390 . S
C5377 H5370 0.950 . S
C5377 C5374 1.387 . S
C5378 C5379 1.387 . S
C5378 H5382 0.950 . S
C5378 C5387 1.390 . S
C5379 C5378 1.387 . S
C5379 C5381 1.387 . S
H5380 C5387 0.950 . S
C5381 C5379 1.387 . S
C5381 C5383 1.390 . S
C5381 H5385 0.950 . S
H5382 C5378 0.950 . S
C5383 C5381 1.390 . S
C5383 C5384 1.387 . S
C5383 H5386 0.950 . S
C5384 C5383 1.387 . S
C5384 C5387 1.387 . S
H5385 C5381 0.950 . S
H5386 C5383 0.950 . S
C5387 C5378 1.390 . S
C5387 H5380 0.950 . S
C5387 C5384 1.387 . S
C5388 C5389 1.387 . S
C5388 H5392 0.950 . S
C5388 C5397 1.390 . S
C5389 C5388 1.387 . S
C5389 C5391 1.387 . S
H5390 C5397 0.950 . S
C5391 C5389 1.387 . S
C5391 C5393 1.390 . S
C5391 H5395 0.950 . S
H5392 C5388 0.950 . S
C5393 C5391 1.390 . S
C5393 C5394 1.387 . S
C5393 H5396 0.950 . S
C5394 C5393 1.387 . S
C5394 C5397 1.387 . S
H5395 C5391 0.950 . S
H5396 C5393 0.950 . S
C5397 C5388 1.390 . S
C5397 H5390 0.950 . S
C5397 C5394 1.387 . S
C5398 C5399 1.387 . S
C5398 H5402 0.950 . S
C5398 C5407 1.390 . S
C5399 C5398 1.387 . S
C5399 C5401 1.387 . S
H5400 C5407 0.950 . S
C5401 C5399 1.387 . S
C5401 C5403 1.390 . S
C5401 H5405 0.950 . S
H5402 C5398 0.950 . S
C5403 C5401 1.390 . S
C5403 C5404 1.387 . S
C5403 H5406 0.950 . S
C5404 C5403 1.387 . S
C5404 C5407 1.387 . S
H5405 C5401 0.950 . S
H5406 C5403 0.950 . S
C5407 C5398 1.390 . S
C5407 H5400 0.950 . S
C5407 C5404 1.387 . S
C5408 C5409 1.387 . S
C5408 H5412 0.950 . S
C5408 C5417 1.390 . S
C5409 C5408 1.387 . S
C5409 C5411 1.387 . S
H5410 C5417 0.950 . S
C5411 C5409 1.387 . S
C5411 C5413 1.390 . S
C5411 H5415 0.950 . S
H5412 C5408 0.950 . S
C5413 C5411 1.390 . S
C5413 C5414 1.387 . S
C5413 H5416 0.950 . S
C5414 C5413 1.387 . S
C5414 C5417 1.387 . S
H5415 C5411 0.950 . S
H5416 C5413 0.950 . S
C5417 C5408 1.390 . S
C5417 H5410 0.950 . S
C5417 C5414 1.387 . S
C5418 C5419 1.387 . S
C5418 H5422 0.950 . S
C5418 C5427 1.390 . S
C5419 C5418 1.387 . S
C5419 C5421 1.387 . S
H5420 C5427 0.950 . S
C5421 C5419 1.387 . S
C5421 C5423 1.390 . S
C5421 H5425 0.950 . S
H5422 C5418 0.950 . S
C5423 C5421 1.390 . S
C5423 C5424 1.387 . S
C5423 H5426 0.950 . S
C5424 C5423 1.387 . S
C5424 C5427 1.387 . S
H5425 C5421 0.950 . S
H5426 C5423 0.950 . S
C5427 C5418 1.390 . S
C5427 H5420 0.950 . S
C5427 C5424 1.387 . S
C5428 C5429 1.387 . S
C5428 H5432 0.950 . S
C5428 C5437 1.390 . S
C5429 C5428 1.387 . S
C5429 C5431 1.387 . S
H5430 C5437 0.950 . S
C5431 C5429 1.387 . S
C5431 C5433 1.390 . S
C5431 H5435 0.950 . S
H5432 C5428 0.950 . S
C5433 C5431 1.390 . S
C5433 C5434 1.387 . S
C5433 H5436 0.950 . S
C5434 C5433 1.387 . S
C5434 C5437 1.387 . S
H5435 C5431 0.950 . S
H5436 C5433 0.950 . S
C5437 C5428 1.390 . S
C5437 H5430 0.950 . S
C5437 C5434 1.387 . S
C5438 C5439 1.387 . S
C5438 H5442 0.950 . S
C5438 C5447 1.390 . S
C5439 C5438 1.387 . S
C5439 C5441 1.387 . S
H5440 C5447 0.950 . S
C5441 C5439 1.387 . S
C5441 C5443 1.390 . S
C5441 H5445 0.950 . S
H5442 C5438 0.950 . S
C5443 C5441 1.390 . S
C5443 C5444 1.387 . S
C5443 H5446 0.950 . S
C5444 C5443 1.387 . S
C5444 C5447 1.387 . S
H5445 C5441 0.950 . S
H5446 C5443 0.950 . S
C5447 C5438 1.390 . S
C5447 H5440 0.950 . S
C5447 C5444 1.387 . S
C5448 C5449 1.387 . S
C5448 H5452 0.950 . S
C5448 C5457 1.390 . S
C5449 C5448 1.387 . S
C5449 C5451 1.387 . S
H5450 C5457 0.950 . S
C5451 C5449 1.387 . S
C5451 C5453 1.390 . S
C5451 H5455 0.950 . S
H5452 C5448 0.950 . S
C5453 C5451 1.390 . S
C5453 C5454 1.387 . S
C5453 H5456 0.950 . S
C5454 C5453 1.387 . S
C5454 C5457 1.387 . S
H5455 C5451 0.950 . S
H5456 C5453 0.950 . S
C5457 C5448 1.390 . S
C5457 H5450 0.950 . S
C5457 C5454 1.387 . S
C5458 C5459 1.387 . S
C5458 H5462 0.950 . S
C5458 C5467 1.390 . S
C5459 C5458 1.387 . S
C5459 C5461 1.387 . S
H5460 C5467 0.950 . S
C5461 C5459 1.387 . S
C5461 C5463 1.390 . S
C5461 H5465 0.950 . S
H5462 C5458 0.950 . S
C5463 C5461 1.390 . S
C5463 C5464 1.387 . S
C5463 H5466 0.950 . S
C5464 C5463 1.387 . S
C5464 C5467 1.387 . S
H5465 C5461 0.950 . S
H5466 C5463 0.950 . S
C5467 C5458 1.390 . S
C5467 H5460 0.950 . S
C5467 C5464 1.387 . S
C5468 C5469 1.387 . S
C5468 H5472 0.950 . S
C5468 C5477 1.390 . S
C5469 C5468 1.387 . S
C5469 C5471 1.387 . S
H5470 C5477 0.950 . S
C5471 C5469 1.387 . S
C5471 C5473 1.390 . S
C5471 H5475 0.950 . S
H5472 C5468 0.950 . S
C5473 C5471 1.390 . S
C5473 C5474 1.387 . S
C5473 H5476 0.950 . S
C5474 C5473 1.387 . S
C5474 C5477 1.387 . S
H5475 C5471 0.950 . S
H5476 C5473 0.950 . S
C5477 C5468 1.390 . S
C5477 H5470 0.950 . S
C5477 C5474 1.387 . S
C5478 C5479 1.387 . S
C5478 H5482 0.950 . S
C5478 C5487 1.390 . S
C5479 C5478 1.387 . S
C5479 C5481 1.387 . S
H5480 C5487 0.950 . S
C5481 C5479 1.387 . S
C5481 C5483 1.390 . S
C5481 H5485 0.950 . S
H5482 C5478 0.950 . S
C5483 C5481 1.390 . S
C5483 C5484 1.387 . S
C5483 H5486 0.950 . S
C5484 C5483 1.387 . S
C5484 C5487 1.387 . S
H5485 C5481 0.950 . S
H5486 C5483 0.950 . S
C5487 C5478 1.390 . S
C5487 H5480 0.950 . S
C5487 C5484 1.387 . S
C5488 C5489 1.387 . S
C5488 H5492 0.950 . S
C5488 C5497 1.390 . S
C5489 C5488 1.387 . S
C5489 C5491 1.387 . S
H5490 C5497 0.950 . S
C5491 C5489 1.387 . S
C5491 C5493 1.390 . S
C5491 H5495 0.950 . S
H5492 C5488 0.950 . S
C5493 C5491 1.390 . S
C5493 C5494 1.387 . S
C5493 H5496 0.950 . S
C5494 C5493 1.387 . S
C5494 C5497 1.387 . S
H5495 C5491 0.950 . S
H5496 C5493 0.950 . S
C5497 C5488 1.390 . S
C5497 H5490 0.950 . S
C5497 C5494 1.387 . S
C5498 C5499 1.387 . S
C5498 H5502 0.950 . S
C5498 C5507 1.390 . S
C5499 C5498 1.387 . S
C5499 C5501 1.387 . S
H5500 C5507 0.950 . S
C5501 C5499 1.387 . S
C5501 C5503 1.390 . S
C5501 H5505 0.950 . S
H5502 C5498 0.950 . S
C5503 C5501 1.390 . S
C5503 C5504 1.387 . S
C5503 H5506 0.950 . S
C5504 C5503 1.387 . S
C5504 C5507 1.387 . S
H5505 C5501 0.950 . S
H5506 C5503 0.950 . S
C5507 C5498 1.390 . S
C5507 H5500 0.950 . S
C5507 C5504 1.387 . S
C5508 C5509 1.387 . S
C5508 H5512 0.950 . S
C5508 C5517 1.390 . S
C5509 C5508 1.387 . S
C5509 C5511 1.387 . S
H5510 C5517 0.950 . S
C5511 C5509 1.387 . S
C5511 C5513 1.390 . S
C5511 H5515 0.950 . S
H5512 C5508 0.950 . S
C5513 C5511 1.390 . S
C5513 C5514 1.387 . S
C5513 H5516 0.950 . S
C5514 C5513 1.387 . S
C5514 C5517 1.387 . S
H5515 C5511 0.950 . S
H5516 C5513 0.950 . S
C5517 C5508 1.390 . S
C5517 H5510 0.950 . S
C5517 C5514 1.387 . S
C5518 C5519 1.387 . S
C5518 H5522 0.950 . S
C5518 C5527 1.390 . S
C5519 C5518 1.387 . S
C5519 C5521 1.387 . S
H5520 C5527 0.950 . S
C5521 C5519 1.387 . S
C5521 C5523 1.390 . S
C5521 H5525 0.950 . S
H5522 C5518 0.950 . S
C5523 C5521 1.390 . S
C5523 C5524 1.387 . S
C5523 H5526 0.950 . S
C5524 C5523 1.387 . S
C5524 C5527 1.387 . S
H5525 C5521 0.950 . S
H5526 C5523 0.950 . S
C5527 C5518 1.390 . S
C5527 H5520 0.950 . S
C5527 C5524 1.387 . S
C5528 C5529 1.387 . S
C5528 H5532 0.950 . S
C5528 C5537 1.390 . S
C5529 C5528 1.387 . S
C5529 C5531 1.387 . S
H5530 C5537 0.950 . S
C5531 C5529 1.387 . S
C5531 C5533 1.390 . S
C5531 H5535 0.950 . S
H5532 C5528 0.950 . S
C5533 C5531 1.390 . S
C5533 C5534 1.387 . S
C5533 H5536 0.950 . S
C5534 C5533 1.387 . S
C5534 C5537 1.387 . S
H5535 C5531 0.950 . S
H5536 C5533 0.950 . S
C5537 C5528 1.390 . S
C5537 H5530 0.950 . S
C5537 C5534 1.387 . S
C5538 C5539 1.387 . S
C5538 H5542 0.950 . S
C5538 C5547 1.390 . S
C5539 C5538 1.387 . S
C5539 C5541 1.387 . S
H5540 C5547 0.950 . S
C5541 C5539 1.387 . S
C5541 C5543 1.390 . S
C5541 H5545 0.950 . S
H5542 C5538 0.950 . S
C5543 C5541 1.390 . S
C5543 C5544 1.387 . S
C5543 H5546 0.950 . S
C5544 C5543 1.387 . S
C5544 C5547 1.387 . S
H5545 C5541 0.950 . S
H5546 C5543 0.950 . S
C5547 C5538 1.390 . S
C5547 H5540 0.950 . S
C5547 C5544 1.387 . S
C5548 C5549 1.387 . S
C5548 H5552 0.950 . S
C5548 C5557 1.390 . S
C5549 C5548 1.387 . S
C5549 C5551 1.387 . S
H5550 C5557 0.950 . S
C5551 C5549 1.387 . S
C5551 C5553 1.390 . S
C5551 H5555 0.950 . S
H5552 C5548 0.950 . S
C5553 C5551 1.390 . S
C5553 C5554 1.387 . S
C5553 H5556 0.950 . S
C5554 C5553 1.387 . S
C5554 C5557 1.387 . S
H5555 C5551 0.950 . S
H5556 C5553 0.950 . S
C5557 C5548 1.390 . S
C5557 H5550 0.950 . S
C5557 C5554 1.387 . S
C5558 C5559 1.387 . S
C5558 H5562 0.950 . S
C5558 C5567 1.390 . S
C5559 C5558 1.387 . S
C5559 C5561 1.387 . S
H5560 C5567 0.950 . S
C5561 C5559 1.387 . S
C5561 C5563 1.390 . S
C5561 H5565 0.950 . S
H5562 C5558 0.950 . S
C5563 C5561 1.390 . S
C5563 C5564 1.387 . S
C5563 H5566 0.950 . S
C5564 C5563 1.387 . S
C5564 C5567 1.387 . S
H5565 C5561 0.950 . S
H5566 C5563 0.950 . S
C5567 C5558 1.390 . S
C5567 H5560 0.950 . S
C5567 C5564 1.387 . S
C5568 C5569 1.387 . S
C5568 H5572 0.950 . S
C5568 C5577 1.390 . S
C5569 C5568 1.387 . S
C5569 C5571 1.387 . S
H5570 C5577 0.950 . S
C5571 C5569 1.387 . S
C5571 C5573 1.390 . S
C5571 H5575 0.950 . S
H5572 C5568 0.950 . S
C5573 C5571 1.390 . S
C5573 C5574 1.387 . S
C5573 H5576 0.950 . S
C5574 C5573 1.387 . S
C5574 C5577 1.387 . S
H5575 C5571 0.950 . S
H5576 C5573 0.950 . S
C5577 C5568 1.390 . S
C5577 H5570 0.950 . S
C5577 C5574 1.387 . S
C5578 C5579 1.387 . S
C5578 H5582 0.950 . S
C5578 C5587 1.390 . S
C5579 C5578 1.387 . S
C5579 C5581 1.387 . S
H5580 C5587 0.950 . S
C5581 C5579 1.387 . S
C5581 C5583 1.390 . S
C5581 H5585 0.950 . S
H5582 C5578 0.950 . S
C5583 C5581 1.390 . S
C5583 C5584 1.387 . S
C5583 H5586 0.950 . S
C5584 C5583 1.387 . S
C5584 C5587 1.387 . S
H5585 C5581 0.950 . S
H5586 C5583 0.950 . S
C5587 C5578 1.390 . S
C5587 H5580 0.950 . S
C5587 C5584 1.387 . S
C5588 C5589 1.387 . S
C5588 H5592 0.950 . S
C5588 C5597 1.390 . S
C5589 C5588 1.387 . S
C5589 C5591 1.387 . S
H5590 C5597 0.950 . S
C5591 C5589 1.387 . S
C5591 C5593 1.390 . S
C5591 H5595 0.950 . S
H5592 C5588 0.950 . S
C5593 C5591 1.390 . S
C5593 C5594 1.387 . S
C5593 H5596 0.950 . S
C5594 C5593 1.387 . S
C5594 C5597 1.387 . S
H5595 C5591 0.950 . S
H5596 C5593 0.950 . S
C5597 C5588 1.390 . S
C5597 H5590 0.950 . S
C5597 C5594 1.387 . S
C5598 C5599 1.387 . S
C5598 H5602 0.950 . S
C5598 C5607 1.390 . S
C5599 C5598 1.387 . S
C5599 C5601 1.387 . S
H5600 C5607 0.950 . S
C5601 C5599 1.387 . S
C5601 C5603 1.390 . S
C5601 H5605 0.950 . S
H5602 C5598 0.950 . S
C5603 C5601 1.390 . S
C5603 C5604 1.387 . S
C5603 H5606 0.950 . S
C5604 C5603 1.387 . S
C5604 C5607 1.387 . S
H5605 C5601 0.950 . S
H5606 C5603 0.950 . S
C5607 C5598 1.390 . S
C5607 H5600 0.950 . S
C5607 C5604 1.387 . S
C5608 C5609 1.387 . S
C5608 H5612 0.950 . S
C5608 C5617 1.390 . S
C5609 C5608 1.387 . S
C5609 C5611 1.387 . S
H5610 C5617 0.950 . S
C5611 C5609 1.387 . S
C5611 C5613 1.390 . S
C5611 H5615 0.950 . S
H5612 C5608 0.950 . S
C5613 C5611 1.390 . S
C5613 C5614 1.387 . S
C5613 H5616 0.950 . S
C5614 C5613 1.387 . S
C5614 C5617 1.387 . S
H5615 C5611 0.950 . S
H5616 C5613 0.950 . S
C5617 C5608 1.390 . S
C5617 H5610 0.950 . S
C5617 C5614 1.387 . S
C5618 C5619 1.387 . S
C5618 H5622 0.950 . S
C5618 C5627 1.390 . S
C5619 C5618 1.387 . S
C5619 C5621 1.387 . S
H5620 C5627 0.950 . S
C5621 C5619 1.387 . S
C5621 C5623 1.390 . S
C5621 H5625 0.950 . S
H5622 C5618 0.950 . S
C5623 C5621 1.390 . S
C5623 C5624 1.387 . S
C5623 H5626 0.950 . S
C5624 C5623 1.387 . S
C5624 C5627 1.387 . S
H5625 C5621 0.950 . S
H5626 C5623 0.950 . S
C5627 C5618 1.390 . S
C5627 H5620 0.950 . S
C5627 C5624 1.387 . S
C5628 C5629 1.387 . S
C5628 H5632 0.950 . S
C5628 C5637 1.390 . S
C5629 C5628 1.387 . S
C5629 C5631 1.387 . S
H5630 C5637 0.950 . S
C5631 C5629 1.387 . S
C5631 C5633 1.390 . S
C5631 H5635 0.950 . S
H5632 C5628 0.950 . S
C5633 C5631 1.390 . S
C5633 C5634 1.387 . S
C5633 H5636 0.950 . S
C5634 C5633 1.387 . S
C5634 C5637 1.387 . S
H5635 C5631 0.950 . S
H5636 C5633 0.950 . S
C5637 C5628 1.390 . S
C5637 H5630 0.950 . S
C5637 C5634 1.387 . S
C5638 C5639 1.387 . S
C5638 H5642 0.950 . S
C5638 C5647 1.390 . S
C5639 C5638 1.387 . S
C5639 C5641 1.387 . S
H5640 C5647 0.950 . S
C5641 C5639 1.387 . S
C5641 C5643 1.390 . S
C5641 H5645 0.950 . S
H5642 C5638 0.950 . S
C5643 C5641 1.390 . S
C5643 C5644 1.387 . S
C5643 H5646 0.950 . S
C5644 C5643 1.387 . S
C5644 C5647 1.387 . S
H5645 C5641 0.950 . S
H5646 C5643 0.950 . S
C5647 C5638 1.390 . S
C5647 H5640 0.950 . S
C5647 C5644 1.387 . S
C5648 C5649 1.387 . S
C5648 H5652 0.950 . S
C5648 C5657 1.390 . S
C5649 C5648 1.387 . S
C5649 C5651 1.387 . S
H5650 C5657 0.950 . S
C5651 C5649 1.387 . S
C5651 C5653 1.390 . S
C5651 H5655 0.950 . S
H5652 C5648 0.950 . S
C5653 C5651 1.390 . S
C5653 C5654 1.387 . S
C5653 H5656 0.950 . S
C5654 C5653 1.387 . S
C5654 C5657 1.387 . S
H5655 C5651 0.950 . S
H5656 C5653 0.950 . S
C5657 C5648 1.390 . S
C5657 H5650 0.950 . S
C5657 C5654 1.387 . S
C5658 C5659 1.387 . S
C5658 H5662 0.950 . S
C5658 C5667 1.390 . S
C5659 C5658 1.387 . S
C5659 C5661 1.387 . S
H5660 C5667 0.950 . S
C5661 C5659 1.387 . S
C5661 C5663 1.390 . S
C5661 H5665 0.950 . S
H5662 C5658 0.950 . S
C5663 C5661 1.390 . S
C5663 C5664 1.387 . S
C5663 H5666 0.950 . S
C5664 C5663 1.387 . S
C5664 C5667 1.387 . S
H5665 C5661 0.950 . S
H5666 C5663 0.950 . S
C5667 C5658 1.390 . S
C5667 H5660 0.950 . S
C5667 C5664 1.387 . S
C5668 C5669 1.387 . S
C5668 H5672 0.950 . S
C5668 C5677 1.390 . S
C5669 C5668 1.387 . S
C5669 C5671 1.387 . S
H5670 C5677 0.950 . S
C5671 C5669 1.387 . S
C5671 C5673 1.390 . S
C5671 H5675 0.950 . S
H5672 C5668 0.950 . S
C5673 C5671 1.390 . S
C5673 C5674 1.387 . S
C5673 H5676 0.950 . S
C5674 C5673 1.387 . S
C5674 C5677 1.387 . S
H5675 C5671 0.950 . S
H5676 C5673 0.950 . S
C5677 C5668 1.390 . S
C5677 H5670 0.950 . S
C5677 C5674 1.387 . S
C5678 C5679 1.387 . S
C5678 H5682 0.950 . S
C5678 C5687 1.390 . S
C5679 C5678 1.387 . S
C5679 C5681 1.387 . S
H5680 C5687 0.950 . S
C5681 C5679 1.387 . S
C5681 C5683 1.390 . S
C5681 H5685 0.950 . S
H5682 C5678 0.950 . S
C5683 C5681 1.390 . S
C5683 C5684 1.387 . S
C5683 H5686 0.950 . S
C5684 C5683 1.387 . S
C5684 C5687 1.387 . S
H5685 C5681 0.950 . S
H5686 C5683 0.950 . S
C5687 C5678 1.390 . S
C5687 H5680 0.950 . S
C5687 C5684 1.387 . S
C5688 C5689 1.387 . S
C5688 H5692 0.950 . S
C5688 C5697 1.390 . S
C5689 C5688 1.387 . S
C5689 C5691 1.387 . S
H5690 C5697 0.950 . S
C5691 C5689 1.387 . S
C5691 C5693 1.390 . S
C5691 H5695 0.950 . S
H5692 C5688 0.950 . S
C5693 C5691 1.390 . S
C5693 C5694 1.387 . S
C5693 H5696 0.950 . S
C5694 C5693 1.387 . S
C5694 C5697 1.387 . S
H5695 C5691 0.950 . S
H5696 C5693 0.950 . S
C5697 C5688 1.390 . S
C5697 H5690 0.950 . S
C5697 C5694 1.387 . S
C5698 C5699 1.387 . S
C5698 H5702 0.950 . S
C5698 C5707 1.390 . S
C5699 C5698 1.387 . S
C5699 C5701 1.387 . S
H5700 C5707 0.950 . S
C5701 C5699 1.387 . S
C5701 C5703 1.390 . S
C5701 H5705 0.950 . S
H5702 C5698 0.950 . S
C5703 C5701 1.390 . S
C5703 C5704 1.387 . S
C5703 H5706 0.950 . S
C5704 C5703 1.387 . S
C5704 C5707 1.387 . S
H5705 C5701 0.950 . S
H5706 C5703 0.950 . S
C5707 C5698 1.390 . S
C5707 H5700 0.950 . S
C5707 C5704 1.387 . S
C5708 C5709 1.387 . S
C5708 H5712 0.950 . S
C5708 C5717 1.390 . S
C5709 C5708 1.387 . S
C5709 C5711 1.387 . S
H5710 C5717 0.950 . S
C5711 C5709 1.387 . S
C5711 C5713 1.390 . S
C5711 H5715 0.950 . S
H5712 C5708 0.950 . S
C5713 C5711 1.390 . S
C5713 C5714 1.387 . S
C5713 H5716 0.950 . S
C5714 C5713 1.387 . S
C5714 C5717 1.387 . S
H5715 C5711 0.950 . S
H5716 C5713 0.950 . S
C5717 C5708 1.390 . S
C5717 H5710 0.950 . S
C5717 C5714 1.387 . S
C5718 C5719 1.387 . S
C5718 H5722 0.950 . S
C5718 C5727 1.390 . S
C5719 C5718 1.387 . S
C5719 C5721 1.387 . S
H5720 C5727 0.950 . S
C5721 C5719 1.387 . S
C5721 C5723 1.390 . S
C5721 H5725 0.950 . S
H5722 C5718 0.950 . S
C5723 C5721 1.390 . S
C5723 C5724 1.387 . S
C5723 H5726 0.950 . S
C5724 C5723 1.387 . S
C5724 C5727 1.387 . S
H5725 C5721 0.950 . S
H5726 C5723 0.950 . S
C5727 C5718 1.390 . S
C5727 H5720 0.950 . S
C5727 C5724 1.387 . S
C5728 C5729 1.387 . S
C5728 H5732 0.950 . S
C5728 C5737 1.390 . S
C5729 C5728 1.387 . S
C5729 C5731 1.387 . S
H5730 C5737 0.950 . S
C5731 C5729 1.387 . S
C5731 C5733 1.390 . S
C5731 H5735 0.950 . S
H5732 C5728 0.950 . S
C5733 C5731 1.390 . S
C5733 C5734 1.387 . S
C5733 H5736 0.950 . S
C5734 C5733 1.387 . S
C5734 C5737 1.387 . S
H5735 C5731 0.950 . S
H5736 C5733 0.950 . S
C5737 C5728 1.390 . S
C5737 H5730 0.950 . S
C5737 C5734 1.387 . S
C5738 C5739 1.387 . S
C5738 H5742 0.950 . S
C5738 C5747 1.390 . S
C5739 C5738 1.387 . S
C5739 C5741 1.387 . S
H5740 C5747 0.950 . S
C5741 C5739 1.387 . S
C5741 C5743 1.390 . S
C5741 H5745 0.950 . S
H5742 C5738 0.950 . S
C5743 C5741 1.390 . S
C5743 C5744 1.387 . S
C5743 H5746 0.950 . S
C5744 C5743 1.387 . S
C5744 C5747 1.387 . S
H5745 C5741 0.950 . S
H5746 C5743 0.950 . S
C5747 C5738 1.390 . S
C5747 H5740 0.950 . S
C5747 C5744 1.387 . S
C5748 C5749 1.387 . S
C5748 H5752 0.950 . S
C5748 C5757 1.390 . S
C5749 C5748 1.387 . S
C5749 C5751 1.387 . S
H5750 C5757 0.950 . S
C5751 C5749 1.387 . S
C5751 C5753 1.390 . S
C5751 H5755 0.950 . S
H5752 C5748 0.950 . S
C5753 C5751 1.390 . S
C5753 C5754 1.387 . S
C5753 H5756 0.950 . S
C5754 C5753 1.387 . S
C5754 C5757 1.387 . S
H5755 C5751 0.950 . S
H5756 C5753 0.950 . S
C5757 C5748 1.390 . S
C5757 H5750 0.950 . S
C5757 C5754 1.387 . S
C5758 C5759 1.387 . S
C5758 H5762 0.950 . S
C5758 C5767 1.390 . S
C5759 C5758 1.387 . S
C5759 C5761 1.387 . S
H5760 C5767 0.950 . S
C5761 C5759 1.387 . S
C5761 C5763 1.390 . S
C5761 H5765 0.950 . S
H5762 C5758 0.950 . S
C5763 C5761 1.390 . S
C5763 C5764 1.387 . S
C5763 H5766 0.950 . S
C5764 C5763 1.387 . S
C5764 C5767 1.387 . S
H5765 C5761 0.950 . S
H5766 C5763 0.950 . S
C5767 C5758 1.390 . S
C5767 H5760 0.950 . S
C5767 C5764 1.387 . S
C5768 C5769 1.387 . S
C5768 H5772 0.950 . S
C5768 C5777 1.390 . S
C5769 C5768 1.387 . S
C5769 C5771 1.387 . S
H5770 C5777 0.950 . S
C5771 C5769 1.387 . S
C5771 C5773 1.390 . S
C5771 H5775 0.950 . S
H5772 C5768 0.950 . S
C5773 C5771 1.390 . S
C5773 C5774 1.387 . S
C5773 H5776 0.950 . S
C5774 C5773 1.387 . S
C5774 C5777 1.387 . S
H5775 C5771 0.950 . S
H5776 C5773 0.950 . S
C5777 C5768 1.390 . S
C5777 H5770 0.950 . S
C5777 C5774 1.387 . S
C5778 C5779 1.387 . S
C5778 H5782 0.950 . S
C5778 C5787 1.390 . S
C5779 C5778 1.387 . S
C5779 C5781 1.387 . S
H5780 C5787 0.950 . S
C5781 C5779 1.387 . S
C5781 C5783 1.390 . S
C5781 H5785 0.950 . S
H5782 C5778 0.950 . S
C5783 C5781 1.390 . S
C5783 C5784 1.387 . S
C5783 H5786 0.950 . S
C5784 C5783 1.387 . S
C5784 C5787 1.387 . S
H5785 C5781 0.950 . S
H5786 C5783 0.950 . S
C5787 C5778 1.390 . S
C5787 H5780 0.950 . S
C5787 C5784 1.387 . S
C5788 C5789 1.387 . S
C5788 H5792 0.950 . S
C5788 C5797 1.390 . S
C5789 C5788 1.387 . S
C5789 C5791 1.387 . S
H5790 C5797 0.950 . S
C5791 C5789 1.387 . S
C5791 C5793 1.390 . S
C5791 H5795 0.950 . S
H5792 C5788 0.950 . S
C5793 C5791 1.390 . S
C5793 C5794 1.387 . S
C5793 H5796 0.950 . S
C5794 C5793 1.387 . S
C5794 C5797 1.387 . S
H5795 C5791 0.950 . S
H5796 C5793 0.950 . S
C5797 C5788 1.390 . S
C5797 H5790 0.950 . S
C5797 C5794 1.387 . S
C5798 C5799 1.387 . S
C5798 H5802 0.950 . S
C5798 C5807 1.390 . S
C5799 C5798 1.387 . S
C5799 C5801 1.387 . S
H5800 C5807 0.950 . S
C5801 C5799 1.387 . S
C5801 C5803 1.390 . S
C5801 H5805 0.950 . S
H5802 C5798 0.950 . S
C5803 C5801 1.390 . S
C5803 C5804 1.387 . S
C5803 H5806 0.950 . S
C5804 C5803 1.387 . S
C5804 C5807 1.387 . S
H5805 C5801 0.950 . S
H5806 C5803 0.950 . S
C5807 C5798 1.390 . S
C5807 H5800 0.950 . S
C5807 C5804 1.387 . S
C5808 C5809 1.387 . S
C5808 H5812 0.950 . S
C5808 C5817 1.390 . S
C5809 C5808 1.387 . S
C5809 C5811 1.387 . S
H5810 C5817 0.950 . S
C5811 C5809 1.387 . S
C5811 C5813 1.390 . S
C5811 H5815 0.950 . S
H5812 C5808 0.950 . S
C5813 C5811 1.390 . S
C5813 C5814 1.387 . S
C5813 H5816 0.950 . S
C5814 C5813 1.387 . S
C5814 C5817 1.387 . S
H5815 C5811 0.950 . S
H5816 C5813 0.950 . S
C5817 C5808 1.390 . S
C5817 H5810 0.950 . S
C5817 C5814 1.387 . S
C5818 C5819 1.387 . S
C5818 H5822 0.950 . S
C5818 C5827 1.390 . S
C5819 C5818 1.387 . S
C5819 C5821 1.387 . S
H5820 C5827 0.950 . S
C5821 C5819 1.387 . S
C5821 C5823 1.390 . S
C5821 H5825 0.950 . S
H5822 C5818 0.950 . S
C5823 C5821 1.390 . S
C5823 C5824 1.387 . S
C5823 H5826 0.950 . S
C5824 C5823 1.387 . S
C5824 C5827 1.387 . S
H5825 C5821 0.950 . S
H5826 C5823 0.950 . S
C5827 C5818 1.390 . S
C5827 H5820 0.950 . S
C5827 C5824 1.387 . S
C5828 C5829 1.387 . S
C5828 H5832 0.950 . S
C5828 C5837 1.390 . S
C5829 C5828 1.387 . S
C5829 C5831 1.387 . S
H5830 C5837 0.950 . S
C5831 C5829 1.387 . S
C5831 C5833 1.390 . S
C5831 H5835 0.950 . S
H5832 C5828 0.950 . S
C5833 C5831 1.390 . S
C5833 C5834 1.387 . S
C5833 H5836 0.950 . S
C5834 C5833 1.387 . S
C5834 C5837 1.387 . S
H5835 C5831 0.950 . S
H5836 C5833 0.950 . S
C5837 C5828 1.390 . S
C5837 H5830 0.950 . S
C5837 C5834 1.387 . S
C5838 C5839 1.387 . S
C5838 H5842 0.950 . S
C5838 C5847 1.390 . S
C5839 C5838 1.387 . S
C5839 C5841 1.387 . S
H5840 C5847 0.950 . S
C5841 C5839 1.387 . S
C5841 C5843 1.390 . S
C5841 H5845 0.950 . S
H5842 C5838 0.950 . S
C5843 C5841 1.390 . S
C5843 C5844 1.387 . S
C5843 H5846 0.950 . S
C5844 C5843 1.387 . S
C5844 C5847 1.387 . S
H5845 C5841 0.950 . S
H5846 C5843 0.950 . S
C5847 C5838 1.390 . S
C5847 H5840 0.950 . S
C5847 C5844 1.387 . S
C5848 C5849 1.387 . S
C5848 H5852 0.950 . S
C5848 C5857 1.390 . S
C5849 C5848 1.387 . S
C5849 C5851 1.387 . S
H5850 C5857 0.950 . S
C5851 C5849 1.387 . S
C5851 C5853 1.390 . S
C5851 H5855 0.950 . S
H5852 C5848 0.950 . S
C5853 C5851 1.390 . S
C5853 C5854 1.387 . S
C5853 H5856 0.950 . S
C5854 C5853 1.387 . S
C5854 C5857 1.387 . S
H5855 C5851 0.950 . S
H5856 C5853 0.950 . S
C5857 C5848 1.390 . S
C5857 H5850 0.950 . S
C5857 C5854 1.387 . S
C5858 C5859 1.387 . S
C5858 H5862 0.950 . S
C5858 C5867 1.390 . S
C5859 C5858 1.387 . S
C5859 C5861 1.387 . S
H5860 C5867 0.950 . S
C5861 C5859 1.387 . S
C5861 C5863 1.390 . S
C5861 H5865 0.950 . S
H5862 C5858 0.950 . S
C5863 C5861 1.390 . S
C5863 C5864 1.387 . S
C5863 H5866 0.950 . S
C5864 C5863 1.387 . S
C5864 C5867 1.387 . S
H5865 C5861 0.950 . S
H5866 C5863 0.950 . S
C5867 C5858 1.390 . S
C5867 H5860 0.950 . S
C5867 C5864 1.387 . S
C5868 C5869 1.387 . S
C5868 H5872 0.950 . S
C5868 C5877 1.390 . S
C5869 C5868 1.387 . S
C5869 C5871 1.387 . S
H5870 C5877 0.950 . S
C5871 C5869 1.387 . S
C5871 C5873 1.390 . S
C5871 H5875 0.950 . S
H5872 C5868 0.950 . S
C5873 C5871 1.390 . S
C5873 C5874 1.387 . S
C5873 H5876 0.950 . S
C5874 C5873 1.387 . S
C5874 C5877 1.387 . S
H5875 C5871 0.950 . S
H5876 C5873 0.950 . S
C5877 C5868 1.390 . S
C5877 H5870 0.950 . S
C5877 C5874 1.387 . S
C5878 C5879 1.387 . S
C5878 H5882 0.950 . S
C5878 C5887 1.390 . S
C5879 C5878 1.387 . S
C5879 C5881 1.387 . S
H5880 C5887 0.950 . S
C5881 C5879 1.387 . S
C5881 C5883 1.390 . S
C5881 H5885 0.950 . S
H5882 C5878 0.950 . S
C5883 C5881 1.390 . S
C5883 C5884 1.387 . S
C5883 H5886 0.950 . S
C5884 C5883 1.387 . S
C5884 C5887 1.387 . S
H5885 C5881 0.950 . S
H5886 C5883 0.950 . S
C5887 C5878 1.390 . S
C5887 H5880 0.950 . S
C5887 C5884 1.387 . S
C5888 C5889 1.387 . S
C5888 H5892 0.950 . S
C5888 C5897 1.390 . S
C5889 C5888 1.387 . S
C5889 C5891 1.387 . S
H5890 C5897 0.950 . S
C5891 C5889 1.387 . S
C5891 C5893 1.390 . S
C5891 H5895 0.950 . S
H5892 C5888 0.950 . S
C5893 C5891 1.390 . S
C5893 C5894 1.387 . S
C5893 H5896 0.950 . S
C5894 C5893 1.387 . S
C5894 C5897 1.387 . S
H5895 C5891 0.950 . S
H5896 C5893 0.950 . S
C5897 C5888 1.390 . S
C5897 H5890 0.950 . S
C5897 C5894 1.387 . S
C5898 C5899 1.387 . S
C5898 H5902 0.950 . S
C5898 C5907 1.390 . S
C5899 C5898 1.387 . S
C5899 C5901 1.387 . S
H5900 C5907 0.950 . S
C5901 C5899 1.387 . S
C5901 C5903 1.390 . S
C5901 H5905 0.950 . S
H5902 C5898 0.950 . S
C5903 C5901 1.390 . S
C5903 C5904 1.387 . S
C5903 H5906 0.950 . S
C5904 C5903 1.387 . S
C5904 C5907 1.387 . S
H5905 C5901 0.950 . S
H5906 C5903 0.950 . S
C5907 C5898 1.390 . S
C5907 H5900 0.950 . S
C5907 C5904 1.387 . S
C5908 C5909 1.387 . S
C5908 H5912 0.950 . S
C5908 C5917 1.390 . S
C5909 C5908 1.387 . S
C5909 C5911 1.387 . S
H5910 C5917 0.950 . S
C5911 C5909 1.387 . S
C5911 C5913 1.390 . S
C5911 H5915 0.950 . S
H5912 C5908 0.950 . S
C5913 C5911 1.390 . S
C5913 C5914 1.387 . S
C5913 H5916 0.950 . S
C5914 C5913 1.387 . S
C5914 C5917 1.387 . S
H5915 C5911 0.950 . S
H5916 C5913 0.950 . S
C5917 C5908 1.390 . S
C5917 H5910 0.950 . S
C5917 C5914 1.387 . S
C5918 C5919 1.387 . S
C5918 H5922 0.950 . S
C5918 C5927 1.390 . S
C5919 C5918 1.387 . S
C5919 C5921 1.387 . S
H5920 C5927 0.950 . S
C5921 C5919 1.387 . S
C5921 C5923 1.390 . S
C5921 H5925 0.950 . S
H5922 C5918 0.950 . S
C5923 C5921 1.390 . S
C5923 C5924 1.387 . S
C5923 H5926 0.950 . S
C5924 C5923 1.387 . S
C5924 C5927 1.387 . S
H5925 C5921 0.950 . S
H5926 C5923 0.950 . S
C5927 C5918 1.390 . S
C5927 H5920 0.950 . S
C5927 C5924 1.387 . S
C5928 C5929 1.387 . S
C5928 H5932 0.950 . S
C5928 C5937 1.390 . S
C5929 C5928 1.387 . S
C5929 C5931 1.387 . S
H5930 C5937 0.950 . S
C5931 C5929 1.387 . S
C5931 C5933 1.390 . S
C5931 H5935 0.950 . S
H5932 C5928 0.950 . S
C5933 C5931 1.390 . S
C5933 C5934 1.387 . S
C5933 H5936 0.950 . S
C5934 C5933 1.387 . S
C5934 C5937 1.387 . S
H5935 C5931 0.950 . S
H5936 C5933 0.950 . S
C5937 C5928 1.390 . S
C5937 H5930 0.950 . S
C5937 C5934 1.387 . S
C5938 C5939 1.387 . S
C5938 H5942 0.950 . S
C5938 C5947 1.390 . S
C5939 C5938 1.387 . S
C5939 C5941 1.387 . S
H5940 C5947 0.950 . S
C5941 C5939 1.387 . S
C5941 C5943 1.390 . S
C5941 H5945 0.950 . S
H5942 C5938 0.950 . S
C5943 C5941 1.390 . S
C5943 C5944 1.387 . S
C5943 H5946 0.950 . S
C5944 C5943 1.387 . S
C5944 C5947 1.387 . S
H5945 C5941 0.950 . S
H5946 C5943 0.950 . S
C5947 C5938 1.390 . S
C5947 H5940 0.950 . S
C5947 C5944 1.387 . S
C5948 C5949 1.387 . S
C5948 H5952 0.950 . S
C5948 C5957 1.390 . S
C5949 C5948 1.387 . S
C5949 C5951 1.387 . S
H5950 C5957 0.950 . S
C5951 C5949 1.387 . S
C5951 C5953 1.390 . S
C5951 H5955 0.950 . S
H5952 C5948 0.950 . S
C5953 C5951 1.390 . S
C5953 C5954 1.387 . S
C5953 H5956 0.950 . S
C5954 C5953 1.387 . S
C5954 C5957 1.387 . S
H5955 C5951 0.950 . S
H5956 C5953 0.950 . S
C5957 C5948 1.390 . S
C5957 H5950 0.950 . S
C5957 C5954 1.387 . S
C5958 C5959 1.387 . S
C5958 H5962 0.950 . S
C5958 C5967 1.390 . S
C5959 C5958 1.387 . S
C5959 C5961 1.387 . S
H5960 C5967 0.950 . S
C5961 C5959 1.387 . S
C5961 C5963 1.390 . S
C5961 H5965 0.950 . S
H5962 C5958 0.950 . S
C5963 C5961 1.390 . S
C5963 C5964 1.387 . S
C5963 H5966 0.950 . S
C5964 C5963 1.387 . S
C5964 C5967 1.387 . S
H5965 C5961 0.950 . S
H5966 C5963 0.950 . S
C5967 C5958 1.390 . S
C5967 H5960 0.950 . S
C5967 C5964 1.387 . S
C5968 C5969 1.387 . S
C5968 H5972 0.950 . S
C5968 C5977 1.390 . S
C5969 C5968 1.387 . S
C5969 C5971 1.387 . S
H5970 C5977 0.950 . S
C5971 C5969 1.387 . S
C5971 C5973 1.390 . S
C5971 H5975 0.950 . S
H5972 C5968 0.950 . S
C5973 C5971 1.390 . S
C5973 C5974 1.387 . S
C5973 H5976 0.950 . S
C5974 C5973 1.387 . S
C5974 C5977 1.387 . S
H5975 C5971 0.950 . S
H5976 C5973 0.950 . S
C5977 C5968 1.390 . S
C5977 H5970 0.950 . S
C5977 C5974 1.387 . S
C5978 C5979 1.387 . S
C5978 H5982 0.950 . S
C5978 C5987 1.390 . S
C5979 C5978 1.387 . S
C5979 C5981 1.387 . S
H5980 C5987 0.950 . S
C5981 C5979 1.387 . S
C5981 C5983 1.390 . S
C5981 H5985 0.950 . S
H5982 C5978 0.950 . S
C5983 C5981 1.390 . S
C5983 C5984 1.387 . S
C5983 H5986 0.950 . S
C5984 C5983 1.387 . S
C5984 C5987 1.387 . S
H5985 C5981 0.950 . S
H5986 C5983 0.950 . S
C5987 C5978 1.390 . S
C5987 H5980 0.950 . S
C5987 C5984 1.387 . S
C5988 C5989 1.387 . S
C5988 H5992 0.950 . S
C5988 C5997 1.390 . S
C5989 C5988 1.387 . S
C5989 C5991 1.387 . S
H5990 C5997 0.950 . S
C5991 C5989 1.387 . S
C5991 C5993 1.390 . S
C5991 H5995 0.950 . S
H5992 C5988 0.950 . S
C5993 C5991 1.390 . S
C5993 C5994 1.387 . S
C5993 H5996 0.950 . S
C5994 C5993 1.387 . S
C5994 C5997 1.387 . S
H5995 C5991 0.950 . S
H5996 C5993 0.950 . S
C5997 C5988 1.390 . S
C5997 H5990 0.950 . S
C5997 C5994 1.387 . S
C5998 C5999 1.387 . S
C5998 H6002 0.950 . S
C5998 C6007 1.390 . S
C5999 C5998 1.387 . S
C5999 C6001 1.387 . S
H6000 C6007 0.950 . S
C6001 C5999 1.387 . S
C6001 C6003 1.390 . S
C6001 H6005 0.950 . S
H6002 C5998 0.950 . S
C6003 C6001 1.390 . S
C6003 C6004 1.387 . S
C6003 H6006 0.950 . S
C6004 C6003 1.387 . S
C6004 C6007 1.387 . S
H6005 C6001 0.950 . S
H6006 C6003 0.950 . S
C6007 C5998 1.390 . S
C6007 H6000 0.950 . S
C6007 C6004 1.387 . S
C6008 C6009 1.387 . S
C6008 H6012 0.950 . S
C6008 C6017 1.390 . S
C6009 C6008 1.387 . S
C6009 C6011 1.387 . S
H6010 C6017 0.950 . S
C6011 C6009 1.387 . S
C6011 C6013 1.390 . S
C6011 H6015 0.950 . S
H6012 C6008 0.950 . S
C6013 C6011 1.390 . S
C6013 C6014 1.387 . S
C6013 H6016 0.950 . S
C6014 C6013 1.387 . S
C6014 C6017 1.387 . S
H6015 C6011 0.950 . S
H6016 C6013 0.950 . S
C6017 C6008 1.390 . S
C6017 H6010 0.950 . S
C6017 C6014 1.387 . S
C6018 C6019 1.387 . S
C6018 H6022 0.950 . S
C6018 C6027 1.390 . S
C6019 C6018 1.387 . S
C6019 C6021 1.387 . S
H6020 C6027 0.950 . S
C6021 C6019 1.387 . S
C6021 C6023 1.390 . S
C6021 H6025 0.950 . S
H6022 C6018 0.950 . S
C6023 C6021 1.390 . S
C6023 C6024 1.387 . S
C6023 H6026 0.950 . S
C6024 C6023 1.387 . S
C6024 C6027 1.387 . S
H6025 C6021 0.950 . S
H6026 C6023 0.950 . S
C6027 C6018 1.390 . S
C6027 H6020 0.950 . S
C6027 C6024 1.387 . S
C6028 C6029 1.387 . S
C6028 H6032 0.950 . S
C6028 C6037 1.390 . S
C6029 C6028 1.387 . S
C6029 C6031 1.387 . S
H6030 C6037 0.950 . S
C6031 C6029 1.387 . S
C6031 C6033 1.390 . S
C6031 H6035 0.950 . S
H6032 C6028 0.950 . S
C6033 C6031 1.390 . S
C6033 C6034 1.387 . S
C6033 H6036 0.950 . S
C6034 C6033 1.387 . S
C6034 C6037 1.387 . S
H6035 C6031 0.950 . S
H6036 C6033 0.950 . S
C6037 C6028 1.390 . S
C6037 H6030 0.950 . S
C6037 C6034 1.387 . S
C6038 C6039 1.387 . S
C6038 H6042 0.950 . S
C6038 C6047 1.390 . S
C6039 C6038 1.387 . S
C6039 C6041 1.387 . S
H6040 C6047 0.950 . S
C6041 C6039 1.387 . S
C6041 C6043 1.390 . S
C6041 H6045 0.950 . S
H6042 C6038 0.950 . S
C6043 C6041 1.390 . S
C6043 C6044 1.387 . S
C6043 H6046 0.950 . S
C6044 C6043 1.387 . S
C6044 C6047 1.387 . S
H6045 C6041 0.950 . S
H6046 C6043 0.950 . S
C6047 C6038 1.390 . S
C6047 H6040 0.950 . S
C6047 C6044 1.387 . S
C6048 C6049 1.387 . S
C6048 H6052 0.950 . S
C6048 C6057 1.390 . S
C6049 C6048 1.387 . S
C6049 C6051 1.387 . S
H6050 C6057 0.950 . S
C6051 C6049 1.387 . S
C6051 C6053 1.390 . S
C6051 H6055 0.950 . S
H6052 C6048 0.950 . S
C6053 C6051 1.390 . S
C6053 C6054 1.387 . S
C6053 H6056 0.950 . S
C6054 C6053 1.387 . S
C6054 C6057 1.387 . S
H6055 C6051 0.950 . S
H6056 C6053 0.950 . S
C6057 C6048 1.390 . S
C6057 H6050 0.950 . S
C6057 C6054 1.387 . S
C6058 C6059 1.387 . S
C6058 H6062 0.950 . S
C6058 C6067 1.390 . S
C6059 C6058 1.387 . S
C6059 C6061 1.387 . S
H6060 C6067 0.950 . S
C6061 C6059 1.387 . S
C6061 C6063 1.390 . S
C6061 H6065 0.950 . S
H6062 C6058 0.950 . S
C6063 C6061 1.390 . S
C6063 C6064 1.387 . S
C6063 H6066 0.950 . S
C6064 C6063 1.387 . S
C6064 C6067 1.387 . S
H6065 C6061 0.950 . S
H6066 C6063 0.950 . S
C6067 C6058 1.390 . S
C6067 H6060 0.950 . S
C6067 C6064 1.387 . S
C6068 C6069 1.387 . S
C6068 H6072 0.950 . S
C6068 C6077 1.390 . S
C6069 C6068 1.387 . S
C6069 C6071 1.387 . S
H6070 C6077 0.950 . S
C6071 C6069 1.387 . S
C6071 C6073 1.390 . S
C6071 H6075 0.950 . S
H6072 C6068 0.950 . S
C6073 C6071 1.390 . S
C6073 C6074 1.387 . S
C6073 H6076 0.950 . S
C6074 C6073 1.387 . S
C6074 C6077 1.387 . S
H6075 C6071 0.950 . S
H6076 C6073 0.950 . S
C6077 C6068 1.390 . S
C6077 H6070 0.950 . S
C6077 C6074 1.387 . S
C6078 C6079 1.387 . S
C6078 H6082 0.950 . S
C6078 C6087 1.390 . S
C6079 C6078 1.387 . S
C6079 C6081 1.387 . S
H6080 C6087 0.950 . S
C6081 C6079 1.387 . S
C6081 C6083 1.390 . S
C6081 H6085 0.950 . S
H6082 C6078 0.950 . S
C6083 C6081 1.390 . S
C6083 C6084 1.387 . S
C6083 H6086 0.950 . S
C6084 C6083 1.387 . S
C6084 C6087 1.387 . S
H6085 C6081 0.950 . S
H6086 C6083 0.950 . S
C6087 C6078 1.390 . S
C6087 H6080 0.950 . S
C6087 C6084 1.387 . S
C6088 C6089 1.387 . S
C6088 H6092 0.950 . S
C6088 C6097 1.390 . S
C6089 C6088 1.387 . S
C6089 C6091 1.387 . S
H6090 C6097 0.950 . S
C6091 C6089 1.387 . S
C6091 C6093 1.390 . S
C6091 H6095 0.950 . S
H6092 C6088 0.950 . S
C6093 C6091 1.390 . S
C6093 C6094 1.387 . S
C6093 H6096 0.950 . S
C6094 C6093 1.387 . S
C6094 C6097 1.387 . S
H6095 C6091 0.950 . S
H6096 C6093 0.950 . S
C6097 C6088 1.390 . S
C6097 H6090 0.950 . S
C6097 C6094 1.387 . S
C6098 C6099 1.387 . S
C6098 H6102 0.950 . S
C6098 C6107 1.390 . S
C6099 C6098 1.387 . S
C6099 C6101 1.387 . S
H6100 C6107 0.950 . S
C6101 C6099 1.387 . S
C6101 C6103 1.390 . S
C6101 H6105 0.950 . S
H6102 C6098 0.950 . S
C6103 C6101 1.390 . S
C6103 C6104 1.387 . S
C6103 H6106 0.950 . S
C6104 C6103 1.387 . S
C6104 C6107 1.387 . S
H6105 C6101 0.950 . S
H6106 C6103 0.950 . S
C6107 C6098 1.390 . S
C6107 H6100 0.950 . S
C6107 C6104 1.387 . S
C6108 C6109 1.387 . S
C6108 H6112 0.950 . S
C6108 C6117 1.390 . S
C6109 C6108 1.387 . S
C6109 C6111 1.387 . S
H6110 C6117 0.950 . S
C6111 C6109 1.387 . S
C6111 C6113 1.390 . S
C6111 H6115 0.950 . S
H6112 C6108 0.950 . S
C6113 C6111 1.390 . S
C6113 C6114 1.387 . S
C6113 H6116 0.950 . S
C6114 C6113 1.387 . S
C6114 C6117 1.387 . S
H6115 C6111 0.950 . S
H6116 C6113 0.950 . S
C6117 C6108 1.390 . S
C6117 H6110 0.950 . S
C6117 C6114 1.387 . S
C6118 C6119 1.387 . S
C6118 H6122 0.950 . S
C6118 C6127 1.390 . S
C6119 C6118 1.387 . S
C6119 C6121 1.387 . S
H6120 C6127 0.950 . S
C6121 C6119 1.387 . S
C6121 C6123 1.390 . S
C6121 H6125 0.950 . S
H6122 C6118 0.950 . S
C6123 C6121 1.390 . S
C6123 C6124 1.387 . S
C6123 H6126 0.950 . S
C6124 C6123 1.387 . S
C6124 C6127 1.387 . S
H6125 C6121 0.950 . S
H6126 C6123 0.950 . S
C6127 C6118 1.390 . S
C6127 H6120 0.950 . S
C6127 C6124 1.387 . S
C6128 C6129 1.387 . S
C6128 H6132 0.950 . S
C6128 C6137 1.390 . S
C6129 C6128 1.387 . S
C6129 C6131 1.387 . S
H6130 C6137 0.950 . S
C6131 C6129 1.387 . S
C6131 C6133 1.390 . S
C6131 H6135 0.950 . S
H6132 C6128 0.950 . S
C6133 C6131 1.390 . S
C6133 C6134 1.387 . S
C6133 H6136 0.950 . S
C6134 C6133 1.387 . S
C6134 C6137 1.387 . S
H6135 C6131 0.950 . S
H6136 C6133 0.950 . S
C6137 C6128 1.390 . S
C6137 H6130 0.950 . S
C6137 C6134 1.387 . S
C6138 C6139 1.387 . S
C6138 H6142 0.950 . S
C6138 C6147 1.390 . S
C6139 C6138 1.387 . S
C6139 C6141 1.387 . S
H6140 C6147 0.950 . S
C6141 C6139 1.387 . S
C6141 C6143 1.390 . S
C6141 H6145 0.950 . S
H6142 C6138 0.950 . S
C6143 C6141 1.390 . S
C6143 C6144 1.387 . S
C6143 H6146 0.950 . S
C6144 C6143 1.387 . S
C6144 C6147 1.387 . S
H6145 C6141 0.950 . S
H6146 C6143 0.950 . S
C6147 C6138 1.390 . S
C6147 H6140 0.950 . S
C6147 C6144 1.387 . S
C6148 C6149 1.387 . S
C6148 H6152 0.950 . S
C6148 C6157 1.390 . S
C6149 C6148 1.387 . S
C6149 C6151 1.387 . S
H6150 C6157 0.950 . S
C6151 C6149 1.387 . S
C6151 C6153 1.390 . S
C6151 H6155 0.950 . S
H6152 C6148 0.950 . S
C6153 C6151 1.390 . S
C6153 C6154 1.387 . S
C6153 H6156 0.950 . S
C6154 C6153 1.387 . S
C6154 C6157 1.387 . S
H6155 C6151 0.950 . S
H6156 C6153 0.950 . S
C6157 C6148 1.390 . S
C6157 H6150 0.950 . S
C6157 C6154 1.387 . S
C6158 C6159 1.387 . S
C6158 H6162 0.950 . S
C6158 C6167 1.390 . S
C6159 C6158 1.387 . S
C6159 C6161 1.387 . S
H6160 C6167 0.950 . S
C6161 C6159 1.387 . S
C6161 C6163 1.390 . S
C6161 H6165 0.950 . S
H6162 C6158 0.950 . S
C6163 C6161 1.390 . S
C6163 C6164 1.387 . S
C6163 H6166 0.950 . S
C6164 C6163 1.387 . S
C6164 C6167 1.387 . S
H6165 C6161 0.950 . S
H6166 C6163 0.950 . S
C6167 C6158 1.390 . S
C6167 H6160 0.950 . S
C6167 C6164 1.387 . S
C6168 C6169 1.387 . S
C6168 H6172 0.950 . S
C6168 C6177 1.390 . S
C6169 C6168 1.387 . S
C6169 C6171 1.387 . S
H6170 C6177 0.950 . S
C6171 C6169 1.387 . S
C6171 C6173 1.390 . S
C6171 H6175 0.950 . S
H6172 C6168 0.950 . S
C6173 C6171 1.390 . S
C6173 C6174 1.387 . S
C6173 H6176 0.950 . S
C6174 C6173 1.387 . S
C6174 C6177 1.387 . S
H6175 C6171 0.950 . S
H6176 C6173 0.950 . S
C6177 C6168 1.390 . S
C6177 H6170 0.950 . S
C6177 C6174 1.387 . S
C6178 C6179 1.387 . S
C6178 H6182 0.950 . S
C6178 C6187 1.390 . S
C6179 C6178 1.387 . S
C6179 C6181 1.387 . S
H6180 C6187 0.950 . S
C6181 C6179 1.387 . S
C6181 C6183 1.390 . S
C6181 H6185 0.950 . S
H6182 C6178 0.950 . S
C6183 C6181 1.390 . S
C6183 C6184 1.387 . S
C6183 H6186 0.950 . S
C6184 C6183 1.387 . S
C6184 C6187 1.387 . S
H6185 C6181 0.950 . S
H6186 C6183 0.950 . S
C6187 C6178 1.390 . S
C6187 H6180 0.950 . S
C6187 C6184 1.387 . S
C6188 C6189 1.387 . S
C6188 H6192 0.950 . S
C6188 C6197 1.390 . S
C6189 C6188 1.387 . S
C6189 C6191 1.387 . S
H6190 C6197 0.950 . S
C6191 C6189 1.387 . S
C6191 C6193 1.390 . S
C6191 H6195 0.950 . S
H6192 C6188 0.950 . S
C6193 C6191 1.390 . S
C6193 C6194 1.387 . S
C6193 H6196 0.950 . S
C6194 C6193 1.387 . S
C6194 C6197 1.387 . S
H6195 C6191 0.950 . S
H6196 C6193 0.950 . S
C6197 C6188 1.390 . S
C6197 H6190 0.950 . S
C6197 C6194 1.387 . S
C6198 C6199 1.387 . S
C6198 H6202 0.950 . S
C6198 C6207 1.390 . S
C6199 C6198 1.387 . S
C6199 C6201 1.387 . S
H6200 C6207 0.950 . S
C6201 C6199 1.387 . S
C6201 C6203 1.390 . S
C6201 H6205 0.950 . S
H6202 C6198 0.950 . S
C6203 C6201 1.390 . S
C6203 C6204 1.387 . S
C6203 H6206 0.950 . S
C6204 C6203 1.387 . S
C6204 C6207 1.387 . S
H6205 C6201 0.950 . S
H6206 C6203 0.950 . S
C6207 C6198 1.390 . S
C6207 H6200 0.950 . S
C6207 C6204 1.387 . S
C6208 C6209 1.387 . S
C6208 H6212 0.950 . S
C6208 C6217 1.390 . S
C6209 C6208 1.387 . S
C6209 C6211 1.387 . S
H6210 C6217 0.950 . S
C6211 C6209 1.387 . S
C6211 C6213 1.390 . S
C6211 H6215 0.950 . S
H6212 C6208 0.950 . S
C6213 C6211 1.390 . S
C6213 C6214 1.387 . S
C6213 H6216 0.950 . S
C6214 C6213 1.387 . S
C6214 C6217 1.387 . S
H6215 C6211 0.950 . S
H6216 C6213 0.950 . S
C6217 C6208 1.390 . S
C6217 H6210 0.950 . S
C6217 C6214 1.387 . S
C6218 C6219 1.387 . S
C6218 H6222 0.950 . S
C6218 C6227 1.390 . S
C6219 C6218 1.387 . S
C6219 C6221 1.387 . S
H6220 C6227 0.950 . S
C6221 C6219 1.387 . S
C6221 C6223 1.390 . S
C6221 H6225 0.950 . S
H6222 C6218 0.950 . S
C6223 C6221 1.390 . S
C6223 C6224 1.387 . S
C6223 H6226 0.950 . S
C6224 C6223 1.387 . S
C6224 C6227 1.387 . S
H6225 C6221 0.950 . S
H6226 C6223 0.950 . S
C6227 C6218 1.390 . S
C6227 H6220 0.950 . S
C6227 C6224 1.387 . S
C6228 C6229 1.387 . S
C6228 H6232 0.950 . S
C6228 C6237 1.390 . S
C6229 C6228 1.387 . S
C6229 C6231 1.387 . S
H6230 C6237 0.950 . S
C6231 C6229 1.387 . S
C6231 C6233 1.390 . S
C6231 H6235 0.950 . S
H6232 C6228 0.950 . S
C6233 C6231 1.390 . S
C6233 C6234 1.387 . S
C6233 H6236 0.950 . S
C6234 C6233 1.387 . S
C6234 C6237 1.387 . S
H6235 C6231 0.950 . S
H6236 C6233 0.950 . S
C6237 C6228 1.390 . S
C6237 H6230 0.950 . S
C6237 C6234 1.387 . S
C6238 C6239 1.387 . S
C6238 H6242 0.950 . S
C6238 C6247 1.390 . S
C6239 C6238 1.387 . S
C6239 C6241 1.387 . S
H6240 C6247 0.950 . S
C6241 C6239 1.387 . S
C6241 C6243 1.390 . S
C6241 H6245 0.950 . S
H6242 C6238 0.950 . S
C6243 C6241 1.390 . S
C6243 C6244 1.387 . S
C6243 H6246 0.950 . S
C6244 C6243 1.387 . S
C6244 C6247 1.387 . S
H6245 C6241 0.950 . S
H6246 C6243 0.950 . S
C6247 C6238 1.390 . S
C6247 H6240 0.950 . S
C6247 C6244 1.387 . S
C6248 C6249 1.387 . S
C6248 H6252 0.950 . S
C6248 C6257 1.390 . S
C6249 C6248 1.387 . S
C6249 C6251 1.387 . S
H6250 C6257 0.950 . S
C6251 C6249 1.387 . S
C6251 C6253 1.390 . S
C6251 H6255 0.950 . S
H6252 C6248 0.950 . S
C6253 C6251 1.390 . S
C6253 C6254 1.387 . S
C6253 H6256 0.950 . S
C6254 C6253 1.387 . S
C6254 C6257 1.387 . S
H6255 C6251 0.950 . S
H6256 C6253 0.950 . S
C6257 C6248 1.390 . S
C6257 H6250 0.950 . S
C6257 C6254 1.387 . S
C6258 C6259 1.387 . S
C6258 H6262 0.950 . S
C6258 C6267 1.390 . S
C6259 C6258 1.387 . S
C6259 C6261 1.387 . S
H6260 C6267 0.950 . S
C6261 C6259 1.387 . S
C6261 C6263 1.390 . S
C6261 H6265 0.950 . S
H6262 C6258 0.950 . S
C6263 C6261 1.390 . S
C6263 C6264 1.387 . S
C6263 H6266 0.950 . S
C6264 C6263 1.387 . S
C6264 C6267 1.387 . S
H6265 C6261 0.950 . S
H6266 C6263 0.950 . S
C6267 C6258 1.390 . S
C6267 H6260 0.950 . S
C6267 C6264 1.387 . S
C6268 C6269 1.387 . S
C6268 H6272 0.950 . S
C6268 C6277 1.390 . S
C6269 C6268 1.387 . S
C6269 C6271 1.387 . S
H6270 C6277 0.950 . S
C6271 C6269 1.387 . S
C6271 C6273 1.390 . S
C6271 H6275 0.950 . S
H6272 C6268 0.950 . S
C6273 C6271 1.390 . S
C6273 C6274 1.387 . S
C6273 H6276 0.950 . S
C6274 C6273 1.387 . S
C6274 C6277 1.387 . S
H6275 C6271 0.950 . S
H6276 C6273 0.950 . S
C6277 C6268 1.390 . S
C6277 H6270 0.950 . S
C6277 C6274 1.387 . S
C6278 C6279 1.387 . S
C6278 H6282 0.950 . S
C6278 C6287 1.390 . S
C6279 C6278 1.387 . S
C6279 C6281 1.387 . S
H6280 C6287 0.950 . S
C6281 C6279 1.387 . S
C6281 C6283 1.390 . S
C6281 H6285 0.950 . S
H6282 C6278 0.950 . S
C6283 C6281 1.390 . S
C6283 C6284 1.387 . S
C6283 H6286 0.950 . S
C6284 C6283 1.387 . S
C6284 C6287 1.387 . S
H6285 C6281 0.950 . S
H6286 C6283 0.950 . S
C6287 C6278 1.390 . S
C6287 H6280 0.950 . S
C6287 C6284 1.387 . S
C6288 C6289 1.387 . S
C6288 H6292 0.950 . S
C6288 C6297 1.390 . S
C6289 C6288 1.387 . S
C6289 C6291 1.387 . S
H6290 C6297 0.950 . S
C6291 C6289 1.387 . S
C6291 C6293 1.390 . S
C6291 H6295 0.950 . S
H6292 C6288 0.950 . S
C6293 C6291 1.390 . S
C6293 C6294 1.387 . S
C6293 H6296 0.950 . S
C6294 C6293 1.387 . S
C6294 C6297 1.387 . S
H6295 C6291 0.950 . S
H6296 C6293 0.950 . S
C6297 C6288 1.390 . S
C6297 H6290 0.950 . S
C6297 C6294 1.387 . S
C6298 C6299 1.387 . S
C6298 H6302 0.950 . S
C6298 C6307 1.390 . S
C6299 C6298 1.387 . S
C6299 C6301 1.387 . S
H6300 C6307 0.950 . S
C6301 C6299 1.387 . S
C6301 C6303 1.390 . S
C6301 H6305 0.950 . S
H6302 C6298 0.950 . S
C6303 C6301 1.390 . S
C6303 C6304 1.387 . S
C6303 H6306 0.950 . S
C6304 C6303 1.387 . S
C6304 C6307 1.387 . S
H6305 C6301 0.950 . S
H6306 C6303 0.950 . S
C6307 C6298 1.390 . S
C6307 H6300 0.950 . S
C6307 C6304 1.387 . S
C6308 C6309 1.387 . S
C6308 H6312 0.950 . S
C6308 C6317 1.390 . S
C6309 C6308 1.387 . S
C6309 C6311 1.387 . S
H6310 C6317 0.950 . S
C6311 C6309 1.387 . S
C6311 C6313 1.390 . S
C6311 H6315 0.950 . S
H6312 C6308 0.950 . S
C6313 C6311 1.390 . S
C6313 C6314 1.387 . S
C6313 H6316 0.950 . S
C6314 C6313 1.387 . S
C6314 C6317 1.387 . S
H6315 C6311 0.950 . S
H6316 C6313 0.950 . S
C6317 C6308 1.390 . S
C6317 H6310 0.950 . S
C6317 C6314 1.387 . S
C6318 C6319 1.387 . S
C6318 H6322 0.950 . S
C6318 C6327 1.390 . S
C6319 C6318 1.387 . S
C6319 C6321 1.387 . S
H6320 C6327 0.950 . S
C6321 C6319 1.387 . S
C6321 C6323 1.390 . S
C6321 H6325 0.950 . S
H6322 C6318 0.950 . S
C6323 C6321 1.390 . S
C6323 C6324 1.387 . S
C6323 H6326 0.950 . S
C6324 C6323 1.387 . S
C6324 C6327 1.387 . S
H6325 C6321 0.950 . S
H6326 C6323 0.950 . S
C6327 C6318 1.390 . S
C6327 H6320 0.950 . S
C6327 C6324 1.387 . S
C6328 C6329 1.387 . S
C6328 H6332 0.950 . S
C6328 C6337 1.390 . S
C6329 C6328 1.387 . S
C6329 C6331 1.387 . S
H6330 C6337 0.950 . S
C6331 C6329 1.387 . S
C6331 C6333 1.390 . S
C6331 H6335 0.950 . S
H6332 C6328 0.950 . S
C6333 C6331 1.390 . S
C6333 C6334 1.387 . S
C6333 H6336 0.950 . S
C6334 C6333 1.387 . S
C6334 C6337 1.387 . S
H6335 C6331 0.950 . S
H6336 C6333 0.950 . S
C6337 C6328 1.390 . S
C6337 H6330 0.950 . S
C6337 C6334 1.387 . S
C6338 C6339 1.387 . S
C6338 H6342 0.950 . S
C6338 C6347 1.390 . S
C6339 C6338 1.387 . S
C6339 C6341 1.387 . S
H6340 C6347 0.950 . S
C6341 C6339 1.387 . S
C6341 C6343 1.390 . S
C6341 H6345 0.950 . S
H6342 C6338 0.950 . S
C6343 C6341 1.390 . S
C6343 C6344 1.387 . S
C6343 H6346 0.950 . S
C6344 C6343 1.387 . S
C6344 C6347 1.387 . S
H6345 C6341 0.950 . S
H6346 C6343 0.950 . S
C6347 C6338 1.390 . S
C6347 H6340 0.950 . S
C6347 C6344 1.387 . S
C6348 C6349 1.387 . S
C6348 H6352 0.950 . S
C6348 C6357 1.390 . S
C6349 C6348 1.387 . S
C6349 C6351 1.387 . S
H6350 C6357 0.950 . S
C6351 C6349 1.387 . S
C6351 C6353 1.390 . S
C6351 H6355 0.950 . S
H6352 C6348 0.950 . S
C6353 C6351 1.390 . S
C6353 C6354 1.387 . S
C6353 H6356 0.950 . S
C6354 C6353 1.387 . S
C6354 C6357 1.387 . S
H6355 C6351 0.950 . S
H6356 C6353 0.950 . S
C6357 C6348 1.390 . S
C6357 H6350 0.950 . S
C6357 C6354 1.387 . S
C6358 C6359 1.387 . S
C6358 H6362 0.950 . S
C6358 C6367 1.390 . S
C6359 C6358 1.387 . S
C6359 C6361 1.387 . S
H6360 C6367 0.950 . S
C6361 C6359 1.387 . S
C6361 C6363 1.390 . S
C6361 H6365 0.950 . S
H6362 C6358 0.950 . S
C6363 C6361 1.390 . S
C6363 C6364 1.387 . S
C6363 H6366 0.950 . S
C6364 C6363 1.387 . S
C6364 C6367 1.387 . S
H6365 C6361 0.950 . S
H6366 C6363 0.950 . S
C6367 C6358 1.390 . S
C6367 H6360 0.950 . S
C6367 C6364 1.387 . S
C6368 C6369 1.387 . S
C6368 H6372 0.950 . S
C6368 C6377 1.390 . S
C6369 C6368 1.387 . S
C6369 C6371 1.387 . S
H6370 C6377 0.950 . S
C6371 C6369 1.387 . S
C6371 C6373 1.390 . S
C6371 H6375 0.950 . S
H6372 C6368 0.950 . S
C6373 C6371 1.390 . S
C6373 C6374 1.387 . S
C6373 H6376 0.950 . S
C6374 C6373 1.387 . S
C6374 C6377 1.387 . S
H6375 C6371 0.950 . S
H6376 C6373 0.950 . S
C6377 C6368 1.390 . S
C6377 H6370 0.950 . S
C6377 C6374 1.387 . S
C6378 C6379 1.387 . S
C6378 H6382 0.950 . S
C6378 C6387 1.390 . S
C6379 C6378 1.387 . S
C6379 C6381 1.387 . S
H6380 C6387 0.950 . S
C6381 C6379 1.387 . S
C6381 C6383 1.390 . S
C6381 H6385 0.950 . S
H6382 C6378 0.950 . S
C6383 C6381 1.390 . S
C6383 C6384 1.387 . S
C6383 H6386 0.950 . S
C6384 C6383 1.387 . S
C6384 C6387 1.387 . S
H6385 C6381 0.950 . S
H6386 C6383 0.950 . S
C6387 C6378 1.390 . S
C6387 H6380 0.950 . S
C6387 C6384 1.387 . S
C6388 C6389 1.387 . S
C6388 H6392 0.950 . S
C6388 C6397 1.390 . S
C6389 C6388 1.387 . S
C6389 C6391 1.387 . S
H6390 C6397 0.950 . S
C6391 C6389 1.387 . S
C6391 C6393 1.390 . S
C6391 H6395 0.950 . S
H6392 C6388 0.950 . S
C6393 C6391 1.390 . S
C6393 C6394 1.387 . S
C6393 H6396 0.950 . S
C6394 C6393 1.387 . S
C6394 C6397 1.387 . S
H6395 C6391 0.950 . S
H6396 C6393 0.950 . S
C6397 C6388 1.390 . S
C6397 H6390 0.950 . S
C6397 C6394 1.387 . S
C6398 C6399 1.387 . S
C6398 H6402 0.950 . S
C6398 C6407 1.390 . S
C6399 C6398 1.387 . S
C6399 C6401 1.387 . S
H6400 C6407 0.950 . S
C6401 C6399 1.387 . S
C6401 C6403 1.390 . S
C6401 H6405 0.950 . S
H6402 C6398 0.950 . S
C6403 C6401 1.390 . S
C6403 C6404 1.387 . S
C6403 H6406 0.950 . S
C6404 C6403 1.387 . S
C6404 C6407 1.387 . S
H6405 C6401 0.950 . S
H6406 C6403 0.950 . S
C6407 C6398 1.390 . S
C6407 H6400 0.950 . S
C6407 C6404 1.387 . S
C6408 C6409 1.387 . S
C6408 H6412 0.950 . S
C6408 C6417 1.390 . S
C6409 C6408 1.387 . S
C6409 C6411 1.387 . S
H6410 C6417 0.950 . S
C6411 C6409 1.387 . S
C6411 C6413 1.390 . S
C6411 H6415 0.950 . S
H6412 C6408 0.950 . S
C6413 C6411 1.390 . S
C6413 C6414 1.387 . S
C6413 H6416 0.950 . S
C6414 C6413 1.387 . S
C6414 C6417 1.387 . S
H6415 C6411 0.950 . S
H6416 C6413 0.950 . S
C6417 C6408 1.390 . S
C6417 H6410 0.950 . S
C6417 C6414 1.387 . S
C6418 C6419 1.387 . S
C6418 H6422 0.950 . S
C6418 C6427 1.390 . S
C6419 C6418 1.387 . S
C6419 C6421 1.387 . S
H6420 C6427 0.950 . S
C6421 C6419 1.387 . S
C6421 C6423 1.390 . S
C6421 H6425 0.950 . S
H6422 C6418 0.950 . S
C6423 C6421 1.390 . S
C6423 C6424 1.387 . S
C6423 H6426 0.950 . S
C6424 C6423 1.387 . S
C6424 C6427 1.387 . S
H6425 C6421 0.950 . S
H6426 C6423 0.950 . S
C6427 C6418 1.390 . S
C6427 H6420 0.950 . S
C6427 C6424 1.387 . S
C6428 C6429 1.387 . S
C6428 H6432 0.950 . S
C6428 C6437 1.390 . S
C6429 C6428 1.387 . S
C6429 C6431 1.387 . S
H6430 C6437 0.950 . S
C6431 C6429 1.387 . S
C6431 C6433 1.390 . S
C6431 H6435 0.950 . S
H6432 C6428 0.950 . S
C6433 C6431 1.390 . S
C6433 C6434 1.387 . S
C6433 H6436 0.950 . S
C6434 C6433 1.387 . S
C6434 C6437 1.387 . S
H6435 C6431 0.950 . S
H6436 C6433 0.950 . S
C6437 C6428 1.390 . S
C6437 H6430 0.950 . S
C6437 C6434 1.387 . S
C6438 C6439 1.387 . S
C6438 H6442 0.950 . S
C6438 C6447 1.390 . S
C6439 C6438 1.387 . S
C6439 C6441 1.387 . S
H6440 C6447 0.950 . S
C6441 C6439 1.387 . S
C6441 C6443 1.390 . S
C6441 H6445 0.950 . S
H6442 C6438 0.950 . S
C6443 C6441 1.390 . S
C6443 C6444 1.387 . S
C6443 H6446 0.950 . S
C6444 C6443 1.387 . S
C6444 C6447 1.387 . S
H6445 C6441 0.950 . S
H6446 C6443 0.950 . S
C6447 C6438 1.390 . S
C6447 H6440 0.950 . S
C6447 C6444 1.387 . S
C6448 C6449 1.387 . S
C6448 H6452 0.950 . S
C6448 C6457 1.390 . S
C6449 C6448 1.387 . S
C6449 C6451 1.387 . S
H6450 C6457 0.950 . S
C6451 C6449 1.387 . S
C6451 C6453 1.390 . S
C6451 H6455 0.950 . S
H6452 C6448 0.950 . S
C6453 C6451 1.390 . S
C6453 C6454 1.387 . S
C6453 H6456 0.950 . S
C6454 C6453 1.387 . S
C6454 C6457 1.387 . S
H6455 C6451 0.950 . S
H6456 C6453 0.950 . S
C6457 C6448 1.390 . S
C6457 H6450 0.950 . S
C6457 C6454 1.387 . S
C6458 C6459 1.387 . S
C6458 H6462 0.950 . S
C6458 C6467 1.390 . S
C6459 C6458 1.387 . S
C6459 C6461 1.387 . S
H6460 C6467 0.950 . S
C6461 C6459 1.387 . S
C6461 C6463 1.390 . S
C6461 H6465 0.950 . S
H6462 C6458 0.950 . S
C6463 C6461 1.390 . S
C6463 C6464 1.387 . S
C6463 H6466 0.950 . S
C6464 C6463 1.387 . S
C6464 C6467 1.387 . S
H6465 C6461 0.950 . S
H6466 C6463 0.950 . S
C6467 C6458 1.390 . S
C6467 H6460 0.950 . S
C6467 C6464 1.387 . S
C6468 C6469 1.387 . S
C6468 H6472 0.950 . S
C6468 C6477 1.390 . S
C6469 C6468 1.387 . S
C6469 C6471 1.387 . S
H6470 C6477 0.950 . S
C6471 C6469 1.387 . S
C6471 C6473 1.390 . S
C6471 H6475 0.950 . S
H6472 C6468 0.950 . S
C6473 C6471 1.390 . S
C6473 C6474 1.387 . S
C6473 H6476 0.950 . S
C6474 C6473 1.387 . S
C6474 C6477 1.387 . S
H6475 C6471 0.950 . S
H6476 C6473 0.950 . S
C6477 C6468 1.390 . S
C6477 H6470 0.950 . S
C6477 C6474 1.387 . S
C6478 C6479 1.387 . S
C6478 H6482 0.950 . S
C6478 C6487 1.390 . S
C6479 C6478 1.387 . S
C6479 C6481 1.387 . S
H6480 C6487 0.950 . S
C6481 C6479 1.387 . S
C6481 C6483 1.390 . S
C6481 H6485 0.950 . S
H6482 C6478 0.950 . S
C6483 C6481 1.390 . S
C6483 C6484 1.387 . S
C6483 H6486 0.950 . S
C6484 C6483 1.387 . S
C6484 C6487 1.387 . S
H6485 C6481 0.950 . S
H6486 C6483 0.950 . S
C6487 C6478 1.390 . S
C6487 H6480 0.950 . S
C6487 C6484 1.387 . S
C6488 C6489 1.387 . S
C6488 H6492 0.950 . S
C6488 C6497 1.390 . S
C6489 C6488 1.387 . S
C6489 C6491 1.387 . S
H6490 C6497 0.950 . S
C6491 C6489 1.387 . S
C6491 C6493 1.390 . S
C6491 H6495 0.950 . S
H6492 C6488 0.950 . S
C6493 C6491 1.390 . S
C6493 C6494 1.387 . S
C6493 H6496 0.950 . S
C6494 C6493 1.387 . S
C6494 C6497 1.387 . S
H6495 C6491 0.950 . S
H6496 C6493 0.950 . S
C6497 C6488 1.390 . S
C6497 H6490 0.950 . S
C6497 C6494 1.387 . S
C6498 C6499 1.387 . S
C6498 H6502 0.950 . S
C6498 C6507 1.390 . S
C6499 C6498 1.387 . S
C6499 C6501 1.387 . S
H6500 C6507 0.950 . S
C6501 C6499 1.387 . S
C6501 C6503 1.390 . S
C6501 H6505 0.950 . S
H6502 C6498 0.950 . S
C6503 C6501 1.390 . S
C6503 C6504 1.387 . S
C6503 H6506 0.950 . S
C6504 C6503 1.387 . S
C6504 C6507 1.387 . S
H6505 C6501 0.950 . S
H6506 C6503 0.950 . S
C6507 C6498 1.390 . S
C6507 H6500 0.950 . S
C6507 C6504 1.387 . S
C6508 C6509 1.387 . S
C6508 H6512 0.950 . S
C6508 C6517 1.390 . S
C6509 C6508 1.387 . S
C6509 C6511 1.387 . S
H6510 C6517 0.950 . S
C6511 C6509 1.387 . S
C6511 C6513 1.390 . S
C6511 H6515 0.950 . S
H6512 C6508 0.950 . S
C6513 C6511 1.390 . S
C6513 C6514 1.387 . S
C6513 H6516 0.950 . S
C6514 C6513 1.387 . S
C6514 C6517 1.387 . S
H6515 C6511 0.950 . S
H6516 C6513 0.950 . S
C6517 C6508 1.390 . S
C6517 H6510 0.950 . S
C6517 C6514 1.387 . S
C6518 C6519 1.387 . S
C6518 H6522 0.950 . S
C6518 C6527 1.390 . S
C6519 C6518 1.387 . S
C6519 C6521 1.387 . S
H6520 C6527 0.950 . S
C6521 C6519 1.387 . S
C6521 C6523 1.390 . S
C6521 H6525 0.950 . S
H6522 C6518 0.950 . S
C6523 C6521 1.390 . S
C6523 C6524 1.387 . S
C6523 H6526 0.950 . S
C6524 C6523 1.387 . S
C6524 C6527 1.387 . S
H6525 C6521 0.950 . S
H6526 C6523 0.950 . S
C6527 C6518 1.390 . S
C6527 H6520 0.950 . S
C6527 C6524 1.387 . S
C2689 C13 1.720 . S
C2694 C392 1.719 . S
C2699 C14 1.722 . S
C2704 C407 1.720 . S
C2709 C420 1.720 . S
C2714 C29 1.720 . S
C2719 C54 1.722 . S
C2724 C446 1.719 . S
C2729 C69 1.721 . S
C2734 C336 1.719 . S
C2739 C83 1.719 . S
C2744 C362 1.721 . S
C2749 C97 1.720 . S
C2754 C376 1.719 . S
C2759 C111 1.719 . S
C2764 C391 1.722 . S
C2769 C125 1.719 . S
C2774 C2560 1.720 . S
C2779 C139 1.719 . S
C2784 C2562 1.720 . S
C2789 C153 1.719 . S
C2794 C2532 1.720 . S
C2799 C167 1.721 . S
C2804 C2546 1.719 . S
C2809 C2492 1.720 . S
C2814 C180 1.721 . S
C2819 C2518 1.719 . S
C2824 C195 1.720 . S
C2829 C2476 1.720 . S
C2834 C209 1.719 . S
C2839 C223 1.719 . S
C2844 C2490 1.721 . S
C2849 C224 1.722 . S
C2854 C631 1.720 . S
C2859 C2619 1.722 . S
C2864 C251 1.719 . S
C2869 C253 1.721 . S
C2874 C1972 1.719 . S
C2879 C2602 1.719 . S
C2884 C266 1.721 . S
C2889 C280 1.722 . S
C2894 C1945 1.721 . S
C2899 C572 1.721 . S
C2904 C307 1.719 . S
C2909 C2675 1.722 . S
C2914 C309 1.719 . S
C2919 C335 1.719 . S
C2924 C2661 1.722 . S
C2929 C2224 1.720 . S
C2934 C460 1.720 . S
C2939 C2227 1.719 . S
C2944 C474 1.720 . S
C2949 C476 1.720 . S
C2954 C2196 1.721 . S
C2959 C2199 1.720 . S
C2964 C502 1.719 . S
C2969 C517 1.722 . S
C2974 C2156 1.721 . S
C2979 C2183 1.720 . S
C2984 C518 1.720 . S
C2989 C2141 1.720 . S
C2994 C544 1.720 . S
C2999 C2155 1.720 . S
C3004 C558 1.719 . S
C3009 C2282 1.720 . S
C3014 C587 1.722 . S
C3019 C1637 1.720 . S
C3024 C588 1.720 . S
C3029 C603 1.722 . S
C3034 C2254 1.721 . S
C3039 C628 1.719 . S
C3044 C1596 1.722 . S
C3049 C2338 1.721 . S
C3054 C645 1.721 . S
C3059 C671 1.720 . S
C3064 C2324 1.722 . S
C3069 C685 1.719 . S
C3074 C1064 1.721 . S
C3079 C699 1.719 . S
C3084 C1091 1.722 . S
C3089 C713 1.719 . S
C3094 C1104 1.720 . S
C3099 C1118 1.720 . S
C3104 C714 1.721 . S
C3109 C741 1.720 . S
C3114 C1020 1.720 . S
C3119 C755 1.719 . S
C3124 C1034 1.720 . S
C3129 C1036 1.719 . S
C3134 C769 1.721 . S
C3139 C1063 1.722 . S
C3144 C783 1.719 . S
C3149 C1888 1.720 . S
C3154 C797 1.720 . S
C3159 C799 1.721 . S
C3164 C1890 1.719 . S
C3169 C825 1.719 . S
C3174 C1848 1.721 . S
C3179 C1862 1.720 . S
C3184 C839 1.719 . S
C3189 C852 1.721 . S
C3194 C1832 1.720 . S
C3199 C855 1.719 . S
C3204 C1846 1.720 . S
C3209 C1805 1.722 . S
C3214 C881 1.719 . S
C3219 C895 1.719 . S
C3224 C1806 1.720 . S
C3229 C1315 1.722 . S
C3234 C909 1.719 . S
C3239 C1959 1.722 . S
C3244 C922 1.720 . S
C3249 C925 1.721 . S
C3254 C2633 1.720 . S
C3259 C1919 1.721 . S
C3264 C951 1.719 . S
C3269 C952 1.721 . S
C3274 C2605 1.721 . S
C3279 C979 1.720 . S
C3284 C1244 1.719 . S
C3289 C2002 1.719 . S
C3294 C992 1.721 . S
C3299 C2000 1.719 . S
C3304 C995 1.720 . S
C3309 C1553 1.720 . S
C3314 C1132 1.719 . S
C3319 C1567 1.720 . S
C3324 C1134 1.719 . S
C3329 C1525 1.720 . S
C3334 C1148 1.719 . S
C3339 C1539 1.721 . S
C3344 C1162 1.719 . S
C3349 C1485 1.719 . S
C3354 C1188 1.720 . S
C3359 C1190 1.719 . S
C3364 C1499 1.721 . S
C3369 C1469 1.719 . S
C3374 C1217 1.721 . S
C3379 C1483 1.720 . S
C3384 C1230 1.720 . S
C3389 C1623 1.721 . S
C3394 C1258 1.719 . S
C3399 C1261 1.722 . S
C3404 C2296 1.720 . S
C3409 C1287 1.722 . S
C3414 C1582 1.720 . S
C3419 C2268 1.722 . S
C3424 C1289 1.721 . S
C3429 C1667 1.719 . S
C3434 C1317 1.721 . S
C3439 C1343 1.721 . S
C3444 C1653 1.720 . S
C3449 C1357 1.720 . S
C3454 C1736 1.719 . S
C3459 C1762 1.719 . S
C3464 C1358 1.722 . S
C3469 C1764 1.720 . S
C3474 C1373 1.719 . S
C3479 C1790 1.719 . S
C3484 C1398 1.722 . S
C3489 C1692 1.720 . S
C3494 C1401 1.720 . S
C3499 C1707 1.721 . S
C3504 C1426 1.721 . S
C3509 C1429 1.720 . S
C3514 C1708 1.719 . S
C3519 C1455 1.721 . S
C3524 C1735 1.720 . S
C3529 C1580 1.720 . S
C3534 C1986 1.721 . S
C3539 C1916 1.719 . S
C3544 C1651 1.721 . S
C3549 C2029 1.719 . S
C3554 C2408 1.720 . S
C3559 C2434 1.719 . S
C3564 C2042 1.721 . S
C3569 C2057 1.719 . S
C3574 C2436 1.720 . S
C3579 C2462 1.721 . S
C3584 C2071 1.719 . S
C3589 C2073 1.719 . S
C3594 C2352 1.720 . S
C3599 C2379 1.720 . S
C3604 C2086 1.722 . S
C3609 C2392 1.721 . S
C3614 C2101 1.719 . S
C3619 C2127 1.720 . S
C3624 C2395 1.721 . S
C3629 C2240 1.722 . S
C3634 C2647 1.720 . S
C3639 C2588 1.721 . S
C3644 C2322 1.720 . S
C3649 C0 1.674 . S
C3654 C981 1.671 . S
C3659 C237 1.672 . S
C3664 C27 1.672 . S
C3669 C40 1.674 . S
C3674 C1006 1.673 . S
C3679 C2311 1.672 . S
C3684 C43 1.672 . S
C3689 C936 1.674 . S
C3694 C56 1.673 . S
C3699 C1610 1.673 . S
C3704 C70 1.674 . S
C3709 C84 1.674 . S
C3714 C293 1.671 . S
C3719 C98 1.673 . S
C3724 C1595 1.672 . S
C3729 C1526 1.673 . S
C3734 C112 1.673 . S
C3739 C126 1.674 . S
C3744 C868 1.673 . S
C3749 C1554 1.674 . S
C3754 C140 1.673 . S
C3759 C154 1.674 . S
C3764 C841 1.671 . S
C3769 C826 1.674 . S
C3774 C169 1.672 . S
C3779 C182 1.674 . S
C3784 C1456 1.673 . S
C3789 C810 1.673 . S
C3794 C196 1.674 . S
C3799 C1496 1.673 . S
C3804 C210 1.673 . S
C3809 C1442 1.673 . S
C3814 C238 1.673 . S
C3819 C728 1.674 . S
C3824 C264 1.673 . S
C3829 C1415 1.672 . S
C3834 C279 1.672 . S
C3839 C2058 1.674 . S
C3844 C294 1.673 . S
C3849 C320 1.673 . S
C3854 C672 1.674 . S
C3859 C700 1.674 . S
C3864 C322 1.673 . S
C3869 C349 1.674 . S
C3874 C1328 1.671 . S
C3879 C561 1.673 . S
C3884 C351 1.674 . S
C3889 C365 1.674 . S
C3894 C1330 1.671 . S
C3899 C2658 1.671 . S
C3904 C378 1.672 . S
C3909 C1272 1.673 . S
C3914 C405 1.673 . S
C3919 C1946 1.672 . S
C3924 C418 1.672 . S
C3929 C433 1.673 . S
C3934 C617 1.673 . S
C3939 C1930 1.671 . S
C3944 C435 1.674 . S
C3949 C449 1.674 . S
C3954 C1875 1.673 . S
C3959 C1204 1.671 . S
C3964 C463 1.674 . S
C3969 C489 1.673 . S
C3974 C1903 1.674 . S
C3979 C491 1.674 . S
C3984 C1177 1.673 . S
C3989 C504 1.671 . S
C3994 C1175 1.674 . S
C3999 C531 1.673 . S
C4004 C1792 1.673 . S
C4009 C1147 1.673 . S
C4014 C533 1.674 . S
C4019 C547 1.673 . S
C4024 C1821 1.674 . S
C4029 C574 1.672 . S
C4034 C1779 1.674 . S
C4039 C1077 1.674 . S
C4044 C601 1.673 . S
C4049 C1751 1.673 . S
C4054 C614 1.672 . S
C4059 C2406 1.672 . S
C4064 C642 1.671 . S
C4069 C1009 1.674 . S
C4074 C656 1.671 . S
C4079 C658 1.671 . S
C4084 C1049 1.674 . S
C4089 C896 1.674 . S
C4094 C686 1.673 . S
C4099 C727 1.672 . S
C4104 C1638 1.674 . S
C4109 C2295 1.671 . S
C4114 C742 1.674 . S
C4119 C965 1.671 . S
C4124 C756 1.674 . S
C4129 C770 1.673 . S
C4134 C2267 1.672 . S
C4139 C784 1.674 . S
C4144 C2210 1.673 . S
C4149 C2238 1.674 . S
C4154 C812 1.673 . S
C4159 C2128 1.674 . S
C4164 C866 1.673 . S
C4169 C882 1.673 . S
C4174 C2169 1.672 . S
C4179 C2114 1.673 . S
C4184 C911 1.672 . S
C4189 C938 1.673 . S
C4194 C2099 1.672 . S
C4199 C966 1.673 . S
C4204 C1387 1.672 . S
C4209 C1233 1.673 . S
C4214 C1023 1.673 . S
C4219 C1050 1.671 . S
C4224 C1975 1.674 . S
C4229 C1078 1.672 . S
C4234 C2630 1.672 . S
C4239 C1093 1.673 . S
C4244 C1300 1.672 . S
C4249 C1107 1.673 . S
C4254 C2591 1.674 . S
C4259 C2535 1.674 . S
C4264 C1121 1.673 . S
C4269 C1161 1.673 . S
C4274 C2575 1.674 . S
C4279 C2465 1.673 . S
C4284 C1203 1.674 . S
C4289 C2505 1.673 . S
C4294 C1219 1.674 . S
C4299 C1247 1.674 . S
C4304 C2451 1.673 . S
C4309 C1274 1.672 . S
C4314 C2423 1.673 . S
C4319 C1302 1.671 . S
C4324 C1722 1.672 . S
C4329 C2337 1.672 . S
C4334 C1344 1.673 . S
C4339 C1371 1.671 . S
C4344 C1569 1.672 . S
C4349 C2351 1.671 . S
C4354 C1384 1.674 . S
C4359 C2281 1.671 . S
C4364 C1412 1.674 . S
C4369 C1624 1.673 . S
C4374 C1440 1.673 . S
C4379 C2213 1.671 . S
C4384 C1470 1.674 . S
C4389 C1510 1.673 . S
C4394 C2185 1.672 . S
C4399 C1512 1.673 . S
C4404 C2170 1.674 . S
C4409 C1540 1.673 . S
C4414 C2142 1.674 . S
C4419 C2084 1.674 . S
C4424 C1609 1.671 . S
C4429 C2016 1.674 . S
C4434 C1664 1.673 . S
C4439 C2044 1.674 . S
C4444 C1678 1.673 . S
C4449 C1681 1.673 . S
C4454 C2672 1.672 . S
C4459 C1905 1.673 . S
C4464 C1694 1.672 . S
C4469 C2686 1.672 . S
C4474 C1721 1.673 . S
C4479 C1749 1.673 . S
C4484 C2616 1.673 . S
C4489 C1961 1.674 . S
C4494 C1777 1.673 . S
C4499 C2549 1.674 . S
C4504 C1819 1.673 . S
C4509 C1835 1.674 . S
C4514 C2521 1.673 . S
C4519 C1861 1.674 . S
C4524 C2507 1.673 . S
C4529 C2479 1.674 . S
C4534 C1877 1.673 . S
C4539 C2421 1.673 . S
C4544 C1932 1.672 . S
C4549 C1989 1.673 . S
C4554 C2365 1.674 . S
C4559 C2015 1.674 . S
C4564 C2381 1.673 . S
C4569 C2253 1.672 . S
C4574 C2031 1.672 . S
C4579 C2309 1.673 . S
C4584 C2112 1.673 . S
C4589 C2577 1.673 . S
C4594 C2366 1.672 . S
C4599 C2449 1.674 . S
C4604 C2644 1.671 . S
C4609 C124 1.685 . S
C4614 C1 1.692 . S
C4619 C26 1.697 . S
C4624 C138 1.687 . S
C4629 C152 1.685 . S
C4634 C41 1.692 . S
C4639 C42 1.698 . S
C4644 C166 1.687 . S
C4649 C181 1.684 . S
C4654 C57 1.694 . S
C4659 C194 1.684 . S
C4664 C71 1.691 . S
C4669 C208 1.686 . S
C4674 C85 1.692 . S
C4679 C99 1.691 . S
C4684 C222 1.684 . S
C4689 C113 1.693 . S
C4694 C225 1.683 . S
C4699 C127 1.692 . S
C4704 C994 1.685 . S
C4709 C141 1.692 . S
C4714 C2323 1.682 . S
C4719 C993 1.683 . S
C4724 C155 1.693 . S
C4729 C168 1.696 . S
C4734 C923 1.682 . S
C4739 C183 1.692 . S
C4744 C1597 1.682 . S
C4749 C197 1.692 . S
C4754 C950 1.685 . S
C4759 C211 1.694 . S
C4764 C2297 1.684 . S
C4769 C12 1.688 . S
C4774 C236 1.698 . S
C4779 C239 1.691 . S
C4784 C740 1.684 . S
C4789 C1427 1.681 . S
C4794 C265 1.692 . S
C4799 C278 1.698 . S
C4804 C768 1.688 . S
C4809 C2126 1.687 . S
C4814 C292 1.698 . S
C4819 C295 1.692 . S
C4824 C2056 1.684 . S
C4829 C715 1.684 . S
C4834 C321 1.694 . S
C4839 C698 1.684 . S
C4844 C323 1.692 . S
C4849 C461 1.685 . S
C4854 C348 1.692 . S
C4859 C350 1.691 . S
C4864 C475 1.684 . S
C4869 C364 1.693 . S
C4874 C477 1.686 . S
C4879 C379 1.695 . S
C4884 C503 1.684 . S
C4889 C516 1.684 . S
C4894 C404 1.694 . S
C4899 C519 1.687 . S
C4904 C419 1.698 . S
C4909 C432 1.693 . S
C4914 C545 1.686 . S
C4919 C559 1.684 . S
C4924 C434 1.692 . S
C4929 C448 1.693 . S
C4934 C573 1.687 . S
C4939 C462 1.693 . S
C4944 C1342 1.683 . S
C4949 C2646 1.684 . S
C4954 C488 1.694 . S
C4959 C490 1.694 . S
C4964 C1316 1.684 . S
C4969 C505 1.695 . S
C4974 C1259 1.685 . S
C4979 C1944 1.684 . S
C4984 C530 1.694 . S
C4989 C1286 1.682 . S
C4994 C532 1.693 . S
C4999 C2632 1.684 . S
C5004 C546 1.694 . S
C5009 C337 1.685 . S
C5014 C560 1.692 . S
C5019 C575 1.698 . S
C5024 C1065 1.688 . S
C5029 C1763 1.687 . S
C5034 C600 1.694 . S
C5039 C615 1.695 . S
C5044 C1105 1.684 . S
C5049 C2463 1.685 . S
C5054 C616 1.693 . S
C5059 C2393 1.685 . S
C5064 C643 1.695 . S
C5069 C1062 1.682 . S
C5074 C657 1.696 . S
C5079 C1035 1.685 . S
C5084 C659 1.696 . S
C5089 C796 1.686 . S
C5094 C673 1.693 . S
C5099 C687 1.692 . S
C5104 C798 1.684 . S
C5109 C824 1.686 . S
C5114 C701 1.693 . S
C5119 C726 1.695 . S
C5124 C838 1.684 . S
C5129 C729 1.693 . S
C5134 C853 1.683 . S
C5139 C743 1.694 . S
C5144 C854 1.687 . S
C5149 C880 1.686 . S
C5154 C757 1.693 . S
C5159 C771 1.693 . S
C5164 C894 1.686 . S
C5169 C908 1.685 . S
C5174 C785 1.692 . S
C5179 C334 1.687 . S
C5184 C811 1.694 . S
C5189 C813 1.694 . S
C5194 C1650 1.688 . S
C5199 C308 1.685 . S
C5204 C827 1.692 . S
C5209 C840 1.696 . S
C5214 C250 1.686 . S
C5219 C2269 1.682 . S
C5224 C867 1.692 . S
C5229 C267 1.682 . S
C5234 C869 1.692 . S
C5239 C883 1.693 . S
C5244 C1636 1.686 . S
C5249 C897 1.691 . S
C5254 C684 1.684 . S
C5259 C68 1.684 . S
C5264 C910 1.695 . S
C5269 C937 1.694 . S
C5274 C2087 1.684 . S
C5279 C96 1.684 . S
C5284 C939 1.691 . S
C5289 C964 1.698 . S
C5294 C1454 1.687 . S
C5299 C1372 1.688 . S
C5304 C967 1.695 . S
C5309 C980 1.696 . S
C5314 C55 1.682 . S
C5319 C15 1.684 . S
C5324 C1007 1.694 . S
C5329 C1008 1.694 . S
C5334 C1133 1.686 . S
C5339 C1022 1.694 . S
C5344 C1135 1.687 . S
C5349 C1149 1.686 . S
C5354 C1048 1.693 . S
C5359 C1051 1.696 . S
C5364 C1163 1.685 . S
C5369 C1189 1.685 . S
C5374 C1076 1.692 . S
C5379 C1191 1.685 . S
C5384 C1079 1.695 . S
C5389 C1216 1.681 . S
C5394 C1092 1.691 . S
C5399 C1231 1.684 . S
C5404 C1106 1.691 . S
C5409 C1120 1.692 . S
C5414 C1245 1.685 . S
C5419 C1146 1.691 . S
C5424 C670 1.681 . S
C5429 C1160 1.693 . S
C5434 C1987 1.685 . S
C5439 C644 1.683 . S
C5444 C1174 1.693 . S
C5449 C1176 1.691 . S
C5454 C586 1.681 . S
C5459 C1202 1.692 . S
C5464 C2604 1.682 . S
C5469 C1205 1.697 . S
C5474 C602 1.684 . S
C5479 C1218 1.694 . S
C5484 C1973 1.686 . S
C5489 C1021 1.684 . S
C5494 C1232 1.691 . S
C5499 C1246 1.691 . S
C5504 C393 1.684 . S
C5509 C2435 1.685 . S
C5514 C1273 1.696 . S
C5519 C421 1.684 . S
C5524 C1275 1.695 . S
C5529 C1301 1.697 . S
C5534 C1791 1.687 . S
C5539 C1709 1.685 . S
C5544 C1303 1.696 . S
C5549 C390 1.681 . S
C5554 C1329 1.695 . S
C5559 C1331 1.696 . S
C5564 C363 1.686 . S
C5569 C1345 1.692 . S
C5574 C1468 1.686 . S
C5579 C1370 1.698 . S
C5584 C1482 1.687 . S
C5589 C1484 1.686 . S
C5594 C1385 1.693 . S
C5599 C1498 1.684 . S
C5604 C1386 1.695 . S
C5609 C1524 1.685 . S
C5614 C1413 1.692 . S
C5619 C1538 1.687 . S
C5624 C1414 1.697 . S
C5629 C1441 1.694 . S
C5634 C1552 1.687 . S
C5639 C1443 1.691 . S
C5644 C1566 1.684 . S
C5649 C1581 1.683 . S
C5654 C1457 1.693 . S
C5659 C1471 1.691 . S
C5664 C2339 1.681 . S
C5669 C1497 1.695 . S
C5674 C978 1.688 . S
C5679 C1511 1.693 . S
C5684 C2325 1.683 . S
C5689 C1513 1.692 . S
C5694 C2255 1.681 . S
C5699 C252 1.687 . S
C5704 C1527 1.694 . S
C5709 C1541 1.694 . S
C5714 C2283 1.684 . S
C5719 C953 1.681 . S
C5724 C1555 1.692 . S
C5729 C1356 1.684 . S
C5734 C1568 1.695 . S
C5739 C2072 1.688 . S
C5744 C1594 1.698 . S
C5749 C82 1.685 . S
C5754 C1608 1.696 . S
C5759 C2100 1.688 . S
C5764 C1611 1.695 . S
C5769 C782 1.686 . S
C5774 C1625 1.693 . S
C5779 C712 1.684 . S
C5784 C1639 1.691 . S
C5789 C1665 1.694 . S
C5794 C2070 1.687 . S
C5799 C1679 1.694 . S
C5804 C2043 1.684 . S
C5809 C1680 1.694 . S
C5814 C1804 1.683 . S
C5819 C1807 1.684 . S
C5824 C1695 1.695 . S
C5829 C1720 1.693 . S
C5834 C1833 1.686 . S
C5839 C1847 1.688 . S
C5844 C1723 1.698 . S
C5849 C1849 1.685 . S
C5854 C1748 1.692 . S
C5859 C1863 1.684 . S
C5864 C1750 1.691 . S
C5869 C1776 1.693 . S
C5874 C1889 1.686 . S
C5879 C1891 1.688 . S
C5884 C1778 1.695 . S
C5889 C1793 1.697 . S
C5894 C1917 1.687 . S
C5899 C2674 1.683 . S
C5904 C1818 1.694 . S
C5909 C1314 1.681 . S
C5914 C1820 1.691 . S
C5919 C2660 1.682 . S
C5924 C1834 1.692 . S
C5929 C2603 1.686 . S
C5934 C1860 1.693 . S
C5939 C589 1.687 . S
C5944 C1874 1.694 . S
C5949 C2618 1.681 . S
C5954 C1876 1.692 . S
C5959 C1288 1.682 . S
C5964 C1902 1.692 . S
C5969 C1693 1.684 . S
C5974 C1904 1.691 . S
C5979 C1931 1.696 . S
C5984 C2409 1.686 . S
C5989 C406 1.683 . S
C5994 C1933 1.697 . S
C5999 C1947 1.698 . S
C6004 C2437 1.688 . S
C6009 C1119 1.687 . S
C6014 C1960 1.693 . S
C6019 C1037 1.686 . S
C6024 C1974 1.693 . S
C6029 C1988 1.694 . S
C6034 C2394 1.684 . S
C6039 C2014 1.694 . S
C6044 C2378 1.684 . S
C6049 C2140 1.687 . S
C6054 C2017 1.694 . S
C6059 C2030 1.695 . S
C6064 C2154 1.685 . S
C6069 C2045 1.695 . S
C6074 C2157 1.684 . S
C6079 C2059 1.692 . S
C6084 C2182 1.684 . S
C6089 C2085 1.694 . S
C6094 C2197 1.683 . S
C6099 C2198 1.684 . S
C6104 C2098 1.695 . S
C6109 C2225 1.681 . S
C6114 C2113 1.692 . S
C6119 C2226 1.687 . S
C6124 C2115 1.694 . S
C6129 C2129 1.692 . S
C6134 C2241 1.681 . S
C6139 C2143 1.691 . S
C6144 C1666 1.684 . S
C6149 C306 1.685 . S
C6154 C2168 1.695 . S
C6159 C2171 1.692 . S
C6164 C1652 1.685 . S
C6169 C1583 1.681 . S
C6174 C2184 1.695 . S
C6179 C924 1.685 . S
C6184 C2211 1.692 . S
C6189 C2212 1.695 . S
C6194 C1622 1.684 . S
C6199 C2239 1.691 . S
C6204 C281 1.681 . S
C6209 C2028 1.688 . S
C6214 C2252 1.698 . S
C6219 C2266 1.695 . S
C6224 C1400 1.684 . S
C6229 C754 1.686 . S
C6234 C2280 1.697 . S
C6239 C2294 1.697 . S
C6244 C1428 1.687 . S
C6249 C110 1.687 . S
C6254 C2308 1.697 . S
C6259 C2310 1.698 . S
C6264 C28 1.687 . S
C6269 C1399 1.684 . S
C6274 C2336 1.697 . S
C6279 C2350 1.695 . S
C6284 C1359 1.681 . S
C6289 C2364 1.693 . S
C6294 C2477 1.686 . S
C6299 C2491 1.688 . S
C6304 C2367 1.698 . S
C6309 C2380 1.694 . S
C6314 C2493 1.687 . S
C6319 C2407 1.698 . S
C6324 C2519 1.688 . S
C6329 C2533 1.686 . S
C6334 C2420 1.693 . S
C6339 C2422 1.692 . S
C6344 C2547 1.684 . S
C6349 C2448 1.694 . S
C6354 C2561 1.687 . S
C6359 C2450 1.693 . S
C6364 C2563 1.686 . S
C6369 C2464 1.694 . S
C6374 C2589 1.687 . S
C6379 C2478 1.694 . S
C6384 C2003 1.686 . S
C6389 C630 1.682 . S
C6394 C2504 1.692 . S
C6399 C2506 1.692 . S
C6404 C2001 1.685 . S
C6409 C2520 1.691 . S
C6414 C1918 1.681 . S
C6419 C2534 1.694 . S
C6424 C1260 1.684 . S
C6429 C2548 1.693 . S
C6434 C1958 1.682 . S
C6439 C629 1.686 . S
C6444 C2574 1.692 . S
C6449 C2576 1.692 . S
C6454 C2353 1.685 . S
C6459 C2590 1.692 . S
C6464 C1737 1.685 . S
C6469 C2617 1.695 . S
C6474 C1090 1.681 . S
C6479 C2631 1.698 . S
C6484 C1765 1.688 . S
C6489 C2645 1.698 . S
C6494 C447 1.687 . S
C6499 C2659 1.695 . S
C6504 C377 1.685 . S
C6509 C1734 1.684 . S
C6514 C2673 1.698 . S
C6519 C1706 1.681 . S
C6524 C2687 1.695 . S
