# Generated by pormake.
# Topology uml, (4)-cn, num edge types: 1
# Building blocks:
#     Node 0, Type 0, BuildingBlock: CEKHIL_clean_sbu_0, # of connection points: 4
#     Node 1, Type 0, BuildingBlock: CEKHIL_clean_sbu_0, # of connection points: 4
#     Node 2, Type 0, BuildingBlock: CEKHIL_clean_sbu_0, # of connection points: 4
#     Node 3, Type 0, BuildingBlock: CEKHIL_clean_sbu_0, # of connection points: 4
#     Node 4, Type 0, BuildingBlock: CEKHIL_clean_sbu_0, # of connection points: 4
#     Node 5, Type 0, BuildingBlock: CEKHIL_clean_sbu_0, # of connection points: 4
#     Node 6, Type 0, BuildingBlock: CEKHIL_clean_sbu_0, # of connection points: 4
#     Node 7, Type 0, BuildingBlock: CEKHIL_clean_sbu_0, # of connection points: 4
#     Node 8, Type 0, BuildingBlock: CEKHIL_clean_sbu_0, # of connection points: 4
#     Node 9, Type 0, BuildingBlock: CEKHIL_clean_sbu_0, # of connection points: 4
#     Node 10, Type 0, BuildingBlock: CEKHIL_clean_sbu_0, # of connection points: 4
#     Node 11, Type 0, BuildingBlock: CEKHIL_clean_sbu_0, # of connection points: 4
#     Node 12, Type 0, BuildingBlock: CEKHIL_clean_sbu_0, # of connection points: 4
#     Node 13, Type 0, BuildingBlock: CEKHIL_clean_sbu_0, # of connection points: 4
#     Node 14, Type 0, BuildingBlock: CEKHIL_clean_sbu_0, # of connection points: 4
#     Node 15, Type 0, BuildingBlock: CEKHIL_clean_sbu_0, # of connection points: 4
#     Node 16, Type 0, BuildingBlock: CEKHIL_clean_sbu_0, # of connection points: 4
#     Node 17, Type 0, BuildingBlock: CEKHIL_clean_sbu_0, # of connection points: 4
#     Node 18, Type 0, BuildingBlock: CEKHIL_clean_sbu_0, # of connection points: 4
#     Node 19, Type 0, BuildingBlock: CEKHIL_clean_sbu_0, # of connection points: 4
#     Node 20, Type 0, BuildingBlock: CEKHIL_clean_sbu_0, # of connection points: 4
#     Node 21, Type 0, BuildingBlock: CEKHIL_clean_sbu_0, # of connection points: 4
#     Node 22, Type 0, BuildingBlock: CEKHIL_clean_sbu_0, # of connection points: 4
#     Node 23, Type 0, BuildingBlock: CEKHIL_clean_sbu_0, # of connection points: 4
#     Node 24, Type 0, BuildingBlock: CEKHIL_clean_sbu_0, # of connection points: 4
#     Node 25, Type 0, BuildingBlock: CEKHIL_clean_sbu_0, # of connection points: 4
#     Node 26, Type 0, BuildingBlock: CEKHIL_clean_sbu_0, # of connection points: 4
#     Node 27, Type 0, BuildingBlock: CEKHIL_clean_sbu_0, # of connection points: 4
#     Node 28, Type 0, BuildingBlock: CEKHIL_clean_sbu_0, # of connection points: 4
#     Node 29, Type 0, BuildingBlock: CEKHIL_clean_sbu_0, # of connection points: 4
#     Node 30, Type 0, BuildingBlock: CEKHIL_clean_sbu_0, # of connection points: 4
#     Node 31, Type 0, BuildingBlock: CEKHIL_clean_sbu_0, # of connection points: 4
#     Node 32, Type 0, BuildingBlock: CEKHIL_clean_sbu_0, # of connection points: 4
#     Node 33, Type 0, BuildingBlock: CEKHIL_clean_sbu_0, # of connection points: 4
#     Node 34, Type 0, BuildingBlock: CEKHIL_clean_sbu_0, # of connection points: 4
#     Node 35, Type 0, BuildingBlock: CEKHIL_clean_sbu_0, # of connection points: 4
#     Edge 36, Type (0, 0), BuildingBlock: XUDNAN_clean_linker_2, # of connection points: 2
#     Edge 37, Type (0, 0), BuildingBlock: XUDNAN_clean_linker_2, # of connection points: 2
#     Edge 38, Type (0, 0), BuildingBlock: XUDNAN_clean_linker_2, # of connection points: 2
#     Edge 39, Type (0, 0), BuildingBlock: XUDNAN_clean_linker_2, # of connection points: 2
#     Edge 40, Type (0, 0), BuildingBlock: XUDNAN_clean_linker_2, # of connection points: 2
#     Edge 41, Type (0, 0), BuildingBlock: XUDNAN_clean_linker_2, # of connection points: 2
#     Edge 42, Type (0, 0), BuildingBlock: XUDNAN_clean_linker_2, # of connection points: 2
#     Edge 43, Type (0, 0), BuildingBlock: XUDNAN_clean_linker_2, # of connection points: 2
#     Edge 44, Type (0, 0), BuildingBlock: XUDNAN_clean_linker_2, # of connection points: 2
#     Edge 45, Type (0, 0), BuildingBlock: XUDNAN_clean_linker_2, # of connection points: 2
#     Edge 46, Type (0, 0), BuildingBlock: XUDNAN_clean_linker_2, # of connection points: 2
#     Edge 47, Type (0, 0), BuildingBlock: XUDNAN_clean_linker_2, # of connection points: 2
#     Edge 48, Type (0, 0), BuildingBlock: XUDNAN_clean_linker_2, # of connection points: 2
#     Edge 49, Type (0, 0), BuildingBlock: XUDNAN_clean_linker_2, # of connection points: 2
#     Edge 50, Type (0, 0), BuildingBlock: XUDNAN_clean_linker_2, # of connection points: 2
#     Edge 51, Type (0, 0), BuildingBlock: XUDNAN_clean_linker_2, # of connection points: 2
#     Edge 52, Type (0, 0), BuildingBlock: XUDNAN_clean_linker_2, # of connection points: 2
#     Edge 53, Type (0, 0), BuildingBlock: XUDNAN_clean_linker_2, # of connection points: 2
#     Edge 54, Type (0, 0), BuildingBlock: XUDNAN_clean_linker_2, # of connection points: 2
#     Edge 55, Type (0, 0), BuildingBlock: XUDNAN_clean_linker_2, # of connection points: 2
#     Edge 56, Type (0, 0), BuildingBlock: XUDNAN_clean_linker_2, # of connection points: 2
#     Edge 57, Type (0, 0), BuildingBlock: XUDNAN_clean_linker_2, # of connection points: 2
#     Edge 58, Type (0, 0), BuildingBlock: XUDNAN_clean_linker_2, # of connection points: 2
#     Edge 59, Type (0, 0), BuildingBlock: XUDNAN_clean_linker_2, # of connection points: 2
#     Edge 60, Type (0, 0), BuildingBlock: XUDNAN_clean_linker_2, # of connection points: 2
#     Edge 61, Type (0, 0), BuildingBlock: XUDNAN_clean_linker_2, # of connection points: 2
#     Edge 62, Type (0, 0), BuildingBlock: XUDNAN_clean_linker_2, # of connection points: 2
#     Edge 63, Type (0, 0), BuildingBlock: XUDNAN_clean_linker_2, # of connection points: 2
#     Edge 64, Type (0, 0), BuildingBlock: XUDNAN_clean_linker_2, # of connection points: 2
#     Edge 65, Type (0, 0), BuildingBlock: XUDNAN_clean_linker_2, # of connection points: 2
#     Edge 66, Type (0, 0), BuildingBlock: XUDNAN_clean_linker_2, # of connection points: 2
#     Edge 67, Type (0, 0), BuildingBlock: XUDNAN_clean_linker_2, # of connection points: 2
#     Edge 68, Type (0, 0), BuildingBlock: XUDNAN_clean_linker_2, # of connection points: 2
#     Edge 69, Type (0, 0), BuildingBlock: XUDNAN_clean_linker_2, # of connection points: 2
#     Edge 70, Type (0, 0), BuildingBlock: XUDNAN_clean_linker_2, # of connection points: 2
#     Edge 71, Type (0, 0), BuildingBlock: XUDNAN_clean_linker_2, # of connection points: 2
#     Edge 72, Type (0, 0), BuildingBlock: XUDNAN_clean_linker_2, # of connection points: 2
#     Edge 73, Type (0, 0), BuildingBlock: XUDNAN_clean_linker_2, # of connection points: 2
#     Edge 74, Type (0, 0), BuildingBlock: XUDNAN_clean_linker_2, # of connection points: 2
#     Edge 75, Type (0, 0), BuildingBlock: XUDNAN_clean_linker_2, # of connection points: 2
#     Edge 76, Type (0, 0), BuildingBlock: XUDNAN_clean_linker_2, # of connection points: 2
#     Edge 77, Type (0, 0), BuildingBlock: XUDNAN_clean_linker_2, # of connection points: 2
#     Edge 78, Type (0, 0), BuildingBlock: XUDNAN_clean_linker_2, # of connection points: 2
#     Edge 79, Type (0, 0), BuildingBlock: XUDNAN_clean_linker_2, # of connection points: 2
#     Edge 80, Type (0, 0), BuildingBlock: XUDNAN_clean_linker_2, # of connection points: 2
#     Edge 81, Type (0, 0), BuildingBlock: XUDNAN_clean_linker_2, # of connection points: 2
#     Edge 82, Type (0, 0), BuildingBlock: XUDNAN_clean_linker_2, # of connection points: 2
#     Edge 83, Type (0, 0), BuildingBlock: XUDNAN_clean_linker_2, # of connection points: 2
#     Edge 84, Type (0, 0), BuildingBlock: XUDNAN_clean_linker_2, # of connection points: 2
#     Edge 85, Type (0, 0), BuildingBlock: XUDNAN_clean_linker_2, # of connection points: 2
#     Edge 86, Type (0, 0), BuildingBlock: XUDNAN_clean_linker_2, # of connection points: 2
#     Edge 87, Type (0, 0), BuildingBlock: XUDNAN_clean_linker_2, # of connection points: 2
#     Edge 88, Type (0, 0), BuildingBlock: XUDNAN_clean_linker_2, # of connection points: 2
#     Edge 89, Type (0, 0), BuildingBlock: XUDNAN_clean_linker_2, # of connection points: 2
#     Edge 90, Type (0, 0), BuildingBlock: XUDNAN_clean_linker_2, # of connection points: 2
#     Edge 91, Type (0, 0), BuildingBlock: XUDNAN_clean_linker_2, # of connection points: 2
#     Edge 92, Type (0, 0), BuildingBlock: XUDNAN_clean_linker_2, # of connection points: 2
#     Edge 93, Type (0, 0), BuildingBlock: XUDNAN_clean_linker_2, # of connection points: 2
#     Edge 94, Type (0, 0), BuildingBlock: XUDNAN_clean_linker_2, # of connection points: 2
#     Edge 95, Type (0, 0), BuildingBlock: XUDNAN_clean_linker_2, # of connection points: 2
#     Edge 96, Type (0, 0), BuildingBlock: XUDNAN_clean_linker_2, # of connection points: 2
#     Edge 97, Type (0, 0), BuildingBlock: XUDNAN_clean_linker_2, # of connection points: 2
#     Edge 98, Type (0, 0), BuildingBlock: XUDNAN_clean_linker_2, # of connection points: 2
#     Edge 99, Type (0, 0), BuildingBlock: XUDNAN_clean_linker_2, # of connection points: 2
#     Edge 100, Type (0, 0), BuildingBlock: XUDNAN_clean_linker_2, # of connection points: 2
#     Edge 101, Type (0, 0), BuildingBlock: XUDNAN_clean_linker_2, # of connection points: 2
#     Edge 102, Type (0, 0), BuildingBlock: XUDNAN_clean_linker_2, # of connection points: 2
#     Edge 103, Type (0, 0), BuildingBlock: XUDNAN_clean_linker_2, # of connection points: 2
#     Edge 104, Type (0, 0), BuildingBlock: XUDNAN_clean_linker_2, # of connection points: 2
#     Edge 105, Type (0, 0), BuildingBlock: XUDNAN_clean_linker_2, # of connection points: 2
#     Edge 106, Type (0, 0), BuildingBlock: XUDNAN_clean_linker_2, # of connection points: 2
#     Edge 107, Type (0, 0), BuildingBlock: XUDNAN_clean_linker_2, # of connection points: 2
# Relax obj value: 0.147
# Max RMSD: 0.486
# Mean RMSD: 0.264
data_MOF--net-uml--node1-CEKHIL_clean_sbu_0--edge1-XUDNAN_clean_linker_2
_symmetry_space_group_name_H-M    P1
_symmetry_Int_Tables_number       1
_symmetry_cell_setting            triclinic
loop_
_symmetry_equiv_pos_as_xyz
'x, y, z'
_cell_length_a     92.475921
_cell_length_b     90.019066
_cell_length_c     27.669415
_cell_angle_alpha  90.097574
_cell_angle_beta   89.984324
_cell_angle_gamma 115.99739
loop_
_atom_site_label
_atom_site_type_symbol
_atom_site_fract_x
_atom_site_fract_y
_atom_site_fract_z
_atom_type_partial_charge
Co0 Co 0.36696 0.11211 0.189 0.0
O1 O 0.37765 0.09812 0.18727 0.0
O2 O 0.38653 0.12256 0.1515 0.0
C3 C 0.36177 0.10982 0.26888 0.0
O4 O 0.35937 0.13013 0.18458 0.0
Co5 Co 0.33093 0.09717 0.21489 0.0
O6 O 0.33469 0.12055 0.21728 0.0
C7 C 0.34011 0.09351 0.11554 0.0
C8 C 0.38853 0.10942 0.16095 0.0
C9 C 0.3471 0.13216 0.19871 0.0
O10 O 0.3549 0.10167 0.12805 0.0
O11 O 0.32844 0.08969 0.14537 0.0
O12 O 0.37575 0.12009 0.25246 0.0
O13 O 0.35191 0.09994 0.2371 0.0
Co14 Co 0.88066 0.27546 0.18777 0.0
O15 O 0.88044 0.2766 0.25726 0.0
O16 O 0.89436 0.26645 0.21465 0.0
C17 C 0.88378 0.30104 0.17285 0.0
O18 O 0.88446 0.27297 0.11596 0.0
Co19 Co 0.8531 0.2767 0.12819 0.0
O20 O 0.86785 0.28006 0.07293 0.0
C21 C 0.84728 0.24627 0.17915 0.0
C22 C 0.89011 0.26964 0.25678 0.0
C23 C 0.87969 0.27643 0.07554 0.0
O24 O 0.86223 0.25299 0.19028 0.0
O25 O 0.84057 0.25377 0.15551 0.0
O26 O 0.896 0.29827 0.18434 0.0
O27 O 0.86971 0.28853 0.17623 0.0
Co28 Co 0.71623 0.62444 0.17273 0.0
O29 O 0.69448 0.60788 0.17182 0.0
O30 O 0.71439 0.60609 0.13168 0.0
C31 C 0.71724 0.62871 0.25247 0.0
O32 O 0.74042 0.63939 0.16772 0.0
Co33 Co 0.72261 0.65969 0.20192 0.0
O34 O 0.7453 0.66326 0.20548 0.0
C35 C 0.71118 0.6485 0.10404 0.0
C36 C 0.69908 0.59972 0.14198 0.0
C37 C 0.75019 0.65363 0.1849 0.0
O38 O 0.71195 0.63499 0.11428 0.0
O39 O 0.71426 0.6601 0.13491 0.0
O40 O 0.71985 0.61672 0.23482 0.0
O41 O 0.71258 0.63667 0.22219 0.0
Co42 Co 0.09223 0.36243 0.30277 0.0
O43 O 0.07967 0.37462 0.30479 0.0
O44 O 0.10322 0.3822 0.34115 0.0
C45 C 0.08972 0.35768 0.22253 0.0
O46 O 0.1089 0.3535 0.30746 0.0
Co47 Co 0.07708 0.32572 0.27333 0.0
O48 O 0.09944 0.32815 0.27469 0.0
C49 C 0.07164 0.33469 0.37186 0.0
C50 C 0.09107 0.38531 0.33131 0.0
C51 C 0.11071 0.3407 0.29424 0.0
O52 O 0.08118 0.34985 0.36257 0.0
O53 O 0.06756 0.32321 0.34005 0.0
O54 O 0.10046 0.3716 0.23961 0.0
O55 O 0.07998 0.34758 0.25395 0.0
Co56 Co 0.63714 0.75129 0.30933 0.0
O57 O 0.63636 0.75261 0.23994 0.0
O58 O 0.65582 0.75033 0.28122 0.0
C59 C 0.61165 0.73252 0.32062 0.0
O60 O 0.6416 0.7488 0.38061 0.0
Co61 Co 0.61681 0.76327 0.37306 0.0
O62 O 0.62295 0.75215 0.42547 0.0
C63 C 0.64656 0.78791 0.32948 0.0
C64 C 0.64989 0.7515 0.23953 0.0
C65 C 0.63458 0.74824 0.42136 0.0
O66 O 0.64932 0.77597 0.31379 0.0
O67 O 0.63362 0.7856 0.35182 0.0
O68 O 0.62258 0.72804 0.30695 0.0
O69 O 0.61599 0.74831 0.32117 0.0
Co70 Co 0.23883 0.89297 0.32036 0.0
O71 O 0.26174 0.9008 0.32136 0.0
O72 O 0.2445 0.87819 0.35874 0.0
C73 C 0.2367 0.89613 0.24026 0.0
O74 O 0.21423 0.88105 0.32503 0.0
Co75 Co 0.22518 0.91756 0.29452 0.0
O76 O 0.20465 0.8973 0.28891 0.0
C77 C 0.23729 0.91829 0.39276 0.0
C78 C 0.25934 0.88823 0.34842 0.0
C79 C 0.2025 0.88364 0.30823 0.0
O80 O 0.24002 0.90597 0.38077 0.0
O81 O 0.23194 0.92551 0.36279 0.0
O82 O 0.23763 0.88314 0.25723 0.0
O83 O 0.2389 0.90767 0.27161 0.0
Co84 Co 0.65182 0.91109 0.82045 0.0
O85 O 0.65085 0.90966 0.75097 0.0
O86 O 0.67305 0.92351 0.7935 0.0
C87 C 0.63053 0.91632 0.8322 0.0
O88 O 0.65718 0.91588 0.89219 0.0
Co89 Co 0.62381 0.88551 0.88222 0.0
O90 O 0.63559 0.89989 0.93714 0.0
C91 C 0.6472 0.87579 0.8372 0.0
C92 C 0.66627 0.91885 0.75137 0.0
C93 C 0.64983 0.91141 0.93309 0.0
O94 O 0.65572 0.8908 0.82375 0.0
O95 O 0.63343 0.87092 0.85743 0.0
O96 O 0.64432 0.92821 0.81992 0.0
O97 O 0.62965 0.90161 0.83068 0.0
Co98 Co 0.09163 0.75683 0.81856 0.0
O99 O 0.09387 0.75779 0.74909 0.0
O100 O 0.07412 0.75979 0.78942 0.0
C101 C 0.09666 0.73481 0.82971 0.0
O102 O 0.08477 0.75574 0.88931 0.0
Co103 Co 0.12033 0.76265 0.88579 0.0
O104 O 0.10434 0.7565 0.93883 0.0
C105 C 0.11862 0.79118 0.8388 0.0
C106 C 0.08075 0.75969 0.74803 0.0
C107 C 0.09018 0.7551 0.93185 0.0
O108 O 0.10456 0.78154 0.82273 0.0
O109 O 0.12744 0.7859 0.86189 0.0
O110 O 0.08243 0.73283 0.81681 0.0
O111 O 0.10772 0.74988 0.83128 0.0
Co112 Co 0.2468 0.3824 0.86346 0.0
O113 O 0.24758 0.39009 0.79873 0.0
O114 O 0.24531 0.36529 0.8178 0.0
C115 C 0.26771 0.40487 0.89156 0.0
O116 O 0.24658 0.37114 0.92803 0.0
Co117 Co 0.23805 0.4008 0.94379 0.0
O118 O 0.24721 0.38918 0.98539 0.0
C119 C 0.21203 0.37646 0.88517 0.0
C120 C 0.24657 0.37599 0.78434 0.0
C121 C 0.24842 0.37618 0.9724 0.0
O122 O 0.22262 0.37321 0.86366 0.0
O123 O 0.21573 0.38789 0.91699 0.0
O124 O 0.26993 0.39359 0.868 0.0
O125 O 0.25312 0.40342 0.89187 0.0
Co126 Co 0.89105 0.65228 0.67816 0.0
O127 O 0.88846 0.64551 0.7441 0.0
O128 O 0.89078 0.66981 0.71949 0.0
C129 C 0.91021 0.64429 0.66025 0.0
O130 O 0.89453 0.66289 0.61084 0.0
Co131 Co 0.88161 0.624 0.60189 0.0
O132 O 0.89456 0.64318 0.56023 0.0
C133 C 0.8562 0.62888 0.65273 0.0
C134 C 0.88902 0.65971 0.7552 0.0
C135 C 0.89737 0.65811 0.56928 0.0
O136 O 0.86696 0.64242 0.67058 0.0
O137 O 0.85962 0.61891 0.6275 0.0
O138 O 0.91402 0.65844 0.68117 0.0
O139 O 0.89498 0.63476 0.6569 0.0
Co140 Co 0.38457 0.27875 0.65815 0.0
O141 O 0.39223 0.2799 0.72308 0.0
O142 O 0.36887 0.27957 0.7035 0.0
C143 C 0.40737 0.2982 0.62707 0.0
O144 O 0.37338 0.27836 0.59382 0.0
Co145 Co 0.39975 0.26575 0.57929 0.0
O146 O 0.3884 0.2745 0.53553 0.0
C147 C 0.37461 0.24173 0.64057 0.0
C148 C 0.37904 0.28029 0.73711 0.0
C149 C 0.37693 0.2778 0.54889 0.0
O150 O 0.37349 0.25396 0.66116 0.0
O151 O 0.38513 0.24363 0.60804 0.0
O152 O 0.39745 0.30223 0.65036 0.0
O153 O 0.40432 0.2827 0.62849 0.0
Co154 Co 0.727 0.11794 0.6911 0.0
O155 O 0.72494 0.12358 0.7566 0.0
O156 O 0.73496 0.1063 0.73537 0.0
C157 C 0.70208 0.11338 0.66735 0.0
O158 O 0.73006 0.10904 0.62536 0.0
Co159 Co 0.72625 0.14149 0.61145 0.0
O160 O 0.72122 0.12169 0.5707 0.0
C161 C 0.75649 0.15014 0.66382 0.0
C162 C 0.73103 0.11375 0.7698 0.0
C163 C 0.72546 0.11048 0.58224 0.0
O164 O 0.74934 0.13658 0.68745 0.0
O165 O 0.74921 0.155 0.6328 0.0
O166 O 0.70455 0.10204 0.68971 0.0
O167 O 0.71435 0.1278 0.66539 0.0
Co168 Co 0.01635 0.4371 0.51773 0.0
O169 O 0.03217 0.42903 0.50984 0.0
O170 O 0.03372 0.45229 0.4777 0.0
C171 C 0.01317 0.43283 0.59769 0.0
O172 O 0.00234 0.44943 0.52025 0.0
Co173 Co 0.98203 0.41258 0.54812 0.0
O174 O 0.97909 0.43287 0.55673 0.0
C175 C 0.99122 0.41349 0.4465 0.0
C176 C 0.03999 0.44199 0.48355 0.0
C177 C 0.98859 0.44673 0.53856 0.0
O178 O 0.00505 0.42505 0.45753 0.0
O179 O 0.9801 0.40627 0.47763 0.0
O180 O 0.02504 0.44593 0.58067 0.0
O181 O 0.00464 0.42181 0.56609 0.0
Co182 Co 0.54374 0.60924 0.51673 0.0
O183 O 0.54015 0.61252 0.58323 0.0
O184 O 0.5559 0.60133 0.55789 0.0
C185 C 0.54791 0.63464 0.49221 0.0
O186 O 0.55081 0.60473 0.45042 0.0
Co187 Co 0.51997 0.61052 0.43918 0.0
O188 O 0.53716 0.61165 0.39439 0.0
C189 C 0.51086 0.58047 0.49799 0.0
C190 C 0.55 0.60628 0.59382 0.0
C191 C 0.54819 0.60749 0.40633 0.0
O192 O 0.52496 0.58666 0.51706 0.0
O193 O 0.50609 0.58851 0.46904 0.0
O194 O 0.55951 0.63227 0.51157 0.0
O195 O 0.53394 0.62208 0.49235 0.0
Co196 Co 0.38754 0.96566 0.48252 0.0
O197 O 0.36449 0.95549 0.48065 0.0
O198 O 0.37948 0.94269 0.4623 0.0
C199 C 0.39028 0.9782 0.55442 0.0
O200 O 0.41187 0.97254 0.4839 0.0
Co201 Co 0.40531 0.00404 0.47918 0.0
O202 O 0.4242 0.0002 0.49554 0.0
C203 C 0.39159 0.9859 0.38985 0.0
C204 C 0.3652 0.94208 0.46675 0.0
C205 C 0.42448 0.98622 0.49238 0.0
O206 O 0.38819 0.97234 0.41263 0.0
O207 O 0.39768 7e-05 0.4104 0.0
O208 O 0.3871 0.96266 0.55218 0.0
O209 O 0.38967 0.985 0.51374 0.0
Co210 Co 0.7424 0.65941 0.67067 0.0
O211 O 0.73586 0.67651 0.65918 0.0
O212 O 0.75936 0.68046 0.6904 0.0
C213 C 0.73414 0.64705 0.5989 0.0
O214 O 0.75382 0.64508 0.68498 0.0
Co215 Co 0.71808 0.62309 0.67658 0.0
O216 O 0.73714 0.61862 0.66916 0.0
C217 C 0.7207 0.64486 0.75828 0.0
C218 C 0.74969 0.68667 0.67677 0.0
C219 C 0.75113 0.62995 0.67824 0.0
O220 O 0.73293 0.65625 0.73741 0.0
O221 O 0.71239 0.6307 0.7391 0.0
O222 O 0.74815 0.65961 0.60342 0.0
O223 O 0.72506 0.64296 0.63698 0.0
Co224 Co 0.30552 0.09241 0.66991 0.0
O225 O 0.30401 0.09084 0.60042 0.0
O226 O 0.32665 0.09933 0.64235 0.0
C227 C 0.28532 0.06762 0.68804 0.0
O228 O 0.31163 0.0949 0.7416 0.0
Co229 Co 0.27777 0.09382 0.72897 0.0
O230 O 0.28978 0.09127 0.78511 0.0
C231 C 0.30086 0.124 0.68141 0.0
C232 C 0.31955 0.09631 0.60044 0.0
C233 C 0.30426 0.09323 0.78231 0.0
O234 O 0.30866 0.11598 0.66729 0.0
O235 O 0.28752 0.11717 0.70432 0.0
O236 O 0.29934 0.06892 0.67529 0.0
O237 O 0.28328 0.08088 0.68257 0.0
Co238 Co 0.90933 0.23785 0.66765 0.0
O239 O 0.93234 0.2478 0.66869 0.0
O240 O 0.91687 0.22409 0.70416 0.0
C241 C 0.90728 0.2416 0.58789 0.0
O242 O 0.8849 0.22375 0.67158 0.0
Co243 Co 0.8923 0.25959 0.64269 0.0
O244 O 0.8732 0.23806 0.63543 0.0
C245 C 0.90465 0.26095 0.74124 0.0
C246 C 0.93131 0.23527 0.69389 0.0
C247 C 0.87241 0.22485 0.65447 0.0
O248 O 0.90904 0.24977 0.729 0.0
O249 O 0.89829 0.26725 0.71145 0.0
O250 O 0.90933 0.22908 0.60363 0.0
O251 O 0.90806 0.25232 0.62036 0.0
Co252 Co 0.32359 0.25954 0.13739 0.0
O253 O 0.32315 0.25811 0.06817 0.0
O254 O 0.34507 0.27207 0.11174 0.0
C255 C 0.30215 0.26474 0.14607 0.0
O256 O 0.32818 0.26421 0.20981 0.0
Co257 Co 0.29477 0.23414 0.19684 0.0
O258 O 0.30471 0.25059 0.24922 0.0
C259 C 0.31896 0.22439 0.15694 0.0
C260 C 0.33851 0.26747 0.06929 0.0
C261 C 0.31944 0.26118 0.24831 0.0
O262 O 0.32748 0.23926 0.14219 0.0
O263 O 0.30508 0.21966 0.17636 0.0
O264 O 0.31609 0.27664 0.13515 0.0
O265 O 0.30131 0.25007 0.14507 0.0
Co266 Co 0.77058 0.09511 0.17269 0.0
O267 O 0.77424 0.09816 0.10385 0.0
O268 O 0.75515 0.10151 0.14388 0.0
C269 C 0.772 0.07088 0.17795 0.0
O270 O 0.76251 0.09228 0.24267 0.0
Co271 Co 0.79659 0.09407 0.24215 0.0
O272 O 0.77936 0.08728 0.29144 0.0
C273 C 0.79905 0.12626 0.20839 0.0
C274 C 0.76196 0.10154 0.10271 0.0
C275 C 0.76638 0.08864 0.28432 0.0
O276 O 0.7857 0.11898 0.18529 0.0
O277 O 0.80577 0.11851 0.2308 0.0
O278 O 0.75892 0.07144 0.16327 0.0
O279 O 0.78431 0.08501 0.18382 0.0
Co280 Co 0.90218 0.71659 0.15718 0.0
O281 O 0.90169 0.71842 0.08771 0.0
O282 O 0.89848 0.69585 0.12758 0.0
C283 C 0.9243 0.73992 0.17261 0.0
O284 O 0.90278 0.71032 0.2279 0.0
Co285 Co 0.89608 0.741 0.22226 0.0
O286 O 0.90208 0.73022 0.27589 0.0
C287 C 0.86842 0.71423 0.17645 0.0
C288 C 0.89904 0.70301 0.08634 0.0
C289 C 0.9035 0.7169 0.26983 0.0
O290 O 0.87824 0.70889 0.15996 0.0
O291 O 0.87313 0.72769 0.20052 0.0
O292 O 0.92534 0.72681 0.15719 0.0
O293 O 0.91002 0.73938 0.17145 0.0
Co294 Co 0.55144 0.97304 0.02009 0.0
O295 O 0.54862 0.97129 0.08924 0.0
O296 O 0.55722 0.99465 0.048 0.0
C297 C 0.56426 0.95703 0.01241 0.0
O298 O 0.55664 0.97957 0.94903 0.0
Co299 Co 0.535 0.94166 0.95529 0.0
O300 O 0.5478 0.9566 0.90275 0.0
C301 C 0.51564 0.9572 0.99644 0.0
C302 C 0.55366 0.9872 0.08966 0.0
C303 C 0.55535 0.97223 0.90799 0.0
O304 O 0.5285 0.96957 0.01111 0.0
O305 O 0.51563 0.94418 0.97776 0.0
O306 O 0.57217 0.97237 0.02574 0.0
O307 O 0.54884 0.95152 0.01022 0.0
Co308 Co 0.05147 0.60952 0.0144 0.0
O309 O 0.05927 0.61038 0.07886 0.0
O310 O 0.03415 0.60495 0.06057 0.0
C311 C 0.07167 0.6328 0.98751 0.0
O312 O 0.03986 0.60834 0.95012 0.0
Co313 Co 0.07104 0.60309 0.9338 0.0
O314 O 0.05818 0.61082 0.89294 0.0
C315 C 0.04978 0.57523 0.99174 0.0
C316 C 0.04481 0.60666 0.09367 0.0
C317 C 0.04494 0.61075 0.90598 0.0
O318 O 0.04538 0.58534 0.01218 0.0
O319 O 0.06069 0.57967 0.95918 0.0
O320 O 0.06001 0.63321 0.01271 0.0
O321 O 0.07194 0.61849 0.98503 0.0
Co322 Co 0.40313 0.46321 0.01218 0.0
O323 O 0.40378 0.47092 0.07717 0.0
O324 O 0.41286 0.45295 0.05574 0.0
C325 C 0.37704 0.45788 1.0006 0.0
O326 O 0.40363 0.45221 0.94712 0.0
Co327 Co 0.39601 0.48224 0.92881 0.0
O328 O 0.39361 0.46286 0.88982 0.0
C329 C 0.4292 0.49452 0.96802 0.0
C330 C 0.4098 0.46103 0.09031 0.0
C331 C 0.39897 0.45267 0.90322 0.0
O332 O 0.42482 0.48217 0.99724 0.0
O333 O 0.41933 0.49711 0.94081 0.0
O334 O 0.38079 0.44718 0.02158 0.0
O335 O 0.38901 0.47186 0.99065 0.0
Co336 Co 0.69366 0.76211 0.82712 0.0
O337 O 0.70485 0.74869 0.82045 0.0
O338 O 0.71296 0.77386 0.7895 0.0
C339 C 0.68879 0.75805 0.90677 0.0
O340 O 0.68567 0.77985 0.8282 0.0
Co341 Co 0.65773 0.74639 0.85467 0.0
O342 O 0.66134 0.76959 0.86335 0.0
C343 C 0.66659 0.74378 0.75415 0.0
C344 C 0.71539 0.76083 0.79572 0.0
C345 C 0.6736 0.78159 0.84555 0.0
O346 O 0.68139 0.75248 0.76575 0.0
O347 O 0.65507 0.73931 0.78477 0.0
O348 O 0.70265 0.76888 0.89113 0.0
O349 O 0.67886 0.74878 0.87411 0.0
Co350 Co 0.21485 0.93425 0.83882 0.0
O351 O 0.2125 0.93309 0.908 0.0
O352 O 0.22364 0.92 0.86538 0.0
C353 C 0.22442 0.96171 0.83305 0.0
O354 O 0.21996 0.93328 0.76708 0.0
Co355 Co 0.19373 0.94563 0.77782 0.0
O356 O 0.20856 0.9467 0.72487 0.0
C357 C 0.17953 0.91173 0.8147 0.0
C358 C 0.21952 0.9234 0.9075 0.0
C359 C 0.2177 0.93948 0.72734 0.0
O360 O 0.19345 0.91462 0.83138 0.0
O361 O 0.17661 0.92282 0.79392 0.0
O362 O 0.23379 0.95495 0.84444 0.0
O363 O 0.20916 0.95187 0.83072 0.0
Co364 Co 0.05967 0.30473 0.81855 0.0
O365 O 0.03671 0.29326 0.8155 0.0
O366 O 0.05311 0.28191 0.79853 0.0
C367 C 0.06128 0.31697 0.89051 0.0
O368 O 0.08426 0.31347 0.82038 0.0
Co369 Co 0.07479 0.34302 0.81493 0.0
O370 O 0.09374 0.3405 0.83919 0.0
C371 C 0.06308 0.3245 0.72487 0.0
C372 C 0.03847 0.28039 0.80199 0.0
C373 C 0.0957 0.32743 0.83402 0.0
O374 O 0.06027 0.31124 0.74855 0.0
O375 O 0.06815 0.3387 0.74508 0.0
O376 O 0.05917 0.30174 0.88823 0.0
O377 O 0.06022 0.32346 0.8497 0.0
Co378 Co 0.42229 0.02008 0.96795 0.0
O379 O 0.41702 0.0383 0.97404 0.0
O380 O 0.43819 0.03699 0.00814 0.0
C381 C 0.4183 0.01692 0.88772 0.0
O382 O 0.4317 0.00343 0.96781 0.0
Co383 Co 0.39584 0.98604 0.93585 0.0
O384 O 0.41384 0.97976 0.93385 0.0
C385 C 0.3964 0.99645 0.03682 0.0
C386 C 0.42978 0.04518 1.00069 0.0
C387 C 0.42757 0.98861 0.95242 0.0
O388 O 0.4094 0.00949 0.02757 0.0
O389 O 0.3884 0.98592 0.0043 0.0
O390 O 0.43178 0.02803 0.90491 0.0
O391 O 0.40714 0.00926 0.91917 0.0
Co392 Co 0.96427 0.42549 0.00225 0.0
O393 O 0.96339 0.42659 0.93302 0.0
O394 O 0.9841 0.42712 0.97455 0.0
C395 C 0.93987 0.40427 0.01288 0.0
O396 O 0.96902 0.42364 0.07386 0.0
Co397 Co 0.94057 0.43298 0.06546 0.0
O398 O 0.94844 0.42343 0.11773 0.0
C399 C 0.9698 0.46064 0.02798 0.0
C400 C 0.97766 0.42719 0.93278 0.0
C401 C 0.96141 0.42179 0.11423 0.0
O402 O 0.97395 0.45031 0.00735 0.0
O403 O 0.95664 0.4563 0.05141 0.0
O404 O 0.95208 0.40172 0.99995 0.0
O405 O 0.94226 0.41956 0.01294 0.0
Co406 Co 0.58038 0.57501 0.99191 0.0
O407 O 0.60318 0.58232 0.99445 0.0
O408 O 0.5851 0.557 0.01315 0.0
C409 C 0.58014 0.58598 0.91876 0.0
O410 O 0.55572 0.56317 0.99008 0.0
Co411 Co 0.56738 0.60164 0.98865 0.0
O412 O 0.54778 0.58238 0.96595 0.0
C413 C 0.57845 0.5942 0.0814 0.0
C414 C 0.60014 0.56748 0.00785 0.0
C415 C 0.54495 0.56742 0.97418 0.0
O416 O 0.58018 0.58212 0.06149 0.0
O417 O 0.5747 0.60419 0.05752 0.0
O418 O 0.58066 0.57183 0.92187 0.0
O419 O 0.58154 0.59363 0.95926 0.0
Co420 Co 0.98774 0.58184 0.492 0.0
O421 O 0.9861 0.57887 0.42303 0.0
O422 O 0.00839 0.58554 0.46554 0.0
C423 C 0.9748 0.59777 0.49763 0.0
O424 O 0.99402 0.58691 0.56314 0.0
Co425 Co 0.95677 0.56812 0.55519 0.0
O426 O 0.9717 0.58035 0.60816 0.0
C427 C 0.96901 0.5453 0.51676 0.0
C428 C 0.00137 0.58276 0.42347 0.0
C429 C 0.98694 0.58659 0.60362 0.0
O430 O 0.98179 0.55764 0.50164 0.0
O431 O 0.95704 0.54686 0.53509 0.0
O432 O 0.98984 0.60417 0.485 0.0
O433 O 0.96768 0.58183 0.50047 0.0
Co434 Co 0.43442 0.42556 0.49319 0.0
O435 O 0.43747 0.42788 0.42419 0.0
O436 O 0.41763 0.42994 0.4636 0.0
C437 C 0.43854 0.40283 0.50032 0.0
O438 O 0.42752 0.42343 0.56468 0.0
Co439 Co 0.46345 0.43019 0.55726 0.0
O440 O 0.44676 0.42057 0.60797 0.0
C441 C 0.46122 0.45957 0.52018 0.0
C442 C 0.42481 0.43055 0.42259 0.0
C443 C 0.43297 0.42048 0.60478 0.0
O444 O 0.44759 0.44989 0.50181 0.0
O445 O 0.47029 0.45427 0.54179 0.0
O446 O 0.42461 0.40171 0.48711 0.0
O447 O 0.44998 0.41771 0.5037 0.0
Co448 Co 0.57124 0.03777 0.50169 0.0
O449 O 0.56981 0.0448 0.4373 0.0
O450 O 0.56552 0.01939 0.45633 0.0
C451 C 0.59495 0.05914 0.52076 0.0
O452 O 0.57247 0.02675 0.56579 0.0
Co453 Co 0.56988 0.05939 0.58676 0.0
O454 O 0.58011 0.04721 0.62099 0.0
C455 C 0.53953 0.03551 0.54312 0.0
C456 C 0.56632 0.02993 0.42294 0.0
C457 C 0.57799 0.03282 0.60796 0.0
O458 O 0.54766 0.03145 0.51262 0.0
O459 O 0.54605 0.04662 0.57558 0.0
O460 O 0.59442 0.04662 0.49624 0.0
O461 O 0.58119 0.05941 0.52768 0.0
Co462 Co 0.23533 0.32109 0.38213 0.0
O463 O 0.23292 0.31986 0.45107 0.0
O464 O 0.24455 0.34314 0.40935 0.0
C465 C 0.24434 0.30196 0.37247 0.0
O466 O 0.24039 0.32667 0.31035 0.0
Co467 Co 0.21365 0.29052 0.32058 0.0
O468 O 0.22968 0.30249 0.26984 0.0
C469 C 0.2003 0.3126 0.3566 0.0
C470 C 0.24022 0.33588 0.45114 0.0
C471 C 0.2387 0.318 0.27165 0.0
O472 O 0.21411 0.32199 0.37465 0.0
O473 O 0.19723 0.29883 0.33578 0.0
O474 O 0.25403 0.31677 0.38668 0.0
O475 O 0.22922 0.29855 0.37257 0.0
Co476 Co 0.71636 0.93828 0.34103 0.0
O477 O 0.72395 0.93932 0.40597 0.0
O478 O 0.69856 0.93209 0.38642 0.0
C479 C 0.73578 0.96288 0.31772 0.0
O480 O 0.70456 0.93654 0.277 0.0
Co481 Co 0.7382 0.93727 0.25691 0.0
O482 O 0.72316 0.94271 0.21807 0.0
C483 C 0.71851 0.90666 0.31013 0.0
C484 C 0.70929 0.93489 0.42013 0.0
C485 C 0.70914 0.93995 0.23269 0.0
O486 O 0.71236 0.9145 0.33516 0.0
O487 O 0.72979 0.91372 0.27928 0.0
O488 O 0.72323 0.96201 0.34087 0.0
O489 O 0.73705 0.94919 0.31382 0.0
Co490 Co 0.0535 0.78707 0.33929 0.0
O491 O 0.052 0.79244 0.40555 0.0
O492 O 0.05938 0.7733 0.38166 0.0
C493 C 0.02953 0.7858 0.31679 0.0
O494 O 0.05557 0.77794 0.27293 0.0
Co495 Co 0.0555 0.8121 0.26061 0.0
O496 O 0.04893 0.79242 0.2183 0.0
C497 C 0.08489 0.81743 0.31405 0.0
C498 C 0.0563 0.78103 0.41711 0.0
C499 C 0.05172 0.78022 0.22966 0.0
O500 O 0.0767 0.80387 0.33674 0.0
O501 O 0.07855 0.82349 0.28344 0.0
O502 O 0.0305 0.77335 0.3375 0.0
O503 O 0.04287 0.79926 0.31479 0.0
H504 H 0.30767 0.08715 0.50854 0.0
H505 H 0.35212 0.11258 0.58917 0.0
H506 H 0.3675 0.11859 0.51295 0.0
H507 H 0.32346 0.06839 0.42009 0.0
H508 H 0.3119 0.07075 0.3708 0.0
H509 H 0.30428 0.06842 0.43165 0.0
H510 H 0.30153 0.09573 0.42337 0.0
H511 H 0.30916 0.09816 0.36253 0.0
H512 H 0.31883 0.11439 0.4063 0.0
H513 H 0.37796 0.1227 0.42884 0.0
H514 H 0.38324 0.12355 0.34149 0.0
H515 H 0.3322 0.09458 0.3142 0.0
C516 C 0.32065 0.09395 0.51014 0.0
C517 C 0.32873 0.09942 0.5548 0.0
C518 C 0.3457 0.10823 0.55543 0.0
C519 C 0.35453 0.11173 0.51232 0.0
C520 C 0.34621 0.10623 0.46896 0.0
C521 C 0.32968 0.09743 0.46744 0.0
C522 C 0.32376 0.09285 0.41587 0.0
C523 C 0.31535 0.07398 0.40923 0.0
C524 C 0.31266 0.10076 0.40117 0.0
C525 C 0.33958 0.10052 0.38866 0.0
C526 C 0.35233 0.10825 0.42012 0.0
C527 C 0.3681 0.11661 0.40386 0.0
C528 C 0.37095 0.11705 0.35411 0.0
C529 C 0.35814 0.10907 0.32108 0.0
C530 C 0.34223 0.10066 0.33866 0.0
H531 H 0.89658 0.2623 0.54327 0.0
H532 H 0.91517 0.22647 0.51456 0.0
H533 H 0.91396 0.23074 0.42702 0.0
H534 H 0.86842 0.24973 0.44421 0.0
H535 H 0.87113 0.27038 0.43086 0.0
H536 H 0.87408 0.26504 0.49155 0.0
H537 H 0.90281 0.28917 0.49204 0.0
H538 H 0.89997 0.29452 0.43122 0.0
H539 H 0.91683 0.29028 0.44527 0.0
H540 H 0.91115 0.23904 0.34285 0.0
H541 H 0.90464 0.24913 0.26681 0.0
H542 H 0.88668 0.27862 0.34925 0.0
C543 C 0.90044 0.25543 0.51847 0.0
C544 C 0.90605 0.24412 0.53564 0.0
C545 C 0.91081 0.23518 0.50218 0.0
C546 C 0.91024 0.23757 0.45237 0.0
C547 C 0.90472 0.24883 0.43652 0.0
C548 C 0.89972 0.25748 0.46843 0.0
C549 C 0.89363 0.26827 0.44157 0.0
C550 C 0.87575 0.26304 0.45271 0.0
C551 C 0.90393 0.28665 0.45322 0.0
C552 C 0.89601 0.26432 0.38973 0.0
C553 C 0.90259 0.25322 0.3877 0.0
C554 C 0.90596 0.24773 0.3439 0.0
C555 C 0.90228 0.25357 0.30092 0.0
C556 C 0.89515 0.26463 0.30214 0.0
C557 C 0.89211 0.27014 0.3472 0.0
H558 H 0.75069 0.6436 0.52171 0.0
H559 H 0.70337 0.63684 0.56774 0.0
H560 H 0.69373 0.63106 0.48331 0.0
H561 H 0.75259 0.66359 0.41317 0.0
H562 H 0.76216 0.65336 0.37877 0.0
H563 H 0.76516 0.65578 0.44311 0.0
H564 H 0.75493 0.62416 0.45307 0.0
H565 H 0.75221 0.62166 0.38857 0.0
H566 H 0.73561 0.61033 0.42852 0.0
H567 H 0.69063 0.63035 0.39321 0.0
H568 H 0.69253 0.62907 0.30409 0.0
H569 H 0.74084 0.63322 0.31752 0.0
C570 C 0.73821 0.64052 0.51399 0.0
C571 C 0.72773 0.64065 0.55082 0.0
C572 C 0.7115 0.63662 0.53984 0.0
C573 C 0.70597 0.63345 0.49205 0.0
C574 C 0.71675 0.63395 0.45618 0.0
C575 C 0.73238 0.63687 0.46673 0.0
C576 C 0.74149 0.63663 0.42148 0.0
C577 C 0.75621 0.65334 0.4137 0.0
C578 C 0.74634 0.62234 0.42301 0.0
C579 C 0.72868 0.63366 0.38371 0.0
C580 C 0.71458 0.63238 0.40444 0.0
C581 C 0.70147 0.63095 0.37659 0.0
C582 C 0.70269 0.6304 0.32621 0.0
C583 C 0.71677 0.63095 0.30467 0.0
C584 C 0.72991 0.63259 0.33361 0.0
H585 H 0.05769 0.30444 0.98158 0.0
H586 H 0.07581 0.35065 0.90241 0.0
H587 H 0.08581 0.36607 0.97889 0.0
H588 H 0.04384 0.31905 0.08545 0.0
H589 H 0.04915 0.30706 0.1278 0.0
H590 H 0.04371 0.2998 0.06673 0.0
H591 H 0.07075 0.29798 0.05676 0.0
H592 H 0.07634 0.30537 0.11765 0.0
H593 H 0.08938 0.31603 0.06802 0.0
H594 H 0.09509 0.37622 0.06342 0.0
H595 H 0.10016 0.38074 0.15107 0.0
H596 H 0.07423 0.32793 0.17567 0.0
C597 C 0.06371 0.31782 0.98036 0.0
C598 C 0.06612 0.32639 0.93612 0.0
C599 C 0.07388 0.34387 0.93595 0.0
C600 C 0.07965 0.35271 0.97914 0.0
C601 C 0.07728 0.34385 0.0221 0.0
C602 C 0.06925 0.32681 0.02313 0.0
C603 C 0.06781 0.32026 0.07419 0.0
C604 C 0.05007 0.311 0.08943 0.0
C605 C 0.0766 0.30926 0.07944 0.0
C606 C 0.07636 0.33629 0.10183 0.0
C607 C 0.08193 0.34973 0.07102 0.0
C608 C 0.09065 0.36581 0.08792 0.0
C609 C 0.09353 0.36823 0.13771 0.0
C610 C 0.08749 0.35468 0.17004 0.0
C611 C 0.07886 0.33851 0.15176 0.0
H612 H 0.63752 0.74716 0.14771 0.0
H613 H 0.68103 0.75656 0.22788 0.0
H614 H 0.6953 0.75812 0.15116 0.0
H615 H 0.64304 0.72133 0.0547 0.0
H616 H 0.63504 0.72922 0.00714 0.0
H617 H 0.62811 0.72852 0.06835 0.0
H618 H 0.6359 0.75987 0.06502 0.0
H619 H 0.64287 0.76068 0.00386 0.0
H620 H 0.6562 0.77414 0.04921 0.0
H621 H 0.70532 0.76081 0.06646 0.0
H622 H 0.71017 0.76262 0.97849 0.0
H623 H 0.65979 0.74958 0.95244 0.0
C624 C 0.65003 0.74948 0.1491 0.0
C625 C 0.65822 0.7518 0.19371 0.0
C626 C 0.67454 0.75471 0.19411 0.0
C627 C 0.68274 0.75564 0.15075 0.0
C628 C 0.67436 0.75339 0.10739 0.0
C629 C 0.65833 0.75019 0.10616 0.0
C630 C 0.65218 0.7483 0.05458 0.0
C631 C 0.6388 0.7308 0.04568 0.0
C632 C 0.64645 0.76154 0.04247 0.0
C633 C 0.66734 0.75117 0.02699 0.0
C634 C 0.67999 0.75419 0.05827 0.0
C635 C 0.69547 0.75822 0.04161 0.0
C636 C 0.69811 0.75927 0.99166 0.0
C637 C 0.68532 0.75605 0.95894 0.0
C638 C 0.66969 0.75177 0.9768 0.0
H639 H 0.22896 0.91886 0.19392 0.0
H640 H 0.23944 0.87699 0.16821 0.0
H641 H 0.23634 0.87945 0.0806 0.0
H642 H 0.19842 0.90817 0.101 0.0
H643 H 0.20403 0.92932 0.08407 0.0
H644 H 0.20732 0.92447 0.14502 0.0
H645 H 0.23752 0.94486 0.13802 0.0
H646 H 0.23434 0.94974 0.07703 0.0
H647 H 0.24928 0.94247 0.08928 0.0
H648 H 0.23293 0.88685 0.99536 0.0
H649 H 0.22788 0.8979 0.91865 0.0
H650 H 0.21845 0.93411 0.99941 0.0
C651 C 0.23062 0.91025 0.16978 0.0
C652 C 0.23451 0.89778 0.18789 0.0
C653 C 0.23644 0.88664 0.15521 0.0
C654 C 0.23474 0.88794 0.1053 0.0
C655 C 0.23094 0.90036 0.08851 0.0
C656 C 0.22876 0.91124 0.11969 0.0
C657 C 0.22439 0.92322 0.09209 0.0
C658 C 0.20754 0.92117 0.1064 0.0
C659 C 0.23715 0.94113 0.09955 0.0
C660 C 0.22459 0.91745 0.04066 0.0
C661 C 0.22849 0.90431 0.03937 0.0
C662 C 0.22977 0.89709 0.99589 0.0
C663 C 0.22693 0.90346 0.95252 0.0
C664 C 0.22271 0.91679 0.95307 0.0
C665 C 0.22153 0.92381 0.99782 0.0
H666 H 0.65464 0.91341 0.65856 0.0
H667 H 0.69902 0.93414 0.74135 0.0
H668 H 0.71463 0.94048 0.66541 0.0
H669 H 0.66789 0.89446 0.5661 0.0
H670 H 0.65747 0.8992 0.51794 0.0
H671 H 0.64971 0.89652 0.57866 0.0
H672 H 0.6502 0.9255 0.57576 0.0
H673 H 0.6579 0.92826 0.51494 0.0
H674 H 0.66868 0.94325 0.56091 0.0
H675 H 0.72534 0.94364 0.58137 0.0
H676 H 0.73077 0.94475 0.49414 0.0
H677 H 0.67945 0.92262 0.46462 0.0
C678 C 0.66765 0.91935 0.66073 0.0
C679 C 0.67564 0.92328 0.70591 0.0
C680 C 0.69266 0.93106 0.70719 0.0
C681 C 0.70161 0.93468 0.66425 0.0
C682 C 0.69336 0.93053 0.62038 0.0
C683 C 0.67677 0.92315 0.61821 0.0
C684 C 0.6709 0.92003 0.56627 0.0
C685 C 0.6609 0.90145 0.55669 0.0
C686 C 0.66136 0.92985 0.55374 0.0
C687 C 0.6868 0.9267 0.53953 0.0
C688 C 0.69958 0.93263 0.57159 0.0
C689 C 0.71545 0.93912 0.55592 0.0
C690 C 0.71838 0.93964 0.50619 0.0
C691 C 0.70553 0.9338 0.47243 0.0
C692 C 0.68952 0.92724 0.48947 0.0
H693 H 0.07529 0.7682 0.46085 0.0
H694 H 0.03875 0.78503 0.48958 0.0
H695 H 0.04002 0.7799 0.57647 0.0
H696 H 0.06294 0.73609 0.55456 0.0
H697 H 0.08331 0.74048 0.57058 0.0
H698 H 0.07866 0.74411 0.50978 0.0
H699 H 0.10016 0.77455 0.51564 0.0
H700 H 0.10486 0.77103 0.57643 0.0
H701 H 0.0991 0.78737 0.56434 0.0
H702 H 0.04562 0.77389 0.66007 0.0
H703 H 0.05621 0.76848 0.73645 0.0
H704 H 0.09008 0.75667 0.65553 0.0
C705 C 0.06741 0.77053 0.48547 0.0
C706 C 0.05684 0.7769 0.46853 0.0
C707 C 0.04694 0.78015 0.50183 0.0
C708 C 0.04752 0.77722 0.55125 0.0
C709 C 0.05818 0.77117 0.56703 0.0
C710 C 0.06803 0.76792 0.53535 0.0
C711 C 0.07912 0.76246 0.56257 0.0
C712 C 0.0758 0.74473 0.54853 0.0
C713 C 0.09686 0.77458 0.55424 0.0
C714 C 0.07402 0.7633 0.61428 0.0
C715 C 0.0618 0.76817 0.61587 0.0
C716 C 0.05516 0.77002 0.65938 0.0
C717 C 0.06125 0.76691 0.70257 0.0
C718 C 0.07396 0.76216 0.70199 0.0
C719 C 0.08035 0.76028 0.65715 0.0
H720 H 0.23583 0.32335 0.54273 0.0
H721 H 0.25123 0.36931 0.46319 0.0
H722 H 0.25519 0.38452 0.54038 0.0
H723 H 0.21391 0.3323 0.63421 0.0
H724 H 0.2199 0.32263 0.6821 0.0
H725 H 0.21882 0.31544 0.62084 0.0
H726 H 0.24852 0.32018 0.62576 0.0
H727 H 0.24969 0.32734 0.68713 0.0
H728 H 0.26389 0.34024 0.64274 0.0
H729 H 0.25616 0.39439 0.62522 0.0
H730 H 0.25511 0.39876 0.71261 0.0
H731 H 0.23967 0.34639 0.7379 0.0
C732 C 0.2401 0.33663 0.54149 0.0
C733 C 0.2432 0.34518 0.49697 0.0
C734 C 0.24882 0.36255 0.4969 0.0
C735 C 0.25109 0.37126 0.54051 0.0
C736 C 0.2478 0.36242 0.58372 0.0
C737 C 0.24254 0.34552 0.58461 0.0
C738 C 0.23974 0.33896 0.63593 0.0
C739 C 0.22204 0.32661 0.64371 0.0
C740 C 0.25114 0.33122 0.64863 0.0
C741 C 0.244 0.35481 0.66386 0.0
C742 C 0.24862 0.36817 0.63292 0.0
C743 C 0.25268 0.38405 0.6498 0.0
C744 C 0.25198 0.38637 0.69958 0.0
C745 C 0.24732 0.3729 0.73213 0.0
C746 C 0.24337 0.35692 0.71395 0.0
H747 H 0.89648 0.6902 0.79835 0.0
H748 H 0.87925 0.63786 0.82882 0.0
H749 H 0.87949 0.6434 0.91559 0.0
H750 H 0.92329 0.70472 0.89817 0.0
H751 H 0.91927 0.72214 0.91178 0.0
H752 H 0.91689 0.71428 0.85093 0.0
H753 H 0.88743 0.71039 0.84971 0.0
H754 H 0.88976 0.71837 0.91046 0.0
H755 H 0.87374 0.69836 0.89644 0.0
H756 H 0.88317 0.65417 0.99858 0.0
H757 H 0.88861 0.66986 0.07481 0.0
H758 H 0.90298 0.71541 0.99366 0.0
C759 C 0.89252 0.67993 0.82333 0.0
C760 C 0.88789 0.66361 0.80666 0.0
C761 C 0.88294 0.65049 0.84055 0.0
C762 C 0.883 0.65348 0.89007 0.0
C763 C 0.88797 0.66965 0.9055 0.0
C764 C 0.8925 0.68269 0.87342 0.0
C765 C 0.89766 0.69892 0.90048 0.0
C766 C 0.91533 0.71071 0.88969 0.0
C767 C 0.88648 0.70698 0.88856 0.0
C768 C 0.89551 0.69289 0.95246 0.0
C769 C 0.88991 0.67594 0.95426 0.0
C770 C 0.88742 0.66744 0.9978 0.0
C771 C 0.89061 0.67647 0.04092 0.0
C772 C 0.89617 0.69383 0.04023 0.0
C773 C 0.89865 0.70212 0.99532 0.0
H774 H 0.32668 0.26364 0.9774 0.0
H775 H 0.37135 0.28217 0.05854 0.0
H776 H 0.38665 0.28887 0.98175 0.0
H777 H 0.33815 0.24452 0.88359 0.0
H778 H 0.32789 0.24999 0.83654 0.0
H779 H 0.32058 0.24753 0.89769 0.0
H780 H 0.3225 0.27713 0.89612 0.0
H781 H 0.3298 0.27967 0.83484 0.0
H782 H 0.34133 0.29432 0.8807 0.0
H783 H 0.3968 0.29153 0.89644 0.0
H784 H 0.40136 0.29104 0.80878 0.0
H785 H 0.35003 0.27168 0.78302 0.0
C786 C 0.3397 0.26923 0.97911 0.0
C787 C 0.34786 0.27237 0.02393 0.0
C788 C 0.36488 0.27971 0.0246 0.0
C789 C 0.37364 0.28355 0.9812 0.0
C790 C 0.36518 0.28013 0.93762 0.0
C791 C 0.3486 0.27327 0.93627 0.0
C792 C 0.34237 0.27048 0.88476 0.0
C793 C 0.33162 0.25203 0.8751 0.0
C794 C 0.33348 0.28103 0.87345 0.0
C795 C 0.35805 0.27652 0.85717 0.0
C796 C 0.37106 0.28205 0.8884 0.0
C797 C 0.38673 0.28743 0.87167 0.0
C798 C 0.38918 0.28704 0.82181 0.0
C799 C 0.37605 0.28142 0.78913 0.0
C800 C 0.3603 0.27628 0.8071 0.0
H801 H 0.75189 0.1033 0.81449 0.0
H802 H 0.71482 0.11944 0.8431 0.0
H803 H 0.71871 0.11794 0.93047 0.0
H804 H 0.74255 0.0748 0.91681 0.0
H805 H 0.76335 0.08005 0.92959 0.0
H806 H 0.75719 0.08154 0.86873 0.0
H807 H 0.77833 0.11217 0.86532 0.0
H808 H 0.78447 0.11081 0.92628 0.0
H809 H 0.77804 0.12642 0.91074 0.0
H810 H 0.72671 0.11545 0.01433 0.0
H811 H 0.73836 0.11167 0.09083 0.0
H812 H 0.77087 0.0978 0.01012 0.0
C813 C 0.74447 0.10628 0.83926 0.0
C814 C 0.73302 0.11144 0.82194 0.0
C815 C 0.7237 0.11549 0.85546 0.0
C816 C 0.72579 0.11467 0.90525 0.0
C817 C 0.73733 0.10985 0.92127 0.0
C818 C 0.74653 0.10569 0.88951 0.0
C819 C 0.75843 0.10141 0.91689 0.0
C820 C 0.75518 0.08338 0.90744 0.0
C821 C 0.77585 0.11342 0.90403 0.0
C822 C 0.75444 0.10385 0.96871 0.0
C823 C 0.74219 0.10868 0.97023 0.0
C824 C 0.73631 0.11166 0.01371 0.0
C825 C 0.74302 0.1095 0.05699 0.0
C826 C 0.75555 0.10449 0.05653 0.0
C827 C 0.76137 0.10173 0.01167 0.0
H828 H 0.96415 0.41893 0.84308 0.0
H829 H 0.00977 0.43643 0.91878 0.0
H830 H 0.02359 0.438 0.84103 0.0
H831 H 0.97264 0.39349 0.7548 0.0
H832 H 0.96226 0.39827 0.70662 0.0
H833 H 0.95591 0.39801 0.76832 0.0
H834 H 0.95924 0.42799 0.75912 0.0
H835 H 0.96558 0.42834 0.69744 0.0
H836 H 0.97828 0.44397 0.73932 0.0
H837 H 0.03261 0.44015 0.75495 0.0
H838 H 0.03617 0.44123 0.66633 0.0
H839 H 0.98449 0.42024 0.64678 0.0
C840 C 0.97705 0.42302 0.84332 0.0
C841 C 0.98595 0.42766 0.88682 0.0
C842 C 0.00276 0.43282 0.8858 0.0
C843 C 0.01069 0.43373 0.84187 0.0
C844 C 0.00156 0.42916 0.79958 0.0
C845 C 0.98509 0.42373 0.79997 0.0
C846 C 0.97812 0.41973 0.74939 0.0
C847 C 0.96655 0.40127 0.74451 0.0
C848 C 0.96982 0.43066 0.73552 0.0
C849 C 0.9933 0.42412 0.72027 0.0
C850 C 0.00669 0.42959 0.74999 0.0
C851 C 0.02221 0.4356 0.73139 0.0
C852 C 0.02411 0.4362 0.68113 0.0
C853 C 0.01058 0.43058 0.65012 0.0
C854 C 0.99497 0.42421 0.66989 0.0
H855 H 0.56117 0.58546 0.63583 0.0
H856 H 0.54922 0.62609 0.6663 0.0
H857 H 0.55664 0.62587 0.75162 0.0
H858 H 0.54489 0.56374 0.74687 0.0
H859 H 0.56018 0.55661 0.7543 0.0
H860 H 0.55479 0.56044 0.69464 0.0
H861 H 0.58458 0.58057 0.67779 0.0
H862 H 0.59005 0.57682 0.73746 0.0
H863 H 0.59503 0.59764 0.71841 0.0
H864 H 0.56537 0.62163 0.8328 0.0
H865 H 0.57323 0.61225 0.90752 0.0
H866 H 0.57819 0.57324 0.82722 0.0
C867 C 0.56026 0.59436 0.66051 0.0
C868 C 0.55471 0.60585 0.64452 0.0
C869 C 0.55342 0.61716 0.67786 0.0
C870 C 0.55766 0.61719 0.72635 0.0
C871 C 0.563 0.60569 0.74114 0.0
C872 C 0.56419 0.59437 0.70951 0.0
C873 C 0.56954 0.58284 0.73577 0.0
C874 C 0.55657 0.56484 0.73271 0.0
C875 C 0.58577 0.58458 0.71619 0.0
C876 C 0.57119 0.58953 0.78689 0.0
C877 C 0.56751 0.60281 0.7889 0.0
C878 C 0.56824 0.6112 0.83183 0.0
C879 C 0.57273 0.60578 0.87408 0.0
C880 C 0.57624 0.59197 0.87324 0.0
C881 C 0.57552 0.5838 0.82896 0.0
H882 H 0.39897 0.98824 0.8407 0.0
H883 H 0.4318 0.03973 0.81704 0.0
H884 H 0.42717 0.03583 0.72895 0.0
H885 H 0.4124 0.97314 0.738 0.0
H886 H 0.39273 0.95695 0.72438 0.0
H887 H 0.39786 0.96411 0.78564 0.0
H888 H 0.37306 0.97035 0.78987 0.0
H889 H 0.36791 0.96329 0.72851 0.0
H890 H 0.37071 0.98373 0.74535 0.0
H891 H 0.41832 0.02647 0.64367 0.0
H892 H 0.40842 0.0115 0.56645 0.0
H893 H 0.38333 0.96567 0.64544 0.0
C894 C 0.40506 0.99868 0.81687 0.0
C895 C 0.4156 0.01431 0.83536 0.0
C896 C 0.42366 0.02765 0.80332 0.0
C897 C 0.42105 0.02558 0.75336 0.0
C898 C 0.41057 0.01001 0.73611 0.0
C899 C 0.40291 0.99672 0.76679 0.0
C900 C 0.39309 0.98106 0.73873 0.0
C901 C 0.39941 0.96805 0.74719 0.0
C902 C 0.37512 0.97421 0.75137 0.0
C903 C 0.39634 0.98765 0.68757 0.0
C904 C 0.40625 0.00442 0.68684 0.0
C905 C 0.41065 0.01331 0.64373 0.0
C906 C 0.40494 0.00474 0.60012 0.0
C907 C 0.39524 0.98746 0.60014 0.0
C908 C 0.39084 0.97888 0.64445 0.0
H909 H 0.55933 2e-05 0.37729 0.0
H910 H 0.56802 0.05075 0.34994 0.0
H911 H 0.56529 0.04519 0.26269 0.0
H912 H 0.58111 0.99603 0.27483 0.0
H913 H 0.56716 0.97495 0.26171 0.0
H914 H 0.56935 0.98263 0.32274 0.0
H915 H 0.53873 0.97409 0.32685 0.0
H916 H 0.53645 0.96634 0.26585 0.0
H917 H 0.52954 0.98159 0.28164 0.0
H918 H 0.56278 0.03478 0.17811 0.0
H919 H 0.5596 0.01957 0.10137 0.0
H920 H 0.55188 0.97539 0.18202 0.0
C921 C 0.56055 0.0099 0.35292 0.0
C922 C 0.56391 0.02583 0.37067 0.0
C923 C 0.56546 0.03844 0.33747 0.0
C924 C 0.56393 0.03543 0.28767 0.0
C925 C 0.56077 0.0197 0.27127 0.0
C926 C 0.559 0.00709 0.30275 0.0
C927 C 0.55574 0.99135 0.27515 0.0
C928 C 0.56914 0.98593 0.28415 0.0
C929 C 0.53913 0.97753 0.28815 0.0
C930 C 0.5561 0.99718 0.22348 0.0
C931 C 0.55906 0.01359 0.22214 0.0
C932 C 0.56036 0.02188 0.17863 0.0
C933 C 0.55856 0.01316 0.13522 0.0
C934 C 0.55542 0.99629 0.13564 0.0
C935 C 0.55415 0.98824 0.18049 0.0
H936 H 0.98982 0.58024 0.3311 0.0
H937 H 0.03348 0.59136 0.41269 0.0
H938 H 0.04907 0.59818 0.33668 0.0
H939 H 0.00023 0.5621 0.22563 0.0
H940 H 0.99122 0.57084 0.18357 0.0
H941 H 0.98336 0.56575 0.24403 0.0
H942 H 0.98725 0.59582 0.25623 0.0
H943 H 0.99529 0.60106 0.19605 0.0
H944 H 0.00686 0.61272 0.24704 0.0
H945 H 0.06005 0.60529 0.25329 0.0
H946 H 0.06588 0.6111 0.16687 0.0
H947 H 0.01509 0.59551 0.13831 0.0
C948 C 0.00263 0.58387 0.33297 0.0
C949 C 0.01046 0.58523 0.37785 0.0
C950 C 0.02724 0.59017 0.37874 0.0
C951 C 0.03618 0.59409 0.33578 0.0
C952 C 0.02814 0.59296 0.2923 0.0
C953 C 0.01173 0.58784 0.29044 0.0
C954 C 0.00613 0.58815 0.23905 0.0
C955 C 0.99455 0.57067 0.22208 0.0
C956 C 0.99843 0.60015 0.23434 0.0
C957 C 0.02202 0.5945 0.21236 0.0
C958 C 0.03452 0.59713 0.24388 0.0
C959 C 0.05036 0.60318 0.22822 0.0
C960 C 0.05353 0.60649 0.17897 0.0
C961 C 0.04094 0.60377 0.14573 0.0
C962 C 0.02497 0.59776 0.16281 0.0
H963 H 0.42513 0.44406 0.13542 0.0
H964 H 0.39702 0.47114 0.16414 0.0
H965 H 0.39687 0.46525 0.25069 0.0
H966 H 0.40649 0.4123 0.22527 0.0
H967 H 0.42491 0.41162 0.24338 0.0
H968 H 0.42277 0.41761 0.1827 0.0
H969 H 0.44853 0.44508 0.19332 0.0
H970 H 0.45083 0.43909 0.25386 0.0
H971 H 0.44996 0.45845 0.24353 0.0
H972 H 0.39865 0.45573 0.33405 0.0
H973 H 0.40509 0.44571 0.41045 0.0
H974 H 0.43328 0.42609 0.33046 0.0
C975 C 0.41902 0.44879 0.16001 0.0
C976 C 0.41107 0.45805 0.14267 0.0
C977 C 0.40327 0.46407 0.17621 0.0
C978 C 0.40302 0.46072 0.22564 0.0
C979 C 0.41077 0.45146 0.24156 0.0
C980 C 0.41886 0.44578 0.21004 0.0
C981 C 0.4267 0.43662 0.23745 0.0
C982 C 0.4198 0.41846 0.22122 0.0
C983 C 0.4451 0.44534 0.2317 0.0
C984 C 0.42169 0.43805 0.28895 0.0
C985 C 0.41233 0.44648 0.29032 0.0
C986 C 0.40605 0.44918 0.33354 0.0
C987 C 0.40969 0.44337 0.37674 0.0
C988 C 0.41969 0.43516 0.37648 0.0
C989 C 0.42563 0.43238 0.33184 0.0
H990 H 0.30524 0.19238 0.18824 0.0
H991 H 0.34861 0.22935 0.12159 0.0
H992 H 0.36088 0.20988 0.12515 0.0
H993 H 0.32452 0.17728 0.2709 0.0
H994 H 0.30963 0.15608 0.26627 0.0
H995 H 0.304 0.17257 0.25581 0.0
H996 H 0.29287 0.16055 0.17119 0.0
H997 H 0.29828 0.14389 0.18163 0.0
H998 H 0.30568 0.15673 0.12885 0.0
H999 H 0.36865 0.18631 0.13903 0.0
H1000 H 0.37068 0.16049 0.15878 0.0
H1001 H 0.32223 0.13993 0.21756 0.0
C1002 C 0.31726 0.1964 0.17383 0.0
C1003 C 0.32594 0.21242 0.15462 0.0
C1004 C 0.34168 0.21712 0.13641 0.0
C1005 C 0.34878 0.20617 0.13837 0.0
C1006 C 0.33996 0.1906 0.15858 0.0
C1007 C 0.3245 0.18572 0.17565 0.0
C1008 C 0.31761 0.16851 0.19654 0.0
C1009 C 0.31372 0.16863 0.25058 0.0
C1010 C 0.30273 0.15673 0.16783 0.0
C1011 C 0.33165 0.16446 0.18896 0.0
C1012 C 0.34444 0.17728 0.16693 0.0
C1013 C 0.35868 0.17619 0.15622 0.0
C1014 C 0.35974 0.1615 0.16774 0.0
C1015 C 0.34664 0.14816 0.18986 0.0
C1016 C 0.33253 0.14986 0.20088 0.0
H1017 H 0.7965 0.14892 0.14601 0.0
H1018 H 0.81811 0.14463 0.28146 0.0
H1019 H 0.8297 0.17475 0.29232 0.0
H1020 H 0.83011 0.18538 0.107 0.0
H1021 H 0.81832 0.19446 0.07881 0.0
H1022 H 0.81038 0.17234 0.08346 0.0
H1023 H 0.78523 0.17132 0.12746 0.0
H1024 H 0.7932 0.19349 0.1234 0.0
H1025 H 0.78773 0.18347 0.1814 0.0
H1026 H 0.83979 0.20473 0.28808 0.0
H1027 H 0.85075 0.23393 0.26441 0.0
H1028 H 0.82365 0.21997 0.13038 0.0
C1029 C 0.80358 0.15435 0.17807 0.0
C1030 C 0.80639 0.14443 0.21296 0.0
C1031 C 0.81589 0.15198 0.25411 0.0
C1032 C 0.82239 0.16907 0.26089 0.0
C1033 C 0.81937 0.17848 0.22607 0.0
C1034 C 0.81041 0.17152 0.18512 0.0
C1035 C 0.81022 0.18477 0.15154 0.0
C1036 C 0.81771 0.1842 0.1023 0.0
C1037 C 0.79307 0.18316 0.14562 0.0
C1038 C 0.82076 0.20024 0.17974 0.0
C1039 C 0.8256 0.19619 0.22303 0.0
C1040 C 0.83602 0.20811 0.25452 0.0
C1041 C 0.84216 0.22464 0.24074 0.0
C1042 C 0.83795 0.22915 0.19575 0.0
C1043 C 0.82676 0.21684 0.1654 0.0
H1044 H 0.84267 0.71767 0.21659 0.0
H1045 H 0.8545 0.68644 0.12022 0.0
H1046 H 0.82575 0.6674 0.11264 0.0
H1047 H 0.81095 0.685 0.27919 0.0
H1048 H 0.79845 0.69566 0.28427 0.0
H1049 H 0.81999 0.70727 0.28108 0.0
H1050 H 0.81712 0.72344 0.20715 0.0
H1051 H 0.79557 0.71199 0.21042 0.0
H1052 H 0.80593 0.71221 0.15504 0.0
H1053 H 0.79558 0.65104 0.1176 0.0
H1054 H 0.76624 0.63968 0.13135 0.0
H1055 H 0.7742 0.68157 0.22403 0.0
C1056 C 0.83923 0.70694 0.19345 0.0
C1057 C 0.85094 0.70363 0.16909 0.0
C1058 C 0.84584 0.68932 0.13944 0.0
C1059 C 0.8295 0.67837 0.13488 0.0
C1060 C 0.81831 0.68183 0.16006 0.0
C1061 C 0.82293 0.69583 0.18847 0.0
C1062 C 0.80849 0.6966 0.212 0.0
C1063 C 0.80954 0.6961 0.26742 0.0
C1064 C 0.80667 0.71197 0.19513 0.0
C1065 C 0.79507 0.68086 0.19245 0.0
C1066 C 0.80096 0.67247 0.16268 0.0
C1067 C 0.79081 0.65754 0.14073 0.0
C1068 C 0.77416 0.65114 0.1489 0.0
C1069 C 0.76783 0.6597 0.17865 0.0
C1070 C 0.77855 0.67469 0.20091 0.0
H1071 H 0.11936 0.31593 0.27195 0.0
H1072 H 0.13657 0.36356 0.34407 0.0
H1073 H 0.16089 0.36104 0.37011 0.0
H1074 H 0.13278 0.29616 0.36044 0.0
H1075 H 0.13861 0.28478 0.31726 0.0
H1076 H 0.12269 0.29043 0.30285 0.0
H1077 H 0.13778 0.30526 0.22519 0.0
H1078 H 0.15364 0.29945 0.23902 0.0
H1079 H 0.15829 0.32088 0.22961 0.0
H1080 H 0.18287 0.35295 0.39063 0.0
H1081 H 0.20209 0.34095 0.39868 0.0
H1082 H 0.17055 0.29863 0.31286 0.0
C1083 C 0.12828 0.32592 0.29286 0.0
C1084 C 0.126 0.33994 0.30597 0.0
C1085 C 0.13802 0.3527 0.33342 0.0
C1086 C 0.15186 0.35137 0.3486 0.0
C1087 C 0.15353 0.33722 0.33591 0.0
C1088 C 0.14217 0.32481 0.30825 0.0
C1089 C 0.1469 0.31093 0.29936 0.0
C1090 C 0.13451 0.29461 0.3213 0.0
C1091 C 0.1493 0.30903 0.24508 0.0
C1092 C 0.16269 0.31746 0.3265 0.0
C1093 C 0.16625 0.3326 0.3475 0.0
C1094 C 0.18024 0.34112 0.37423 0.0
C1095 C 0.19106 0.33415 0.37869 0.0
C1096 C 0.18788 0.31881 0.35638 0.0
C1097 C 0.17335 0.3103 0.33059 0.0
H1098 H 0.64752 0.81727 0.36325 0.0
H1099 H 0.67474 0.7972 0.27977 0.0
H1100 H 0.69665 0.82514 0.27023 0.0
H1101 H 0.65899 0.85426 0.29291 0.0
H1102 H 0.66021 0.8671 0.34427 0.0
H1103 H 0.64668 0.8454 0.34544 0.0
H1104 H 0.66007 0.84222 0.42454 0.0
H1105 H 0.67376 0.8639 0.42327 0.0
H1106 H 0.68148 0.84869 0.42587 0.0
H1107 H 0.71554 0.85511 0.26835 0.0
H1108 H 0.72956 0.88554 0.27091 0.0
H1109 H 0.69038 0.88634 0.35594 0.0
C1110 C 0.65807 0.81874 0.34291 0.0
C1111 C 0.65936 0.80495 0.32246 0.0
C1112 C 0.67341 0.80749 0.29603 0.0
C1113 C 0.68599 0.82333 0.29044 0.0
C1114 C 0.68441 0.83658 0.31148 0.0
C1115 C 0.6708 0.83451 0.33696 0.0
C1116 C 0.67208 0.85095 0.35491 0.0
C1117 C 0.6587 0.85464 0.33306 0.0
C1118 C 0.67184 0.85146 0.41045 0.0
C1119 C 0.68847 0.86254 0.3352 0.0
C1120 C 0.6954 0.85397 0.31049 0.0
C1121 C 0.71028 0.86198 0.28779 0.0
C1122 C 0.71817 0.87929 0.28952 0.0
C1123 C 0.71115 0.88839 0.31377 0.0
C1124 C 0.69621 0.8798 0.33758 0.0
H1125 H 0.17565 0.88314 0.2651 0.0
H1126 H 0.19099 0.85543 0.36407 0.0
H1127 H 0.1625 0.83571 0.37748 0.0
H1128 H 0.14111 0.87911 0.33055 0.0
H1129 H 0.12907 0.87702 0.27747 0.0
H1130 H 0.15061 0.88857 0.2745 0.0
H1131 H 0.15165 0.87008 0.20397 0.0
H1132 H 0.13008 0.85858 0.20634 0.0
H1133 H 0.14261 0.84796 0.21151 0.0
H1134 H 0.13214 0.81972 0.38228 0.0
H1135 H 0.10266 0.80752 0.37397 0.0
H1136 H 0.10743 0.84582 0.27108 0.0
C1137 C 0.1731 0.87289 0.28946 0.0
C1138 C 0.18562 0.87088 0.31366 0.0
C1139 C 0.18165 0.85721 0.34497 0.0
C1140 C 0.16549 0.846 0.35297 0.0
C1141 C 0.15348 0.84858 0.32919 0.0
C1142 C 0.15712 0.86161 0.2977 0.0
C1143 C 0.14205 0.86169 0.27651 0.0
C1144 C 0.14063 0.87754 0.29062 0.0
C1145 C 0.14157 0.85944 0.22132 0.0
C1146 C 0.12927 0.84669 0.30116 0.0
C1147 C 0.1361 0.83933 0.33154 0.0
C1148 C 0.12669 0.82535 0.35841 0.0
C1149 C 0.10991 0.81854 0.35349 0.0
C1150 C 0.10261 0.82566 0.32177 0.0
C1151 C 0.11253 0.84004 0.29569 0.0
H1152 H 0.63413 0.84378 0.86879 0.0
H1153 H 0.6757 0.88052 0.79391 0.0
H1154 H 0.68748 0.86065 0.78942 0.0
H1155 H 0.65552 0.82717 0.94047 0.0
H1156 H 0.64003 0.80623 0.93663 0.0
H1157 H 0.63479 0.82324 0.933 0.0
H1158 H 0.62062 0.81227 0.85077 0.0
H1159 H 0.62569 0.79514 0.85437 0.0
H1160 H 0.63162 0.80849 0.80229 0.0
H1161 H 0.69476 0.83662 0.79415 0.0
H1162 H 0.6964 0.81014 0.80485 0.0
H1163 H 0.65006 0.78983 0.87748 0.0
C1164 C 0.64566 0.84769 0.8511 0.0
C1165 C 0.65396 0.86373 0.83166 0.0
C1166 C 0.66908 0.86829 0.80907 0.0
C1167 C 0.6759 0.85711 0.80643 0.0
C1168 C 0.66745 0.84148 0.82661 0.0
C1169 C 0.65264 0.83677 0.84832 0.0
C1170 C 0.64597 0.81932 0.86739 0.0
C1171 C 0.64397 0.81898 0.92265 0.0
C1172 C 0.63004 0.80815 0.84218 0.0
C1173 C 0.65932 0.81487 0.85286 0.0
C1174 C 0.67164 0.82778 0.82951 0.0
C1175 C 0.68518 0.82642 0.81241 0.0
C1176 C 0.68601 0.81134 0.81878 0.0
C1177 C 0.67336 0.79787 0.84199 0.0
C1178 C 0.65997 0.79983 0.85962 0.0
H1179 H 0.18136 0.88581 0.8609 0.0
H1180 H 0.14915 0.89831 0.774 0.0
H1181 H 0.12946 0.8688 0.77281 0.0
H1182 H 0.17457 0.8492 0.80028 0.0
H1183 H 0.17569 0.83834 0.85374 0.0
H1184 H 0.18651 0.86051 0.8512 0.0
H1185 H 0.17227 0.86306 0.92925 0.0
H1186 H 0.1615 0.84088 0.9324 0.0
H1187 H 0.1506 0.85328 0.93207 0.0
H1188 H 0.11411 0.83744 0.77719 0.0
H1189 H 0.10408 0.80736 0.78874 0.0
H1190 H 0.14691 0.81603 0.87188 0.0
C1191 C 0.1701 0.88248 0.84202 0.0
C1192 C 0.16683 0.89445 0.8175 0.0
C1193 C 0.15192 0.88941 0.79324 0.0
C1194 C 0.14068 0.87267 0.79229 0.0
C1195 C 0.14453 0.86117 0.81593 0.0
C1196 C 0.15885 0.86593 0.84062 0.0
C1197 C 0.16048 0.85123 0.86161 0.0
C1198 C 0.17518 0.84974 0.84042 0.0
C1199 C 0.16125 0.85217 0.91713 0.0
C1200 C 0.14492 0.83735 0.84431 0.0
C1201 C 0.13582 0.8433 0.81822 0.0
C1202 C 0.1211 0.83269 0.79784 0.0
C1203 C 0.11553 0.8156 0.80453 0.0
C1204 C 0.12468 0.80925 0.83125 0.0
C1205 C 0.13958 0.82039 0.85127 0.0
H1206 H 0.11761 0.3485 0.89672 0.0
H1207 H 0.11122 0.31109 0.789 0.0
H1208 H 0.14041 0.31849 0.79363 0.0
H1209 H 0.15321 0.37857 0.85378 0.0
H1210 H 0.16207 0.38635 0.91198 0.0
H1211 H 0.14055 0.37655 0.90533 0.0
H1212 H 0.13801 0.35558 0.97266 0.0
H1213 H 0.15955 0.36551 0.98026 0.0
H1214 H 0.14933 0.34365 0.96802 0.0
H1215 H 0.17092 0.33267 0.80321 0.0
H1216 H 0.19948 0.35047 0.82124 0.0
H1217 H 0.18539 0.37854 0.92298 0.0
C1218 C 0.12227 0.34159 0.87481 0.0
C1219 C 0.11219 0.32923 0.8424 0.0
C1220 C 0.11872 0.32047 0.81439 0.0
C1221 C 0.13528 0.32468 0.81664 0.0
C1222 C 0.145 0.33745 0.84761 0.0
C1223 C 0.13863 0.34555 0.87685 0.0
C1224 C 0.15159 0.35938 0.90524 0.0
C1225 C 0.15186 0.3762 0.89334 0.0
C1226 C 0.1495 0.35581 0.95978 0.0
C1227 C 0.16641 0.35827 0.88619 0.0
C1228 C 0.16239 0.34548 0.85329 0.0
C1229 C 0.17415 0.34255 0.82942 0.0
C1230 C 0.19038 0.35283 0.83978 0.0
C1231 C 0.19478 0.36597 0.87366 0.0
C1232 C 0.18253 0.36862 0.89705 0.0
H1233 H 0.78277 0.65068 0.69715 0.0
H1234 H 0.75081 0.59976 0.66068 0.0
H1235 H 0.77417 0.59343 0.65551 0.0
H1236 H 0.81358 0.65507 0.61697 0.0
H1237 H 0.82979 0.66774 0.65661 0.0
H1238 H 0.81047 0.66792 0.66186 0.0
H1239 H 0.8091 0.65999 0.75236 0.0
H1240 H 0.82848 0.65986 0.74743 0.0
H1241 H 0.81142 0.64183 0.76936 0.0
H1242 H 0.80119 0.59329 0.64701 0.0
H1243 H 0.82979 0.59916 0.63871 0.0
H1244 H 0.84384 0.65001 0.68228 0.0
C1245 C 0.7806 0.63812 0.68884 0.0
C1246 C 0.76491 0.62572 0.67941 0.0
C1247 C 0.76269 0.60948 0.66825 0.0
C1248 C 0.77588 0.60575 0.66523 0.0
C1249 C 0.7912 0.61835 0.67385 0.0
C1250 C 0.7936 0.63417 0.68583 0.0
C1251 C 0.81132 0.64568 0.69112 0.0
C1252 C 0.81659 0.65993 0.65445 0.0
C1253 C 0.81531 0.65222 0.74317 0.0
C1254 C 0.81852 0.63392 0.67929 0.0
C1255 C 0.80674 0.61821 0.66957 0.0
C1256 C 0.81053 0.6055 0.65516 0.0
C1257 C 0.82681 0.60897 0.65037 0.0
C1258 C 0.83907 0.62502 0.6601 0.0
C1259 C 0.83479 0.63756 0.67522 0.0
H1260 H 0.37186 0.21147 0.60759 0.0
H1261 H 0.34891 0.23373 0.701 0.0
H1262 H 0.32688 0.20635 0.71673 0.0
H1263 H 0.33552 0.18008 0.55596 0.0
H1264 H 0.34256 0.16432 0.55569 0.0
H1265 H 0.35673 0.18576 0.55065 0.0
H1266 H 0.37236 0.18294 0.62504 0.0
H1267 H 0.35837 0.16144 0.62981 0.0
H1268 H 0.36176 0.17501 0.68092 0.0
H1269 H 0.30688 0.17681 0.72138 0.0
H1270 H 0.29183 0.14645 0.72215 0.0
H1271 H 0.32779 0.14289 0.62786 0.0
C1272 C 0.36226 0.21058 0.63155 0.0
C1273 C 0.3622 0.22487 0.65281 0.0
C1274 C 0.34935 0.22308 0.68411 0.0
C1275 C 0.33667 0.20754 0.69316 0.0
C1276 C 0.33695 0.19381 0.67099 0.0
C1277 C 0.34949 0.19509 0.64139 0.0
C1278 C 0.34701 0.1782 0.6235 0.0
C1279 C 0.34536 0.17703 0.56816 0.0
C1280 C 0.36069 0.17416 0.64088 0.0
C1281 C 0.33121 0.1673 0.64797 0.0
C1282 C 0.32552 0.1766 0.67464 0.0
C1283 C 0.31121 0.16936 0.7007 0.0
C1284 C 0.30269 0.15208 0.7007 0.0
C1285 C 0.30859 0.14221 0.67517 0.0
C1286 C 0.32291 0.15003 0.64776 0.0
H1287 H 0.77719 0.17894 0.61817 0.0
H1288 H 0.77599 0.14303 0.72479 0.0
H1289 H 0.8055 0.15749 0.73193 0.0
H1290 H 0.81324 0.18358 0.55865 0.0
H1291 H 0.82057 0.20548 0.54893 0.0
H1292 H 0.79925 0.19248 0.55249 0.0
H1293 H 0.79672 0.21067 0.6216 0.0
H1294 H 0.81799 0.22384 0.61783 0.0
H1295 H 0.80917 0.21444 0.67463 0.0
H1296 H 0.83551 0.17556 0.72592 0.0
H1297 H 0.86323 0.19713 0.71169 0.0
H1298 H 0.84459 0.22112 0.60983 0.0
C1299 C 0.78308 0.17416 0.64334 0.0
C1300 C 0.77415 0.15979 0.67082 0.0
C1301 C 0.78246 0.154 0.70323 0.0
C1302 C 0.79927 0.1621 0.70749 0.0
C1303 C 0.8077 0.17604 0.67927 0.0
C1304 C 0.79987 0.18212 0.64818 0.0
C1305 C 0.81173 0.19742 0.62227 0.0
C1306 C 0.81116 0.19456 0.56733 0.0
C1307 C 0.80872 0.21248 0.63486 0.0
C1308 C 0.82741 0.19898 0.64367 0.0
C1309 C 0.82489 0.18649 0.67623 0.0
C1310 C 0.83764 0.18544 0.70054 0.0
C1311 C 0.85335 0.19769 0.69205 0.0
C1312 C 0.85615 0.21087 0.65977 0.0
C1313 C 0.84294 0.21128 0.63491 0.0
H1314 H 0.00519 0.47923 0.50856 0.0
H1315 H 0.9589 0.44367 0.56394 0.0
H1316 H 0.94866 0.46454 0.55885 0.0
H1317 H 0.00591 0.5141 0.57299 0.0
H1318 H 0.01521 0.52857 0.52466 0.0
H1319 H 0.0189 0.51061 0.53051 0.0
H1320 H 0.00916 0.50217 0.44248 0.0
H1321 H 0.00531 0.52005 0.43651 0.0
H1322 H 0.98946 0.49971 0.42492 0.0
H1323 H 0.94322 0.48883 0.54924 0.0
H1324 H 0.94353 0.51614 0.54096 0.0
H1325 H 0.9933 0.53661 0.49294 0.0
C1326 C 0.99289 0.47583 0.5195 0.0
C1327 C 0.98288 0.45974 0.53651 0.0
C1328 C 0.96688 0.45586 0.55077 0.0
C1329 C 0.96087 0.46762 0.54782 0.0
C1330 C 0.97097 0.48325 0.53065 0.0
C1331 C 0.98667 0.48748 0.51704 0.0
C1332 C 0.99508 0.50545 0.50169 0.0
C1333 C 0.00963 0.51526 0.53442 0.0
C1334 C 4e-05 0.50693 0.44822 0.0
C1335 C 0.9817 0.51063 0.5095 0.0
C1336 C 0.96786 0.49754 0.52568 0.0
C1337 C 0.95397 0.49921 0.5365 0.0
C1338 C 0.95428 0.51481 0.53164 0.0
C1339 C 0.96844 0.52859 0.51638 0.0
C1340 C 0.98224 0.52634 0.50441 0.0
H1341 H 0.4903 0.4858 0.54518 0.0
H1342 H 0.44262 0.47418 0.48887 0.0
H1343 H 0.44955 0.5037 0.48431 0.0
H1344 H 0.49472 0.52185 0.61686 0.0
H1345 H 0.51575 0.53346 0.60263 0.0
H1346 H 0.50692 0.51121 0.60472 0.0
H1347 H 0.51665 0.51046 0.51729 0.0
H1348 H 0.52559 0.53268 0.51513 0.0
H1349 H 0.51119 0.52071 0.46974 0.0
H1350 H 0.46153 0.53413 0.48194 0.0
H1351 H 0.4787 0.56411 0.47795 0.0
H1352 H 0.51877 0.5567 0.53545 0.0
C1353 C 0.4813 0.48947 0.53222 0.0
C1354 C 0.46591 0.47756 0.51749 0.0
C1355 C 0.45452 0.48295 0.50034 0.0
C1356 C 0.45828 0.49974 0.49783 0.0
C1357 C 0.47349 0.51111 0.51258 0.0
C1358 C 0.48487 0.50629 0.52923 0.0
C1359 C 0.5006 0.52122 0.54032 0.0
C1360 C 0.50474 0.52198 0.59435 0.0
C1361 C 0.51431 0.52127 0.50872 0.0
C1362 C 0.49628 0.53508 0.52638 0.0
C1363 C 0.48051 0.52892 0.511 0.0
C1364 C 0.47388 0.53916 0.49423 0.0
C1365 C 0.48374 0.55618 0.49207 0.0
C1366 C 0.50007 0.5628 0.50648 0.0
C1367 C 0.50628 0.55208 0.52477 0.0
H1368 H 0.51897 0.02698 0.46549 0.0
H1369 H 0.52037 0.02217 0.62103 0.0
H1370 H 0.49099 0.00449 0.62182 0.0
H1371 H 0.48281 0.03176 0.4654 0.0
H1372 H 0.47553 0.02095 0.40907 0.0
H1373 H 0.49681 0.0314 0.42056 0.0
H1374 H 0.49892 0.00405 0.40421 0.0
H1375 H 0.47753 0.99345 0.39372 0.0
H1376 H 0.48672 0.98587 0.43874 0.0
H1377 H 0.46146 0.98802 0.60618 0.0
H1378 H 0.43343 0.97871 0.57803 0.0
H1379 H 0.45073 0.99606 0.43392 0.0
C1380 C 0.51305 0.02207 0.49957 0.0
C1381 C 0.52186 0.02581 0.54321 0.0
C1382 C 0.51376 0.01948 0.58729 0.0
C1383 C 0.49713 0.00927 0.58798 0.0
C1384 C 0.48875 0.00571 0.54432 0.0
C1385 C 0.49636 0.01223 0.50105 0.0
C1386 C 0.48428 0.00813 0.46017 0.0
C1387 C 0.48489 0.024 0.4375 0.0
C1388 C 0.48703 0.99723 0.42195 0.0
C1389 C 0.46868 0.99856 0.48736 0.0
C1390 C 0.47157 0.99685 0.53558 0.0
C1391 C 0.45905 0.98911 0.56841 0.0
C1392 C 0.44317 0.98366 0.55206 0.0
C1393 C 0.44 0.98621 0.5036 0.0
C1394 C 0.45288 0.99342 0.47067 0.0
H1395 H 0.45963 0.00377 0.97864 0.0
H1396 H 0.42065 0.95601 0.94207 0.0
H1397 H 0.43849 0.94276 0.9564 0.0
H1398 H 0.4906 0.99674 0.92051 0.0
H1399 H 0.50566 0.00755 0.96556 0.0
H1400 H 0.48958 0.0133 0.95486 0.0
H1401 H 0.48196 0.00883 0.04562 0.0
H1402 H 0.49793 0.00289 0.05646 0.0
H1403 H 0.47756 0.98917 0.07313 0.0
H1404 H 0.46024 0.93455 0.97278 0.0
H1405 H 0.48553 0.93216 0.98367 0.0
H1406 H 0.51087 0.98512 0.00873 0.0
C1407 C 0.45483 0.99052 0.9738 0.0
C1408 C 0.4387 0.98096 0.9593 0.0
C1409 C 0.43295 0.96366 0.95298 0.0
C1410 C 0.44296 0.95596 0.96137 0.0
C1411 C 0.45871 0.96569 0.97594 0.0
C1412 C 0.46471 0.9826 0.98171 0.0
C1413 C 0.48238 0.99022 0.99528 0.0
C1414 C 0.49266 0.00268 0.95675 0.0
C1415 C 0.48511 0.99825 0.04562 0.0
C1416 C 0.48537 0.97495 0.99557 0.0
C1417 C 0.47147 0.96094 0.98488 0.0
C1418 C 0.47122 0.94541 0.98134 0.0
C1419 C 0.48566 0.9442 0.98759 0.0
C1420 C 0.50021 0.95845 0.99701 0.0
C1421 C 0.49994 0.97397 0.0021 0.0
H1422 H 0.04026 0.54654 0.93719 0.0
H1423 H 0.03906 0.56489 0.08165 0.0
H1424 H 0.01926 0.53727 0.10638 0.0
H1425 H 0.99967 0.52105 0.92692 0.0
H1426 H 0.00113 0.50403 0.8965 0.0
H1427 H 0.01704 0.52463 0.8904 0.0
H1428 H 0.03786 0.51484 0.92127 0.0
H1429 H 0.02206 0.4941 0.92645 0.0
H1430 H 0.03446 0.50403 0.97804 0.0
H1431 H 0.99661 0.50985 0.11218 0.0
H1432 H 0.9752 0.48149 0.10355 0.0
H1433 H 0.9915 0.47909 0.95786 0.0
C1434 C 0.03628 0.54452 0.97443 0.0
C1435 C 0.04117 0.55785 0.00749 0.0
C1436 C 0.03542 0.55486 0.05569 0.0
C1437 C 0.02415 0.53922 0.07014 0.0
C1438 C 0.01887 0.52655 0.03623 0.0
C1439 C 0.025 0.52879 0.98978 0.0
C1440 C 0.01656 0.51301 0.96037 0.0
C1441 C 0.0081 0.51586 0.91593 0.0
C1442 C 0.02844 0.50608 0.94567 0.0
C1443 C 0.00443 0.50192 0.99714 0.0
C1444 C 0.00599 0.51011 0.04047 0.0
C1445 C 0.99546 0.50311 0.07886 0.0
C1446 C 0.98322 0.48709 0.07339 0.0
C1447 C 0.98173 0.47813 0.03013 0.0
C1448 C 0.99248 0.48565 0.99146 0.0
H1449 H 0.45494 0.49992 0.02949 0.0
H1450 H 0.44292 0.514 0.89039 0.0
H1451 H 0.47146 0.53156 0.87494 0.0
H1452 H 0.48599 0.54022 0.0582 0.0
H1453 H 0.49899 0.53278 0.08733 0.0
H1454 H 0.47756 0.52023 0.08694 0.0
H1455 H 0.48179 0.49626 0.04797 0.0
H1456 H 0.50325 0.50882 0.04778 0.0
H1457 H 0.49293 0.49977 0.99228 0.0
H1458 H 0.50051 0.54819 0.87403 0.0
H1459 H 0.52917 0.56545 0.89143 0.0
H1460 H 0.52379 0.54181 0.03115 0.0
C1461 C 0.45836 0.50667 0.99577 0.0
C1462 C 0.44659 0.50554 0.96124 0.0
C1463 C 0.45158 0.51469 0.91771 0.0
C1464 C 0.46783 0.52463 0.90827 0.0
C1465 C 0.47908 0.52544 0.94271 0.0
C1466 C 0.47467 0.51692 0.98585 0.0
C1467 C 0.48936 0.52101 0.01765 0.0
C1468 C 0.48788 0.52904 0.06535 0.0
C1469 C 0.49198 0.50554 0.02696 0.0
C1470 C 0.50258 0.53329 0.98571 0.0
C1471 C 0.49626 0.5354 0.94241 0.0
C1472 C 0.50567 0.54659 0.90758 0.0
C1473 C 0.52191 0.55631 0.91774 0.0
C1474 C 0.52864 0.5548 0.96228 0.0
C1475 C 0.51896 0.54289 0.99637 0.0
H1476 H 0.42416 0.0483 0.09412 0.0
H1477 H 0.44012 0.07564 0.96094 0.0
H1478 H 0.43703 0.09922 0.99731 0.0
H1479 H 0.39269 0.05735 0.1073 0.0
H1480 H 0.3931 0.05746 0.17243 0.0
H1481 H 0.40128 0.04579 0.13919 0.0
H1482 H 0.42898 0.06272 0.18621 0.0
H1483 H 0.41965 0.07393 0.21711 0.0
H1484 H 0.43801 0.08493 0.18364 0.0
H1485 H 0.42623 0.11659 0.04044 0.0
H1486 H 0.40816 0.12555 0.08475 0.0
H1487 H 0.39787 0.08607 0.18814 0.0
C1488 C 0.42796 0.05971 0.07399 0.0
C1489 C 0.433 0.06061 0.02574 0.0
C1490 C 0.43683 0.07513 0.99869 0.0
C1491 C 0.43505 0.08852 0.01907 0.0
C1492 C 0.42921 0.08699 0.06622 0.0
C1493 C 0.42577 0.07292 0.09341 0.0
C1494 C 0.41648 0.07268 0.13858 0.0
C1495 C 0.39994 0.05743 0.13945 0.0
C1496 C 0.42636 0.07361 0.1841 0.0
C1497 C 0.41464 0.0884 0.13172 0.0
C1498 C 0.42235 0.09673 0.09041 0.0
C1499 C 0.42052 0.11043 0.07357 0.0
C1500 C 0.41023 0.11543 0.09887 0.0
C1501 C 0.40171 0.10653 0.13989 0.0
C1502 C 0.40441 0.09324 0.15722 0.0
H1503 H 0.91024 0.32931 0.18786 0.0
H1504 H 0.86386 0.3096 0.11648 0.0
H1505 H 0.87161 0.33671 0.07625 0.0
H1506 H 0.91672 0.37349 0.19957 0.0
H1507 H 0.93784 0.38045 0.18754 0.0
H1508 H 0.9267 0.3612 0.21858 0.0
H1509 H 0.93631 0.34649 0.15386 0.0
H1510 H 0.94703 0.36568 0.12275 0.0
H1511 H 0.93212 0.34816 0.09098 0.0
H1512 H 0.88664 0.36503 0.03454 0.0
H1513 H 0.90729 0.39017 0.99453 0.0
H1514 H 0.94356 0.38886 0.09076 0.0
C1515 C 0.90149 0.3308 0.16486 0.0
C1516 C 0.88648 0.31747 0.1552 0.0
C1517 C 0.87539 0.31981 0.12465 0.0
C1518 C 0.8797 0.33515 0.10176 0.0
C1519 C 0.89501 0.34792 0.11056 0.0
C1520 C 0.90563 0.34582 0.14186 0.0
C1521 C 0.92207 0.36026 0.14077 0.0
C1522 C 0.92605 0.36939 0.18952 0.0
C1523 C 0.93513 0.35481 0.12618 0.0
C1524 C 0.91941 0.37052 0.10206 0.0
C1525 C 0.90366 0.36362 0.08586 0.0
C1526 C 0.8989 0.37066 0.04768 0.0
C1527 C 0.91063 0.38488 0.02518 0.0
C1528 C 0.92685 0.39143 0.04034 0.0
C1529 C 0.93114 0.38429 0.07947 0.0
H1530 H 0.66998 0.57833 0.17519 0.0
H1531 H 0.69973 0.59168 0.04702 0.0
H1532 H 0.67558 0.57703 0.99654 0.0
H1533 H 0.63581 0.53712 0.12472 0.0
H1534 H 0.62112 0.54163 0.15615 0.0
H1535 H 0.64073 0.54749 0.18241 0.0
H1536 H 0.64449 0.57764 0.18957 0.0
H1537 H 0.6252 0.57205 0.16266 0.0
H1538 H 0.64288 0.58824 0.13606 0.0
H1539 H 0.64892 0.56979 0.96066 0.0
H1540 H 0.62233 0.5687 0.94271 0.0
H1541 H 0.60904 0.55917 0.09321 0.0
C1542 C 0.67144 0.57721 0.13672 0.0
C1543 C 0.68666 0.58591 0.1149 0.0
C1544 C 0.68823 0.58474 0.06445 0.0
C1545 C 0.67451 0.57649 0.03552 0.0
C1546 C 0.65943 0.56918 0.05785 0.0
C1547 C 0.65786 0.56906 0.10761 0.0
C1548 C 0.64042 0.56318 0.1225 0.0
C1549 C 0.63415 0.54635 0.14794 0.0
C1550 C 0.63814 0.57605 0.1545 0.0
C1551 C 0.63258 0.56152 0.07352 0.0
C1552 C 0.64367 0.56458 0.0366 0.0
C1553 C 0.63998 0.56661 0.98894 0.0
C1554 C 0.62486 0.566 0.97902 0.0
C1555 C 0.61358 0.56327 0.01644 0.0
C1556 C 0.61725 0.56043 0.06385 0.0
H1557 H 0.04046 0.43321 0.39142 0.0
H1558 H 0.06997 0.45101 0.51915 0.0
H1559 H 0.09029 0.44338 0.48332 0.0
H1560 H 0.04322 0.39853 0.38565 0.0
H1561 H 0.0437 0.39619 0.32103 0.0
H1562 H 0.0345 0.40831 0.34604 0.0
H1563 H 0.053 0.4338 0.29656 0.0
H1564 H 0.06206 0.42173 0.26925 0.0
H1565 H 0.0745 0.44098 0.29894 0.0
H1566 H 0.10366 0.42791 0.44361 0.0
H1567 H 0.10888 0.40612 0.4038 0.0
H1568 H 0.06973 0.39693 0.30393 0.0
C1569 C 0.05174 0.43648 0.41013 0.0
C1570 C 0.05412 0.44327 0.4569 0.0
C1571 C 0.06838 0.4464 0.48238 0.0
C1572 C 0.07991 0.44203 0.46233 0.0
C1573 C 0.07683 0.43441 0.41705 0.0
C1574 C 0.06313 0.43181 0.39096 0.0
C1575 C 0.06091 0.4205 0.3482 0.0
C1576 C 0.04464 0.40497 0.35047 0.0
C1577 C 0.06274 0.42981 0.3004 0.0
C1578 C 0.07485 0.41627 0.35613 0.0
C1579 C 0.08419 0.42477 0.39507 0.0
C1580 C 0.0967 0.42152 0.41228 0.0
C1581 C 0.09955 0.40908 0.38961 0.0
C1582 C 0.0897 0.39989 0.35086 0.0
C1583 C 0.07752 0.40387 0.33329 0.0
H1584 H 0.5974 0.70006 0.29973 0.0
H1585 H 0.59206 0.73704 0.38843 0.0
H1586 H 0.57056 0.71484 0.43515 0.0
H1587 H 0.55325 0.66866 0.30542 0.0
H1588 H 0.55867 0.65177 0.30658 0.0
H1589 H 0.5708 0.67024 0.27315 0.0
H1590 H 0.59617 0.67364 0.32035 0.0
H1591 H 0.58451 0.6552 0.35379 0.0
H1592 H 0.59605 0.6743 0.38551 0.0
H1593 H 0.55405 0.68865 0.48217 0.0
H1594 H 0.54379 0.66133 0.52272 0.0
H1595 H 0.56083 0.6423 0.40328 0.0
C1596 C 0.59129 0.70349 0.32789 0.0
C1597 C 0.59638 0.72017 0.34081 0.0
C1598 C 0.58825 0.72428 0.37791 0.0
C1599 C 0.57602 0.71175 0.40454 0.0
C1600 C 0.57187 0.69529 0.39255 0.0
C1601 C 0.57909 0.6912 0.35431 0.0
C1602 C 0.57397 0.67282 0.35164 0.0
C1603 C 0.56356 0.66544 0.30653 0.0
C1604 C 0.58854 0.66878 0.35296 0.0
C1605 C 0.56402 0.66732 0.39709 0.0
C1606 C 0.56238 0.68029 0.41939 0.0
C1607 C 0.55487 0.67835 0.4643 0.0
C1608 C 0.54912 0.66286 0.48712 0.0
C1609 C 0.55125 0.64977 0.46525 0.0
C1610 C 0.55857 0.65198 0.41966 0.0
H1611 H 0.27182 0.89988 0.4356 0.0
H1612 H 0.27912 0.87655 0.30751 0.0
H1613 H 0.30681 0.88313 0.33459 0.0
H1614 H 0.30645 0.93317 0.42836 0.0
H1615 H 0.31065 0.93668 0.49207 0.0
H1616 H 0.29027 0.92563 0.47175 0.0
H1617 H 0.28639 0.90076 0.52592 0.0
H1618 H 0.30679 0.91183 0.54723 0.0
H1619 H 0.30016 0.89156 0.52099 0.0
H1620 H 0.33513 0.89713 0.36731 0.0
H1621 H 0.36114 0.91803 0.3996 0.0
H1622 H 0.33546 0.93375 0.50305 0.0
C1623 C 0.27896 0.8953 0.41497 0.0
C1624 C 0.27324 0.88712 0.3707 0.0
C1625 C 0.28317 0.88224 0.34256 0.0
C1626 C 0.29891 0.886 0.35765 0.0
C1627 C 0.30454 0.8948 0.40067 0.0
C1628 C 0.29476 0.89929 0.42911 0.0
C1629 C 0.3043 0.91126 0.46852 0.0
C1630 C 0.30283 0.92764 0.46489 0.0
C1631 C 0.2991 0.90337 0.51864 0.0
C1632 C 0.32109 0.91356 0.45624 0.0
C1633 C 0.321 0.9036 0.41805 0.0
C1634 C 0.33531 0.90471 0.3979 0.0
C1635 C 0.35003 0.91658 0.41644 0.0
C1636 C 0.35025 0.9274 0.45385 0.0
C1637 C 0.33561 0.92551 0.47469 0.0
H1638 H 0.59517 0.96921 0.9789 0.0
H1639 H 0.5511 0.924 0.995 0.0
H1640 H 0.56329 0.90868 0.94974 0.0
H1641 H 0.60304 0.96178 0.85862 0.0
H1642 H 0.62458 0.97052 0.86567 0.0
H1643 H 0.61299 0.97782 0.9027 0.0
H1644 H 0.62472 0.9711 0.98024 0.0
H1645 H 0.63655 0.96404 0.94345 0.0
H1646 H 0.62315 0.95058 0.98853 0.0
H1647 H 0.57977 0.89852 0.90091 0.0
H1648 H 0.60002 0.89385 0.85348 0.0
H1649 H 0.63301 0.94589 0.86652 0.0
C1650 C 0.58823 0.95603 0.97376 0.0
C1651 C 0.57227 0.94771 0.99071 0.0
C1652 C 0.5634 0.93053 0.98243 0.0
C1653 C 0.57019 0.92176 0.95672 0.0
C1654 C 0.58581 0.93039 0.93941 0.0
C1655 C 0.59476 0.94711 0.94773 0.0
C1656 C 0.61106 0.95352 0.92354 0.0
C1657 C 0.61303 0.96669 0.88537 0.0
C1658 C 0.62467 0.9602 0.96119 0.0
C1659 C 0.60983 0.93779 0.90027 0.0
C1660 C 0.59518 0.92459 0.91001 0.0
C1661 C 0.59129 0.90873 0.893 0.0
C1662 C 0.60283 0.90622 0.86601 0.0
C1663 C 0.61799 0.91952 0.85617 0.0
C1664 C 0.62143 0.93553 0.87303 0.0
H1665 H 0.09338 0.72397 0.92158 0.0
H1666 H 0.10422 0.71361 0.777 0.0
H1667 H 0.10421 0.68749 0.80595 0.0
H1668 H 0.11601 0.70447 0.98945 0.0
H1669 H 0.10055 0.69672 0.03505 0.0
H1670 H 0.10477 0.7159 0.00473 0.0
H1671 H 0.07483 0.70453 0.97954 0.0
H1672 H 0.07051 0.68541 0.00968 0.0
H1673 H 0.06559 0.68531 0.94661 0.0
H1674 H 0.09896 0.6606 0.84919 0.0
H1675 H 0.08732 0.63543 0.90023 0.0
H1676 H 0.07984 0.664 0.01533 0.0
C1677 C 0.09643 0.71653 0.89661 0.0
C1678 C 0.09924 0.72085 0.84759 0.0
C1679 C 0.10242 0.71053 0.81505 0.0
C1680 C 0.10247 0.69575 0.83123 0.0
C1681 C 0.09938 0.69161 0.88001 0.0
C1682 C 0.09649 0.70182 0.9122 0.0
C1683 C 0.09136 0.69377 0.96104 0.0
C1684 C 0.10393 0.70328 0.99985 0.0
C1685 C 0.07459 0.69215 0.97497 0.0
C1686 C 0.09105 0.67713 0.95084 0.0
C1687 C 0.09605 0.67615 0.90438 0.0
C1688 C 0.0953 0.66135 0.88591 0.0
C1689 C 0.08869 0.6471 0.91508 0.0
C1690 C 0.08263 0.64781 0.96148 0.0
C1691 C 0.08449 0.66315 0.98001 0.0
H1692 H 0.35045 0.4289 0.01567 0.0
H1693 H 0.36565 0.47837 0.959 0.0
H1694 H 0.3374 0.47149 0.93773 0.0
H1695 H 0.32363 0.40859 0.92493 0.0
H1696 H 0.30918 0.39297 0.96336 0.0
H1697 H 0.33001 0.4028 0.98043 0.0
H1698 H 0.32213 0.41129 0.06233 0.0
H1699 H 0.30122 0.40168 0.04495 0.0
H1700 H 0.31064 0.42311 0.06281 0.0
H1701 H 0.30777 0.45806 0.9149 0.0
H1702 H 0.28061 0.43862 0.88559 0.0
H1703 H 0.28547 0.39827 0.95667 0.0
C1704 C 0.34782 0.4384 0.99957 0.0
C1705 C 0.3602 0.45418 0.98913 0.0
C1706 C 0.3563 0.4662 0.96742 0.0
C1707 C 0.34029 0.46244 0.95559 0.0
C1708 C 0.32833 0.44667 0.96609 0.0
C1709 C 0.33197 0.43485 0.98755 0.0
C1710 C 0.31737 0.41831 0.99045 0.0
C1711 C 0.32022 0.40489 0.96314 0.0
C1712 C 0.31256 0.41331 0.04328 0.0
C1713 C 0.3051 0.42243 0.96523 0.0
C1714 C 0.31144 0.43894 0.95256 0.0
C1715 C 0.30259 0.4452 0.92547 0.0
C1716 C 0.28716 0.43415 0.90929 0.0
C1717 C 0.28102 0.41712 0.91975 0.0
C1718 C 0.28987 0.41135 0.94928 0.0
H1719 H 0.90609 0.61462 0.62296 0.0
H1720 H 0.94146 0.66557 0.64155 0.0
H1721 H 0.96146 0.65955 0.59713 0.0
H1722 H 0.93332 0.59668 0.6409 0.0
H1723 H 0.92379 0.58055 0.59675 0.0
H1724 H 0.91215 0.58912 0.62826 0.0
H1725 H 0.90311 0.59619 0.54621 0.0
H1726 H 0.91484 0.58775 0.51444 0.0
H1727 H 0.9181 0.6087 0.50306 0.0
H1728 H 0.97755 0.64798 0.5514 0.0
H1729 H 0.98934 0.63113 0.51254 0.0
H1730 H 0.94359 0.58761 0.52561 0.0
C1731 C 0.91804 0.6245 0.61761 0.0
C1732 C 0.92228 0.64054 0.63556 0.0
C1733 C 0.93803 0.65316 0.6282 0.0
C1734 C 0.94942 0.6499 0.6028 0.0
C1735 C 0.94484 0.63395 0.58533 0.0
C1736 C 0.92958 0.62142 0.59275 0.0
C1737 C 0.92793 0.60521 0.57197 0.0
C1738 C 0.92408 0.59212 0.61185 0.0
C1739 C 0.91525 0.59911 0.53151 0.0
C1740 C 0.9447 0.61055 0.55209 0.0
C1741 C 0.95421 0.62721 0.55967 0.0
C1742 C 0.97023 0.63493 0.54514 0.0
C1743 C 0.97679 0.62527 0.52302 0.0
C1744 C 0.96735 0.60809 0.51615 0.0
C1745 C 0.95106 0.60073 0.53032 0.0
H1746 H 0.41939 0.37173 0.47067 0.0
H1747 H 0.46203 0.40016 0.55561 0.0
H1748 H 0.46258 0.37417 0.58266 0.0
H1749 H 0.40004 0.34279 0.55272 0.0
H1750 H 0.39104 0.32569 0.51122 0.0
H1751 H 0.39656 0.3463 0.49057 0.0
H1752 H 0.41405 0.34214 0.4234 0.0
H1753 H 0.40871 0.32149 0.44499 0.0
H1754 H 0.42958 0.33607 0.43959 0.0
H1755 H 0.45468 0.34547 0.61442 0.0
H1756 H 0.43873 0.31766 0.649 0.0
H1757 H 0.40211 0.30821 0.54075 0.0
C1758 C 0.42914 0.37249 0.4938 0.0
C1759 C 0.44066 0.38787 0.51114 0.0
C1760 C 0.45316 0.38846 0.54165 0.0
C1761 C 0.45359 0.37376 0.55695 0.0
C1762 C 0.44167 0.35867 0.54038 0.0
C1763 C 0.4298 0.35801 0.50883 0.0
C1764 C 0.41709 0.34049 0.50136 0.0
C1765 C 0.40021 0.33873 0.51484 0.0
C1766 C 0.41739 0.33471 0.44923 0.0
C1767 C 0.42295 0.33148 0.53648 0.0
C1768 C 0.4374 0.34203 0.5577 0.0
C1769 C 0.44373 0.33696 0.59672 0.0
C1770 C 0.43468 0.32109 0.61595 0.0
C1771 C 0.41954 0.31059 0.5961 0.0
C1772 C 0.41403 0.31561 0.55474 0.0
H1773 H 0.61898 0.05201 0.55052 0.0
H1774 H 0.60492 0.09199 0.54467 0.0
H1775 H 0.63139 0.11108 0.57985 0.0
H1776 H 0.63925 0.06353 0.66507 0.0
H1777 H 0.65436 0.05694 0.64818 0.0
H1778 H 0.63456 0.04703 0.62195 0.0
H1779 H 0.64714 0.05375 0.53619 0.0
H1780 H 0.66697 0.06381 0.56215 0.0
H1781 H 0.66024 0.07486 0.52059 0.0
H1782 H 0.66078 0.12599 0.6118 0.0
H1783 H 0.68806 0.13412 0.64641 0.0
H1784 H 0.68092 0.08335 0.63489 0.0
C1785 C 0.62147 0.06481 0.55649 0.0
C1786 C 0.61007 0.07064 0.54434 0.0
C1787 C 0.61358 0.08734 0.55369 0.0
C1788 C 0.62858 0.09824 0.5734 0.0
C1789 C 0.63971 0.09209 0.58427 0.0
C1790 C 0.63612 0.07565 0.57682 0.0
C1791 C 0.64964 0.07171 0.59305 0.0
C1792 C 0.64412 0.05906 0.63453 0.0
C1793 C 0.65639 0.06568 0.55045 0.0
C1794 C 0.6616 0.08855 0.61035 0.0
C1795 C 0.65586 0.10027 0.60461 0.0
C1796 C 0.66526 0.11683 0.61687 0.0
C1797 C 0.68075 0.12137 0.63621 0.0
C1798 C 0.68647 0.10933 0.64372 0.0
C1799 C 0.67677 0.0928 0.63018 0.0
H1800 H 0.71478 0.74943 0.70626 0.0
H1801 H 0.74398 0.76559 0.835 0.0
H1802 H 0.76176 0.75376 0.80375 0.0
H1803 H 0.71171 0.71234 0.70729 0.0
H1804 H 0.71199 0.70889 0.64316 0.0
H1805 H 0.70564 0.72379 0.66508 0.0
H1806 H 0.72726 0.74654 0.61289 0.0
H1807 H 0.73365 0.73159 0.59009 0.0
H1808 H 0.74804 0.75039 0.61793 0.0
H1809 H 0.77145 0.73426 0.77045 0.0
H1810 H 0.77127 0.70827 0.74094 0.0
H1811 H 0.735 0.70359 0.63509 0.0
C1812 C 0.72554 0.75132 0.72612 0.0
C1813 C 0.72849 0.75881 0.77191 0.0
C1814 C 0.74199 0.76033 0.79897 0.0
C1815 C 0.75211 0.75365 0.78142 0.0
C1816 C 0.74842 0.74543 0.737 0.0
C1817 C 0.73548 0.74439 0.70941 0.0
C1818 C 0.73181 0.73197 0.66885 0.0
C1819 C 0.71427 0.71846 0.67134 0.0
C1820 C 0.73542 0.74065 0.61951 0.0
C1821 C 0.74373 0.72516 0.68035 0.0
C1822 C 0.75366 0.73351 0.7185 0.0
C1823 C 0.76411 0.72795 0.73964 0.0
C1824 C 0.76393 0.71317 0.7227 0.0
C1825 C 0.75313 0.70402 0.68578 0.0
C1826 C 0.7435 0.7105 0.66304 0.0
H1827 H 0.21742 0.97958 0.76356 0.0
H1828 H 0.24754 0.98405 0.88802 0.0
H1829 H 0.26375 0.01348 0.87044 0.0
H1830 H 0.24743 0.00229 0.68742 0.0
H1831 H 0.2377 0.01292 0.65577 0.0
H1832 H 0.22579 0.99325 0.68354 0.0
H1833 H 0.21028 0.00601 0.73317 0.0
H1834 H 0.222 0.02574 0.70499 0.0
H1835 H 0.22127 0.02404 0.76993 0.0
H1836 H 0.28054 0.03865 0.82942 0.0
H1837 H 0.29539 0.06089 0.77239 0.0
H1838 H 0.25418 0.04342 0.67659 0.0
C1839 C 0.22697 0.98704 0.78814 0.0
C1840 C 0.23122 0.97972 0.82737 0.0
C1841 C 0.24412 0.98954 0.85796 0.0
C1842 C 0.25336 0.00627 0.84836 0.0
C1843 C 0.24949 0.01302 0.80809 0.0
C1844 C 0.23645 0.00392 0.77882 0.0
C1845 C 0.23627 0.01393 0.73473 0.0
C1846 C 0.23684 0.00507 0.68761 0.0
C1847 C 0.22158 0.01765 0.73578 0.0
C1848 C 0.25177 0.02956 0.74253 0.0
C1849 C 0.25906 0.02867 0.78538 0.0
C1850 C 0.27462 0.04002 0.79718 0.0
C1851 C 0.28295 0.05271 0.76466 0.0
C1852 C 0.27555 0.05446 0.7218 0.0
C1853 C 0.25972 0.04278 0.71049 0.0
H1854 H 0.02487 0.27594 0.71476 0.0
H1855 H 0.0191 0.25368 0.85588 0.0
H1856 H 0.99075 0.23476 0.83633 0.0
H1857 H 0.99116 0.27962 0.71656 0.0
H1858 H 0.98592 0.27567 0.65353 0.0
H1859 H 0.00656 0.28346 0.67175 0.0
H1860 H 0.00883 0.25872 0.63083 0.0
H1861 H 0.98819 0.2509 0.61135 0.0
H1862 H 0.99463 0.23791 0.64584 0.0
H1863 H 0.96174 0.22272 0.80763 0.0
H1864 H 0.93559 0.21922 0.77358 0.0
H1865 H 0.9607 0.25047 0.65285 0.0
C1866 C 0.01791 0.26633 0.74014 0.0
C1867 C 0.02424 0.2657 0.78587 0.0
C1868 C 0.01456 0.2538 0.81987 0.0
C1869 C 0.99844 0.2431 0.80909 0.0
C1870 C 0.99224 0.24456 0.76422 0.0
C1871 C 0.00182 0.25579 0.73002 0.0
C1872 C 0.99194 0.25716 0.68823 0.0
C1873 C 0.99402 0.27503 0.68225 0.0
C1874 C 0.99615 0.25078 0.64129 0.0
C1875 C 0.97521 0.2457 0.70538 0.0
C1876 C 0.97555 0.23817 0.74859 0.0
C1877 C 0.96137 0.22826 0.77325 0.0
C1878 C 0.94657 0.22632 0.75374 0.0
C1879 C 0.94617 0.23456 0.71063 0.0
C1880 C 0.96065 0.24395 0.68575 0.0
H1881 H 0.30661 0.29306 0.19279 0.0
H1882 H 0.27078 0.24322 0.16137 0.0
H1883 H 0.25184 0.24695 0.21773 0.0
H1884 H 0.29911 0.2916 0.31727 0.0
H1885 H 0.30249 0.31284 0.32181 0.0
H1886 H 0.31243 0.30672 0.27536 0.0
H1887 H 0.30035 0.31878 0.20996 0.0
H1888 H 0.29045 0.32493 0.2565 0.0
H1889 H 0.27889 0.31189 0.20762 0.0
H1890 H 0.23732 0.25591 0.28017 0.0
H1891 H 0.22797 0.26997 0.34108 0.0
H1892 H 0.27432 0.31294 0.33445 0.0
C1893 C 0.29462 0.2831 0.19667 0.0
C1894 C 0.29001 0.26794 0.17239 0.0
C1895 C 0.27441 0.25501 0.17943 0.0
C1896 C 0.26363 0.25698 0.21146 0.0
C1897 C 0.26877 0.2719 0.23628 0.0
C1898 C 0.28386 0.28477 0.229 0.0
C1899 C 0.28679 0.29922 0.26182 0.0
C1900 C 0.30105 0.30279 0.29607 0.0
C1901 C 0.28926 0.31461 0.23221 0.0
C1902 C 0.27105 0.29244 0.28896 0.0
C1903 C 0.26074 0.27672 0.2736 0.0
C1904 C 0.24531 0.2682 0.29264 0.0
C1905 C 0.24014 0.2762 0.32738 0.0
C1906 C 0.25049 0.29241 0.34282 0.0
C1907 C 0.26623 0.30042 0.32405 0.0
H1908 H 0.72662 0.97721 0.24697 0.0
H1909 H 0.76775 0.98271 0.33244 0.0
H1910 H 0.78352 0.01066 0.2976 0.0
H1911 H 0.75252 0.00177 0.13724 0.0
H1912 H 0.73834 0.00994 0.12376 0.0
H1913 H 0.7314 0.98938 0.14695 0.0
H1914 H 0.71706 0.9966 0.21788 0.0
H1915 H 0.72387 0.01716 0.19466 0.0
H1916 H 0.72858 0.01412 0.25599 0.0
H1917 H 0.79289 0.03966 0.26274 0.0
H1918 H 0.79525 0.06613 0.22893 0.0
H1919 H 0.74811 0.04023 0.16347 0.0
C1920 C 0.73919 0.98401 0.25624 0.0
C1921 C 0.74616 0.9779 0.29137 0.0
C1922 C 0.7624 0.98723 0.3048 0.0
C1923 C 0.7714 0.00304 0.28513 0.0
C1924 C 0.76405 0.00893 0.251 0.0
C1925 C 0.74844 0.99941 0.23545 0.0
C1926 C 0.74286 0.00888 0.20108 0.0
C1927 C 0.74118 0.00207 0.14929 0.0
C1928 C 0.72718 0.00921 0.2185 0.0
C1929 C 0.757 0.02566 0.20387 0.0
C1930 C 0.76939 0.02543 0.23129 0.0
C1931 C 0.78338 0.03986 0.24035 0.0
C1932 C 0.78461 0.05482 0.22109 0.0
C1933 C 0.77183 0.05517 0.1937 0.0
C1934 C 0.75807 0.04034 0.1843 0.0
H1935 H 0.00032 0.76011 0.33048 0.0
H1936 H 0.02364 0.80752 0.25851 0.0
H1937 H 0.99742 0.80296 0.2223 0.0
H1938 H 0.97631 0.73863 0.23562 0.0
H1939 H 0.95939 0.72572 0.27253 0.0
H1940 H 0.97936 0.73409 0.29718 0.0
H1941 H 0.97028 0.74725 0.36734 0.0
H1942 H 0.95028 0.73901 0.34225 0.0
H1943 H 0.96122 0.76087 0.35375 0.0
H1944 H 0.9687 0.79121 0.18683 0.0
H1945 H 0.94167 0.77307 0.15324 0.0
H1946 H 0.93833 0.73391 0.24954 0.0
C1947 C -8e-05 0.76971 0.30777 0.0
C1948 C 0.014 0.78419 0.29732 0.0
C1949 C 0.01296 0.79637 0.26717 0.0
C1950 C 0.99811 0.79389 0.24665 0.0
C1951 C 0.98445 0.77928 0.25725 0.0
C1952 C 0.98532 0.76746 0.2874 0.0
C1953 C 0.96947 0.75216 0.29012 0.0
C1954 C 0.97125 0.73676 0.2728 0.0
C1955 C 0.9624 0.74969 0.34142 0.0
C1956 C 0.95963 0.75686 0.2553 0.0
C1957 C 0.96824 0.77265 0.23725 0.0
C1958 C 0.96178 0.77898 0.20154 0.0
C1959 C 0.9464 0.76869 0.18288 0.0
C1960 C 0.9379 0.75231 0.19975 0.0
C1961 C 0.94445 0.74657 0.23711 0.0
H1962 H 0.31178 0.08646 0.0677 0.0
H1963 H 0.3609 0.09382 0.04462 0.0
H1964 H 0.3567 0.09305 0.95646 0.0
H1965 H 0.29384 0.05916 0.96116 0.0
H1966 H 0.28035 0.06834 0.94931 0.0
H1967 H 0.28659 0.06722 0.01036 0.0
H1968 H 0.29675 0.0989 0.01911 0.0
H1969 H 0.29079 0.10014 0.95795 0.0
H1970 H 0.31129 0.11251 0.97662 0.0
H1971 H 0.34802 0.09434 0.87064 0.0
H1972 H 0.33502 0.0962 0.79426 0.0
H1973 H 0.29181 0.08838 0.87406 0.0
C1974 C 0.3215 0.08739 0.04419 0.0
C1975 C 0.33664 0.0901 0.06324 0.0
C1976 C 0.34917 0.09168 0.031 0.0
C1977 C 0.34691 0.09127 0.98079 0.0
C1978 C 0.33203 0.08921 0.96322 0.0
C1979 C 0.31948 0.08711 0.99394 0.0
C1980 C 0.30505 0.08623 0.96595 0.0
C1981 C 0.29061 0.06922 0.97206 0.0
C1982 C 0.30073 0.10028 0.9808 0.0
C1983 C 0.3116 0.08858 0.91493 0.0
C1984 C 0.32712 0.09014 0.91395 0.0
C1985 C 0.33579 0.09296 0.87092 0.0
C1986 C 0.32834 0.09408 0.82772 0.0
C1987 C 0.3124 0.09249 0.82792 0.0
C1988 C 0.30401 0.08968 0.87235 0.0
H1989 H 0.87332 0.28381 0.98421 0.0
H1990 H 0.90395 0.26685 0.06262 0.0
H1991 H 0.91577 0.26378 0.98528 0.0
H1992 H 0.86422 0.25608 0.88811 0.0
H1993 H 0.86429 0.27043 0.84266 0.0
H1994 H 0.85952 0.27288 0.90428 0.0
H1995 H 0.88224 0.30283 0.90497 0.0
H1996 H 0.88711 0.30045 0.84323 0.0
H1997 H 0.90246 0.30651 0.88921 0.0
H1998 H 0.92237 0.26012 0.89885 0.0
H1999 H 0.92312 0.25598 0.81088 0.0
H2000 H 0.88836 0.27571 0.7894 0.0
C2001 C 0.88267 0.27966 0.98541 0.0
C2002 C 0.88768 0.27557 0.02973 0.0
C2003 C 0.89991 0.2701 0.02929 0.0
C2004 C 0.90673 0.26835 0.9855 0.0
C2005 C 0.9013 0.27227 0.94251 0.0
C2006 C 0.8896 0.27789 0.94221 0.0
C2007 C 0.88516 0.28033 0.89112 0.0
C2008 C 0.86724 0.26926 0.88097 0.0
C2009 C 0.88951 0.29862 0.88158 0.0
C2010 C 0.89588 0.27477 0.86253 0.0
C2011 C 0.90521 0.27031 0.89281 0.0
C2012 C 0.91528 0.26378 0.87482 0.0
C2013 C 0.9156 0.26145 0.82474 0.0
C2014 C 0.90588 0.26562 0.79308 0.0
C2015 C 0.89616 0.27269 0.81241 0.0
H2016 H 0.6988 0.62496 0.03379 0.0
H2017 H 0.71788 0.67784 0.05792 0.0
H2018 H 0.71861 0.68225 0.96969 0.0
H2019 H 0.72336 0.62684 0.94193 0.0
H2020 H 0.70898 0.60992 0.90687 0.0
H2021 H 0.70648 0.61044 0.97111 0.0
H2022 H 0.67794 0.6084 0.95935 0.0
H2023 H 0.68017 0.6076 0.8948 0.0
H2024 H 0.67509 0.62306 0.92093 0.0
H2025 H 0.72247 0.68133 0.88057 0.0
H2026 H 0.72721 0.67505 0.79687 0.0
H2027 H 0.70521 0.62269 0.83042 0.0
C2028 C 0.70264 0.63745 0.02066 0.0
C2029 C 0.70829 0.65107 0.05279 0.0
C2030 C 0.71334 0.66721 0.03408 0.0
C2031 C 0.71383 0.66983 0.98398 0.0
C2032 C 0.70896 0.65617 0.95326 0.0
C2033 C 0.70317 0.64025 0.97094 0.0
C2034 C 0.7003 0.62784 0.93069 0.0
C2035 C 0.71039 0.61821 0.93811 0.0
C2036 C 0.6823 0.61603 0.92617 0.0
C2037 C 0.70616 0.63934 0.88773 0.0
C2038 C 0.71094 0.65561 0.90145 0.0
C2039 C 0.71839 0.66862 0.86916 0.0
C2040 C 0.72114 0.66493 0.8218 0.0
C2041 C 0.71645 0.64837 0.8071 0.0
C2042 C 0.70858 0.63542 0.84035 0.0
H2043 H 0.07434 0.34943 0.65692 0.0
H2044 H 0.04688 0.29632 0.67201 0.0
H2045 H 0.04395 0.29349 0.58363 0.0
H2046 H 0.05259 0.35448 0.5516 0.0
H2047 H 0.07064 0.36976 0.52403 0.0
H2048 H 0.06919 0.36788 0.5889 0.0
H2049 H 0.09529 0.36388 0.5911 0.0
H2050 H 0.0968 0.36576 0.52635 0.0
H2051 H 0.09649 0.3477 0.55532 0.0
H2052 H 0.04547 0.29611 0.49342 0.0
H2053 H 0.05216 0.3039 0.40802 0.0
H2054 H 0.07911 0.35525 0.45111 0.0
C2055 C 0.06746 0.33724 0.64172 0.0
C2056 C 0.06067 0.32312 0.67167 0.0
C2057 C 0.05207 0.30735 0.65006 0.0
C2058 C 0.05032 0.30561 0.59978 0.0
C2059 C 0.0573 0.31973 0.57132 0.0
C2060 C 0.06573 0.33525 0.59144 0.0
C2061 C 0.07303 0.34827 0.55254 0.0
C2062 C 0.06593 0.36084 0.55439 0.0
C2063 C 0.09149 0.3569 0.55658 0.0
C2064 C 0.06759 0.33761 0.50754 0.0
C2065 C 0.05839 0.32121 0.51916 0.0
C2066 C 0.05255 0.30894 0.48382 0.0
C2067 C 0.05642 0.3135 0.43533 0.0
C2068 C 0.06614 0.3302 0.42254 0.0
C2069 C 0.07155 0.34239 0.45936 0.0
H2070 H 0.63914 0.73952 0.70602 0.0
H2071 H 0.68599 0.74047 0.68467 0.0
H2072 H 0.68155 0.73842 0.59642 0.0
H2073 H 0.61822 0.71167 0.60227 0.0
H2074 H 0.60701 0.72321 0.58829 0.0
H2075 H 0.61274 0.72194 0.64985 0.0
H2076 H 0.62677 0.75392 0.65511 0.0
H2077 H 0.6212 0.75529 0.59363 0.0
H2078 H 0.64204 0.76551 0.61148 0.0
H2079 H 0.67329 0.73946 0.51009 0.0
H2080 H 0.6621 0.74396 0.43335 0.0
H2081 H 0.62094 0.74295 0.51149 0.0
C2082 C 0.64822 0.73873 0.68287 0.0
C2083 C 0.66284 0.73998 0.70223 0.0
C2084 C 0.67467 0.73947 0.6706 0.0
C2085 C 0.67223 0.73824 0.62042 0.0
C2086 C 0.65789 0.73757 0.60233 0.0
C2087 C 0.64605 0.73772 0.63263 0.0
C2088 C 0.63248 0.73859 0.604 0.0
C2089 C 0.61668 0.72291 0.61155 0.0
C2090 C 0.63052 0.75426 0.61682 0.0
C2091 C 0.63876 0.73939 0.55304 0.0
C2092 C 0.6533 0.73852 0.55268 0.0
C2093 C 0.6618 0.73993 0.50988 0.0
C2094 C 0.65535 0.7425 0.46642 0.0
C2095 C 0.64064 0.74383 0.46619 0.0
C2096 C 0.63219 0.74195 0.51017 0.0
H2097 H 0.21371 0.94916 0.63636 0.0
H2098 H 0.23806 0.92477 0.71406 0.0
H2099 H 0.24832 0.91951 0.6365 0.0
H2100 H 0.20029 0.92143 0.54065 0.0
H2101 H 0.20289 0.93669 0.4951 0.0
H2102 H 0.19921 0.94033 0.5568 0.0
H2103 H 0.22527 0.96788 0.55694 0.0
H2104 H 0.22903 0.96432 0.49506 0.0
H2105 H 0.24412 0.96784 0.5406 0.0
H2106 H 0.25374 0.91465 0.55005 0.0
H2107 H 0.25334 0.90986 0.46236 0.0
H2108 H 0.22529 0.93735 0.44106 0.0
C2109 C 0.22144 0.94296 0.63742 0.0
C2110 C 0.2251 0.93743 0.6816 0.0
C2111 C 0.23511 0.9292 0.68088 0.0
C2112 C 0.24103 0.92619 0.63696 0.0
C2113 C 0.23692 0.93157 0.5941 0.0
C2114 C 0.22738 0.93983 0.59406 0.0
C2115 C 0.22368 0.94325 0.54302 0.0
C2116 C 0.20544 0.93492 0.53335 0.0
C2117 C 0.23096 0.96193 0.53335 0.0
C2118 C 0.23223 0.93518 0.51413 0.0
C2119 C 0.23997 0.92872 0.54429 0.0
C2120 C 0.24788 0.91983 0.52616 0.0
C2121 C 0.24757 0.91717 0.47614 0.0
C2122 C 0.23936 0.92329 0.44452 0.0
C2123 C 0.23189 0.93273 0.46396 0.0
H2124 H 0.68086 0.91455 0.20266 0.0
H2125 H 0.71336 0.96567 0.17618 0.0
H2126 H 0.6996 0.96498 0.09935 0.0
H2127 H 0.68091 0.90113 0.08845 0.0
H2128 H 0.66004 0.8864 0.08488 0.0
H2129 H 0.6699 0.89171 0.14266 0.0
H2130 H 0.64834 0.90035 0.17436 0.0
H2131 H 0.63816 0.89472 0.11689 0.0
H2132 H 0.64414 0.9152 0.14096 0.0
H2133 H 0.68625 0.95718 0.01923 0.0
H2134 H 0.67184 0.94363 0.94433 0.0
H2135 H 0.64711 0.89756 0.02241 0.0
C2136 C 0.68445 0.92578 0.18177 0.0
C2137 C 0.69795 0.94037 0.19552 0.0
C2138 C 0.70289 0.9546 0.16635 0.0
C2139 C 0.69514 0.95425 0.12266 0.0
C2140 C 0.68237 0.93948 0.10866 0.0
C2141 C 0.6768 0.92555 0.13771 0.0
C2142 C 0.66398 0.91081 0.11175 0.0
C2143 C 0.66902 0.89669 0.10664 0.0
C2144 C 0.64769 0.90493 0.13753 0.0
C2145 C 0.66377 0.91847 0.06313 0.0
C2146 C 0.67442 0.93504 0.06218 0.0
C2147 C 0.67754 0.94433 0.01983 0.0
C2148 C 0.66943 0.93653 0.9774 0.0
C2149 C 0.65827 0.91965 0.97782 0.0
C2150 C 0.65533 0.91059 0.02138 0.0
H2151 H 0.07597 0.77204 0.20536 0.0
H2152 H 0.02891 0.76627 0.1609 0.0
H2153 H 0.03211 0.75496 0.08241 0.0
H2154 H 0.09445 0.78773 0.09951 0.0
H2155 H 0.10786 0.77803 0.09846 0.0
H2156 H 0.10051 0.78169 0.15518 0.0
H2157 H 0.08915 0.75062 0.17659 0.0
H2158 H 0.09669 0.74686 0.12006 0.0
H2159 H 0.0757 0.73537 0.13506 0.0
H2160 H 0.04225 0.74926 0.00445 0.0
H2161 H 0.05828 0.74879 0.93361 0.0
H2162 H 0.09913 0.75873 0.02751 0.0
C2163 C 0.06604 0.76756 0.17998 0.0
C2164 C 0.05202 0.76959 0.18943 0.0
C2165 C 0.03958 0.76446 0.15452 0.0
C2166 C 0.04132 0.75805 0.10985 0.0
C2167 C 0.0556 0.7569 0.10054 0.0
C2168 C 0.06771 0.76134 0.1348 0.0
C2169 C 0.08268 0.76103 0.11339 0.0
C2170 C 0.09722 0.77813 0.11684 0.0
C2171 C 0.08626 0.74767 0.13772 0.0
C2172 C 0.07734 0.75647 0.06142 0.0
C2173 C 0.0616 0.75387 0.05493 0.0
C2174 C 0.05448 0.75091 0.00927 0.0
C2175 C 0.06372 0.75075 0.96915 0.0
C2176 C 0.07997 0.75364 0.97479 0.0
C2177 C 0.08669 0.75622 0.02184 0.0
H2178 H 0.24766 0.35023 0.24519 0.0
H2179 H 0.2455 0.30383 0.1931 0.0
H2180 H 0.25179 0.31523 0.11072 0.0
H2181 H 0.2277 0.35687 0.15306 0.0
H2182 H 0.23933 0.37895 0.14865 0.0
H2183 H 0.23835 0.36872 0.20506 0.0
H2184 H 0.26946 0.38092 0.20769 0.0
H2185 H 0.27057 0.39142 0.15138 0.0
H2186 H 0.28013 0.37785 0.15705 0.0
H2187 H 0.25295 0.32961 0.03195 0.0
H2188 H 0.25059 0.34657 0.96478 0.0
H2189 H 0.2526 0.38366 0.06864 0.0
C2190 C 0.24918 0.34273 0.21684 0.0
C2191 C 0.24604 0.32615 0.22554 0.0
C2192 C 0.24775 0.31656 0.1872 0.0
C2193 C 0.25141 0.32294 0.14026 0.0
C2194 C 0.25354 0.33903 0.13222 0.0
C2195 C 0.25281 0.34893 0.16965 0.0
C2196 C 0.25383 0.36512 0.15068 0.0
C2197 C 0.23892 0.36754 0.16521 0.0
C2198 C 0.26943 0.37969 0.16771 0.0
C2199 C 0.25423 0.36233 0.0968 0.0
C2200 C 0.25435 0.34737 0.08673 0.0
C2201 C 0.25324 0.34155 0.03937 0.0
C2202 C 0.25182 0.35121 1.00142 0.0
C2203 C 0.25139 0.36646 0.01119 0.0
C2204 C 0.25298 0.37213 0.05957 0.0
H2205 H 0.88915 0.68278 0.54031 0.0
H2206 H 0.91961 0.6589 0.50505 0.0
H2207 H 0.92643 0.67341 0.42695 0.0
H2208 H 0.87237 0.67923 0.42814 0.0
H2209 H 0.87185 0.69901 0.42676 0.0
H2210 H 0.87147 0.68926 0.48375 0.0
H2211 H 0.8966 0.71515 0.51243 0.0
H2212 H 0.8969 0.72513 0.45573 0.0
H2213 H 0.91452 0.72315 0.47575 0.0
H2214 H 0.92627 0.68634 0.34799 0.0
H2215 H 0.92141 0.69961 0.27563 0.0
H2216 H 0.89189 0.71612 0.36131 0.0
C2217 C 0.89776 0.68119 0.51692 0.0
C2218 C 0.90394 0.66981 0.52871 0.0
C2219 C 0.91478 0.6676 0.49661 0.0
C2220 C 0.91874 0.67579 0.45218 0.0
C2221 C 0.91186 0.68629 0.44037 0.0
C2222 C 0.90185 0.68931 0.47205 0.0
C2223 C 0.89511 0.70017 0.44855 0.0
C2224 C 0.87661 0.69139 0.4467 0.0
C2225 C 0.90115 0.7169 0.47467 0.0
C2226 C 0.90236 0.70214 0.39837 0.0
C2227 C 0.91204 0.6941 0.39455 0.0
C2228 C 0.91898 0.69299 0.35073 0.0
C2229 C 0.91604 0.7004 0.30976 0.0
C2230 C 0.90635 0.70891 0.313 0.0
C2231 C 0.89956 0.70989 0.35802 0.0
H2232 H 0.38465 0.28331 0.45329 0.0
H2233 H 0.3471 0.27766 0.55593 0.0
H2234 H 0.32963 0.2777 0.48821 0.0
H2235 H 0.37529 0.30879 0.36214 0.0
H2236 H 0.37983 0.29848 0.31267 0.0
H2237 H 0.39037 0.30137 0.36933 0.0
H2238 H 0.38174 0.26988 0.37414 0.0
H2239 H 0.37116 0.26684 0.31784 0.0
H2240 H 0.36067 0.25572 0.37087 0.0
H2241 H 0.31487 0.27357 0.4094 0.0
H2242 H 0.30398 0.26548 0.32721 0.0
H2243 H 0.35119 0.27366 0.27572 0.0
C2244 C 0.37289 0.28247 0.46181 0.0
C2245 C 0.36722 0.28041 0.51004 0.0
C2246 C 0.35174 0.27933 0.5194 0.0
C2247 C 0.34176 0.27938 0.48111 0.0
C2248 C 0.34753 0.28076 0.43383 0.0
C2249 C 0.36282 0.28246 0.42418 0.0
C2250 C 0.36561 0.28191 0.37035 0.0
C2251 C 0.37854 0.29863 0.35257 0.0
C2252 C 0.37004 0.26774 0.35759 0.0
C2253 C 0.34916 0.27863 0.35112 0.0
C2254 C 0.33901 0.27839 0.38824 0.0
C2255 C 0.3228 0.27406 0.38004 0.0
C2256 C 0.31671 0.26941 0.33318 0.0
C2257 C 0.32676 0.26901 0.29495 0.0
C2258 C 0.3433 0.27419 0.30391 0.0
H2259 H 0.75063 0.10364 0.55803 0.0
H2260 H 0.70282 0.09554 0.51382 0.0
H2261 H 0.70681 0.08525 0.43465 0.0
H2262 H 0.76902 0.12031 0.45314 0.0
H2263 H 0.78304 0.11136 0.45146 0.0
H2264 H 0.77532 0.1143 0.50842 0.0
H2265 H 0.76492 0.08321 0.52828 0.0
H2266 H 0.77288 0.08018 0.47159 0.0
H2267 H 0.75196 0.06793 0.48595 0.0
H2268 H 0.71785 0.08148 0.35573 0.0
H2269 H 0.73442 0.0821 0.28488 0.0
H2270 H 0.77503 0.0922 0.3798 0.0
C2271 C 0.74074 0.09885 0.53255 0.0
C2272 C 0.72631 0.10006 0.54217 0.0
C2273 C 0.71386 0.09445 0.50722 0.0
C2274 C 0.71604 0.08862 0.46213 0.0
C2275 C 0.73074 0.08841 0.45255 0.0
C2276 C 0.74279 0.09308 0.48705 0.0
C2277 C 0.75808 0.09353 0.46562 0.0
C2278 C 0.77218 0.11091 0.46992 0.0
C2279 C 0.7622 0.08043 0.48926 0.0
C2280 C 0.75295 0.08915 0.41342 0.0
C2281 C 0.73709 0.08608 0.4067 0.0
C2282 C 0.73016 0.08342 0.36074 0.0
C2283 C 0.73969 0.08391 0.32064 0.0
C2284 C 0.75596 0.087 0.32674 0.0
C2285 C 0.76253 0.08942 0.37394 0.0
H2286 H 0.94744 0.4154 0.20385 0.0
H2287 H 0.9897 0.41891 0.12659 0.0
H2288 H 0.00051 0.41352 0.20291 0.0
H2289 H 0.96734 0.43634 0.30736 0.0
H2290 H 0.9517 0.42375 0.34866 0.0
H2291 H 0.94672 0.42617 0.2873 0.0
H2292 H 0.9331 0.39435 0.27635 0.0
H2293 H 0.93812 0.39184 0.33776 0.0
H2294 H 0.9444 0.38276 0.28884 0.0
H2295 H 0.00808 0.41112 0.28945 0.0
H2296 H 0.01156 0.41173 0.37823 0.0
H2297 H 0.96381 0.40847 0.39771 0.0
C2298 C 0.95889 0.41485 0.20257 0.0
C2299 C 0.96773 0.41763 0.15899 0.0
C2300 C 0.98268 0.41681 0.15937 0.0
C2301 C 0.98889 0.41369 0.20255 0.0
C2302 C 0.97991 0.4112 0.24489 0.0
C2303 C 0.96517 0.41163 0.24506 0.0
C2304 C 0.9583 0.40963 0.29565 0.0
C2305 C 0.95589 0.42488 0.31061 0.0
C2306 C 0.94255 0.39369 0.29987 0.0
C2307 C 0.97167 0.40842 0.32434 0.0
C2308 C 0.98401 0.40927 0.2944 0.0
C2309 C 0.99834 0.41006 0.31304 0.0
C2310 C 0.00022 0.41039 0.36342 0.0
C2311 C 0.98783 0.40977 0.39458 0.0
C2312 C 0.97323 0.40835 0.37469 0.0
H2313 H 0.57528 0.61809 0.13504 0.0
H2314 H 0.583 0.57408 0.14921 0.0
H2315 H 0.58023 0.57515 0.23799 0.0
H2316 H 0.59496 0.63837 0.25098 0.0
H2317 H 0.58014 0.64598 0.26057 0.0
H2318 H 0.58589 0.64351 0.19999 0.0
H2319 H 0.55598 0.62491 0.17897 0.0
H2320 H 0.55019 0.62729 0.23933 0.0
H2321 H 0.54469 0.60689 0.21528 0.0
H2322 H 0.57285 0.5791 0.32485 0.0
H2323 H 0.5607 0.58485 0.39834 0.0
H2324 H 0.55708 0.6254 0.32418 0.0
C2325 C 0.57683 0.60888 0.15666 0.0
C2326 C 0.57938 0.596 0.1349 0.0
C2327 C 0.58113 0.58413 0.16489 0.0
C2328 C 0.57961 0.58467 0.21544 0.0
C2329 C 0.5765 0.59723 0.23545 0.0
C2330 C 0.57526 0.60918 0.20677 0.0
C2331 C 0.57014 0.62032 0.23569 0.0
C2332 C 0.58359 0.6381 0.23688 0.0
C2333 C 0.55431 0.6198 0.21616 0.0
C2334 C 0.56784 0.61228 0.28474 0.0
C2335 C 0.57196 0.59926 0.28454 0.0
C2336 C 0.56984 0.58943 0.32548 0.0
C2337 C 0.56296 0.59279 0.36707 0.0
C2338 C 0.55799 0.60558 0.36675 0.0
C2339 C 0.56086 0.61561 0.32543 0.0
H2340 H 0.40831 0.00908 0.32177 0.0
H2341 H 0.36849 0.96048 0.33904 0.0
H2342 H 0.36398 0.95869 0.25062 0.0
H2343 H 0.39247 0.0238 0.22141 0.0
H2344 H 0.41207 0.03372 0.19363 0.0
H2345 H 0.41041 0.03133 0.25815 0.0
H2346 H 0.42923 0.0167 0.25272 0.0
H2347 H 0.43003 0.01875 0.18796 0.0
H2348 H 0.42343 0.99863 0.215 0.0
H2349 H 0.36439 0.96203 0.15979 0.0
H2350 H 0.37079 0.96924 0.07382 0.0
H2351 H 0.41091 0.01536 0.11656 0.0
C2352 C 0.39848 0.99818 0.307 0.0
C2353 C 0.38861 0.98501 0.33721 0.0
C2354 C 0.37615 0.97074 0.31645 0.0
C2355 C 0.37346 0.96965 0.26635 0.0
C2356 C 0.38347 0.98285 0.23751 0.0
C2357 C 0.39583 0.99676 0.25708 0.0
C2358 C 0.40566 0.00864 0.21806 0.0
C2359 C 0.40507 0.02536 0.22318 0.0
C2360 C 0.42312 0.0108 0.21847 0.0
C2361 C 0.39675 0.99941 0.17342 0.0
C2362 C 0.38396 0.98457 0.18535 0.0
C2363 C 0.37433 0.97366 0.15003 0.0
C2364 C 0.37804 0.9779 0.10124 0.0
C2365 C 0.39133 0.9929 0.08815 0.0
C2366 C 0.40059 0.00385 0.12504 0.0
H2367 H 0.54361 0.96672 0.81573 0.0
H2368 H 0.58374 0.00027 0.90238 0.0
H2369 H 0.59631 0.01665 0.82917 0.0
H2370 H 0.56592 0.96869 0.70336 0.0
H2371 H 0.55008 0.96861 0.66527 0.0
H2372 H 0.54527 0.95824 0.72288 0.0
H2373 H 0.53024 0.97545 0.74856 0.0
H2374 H 0.53477 0.98562 0.69085 0.0
H2375 H 0.54056 0.99769 0.74564 0.0
H2376 H 0.60361 0.03023 0.74838 0.0
H2377 H 0.60315 0.04271 0.66947 0.0
H2378 H 0.55769 0.00113 0.63515 0.0
C2379 C 0.55517 0.97737 0.81906 0.0
C2380 C 0.56282 0.98218 0.86453 0.0
C2381 C 0.57771 0.99642 0.86785 0.0
C2382 C 0.585 0.00566 0.82639 0.0
C2383 C 0.57716 0.00057 0.78203 0.0
C2384 C 0.56244 0.98691 0.77823 0.0
C2385 C 0.55562 0.98523 0.72753 0.0
C2386 C 0.55414 0.96924 0.70334 0.0
C2387 C 0.53934 0.98606 0.72821 0.0
C2388 C 0.56861 0.00033 0.70361 0.0
C2389 C 0.58111 0.00874 0.73544 0.0
C2390 C 0.59398 0.02366 0.72304 0.0
C2391 C 0.59366 0.03061 0.67804 0.0
C2392 C 0.5805 0.02274 0.64608 0.0
C2393 C 0.56813 0.00711 0.65824 0.0
H2394 H 0.98095 0.57512 0.69645 0.0
H2395 H 0.01513 0.6147 0.60823 0.0
H2396 H 0.03113 0.62777 0.6813 0.0
H2397 H 0.98347 0.59931 0.80607 0.0
H2398 H 0.98264 0.58319 0.84618 0.0
H2399 H 0.97274 0.57795 0.78822 0.0
H2400 H 0.98871 0.56134 0.76609 0.0
H2401 H 0.99838 0.56627 0.82422 0.0
H2402 H 0.01036 0.57128 0.76994 0.0
H2403 H 0.04397 0.63574 0.76205 0.0
H2404 H 0.05555 0.63575 0.84229 0.0
H2405 H 0.01394 0.59031 0.87869 0.0
C2406 C 0.99171 0.58665 0.69276 0.0
C2407 C 0.99678 0.59404 0.64693 0.0
C2408 C 0.0111 0.60888 0.64308 0.0
C2409 C 0.02012 0.61646 0.68441 0.0
C2410 C 0.01475 0.60893 0.72917 0.0
C2411 C 0.00105 0.59418 0.73352 0.0
C2412 C 0.99897 0.58767 0.78489 0.0
C2413 C 0.98353 0.58699 0.80768 0.0
C2414 C 0.99912 0.57064 0.78635 0.0
C2415 C 0.01384 0.60089 0.80861 0.0
C2416 C 0.02251 0.61325 0.77595 0.0
C2417 C 0.03721 0.62626 0.78806 0.0
C2418 C 0.04363 0.62623 0.8338 0.0
C2419 C 0.03546 0.61321 0.86679 0.0
C2420 C 0.02011 0.60069 0.85473 0.0
H2421 H 0.41298 0.43463 0.63022 0.0
H2422 H 0.43408 0.40345 0.68492 0.0
H2423 H 0.42464 0.4054 0.76699 0.0
H2424 H 0.42479 0.46206 0.72434 0.0
H2425 H 0.40701 0.46549 0.72673 0.0
H2426 H 0.41265 0.45918 0.67099 0.0
H2427 H 0.38469 0.43396 0.66576 0.0
H2428 H 0.37889 0.4403 0.72143 0.0
H2429 H 0.37756 0.41978 0.71583 0.0
H2430 H 0.41675 0.41438 0.84535 0.0
H2431 H 0.41006 0.42877 0.91184 0.0
H2432 H 0.39379 0.45368 0.80597 0.0
C2433 C 0.41501 0.42766 0.65909 0.0
C2434 C 0.42413 0.41874 0.65094 0.0
C2435 C 0.42703 0.41027 0.69016 0.0
C2436 C 0.42171 0.4113 0.73701 0.0
C2437 C 0.41338 0.42078 0.74433 0.0
C2438 C 0.40984 0.42863 0.70631 0.0
C2439 C 0.40212 0.43935 0.72457 0.0
C2440 C 0.41225 0.45759 0.71085 0.0
C2441 C 0.38478 0.43296 0.70578 0.0
C2442 C 0.4024 0.43675 0.77868 0.0
C2443 C 0.40878 0.42588 0.78948 0.0
C2444 C 0.41143 0.42266 0.83728 0.0
C2445 C 0.40761 0.43091 0.8749 0.0
C2446 C 0.40126 0.4423 0.86457 0.0
C2447 C 0.39839 0.44491 0.81562 0.0
loop_
_geom_bond_atom_site_label_1
_geom_bond_atom_site_label_2
_geom_bond_distance
_geom_bond_site_symmetry_2
_ccdc_geom_bond_type
Co0 O1 2.216 . S
Co0 O2 2.091 . S
Co0 O4 2.004 . S
Co0 O10 2.021 . S
Co0 O12 2.137 . S
Co0 O13 2.244 . S
O1 Co0 2.216 . S
O1 C8 1.247 . S
O2 Co0 2.091 . S
O2 C8 1.261 . S
C3 O12 1.247 . S
C3 O13 1.272 . S
O4 Co0 2.004 . S
O4 C9 1.259 . S
Co5 O6 2.061 . S
Co5 O11 2.052 . S
Co5 O13 2.135 . S
O6 Co5 2.061 . S
O6 C9 1.235 . S
C7 O10 1.238 . S
C7 O11 1.241 . S
C8 O1 1.247 . S
C8 O2 1.261 . S
C9 O4 1.259 . S
C9 O6 1.235 . S
O10 Co0 2.021 . S
O10 C7 1.238 . S
O11 Co5 2.052 . S
O11 C7 1.241 . S
O12 Co0 2.137 . S
O12 C3 1.247 . S
O13 Co0 2.244 . S
O13 C3 1.272 . S
O13 Co5 2.135 . S
Co14 O15 2.216 . S
Co14 O16 2.091 . S
Co14 O18 2.004 . S
Co14 O24 2.021 . S
Co14 O26 2.137 . S
Co14 O27 2.244 . S
O15 Co14 2.216 . S
O15 C22 1.247 . S
O16 Co14 2.091 . S
O16 C22 1.261 . S
C17 O26 1.247 . S
C17 O27 1.272 . S
O18 Co14 2.004 . S
O18 C23 1.259 . S
Co19 O20 2.061 . S
Co19 O25 2.052 . S
Co19 O27 2.135 . S
O20 Co19 2.061 . S
O20 C23 1.235 . S
C21 O24 1.238 . S
C21 O25 1.241 . S
C22 O15 1.247 . S
C22 O16 1.261 . S
C23 O18 1.259 . S
C23 O20 1.235 . S
O24 Co14 2.021 . S
O24 C21 1.238 . S
O25 Co19 2.052 . S
O25 C21 1.241 . S
O26 Co14 2.137 . S
O26 C17 1.247 . S
O27 Co14 2.244 . S
O27 C17 1.272 . S
O27 Co19 2.135 . S
Co28 O29 2.216 . S
Co28 O30 2.091 . S
Co28 O32 2.004 . S
Co28 O38 2.021 . S
Co28 O40 2.137 . S
Co28 O41 2.244 . S
O29 Co28 2.216 . S
O29 C36 1.247 . S
O30 Co28 2.091 . S
O30 C36 1.261 . S
C31 O40 1.247 . S
C31 O41 1.272 . S
O32 Co28 2.004 . S
O32 C37 1.259 . S
Co33 O34 2.061 . S
Co33 O39 2.052 . S
Co33 O41 2.135 . S
O34 Co33 2.061 . S
O34 C37 1.235 . S
C35 O38 1.238 . S
C35 O39 1.241 . S
C36 O29 1.247 . S
C36 O30 1.261 . S
C37 O32 1.259 . S
C37 O34 1.235 . S
O38 Co28 2.021 . S
O38 C35 1.238 . S
O39 Co33 2.052 . S
O39 C35 1.241 . S
O40 Co28 2.137 . S
O40 C31 1.247 . S
O41 Co28 2.244 . S
O41 C31 1.272 . S
O41 Co33 2.135 . S
Co42 O43 2.216 . S
Co42 O44 2.091 . S
Co42 O46 2.004 . S
Co42 O52 2.021 . S
Co42 O54 2.137 . S
Co42 O55 2.244 . S
O43 Co42 2.216 . S
O43 C50 1.247 . S
O44 Co42 2.091 . S
O44 C50 1.261 . S
C45 O54 1.247 . S
C45 O55 1.272 . S
O46 Co42 2.004 . S
O46 C51 1.259 . S
Co47 O48 2.061 . S
Co47 O53 2.052 . S
Co47 O55 2.135 . S
O48 Co47 2.061 . S
O48 C51 1.235 . S
C49 O52 1.238 . S
C49 O53 1.241 . S
C50 O43 1.247 . S
C50 O44 1.261 . S
C51 O46 1.259 . S
C51 O48 1.235 . S
O52 Co42 2.021 . S
O52 C49 1.238 . S
O53 Co47 2.052 . S
O53 C49 1.241 . S
O54 Co42 2.137 . S
O54 C45 1.247 . S
O55 Co42 2.244 . S
O55 C45 1.272 . S
O55 Co47 2.135 . S
Co56 O57 2.216 . S
Co56 O58 2.091 . S
Co56 O60 2.004 . S
Co56 O66 2.021 . S
Co56 O68 2.137 . S
Co56 O69 2.244 . S
O57 Co56 2.216 . S
O57 C64 1.247 . S
O58 Co56 2.091 . S
O58 C64 1.261 . S
C59 O68 1.247 . S
C59 O69 1.272 . S
O60 Co56 2.004 . S
O60 C65 1.259 . S
Co61 O62 2.061 . S
Co61 O67 2.052 . S
Co61 O69 2.135 . S
O62 Co61 2.061 . S
O62 C65 1.235 . S
C63 O66 1.238 . S
C63 O67 1.241 . S
C64 O57 1.247 . S
C64 O58 1.261 . S
C65 O60 1.259 . S
C65 O62 1.235 . S
O66 Co56 2.021 . S
O66 C63 1.238 . S
O67 Co61 2.052 . S
O67 C63 1.241 . S
O68 Co56 2.137 . S
O68 C59 1.247 . S
O69 Co56 2.244 . S
O69 C59 1.272 . S
O69 Co61 2.135 . S
Co70 O71 2.216 . S
Co70 O72 2.091 . S
Co70 O74 2.004 . S
Co70 O80 2.021 . S
Co70 O82 2.137 . S
Co70 O83 2.244 . S
O71 Co70 2.216 . S
O71 C78 1.247 . S
O72 Co70 2.091 . S
O72 C78 1.261 . S
C73 O82 1.247 . S
C73 O83 1.272 . S
O74 Co70 2.004 . S
O74 C79 1.259 . S
Co75 O76 2.061 . S
Co75 O81 2.052 . S
Co75 O83 2.135 . S
O76 Co75 2.061 . S
O76 C79 1.235 . S
C77 O80 1.238 . S
C77 O81 1.241 . S
C78 O71 1.247 . S
C78 O72 1.261 . S
C79 O74 1.259 . S
C79 O76 1.235 . S
O80 Co70 2.021 . S
O80 C77 1.238 . S
O81 Co75 2.052 . S
O81 C77 1.241 . S
O82 Co70 2.137 . S
O82 C73 1.247 . S
O83 Co70 2.244 . S
O83 C73 1.272 . S
O83 Co75 2.135 . S
Co84 O85 2.216 . S
Co84 O86 2.091 . S
Co84 O88 2.004 . S
Co84 O94 2.021 . S
Co84 O96 2.137 . S
Co84 O97 2.244 . S
O85 Co84 2.216 . S
O85 C92 1.247 . S
O86 Co84 2.091 . S
O86 C92 1.261 . S
C87 O96 1.247 . S
C87 O97 1.272 . S
O88 Co84 2.004 . S
O88 C93 1.259 . S
Co89 O90 2.061 . S
Co89 O95 2.052 . S
Co89 O97 2.135 . S
O90 Co89 2.061 . S
O90 C93 1.235 . S
C91 O94 1.238 . S
C91 O95 1.241 . S
C92 O85 1.247 . S
C92 O86 1.261 . S
C93 O88 1.259 . S
C93 O90 1.235 . S
O94 Co84 2.021 . S
O94 C91 1.238 . S
O95 Co89 2.052 . S
O95 C91 1.241 . S
O96 Co84 2.137 . S
O96 C87 1.247 . S
O97 Co84 2.244 . S
O97 C87 1.272 . S
O97 Co89 2.135 . S
Co98 O99 2.216 . S
Co98 O100 2.091 . S
Co98 O102 2.004 . S
Co98 O108 2.021 . S
Co98 O110 2.137 . S
Co98 O111 2.244 . S
O99 Co98 2.216 . S
O99 C106 1.247 . S
O100 Co98 2.091 . S
O100 C106 1.261 . S
C101 O110 1.247 . S
C101 O111 1.272 . S
O102 Co98 2.004 . S
O102 C107 1.259 . S
Co103 O104 2.061 . S
Co103 O109 2.052 . S
Co103 O111 2.135 . S
O104 Co103 2.061 . S
O104 C107 1.235 . S
C105 O108 1.238 . S
C105 O109 1.241 . S
C106 O99 1.247 . S
C106 O100 1.261 . S
C107 O102 1.259 . S
C107 O104 1.235 . S
O108 Co98 2.021 . S
O108 C105 1.238 . S
O109 Co103 2.052 . S
O109 C105 1.241 . S
O110 Co98 2.137 . S
O110 C101 1.247 . S
O111 Co98 2.244 . S
O111 C101 1.272 . S
O111 Co103 2.135 . S
Co112 O113 2.216 . S
Co112 O114 2.091 . S
Co112 O116 2.004 . S
Co112 O122 2.021 . S
Co112 O124 2.137 . S
Co112 O125 2.244 . S
O113 Co112 2.216 . S
O113 C120 1.247 . S
O114 Co112 2.091 . S
O114 C120 1.261 . S
C115 O124 1.247 . S
C115 O125 1.272 . S
O116 Co112 2.004 . S
O116 C121 1.259 . S
Co117 O118 2.061 . S
Co117 O123 2.052 . S
Co117 O125 2.135 . S
O118 Co117 2.061 . S
O118 C121 1.235 . S
C119 O122 1.238 . S
C119 O123 1.241 . S
C120 O113 1.247 . S
C120 O114 1.261 . S
C121 O116 1.259 . S
C121 O118 1.235 . S
O122 Co112 2.021 . S
O122 C119 1.238 . S
O123 Co117 2.052 . S
O123 C119 1.241 . S
O124 Co112 2.137 . S
O124 C115 1.247 . S
O125 Co112 2.244 . S
O125 C115 1.272 . S
O125 Co117 2.135 . S
Co126 O127 2.216 . S
Co126 O128 2.091 . S
Co126 O130 2.004 . S
Co126 O136 2.021 . S
Co126 O138 2.137 . S
Co126 O139 2.244 . S
O127 Co126 2.216 . S
O127 C134 1.247 . S
O128 Co126 2.091 . S
O128 C134 1.261 . S
C129 O138 1.247 . S
C129 O139 1.272 . S
O130 Co126 2.004 . S
O130 C135 1.259 . S
Co131 O132 2.061 . S
Co131 O137 2.052 . S
Co131 O139 2.135 . S
O132 Co131 2.061 . S
O132 C135 1.235 . S
C133 O136 1.238 . S
C133 O137 1.241 . S
C134 O127 1.247 . S
C134 O128 1.261 . S
C135 O130 1.259 . S
C135 O132 1.235 . S
O136 Co126 2.021 . S
O136 C133 1.238 . S
O137 Co131 2.052 . S
O137 C133 1.241 . S
O138 Co126 2.137 . S
O138 C129 1.247 . S
O139 Co126 2.244 . S
O139 C129 1.272 . S
O139 Co131 2.135 . S
Co140 O141 2.216 . S
Co140 O142 2.091 . S
Co140 O144 2.004 . S
Co140 O150 2.021 . S
Co140 O152 2.137 . S
Co140 O153 2.244 . S
O141 Co140 2.216 . S
O141 C148 1.247 . S
O142 Co140 2.091 . S
O142 C148 1.261 . S
C143 O152 1.247 . S
C143 O153 1.272 . S
O144 Co140 2.004 . S
O144 C149 1.259 . S
Co145 O146 2.061 . S
Co145 O151 2.052 . S
Co145 O153 2.135 . S
O146 Co145 2.061 . S
O146 C149 1.235 . S
C147 O150 1.238 . S
C147 O151 1.241 . S
C148 O141 1.247 . S
C148 O142 1.261 . S
C149 O144 1.259 . S
C149 O146 1.235 . S
O150 Co140 2.021 . S
O150 C147 1.238 . S
O151 Co145 2.052 . S
O151 C147 1.241 . S
O152 Co140 2.137 . S
O152 C143 1.247 . S
O153 Co140 2.244 . S
O153 C143 1.272 . S
O153 Co145 2.135 . S
Co154 O155 2.216 . S
Co154 O156 2.091 . S
Co154 O158 2.004 . S
Co154 O164 2.021 . S
Co154 O166 2.137 . S
Co154 O167 2.244 . S
O155 Co154 2.216 . S
O155 C162 1.247 . S
O156 Co154 2.091 . S
O156 C162 1.261 . S
C157 O166 1.247 . S
C157 O167 1.272 . S
O158 Co154 2.004 . S
O158 C163 1.259 . S
Co159 O160 2.061 . S
Co159 O165 2.052 . S
Co159 O167 2.135 . S
O160 Co159 2.061 . S
O160 C163 1.235 . S
C161 O164 1.238 . S
C161 O165 1.241 . S
C162 O155 1.247 . S
C162 O156 1.261 . S
C163 O158 1.259 . S
C163 O160 1.235 . S
O164 Co154 2.021 . S
O164 C161 1.238 . S
O165 Co159 2.052 . S
O165 C161 1.241 . S
O166 Co154 2.137 . S
O166 C157 1.247 . S
O167 Co154 2.244 . S
O167 C157 1.272 . S
O167 Co159 2.135 . S
Co168 O169 2.216 . S
Co168 O170 2.091 . S
Co168 O172 2.004 . S
Co168 O178 2.021 1_455 S
Co168 O180 2.137 . S
Co168 O181 2.244 1_455 S
O169 Co168 2.216 . S
O169 C176 1.247 . S
O170 Co168 2.091 . S
O170 C176 1.261 . S
C171 O180 1.247 1_655 S
C171 O181 1.272 . S
O172 Co168 2.004 . S
O172 C177 1.259 . S
Co173 O174 2.061 . S
Co173 O179 2.052 . S
Co173 O181 2.135 . S
O174 Co173 2.061 . S
O174 C177 1.235 1_655 S
C175 O178 1.238 . S
C175 O179 1.241 . S
C176 O169 1.247 . S
C176 O170 1.261 . S
C177 O172 1.259 . S
C177 O174 1.235 1_455 S
O178 Co168 2.021 1_655 S
O178 C175 1.238 . S
O179 Co173 2.052 . S
O179 C175 1.241 . S
O180 Co168 2.137 . S
O180 C171 1.247 1_455 S
O181 Co168 2.244 1_655 S
O181 C171 1.272 . S
O181 Co173 2.135 . S
Co182 O183 2.216 . S
Co182 O184 2.091 . S
Co182 O186 2.004 . S
Co182 O192 2.021 . S
Co182 O194 2.137 . S
Co182 O195 2.244 . S
O183 Co182 2.216 . S
O183 C190 1.247 . S
O184 Co182 2.091 . S
O184 C190 1.261 . S
C185 O194 1.247 . S
C185 O195 1.272 . S
O186 Co182 2.004 . S
O186 C191 1.259 . S
Co187 O188 2.061 . S
Co187 O193 2.052 . S
Co187 O195 2.135 . S
O188 Co187 2.061 . S
O188 C191 1.235 . S
C189 O192 1.238 . S
C189 O193 1.241 . S
C190 O183 1.247 . S
C190 O184 1.261 . S
C191 O186 1.259 . S
C191 O188 1.235 . S
O192 Co182 2.021 . S
O192 C189 1.238 . S
O193 Co187 2.052 . S
O193 C189 1.241 . S
O194 Co182 2.137 . S
O194 C185 1.247 . S
O195 Co182 2.244 . S
O195 C185 1.272 . S
O195 Co187 2.135 . S
Co196 O197 2.216 . S
Co196 O198 2.091 . S
Co196 O200 2.004 . S
Co196 O206 2.021 . S
Co196 O208 2.137 . S
Co196 O209 2.244 . S
O197 Co196 2.216 . S
O197 C204 1.247 . S
O198 Co196 2.091 . S
O198 C204 1.261 . S
C199 O208 1.247 . S
C199 O209 1.272 . S
O200 Co196 2.004 . S
O200 C205 1.259 . S
Co201 O202 2.061 . S
Co201 O207 2.052 . S
Co201 O209 2.135 . S
O202 Co201 2.061 . S
O202 C205 1.235 . S
C203 O206 1.238 . S
C203 O207 1.241 . S
C204 O197 1.247 . S
C204 O198 1.261 . S
C205 O200 1.259 . S
C205 O202 1.235 . S
O206 Co196 2.021 . S
O206 C203 1.238 . S
O207 Co201 2.052 . S
O207 C203 1.241 . S
O208 Co196 2.137 . S
O208 C199 1.247 . S
O209 Co196 2.244 . S
O209 C199 1.272 . S
O209 Co201 2.135 . S
Co210 O211 2.216 . S
Co210 O212 2.091 . S
Co210 O214 2.004 . S
Co210 O220 2.021 . S
Co210 O222 2.137 . S
Co210 O223 2.244 . S
O211 Co210 2.216 . S
O211 C218 1.247 . S
O212 Co210 2.091 . S
O212 C218 1.261 . S
C213 O222 1.247 . S
C213 O223 1.272 . S
O214 Co210 2.004 . S
O214 C219 1.259 . S
Co215 O216 2.061 . S
Co215 O221 2.052 . S
Co215 O223 2.135 . S
O216 Co215 2.061 . S
O216 C219 1.235 . S
C217 O220 1.238 . S
C217 O221 1.241 . S
C218 O211 1.247 . S
C218 O212 1.261 . S
C219 O214 1.259 . S
C219 O216 1.235 . S
O220 Co210 2.021 . S
O220 C217 1.238 . S
O221 Co215 2.052 . S
O221 C217 1.241 . S
O222 Co210 2.137 . S
O222 C213 1.247 . S
O223 Co210 2.244 . S
O223 C213 1.272 . S
O223 Co215 2.135 . S
Co224 O225 2.216 . S
Co224 O226 2.091 . S
Co224 O228 2.004 . S
Co224 O234 2.021 . S
Co224 O236 2.137 . S
Co224 O237 2.244 . S
O225 Co224 2.216 . S
O225 C232 1.247 . S
O226 Co224 2.091 . S
O226 C232 1.261 . S
C227 O236 1.247 . S
C227 O237 1.272 . S
O228 Co224 2.004 . S
O228 C233 1.259 . S
Co229 O230 2.061 . S
Co229 O235 2.052 . S
Co229 O237 2.135 . S
O230 Co229 2.061 . S
O230 C233 1.235 . S
C231 O234 1.238 . S
C231 O235 1.241 . S
C232 O225 1.247 . S
C232 O226 1.261 . S
C233 O228 1.259 . S
C233 O230 1.235 . S
O234 Co224 2.021 . S
O234 C231 1.238 . S
O235 Co229 2.052 . S
O235 C231 1.241 . S
O236 Co224 2.137 . S
O236 C227 1.247 . S
O237 Co224 2.244 . S
O237 C227 1.272 . S
O237 Co229 2.135 . S
Co238 O239 2.216 . S
Co238 O240 2.091 . S
Co238 O242 2.004 . S
Co238 O248 2.021 . S
Co238 O250 2.137 . S
Co238 O251 2.244 . S
O239 Co238 2.216 . S
O239 C246 1.247 . S
O240 Co238 2.091 . S
O240 C246 1.261 . S
C241 O250 1.247 . S
C241 O251 1.272 . S
O242 Co238 2.004 . S
O242 C247 1.259 . S
Co243 O244 2.061 . S
Co243 O249 2.052 . S
Co243 O251 2.135 . S
O244 Co243 2.061 . S
O244 C247 1.235 . S
C245 O248 1.238 . S
C245 O249 1.241 . S
C246 O239 1.247 . S
C246 O240 1.261 . S
C247 O242 1.259 . S
C247 O244 1.235 . S
O248 Co238 2.021 . S
O248 C245 1.238 . S
O249 Co243 2.052 . S
O249 C245 1.241 . S
O250 Co238 2.137 . S
O250 C241 1.247 . S
O251 Co238 2.244 . S
O251 C241 1.272 . S
O251 Co243 2.135 . S
Co252 O253 2.216 . S
Co252 O254 2.091 . S
Co252 O256 2.004 . S
Co252 O262 2.021 . S
Co252 O264 2.137 . S
Co252 O265 2.244 . S
O253 Co252 2.216 . S
O253 C260 1.247 . S
O254 Co252 2.091 . S
O254 C260 1.261 . S
C255 O264 1.247 . S
C255 O265 1.272 . S
O256 Co252 2.004 . S
O256 C261 1.259 . S
Co257 O258 2.061 . S
Co257 O263 2.052 . S
Co257 O265 2.135 . S
O258 Co257 2.061 . S
O258 C261 1.235 . S
C259 O262 1.238 . S
C259 O263 1.241 . S
C260 O253 1.247 . S
C260 O254 1.261 . S
C261 O256 1.259 . S
C261 O258 1.235 . S
O262 Co252 2.021 . S
O262 C259 1.238 . S
O263 Co257 2.052 . S
O263 C259 1.241 . S
O264 Co252 2.137 . S
O264 C255 1.247 . S
O265 Co252 2.244 . S
O265 C255 1.272 . S
O265 Co257 2.135 . S
Co266 O267 2.216 . S
Co266 O268 2.091 . S
Co266 O270 2.004 . S
Co266 O276 2.021 . S
Co266 O278 2.137 . S
Co266 O279 2.244 . S
O267 Co266 2.216 . S
O267 C274 1.247 . S
O268 Co266 2.091 . S
O268 C274 1.261 . S
C269 O278 1.247 . S
C269 O279 1.272 . S
O270 Co266 2.004 . S
O270 C275 1.259 . S
Co271 O272 2.061 . S
Co271 O277 2.052 . S
Co271 O279 2.135 . S
O272 Co271 2.061 . S
O272 C275 1.235 . S
C273 O276 1.238 . S
C273 O277 1.241 . S
C274 O267 1.247 . S
C274 O268 1.261 . S
C275 O270 1.259 . S
C275 O272 1.235 . S
O276 Co266 2.021 . S
O276 C273 1.238 . S
O277 Co271 2.052 . S
O277 C273 1.241 . S
O278 Co266 2.137 . S
O278 C269 1.247 . S
O279 Co266 2.244 . S
O279 C269 1.272 . S
O279 Co271 2.135 . S
Co280 O281 2.216 . S
Co280 O282 2.091 . S
Co280 O284 2.004 . S
Co280 O290 2.021 . S
Co280 O292 2.137 . S
Co280 O293 2.244 . S
O281 Co280 2.216 . S
O281 C288 1.247 . S
O282 Co280 2.091 . S
O282 C288 1.261 . S
C283 O292 1.247 . S
C283 O293 1.272 . S
O284 Co280 2.004 . S
O284 C289 1.259 . S
Co285 O286 2.061 . S
Co285 O291 2.052 . S
Co285 O293 2.135 . S
O286 Co285 2.061 . S
O286 C289 1.235 . S
C287 O290 1.238 . S
C287 O291 1.241 . S
C288 O281 1.247 . S
C288 O282 1.261 . S
C289 O284 1.259 . S
C289 O286 1.235 . S
O290 Co280 2.021 . S
O290 C287 1.238 . S
O291 Co285 2.052 . S
O291 C287 1.241 . S
O292 Co280 2.137 . S
O292 C283 1.247 . S
O293 Co280 2.244 . S
O293 C283 1.272 . S
O293 Co285 2.135 . S
Co294 O295 2.216 1_545 S
Co294 O296 2.091 . S
Co294 O298 2.004 1_554 S
Co294 O304 2.021 . S
Co294 O306 2.137 1_545 S
Co294 O307 2.244 1_544 S
O295 Co294 2.216 1_565 S
O295 C302 1.247 1_565 S
O296 Co294 2.091 . S
O296 C302 1.261 . S
C297 O306 1.247 1_556 S
C297 O307 1.272 . S
O298 Co294 2.004 1_556 S
O298 C303 1.259 . S
Co299 O300 2.061 . S
Co299 O305 2.052 . S
Co299 O307 2.135 . S
O300 Co299 2.061 . S
O300 C303 1.235 1_565 S
C301 O304 1.238 1_566 S
C301 O305 1.241 . S
C302 O295 1.247 1_545 S
C302 O296 1.261 . S
C303 O298 1.259 . S
C303 O300 1.235 1_545 S
O304 Co294 2.021 . S
O304 C301 1.238 1_544 S
O305 Co299 2.052 . S
O305 C301 1.241 . S
O306 Co294 2.137 1_565 S
O306 C297 1.247 1_554 S
O307 Co294 2.244 1_566 S
O307 C297 1.272 . S
O307 Co299 2.135 . S
Co308 O309 2.216 . S
Co308 O310 2.091 . S
Co308 O312 2.004 1_554 S
Co308 O318 2.021 . S
Co308 O320 2.137 . S
Co308 O321 2.244 1_554 S
O309 Co308 2.216 . S
O309 C316 1.247 . S
O310 Co308 2.091 . S
O310 C316 1.261 . S
C311 O320 1.247 1_556 S
C311 O321 1.272 . S
O312 Co308 2.004 1_556 S
O312 C317 1.259 . S
Co313 O314 2.061 . S
Co313 O319 2.052 . S
Co313 O321 2.135 . S
O314 Co313 2.061 . S
O314 C317 1.235 . S
C315 O318 1.238 1_556 S
C315 O319 1.241 . S
C316 O309 1.247 . S
C316 O310 1.261 . S
C317 O312 1.259 . S
C317 O314 1.235 . S
O318 Co308 2.021 . S
O318 C315 1.238 1_554 S
O319 Co313 2.052 . S
O319 C315 1.241 . S
O320 Co308 2.137 . S
O320 C311 1.247 1_554 S
O321 Co308 2.244 1_556 S
O321 C311 1.272 . S
O321 Co313 2.135 . S
Co322 O323 2.216 . S
Co322 O324 2.091 . S
Co322 O326 2.004 1_554 S
Co322 O332 2.021 . S
Co322 O334 2.137 . S
Co322 O335 2.244 1_554 S
O323 Co322 2.216 . S
O323 C330 1.247 . S
O324 Co322 2.091 . S
O324 C330 1.261 . S
C325 O334 1.247 1_556 S
C325 O335 1.272 . S
O326 Co322 2.004 1_556 S
O326 C331 1.259 . S
Co327 O328 2.061 . S
Co327 O333 2.052 . S
Co327 O335 2.135 . S
O328 Co327 2.061 . S
O328 C331 1.235 . S
C329 O332 1.238 1_556 S
C329 O333 1.241 . S
C330 O323 1.247 . S
C330 O324 1.261 . S
C331 O326 1.259 . S
C331 O328 1.235 . S
O332 Co322 2.021 . S
O332 C329 1.238 1_554 S
O333 Co327 2.052 . S
O333 C329 1.241 . S
O334 Co322 2.137 . S
O334 C325 1.247 1_554 S
O335 Co322 2.244 1_556 S
O335 C325 1.272 . S
O335 Co327 2.135 . S
Co336 O337 2.216 . S
Co336 O338 2.091 . S
Co336 O340 2.004 . S
Co336 O346 2.021 . S
Co336 O348 2.137 . S
Co336 O349 2.244 . S
O337 Co336 2.216 . S
O337 C344 1.247 . S
O338 Co336 2.091 . S
O338 C344 1.261 . S
C339 O348 1.247 . S
C339 O349 1.272 . S
O340 Co336 2.004 . S
O340 C345 1.259 . S
Co341 O342 2.061 . S
Co341 O347 2.052 . S
Co341 O349 2.135 . S
O342 Co341 2.061 . S
O342 C345 1.235 . S
C343 O346 1.238 . S
C343 O347 1.241 . S
C344 O337 1.247 . S
C344 O338 1.261 . S
C345 O340 1.259 . S
C345 O342 1.235 . S
O346 Co336 2.021 . S
O346 C343 1.238 . S
O347 Co341 2.052 . S
O347 C343 1.241 . S
O348 Co336 2.137 . S
O348 C339 1.247 . S
O349 Co336 2.244 . S
O349 C339 1.272 . S
O349 Co341 2.135 . S
Co350 O351 2.216 . S
Co350 O352 2.091 . S
Co350 O354 2.004 . S
Co350 O360 2.021 . S
Co350 O362 2.137 . S
Co350 O363 2.244 . S
O351 Co350 2.216 . S
O351 C358 1.247 . S
O352 Co350 2.091 . S
O352 C358 1.261 . S
C353 O362 1.247 . S
C353 O363 1.272 . S
O354 Co350 2.004 . S
O354 C359 1.259 . S
Co355 O356 2.061 . S
Co355 O361 2.052 . S
Co355 O363 2.135 . S
O356 Co355 2.061 . S
O356 C359 1.235 . S
C357 O360 1.238 . S
C357 O361 1.241 . S
C358 O351 1.247 . S
C358 O352 1.261 . S
C359 O354 1.259 . S
C359 O356 1.235 . S
O360 Co350 2.021 . S
O360 C357 1.238 . S
O361 Co355 2.052 . S
O361 C357 1.241 . S
O362 Co350 2.137 . S
O362 C353 1.247 . S
O363 Co350 2.244 . S
O363 C353 1.272 . S
O363 Co355 2.135 . S
Co364 O365 2.216 . S
Co364 O366 2.091 . S
Co364 O368 2.004 . S
Co364 O374 2.021 . S
Co364 O376 2.137 . S
Co364 O377 2.244 . S
O365 Co364 2.216 . S
O365 C372 1.247 . S
O366 Co364 2.091 . S
O366 C372 1.261 . S
C367 O376 1.247 . S
C367 O377 1.272 . S
O368 Co364 2.004 . S
O368 C373 1.259 . S
Co369 O370 2.061 . S
Co369 O375 2.052 . S
Co369 O377 2.135 . S
O370 Co369 2.061 . S
O370 C373 1.235 . S
C371 O374 1.238 . S
C371 O375 1.241 . S
C372 O365 1.247 . S
C372 O366 1.261 . S
C373 O368 1.259 . S
C373 O370 1.235 . S
O374 Co364 2.021 . S
O374 C371 1.238 . S
O375 Co369 2.052 . S
O375 C371 1.241 . S
O376 Co364 2.137 . S
O376 C367 1.247 . S
O377 Co364 2.244 . S
O377 C367 1.272 . S
O377 Co369 2.135 . S
Co378 O379 2.216 1_556 S
Co378 O380 2.091 1_556 S
Co378 O382 2.004 . S
Co378 O388 2.021 1_546 S
Co378 O390 2.137 . S
Co378 O391 2.244 1_545 S
O379 Co378 2.216 1_554 S
O379 C386 1.247 . S
O380 Co378 2.091 1_554 S
O380 C386 1.261 . S
C381 O390 1.247 1_565 S
C381 O391 1.272 . S
O382 Co378 2.004 . S
O382 C387 1.259 . S
Co383 O384 2.061 . S
Co383 O389 2.052 1_556 S
Co383 O391 2.135 . S
O384 Co383 2.061 . S
O384 C387 1.235 1_565 S
C385 O388 1.238 . S
C385 O389 1.241 . S
C386 O379 1.247 . S
C386 O380 1.261 . S
C387 O382 1.259 . S
C387 O384 1.235 1_545 S
O388 Co378 2.021 1_564 S
O388 C385 1.238 . S
O389 Co383 2.052 1_554 S
O389 C385 1.241 . S
O390 Co378 2.137 . S
O390 C381 1.247 1_545 S
O391 Co378 2.244 1_565 S
O391 C381 1.272 . S
O391 Co383 2.135 . S
Co392 O393 2.216 . S
Co392 O394 2.091 . S
Co392 O396 2.004 1_556 S
Co392 O402 2.021 . S
Co392 O404 2.137 . S
Co392 O405 2.244 1_556 S
O393 Co392 2.216 . S
O393 C400 1.247 . S
O394 Co392 2.091 . S
O394 C400 1.261 . S
C395 O404 1.247 1_554 S
C395 O405 1.272 . S
O396 Co392 2.004 1_554 S
O396 C401 1.259 . S
Co397 O398 2.061 . S
Co397 O403 2.052 . S
Co397 O405 2.135 . S
O398 Co397 2.061 . S
O398 C401 1.235 . S
C399 O402 1.238 1_554 S
C399 O403 1.241 . S
C400 O393 1.247 . S
C400 O394 1.261 . S
C401 O396 1.259 . S
C401 O398 1.235 . S
O402 Co392 2.021 . S
O402 C399 1.238 1_556 S
O403 Co397 2.052 . S
O403 C399 1.241 . S
O404 Co392 2.137 . S
O404 C395 1.247 1_556 S
O405 Co392 2.244 1_554 S
O405 C395 1.272 . S
O405 Co397 2.135 . S
Co406 O407 2.216 1_556 S
Co406 O408 2.091 1_556 S
Co406 O410 2.004 . S
Co406 O416 2.021 1_556 S
Co406 O418 2.137 . S
Co406 O419 2.244 . S
O407 Co406 2.216 1_554 S
O407 C414 1.247 . S
O408 Co406 2.091 1_554 S
O408 C414 1.261 . S
C409 O418 1.247 . S
C409 O419 1.272 . S
O410 Co406 2.004 . S
O410 C415 1.259 . S
Co411 O412 2.061 . S
Co411 O417 2.052 1_556 S
Co411 O419 2.135 . S
O412 Co411 2.061 . S
O412 C415 1.235 . S
C413 O416 1.238 . S
C413 O417 1.241 . S
C414 O407 1.247 . S
C414 O408 1.261 . S
C415 O410 1.259 . S
C415 O412 1.235 . S
O416 Co406 2.021 1_554 S
O416 C413 1.238 . S
O417 Co411 2.052 1_554 S
O417 C413 1.241 . S
O418 Co406 2.137 . S
O418 C409 1.247 . S
O419 Co406 2.244 . S
O419 C409 1.272 . S
O419 Co411 2.135 . S
Co420 O421 2.216 1_455 S
Co420 O422 2.091 . S
Co420 O424 2.004 . S
Co420 O430 2.021 . S
Co420 O432 2.137 1_455 S
Co420 O433 2.244 1_455 S
O421 Co420 2.216 1_655 S
O421 C428 1.247 1_655 S
O422 Co420 2.091 . S
O422 C428 1.261 . S
C423 O432 1.247 . S
C423 O433 1.272 . S
O424 Co420 2.004 . S
O424 C429 1.259 . S
Co425 O426 2.061 . S
Co425 O431 2.052 . S
Co425 O433 2.135 . S
O426 Co425 2.061 . S
O426 C429 1.235 1_655 S
C427 O430 1.238 1_655 S
C427 O431 1.241 . S
C428 O421 1.247 1_455 S
C428 O422 1.261 . S
C429 O424 1.259 . S
C429 O426 1.235 1_455 S
O430 Co420 2.021 . S
O430 C427 1.238 1_455 S
O431 Co425 2.052 . S
O431 C427 1.241 . S
O432 Co420 2.137 1_655 S
O432 C423 1.247 . S
O433 Co420 2.244 1_655 S
O433 C423 1.272 . S
O433 Co425 2.135 . S
Co434 O435 2.216 . S
Co434 O436 2.091 . S
Co434 O438 2.004 . S
Co434 O444 2.021 . S
Co434 O446 2.137 . S
Co434 O447 2.244 . S
O435 Co434 2.216 . S
O435 C442 1.247 . S
O436 Co434 2.091 . S
O436 C442 1.261 . S
C437 O446 1.247 . S
C437 O447 1.272 . S
O438 Co434 2.004 . S
O438 C443 1.259 . S
Co439 O440 2.061 . S
Co439 O445 2.052 . S
Co439 O447 2.135 . S
O440 Co439 2.061 . S
O440 C443 1.235 . S
C441 O444 1.238 . S
C441 O445 1.241 . S
C442 O435 1.247 . S
C442 O436 1.261 . S
C443 O438 1.259 . S
C443 O440 1.235 . S
O444 Co434 2.021 . S
O444 C441 1.238 . S
O445 Co439 2.052 . S
O445 C441 1.241 . S
O446 Co434 2.137 . S
O446 C437 1.247 . S
O447 Co434 2.244 . S
O447 C437 1.272 . S
O447 Co439 2.135 . S
Co448 O449 2.216 . S
Co448 O450 2.091 . S
Co448 O452 2.004 . S
Co448 O458 2.021 . S
Co448 O460 2.137 . S
Co448 O461 2.244 . S
O449 Co448 2.216 . S
O449 C456 1.247 . S
O450 Co448 2.091 . S
O450 C456 1.261 . S
C451 O460 1.247 . S
C451 O461 1.272 . S
O452 Co448 2.004 . S
O452 C457 1.259 . S
Co453 O454 2.061 . S
Co453 O459 2.052 . S
Co453 O461 2.135 . S
O454 Co453 2.061 . S
O454 C457 1.235 . S
C455 O458 1.238 . S
C455 O459 1.241 . S
C456 O449 1.247 . S
C456 O450 1.261 . S
C457 O452 1.259 . S
C457 O454 1.235 . S
O458 Co448 2.021 . S
O458 C455 1.238 . S
O459 Co453 2.052 . S
O459 C455 1.241 . S
O460 Co448 2.137 . S
O460 C451 1.247 . S
O461 Co448 2.244 . S
O461 C451 1.272 . S
O461 Co453 2.135 . S
Co462 O463 2.216 . S
Co462 O464 2.091 . S
Co462 O466 2.004 . S
Co462 O472 2.021 . S
Co462 O474 2.137 . S
Co462 O475 2.244 . S
O463 Co462 2.216 . S
O463 C470 1.247 . S
O464 Co462 2.091 . S
O464 C470 1.261 . S
C465 O474 1.247 . S
C465 O475 1.272 . S
O466 Co462 2.004 . S
O466 C471 1.259 . S
Co467 O468 2.061 . S
Co467 O473 2.052 . S
Co467 O475 2.135 . S
O468 Co467 2.061 . S
O468 C471 1.235 . S
C469 O472 1.238 . S
C469 O473 1.241 . S
C470 O463 1.247 . S
C470 O464 1.261 . S
C471 O466 1.259 . S
C471 O468 1.235 . S
O472 Co462 2.021 . S
O472 C469 1.238 . S
O473 Co467 2.052 . S
O473 C469 1.241 . S
O474 Co462 2.137 . S
O474 C465 1.247 . S
O475 Co462 2.244 . S
O475 C465 1.272 . S
O475 Co467 2.135 . S
Co476 O477 2.216 . S
Co476 O478 2.091 . S
Co476 O480 2.004 . S
Co476 O486 2.021 . S
Co476 O488 2.137 . S
Co476 O489 2.244 . S
O477 Co476 2.216 . S
O477 C484 1.247 . S
O478 Co476 2.091 . S
O478 C484 1.261 . S
C479 O488 1.247 . S
C479 O489 1.272 . S
O480 Co476 2.004 . S
O480 C485 1.259 . S
Co481 O482 2.061 . S
Co481 O487 2.052 . S
Co481 O489 2.135 . S
O482 Co481 2.061 . S
O482 C485 1.235 . S
C483 O486 1.238 . S
C483 O487 1.241 . S
C484 O477 1.247 . S
C484 O478 1.261 . S
C485 O480 1.259 . S
C485 O482 1.235 . S
O486 Co476 2.021 . S
O486 C483 1.238 . S
O487 Co481 2.052 . S
O487 C483 1.241 . S
O488 Co476 2.137 . S
O488 C479 1.247 . S
O489 Co476 2.244 . S
O489 C479 1.272 . S
O489 Co481 2.135 . S
Co490 O491 2.216 . S
Co490 O492 2.091 . S
Co490 O494 2.004 . S
Co490 O500 2.021 . S
Co490 O502 2.137 . S
Co490 O503 2.244 . S
O491 Co490 2.216 . S
O491 C498 1.247 . S
O492 Co490 2.091 . S
O492 C498 1.261 . S
C493 O502 1.247 . S
C493 O503 1.272 . S
O494 Co490 2.004 . S
O494 C499 1.259 . S
Co495 O496 2.061 . S
Co495 O501 2.052 . S
Co495 O503 2.135 . S
O496 Co495 2.061 . S
O496 C499 1.235 . S
C497 O500 1.238 . S
C497 O501 1.241 . S
C498 O491 1.247 . S
C498 O492 1.261 . S
C499 O494 1.259 . S
C499 O496 1.235 . S
O500 Co490 2.021 . S
O500 C497 1.238 . S
O501 Co495 2.052 . S
O501 C497 1.241 . S
O502 Co490 2.137 . S
O502 C493 1.247 . S
O503 Co490 2.244 . S
O503 C493 1.272 . S
O503 Co495 2.135 . S
H504 C516 0.930 . S
H505 C518 0.930 . S
H506 C519 0.930 . S
H507 C523 0.959 . S
H508 C523 0.959 . S
H509 C523 0.961 . S
H510 C524 0.960 . S
H511 C524 0.961 . S
H512 C524 0.959 . S
H513 C527 0.929 . S
H514 C528 0.931 . S
H515 C530 0.930 . S
C516 H504 0.930 . S
C516 C517 1.399 . S
C516 C521 1.399 . S
C517 C516 1.399 . S
C517 C518 1.376 . S
C518 H505 0.930 . S
C518 C517 1.376 . S
C518 C519 1.388 . S
C519 H506 0.930 . S
C519 C518 1.388 . S
C519 C520 1.390 . S
C520 C519 1.390 . S
C520 C521 1.394 . S
C520 C526 1.465 . S
C521 C516 1.399 . S
C521 C520 1.394 . S
C521 C522 1.516 . S
C522 C521 1.516 . S
C522 C523 1.502 . S
C522 C524 1.561 . S
C522 C525 1.526 . S
C523 H507 0.959 . S
C523 H508 0.959 . S
C523 H509 0.961 . S
C523 C522 1.502 . S
C524 H510 0.960 . S
C524 H511 0.961 . S
C524 H512 0.959 . S
C524 C522 1.561 . S
C525 C522 1.526 . S
C525 C526 1.396 . S
C525 C530 1.390 . S
C526 C520 1.465 . S
C526 C525 1.396 . S
C526 C527 1.399 . S
C527 H513 0.929 . S
C527 C526 1.399 . S
C527 C528 1.385 . S
C528 H514 0.931 . S
C528 C527 1.385 . S
C528 C529 1.389 . S
C529 C528 1.389 . S
C529 C530 1.387 . S
C530 H515 0.930 . S
C530 C525 1.390 . S
C530 C529 1.387 . S
H531 C543 0.930 . S
H532 C545 0.930 . S
H533 C546 0.930 . S
H534 C550 0.959 . S
H535 C550 0.959 . S
H536 C550 0.961 . S
H537 C551 0.960 . S
H538 C551 0.961 . S
H539 C551 0.959 . S
H540 C554 0.929 . S
H541 C555 0.931 . S
H542 C557 0.930 . S
C543 H531 0.930 . S
C543 C544 1.399 . S
C543 C548 1.399 . S
C544 C543 1.399 . S
C544 C545 1.376 . S
C545 H532 0.930 . S
C545 C544 1.376 . S
C545 C546 1.388 . S
C546 H533 0.930 . S
C546 C545 1.388 . S
C546 C547 1.390 . S
C547 C546 1.390 . S
C547 C548 1.394 . S
C547 C553 1.465 . S
C548 C543 1.399 . S
C548 C547 1.394 . S
C548 C549 1.516 . S
C549 C548 1.516 . S
C549 C550 1.502 . S
C549 C551 1.561 . S
C549 C552 1.526 . S
C550 H534 0.959 . S
C550 H535 0.959 . S
C550 H536 0.961 . S
C550 C549 1.502 . S
C551 H537 0.960 . S
C551 H538 0.961 . S
C551 H539 0.959 . S
C551 C549 1.561 . S
C552 C549 1.526 . S
C552 C553 1.396 . S
C552 C557 1.390 . S
C553 C547 1.465 . S
C553 C552 1.396 . S
C553 C554 1.399 . S
C554 H540 0.929 . S
C554 C553 1.399 . S
C554 C555 1.385 . S
C555 H541 0.931 . S
C555 C554 1.385 . S
C555 C556 1.389 . S
C556 C555 1.389 . S
C556 C557 1.387 . S
C557 H542 0.930 . S
C557 C552 1.390 . S
C557 C556 1.387 . S
H558 C570 0.930 . S
H559 C572 0.930 . S
H560 C573 0.930 . S
H561 C577 0.959 . S
H562 C577 0.959 . S
H563 C577 0.961 . S
H564 C578 0.960 . S
H565 C578 0.961 . S
H566 C578 0.959 . S
H567 C581 0.929 . S
H568 C582 0.931 . S
H569 C584 0.930 . S
C570 H558 0.930 . S
C570 C571 1.399 . S
C570 C575 1.399 . S
C571 C570 1.399 . S
C571 C572 1.376 . S
C572 H559 0.930 . S
C572 C571 1.376 . S
C572 C573 1.388 . S
C573 H560 0.930 . S
C573 C572 1.388 . S
C573 C574 1.390 . S
C574 C573 1.390 . S
C574 C575 1.394 . S
C574 C580 1.465 . S
C575 C570 1.399 . S
C575 C574 1.394 . S
C575 C576 1.516 . S
C576 C575 1.516 . S
C576 C577 1.502 . S
C576 C578 1.561 . S
C576 C579 1.526 . S
C577 H561 0.959 . S
C577 H562 0.959 . S
C577 H563 0.961 . S
C577 C576 1.502 . S
C578 H564 0.960 . S
C578 H565 0.961 . S
C578 H566 0.959 . S
C578 C576 1.561 . S
C579 C576 1.526 . S
C579 C580 1.396 . S
C579 C584 1.390 . S
C580 C574 1.465 . S
C580 C579 1.396 . S
C580 C581 1.399 . S
C581 H567 0.929 . S
C581 C580 1.399 . S
C581 C582 1.385 . S
C582 H568 0.931 . S
C582 C581 1.385 . S
C582 C583 1.389 . S
C583 C582 1.389 . S
C583 C584 1.387 . S
C584 H569 0.930 . S
C584 C579 1.390 . S
C584 C583 1.387 . S
H585 C597 0.930 . S
H586 C599 0.930 . S
H587 C600 0.930 . S
H588 C604 0.959 . S
H589 C604 0.959 . S
H590 C604 0.961 . S
H591 C605 0.960 . S
H592 C605 0.961 . S
H593 C605 0.959 . S
H594 C608 0.929 . S
H595 C609 0.931 . S
H596 C611 0.930 . S
C597 H585 0.930 . S
C597 C598 1.399 1_554 S
C597 C602 1.399 . S
C598 C597 1.399 1_556 S
C598 C599 1.376 . S
C599 H586 0.930 . S
C599 C598 1.376 . S
C599 C600 1.388 1_556 S
C600 H587 0.930 . S
C600 C599 1.388 1_554 S
C600 C601 1.390 . S
C601 C600 1.390 . S
C601 C602 1.394 . S
C601 C607 1.465 . S
C602 C597 1.399 . S
C602 C601 1.394 . S
C602 C603 1.516 . S
C603 C602 1.516 . S
C603 C604 1.502 . S
C603 C605 1.561 . S
C603 C606 1.526 . S
C604 H588 0.959 . S
C604 H589 0.959 . S
C604 H590 0.961 . S
C604 C603 1.502 . S
C605 H591 0.960 . S
C605 H592 0.961 . S
C605 H593 0.959 . S
C605 C603 1.561 . S
C606 C603 1.526 . S
C606 C607 1.396 . S
C606 C611 1.390 . S
C607 C601 1.465 . S
C607 C606 1.396 . S
C607 C608 1.399 . S
C608 H594 0.929 . S
C608 C607 1.399 . S
C608 C609 1.385 . S
C609 H595 0.931 . S
C609 C608 1.385 . S
C609 C610 1.389 . S
C610 C609 1.389 . S
C610 C611 1.387 . S
C611 H596 0.930 . S
C611 C606 1.390 . S
C611 C610 1.387 . S
H612 C624 0.930 . S
H613 C626 0.930 . S
H614 C627 0.930 . S
H615 C631 0.959 . S
H616 C631 0.959 . S
H617 C631 0.961 . S
H618 C632 0.960 . S
H619 C632 0.961 . S
H620 C632 0.959 . S
H621 C635 0.929 . S
H622 C636 0.931 . S
H623 C638 0.930 . S
C624 H612 0.930 . S
C624 C625 1.399 . S
C624 C629 1.399 . S
C625 C624 1.399 . S
C625 C626 1.376 . S
C626 H613 0.930 . S
C626 C625 1.376 . S
C626 C627 1.388 . S
C627 H614 0.930 . S
C627 C626 1.388 . S
C627 C628 1.390 . S
C628 C627 1.390 . S
C628 C629 1.394 . S
C628 C634 1.465 . S
C629 C624 1.399 . S
C629 C628 1.394 . S
C629 C630 1.516 . S
C630 C629 1.516 . S
C630 C631 1.502 . S
C630 C632 1.561 . S
C630 C633 1.526 . S
C631 H615 0.959 . S
C631 H616 0.959 . S
C631 H617 0.961 . S
C631 C630 1.502 . S
C632 H618 0.960 . S
C632 H619 0.961 . S
C632 H620 0.959 . S
C632 C630 1.561 . S
C633 C630 1.526 . S
C633 C634 1.396 . S
C633 C638 1.390 1_554 S
C634 C628 1.465 . S
C634 C633 1.396 . S
C634 C635 1.399 . S
C635 H621 0.929 . S
C635 C634 1.399 . S
C635 C636 1.385 1_554 S
C636 H622 0.931 . S
C636 C635 1.385 1_556 S
C636 C637 1.389 . S
C637 C636 1.389 . S
C637 C638 1.387 . S
C638 H623 0.930 . S
C638 C633 1.390 1_556 S
C638 C637 1.387 . S
H639 C651 0.930 . S
H640 C653 0.930 . S
H641 C654 0.930 . S
H642 C658 0.959 . S
H643 C658 0.959 . S
H644 C658 0.961 . S
H645 C659 0.960 . S
H646 C659 0.961 . S
H647 C659 0.959 . S
H648 C662 0.929 . S
H649 C663 0.931 . S
H650 C665 0.930 1_556 S
C651 H639 0.930 . S
C651 C652 1.399 . S
C651 C656 1.399 . S
C652 C651 1.399 . S
C652 C653 1.376 . S
C653 H640 0.930 . S
C653 C652 1.376 . S
C653 C654 1.388 . S
C654 H641 0.930 . S
C654 C653 1.388 . S
C654 C655 1.390 . S
C655 C654 1.390 . S
C655 C656 1.394 . S
C655 C661 1.465 . S
C656 C651 1.399 . S
C656 C655 1.394 . S
C656 C657 1.516 . S
C657 C656 1.516 . S
C657 C658 1.502 . S
C657 C659 1.561 . S
C657 C660 1.526 . S
C658 H642 0.959 . S
C658 H643 0.959 . S
C658 H644 0.961 . S
C658 C657 1.502 . S
C659 H645 0.960 . S
C659 H646 0.961 . S
C659 H647 0.959 . S
C659 C657 1.561 . S
C660 C657 1.526 . S
C660 C661 1.396 . S
C660 C665 1.390 . S
C661 C655 1.465 . S
C661 C660 1.396 . S
C661 C662 1.399 . S
C662 H648 0.929 . S
C662 C661 1.399 . S
C662 C663 1.385 1_554 S
C663 H649 0.931 . S
C663 C662 1.385 1_556 S
C663 C664 1.389 . S
C664 C663 1.389 . S
C664 C665 1.387 1_556 S
C665 H650 0.930 1_554 S
C665 C660 1.390 . S
C665 C664 1.387 1_554 S
H666 C678 0.930 . S
H667 C680 0.930 . S
H668 C681 0.930 . S
H669 C685 0.959 . S
H670 C685 0.959 . S
H671 C685 0.961 . S
H672 C686 0.960 . S
H673 C686 0.961 . S
H674 C686 0.959 . S
H675 C689 0.929 . S
H676 C690 0.931 . S
H677 C692 0.930 . S
C678 H666 0.930 . S
C678 C679 1.399 . S
C678 C683 1.399 . S
C679 C678 1.399 . S
C679 C680 1.376 . S
C680 H667 0.930 . S
C680 C679 1.376 . S
C680 C681 1.388 . S
C681 H668 0.930 . S
C681 C680 1.388 . S
C681 C682 1.390 . S
C682 C681 1.390 . S
C682 C683 1.394 . S
C682 C688 1.465 . S
C683 C678 1.399 . S
C683 C682 1.394 . S
C683 C684 1.516 . S
C684 C683 1.516 . S
C684 C685 1.502 . S
C684 C686 1.561 . S
C684 C687 1.526 . S
C685 H669 0.959 . S
C685 H670 0.959 . S
C685 H671 0.961 . S
C685 C684 1.502 . S
C686 H672 0.960 . S
C686 H673 0.961 . S
C686 H674 0.959 . S
C686 C684 1.561 . S
C687 C684 1.526 . S
C687 C688 1.396 . S
C687 C692 1.390 . S
C688 C682 1.465 . S
C688 C687 1.396 . S
C688 C689 1.399 . S
C689 H675 0.929 . S
C689 C688 1.399 . S
C689 C690 1.385 . S
C690 H676 0.931 . S
C690 C689 1.385 . S
C690 C691 1.389 . S
C691 C690 1.389 . S
C691 C692 1.387 . S
C692 H677 0.930 . S
C692 C687 1.390 . S
C692 C691 1.387 . S
H693 C705 0.930 . S
H694 C707 0.930 . S
H695 C708 0.930 . S
H696 C712 0.959 . S
H697 C712 0.959 . S
H698 C712 0.961 . S
H699 C713 0.960 . S
H700 C713 0.961 . S
H701 C713 0.959 . S
H702 C716 0.929 . S
H703 C717 0.931 . S
H704 C719 0.930 . S
C705 H693 0.930 . S
C705 C706 1.399 . S
C705 C710 1.399 . S
C706 C705 1.399 . S
C706 C707 1.376 . S
C707 H694 0.930 . S
C707 C706 1.376 . S
C707 C708 1.388 . S
C708 H695 0.930 . S
C708 C707 1.388 . S
C708 C709 1.390 . S
C709 C708 1.390 . S
C709 C710 1.394 . S
C709 C715 1.465 . S
C710 C705 1.399 . S
C710 C709 1.394 . S
C710 C711 1.516 . S
C711 C710 1.516 . S
C711 C712 1.502 . S
C711 C713 1.561 . S
C711 C714 1.526 . S
C712 H696 0.959 . S
C712 H697 0.959 . S
C712 H698 0.961 . S
C712 C711 1.502 . S
C713 H699 0.960 . S
C713 H700 0.961 . S
C713 H701 0.959 . S
C713 C711 1.561 . S
C714 C711 1.526 . S
C714 C715 1.396 . S
C714 C719 1.390 . S
C715 C709 1.465 . S
C715 C714 1.396 . S
C715 C716 1.399 . S
C716 H702 0.929 . S
C716 C715 1.399 . S
C716 C717 1.385 . S
C717 H703 0.931 . S
C717 C716 1.385 . S
C717 C718 1.389 . S
C718 C717 1.389 . S
C718 C719 1.387 . S
C719 H704 0.930 . S
C719 C714 1.390 . S
C719 C718 1.387 . S
H720 C732 0.930 . S
H721 C734 0.930 . S
H722 C735 0.930 . S
H723 C739 0.959 . S
H724 C739 0.959 . S
H725 C739 0.961 . S
H726 C740 0.960 . S
H727 C740 0.961 . S
H728 C740 0.959 . S
H729 C743 0.929 . S
H730 C744 0.931 . S
H731 C746 0.930 . S
C732 H720 0.930 . S
C732 C733 1.399 . S
C732 C737 1.399 . S
C733 C732 1.399 . S
C733 C734 1.376 . S
C734 H721 0.930 . S
C734 C733 1.376 . S
C734 C735 1.388 . S
C735 H722 0.930 . S
C735 C734 1.388 . S
C735 C736 1.390 . S
C736 C735 1.390 . S
C736 C737 1.394 . S
C736 C742 1.465 . S
C737 C732 1.399 . S
C737 C736 1.394 . S
C737 C738 1.516 . S
C738 C737 1.516 . S
C738 C739 1.502 . S
C738 C740 1.561 . S
C738 C741 1.526 . S
C739 H723 0.959 . S
C739 H724 0.959 . S
C739 H725 0.961 . S
C739 C738 1.502 . S
C740 H726 0.960 . S
C740 H727 0.961 . S
C740 H728 0.959 . S
C740 C738 1.561 . S
C741 C738 1.526 . S
C741 C742 1.396 . S
C741 C746 1.390 . S
C742 C736 1.465 . S
C742 C741 1.396 . S
C742 C743 1.399 . S
C743 H729 0.929 . S
C743 C742 1.399 . S
C743 C744 1.385 . S
C744 H730 0.931 . S
C744 C743 1.385 . S
C744 C745 1.389 . S
C745 C744 1.389 . S
C745 C746 1.387 . S
C746 H731 0.930 . S
C746 C741 1.390 . S
C746 C745 1.387 . S
H747 C759 0.930 . S
H748 C761 0.930 . S
H749 C762 0.930 . S
H750 C766 0.959 . S
H751 C766 0.959 . S
H752 C766 0.961 . S
H753 C767 0.960 . S
H754 C767 0.961 . S
H755 C767 0.959 . S
H756 C770 0.929 . S
H757 C771 0.931 . S
H758 C773 0.927 1_554 S
C759 H747 0.930 . S
C759 C760 1.399 . S
C759 C764 1.399 . S
C760 C759 1.399 . S
C760 C761 1.376 . S
C761 H748 0.930 . S
C761 C760 1.376 . S
C761 C762 1.388 . S
C762 H749 0.930 . S
C762 C761 1.388 . S
C762 C763 1.390 . S
C763 C762 1.390 . S
C763 C764 1.394 . S
C763 C769 1.465 . S
C764 C759 1.399 . S
C764 C763 1.394 . S
C764 C765 1.516 . S
C765 C764 1.516 . S
C765 C766 1.502 . S
C765 C767 1.561 . S
C765 C768 1.526 . S
C766 H750 0.959 . S
C766 H751 0.959 . S
C766 H752 0.961 . S
C766 C765 1.502 . S
C767 H753 0.960 . S
C767 H754 0.961 . S
C767 H755 0.959 . S
C767 C765 1.561 . S
C768 C765 1.526 . S
C768 C769 1.396 . S
C768 C773 1.390 . S
C769 C763 1.465 . S
C769 C768 1.396 . S
C769 C770 1.399 . S
C770 H756 0.929 . S
C770 C769 1.399 . S
C770 C771 1.385 1_556 S
C771 H757 0.931 . S
C771 C770 1.385 1_554 S
C771 C772 1.389 . S
C772 C771 1.389 . S
C772 C773 1.387 1_554 S
C773 H758 0.927 1_556 S
C773 C768 1.390 . S
C773 C772 1.387 1_556 S
H774 C786 0.930 . S
H775 C788 0.930 . S
H776 C789 0.930 . S
H777 C793 0.959 . S
H778 C793 0.959 . S
H779 C793 0.961 . S
H780 C794 0.960 . S
H781 C794 0.961 . S
H782 C794 0.959 . S
H783 C797 0.929 . S
H784 C798 0.931 . S
H785 C800 0.930 . S
C786 H774 0.930 . S
C786 C787 1.399 . S
C786 C791 1.399 1_554 S
C787 C786 1.399 . S
C787 C788 1.376 . S
C788 H775 0.930 . S
C788 C787 1.376 . S
C788 C789 1.388 1_554 S
C789 H776 0.930 . S
C789 C788 1.388 1_556 S
C789 C790 1.390 . S
C790 C789 1.390 . S
C790 C791 1.394 . S
C790 C796 1.465 . S
C791 C786 1.399 1_556 S
C791 C790 1.394 . S
C791 C792 1.516 . S
C792 C791 1.516 . S
C792 C793 1.502 . S
C792 C794 1.561 . S
C792 C795 1.526 . S
C793 H777 0.959 . S
C793 H778 0.959 . S
C793 H779 0.961 . S
C793 C792 1.502 . S
C794 H780 0.960 . S
C794 H781 0.961 . S
C794 H782 0.959 . S
C794 C792 1.561 . S
C795 C792 1.526 . S
C795 C796 1.396 . S
C795 C800 1.390 . S
C796 C790 1.465 . S
C796 C795 1.396 . S
C796 C797 1.399 . S
C797 H783 0.929 . S
C797 C796 1.399 . S
C797 C798 1.385 . S
C798 H784 0.931 . S
C798 C797 1.385 . S
C798 C799 1.389 . S
C799 C798 1.389 . S
C799 C800 1.387 . S
C800 H785 0.930 . S
C800 C795 1.390 . S
C800 C799 1.387 . S
H801 C813 0.930 . S
H802 C815 0.930 . S
H803 C816 0.930 . S
H804 C820 0.959 . S
H805 C820 0.959 . S
H806 C820 0.961 . S
H807 C821 0.960 . S
H808 C821 0.961 . S
H809 C821 0.959 . S
H810 C824 0.929 . S
H811 C825 0.931 . S
H812 C827 0.930 . S
C813 H801 0.930 . S
C813 C814 1.399 . S
C813 C818 1.399 . S
C814 C813 1.399 . S
C814 C815 1.376 . S
C815 H802 0.930 . S
C815 C814 1.376 . S
C815 C816 1.388 . S
C816 H803 0.930 . S
C816 C815 1.388 . S
C816 C817 1.390 . S
C817 C816 1.390 . S
C817 C818 1.394 . S
C817 C823 1.465 . S
C818 C813 1.399 . S
C818 C817 1.394 . S
C818 C819 1.516 . S
C819 C818 1.516 . S
C819 C820 1.502 . S
C819 C821 1.561 . S
C819 C822 1.526 . S
C820 H804 0.959 . S
C820 H805 0.959 . S
C820 H806 0.961 . S
C820 C819 1.502 . S
C821 H807 0.960 . S
C821 H808 0.961 . S
C821 H809 0.959 . S
C821 C819 1.561 . S
C822 C819 1.526 . S
C822 C823 1.396 . S
C822 C827 1.390 1_556 S
C823 C817 1.465 . S
C823 C822 1.396 . S
C823 C824 1.399 . S
C824 H810 0.929 . S
C824 C823 1.399 . S
C824 C825 1.385 1_556 S
C825 H811 0.931 . S
C825 C824 1.385 1_554 S
C825 C826 1.389 . S
C826 C825 1.389 . S
C826 C827 1.387 . S
C827 H812 0.930 . S
C827 C822 1.390 1_554 S
C827 C826 1.387 . S
H828 C840 0.930 . S
H829 C842 0.930 . S
H830 C843 0.930 . S
H831 C847 0.959 . S
H832 C847 0.959 . S
H833 C847 0.961 . S
H834 C848 0.960 . S
H835 C848 0.965 1_455 S
H836 C848 0.959 1_455 S
H837 C851 0.929 . S
H838 C852 0.931 . S
H839 C854 0.930 . S
C840 H828 0.930 . S
C840 C841 1.399 . S
C840 C845 1.399 . S
C841 C840 1.399 . S
C841 C842 1.376 . S
C842 H829 0.930 . S
C842 C841 1.376 . S
C842 C843 1.388 . S
C843 H830 0.930 . S
C843 C842 1.388 . S
C843 C844 1.390 . S
C844 C843 1.390 . S
C844 C845 1.394 . S
C844 C850 1.465 . S
C845 C840 1.399 . S
C845 C844 1.394 . S
C845 C846 1.516 . S
C846 C845 1.516 . S
C846 C847 1.502 . S
C846 C848 1.561 . S
C846 C849 1.526 . S
C847 H831 0.959 . S
C847 H832 0.959 . S
C847 H833 0.961 . S
C847 C846 1.502 . S
C848 H834 0.960 . S
C848 H835 0.965 1_655 S
C848 H836 0.959 1_655 S
C848 C846 1.561 . S
C849 C846 1.526 . S
C849 C850 1.396 . S
C849 C854 1.390 . S
C850 C844 1.465 . S
C850 C849 1.396 . S
C850 C851 1.399 . S
C851 H837 0.929 . S
C851 C850 1.399 . S
C851 C852 1.385 . S
C852 H838 0.931 . S
C852 C851 1.385 . S
C852 C853 1.389 . S
C853 C852 1.389 . S
C853 C854 1.387 . S
C854 H839 0.930 . S
C854 C849 1.390 . S
C854 C853 1.387 . S
H855 C867 0.930 . S
H856 C869 0.930 . S
H857 C870 0.930 . S
H858 C874 0.959 . S
H859 C874 0.959 . S
H860 C874 0.961 . S
H861 C875 0.960 . S
H862 C875 0.961 . S
H863 C875 0.959 . S
H864 C878 0.929 . S
H865 C879 0.931 . S
H866 C881 0.930 . S
C867 H855 0.930 . S
C867 C868 1.399 . S
C867 C872 1.399 . S
C868 C867 1.399 . S
C868 C869 1.376 . S
C869 H856 0.930 . S
C869 C868 1.376 . S
C869 C870 1.388 . S
C870 H857 0.930 . S
C870 C869 1.388 . S
C870 C871 1.390 . S
C871 C870 1.390 . S
C871 C872 1.394 . S
C871 C877 1.465 . S
C872 C867 1.399 . S
C872 C871 1.394 . S
C872 C873 1.516 . S
C873 C872 1.516 . S
C873 C874 1.502 . S
C873 C875 1.561 . S
C873 C876 1.526 . S
C874 H858 0.959 . S
C874 H859 0.959 . S
C874 H860 0.961 . S
C874 C873 1.502 . S
C875 H861 0.960 . S
C875 H862 0.961 . S
C875 H863 0.959 . S
C875 C873 1.561 . S
C876 C873 1.526 . S
C876 C877 1.396 . S
C876 C881 1.390 . S
C877 C871 1.465 . S
C877 C876 1.396 . S
C877 C878 1.399 . S
C878 H864 0.929 . S
C878 C877 1.399 . S
C878 C879 1.385 . S
C879 H865 0.931 . S
C879 C878 1.385 . S
C879 C880 1.389 . S
C880 C879 1.389 . S
C880 C881 1.387 . S
C881 H866 0.930 . S
C881 C876 1.390 . S
C881 C880 1.387 . S
H882 C894 0.930 . S
H883 C896 0.936 . S
H884 C897 0.930 . S
H885 C901 0.959 . S
H886 C901 0.959 . S
H887 C901 0.961 . S
H888 C902 0.960 . S
H889 C902 0.961 . S
H890 C902 0.959 . S
H891 C905 0.929 1_545 S
H892 C906 0.937 . S
H893 C908 0.930 . S
C894 H882 0.930 . S
C894 C895 1.399 . S
C894 C899 1.399 . S
C895 C894 1.399 . S
C895 C896 1.370 1_565 S
C896 H883 0.936 . S
C896 C895 1.370 1_545 S
C896 C897 1.389 . S
C897 H884 0.930 . S
C897 C896 1.389 . S
C897 C898 1.390 1_545 S
C898 C897 1.390 1_565 S
C898 C899 1.394 . S
C898 C904 1.465 . S
C899 C894 1.399 . S
C899 C898 1.394 . S
C899 C900 1.516 . S
C900 C899 1.516 . S
C900 C901 1.502 . S
C900 C902 1.561 . S
C900 C903 1.526 . S
C901 H885 0.959 . S
C901 H886 0.959 . S
C901 H887 0.961 . S
C901 C900 1.502 . S
C902 H888 0.960 . S
C902 H889 0.961 . S
C902 H890 0.959 . S
C902 C900 1.561 . S
C903 C900 1.526 . S
C903 C904 1.396 . S
C903 C908 1.390 . S
C904 C898 1.465 . S
C904 C903 1.396 . S
C904 C905 1.399 . S
C905 H891 0.929 1_565 S
C905 C904 1.399 . S
C905 C906 1.385 . S
C906 H892 0.937 . S
C906 C905 1.385 . S
C906 C907 1.389 . S
C907 C906 1.389 . S
C907 C908 1.387 . S
C908 H893 0.930 . S
C908 C903 1.390 . S
C908 C907 1.387 . S
H909 C921 0.930 . S
H910 C923 0.930 . S
H911 C924 0.930 . S
H912 C928 0.959 1_545 S
H913 C928 0.959 . S
H914 C928 0.961 . S
H915 C929 0.960 . S
H916 C929 0.961 . S
H917 C929 0.959 . S
H918 C932 0.929 . S
H919 C933 0.931 . S
H920 C935 0.930 1_565 S
C921 H909 0.930 . S
C921 C922 1.399 . S
C921 C926 1.399 . S
C922 C921 1.399 . S
C922 C923 1.376 . S
C923 H910 0.930 . S
C923 C922 1.376 . S
C923 C924 1.388 . S
C924 H911 0.930 . S
C924 C923 1.388 . S
C924 C925 1.390 . S
C925 C924 1.390 . S
C925 C926 1.394 . S
C925 C931 1.465 . S
C926 C921 1.399 . S
C926 C925 1.394 . S
C926 C927 1.516 . S
C927 C926 1.516 . S
C927 C928 1.502 1_545 S
C927 C929 1.561 1_545 S
C927 C930 1.526 . S
C928 H912 0.959 1_565 S
C928 H913 0.959 . S
C928 H914 0.961 . S
C928 C927 1.502 1_565 S
C929 H915 0.960 . S
C929 H916 0.961 . S
C929 H917 0.959 . S
C929 C927 1.561 1_565 S
C930 C927 1.526 . S
C930 C931 1.396 . S
C930 C935 1.390 . S
C931 C925 1.465 . S
C931 C930 1.396 . S
C931 C932 1.399 . S
C932 H918 0.929 . S
C932 C931 1.399 . S
C932 C933 1.385 . S
C933 H919 0.931 . S
C933 C932 1.385 . S
C933 C934 1.389 . S
C934 C933 1.389 . S
C934 C935 1.387 . S
C935 H920 0.930 1_545 S
C935 C930 1.390 . S
C935 C934 1.387 . S
H936 C948 0.930 . S
H937 C950 0.930 . S
H938 C951 0.930 . S
H939 C955 0.955 . S
H940 C955 0.959 . S
H941 C955 0.961 . S
H942 C956 0.960 . S
H943 C956 0.961 . S
H944 C956 0.959 . S
H945 C959 0.929 . S
H946 C960 0.931 . S
H947 C962 0.930 . S
C948 H936 0.930 . S
C948 C949 1.399 . S
C948 C953 1.399 . S
C949 C948 1.399 . S
C949 C950 1.376 . S
C950 H937 0.930 . S
C950 C949 1.376 . S
C950 C951 1.388 . S
C951 H938 0.930 . S
C951 C950 1.388 . S
C951 C952 1.390 . S
C952 C951 1.390 . S
C952 C953 1.394 . S
C952 C958 1.465 . S
C953 C948 1.399 . S
C953 C952 1.394 . S
C953 C954 1.516 . S
C954 C953 1.516 . S
C954 C955 1.502 . S
C954 C956 1.561 . S
C954 C957 1.526 . S
C955 H939 0.955 . S
C955 H940 0.959 . S
C955 H941 0.961 . S
C955 C954 1.502 . S
C956 H942 0.960 . S
C956 H943 0.961 . S
C956 H944 0.959 . S
C956 C954 1.561 . S
C957 C954 1.526 . S
C957 C958 1.396 . S
C957 C962 1.390 . S
C958 C952 1.465 . S
C958 C957 1.396 . S
C958 C959 1.399 . S
C959 H945 0.929 . S
C959 C958 1.399 . S
C959 C960 1.385 . S
C960 H946 0.931 . S
C960 C959 1.385 . S
C960 C961 1.389 . S
C961 C960 1.389 . S
C961 C962 1.387 . S
C962 H947 0.930 . S
C962 C957 1.390 . S
C962 C961 1.387 . S
H963 C975 0.930 . S
H964 C977 0.930 . S
H965 C978 0.930 . S
H966 C982 0.959 . S
H967 C982 0.959 . S
H968 C982 0.961 . S
H969 C983 0.960 . S
H970 C983 0.961 . S
H971 C983 0.959 . S
H972 C986 0.929 . S
H973 C987 0.931 . S
H974 C989 0.930 . S
C975 H963 0.930 . S
C975 C976 1.399 . S
C975 C980 1.399 . S
C976 C975 1.399 . S
C976 C977 1.376 . S
C977 H964 0.930 . S
C977 C976 1.376 . S
C977 C978 1.388 . S
C978 H965 0.930 . S
C978 C977 1.388 . S
C978 C979 1.390 . S
C979 C978 1.390 . S
C979 C980 1.394 . S
C979 C985 1.465 . S
C980 C975 1.399 . S
C980 C979 1.394 . S
C980 C981 1.516 . S
C981 C980 1.516 . S
C981 C982 1.502 . S
C981 C983 1.561 . S
C981 C984 1.526 . S
C982 H966 0.959 . S
C982 H967 0.959 . S
C982 H968 0.961 . S
C982 C981 1.502 . S
C983 H969 0.960 . S
C983 H970 0.961 . S
C983 H971 0.959 . S
C983 C981 1.561 . S
C984 C981 1.526 . S
C984 C985 1.396 . S
C984 C989 1.390 . S
C985 C979 1.465 . S
C985 C984 1.396 . S
C985 C986 1.399 . S
C986 H972 0.929 . S
C986 C985 1.399 . S
C986 C987 1.385 . S
C987 H973 0.931 . S
C987 C986 1.385 . S
C987 C988 1.389 . S
C988 C987 1.389 . S
C988 C989 1.387 . S
C989 H974 0.930 . S
C989 C984 1.390 . S
C989 C988 1.387 . S
H990 C1002 0.930 . S
H991 C1004 0.930 . S
H992 C1005 0.930 . S
H993 C1009 0.959 . S
H994 C1009 0.959 . S
H995 C1009 0.961 . S
H996 C1010 0.960 . S
H997 C1010 0.961 . S
H998 C1010 0.959 . S
H999 C1013 0.929 . S
H1000 C1014 0.931 . S
H1001 C1016 0.930 . S
C1002 H990 0.930 . S
C1002 C1003 1.399 . S
C1002 C1007 1.399 . S
C1003 C1002 1.399 . S
C1003 C1004 1.376 . S
C1004 H991 0.930 . S
C1004 C1003 1.376 . S
C1004 C1005 1.388 . S
C1005 H992 0.930 . S
C1005 C1004 1.388 . S
C1005 C1006 1.390 . S
C1006 C1005 1.390 . S
C1006 C1007 1.394 . S
C1006 C1012 1.465 . S
C1007 C1002 1.399 . S
C1007 C1006 1.394 . S
C1007 C1008 1.516 . S
C1008 C1007 1.516 . S
C1008 C1009 1.502 . S
C1008 C1010 1.561 . S
C1008 C1011 1.526 . S
C1009 H993 0.959 . S
C1009 H994 0.959 . S
C1009 H995 0.961 . S
C1009 C1008 1.502 . S
C1010 H996 0.960 . S
C1010 H997 0.961 . S
C1010 H998 0.959 . S
C1010 C1008 1.561 . S
C1011 C1008 1.526 . S
C1011 C1012 1.396 . S
C1011 C1016 1.390 . S
C1012 C1006 1.465 . S
C1012 C1011 1.396 . S
C1012 C1013 1.399 . S
C1013 H999 0.929 . S
C1013 C1012 1.399 . S
C1013 C1014 1.385 . S
C1014 H1000 0.931 . S
C1014 C1013 1.385 . S
C1014 C1015 1.389 . S
C1015 C1014 1.389 . S
C1015 C1016 1.387 . S
C1016 H1001 0.930 . S
C1016 C1011 1.390 . S
C1016 C1015 1.387 . S
H1017 C1029 0.930 . S
H1018 C1031 0.930 . S
H1019 C1032 0.930 . S
H1020 C1036 0.959 . S
H1021 C1036 0.959 . S
H1022 C1036 0.961 . S
H1023 C1037 0.960 . S
H1024 C1037 0.961 . S
H1025 C1037 0.959 . S
H1026 C1040 0.929 . S
H1027 C1041 0.931 . S
H1028 C1043 0.930 . S
C1029 H1017 0.930 . S
C1029 C1030 1.399 . S
C1029 C1034 1.399 . S
C1030 C1029 1.399 . S
C1030 C1031 1.376 . S
C1031 H1018 0.930 . S
C1031 C1030 1.376 . S
C1031 C1032 1.388 . S
C1032 H1019 0.930 . S
C1032 C1031 1.388 . S
C1032 C1033 1.390 . S
C1033 C1032 1.390 . S
C1033 C1034 1.394 . S
C1033 C1039 1.465 . S
C1034 C1029 1.399 . S
C1034 C1033 1.394 . S
C1034 C1035 1.516 . S
C1035 C1034 1.516 . S
C1035 C1036 1.502 . S
C1035 C1037 1.561 . S
C1035 C1038 1.526 . S
C1036 H1020 0.959 . S
C1036 H1021 0.959 . S
C1036 H1022 0.961 . S
C1036 C1035 1.502 . S
C1037 H1023 0.960 . S
C1037 H1024 0.961 . S
C1037 H1025 0.959 . S
C1037 C1035 1.561 . S
C1038 C1035 1.526 . S
C1038 C1039 1.396 . S
C1038 C1043 1.390 . S
C1039 C1033 1.465 . S
C1039 C1038 1.396 . S
C1039 C1040 1.399 . S
C1040 H1026 0.929 . S
C1040 C1039 1.399 . S
C1040 C1041 1.385 . S
C1041 H1027 0.931 . S
C1041 C1040 1.385 . S
C1041 C1042 1.389 . S
C1042 C1041 1.389 . S
C1042 C1043 1.387 . S
C1043 H1028 0.930 . S
C1043 C1038 1.390 . S
C1043 C1042 1.387 . S
H1044 C1056 0.930 . S
H1045 C1058 0.930 . S
H1046 C1059 0.930 . S
H1047 C1063 0.959 . S
H1048 C1063 0.959 . S
H1049 C1063 0.961 . S
H1050 C1064 0.960 . S
H1051 C1064 0.961 . S
H1052 C1064 0.959 . S
H1053 C1067 0.929 . S
H1054 C1068 0.931 . S
H1055 C1070 0.930 . S
C1056 H1044 0.930 . S
C1056 C1057 1.399 . S
C1056 C1061 1.399 . S
C1057 C1056 1.399 . S
C1057 C1058 1.376 . S
C1058 H1045 0.930 . S
C1058 C1057 1.376 . S
C1058 C1059 1.388 . S
C1059 H1046 0.930 . S
C1059 C1058 1.388 . S
C1059 C1060 1.390 . S
C1060 C1059 1.390 . S
C1060 C1061 1.394 . S
C1060 C1066 1.465 . S
C1061 C1056 1.399 . S
C1061 C1060 1.394 . S
C1061 C1062 1.516 . S
C1062 C1061 1.516 . S
C1062 C1063 1.502 . S
C1062 C1064 1.561 . S
C1062 C1065 1.526 . S
C1063 H1047 0.959 . S
C1063 H1048 0.959 . S
C1063 H1049 0.961 . S
C1063 C1062 1.502 . S
C1064 H1050 0.960 . S
C1064 H1051 0.961 . S
C1064 H1052 0.959 . S
C1064 C1062 1.561 . S
C1065 C1062 1.526 . S
C1065 C1066 1.396 . S
C1065 C1070 1.390 . S
C1066 C1060 1.465 . S
C1066 C1065 1.396 . S
C1066 C1067 1.399 . S
C1067 H1053 0.929 . S
C1067 C1066 1.399 . S
C1067 C1068 1.385 . S
C1068 H1054 0.931 . S
C1068 C1067 1.385 . S
C1068 C1069 1.389 . S
C1069 C1068 1.389 . S
C1069 C1070 1.387 . S
C1070 H1055 0.930 . S
C1070 C1065 1.390 . S
C1070 C1069 1.387 . S
H1071 C1083 0.930 . S
H1072 C1085 0.930 . S
H1073 C1086 0.930 . S
H1074 C1090 0.959 . S
H1075 C1090 0.959 . S
H1076 C1090 0.961 . S
H1077 C1091 0.960 . S
H1078 C1091 0.961 . S
H1079 C1091 0.959 . S
H1080 C1094 0.929 . S
H1081 C1095 0.931 . S
H1082 C1097 0.930 . S
C1083 H1071 0.930 . S
C1083 C1084 1.399 . S
C1083 C1088 1.399 . S
C1084 C1083 1.399 . S
C1084 C1085 1.376 . S
C1085 H1072 0.930 . S
C1085 C1084 1.376 . S
C1085 C1086 1.388 . S
C1086 H1073 0.930 . S
C1086 C1085 1.388 . S
C1086 C1087 1.390 . S
C1087 C1086 1.390 . S
C1087 C1088 1.394 . S
C1087 C1093 1.465 . S
C1088 C1083 1.399 . S
C1088 C1087 1.394 . S
C1088 C1089 1.516 . S
C1089 C1088 1.516 . S
C1089 C1090 1.502 . S
C1089 C1091 1.561 . S
C1089 C1092 1.526 . S
C1090 H1074 0.959 . S
C1090 H1075 0.959 . S
C1090 H1076 0.961 . S
C1090 C1089 1.502 . S
C1091 H1077 0.960 . S
C1091 H1078 0.961 . S
C1091 H1079 0.959 . S
C1091 C1089 1.561 . S
C1092 C1089 1.526 . S
C1092 C1093 1.396 . S
C1092 C1097 1.390 . S
C1093 C1087 1.465 . S
C1093 C1092 1.396 . S
C1093 C1094 1.399 . S
C1094 H1080 0.929 . S
C1094 C1093 1.399 . S
C1094 C1095 1.385 . S
C1095 H1081 0.931 . S
C1095 C1094 1.385 . S
C1095 C1096 1.389 . S
C1096 C1095 1.389 . S
C1096 C1097 1.387 . S
C1097 H1082 0.930 . S
C1097 C1092 1.390 . S
C1097 C1096 1.387 . S
H1098 C1110 0.930 . S
H1099 C1112 0.930 . S
H1100 C1113 0.930 . S
H1101 C1117 0.959 . S
H1102 C1117 0.959 . S
H1103 C1117 0.961 . S
H1104 C1118 0.960 . S
H1105 C1118 0.961 . S
H1106 C1118 0.959 . S
H1107 C1121 0.929 . S
H1108 C1122 0.931 . S
H1109 C1124 0.930 . S
C1110 H1098 0.930 . S
C1110 C1111 1.399 . S
C1110 C1115 1.399 . S
C1111 C1110 1.399 . S
C1111 C1112 1.376 . S
C1112 H1099 0.930 . S
C1112 C1111 1.376 . S
C1112 C1113 1.388 . S
C1113 H1100 0.930 . S
C1113 C1112 1.388 . S
C1113 C1114 1.390 . S
C1114 C1113 1.390 . S
C1114 C1115 1.394 . S
C1114 C1120 1.465 . S
C1115 C1110 1.399 . S
C1115 C1114 1.394 . S
C1115 C1116 1.516 . S
C1116 C1115 1.516 . S
C1116 C1117 1.502 . S
C1116 C1118 1.561 . S
C1116 C1119 1.526 . S
C1117 H1101 0.959 . S
C1117 H1102 0.959 . S
C1117 H1103 0.961 . S
C1117 C1116 1.502 . S
C1118 H1104 0.960 . S
C1118 H1105 0.961 . S
C1118 H1106 0.959 . S
C1118 C1116 1.561 . S
C1119 C1116 1.526 . S
C1119 C1120 1.396 . S
C1119 C1124 1.390 . S
C1120 C1114 1.465 . S
C1120 C1119 1.396 . S
C1120 C1121 1.399 . S
C1121 H1107 0.929 . S
C1121 C1120 1.399 . S
C1121 C1122 1.385 . S
C1122 H1108 0.931 . S
C1122 C1121 1.385 . S
C1122 C1123 1.389 . S
C1123 C1122 1.389 . S
C1123 C1124 1.387 . S
C1124 H1109 0.930 . S
C1124 C1119 1.390 . S
C1124 C1123 1.387 . S
H1125 C1137 0.930 . S
H1126 C1139 0.930 . S
H1127 C1140 0.930 . S
H1128 C1144 0.959 . S
H1129 C1144 0.959 . S
H1130 C1144 0.961 . S
H1131 C1145 0.960 . S
H1132 C1145 0.961 . S
H1133 C1145 0.959 . S
H1134 C1148 0.929 . S
H1135 C1149 0.931 . S
H1136 C1151 0.930 . S
C1137 H1125 0.930 . S
C1137 C1138 1.399 . S
C1137 C1142 1.399 . S
C1138 C1137 1.399 . S
C1138 C1139 1.376 . S
C1139 H1126 0.930 . S
C1139 C1138 1.376 . S
C1139 C1140 1.388 . S
C1140 H1127 0.930 . S
C1140 C1139 1.388 . S
C1140 C1141 1.390 . S
C1141 C1140 1.390 . S
C1141 C1142 1.394 . S
C1141 C1147 1.465 . S
C1142 C1137 1.399 . S
C1142 C1141 1.394 . S
C1142 C1143 1.516 . S
C1143 C1142 1.516 . S
C1143 C1144 1.502 . S
C1143 C1145 1.561 . S
C1143 C1146 1.526 . S
C1144 H1128 0.959 . S
C1144 H1129 0.959 . S
C1144 H1130 0.961 . S
C1144 C1143 1.502 . S
C1145 H1131 0.960 . S
C1145 H1132 0.961 . S
C1145 H1133 0.959 . S
C1145 C1143 1.561 . S
C1146 C1143 1.526 . S
C1146 C1147 1.396 . S
C1146 C1151 1.390 . S
C1147 C1141 1.465 . S
C1147 C1146 1.396 . S
C1147 C1148 1.399 . S
C1148 H1134 0.929 . S
C1148 C1147 1.399 . S
C1148 C1149 1.385 . S
C1149 H1135 0.931 . S
C1149 C1148 1.385 . S
C1149 C1150 1.389 . S
C1150 C1149 1.389 . S
C1150 C1151 1.387 . S
C1151 H1136 0.930 . S
C1151 C1146 1.390 . S
C1151 C1150 1.387 . S
H1152 C1164 0.930 . S
H1153 C1166 0.930 . S
H1154 C1167 0.930 . S
H1155 C1171 0.959 . S
H1156 C1171 0.959 . S
H1157 C1171 0.961 . S
H1158 C1172 0.960 . S
H1159 C1172 0.961 . S
H1160 C1172 0.959 . S
H1161 C1175 0.929 . S
H1162 C1176 0.931 . S
H1163 C1178 0.930 . S
C1164 H1152 0.930 . S
C1164 C1165 1.399 . S
C1164 C1169 1.399 . S
C1165 C1164 1.399 . S
C1165 C1166 1.376 . S
C1166 H1153 0.930 . S
C1166 C1165 1.376 . S
C1166 C1167 1.388 . S
C1167 H1154 0.930 . S
C1167 C1166 1.388 . S
C1167 C1168 1.390 . S
C1168 C1167 1.390 . S
C1168 C1169 1.394 . S
C1168 C1174 1.465 . S
C1169 C1164 1.399 . S
C1169 C1168 1.394 . S
C1169 C1170 1.516 . S
C1170 C1169 1.516 . S
C1170 C1171 1.502 . S
C1170 C1172 1.561 . S
C1170 C1173 1.526 . S
C1171 H1155 0.959 . S
C1171 H1156 0.959 . S
C1171 H1157 0.961 . S
C1171 C1170 1.502 . S
C1172 H1158 0.960 . S
C1172 H1159 0.961 . S
C1172 H1160 0.959 . S
C1172 C1170 1.561 . S
C1173 C1170 1.526 . S
C1173 C1174 1.396 . S
C1173 C1178 1.390 . S
C1174 C1168 1.465 . S
C1174 C1173 1.396 . S
C1174 C1175 1.399 . S
C1175 H1161 0.929 . S
C1175 C1174 1.399 . S
C1175 C1176 1.385 . S
C1176 H1162 0.931 . S
C1176 C1175 1.385 . S
C1176 C1177 1.389 . S
C1177 C1176 1.389 . S
C1177 C1178 1.387 . S
C1178 H1163 0.930 . S
C1178 C1173 1.390 . S
C1178 C1177 1.387 . S
H1179 C1191 0.930 . S
H1180 C1193 0.930 . S
H1181 C1194 0.930 . S
H1182 C1198 0.959 . S
H1183 C1198 0.959 . S
H1184 C1198 0.961 . S
H1185 C1199 0.960 . S
H1186 C1199 0.961 . S
H1187 C1199 0.959 . S
H1188 C1202 0.929 . S
H1189 C1203 0.931 . S
H1190 C1205 0.930 . S
C1191 H1179 0.930 . S
C1191 C1192 1.399 . S
C1191 C1196 1.399 . S
C1192 C1191 1.399 . S
C1192 C1193 1.376 . S
C1193 H1180 0.930 . S
C1193 C1192 1.376 . S
C1193 C1194 1.388 . S
C1194 H1181 0.930 . S
C1194 C1193 1.388 . S
C1194 C1195 1.390 . S
C1195 C1194 1.390 . S
C1195 C1196 1.394 . S
C1195 C1201 1.465 . S
C1196 C1191 1.399 . S
C1196 C1195 1.394 . S
C1196 C1197 1.516 . S
C1197 C1196 1.516 . S
C1197 C1198 1.502 . S
C1197 C1199 1.561 . S
C1197 C1200 1.526 . S
C1198 H1182 0.959 . S
C1198 H1183 0.959 . S
C1198 H1184 0.961 . S
C1198 C1197 1.502 . S
C1199 H1185 0.960 . S
C1199 H1186 0.961 . S
C1199 H1187 0.959 . S
C1199 C1197 1.561 . S
C1200 C1197 1.526 . S
C1200 C1201 1.396 . S
C1200 C1205 1.390 . S
C1201 C1195 1.465 . S
C1201 C1200 1.396 . S
C1201 C1202 1.399 . S
C1202 H1188 0.929 . S
C1202 C1201 1.399 . S
C1202 C1203 1.385 . S
C1203 H1189 0.931 . S
C1203 C1202 1.385 . S
C1203 C1204 1.389 . S
C1204 C1203 1.389 . S
C1204 C1205 1.387 . S
C1205 H1190 0.930 . S
C1205 C1200 1.390 . S
C1205 C1204 1.387 . S
H1206 C1218 0.930 . S
H1207 C1220 0.930 . S
H1208 C1221 0.930 . S
H1209 C1225 0.959 . S
H1210 C1225 0.959 . S
H1211 C1225 0.961 . S
H1212 C1226 0.960 . S
H1213 C1226 0.961 . S
H1214 C1226 0.959 . S
H1215 C1229 0.929 . S
H1216 C1230 0.931 . S
H1217 C1232 0.930 . S
C1218 H1206 0.930 . S
C1218 C1219 1.399 . S
C1218 C1223 1.399 . S
C1219 C1218 1.399 . S
C1219 C1220 1.376 . S
C1220 H1207 0.930 . S
C1220 C1219 1.376 . S
C1220 C1221 1.388 . S
C1221 H1208 0.930 . S
C1221 C1220 1.388 . S
C1221 C1222 1.390 . S
C1222 C1221 1.390 . S
C1222 C1223 1.394 . S
C1222 C1228 1.465 . S
C1223 C1218 1.399 . S
C1223 C1222 1.394 . S
C1223 C1224 1.516 . S
C1224 C1223 1.516 . S
C1224 C1225 1.502 . S
C1224 C1226 1.561 . S
C1224 C1227 1.526 . S
C1225 H1209 0.959 . S
C1225 H1210 0.959 . S
C1225 H1211 0.961 . S
C1225 C1224 1.502 . S
C1226 H1212 0.960 . S
C1226 H1213 0.961 . S
C1226 H1214 0.959 . S
C1226 C1224 1.561 . S
C1227 C1224 1.526 . S
C1227 C1228 1.396 . S
C1227 C1232 1.390 . S
C1228 C1222 1.465 . S
C1228 C1227 1.396 . S
C1228 C1229 1.399 . S
C1229 H1215 0.929 . S
C1229 C1228 1.399 . S
C1229 C1230 1.385 . S
C1230 H1216 0.931 . S
C1230 C1229 1.385 . S
C1230 C1231 1.389 . S
C1231 C1230 1.389 . S
C1231 C1232 1.387 . S
C1232 H1217 0.930 . S
C1232 C1227 1.390 . S
C1232 C1231 1.387 . S
H1233 C1245 0.930 . S
H1234 C1247 0.930 . S
H1235 C1248 0.930 . S
H1236 C1252 0.959 . S
H1237 C1252 0.959 . S
H1238 C1252 0.961 . S
H1239 C1253 0.960 . S
H1240 C1253 0.961 . S
H1241 C1253 0.959 . S
H1242 C1256 0.929 . S
H1243 C1257 0.931 . S
H1244 C1259 0.930 . S
C1245 H1233 0.930 . S
C1245 C1246 1.399 . S
C1245 C1250 1.399 . S
C1246 C1245 1.399 . S
C1246 C1247 1.376 . S
C1247 H1234 0.930 . S
C1247 C1246 1.376 . S
C1247 C1248 1.388 . S
C1248 H1235 0.930 . S
C1248 C1247 1.388 . S
C1248 C1249 1.390 . S
C1249 C1248 1.390 . S
C1249 C1250 1.394 . S
C1249 C1255 1.465 . S
C1250 C1245 1.399 . S
C1250 C1249 1.394 . S
C1250 C1251 1.516 . S
C1251 C1250 1.516 . S
C1251 C1252 1.502 . S
C1251 C1253 1.561 . S
C1251 C1254 1.526 . S
C1252 H1236 0.959 . S
C1252 H1237 0.959 . S
C1252 H1238 0.961 . S
C1252 C1251 1.502 . S
C1253 H1239 0.960 . S
C1253 H1240 0.961 . S
C1253 H1241 0.959 . S
C1253 C1251 1.561 . S
C1254 C1251 1.526 . S
C1254 C1255 1.396 . S
C1254 C1259 1.390 . S
C1255 C1249 1.465 . S
C1255 C1254 1.396 . S
C1255 C1256 1.399 . S
C1256 H1242 0.929 . S
C1256 C1255 1.399 . S
C1256 C1257 1.385 . S
C1257 H1243 0.931 . S
C1257 C1256 1.385 . S
C1257 C1258 1.389 . S
C1258 C1257 1.389 . S
C1258 C1259 1.387 . S
C1259 H1244 0.930 . S
C1259 C1254 1.390 . S
C1259 C1258 1.387 . S
H1260 C1272 0.930 . S
H1261 C1274 0.930 . S
H1262 C1275 0.930 . S
H1263 C1279 0.959 . S
H1264 C1279 0.959 . S
H1265 C1279 0.961 . S
H1266 C1280 0.960 . S
H1267 C1280 0.961 . S
H1268 C1280 0.959 . S
H1269 C1283 0.929 . S
H1270 C1284 0.931 . S
H1271 C1286 0.930 . S
C1272 H1260 0.930 . S
C1272 C1273 1.399 . S
C1272 C1277 1.399 . S
C1273 C1272 1.399 . S
C1273 C1274 1.376 . S
C1274 H1261 0.930 . S
C1274 C1273 1.376 . S
C1274 C1275 1.388 . S
C1275 H1262 0.930 . S
C1275 C1274 1.388 . S
C1275 C1276 1.390 . S
C1276 C1275 1.390 . S
C1276 C1277 1.394 . S
C1276 C1282 1.465 . S
C1277 C1272 1.399 . S
C1277 C1276 1.394 . S
C1277 C1278 1.516 . S
C1278 C1277 1.516 . S
C1278 C1279 1.502 . S
C1278 C1280 1.561 . S
C1278 C1281 1.526 . S
C1279 H1263 0.959 . S
C1279 H1264 0.959 . S
C1279 H1265 0.961 . S
C1279 C1278 1.502 . S
C1280 H1266 0.960 . S
C1280 H1267 0.961 . S
C1280 H1268 0.959 . S
C1280 C1278 1.561 . S
C1281 C1278 1.526 . S
C1281 C1282 1.396 . S
C1281 C1286 1.390 . S
C1282 C1276 1.465 . S
C1282 C1281 1.396 . S
C1282 C1283 1.399 . S
C1283 H1269 0.929 . S
C1283 C1282 1.399 . S
C1283 C1284 1.385 . S
C1284 H1270 0.931 . S
C1284 C1283 1.385 . S
C1284 C1285 1.389 . S
C1285 C1284 1.389 . S
C1285 C1286 1.387 . S
C1286 H1271 0.930 . S
C1286 C1281 1.390 . S
C1286 C1285 1.387 . S
H1287 C1299 0.930 . S
H1288 C1301 0.930 . S
H1289 C1302 0.930 . S
H1290 C1306 0.959 . S
H1291 C1306 0.959 . S
H1292 C1306 0.961 . S
H1293 C1307 0.960 . S
H1294 C1307 0.961 . S
H1295 C1307 0.959 . S
H1296 C1310 0.929 . S
H1297 C1311 0.931 . S
H1298 C1313 0.930 . S
C1299 H1287 0.930 . S
C1299 C1300 1.399 . S
C1299 C1304 1.399 . S
C1300 C1299 1.399 . S
C1300 C1301 1.376 . S
C1301 H1288 0.930 . S
C1301 C1300 1.376 . S
C1301 C1302 1.388 . S
C1302 H1289 0.930 . S
C1302 C1301 1.388 . S
C1302 C1303 1.390 . S
C1303 C1302 1.390 . S
C1303 C1304 1.394 . S
C1303 C1309 1.465 . S
C1304 C1299 1.399 . S
C1304 C1303 1.394 . S
C1304 C1305 1.516 . S
C1305 C1304 1.516 . S
C1305 C1306 1.502 . S
C1305 C1307 1.561 . S
C1305 C1308 1.526 . S
C1306 H1290 0.959 . S
C1306 H1291 0.959 . S
C1306 H1292 0.961 . S
C1306 C1305 1.502 . S
C1307 H1293 0.960 . S
C1307 H1294 0.961 . S
C1307 H1295 0.959 . S
C1307 C1305 1.561 . S
C1308 C1305 1.526 . S
C1308 C1309 1.396 . S
C1308 C1313 1.390 . S
C1309 C1303 1.465 . S
C1309 C1308 1.396 . S
C1309 C1310 1.399 . S
C1310 H1296 0.929 . S
C1310 C1309 1.399 . S
C1310 C1311 1.385 . S
C1311 H1297 0.931 . S
C1311 C1310 1.385 . S
C1311 C1312 1.389 . S
C1312 C1311 1.389 . S
C1312 C1313 1.387 . S
C1313 H1298 0.930 . S
C1313 C1308 1.390 . S
C1313 C1312 1.387 . S
H1314 C1326 0.930 . S
H1315 C1328 0.945 . S
H1316 C1329 0.930 . S
H1317 C1333 0.959 . S
H1318 C1333 0.959 . S
H1319 C1333 0.961 . S
H1320 C1334 0.960 . S
H1321 C1334 0.961 . S
H1322 C1334 0.959 . S
H1323 C1337 0.929 . S
H1324 C1338 0.931 . S
H1325 C1340 0.930 . S
C1326 H1314 0.930 . S
C1326 C1327 1.399 . S
C1326 C1331 1.399 . S
C1327 C1326 1.399 . S
C1327 C1328 1.401 . S
C1328 H1315 0.945 . S
C1328 C1327 1.401 . S
C1328 C1329 1.346 1_455 S
C1329 H1316 0.930 . S
C1329 C1328 1.346 1_655 S
C1329 C1330 1.390 . S
C1330 C1329 1.390 . S
C1330 C1331 1.394 1_655 S
C1330 C1336 1.465 . S
C1331 C1326 1.399 . S
C1331 C1330 1.394 1_455 S
C1331 C1332 1.539 . S
C1332 C1331 1.539 . S
C1332 C1333 1.536 . S
C1332 C1334 1.525 1_455 S
C1332 C1335 1.503 1_455 S
C1333 H1317 0.959 . S
C1333 H1318 0.959 . S
C1333 H1319 0.961 . S
C1333 C1332 1.536 . S
C1334 H1320 0.960 . S
C1334 H1321 0.961 . S
C1334 H1322 0.959 . S
C1334 C1332 1.525 1_655 S
C1335 C1332 1.503 1_655 S
C1335 C1336 1.396 . S
C1335 C1340 1.390 . S
C1336 C1330 1.465 . S
C1336 C1335 1.396 . S
C1336 C1337 1.399 . S
C1337 H1323 0.929 . S
C1337 C1336 1.399 . S
C1337 C1338 1.385 . S
C1338 H1324 0.931 . S
C1338 C1337 1.385 . S
C1338 C1339 1.389 . S
C1339 C1338 1.389 . S
C1339 C1340 1.387 . S
C1340 H1325 0.930 . S
C1340 C1335 1.390 . S
C1340 C1339 1.387 . S
H1341 C1353 0.930 . S
H1342 C1355 0.930 . S
H1343 C1356 0.930 . S
H1344 C1360 0.959 . S
H1345 C1360 0.959 . S
H1346 C1360 0.961 . S
H1347 C1361 0.960 . S
H1348 C1361 0.961 . S
H1349 C1361 0.959 . S
H1350 C1364 0.929 . S
H1351 C1365 0.931 . S
H1352 C1367 0.930 . S
C1353 H1341 0.930 . S
C1353 C1354 1.399 . S
C1353 C1358 1.399 . S
C1354 C1353 1.399 . S
C1354 C1355 1.376 . S
C1355 H1342 0.930 . S
C1355 C1354 1.376 . S
C1355 C1356 1.388 . S
C1356 H1343 0.930 . S
C1356 C1355 1.388 . S
C1356 C1357 1.390 . S
C1357 C1356 1.390 . S
C1357 C1358 1.394 . S
C1357 C1363 1.465 . S
C1358 C1353 1.399 . S
C1358 C1357 1.394 . S
C1358 C1359 1.516 . S
C1359 C1358 1.516 . S
C1359 C1360 1.502 . S
C1359 C1361 1.561 . S
C1359 C1362 1.526 . S
C1360 H1344 0.959 . S
C1360 H1345 0.959 . S
C1360 H1346 0.961 . S
C1360 C1359 1.502 . S
C1361 H1347 0.960 . S
C1361 H1348 0.961 . S
C1361 H1349 0.959 . S
C1361 C1359 1.561 . S
C1362 C1359 1.526 . S
C1362 C1363 1.396 . S
C1362 C1367 1.390 . S
C1363 C1357 1.465 . S
C1363 C1362 1.396 . S
C1363 C1364 1.399 . S
C1364 H1350 0.929 . S
C1364 C1363 1.399 . S
C1364 C1365 1.385 . S
C1365 H1351 0.931 . S
C1365 C1364 1.385 . S
C1365 C1366 1.389 . S
C1366 C1365 1.389 . S
C1366 C1367 1.387 . S
C1367 H1352 0.930 . S
C1367 C1362 1.390 . S
C1367 C1366 1.387 . S
H1368 C1380 0.930 . S
H1369 C1382 0.930 . S
H1370 C1383 0.930 . S
H1371 C1387 0.959 . S
H1372 C1387 0.959 . S
H1373 C1387 0.961 . S
H1374 C1388 0.960 . S
H1375 C1388 0.961 . S
H1376 C1388 0.959 . S
H1377 C1391 0.929 1_545 S
H1378 C1392 0.931 . S
H1379 C1394 0.930 . S
C1380 H1368 0.930 . S
C1380 C1381 1.399 . S
C1380 C1385 1.399 . S
C1381 C1380 1.399 . S
C1381 C1382 1.376 . S
C1382 H1369 0.930 . S
C1382 C1381 1.376 . S
C1382 C1383 1.388 . S
C1383 H1370 0.930 . S
C1383 C1382 1.388 . S
C1383 C1384 1.390 . S
C1384 C1383 1.390 . S
C1384 C1385 1.394 . S
C1384 C1390 1.465 1_545 S
C1385 C1380 1.399 . S
C1385 C1384 1.394 . S
C1385 C1386 1.516 1_545 S
C1386 C1385 1.516 1_565 S
C1386 C1387 1.502 . S
C1386 C1388 1.561 . S
C1386 C1389 1.526 . S
C1387 H1371 0.959 . S
C1387 H1372 0.959 . S
C1387 H1373 0.961 . S
C1387 C1386 1.502 . S
C1388 H1374 0.960 . S
C1388 H1375 0.961 . S
C1388 H1376 0.959 . S
C1388 C1386 1.561 . S
C1389 C1386 1.526 . S
C1389 C1390 1.396 . S
C1389 C1394 1.390 . S
C1390 C1384 1.465 1_565 S
C1390 C1389 1.396 . S
C1390 C1391 1.399 . S
C1391 H1377 0.929 1_565 S
C1391 C1390 1.399 . S
C1391 C1392 1.385 . S
C1392 H1378 0.931 . S
C1392 C1391 1.385 . S
C1392 C1393 1.389 . S
C1393 C1392 1.389 . S
C1393 C1394 1.387 . S
C1394 H1379 0.930 . S
C1394 C1389 1.390 . S
C1394 C1393 1.387 . S
H1395 C1407 0.930 . S
H1396 C1409 0.930 . S
H1397 C1410 0.930 . S
H1398 C1414 0.959 . S
H1399 C1414 0.959 . S
H1400 C1414 0.961 . S
H1401 C1415 0.960 . S
H1402 C1415 0.961 . S
H1403 C1415 0.959 . S
H1404 C1418 0.929 . S
H1405 C1419 0.931 . S
H1406 C1421 0.930 . S
C1407 H1395 0.930 . S
C1407 C1408 1.399 . S
C1407 C1412 1.399 . S
C1408 C1407 1.399 . S
C1408 C1409 1.376 1_546 S
C1409 H1396 0.930 . S
C1409 C1408 1.376 1_564 S
C1409 C1410 1.388 . S
C1410 H1397 0.930 . S
C1410 C1409 1.388 . S
C1410 C1411 1.390 . S
C1411 C1410 1.390 . S
C1411 C1412 1.394 1_564 S
C1411 C1417 1.465 . S
C1412 C1407 1.399 . S
C1412 C1411 1.394 1_546 S
C1412 C1413 1.516 . S
C1413 C1412 1.516 . S
C1413 C1414 1.502 . S
C1413 C1415 1.561 1_556 S
C1413 C1416 1.526 . S
C1414 H1398 0.959 . S
C1414 H1399 0.959 . S
C1414 H1400 0.961 . S
C1414 C1413 1.502 . S
C1415 H1401 0.960 . S
C1415 H1402 0.961 . S
C1415 H1403 0.959 . S
C1415 C1413 1.561 1_554 S
C1416 C1413 1.526 . S
C1416 C1417 1.396 1_546 S
C1416 C1421 1.390 . S
C1417 C1411 1.465 . S
C1417 C1416 1.396 1_564 S
C1417 C1418 1.399 . S
C1418 H1404 0.929 . S
C1418 C1417 1.399 . S
C1418 C1419 1.385 . S
C1419 H1405 0.931 . S
C1419 C1418 1.385 . S
C1419 C1420 1.389 . S
C1420 C1419 1.389 . S
C1420 C1421 1.387 1_564 S
C1421 H1406 0.930 . S
C1421 C1416 1.390 . S
C1421 C1420 1.387 1_546 S
H1422 C1434 0.930 . S
H1423 C1436 0.930 . S
H1424 C1437 0.930 . S
H1425 C1441 0.959 . S
H1426 C1441 0.959 . S
H1427 C1441 0.961 . S
H1428 C1442 0.960 . S
H1429 C1442 0.961 1_655 S
H1430 C1442 0.959 . S
H1431 C1445 0.929 . S
H1432 C1446 0.931 . S
H1433 C1448 0.930 . S
C1434 H1422 0.930 . S
C1434 C1435 1.399 1_556 S
C1434 C1439 1.399 . S
C1435 C1434 1.399 1_554 S
C1435 C1436 1.376 . S
C1436 H1423 0.930 . S
C1436 C1435 1.376 . S
C1436 C1437 1.388 . S
C1437 H1424 0.930 . S
C1437 C1436 1.388 . S
C1437 C1438 1.390 . S
C1438 C1437 1.390 . S
C1438 C1439 1.394 1_554 S
C1438 C1444 1.465 1_455 S
C1439 C1434 1.399 . S
C1439 C1438 1.394 1_556 S
C1439 C1440 1.516 1_455 S
C1440 C1439 1.516 1_655 S
C1440 C1441 1.502 . S
C1440 C1442 1.561 1_655 S
C1440 C1443 1.526 . S
C1441 H1425 0.959 . S
C1441 H1426 0.959 . S
C1441 H1427 0.961 . S
C1441 C1440 1.502 . S
C1442 H1428 0.960 . S
C1442 H1429 0.961 1_455 S
C1442 H1430 0.959 . S
C1442 C1440 1.561 1_455 S
C1443 C1440 1.526 . S
C1443 C1444 1.396 1_556 S
C1443 C1448 1.390 . S
C1444 C1438 1.465 1_655 S
C1444 C1443 1.396 1_554 S
C1444 C1445 1.399 . S
C1445 H1431 0.929 . S
C1445 C1444 1.399 . S
C1445 C1446 1.385 . S
C1446 H1432 0.931 . S
C1446 C1445 1.385 . S
C1446 C1447 1.389 . S
C1447 C1446 1.389 . S
C1447 C1448 1.387 1_554 S
C1448 H1433 0.930 . S
C1448 C1443 1.390 . S
C1448 C1447 1.387 1_556 S
H1449 C1461 0.930 . S
H1450 C1463 0.930 . S
H1451 C1464 0.930 . S
H1452 C1468 0.959 . S
H1453 C1468 0.959 . S
H1454 C1468 0.961 . S
H1455 C1469 0.960 . S
H1456 C1469 0.961 . S
H1457 C1469 0.959 . S
H1458 C1472 0.929 . S
H1459 C1473 0.931 . S
H1460 C1475 0.930 . S
C1461 H1449 0.930 . S
C1461 C1462 1.399 1_554 S
C1461 C1466 1.399 . S
C1462 C1461 1.399 1_556 S
C1462 C1463 1.376 . S
C1463 H1450 0.930 . S
C1463 C1462 1.376 . S
C1463 C1464 1.388 . S
C1464 H1451 0.930 . S
C1464 C1463 1.388 . S
C1464 C1465 1.390 . S
C1465 C1464 1.390 . S
C1465 C1466 1.394 1_556 S
C1465 C1471 1.465 . S
C1466 C1461 1.399 . S
C1466 C1465 1.394 1_554 S
C1466 C1467 1.516 . S
C1467 C1466 1.516 . S
C1467 C1468 1.502 . S
C1467 C1469 1.561 . S
C1467 C1470 1.526 . S
C1468 H1452 0.959 . S
C1468 H1453 0.959 . S
C1468 H1454 0.961 . S
C1468 C1467 1.502 . S
C1469 H1455 0.960 . S
C1469 H1456 0.961 . S
C1469 H1457 0.959 . S
C1469 C1467 1.561 . S
C1470 C1467 1.526 . S
C1470 C1471 1.396 1_554 S
C1470 C1475 1.390 . S
C1471 C1465 1.465 . S
C1471 C1470 1.396 1_556 S
C1471 C1472 1.399 . S
C1472 H1458 0.929 . S
C1472 C1471 1.399 . S
C1472 C1473 1.385 . S
C1473 H1459 0.931 . S
C1473 C1472 1.385 . S
C1473 C1474 1.389 . S
C1474 C1473 1.389 . S
C1474 C1475 1.387 1_556 S
C1475 H1460 0.930 . S
C1475 C1470 1.390 . S
C1475 C1474 1.387 1_554 S
H1476 C1488 0.930 . S
H1477 C1490 0.930 1_556 S
H1478 C1491 0.930 . S
H1479 C1495 0.959 . S
H1480 C1495 0.959 . S
H1481 C1495 0.961 . S
H1482 C1496 0.960 . S
H1483 C1496 0.961 . S
H1484 C1496 0.959 . S
H1485 C1499 0.929 . S
H1486 C1500 0.931 . S
H1487 C1502 0.930 . S
C1488 H1476 0.930 . S
C1488 C1489 1.399 . S
C1488 C1493 1.399 . S
C1489 C1488 1.399 . S
C1489 C1490 1.376 . S
C1490 H1477 0.930 1_554 S
C1490 C1489 1.376 . S
C1490 C1491 1.388 . S
C1491 H1478 0.930 . S
C1491 C1490 1.388 . S
C1491 C1492 1.390 . S
C1492 C1491 1.390 . S
C1492 C1493 1.394 . S
C1492 C1498 1.465 . S
C1493 C1488 1.399 . S
C1493 C1492 1.394 . S
C1493 C1494 1.516 . S
C1494 C1493 1.516 . S
C1494 C1495 1.502 . S
C1494 C1496 1.561 . S
C1494 C1497 1.526 . S
C1495 H1479 0.959 . S
C1495 H1480 0.959 . S
C1495 H1481 0.961 . S
C1495 C1494 1.502 . S
C1496 H1482 0.960 . S
C1496 H1483 0.961 . S
C1496 H1484 0.959 . S
C1496 C1494 1.561 . S
C1497 C1494 1.526 . S
C1497 C1498 1.396 . S
C1497 C1502 1.390 . S
C1498 C1492 1.465 . S
C1498 C1497 1.396 . S
C1498 C1499 1.399 . S
C1499 H1485 0.929 . S
C1499 C1498 1.399 . S
C1499 C1500 1.385 . S
C1500 H1486 0.931 . S
C1500 C1499 1.385 . S
C1500 C1501 1.389 . S
C1501 C1500 1.389 . S
C1501 C1502 1.387 . S
C1502 H1487 0.930 . S
C1502 C1497 1.390 . S
C1502 C1501 1.387 . S
H1503 C1515 0.930 . S
H1504 C1517 0.930 . S
H1505 C1518 0.930 . S
H1506 C1522 0.959 . S
H1507 C1522 0.959 . S
H1508 C1522 0.961 . S
H1509 C1523 0.960 . S
H1510 C1523 0.961 . S
H1511 C1523 0.959 . S
H1512 C1526 0.929 1_556 S
H1513 C1527 0.931 . S
H1514 C1529 0.930 . S
C1515 H1503 0.930 . S
C1515 C1516 1.399 . S
C1515 C1520 1.399 . S
C1516 C1515 1.399 . S
C1516 C1517 1.376 . S
C1517 H1504 0.930 . S
C1517 C1516 1.376 . S
C1517 C1518 1.388 . S
C1518 H1505 0.930 . S
C1518 C1517 1.388 . S
C1518 C1519 1.390 . S
C1519 C1518 1.390 . S
C1519 C1520 1.394 . S
C1519 C1525 1.465 . S
C1520 C1515 1.399 . S
C1520 C1519 1.394 . S
C1520 C1521 1.516 . S
C1521 C1520 1.516 . S
C1521 C1522 1.502 . S
C1521 C1523 1.561 . S
C1521 C1524 1.526 . S
C1522 H1506 0.959 . S
C1522 H1507 0.959 . S
C1522 H1508 0.961 . S
C1522 C1521 1.502 . S
C1523 H1509 0.960 . S
C1523 H1510 0.961 . S
C1523 H1511 0.959 . S
C1523 C1521 1.561 . S
C1524 C1521 1.526 . S
C1524 C1525 1.396 . S
C1524 C1529 1.390 . S
C1525 C1519 1.465 . S
C1525 C1524 1.396 . S
C1525 C1526 1.399 . S
C1526 H1512 0.929 1_554 S
C1526 C1525 1.399 . S
C1526 C1527 1.385 1_554 S
C1527 H1513 0.931 . S
C1527 C1526 1.385 1_556 S
C1527 C1528 1.389 1_556 S
C1528 C1527 1.389 1_554 S
C1528 C1529 1.387 . S
C1529 H1514 0.930 . S
C1529 C1524 1.390 . S
C1529 C1528 1.387 . S
H1530 C1542 0.930 . S
H1531 C1544 0.930 . S
H1532 C1545 0.930 . S
H1533 C1549 0.959 . S
H1534 C1549 0.959 . S
H1535 C1549 0.961 . S
H1536 C1550 0.960 . S
H1537 C1550 0.961 . S
H1538 C1550 0.959 . S
H1539 C1553 0.929 . S
H1540 C1554 0.931 . S
H1541 C1556 0.930 . S
C1542 H1530 0.930 . S
C1542 C1543 1.399 . S
C1542 C1547 1.399 . S
C1543 C1542 1.399 . S
C1543 C1544 1.376 . S
C1544 H1531 0.930 . S
C1544 C1543 1.376 . S
C1544 C1545 1.388 . S
C1545 H1532 0.930 . S
C1545 C1544 1.388 . S
C1545 C1546 1.390 . S
C1546 C1545 1.390 . S
C1546 C1547 1.394 . S
C1546 C1552 1.465 . S
C1547 C1542 1.399 . S
C1547 C1546 1.394 . S
C1547 C1548 1.516 . S
C1548 C1547 1.516 . S
C1548 C1549 1.502 . S
C1548 C1550 1.561 . S
C1548 C1551 1.526 . S
C1549 H1533 0.959 . S
C1549 H1534 0.959 . S
C1549 H1535 0.961 . S
C1549 C1548 1.502 . S
C1550 H1536 0.960 . S
C1550 H1537 0.961 . S
C1550 H1538 0.959 . S
C1550 C1548 1.561 . S
C1551 C1548 1.526 . S
C1551 C1552 1.396 . S
C1551 C1556 1.390 . S
C1552 C1546 1.465 . S
C1552 C1551 1.396 . S
C1552 C1553 1.399 . S
C1553 H1539 0.929 . S
C1553 C1552 1.399 . S
C1553 C1554 1.385 . S
C1554 H1540 0.931 . S
C1554 C1553 1.385 . S
C1554 C1555 1.389 . S
C1555 C1554 1.389 . S
C1555 C1556 1.387 . S
C1556 H1541 0.930 . S
C1556 C1551 1.390 . S
C1556 C1555 1.387 . S
H1557 C1569 0.930 . S
H1558 C1571 0.930 . S
H1559 C1572 0.930 . S
H1560 C1576 0.959 . S
H1561 C1576 0.959 . S
H1562 C1576 0.961 . S
H1563 C1577 0.960 . S
H1564 C1577 0.961 . S
H1565 C1577 0.959 . S
H1566 C1580 0.929 . S
H1567 C1581 0.931 . S
H1568 C1583 0.930 . S
C1569 H1557 0.930 . S
C1569 C1570 1.399 . S
C1569 C1574 1.399 . S
C1570 C1569 1.399 . S
C1570 C1571 1.376 . S
C1571 H1558 0.930 . S
C1571 C1570 1.376 . S
C1571 C1572 1.388 . S
C1572 H1559 0.930 . S
C1572 C1571 1.388 . S
C1572 C1573 1.390 . S
C1573 C1572 1.390 . S
C1573 C1574 1.394 . S
C1573 C1579 1.465 . S
C1574 C1569 1.399 . S
C1574 C1573 1.394 . S
C1574 C1575 1.516 . S
C1575 C1574 1.516 . S
C1575 C1576 1.502 . S
C1575 C1577 1.561 . S
C1575 C1578 1.526 . S
C1576 H1560 0.959 . S
C1576 H1561 0.959 . S
C1576 H1562 0.961 . S
C1576 C1575 1.502 . S
C1577 H1563 0.960 . S
C1577 H1564 0.961 . S
C1577 H1565 0.959 . S
C1577 C1575 1.561 . S
C1578 C1575 1.526 . S
C1578 C1579 1.396 . S
C1578 C1583 1.390 . S
C1579 C1573 1.465 . S
C1579 C1578 1.396 . S
C1579 C1580 1.399 . S
C1580 H1566 0.929 . S
C1580 C1579 1.399 . S
C1580 C1581 1.385 . S
C1581 H1567 0.931 . S
C1581 C1580 1.385 . S
C1581 C1582 1.389 . S
C1582 C1581 1.389 . S
C1582 C1583 1.387 . S
C1583 H1568 0.930 . S
C1583 C1578 1.390 . S
C1583 C1582 1.387 . S
H1584 C1596 0.930 . S
H1585 C1598 0.930 . S
H1586 C1599 0.930 . S
H1587 C1603 0.959 . S
H1588 C1603 0.959 . S
H1589 C1603 0.961 . S
H1590 C1604 0.960 . S
H1591 C1604 0.961 . S
H1592 C1604 0.959 . S
H1593 C1607 0.929 . S
H1594 C1608 0.931 . S
H1595 C1610 0.930 . S
C1596 H1584 0.930 . S
C1596 C1597 1.399 . S
C1596 C1601 1.399 . S
C1597 C1596 1.399 . S
C1597 C1598 1.376 . S
C1598 H1585 0.930 . S
C1598 C1597 1.376 . S
C1598 C1599 1.388 . S
C1599 H1586 0.930 . S
C1599 C1598 1.388 . S
C1599 C1600 1.390 . S
C1600 C1599 1.390 . S
C1600 C1601 1.394 . S
C1600 C1606 1.465 . S
C1601 C1596 1.399 . S
C1601 C1600 1.394 . S
C1601 C1602 1.516 . S
C1602 C1601 1.516 . S
C1602 C1603 1.502 . S
C1602 C1604 1.561 . S
C1602 C1605 1.526 . S
C1603 H1587 0.959 . S
C1603 H1588 0.959 . S
C1603 H1589 0.961 . S
C1603 C1602 1.502 . S
C1604 H1590 0.960 . S
C1604 H1591 0.961 . S
C1604 H1592 0.959 . S
C1604 C1602 1.561 . S
C1605 C1602 1.526 . S
C1605 C1606 1.396 . S
C1605 C1610 1.390 . S
C1606 C1600 1.465 . S
C1606 C1605 1.396 . S
C1606 C1607 1.399 . S
C1607 H1593 0.929 . S
C1607 C1606 1.399 . S
C1607 C1608 1.385 . S
C1608 H1594 0.931 . S
C1608 C1607 1.385 . S
C1608 C1609 1.389 . S
C1609 C1608 1.389 . S
C1609 C1610 1.387 . S
C1610 H1595 0.930 . S
C1610 C1605 1.390 . S
C1610 C1609 1.387 . S
H1611 C1623 0.930 . S
H1612 C1625 0.930 . S
H1613 C1626 0.930 . S
H1614 C1630 0.959 . S
H1615 C1630 0.959 . S
H1616 C1630 0.961 . S
H1617 C1631 0.960 . S
H1618 C1631 0.961 . S
H1619 C1631 0.959 . S
H1620 C1634 0.929 . S
H1621 C1635 0.931 . S
H1622 C1637 0.930 . S
C1623 H1611 0.930 . S
C1623 C1624 1.399 . S
C1623 C1628 1.399 . S
C1624 C1623 1.399 . S
C1624 C1625 1.376 . S
C1625 H1612 0.930 . S
C1625 C1624 1.376 . S
C1625 C1626 1.388 . S
C1626 H1613 0.930 . S
C1626 C1625 1.388 . S
C1626 C1627 1.390 . S
C1627 C1626 1.390 . S
C1627 C1628 1.394 . S
C1627 C1633 1.465 . S
C1628 C1623 1.399 . S
C1628 C1627 1.394 . S
C1628 C1629 1.516 . S
C1629 C1628 1.516 . S
C1629 C1630 1.502 . S
C1629 C1631 1.561 . S
C1629 C1632 1.526 . S
C1630 H1614 0.959 . S
C1630 H1615 0.959 . S
C1630 H1616 0.961 . S
C1630 C1629 1.502 . S
C1631 H1617 0.960 . S
C1631 H1618 0.961 . S
C1631 H1619 0.959 . S
C1631 C1629 1.561 . S
C1632 C1629 1.526 . S
C1632 C1633 1.396 . S
C1632 C1637 1.390 . S
C1633 C1627 1.465 . S
C1633 C1632 1.396 . S
C1633 C1634 1.399 . S
C1634 H1620 0.929 . S
C1634 C1633 1.399 . S
C1634 C1635 1.385 . S
C1635 H1621 0.931 . S
C1635 C1634 1.385 . S
C1635 C1636 1.389 . S
C1636 C1635 1.389 . S
C1636 C1637 1.387 . S
C1637 H1622 0.930 . S
C1637 C1632 1.390 . S
C1637 C1636 1.387 . S
H1638 C1650 0.930 1_554 S
H1639 C1652 0.930 . S
H1640 C1653 0.930 . S
H1641 C1657 0.959 1_556 S
H1642 C1657 0.959 . S
H1643 C1657 0.961 . S
H1644 C1658 0.960 . S
H1645 C1658 0.961 . S
H1646 C1658 0.959 1_556 S
H1647 C1661 0.929 . S
H1648 C1662 0.931 . S
H1649 C1664 0.930 . S
C1650 H1638 0.930 1_556 S
C1650 C1651 1.399 . S
C1650 C1655 1.399 . S
C1651 C1650 1.399 . S
C1651 C1652 1.376 . S
C1652 H1639 0.930 . S
C1652 C1651 1.376 . S
C1652 C1653 1.388 . S
C1653 H1640 0.930 . S
C1653 C1652 1.388 . S
C1653 C1654 1.390 . S
C1654 C1653 1.390 . S
C1654 C1655 1.394 . S
C1654 C1660 1.465 . S
C1655 C1650 1.399 . S
C1655 C1654 1.394 . S
C1655 C1656 1.516 . S
C1656 C1655 1.516 . S
C1656 C1657 1.502 1_556 S
C1656 C1658 1.561 1_556 S
C1656 C1659 1.526 . S
C1657 H1641 0.959 1_554 S
C1657 H1642 0.959 . S
C1657 H1643 0.961 . S
C1657 C1656 1.502 1_554 S
C1658 H1644 0.960 . S
C1658 H1645 0.961 . S
C1658 H1646 0.959 1_554 S
C1658 C1656 1.561 1_554 S
C1659 C1656 1.526 . S
C1659 C1660 1.396 . S
C1659 C1664 1.390 . S
C1660 C1654 1.465 . S
C1660 C1659 1.396 . S
C1660 C1661 1.399 . S
C1661 H1647 0.929 . S
C1661 C1660 1.399 . S
C1661 C1662 1.385 . S
C1662 H1648 0.931 . S
C1662 C1661 1.385 . S
C1662 C1663 1.389 . S
C1663 C1662 1.389 . S
C1663 C1664 1.387 . S
C1664 H1649 0.930 . S
C1664 C1659 1.390 . S
C1664 C1663 1.387 . S
H1665 C1677 0.930 . S
H1666 C1679 0.930 . S
H1667 C1680 0.930 . S
H1668 C1684 0.959 . S
H1669 C1684 0.959 . S
H1670 C1684 0.961 . S
H1671 C1685 0.960 . S
H1672 C1685 0.961 . S
H1673 C1685 0.959 . S
H1674 C1688 0.929 . S
H1675 C1689 0.931 . S
H1676 C1691 0.930 . S
C1677 H1665 0.930 . S
C1677 C1678 1.399 . S
C1677 C1682 1.399 . S
C1678 C1677 1.399 . S
C1678 C1679 1.376 . S
C1679 H1666 0.930 . S
C1679 C1678 1.376 . S
C1679 C1680 1.388 . S
C1680 H1667 0.930 . S
C1680 C1679 1.388 . S
C1680 C1681 1.390 . S
C1681 C1680 1.390 . S
C1681 C1682 1.394 . S
C1681 C1687 1.465 . S
C1682 C1677 1.399 . S
C1682 C1681 1.394 . S
C1682 C1683 1.516 . S
C1683 C1682 1.516 . S
C1683 C1684 1.502 . S
C1683 C1685 1.561 . S
C1683 C1686 1.526 . S
C1684 H1668 0.959 . S
C1684 H1669 0.959 . S
C1684 H1670 0.961 . S
C1684 C1683 1.502 . S
C1685 H1671 0.960 . S
C1685 H1672 0.961 . S
C1685 H1673 0.959 . S
C1685 C1683 1.561 . S
C1686 C1683 1.526 . S
C1686 C1687 1.396 . S
C1686 C1691 1.390 . S
C1687 C1681 1.465 . S
C1687 C1686 1.396 . S
C1687 C1688 1.399 . S
C1688 H1674 0.929 . S
C1688 C1687 1.399 . S
C1688 C1689 1.385 . S
C1689 H1675 0.931 . S
C1689 C1688 1.385 . S
C1689 C1690 1.389 . S
C1690 C1689 1.389 . S
C1690 C1691 1.387 . S
C1691 H1676 0.930 . S
C1691 C1686 1.390 . S
C1691 C1690 1.387 . S
H1692 C1704 0.930 1_554 S
H1693 C1706 0.930 . S
H1694 C1707 0.930 . S
H1695 C1711 0.959 . S
H1696 C1711 0.959 . S
H1697 C1711 0.961 . S
H1698 C1712 0.960 . S
H1699 C1712 0.961 . S
H1700 C1712 0.959 . S
H1701 C1715 0.929 . S
H1702 C1716 0.931 . S
H1703 C1718 0.930 . S
C1704 H1692 0.930 1_556 S
C1704 C1705 1.399 . S
C1704 C1709 1.399 . S
C1705 C1704 1.399 . S
C1705 C1706 1.376 . S
C1706 H1693 0.930 . S
C1706 C1705 1.376 . S
C1706 C1707 1.388 . S
C1707 H1694 0.930 . S
C1707 C1706 1.388 . S
C1707 C1708 1.390 . S
C1708 C1707 1.390 . S
C1708 C1709 1.394 . S
C1708 C1714 1.465 . S
C1709 C1704 1.399 . S
C1709 C1708 1.394 . S
C1709 C1710 1.516 . S
C1710 C1709 1.516 . S
C1710 C1711 1.502 . S
C1710 C1712 1.561 1_556 S
C1710 C1713 1.526 . S
C1711 H1695 0.959 . S
C1711 H1696 0.959 . S
C1711 H1697 0.961 . S
C1711 C1710 1.502 . S
C1712 H1698 0.960 . S
C1712 H1699 0.961 . S
C1712 H1700 0.959 . S
C1712 C1710 1.561 1_554 S
C1713 C1710 1.526 . S
C1713 C1714 1.396 . S
C1713 C1718 1.390 . S
C1714 C1708 1.465 . S
C1714 C1713 1.396 . S
C1714 C1715 1.399 . S
C1715 H1701 0.929 . S
C1715 C1714 1.399 . S
C1715 C1716 1.385 . S
C1716 H1702 0.931 . S
C1716 C1715 1.385 . S
C1716 C1717 1.389 . S
C1717 C1716 1.389 . S
C1717 C1718 1.387 . S
C1718 H1703 0.930 . S
C1718 C1713 1.390 . S
C1718 C1717 1.387 . S
H1719 C1731 0.930 . S
H1720 C1733 0.930 . S
H1721 C1734 0.930 . S
H1722 C1738 0.959 . S
H1723 C1738 0.959 . S
H1724 C1738 0.961 . S
H1725 C1739 0.960 . S
H1726 C1739 0.961 . S
H1727 C1739 0.959 . S
H1728 C1742 0.929 . S
H1729 C1743 0.931 . S
H1730 C1745 0.930 . S
C1731 H1719 0.930 . S
C1731 C1732 1.399 . S
C1731 C1736 1.399 . S
C1732 C1731 1.399 . S
C1732 C1733 1.376 . S
C1733 H1720 0.930 . S
C1733 C1732 1.376 . S
C1733 C1734 1.388 . S
C1734 H1721 0.930 . S
C1734 C1733 1.388 . S
C1734 C1735 1.390 . S
C1735 C1734 1.390 . S
C1735 C1736 1.394 . S
C1735 C1741 1.465 . S
C1736 C1731 1.399 . S
C1736 C1735 1.394 . S
C1736 C1737 1.516 . S
C1737 C1736 1.516 . S
C1737 C1738 1.502 . S
C1737 C1739 1.561 . S
C1737 C1740 1.526 . S
C1738 H1722 0.959 . S
C1738 H1723 0.959 . S
C1738 H1724 0.961 . S
C1738 C1737 1.502 . S
C1739 H1725 0.960 . S
C1739 H1726 0.961 . S
C1739 H1727 0.959 . S
C1739 C1737 1.561 . S
C1740 C1737 1.526 . S
C1740 C1741 1.396 . S
C1740 C1745 1.390 . S
C1741 C1735 1.465 . S
C1741 C1740 1.396 . S
C1741 C1742 1.399 . S
C1742 H1728 0.929 . S
C1742 C1741 1.399 . S
C1742 C1743 1.385 . S
C1743 H1729 0.931 . S
C1743 C1742 1.385 . S
C1743 C1744 1.389 . S
C1744 C1743 1.389 . S
C1744 C1745 1.387 . S
C1745 H1730 0.930 . S
C1745 C1740 1.390 . S
C1745 C1744 1.387 . S
H1746 C1758 0.930 . S
H1747 C1760 0.930 . S
H1748 C1761 0.930 . S
H1749 C1765 0.959 . S
H1750 C1765 0.959 . S
H1751 C1765 0.961 . S
H1752 C1766 0.960 . S
H1753 C1766 0.961 . S
H1754 C1766 0.959 . S
H1755 C1769 0.929 . S
H1756 C1770 0.931 . S
H1757 C1772 0.930 . S
C1758 H1746 0.930 . S
C1758 C1759 1.399 . S
C1758 C1763 1.399 . S
C1759 C1758 1.399 . S
C1759 C1760 1.376 . S
C1760 H1747 0.930 . S
C1760 C1759 1.376 . S
C1760 C1761 1.388 . S
C1761 H1748 0.930 . S
C1761 C1760 1.388 . S
C1761 C1762 1.390 . S
C1762 C1761 1.390 . S
C1762 C1763 1.394 . S
C1762 C1768 1.465 . S
C1763 C1758 1.399 . S
C1763 C1762 1.394 . S
C1763 C1764 1.516 . S
C1764 C1763 1.516 . S
C1764 C1765 1.502 . S
C1764 C1766 1.561 . S
C1764 C1767 1.526 . S
C1765 H1749 0.959 . S
C1765 H1750 0.959 . S
C1765 H1751 0.961 . S
C1765 C1764 1.502 . S
C1766 H1752 0.960 . S
C1766 H1753 0.961 . S
C1766 H1754 0.959 . S
C1766 C1764 1.561 . S
C1767 C1764 1.526 . S
C1767 C1768 1.396 . S
C1767 C1772 1.390 . S
C1768 C1762 1.465 . S
C1768 C1767 1.396 . S
C1768 C1769 1.399 . S
C1769 H1755 0.929 . S
C1769 C1768 1.399 . S
C1769 C1770 1.385 . S
C1770 H1756 0.931 . S
C1770 C1769 1.385 . S
C1770 C1771 1.389 . S
C1771 C1770 1.389 . S
C1771 C1772 1.387 . S
C1772 H1757 0.930 . S
C1772 C1767 1.390 . S
C1772 C1771 1.387 . S
H1773 C1785 0.930 . S
H1774 C1787 0.930 . S
H1775 C1788 0.930 . S
H1776 C1792 0.959 . S
H1777 C1792 0.959 . S
H1778 C1792 0.961 . S
H1779 C1793 0.960 . S
H1780 C1793 0.961 . S
H1781 C1793 0.959 . S
H1782 C1796 0.929 . S
H1783 C1797 0.931 . S
H1784 C1799 0.930 . S
C1785 H1773 0.930 . S
C1785 C1786 1.399 . S
C1785 C1790 1.399 . S
C1786 C1785 1.399 . S
C1786 C1787 1.376 . S
C1787 H1774 0.930 . S
C1787 C1786 1.376 . S
C1787 C1788 1.388 . S
C1788 H1775 0.930 . S
C1788 C1787 1.388 . S
C1788 C1789 1.390 . S
C1789 C1788 1.390 . S
C1789 C1790 1.394 . S
C1789 C1795 1.465 . S
C1790 C1785 1.399 . S
C1790 C1789 1.394 . S
C1790 C1791 1.516 . S
C1791 C1790 1.516 . S
C1791 C1792 1.502 . S
C1791 C1793 1.561 . S
C1791 C1794 1.526 . S
C1792 H1776 0.959 . S
C1792 H1777 0.959 . S
C1792 H1778 0.961 . S
C1792 C1791 1.502 . S
C1793 H1779 0.960 . S
C1793 H1780 0.961 . S
C1793 H1781 0.959 . S
C1793 C1791 1.561 . S
C1794 C1791 1.526 . S
C1794 C1795 1.396 . S
C1794 C1799 1.390 . S
C1795 C1789 1.465 . S
C1795 C1794 1.396 . S
C1795 C1796 1.399 . S
C1796 H1782 0.929 . S
C1796 C1795 1.399 . S
C1796 C1797 1.385 . S
C1797 H1783 0.931 . S
C1797 C1796 1.385 . S
C1797 C1798 1.389 . S
C1798 C1797 1.389 . S
C1798 C1799 1.387 . S
C1799 H1784 0.930 . S
C1799 C1794 1.390 . S
C1799 C1798 1.387 . S
H1800 C1812 0.930 . S
H1801 C1814 0.930 . S
H1802 C1815 0.930 . S
H1803 C1819 0.959 . S
H1804 C1819 0.959 . S
H1805 C1819 0.961 . S
H1806 C1820 0.960 . S
H1807 C1820 0.961 . S
H1808 C1820 0.959 . S
H1809 C1823 0.929 . S
H1810 C1824 0.931 . S
H1811 C1826 0.930 . S
C1812 H1800 0.930 . S
C1812 C1813 1.399 . S
C1812 C1817 1.399 . S
C1813 C1812 1.399 . S
C1813 C1814 1.376 . S
C1814 H1801 0.930 . S
C1814 C1813 1.376 . S
C1814 C1815 1.388 . S
C1815 H1802 0.930 . S
C1815 C1814 1.388 . S
C1815 C1816 1.390 . S
C1816 C1815 1.390 . S
C1816 C1817 1.394 . S
C1816 C1822 1.465 . S
C1817 C1812 1.399 . S
C1817 C1816 1.394 . S
C1817 C1818 1.516 . S
C1818 C1817 1.516 . S
C1818 C1819 1.502 . S
C1818 C1820 1.561 . S
C1818 C1821 1.526 . S
C1819 H1803 0.959 . S
C1819 H1804 0.959 . S
C1819 H1805 0.961 . S
C1819 C1818 1.502 . S
C1820 H1806 0.960 . S
C1820 H1807 0.961 . S
C1820 H1808 0.959 . S
C1820 C1818 1.561 . S
C1821 C1818 1.526 . S
C1821 C1822 1.396 . S
C1821 C1826 1.390 . S
C1822 C1816 1.465 . S
C1822 C1821 1.396 . S
C1822 C1823 1.399 . S
C1823 H1809 0.929 . S
C1823 C1822 1.399 . S
C1823 C1824 1.385 . S
C1824 H1810 0.931 . S
C1824 C1823 1.385 . S
C1824 C1825 1.389 . S
C1825 C1824 1.389 . S
C1825 C1826 1.387 . S
C1826 H1811 0.930 . S
C1826 C1821 1.390 . S
C1826 C1825 1.387 . S
H1827 C1839 0.930 . S
H1828 C1841 0.930 . S
H1829 C1842 0.930 . S
H1830 C1846 0.959 . S
H1831 C1846 0.959 . S
H1832 C1846 0.961 . S
H1833 C1847 0.960 . S
H1834 C1847 0.961 . S
H1835 C1847 0.959 . S
H1836 C1850 0.929 . S
H1837 C1851 0.931 . S
H1838 C1853 0.930 . S
C1839 H1827 0.930 . S
C1839 C1840 1.399 . S
C1839 C1844 1.399 1_565 S
C1840 C1839 1.399 . S
C1840 C1841 1.376 . S
C1841 H1828 0.930 . S
C1841 C1840 1.376 . S
C1841 C1842 1.388 1_565 S
C1842 H1829 0.930 . S
C1842 C1841 1.388 1_545 S
C1842 C1843 1.390 . S
C1843 C1842 1.390 . S
C1843 C1844 1.394 . S
C1843 C1849 1.465 . S
C1844 C1839 1.399 1_545 S
C1844 C1843 1.394 . S
C1844 C1845 1.516 . S
C1845 C1844 1.516 . S
C1845 C1846 1.502 . S
C1845 C1847 1.561 . S
C1845 C1848 1.526 . S
C1846 H1830 0.959 . S
C1846 H1831 0.959 . S
C1846 H1832 0.961 . S
C1846 C1845 1.502 . S
C1847 H1833 0.960 . S
C1847 H1834 0.961 . S
C1847 H1835 0.959 . S
C1847 C1845 1.561 . S
C1848 C1845 1.526 . S
C1848 C1849 1.396 . S
C1848 C1853 1.390 . S
C1849 C1843 1.465 . S
C1849 C1848 1.396 . S
C1849 C1850 1.399 . S
C1850 H1836 0.929 . S
C1850 C1849 1.399 . S
C1850 C1851 1.385 . S
C1851 H1837 0.931 . S
C1851 C1850 1.385 . S
C1851 C1852 1.389 . S
C1852 C1851 1.389 . S
C1852 C1853 1.387 . S
C1853 H1838 0.930 . S
C1853 C1848 1.390 . S
C1853 C1852 1.387 . S
H1854 C1866 0.930 . S
H1855 C1868 0.930 . S
H1856 C1869 0.930 . S
H1857 C1873 0.959 . S
H1858 C1873 0.959 . S
H1859 C1873 0.961 1_455 S
H1860 C1874 0.960 . S
H1861 C1874 0.927 1_655 S
H1862 C1874 0.959 . S
H1863 C1877 0.929 . S
H1864 C1878 0.931 . S
H1865 C1880 0.930 . S
C1866 H1854 0.930 . S
C1866 C1867 1.399 . S
C1866 C1871 1.399 . S
C1867 C1866 1.399 . S
C1867 C1868 1.376 . S
C1868 H1855 0.930 . S
C1868 C1867 1.376 . S
C1868 C1869 1.388 1_455 S
C1869 H1856 0.930 . S
C1869 C1868 1.388 1_655 S
C1869 C1870 1.390 . S
C1870 C1869 1.390 . S
C1870 C1871 1.394 1_655 S
C1870 C1876 1.465 . S
C1871 C1866 1.399 . S
C1871 C1870 1.394 1_455 S
C1871 C1872 1.516 1_455 S
C1872 C1871 1.516 1_655 S
C1872 C1873 1.502 . S
C1872 C1874 1.561 1_655 S
C1872 C1875 1.526 . S
C1873 H1857 0.959 . S
C1873 H1858 0.959 . S
C1873 H1859 0.961 1_655 S
C1873 C1872 1.502 . S
C1874 H1860 0.960 . S
C1874 H1861 0.927 1_455 S
C1874 H1862 0.959 . S
C1874 C1872 1.561 1_455 S
C1875 C1872 1.526 . S
C1875 C1876 1.396 . S
C1875 C1880 1.390 . S
C1876 C1870 1.465 . S
C1876 C1875 1.396 . S
C1876 C1877 1.399 . S
C1877 H1863 0.929 . S
C1877 C1876 1.399 . S
C1877 C1878 1.385 . S
C1878 H1864 0.931 . S
C1878 C1877 1.385 . S
C1878 C1879 1.389 . S
C1879 C1878 1.389 . S
C1879 C1880 1.387 . S
C1880 H1865 0.930 . S
C1880 C1875 1.390 . S
C1880 C1879 1.387 . S
H1881 C1893 0.930 . S
H1882 C1895 0.930 . S
H1883 C1896 0.930 . S
H1884 C1900 0.959 . S
H1885 C1900 0.959 . S
H1886 C1900 0.961 . S
H1887 C1901 0.960 . S
H1888 C1901 0.961 . S
H1889 C1901 0.959 . S
H1890 C1904 0.929 . S
H1891 C1905 0.931 . S
H1892 C1907 0.930 . S
C1893 H1881 0.930 . S
C1893 C1894 1.399 . S
C1893 C1898 1.399 . S
C1894 C1893 1.399 . S
C1894 C1895 1.376 . S
C1895 H1882 0.930 . S
C1895 C1894 1.376 . S
C1895 C1896 1.388 . S
C1896 H1883 0.930 . S
C1896 C1895 1.388 . S
C1896 C1897 1.390 . S
C1897 C1896 1.390 . S
C1897 C1898 1.394 . S
C1897 C1903 1.465 . S
C1898 C1893 1.399 . S
C1898 C1897 1.394 . S
C1898 C1899 1.516 . S
C1899 C1898 1.516 . S
C1899 C1900 1.502 . S
C1899 C1901 1.561 . S
C1899 C1902 1.526 . S
C1900 H1884 0.959 . S
C1900 H1885 0.959 . S
C1900 H1886 0.961 . S
C1900 C1899 1.502 . S
C1901 H1887 0.960 . S
C1901 H1888 0.961 . S
C1901 H1889 0.959 . S
C1901 C1899 1.561 . S
C1902 C1899 1.526 . S
C1902 C1903 1.396 . S
C1902 C1907 1.390 . S
C1903 C1897 1.465 . S
C1903 C1902 1.396 . S
C1903 C1904 1.399 . S
C1904 H1890 0.929 . S
C1904 C1903 1.399 . S
C1904 C1905 1.385 . S
C1905 H1891 0.931 . S
C1905 C1904 1.385 . S
C1905 C1906 1.389 . S
C1906 C1905 1.389 . S
C1906 C1907 1.387 . S
C1907 H1892 0.930 . S
C1907 C1902 1.390 . S
C1907 C1906 1.387 . S
H1908 C1920 0.930 . S
H1909 C1922 0.930 . S
H1910 C1923 0.930 . S
H1911 C1927 0.959 . S
H1912 C1927 0.959 . S
H1913 C1927 0.961 . S
H1914 C1928 0.960 . S
H1915 C1928 0.961 . S
H1916 C1928 0.959 . S
H1917 C1931 0.929 . S
H1918 C1932 0.931 . S
H1919 C1934 0.930 . S
C1920 H1908 0.930 . S
C1920 C1921 1.399 . S
C1920 C1925 1.399 1_565 S
C1921 C1920 1.399 . S
C1921 C1922 1.376 . S
C1922 H1909 0.930 . S
C1922 C1921 1.376 . S
C1922 C1923 1.388 . S
C1923 H1910 0.930 . S
C1923 C1922 1.388 . S
C1923 C1924 1.390 1_565 S
C1924 C1923 1.390 1_545 S
C1924 C1925 1.394 . S
C1924 C1930 1.465 . S
C1925 C1920 1.399 1_545 S
C1925 C1924 1.394 . S
C1925 C1926 1.516 . S
C1926 C1925 1.516 . S
C1926 C1927 1.502 . S
C1926 C1928 1.561 . S
C1926 C1929 1.526 . S
C1927 H1911 0.959 . S
C1927 H1912 0.959 . S
C1927 H1913 0.961 . S
C1927 C1926 1.502 . S
C1928 H1914 0.960 . S
C1928 H1915 0.961 . S
C1928 H1916 0.959 . S
C1928 C1926 1.561 . S
C1929 C1926 1.526 . S
C1929 C1930 1.396 . S
C1929 C1934 1.390 . S
C1930 C1924 1.465 . S
C1930 C1929 1.396 . S
C1930 C1931 1.399 . S
C1931 H1917 0.929 . S
C1931 C1930 1.399 . S
C1931 C1932 1.385 . S
C1932 H1918 0.931 . S
C1932 C1931 1.385 . S
C1932 C1933 1.389 . S
C1933 C1932 1.389 . S
C1933 C1934 1.387 . S
C1934 H1919 0.930 . S
C1934 C1929 1.390 . S
C1934 C1933 1.387 . S
H1935 C1947 0.930 . S
H1936 C1949 0.930 . S
H1937 C1950 0.930 . S
H1938 C1954 0.959 . S
H1939 C1954 0.959 . S
H1940 C1954 0.961 . S
H1941 C1955 0.960 . S
H1942 C1955 0.961 . S
H1943 C1955 0.959 . S
H1944 C1958 0.929 . S
H1945 C1959 0.931 . S
H1946 C1961 0.930 . S
C1947 H1935 0.930 . S
C1947 C1948 1.399 . S
C1947 C1952 1.399 1_455 S
C1948 C1947 1.399 . S
C1948 C1949 1.376 . S
C1949 H1936 0.930 . S
C1949 C1948 1.376 . S
C1949 C1950 1.388 . S
C1950 H1937 0.930 . S
C1950 C1949 1.388 . S
C1950 C1951 1.390 1_455 S
C1951 C1950 1.390 1_655 S
C1951 C1952 1.394 . S
C1951 C1957 1.465 . S
C1952 C1947 1.399 1_655 S
C1952 C1951 1.394 . S
C1952 C1953 1.516 . S
C1953 C1952 1.516 . S
C1953 C1954 1.502 . S
C1953 C1955 1.561 . S
C1953 C1956 1.526 . S
C1954 H1938 0.959 . S
C1954 H1939 0.959 . S
C1954 H1940 0.961 . S
C1954 C1953 1.502 . S
C1955 H1941 0.960 . S
C1955 H1942 0.961 . S
C1955 H1943 0.959 . S
C1955 C1953 1.561 . S
C1956 C1953 1.526 . S
C1956 C1957 1.396 . S
C1956 C1961 1.390 . S
C1957 C1951 1.465 . S
C1957 C1956 1.396 . S
C1957 C1958 1.399 . S
C1958 H1944 0.929 . S
C1958 C1957 1.399 . S
C1958 C1959 1.385 . S
C1959 H1945 0.931 . S
C1959 C1958 1.385 . S
C1959 C1960 1.389 . S
C1960 C1959 1.389 . S
C1960 C1961 1.387 . S
C1961 H1946 0.930 . S
C1961 C1956 1.390 . S
C1961 C1960 1.387 . S
H1962 C1974 0.930 . S
H1963 C1976 0.930 . S
H1964 C1977 0.930 . S
H1965 C1981 0.959 . S
H1966 C1981 0.959 . S
H1967 C1981 0.961 . S
H1968 C1982 0.960 . S
H1969 C1982 0.961 . S
H1970 C1982 0.959 . S
H1971 C1985 0.929 . S
H1972 C1986 0.931 . S
H1973 C1988 0.930 . S
C1974 H1962 0.930 . S
C1974 C1975 1.399 1_556 S
C1974 C1979 1.399 . S
C1975 C1974 1.399 1_554 S
C1975 C1976 1.376 . S
C1976 H1963 0.930 . S
C1976 C1975 1.376 . S
C1976 C1977 1.388 1_554 S
C1977 H1964 0.930 . S
C1977 C1976 1.388 1_556 S
C1977 C1978 1.390 . S
C1978 C1977 1.390 . S
C1978 C1979 1.394 . S
C1978 C1984 1.465 . S
C1979 C1974 1.399 . S
C1979 C1978 1.394 . S
C1979 C1980 1.516 . S
C1980 C1979 1.516 . S
C1980 C1981 1.502 . S
C1980 C1982 1.561 . S
C1980 C1983 1.526 . S
C1981 H1965 0.959 . S
C1981 H1966 0.959 . S
C1981 H1967 0.961 . S
C1981 C1980 1.502 . S
C1982 H1968 0.960 . S
C1982 H1969 0.961 . S
C1982 H1970 0.959 . S
C1982 C1980 1.561 . S
C1983 C1980 1.526 . S
C1983 C1984 1.396 . S
C1983 C1988 1.390 . S
C1984 C1978 1.465 . S
C1984 C1983 1.396 . S
C1984 C1985 1.399 . S
C1985 H1971 0.929 . S
C1985 C1984 1.399 . S
C1985 C1986 1.385 . S
C1986 H1972 0.931 . S
C1986 C1985 1.385 . S
C1986 C1987 1.389 . S
C1987 C1986 1.389 . S
C1987 C1988 1.387 . S
C1988 H1973 0.930 . S
C1988 C1983 1.390 . S
C1988 C1987 1.387 . S
H1989 C2001 0.930 . S
H1990 C2003 0.930 . S
H1991 C2004 0.930 . S
H1992 C2008 0.959 . S
H1993 C2008 0.959 . S
H1994 C2008 0.961 . S
H1995 C2009 0.960 . S
H1996 C2009 0.961 . S
H1997 C2009 0.959 . S
H1998 C2012 0.929 . S
H1999 C2013 0.931 . S
H2000 C2015 0.930 . S
C2001 H1989 0.930 . S
C2001 C2002 1.399 . S
C2001 C2006 1.399 1_554 S
C2002 C2001 1.399 . S
C2002 C2003 1.376 . S
C2003 H1990 0.930 . S
C2003 C2002 1.376 . S
C2003 C2004 1.388 1_554 S
C2004 H1991 0.930 . S
C2004 C2003 1.388 1_556 S
C2004 C2005 1.390 . S
C2005 C2004 1.390 . S
C2005 C2006 1.394 . S
C2005 C2011 1.465 . S
C2006 C2001 1.399 1_556 S
C2006 C2005 1.394 . S
C2006 C2007 1.516 . S
C2007 C2006 1.516 . S
C2007 C2008 1.502 . S
C2007 C2009 1.561 . S
C2007 C2010 1.526 . S
C2008 H1992 0.959 . S
C2008 H1993 0.959 . S
C2008 H1994 0.961 . S
C2008 C2007 1.502 . S
C2009 H1995 0.960 . S
C2009 H1996 0.961 . S
C2009 H1997 0.959 . S
C2009 C2007 1.561 . S
C2010 C2007 1.526 . S
C2010 C2011 1.396 . S
C2010 C2015 1.390 . S
C2011 C2005 1.465 . S
C2011 C2010 1.396 . S
C2011 C2012 1.399 . S
C2012 H1998 0.929 . S
C2012 C2011 1.399 . S
C2012 C2013 1.385 . S
C2013 H1999 0.931 . S
C2013 C2012 1.385 . S
C2013 C2014 1.389 . S
C2014 C2013 1.389 . S
C2014 C2015 1.387 . S
C2015 H2000 0.930 . S
C2015 C2010 1.390 . S
C2015 C2014 1.387 . S
H2016 C2028 0.930 . S
H2017 C2030 0.930 . S
H2018 C2031 0.930 . S
H2019 C2035 0.959 . S
H2020 C2035 0.959 . S
H2021 C2035 0.961 . S
H2022 C2036 0.960 . S
H2023 C2036 0.961 . S
H2024 C2036 0.959 . S
H2025 C2039 0.929 . S
H2026 C2040 0.931 . S
H2027 C2042 0.930 . S
C2028 H2016 0.930 . S
C2028 C2029 1.399 . S
C2028 C2033 1.399 1_554 S
C2029 C2028 1.399 . S
C2029 C2030 1.376 . S
C2030 H2017 0.930 . S
C2030 C2029 1.376 . S
C2030 C2031 1.388 1_554 S
C2031 H2018 0.930 . S
C2031 C2030 1.388 1_556 S
C2031 C2032 1.390 . S
C2032 C2031 1.390 . S
C2032 C2033 1.394 . S
C2032 C2038 1.465 . S
C2033 C2028 1.399 1_556 S
C2033 C2032 1.394 . S
C2033 C2034 1.516 . S
C2034 C2033 1.516 . S
C2034 C2035 1.502 . S
C2034 C2036 1.561 . S
C2034 C2037 1.526 . S
C2035 H2019 0.959 . S
C2035 H2020 0.959 . S
C2035 H2021 0.961 . S
C2035 C2034 1.502 . S
C2036 H2022 0.960 . S
C2036 H2023 0.961 . S
C2036 H2024 0.959 . S
C2036 C2034 1.561 . S
C2037 C2034 1.526 . S
C2037 C2038 1.396 . S
C2037 C2042 1.390 . S
C2038 C2032 1.465 . S
C2038 C2037 1.396 . S
C2038 C2039 1.399 . S
C2039 H2025 0.929 . S
C2039 C2038 1.399 . S
C2039 C2040 1.385 . S
C2040 H2026 0.931 . S
C2040 C2039 1.385 . S
C2040 C2041 1.389 . S
C2041 C2040 1.389 . S
C2041 C2042 1.387 . S
C2042 H2027 0.930 . S
C2042 C2037 1.390 . S
C2042 C2041 1.387 . S
H2043 C2055 0.930 . S
H2044 C2057 0.930 . S
H2045 C2058 0.930 . S
H2046 C2062 0.959 . S
H2047 C2062 0.959 . S
H2048 C2062 0.961 . S
H2049 C2063 0.960 . S
H2050 C2063 0.961 . S
H2051 C2063 0.959 . S
H2052 C2066 0.929 . S
H2053 C2067 0.931 . S
H2054 C2069 0.930 . S
C2055 H2043 0.930 . S
C2055 C2056 1.399 . S
C2055 C2060 1.399 . S
C2056 C2055 1.399 . S
C2056 C2057 1.376 . S
C2057 H2044 0.930 . S
C2057 C2056 1.376 . S
C2057 C2058 1.388 . S
C2058 H2045 0.930 . S
C2058 C2057 1.388 . S
C2058 C2059 1.390 . S
C2059 C2058 1.390 . S
C2059 C2060 1.394 . S
C2059 C2065 1.465 . S
C2060 C2055 1.399 . S
C2060 C2059 1.394 . S
C2060 C2061 1.516 . S
C2061 C2060 1.516 . S
C2061 C2062 1.502 . S
C2061 C2063 1.561 . S
C2061 C2064 1.526 . S
C2062 H2046 0.959 . S
C2062 H2047 0.959 . S
C2062 H2048 0.961 . S
C2062 C2061 1.502 . S
C2063 H2049 0.960 . S
C2063 H2050 0.961 . S
C2063 H2051 0.959 . S
C2063 C2061 1.561 . S
C2064 C2061 1.526 . S
C2064 C2065 1.396 . S
C2064 C2069 1.390 . S
C2065 C2059 1.465 . S
C2065 C2064 1.396 . S
C2065 C2066 1.399 . S
C2066 H2052 0.929 . S
C2066 C2065 1.399 . S
C2066 C2067 1.385 . S
C2067 H2053 0.931 . S
C2067 C2066 1.385 . S
C2067 C2068 1.389 . S
C2068 C2067 1.389 . S
C2068 C2069 1.387 . S
C2069 H2054 0.930 . S
C2069 C2064 1.390 . S
C2069 C2068 1.387 . S
H2070 C2082 0.930 . S
H2071 C2084 0.930 . S
H2072 C2085 0.930 . S
H2073 C2089 0.959 . S
H2074 C2089 0.959 . S
H2075 C2089 0.961 . S
H2076 C2090 0.960 . S
H2077 C2090 0.961 . S
H2078 C2090 0.959 . S
H2079 C2093 0.929 . S
H2080 C2094 0.931 . S
H2081 C2096 0.930 . S
C2082 H2070 0.930 . S
C2082 C2083 1.399 . S
C2082 C2087 1.399 . S
C2083 C2082 1.399 . S
C2083 C2084 1.376 . S
C2084 H2071 0.930 . S
C2084 C2083 1.376 . S
C2084 C2085 1.388 . S
C2085 H2072 0.930 . S
C2085 C2084 1.388 . S
C2085 C2086 1.390 . S
C2086 C2085 1.390 . S
C2086 C2087 1.394 . S
C2086 C2092 1.465 . S
C2087 C2082 1.399 . S
C2087 C2086 1.394 . S
C2087 C2088 1.516 . S
C2088 C2087 1.516 . S
C2088 C2089 1.502 . S
C2088 C2090 1.561 . S
C2088 C2091 1.526 . S
C2089 H2073 0.959 . S
C2089 H2074 0.959 . S
C2089 H2075 0.961 . S
C2089 C2088 1.502 . S
C2090 H2076 0.960 . S
C2090 H2077 0.961 . S
C2090 H2078 0.959 . S
C2090 C2088 1.561 . S
C2091 C2088 1.526 . S
C2091 C2092 1.396 . S
C2091 C2096 1.390 . S
C2092 C2086 1.465 . S
C2092 C2091 1.396 . S
C2092 C2093 1.399 . S
C2093 H2079 0.929 . S
C2093 C2092 1.399 . S
C2093 C2094 1.385 . S
C2094 H2080 0.931 . S
C2094 C2093 1.385 . S
C2094 C2095 1.389 . S
C2095 C2094 1.389 . S
C2095 C2096 1.387 . S
C2096 H2081 0.930 . S
C2096 C2091 1.390 . S
C2096 C2095 1.387 . S
H2097 C2109 0.930 . S
H2098 C2111 0.930 . S
H2099 C2112 0.930 . S
H2100 C2116 0.959 . S
H2101 C2116 0.959 . S
H2102 C2116 0.961 . S
H2103 C2117 0.960 . S
H2104 C2117 0.961 . S
H2105 C2117 0.959 . S
H2106 C2120 0.929 . S
H2107 C2121 0.931 . S
H2108 C2123 0.930 . S
C2109 H2097 0.930 . S
C2109 C2110 1.399 . S
C2109 C2114 1.399 . S
C2110 C2109 1.399 . S
C2110 C2111 1.376 . S
C2111 H2098 0.930 . S
C2111 C2110 1.376 . S
C2111 C2112 1.388 . S
C2112 H2099 0.930 . S
C2112 C2111 1.388 . S
C2112 C2113 1.390 . S
C2113 C2112 1.390 . S
C2113 C2114 1.394 . S
C2113 C2119 1.465 . S
C2114 C2109 1.399 . S
C2114 C2113 1.394 . S
C2114 C2115 1.516 . S
C2115 C2114 1.516 . S
C2115 C2116 1.502 . S
C2115 C2117 1.561 . S
C2115 C2118 1.526 . S
C2116 H2100 0.959 . S
C2116 H2101 0.959 . S
C2116 H2102 0.961 . S
C2116 C2115 1.502 . S
C2117 H2103 0.960 . S
C2117 H2104 0.961 . S
C2117 H2105 0.959 . S
C2117 C2115 1.561 . S
C2118 C2115 1.526 . S
C2118 C2119 1.396 . S
C2118 C2123 1.390 . S
C2119 C2113 1.465 . S
C2119 C2118 1.396 . S
C2119 C2120 1.399 . S
C2120 H2106 0.929 . S
C2120 C2119 1.399 . S
C2120 C2121 1.385 . S
C2121 H2107 0.931 . S
C2121 C2120 1.385 . S
C2121 C2122 1.389 . S
C2122 C2121 1.389 . S
C2122 C2123 1.387 . S
C2123 H2108 0.930 . S
C2123 C2118 1.390 . S
C2123 C2122 1.387 . S
H2124 C2136 0.930 . S
H2125 C2138 0.930 . S
H2126 C2139 0.930 . S
H2127 C2143 0.959 . S
H2128 C2143 0.959 . S
H2129 C2143 0.961 . S
H2130 C2144 0.960 . S
H2131 C2144 0.961 . S
H2132 C2144 0.959 . S
H2133 C2147 0.929 . S
H2134 C2148 0.931 . S
H2135 C2150 0.930 . S
C2136 H2124 0.930 . S
C2136 C2137 1.399 . S
C2136 C2141 1.399 . S
C2137 C2136 1.399 . S
C2137 C2138 1.376 . S
C2138 H2125 0.930 . S
C2138 C2137 1.376 . S
C2138 C2139 1.388 . S
C2139 H2126 0.930 . S
C2139 C2138 1.388 . S
C2139 C2140 1.390 . S
C2140 C2139 1.390 . S
C2140 C2141 1.394 . S
C2140 C2146 1.465 . S
C2141 C2136 1.399 . S
C2141 C2140 1.394 . S
C2141 C2142 1.516 . S
C2142 C2141 1.516 . S
C2142 C2143 1.502 . S
C2142 C2144 1.561 . S
C2142 C2145 1.526 . S
C2143 H2127 0.959 . S
C2143 H2128 0.959 . S
C2143 H2129 0.961 . S
C2143 C2142 1.502 . S
C2144 H2130 0.960 . S
C2144 H2131 0.961 . S
C2144 H2132 0.959 . S
C2144 C2142 1.561 . S
C2145 C2142 1.526 . S
C2145 C2146 1.396 . S
C2145 C2150 1.390 1_554 S
C2146 C2140 1.465 . S
C2146 C2145 1.396 . S
C2146 C2147 1.399 . S
C2147 H2133 0.929 . S
C2147 C2146 1.399 . S
C2147 C2148 1.385 1_554 S
C2148 H2134 0.931 . S
C2148 C2147 1.385 1_556 S
C2148 C2149 1.389 . S
C2149 C2148 1.389 . S
C2149 C2150 1.387 . S
C2150 H2135 0.930 . S
C2150 C2145 1.390 1_556 S
C2150 C2149 1.387 . S
H2151 C2163 0.930 . S
H2152 C2165 0.930 . S
H2153 C2166 0.930 . S
H2154 C2170 0.959 . S
H2155 C2170 0.959 . S
H2156 C2170 0.961 . S
H2157 C2171 0.960 . S
H2158 C2171 0.961 . S
H2159 C2171 0.959 . S
H2160 C2174 0.929 . S
H2161 C2175 0.931 . S
H2162 C2177 0.930 . S
C2163 H2151 0.930 . S
C2163 C2164 1.399 . S
C2163 C2168 1.399 . S
C2164 C2163 1.399 . S
C2164 C2165 1.376 . S
C2165 H2152 0.930 . S
C2165 C2164 1.376 . S
C2165 C2166 1.388 . S
C2166 H2153 0.930 . S
C2166 C2165 1.388 . S
C2166 C2167 1.390 . S
C2167 C2166 1.390 . S
C2167 C2168 1.394 . S
C2167 C2173 1.465 . S
C2168 C2163 1.399 . S
C2168 C2167 1.394 . S
C2168 C2169 1.516 . S
C2169 C2168 1.516 . S
C2169 C2170 1.502 . S
C2169 C2171 1.561 . S
C2169 C2172 1.526 . S
C2170 H2154 0.959 . S
C2170 H2155 0.959 . S
C2170 H2156 0.961 . S
C2170 C2169 1.502 . S
C2171 H2157 0.960 . S
C2171 H2158 0.961 . S
C2171 H2159 0.959 . S
C2171 C2169 1.561 . S
C2172 C2169 1.526 . S
C2172 C2173 1.396 . S
C2172 C2177 1.390 1_554 S
C2173 C2167 1.465 . S
C2173 C2172 1.396 . S
C2173 C2174 1.399 . S
C2174 H2160 0.929 . S
C2174 C2173 1.399 . S
C2174 C2175 1.385 1_554 S
C2175 H2161 0.931 . S
C2175 C2174 1.385 1_556 S
C2175 C2176 1.389 . S
C2176 C2175 1.389 . S
C2176 C2177 1.387 . S
C2177 H2162 0.930 . S
C2177 C2172 1.390 1_556 S
C2177 C2176 1.387 . S
H2178 C2190 0.930 . S
H2179 C2192 0.930 . S
H2180 C2193 0.930 . S
H2181 C2197 0.959 . S
H2182 C2197 0.959 1_556 S
H2183 C2197 0.961 . S
H2184 C2198 0.960 . S
H2185 C2198 0.961 1_556 S
H2186 C2198 0.959 . S
H2187 C2201 0.929 . S
H2188 C2202 0.931 . S
H2189 C2204 0.930 . S
C2190 H2178 0.930 . S
C2190 C2191 1.399 . S
C2190 C2195 1.399 . S
C2191 C2190 1.399 . S
C2191 C2192 1.376 . S
C2192 H2179 0.930 . S
C2192 C2191 1.376 . S
C2192 C2193 1.388 . S
C2193 H2180 0.930 . S
C2193 C2192 1.388 . S
C2193 C2194 1.390 . S
C2194 C2193 1.390 . S
C2194 C2195 1.394 . S
C2194 C2200 1.465 . S
C2195 C2190 1.399 . S
C2195 C2194 1.394 . S
C2195 C2196 1.516 . S
C2196 C2195 1.516 . S
C2196 C2197 1.502 . S
C2196 C2198 1.561 . S
C2196 C2199 1.526 . S
C2197 H2181 0.959 . S
C2197 H2182 0.959 1_554 S
C2197 H2183 0.961 . S
C2197 C2196 1.502 . S
C2198 H2184 0.960 . S
C2198 H2185 0.961 1_554 S
C2198 H2186 0.959 . S
C2198 C2196 1.561 . S
C2199 C2196 1.526 . S
C2199 C2200 1.396 . S
C2199 C2204 1.390 1_554 S
C2200 C2194 1.465 . S
C2200 C2199 1.396 . S
C2200 C2201 1.399 . S
C2201 H2187 0.929 . S
C2201 C2200 1.399 . S
C2201 C2202 1.385 . S
C2202 H2188 0.931 . S
C2202 C2201 1.385 . S
C2202 C2203 1.389 1_554 S
C2203 C2202 1.389 1_556 S
C2203 C2204 1.387 . S
C2204 H2189 0.930 . S
C2204 C2199 1.390 1_556 S
C2204 C2203 1.387 . S
H2205 C2217 0.930 . S
H2206 C2219 0.930 . S
H2207 C2220 0.930 . S
H2208 C2224 0.959 . S
H2209 C2224 0.959 . S
H2210 C2224 0.961 . S
H2211 C2225 0.960 . S
H2212 C2225 0.961 . S
H2213 C2225 0.959 . S
H2214 C2228 0.929 . S
H2215 C2229 0.931 . S
H2216 C2231 0.930 . S
C2217 H2205 0.930 . S
C2217 C2218 1.399 . S
C2217 C2222 1.399 . S
C2218 C2217 1.399 . S
C2218 C2219 1.376 . S
C2219 H2206 0.930 . S
C2219 C2218 1.376 . S
C2219 C2220 1.388 . S
C2220 H2207 0.930 . S
C2220 C2219 1.388 . S
C2220 C2221 1.390 . S
C2221 C2220 1.390 . S
C2221 C2222 1.394 . S
C2221 C2227 1.465 . S
C2222 C2217 1.399 . S
C2222 C2221 1.394 . S
C2222 C2223 1.516 . S
C2223 C2222 1.516 . S
C2223 C2224 1.502 . S
C2223 C2225 1.561 . S
C2223 C2226 1.526 . S
C2224 H2208 0.959 . S
C2224 H2209 0.959 . S
C2224 H2210 0.961 . S
C2224 C2223 1.502 . S
C2225 H2211 0.960 . S
C2225 H2212 0.961 . S
C2225 H2213 0.959 . S
C2225 C2223 1.561 . S
C2226 C2223 1.526 . S
C2226 C2227 1.396 . S
C2226 C2231 1.390 . S
C2227 C2221 1.465 . S
C2227 C2226 1.396 . S
C2227 C2228 1.399 . S
C2228 H2214 0.929 . S
C2228 C2227 1.399 . S
C2228 C2229 1.385 . S
C2229 H2215 0.931 . S
C2229 C2228 1.385 . S
C2229 C2230 1.389 . S
C2230 C2229 1.389 . S
C2230 C2231 1.387 . S
C2231 H2216 0.930 . S
C2231 C2226 1.390 . S
C2231 C2230 1.387 . S
H2232 C2244 0.930 . S
H2233 C2246 0.930 . S
H2234 C2247 0.930 . S
H2235 C2251 0.959 . S
H2236 C2251 0.959 . S
H2237 C2251 0.961 . S
H2238 C2252 0.960 . S
H2239 C2252 0.961 . S
H2240 C2252 0.959 . S
H2241 C2255 0.929 . S
H2242 C2256 0.931 . S
H2243 C2258 0.930 . S
C2244 H2232 0.930 . S
C2244 C2245 1.399 . S
C2244 C2249 1.399 . S
C2245 C2244 1.399 . S
C2245 C2246 1.376 . S
C2246 H2233 0.930 . S
C2246 C2245 1.376 . S
C2246 C2247 1.388 . S
C2247 H2234 0.930 . S
C2247 C2246 1.388 . S
C2247 C2248 1.390 . S
C2248 C2247 1.390 . S
C2248 C2249 1.394 . S
C2248 C2254 1.465 . S
C2249 C2244 1.399 . S
C2249 C2248 1.394 . S
C2249 C2250 1.516 . S
C2250 C2249 1.516 . S
C2250 C2251 1.502 . S
C2250 C2252 1.561 . S
C2250 C2253 1.526 . S
C2251 H2235 0.959 . S
C2251 H2236 0.959 . S
C2251 H2237 0.961 . S
C2251 C2250 1.502 . S
C2252 H2238 0.960 . S
C2252 H2239 0.961 . S
C2252 H2240 0.959 . S
C2252 C2250 1.561 . S
C2253 C2250 1.526 . S
C2253 C2254 1.396 . S
C2253 C2258 1.390 . S
C2254 C2248 1.465 . S
C2254 C2253 1.396 . S
C2254 C2255 1.399 . S
C2255 H2241 0.929 . S
C2255 C2254 1.399 . S
C2255 C2256 1.385 . S
C2256 H2242 0.931 . S
C2256 C2255 1.385 . S
C2256 C2257 1.389 . S
C2257 C2256 1.389 . S
C2257 C2258 1.387 . S
C2258 H2243 0.930 . S
C2258 C2253 1.390 . S
C2258 C2257 1.387 . S
H2259 C2271 0.930 . S
H2260 C2273 0.930 . S
H2261 C2274 0.930 . S
H2262 C2278 0.959 . S
H2263 C2278 0.959 . S
H2264 C2278 0.961 . S
H2265 C2279 0.960 . S
H2266 C2279 0.961 . S
H2267 C2279 0.959 . S
H2268 C2282 0.929 . S
H2269 C2283 0.931 . S
H2270 C2285 0.930 . S
C2271 H2259 0.930 . S
C2271 C2272 1.399 . S
C2271 C2276 1.399 . S
C2272 C2271 1.399 . S
C2272 C2273 1.376 . S
C2273 H2260 0.930 . S
C2273 C2272 1.376 . S
C2273 C2274 1.388 . S
C2274 H2261 0.930 . S
C2274 C2273 1.388 . S
C2274 C2275 1.390 . S
C2275 C2274 1.390 . S
C2275 C2276 1.394 . S
C2275 C2281 1.465 . S
C2276 C2271 1.399 . S
C2276 C2275 1.394 . S
C2276 C2277 1.516 . S
C2277 C2276 1.516 . S
C2277 C2278 1.502 . S
C2277 C2279 1.561 . S
C2277 C2280 1.526 . S
C2278 H2262 0.959 . S
C2278 H2263 0.959 . S
C2278 H2264 0.961 . S
C2278 C2277 1.502 . S
C2279 H2265 0.960 . S
C2279 H2266 0.961 . S
C2279 H2267 0.959 . S
C2279 C2277 1.561 . S
C2280 C2277 1.526 . S
C2280 C2281 1.396 . S
C2280 C2285 1.390 . S
C2281 C2275 1.465 . S
C2281 C2280 1.396 . S
C2281 C2282 1.399 . S
C2282 H2268 0.929 . S
C2282 C2281 1.399 . S
C2282 C2283 1.385 . S
C2283 H2269 0.931 . S
C2283 C2282 1.385 . S
C2283 C2284 1.389 . S
C2284 C2283 1.389 . S
C2284 C2285 1.387 . S
C2285 H2270 0.930 . S
C2285 C2280 1.390 . S
C2285 C2284 1.387 . S
H2286 C2298 0.930 . S
H2287 C2300 0.930 . S
H2288 C2301 0.930 . S
H2289 C2305 0.959 . S
H2290 C2305 0.959 . S
H2291 C2305 0.961 . S
H2292 C2306 0.960 . S
H2293 C2306 0.961 . S
H2294 C2306 0.959 . S
H2295 C2309 0.929 . S
H2296 C2310 0.931 . S
H2297 C2312 0.930 . S
C2298 H2286 0.930 . S
C2298 C2299 1.399 . S
C2298 C2303 1.399 . S
C2299 C2298 1.399 . S
C2299 C2300 1.376 . S
C2300 H2287 0.930 . S
C2300 C2299 1.376 . S
C2300 C2301 1.388 . S
C2301 H2288 0.930 . S
C2301 C2300 1.388 . S
C2301 C2302 1.390 . S
C2302 C2301 1.390 . S
C2302 C2303 1.394 . S
C2302 C2308 1.465 . S
C2303 C2298 1.399 . S
C2303 C2302 1.394 . S
C2303 C2304 1.516 . S
C2304 C2303 1.516 . S
C2304 C2305 1.502 1_655 S
C2304 C2306 1.561 . S
C2304 C2307 1.526 . S
C2305 H2289 0.959 . S
C2305 H2290 0.959 . S
C2305 H2291 0.961 . S
C2305 C2304 1.502 1_455 S
C2306 H2292 0.960 . S
C2306 H2293 0.961 . S
C2306 H2294 0.959 . S
C2306 C2304 1.561 . S
C2307 C2304 1.526 . S
C2307 C2308 1.396 . S
C2307 C2312 1.390 . S
C2308 C2302 1.465 . S
C2308 C2307 1.396 . S
C2308 C2309 1.399 . S
C2309 H2295 0.929 . S
C2309 C2308 1.399 . S
C2309 C2310 1.385 . S
C2310 H2296 0.931 . S
C2310 C2309 1.385 . S
C2310 C2311 1.389 . S
C2311 C2310 1.389 . S
C2311 C2312 1.387 . S
C2312 H2297 0.930 . S
C2312 C2307 1.390 . S
C2312 C2311 1.387 . S
H2313 C2325 0.930 . S
H2314 C2327 0.930 . S
H2315 C2328 0.930 . S
H2316 C2332 0.959 . S
H2317 C2332 0.959 . S
H2318 C2332 0.961 . S
H2319 C2333 0.960 . S
H2320 C2333 0.961 . S
H2321 C2333 0.959 . S
H2322 C2336 0.929 . S
H2323 C2337 0.931 . S
H2324 C2339 0.930 . S
C2325 H2313 0.930 . S
C2325 C2326 1.399 . S
C2325 C2330 1.399 . S
C2326 C2325 1.399 . S
C2326 C2327 1.376 . S
C2327 H2314 0.930 . S
C2327 C2326 1.376 . S
C2327 C2328 1.388 . S
C2328 H2315 0.930 . S
C2328 C2327 1.388 . S
C2328 C2329 1.390 . S
C2329 C2328 1.390 . S
C2329 C2330 1.394 . S
C2329 C2335 1.465 . S
C2330 C2325 1.399 . S
C2330 C2329 1.394 . S
C2330 C2331 1.516 . S
C2331 C2330 1.516 . S
C2331 C2332 1.502 . S
C2331 C2333 1.561 . S
C2331 C2334 1.526 . S
C2332 H2316 0.959 . S
C2332 H2317 0.959 . S
C2332 H2318 0.961 . S
C2332 C2331 1.502 . S
C2333 H2319 0.960 . S
C2333 H2320 0.961 . S
C2333 H2321 0.959 . S
C2333 C2331 1.561 . S
C2334 C2331 1.526 . S
C2334 C2335 1.396 . S
C2334 C2339 1.390 . S
C2335 C2329 1.465 . S
C2335 C2334 1.396 . S
C2335 C2336 1.399 . S
C2336 H2322 0.929 . S
C2336 C2335 1.399 . S
C2336 C2337 1.385 . S
C2337 H2323 0.931 . S
C2337 C2336 1.385 . S
C2337 C2338 1.389 . S
C2338 C2337 1.389 . S
C2338 C2339 1.387 . S
C2339 H2324 0.930 . S
C2339 C2334 1.390 . S
C2339 C2338 1.387 . S
H2340 C2352 0.930 . S
H2341 C2354 0.930 . S
H2342 C2355 0.930 . S
H2343 C2359 0.959 1_565 S
H2344 C2359 0.959 . S
H2345 C2359 0.961 . S
H2346 C2360 0.960 . S
H2347 C2360 0.961 . S
H2348 C2360 0.959 . S
H2349 C2363 0.929 . S
H2350 C2364 0.931 . S
H2351 C2366 0.930 1_545 S
C2352 H2340 0.930 . S
C2352 C2353 1.399 . S
C2352 C2357 1.399 . S
C2353 C2352 1.399 . S
C2353 C2354 1.376 . S
C2354 H2341 0.930 . S
C2354 C2353 1.376 . S
C2354 C2355 1.388 . S
C2355 H2342 0.930 . S
C2355 C2354 1.388 . S
C2355 C2356 1.390 . S
C2356 C2355 1.390 . S
C2356 C2357 1.394 . S
C2356 C2362 1.465 . S
C2357 C2352 1.399 . S
C2357 C2356 1.394 . S
C2357 C2358 1.516 . S
C2358 C2357 1.516 . S
C2358 C2359 1.502 1_565 S
C2358 C2360 1.561 1_565 S
C2358 C2361 1.526 . S
C2359 H2343 0.959 1_545 S
C2359 H2344 0.959 . S
C2359 H2345 0.961 . S
C2359 C2358 1.502 1_545 S
C2360 H2346 0.960 . S
C2360 H2347 0.961 . S
C2360 H2348 0.959 . S
C2360 C2358 1.561 1_545 S
C2361 C2358 1.526 . S
C2361 C2362 1.396 . S
C2361 C2366 1.390 . S
C2362 C2356 1.465 . S
C2362 C2361 1.396 . S
C2362 C2363 1.399 . S
C2363 H2349 0.929 . S
C2363 C2362 1.399 . S
C2363 C2364 1.385 . S
C2364 H2350 0.931 . S
C2364 C2363 1.385 . S
C2364 C2365 1.389 . S
C2365 C2364 1.389 . S
C2365 C2366 1.387 . S
C2366 H2351 0.930 1_565 S
C2366 C2361 1.390 . S
C2366 C2365 1.387 . S
H2367 C2379 0.935 1_565 S
H2368 C2381 0.930 . S
H2369 C2382 0.930 . S
H2370 C2386 0.936 1_545 S
H2371 C2386 0.985 . S
H2372 C2386 0.992 . S
H2373 C2387 0.960 . S
H2374 C2387 0.961 . S
H2375 C2387 0.959 . S
H2376 C2390 0.929 . S
H2377 C2391 0.931 . S
H2378 C2393 0.930 . S
C2379 H2367 0.935 1_545 S
C2379 C2380 1.399 . S
C2379 C2384 1.399 . S
C2380 C2379 1.399 . S
C2380 C2381 1.376 . S
C2381 H2368 0.930 . S
C2381 C2380 1.376 . S
C2381 C2382 1.388 . S
C2382 H2369 0.930 . S
C2382 C2381 1.388 . S
C2382 C2383 1.390 . S
C2383 C2382 1.390 . S
C2383 C2384 1.394 . S
C2383 C2389 1.465 . S
C2384 C2379 1.399 . S
C2384 C2383 1.394 . S
C2384 C2385 1.516 . S
C2385 C2384 1.516 . S
C2385 C2386 1.470 1_545 S
C2385 C2387 1.561 1_545 S
C2385 C2388 1.526 . S
C2386 H2370 0.936 1_565 S
C2386 H2371 0.985 . S
C2386 H2372 0.992 . S
C2386 C2385 1.470 1_565 S
C2387 H2373 0.960 . S
C2387 H2374 0.961 . S
C2387 H2375 0.959 . S
C2387 C2385 1.561 1_565 S
C2388 C2385 1.526 . S
C2388 C2389 1.396 . S
C2388 C2393 1.390 . S
C2389 C2383 1.465 . S
C2389 C2388 1.396 . S
C2389 C2390 1.399 . S
C2390 H2376 0.929 . S
C2390 C2389 1.399 . S
C2390 C2391 1.385 . S
C2391 H2377 0.931 . S
C2391 C2390 1.385 . S
C2391 C2392 1.389 . S
C2392 C2391 1.389 . S
C2392 C2393 1.387 . S
C2393 H2378 0.930 . S
C2393 C2388 1.390 . S
C2393 C2392 1.387 . S
H2394 C2406 0.927 1_655 S
H2395 C2408 0.930 . S
H2396 C2409 0.930 . S
H2397 C2413 0.959 . S
H2398 C2413 0.959 . S
H2399 C2413 0.961 . S
H2400 C2414 0.960 . S
H2401 C2414 0.978 . S
H2402 C2414 0.959 . S
H2403 C2417 0.929 . S
H2404 C2418 0.931 . S
H2405 C2420 0.930 . S
C2406 H2394 0.927 1_455 S
C2406 C2407 1.399 . S
C2406 C2411 1.399 . S
C2407 C2406 1.399 . S
C2407 C2408 1.376 . S
C2408 H2395 0.930 . S
C2408 C2407 1.376 . S
C2408 C2409 1.388 . S
C2409 H2396 0.930 . S
C2409 C2408 1.388 . S
C2409 C2410 1.390 . S
C2410 C2409 1.390 . S
C2410 C2411 1.394 . S
C2410 C2416 1.465 . S
C2411 C2406 1.399 . S
C2411 C2410 1.394 . S
C2411 C2412 1.516 . S
C2412 C2411 1.516 . S
C2412 C2413 1.502 1_455 S
C2412 C2414 1.561 . S
C2412 C2415 1.526 . S
C2413 H2397 0.959 . S
C2413 H2398 0.959 . S
C2413 H2399 0.961 . S
C2413 C2412 1.502 1_655 S
C2414 H2400 0.960 . S
C2414 H2401 0.978 . S
C2414 H2402 0.959 . S
C2414 C2412 1.561 . S
C2415 C2412 1.526 . S
C2415 C2416 1.396 . S
C2415 C2420 1.390 . S
C2416 C2410 1.465 . S
C2416 C2415 1.396 . S
C2416 C2417 1.399 . S
C2417 H2403 0.929 . S
C2417 C2416 1.399 . S
C2417 C2418 1.385 . S
C2418 H2404 0.931 . S
C2418 C2417 1.385 . S
C2418 C2419 1.389 . S
C2419 C2418 1.389 . S
C2419 C2420 1.387 . S
C2420 H2405 0.930 . S
C2420 C2415 1.390 . S
C2420 C2419 1.387 . S
H2421 C2433 0.930 . S
H2422 C2435 0.930 . S
H2423 C2436 0.930 . S
H2424 C2440 0.959 . S
H2425 C2440 0.959 . S
H2426 C2440 0.961 . S
H2427 C2441 0.960 . S
H2428 C2441 0.961 . S
H2429 C2441 0.959 . S
H2430 C2444 0.929 . S
H2431 C2445 0.931 . S
H2432 C2447 0.930 . S
C2433 H2421 0.930 . S
C2433 C2434 1.399 . S
C2433 C2438 1.399 . S
C2434 C2433 1.399 . S
C2434 C2435 1.376 . S
C2435 H2422 0.930 . S
C2435 C2434 1.376 . S
C2435 C2436 1.388 . S
C2436 H2423 0.930 . S
C2436 C2435 1.388 . S
C2436 C2437 1.390 . S
C2437 C2436 1.390 . S
C2437 C2438 1.394 . S
C2437 C2443 1.465 . S
C2438 C2433 1.399 . S
C2438 C2437 1.394 . S
C2438 C2439 1.516 . S
C2439 C2438 1.516 . S
C2439 C2440 1.502 . S
C2439 C2441 1.561 . S
C2439 C2442 1.526 . S
C2440 H2424 0.959 . S
C2440 H2425 0.959 . S
C2440 H2426 0.961 . S
C2440 C2439 1.502 . S
C2441 H2427 0.960 . S
C2441 H2428 0.961 . S
C2441 H2429 0.959 . S
C2441 C2439 1.561 . S
C2442 C2439 1.526 . S
C2442 C2443 1.396 . S
C2442 C2447 1.390 . S
C2443 C2437 1.465 . S
C2443 C2442 1.396 . S
C2443 C2444 1.399 . S
C2444 H2430 0.929 . S
C2444 C2443 1.399 . S
C2444 C2445 1.385 . S
C2445 H2431 0.931 . S
C2445 C2444 1.385 . S
C2445 C2446 1.389 . S
C2446 C2445 1.389 . S
C2446 C2447 1.387 . S
C2447 H2432 0.930 . S
C2447 C2442 1.390 . S
C2447 C2446 1.387 . S
C517 C232 1.568 . S
C529 C3 1.534 . S
C544 C241 1.435 . S
C556 C22 1.484 . S
C571 C213 1.626 . S
C583 C31 1.659 . S
C598 C367 1.721 . S
C610 C45 1.703 . S
C625 C64 1.503 . S
C637 C339 1.476 . S
C652 C73 1.404 . S
C664 C358 1.459 . S
C679 C92 1.336 . S
C691 C484 1.347 . S
C706 C498 1.301 . S
C718 C106 1.308 . S
C733 C470 1.685 . S
C745 C120 1.640 . S
C760 C134 1.335 . S
C772 C288 1.350 . S
C787 C260 1.296 . S
C799 C148 1.302 . S
C814 C162 1.268 . S
C826 C274 1.296 . S
C841 C400 1.476 . S
C853 C171 1.456 . S
C868 C190 1.417 . S
C880 C409 1.392 . S
C895 C381 1.523 . S
C907 C199 1.566 . S
C922 C456 1.250 . S
C934 C302 1.264 . S
C949 C428 1.256 . S
C961 C316 1.261 . S
C976 C330 1.233 . S
C988 C442 1.271 . S
C1003 C259 1.196 . S
C1015 C9 1.175 . S
C1030 C273 1.409 . S
C1042 C21 1.446 . S
C1057 C287 2.221 . S
C1069 C37 1.970 . S
C1084 C51 1.239 . S
C1096 C469 1.255 . S
C1111 C63 2.149 . S
C1123 C483 2.127 . S
C1138 C79 1.392 . S
C1150 C497 1.404 . S
C1165 C91 1.190 . S
C1177 C345 1.161 . S
C1192 C357 1.420 . S
C1204 C105 1.446 . S
C1219 C373 1.406 . S
C1231 C119 1.506 . S
C1246 C219 1.150 . S
C1258 C133 1.173 . S
C1273 C147 2.162 . S
C1285 C231 2.137 . S
C1300 C161 1.388 . S
C1312 C247 1.380 . S
C1327 C177 1.135 . S
C1339 C427 1.195 . S
C1354 C441 1.316 . S
C1366 C189 1.272 . S
C1381 C455 1.857 . S
C1393 C205 1.613 . S
C1408 C387 1.151 . S
C1420 C301 1.246 1_554 S
C1435 C315 1.879 1_554 S
C1447 C399 1.833 . S
C1462 C329 1.700 . S
C1474 C415 1.673 . S
C1489 C386 1.502 . S
C1501 C8 1.481 . S
C1516 C17 1.400 . S
C1528 C395 1.350 . S
C1543 C36 1.524 . S
C1555 C414 1.649 . S
C1570 C176 1.428 . S
C1582 C50 1.448 . S
C1597 C59 1.293 . S
C1609 C185 1.499 . S
C1624 C78 1.581 . S
C1636 C204 1.475 . S
C1651 C297 1.458 . S
C1663 C87 1.494 . S
C1678 C101 1.532 . S
C1690 C311 1.362 . S
C1705 C325 1.426 . S
C1717 C115 1.531 . S
C1732 C129 1.443 . S
C1744 C423 1.413 . S
C1759 C437 1.897 . S
C1771 C143 1.674 . S
C1786 C451 1.297 . S
C1798 C157 1.339 . S
C1813 C344 1.589 . S
C1825 C218 1.576 . S
C1840 C353 1.463 . S
C1852 C227 1.317 . S
C1867 C372 1.416 . S
C1879 C246 1.417 . S
C1894 C255 1.431 . S
C1906 C465 1.425 . S
C1921 C479 1.495 . S
C1933 C269 1.744 . S
C1948 C493 1.589 . S
C1960 C283 1.478 . S
C1975 C7 0.927 . S
C1987 C233 0.914 . S
C2002 C23 0.971 . S
C2014 C245 0.904 . S
C2029 C35 1.047 . S
C2041 C217 0.995 . S
C2056 C371 1.174 . S
C2068 C49 1.170 . S
C2083 C343 0.903 . S
C2095 C65 0.878 . S
C2110 C359 0.980 . S
C2122 C77 0.912 . S
C2137 C485 0.813 . S
C2149 C93 0.753 . S
C2164 C499 0.682 . S
C2176 C107 0.880 . S
C2191 C471 1.017 . S
C2203 C121 1.188 . S
C2218 C135 0.738 . S
C2230 C289 0.870 . S
C2245 C149 0.720 . S
C2257 C261 0.791 . S
C2272 C163 0.689 . S
C2284 C275 0.865 . S
C2299 C401 0.905 . S
C2311 C175 1.011 . S
C2326 C413 0.954 . S
C2338 C191 0.946 . S
C2353 C203 1.110 . S
C2365 C385 1.122 . S
C2380 C303 0.911 . S
C2392 C457 0.819 . S
C2407 C429 0.895 . S
C2419 C317 0.749 . S
C2434 C443 0.734 . S
C2446 C331 0.802 . S
