# Generated by pormake.
# Topology qtz-e, (6)-cn, num edge types: 1
# Building blocks:
#     Node 0, Type 0, BuildingBlock: KUMBOL_clean_sbu_0, # of connection points: 6
#     Node 1, Type 0, BuildingBlock: KUMBOL_clean_sbu_0, # of connection points: 6
#     Node 2, Type 0, BuildingBlock: KUMBOL_clean_sbu_0, # of connection points: 6
#     Node 3, Type 0, BuildingBlock: KUMBOL_clean_sbu_0, # of connection points: 6
#     Node 4, Type 0, BuildingBlock: KUMBOL_clean_sbu_0, # of connection points: 6
#     Node 5, Type 0, BuildingBlock: KUMBOL_clean_sbu_0, # of connection points: 6
#     Edge 6, Type (0, 0), BuildingBlock: UVAHIK_clean_linker_0, # of connection points: 2
#     Edge 7, Type (0, 0), BuildingBlock: UVAHIK_clean_linker_0, # of connection points: 2
#     Edge 8, Type (0, 0), BuildingBlock: UVAHIK_clean_linker_0, # of connection points: 2
#     Edge 9, Type (0, 0), BuildingBlock: UVAHIK_clean_linker_0, # of connection points: 2
#     Edge 10, Type (0, 0), BuildingBlock: UVAHIK_clean_linker_0, # of connection points: 2
#     Edge 11, Type (0, 0), BuildingBlock: UVAHIK_clean_linker_0, # of connection points: 2
#     Edge 12, Type (0, 0), BuildingBlock: UVAHIK_clean_linker_0, # of connection points: 2
#     Edge 13, Type (0, 0), BuildingBlock: UVAHIK_clean_linker_0, # of connection points: 2
#     Edge 14, Type (0, 0), BuildingBlock: UVAHIK_clean_linker_0, # of connection points: 2
#     Edge 15, Type (0, 0), BuildingBlock: UVAHIK_clean_linker_0, # of connection points: 2
#     Edge 16, Type (0, 0), BuildingBlock: UVAHIK_clean_linker_0, # of connection points: 2
#     Edge 17, Type (0, 0), BuildingBlock: UVAHIK_clean_linker_0, # of connection points: 2
#     Edge 18, Type (0, 0), BuildingBlock: UVAHIK_clean_linker_0, # of connection points: 2
#     Edge 19, Type (0, 0), BuildingBlock: UVAHIK_clean_linker_0, # of connection points: 2
#     Edge 20, Type (0, 0), BuildingBlock: UVAHIK_clean_linker_0, # of connection points: 2
#     Edge 21, Type (0, 0), BuildingBlock: UVAHIK_clean_linker_0, # of connection points: 2
#     Edge 22, Type (0, 0), BuildingBlock: UVAHIK_clean_linker_0, # of connection points: 2
#     Edge 23, Type (0, 0), BuildingBlock: UVAHIK_clean_linker_0, # of connection points: 2
# Relax obj value: 0.057
# Max RMSD: 0.139
# Mean RMSD: 0.139
data_MOF--net-qtz-e--node1-KUMBOL_clean_sbu_0--edge1-UVAHIK_clean_linker_0
_symmetry_space_group_name_H-M    P1
_symmetry_Int_Tables_number       1
_symmetry_cell_setting            triclinic
loop_
_symmetry_equiv_pos_as_xyz
'x, y, z'
_cell_length_a     37.662374
_cell_length_b     37.70612
_cell_length_c     56.865104
_cell_angle_alpha  90.121889
_cell_angle_beta   89.954509
_cell_angle_gamma 120.02672
loop_
_atom_site_label
_atom_site_type_symbol
_atom_site_fract_x
_atom_site_fract_y
_atom_site_fract_z
_atom_type_partial_charge
Gd0 Gd 0.18712 0.37103 0.99432 0.0
Gd1 Gd 0.24133 0.46408 0.03174 0.0
C2 C 0.33464 0.58364 0.99638 0.0
C3 C 0.39897 0.59499 0.01296 0.0
C4 C 0.33445 0.53601 0.02493 0.0
C5 C 0.31336 0.54733 0.00964 0.0
C6 C 0.37734 0.56043 0.02735 0.0
C7 C 0.37764 0.6066 0.9975 0.0
C8 C 0.31197 0.59668 0.98318 0.0
C9 C 0.26922 0.57467 0.98427 0.0
N10 N 0.27177 0.52476 0.00929 0.0
C11 C 0.2495 0.53888 0.99771 0.0
H12 H 0.21646 0.52208 0.99816 0.0
C13 C 0.33093 0.49519 0.05735 0.0
N14 N 0.31249 0.50296 0.0389 0.0
C15 C 0.37347 0.51815 0.06025 0.0
C16 C 0.3969 0.55043 0.04488 0.0
H17 H 0.31284 0.47 0.06912 0.0
H18 H 0.39455 0.63421 0.98715 0.0
H19 H 0.23719 0.33452 0.02709 0.0
H20 H 0.32714 0.62434 0.97272 0.0
H21 H 0.25139 0.58505 0.9746 0.0
H22 H 0.43201 0.61384 0.01432 0.0
H23 H 0.09789 0.3452 0.96766 0.0
H24 H 0.14872 0.22825 0.06374 0.0
H25 H 0.22093 0.27873 0.05463 0.0
H26 H 0.02043 0.20668 0.03413 0.0
H27 H 0.38816 0.51093 0.07431 0.0
H28 H 0.42982 0.56837 0.04727 0.0
H29 H 0.07401 0.20216 0.0564 0.0
H30 H 0.02439 0.29424 0.97187 0.0
N31 N 0.17473 0.31667 0.02009 0.0
C32 C 0.15564 0.25271 0.05138 0.0
C33 C 0.1964 0.28107 0.04624 0.0
C34 C 0.12429 0.25579 0.04016 0.0
C35 C 0.13496 0.2883 0.02425 0.0
C36 C 0.20546 0.3128 0.03039 0.0
N37 N 0.11654 0.3218 0.99622 0.0
C38 C 0.10489 0.2911 0.01201 0.0
C39 C 0.04664 0.2932 0.98345 0.0
C40 C 0.03394 0.26297 1.00068 0.0
C41 C 0.0883 0.32205 0.98118 0.0
C42 C 0.06323 0.26114 0.01494 0.0
H43 H 1.00165 0.24051 1.00236 0.0
O44 O 0.16936 0.34974 0.9583 0.0
O45 O 0.23189 0.43713 0.99603 0.0
O46 O 0.18162 0.4575 0.0189 0.0
O47 O 0.14297 0.39542 0.99858 0.0
O48 O 0.19277 0.41748 0.96743 0.0
O49 O 0.218 0.34449 0.9749 0.0
O50 O 0.2407 0.47236 0.06952 0.0
O51 O 0.19258 0.39817 0.03013 0.0
O52 O 0.25417 0.38733 0.99993 0.0
O53 O 0.28892 0.44854 0.02137 0.0
O54 O 0.23283 0.41609 0.05813 0.0
O55 O 0.22146 0.50469 0.04598 0.0
C56 C 0.22358 0.4487 0.97709 0.0
C57 C 0.05229 0.22967 0.03143 0.0
C58 C 0.08279 0.22705 0.04406 0.0
C59 C 0.19569 0.33715 0.95607 0.0
C60 C 0.18112 0.29699 0.94468 0.0
C61 C 0.14859 0.26151 0.95446 0.0
C62 C 0.20041 0.29397 0.92406 0.0
C63 C 0.18748 0.25552 0.91334 0.0
C64 C 0.13535 0.22351 0.94386 0.0
C65 C 0.15454 0.22045 0.92354 0.0
C66 C 0.14799 0.4299 0.00799 0.0
C67 C 0.19993 0.38612 0.0493 0.0
C68 C 0.23081 0.50073 0.06752 0.0
C69 C 0.25704 0.53881 0.08043 0.0
C70 C 0.29116 0.57156 0.06961 0.0
C71 C 0.24857 0.54208 0.10406 0.0
C72 C 0.27424 0.57777 0.11691 0.0
C73 C 0.31718 0.60671 0.08239 0.0
C74 C 0.3089 0.60986 0.10595 0.0
C75 C 0.28753 0.41735 0.01013 0.0
H76 H 0.13353 0.2632 0.9703 0.0
H77 H 0.2259 0.32139 0.91667 0.0
H78 H 0.11008 0.19623 0.95146 0.0
H79 H 0.14328 0.19052 0.91566 0.0
H80 H 0.29764 0.57018 0.05131 0.0
H81 H 0.22203 0.51694 0.11241 0.0
H82 H 0.3435 0.63178 0.07391 0.0
H83 H 0.32884 0.63791 0.11538 0.0
Gd84 Gd 0.81872 0.18751 0.33018 0.0
Gd85 Gd 0.76504 0.23361 0.36188 0.0
C86 C 0.73883 0.32868 0.32867 0.0
C87 C 0.78258 0.38964 0.35164 0.0
C88 C 0.77984 0.3252 0.36033 0.0
C89 C 0.7526 0.30643 0.34208 0.0
C90 C 0.79457 0.36681 0.36565 0.0
C91 C 0.75471 0.37058 0.33318 0.0
C92 C 0.70865 0.3079 0.31161 0.0
C93 C 0.69199 0.26577 0.30883 0.0
N94 N 0.73788 0.26588 0.33823 0.0
C95 C 0.70656 0.24505 0.32259 0.0
H96 H 0.69311 0.21254 0.32015 0.0
C97 C 0.81322 0.31801 0.39362 0.0
N98 N 0.79057 0.30219 0.37358 0.0
C99 C 0.82887 0.35922 0.39952 0.0
C100 C 0.82 0.38391 0.38527 0.0
H101 H 0.82041 0.29912 0.40462 0.0
H102 H 0.74486 0.38826 0.32288 0.0
H103 H 0.896 0.23408 0.36973 0.0
H104 H 0.69728 0.32386 0.30094 0.0
H105 H 0.66797 0.24918 0.29604 0.0
H106 H 0.79385 0.42175 0.3553 0.0
H107 H 0.76427 0.10357 0.29754 0.0
H108 H 0.91068 0.14214 0.4046 0.0
H109 H 0.9309 0.21487 0.3991 0.0
H110 H 0.81626 0.01858 0.36451 0.0
H111 H 0.84781 0.37191 0.41501 0.0
H112 H 0.83205 0.41581 0.38991 0.0
H113 H 0.86719 0.0689 0.3919 0.0
H114 H 0.74472 0.03037 0.29786 0.0
N115 N 0.85578 0.1728 0.35823 0.0
C116 C 0.89528 0.15039 0.39145 0.0
C117 C 0.90684 0.19147 0.38836 0.0
C118 C 0.86457 0.12055 0.37721 0.0
C119 C 0.84538 0.13291 0.36042 0.0
C120 C 0.88689 0.20223 0.3715 0.0
N121 N 0.79981 0.11786 0.32882 0.0
C122 C 0.81637 0.10453 0.34528 0.0
C123 C 0.76463 0.05081 0.31142 0.0
C124 C 0.77941 0.03604 0.32915 0.0
C125 C 0.77578 0.09218 0.31128 0.0
C126 C 0.80621 0.06312 0.34613 0.0
H127 H 0.77089 0.00401 0.32919 0.0
O128 O 0.82992 0.1802 0.29341 0.0
O129 O 0.79373 0.2293 0.32873 0.0
O130 O 0.72041 0.17752 0.3413 0.0
O131 O 0.75154 0.13799 0.3347 0.0
O132 O 0.78331 0.19226 0.29957 0.0
O133 O 0.88103 0.21728 0.31642 0.0
O134 O 0.7427 0.22811 0.39777 0.0
O135 O 0.78874 0.19008 0.36335 0.0
O136 O 0.86441 0.25412 0.34107 0.0
O137 O 0.82801 0.28556 0.35488 0.0
O138 O 0.7987 0.22593 0.39256 0.0
O139 O 0.69985 0.20006 0.36892 0.0
C140 C 0.77899 0.22151 0.30825 0.0
C141 C 0.82403 0.05035 0.3634 0.0
C142 C 0.85309 0.07901 0.37895 0.0
C143 C 0.86964 0.20261 0.29521 0.0
C144 C 0.89405 0.18725 0.28314 0.0
C145 C 0.89542 0.15335 0.29205 0.0
C146 C 0.91614 0.20656 0.26245 0.0
C147 C 0.93996 0.19234 0.2509 0.0
C148 C 0.91842 0.13883 0.28061 0.0
C149 C 0.94051 0.15807 0.26027 0.0
C150 C 0.71888 0.14268 0.33583 0.0
C151 C 0.80313 0.19682 0.38393 0.0
C152 C 0.70449 0.21013 0.39112 0.0
C153 C 0.67992 0.22763 0.4002 0.0
C154 C 0.66571 0.24742 0.38516 0.0
C155 C 0.67011 0.22413 0.42421 0.0
C156 C 0.64544 0.23932 0.43302 0.0
C157 C 0.64158 0.26291 0.39393 0.0
C158 C 0.6312 0.25866 0.41771 0.0
C159 C 0.86221 0.2864 0.34878 0.0
H160 H 0.87872 0.13814 0.30785 0.0
H161 H 0.91535 0.23299 0.25566 0.0
H162 H 0.91919 0.11251 0.28755 0.0
H163 H 0.9578 0.14581 0.25175 0.0
H164 H 0.67284 0.25066 0.36661 0.0
H165 H 0.68085 0.20881 0.43592 0.0
H166 H 0.63067 0.27801 0.38223 0.0
H167 H 0.61224 0.27067 0.4242 0.0
Gd168 Gd 0.63265 0.81759 0.66215 0.0
Gd169 Gd 0.53659 0.77056 0.69762 0.0
C170 C 0.4156 0.74076 0.66248 0.0
C171 C 0.39992 0.78913 0.68143 0.0
C172 C 0.46091 0.78654 0.69252 0.0
C173 C 0.45181 0.75633 0.67597 0.0
C174 C 0.43459 0.80263 0.69586 0.0
C175 C 0.3904 0.75818 0.66478 0.0
C176 C 0.40501 0.70715 0.64776 0.0
C177 C 0.42933 0.68886 0.64754 0.0
N178 N 0.47672 0.74003 0.67431 0.0
C179 C 0.46495 0.70542 0.66124 0.0
H180 H 0.48345 0.69099 0.6607 0.0
C181 C 0.50105 0.82346 0.72533 0.0
N182 N 0.49431 0.79844 0.70636 0.0
C183 C 0.47614 0.84065 0.72918 0.0
C184 C 0.44314 0.83072 0.71414 0.0
H185 H 0.52682 0.83148 0.73684 0.0
H186 H 0.36279 0.74703 0.65432 0.0
H187 H 0.66458 0.8997 0.69833 0.0
H188 H 0.3775 0.69431 0.63708 0.0
H189 H 0.42085 0.66218 0.63669 0.0
H190 H 0.37955 0.80144 0.68354 0.0
H191 H 0.66248 0.76011 0.6325 0.0
H192 H 0.77245 0.9193 0.73404 0.0
H193 H 0.71947 0.93837 0.72673 0.0
H194 H 0.80097 0.82047 0.69927 0.0
H195 H 0.48244 0.86157 0.74371 0.0
H196 H 0.42376 0.84392 0.71722 0.0
H197 H 0.8021 0.87457 0.72408 0.0
H198 H 0.71624 0.74093 0.63477 0.0
N199 N 0.68558 0.85839 0.68906 0.0
C200 C 0.74844 0.90222 0.7213 0.0
C201 C 0.71867 0.91312 0.71717 0.0
C202 C 0.74733 0.8699 0.7086 0.0
C203 C 0.71532 0.84855 0.69225 0.0
C204 C 0.68749 0.891 0.70083 0.0
N205 N 0.68407 0.79925 0.66247 0.0
C206 C 0.7144 0.81784 0.67859 0.0
C207 C 0.7159 0.76234 0.64736 0.0
C208 C 0.74584 0.77928 0.66486 0.0
C209 C 0.68554 0.77327 0.64615 0.0
C210 C 0.74583 0.80799 0.68048 0.0
H211 H 0.76946 0.77092 0.66571 0.0
O212 O 0.65241 0.82463 0.62562 0.0
O213 O 0.56571 0.79287 0.66276 0.0
O214 O 0.54685 0.72125 0.68223 0.0
O215 O 0.6131 0.75017 0.66624 0.0
O216 O 0.58878 0.77773 0.63384 0.0
O217 O 0.66056 0.87726 0.64524 0.0
O218 O 0.52157 0.75599 0.73463 0.0
O219 O 0.60353 0.79239 0.69699 0.0
O220 O 0.61318 0.86533 0.66994 0.0
O221 O 0.54911 0.83328 0.6887 0.0
O222 O 0.58168 0.80788 0.7261 0.0
O223 O 0.50315 0.70736 0.70888 0.0
C224 C 0.55616 0.77464 0.64322 0.0
C225 C 0.77685 0.82797 0.69736 0.0
C226 C 0.77755 0.85883 0.71144 0.0
C227 C 0.66648 0.86398 0.62527 0.0
C228 C 0.7066 0.88957 0.61386 0.0
C229 C 0.74227 0.89309 0.62377 0.0
C230 C 0.70941 0.91123 0.59305 0.0
C231 C 0.74784 0.93674 0.58232 0.0
C232 C 0.78025 0.91783 0.61315 0.0
C233 C 0.78311 0.93951 0.59267 0.0
C234 C 0.57767 0.71852 0.67305 0.0
C235 C 0.61365 0.8093 0.71694 0.0
C236 C 0.49981 0.71678 0.73053 0.0
C237 C 0.45828 0.6954 0.74059 0.0
C238 C 0.42374 0.68513 0.72654 0.0
C239 C 0.45291 0.68406 0.76436 0.0
C240 C 0.41328 0.66169 0.77384 0.0
C241 C 0.3844 0.66353 0.73605 0.0
C242 C 0.37909 0.65154 0.75955 0.0
C243 C 0.58089 0.86544 0.67938 0.0
H244 H 0.74075 0.87682 0.63974 0.0
H245 H 0.68186 0.90885 0.58552 0.0
H246 H 0.80767 0.92029 0.62087 0.0
H247 H 0.81302 0.95823 0.58478 0.0
H248 H 0.42694 0.69316 0.70818 0.0
H249 H 0.47938 0.69155 0.77526 0.0
H250 H 0.35797 0.65564 0.72509 0.0
H251 H 0.34831 0.63433 0.76662 0.0
Gd252 Gd 0.81868 0.63212 0.99411 0.0
Gd253 Gd 0.76831 0.53821 0.03079 0.0
C254 C 0.67764 0.41834 0.99445 0.0
C255 C 0.61273 0.40391 0.01175 0.0
C256 C 0.67627 0.46396 0.02399 0.0
C257 C 0.69801 0.45434 0.00813 0.0
C258 C 0.63358 0.43816 0.02654 0.0
C259 C 0.63475 0.39398 0.99574 0.0
C260 C 0.70112 0.40699 0.98066 0.0
C261 C 0.74383 0.43033 0.98156 0.0
N262 N 0.73948 0.47826 0.00759 0.0
C263 C 0.76263 0.46578 0.99542 0.0
H264 H 0.79565 0.48366 0.99572 0.0
C265 C 0.67867 0.50289 0.05722 0.0
N266 N 0.6975 0.49676 0.0383 0.0
C267 C 0.63627 0.47853 0.06028 0.0
C268 C 0.61347 0.44651 0.04457 0.0
H269 H 0.69626 0.52792 0.06924 0.0
H270 H 0.6185 0.36659 0.98508 0.0
H271 H 0.76533 0.66392 0.02776 0.0
H272 H 0.68666 0.37962 0.96986 0.0
H273 H 0.76233 0.42126 0.97143 0.0
H274 H 0.57984 0.38402 0.01321 0.0
H275 H 0.90904 0.66264 0.96746 0.0
H276 H 0.85033 0.77074 0.06557 0.0
H277 H 0.77898 0.71818 0.05608 0.0
H278 H 0.98085 0.79913 0.03576 0.0
H279 H 0.62122 0.48448 0.0747 0.0
H280 H 0.58067 0.42751 0.04706 0.0
H281 H 0.92558 0.80014 0.0583 0.0
H282 H 0.9817 0.71577 0.97218 0.0
N283 N 0.82844 0.68478 0.02069 0.0
C284 C 0.84456 0.74698 0.05287 0.0
C285 C 0.80428 0.71743 0.04752 0.0
C286 C 0.8769 0.74594 0.04146 0.0
C287 C 0.86772 0.71427 0.0251 0.0
C288 C 0.7967 0.68659 0.03123 0.0
N289 N 0.88852 0.68344 0.99651 0.0
C290 C 0.89876 0.71341 0.01271 0.0
C291 C 0.95877 0.71526 0.98388 0.0
C292 C 0.97012 0.74474 1.00153 0.0
C293 C 0.91757 0.68515 0.98133 0.0
C294 C 0.9399 0.74458 0.01592 0.0
H295 H 1.00204 0.76817 1.00342 0.0
O296 O 0.83588 0.6542 0.95822 0.0
O297 O 0.77569 0.56552 0.99537 0.0
O298 O 0.82889 0.5476 0.01744 0.0
O299 O 0.86488 0.61017 0.99735 0.0
O300 O 0.81441 0.58696 0.96662 0.0
O301 O 0.78696 0.65836 0.97535 0.0
O302 O 0.76981 0.52897 0.0684 0.0
O303 O 0.81525 0.60473 0.02955 0.0
O304 O 0.75072 0.61254 0.99974 0.0
O305 O 0.71902 0.55209 0.02188 0.0
O306 O 0.77575 0.58493 0.05793 0.0
O307 O 0.79062 0.49901 0.04397 0.0
C308 C 0.78437 0.55495 0.97614 0.0
C309 C 0.94939 0.77524 0.03284 0.0
C310 C 0.91793 0.77587 0.04562 0.0
C311 C 0.80918 0.66638 0.95642 0.0
C312 C 0.82329 0.70673 0.94548 0.0
C313 C 0.85521 0.74223 0.9557 0.0
C314 C 0.80429 0.7099 0.9248 0.0
C315 C 0.81694 0.7485 0.91445 0.0
C316 C 0.86817 0.78038 0.94548 0.0
C317 C 0.84929 0.78358 0.92508 0.0
C318 C 0.86164 0.57622 0.00638 0.0
C319 C 0.80778 0.61581 0.04906 0.0
C320 C 0.78091 0.50161 0.06567 0.0
C321 C 0.75563 0.46275 0.07803 0.0
C322 C 0.7236 0.42899 0.06645 0.0
C323 C 0.76272 0.45975 0.10192 0.0
C324 C 0.73781 0.42331 0.11427 0.0
C325 C 0.69832 0.39302 0.07871 0.0
C326 C 0.70526 0.39012 0.10252 0.0
C327 C 0.71847 0.58216 0.01052 0.0
H328 H 0.87005 0.74043 0.97159 0.0
H329 H 0.77927 0.68246 0.91706 0.0
H330 H 0.89298 0.80766 0.95341 0.0
H331 H 0.86037 0.81363 0.91749 0.0
H332 H 0.71816 0.43024 0.04797 0.0
H333 H 0.78757 0.48575 0.11087 0.0
H334 H 0.67362 0.36717 0.06965 0.0
H335 H 0.68596 0.36149 0.11155 0.0
Gd336 Gd 0.1882 0.81666 0.33045 0.0
Gd337 Gd 0.23291 0.76334 0.36367 0.0
C338 C 0.2627 0.67265 0.32793 0.0
C339 C 0.21367 0.60829 0.34625 0.0
C340 C 0.21612 0.67167 0.35762 0.0
C341 C 0.24704 0.69311 0.3415 0.0
C342 C 0.19959 0.62915 0.36052 0.0
C343 C 0.2452 0.63001 0.32999 0.0
C344 C 0.29621 0.69578 0.31319 0.0
C345 C 0.31413 0.73833 0.31287 0.0
N346 N 0.26332 0.73433 0.34 0.0
C347 C 0.29762 0.75725 0.32672 0.0
H348 H 0.3119 0.79014 0.32615 0.0
C349 C 0.17661 0.67386 0.38935 0.0
N350 N 0.20342 0.69279 0.37122 0.0
C351 C 0.15902 0.63165 0.39276 0.0
C352 C 0.17017 0.60908 0.37808 0.0
H353 H 0.1678 0.69125 0.40064 0.0
H354 H 0.25649 0.61371 0.3195 0.0
H355 H 0.10737 0.77557 0.36776 0.0
H356 H 0.30907 0.68122 0.30244 0.0
H357 H 0.34059 0.7566 0.3019 0.0
H358 H 0.2011 0.57555 0.34805 0.0
H359 H 0.2471 0.89804 0.29725 0.0
H360 H 0.09973 0.87292 0.40128 0.0
H361 H 0.07408 0.79889 0.39596 0.0
H362 H 0.20225 0.99268 0.36165 0.0
H363 H 0.13691 0.61658 0.40669 0.0
H364 H 0.15664 0.57641 0.38082 0.0
H365 H 0.14828 0.94527 0.38868 0.0
H366 H 0.27171 0.97245 0.29661 0.0
N367 N 0.15233 0.83577 0.35701 0.0
C368 C 0.11452 0.86286 0.38872 0.0
C369 C 0.09988 0.82106 0.38571 0.0
C370 C 0.14728 0.89109 0.37497 0.0
C371 C 0.16552 0.87635 0.35893 0.0
C372 C 0.11893 0.80796 0.36953 0.0
N373 N 0.21116 0.88722 0.32807 0.0
C374 C 0.19604 0.90298 0.34399 0.0
C375 C 0.25065 0.95333 0.31015 0.0
C376 C 0.23726 0.97048 0.32734 0.0
C377 C 0.23663 0.91128 0.31053 0.0
C378 C 0.209 0.94514 0.34429 0.0
H379 H 0.24797 0.00303 0.32695 0.0
O380 O 0.17887 0.82327 0.29328 0.0
O381 O 0.21129 0.77327 0.32947 0.0
O382 O 0.28282 0.82285 0.34871 0.0
O383 O 0.25565 0.86404 0.33691 0.0
O384 O 0.22735 0.81332 0.30147 0.0
O385 O 0.12664 0.78748 0.31563 0.0
O386 O 0.24708 0.76085 0.40057 0.0
O387 O 0.21195 0.80898 0.3648 0.0
O388 O 0.13862 0.75129 0.34107 0.0
O389 O 0.17119 0.71464 0.35195 0.0
O390 O 0.19497 0.76914 0.39262 0.0
O391 O 0.29596 0.79198 0.37506 0.0
C392 C 0.22947 0.78274 0.30995 0.0
C393 C 0.19235 0.96032 0.36094 0.0
C394 C 0.16159 0.93333 0.3763 0.0
C395 C 0.13907 0.80166 0.29449 0.0
C396 C 0.11589 0.81782 0.28189 0.0
C397 C 0.1158 0.85271 0.2903 0.0
C398 C 0.09341 0.79809 0.26135 0.0
C399 C 0.07042 0.81288 0.24947 0.0
C400 C 0.09362 0.86778 0.27852 0.0
C401 C 0.07108 0.8481 0.25836 0.0
C402 C 0.28689 0.85839 0.34221 0.0
C403 C 0.19428 0.80067 0.38451 0.0
C404 C 0.2864 0.77858 0.39656 0.0
C405 C 0.30803 0.75854 0.40631 0.0
C406 C 0.31918 0.73533 0.39193 0.0
C407 C 0.31923 0.76409 0.43012 0.0
C408 C 0.34237 0.74753 0.43932 0.0
C409 C 0.34158 0.71829 0.40115 0.0
C410 C 0.35347 0.72461 0.4247 0.0
C411 C 0.13838 0.71683 0.34653 0.0
H412 H 0.13281 0.86824 0.30598 0.0
H413 H 0.09319 0.77089 0.25494 0.0
H414 H 0.09379 0.89484 0.28509 0.0
H415 H 0.05436 0.86071 0.24958 0.0
H416 H 0.31131 0.73091 0.37351 0.0
H417 H 0.31111 0.78232 0.44127 0.0
H418 H 0.35022 0.70061 0.38993 0.0
H419 H 0.37132 0.71162 0.43154 0.0
Gd420 Gd 0.37369 0.18824 0.66125 0.0
Gd421 Gd 0.47056 0.23629 0.69589 0.0
C422 C 0.59092 0.26594 0.65998 0.0
C423 C 0.60786 0.2189 0.67933 0.0
C424 C 0.54664 0.221 0.69056 0.0
C425 C 0.55504 0.25055 0.67375 0.0
C426 C 0.57345 0.20553 0.69397 0.0
C427 C 0.61661 0.2491 0.66238 0.0
C428 C 0.60074 0.29885 0.64491 0.0
C429 C 0.57602 0.3167 0.64462 0.0
N430 N 0.52974 0.26638 0.67206 0.0
C431 C 0.5408 0.3004 0.65864 0.0
H432 H 0.52199 0.31448 0.65806 0.0
C433 C 0.50731 0.18478 0.7237 0.0
N434 N 0.51345 0.20917 0.70456 0.0
C435 C 0.53275 0.16825 0.72764 0.0
C436 C 0.56561 0.17816 0.71248 0.0
H437 H 0.48168 0.17682 0.73532 0.0
H438 H 0.644 0.26015 0.65173 0.0
H439 H 0.34171 0.10699 0.69786 0.0
H440 H 0.62797 0.31152 0.63402 0.0
H441 H 0.58391 0.34286 0.63349 0.0
H442 H 0.6286 0.20705 0.68149 0.0
H443 H 0.34386 0.24494 0.63103 0.0
H444 H 0.23431 0.0888 0.73363 0.0
H445 H 0.28696 0.06919 0.72646 0.0
H446 H 0.20596 0.18699 0.69806 0.0
H447 H 0.52699 0.14788 0.74234 0.0
H448 H 0.58543 0.1655 0.71565 0.0
H449 H 0.20485 0.13352 0.72331 0.0
H450 H 0.29021 0.26434 0.633 0.0
N451 N 0.32095 0.14833 0.68838 0.0
C452 C 0.25825 0.1055 0.72081 0.0
C453 C 0.28784 0.09429 0.71676 0.0
C454 C 0.25943 0.13758 0.70789 0.0
C455 C 0.29135 0.15842 0.69146 0.0
C456 C 0.31893 0.11591 0.70032 0.0
N457 N 0.32244 0.2068 0.66131 0.0
C458 C 0.29227 0.18878 0.67755 0.0
C459 C 0.2906 0.24332 0.64578 0.0
C460 C 0.26083 0.22702 0.66339 0.0
C461 C 0.32088 0.23225 0.64473 0.0
C462 C 0.26092 0.19878 0.67928 0.0
H463 H 0.23727 0.23547 0.66412 0.0
O464 O 0.35423 0.18025 0.62464 0.0
O465 O 0.44069 0.21304 0.66126 0.0
O466 O 0.45955 0.28511 0.68058 0.0
O467 O 0.39249 0.25538 0.66572 0.0
O468 O 0.41678 0.22783 0.63267 0.0
O469 O 0.3446 0.12788 0.64498 0.0
O470 O 0.48637 0.25197 0.73276 0.0
O471 O 0.40355 0.21403 0.69585 0.0
O472 O 0.39328 0.14078 0.66944 0.0
O473 O 0.45821 0.17345 0.68722 0.0
O474 O 0.42634 0.19945 0.72481 0.0
O475 O 0.50417 0.29982 0.70665 0.0
C476 C 0.44968 0.23102 0.64167 0.0
C477 C 0.23002 0.17936 0.69627 0.0
C478 C 0.22933 0.14886 0.71059 0.0
C479 C 0.3392 0.14074 0.62477 0.0
C480 C 0.29895 0.11556 0.61338 0.0
C481 C 0.26378 0.11386 0.62285 0.0
C482 C 0.29551 0.09251 0.59303 0.0
C483 C 0.25694 0.06744 0.58233 0.0
C484 C 0.22568 0.08959 0.61223 0.0
C485 C 0.22218 0.06653 0.5922 0.0
C486 C 0.4281 0.28737 0.67202 0.0
C487 C 0.394 0.19751 0.71587 0.0
C488 C 0.50805 0.29105 0.72833 0.0
C489 C 0.5498 0.31272 0.73809 0.0
C490 C 0.58415 0.3238 0.72369 0.0
C491 C 0.55555 0.32341 0.76198 0.0
C492 C 0.59533 0.34597 0.77126 0.0
C493 C 0.62365 0.34563 0.73298 0.0
C494 C 0.62932 0.35699 0.75662 0.0
C495 C 0.42596 0.14096 0.67845 0.0
H496 H 0.26576 0.13119 0.63847 0.0
H497 H 0.32264 0.09346 0.58586 0.0
H498 H 0.19865 0.08853 0.6196 0.0
H499 H 0.1922 0.04813 0.58431 0.0
H500 H 0.58064 0.31621 0.70522 0.0
H501 H 0.52923 0.31525 0.77317 0.0
H502 H 0.64994 0.35417 0.72176 0.0
H503 H 0.66022 0.37437 0.76352 0.0
C504 C 0.20789 0.71166 0.29641 0.0
C505 C 0.23367 0.75422 0.29417 0.0
C506 C 0.20992 0.68505 0.28009 0.0
C507 C 0.2226 0.67662 0.21981 0.0
H508 H 0.26407 0.60238 0.23102 0.0
C509 C 0.22358 0.57496 0.14619 0.0
C510 C 0.26347 0.5831 0.14113 0.0
C511 C 0.21495 0.58658 0.16778 0.0
C512 C 0.25201 0.62267 0.22781 0.0
H513 H 0.28055 0.80256 0.27291 0.0
H514 H 0.28316 0.75585 0.24382 0.0
H515 H 0.26017 0.64321 0.26374 0.0
H516 H 0.32464 0.60635 0.15522 0.0
H517 H 0.30949 0.62676 0.19307 0.0
H518 H 0.21483 0.65696 0.18401 0.0
C519 C 0.26245 0.74327 0.25864 0.0
C520 C 0.24981 0.64584 0.2464 0.0
C521 C 0.26091 0.76981 0.27516 0.0
C522 C 0.29377 0.6002 0.15865 0.0
C523 C 0.28501 0.61147 0.18034 0.0
C524 C 0.22408 0.65305 0.2014 0.0
C525 C 0.23682 0.70082 0.26097 0.0
C526 C 0.23592 0.67353 0.24229 0.0
C527 C 0.24596 0.60616 0.1847 0.0
C528 C 0.23949 0.62644 0.20512 0.0
H529 H 0.18567 0.69891 0.31044 0.0
H530 H 0.18954 0.65234 0.2819 0.0
H531 H 0.21171 0.69784 0.21643 0.0
H532 H 0.19971 0.56196 0.13296 0.0
H533 H 0.18455 0.58205 0.17084 0.0
C534 C 0.49625 0.26335 0.6078 0.0
C535 C 0.48265 0.23484 0.62618 0.0
C536 C 0.52416 0.26437 0.59131 0.0
C537 C 0.54843 0.19546 0.56148 0.0
H538 H 0.63759 0.29482 0.53471 0.0
C539 C 0.59202 0.21508 0.4642 0.0
C540 C 0.63361 0.23431 0.45804 0.0
C541 C 0.58046 0.21215 0.48773 0.0
C542 C 0.61328 0.26675 0.54225 0.0
H543 H 0.48682 0.18459 0.64169 0.0
H544 H 0.53515 0.18579 0.61247 0.0
H545 H 0.60674 0.29804 0.57203 0.0
H546 H 0.69584 0.26503 0.47134 0.0
H547 H 0.67551 0.26102 0.5128 0.0
H548 H 0.55325 0.16459 0.53102 0.0
C549 C 0.52495 0.20796 0.61119 0.0
C550 C 0.59554 0.26864 0.56347 0.0
C551 C 0.49745 0.20736 0.62791 0.0
C552 C 0.66356 0.24997 0.47579 0.0
C553 C 0.652 0.24776 0.49938 0.0
C554 C 0.56577 0.19368 0.54013 0.0
C555 C 0.53809 0.23612 0.59256 0.0
C556 C 0.56215 0.2332 0.57287 0.0
C557 C 0.61032 0.22901 0.50549 0.0
C558 C 0.59748 0.22951 0.52999 0.0
H559 H 0.48475 0.28443 0.60602 0.0
H560 H 0.53326 0.28591 0.57689 0.0
H561 H 0.52254 0.16774 0.56828 0.0
H562 H 0.56846 0.20266 0.45077 0.0
H563 H 0.54815 0.198 0.49197 0.0
C564 C 0.29545 0.49373 0.96325 0.0
C565 C 0.25375 0.48204 0.96227 0.0
C566 C 0.32317 0.52208 0.94723 0.0
C567 C 0.35966 0.55077 0.89815 0.0
H568 H 0.35527 0.64626 0.87699 0.0
C569 C 0.38325 0.60533 0.80307 0.0
C570 C 0.40716 0.64732 0.79835 0.0
C571 C 0.37511 0.59142 0.82619 0.0
C572 C 0.35747 0.62017 0.88299 0.0
H573 H 0.20799 0.49006 0.94391 0.0
H574 H 0.2565 0.54009 0.91596 0.0
H575 H 0.32049 0.61189 0.91344 0.0
H576 H 0.44206 0.70781 0.81372 0.0
H577 H 0.42661 0.68337 0.85459 0.0
H578 H 0.39444 0.55749 0.86698 0.0
C579 C 0.26793 0.528 0.92937 0.0
C580 C 0.3374 0.60042 0.9037 0.0
C581 C 0.24017 0.49924 0.94518 0.0
C582 C 0.42359 0.67526 0.81709 0.0
C583 C 0.41476 0.66136 0.84032 0.0
C584 C 0.37925 0.57019 0.87732 0.0
C585 C 0.30954 0.53915 0.93 0.0
C586 C 0.33722 0.56477 0.91101 0.0
C587 C 0.39022 0.61932 0.84501 0.0
C588 C 0.37715 0.60421 0.86919 0.0
H589 H 0.30648 0.48025 0.97599 0.0
H590 H 0.35507 0.53007 0.94799 0.0
H591 H 0.35978 0.5232 0.90334 0.0
H592 H 0.37044 0.58334 0.78882 0.0
H593 H 0.35567 0.5589 0.82936 0.0
C594 C 0.7979 0.29272 0.29669 0.0
C595 C 0.77463 0.25023 0.29288 0.0
C596 C 0.79631 0.31981 0.2806 0.0
C597 C 0.79175 0.33261 0.22013 0.0
H598 H 0.73855 0.39718 0.22873 0.0
C599 C 0.78765 0.43005 0.14529 0.0
C600 C 0.74731 0.41864 0.13889 0.0
C601 C 0.79577 0.41955 0.16733 0.0
C602 C 0.75391 0.37966 0.22627 0.0
H603 H 0.73237 0.20257 0.26934 0.0
H604 H 0.73049 0.25014 0.24078 0.0
H605 H 0.74228 0.35704 0.26177 0.0
H606 H 0.68445 0.39061 0.15107 0.0
H607 H 0.69865 0.37197 0.18963 0.0
H608 H 0.80266 0.35394 0.18468 0.0
C609 C 0.74896 0.26224 0.25651 0.0
C610 C 0.75606 0.35692 0.24506 0.0
C611 C 0.7501 0.23521 0.27273 0.0
C612 C 0.71573 0.39926 0.15551 0.0
C613 C 0.72392 0.38903 0.17763 0.0
C614 C 0.79021 0.35572 0.20154 0.0
C615 C 0.77232 0.30462 0.26027 0.0
C616 C 0.77412 0.33255 0.24182 0.0
C617 C 0.76374 0.39773 0.18336 0.0
C618 C 0.7705 0.37873 0.20427 0.0
H619 H 0.81793 0.30505 0.31177 0.0
H620 H 0.81487 0.35251 0.28355 0.0
H621 H 0.80578 0.31387 0.21741 0.0
H622 H 0.81254 0.44487 0.13279 0.0
H623 H 0.82677 0.42676 0.17143 0.0
C624 C 0.50783 0.74077 0.61024 0.0
C625 C 0.52252 0.77022 0.62819 0.0
C626 C 0.47869 0.73873 0.59435 0.0
C627 C 0.45135 0.80484 0.56445 0.0
H628 H 0.35924 0.70335 0.54168 0.0
C629 C 0.39856 0.77471 0.46881 0.0
C630 C 0.35648 0.75539 0.46391 0.0
C631 C 0.41227 0.78035 0.492 0.0
C632 C 0.38435 0.73203 0.54813 0.0
H633 H 0.51941 0.82135 0.6434 0.0
H634 H 0.46898 0.8184 0.61516 0.0
H635 H 0.39381 0.70347 0.57819 0.0
H636 H 0.29561 0.72744 0.479 0.0
H637 H 0.31972 0.7361 0.51995 0.0
H638 H 0.44365 0.83286 0.53362 0.0
C639 C 0.4792 0.79624 0.61383 0.0
C640 C 0.4042 0.73204 0.56887 0.0
C641 C 0.50789 0.79785 0.62997 0.0
C642 C 0.32823 0.74247 0.48252 0.0
C643 C 0.34194 0.74736 0.50579 0.0
C644 C 0.4319 0.80471 0.54356 0.0
C645 C 0.46466 0.76688 0.59576 0.0
C646 C 0.43865 0.76819 0.57677 0.0
C647 C 0.38409 0.76614 0.51067 0.0
C648 C 0.3991 0.76805 0.53486 0.0
H649 H 0.51923 0.71961 0.60839 0.0
H650 H 0.46851 0.7163 0.58029 0.0
H651 H 0.47802 0.83306 0.57012 0.0
H652 H 0.42079 0.78503 0.45466 0.0
H653 H 0.4449 0.79445 0.49532 0.0
C654 C 0.76876 0.50586 0.9434 0.0
C655 C 0.7546 0.52163 0.96109 0.0
C656 C 0.7413 0.47719 0.9274 0.0
C657 C 0.64852 0.45282 0.89702 0.0
H658 H 0.65565 0.35971 0.87385 0.0
C659 C 0.58605 0.33102 0.81437 0.0
C660 C 0.60175 0.35957 0.79596 0.0
C661 C 0.59504 0.34425 0.83774 0.0
C662 C 0.65271 0.38512 0.88041 0.0
H663 H 0.70108 0.52086 0.9757 0.0
H664 H 0.653 0.47125 0.94734 0.0
H665 H 0.69033 0.39337 0.91054 0.0
H666 H 0.63733 0.42392 0.78717 0.0
H667 H 0.65232 0.44718 0.82797 0.0
H668 H 0.61312 0.44622 0.86616 0.0
C669 C 0.68516 0.48029 0.94626 0.0
C670 C 0.6727 0.40446 0.90125 0.0
C671 C 0.7126 0.50854 0.96248 0.0
C672 C 0.6251 0.40146 0.80116 0.0
C673 C 0.63336 0.4147 0.82443 0.0
C674 C 0.62902 0.43383 0.87605 0.0
C675 C 0.69937 0.4647 0.92844 0.0
C676 C 0.67185 0.43927 0.9093 0.0
C677 C 0.61896 0.38621 0.8429 0.0
C678 C 0.6321 0.4007 0.8672 0.0
H679 H 0.80116 0.5161 0.94183 0.0
H680 H 0.75315 0.46623 0.91354 0.0
H681 H 0.6476 0.47976 0.90278 0.0
H682 H 0.56802 0.29853 0.81063 0.0
H683 H 0.58375 0.32179 0.85174 0.0
C684 C 0.34581 0.42625 0.98499 0.0
C685 C 0.32762 0.4199 0.00729 0.0
C686 C 0.38817 0.4414 0.98288 0.0
C687 C 0.48084 0.46006 0.01672 0.0
H688 H 0.53952 0.55225 0.97457 0.0
C689 C 0.65271 0.56804 0.02817 0.0
C690 C 0.67734 0.57741 0.00804 0.0
C691 C 0.61023 0.55019 0.0262 0.0
C692 C 0.52357 0.52631 0.98625 0.0
H693 H 0.3386 0.42246 0.04472 0.0
H694 H 0.41187 0.44804 0.04122 0.0
H695 H 0.46441 0.5135 0.97401 0.0
H696 H 0.6773 0.57767 0.97001 0.0
H697 H 0.60258 0.54699 0.96642 0.0
H698 H 0.5397 0.47312 0.02927 0.0
C699 C 0.3939 0.44125 0.02527 0.0
C700 C 0.48052 0.50393 0.98586 0.0
C701 C 0.35185 0.42648 0.02733 0.0
C702 C 0.65903 0.57152 0.9858 0.0
C703 C 0.61623 0.55355 0.98378 0.0
C704 C 0.52369 0.4824 0.01715 0.0
C705 C 0.41292 0.45012 1.00307 0.0
C706 C 0.45859 0.47095 1.00141 0.0
C707 C 0.59124 0.54112 1.004 0.0
C708 C 0.54562 0.51634 1.00228 0.0
H709 H 0.32789 0.42233 0.96929 0.0
H710 H 0.40175 0.44754 0.96551 0.0
H711 H 0.46509 0.43441 0.02862 0.0
H712 H 0.66614 0.57222 0.04551 0.0
H713 H 0.59206 0.54194 0.04213 0.0
C714 C 0.08306 0.65522 0.36594 0.0
C715 C 0.10025 0.6771 0.34515 0.0
C716 C 0.05534 0.61306 0.36522 0.0
C717 C 0.03027 0.52281 0.32869 0.0
H718 H 0.93741 0.46778 0.3708 0.0
C719 C 0.91589 0.34654 0.32684 0.0
C720 C 0.89882 0.32753 0.34837 0.0
C721 C 0.94205 0.38914 0.32575 0.0
C722 C 0.9636 0.48256 0.35914 0.0
H723 H 0.10193 0.67263 0.30731 0.0
H724 H 0.05258 0.59889 0.30585 0.0
H725 H 0.97607 0.54233 0.36961 0.0
H726 H 0.89723 0.33722 0.38573 0.0
H727 H 0.9437 0.41108 0.38412 0.0
H728 H 0.01808 0.46297 0.31843 0.0
C729 C 0.06044 0.61424 0.32275 0.0
C730 C 0.98563 0.5254 0.35838 0.0
C731 C 0.08804 0.65654 0.32351 0.0
C732 C 0.91019 0.35126 0.36894 0.0
C733 C 0.93637 0.39364 0.36792 0.0
C734 C 0.00829 0.47988 0.32951 0.0
C735 C 0.04463 0.59178 0.34366 0.0
C736 C 0.01944 0.54612 0.34328 0.0
C737 C 0.95148 0.41341 0.34621 0.0
C738 C 0.97489 0.45916 0.34493 0.0
H739 H 0.09305 0.67027 0.38286 0.0
H740 H 0.04427 0.59676 0.38168 0.0
H741 H 0.05654 0.53774 0.3171 0.0
H742 H 0.90665 0.32895 0.31066 0.0
H743 H 0.95286 0.40323 0.30871 0.0
C744 C 0.43917 0.08969 0.69747 0.0
C745 C 0.42966 0.10396 0.67703 0.0
C746 C 0.45312 0.0617 0.69606 0.0
C747 C 0.50932 0.03033 0.65653 0.0
H748 H 0.47813 0.94301 0.70185 0.0
C749 C 0.57143 0.91575 0.65575 0.0
C750 C 0.57667 0.9021 0.67772 0.0
C751 C 0.55475 0.94168 0.65429 0.0
C752 C 0.48766 0.96763 0.68924 0.0
H753 H 0.42647 0.09991 0.63907 0.0
H754 H 0.45066 0.05035 0.63647 0.0
H755 H 0.44239 0.98182 0.70144 0.0
H756 H 0.57124 0.9065 0.71531 0.0
H757 H 0.54371 0.95273 0.71296 0.0
H758 H 0.55516 0.01651 0.64461 0.0
C759 C 0.44719 0.06077 0.65363 0.0
C760 C 0.46692 0.9897 0.68892 0.0
C761 C 0.43272 0.08854 0.65511 0.0
C762 C 0.56765 0.91685 0.69818 0.0
C763 C 0.55129 0.94282 0.69678 0.0
C764 C 0.53027 0.0083 0.65691 0.0
C765 C 0.45838 0.04772 0.6741 0.0
C766 C 0.47782 0.02169 0.67279 0.0
C767 C 0.54306 0.95429 0.67481 0.0
C768 C 0.52015 0.9771 0.67355 0.0
H769 H 0.43757 0.10165 0.71453 0.0
H770 H 0.46186 0.05272 0.71214 0.0
H771 H 0.51878 0.0551 0.64404 0.0
H772 H 0.57724 0.90393 0.63972 0.0
H773 H 0.54874 0.94976 0.63709 0.0
C774 C 0.55946 0.65199 0.69104 0.0
C775 C 0.57062 0.67656 0.67088 0.0
C776 C 0.54371 0.60982 0.68921 0.0
C777 C 0.52716 0.52498 0.64848 0.0
H778 H 0.44117 0.46073 0.69344 0.0
C779 C 0.43209 0.34549 0.64845 0.0
C780 C 0.4343 0.32907 0.67017 0.0
C781 C 0.44557 0.38751 0.64645 0.0
C782 C 0.46504 0.47824 0.68072 0.0
H783 H 0.57502 0.67686 0.63298 0.0
H784 H 0.54662 0.60252 0.62952 0.0
H785 H 0.47327 0.53499 0.69373 0.0
H786 H 0.4509 0.34276 0.70684 0.0
H787 H 0.47265 0.41537 0.70364 0.0
H788 H 0.5181 0.46745 0.63543 0.0
C789 C 0.55087 0.61592 0.64688 0.0
C790 C 0.48385 0.52093 0.68101 0.0
C791 C 0.56732 0.6585 0.6488 0.0
C792 C 0.44849 0.35472 0.68997 0.0
C793 C 0.46099 0.39624 0.68812 0.0
C794 C 0.50786 0.48203 0.64802 0.0
C795 C 0.53766 0.59084 0.66706 0.0
C796 C 0.51596 0.54507 0.66533 0.0
C797 C 0.4605 0.41334 0.66628 0.0
C798 C 0.47722 0.45831 0.66449 0.0
H799 H 0.56154 0.66531 0.70826 0.0
H800 H 0.53524 0.59194 0.70522 0.0
H801 H 0.55175 0.54239 0.63616 0.0
H802 H 0.42189 0.32632 0.63288 0.0
H803 H 0.4448 0.39993 0.62942 0.0
C804 C 0.09396 0.43589 0.98509 0.0
C805 C 0.11474 0.43986 0.00629 0.0
C806 C 0.06748 0.45195 0.98301 0.0
C807 C 0.04456 0.52697 0.0133 0.0
H808 H 0.94787 0.47912 0.97363 0.0
C809 C 0.90826 0.55497 0.02418 0.0
C810 C 0.89634 0.56857 1.00434 0.0
C811 C 0.93754 0.54272 0.02231 0.0
C812 C 0.9751 0.49303 0.98455 0.0
H813 H 0.12226 0.46118 0.04229 0.0
H814 H 0.07469 0.48663 0.03926 0.0
H815 H 0.99147 0.44804 0.97495 0.0
H816 H 0.90541 0.57993 0.96693 0.0
H817 H 0.95619 0.55701 0.96345 0.0
H818 H 0.02673 0.5705 0.0238 0.0
C819 C 0.08 0.47323 0.02376 0.0
C820 C 1.0002 0.4753 0.98532 0.0
C821 C 0.10693 0.45807 0.02565 0.0
C822 C 0.91459 0.5701 0.98252 0.0
C823 C 0.94323 0.55669 0.98051 0.0
C824 C 0.0191 0.54407 0.01286 0.0
C825 C 0.06082 0.47171 1.00223 0.0
C826 C 0.03498 0.4916 1.00005 0.0
C827 C 0.95477 0.5427 1.00041 0.0
C828 C 0.9839 0.52706 0.99871 0.0
H829 H 0.09981 0.42232 0.96983 0.0
H830 H 0.05353 0.4502 0.9661 0.0
H831 H 0.07169 0.5415 0.02425 0.0
H832 H 0.8944 0.55327 0.04117 0.0
H833 H 0.94578 0.53195 0.03789 0.0
C834 C 0.35895 0.89251 0.35634 0.0
C835 C 0.32991 0.89267 0.34086 0.0
C836 C 0.40074 0.91968 0.35343 0.0
C837 C 0.47791 0.0167 0.32716 0.0
H838 H 0.54721 0.96798 0.33212 0.0
C839 C 0.65274 0.11503 0.31461 0.0
C840 C 0.67766 0.1083 0.33019 0.0
C841 C 0.61076 0.08702 0.31294 0.0
C842 C 0.5285 0.98227 0.3309 0.0
H843 H 0.32211 0.92338 0.31087 0.0
H844 H 0.39596 0.97198 0.30592 0.0
H845 H 0.47304 0.92494 0.33544 0.0
H846 H 0.67877 0.06644 0.35567 0.0
H847 H 0.60508 0.01744 0.35318 0.0
H848 H 0.53327 0.07423 0.32338 0.0
C849 C 0.38592 0.95021 0.32025 0.0
C850 C 0.48587 0.95752 0.33273 0.0
C851 C 0.34366 0.9226 0.32314 0.0
C852 C 0.66026 0.07193 0.34324 0.0
C853 C 0.61796 0.04399 0.34181 0.0
C854 C 0.52064 0.04158 0.32553 0.0
C855 C 0.41496 0.94814 0.33498 0.0
C856 C 0.46005 0.97447 0.33119 0.0
C857 C 0.59237 0.05179 0.32714 0.0
C858 C 0.54665 0.0248 0.3276 0.0
H859 H 0.34946 0.87056 0.37054 0.0
H860 H 0.42206 0.91802 0.36552 0.0
H861 H 0.45896 0.03076 0.3261 0.0
H862 H 0.66555 0.14284 0.30427 0.0
H863 H 0.59254 0.09365 0.30093 0.0
C864 C 0.3512 0.17424 0.75219 0.0
C865 C 0.36325 0.19853 0.73184 0.0
C866 C 0.32764 0.17924 0.76953 0.0
C867 C 0.30708 0.25745 0.79438 0.0
H868 H 0.22217 0.16566 0.82897 0.0
C869 C 0.2187 0.27868 0.87279 0.0
C870 C 0.208 0.25129 0.89177 0.0
C871 C 0.23554 0.27273 0.85208 0.0
C872 C 0.24615 0.19177 0.81973 0.0
H873 H 0.36007 0.24733 0.71372 0.0
H874 H 0.31876 0.25617 0.74407 0.0
H875 H 0.25289 0.15316 0.79453 0.0
H876 H 0.20868 0.19726 0.9041 0.0
H877 H 0.23837 0.18731 0.86848 0.0
H878 H 0.30109 0.29609 0.81991 0.0
C879 C 0.32736 0.23299 0.74654 0.0
C880 C 0.26365 0.18453 0.79985 0.0
C881 C 0.35063 0.22763 0.72902 0.0
C882 C 0.21567 0.21852 0.8897 0.0
C883 C 0.23262 0.2127 0.86913 0.0
C884 C 0.28971 0.26473 0.81439 0.0
C885 C 0.31615 0.20931 0.76724 0.0
C886 C 0.29478 0.21722 0.78706 0.0
C887 C 0.24234 0.23933 0.84983 0.0
C888 C 0.2594 0.23196 0.82762 0.0
H889 H 0.361 0.15202 0.75498 0.0
H890 H 0.32004 0.16074 0.78527 0.0
H891 H 0.3313 0.28341 0.78516 0.0
H892 H 0.21296 0.30407 0.87366 0.0
H893 H 0.24229 0.2938 0.83762 0.0
C894 C 0.94881 0.22534 0.21077 0.0
C895 C 0.96481 0.21295 0.22937 0.0
C896 C 0.97178 0.24246 0.19014 0.0
C897 C 0.07899 0.29414 0.16757 0.0
H898 H 0.029 0.26161 0.10588 0.0
C899 C 0.18042 0.34267 0.08521 0.0
C900 C 0.16808 0.35657 0.06569 0.0
C901 C 0.15318 0.32202 0.10363 0.0
C902 C 0.04343 0.27135 0.12295 0.0
H903 H 0.01824 0.21021 0.24091 0.0
H904 H 0.05785 0.23964 0.20527 0.0
H905 H 0.9866 0.23407 0.14121 0.0
H906 H 0.11681 0.35847 0.04983 0.0
H907 H 0.06902 0.32254 0.08214 0.0
H908 H 0.13555 0.33163 0.14964 0.0
C909 C 0.0276 0.23623 0.20649 0.0
C910 C 0.01905 0.25557 0.14326 0.0
C911 C 0.00464 0.21893 0.22692 0.0
C912 C 0.1271 0.34764 0.0645 0.0
C913 C 0.09974 0.32711 0.0831 0.0
C914 C 0.1032 0.30993 0.14739 0.0
C915 C 0.01155 0.24813 0.18771 0.0
C916 C 0.03662 0.26639 0.16588 0.0
C917 C 0.11286 0.31525 0.10334 0.0
C918 C 0.08603 0.29844 0.12472 0.0
H919 H 0.91818 0.22099 0.21195 0.0
H920 H 0.9585 0.25156 0.17617 0.0
H921 H 0.09357 0.304 0.1846 0.0
H922 H 0.21179 0.34912 0.08663 0.0
H923 H 0.16423 0.31237 0.11849 0.0
C924 C 0.78414 0.00162 0.55854 0.0
C925 C 0.75187 0.96092 0.5606 0.0
C926 C 0.78983 0.02391 0.53785 0.0
C927 C 0.73793 0.02646 0.48241 0.0
H928 H 0.84944 0.10359 0.46346 0.0
C929 C 0.7751 0.12358 0.39683 0.0
C930 C 0.80275 0.16564 0.4 0.0
C931 C 0.77013 0.0953 0.41441 0.0
C932 C 0.81809 0.08226 0.46851 0.0
H933 H 0.69985 0.91206 0.54236 0.0
H934 H 0.70996 0.95077 0.50606 0.0
H935 H 0.83729 0.06096 0.49804 0.0
H936 H 0.84703 0.2109 0.42384 0.0
H937 H 0.83909 0.16182 0.4542 0.0
H938 H 0.71894 0.04803 0.45273 0.0
C939 C 0.73069 0.9657 0.52063 0.0
C940 C 0.81104 0.05788 0.48848 0.0
C941 C 0.72484 0.94341 0.54148 0.0
C942 C 0.82598 0.17861 0.42077 0.0
C943 C 0.82144 0.15042 0.43815 0.0
C944 C 0.74503 0.0507 0.4623 0.0
C945 C 0.76359 0.0062 0.5184 0.0
C946 C 0.77084 0.03014 0.49606 0.0
C947 C 0.7928 0.10848 0.43549 0.0
C948 C 0.78522 0.07947 0.45532 0.0
H949 H 0.80509 0.01644 0.57305 0.0
H950 H 0.81479 0.05528 0.53722 0.0
H951 H 0.70655 0.00583 0.48768 0.0
H952 H 0.75618 0.11275 0.3812 0.0
H953 H 0.74803 0.0632 0.41169 0.0
C954 C 0.65694 0.83256 0.75306 0.0
C955 C 0.64447 0.80813 0.73272 0.0
C956 C 0.6803 0.82725 0.77036 0.0
C957 C 0.69958 0.74811 0.79497 0.0
H958 H 0.7843 0.83928 0.8302 0.0
C959 C 0.78664 0.72585 0.87362 0.0
C960 C 0.79675 0.7529 0.8928 0.0
C961 C 0.77019 0.73202 0.85285 0.0
C962 C 0.76039 0.81335 0.82077 0.0
H963 H 0.64688 0.75887 0.7145 0.0
H964 H 0.68793 0.74955 0.74474 0.0
H965 H 0.75441 0.85239 0.79567 0.0
H966 H 0.79537 0.80651 0.9054 0.0
H967 H 0.76648 0.81692 0.86965 0.0
H968 H 0.7049 0.70906 0.82039 0.0
C969 C 0.67974 0.77303 0.74727 0.0
C970 C 0.74335 0.82093 0.80083 0.0
C971 C 0.65663 0.77867 0.7298 0.0
C972 C 0.78886 0.78553 0.89086 0.0
C973 C 0.77236 0.79161 0.87022 0.0
C974 C 0.71654 0.74049 0.81501 0.0
C975 C 0.69124 0.79677 0.76801 0.0
C976 C 0.71225 0.78848 0.78783 0.0
C977 C 0.76326 0.76534 0.85073 0.0
C978 C 0.74675 0.77304 0.82846 0.0
H979 H 0.64751 0.85507 0.75593 0.0
H980 H 0.68812 0.84583 0.78612 0.0
H981 H 0.67538 0.72232 0.78558 0.0
H982 H 0.79255 0.70056 0.87439 0.0
H983 H 0.76387 0.71122 0.83825 0.0
C984 C 0.00543 0.78629 0.22584 0.0
C985 C 0.04512 0.79186 0.22814 0.0
C986 C 0.98207 0.76867 0.20554 0.0
C987 C 0.98935 0.74841 0.14237 0.0
H988 H 0.87315 0.67171 0.14936 0.0
C989 C 0.88076 0.65574 0.06388 0.0
C990 C 0.83949 0.64575 0.06541 0.0
C991 C 0.90823 0.67659 0.08241 0.0
C992 C 0.90539 0.69361 0.14693 0.0
H993 H 0.09111 0.78283 0.21065 0.0
H994 H 0.05015 0.75186 0.17505 0.0
H995 H 0.91569 0.69997 0.18409 0.0
H996 H 0.79531 0.65164 0.08688 0.0
H997 H 0.84306 0.68913 0.11856 0.0
H998 H 0.97876 0.74212 0.10506 0.0
C999 C 0.03727 0.76144 0.18905 0.0
C1000 C 0.92993 0.70973 0.16698 0.0
C1001 C 0.0606 0.77879 0.20956 0.0
C1002 C 0.82692 0.65894 0.0852 0.0
C1003 C 0.85428 0.67999 0.10352 0.0
C1004 C 0.96464 0.73238 0.12219 0.0
C1005 C 0.99763 0.75615 0.18676 0.0
C1006 C 0.97221 0.73765 0.16507 0.0
C1007 C 0.89497 0.68779 0.1029 0.0
C1008 C 0.92212 0.70502 0.12417 0.0
H1009 H 0.99229 0.79561 0.23983 0.0
H1010 H 0.95191 0.76551 0.20442 0.0
H1011 H 0.02172 0.77005 0.14017 0.0
H1012 H 0.89124 0.64548 0.04899 0.0
H1013 H 0.9392 0.68192 0.08117 0.0
C1014 C 0.21935 1.00105 0.55993 0.0
C1015 C 0.25221 0.04159 0.56124 0.0
C1016 C 0.21348 0.97693 0.53996 0.0
C1017 C 0.23708 0.98199 0.47641 0.0
H1018 H 0.20573 0.8681 0.48512 0.0
C1019 C 0.2251 0.87332 0.3993 0.0
C1020 C 0.19561 0.83154 0.40131 0.0
C1021 C 0.23092 0.9008 0.41762 0.0
C1022 C 0.21376 0.89963 0.48224 0.0
H1023 H 0.30478 0.0884 0.54237 0.0
H1024 H 0.29454 0.04612 0.50737 0.0
H1025 H 0.21934 0.91197 0.51922 0.0
H1026 H 0.14816 0.78615 0.4236 0.0
H1027 H 0.15717 0.83388 0.45511 0.0
H1028 H 0.23111 0.96939 0.43932 0.0
C1029 C 0.27319 0.03314 0.52187 0.0
C1030 C 0.22179 0.92492 0.50191 0.0
C1031 C 0.27931 0.05724 0.54202 0.0
C1032 C 0.17106 0.81818 0.42156 0.0
C1033 C 0.17662 0.84556 0.43974 0.0
C1034 C 0.22877 0.95653 0.45664 0.0
C1035 C 0.24016 0.99261 0.52059 0.0
C1036 C 0.23329 0.96639 0.49933 0.0
C1037 C 0.20753 0.88704 0.43844 0.0
C1038 C 0.21664 0.91481 0.45928 0.0
H1039 H 0.19807 0.9878 0.57444 0.0
H1040 H 0.18751 0.94605 0.53959 0.0
H1041 H 0.24553 0.01369 0.47375 0.0
H1042 H 0.24496 0.88442 0.38406 0.0
H1043 H 0.25512 0.93237 0.41591 0.0
loop_
_geom_bond_atom_site_label_1
_geom_bond_atom_site_label_2
_geom_bond_distance
_geom_bond_site_symmetry_2
_ccdc_geom_bond_type
Gd0 N31 2.661 1_556 S
Gd0 N37 2.601 . S
Gd0 O44 2.545 . S
Gd0 O45 2.606 . S
Gd0 O47 2.429 . S
Gd0 O48 2.545 . S
Gd0 O49 2.412 . S
Gd0 O51 2.362 1_556 S
Gd0 O52 2.324 1_556 S
Gd0 C59 2.828 . S
Gd1 N10 2.661 . S
Gd1 N14 2.601 . S
Gd1 O45 2.362 1_554 S
Gd1 O46 2.324 . S
Gd1 O50 2.545 . S
Gd1 O51 2.606 . S
Gd1 O53 2.429 . S
Gd1 O54 2.545 . S
Gd1 O55 2.412 . S
Gd1 C68 2.828 . S
C2 C5 1.407 1_556 S
C2 C7 1.431 . S
C2 C8 1.412 . S
C3 C6 1.445 . S
C3 C7 1.309 1_554 S
C3 H22 0.928 . S
C4 C5 1.436 . S
C4 C6 1.413 . S
C4 N14 1.359 . S
C5 C2 1.407 1_554 S
C5 C4 1.436 . S
C5 N10 1.351 . S
C6 C3 1.445 . S
C6 C4 1.413 . S
C6 C16 1.391 . S
C7 C2 1.431 . S
C7 C3 1.309 1_556 S
C7 H18 0.930 . S
C8 C2 1.412 . S
C8 C9 1.355 . S
C8 H20 0.930 . S
C9 C8 1.355 . S
C9 C11 1.402 . S
C9 H21 0.930 . S
N10 Gd1 2.661 . S
N10 C5 1.351 . S
N10 C11 1.307 1_554 S
C11 C9 1.402 . S
C11 N10 1.307 1_556 S
C11 H12 0.930 . S
H12 C11 0.930 . S
C13 N14 1.334 . S
C13 C15 1.394 . S
C13 H17 0.930 . S
N14 Gd1 2.601 . S
N14 C4 1.359 . S
N14 C13 1.334 . S
C15 C13 1.394 . S
C15 C16 1.359 . S
C15 H27 0.930 . S
C16 C6 1.391 . S
C16 C15 1.359 . S
C16 H28 0.929 . S
H17 C13 0.930 . S
H18 C7 0.930 . S
H19 C36 0.930 . S
H20 C8 0.930 . S
H21 C9 0.930 . S
H22 C3 0.928 . S
H23 C41 0.930 . S
H24 C32 0.930 . S
H25 C33 0.930 . S
H26 C57 0.929 . S
H27 C15 0.930 . S
H28 C16 0.929 . S
H29 C58 0.930 . S
H30 C39 0.930 . S
N31 Gd0 2.661 1_554 S
N31 C35 1.350 . S
N31 C36 1.307 . S
C32 H24 0.930 . S
C32 C33 1.355 . S
C32 C34 1.412 . S
C33 H25 0.930 . S
C33 C32 1.355 . S
C33 C36 1.402 . S
C34 C32 1.412 . S
C34 C35 1.417 . S
C34 C58 1.431 . S
C35 N31 1.350 . S
C35 C34 1.417 . S
C35 C38 1.426 . S
C36 H19 0.930 . S
C36 N31 1.307 . S
C36 C33 1.402 . S
N37 Gd0 2.601 . S
N37 C38 1.359 1_556 S
N37 C41 1.334 . S
C38 C35 1.426 . S
C38 N37 1.359 1_554 S
C38 C42 1.413 . S
C39 H30 0.930 . S
C39 C40 1.359 . S
C39 C41 1.394 . S
C40 C39 1.359 . S
C40 C42 1.391 1_556 S
C40 H43 0.929 . S
C41 H23 0.930 . S
C41 N37 1.334 . S
C41 C39 1.394 . S
C42 C38 1.413 . S
C42 C40 1.391 1_554 S
C42 C57 1.437 . S
H43 C40 0.929 . S
O44 Gd0 2.545 . S
O44 C59 1.258 . S
O45 Gd0 2.606 . S
O45 Gd1 2.362 1_556 S
O45 C56 1.284 . S
O46 Gd1 2.324 . S
O46 C66 1.254 . S
O47 Gd0 2.429 . S
O47 C66 1.268 1_556 S
O48 Gd0 2.545 . S
O48 C56 1.250 . S
O49 Gd0 2.412 . S
O49 C59 1.252 . S
O50 Gd1 2.545 . S
O50 C68 1.258 . S
O51 Gd0 2.362 1_554 S
O51 Gd1 2.606 . S
O51 C67 1.284 . S
O52 Gd0 2.324 1_554 S
O52 C75 1.254 . S
O53 Gd1 2.429 . S
O53 C75 1.268 . S
O54 Gd1 2.545 . S
O54 C67 1.250 . S
O55 Gd1 2.412 . S
O55 C68 1.252 . S
C56 O45 1.284 . S
C56 O48 1.250 . S
C57 H26 0.929 . S
C57 C42 1.437 . S
C57 C58 1.317 . S
C58 H29 0.930 . S
C58 C34 1.431 . S
C58 C57 1.317 . S
C59 Gd0 2.828 . S
C59 O44 1.258 . S
C59 O49 1.252 . S
C59 C60 1.497 . S
C60 C59 1.497 . S
C60 C61 1.395 . S
C60 C62 1.380 . S
C61 C60 1.395 . S
C61 C64 1.398 . S
C61 H76 0.930 . S
C62 C60 1.380 . S
C62 C63 1.391 . S
C62 H77 0.930 . S
C63 C62 1.391 . S
C63 C65 1.387 . S
C64 C61 1.398 . S
C64 C65 1.380 . S
C64 H78 0.930 . S
C65 C63 1.387 . S
C65 C64 1.380 . S
C65 H79 0.930 . S
C66 O46 1.254 . S
C66 O47 1.268 1_554 S
C67 O51 1.284 . S
C67 O54 1.250 . S
C68 Gd1 2.828 . S
C68 O50 1.258 . S
C68 O55 1.252 . S
C68 C69 1.497 . S
C69 C68 1.497 . S
C69 C70 1.395 . S
C69 C71 1.380 . S
C70 C69 1.395 . S
C70 C73 1.398 . S
C70 H80 0.930 . S
C71 C69 1.380 . S
C71 C72 1.391 . S
C71 H81 0.930 . S
C72 C71 1.391 . S
C72 C74 1.387 . S
C73 C70 1.398 . S
C73 C74 1.380 . S
C73 H82 0.930 . S
C74 C72 1.387 . S
C74 C73 1.380 . S
C74 H83 0.930 . S
C75 O52 1.254 . S
C75 O53 1.268 . S
H76 C61 0.930 . S
H77 C62 0.930 . S
H78 C64 0.930 . S
H79 C65 0.930 . S
H80 C70 0.930 . S
H81 C71 0.930 . S
H82 C73 0.930 . S
H83 C74 0.930 . S
Gd84 N115 2.661 . S
Gd84 N121 2.601 . S
Gd84 O128 2.545 . S
Gd84 O129 2.606 . S
Gd84 O131 2.429 . S
Gd84 O132 2.545 . S
Gd84 O133 2.412 . S
Gd84 O135 2.362 . S
Gd84 O136 2.324 . S
Gd84 C143 2.828 . S
Gd85 N94 2.661 . S
Gd85 N98 2.601 . S
Gd85 O129 2.362 . S
Gd85 O130 2.324 . S
Gd85 O134 2.545 . S
Gd85 O135 2.606 . S
Gd85 O137 2.429 . S
Gd85 O138 2.545 . S
Gd85 O139 2.412 . S
Gd85 C152 2.828 . S
C86 C89 1.417 . S
C86 C91 1.431 . S
C86 C92 1.412 . S
C87 C90 1.437 . S
C87 C91 1.317 . S
C87 H106 0.929 . S
C88 C89 1.426 . S
C88 C90 1.413 . S
C88 N98 1.359 . S
C89 C86 1.417 . S
C89 C88 1.426 . S
C89 N94 1.350 . S
C90 C87 1.437 . S
C90 C88 1.413 . S
C90 C100 1.391 . S
C91 C86 1.431 . S
C91 C87 1.317 . S
C91 H102 0.930 . S
C92 C86 1.412 . S
C92 C93 1.355 . S
C92 H104 0.930 . S
C93 C92 1.355 . S
C93 C95 1.402 . S
C93 H105 0.930 . S
N94 Gd85 2.661 . S
N94 C89 1.350 . S
N94 C95 1.307 . S
C95 C93 1.402 . S
C95 N94 1.307 . S
C95 H96 0.930 . S
H96 C95 0.930 . S
C97 N98 1.334 . S
C97 C99 1.394 . S
C97 H101 0.930 . S
N98 Gd85 2.601 . S
N98 C88 1.359 . S
N98 C97 1.334 . S
C99 C97 1.394 . S
C99 C100 1.359 . S
C99 H111 0.930 . S
C100 C90 1.391 . S
C100 C99 1.359 . S
C100 H112 0.929 . S
H101 C97 0.930 . S
H102 C91 0.930 . S
H103 C120 0.930 . S
H104 C92 0.930 . S
H105 C93 0.930 . S
H106 C87 0.929 . S
H107 C125 0.930 . S
H108 C116 0.930 . S
H109 C117 0.930 . S
H110 C141 0.929 . S
H111 C99 0.930 . S
H112 C100 0.929 . S
H113 C142 0.930 . S
H114 C123 0.930 . S
N115 Gd84 2.661 . S
N115 C119 1.350 . S
N115 C120 1.307 . S
C116 H108 0.930 . S
C116 C117 1.355 . S
C116 C118 1.412 . S
C117 H109 0.930 . S
C117 C116 1.355 . S
C117 C120 1.402 . S
C118 C116 1.412 . S
C118 C119 1.417 . S
C118 C142 1.431 . S
C119 N115 1.350 . S
C119 C118 1.417 . S
C119 C122 1.426 . S
C120 H103 0.930 . S
C120 N115 1.307 . S
C120 C117 1.402 . S
N121 Gd84 2.601 . S
N121 C122 1.359 . S
N121 C125 1.334 . S
C122 C119 1.426 . S
C122 N121 1.359 . S
C122 C126 1.413 . S
C123 H114 0.930 . S
C123 C124 1.359 . S
C123 C125 1.394 . S
C124 C123 1.359 . S
C124 C126 1.391 . S
C124 H127 0.929 . S
C125 H107 0.930 . S
C125 N121 1.334 . S
C125 C123 1.394 . S
C126 C122 1.413 . S
C126 C124 1.391 . S
C126 C141 1.437 . S
H127 C124 0.929 . S
O128 Gd84 2.545 . S
O128 C143 1.258 . S
O129 Gd84 2.606 . S
O129 Gd85 2.362 . S
O129 C140 1.284 . S
O130 Gd85 2.324 . S
O130 C150 1.254 . S
O131 Gd84 2.429 . S
O131 C150 1.268 . S
O132 Gd84 2.545 . S
O132 C140 1.250 . S
O133 Gd84 2.412 . S
O133 C143 1.252 . S
O134 Gd85 2.545 . S
O134 C152 1.258 . S
O135 Gd84 2.362 . S
O135 Gd85 2.606 . S
O135 C151 1.284 . S
O136 Gd84 2.324 . S
O136 C159 1.254 . S
O137 Gd85 2.429 . S
O137 C159 1.268 . S
O138 Gd85 2.545 . S
O138 C151 1.250 . S
O139 Gd85 2.412 . S
O139 C152 1.252 . S
C140 O129 1.284 . S
C140 O132 1.250 . S
C141 H110 0.929 . S
C141 C126 1.437 . S
C141 C142 1.317 . S
C142 H113 0.930 . S
C142 C118 1.431 . S
C142 C141 1.317 . S
C143 Gd84 2.828 . S
C143 O128 1.258 . S
C143 O133 1.252 . S
C143 C144 1.497 . S
C144 C143 1.497 . S
C144 C145 1.395 . S
C144 C146 1.380 . S
C145 C144 1.395 . S
C145 C148 1.398 . S
C145 H160 0.930 . S
C146 C144 1.380 . S
C146 C147 1.391 . S
C146 H161 0.930 . S
C147 C146 1.391 . S
C147 C149 1.387 . S
C148 C145 1.398 . S
C148 C149 1.380 . S
C148 H162 0.930 . S
C149 C147 1.387 . S
C149 C148 1.380 . S
C149 H163 0.930 . S
C150 O130 1.254 . S
C150 O131 1.268 . S
C151 O135 1.284 . S
C151 O138 1.250 . S
C152 Gd85 2.828 . S
C152 O134 1.258 . S
C152 O139 1.252 . S
C152 C153 1.497 . S
C153 C152 1.497 . S
C153 C154 1.395 . S
C153 C155 1.380 . S
C154 C153 1.395 . S
C154 C157 1.398 . S
C154 H164 0.930 . S
C155 C153 1.380 . S
C155 C156 1.391 . S
C155 H165 0.930 . S
C156 C155 1.391 . S
C156 C158 1.387 . S
C157 C154 1.398 . S
C157 C158 1.380 . S
C157 H166 0.930 . S
C158 C156 1.387 . S
C158 C157 1.380 . S
C158 H167 0.930 . S
C159 O136 1.254 . S
C159 O137 1.268 . S
H160 C145 0.930 . S
H161 C146 0.930 . S
H162 C148 0.930 . S
H163 C149 0.930 . S
H164 C154 0.930 . S
H165 C155 0.930 . S
H166 C157 0.930 . S
H167 C158 0.930 . S
Gd168 N199 2.661 . S
Gd168 N205 2.601 . S
Gd168 O212 2.545 . S
Gd168 O213 2.606 . S
Gd168 O215 2.429 . S
Gd168 O216 2.545 . S
Gd168 O217 2.412 . S
Gd168 O219 2.362 . S
Gd168 O220 2.324 . S
Gd168 C227 2.828 . S
Gd169 N178 2.661 . S
Gd169 N182 2.601 . S
Gd169 O213 2.362 . S
Gd169 O214 2.324 . S
Gd169 O218 2.545 . S
Gd169 O219 2.606 . S
Gd169 O221 2.429 . S
Gd169 O222 2.545 . S
Gd169 O223 2.412 . S
Gd169 C236 2.828 . S
C170 C173 1.417 . S
C170 C175 1.431 . S
C170 C176 1.412 . S
C171 C174 1.437 . S
C171 C175 1.317 . S
C171 H190 0.929 . S
C172 C173 1.426 . S
C172 C174 1.413 . S
C172 N182 1.359 . S
C173 C170 1.417 . S
C173 C172 1.426 . S
C173 N178 1.350 . S
C174 C171 1.437 . S
C174 C172 1.413 . S
C174 C184 1.391 . S
C175 C170 1.431 . S
C175 C171 1.317 . S
C175 H186 0.930 . S
C176 C170 1.412 . S
C176 C177 1.355 . S
C176 H188 0.930 . S
C177 C176 1.355 . S
C177 C179 1.402 . S
C177 H189 0.930 . S
N178 Gd169 2.661 . S
N178 C173 1.350 . S
N178 C179 1.307 . S
C179 C177 1.402 . S
C179 N178 1.307 . S
C179 H180 0.930 . S
H180 C179 0.930 . S
C181 N182 1.334 . S
C181 C183 1.394 . S
C181 H185 0.930 . S
N182 Gd169 2.601 . S
N182 C172 1.359 . S
N182 C181 1.334 . S
C183 C181 1.394 . S
C183 C184 1.359 . S
C183 H195 0.930 . S
C184 C174 1.391 . S
C184 C183 1.359 . S
C184 H196 0.929 . S
H185 C181 0.930 . S
H186 C175 0.930 . S
H187 C204 0.930 . S
H188 C176 0.930 . S
H189 C177 0.930 . S
H190 C171 0.929 . S
H191 C209 0.930 . S
H192 C200 0.930 . S
H193 C201 0.930 . S
H194 C225 0.929 . S
H195 C183 0.930 . S
H196 C184 0.929 . S
H197 C226 0.930 . S
H198 C207 0.930 . S
N199 Gd168 2.661 . S
N199 C203 1.350 . S
N199 C204 1.307 . S
C200 H192 0.930 . S
C200 C201 1.355 . S
C200 C202 1.412 . S
C201 H193 0.930 . S
C201 C200 1.355 . S
C201 C204 1.402 . S
C202 C200 1.412 . S
C202 C203 1.417 . S
C202 C226 1.431 . S
C203 N199 1.350 . S
C203 C202 1.417 . S
C203 C206 1.426 . S
C204 H187 0.930 . S
C204 N199 1.307 . S
C204 C201 1.402 . S
N205 Gd168 2.601 . S
N205 C206 1.359 . S
N205 C209 1.334 . S
C206 C203 1.426 . S
C206 N205 1.359 . S
C206 C210 1.413 . S
C207 H198 0.930 . S
C207 C208 1.359 . S
C207 C209 1.394 . S
C208 C207 1.359 . S
C208 C210 1.391 . S
C208 H211 0.929 . S
C209 H191 0.930 . S
C209 N205 1.334 . S
C209 C207 1.394 . S
C210 C206 1.413 . S
C210 C208 1.391 . S
C210 C225 1.437 . S
H211 C208 0.929 . S
O212 Gd168 2.545 . S
O212 C227 1.258 . S
O213 Gd168 2.606 . S
O213 Gd169 2.362 . S
O213 C224 1.284 . S
O214 Gd169 2.324 . S
O214 C234 1.254 . S
O215 Gd168 2.429 . S
O215 C234 1.268 . S
O216 Gd168 2.545 . S
O216 C224 1.250 . S
O217 Gd168 2.412 . S
O217 C227 1.252 . S
O218 Gd169 2.545 . S
O218 C236 1.258 . S
O219 Gd168 2.362 . S
O219 Gd169 2.606 . S
O219 C235 1.284 . S
O220 Gd168 2.324 . S
O220 C243 1.254 . S
O221 Gd169 2.429 . S
O221 C243 1.268 . S
O222 Gd169 2.545 . S
O222 C235 1.250 . S
O223 Gd169 2.412 . S
O223 C236 1.252 . S
C224 O213 1.284 . S
C224 O216 1.250 . S
C225 H194 0.929 . S
C225 C210 1.437 . S
C225 C226 1.317 . S
C226 H197 0.930 . S
C226 C202 1.431 . S
C226 C225 1.317 . S
C227 Gd168 2.828 . S
C227 O212 1.258 . S
C227 O217 1.252 . S
C227 C228 1.497 . S
C228 C227 1.497 . S
C228 C229 1.395 . S
C228 C230 1.380 . S
C229 C228 1.395 . S
C229 C232 1.398 . S
C229 H244 0.930 . S
C230 C228 1.380 . S
C230 C231 1.391 . S
C230 H245 0.930 . S
C231 C230 1.391 . S
C231 C233 1.387 . S
C232 C229 1.398 . S
C232 C233 1.380 . S
C232 H246 0.930 . S
C233 C231 1.387 . S
C233 C232 1.380 . S
C233 H247 0.930 . S
C234 O214 1.254 . S
C234 O215 1.268 . S
C235 O219 1.284 . S
C235 O222 1.250 . S
C236 Gd169 2.828 . S
C236 O218 1.258 . S
C236 O223 1.252 . S
C236 C237 1.497 . S
C237 C236 1.497 . S
C237 C238 1.395 . S
C237 C239 1.380 . S
C238 C237 1.395 . S
C238 C241 1.398 . S
C238 H248 0.930 . S
C239 C237 1.380 . S
C239 C240 1.391 . S
C239 H249 0.930 . S
C240 C239 1.391 . S
C240 C242 1.387 . S
C241 C238 1.398 . S
C241 C242 1.380 . S
C241 H250 0.930 . S
C242 C240 1.387 . S
C242 C241 1.380 . S
C242 H251 0.930 . S
C243 O220 1.254 . S
C243 O221 1.268 . S
H244 C229 0.930 . S
H245 C230 0.930 . S
H246 C232 0.930 . S
H247 C233 0.930 . S
H248 C238 0.930 . S
H249 C239 0.930 . S
H250 C241 0.930 . S
H251 C242 0.930 . S
Gd252 N283 2.661 1_556 S
Gd252 N289 2.601 . S
Gd252 O296 2.545 . S
Gd252 O297 2.606 . S
Gd252 O299 2.429 . S
Gd252 O300 2.545 . S
Gd252 O301 2.412 . S
Gd252 O303 2.362 1_556 S
Gd252 O304 2.324 1_556 S
Gd252 C311 2.828 . S
Gd253 N262 2.661 . S
Gd253 N266 2.601 . S
Gd253 O297 2.362 1_554 S
Gd253 O298 2.324 . S
Gd253 O302 2.545 . S
Gd253 O303 2.606 . S
Gd253 O305 2.429 . S
Gd253 O306 2.545 . S
Gd253 O307 2.412 . S
Gd253 C320 2.828 . S
C254 C257 1.406 1_556 S
C254 C259 1.431 . S
C254 C260 1.412 . S
C255 C258 1.445 . S
C255 C259 1.309 1_554 S
C255 H274 0.928 . S
C256 C257 1.437 . S
C256 C258 1.413 . S
C256 N266 1.359 . S
C257 C254 1.406 1_554 S
C257 C256 1.437 . S
C257 N262 1.351 . S
C258 C255 1.445 . S
C258 C256 1.413 . S
C258 C268 1.391 . S
C259 C254 1.431 . S
C259 C255 1.309 1_556 S
C259 H270 0.930 . S
C260 C254 1.412 . S
C260 C261 1.355 . S
C260 H272 0.930 . S
C261 C260 1.355 . S
C261 C263 1.402 . S
C261 H273 0.930 . S
N262 Gd253 2.661 . S
N262 C257 1.351 . S
N262 C263 1.307 1_554 S
C263 C261 1.402 . S
C263 N262 1.307 1_556 S
C263 H264 0.930 . S
H264 C263 0.930 . S
C265 N266 1.334 . S
C265 C267 1.394 . S
C265 H269 0.930 . S
N266 Gd253 2.601 . S
N266 C256 1.359 . S
N266 C265 1.334 . S
C267 C265 1.394 . S
C267 C268 1.359 . S
C267 H279 0.930 . S
C268 C258 1.391 . S
C268 C267 1.359 . S
C268 H280 0.929 . S
H269 C265 0.930 . S
H270 C259 0.930 . S
H271 C288 0.930 . S
H272 C260 0.930 . S
H273 C261 0.930 . S
H274 C255 0.928 . S
H275 C293 0.930 . S
H276 C284 0.930 . S
H277 C285 0.930 . S
H278 C309 0.929 . S
H279 C267 0.930 . S
H280 C268 0.929 . S
H281 C310 0.930 . S
H282 C291 0.930 . S
N283 Gd252 2.661 1_554 S
N283 C287 1.350 . S
N283 C288 1.307 . S
C284 H276 0.930 . S
C284 C285 1.355 . S
C284 C286 1.412 . S
C285 H277 0.930 . S
C285 C284 1.355 . S
C285 C288 1.402 . S
C286 C284 1.412 . S
C286 C287 1.417 . S
C286 C310 1.431 . S
C287 N283 1.350 . S
C287 C286 1.417 . S
C287 C290 1.426 . S
C288 H271 0.930 . S
C288 N283 1.307 . S
C288 C285 1.402 . S
N289 Gd252 2.601 . S
N289 C290 1.359 1_556 S
N289 C293 1.334 . S
C290 C287 1.426 . S
C290 N289 1.359 1_554 S
C290 C294 1.413 . S
C291 H282 0.930 . S
C291 C292 1.359 . S
C291 C293 1.394 . S
C292 C291 1.359 . S
C292 C294 1.391 1_556 S
C292 H295 0.929 . S
C293 H275 0.930 . S
C293 N289 1.334 . S
C293 C291 1.394 . S
C294 C290 1.413 . S
C294 C292 1.391 1_554 S
C294 C309 1.437 . S
H295 C292 0.929 . S
O296 Gd252 2.545 . S
O296 C311 1.258 . S
O297 Gd252 2.606 . S
O297 Gd253 2.362 1_556 S
O297 C308 1.284 . S
O298 Gd253 2.324 . S
O298 C318 1.254 . S
O299 Gd252 2.429 . S
O299 C318 1.268 1_556 S
O300 Gd252 2.545 . S
O300 C308 1.250 . S
O301 Gd252 2.412 . S
O301 C311 1.252 . S
O302 Gd253 2.545 . S
O302 C320 1.258 . S
O303 Gd252 2.362 1_554 S
O303 Gd253 2.606 . S
O303 C319 1.284 . S
O304 Gd252 2.324 1_554 S
O304 C327 1.254 . S
O305 Gd253 2.429 . S
O305 C327 1.268 . S
O306 Gd253 2.545 . S
O306 C319 1.250 . S
O307 Gd253 2.412 . S
O307 C320 1.252 . S
C308 O297 1.284 . S
C308 O300 1.250 . S
C309 H278 0.929 . S
C309 C294 1.437 . S
C309 C310 1.317 . S
C310 H281 0.930 . S
C310 C286 1.431 . S
C310 C309 1.317 . S
C311 Gd252 2.828 . S
C311 O296 1.258 . S
C311 O301 1.252 . S
C311 C312 1.497 . S
C312 C311 1.497 . S
C312 C313 1.395 . S
C312 C314 1.380 . S
C313 C312 1.395 . S
C313 C316 1.398 . S
C313 H328 0.930 . S
C314 C312 1.380 . S
C314 C315 1.391 . S
C314 H329 0.930 . S
C315 C314 1.391 . S
C315 C317 1.387 . S
C316 C313 1.398 . S
C316 C317 1.380 . S
C316 H330 0.930 . S
C317 C315 1.387 . S
C317 C316 1.380 . S
C317 H331 0.930 . S
C318 O298 1.254 . S
C318 O299 1.268 1_554 S
C319 O303 1.284 . S
C319 O306 1.250 . S
C320 Gd253 2.828 . S
C320 O302 1.258 . S
C320 O307 1.252 . S
C320 C321 1.497 . S
C321 C320 1.497 . S
C321 C322 1.395 . S
C321 C323 1.380 . S
C322 C321 1.395 . S
C322 C325 1.398 . S
C322 H332 0.930 . S
C323 C321 1.380 . S
C323 C324 1.391 . S
C323 H333 0.930 . S
C324 C323 1.391 . S
C324 C326 1.387 . S
C325 C322 1.398 . S
C325 C326 1.380 . S
C325 H334 0.930 . S
C326 C324 1.387 . S
C326 C325 1.380 . S
C326 H335 0.930 . S
C327 O304 1.254 . S
C327 O305 1.268 . S
H328 C313 0.930 . S
H329 C314 0.930 . S
H330 C316 0.930 . S
H331 C317 0.930 . S
H332 C322 0.930 . S
H333 C323 0.930 . S
H334 C325 0.930 . S
H335 C326 0.930 . S
Gd336 N367 2.661 . S
Gd336 N373 2.601 . S
Gd336 O380 2.545 . S
Gd336 O381 2.606 . S
Gd336 O383 2.429 . S
Gd336 O384 2.545 . S
Gd336 O385 2.412 . S
Gd336 O387 2.362 . S
Gd336 O388 2.324 . S
Gd336 C395 2.828 . S
Gd337 N346 2.661 . S
Gd337 N350 2.601 . S
Gd337 O381 2.362 . S
Gd337 O382 2.324 . S
Gd337 O386 2.545 . S
Gd337 O387 2.606 . S
Gd337 O389 2.429 . S
Gd337 O390 2.545 . S
Gd337 O391 2.412 . S
Gd337 C404 2.828 . S
C338 C341 1.417 . S
C338 C343 1.431 . S
C338 C344 1.412 . S
C339 C342 1.437 . S
C339 C343 1.317 . S
C339 H358 0.929 . S
C340 C341 1.426 . S
C340 C342 1.413 . S
C340 N350 1.359 . S
C341 C338 1.417 . S
C341 C340 1.426 . S
C341 N346 1.350 . S
C342 C339 1.437 . S
C342 C340 1.413 . S
C342 C352 1.391 . S
C343 C338 1.431 . S
C343 C339 1.317 . S
C343 H354 0.930 . S
C344 C338 1.412 . S
C344 C345 1.355 . S
C344 H356 0.930 . S
C345 C344 1.355 . S
C345 C347 1.402 . S
C345 H357 0.930 . S
N346 Gd337 2.661 . S
N346 C341 1.350 . S
N346 C347 1.307 . S
C347 C345 1.402 . S
C347 N346 1.307 . S
C347 H348 0.930 . S
H348 C347 0.930 . S
C349 N350 1.334 . S
C349 C351 1.394 . S
C349 H353 0.930 . S
N350 Gd337 2.601 . S
N350 C340 1.359 . S
N350 C349 1.334 . S
C351 C349 1.394 . S
C351 C352 1.359 . S
C351 H363 0.930 . S
C352 C342 1.391 . S
C352 C351 1.359 . S
C352 H364 0.929 . S
H353 C349 0.930 . S
H354 C343 0.930 . S
H355 C372 0.930 . S
H356 C344 0.930 . S
H357 C345 0.930 . S
H358 C339 0.929 . S
H359 C377 0.930 . S
H360 C368 0.930 . S
H361 C369 0.930 . S
H362 C393 0.929 . S
H363 C351 0.930 . S
H364 C352 0.929 . S
H365 C394 0.930 . S
H366 C375 0.930 . S
N367 Gd336 2.661 . S
N367 C371 1.350 . S
N367 C372 1.307 . S
C368 H360 0.930 . S
C368 C369 1.355 . S
C368 C370 1.412 . S
C369 H361 0.930 . S
C369 C368 1.355 . S
C369 C372 1.402 . S
C370 C368 1.412 . S
C370 C371 1.417 . S
C370 C394 1.431 . S
C371 N367 1.350 . S
C371 C370 1.417 . S
C371 C374 1.426 . S
C372 H355 0.930 . S
C372 N367 1.307 . S
C372 C369 1.402 . S
N373 Gd336 2.601 . S
N373 C374 1.359 . S
N373 C377 1.334 . S
C374 C371 1.426 . S
C374 N373 1.359 . S
C374 C378 1.413 . S
C375 H366 0.930 . S
C375 C376 1.359 . S
C375 C377 1.394 . S
C376 C375 1.359 . S
C376 C378 1.391 . S
C376 H379 0.929 . S
C377 H359 0.930 . S
C377 N373 1.334 . S
C377 C375 1.394 . S
C378 C374 1.413 . S
C378 C376 1.391 . S
C378 C393 1.437 . S
H379 C376 0.929 . S
O380 Gd336 2.545 . S
O380 C395 1.258 . S
O381 Gd336 2.606 . S
O381 Gd337 2.362 . S
O381 C392 1.284 . S
O382 Gd337 2.324 . S
O382 C402 1.254 . S
O383 Gd336 2.429 . S
O383 C402 1.268 . S
O384 Gd336 2.545 . S
O384 C392 1.250 . S
O385 Gd336 2.412 . S
O385 C395 1.252 . S
O386 Gd337 2.545 . S
O386 C404 1.258 . S
O387 Gd336 2.362 . S
O387 Gd337 2.606 . S
O387 C403 1.284 . S
O388 Gd336 2.324 . S
O388 C411 1.254 . S
O389 Gd337 2.429 . S
O389 C411 1.268 . S
O390 Gd337 2.545 . S
O390 C403 1.250 . S
O391 Gd337 2.412 . S
O391 C404 1.252 . S
C392 O381 1.284 . S
C392 O384 1.250 . S
C393 H362 0.929 . S
C393 C378 1.437 . S
C393 C394 1.317 . S
C394 H365 0.930 . S
C394 C370 1.431 . S
C394 C393 1.317 . S
C395 Gd336 2.828 . S
C395 O380 1.258 . S
C395 O385 1.252 . S
C395 C396 1.497 . S
C396 C395 1.497 . S
C396 C397 1.395 . S
C396 C398 1.380 . S
C397 C396 1.395 . S
C397 C400 1.398 . S
C397 H412 0.930 . S
C398 C396 1.380 . S
C398 C399 1.391 . S
C398 H413 0.930 . S
C399 C398 1.391 . S
C399 C401 1.387 . S
C400 C397 1.398 . S
C400 C401 1.380 . S
C400 H414 0.930 . S
C401 C399 1.387 . S
C401 C400 1.380 . S
C401 H415 0.930 . S
C402 O382 1.254 . S
C402 O383 1.268 . S
C403 O387 1.284 . S
C403 O390 1.250 . S
C404 Gd337 2.828 . S
C404 O386 1.258 . S
C404 O391 1.252 . S
C404 C405 1.497 . S
C405 C404 1.497 . S
C405 C406 1.395 . S
C405 C407 1.380 . S
C406 C405 1.395 . S
C406 C409 1.398 . S
C406 H416 0.930 . S
C407 C405 1.380 . S
C407 C408 1.391 . S
C407 H417 0.930 . S
C408 C407 1.391 . S
C408 C410 1.387 . S
C409 C406 1.398 . S
C409 C410 1.380 . S
C409 H418 0.930 . S
C410 C408 1.387 . S
C410 C409 1.380 . S
C410 H419 0.930 . S
C411 O388 1.254 . S
C411 O389 1.268 . S
H412 C397 0.930 . S
H413 C398 0.930 . S
H414 C400 0.930 . S
H415 C401 0.930 . S
H416 C406 0.930 . S
H417 C407 0.930 . S
H418 C409 0.930 . S
H419 C410 0.930 . S
Gd420 N451 2.661 . S
Gd420 N457 2.601 . S
Gd420 O464 2.545 . S
Gd420 O465 2.606 . S
Gd420 O467 2.429 . S
Gd420 O468 2.545 . S
Gd420 O469 2.412 . S
Gd420 O471 2.362 . S
Gd420 O472 2.324 . S
Gd420 C479 2.828 . S
Gd421 N430 2.661 . S
Gd421 N434 2.601 . S
Gd421 O465 2.362 . S
Gd421 O466 2.324 . S
Gd421 O470 2.545 . S
Gd421 O471 2.606 . S
Gd421 O473 2.429 . S
Gd421 O474 2.545 . S
Gd421 O475 2.412 . S
Gd421 C488 2.828 . S
C422 C425 1.417 . S
C422 C427 1.431 . S
C422 C428 1.412 . S
C423 C426 1.437 . S
C423 C427 1.317 . S
C423 H442 0.929 . S
C424 C425 1.426 . S
C424 C426 1.413 . S
C424 N434 1.359 . S
C425 C422 1.417 . S
C425 C424 1.426 . S
C425 N430 1.350 . S
C426 C423 1.437 . S
C426 C424 1.413 . S
C426 C436 1.391 . S
C427 C422 1.431 . S
C427 C423 1.317 . S
C427 H438 0.930 . S
C428 C422 1.412 . S
C428 C429 1.355 . S
C428 H440 0.930 . S
C429 C428 1.355 . S
C429 C431 1.402 . S
C429 H441 0.930 . S
N430 Gd421 2.661 . S
N430 C425 1.350 . S
N430 C431 1.307 . S
C431 C429 1.402 . S
C431 N430 1.307 . S
C431 H432 0.930 . S
H432 C431 0.930 . S
C433 N434 1.334 . S
C433 C435 1.394 . S
C433 H437 0.930 . S
N434 Gd421 2.601 . S
N434 C424 1.359 . S
N434 C433 1.334 . S
C435 C433 1.394 . S
C435 C436 1.359 . S
C435 H447 0.930 . S
C436 C426 1.391 . S
C436 C435 1.359 . S
C436 H448 0.929 . S
H437 C433 0.930 . S
H438 C427 0.930 . S
H439 C456 0.930 . S
H440 C428 0.930 . S
H441 C429 0.930 . S
H442 C423 0.929 . S
H443 C461 0.930 . S
H444 C452 0.930 . S
H445 C453 0.930 . S
H446 C477 0.929 . S
H447 C435 0.930 . S
H448 C436 0.929 . S
H449 C478 0.930 . S
H450 C459 0.930 . S
N451 Gd420 2.661 . S
N451 C455 1.350 . S
N451 C456 1.307 . S
C452 H444 0.930 . S
C452 C453 1.355 . S
C452 C454 1.412 . S
C453 H445 0.930 . S
C453 C452 1.355 . S
C453 C456 1.402 . S
C454 C452 1.412 . S
C454 C455 1.417 . S
C454 C478 1.431 . S
C455 N451 1.350 . S
C455 C454 1.417 . S
C455 C458 1.426 . S
C456 H439 0.930 . S
C456 N451 1.307 . S
C456 C453 1.402 . S
N457 Gd420 2.601 . S
N457 C458 1.359 . S
N457 C461 1.334 . S
C458 C455 1.426 . S
C458 N457 1.359 . S
C458 C462 1.413 . S
C459 H450 0.930 . S
C459 C460 1.359 . S
C459 C461 1.394 . S
C460 C459 1.359 . S
C460 C462 1.391 . S
C460 H463 0.929 . S
C461 H443 0.930 . S
C461 N457 1.334 . S
C461 C459 1.394 . S
C462 C458 1.413 . S
C462 C460 1.391 . S
C462 C477 1.437 . S
H463 C460 0.929 . S
O464 Gd420 2.545 . S
O464 C479 1.258 . S
O465 Gd420 2.606 . S
O465 Gd421 2.362 . S
O465 C476 1.284 . S
O466 Gd421 2.324 . S
O466 C486 1.254 . S
O467 Gd420 2.429 . S
O467 C486 1.268 . S
O468 Gd420 2.545 . S
O468 C476 1.250 . S
O469 Gd420 2.412 . S
O469 C479 1.252 . S
O470 Gd421 2.545 . S
O470 C488 1.258 . S
O471 Gd420 2.362 . S
O471 Gd421 2.606 . S
O471 C487 1.284 . S
O472 Gd420 2.324 . S
O472 C495 1.254 . S
O473 Gd421 2.429 . S
O473 C495 1.268 . S
O474 Gd421 2.545 . S
O474 C487 1.250 . S
O475 Gd421 2.412 . S
O475 C488 1.252 . S
C476 O465 1.284 . S
C476 O468 1.250 . S
C477 H446 0.929 . S
C477 C462 1.437 . S
C477 C478 1.317 . S
C478 H449 0.930 . S
C478 C454 1.431 . S
C478 C477 1.317 . S
C479 Gd420 2.828 . S
C479 O464 1.258 . S
C479 O469 1.252 . S
C479 C480 1.497 . S
C480 C479 1.497 . S
C480 C481 1.395 . S
C480 C482 1.380 . S
C481 C480 1.395 . S
C481 C484 1.398 . S
C481 H496 0.930 . S
C482 C480 1.380 . S
C482 C483 1.391 . S
C482 H497 0.930 . S
C483 C482 1.391 . S
C483 C485 1.387 . S
C484 C481 1.398 . S
C484 C485 1.380 . S
C484 H498 0.930 . S
C485 C483 1.387 . S
C485 C484 1.380 . S
C485 H499 0.930 . S
C486 O466 1.254 . S
C486 O467 1.268 . S
C487 O471 1.284 . S
C487 O474 1.250 . S
C488 Gd421 2.828 . S
C488 O470 1.258 . S
C488 O475 1.252 . S
C488 C489 1.497 . S
C489 C488 1.497 . S
C489 C490 1.395 . S
C489 C491 1.380 . S
C490 C489 1.395 . S
C490 C493 1.398 . S
C490 H500 0.930 . S
C491 C489 1.380 . S
C491 C492 1.391 . S
C491 H501 0.930 . S
C492 C491 1.391 . S
C492 C494 1.387 . S
C493 C490 1.398 . S
C493 C494 1.380 . S
C493 H502 0.930 . S
C494 C492 1.387 . S
C494 C493 1.380 . S
C494 H503 0.930 . S
C495 O472 1.254 . S
C495 O473 1.268 . S
H496 C481 0.930 . S
H497 C482 0.930 . S
H498 C484 0.930 . S
H499 C485 0.930 . S
H500 C490 0.930 . S
H501 C491 0.930 . S
H502 C493 0.930 . S
H503 C494 0.930 . S
C504 C505 1.349 . S
C504 C506 1.327 . S
C504 H529 0.950 . S
C505 C504 1.349 . S
C505 C521 1.349 . S
C506 C504 1.327 . S
C506 C525 1.429 . S
C506 H530 0.950 . S
C507 C524 1.574 . S
C507 C526 1.368 . S
C507 H531 0.949 . S
H508 C512 0.949 . S
C509 C510 1.349 . S
C509 C511 1.327 . S
C509 H532 0.950 . S
C510 C509 1.349 . S
C510 C522 1.349 . S
C511 C509 1.327 . S
C511 C527 1.429 . S
C511 H533 0.950 . S
C512 H508 0.949 . S
C512 C520 1.574 . S
C512 C528 1.368 . S
H513 C521 0.950 . S
H514 C519 0.950 . S
H515 C520 0.949 . S
H516 C522 0.950 . S
H517 C523 0.950 . S
H518 C524 0.949 . S
C519 H514 0.950 . S
C519 C521 1.327 . S
C519 C525 1.429 . S
C520 C512 1.574 . S
C520 H515 0.949 . S
C520 C526 1.368 . S
C521 C505 1.349 . S
C521 H513 0.950 . S
C521 C519 1.327 . S
C522 C510 1.349 . S
C522 H516 0.950 . S
C522 C523 1.327 . S
C523 H517 0.950 . S
C523 C522 1.327 . S
C523 C527 1.429 . S
C524 C507 1.574 . S
C524 H518 0.949 . S
C524 C528 1.368 . S
C525 C506 1.429 . S
C525 C519 1.429 . S
C525 C526 1.523 . S
C526 C507 1.368 . S
C526 C520 1.368 . S
C526 C525 1.523 . S
C527 C511 1.429 . S
C527 C523 1.429 . S
C527 C528 1.523 . S
C528 C512 1.368 . S
C528 C524 1.368 . S
C528 C527 1.523 . S
H529 C504 0.950 . S
H530 C506 0.950 . S
H531 C507 0.949 . S
H532 C509 0.950 . S
H533 C511 0.950 . S
C534 C535 1.349 . S
C534 C536 1.327 . S
C534 H559 0.950 . S
C535 C534 1.349 . S
C535 C551 1.349 . S
C536 C534 1.327 . S
C536 C555 1.429 . S
C536 H560 0.950 . S
C537 C554 1.574 . S
C537 C556 1.368 . S
C537 H561 0.949 . S
H538 C542 0.949 . S
C539 C540 1.349 . S
C539 C541 1.327 . S
C539 H562 0.950 . S
C540 C539 1.349 . S
C540 C552 1.349 . S
C541 C539 1.327 . S
C541 C557 1.429 . S
C541 H563 0.950 . S
C542 H538 0.949 . S
C542 C550 1.574 . S
C542 C558 1.368 . S
H543 C551 0.950 . S
H544 C549 0.950 . S
H545 C550 0.949 . S
H546 C552 0.950 . S
H547 C553 0.950 . S
H548 C554 0.949 . S
C549 H544 0.950 . S
C549 C551 1.327 . S
C549 C555 1.429 . S
C550 C542 1.574 . S
C550 H545 0.949 . S
C550 C556 1.368 . S
C551 C535 1.349 . S
C551 H543 0.950 . S
C551 C549 1.327 . S
C552 C540 1.349 . S
C552 H546 0.950 . S
C552 C553 1.327 . S
C553 H547 0.950 . S
C553 C552 1.327 . S
C553 C557 1.429 . S
C554 C537 1.574 . S
C554 H548 0.949 . S
C554 C558 1.368 . S
C555 C536 1.429 . S
C555 C549 1.429 . S
C555 C556 1.523 . S
C556 C537 1.368 . S
C556 C550 1.368 . S
C556 C555 1.523 . S
C557 C541 1.429 . S
C557 C553 1.429 . S
C557 C558 1.523 . S
C558 C542 1.368 . S
C558 C554 1.368 . S
C558 C557 1.523 . S
H559 C534 0.950 . S
H560 C536 0.950 . S
H561 C537 0.949 . S
H562 C539 0.950 . S
H563 C541 0.950 . S
C564 C565 1.349 . S
C564 C566 1.327 . S
C564 H589 0.950 . S
C565 C564 1.349 . S
C565 C581 1.349 . S
C566 C564 1.327 . S
C566 C585 1.429 . S
C566 H590 0.950 . S
C567 C584 1.574 . S
C567 C586 1.368 . S
C567 H591 0.949 . S
H568 C572 0.949 . S
C569 C570 1.349 . S
C569 C571 1.327 . S
C569 H592 0.950 . S
C570 C569 1.349 . S
C570 C582 1.349 . S
C571 C569 1.327 . S
C571 C587 1.429 . S
C571 H593 0.950 . S
C572 H568 0.949 . S
C572 C580 1.574 . S
C572 C588 1.368 . S
H573 C581 0.950 . S
H574 C579 0.950 . S
H575 C580 0.949 . S
H576 C582 0.950 . S
H577 C583 0.950 . S
H578 C584 0.949 . S
C579 H574 0.950 . S
C579 C581 1.327 . S
C579 C585 1.429 . S
C580 C572 1.574 . S
C580 H575 0.949 . S
C580 C586 1.368 . S
C581 C565 1.349 . S
C581 H573 0.950 . S
C581 C579 1.327 . S
C582 C570 1.349 . S
C582 H576 0.950 . S
C582 C583 1.327 . S
C583 H577 0.950 . S
C583 C582 1.327 . S
C583 C587 1.429 . S
C584 C567 1.574 . S
C584 H578 0.949 . S
C584 C588 1.368 . S
C585 C566 1.429 . S
C585 C579 1.429 . S
C585 C586 1.523 . S
C586 C567 1.368 . S
C586 C580 1.368 . S
C586 C585 1.523 . S
C587 C571 1.429 . S
C587 C583 1.429 . S
C587 C588 1.523 . S
C588 C572 1.368 . S
C588 C584 1.368 . S
C588 C587 1.523 . S
H589 C564 0.950 . S
H590 C566 0.950 . S
H591 C567 0.949 . S
H592 C569 0.950 . S
H593 C571 0.950 . S
C594 C595 1.349 . S
C594 C596 1.327 . S
C594 H619 0.950 . S
C595 C594 1.349 . S
C595 C611 1.349 . S
C596 C594 1.327 . S
C596 C615 1.429 . S
C596 H620 0.950 . S
C597 C614 1.574 . S
C597 C616 1.368 . S
C597 H621 0.949 . S
H598 C602 0.949 . S
C599 C600 1.349 . S
C599 C601 1.327 . S
C599 H622 0.950 . S
C600 C599 1.349 . S
C600 C612 1.349 . S
C601 C599 1.327 . S
C601 C617 1.429 . S
C601 H623 0.950 . S
C602 H598 0.949 . S
C602 C610 1.574 . S
C602 C618 1.368 . S
H603 C611 0.950 . S
H604 C609 0.950 . S
H605 C610 0.949 . S
H606 C612 0.950 . S
H607 C613 0.950 . S
H608 C614 0.949 . S
C609 H604 0.950 . S
C609 C611 1.327 . S
C609 C615 1.429 . S
C610 C602 1.574 . S
C610 H605 0.949 . S
C610 C616 1.368 . S
C611 C595 1.349 . S
C611 H603 0.950 . S
C611 C609 1.327 . S
C612 C600 1.349 . S
C612 H606 0.950 . S
C612 C613 1.327 . S
C613 H607 0.950 . S
C613 C612 1.327 . S
C613 C617 1.429 . S
C614 C597 1.574 . S
C614 H608 0.949 . S
C614 C618 1.368 . S
C615 C596 1.429 . S
C615 C609 1.429 . S
C615 C616 1.523 . S
C616 C597 1.368 . S
C616 C610 1.368 . S
C616 C615 1.523 . S
C617 C601 1.429 . S
C617 C613 1.429 . S
C617 C618 1.523 . S
C618 C602 1.368 . S
C618 C614 1.368 . S
C618 C617 1.523 . S
H619 C594 0.950 . S
H620 C596 0.950 . S
H621 C597 0.949 . S
H622 C599 0.950 . S
H623 C601 0.950 . S
C624 C625 1.349 . S
C624 C626 1.327 . S
C624 H649 0.950 . S
C625 C624 1.349 . S
C625 C641 1.349 . S
C626 C624 1.327 . S
C626 C645 1.429 . S
C626 H650 0.950 . S
C627 C644 1.574 . S
C627 C646 1.368 . S
C627 H651 0.949 . S
H628 C632 0.949 . S
C629 C630 1.349 . S
C629 C631 1.327 . S
C629 H652 0.950 . S
C630 C629 1.349 . S
C630 C642 1.349 . S
C631 C629 1.327 . S
C631 C647 1.429 . S
C631 H653 0.950 . S
C632 H628 0.949 . S
C632 C640 1.574 . S
C632 C648 1.368 . S
H633 C641 0.950 . S
H634 C639 0.950 . S
H635 C640 0.949 . S
H636 C642 0.950 . S
H637 C643 0.950 . S
H638 C644 0.949 . S
C639 H634 0.950 . S
C639 C641 1.327 . S
C639 C645 1.429 . S
C640 C632 1.574 . S
C640 H635 0.949 . S
C640 C646 1.368 . S
C641 C625 1.349 . S
C641 H633 0.950 . S
C641 C639 1.327 . S
C642 C630 1.349 . S
C642 H636 0.950 . S
C642 C643 1.327 . S
C643 H637 0.950 . S
C643 C642 1.327 . S
C643 C647 1.429 . S
C644 C627 1.574 . S
C644 H638 0.949 . S
C644 C648 1.368 . S
C645 C626 1.429 . S
C645 C639 1.429 . S
C645 C646 1.523 . S
C646 C627 1.368 . S
C646 C640 1.368 . S
C646 C645 1.523 . S
C647 C631 1.429 . S
C647 C643 1.429 . S
C647 C648 1.523 . S
C648 C632 1.368 . S
C648 C644 1.368 . S
C648 C647 1.523 . S
H649 C624 0.950 . S
H650 C626 0.950 . S
H651 C627 0.949 . S
H652 C629 0.950 . S
H653 C631 0.950 . S
C654 C655 1.349 . S
C654 C656 1.327 . S
C654 H679 0.950 . S
C655 C654 1.349 . S
C655 C671 1.349 . S
C656 C654 1.327 . S
C656 C675 1.429 . S
C656 H680 0.950 . S
C657 C674 1.574 . S
C657 C676 1.368 . S
C657 H681 0.949 . S
H658 C662 0.949 . S
C659 C660 1.349 . S
C659 C661 1.327 . S
C659 H682 0.950 . S
C660 C659 1.349 . S
C660 C672 1.349 . S
C661 C659 1.327 . S
C661 C677 1.429 . S
C661 H683 0.950 . S
C662 H658 0.949 . S
C662 C670 1.574 . S
C662 C678 1.368 . S
H663 C671 0.950 . S
H664 C669 0.950 . S
H665 C670 0.949 . S
H666 C672 0.950 . S
H667 C673 0.950 . S
H668 C674 0.949 . S
C669 H664 0.950 . S
C669 C671 1.327 . S
C669 C675 1.429 . S
C670 C662 1.574 . S
C670 H665 0.949 . S
C670 C676 1.368 . S
C671 C655 1.349 . S
C671 H663 0.950 . S
C671 C669 1.327 . S
C672 C660 1.349 . S
C672 H666 0.950 . S
C672 C673 1.327 . S
C673 H667 0.950 . S
C673 C672 1.327 . S
C673 C677 1.429 . S
C674 C657 1.574 . S
C674 H668 0.949 . S
C674 C678 1.368 . S
C675 C656 1.429 . S
C675 C669 1.429 . S
C675 C676 1.523 . S
C676 C657 1.368 . S
C676 C670 1.368 . S
C676 C675 1.523 . S
C677 C661 1.429 . S
C677 C673 1.429 . S
C677 C678 1.523 . S
C678 C662 1.368 . S
C678 C674 1.368 . S
C678 C677 1.523 . S
H679 C654 0.950 . S
H680 C656 0.950 . S
H681 C657 0.949 . S
H682 C659 0.950 . S
H683 C661 0.950 . S
C684 C685 1.349 1_556 S
C684 C686 1.327 . S
C684 H709 0.950 . S
C685 C684 1.349 1_554 S
C685 C701 1.349 . S
C686 C684 1.327 . S
C686 C705 1.429 1_556 S
C686 H710 0.950 . S
C687 C704 1.574 . S
C687 C706 1.368 . S
C687 H711 0.949 . S
H688 C692 0.949 . S
C689 C690 1.349 . S
C689 C691 1.327 . S
C689 H712 0.950 . S
C690 C689 1.349 . S
C690 C702 1.349 1_554 S
C691 C689 1.327 . S
C691 C707 1.429 . S
C691 H713 0.950 . S
C692 H688 0.949 . S
C692 C700 1.574 . S
C692 C708 1.368 1_556 S
H693 C701 0.950 . S
H694 C699 0.950 . S
H695 C700 0.949 . S
H696 C702 0.950 . S
H697 C703 0.950 . S
H698 C704 0.949 . S
C699 H694 0.950 . S
C699 C701 1.327 . S
C699 C705 1.429 . S
C700 C692 1.574 . S
C700 H695 0.949 . S
C700 C706 1.368 1_556 S
C701 C685 1.349 . S
C701 H693 0.950 . S
C701 C699 1.327 . S
C702 C690 1.349 1_556 S
C702 H696 0.950 . S
C702 C703 1.327 . S
C703 H697 0.950 . S
C703 C702 1.327 . S
C703 C707 1.429 1_556 S
C704 C687 1.574 . S
C704 H698 0.949 . S
C704 C708 1.368 . S
C705 C686 1.429 1_554 S
C705 C699 1.429 . S
C705 C706 1.523 . S
C706 C687 1.368 . S
C706 C700 1.368 1_554 S
C706 C705 1.523 . S
C707 C691 1.429 . S
C707 C703 1.429 1_554 S
C707 C708 1.523 . S
C708 C692 1.368 1_554 S
C708 C704 1.368 . S
C708 C707 1.523 . S
H709 C684 0.950 . S
H710 C686 0.950 . S
H711 C687 0.949 . S
H712 C689 0.950 . S
H713 C691 0.950 . S
C714 C715 1.349 . S
C714 C716 1.327 . S
C714 H739 0.950 . S
C715 C714 1.349 . S
C715 C731 1.349 . S
C716 C714 1.327 . S
C716 C735 1.429 . S
C716 H740 0.950 . S
C717 C734 1.574 . S
C717 C736 1.368 . S
C717 H741 0.949 . S
H718 C722 0.949 . S
C719 C720 1.349 . S
C719 C721 1.327 . S
C719 H742 0.950 . S
C720 C719 1.349 . S
C720 C732 1.349 . S
C721 C719 1.327 . S
C721 C737 1.429 . S
C721 H743 0.950 . S
C722 H718 0.949 . S
C722 C730 1.574 . S
C722 C738 1.368 . S
H723 C731 0.950 . S
H724 C729 0.950 . S
H725 C730 0.949 . S
H726 C732 0.950 . S
H727 C733 0.950 . S
H728 C734 0.949 . S
C729 H724 0.950 . S
C729 C731 1.327 . S
C729 C735 1.429 . S
C730 C722 1.574 . S
C730 H725 0.949 . S
C730 C736 1.368 1_655 S
C731 C715 1.349 . S
C731 H723 0.950 . S
C731 C729 1.327 . S
C732 C720 1.349 . S
C732 H726 0.950 . S
C732 C733 1.327 . S
C733 H727 0.950 . S
C733 C732 1.327 . S
C733 C737 1.429 . S
C734 C717 1.574 . S
C734 H728 0.949 . S
C734 C738 1.368 1_455 S
C735 C716 1.429 . S
C735 C729 1.429 . S
C735 C736 1.523 . S
C736 C717 1.368 . S
C736 C730 1.368 1_455 S
C736 C735 1.523 . S
C737 C721 1.429 . S
C737 C733 1.429 . S
C737 C738 1.523 . S
C738 C722 1.368 . S
C738 C734 1.368 1_655 S
C738 C737 1.523 . S
H739 C714 0.950 . S
H740 C716 0.950 . S
H741 C717 0.949 . S
H742 C719 0.950 . S
H743 C721 0.950 . S
C744 C745 1.349 . S
C744 C746 1.327 . S
C744 H769 0.950 . S
C745 C744 1.349 . S
C745 C761 1.349 . S
C746 C744 1.327 . S
C746 C765 1.429 . S
C746 H770 0.950 . S
C747 C764 1.574 . S
C747 C766 1.368 . S
C747 H771 0.949 . S
H748 C752 0.949 . S
C749 C750 1.349 . S
C749 C751 1.327 . S
C749 H772 0.950 . S
C750 C749 1.349 . S
C750 C762 1.349 . S
C751 C749 1.327 . S
C751 C767 1.429 . S
C751 H773 0.950 . S
C752 H748 0.949 . S
C752 C760 1.574 . S
C752 C768 1.368 . S
H753 C761 0.950 . S
H754 C759 0.950 . S
H755 C760 0.949 . S
H756 C762 0.950 . S
H757 C763 0.950 . S
H758 C764 0.949 . S
C759 H754 0.950 . S
C759 C761 1.327 . S
C759 C765 1.429 . S
C760 C752 1.574 . S
C760 H755 0.949 . S
C760 C766 1.368 1_565 S
C761 C745 1.349 . S
C761 H753 0.950 . S
C761 C759 1.327 . S
C762 C750 1.349 . S
C762 H756 0.950 . S
C762 C763 1.327 . S
C763 H757 0.950 . S
C763 C762 1.327 . S
C763 C767 1.429 . S
C764 C747 1.574 . S
C764 H758 0.949 . S
C764 C768 1.368 1_545 S
C765 C746 1.429 . S
C765 C759 1.429 . S
C765 C766 1.523 . S
C766 C747 1.368 . S
C766 C760 1.368 1_545 S
C766 C765 1.523 . S
C767 C751 1.429 . S
C767 C763 1.429 . S
C767 C768 1.523 . S
C768 C752 1.368 . S
C768 C764 1.368 1_565 S
C768 C767 1.523 . S
H769 C744 0.950 . S
H770 C746 0.950 . S
H771 C747 0.949 . S
H772 C749 0.950 . S
H773 C751 0.950 . S
C774 C775 1.349 . S
C774 C776 1.327 . S
C774 H799 0.950 . S
C775 C774 1.349 . S
C775 C791 1.349 . S
C776 C774 1.327 . S
C776 C795 1.429 . S
C776 H800 0.950 . S
C777 C794 1.574 . S
C777 C796 1.368 . S
C777 H801 0.949 . S
H778 C782 0.949 . S
C779 C780 1.349 . S
C779 C781 1.327 . S
C779 H802 0.950 . S
C780 C779 1.349 . S
C780 C792 1.349 . S
C781 C779 1.327 . S
C781 C797 1.429 . S
C781 H803 0.950 . S
C782 H778 0.949 . S
C782 C790 1.574 . S
C782 C798 1.368 . S
H783 C791 0.950 . S
H784 C789 0.950 . S
H785 C790 0.949 . S
H786 C792 0.950 . S
H787 C793 0.950 . S
H788 C794 0.949 . S
C789 H784 0.950 . S
C789 C791 1.327 . S
C789 C795 1.429 . S
C790 C782 1.574 . S
C790 H785 0.949 . S
C790 C796 1.368 . S
C791 C775 1.349 . S
C791 H783 0.950 . S
C791 C789 1.327 . S
C792 C780 1.349 . S
C792 H786 0.950 . S
C792 C793 1.327 . S
C793 H787 0.950 . S
C793 C792 1.327 . S
C793 C797 1.429 . S
C794 C777 1.574 . S
C794 H788 0.949 . S
C794 C798 1.368 . S
C795 C776 1.429 . S
C795 C789 1.429 . S
C795 C796 1.523 . S
C796 C777 1.368 . S
C796 C790 1.368 . S
C796 C795 1.523 . S
C797 C781 1.429 . S
C797 C793 1.429 . S
C797 C798 1.523 . S
C798 C782 1.368 . S
C798 C794 1.368 . S
C798 C797 1.523 . S
H799 C774 0.950 . S
H800 C776 0.950 . S
H801 C777 0.949 . S
H802 C779 0.950 . S
H803 C781 0.950 . S
C804 C805 1.349 1_556 S
C804 C806 1.327 . S
C804 H829 0.950 . S
C805 C804 1.349 1_554 S
C805 C821 1.349 . S
C806 C804 1.327 . S
C806 C825 1.429 1_556 S
C806 H830 0.950 . S
C807 C824 1.574 . S
C807 C826 1.368 . S
C807 H831 0.949 . S
H808 C812 0.949 . S
C809 C810 1.349 . S
C809 C811 1.327 . S
C809 H832 0.950 . S
C810 C809 1.349 . S
C810 C822 1.349 1_554 S
C811 C809 1.327 . S
C811 C827 1.429 . S
C811 H833 0.950 . S
C812 H808 0.949 . S
C812 C820 1.574 . S
C812 C828 1.368 1_556 S
H813 C821 0.950 . S
H814 C819 0.950 . S
H815 C820 0.949 . S
H816 C822 0.950 . S
H817 C823 0.950 . S
H818 C824 0.949 . S
C819 H814 0.950 . S
C819 C821 1.327 . S
C819 C825 1.429 . S
C820 C812 1.574 . S
C820 H815 0.949 . S
C820 C826 1.368 1_656 S
C821 C805 1.349 . S
C821 H813 0.950 . S
C821 C819 1.327 . S
C822 C810 1.349 1_556 S
C822 H816 0.950 . S
C822 C823 1.327 . S
C823 H817 0.950 . S
C823 C822 1.327 . S
C823 C827 1.429 1_556 S
C824 C807 1.574 . S
C824 H818 0.949 . S
C824 C828 1.368 1_455 S
C825 C806 1.429 1_554 S
C825 C819 1.429 . S
C825 C826 1.523 . S
C826 C807 1.368 . S
C826 C820 1.368 1_454 S
C826 C825 1.523 . S
C827 C811 1.429 . S
C827 C823 1.429 1_554 S
C827 C828 1.523 . S
C828 C812 1.368 1_554 S
C828 C824 1.368 1_655 S
C828 C827 1.523 . S
H829 C804 0.950 . S
H830 C806 0.950 . S
H831 C807 0.949 . S
H832 C809 0.950 . S
H833 C811 0.950 . S
C834 C835 1.349 . S
C834 C836 1.327 . S
C834 H859 0.950 . S
C835 C834 1.349 . S
C835 C851 1.349 . S
C836 C834 1.327 . S
C836 C855 1.429 . S
C836 H860 0.950 . S
C837 C854 1.574 . S
C837 C856 1.368 1_545 S
C837 H861 0.949 . S
H838 C842 0.949 . S
C839 C840 1.349 . S
C839 C841 1.327 . S
C839 H862 0.950 . S
C840 C839 1.349 . S
C840 C852 1.349 . S
C841 C839 1.327 . S
C841 C857 1.429 . S
C841 H863 0.950 . S
C842 H838 0.949 . S
C842 C850 1.574 . S
C842 C858 1.368 1_565 S
H843 C851 0.950 . S
H844 C849 0.950 . S
H845 C850 0.949 . S
H846 C852 0.950 . S
H847 C853 0.950 . S
H848 C854 0.949 . S
C849 H844 0.950 . S
C849 C851 1.327 . S
C849 C855 1.429 . S
C850 C842 1.574 . S
C850 H845 0.949 . S
C850 C856 1.368 . S
C851 C835 1.349 . S
C851 H843 0.950 . S
C851 C849 1.327 . S
C852 C840 1.349 . S
C852 H846 0.950 . S
C852 C853 1.327 . S
C853 H847 0.950 . S
C853 C852 1.327 . S
C853 C857 1.429 . S
C854 C837 1.574 . S
C854 H848 0.949 . S
C854 C858 1.368 . S
C855 C836 1.429 . S
C855 C849 1.429 . S
C855 C856 1.523 . S
C856 C837 1.368 1_565 S
C856 C850 1.368 . S
C856 C855 1.523 . S
C857 C841 1.429 . S
C857 C853 1.429 . S
C857 C858 1.523 . S
C858 C842 1.368 1_545 S
C858 C854 1.368 . S
C858 C857 1.523 . S
H859 C834 0.950 . S
H860 C836 0.950 . S
H861 C837 0.949 . S
H862 C839 0.950 . S
H863 C841 0.950 . S
C864 C865 1.349 . S
C864 C866 1.327 . S
C864 H889 0.950 . S
C865 C864 1.349 . S
C865 C881 1.349 . S
C866 C864 1.327 . S
C866 C885 1.429 . S
C866 H890 0.950 . S
C867 C884 1.574 . S
C867 C886 1.368 . S
C867 H891 0.949 . S
H868 C872 0.949 . S
C869 C870 1.349 . S
C869 C871 1.327 . S
C869 H892 0.950 . S
C870 C869 1.349 . S
C870 C882 1.349 . S
C871 C869 1.327 . S
C871 C887 1.429 . S
C871 H893 0.950 . S
C872 H868 0.949 . S
C872 C880 1.574 . S
C872 C888 1.368 . S
H873 C881 0.950 . S
H874 C879 0.950 . S
H875 C880 0.949 . S
H876 C882 0.950 . S
H877 C883 0.950 . S
H878 C884 0.949 . S
C879 H874 0.950 . S
C879 C881 1.327 . S
C879 C885 1.429 . S
C880 C872 1.574 . S
C880 H875 0.949 . S
C880 C886 1.368 . S
C881 C865 1.349 . S
C881 H873 0.950 . S
C881 C879 1.327 . S
C882 C870 1.349 . S
C882 H876 0.950 . S
C882 C883 1.327 . S
C883 H877 0.950 . S
C883 C882 1.327 . S
C883 C887 1.429 . S
C884 C867 1.574 . S
C884 H878 0.949 . S
C884 C888 1.368 . S
C885 C866 1.429 . S
C885 C879 1.429 . S
C885 C886 1.523 . S
C886 C867 1.368 . S
C886 C880 1.368 . S
C886 C885 1.523 . S
C887 C871 1.429 . S
C887 C883 1.429 . S
C887 C888 1.523 . S
C888 C872 1.368 . S
C888 C884 1.368 . S
C888 C887 1.523 . S
H889 C864 0.950 . S
H890 C866 0.950 . S
H891 C867 0.949 . S
H892 C869 0.950 . S
H893 C871 0.950 . S
C894 C895 1.349 . S
C894 C896 1.327 . S
C894 H919 0.950 . S
C895 C894 1.349 . S
C895 C911 1.342 1_655 S
C896 C894 1.327 . S
C896 C915 1.429 1_655 S
C896 H920 0.950 . S
C897 C914 1.574 . S
C897 C916 1.368 . S
C897 H921 0.949 . S
H898 C902 0.949 . S
C899 C900 1.349 . S
C899 C901 1.327 . S
C899 H922 0.950 . S
C900 C899 1.349 . S
C900 C912 1.349 . S
C901 C899 1.327 . S
C901 C917 1.429 . S
C901 H923 0.950 . S
C902 H898 0.949 . S
C902 C910 1.574 . S
C902 C918 1.368 . S
H903 C911 0.953 . S
H904 C909 0.950 . S
H905 C910 0.949 1_655 S
H906 C912 0.950 . S
H907 C913 0.950 . S
H908 C914 0.949 . S
C909 H904 0.950 . S
C909 C911 1.331 . S
C909 C915 1.429 . S
C910 C902 1.574 . S
C910 H905 0.949 1_455 S
C910 C916 1.368 . S
C911 C895 1.342 1_455 S
C911 H903 0.953 . S
C911 C909 1.331 . S
C912 C900 1.349 . S
C912 H906 0.950 . S
C912 C913 1.327 . S
C913 H907 0.950 . S
C913 C912 1.327 . S
C913 C917 1.429 . S
C914 C897 1.574 . S
C914 H908 0.949 . S
C914 C918 1.368 . S
C915 C896 1.429 1_455 S
C915 C909 1.429 . S
C915 C916 1.523 . S
C916 C897 1.368 . S
C916 C910 1.368 . S
C916 C915 1.523 . S
C917 C901 1.429 . S
C917 C913 1.429 . S
C917 C918 1.523 . S
C918 C902 1.368 . S
C918 C914 1.368 . S
C918 C917 1.523 . S
H919 C894 0.950 . S
H920 C896 0.950 . S
H921 C897 0.949 . S
H922 C899 0.950 . S
H923 C901 0.950 . S
C924 C925 1.349 . S
C924 C926 1.327 1_565 S
C924 H949 0.950 1_565 S
C925 C924 1.349 . S
C925 C941 1.349 . S
C926 C924 1.327 1_545 S
C926 C945 1.429 . S
C926 H950 0.950 . S
C927 C944 1.574 . S
C927 C946 1.368 . S
C927 H951 0.949 1_545 S
H928 C932 0.949 . S
C929 C930 1.349 . S
C929 C931 1.327 . S
C929 H952 0.950 . S
C930 C929 1.349 . S
C930 C942 1.349 . S
C931 C929 1.327 . S
C931 C947 1.429 . S
C931 H953 0.950 . S
C932 H928 0.949 . S
C932 C940 1.574 . S
C932 C948 1.368 . S
H933 C941 0.950 . S
H934 C939 0.950 . S
H935 C940 0.949 . S
H936 C942 0.950 . S
H937 C943 0.950 . S
H938 C944 0.949 . S
C939 H934 0.950 . S
C939 C941 1.327 . S
C939 C945 1.429 1_565 S
C940 C932 1.574 . S
C940 H935 0.949 . S
C940 C946 1.368 . S
C941 C925 1.349 . S
C941 H933 0.950 . S
C941 C939 1.327 . S
C942 C930 1.349 . S
C942 H936 0.950 . S
C942 C943 1.327 . S
C943 H937 0.950 . S
C943 C942 1.327 . S
C943 C947 1.429 . S
C944 C927 1.574 . S
C944 H938 0.949 . S
C944 C948 1.368 . S
C945 C926 1.429 . S
C945 C939 1.429 1_545 S
C945 C946 1.523 . S
C946 C927 1.368 . S
C946 C940 1.368 . S
C946 C945 1.523 . S
C947 C931 1.429 . S
C947 C943 1.429 . S
C947 C948 1.523 . S
C948 C932 1.368 . S
C948 C944 1.368 . S
C948 C947 1.523 . S
H949 C924 0.950 1_545 S
H950 C926 0.950 . S
H951 C927 0.949 1_565 S
H952 C929 0.950 . S
H953 C931 0.950 . S
C954 C955 1.349 . S
C954 C956 1.327 . S
C954 H979 0.950 . S
C955 C954 1.349 . S
C955 C971 1.349 . S
C956 C954 1.327 . S
C956 C975 1.429 . S
C956 H980 0.950 . S
C957 C974 1.574 . S
C957 C976 1.368 . S
C957 H981 0.949 . S
H958 C962 0.949 . S
C959 C960 1.349 . S
C959 C961 1.327 . S
C959 H982 0.950 . S
C960 C959 1.349 . S
C960 C972 1.349 . S
C961 C959 1.327 . S
C961 C977 1.429 . S
C961 H983 0.950 . S
C962 H958 0.949 . S
C962 C970 1.574 . S
C962 C978 1.368 . S
H963 C971 0.950 . S
H964 C969 0.950 . S
H965 C970 0.949 . S
H966 C972 0.950 . S
H967 C973 0.950 . S
H968 C974 0.949 . S
C969 H964 0.950 . S
C969 C971 1.327 . S
C969 C975 1.429 . S
C970 C962 1.574 . S
C970 H965 0.949 . S
C970 C976 1.368 . S
C971 C955 1.349 . S
C971 H963 0.950 . S
C971 C969 1.327 . S
C972 C960 1.349 . S
C972 H966 0.950 . S
C972 C973 1.327 . S
C973 H967 0.950 . S
C973 C972 1.327 . S
C973 C977 1.429 . S
C974 C957 1.574 . S
C974 H968 0.949 . S
C974 C978 1.368 . S
C975 C956 1.429 . S
C975 C969 1.429 . S
C975 C976 1.523 . S
C976 C957 1.368 . S
C976 C970 1.368 . S
C976 C975 1.523 . S
C977 C961 1.429 . S
C977 C973 1.429 . S
C977 C978 1.523 . S
C978 C962 1.368 . S
C978 C974 1.368 . S
C978 C977 1.523 . S
H979 C954 0.950 . S
H980 C956 0.950 . S
H981 C957 0.949 . S
H982 C959 0.950 . S
H983 C961 0.950 . S
C984 C985 1.349 . S
C984 C986 1.327 1_455 S
C984 H1009 0.950 1_455 S
C985 C984 1.349 . S
C985 C1001 1.349 . S
C986 C984 1.327 1_655 S
C986 C1005 1.429 . S
C986 H1010 0.950 . S
C987 C1004 1.574 . S
C987 C1006 1.368 . S
C987 H1011 0.949 1_655 S
H988 C992 0.949 . S
C989 C990 1.349 . S
C989 C991 1.327 . S
C989 H1012 0.950 . S
C990 C989 1.349 . S
C990 C1002 1.349 . S
C991 C989 1.327 . S
C991 C1007 1.429 . S
C991 H1013 0.950 . S
C992 H988 0.949 . S
C992 C1000 1.574 . S
C992 C1008 1.368 . S
H993 C1001 0.950 . S
H994 C999 0.950 . S
H995 C1000 0.949 . S
H996 C1002 0.950 . S
H997 C1003 0.950 . S
H998 C1004 0.949 . S
C999 H994 0.950 . S
C999 C1001 1.327 . S
C999 C1005 1.429 1_455 S
C1000 C992 1.574 . S
C1000 H995 0.949 . S
C1000 C1006 1.368 . S
C1001 C985 1.349 . S
C1001 H993 0.950 . S
C1001 C999 1.327 . S
C1002 C990 1.349 . S
C1002 H996 0.950 . S
C1002 C1003 1.327 . S
C1003 H997 0.950 . S
C1003 C1002 1.327 . S
C1003 C1007 1.429 . S
C1004 C987 1.574 . S
C1004 H998 0.949 . S
C1004 C1008 1.368 . S
C1005 C986 1.429 . S
C1005 C999 1.429 1_655 S
C1005 C1006 1.523 . S
C1006 C987 1.368 . S
C1006 C1000 1.368 . S
C1006 C1005 1.523 . S
C1007 C991 1.429 . S
C1007 C1003 1.429 . S
C1007 C1008 1.523 . S
C1008 C992 1.368 . S
C1008 C1004 1.368 . S
C1008 C1007 1.523 . S
H1009 C984 0.950 1_655 S
H1010 C986 0.950 . S
H1011 C987 0.949 1_455 S
H1012 C989 0.950 . S
H1013 C991 0.950 . S
C1014 C1015 1.349 . S
C1014 C1016 1.327 1_545 S
C1014 H1039 0.950 1_545 S
C1015 C1014 1.349 . S
C1015 C1031 1.349 . S
C1016 C1014 1.327 1_565 S
C1016 C1035 1.429 . S
C1016 H1040 0.950 . S
C1017 C1034 1.574 . S
C1017 C1036 1.368 . S
C1017 H1041 0.949 1_565 S
H1018 C1022 0.949 . S
C1019 C1020 1.349 . S
C1019 C1021 1.327 . S
C1019 H1042 0.950 . S
C1020 C1019 1.349 . S
C1020 C1032 1.349 . S
C1021 C1019 1.327 . S
C1021 C1037 1.429 . S
C1021 H1043 0.950 . S
C1022 H1018 0.949 . S
C1022 C1030 1.574 . S
C1022 C1038 1.368 . S
H1023 C1031 0.950 . S
H1024 C1029 0.950 . S
H1025 C1030 0.949 . S
H1026 C1032 0.950 . S
H1027 C1033 0.950 . S
H1028 C1034 0.949 . S
C1029 H1024 0.950 . S
C1029 C1031 1.327 . S
C1029 C1035 1.429 1_545 S
C1030 C1022 1.574 . S
C1030 H1025 0.949 . S
C1030 C1036 1.368 . S
C1031 C1015 1.349 . S
C1031 H1023 0.950 . S
C1031 C1029 1.327 . S
C1032 C1020 1.349 . S
C1032 H1026 0.950 . S
C1032 C1033 1.327 . S
C1033 H1027 0.950 . S
C1033 C1032 1.327 . S
C1033 C1037 1.429 . S
C1034 C1017 1.574 . S
C1034 H1028 0.949 . S
C1034 C1038 1.368 . S
C1035 C1016 1.429 . S
C1035 C1029 1.429 1_565 S
C1035 C1036 1.523 . S
C1036 C1017 1.368 . S
C1036 C1030 1.368 . S
C1036 C1035 1.523 . S
C1037 C1021 1.429 . S
C1037 C1033 1.429 . S
C1037 C1038 1.523 . S
C1038 C1022 1.368 . S
C1038 C1034 1.368 . S
C1038 C1037 1.523 . S
H1039 C1014 0.950 1_565 S
H1040 C1016 0.950 . S
H1041 C1017 0.949 1_545 S
H1042 C1019 0.950 . S
H1043 C1021 0.950 . S
C505 C392 1.110 . S
C510 C72 0.991 . S
C535 C476 1.110 . S
C540 C156 0.991 . S
C565 C56 1.109 . S
C570 C240 0.990 . S
C595 C140 1.110 . S
C600 C324 0.991 . S
C625 C224 1.110 . S
C630 C408 0.991 . S
C655 C308 1.109 . S
C660 C492 0.990 . S
C685 C75 1.629 . S
C690 C327 1.629 . S
C715 C411 1.628 . S
C720 C159 1.628 . S
C745 C495 1.627 . S
C750 C243 1.627 . S
C775 C234 1.682 . S
C780 C486 1.682 . S
C805 C66 1.684 . S
C810 C318 1.684 . S
C835 C402 1.683 . S
C840 C150 1.683 . S
C865 C487 1.193 . S
C870 C63 1.181 . S
C895 C147 1.182 . S
C900 C67 1.193 . S
C925 C231 1.182 . S
C930 C151 1.193 . S
C955 C235 1.193 . S
C960 C315 1.181 . S
C985 C399 1.182 . S
C990 C319 1.193 . S
C1015 C483 1.181 . S
C1020 C403 1.193 . S
