# Generated by pormake.
# Topology wjd, (6)-cn, num edge types: 1
# Building blocks:
#     Node 0, Type 0, BuildingBlock: CUWYAW_clean_sbu_0, # of connection points: 6
#     Node 1, Type 0, BuildingBlock: CUWYAW_clean_sbu_0, # of connection points: 6
#     Node 2, Type 0, BuildingBlock: CUWYAW_clean_sbu_0, # of connection points: 6
#     Node 3, Type 0, BuildingBlock: CUWYAW_clean_sbu_0, # of connection points: 6
#     Node 4, Type 0, BuildingBlock: CUWYAW_clean_sbu_0, # of connection points: 6
#     Node 5, Type 0, BuildingBlock: CUWYAW_clean_sbu_0, # of connection points: 6
#     Node 6, Type 0, BuildingBlock: CUWYAW_clean_sbu_0, # of connection points: 6
#     Node 7, Type 0, BuildingBlock: CUWYAW_clean_sbu_0, # of connection points: 6
#     Node 8, Type 0, BuildingBlock: CUWYAW_clean_sbu_0, # of connection points: 6
#     Node 9, Type 0, BuildingBlock: CUWYAW_clean_sbu_0, # of connection points: 6
#     Node 10, Type 0, BuildingBlock: CUWYAW_clean_sbu_0, # of connection points: 6
#     Node 11, Type 0, BuildingBlock: CUWYAW_clean_sbu_0, # of connection points: 6
#     Edge 12, Type (0, 0), BuildingBlock: UVAHIK_clean_linker_0, # of connection points: 2
#     Edge 13, Type (0, 0), BuildingBlock: UVAHIK_clean_linker_0, # of connection points: 2
#     Edge 14, Type (0, 0), BuildingBlock: UVAHIK_clean_linker_0, # of connection points: 2
#     Edge 15, Type (0, 0), BuildingBlock: UVAHIK_clean_linker_0, # of connection points: 2
#     Edge 16, Type (0, 0), BuildingBlock: UVAHIK_clean_linker_0, # of connection points: 2
#     Edge 17, Type (0, 0), BuildingBlock: UVAHIK_clean_linker_0, # of connection points: 2
#     Edge 18, Type (0, 0), BuildingBlock: UVAHIK_clean_linker_0, # of connection points: 2
#     Edge 19, Type (0, 0), BuildingBlock: UVAHIK_clean_linker_0, # of connection points: 2
#     Edge 20, Type (0, 0), BuildingBlock: UVAHIK_clean_linker_0, # of connection points: 2
#     Edge 21, Type (0, 0), BuildingBlock: UVAHIK_clean_linker_0, # of connection points: 2
#     Edge 22, Type (0, 0), BuildingBlock: UVAHIK_clean_linker_0, # of connection points: 2
#     Edge 23, Type (0, 0), BuildingBlock: UVAHIK_clean_linker_0, # of connection points: 2
#     Edge 24, Type (0, 0), BuildingBlock: UVAHIK_clean_linker_0, # of connection points: 2
#     Edge 25, Type (0, 0), BuildingBlock: UVAHIK_clean_linker_0, # of connection points: 2
#     Edge 26, Type (0, 0), BuildingBlock: UVAHIK_clean_linker_0, # of connection points: 2
#     Edge 27, Type (0, 0), BuildingBlock: UVAHIK_clean_linker_0, # of connection points: 2
#     Edge 28, Type (0, 0), BuildingBlock: UVAHIK_clean_linker_0, # of connection points: 2
#     Edge 29, Type (0, 0), BuildingBlock: UVAHIK_clean_linker_0, # of connection points: 2
#     Edge 30, Type (0, 0), BuildingBlock: UVAHIK_clean_linker_0, # of connection points: 2
#     Edge 31, Type (0, 0), BuildingBlock: UVAHIK_clean_linker_0, # of connection points: 2
#     Edge 32, Type (0, 0), BuildingBlock: UVAHIK_clean_linker_0, # of connection points: 2
#     Edge 33, Type (0, 0), BuildingBlock: UVAHIK_clean_linker_0, # of connection points: 2
#     Edge 34, Type (0, 0), BuildingBlock: UVAHIK_clean_linker_0, # of connection points: 2
#     Edge 35, Type (0, 0), BuildingBlock: UVAHIK_clean_linker_0, # of connection points: 2
#     Edge 36, Type (0, 0), BuildingBlock: UVAHIK_clean_linker_0, # of connection points: 2
#     Edge 37, Type (0, 0), BuildingBlock: UVAHIK_clean_linker_0, # of connection points: 2
#     Edge 38, Type (0, 0), BuildingBlock: UVAHIK_clean_linker_0, # of connection points: 2
#     Edge 39, Type (0, 0), BuildingBlock: UVAHIK_clean_linker_0, # of connection points: 2
#     Edge 40, Type (0, 0), BuildingBlock: UVAHIK_clean_linker_0, # of connection points: 2
#     Edge 41, Type (0, 0), BuildingBlock: UVAHIK_clean_linker_0, # of connection points: 2
#     Edge 42, Type (0, 0), BuildingBlock: UVAHIK_clean_linker_0, # of connection points: 2
#     Edge 43, Type (0, 0), BuildingBlock: UVAHIK_clean_linker_0, # of connection points: 2
#     Edge 44, Type (0, 0), BuildingBlock: UVAHIK_clean_linker_0, # of connection points: 2
#     Edge 45, Type (0, 0), BuildingBlock: UVAHIK_clean_linker_0, # of connection points: 2
#     Edge 46, Type (0, 0), BuildingBlock: UVAHIK_clean_linker_0, # of connection points: 2
#     Edge 47, Type (0, 0), BuildingBlock: UVAHIK_clean_linker_0, # of connection points: 2
# Relax obj value: 0.086
# Max RMSD: 0.194
# Mean RMSD: 0.194
data_MOF--net-wjd--node1-CUWYAW_clean_sbu_0--edge1-UVAHIK_clean_linker_0
_symmetry_space_group_name_H-M    P1
_symmetry_Int_Tables_number       1
_symmetry_cell_setting            triclinic
loop_
_symmetry_equiv_pos_as_xyz
'x, y, z'
_cell_length_a     49.567465
_cell_length_b     49.590086
_cell_length_c     66.55607
_cell_angle_alpha  90.067339
_cell_angle_beta   89.949458
_cell_angle_gamma 119.99785
loop_
_atom_site_label
_atom_site_type_symbol
_atom_site_fract_x
_atom_site_fract_y
_atom_site_fract_z
_atom_type_partial_charge
C0 C 0.28672 0.04076 0.14548 0.0
Eu1 Eu 0.32344 0.10018 0.15099 0.0
C2 C 0.25437 0.01709 0.15001 0.0
C3 C 0.2342 0.02514 0.15969 0.0
C4 C 0.20244 1.00326 0.16151 0.0
C5 C 0.19033 0.97301 0.15362 0.0
C6 C 0.21094 0.96501 0.14435 0.0
C7 C 0.24261 0.98686 0.14257 0.0
C8 C 0.33919 0.1356 0.18483 0.0
C9 C 0.28866 0.14189 0.1493 0.0
C10 C 0.39743 0.23179 0.13348 0.0
Eu11 Eu 0.36128 0.17229 0.13932 0.0
C12 C 0.42681 0.26074 0.13763 0.0
C13 C 0.43818 0.28409 0.12295 0.0
C14 C 0.46409 0.31321 0.12684 0.0
C15 C 0.47928 0.31963 0.14552 0.0
C16 C 0.46855 0.29578 0.16002 0.0
C17 C 0.44235 0.26654 0.15614 0.0
C18 C 0.33491 0.12963 0.10912 0.0
C19 C 0.39845 0.13571 0.15098 0.0
O20 O 0.28966 0.06212 0.13271 0.0
O21 O 0.30631 0.05214 0.16059 0.0
O22 O 0.32467 0.10531 0.18501 0.0
O23 O 0.34441 0.14481 0.16688 0.0
O24 O 0.28581 0.11382 0.14822 0.0
O25 O 0.31586 0.16783 0.14832 0.0
O26 O 0.37658 0.22016 0.14784 0.0
O27 O 0.39841 0.21053 0.1223 0.0
O28 O 0.33549 0.15608 0.10919 0.0
O29 O 0.34848 0.12769 0.12446 0.0
O30 O 0.39854 0.16252 0.15073 0.0
O31 O 0.37261 0.10836 0.14863 0.0
H32 H 0.24288 0.04855 0.16534 0.0
H33 H 0.18734 0.01012 0.16891 0.0
H34 H 0.20244 0.94218 0.13778 0.0
H35 H 0.25777 0.98043 0.13477 0.0
H36 H 0.42651 0.28005 0.10858 0.0
H37 H 0.47209 0.33085 0.11523 0.0
H38 H 0.47976 0.30007 0.17456 0.0
H39 H 0.43385 0.24878 0.16768 0.0
C40 C 0.84362 0.61825 0.43263 0.0
Eu41 Eu 0.82298 0.65713 0.42926 0.0
C42 C 0.84211 0.58926 0.42537 0.0
C43 C 0.82137 0.56037 0.43413 0.0
C44 C 0.82374 0.53399 0.42985 0.0
C45 C 0.84704 0.53596 0.41683 0.0
C46 C 0.86687 0.56455 0.40741 0.0
C47 C 0.86449 0.5909 0.41168 0.0
C48 C 0.80544 0.6802 0.46071 0.0
C49 C 0.75066 0.62399 0.41478 0.0
C50 C 0.77095 0.73605 0.42637 0.0
Eu51 Eu 0.7921 0.69846 0.41942 0.0
C52 C 0.78149 0.76933 0.42296 0.0
C53 C 0.78352 0.78152 0.40359 0.0
C54 C 0.79528 0.81349 0.40089 0.0
C55 C 0.80551 0.83381 0.41747 0.0
C56 C 0.80296 0.82149 0.43681 0.0
C57 C 0.79087 0.7896 0.43953 0.0
C58 C 0.81574 0.68864 0.38515 0.0
C59 C 0.86793 0.73058 0.42425 0.0
O60 O 0.85637 0.64274 0.42089 0.0
O61 O 0.82023 0.61606 0.44316 0.0
O62 O 0.83068 0.67845 0.4608 0.0
O63 O 0.79104 0.66931 0.44456 0.0
O64 O 0.7768 0.62282 0.41522 0.0
O65 O 0.74997 0.64999 0.41834 0.0
O66 O 0.78778 0.73074 0.43921 0.0
O67 O 0.76224 0.71727 0.41075 0.0
O68 O 0.80206 0.70517 0.38594 0.0
O69 O 0.81626 0.6787 0.40247 0.0
O70 O 0.84318 0.7342 0.42535 0.0
O71 O 0.86565 0.70292 0.42343 0.0
H72 H 0.80415 0.55835 0.44496 0.0
H73 H 0.80829 0.51243 0.43752 0.0
H74 H 0.88478 0.56677 0.39709 0.0
H75 H 0.88105 0.61285 0.40483 0.0
H76 H 0.77646 0.76651 0.39051 0.0
H77 H 0.79703 0.82243 0.38582 0.0
H78 H 0.81017 0.83654 0.44989 0.0
H79 H 0.78929 0.78079 0.45464 0.0
C80 C 0.98119 0.2509 0.14561 0.0
Eu81 Eu 0.92163 0.22771 0.15085 0.0
C82 C 1.00403 0.24136 0.15074 0.0
C83 C 0.99453 0.21278 0.16031 0.0
C84 C 0.01558 0.20206 0.16299 0.0
C85 C 0.0465 0.21976 0.15615 0.0
C86 C 0.05601 0.24874 0.14699 0.0
C87 C 0.03491 0.25938 0.14427 0.0
C88 C 0.88649 0.20788 0.18483 0.0
C89 C 0.88179 0.15122 0.1499 0.0
C90 C 0.78905 0.16595 0.13456 0.0
Eu91 Eu 0.84896 0.19095 0.1397 0.0
C92 C 0.76035 0.16724 0.13801 0.0
C93 C 0.73671 0.15385 0.12355 0.0
C94 C 0.70802 0.15202 0.12679 0.0
C95 C 0.70228 0.16358 0.1446 0.0
C96 C 0.72638 0.17789 0.15888 0.0
C97 C 0.75521 0.1796 0.15565 0.0
C98 C 0.89131 0.2074 0.10934 0.0
C99 C 0.88442 0.26539 0.15021 0.0
O100 O 0.96008 0.23275 0.13259 0.0
O101 O 0.96952 0.25922 0.16051 0.0
O102 O 0.91673 0.22453 0.18493 0.0
O103 O 0.87731 0.20309 0.16689 0.0
O104 O 0.90934 0.17693 0.14821 0.0
O105 O 0.85519 0.15126 0.14924 0.0
O106 O 0.80158 0.15964 0.14989 0.0
O107 O 0.80964 0.18597 0.12199 0.0
O108 O 0.86532 0.18103 0.10976 0.0
O109 O 0.89303 0.22328 0.12447 0.0
O110 O 0.85793 0.23832 0.14983 0.0
O111 O 0.91218 0.26768 0.14825 0.0
H112 H 0.97064 0.19844 0.16526 0.0
H113 H 1.00759 0.17984 0.1703 0.0
H114 H 0.0795 0.26277 0.1413 0.0
H115 H 0.0425 0.28128 0.1366 0.0
H116 H 0.74024 0.14422 0.10984 0.0
H117 H 0.69023 0.14142 0.11531 0.0
H118 H 0.72267 0.18695 0.17278 0.0
H119 H 0.77318 0.19002 0.16702 0.0
C120 C 0.39895 0.23157 0.43821 0.0
Eu121 Eu 0.36215 0.17244 0.43142 0.0
C122 C 0.42799 0.26058 0.43367 0.0
C123 C 0.4392 0.28448 0.44798 0.0
C124 C 0.46486 0.31357 0.44372 0.0
C125 C 0.47994 0.31939 0.42502 0.0
C126 C 0.46936 0.29502 0.41088 0.0
C127 C 0.4434 0.26579 0.41514 0.0
C128 C 0.33556 0.12895 0.46104 0.0
C129 C 0.39843 0.13555 0.41788 0.0
C130 C 0.28525 0.04165 0.42246 0.0
Eu131 Eu 0.32363 0.10099 0.4185 0.0
C132 C 0.25158 0.02031 0.41905 0.0
C133 C 0.24158 0.99354 0.40724 0.0
C134 C 0.20975 0.97229 0.40491 0.0
C135 C 0.18723 0.97725 0.41451 0.0
C136 C 0.1974 1.00445 0.42601 0.0
C137 C 0.22914 0.02578 0.42818 0.0
C138 C 0.33984 0.13783 0.38532 0.0
C139 C 0.28966 0.14327 0.42174 0.0
O140 O 0.37695 0.22072 0.42456 0.0
O141 O 0.40077 0.20972 0.44812 0.0
O142 O 0.3366 0.15559 0.46151 0.0
O143 O 0.34883 0.12713 0.44547 0.0
O144 O 0.39881 0.16249 0.41893 0.0
O145 O 0.37246 0.10822 0.4199 0.0
O146 O 0.29233 0.06191 0.437 0.0
O147 O 0.30309 0.0535 0.40659 0.0
O148 O 0.32514 0.10758 0.38461 0.0
O149 O 0.34518 0.14631 0.40341 0.0
O150 O 0.28648 0.11506 0.42242 0.0
O151 O 0.31705 0.16897 0.42274 0.0
H152 H 0.42762 0.28086 0.46236 0.0
H153 H 0.47277 0.33165 0.45505 0.0
H154 H 0.48051 0.29886 0.39634 0.0
H155 H 0.43498 0.24757 0.40389 0.0
H156 H 0.2584 0.98886 0.4 0.0
H157 H 0.20281 0.9519 0.39565 0.0
H158 H 0.1809 0.00893 0.43387 0.0
H159 H 0.23602 0.04625 0.43736 0.0
C160 C 0.7723 0.73618 0.14319 0.0
Eu161 Eu 0.7932 0.69842 0.15016 0.0
C162 C 0.78293 0.76949 0.14659 0.0
C163 C 0.78467 0.78167 0.16595 0.0
C164 C 0.79645 0.81365 0.16865 0.0
C165 C 0.80696 0.83397 0.1521 0.0
C166 C 0.80471 0.82165 0.13277 0.0
C167 C 0.79261 0.78976 0.13004 0.0
C168 C 0.81687 0.68885 0.18446 0.0
C169 C 0.86887 0.72967 0.14484 0.0
C170 C 0.84317 0.61688 0.13707 0.0
Eu171 Eu 0.82317 0.65628 0.14046 0.0
C172 C 0.84148 0.58794 0.14454 0.0
C173 C 0.82119 0.5591 0.13553 0.0
C174 C 0.82346 0.53275 0.14001 0.0
C175 C 0.84623 0.5347 0.15348 0.0
C176 C 0.86557 0.56322 0.16315 0.0
C177 C 0.86328 0.58955 0.15869 0.0
C178 C 0.80551 0.67917 0.10898 0.0
C179 C 0.75111 0.62401 0.1552 0.0
O180 O 0.78908 0.73074 0.13036 0.0
O181 O 0.76351 0.71746 0.15882 0.0
O182 O 0.80353 0.70568 0.18357 0.0
O183 O 0.81711 0.67851 0.1672 0.0
O184 O 0.84431 0.73362 0.14365 0.0
O185 O 0.86619 0.70188 0.14604 0.0
O186 O 0.85645 0.64168 0.14855 0.0
O187 O 0.81959 0.61466 0.12677 0.0
O188 O 0.83065 0.67723 0.10879 0.0
O189 O 0.79137 0.66856 0.12522 0.0
O190 O 0.77711 0.62257 0.15486 0.0
O191 O 0.75073 0.65011 0.15143 0.0
H192 H 0.77736 0.76666 0.17901 0.0
H193 H 0.79797 0.82259 0.18372 0.0
H194 H 0.81214 0.83671 0.11972 0.0
H195 H 0.79124 0.78095 0.11494 0.0
H196 H 0.80444 0.55713 0.12434 0.0
H197 H 0.80841 0.51124 0.13213 0.0
H198 H 0.88306 0.56541 0.1738 0.0
H199 H 0.87949 0.61146 0.16575 0.0
C200 C 0.78887 0.16638 0.43421 0.0
Eu201 Eu 0.84882 0.19136 0.4293 0.0
C202 C 0.76021 0.16766 0.43063 0.0
C203 C 0.73651 0.15447 0.44507 0.0
C204 C 0.70782 0.15256 0.44171 0.0
C205 C 0.70215 0.16385 0.42378 0.0
C206 C 0.72631 0.17798 0.40951 0.0
C207 C 0.75513 0.17976 0.41288 0.0
C208 C 0.89067 0.20732 0.45985 0.0
C209 C 0.88444 0.26592 0.41922 0.0
C210 C 0.98105 0.25133 0.42394 0.0
Eu211 Eu 0.92154 0.22808 0.41843 0.0
C212 C 1.00416 0.24209 0.41889 0.0
C213 C 0.99505 0.21363 0.40924 0.0
C214 C 0.01634 0.20316 0.4067 0.0
C215 C 0.04711 0.22099 0.41378 0.0
C216 C 0.05623 0.24986 0.42302 0.0
C217 C 0.0349 0.26025 0.42559 0.0
C218 C 0.88682 0.2086 0.38429 0.0
C219 C 0.88163 0.15161 0.41902 0.0
O220 O 0.80155 0.16005 0.41895 0.0
O221 O 0.80934 0.18642 0.44685 0.0
O222 O 0.86465 0.18099 0.45921 0.0
O223 O 0.89278 0.22346 0.4448 0.0
O224 O 0.85792 0.23887 0.41944 0.0
O225 O 0.91215 0.26811 0.4212 0.0
O226 O 0.95978 0.23293 0.43679 0.0
O227 O 0.96953 0.25975 0.40903 0.0
O228 O 0.91708 0.22512 0.38434 0.0
O229 O 0.87737 0.20382 0.40218 0.0
O230 O 0.90918 0.17727 0.4209 0.0
O231 O 0.85507 0.15172 0.41958 0.0
H232 H 0.74 0.14504 0.45888 0.0
H233 H 0.68999 0.14211 0.45316 0.0
H234 H 0.72264 0.18683 0.39553 0.0
H235 H 0.77315 0.19002 0.40152 0.0
H236 H 0.97128 0.19917 0.40412 0.0
H237 H 1.00864 0.18101 0.39933 0.0
H238 H 0.07958 0.26398 0.4289 0.0
H239 H 0.04218 0.28206 0.43333 0.0
C240 C 0.2348 0.38924 0.63589 0.0
Eu241 Eu 0.17477 0.35421 0.64023 0.0
C242 C 0.26369 0.41882 0.63979 0.0
C243 C 0.28782 0.42879 0.6257 0.0
C244 C 0.31666 0.45521 0.62933 0.0
C245 C 0.32206 0.47235 0.64717 0.0
C246 C 0.29749 0.4629 0.66107 0.0
C247 C 0.2685 0.43618 0.65745 0.0
C248 C 0.13386 0.33037 0.60904 0.0
C249 C 0.13891 0.39204 0.65242 0.0
C250 C 0.04255 0.28157 0.64407 0.0
Eu251 Eu 0.10197 0.317 0.65021 0.0
C252 C 0.01926 0.24917 0.64876 0.0
C253 C 0.02804 0.22974 0.65863 0.0
C254 C 1.00667 0.19798 0.66093 0.0
C255 C 0.97617 0.18511 0.65338 0.0
C256 C 0.96738 0.20492 0.64389 0.0
C257 C 0.98879 0.23665 0.64157 0.0
C258 C 0.13537 0.32675 0.68451 0.0
C259 C 0.14198 0.28089 0.64741 0.0
O260 O 0.22184 0.36974 0.65085 0.0
O261 O 0.21459 0.38948 0.62334 0.0
O262 O 0.15985 0.33002 0.60964 0.0
O263 O 0.13119 0.3433 0.62453 0.0
O264 O 0.1655 0.39172 0.65166 0.0
O265 O 0.11128 0.3666 0.64999 0.0
O266 O 0.06398 0.28458 0.63128 0.0
O267 O 0.05392 0.3011 0.65922 0.0
O268 O 0.10512 0.31158 0.68391 0.0
O269 O 0.14573 0.33535 0.66702 0.0
O270 O 0.11452 0.27907 0.64514 0.0
O271 O 0.16841 0.30767 0.64825 0.0
H272 H 0.28453 0.41573 0.61197 0.0
H273 H 0.33484 0.46216 0.61815 0.0
H274 H 0.30097 0.47562 0.67497 0.0
H275 H 0.25013 0.42882 0.66853 0.0
H276 H 0.05162 0.23901 0.66412 0.0
H277 H 0.0141 0.18347 0.6685 0.0
H278 H 0.94425 0.19574 0.63766 0.0
H279 H 0.98178 0.25125 0.63365 0.0
C280 C 0.25327 0.97536 0.92735 0.0
Eu281 Eu 0.2306 0.91643 0.92001 0.0
C282 C 0.24353 0.99887 0.92455 0.0
C283 C 0.24172 0.00994 0.90545 0.0
C284 C 0.23076 0.03095 0.90337 0.0
C285 C 0.22113 0.04093 0.92032 0.0
C286 C 0.22349 0.03024 0.9394 0.0
C287 C 0.23478 0.00964 0.94149 0.0
C288 C 0.20695 0.8835 0.88556 0.0
C289 C 0.15448 0.87511 0.92319 0.0
C290 C 0.17241 0.78376 0.93368 0.0
Eu291 Eu 0.19648 0.84367 0.92956 0.0
C292 C 0.17322 0.75492 0.92981 0.0
C293 C 0.16091 0.73163 0.94452 0.0
C294 C 0.1581 0.70262 0.94092 0.0
C295 C 0.16763 0.69623 0.9225 0.0
C296 C 0.18105 0.72 0.90797 0.0
C297 C 0.18368 0.74915 0.91155 0.0
C298 C 0.21377 0.88433 0.96098 0.0
C299 C 0.26995 0.88082 0.91665 0.0
O300 O 0.23631 0.95319 0.94012 0.0
O301 O 0.26119 0.9651 0.91145 0.0
O302 O 0.22159 0.91374 0.8864 0.0
O303 O 0.20556 0.87283 0.90293 0.0
O304 O 0.17983 0.90284 0.92531 0.0
O305 O 0.15548 0.84903 0.92221 0.0
O306 O 0.16559 0.79656 0.91877 0.0
O307 O 0.19271 0.80404 0.94628 0.0
O308 O 0.18752 0.85824 0.96045 0.0
O309 O 0.22897 0.88716 0.94527 0.0
O310 O 0.24341 0.8539 0.91773 0.0
O311 O 0.27155 0.90817 0.91916 0.0
H312 H 0.24832 1.00212 0.8921 0.0
H313 H 0.22915 0.03884 0.88849 0.0
H314 H 0.21675 0.03795 0.95275 0.0
H315 H 0.23623 1.00175 0.95642 0.0
H316 H 0.15272 0.73563 0.9587 0.0
H317 H 0.14821 0.68504 0.95256 0.0
H318 H 0.18856 0.71573 0.89362 0.0
H319 H 0.19322 0.76684 0.89997 0.0
C320 C 0.62281 0.84336 0.63554 0.0
Eu321 Eu 0.65984 0.82079 0.64035 0.0
C322 C 0.59341 0.84254 0.64032 0.0
C323 C 0.58005 0.85215 0.62546 0.0
C324 C 0.55407 0.85506 0.62977 0.0
C325 C 0.54081 0.84835 0.64908 0.0
C326 C 0.55355 0.83761 0.66382 0.0
C327 C 0.57981 0.83486 0.6595 0.0
C328 C 0.68388 0.80342 0.60936 0.0
C329 C 0.62496 0.74805 0.65399 0.0
C330 C 0.73618 0.7658 0.64448 0.0
Eu331 Eu 0.70001 0.78888 0.65084 0.0
C332 C 0.76866 0.77453 0.64848 0.0
C333 C 0.78846 0.80166 0.65929 0.0
C334 C 0.82027 0.81167 0.66091 0.0
C335 C 0.83277 0.79476 0.65165 0.0
C336 C 0.81254 0.76727 0.64116 0.0
C337 C 0.78082 0.7573 0.6396 0.0
C338 C 0.6896 0.81241 0.68494 0.0
C339 C 0.73331 0.86475 0.64649 0.0
O340 O 0.64432 0.85295 0.64949 0.0
O341 O 0.62167 0.82121 0.6242 0.0
O342 O 0.68297 0.8291 0.60937 0.0
O343 O 0.67201 0.78867 0.62526 0.0
O344 O 0.62395 0.77425 0.65312 0.0
O345 O 0.65109 0.74722 0.65128 0.0
O346 O 0.73276 0.78404 0.63179 0.0
O347 O 0.71724 0.7579 0.65995 0.0
O348 O 0.7059 0.79847 0.68436 0.0
O349 O 0.68022 0.81329 0.66749 0.0
O350 O 0.73657 0.8398 0.64524 0.0
O351 O 0.70578 0.86283 0.64702 0.0
H352 H 0.59022 0.85819 0.61057 0.0
H353 H 0.54448 0.86281 0.61798 0.0
H354 H 0.54386 0.83231 0.67884 0.0
H355 H 0.58985 0.82745 0.67121 0.0
H356 H 0.77944 0.81545 0.66605 0.0
H357 H 0.83509 0.83275 0.66925 0.0
H358 H 0.82136 0.75396 0.63352 0.0
H359 H 0.76593 0.7366 0.63091 0.0
C360 C 0.0425 0.28056 0.92608 0.0
Eu361 Eu 0.10156 0.31691 0.91922 0.0
C362 C 0.01935 0.24804 0.92161 0.0
C363 C 0.02819 0.22855 0.91185 0.0
C364 C 1.00684 0.19677 0.90961 0.0
C365 C 0.97631 0.18397 0.91711 0.0
C366 C 0.96748 0.20384 0.92651 0.0
C367 C 0.98886 0.23558 0.92877 0.0
C368 C 0.13423 0.32656 0.88453 0.0
C369 C 0.14415 0.28365 0.92248 0.0
C370 C 0.23434 0.39491 0.9309 0.0
Eu371 Eu 0.17444 0.35718 0.9282 0.0
C372 C 0.26216 0.42325 0.92326 0.0
C373 C 0.26989 0.45301 0.93029 0.0
C374 C 0.29883 0.47896 0.92568 0.0
C375 C 0.32075 0.47567 0.91406 0.0
C376 C 0.31242 0.44611 0.90634 0.0
C377 C 0.28353 0.42022 0.91093 0.0
C378 C 0.13461 0.3339 0.96008 0.0
C379 C 0.13588 0.39164 0.91525 0.0
O380 O 0.0645 0.28403 0.93851 0.0
O381 O 0.05309 0.29994 0.91083 0.0
O382 O 0.10403 0.3103 0.88556 0.0
O383 O 0.14495 0.33624 0.90182 0.0
O384 O 0.1162 0.28066 0.92492 0.0
O385 O 0.1698 0.31101 0.92097 0.0
O386 O 0.22171 0.37014 0.91937 0.0
O387 O 0.21382 0.39804 0.94157 0.0
O388 O 0.16147 0.33534 0.95964 0.0
O389 O 0.13095 0.34532 0.94424 0.0
O390 O 0.16295 0.39227 0.91502 0.0
O391 O 0.10907 0.36587 0.91903 0.0
H392 H 0.05178 0.2378 0.90637 0.0
H393 H 0.01428 0.1822 0.90211 0.0
H394 H 0.94432 0.1947 0.93271 0.0
H395 H 0.98181 0.25024 0.93659 0.0
H396 H 0.25415 0.45614 0.94003 0.0
H397 H 0.30457 0.50132 0.93203 0.0
H398 H 0.32854 0.44282 0.89709 0.0
H399 H 0.27844 0.39758 0.90544 0.0
C400 C 0.17778 0.7841 0.6378 0.0
Eu401 Eu 0.19855 0.84367 0.64087 0.0
C402 C 0.17903 0.75667 0.64537 0.0
C403 C 0.2018 0.74989 0.63845 0.0
C404 C 0.19959 0.72128 0.6429 0.0
C405 C 0.17447 0.69874 0.65426 0.0
C406 C 0.15249 0.70613 0.6619 0.0
C407 C 0.1547 0.7347 0.65745 0.0
C408 C 0.21695 0.88378 0.60915 0.0
C409 C 0.27029 0.8826 0.65625 0.0
C410 C 0.25116 0.97466 0.64296 0.0
Eu411 Eu 0.22939 0.91593 0.65023 0.0
C412 C 0.24085 0.99764 0.64598 0.0
C413 C 0.23703 1.00693 0.66524 0.0
C414 C 0.22526 0.02722 0.66749 0.0
C415 C 0.21678 0.03821 0.65054 0.0
C416 C 0.22114 0.02931 0.63132 0.0
C417 C 0.23325 0.00944 0.62907 0.0
C418 C 0.20484 0.88312 0.68458 0.0
C419 C 0.1537 0.87242 0.64441 0.0
O420 O 0.16481 0.796 0.64924 0.0
O421 O 0.20146 0.80515 0.62741 0.0
O422 O 0.19159 0.8569 0.60907 0.0
O423 O 0.23101 0.88748 0.62546 0.0
O424 O 0.24402 0.85543 0.65581 0.0
O425 O 0.27136 0.9093 0.65208 0.0
O426 O 0.23438 0.95243 0.63014 0.0
O427 O 0.25941 0.96463 0.65879 0.0
O428 O 0.21861 0.9133 0.68357 0.0
O429 O 0.20463 0.87233 0.6674 0.0
O430 O 0.17854 0.90073 0.64335 0.0
O431 O 0.15587 0.84705 0.64588 0.0
H432 H 0.22064 0.76611 0.62889 0.0
H433 H 0.21676 0.71626 0.6366 0.0
H434 H 0.13312 0.68949 0.67095 0.0
H435 H 0.13661 0.73907 0.66285 0.0
H436 H 0.24264 0.9982 0.67857 0.0
H437 H 0.22208 0.03373 0.68247 0.0
H438 H 0.21527 0.03783 0.618 0.0
H439 H 0.23619 1.00281 0.61405 0.0
C440 C 0.73809 0.76637 0.92675 0.0
Eu441 Eu 0.70089 0.78793 0.91962 0.0
C442 C 0.77149 0.77679 0.92389 0.0
C443 C 0.78434 0.77853 0.90476 0.0
C444 C 0.81637 0.79 0.90258 0.0
C445 C 0.8361 0.80021 0.91945 0.0
C446 C 0.82311 0.79796 0.93855 0.0
C447 C 0.79116 0.78618 0.94075 0.0
C448 C 0.69128 0.81173 0.88539 0.0
C449 C 0.73337 0.86375 0.9242 0.0
C450 C 0.62119 0.8401 0.93295 0.0
Eu451 Eu 0.65991 0.81924 0.92952 0.0
C452 C 0.59276 0.83918 0.92512 0.0
C453 C 0.56333 0.81841 0.93322 0.0
C454 C 0.53733 0.82113 0.92835 0.0
C455 C 0.54023 0.84483 0.91539 0.0
C456 C 0.56939 0.86474 0.90664 0.0
C457 C 0.59536 0.86201 0.91149 0.0
C458 C 0.68276 0.80142 0.96091 0.0
C459 C 0.62643 0.74709 0.91456 0.0
O460 O 0.73236 0.78284 0.93966 0.0
O461 O 0.71995 0.75829 0.91084 0.0
O462 O 0.70775 0.79797 0.88614 0.0
O463 O 0.68137 0.8123 0.90273 0.0
O464 O 0.73684 0.83894 0.92558 0.0
O465 O 0.70577 0.8616 0.92327 0.0
O466 O 0.64643 0.85351 0.92188 0.0
O467 O 0.61821 0.81596 0.94292 0.0
O468 O 0.68124 0.82678 0.96106 0.0
O469 O 0.67173 0.78711 0.94476 0.0
O470 O 0.62558 0.77339 0.91518 0.0
O471 O 0.65225 0.74604 0.91812 0.0
H472 H 0.76979 0.77142 0.89147 0.0
H473 H 0.82583 0.7915 0.88768 0.0
H474 H 0.83767 0.80514 0.95185 0.0
H475 H 0.78184 0.78478 0.9557 0.0
H476 H 0.56057 0.80085 0.94399 0.0
H477 H 0.5153 0.8056 0.93552 0.0
H478 H 0.57233 0.88296 0.89639 0.0
H479 H 0.61773 0.8786 0.90513 0.0
C480 C 0.05873 0.17629 0.15385 0.0
C481 C 0.06854 0.20772 0.15796 0.0
C482 C 0.07982 0.16533 0.15471 0.0
C483 C 0.15716 0.18478 0.17505 0.0
H484 H 0.15742 0.13207 0.13202 0.0
C485 C 0.26431 0.17423 0.15706 0.0
C486 C 0.26063 0.14503 0.15202 0.0
C487 C 0.23851 0.17809 0.15943 0.0
C488 C 0.15732 0.14633 0.14433 0.0
H489 H 0.10811 0.25203 0.16667 0.0
H490 H 0.14492 0.23311 0.16786 0.0
H491 H 0.1167 0.14617 0.13314 0.0
H492 H 0.22667 0.09682 0.14564 0.0
H493 H 0.18123 0.10373 0.14965 0.0
H494 H 0.19817 0.18563 0.18595 0.0
C495 C 0.12086 0.21681 0.16414 0.0
C496 C 0.13401 0.15445 0.14497 0.0
C497 C 0.09983 0.22777 0.16324 0.0
C498 C 0.23032 0.11962 0.14952 0.0
C499 C 0.20433 0.1236 0.15173 0.0
C500 C 0.18042 0.17673 0.17438 0.0
C501 C 0.11119 0.18549 0.1598 0.0
C502 C 0.13407 0.17435 0.1601 0.0
C503 C 0.20822 0.15292 0.15676 0.0
C504 C 0.1812 0.15801 0.15876 0.0
H505 H 0.03487 0.16028 0.14953 0.0
H506 H 0.07154 0.14104 0.15142 0.0
H507 H 0.15751 0.19954 0.18717 0.0
H508 H 0.28723 0.19436 0.1592 0.0
H509 H 0.24238 0.20109 0.16299 0.0
C510 C 0.1307 0.96281 0.4126 0.0
C511 C 0.1534 0.95366 0.41325 0.0
C512 C 0.09893 0.94055 0.41249 0.0
C513 C 0.04422 0.85781 0.40129 0.0
H514 H 0.98821 0.86685 0.43783 0.0
C515 C 0.9257 0.75418 0.42191 0.0
C516 C 0.89964 0.75828 0.42314 0.0
C517 C 0.9556 0.77965 0.41979 0.0
C518 C 1.00344 0.86422 0.42732 0.0
H519 H 0.16014 0.91367 0.41438 0.0
H520 H 0.10496 0.87505 0.41376 0.0
H521 H 0.0426 0.90844 0.4353 0.0
H522 H 0.88487 0.79274 0.42349 0.0
H523 H 0.93754 0.83754 0.41977 0.0
H524 H 1.00538 0.81359 0.39342 0.0
C525 C 0.11176 0.89947 0.41317 0.0
C526 C 0.03459 0.88802 0.42588 0.0
C527 C 0.14346 0.92167 0.41346 0.0
C528 C 0.9044 0.78873 0.42258 0.0
C529 C 0.93456 0.81439 0.4205 0.0
C530 C 0.01318 0.83415 0.40268 0.0
C531 C 0.08912 0.90863 0.41281 0.0
C532 C 0.05546 0.88476 0.41314 0.0
C533 C 0.96045 0.81004 0.41882 0.0
C534 C 0.99257 0.83673 0.41603 0.0
H535 H 0.13743 0.9872 0.41211 0.0
H536 H 0.08204 0.94832 0.41198 0.0
H537 H 0.05955 0.85489 0.39103 0.0
H538 H 0.92311 0.73118 0.42241 0.0
H539 H 0.97505 0.77548 0.41901 0.0
C540 C 0.85344 0.09608 0.16149 0.0
C541 C 0.88024 0.12095 0.15289 0.0
C542 C 0.85087 0.06693 0.16368 0.0
C543 C 0.87547 0.01653 0.14096 0.0
H544 H 0.84208 0.96767 0.1895 0.0
C545 C 0.84798 0.8891 0.14504 0.0
C546 C 0.82021 0.86795 0.1548 0.0
C547 C 0.85967 0.92115 0.14665 0.0
C548 C 0.85117 0.98087 0.17577 0.0
H549 H 0.92568 0.13497 0.14021 0.0
H550 H 0.92079 0.0834 0.14363 0.0
H551 H 0.85508 0.02206 0.18906 0.0
H552 H 0.78306 0.86366 0.17408 0.0
H553 H 0.80286 0.91952 0.1765 0.0
H554 H 0.8702 0.97518 0.12728 0.0
C555 C 0.90192 0.08675 0.14875 0.0
C556 C 0.8588 0.01207 0.17558 0.0
C557 C 0.90474 0.1162 0.14685 0.0
C558 C 0.80467 0.87948 0.16655 0.0
C559 C 0.81616 0.91153 0.16798 0.0
C560 C 0.86751 0.98522 0.14106 0.0
C561 C 0.87486 0.06183 0.15711 0.0
C562 C 0.87051 0.03004 0.15808 0.0
C563 C 0.84366 0.9328 0.15789 0.0
C564 C 0.85472 0.96681 0.15836 0.0
H565 H 0.83427 0.09904 0.16646 0.0
H566 H 0.82963 0.04809 0.16998 0.0
H567 H 0.88412 0.02977 0.12719 0.0
H568 H 0.86067 0.88082 0.13612 0.0
H569 H 0.88122 0.93678 0.13901 0.0
C570 C 0.26575 0.17624 0.41476 0.0
C571 C 0.26182 0.1468 0.41933 0.0
C572 C 0.2401 0.18034 0.41244 0.0
C573 C 0.15844 0.14833 0.42665 0.0
H574 H 0.15981 0.20236 0.38407 0.0
C575 C 0.05968 0.17776 0.41615 0.0
C576 C 0.06938 0.20918 0.41217 0.0
C577 C 0.08097 0.16702 0.41551 0.0
C578 C 0.15914 0.18739 0.39612 0.0
H579 H 0.22755 0.09846 0.42505 0.0
H580 H 0.18237 0.10579 0.42112 0.0
H581 H 0.20058 0.18865 0.38568 0.0
H582 H 0.10899 0.25373 0.40392 0.0
H583 H 0.14614 0.23523 0.40315 0.0
H584 H 0.11738 0.14774 0.43739 0.0
C585 C 0.20556 0.12565 0.41935 0.0
C586 C 0.18246 0.17945 0.39701 0.0
C587 C 0.2314 0.12144 0.42152 0.0
C588 C 0.10077 0.22947 0.40725 0.0
C589 C 0.12201 0.21875 0.40658 0.0
C590 C 0.13507 0.15635 0.42579 0.0
C591 C 0.2097 0.15517 0.41469 0.0
C592 C 0.18279 0.1604 0.41252 0.0
C593 C 0.11244 0.18743 0.4108 0.0
C594 C 0.13552 0.17652 0.41075 0.0
H595 H 0.28876 0.19634 0.4129 0.0
H596 H 0.24414 0.20347 0.40918 0.0
H597 H 0.15818 0.13379 0.43886 0.0
H598 H 0.03574 0.16156 0.4202 0.0
H599 H 0.07276 0.14272 0.41869 0.0
C600 C 0.14553 0.91835 0.15739 0.0
C601 C 0.15626 0.95016 0.1542 0.0
C602 C 0.11379 0.89648 0.15623 0.0
C603 C 0.03479 0.88587 0.1583 0.0
H604 H 0.01335 0.81099 0.12798 0.0
C605 C 0.90642 0.78771 0.1432 0.0
C606 C 0.90086 0.75709 0.14517 0.0
C607 C 0.93699 0.8131 0.1436 0.0
C608 C 0.01889 0.83162 0.13665 0.0
H609 H 0.14165 0.98387 0.14779 0.0
H610 H 0.08608 0.94556 0.14609 0.0
H611 H 0.06762 0.85158 0.13089 0.0
H612 H 0.92326 0.7294 0.14949 0.0
H613 H 0.97573 0.77312 0.15044 0.0
H614 H 0.98588 0.86546 0.16435 0.0
C615 C 0.10238 0.93768 0.1495 0.0
C616 C 0.05004 0.85489 0.13832 0.0
C617 C 0.13424 0.95962 0.15055 0.0
C618 C 0.92647 0.75253 0.14771 0.0
C619 C 0.95676 0.77771 0.14814 0.0
C620 C 1.00348 0.86239 0.15673 0.0
C621 C 0.09189 0.9058 0.15195 0.0
C622 C 0.05844 0.88205 0.14944 0.0
C623 C 0.96253 0.80831 0.14594 0.0
C624 C 0.99524 0.83471 0.14619 0.0
H625 H 0.1617 0.91027 0.16067 0.0
H626 H 0.10638 0.87214 0.15861 0.0
H627 H 0.04056 0.90655 0.16699 0.0
H628 H 0.88725 0.79207 0.14126 0.0
H629 H 0.94065 0.83639 0.1418 0.0
C630 C 0.80349 0.87935 0.40287 0.0
C631 C 0.81881 0.86781 0.41478 0.0
C632 C 0.81503 0.91141 0.40141 0.0
C633 C 0.86618 0.9852 0.42841 0.0
H634 H 0.85465 0.02196 0.38014 0.0
C635 C 0.90426 0.11635 0.42232 0.0
C636 C 0.88001 0.12129 0.41604 0.0
C637 C 0.90126 0.0868 0.42052 0.0
C638 C 0.85811 0.012 0.39369 0.0
H639 H 0.85895 0.88066 0.43375 0.0
H640 H 0.87961 0.93663 0.43082 0.0
H641 H 0.84136 0.96749 0.37987 0.0
H642 H 0.83431 0.09963 0.40211 0.0
H643 H 0.82937 0.04851 0.39876 0.0
H644 H 0.88285 0.02987 0.44218 0.0
C645 C 0.85818 0.92101 0.42306 0.0
C646 C 0.85031 0.98074 0.39361 0.0
C647 C 0.84642 0.88895 0.4247 0.0
C648 C 0.8533 0.09651 0.40727 0.0
C649 C 0.85056 0.06727 0.40518 0.0
C650 C 0.87431 0.01657 0.42841 0.0
C651 C 0.8424 0.93268 0.41164 0.0
C652 C 0.85355 0.96671 0.41111 0.0
C653 C 0.87427 0.06197 0.41202 0.0
C654 C 0.86969 0.03007 0.41119 0.0
H655 H 0.782 0.86354 0.39522 0.0
H656 H 0.80191 0.91941 0.39276 0.0
H657 H 0.86863 0.9752 0.44226 0.0
H658 H 0.92512 0.13503 0.42911 0.0
H659 H 0.91993 0.0833 0.42585 0.0
C660 C 0.17666 0.05288 0.64182 0.0
C661 C 0.20336 0.05888 0.65272 0.0
C662 C 0.16484 0.07318 0.64302 0.0
C663 C 0.1704 0.13971 0.67268 0.0
H664 H 0.14226 0.15845 0.623 0.0
C665 C 0.16974 0.25348 0.65892 0.0
C666 C 0.14358 0.25208 0.64968 0.0
C667 C 0.17217 0.22681 0.66086 0.0
C668 C 0.14956 0.15308 0.63705 0.0
H669 H 0.23845 0.09054 0.67358 0.0
H670 H 0.21849 0.12654 0.67528 0.0
H671 H 0.15614 0.11774 0.62346 0.0
H672 H 0.09919 0.22148 0.63546 0.0
H673 H 0.10392 0.17462 0.63841 0.0
H674 H 0.16523 0.17627 0.68593 0.0
C675 C 0.20609 0.10576 0.66618 0.0
C676 C 0.15749 0.1297 0.63736 0.0
C677 C 0.21767 0.08524 0.66515 0.0
C678 C 0.11964 0.22325 0.64261 0.0
C679 C 0.12236 0.19652 0.64426 0.0
C680 C 0.16282 0.16331 0.67229 0.0
C681 C 0.17967 0.10016 0.65498 0.0
C682 C 0.16857 0.12309 0.6551 0.0
C683 C 0.14871 0.19813 0.65339 0.0
C684 C 0.15286 0.17059 0.65439 0.0
H685 H 0.16491 0.03244 0.63234 0.0
H686 H 0.14412 0.06774 0.6345 0.0
H687 H 0.17811 0.13481 0.68672 0.0
H688 H 0.18846 0.27527 0.66471 0.0
H689 H 0.19288 0.22879 0.66777 0.0
C690 C 0.09885 0.84593 0.91254 0.0
C691 C 0.12365 0.87276 0.92119 0.0
C692 C 0.06948 0.84293 0.91065 0.0
C693 C 0.01821 0.86674 0.93334 0.0
H694 H 0.97069 0.83445 0.88418 0.0
C695 C 0.89119 0.84056 0.92743 0.0
C696 C 0.87015 0.81308 0.91732 0.0
C697 C 0.92324 0.85187 0.92637 0.0
C698 C 0.98349 0.84321 0.89809 0.0
H699 H 0.13711 0.91766 0.93451 0.0
H700 H 0.08514 0.91204 0.93159 0.0
H701 H 0.025 0.84726 0.88524 0.0
H702 H 0.86612 0.77605 0.89804 0.0
H703 H 0.92196 0.79522 0.89655 0.0
H704 H 0.97651 0.86144 0.94654 0.0
C705 C 0.08876 0.89347 0.92619 0.0
C706 C 0.01466 0.85072 0.89863 0.0
C707 C 0.11844 0.89671 0.9278 0.0
C708 C 0.88183 0.79745 0.90582 0.0
C709 C 0.91388 0.80856 0.90492 0.0
C710 C 0.98691 0.85891 0.93288 0.0
C711 C 0.06403 0.86652 0.91757 0.0
C712 C 0.03218 0.86206 0.91636 0.0
C713 C 0.93501 0.83579 0.91534 0.0
C714 C 0.96898 0.84654 0.91534 0.0
H715 H 0.10209 0.82712 0.90713 0.0
H716 H 0.05079 0.82176 0.90417 0.0
H717 H 0.03108 0.87513 0.94727 0.0
H718 H 0.88281 0.85332 0.93618 0.0
H719 H 0.93878 0.87321 0.93425 0.0
C720 C 0.75734 0.92207 0.65182 0.0
C721 C 0.76121 0.89629 0.64801 0.0
C722 C 0.78302 0.95185 0.65383 0.0
C723 C 0.865 1.00104 0.64036 0.0
H724 H 0.86276 0.05417 0.68239 0.0
C725 C 0.96361 0.1293 0.65116 0.0
C726 C 0.95382 0.15105 0.65482 0.0
C727 C 0.94229 0.09729 0.65171 0.0
C728 C 0.86368 0.03974 0.67049 0.0
H729 H 0.79544 0.88187 0.64317 0.0
H730 H 0.84069 0.93447 0.64653 0.0
H731 H 0.82197 0.99973 0.68073 0.0
H732 H 0.914 0.15607 0.66239 0.0
H733 H 0.87681 0.10045 0.663 0.0
H734 H 0.90636 0.04136 0.62982 0.0
C735 C 0.8175 0.93128 0.64796 0.0
C736 C 0.84034 0.00851 0.66957 0.0
C737 C 0.79162 0.9012 0.64609 0.0
C738 C 0.92229 0.14 0.65931 0.0
C739 C 0.90102 0.10805 0.65989 0.0
C740 C 0.88839 0.03242 0.64125 0.0
C741 C 0.8134 0.95687 0.65203 0.0
C742 C 0.84032 0.98896 0.65424 0.0
C743 C 0.9107 0.08627 0.65602 0.0
C744 C 0.88761 0.0523 0.65608 0.0
H745 H 0.73436 0.91936 0.65339 0.0
H746 H 0.77902 0.97111 0.6566 0.0
H747 H 0.8655 0.98661 0.62831 0.0
H748 H 0.98767 0.137 0.64744 0.0
H749 H 0.95057 0.08116 0.64881 0.0
C750 C 0.12364 0.22628 0.92757 0.0
C751 C 0.14721 0.25552 0.9208 0.0
C752 C 0.12754 0.2002 0.92628 0.0
C753 C 0.17141 0.16954 0.89926 0.0
H754 H 0.16083 0.12135 0.94741 0.0
C755 C 0.22431 0.08959 0.90668 0.0
C756 C 0.20863 0.06245 0.9183 0.0
C757 C 0.21346 0.11075 0.9058 0.0
C758 C 0.16335 0.1341 0.93368 0.0
H759 H 0.19289 0.28005 0.9068 0.0
H760 H 0.19937 0.23473 0.90437 0.0
H761 H 0.14675 0.16194 0.94781 0.0
H762 H 0.16857 0.03542 0.9374 0.0
H763 H 0.14912 0.07182 0.93548 0.0
H764 H 0.18794 0.14187 0.88505 0.0
C765 C 0.17799 0.23192 0.91075 0.0
C766 C 0.1553 0.15741 0.93397 0.0
C767 C 0.17434 0.25796 0.91232 0.0
C768 C 0.18138 0.05642 0.92856 0.0
C769 C 0.17033 0.07737 0.92751 0.0
C770 C 0.17913 0.14602 0.8989 0.0
C771 C 0.15478 0.20282 0.91782 0.0
C772 C 0.15984 0.17577 0.91688 0.0
C773 C 0.18644 0.10505 0.91634 0.0
C774 C 0.17581 0.12838 0.91622 0.0
H775 H 0.10246 0.22366 0.93414 0.0
H776 H 0.10923 0.17796 0.93178 0.0
H777 H 0.17478 0.18311 0.88579 0.0
H778 H 0.24553 0.09496 0.89877 0.0
H779 H 0.22684 0.13201 0.89732 0.0
C780 C 0.0959 0.83814 0.6452 0.0
C781 C 0.12191 0.86834 0.64421 0.0
C782 C 0.06577 0.83346 0.64525 0.0
C783 C 0.01945 0.87097 0.65607 0.0
H784 H 0.9564 0.79997 0.62641 0.0
C785 C 0.88877 0.838 0.64998 0.0
C786 C 0.86685 0.80612 0.65218 0.0
C787 C 0.92069 0.84822 0.6489 0.0
C788 C 0.97369 0.81977 0.63487 0.0
H789 H 0.13639 0.91743 0.64261 0.0
H790 H 0.08324 0.90912 0.64255 0.0
H791 H 1.01076 0.81381 0.62367 0.0
H792 H 0.86159 0.7603 0.65606 0.0
H793 H 0.91702 0.77805 0.65391 0.0
H794 H 0.98196 0.8767 0.66726 0.0
C795 C 0.08649 0.88912 0.6434 0.0
C796 C 1.00486 0.82773 0.6333 0.0
C797 C 0.1169 0.89386 0.64333 0.0
C798 C 0.87771 0.7849 0.6539 0.0
C799 C 0.90949 0.79507 0.65269 0.0
C800 C 0.98811 0.86306 0.65755 0.0
C801 C 0.06058 0.85878 0.64423 0.0
C802 C 0.02806 0.85294 0.64425 0.0
C803 C 0.93131 0.82676 0.64986 0.0
C804 C 0.96485 0.83692 0.64731 0.0
H805 H 0.09865 0.81783 0.64604 0.0
H806 H 0.04645 0.80983 0.64636 0.0
H807 H 0.03672 0.89042 0.66476 0.0
H808 H 0.88125 0.85496 0.6484 0.0
H809 H 0.93696 0.87276 0.64664 0.0
C810 C 0.96366 0.12817 0.9195 0.0
C811 C 0.95394 0.14993 0.91569 0.0
C812 C 0.94229 0.09618 0.91901 0.0
C813 C 0.86376 0.03858 0.90021 0.0
H814 H 0.86515 0.98596 0.94282 0.0
C815 C 0.75724 0.92105 0.91891 0.0
C816 C 0.76117 0.89536 0.92287 0.0
C817 C 0.7829 0.95086 0.91694 0.0
C818 C 0.86476 1.00025 0.93065 0.0
H819 H 0.91425 0.155 0.9079 0.0
H820 H 0.87697 0.0994 0.90738 0.0
H821 H 0.90611 0.04064 0.94113 0.0
H822 H 0.79545 0.88113 0.92811 0.0
H823 H 0.84061 0.93375 0.92483 0.0
H824 H 0.82206 0.99849 0.89003 0.0
C825 C 0.90115 0.10699 0.91057 0.0
C826 C 0.88821 0.03158 0.92967 0.0
C827 C 0.92247 0.13892 0.91109 0.0
C828 C 0.79159 0.90039 0.92506 0.0
C829 C 0.81742 0.93048 0.92323 0.0
C830 C 0.84035 1.00739 0.90123 0.0
C831 C 0.91074 0.0852 0.91461 0.0
C832 C 0.8876 0.05127 0.91467 0.0
C833 C 0.81328 0.95597 0.91895 0.0
C834 C 0.84019 0.98804 0.91671 0.0
H835 H 0.98768 0.13587 0.9233 0.0
H836 H 0.9505 0.08004 0.92204 0.0
H837 H 0.86297 0.05287 0.88819 0.0
H838 H 0.73425 0.91823 0.91714 0.0
H839 H 0.77887 0.97005 0.91402 0.0
C840 C 0.371 0.15002 0.35434 0.0
C841 C 0.35339 0.15732 0.36739 0.0
C842 C 0.3781 0.16246 0.33501 0.0
C843 C 0.34346 0.18577 0.29557 0.0
H844 H 0.41707 0.19925 0.26657 0.0
C845 C 0.34457 0.17719 0.2087 0.0
C846 C 0.35222 0.15455 0.20305 0.0
C847 C 0.3513 0.18971 0.22823 0.0
C848 C 0.39649 0.19592 0.27444 0.0
H849 H 0.33013 0.18407 0.37097 0.0
H850 H 0.34227 0.20588 0.33675 0.0
H851 H 0.41752 0.20025 0.30324 0.0
H852 H 0.37419 0.12845 0.21257 0.0
H853 H 0.38683 0.15081 0.24615 0.0
H854 H 0.3219 0.17973 0.26673 0.0
C855 C 0.3509 0.19075 0.3416 0.0
C856 C 0.39671 0.19644 0.29545 0.0
C857 C 0.34422 0.17858 0.3612 0.0
C858 C 0.36835 0.14611 0.21659 0.0
C859 C 0.37565 0.15902 0.2358 0.0
C860 C 0.34327 0.18536 0.27451 0.0
C861 C 0.36723 0.18212 0.3281 0.0
C862 C 0.36972 0.18985 0.30628 0.0
C863 C 0.36637 0.18022 0.24212 0.0
C864 C 0.3693 0.18894 0.26375 0.0
H865 H 0.37795 0.13333 0.35876 0.0
H866 H 0.39026 0.15486 0.32502 0.0
H867 H 0.3222 0.18042 0.3034 0.0
H868 H 0.33168 0.18364 0.19854 0.0
H869 H 0.34384 0.20597 0.23269 0.0
C870 C 0.8261 0.6553 0.36139 0.0
C871 C 0.82918 0.68418 0.36655 0.0
C872 C 0.83379 0.65038 0.3419 0.0
C873 C 0.87562 0.69182 0.29543 0.0
H874 H 0.80501 0.6272 0.26641 0.0
C875 C 0.84272 0.70864 0.21715 0.0
C876 C 0.83011 0.68433 0.2031 0.0
C877 C 0.85084 0.70398 0.23633 0.0
C878 C 0.82534 0.64481 0.27429 0.0
H879 H 0.84429 0.73094 0.35615 0.0
H880 H 0.85859 0.72285 0.32271 0.0
H881 H 0.8048 0.62717 0.30317 0.0
H882 H 0.81682 0.63621 0.1977 0.0
H883 H 0.83024 0.62755 0.2319 0.0
H884 H 0.89519 0.71074 0.26664 0.0
C885 C 0.85014 0.70387 0.33339 0.0
C886 C 0.82521 0.6448 0.29537 0.0
C887 C 0.8418 0.70849 0.35253 0.0
C888 C 0.82683 0.65539 0.20828 0.0
C889 C 0.83431 0.65043 0.22781 0.0
C890 C 0.87574 0.69184 0.27444 0.0
C891 C 0.84545 0.67457 0.32761 0.0
C892 C 0.84963 0.66925 0.30611 0.0
C893 C 0.84595 0.67463 0.24212 0.0
C894 C 0.84988 0.66929 0.26365 0.0
H895 H 0.81608 0.63614 0.37196 0.0
H896 H 0.82987 0.62754 0.33782 0.0
H897 H 0.89496 0.71071 0.30331 0.0
H898 H 0.84537 0.73114 0.21351 0.0
H899 H 0.85927 0.72298 0.24701 0.0
C900 C 0.84388 0.17193 0.20826 0.0
C901 C 0.86742 0.20202 0.20299 0.0
C902 C 0.83092 0.16611 0.22767 0.0
C903 C 0.82576 0.20548 0.27407 0.0
H904 H 0.8394 0.14545 0.30291 0.0
C905 C 0.87735 0.22686 0.35208 0.0
C906 C 0.86801 0.20265 0.36601 0.0
C907 C 0.86397 0.22113 0.33303 0.0
C908 C 0.83455 0.16169 0.29508 0.0
H909 H 0.89464 0.24977 0.21302 0.0
H910 H 0.87163 0.24004 0.24634 0.0
H911 H 0.83923 0.14529 0.26618 0.0
H912 H 0.83686 0.15358 0.37141 0.0
H913 H 0.81377 0.1431 0.33745 0.0
H914 H 0.82336 0.22334 0.30292 0.0
C915 C 0.86303 0.22082 0.23582 0.0
C916 C 0.83444 0.16161 0.27402 0.0
C917 C 0.87635 0.22642 0.21675 0.0
C918 C 0.84408 0.17265 0.36091 0.0
C919 C 0.83109 0.16668 0.34151 0.0
C920 C 0.8259 0.20558 0.29507 0.0
C921 C 0.84088 0.19048 0.24177 0.0
C922 C 0.83171 0.18458 0.26332 0.0
C923 C 0.84136 0.19085 0.32727 0.0
C924 C 0.83194 0.18476 0.30578 0.0
H925 H 0.83699 0.15272 0.1979 0.0
H926 H 0.81394 0.14249 0.23187 0.0
H927 H 0.8231 0.22315 0.26624 0.0
H928 H 0.89592 0.25014 0.35568 0.0
H929 H 0.87279 0.24018 0.32238 0.0
C930 C 0.14089 0.30622 0.71701 0.0
C931 C 0.15327 0.3305 0.70296 0.0
C932 C 0.15386 0.31044 0.7361 0.0
C933 C 0.18967 0.36952 0.77393 0.0
H934 H 0.18997 0.30193 0.80299 0.0
C935 C 0.17867 0.35873 0.86099 0.0
C936 C 0.15186 0.33049 0.86589 0.0
C937 C 0.19151 0.36331 0.84158 0.0
C938 C 0.19052 0.32129 0.7951 0.0
H939 H 0.18952 0.37801 0.69743 0.0
H940 H 0.21195 0.38594 0.73149 0.0
H941 H 0.19049 0.30195 0.76632 0.0
H942 H 0.11859 0.28442 0.85513 0.0
H943 H 0.14131 0.29187 0.82183 0.0
H944 H 0.18741 0.38764 0.80278 0.0
C945 C 0.19247 0.36342 0.72747 0.0
C946 C 0.19081 0.3213 0.77411 0.0
C947 C 0.17981 0.35887 0.70802 0.0
C948 C 0.13929 0.30639 0.85169 0.0
C949 C 0.15245 0.31063 0.83265 0.0
C950 C 0.18941 0.36952 0.795 0.0
C951 C 0.17921 0.33932 0.7418 0.0
C952 C 0.18864 0.34448 0.7633 0.0
C953 C 0.17817 0.33935 0.82714 0.0
C954 C 0.1881 0.34449 0.80574 0.0
H955 H 0.12035 0.28417 0.71344 0.0
H956 H 0.14276 0.29155 0.74681 0.0
H957 H 0.18785 0.38763 0.76603 0.0
H958 H 0.18856 0.37773 0.87171 0.0
H959 H 0.21128 0.38571 0.8377 0.0
C960 C 0.1953 0.8396 0.86167 0.0
C961 C 0.19307 0.86585 0.86695 0.0
C962 C 0.18733 0.8272 0.84214 0.0
C963 C 0.14613 0.82849 0.79579 0.0
H964 H 0.21574 0.83248 0.76657 0.0
C965 C 0.1795 0.87786 0.71739 0.0
C966 C 0.19152 0.8656 0.7033 0.0
C967 C 0.17132 0.86523 0.73661 0.0
C968 C 0.19567 0.83033 0.77451 0.0
H969 H 0.17916 0.89852 0.85675 0.0
H970 H 0.16436 0.87651 0.82325 0.0
H971 H 0.21603 0.83248 0.80334 0.0
H972 H 0.20369 0.82996 0.69788 0.0
H973 H 0.19013 0.8081 0.73212 0.0
H974 H 0.12678 0.82854 0.76705 0.0
C975 C 0.17237 0.86547 0.83385 0.0
C976 C 0.19584 0.83033 0.79559 0.0
C977 C 0.18099 0.87821 0.85302 0.0
C978 C 0.19414 0.83956 0.70849 0.0
C979 C 0.18658 0.82724 0.72805 0.0
C980 C 0.14596 0.82848 0.77479 0.0
C981 C 0.17623 0.84041 0.82794 0.0
C982 C 0.17182 0.83107 0.8064 0.0
C983 C 0.17553 0.84034 0.7424 0.0
C984 C 0.17149 0.83107 0.76393 0.0
H985 H 0.20489 0.82992 0.87216 0.0
H986 H 0.19061 0.80792 0.83796 0.0
H987 H 0.12708 0.82858 0.80372 0.0
H988 H 0.17738 0.89802 0.71376 0.0
H989 H 0.16335 0.8762 0.74732 0.0
C990 C 0.65623 0.82248 0.70883 0.0
C991 C 0.68528 0.82616 0.70342 0.0
C992 C 0.65146 0.83008 0.72838 0.0
C993 C 0.69343 0.87187 0.77489 0.0
H994 H 0.62916 0.80076 0.8037 0.0
C995 C 0.71083 0.83743 0.85263 0.0
C996 C 0.68671 0.82508 0.86682 0.0
C997 C 0.70605 0.84578 0.83355 0.0
C998 C 0.64668 0.82121 0.79588 0.0
H999 H 0.73245 0.84232 0.71341 0.0
H1000 H 0.72462 0.85642 0.74695 0.0
H1001 H 0.6288 0.8011 0.76694 0.0
H1002 H 0.63883 0.81245 0.87257 0.0
H1003 H 0.62994 0.8262 0.83854 0.0
H1004 H 0.71263 0.89095 0.80374 0.0
C1005 C 0.70538 0.8476 0.73644 0.0
C1006 C 0.64647 0.82142 0.7748 0.0
C1007 C 0.70988 0.83938 0.71723 0.0
C1008 C 0.65786 0.82225 0.86188 0.0
C1009 C 0.65276 0.82993 0.84244 0.0
C1010 C 0.69366 0.87164 0.79588 0.0
C1011 C 0.67593 0.84222 0.7425 0.0
C1012 C 0.6708 0.84604 0.76411 0.0
C1013 C 0.67677 0.84135 0.828 0.0
C1014 C 0.67123 0.8456 0.80657 0.0
H1015 H 0.63683 0.81197 0.69843 0.0
H1016 H 0.6285 0.82564 0.73266 0.0
H1017 H 0.7122 0.89139 0.76707 0.0
H1018 H 0.73325 0.83973 0.85609 0.0
H1019 H 0.72488 0.85406 0.82274 0.0
C1020 C 0.20371 0.90666 0.99225 0.0
C1021 C 0.22404 0.90841 0.97692 0.0
C1022 C 0.21355 0.93041 1.0067 0.0
C1023 C 0.27016 0.01346 1.0147 0.0
H1024 H 0.25888 0.99404 0.07157 0.0
C1025 C 0.30317 0.10712 0.07763 0.0
C1026 C 0.32074 0.10505 0.0935 0.0
C1027 C 0.28951 0.08326 0.06323 0.0
C1028 C 0.2621 0.99982 0.05573 0.0
H1029 H 0.27092 0.93575 0.96516 0.0
H1030 H 0.28775 0.97737 0.98997 0.0
H1031 H 0.23813 0.95175 0.04686 0.0
H1032 H 0.33859 0.07689 0.10633 0.0
H1033 H 0.31419 0.03513 0.08162 0.0
H1034 H 0.29429 0.06153 1.02357 0.0
C1035 C 0.26417 0.95788 0.99077 0.0
C1036 C 0.25005 0.97561 0.0416 0.0
C1037 C 0.25455 0.93396 0.97661 0.0
C1038 C 0.32476 0.07895 0.09447 0.0
C1039 C 0.31071 0.05496 0.08035 0.0
C1040 C 0.28178 0.03767 1.02883 0.0
C1041 C 0.24377 0.9565 1.00592 0.0
C1042 C 0.2544 0.98215 1.02093 0.0
C1043 C 0.29286 0.05675 0.06458 0.0
C1044 C 0.27835 0.03113 0.04951 0.0
H1045 H 0.18013 0.88716 0.99293 0.0
H1046 H 0.19734 0.92869 1.01823 0.0
H1047 H 0.27365 0.01922 0.99886 0.0
H1048 H 0.29984 0.12704 0.07642 0.0
H1049 H 0.2759 0.0853 0.05122 0.0
C1050 C 0.7655 0.6911 0.47544 0.0
C1051 C 0.79518 0.69408 0.47661 0.0
C1052 C 0.75587 0.70527 0.48968 0.0
C1053 C 0.76829 0.73405 0.54151 0.0
H1054 H 0.72597 0.77775 0.52367 0.0
C1055 C 0.71509 0.81258 0.57764 0.0
C1056 C 0.69789 0.79302 0.59363 0.0
C1057 C 0.72888 0.80252 0.56324 0.0
C1058 C 0.73796 0.76587 0.5289 0.0
H1059 H 0.83764 0.71329 0.49409 0.0
H1060 H 0.82049 0.7376 0.51942 0.0
H1061 H 0.74695 0.75662 0.49889 0.0
H1062 H 0.68084 0.74732 0.60672 0.0
H1063 H 0.70515 0.73004 0.58191 0.0
H1064 H 0.75885 0.74286 0.57152 0.0
C1065 C 0.80486 0.72461 0.50724 0.0
C1066 C 0.74975 0.75353 0.51471 0.0
C1067 C 0.81469 0.71071 0.49276 0.0
C1068 C 0.69431 0.7631 0.59473 0.0
C1069 C 0.70838 0.75323 0.58056 0.0
C1070 C 0.75617 0.74607 0.5557 0.0
C1071 C 0.77545 0.72233 0.50571 0.0
C1072 C 0.76476 0.73718 0.52084 0.0
C1073 C 0.72594 0.77282 0.56467 0.0
C1074 C 0.74057 0.76184 0.54957 0.0
H1075 H 0.74974 0.67806 0.46332 0.0
H1076 H 0.73287 0.70257 0.48827 0.0
H1077 H 0.77959 0.72149 0.54673 0.0
H1078 H 0.71813 0.83571 0.57637 0.0
H1079 H 0.74229 0.81817 0.55118 0.0
C1080 C 0.08392 0.32248 0.97534 0.0
C1081 C 0.11073 0.31964 0.97609 0.0
C1082 C 0.06033 0.30789 0.98966 0.0
C1083 C 1.00655 0.25821 1.01455 0.0
H1084 H 0.02679 0.27004 0.0713 0.0
C1085 C 0.91431 0.19785 0.0782 0.0
C1086 C 0.91577 0.21787 0.09365 0.0
C1087 C 0.93808 0.20816 0.06374 0.0
C1088 C 0.02079 0.26645 0.05549 0.0
H1089 H 0.13447 0.30037 0.99296 0.0
H1090 H 0.09341 0.27545 1.0185 0.0
H1091 H 0.0687 0.29204 0.04635 0.0
H1092 H 0.94273 0.26461 0.1057 0.0
H1093 H 0.98433 0.28224 0.08087 0.0
H1094 H 0.95863 0.23287 1.02369 0.0
C1095 C 0.09051 0.28857 1.00653 0.0
C1096 C 0.04479 0.27886 0.04123 0.0
C1097 C 0.11398 0.30281 0.99195 0.0
C1098 C 0.94116 0.24845 0.09417 0.0
C1099 C 0.96507 0.25855 0.07998 0.0
C1100 C 0.98257 0.24541 1.02882 0.0
C1101 C 0.06323 0.29064 1.00538 0.0
C1102 C 0.03793 0.27535 1.02058 0.0
C1103 C 0.9639 0.23855 0.06462 0.0
C1104 C 0.98939 0.24984 0.04945 0.0
H1105 H 0.08094 0.33569 0.96346 0.0
H1106 H 0.03989 0.3104 0.98855 0.0
H1107 H 1.00054 0.25489 0.99874 0.0
H1108 H 0.89493 0.17422 0.07736 0.0
H1109 H 0.93654 0.19223 0.05205 0.0
C1110 C 0.30387 0.10587 0.49245 0.0
C1111 C 0.32178 0.10429 0.4766 0.0
C1112 C 0.29057 0.08197 0.50681 0.0
C1113 C 0.28293 0.0368 0.54122 0.0
H1114 H 0.24318 0.95092 0.52318 0.0
C1115 C 0.25686 0.93463 0.59442 0.0
C1116 C 0.22724 0.90784 0.59323 0.0
C1117 C 0.26635 0.95844 0.58022 0.0
C1118 C 0.25399 0.97475 0.52845 0.0
H1119 H 0.34068 0.07701 0.46378 0.0
H1120 H 0.3171 0.03524 0.48848 0.0
H1121 H 0.26331 0.99309 0.49848 0.0
H1122 H 0.18482 0.88441 0.57572 0.0
H1123 H 0.20179 0.92584 0.55044 0.0
H1124 H 0.27411 0.01847 0.57119 0.0
C1125 C 0.31296 0.05465 0.48973 0.0
C1126 C 0.26573 0.99892 0.51432 0.0
C1127 C 0.32655 0.07866 0.47561 0.0
C1128 C 0.20772 0.90485 0.57706 0.0
C1129 C 0.21743 0.92855 0.56262 0.0
C1130 C 0.27155 0.01265 0.55535 0.0
C1131 C 0.29472 0.05592 0.50548 0.0
C1132 C 0.2806 0.03025 0.52053 0.0
C1133 C 0.24673 0.9558 0.5642 0.0
C1134 C 0.2572 0.98134 0.54914 0.0
H1135 H 0.29995 0.12542 0.49366 0.0
H1136 H 0.27663 0.08361 0.51877 0.0
H1137 H 0.29437 0.06066 0.54649 0.0
H1138 H 0.27261 0.93743 0.60655 0.0
H1139 H 0.28926 0.97884 0.58167 0.0
C1140 C 0.81442 0.70935 0.07685 0.0
C1141 C 0.79513 0.69296 0.09314 0.0
C1142 C 0.80446 0.72317 0.06244 0.0
C1143 C 0.7494 0.75225 0.05537 0.0
H1144 H 0.75763 0.74101 0.99849 0.0
C1145 C 0.69279 0.76099 0.97572 0.0
C1146 C 0.69654 0.79099 0.97673 0.0
C1147 C 0.70697 0.75123 0.98983 0.0
C1148 C 0.75519 0.74437 1.01433 0.0
H1149 H 0.74995 0.67731 0.10676 0.0
H1150 H 0.73284 0.70165 0.08192 0.0
H1151 H 0.77872 0.71985 1.02312 0.0
H1152 H 0.71708 0.83388 0.99384 0.0
H1153 H 0.74141 0.81651 1.01895 0.0
H1154 H 0.72549 0.77639 0.04658 0.0
C1155 C 0.75578 0.70423 0.08034 0.0
C1156 C 0.76751 0.73248 1.02843 0.0
C1157 C 0.76553 0.69014 0.09452 0.0
C1158 C 0.7139 0.81068 0.99264 0.0
C1159 C 0.72781 0.80073 1.00698 0.0
C1160 C 0.73739 0.76445 0.04127 0.0
C1161 C 0.77513 0.72105 0.06417 0.0
C1162 C 0.76429 0.73581 0.04912 0.0
C1163 C 0.72479 0.771 1.00559 0.0
C1164 C 0.73967 0.76019 1.02058 0.0
H1165 H 0.8373 0.71179 0.07537 0.0
H1166 H 0.81992 0.73598 0.05015 0.0
H1167 H 0.74685 0.75551 0.07121 0.0
H1168 H 0.67919 0.74512 0.96378 0.0
H1169 H 0.70368 0.728 0.98853 0.0
C1170 C 0.08378 0.3206 0.59364 0.0
C1171 C 0.1097 0.31624 0.59319 0.0
C1172 C 0.06 0.30627 0.57941 0.0
C1173 C 1.00512 0.25678 0.55495 0.0
H1174 H 0.02547 0.26702 0.49818 0.0
C1175 C 0.91299 0.19717 0.49106 0.0
C1176 C 0.91489 0.21742 0.47566 0.0
C1177 C 0.93658 0.20712 0.50561 0.0
C1178 C 0.01945 0.26387 0.51399 0.0
H1179 H 0.1317 0.29453 0.57693 0.0
H1180 H 0.0904 0.27014 0.55152 0.0
H1181 H 0.06738 0.28831 0.52315 0.0
H1182 H 0.94241 0.26422 0.46384 0.0
H1183 H 0.98376 0.28116 0.48879 0.0
H1184 H 0.95717 0.2325 0.54578 0.0
C1185 C 0.0883 0.2842 0.5632 0.0
C1186 C 0.04343 0.27587 0.52826 0.0
C1187 C 0.11191 0.29814 0.57772 0.0
C1188 C 0.94051 0.24788 0.47531 0.0
C1189 C 0.96427 0.25759 0.48957 0.0
C1190 C 0.98113 0.24432 0.54068 0.0
C1191 C 0.0619 0.28782 0.56406 0.0
C1192 C 0.03653 0.27293 0.5489 0.0
C1193 C 0.96266 0.23734 0.50485 0.0
C1194 C 0.98804 0.24819 0.52004 0.0
H1195 H 0.08164 0.33482 0.6052 0.0
H1196 H 0.04025 0.30994 0.58027 0.0
H1197 H 0.9991 0.25396 0.57076 0.0
H1198 H 0.89342 0.17365 0.49178 0.0
H1199 H 0.93471 0.19103 0.51725 0.0
C1200 C 0.6679 0.18476 0.15593 0.0
C1201 C 0.67099 0.16006 0.14818 0.0
C1202 C 0.63839 0.18174 0.15816 0.0
C1203 C 0.55401 0.12344 0.16116 0.0
H1204 H 0.54335 0.19164 0.14273 0.0
C1205 C 0.43224 0.11108 0.14898 0.0
C1206 C 0.4289 0.13701 0.15333 0.0
C1207 C 0.4616 0.11341 0.14986 0.0
C1208 C 0.54591 0.17251 0.14825 0.0
H1209 H 0.64538 0.11238 0.1375 0.0
H1210 H 0.59412 0.10724 0.1412 0.0
H1211 H 0.59485 0.19691 0.14206 0.0
H1212 H 0.45373 0.18538 0.16285 0.0
H1213 H 0.50442 0.18917 0.16479 0.0
H1214 H 0.50501 0.099 0.16731 0.0
C1215 C 0.61442 0.12894 0.14559 0.0
C1216 C 0.57553 0.17556 0.14785 0.0
C1217 C 0.64386 0.13202 0.14326 0.0
C1218 C 0.45541 0.16499 0.15916 0.0
C1219 C 0.48463 0.16725 0.16016 0.0
C1220 C 0.52436 0.12043 0.16165 0.0
C1221 C 0.61129 0.15386 0.15285 0.0
C1222 C 0.57995 0.15102 0.15419 0.0
C1223 C 0.48827 0.14167 0.15522 0.0
C1224 C 0.51988 0.14489 0.15512 0.0
H1225 H 0.68832 0.2067 0.1598 0.0
H1226 H 0.63678 0.20129 0.164 0.0
H1227 H 0.55665 0.10422 0.16638 0.0
H1228 H 0.41235 0.08922 0.14437 0.0
H1229 H 0.46351 0.09329 0.14577 0.0
C1230 C 0.69217 0.59184 0.41586 0.0
C1231 C 0.72108 0.59437 0.41142 0.0
C1232 C 0.66468 0.56294 0.4148 0.0
C1233 C 0.63061 0.48258 0.39461 0.0
H1234 H 0.57548 0.46073 0.44055 0.0
C1235 C 0.53381 0.35565 0.41164 0.0
C1236 C 0.50603 0.35115 0.42036 0.0
C1237 C 0.55899 0.38579 0.40869 0.0
C1238 C 0.59028 0.46653 0.42742 0.0
H1239 H 0.74351 0.56865 0.40147 0.0
H1240 H 0.69575 0.51852 0.39962 0.0
H1241 H 0.6206 0.51275 0.43818 0.0
H1242 H 0.48223 0.37469 0.43173 0.0
H1243 H 0.52572 0.42702 0.4263 0.0
H1244 H 0.60033 0.43622 0.38392 0.0
C1245 C 0.69425 0.53881 0.40389 0.0
C1246 C 0.6162 0.49644 0.42607 0.0
C1247 C 0.72169 0.56759 0.40508 0.0
C1248 C 0.50357 0.37738 0.42536 0.0
C1249 C 0.52856 0.40741 0.42229 0.0
C1250 C 0.60455 0.45265 0.39591 0.0
C1251 C 0.66548 0.53599 0.40912 0.0
C1252 C 0.63682 0.50478 0.40974 0.0
C1253 C 0.55682 0.41207 0.41425 0.0
C1254 C 0.58413 0.44417 0.4124 0.0
H1255 H 0.69082 0.61196 0.42079 0.0
H1256 H 0.64282 0.5616 0.41869 0.0
H1257 H 0.64589 0.48837 0.38173 0.0
H1258 H 0.53644 0.33588 0.40773 0.0
H1259 H 0.58046 0.38844 0.40263 0.0
C1260 C 0.90928 0.32373 0.15272 0.0
C1261 C 0.8824 0.29409 0.15267 0.0
C1262 C 0.90688 0.3506 0.15461 0.0
C1263 C 0.85252 0.3776 0.17082 0.0
H1264 H 0.90308 0.44824 0.13642 0.0
C1265 C 0.82594 0.47723 0.15756 0.0
C1266 C 0.85128 0.50777 0.15626 0.0
C1267 C 0.83088 0.45187 0.15882 0.0
C1268 C 0.88908 0.42889 0.14634 0.0
H1269 H 0.83187 0.2696 0.15475 0.0
H1270 H 0.8278 0.31617 0.15777 0.0
H1271 H 0.91004 0.40295 0.13556 0.0
H1272 H 0.90173 0.53552 0.15535 0.0
H1273 H 0.9103 0.49136 0.15786 0.0
H1274 H 0.83122 0.40338 0.18136 0.0
C1275 C 0.85078 0.31875 0.15664 0.0
C1276 C 0.8931 0.40292 0.14586 0.0
C1277 C 0.85315 0.29198 0.15475 0.0
C1278 C 0.88167 0.51235 0.15658 0.0
C1279 C 0.8866 0.48701 0.15777 0.0
C1280 C 0.84846 0.40354 0.17127 0.0
C1281 C 0.87757 0.34841 0.15654 0.0
C1282 C 0.87465 0.37682 0.15794 0.0
C1283 C 0.86127 0.45644 0.1587 0.0
C1284 C 0.8665 0.42939 0.15891 0.0
H1285 H 0.93218 0.32624 0.1512 0.0
H1286 H 0.92801 0.37309 0.15468 0.0
H1287 H 0.83829 0.35812 0.18059 0.0
H1288 H 0.80225 0.47292 0.15749 0.0
H1289 H 0.81084 0.42861 0.15934 0.0
C1290 C 0.43209 0.11078 0.41923 0.0
C1291 C 0.42872 0.13672 0.41505 0.0
C1292 C 0.46145 0.11311 0.41814 0.0
C1293 C 0.54568 0.17237 0.41959 0.0
H1294 H 0.55661 0.10406 0.40161 0.0
C1295 C 0.66776 0.1848 0.41215 0.0
C1296 C 0.67087 0.16022 0.42005 0.0
C1297 C 0.63824 0.18169 0.40981 0.0
C1298 C 0.55391 0.1233 0.40678 0.0
H1299 H 0.45339 0.18503 0.40547 0.0
H1300 H 0.50405 0.18882 0.40313 0.0
H1301 H 0.50492 0.09874 0.40062 0.0
H1302 H 0.64528 0.11264 0.43088 0.0
H1303 H 0.59399 0.10734 0.42697 0.0
H1304 H 0.59462 0.19688 0.42579 0.0
C1305 C 0.48432 0.16691 0.40783 0.0
C1306 C 0.52424 0.12022 0.40626 0.0
C1307 C 0.45513 0.16465 0.40906 0.0
C1308 C 0.64374 0.13219 0.425 0.0
C1309 C 0.61429 0.12902 0.42255 0.0
C1310 C 0.57532 0.17549 0.42001 0.0
C1311 C 0.48804 0.14137 0.4127 0.0
C1312 C 0.51969 0.14468 0.41275 0.0
C1313 C 0.61115 0.15384 0.41515 0.0
C1314 C 0.5798 0.15094 0.41372 0.0
H1315 H 0.41227 0.08895 0.42396 0.0
H1316 H 0.46341 0.09302 0.42217 0.0
H1317 H 0.54308 0.1915 0.42509 0.0
H1318 H 0.68818 0.20672 0.40825 0.0
H1319 H 0.63662 0.20115 0.40386 0.0
C1320 C 0.5332 0.35602 0.1588 0.0
C1321 C 0.5056 0.35146 0.14979 0.0
C1322 C 0.5585 0.38616 0.16157 0.0
C1323 C 0.59058 0.46669 0.14216 0.0
H1324 H 0.64522 0.48901 0.18836 0.0
C1325 C 0.6926 0.59207 0.15372 0.0
C1326 C 0.72136 0.59454 0.15856 0.0
C1327 C 0.66502 0.56322 0.1547 0.0
C1328 C 0.63022 0.48308 0.17534 0.0
H1329 H 0.4823 0.37499 0.13764 0.0
H1330 H 0.52598 0.42732 0.14273 0.0
H1331 H 0.59959 0.43692 0.18616 0.0
H1332 H 0.74339 0.56879 0.16915 0.0
H1333 H 0.69547 0.51879 0.17088 0.0
H1334 H 0.62125 0.51274 0.1313 0.0
C1335 C 0.5286 0.40773 0.14713 0.0
C1336 C 0.60412 0.45318 0.17403 0.0
C1337 C 0.50348 0.37769 0.14424 0.0
C1338 C 0.7217 0.56778 0.16523 0.0
C1339 C 0.69415 0.53907 0.16635 0.0
C1340 C 0.61655 0.49658 0.14352 0.0
C1341 C 0.55665 0.41242 0.15553 0.0
C1342 C 0.58404 0.44451 0.15735 0.0
C1343 C 0.66556 0.53628 0.16072 0.0
C1344 C 0.63683 0.5051 0.16004 0.0
H1345 H 0.53559 0.33627 0.16313 0.0
H1346 H 0.5798 0.38881 0.16791 0.0
H1347 H 0.57606 0.46075 0.1289 0.0
H1348 H 0.69148 0.61217 0.14852 0.0
H1349 H 0.6433 0.56192 0.1505 0.0
C1350 C 0.82666 0.47847 0.41259 0.0
C1351 C 0.85204 0.50894 0.41423 0.0
C1352 C 0.83151 0.45302 0.41137 0.0
C1353 C 0.88919 0.42948 0.42429 0.0
H1354 H 0.8391 0.35942 0.3893 0.0
C1355 C 0.90939 0.32433 0.41727 0.0
C1356 C 0.8825 0.29469 0.41696 0.0
C1357 C 0.90706 0.35125 0.41558 0.0
C1358 C 0.85313 0.37869 0.39928 0.0
H1359 H 0.90246 0.53647 0.41583 0.0
H1360 H 0.91088 0.49221 0.41337 0.0
H1361 H 0.83218 0.40476 0.38874 0.0
H1362 H 0.83203 0.2703 0.41444 0.0
H1363 H 0.82807 0.31696 0.41175 0.0
H1364 H 0.90983 0.40326 0.43503 0.0
C1365 C 0.88721 0.48795 0.41317 0.0
C1366 C 0.84915 0.40468 0.39895 0.0
C1367 C 0.88238 0.51337 0.41432 0.0
C1368 C 0.85331 0.29266 0.41471 0.0
C1369 C 0.85101 0.31949 0.41302 0.0
C1370 C 0.89314 0.40346 0.42464 0.0
C1371 C 0.86184 0.45744 0.41186 0.0
C1372 C 0.86694 0.43029 0.41158 0.0
C1373 C 0.8778 0.34914 0.41349 0.0
C1374 C 0.87494 0.37761 0.41227 0.0
H1375 H 0.80302 0.47425 0.41233 0.0
H1376 H 0.81142 0.42982 0.41055 0.0
H1377 H 0.90299 0.44863 0.43441 0.0
H1378 H 0.93225 0.32678 0.41892 0.0
H1379 H 0.9282 0.37373 0.4158 0.0
C1380 C 0.1956 0.6627 0.66054 0.0
C1381 C 0.17005 0.66698 0.65693 0.0
C1382 C 0.19156 0.63273 0.6617 0.0
C1383 C 0.13192 0.54942 0.66853 0.0
H1384 H 0.19299 0.53535 0.64134 0.0
C1385 C 0.11449 0.42607 0.65328 0.0
C1386 C 0.14085 0.42264 0.65536 0.0
C1387 C 0.11726 0.45556 0.65471 0.0
C1388 C 0.17591 0.53891 0.64923 0.0
H1389 H 0.12015 0.64294 0.65175 0.0
H1390 H 0.11315 0.5908 0.65379 0.0
H1391 H 0.19963 0.58736 0.64189 0.0
H1392 H 0.1906 0.44753 0.66141 0.0
H1393 H 0.19522 0.49844 0.66409 0.0
H1394 H 0.10809 0.50075 0.67571 0.0
C1395 C 0.13625 0.61059 0.65604 0.0
C1396 C 0.17975 0.56879 0.64957 0.0
C1397 C 0.14028 0.64054 0.6549 0.0
C1398 C 0.16979 0.44921 0.65949 0.0
C1399 C 0.17253 0.47854 0.66093 0.0
C1400 C 0.12806 0.51945 0.66818 0.0
C1401 C 0.16188 0.60631 0.65923 0.0
C1402 C 0.15786 0.57447 0.65925 0.0
C1403 C 0.14644 0.4822 0.65825 0.0
C1404 C 0.15009 0.51387 0.65858 0.0
H1405 H 0.21877 0.68254 0.66245 0.0
H1406 H 0.21174 0.63027 0.66452 0.0
H1407 H 0.11478 0.55303 0.6763 0.0
H1408 H 0.09185 0.40613 0.65007 0.0
H1409 H 0.09672 0.45761 0.65246 0.0
C1410 C 0.29742 0.85088 0.90998 0.0
C1411 C 0.29897 0.87967 0.91322 0.0
C1412 C 0.32452 0.84914 0.90789 0.0
C1413 C 0.40794 0.89134 0.9208 0.0
H1414 H 0.41117 0.83208 0.88421 0.0
C1415 C 0.51815 0.88053 0.91245 0.0
C1416 C 0.51352 0.85013 0.91216 0.0
C1417 C 0.49293 0.88561 0.91073 0.0
C1418 C 0.41055 0.84859 0.8946 0.0
H1419 H 0.33049 0.92937 0.91632 0.0
H1420 H 0.37794 0.92632 0.91247 0.0
H1421 H 0.36577 0.83897 0.88416 0.0
H1422 H 0.47875 0.80128 0.9093 0.0
H1423 H 0.43465 0.81011 0.90651 0.0
H1424 H 0.45258 0.90071 0.93138 0.0
C1425 C 0.35561 0.90503 0.91181 0.0
C1426 C 0.38453 0.85256 0.89457 0.0
C1427 C 0.3284 0.9068 0.91389 0.0
C1428 C 0.48309 0.82496 0.90972 0.0
C1429 C 0.45786 0.83005 0.90793 0.0
C1430 C 0.43399 0.88742 0.92079 0.0
C1431 C 0.35398 0.87612 0.90895 0.0
C1432 C 0.38271 0.87369 0.90786 0.0
C1433 C 0.46245 0.86043 0.90863 0.0
C1434 C 0.43545 0.86574 0.90785 0.0
H1435 H 0.27522 0.82944 0.90937 0.0
H1436 H 0.32233 0.82643 0.90601 0.0
H1437 H 0.40714 0.90747 0.93144 0.0
H1438 H 0.54121 0.90044 0.91456 0.0
H1439 H 0.49732 0.9093 0.91112 0.0
C1440 C 0.5929 0.6895 0.6535 0.0
C1441 C 0.5951 0.71851 0.65699 0.0
C1442 C 0.56404 0.66195 0.65459 0.0
C1443 C 0.48318 0.62842 0.67384 0.0
H1444 H 0.46293 0.56954 0.63021 0.0
C1445 C 0.35723 0.52778 0.65844 0.0
C1446 C 0.35353 0.49951 0.65117 0.0
C1447 C 0.38706 0.5538 0.66079 0.0
C1448 C 0.46828 0.58543 0.6427 0.0
H1449 H 0.56871 0.74106 0.66515 0.0
H1450 H 0.51866 0.69319 0.66705 0.0
H1451 H 0.51449 0.61555 0.63181 0.0
H1452 H 0.37828 0.4759 0.64175 0.0
H1453 H 0.43004 0.52087 0.64609 0.0
H1454 H 0.43687 0.5983 0.68469 0.0
C1455 C 0.53919 0.69167 0.66351 0.0
C1456 C 0.49793 0.61187 0.64361 0.0
C1457 C 0.56794 0.71918 0.66229 0.0
C1458 C 0.3803 0.49753 0.64698 0.0
C1459 C 0.41002 0.52338 0.64943 0.0
C1460 C 0.45352 0.60186 0.67299 0.0
C1461 C 0.53677 0.66275 0.65936 0.0
C1462 C 0.50571 0.6338 0.65911 0.0
C1463 C 0.41385 0.55204 0.65604 0.0
C1464 C 0.44562 0.58006 0.65735 0.0
H1465 H 0.6133 0.68808 0.64939 0.0
H1466 H 0.56304 0.64001 0.65155 0.0
H1467 H 0.48853 0.64469 0.68611 0.0
H1468 H 0.33707 0.53009 0.66169 0.0
H1469 H 0.38905 0.57553 0.66574 0.0
C1470 C 0.13417 0.63814 0.92385 0.0
C1471 C 0.16259 0.66449 0.91854 0.0
C1472 C 0.1297 0.6082 0.92137 0.0
C1473 C 0.16148 0.56305 0.89601 0.0
H1474 H 0.1177 0.50388 0.93872 0.0
C1475 C 0.16381 0.44826 0.90602 0.0
C1476 C 0.1363 0.42153 0.91227 0.0
C1477 C 0.16532 0.47712 0.90486 0.0
C1478 C 0.12957 0.51994 0.92651 0.0
H1479 H 0.20837 0.68002 0.90601 0.0
H1480 H 0.20081 0.62764 0.90193 0.0
H1481 H 0.12411 0.55576 0.94044 0.0
H1482 H 0.08849 0.4042 0.92162 0.0
H1483 H 0.09116 0.45468 0.91958 0.0
H1484 H 0.16749 0.52721 0.88235 0.0
C1485 C 0.18177 0.63011 0.90778 0.0
C1486 C 0.13327 0.54976 0.92747 0.0
C1487 C 0.18617 0.66016 0.91014 0.0
C1488 C 0.11005 0.42426 0.91677 0.0
C1489 C 0.11164 0.45324 0.91573 0.0
C1490 C 0.15791 0.53321 0.8951 0.0
C1491 C 0.15359 0.60374 0.91362 0.0
C1492 C 0.14932 0.57178 0.91227 0.0
C1493 C 0.13943 0.48009 0.91002 0.0
C1494 C 0.14199 0.51133 0.91038 0.0
H1495 H 0.1153 0.64067 0.92998 0.0
H1496 H 0.10743 0.58851 0.92558 0.0
H1497 H 0.17357 0.57919 0.88387 0.0
H1498 H 0.1845 0.44708 0.90238 0.0
H1499 H 0.18716 0.49734 0.90058 0.0
C1500 C 0.32857 0.90693 0.65434 0.0
C1501 C 0.29949 0.88219 0.66033 0.0
C1502 C 0.35546 0.90448 0.65598 0.0
C1503 C 0.37872 0.84419 0.65919 0.0
H1504 H 0.4605 0.91452 0.67045 0.0
C1505 C 0.48809 0.83106 0.66431 0.0
C1506 C 0.51429 0.8534 0.65369 0.0
C1507 C 0.46245 0.83524 0.66744 0.0
C1508 C 0.43781 0.89468 0.66721 0.0
H1509 H 0.27617 0.83627 0.67393 0.0
H1510 H 0.3229 0.83238 0.67728 0.0
H1511 H 0.41485 0.92105 0.67196 0.0
H1512 H 0.5347 0.89828 0.63885 0.0
H1513 H 0.49003 0.90542 0.64417 0.0
H1514 H 0.40166 0.81789 0.65431 0.0
C1515 C 0.32495 0.8533 0.67071 0.0
C1516 C 0.41164 0.89844 0.66802 0.0
C1517 C 0.29813 0.85563 0.6689 0.0
C1518 C 0.51468 0.88043 0.64685 0.0
C1519 C 0.48922 0.8847 0.6501 0.0
C1520 C 0.40482 0.84041 0.65848 0.0
C1521 C 0.35387 0.87732 0.66381 0.0
C1522 C 0.38175 0.87328 0.66387 0.0
C1523 C 0.46262 0.86198 0.66019 0.0
C1524 C 0.43472 0.86566 0.6623 0.0
H1525 H 0.33039 0.92764 0.64759 0.0
H1526 H 0.37725 0.92337 0.65037 0.0
H1527 H 0.35621 0.82441 0.65549 0.0
H1528 H 0.48706 0.80997 0.66971 0.0
H1529 H 0.44241 0.81744 0.67544 0.0
C1530 C 0.56954 0.71896 0.9062 0.0
C1531 C 0.59667 0.7178 0.91075 0.0
C1532 C 0.54082 0.69166 0.90424 0.0
C1533 C 0.49933 0.60945 0.92002 0.0
H1534 H 0.43767 0.60293 0.8815 0.0
C1535 C 0.37879 0.49822 0.91283 0.0
C1536 C 0.35285 0.50245 0.91112 0.0
C1537 C 0.40906 0.52348 0.91113 0.0
C1538 C 0.45455 0.60449 0.89244 0.0
H1539 H 0.61483 0.68674 0.91621 0.0
H1540 H 0.56458 0.63893 0.91257 0.0
H1541 H 0.48993 0.64836 0.88093 0.0
H1542 H 0.33853 0.5366 0.90584 0.0
H1543 H 0.39142 0.58081 0.90309 0.0
H1544 H 0.46386 0.56574 0.93166 0.0
C1545 C 0.56559 0.66112 0.91079 0.0
C1546 C 0.48453 0.63052 0.89211 0.0
C1547 C 0.59444 0.68853 0.91273 0.0
C1548 C 0.35797 0.53256 0.90737 0.0
C1549 C 0.38829 0.55784 0.9056 0.0
C1550 C 0.46937 0.58339 0.92032 0.0
C1551 C 0.53835 0.66238 0.90676 0.0
C1552 C 0.50721 0.63353 0.90606 0.0
C1553 C 0.41422 0.55365 0.90763 0.0
C1554 C 0.4465 0.58074 0.90668 0.0
H1555 H 0.57025 0.74103 0.90455 0.0
H1556 H 0.52035 0.69361 0.9014 0.0
H1557 H 0.51601 0.61119 0.93119 0.0
H1558 H 0.37575 0.47545 0.91598 0.0
H1559 H 0.42847 0.51937 0.91258 0.0
loop_
_geom_bond_atom_site_label_1
_geom_bond_atom_site_label_2
_geom_bond_distance
_geom_bond_site_symmetry_2
_ccdc_geom_bond_type
C0 Eu1 2.835 . S
C0 C2 1.500 . S
C0 O20 1.257 . S
C0 O21 1.260 . S
Eu1 C0 2.835 . S
Eu1 O20 2.473 . S
Eu1 O21 2.480 . S
Eu1 O22 2.430 . S
Eu1 O23 2.670 . S
Eu1 O24 2.394 . S
Eu1 O29 2.355 . S
Eu1 O31 2.374 . S
C2 C0 1.500 . S
C2 C3 1.377 . S
C2 C7 1.377 . S
C3 C2 1.377 . S
C3 C4 1.395 1_545 S
C3 H32 0.931 . S
C4 C3 1.395 1_565 S
C4 C5 1.383 . S
C4 H33 0.931 . S
C5 C4 1.383 . S
C5 C6 1.394 . S
C6 C5 1.394 . S
C6 C7 1.378 1_565 S
C6 H34 0.931 . S
C7 C2 1.377 . S
C7 C6 1.378 1_545 S
C7 H35 0.931 . S
C8 O22 1.259 . S
C8 O23 1.270 . S
C9 O24 1.251 . S
C9 O25 1.251 . S
C10 Eu11 2.835 . S
C10 C12 1.500 . S
C10 O26 1.257 . S
C10 O27 1.260 . S
Eu11 C10 2.835 . S
Eu11 O23 2.355 . S
Eu11 O25 2.374 . S
Eu11 O26 2.473 . S
Eu11 O27 2.480 . S
Eu11 O28 2.430 . S
Eu11 O29 2.670 . S
Eu11 O30 2.394 . S
C12 C10 1.500 . S
C12 C13 1.377 . S
C12 C17 1.377 . S
C13 C12 1.377 . S
C13 C14 1.395 . S
C13 H36 0.931 . S
C14 C13 1.395 . S
C14 C15 1.383 . S
C14 H37 0.931 . S
C15 C14 1.383 . S
C15 C16 1.394 . S
C16 C15 1.394 . S
C16 C17 1.378 . S
C16 H38 0.931 . S
C17 C12 1.377 . S
C17 C16 1.378 . S
C17 H39 0.931 . S
C18 O28 1.259 . S
C18 O29 1.270 . S
C19 O30 1.251 . S
C19 O31 1.251 . S
O20 C0 1.257 . S
O20 Eu1 2.473 . S
O21 C0 1.260 . S
O21 Eu1 2.480 . S
O22 Eu1 2.430 . S
O22 C8 1.259 . S
O23 Eu1 2.670 . S
O23 C8 1.270 . S
O23 Eu11 2.355 . S
O24 Eu1 2.394 . S
O24 C9 1.251 . S
O25 C9 1.251 . S
O25 Eu11 2.374 . S
O26 C10 1.257 . S
O26 Eu11 2.473 . S
O27 C10 1.260 . S
O27 Eu11 2.480 . S
O28 Eu11 2.430 . S
O28 C18 1.259 . S
O29 Eu1 2.355 . S
O29 Eu11 2.670 . S
O29 C18 1.270 . S
O30 Eu11 2.394 . S
O30 C19 1.251 . S
O31 Eu1 2.374 . S
O31 C19 1.251 . S
H32 C3 0.931 . S
H33 C4 0.931 . S
H34 C6 0.931 . S
H35 C7 0.931 . S
H36 C13 0.931 . S
H37 C14 0.931 . S
H38 C16 0.931 . S
H39 C17 0.931 . S
C40 Eu41 2.835 . S
C40 C42 1.500 . S
C40 O60 1.257 . S
C40 O61 1.260 . S
Eu41 C40 2.835 . S
Eu41 O60 2.473 . S
Eu41 O61 2.480 . S
Eu41 O62 2.430 . S
Eu41 O63 2.670 . S
Eu41 O64 2.394 . S
Eu41 O69 2.355 . S
Eu41 O71 2.374 . S
C42 C40 1.500 . S
C42 C43 1.377 . S
C42 C47 1.377 . S
C43 C42 1.377 . S
C43 C44 1.395 . S
C43 H72 0.931 . S
C44 C43 1.395 . S
C44 C45 1.383 . S
C44 H73 0.931 . S
C45 C44 1.383 . S
C45 C46 1.394 . S
C46 C45 1.394 . S
C46 C47 1.378 . S
C46 H74 0.931 . S
C47 C42 1.377 . S
C47 C46 1.378 . S
C47 H75 0.931 . S
C48 O62 1.259 . S
C48 O63 1.270 . S
C49 O64 1.251 . S
C49 O65 1.251 . S
C50 Eu51 2.835 . S
C50 C52 1.500 . S
C50 O66 1.257 . S
C50 O67 1.260 . S
Eu51 C50 2.835 . S
Eu51 O63 2.355 . S
Eu51 O65 2.374 . S
Eu51 O66 2.473 . S
Eu51 O67 2.480 . S
Eu51 O68 2.430 . S
Eu51 O69 2.670 . S
Eu51 O70 2.394 . S
C52 C50 1.500 . S
C52 C53 1.377 . S
C52 C57 1.377 . S
C53 C52 1.377 . S
C53 C54 1.395 . S
C53 H76 0.931 . S
C54 C53 1.395 . S
C54 C55 1.383 . S
C54 H77 0.931 . S
C55 C54 1.383 . S
C55 C56 1.394 . S
C56 C55 1.394 . S
C56 C57 1.378 . S
C56 H78 0.931 . S
C57 C52 1.377 . S
C57 C56 1.378 . S
C57 H79 0.931 . S
C58 O68 1.259 . S
C58 O69 1.270 . S
C59 O70 1.251 . S
C59 O71 1.251 . S
O60 C40 1.257 . S
O60 Eu41 2.473 . S
O61 C40 1.260 . S
O61 Eu41 2.480 . S
O62 Eu41 2.430 . S
O62 C48 1.259 . S
O63 Eu41 2.670 . S
O63 C48 1.270 . S
O63 Eu51 2.355 . S
O64 Eu41 2.394 . S
O64 C49 1.251 . S
O65 C49 1.251 . S
O65 Eu51 2.374 . S
O66 C50 1.257 . S
O66 Eu51 2.473 . S
O67 C50 1.260 . S
O67 Eu51 2.480 . S
O68 Eu51 2.430 . S
O68 C58 1.259 . S
O69 Eu41 2.355 . S
O69 Eu51 2.670 . S
O69 C58 1.270 . S
O70 Eu51 2.394 . S
O70 C59 1.251 . S
O71 Eu41 2.374 . S
O71 C59 1.251 . S
H72 C43 0.931 . S
H73 C44 0.931 . S
H74 C46 0.931 . S
H75 C47 0.931 . S
H76 C53 0.931 . S
H77 C54 0.931 . S
H78 C56 0.931 . S
H79 C57 0.931 . S
C80 Eu81 2.835 . S
C80 C82 1.500 . S
C80 O100 1.257 . S
C80 O101 1.260 . S
Eu81 C80 2.835 . S
Eu81 O100 2.473 . S
Eu81 O101 2.480 . S
Eu81 O102 2.430 . S
Eu81 O103 2.670 . S
Eu81 O104 2.394 . S
Eu81 O109 2.355 . S
Eu81 O111 2.374 . S
C82 C80 1.500 . S
C82 C83 1.377 . S
C82 C87 1.377 . S
C83 C82 1.377 . S
C83 C84 1.395 1_655 S
C83 H112 0.931 . S
C84 C83 1.395 1_455 S
C84 C85 1.383 . S
C84 H113 0.931 . S
C85 C84 1.383 . S
C85 C86 1.394 . S
C86 C85 1.394 . S
C86 C87 1.378 1_455 S
C86 H114 0.931 . S
C87 C82 1.377 . S
C87 C86 1.378 1_655 S
C87 H115 0.931 . S
C88 O102 1.259 . S
C88 O103 1.270 . S
C89 O104 1.251 . S
C89 O105 1.251 . S
C90 Eu91 2.835 . S
C90 C92 1.500 . S
C90 O106 1.257 . S
C90 O107 1.260 . S
Eu91 C90 2.835 . S
Eu91 O103 2.355 . S
Eu91 O105 2.374 . S
Eu91 O106 2.473 . S
Eu91 O107 2.480 . S
Eu91 O108 2.430 . S
Eu91 O109 2.670 . S
Eu91 O110 2.394 . S
C92 C90 1.500 . S
C92 C93 1.377 . S
C92 C97 1.377 . S
C93 C92 1.377 . S
C93 C94 1.395 . S
C93 H116 0.931 . S
C94 C93 1.395 . S
C94 C95 1.383 . S
C94 H117 0.931 . S
C95 C94 1.383 . S
C95 C96 1.394 . S
C96 C95 1.394 . S
C96 C97 1.378 . S
C96 H118 0.931 . S
C97 C92 1.377 . S
C97 C96 1.378 . S
C97 H119 0.931 . S
C98 O108 1.259 . S
C98 O109 1.270 . S
C99 O110 1.251 . S
C99 O111 1.251 . S
O100 C80 1.257 . S
O100 Eu81 2.473 . S
O101 C80 1.260 . S
O101 Eu81 2.480 . S
O102 Eu81 2.430 . S
O102 C88 1.259 . S
O103 Eu81 2.670 . S
O103 C88 1.270 . S
O103 Eu91 2.355 . S
O104 Eu81 2.394 . S
O104 C89 1.251 . S
O105 C89 1.251 . S
O105 Eu91 2.374 . S
O106 C90 1.257 . S
O106 Eu91 2.473 . S
O107 C90 1.260 . S
O107 Eu91 2.480 . S
O108 Eu91 2.430 . S
O108 C98 1.259 . S
O109 Eu81 2.355 . S
O109 Eu91 2.670 . S
O109 C98 1.270 . S
O110 Eu91 2.394 . S
O110 C99 1.251 . S
O111 Eu81 2.374 . S
O111 C99 1.251 . S
H112 C83 0.931 . S
H113 C84 0.931 . S
H114 C86 0.931 . S
H115 C87 0.931 . S
H116 C93 0.931 . S
H117 C94 0.931 . S
H118 C96 0.931 . S
H119 C97 0.931 . S
C120 Eu121 2.835 . S
C120 C122 1.500 . S
C120 O140 1.257 . S
C120 O141 1.260 . S
Eu121 C120 2.835 . S
Eu121 O140 2.473 . S
Eu121 O141 2.480 . S
Eu121 O142 2.430 . S
Eu121 O143 2.670 . S
Eu121 O144 2.394 . S
Eu121 O149 2.355 . S
Eu121 O151 2.374 . S
C122 C120 1.500 . S
C122 C123 1.377 . S
C122 C127 1.377 . S
C123 C122 1.377 . S
C123 C124 1.395 . S
C123 H152 0.931 . S
C124 C123 1.395 . S
C124 C125 1.383 . S
C124 H153 0.931 . S
C125 C124 1.383 . S
C125 C126 1.394 . S
C126 C125 1.394 . S
C126 C127 1.378 . S
C126 H154 0.931 . S
C127 C122 1.377 . S
C127 C126 1.378 . S
C127 H155 0.931 . S
C128 O142 1.259 . S
C128 O143 1.270 . S
C129 O144 1.251 . S
C129 O145 1.251 . S
C130 Eu131 2.835 . S
C130 C132 1.500 . S
C130 O146 1.257 . S
C130 O147 1.260 . S
Eu131 C130 2.835 . S
Eu131 O143 2.355 . S
Eu131 O145 2.374 . S
Eu131 O146 2.473 . S
Eu131 O147 2.480 . S
Eu131 O148 2.430 . S
Eu131 O149 2.670 . S
Eu131 O150 2.394 . S
C132 C130 1.500 . S
C132 C133 1.377 . S
C132 C137 1.377 . S
C133 C132 1.377 . S
C133 C134 1.395 1_545 S
C133 H156 0.931 . S
C134 C133 1.395 1_565 S
C134 C135 1.383 . S
C134 H157 0.931 . S
C135 C134 1.383 . S
C135 C136 1.394 . S
C136 C135 1.394 . S
C136 C137 1.378 1_565 S
C136 H158 0.931 . S
C137 C132 1.377 . S
C137 C136 1.378 1_545 S
C137 H159 0.931 . S
C138 O148 1.259 . S
C138 O149 1.270 . S
C139 O150 1.251 . S
C139 O151 1.251 . S
O140 C120 1.257 . S
O140 Eu121 2.473 . S
O141 C120 1.260 . S
O141 Eu121 2.480 . S
O142 Eu121 2.430 . S
O142 C128 1.259 . S
O143 Eu121 2.670 . S
O143 C128 1.270 . S
O143 Eu131 2.355 . S
O144 Eu121 2.394 . S
O144 C129 1.251 . S
O145 C129 1.251 . S
O145 Eu131 2.374 . S
O146 C130 1.257 . S
O146 Eu131 2.473 . S
O147 C130 1.260 . S
O147 Eu131 2.480 . S
O148 Eu131 2.430 . S
O148 C138 1.259 . S
O149 Eu121 2.355 . S
O149 Eu131 2.670 . S
O149 C138 1.270 . S
O150 Eu131 2.394 . S
O150 C139 1.251 . S
O151 Eu121 2.374 . S
O151 C139 1.251 . S
H152 C123 0.931 . S
H153 C124 0.931 . S
H154 C126 0.931 . S
H155 C127 0.931 . S
H156 C133 0.931 . S
H157 C134 0.931 . S
H158 C136 0.931 . S
H159 C137 0.931 . S
C160 Eu161 2.835 . S
C160 C162 1.500 . S
C160 O180 1.257 . S
C160 O181 1.260 . S
Eu161 C160 2.835 . S
Eu161 O180 2.473 . S
Eu161 O181 2.480 . S
Eu161 O182 2.430 . S
Eu161 O183 2.670 . S
Eu161 O184 2.394 . S
Eu161 O189 2.355 . S
Eu161 O191 2.374 . S
C162 C160 1.500 . S
C162 C163 1.377 . S
C162 C167 1.377 . S
C163 C162 1.377 . S
C163 C164 1.395 . S
C163 H192 0.931 . S
C164 C163 1.395 . S
C164 C165 1.383 . S
C164 H193 0.931 . S
C165 C164 1.383 . S
C165 C166 1.394 . S
C166 C165 1.394 . S
C166 C167 1.378 . S
C166 H194 0.931 . S
C167 C162 1.377 . S
C167 C166 1.378 . S
C167 H195 0.931 . S
C168 O182 1.259 . S
C168 O183 1.270 . S
C169 O184 1.251 . S
C169 O185 1.251 . S
C170 Eu171 2.835 . S
C170 C172 1.500 . S
C170 O186 1.257 . S
C170 O187 1.260 . S
Eu171 C170 2.835 . S
Eu171 O183 2.355 . S
Eu171 O185 2.374 . S
Eu171 O186 2.473 . S
Eu171 O187 2.480 . S
Eu171 O188 2.430 . S
Eu171 O189 2.670 . S
Eu171 O190 2.394 . S
C172 C170 1.500 . S
C172 C173 1.377 . S
C172 C177 1.377 . S
C173 C172 1.377 . S
C173 C174 1.395 . S
C173 H196 0.931 . S
C174 C173 1.395 . S
C174 C175 1.383 . S
C174 H197 0.931 . S
C175 C174 1.383 . S
C175 C176 1.394 . S
C176 C175 1.394 . S
C176 C177 1.378 . S
C176 H198 0.931 . S
C177 C172 1.377 . S
C177 C176 1.378 . S
C177 H199 0.931 . S
C178 O188 1.259 . S
C178 O189 1.270 . S
C179 O190 1.251 . S
C179 O191 1.251 . S
O180 C160 1.257 . S
O180 Eu161 2.473 . S
O181 C160 1.260 . S
O181 Eu161 2.480 . S
O182 Eu161 2.430 . S
O182 C168 1.259 . S
O183 Eu161 2.670 . S
O183 C168 1.270 . S
O183 Eu171 2.355 . S
O184 Eu161 2.394 . S
O184 C169 1.251 . S
O185 C169 1.251 . S
O185 Eu171 2.374 . S
O186 C170 1.257 . S
O186 Eu171 2.473 . S
O187 C170 1.260 . S
O187 Eu171 2.480 . S
O188 Eu171 2.430 . S
O188 C178 1.259 . S
O189 Eu161 2.355 . S
O189 Eu171 2.670 . S
O189 C178 1.270 . S
O190 Eu171 2.394 . S
O190 C179 1.251 . S
O191 Eu161 2.374 . S
O191 C179 1.251 . S
H192 C163 0.931 . S
H193 C164 0.931 . S
H194 C166 0.931 . S
H195 C167 0.931 . S
H196 C173 0.931 . S
H197 C174 0.931 . S
H198 C176 0.931 . S
H199 C177 0.931 . S
C200 Eu201 2.835 . S
C200 C202 1.500 . S
C200 O220 1.257 . S
C200 O221 1.260 . S
Eu201 C200 2.835 . S
Eu201 O220 2.473 . S
Eu201 O221 2.480 . S
Eu201 O222 2.430 . S
Eu201 O223 2.670 . S
Eu201 O224 2.394 . S
Eu201 O229 2.355 . S
Eu201 O231 2.374 . S
C202 C200 1.500 . S
C202 C203 1.377 . S
C202 C207 1.377 . S
C203 C202 1.377 . S
C203 C204 1.395 . S
C203 H232 0.931 . S
C204 C203 1.395 . S
C204 C205 1.383 . S
C204 H233 0.931 . S
C205 C204 1.383 . S
C205 C206 1.394 . S
C206 C205 1.394 . S
C206 C207 1.378 . S
C206 H234 0.931 . S
C207 C202 1.377 . S
C207 C206 1.378 . S
C207 H235 0.931 . S
C208 O222 1.259 . S
C208 O223 1.270 . S
C209 O224 1.251 . S
C209 O225 1.251 . S
C210 Eu211 2.835 . S
C210 C212 1.500 . S
C210 O226 1.257 . S
C210 O227 1.260 . S
Eu211 C210 2.835 . S
Eu211 O223 2.355 . S
Eu211 O225 2.374 . S
Eu211 O226 2.473 . S
Eu211 O227 2.480 . S
Eu211 O228 2.430 . S
Eu211 O229 2.670 . S
Eu211 O230 2.394 . S
C212 C210 1.500 . S
C212 C213 1.377 . S
C212 C217 1.377 . S
C213 C212 1.377 . S
C213 C214 1.395 1_655 S
C213 H236 0.931 . S
C214 C213 1.395 1_455 S
C214 C215 1.383 . S
C214 H237 0.931 . S
C215 C214 1.383 . S
C215 C216 1.394 . S
C216 C215 1.394 . S
C216 C217 1.378 1_455 S
C216 H238 0.931 . S
C217 C212 1.377 . S
C217 C216 1.378 1_655 S
C217 H239 0.931 . S
C218 O228 1.259 . S
C218 O229 1.270 . S
C219 O230 1.251 . S
C219 O231 1.251 . S
O220 C200 1.257 . S
O220 Eu201 2.473 . S
O221 C200 1.260 . S
O221 Eu201 2.480 . S
O222 Eu201 2.430 . S
O222 C208 1.259 . S
O223 Eu201 2.670 . S
O223 C208 1.270 . S
O223 Eu211 2.355 . S
O224 Eu201 2.394 . S
O224 C209 1.251 . S
O225 C209 1.251 . S
O225 Eu211 2.374 . S
O226 C210 1.257 . S
O226 Eu211 2.473 . S
O227 C210 1.260 . S
O227 Eu211 2.480 . S
O228 Eu211 2.430 . S
O228 C218 1.259 . S
O229 Eu201 2.355 . S
O229 Eu211 2.670 . S
O229 C218 1.270 . S
O230 Eu211 2.394 . S
O230 C219 1.251 . S
O231 Eu201 2.374 . S
O231 C219 1.251 . S
H232 C203 0.931 . S
H233 C204 0.931 . S
H234 C206 0.931 . S
H235 C207 0.931 . S
H236 C213 0.931 . S
H237 C214 0.931 . S
H238 C216 0.931 . S
H239 C217 0.931 . S
C240 Eu241 2.835 . S
C240 C242 1.500 . S
C240 O260 1.257 . S
C240 O261 1.260 . S
Eu241 C240 2.835 . S
Eu241 O260 2.473 . S
Eu241 O261 2.480 . S
Eu241 O262 2.430 . S
Eu241 O263 2.670 . S
Eu241 O264 2.394 . S
Eu241 O269 2.355 . S
Eu241 O271 2.374 . S
C242 C240 1.500 . S
C242 C243 1.377 . S
C242 C247 1.377 . S
C243 C242 1.377 . S
C243 C244 1.395 . S
C243 H272 0.931 . S
C244 C243 1.395 . S
C244 C245 1.383 . S
C244 H273 0.931 . S
C245 C244 1.383 . S
C245 C246 1.394 . S
C246 C245 1.394 . S
C246 C247 1.378 . S
C246 H274 0.931 . S
C247 C242 1.377 . S
C247 C246 1.378 . S
C247 H275 0.931 . S
C248 O262 1.259 . S
C248 O263 1.270 . S
C249 O264 1.251 . S
C249 O265 1.251 . S
C250 Eu251 2.835 . S
C250 C252 1.500 . S
C250 O266 1.257 . S
C250 O267 1.260 . S
Eu251 C250 2.835 . S
Eu251 O263 2.355 . S
Eu251 O265 2.374 . S
Eu251 O266 2.473 . S
Eu251 O267 2.480 . S
Eu251 O268 2.430 . S
Eu251 O269 2.670 . S
Eu251 O270 2.394 . S
C252 C250 1.500 . S
C252 C253 1.377 . S
C252 C257 1.377 . S
C253 C252 1.377 . S
C253 C254 1.395 1_455 S
C253 H276 0.931 . S
C254 C253 1.395 1_655 S
C254 C255 1.383 . S
C254 H277 0.931 . S
C255 C254 1.383 . S
C255 C256 1.394 . S
C256 C255 1.394 . S
C256 C257 1.378 1_655 S
C256 H278 0.931 . S
C257 C252 1.377 . S
C257 C256 1.378 1_455 S
C257 H279 0.931 . S
C258 O268 1.259 . S
C258 O269 1.270 . S
C259 O270 1.251 . S
C259 O271 1.251 . S
O260 C240 1.257 . S
O260 Eu241 2.473 . S
O261 C240 1.260 . S
O261 Eu241 2.480 . S
O262 Eu241 2.430 . S
O262 C248 1.259 . S
O263 Eu241 2.670 . S
O263 C248 1.270 . S
O263 Eu251 2.355 . S
O264 Eu241 2.394 . S
O264 C249 1.251 . S
O265 C249 1.251 . S
O265 Eu251 2.374 . S
O266 C250 1.257 . S
O266 Eu251 2.473 . S
O267 C250 1.260 . S
O267 Eu251 2.480 . S
O268 Eu251 2.430 . S
O268 C258 1.259 . S
O269 Eu241 2.355 . S
O269 Eu251 2.670 . S
O269 C258 1.270 . S
O270 Eu251 2.394 . S
O270 C259 1.251 . S
O271 Eu241 2.374 . S
O271 C259 1.251 . S
H272 C243 0.931 . S
H273 C244 0.931 . S
H274 C246 0.931 . S
H275 C247 0.931 . S
H276 C253 0.931 . S
H277 C254 0.931 . S
H278 C256 0.931 . S
H279 C257 0.931 . S
C280 Eu281 2.835 . S
C280 C282 1.500 . S
C280 O300 1.257 . S
C280 O301 1.260 . S
Eu281 C280 2.835 . S
Eu281 O300 2.473 . S
Eu281 O301 2.480 . S
Eu281 O302 2.430 . S
Eu281 O303 2.670 . S
Eu281 O304 2.394 . S
Eu281 O309 2.355 . S
Eu281 O311 2.374 . S
C282 C280 1.500 . S
C282 C283 1.377 . S
C282 C287 1.377 . S
C283 C282 1.377 . S
C283 C284 1.395 1_565 S
C283 H312 0.931 . S
C284 C283 1.395 1_545 S
C284 C285 1.383 . S
C284 H313 0.931 . S
C285 C284 1.383 . S
C285 C286 1.394 . S
C286 C285 1.394 . S
C286 C287 1.378 1_545 S
C286 H314 0.931 . S
C287 C282 1.377 . S
C287 C286 1.378 1_565 S
C287 H315 0.931 . S
C288 O302 1.259 . S
C288 O303 1.270 . S
C289 O304 1.251 . S
C289 O305 1.251 . S
C290 Eu291 2.835 . S
C290 C292 1.500 . S
C290 O306 1.257 . S
C290 O307 1.260 . S
Eu291 C290 2.835 . S
Eu291 O303 2.355 . S
Eu291 O305 2.374 . S
Eu291 O306 2.473 . S
Eu291 O307 2.480 . S
Eu291 O308 2.430 . S
Eu291 O309 2.670 . S
Eu291 O310 2.394 . S
C292 C290 1.500 . S
C292 C293 1.377 . S
C292 C297 1.377 . S
C293 C292 1.377 . S
C293 C294 1.395 . S
C293 H316 0.931 . S
C294 C293 1.395 . S
C294 C295 1.383 . S
C294 H317 0.931 . S
C295 C294 1.383 . S
C295 C296 1.394 . S
C296 C295 1.394 . S
C296 C297 1.378 . S
C296 H318 0.931 . S
C297 C292 1.377 . S
C297 C296 1.378 . S
C297 H319 0.931 . S
C298 O308 1.259 . S
C298 O309 1.270 . S
C299 O310 1.251 . S
C299 O311 1.251 . S
O300 C280 1.257 . S
O300 Eu281 2.473 . S
O301 C280 1.260 . S
O301 Eu281 2.480 . S
O302 Eu281 2.430 . S
O302 C288 1.259 . S
O303 Eu281 2.670 . S
O303 C288 1.270 . S
O303 Eu291 2.355 . S
O304 Eu281 2.394 . S
O304 C289 1.251 . S
O305 C289 1.251 . S
O305 Eu291 2.374 . S
O306 C290 1.257 . S
O306 Eu291 2.473 . S
O307 C290 1.260 . S
O307 Eu291 2.480 . S
O308 Eu291 2.430 . S
O308 C298 1.259 . S
O309 Eu281 2.355 . S
O309 Eu291 2.670 . S
O309 C298 1.270 . S
O310 Eu291 2.394 . S
O310 C299 1.251 . S
O311 Eu281 2.374 . S
O311 C299 1.251 . S
H312 C283 0.931 . S
H313 C284 0.931 . S
H314 C286 0.931 . S
H315 C287 0.931 . S
H316 C293 0.931 . S
H317 C294 0.931 . S
H318 C296 0.931 . S
H319 C297 0.931 . S
C320 Eu321 2.835 . S
C320 C322 1.500 . S
C320 O340 1.257 . S
C320 O341 1.260 . S
Eu321 C320 2.835 . S
Eu321 O340 2.473 . S
Eu321 O341 2.480 . S
Eu321 O342 2.430 . S
Eu321 O343 2.670 . S
Eu321 O344 2.394 . S
Eu321 O349 2.355 . S
Eu321 O351 2.374 . S
C322 C320 1.500 . S
C322 C323 1.377 . S
C322 C327 1.377 . S
C323 C322 1.377 . S
C323 C324 1.395 . S
C323 H352 0.931 . S
C324 C323 1.395 . S
C324 C325 1.383 . S
C324 H353 0.931 . S
C325 C324 1.383 . S
C325 C326 1.394 . S
C326 C325 1.394 . S
C326 C327 1.378 . S
C326 H354 0.931 . S
C327 C322 1.377 . S
C327 C326 1.378 . S
C327 H355 0.931 . S
C328 O342 1.259 . S
C328 O343 1.270 . S
C329 O344 1.251 . S
C329 O345 1.251 . S
C330 Eu331 2.835 . S
C330 C332 1.500 . S
C330 O346 1.257 . S
C330 O347 1.260 . S
Eu331 C330 2.835 . S
Eu331 O343 2.355 . S
Eu331 O345 2.374 . S
Eu331 O346 2.473 . S
Eu331 O347 2.480 . S
Eu331 O348 2.430 . S
Eu331 O349 2.670 . S
Eu331 O350 2.394 . S
C332 C330 1.500 . S
C332 C333 1.377 . S
C332 C337 1.377 . S
C333 C332 1.377 . S
C333 C334 1.395 . S
C333 H356 0.931 . S
C334 C333 1.395 . S
C334 C335 1.383 . S
C334 H357 0.931 . S
C335 C334 1.383 . S
C335 C336 1.394 . S
C336 C335 1.394 . S
C336 C337 1.378 . S
C336 H358 0.931 . S
C337 C332 1.377 . S
C337 C336 1.378 . S
C337 H359 0.931 . S
C338 O348 1.259 . S
C338 O349 1.270 . S
C339 O350 1.251 . S
C339 O351 1.251 . S
O340 C320 1.257 . S
O340 Eu321 2.473 . S
O341 C320 1.260 . S
O341 Eu321 2.480 . S
O342 Eu321 2.430 . S
O342 C328 1.259 . S
O343 Eu321 2.670 . S
O343 C328 1.270 . S
O343 Eu331 2.355 . S
O344 Eu321 2.394 . S
O344 C329 1.251 . S
O345 C329 1.251 . S
O345 Eu331 2.374 . S
O346 C330 1.257 . S
O346 Eu331 2.473 . S
O347 C330 1.260 . S
O347 Eu331 2.480 . S
O348 Eu331 2.430 . S
O348 C338 1.259 . S
O349 Eu321 2.355 . S
O349 Eu331 2.670 . S
O349 C338 1.270 . S
O350 Eu331 2.394 . S
O350 C339 1.251 . S
O351 Eu321 2.374 . S
O351 C339 1.251 . S
H352 C323 0.931 . S
H353 C324 0.931 . S
H354 C326 0.931 . S
H355 C327 0.931 . S
H356 C333 0.931 . S
H357 C334 0.931 . S
H358 C336 0.931 . S
H359 C337 0.931 . S
C360 Eu361 2.835 . S
C360 C362 1.500 . S
C360 O380 1.257 . S
C360 O381 1.260 . S
Eu361 C360 2.835 . S
Eu361 O380 2.473 . S
Eu361 O381 2.480 . S
Eu361 O382 2.430 . S
Eu361 O383 2.670 . S
Eu361 O384 2.394 . S
Eu361 O389 2.355 . S
Eu361 O391 2.374 . S
C362 C360 1.500 . S
C362 C363 1.377 . S
C362 C367 1.377 . S
C363 C362 1.377 . S
C363 C364 1.395 1_455 S
C363 H392 0.931 . S
C364 C363 1.395 1_655 S
C364 C365 1.383 . S
C364 H393 0.931 . S
C365 C364 1.383 . S
C365 C366 1.394 . S
C366 C365 1.394 . S
C366 C367 1.378 1_655 S
C366 H394 0.931 . S
C367 C362 1.377 . S
C367 C366 1.378 1_455 S
C367 H395 0.931 . S
C368 O382 1.259 . S
C368 O383 1.270 . S
C369 O384 1.251 . S
C369 O385 1.251 . S
C370 Eu371 2.835 . S
C370 C372 1.500 . S
C370 O386 1.257 . S
C370 O387 1.260 . S
Eu371 C370 2.835 . S
Eu371 O383 2.355 . S
Eu371 O385 2.374 . S
Eu371 O386 2.473 . S
Eu371 O387 2.480 . S
Eu371 O388 2.430 . S
Eu371 O389 2.670 . S
Eu371 O390 2.394 . S
C372 C370 1.500 . S
C372 C373 1.377 . S
C372 C377 1.377 . S
C373 C372 1.377 . S
C373 C374 1.395 . S
C373 H396 0.931 . S
C374 C373 1.395 . S
C374 C375 1.383 . S
C374 H397 0.931 . S
C375 C374 1.383 . S
C375 C376 1.394 . S
C376 C375 1.394 . S
C376 C377 1.378 . S
C376 H398 0.931 . S
C377 C372 1.377 . S
C377 C376 1.378 . S
C377 H399 0.931 . S
C378 O388 1.259 . S
C378 O389 1.270 . S
C379 O390 1.251 . S
C379 O391 1.251 . S
O380 C360 1.257 . S
O380 Eu361 2.473 . S
O381 C360 1.260 . S
O381 Eu361 2.480 . S
O382 Eu361 2.430 . S
O382 C368 1.259 . S
O383 Eu361 2.670 . S
O383 C368 1.270 . S
O383 Eu371 2.355 . S
O384 Eu361 2.394 . S
O384 C369 1.251 . S
O385 C369 1.251 . S
O385 Eu371 2.374 . S
O386 C370 1.257 . S
O386 Eu371 2.473 . S
O387 C370 1.260 . S
O387 Eu371 2.480 . S
O388 Eu371 2.430 . S
O388 C378 1.259 . S
O389 Eu361 2.355 . S
O389 Eu371 2.670 . S
O389 C378 1.270 . S
O390 Eu371 2.394 . S
O390 C379 1.251 . S
O391 Eu361 2.374 . S
O391 C379 1.251 . S
H392 C363 0.931 . S
H393 C364 0.931 . S
H394 C366 0.931 . S
H395 C367 0.931 . S
H396 C373 0.931 . S
H397 C374 0.931 . S
H398 C376 0.931 . S
H399 C377 0.931 . S
C400 Eu401 2.835 . S
C400 C402 1.500 . S
C400 O420 1.257 . S
C400 O421 1.260 . S
Eu401 C400 2.835 . S
Eu401 O420 2.473 . S
Eu401 O421 2.480 . S
Eu401 O422 2.430 . S
Eu401 O423 2.670 . S
Eu401 O424 2.394 . S
Eu401 O429 2.355 . S
Eu401 O431 2.374 . S
C402 C400 1.500 . S
C402 C403 1.377 . S
C402 C407 1.377 . S
C403 C402 1.377 . S
C403 C404 1.395 . S
C403 H432 0.931 . S
C404 C403 1.395 . S
C404 C405 1.383 . S
C404 H433 0.931 . S
C405 C404 1.383 . S
C405 C406 1.394 . S
C406 C405 1.394 . S
C406 C407 1.378 . S
C406 H434 0.931 . S
C407 C402 1.377 . S
C407 C406 1.378 . S
C407 H435 0.931 . S
C408 O422 1.259 . S
C408 O423 1.270 . S
C409 O424 1.251 . S
C409 O425 1.251 . S
C410 Eu411 2.835 . S
C410 C412 1.500 . S
C410 O426 1.257 . S
C410 O427 1.260 . S
Eu411 C410 2.835 . S
Eu411 O423 2.355 . S
Eu411 O425 2.374 . S
Eu411 O426 2.473 . S
Eu411 O427 2.480 . S
Eu411 O428 2.430 . S
Eu411 O429 2.670 . S
Eu411 O430 2.394 . S
C412 C410 1.500 . S
C412 C413 1.377 . S
C412 C417 1.377 . S
C413 C412 1.377 . S
C413 C414 1.395 1_565 S
C413 H436 0.931 . S
C414 C413 1.395 1_545 S
C414 C415 1.383 . S
C414 H437 0.931 . S
C415 C414 1.383 . S
C415 C416 1.394 . S
C416 C415 1.394 . S
C416 C417 1.378 1_545 S
C416 H438 0.931 . S
C417 C412 1.377 . S
C417 C416 1.378 1_565 S
C417 H439 0.931 . S
C418 O428 1.259 . S
C418 O429 1.270 . S
C419 O430 1.251 . S
C419 O431 1.251 . S
O420 C400 1.257 . S
O420 Eu401 2.473 . S
O421 C400 1.260 . S
O421 Eu401 2.480 . S
O422 Eu401 2.430 . S
O422 C408 1.259 . S
O423 Eu401 2.670 . S
O423 C408 1.270 . S
O423 Eu411 2.355 . S
O424 Eu401 2.394 . S
O424 C409 1.251 . S
O425 C409 1.251 . S
O425 Eu411 2.374 . S
O426 C410 1.257 . S
O426 Eu411 2.473 . S
O427 C410 1.260 . S
O427 Eu411 2.480 . S
O428 Eu411 2.430 . S
O428 C418 1.259 . S
O429 Eu401 2.355 . S
O429 Eu411 2.670 . S
O429 C418 1.270 . S
O430 Eu411 2.394 . S
O430 C419 1.251 . S
O431 Eu401 2.374 . S
O431 C419 1.251 . S
H432 C403 0.931 . S
H433 C404 0.931 . S
H434 C406 0.931 . S
H435 C407 0.931 . S
H436 C413 0.931 . S
H437 C414 0.931 . S
H438 C416 0.931 . S
H439 C417 0.931 . S
C440 Eu441 2.835 . S
C440 C442 1.500 . S
C440 O460 1.257 . S
C440 O461 1.260 . S
Eu441 C440 2.835 . S
Eu441 O460 2.473 . S
Eu441 O461 2.480 . S
Eu441 O462 2.430 . S
Eu441 O463 2.670 . S
Eu441 O464 2.394 . S
Eu441 O469 2.355 . S
Eu441 O471 2.374 . S
C442 C440 1.500 . S
C442 C443 1.377 . S
C442 C447 1.377 . S
C443 C442 1.377 . S
C443 C444 1.395 . S
C443 H472 0.931 . S
C444 C443 1.395 . S
C444 C445 1.383 . S
C444 H473 0.931 . S
C445 C444 1.383 . S
C445 C446 1.394 . S
C446 C445 1.394 . S
C446 C447 1.378 . S
C446 H474 0.931 . S
C447 C442 1.377 . S
C447 C446 1.378 . S
C447 H475 0.931 . S
C448 O462 1.259 . S
C448 O463 1.270 . S
C449 O464 1.251 . S
C449 O465 1.251 . S
C450 Eu451 2.835 . S
C450 C452 1.500 . S
C450 O466 1.257 . S
C450 O467 1.260 . S
Eu451 C450 2.835 . S
Eu451 O463 2.355 . S
Eu451 O465 2.374 . S
Eu451 O466 2.473 . S
Eu451 O467 2.480 . S
Eu451 O468 2.430 . S
Eu451 O469 2.670 . S
Eu451 O470 2.394 . S
C452 C450 1.500 . S
C452 C453 1.377 . S
C452 C457 1.377 . S
C453 C452 1.377 . S
C453 C454 1.395 . S
C453 H476 0.931 . S
C454 C453 1.395 . S
C454 C455 1.383 . S
C454 H477 0.931 . S
C455 C454 1.383 . S
C455 C456 1.394 . S
C456 C455 1.394 . S
C456 C457 1.378 . S
C456 H478 0.931 . S
C457 C452 1.377 . S
C457 C456 1.378 . S
C457 H479 0.931 . S
C458 O468 1.259 . S
C458 O469 1.270 . S
C459 O470 1.251 . S
C459 O471 1.251 . S
O460 C440 1.257 . S
O460 Eu441 2.473 . S
O461 C440 1.260 . S
O461 Eu441 2.480 . S
O462 Eu441 2.430 . S
O462 C448 1.259 . S
O463 Eu441 2.670 . S
O463 C448 1.270 . S
O463 Eu451 2.355 . S
O464 Eu441 2.394 . S
O464 C449 1.251 . S
O465 C449 1.251 . S
O465 Eu451 2.374 . S
O466 C450 1.257 . S
O466 Eu451 2.473 . S
O467 C450 1.260 . S
O467 Eu451 2.480 . S
O468 Eu451 2.430 . S
O468 C458 1.259 . S
O469 Eu441 2.355 . S
O469 Eu451 2.670 . S
O469 C458 1.270 . S
O470 Eu451 2.394 . S
O470 C459 1.251 . S
O471 Eu441 2.374 . S
O471 C459 1.251 . S
H472 C443 0.931 . S
H473 C444 0.931 . S
H474 C446 0.931 . S
H475 C447 0.931 . S
H476 C453 0.931 . S
H477 C454 0.931 . S
H478 C456 0.931 . S
H479 C457 0.931 . S
C480 C481 1.349 . S
C480 C482 1.327 . S
C480 H505 0.950 . S
C481 C480 1.349 . S
C481 C497 1.349 . S
C482 C480 1.327 . S
C482 C501 1.429 . S
C482 H506 0.950 . S
C483 C500 1.574 . S
C483 C502 1.368 . S
C483 H507 0.949 . S
H484 C488 0.949 . S
C485 C486 1.349 . S
C485 C487 1.327 . S
C485 H508 0.950 . S
C486 C485 1.349 . S
C486 C498 1.349 . S
C487 C485 1.327 . S
C487 C503 1.429 . S
C487 H509 0.950 . S
C488 H484 0.949 . S
C488 C496 1.574 . S
C488 C504 1.368 . S
H489 C497 0.950 . S
H490 C495 0.950 . S
H491 C496 0.949 . S
H492 C498 0.950 . S
H493 C499 0.950 . S
H494 C500 0.949 . S
C495 H490 0.950 . S
C495 C497 1.327 . S
C495 C501 1.429 . S
C496 C488 1.574 . S
C496 H491 0.949 . S
C496 C502 1.368 . S
C497 C481 1.349 . S
C497 H489 0.950 . S
C497 C495 1.327 . S
C498 C486 1.349 . S
C498 H492 0.950 . S
C498 C499 1.327 . S
C499 H493 0.950 . S
C499 C498 1.327 . S
C499 C503 1.429 . S
C500 C483 1.574 . S
C500 H494 0.949 . S
C500 C504 1.368 . S
C501 C482 1.429 . S
C501 C495 1.429 . S
C501 C502 1.523 . S
C502 C483 1.368 . S
C502 C496 1.368 . S
C502 C501 1.523 . S
C503 C487 1.429 . S
C503 C499 1.429 . S
C503 C504 1.523 . S
C504 C488 1.368 . S
C504 C500 1.368 . S
C504 C503 1.523 . S
H505 C480 0.950 . S
H506 C482 0.950 . S
H507 C483 0.949 . S
H508 C485 0.950 . S
H509 C487 0.950 . S
C510 C511 1.349 . S
C510 C512 1.327 . S
C510 H535 0.950 . S
C511 C510 1.349 . S
C511 C527 1.349 . S
C512 C510 1.327 . S
C512 C531 1.429 . S
C512 H536 0.950 . S
C513 C530 1.574 1_455 S
C513 C532 1.368 . S
C513 H537 0.949 . S
H514 C518 0.949 . S
C515 C516 1.349 . S
C515 C517 1.327 . S
C515 H538 0.950 . S
C516 C515 1.349 . S
C516 C528 1.349 . S
C517 C515 1.327 . S
C517 C533 1.429 . S
C517 H539 0.950 . S
C518 H514 0.949 . S
C518 C526 1.574 1_655 S
C518 C534 1.368 . S
H519 C527 0.950 . S
H520 C525 0.950 . S
H521 C526 0.949 . S
H522 C528 0.950 . S
H523 C529 0.950 . S
H524 C530 0.949 . S
C525 H520 0.950 . S
C525 C527 1.327 . S
C525 C531 1.429 . S
C526 C518 1.574 1_455 S
C526 H521 0.949 . S
C526 C532 1.368 . S
C527 C511 1.349 . S
C527 H519 0.950 . S
C527 C525 1.327 . S
C528 C516 1.349 . S
C528 H522 0.950 . S
C528 C529 1.327 . S
C529 H523 0.950 . S
C529 C528 1.327 . S
C529 C533 1.429 . S
C530 C513 1.574 1_655 S
C530 H524 0.949 . S
C530 C534 1.368 . S
C531 C512 1.429 . S
C531 C525 1.429 . S
C531 C532 1.523 . S
C532 C513 1.368 . S
C532 C526 1.368 . S
C532 C531 1.523 . S
C533 C517 1.429 . S
C533 C529 1.429 . S
C533 C534 1.523 . S
C534 C518 1.368 . S
C534 C530 1.368 . S
C534 C533 1.523 . S
H535 C510 0.950 . S
H536 C512 0.950 . S
H537 C513 0.949 . S
H538 C515 0.950 . S
H539 C517 0.950 . S
C540 C541 1.349 . S
C540 C542 1.327 . S
C540 H565 0.950 . S
C541 C540 1.349 . S
C541 C557 1.349 . S
C542 C540 1.327 . S
C542 C561 1.429 . S
C542 H566 0.950 . S
C543 C560 1.574 1_545 S
C543 C562 1.368 . S
C543 H567 0.949 . S
H544 C548 0.949 . S
C545 C546 1.349 . S
C545 C547 1.327 . S
C545 H568 0.950 . S
C546 C545 1.349 . S
C546 C558 1.349 . S
C547 C545 1.327 . S
C547 C563 1.429 . S
C547 H569 0.950 . S
C548 H544 0.949 . S
C548 C556 1.574 1_565 S
C548 C564 1.368 . S
H549 C557 0.950 . S
H550 C555 0.950 . S
H551 C556 0.949 . S
H552 C558 0.950 . S
H553 C559 0.950 . S
H554 C560 0.949 . S
C555 H550 0.950 . S
C555 C557 1.327 . S
C555 C561 1.429 . S
C556 C548 1.574 1_545 S
C556 H551 0.949 . S
C556 C562 1.368 . S
C557 C541 1.349 . S
C557 H549 0.950 . S
C557 C555 1.327 . S
C558 C546 1.349 . S
C558 H552 0.950 . S
C558 C559 1.327 . S
C559 H553 0.950 . S
C559 C558 1.327 . S
C559 C563 1.429 . S
C560 C543 1.574 1_565 S
C560 H554 0.949 . S
C560 C564 1.368 . S
C561 C542 1.429 . S
C561 C555 1.429 . S
C561 C562 1.523 . S
C562 C543 1.368 . S
C562 C556 1.368 . S
C562 C561 1.523 . S
C563 C547 1.429 . S
C563 C559 1.429 . S
C563 C564 1.523 . S
C564 C548 1.368 . S
C564 C560 1.368 . S
C564 C563 1.523 . S
H565 C540 0.950 . S
H566 C542 0.950 . S
H567 C543 0.949 . S
H568 C545 0.950 . S
H569 C547 0.950 . S
C570 C571 1.349 . S
C570 C572 1.327 . S
C570 H595 0.950 . S
C571 C570 1.349 . S
C571 C587 1.349 . S
C572 C570 1.327 . S
C572 C591 1.429 . S
C572 H596 0.950 . S
C573 C590 1.574 . S
C573 C592 1.368 . S
C573 H597 0.949 . S
H574 C578 0.949 . S
C575 C576 1.349 . S
C575 C577 1.327 . S
C575 H598 0.950 . S
C576 C575 1.349 . S
C576 C588 1.349 . S
C577 C575 1.327 . S
C577 C593 1.429 . S
C577 H599 0.950 . S
C578 H574 0.949 . S
C578 C586 1.574 . S
C578 C594 1.368 . S
H579 C587 0.950 . S
H580 C585 0.950 . S
H581 C586 0.949 . S
H582 C588 0.950 . S
H583 C589 0.950 . S
H584 C590 0.949 . S
C585 H580 0.950 . S
C585 C587 1.327 . S
C585 C591 1.429 . S
C586 C578 1.574 . S
C586 H581 0.949 . S
C586 C592 1.368 . S
C587 C571 1.349 . S
C587 H579 0.950 . S
C587 C585 1.327 . S
C588 C576 1.349 . S
C588 H582 0.950 . S
C588 C589 1.327 . S
C589 H583 0.950 . S
C589 C588 1.327 . S
C589 C593 1.429 . S
C590 C573 1.574 . S
C590 H584 0.949 . S
C590 C594 1.368 . S
C591 C572 1.429 . S
C591 C585 1.429 . S
C591 C592 1.523 . S
C592 C573 1.368 . S
C592 C586 1.368 . S
C592 C591 1.523 . S
C593 C577 1.429 . S
C593 C589 1.429 . S
C593 C594 1.523 . S
C594 C578 1.368 . S
C594 C590 1.368 . S
C594 C593 1.523 . S
H595 C570 0.950 . S
H596 C572 0.950 . S
H597 C573 0.949 . S
H598 C575 0.950 . S
H599 C577 0.950 . S
C600 C601 1.349 . S
C600 C602 1.327 . S
C600 H625 0.950 . S
C601 C600 1.349 . S
C601 C617 1.349 . S
C602 C600 1.327 . S
C602 C621 1.429 . S
C602 H626 0.950 . S
C603 C620 1.574 1_455 S
C603 C622 1.368 . S
C603 H627 0.949 . S
H604 C608 0.949 . S
C605 C606 1.349 . S
C605 C607 1.327 . S
C605 H628 0.950 . S
C606 C605 1.349 . S
C606 C618 1.349 . S
C607 C605 1.327 . S
C607 C623 1.429 . S
C607 H629 0.950 . S
C608 H604 0.949 . S
C608 C616 1.574 1_655 S
C608 C624 1.368 . S
H609 C617 0.950 . S
H610 C615 0.950 . S
H611 C616 0.949 . S
H612 C618 0.950 . S
H613 C619 0.950 . S
H614 C620 0.949 . S
C615 H610 0.950 . S
C615 C617 1.327 . S
C615 C621 1.429 . S
C616 C608 1.574 1_455 S
C616 H611 0.949 . S
C616 C622 1.368 . S
C617 C601 1.349 . S
C617 H609 0.950 . S
C617 C615 1.327 . S
C618 C606 1.349 . S
C618 H612 0.950 . S
C618 C619 1.327 . S
C619 H613 0.950 . S
C619 C618 1.327 . S
C619 C623 1.429 . S
C620 C603 1.574 1_655 S
C620 H614 0.949 . S
C620 C624 1.368 . S
C621 C602 1.429 . S
C621 C615 1.429 . S
C621 C622 1.523 . S
C622 C603 1.368 . S
C622 C616 1.368 . S
C622 C621 1.523 . S
C623 C607 1.429 . S
C623 C619 1.429 . S
C623 C624 1.523 . S
C624 C608 1.368 . S
C624 C620 1.368 . S
C624 C623 1.523 . S
H625 C600 0.950 . S
H626 C602 0.950 . S
H627 C603 0.949 . S
H628 C605 0.950 . S
H629 C607 0.950 . S
C630 C631 1.349 . S
C630 C632 1.327 . S
C630 H655 0.950 . S
C631 C630 1.349 . S
C631 C647 1.349 . S
C632 C630 1.327 . S
C632 C651 1.429 . S
C632 H656 0.950 . S
C633 C650 1.574 1_565 S
C633 C652 1.368 . S
C633 H657 0.949 . S
H634 C638 0.949 . S
C635 C636 1.349 . S
C635 C637 1.327 . S
C635 H658 0.950 . S
C636 C635 1.349 . S
C636 C648 1.349 . S
C637 C635 1.327 . S
C637 C653 1.429 . S
C637 H659 0.950 . S
C638 H634 0.949 . S
C638 C646 1.574 1_545 S
C638 C654 1.368 . S
H639 C647 0.950 . S
H640 C645 0.950 . S
H641 C646 0.949 . S
H642 C648 0.950 . S
H643 C649 0.950 . S
H644 C650 0.949 . S
C645 H640 0.950 . S
C645 C647 1.327 . S
C645 C651 1.429 . S
C646 C638 1.574 1_565 S
C646 H641 0.949 . S
C646 C652 1.368 . S
C647 C631 1.349 . S
C647 H639 0.950 . S
C647 C645 1.327 . S
C648 C636 1.349 . S
C648 H642 0.950 . S
C648 C649 1.327 . S
C649 H643 0.950 . S
C649 C648 1.327 . S
C649 C653 1.429 . S
C650 C633 1.574 1_545 S
C650 H644 0.949 . S
C650 C654 1.368 . S
C651 C632 1.429 . S
C651 C645 1.429 . S
C651 C652 1.523 . S
C652 C633 1.368 . S
C652 C646 1.368 . S
C652 C651 1.523 . S
C653 C637 1.429 . S
C653 C649 1.429 . S
C653 C654 1.523 . S
C654 C638 1.368 . S
C654 C650 1.368 . S
C654 C653 1.523 . S
H655 C630 0.950 . S
H656 C632 0.950 . S
H657 C633 0.949 . S
H658 C635 0.950 . S
H659 C637 0.950 . S
C660 C661 1.349 . S
C660 C662 1.327 . S
C660 H685 0.950 . S
C661 C660 1.349 . S
C661 C677 1.349 . S
C662 C660 1.327 . S
C662 C681 1.429 . S
C662 H686 0.950 . S
C663 C680 1.574 . S
C663 C682 1.368 . S
C663 H687 0.949 . S
H664 C668 0.949 . S
C665 C666 1.349 . S
C665 C667 1.327 . S
C665 H688 0.950 . S
C666 C665 1.349 . S
C666 C678 1.349 . S
C667 C665 1.327 . S
C667 C683 1.429 . S
C667 H689 0.950 . S
C668 H664 0.949 . S
C668 C676 1.574 . S
C668 C684 1.368 . S
H669 C677 0.950 . S
H670 C675 0.950 . S
H671 C676 0.949 . S
H672 C678 0.950 . S
H673 C679 0.950 . S
H674 C680 0.949 . S
C675 H670 0.950 . S
C675 C677 1.327 . S
C675 C681 1.429 . S
C676 C668 1.574 . S
C676 H671 0.949 . S
C676 C682 1.368 . S
C677 C661 1.349 . S
C677 H669 0.950 . S
C677 C675 1.327 . S
C678 C666 1.349 . S
C678 H672 0.950 . S
C678 C679 1.327 . S
C679 H673 0.950 . S
C679 C678 1.327 . S
C679 C683 1.429 . S
C680 C663 1.574 . S
C680 H674 0.949 . S
C680 C684 1.368 . S
C681 C662 1.429 . S
C681 C675 1.429 . S
C681 C682 1.523 . S
C682 C663 1.368 . S
C682 C676 1.368 . S
C682 C681 1.523 . S
C683 C667 1.429 . S
C683 C679 1.429 . S
C683 C684 1.523 . S
C684 C668 1.368 . S
C684 C680 1.368 . S
C684 C683 1.523 . S
H685 C660 0.950 . S
H686 C662 0.950 . S
H687 C663 0.949 . S
H688 C665 0.950 . S
H689 C667 0.950 . S
C690 C691 1.349 . S
C690 C692 1.327 . S
C690 H715 0.950 . S
C691 C690 1.349 . S
C691 C707 1.349 . S
C692 C690 1.327 . S
C692 C711 1.429 . S
C692 H716 0.950 . S
C693 C710 1.574 1_455 S
C693 C712 1.368 . S
C693 H717 0.949 . S
H694 C698 0.949 . S
C695 C696 1.349 . S
C695 C697 1.327 . S
C695 H718 0.950 . S
C696 C695 1.349 . S
C696 C708 1.349 . S
C697 C695 1.327 . S
C697 C713 1.429 . S
C697 H719 0.950 . S
C698 H694 0.949 . S
C698 C706 1.574 1_655 S
C698 C714 1.368 . S
H699 C707 0.950 . S
H700 C705 0.950 . S
H701 C706 0.949 . S
H702 C708 0.950 . S
H703 C709 0.950 . S
H704 C710 0.949 . S
C705 H700 0.950 . S
C705 C707 1.327 . S
C705 C711 1.429 . S
C706 C698 1.574 1_455 S
C706 H701 0.949 . S
C706 C712 1.368 . S
C707 C691 1.349 . S
C707 H699 0.950 . S
C707 C705 1.327 . S
C708 C696 1.349 . S
C708 H702 0.950 . S
C708 C709 1.327 . S
C709 H703 0.950 . S
C709 C708 1.327 . S
C709 C713 1.429 . S
C710 C693 1.574 1_655 S
C710 H704 0.949 . S
C710 C714 1.368 . S
C711 C692 1.429 . S
C711 C705 1.429 . S
C711 C712 1.523 . S
C712 C693 1.368 . S
C712 C706 1.368 . S
C712 C711 1.523 . S
C713 C697 1.429 . S
C713 C709 1.429 . S
C713 C714 1.523 . S
C714 C698 1.368 . S
C714 C710 1.368 . S
C714 C713 1.523 . S
H715 C690 0.950 . S
H716 C692 0.950 . S
H717 C693 0.949 . S
H718 C695 0.950 . S
H719 C697 0.950 . S
C720 C721 1.349 . S
C720 C722 1.327 . S
C720 H745 0.950 . S
C721 C720 1.349 . S
C721 C737 1.349 . S
C722 C720 1.327 . S
C722 C741 1.429 . S
C722 H746 0.950 . S
C723 C740 1.574 1_565 S
C723 C742 1.368 . S
C723 H747 0.949 . S
H724 C728 0.949 . S
C725 C726 1.349 . S
C725 C727 1.327 . S
C725 H748 0.950 . S
C726 C725 1.349 . S
C726 C738 1.349 . S
C727 C725 1.327 . S
C727 C743 1.429 . S
C727 H749 0.950 . S
C728 H724 0.949 . S
C728 C736 1.574 1_545 S
C728 C744 1.368 . S
H729 C737 0.950 . S
H730 C735 0.950 . S
H731 C736 0.949 . S
H732 C738 0.950 . S
H733 C739 0.950 . S
H734 C740 0.949 . S
C735 H730 0.950 . S
C735 C737 1.327 . S
C735 C741 1.429 . S
C736 C728 1.574 1_565 S
C736 H731 0.949 . S
C736 C742 1.368 . S
C737 C721 1.349 . S
C737 H729 0.950 . S
C737 C735 1.327 . S
C738 C726 1.349 . S
C738 H732 0.950 . S
C738 C739 1.327 . S
C739 H733 0.950 . S
C739 C738 1.327 . S
C739 C743 1.429 . S
C740 C723 1.574 1_545 S
C740 H734 0.949 . S
C740 C744 1.368 . S
C741 C722 1.429 . S
C741 C735 1.429 . S
C741 C742 1.523 . S
C742 C723 1.368 . S
C742 C736 1.368 . S
C742 C741 1.523 . S
C743 C727 1.429 . S
C743 C739 1.429 . S
C743 C744 1.523 . S
C744 C728 1.368 . S
C744 C740 1.368 . S
C744 C743 1.523 . S
H745 C720 0.950 . S
H746 C722 0.950 . S
H747 C723 0.949 . S
H748 C725 0.950 . S
H749 C727 0.950 . S
C750 C751 1.349 . S
C750 C752 1.327 . S
C750 H775 0.950 . S
C751 C750 1.349 . S
C751 C767 1.349 . S
C752 C750 1.327 . S
C752 C771 1.429 . S
C752 H776 0.950 . S
C753 C770 1.574 . S
C753 C772 1.368 . S
C753 H777 0.949 . S
H754 C758 0.949 . S
C755 C756 1.349 . S
C755 C757 1.327 . S
C755 H778 0.950 . S
C756 C755 1.349 . S
C756 C768 1.349 . S
C757 C755 1.327 . S
C757 C773 1.429 . S
C757 H779 0.950 . S
C758 H754 0.949 . S
C758 C766 1.574 . S
C758 C774 1.368 . S
H759 C767 0.950 . S
H760 C765 0.950 . S
H761 C766 0.949 . S
H762 C768 0.950 . S
H763 C769 0.950 . S
H764 C770 0.949 . S
C765 H760 0.950 . S
C765 C767 1.327 . S
C765 C771 1.429 . S
C766 C758 1.574 . S
C766 H761 0.949 . S
C766 C772 1.368 . S
C767 C751 1.349 . S
C767 H759 0.950 . S
C767 C765 1.327 . S
C768 C756 1.349 . S
C768 H762 0.950 . S
C768 C769 1.327 . S
C769 H763 0.950 . S
C769 C768 1.327 . S
C769 C773 1.429 . S
C770 C753 1.574 . S
C770 H764 0.949 . S
C770 C774 1.368 . S
C771 C752 1.429 . S
C771 C765 1.429 . S
C771 C772 1.523 . S
C772 C753 1.368 . S
C772 C766 1.368 . S
C772 C771 1.523 . S
C773 C757 1.429 . S
C773 C769 1.429 . S
C773 C774 1.523 . S
C774 C758 1.368 . S
C774 C770 1.368 . S
C774 C773 1.523 . S
H775 C750 0.950 . S
H776 C752 0.950 . S
H777 C753 0.949 . S
H778 C755 0.950 . S
H779 C757 0.950 . S
C780 C781 1.349 . S
C780 C782 1.327 . S
C780 H805 0.950 . S
C781 C780 1.349 . S
C781 C797 1.349 . S
C782 C780 1.327 . S
C782 C801 1.429 . S
C782 H806 0.950 . S
C783 C800 1.574 1_455 S
C783 C802 1.368 . S
C783 H807 0.949 . S
H784 C788 0.949 . S
C785 C786 1.349 . S
C785 C787 1.327 . S
C785 H808 0.950 . S
C786 C785 1.349 . S
C786 C798 1.349 . S
C787 C785 1.327 . S
C787 C803 1.429 . S
C787 H809 0.950 . S
C788 H784 0.949 . S
C788 C796 1.574 1_655 S
C788 C804 1.368 . S
H789 C797 0.950 . S
H790 C795 0.950 . S
H791 C796 0.949 . S
H792 C798 0.950 . S
H793 C799 0.950 . S
H794 C800 0.949 . S
C795 H790 0.950 . S
C795 C797 1.327 . S
C795 C801 1.429 . S
C796 C788 1.574 1_455 S
C796 H791 0.949 . S
C796 C802 1.368 . S
C797 C781 1.349 . S
C797 H789 0.950 . S
C797 C795 1.327 . S
C798 C786 1.349 . S
C798 H792 0.950 . S
C798 C799 1.327 . S
C799 H793 0.950 . S
C799 C798 1.327 . S
C799 C803 1.429 . S
C800 C783 1.574 1_655 S
C800 H794 0.949 . S
C800 C804 1.368 . S
C801 C782 1.429 . S
C801 C795 1.429 . S
C801 C802 1.523 . S
C802 C783 1.368 . S
C802 C796 1.368 . S
C802 C801 1.523 . S
C803 C787 1.429 . S
C803 C799 1.429 . S
C803 C804 1.523 . S
C804 C788 1.368 . S
C804 C800 1.368 . S
C804 C803 1.523 . S
H805 C780 0.950 . S
H806 C782 0.950 . S
H807 C783 0.949 . S
H808 C785 0.950 . S
H809 C787 0.950 . S
C810 C811 1.349 . S
C810 C812 1.327 . S
C810 H835 0.950 . S
C811 C810 1.349 . S
C811 C827 1.349 . S
C812 C810 1.327 . S
C812 C831 1.429 . S
C812 H836 0.950 . S
C813 C830 1.574 1_545 S
C813 C832 1.368 . S
C813 H837 0.949 . S
H814 C818 0.949 . S
C815 C816 1.349 . S
C815 C817 1.327 . S
C815 H838 0.950 . S
C816 C815 1.349 . S
C816 C828 1.349 . S
C817 C815 1.327 . S
C817 C833 1.429 . S
C817 H839 0.950 . S
C818 H814 0.949 . S
C818 C826 1.574 1_565 S
C818 C834 1.368 . S
H819 C827 0.950 . S
H820 C825 0.950 . S
H821 C826 0.949 . S
H822 C828 0.950 . S
H823 C829 0.950 . S
H824 C830 0.949 . S
C825 H820 0.950 . S
C825 C827 1.327 . S
C825 C831 1.429 . S
C826 C818 1.574 1_545 S
C826 H821 0.949 . S
C826 C832 1.368 . S
C827 C811 1.349 . S
C827 H819 0.950 . S
C827 C825 1.327 . S
C828 C816 1.349 . S
C828 H822 0.950 . S
C828 C829 1.327 . S
C829 H823 0.950 . S
C829 C828 1.327 . S
C829 C833 1.429 . S
C830 C813 1.574 1_565 S
C830 H824 0.949 . S
C830 C834 1.368 . S
C831 C812 1.429 . S
C831 C825 1.429 . S
C831 C832 1.523 . S
C832 C813 1.368 . S
C832 C826 1.368 . S
C832 C831 1.523 . S
C833 C817 1.429 . S
C833 C829 1.429 . S
C833 C834 1.523 . S
C834 C818 1.368 . S
C834 C830 1.368 . S
C834 C833 1.523 . S
H835 C810 0.950 . S
H836 C812 0.950 . S
H837 C813 0.949 . S
H838 C815 0.950 . S
H839 C817 0.950 . S
C840 C841 1.349 . S
C840 C842 1.327 . S
C840 H865 0.950 . S
C841 C840 1.349 . S
C841 C857 1.349 . S
C842 C840 1.327 . S
C842 C861 1.429 . S
C842 H866 0.950 . S
C843 C860 1.574 . S
C843 C862 1.368 . S
C843 H867 0.949 . S
H844 C848 0.949 . S
C845 C846 1.349 . S
C845 C847 1.327 . S
C845 H868 0.950 . S
C846 C845 1.349 . S
C846 C858 1.349 . S
C847 C845 1.327 . S
C847 C863 1.429 . S
C847 H869 0.950 . S
C848 H844 0.949 . S
C848 C856 1.574 . S
C848 C864 1.368 . S
H849 C857 0.950 . S
H850 C855 0.950 . S
H851 C856 0.949 . S
H852 C858 0.950 . S
H853 C859 0.950 . S
H854 C860 0.949 . S
C855 H850 0.950 . S
C855 C857 1.327 . S
C855 C861 1.429 . S
C856 C848 1.574 . S
C856 H851 0.949 . S
C856 C862 1.368 . S
C857 C841 1.349 . S
C857 H849 0.950 . S
C857 C855 1.327 . S
C858 C846 1.349 . S
C858 H852 0.950 . S
C858 C859 1.327 . S
C859 H853 0.950 . S
C859 C858 1.327 . S
C859 C863 1.429 . S
C860 C843 1.574 . S
C860 H854 0.949 . S
C860 C864 1.368 . S
C861 C842 1.429 . S
C861 C855 1.429 . S
C861 C862 1.523 . S
C862 C843 1.368 . S
C862 C856 1.368 . S
C862 C861 1.523 . S
C863 C847 1.429 . S
C863 C859 1.429 . S
C863 C864 1.523 . S
C864 C848 1.368 . S
C864 C860 1.368 . S
C864 C863 1.523 . S
H865 C840 0.950 . S
H866 C842 0.950 . S
H867 C843 0.949 . S
H868 C845 0.950 . S
H869 C847 0.950 . S
C870 C871 1.349 . S
C870 C872 1.327 . S
C870 H895 0.950 . S
C871 C870 1.349 . S
C871 C887 1.349 . S
C872 C870 1.327 . S
C872 C891 1.429 . S
C872 H896 0.950 . S
C873 C890 1.574 . S
C873 C892 1.368 . S
C873 H897 0.949 . S
H874 C878 0.949 . S
C875 C876 1.349 . S
C875 C877 1.327 . S
C875 H898 0.950 . S
C876 C875 1.349 . S
C876 C888 1.349 . S
C877 C875 1.327 . S
C877 C893 1.429 . S
C877 H899 0.950 . S
C878 H874 0.949 . S
C878 C886 1.574 . S
C878 C894 1.368 . S
H879 C887 0.950 . S
H880 C885 0.950 . S
H881 C886 0.949 . S
H882 C888 0.950 . S
H883 C889 0.950 . S
H884 C890 0.949 . S
C885 H880 0.950 . S
C885 C887 1.327 . S
C885 C891 1.429 . S
C886 C878 1.574 . S
C886 H881 0.949 . S
C886 C892 1.368 . S
C887 C871 1.349 . S
C887 H879 0.950 . S
C887 C885 1.327 . S
C888 C876 1.349 . S
C888 H882 0.950 . S
C888 C889 1.327 . S
C889 H883 0.950 . S
C889 C888 1.327 . S
C889 C893 1.429 . S
C890 C873 1.574 . S
C890 H884 0.949 . S
C890 C894 1.368 . S
C891 C872 1.429 . S
C891 C885 1.429 . S
C891 C892 1.523 . S
C892 C873 1.368 . S
C892 C886 1.368 . S
C892 C891 1.523 . S
C893 C877 1.429 . S
C893 C889 1.429 . S
C893 C894 1.523 . S
C894 C878 1.368 . S
C894 C890 1.368 . S
C894 C893 1.523 . S
H895 C870 0.950 . S
H896 C872 0.950 . S
H897 C873 0.949 . S
H898 C875 0.950 . S
H899 C877 0.950 . S
C900 C901 1.349 . S
C900 C902 1.327 . S
C900 H925 0.950 . S
C901 C900 1.349 . S
C901 C917 1.349 . S
C902 C900 1.327 . S
C902 C921 1.429 . S
C902 H926 0.950 . S
C903 C920 1.574 . S
C903 C922 1.368 . S
C903 H927 0.949 . S
H904 C908 0.949 . S
C905 C906 1.349 . S
C905 C907 1.327 . S
C905 H928 0.950 . S
C906 C905 1.349 . S
C906 C918 1.349 . S
C907 C905 1.327 . S
C907 C923 1.429 . S
C907 H929 0.950 . S
C908 H904 0.949 . S
C908 C916 1.574 . S
C908 C924 1.368 . S
H909 C917 0.950 . S
H910 C915 0.950 . S
H911 C916 0.949 . S
H912 C918 0.950 . S
H913 C919 0.950 . S
H914 C920 0.949 . S
C915 H910 0.950 . S
C915 C917 1.327 . S
C915 C921 1.429 . S
C916 C908 1.574 . S
C916 H911 0.949 . S
C916 C922 1.368 . S
C917 C901 1.349 . S
C917 H909 0.950 . S
C917 C915 1.327 . S
C918 C906 1.349 . S
C918 H912 0.950 . S
C918 C919 1.327 . S
C919 H913 0.950 . S
C919 C918 1.327 . S
C919 C923 1.429 . S
C920 C903 1.574 . S
C920 H914 0.949 . S
C920 C924 1.368 . S
C921 C902 1.429 . S
C921 C915 1.429 . S
C921 C922 1.523 . S
C922 C903 1.368 . S
C922 C916 1.368 . S
C922 C921 1.523 . S
C923 C907 1.429 . S
C923 C919 1.429 . S
C923 C924 1.523 . S
C924 C908 1.368 . S
C924 C920 1.368 . S
C924 C923 1.523 . S
H925 C900 0.950 . S
H926 C902 0.950 . S
H927 C903 0.949 . S
H928 C905 0.950 . S
H929 C907 0.950 . S
C930 C931 1.349 . S
C930 C932 1.327 . S
C930 H955 0.950 . S
C931 C930 1.349 . S
C931 C947 1.349 . S
C932 C930 1.327 . S
C932 C951 1.429 . S
C932 H956 0.950 . S
C933 C950 1.574 . S
C933 C952 1.368 . S
C933 H957 0.949 . S
H934 C938 0.949 . S
C935 C936 1.349 . S
C935 C937 1.327 . S
C935 H958 0.950 . S
C936 C935 1.349 . S
C936 C948 1.349 . S
C937 C935 1.327 . S
C937 C953 1.429 . S
C937 H959 0.950 . S
C938 H934 0.949 . S
C938 C946 1.574 . S
C938 C954 1.368 . S
H939 C947 0.950 . S
H940 C945 0.950 . S
H941 C946 0.949 . S
H942 C948 0.950 . S
H943 C949 0.950 . S
H944 C950 0.949 . S
C945 H940 0.950 . S
C945 C947 1.327 . S
C945 C951 1.429 . S
C946 C938 1.574 . S
C946 H941 0.949 . S
C946 C952 1.368 . S
C947 C931 1.349 . S
C947 H939 0.950 . S
C947 C945 1.327 . S
C948 C936 1.349 . S
C948 H942 0.950 . S
C948 C949 1.327 . S
C949 H943 0.950 . S
C949 C948 1.327 . S
C949 C953 1.429 . S
C950 C933 1.574 . S
C950 H944 0.949 . S
C950 C954 1.368 . S
C951 C932 1.429 . S
C951 C945 1.429 . S
C951 C952 1.523 . S
C952 C933 1.368 . S
C952 C946 1.368 . S
C952 C951 1.523 . S
C953 C937 1.429 . S
C953 C949 1.429 . S
C953 C954 1.523 . S
C954 C938 1.368 . S
C954 C950 1.368 . S
C954 C953 1.523 . S
H955 C930 0.950 . S
H956 C932 0.950 . S
H957 C933 0.949 . S
H958 C935 0.950 . S
H959 C937 0.950 . S
C960 C961 1.349 . S
C960 C962 1.327 . S
C960 H985 0.950 . S
C961 C960 1.349 . S
C961 C977 1.349 . S
C962 C960 1.327 . S
C962 C981 1.429 . S
C962 H986 0.950 . S
C963 C980 1.574 . S
C963 C982 1.368 . S
C963 H987 0.949 . S
H964 C968 0.949 . S
C965 C966 1.349 . S
C965 C967 1.327 . S
C965 H988 0.950 . S
C966 C965 1.349 . S
C966 C978 1.349 . S
C967 C965 1.327 . S
C967 C983 1.429 . S
C967 H989 0.950 . S
C968 H964 0.949 . S
C968 C976 1.574 . S
C968 C984 1.368 . S
H969 C977 0.950 . S
H970 C975 0.950 . S
H971 C976 0.949 . S
H972 C978 0.950 . S
H973 C979 0.950 . S
H974 C980 0.949 . S
C975 H970 0.950 . S
C975 C977 1.327 . S
C975 C981 1.429 . S
C976 C968 1.574 . S
C976 H971 0.949 . S
C976 C982 1.368 . S
C977 C961 1.349 . S
C977 H969 0.950 . S
C977 C975 1.327 . S
C978 C966 1.349 . S
C978 H972 0.950 . S
C978 C979 1.327 . S
C979 H973 0.950 . S
C979 C978 1.327 . S
C979 C983 1.429 . S
C980 C963 1.574 . S
C980 H974 0.949 . S
C980 C984 1.368 . S
C981 C962 1.429 . S
C981 C975 1.429 . S
C981 C982 1.523 . S
C982 C963 1.368 . S
C982 C976 1.368 . S
C982 C981 1.523 . S
C983 C967 1.429 . S
C983 C979 1.429 . S
C983 C984 1.523 . S
C984 C968 1.368 . S
C984 C980 1.368 . S
C984 C983 1.523 . S
H985 C960 0.950 . S
H986 C962 0.950 . S
H987 C963 0.949 . S
H988 C965 0.950 . S
H989 C967 0.950 . S
C990 C991 1.349 . S
C990 C992 1.327 . S
C990 H1015 0.950 . S
C991 C990 1.349 . S
C991 C1007 1.349 . S
C992 C990 1.327 . S
C992 C1011 1.429 . S
C992 H1016 0.950 . S
C993 C1010 1.574 . S
C993 C1012 1.368 . S
C993 H1017 0.949 . S
H994 C998 0.949 . S
C995 C996 1.349 . S
C995 C997 1.327 . S
C995 H1018 0.950 . S
C996 C995 1.349 . S
C996 C1008 1.349 . S
C997 C995 1.327 . S
C997 C1013 1.429 . S
C997 H1019 0.950 . S
C998 H994 0.949 . S
C998 C1006 1.574 . S
C998 C1014 1.368 . S
H999 C1007 0.950 . S
H1000 C1005 0.950 . S
H1001 C1006 0.949 . S
H1002 C1008 0.950 . S
H1003 C1009 0.950 . S
H1004 C1010 0.949 . S
C1005 H1000 0.950 . S
C1005 C1007 1.327 . S
C1005 C1011 1.429 . S
C1006 C998 1.574 . S
C1006 H1001 0.949 . S
C1006 C1012 1.368 . S
C1007 C991 1.349 . S
C1007 H999 0.950 . S
C1007 C1005 1.327 . S
C1008 C996 1.349 . S
C1008 H1002 0.950 . S
C1008 C1009 1.327 . S
C1009 H1003 0.950 . S
C1009 C1008 1.327 . S
C1009 C1013 1.429 . S
C1010 C993 1.574 . S
C1010 H1004 0.949 . S
C1010 C1014 1.368 . S
C1011 C992 1.429 . S
C1011 C1005 1.429 . S
C1011 C1012 1.523 . S
C1012 C993 1.368 . S
C1012 C1006 1.368 . S
C1012 C1011 1.523 . S
C1013 C997 1.429 . S
C1013 C1009 1.429 . S
C1013 C1014 1.523 . S
C1014 C998 1.368 . S
C1014 C1010 1.368 . S
C1014 C1013 1.523 . S
H1015 C990 0.950 . S
H1016 C992 0.950 . S
H1017 C993 0.949 . S
H1018 C995 0.950 . S
H1019 C997 0.950 . S
C1020 C1021 1.349 . S
C1020 C1022 1.327 . S
C1020 H1045 0.950 . S
C1021 C1020 1.349 . S
C1021 C1037 1.349 . S
C1022 C1020 1.327 . S
C1022 C1041 1.429 . S
C1022 H1046 0.950 . S
C1023 C1040 1.574 . S
C1023 C1042 1.368 1_545 S
C1023 H1047 0.949 . S
H1024 C1028 0.949 . S
C1025 C1026 1.349 . S
C1025 C1027 1.327 . S
C1025 H1048 0.950 . S
C1026 C1025 1.349 . S
C1026 C1038 1.349 . S
C1027 C1025 1.327 . S
C1027 C1043 1.429 . S
C1027 H1049 0.950 . S
C1028 H1024 0.949 . S
C1028 C1036 1.574 . S
C1028 C1044 1.368 1_565 S
H1029 C1037 0.950 . S
H1030 C1035 0.950 . S
H1031 C1036 0.949 . S
H1032 C1038 0.950 . S
H1033 C1039 0.950 . S
H1034 C1040 0.949 . S
C1035 H1030 0.950 . S
C1035 C1037 1.327 . S
C1035 C1041 1.429 . S
C1036 C1028 1.574 . S
C1036 H1031 0.949 . S
C1036 C1042 1.368 1_554 S
C1037 C1021 1.349 . S
C1037 H1029 0.950 . S
C1037 C1035 1.327 . S
C1038 C1026 1.349 . S
C1038 H1032 0.950 . S
C1038 C1039 1.327 . S
C1039 H1033 0.950 . S
C1039 C1038 1.327 . S
C1039 C1043 1.429 . S
C1040 C1023 1.574 . S
C1040 H1034 0.949 . S
C1040 C1044 1.368 1_556 S
C1041 C1022 1.429 . S
C1041 C1035 1.429 . S
C1041 C1042 1.523 . S
C1042 C1023 1.368 1_565 S
C1042 C1036 1.368 1_556 S
C1042 C1041 1.523 . S
C1043 C1027 1.429 . S
C1043 C1039 1.429 . S
C1043 C1044 1.523 . S
C1044 C1028 1.368 1_545 S
C1044 C1040 1.368 1_554 S
C1044 C1043 1.523 . S
H1045 C1020 0.950 . S
H1046 C1022 0.950 . S
H1047 C1023 0.949 . S
H1048 C1025 0.950 . S
H1049 C1027 0.950 . S
C1050 C1051 1.349 . S
C1050 C1052 1.327 . S
C1050 H1075 0.950 . S
C1051 C1050 1.349 . S
C1051 C1067 1.349 . S
C1052 C1050 1.327 . S
C1052 C1071 1.429 . S
C1052 H1076 0.950 . S
C1053 C1070 1.574 . S
C1053 C1072 1.368 . S
C1053 H1077 0.949 . S
H1054 C1058 0.949 . S
C1055 C1056 1.349 . S
C1055 C1057 1.327 . S
C1055 H1078 0.950 . S
C1056 C1055 1.349 . S
C1056 C1068 1.349 . S
C1057 C1055 1.327 . S
C1057 C1073 1.429 . S
C1057 H1079 0.950 . S
C1058 H1054 0.949 . S
C1058 C1066 1.574 . S
C1058 C1074 1.368 . S
H1059 C1067 0.950 . S
H1060 C1065 0.950 . S
H1061 C1066 0.949 . S
H1062 C1068 0.950 . S
H1063 C1069 0.950 . S
H1064 C1070 0.949 . S
C1065 H1060 0.950 . S
C1065 C1067 1.327 . S
C1065 C1071 1.429 . S
C1066 C1058 1.574 . S
C1066 H1061 0.949 . S
C1066 C1072 1.368 . S
C1067 C1051 1.349 . S
C1067 H1059 0.950 . S
C1067 C1065 1.327 . S
C1068 C1056 1.349 . S
C1068 H1062 0.950 . S
C1068 C1069 1.327 . S
C1069 H1063 0.950 . S
C1069 C1068 1.327 . S
C1069 C1073 1.429 . S
C1070 C1053 1.574 . S
C1070 H1064 0.949 . S
C1070 C1074 1.368 . S
C1071 C1052 1.429 . S
C1071 C1065 1.429 . S
C1071 C1072 1.523 . S
C1072 C1053 1.368 . S
C1072 C1066 1.368 . S
C1072 C1071 1.523 . S
C1073 C1057 1.429 . S
C1073 C1069 1.429 . S
C1073 C1074 1.523 . S
C1074 C1058 1.368 . S
C1074 C1070 1.368 . S
C1074 C1073 1.523 . S
H1075 C1050 0.950 . S
H1076 C1052 0.950 . S
H1077 C1053 0.949 . S
H1078 C1055 0.950 . S
H1079 C1057 0.950 . S
C1080 C1081 1.349 . S
C1080 C1082 1.327 . S
C1080 H1105 0.950 . S
C1081 C1080 1.349 . S
C1081 C1097 1.349 . S
C1082 C1080 1.327 . S
C1082 C1101 1.429 . S
C1082 H1106 0.950 . S
C1083 C1100 1.574 1_456 S
C1083 C1102 1.368 . S
C1083 H1107 0.949 . S
H1084 C1088 0.949 . S
C1085 C1086 1.349 . S
C1085 C1087 1.327 . S
C1085 H1108 0.950 . S
C1086 C1085 1.349 . S
C1086 C1098 1.349 . S
C1087 C1085 1.327 . S
C1087 C1103 1.429 . S
C1087 H1109 0.950 . S
C1088 H1084 0.949 . S
C1088 C1096 1.574 1_654 S
C1088 C1104 1.368 . S
H1089 C1097 0.950 . S
H1090 C1095 0.950 . S
H1091 C1096 0.949 . S
H1092 C1098 0.950 . S
H1093 C1099 0.950 . S
H1094 C1100 0.949 . S
C1095 H1090 0.950 . S
C1095 C1097 1.327 . S
C1095 C1101 1.429 . S
C1096 C1088 1.574 1_456 S
C1096 H1091 0.949 . S
C1096 C1102 1.368 . S
C1097 C1081 1.349 . S
C1097 H1089 0.950 . S
C1097 C1095 1.327 . S
C1098 C1086 1.349 . S
C1098 H1092 0.950 . S
C1098 C1099 1.327 . S
C1099 H1093 0.950 . S
C1099 C1098 1.327 . S
C1099 C1103 1.429 . S
C1100 C1083 1.574 1_654 S
C1100 H1094 0.949 . S
C1100 C1104 1.368 . S
C1101 C1082 1.429 . S
C1101 C1095 1.429 . S
C1101 C1102 1.523 . S
C1102 C1083 1.368 . S
C1102 C1096 1.368 . S
C1102 C1101 1.523 . S
C1103 C1087 1.429 . S
C1103 C1099 1.429 . S
C1103 C1104 1.523 . S
C1104 C1088 1.368 . S
C1104 C1100 1.368 . S
C1104 C1103 1.523 . S
H1105 C1080 0.950 . S
H1106 C1082 0.950 . S
H1107 C1083 0.949 . S
H1108 C1085 0.950 . S
H1109 C1087 0.950 . S
C1110 C1111 1.349 . S
C1110 C1112 1.327 . S
C1110 H1135 0.950 . S
C1111 C1110 1.349 . S
C1111 C1127 1.349 . S
C1112 C1110 1.327 . S
C1112 C1131 1.429 . S
C1112 H1136 0.950 . S
C1113 C1130 1.574 1_545 S
C1113 C1132 1.368 . S
C1113 H1137 0.949 . S
H1114 C1118 0.949 . S
C1115 C1116 1.349 . S
C1115 C1117 1.327 . S
C1115 H1138 0.950 . S
C1116 C1115 1.349 . S
C1116 C1128 1.349 . S
C1117 C1115 1.327 . S
C1117 C1133 1.429 . S
C1117 H1139 0.950 . S
C1118 H1114 0.949 . S
C1118 C1126 1.574 1_565 S
C1118 C1134 1.368 . S
H1119 C1127 0.950 . S
H1120 C1125 0.950 . S
H1121 C1126 0.949 . S
H1122 C1128 0.950 . S
H1123 C1129 0.950 . S
H1124 C1130 0.949 . S
C1125 H1120 0.950 . S
C1125 C1127 1.327 . S
C1125 C1131 1.429 . S
C1126 C1118 1.574 1_545 S
C1126 H1121 0.949 . S
C1126 C1132 1.368 . S
C1127 C1111 1.349 . S
C1127 H1119 0.950 . S
C1127 C1125 1.327 . S
C1128 C1116 1.349 . S
C1128 H1122 0.950 . S
C1128 C1129 1.327 . S
C1129 H1123 0.950 . S
C1129 C1128 1.327 . S
C1129 C1133 1.429 . S
C1130 C1113 1.574 1_565 S
C1130 H1124 0.949 . S
C1130 C1134 1.368 . S
C1131 C1112 1.429 . S
C1131 C1125 1.429 . S
C1131 C1132 1.523 . S
C1132 C1113 1.368 . S
C1132 C1126 1.368 . S
C1132 C1131 1.523 . S
C1133 C1117 1.429 . S
C1133 C1129 1.429 . S
C1133 C1134 1.523 . S
C1134 C1118 1.368 . S
C1134 C1130 1.368 . S
C1134 C1133 1.523 . S
H1135 C1110 0.950 . S
H1136 C1112 0.950 . S
H1137 C1113 0.949 . S
H1138 C1115 0.950 . S
H1139 C1117 0.950 . S
C1140 C1141 1.349 . S
C1140 C1142 1.327 . S
C1140 H1165 0.950 . S
C1141 C1140 1.349 . S
C1141 C1157 1.349 . S
C1142 C1140 1.327 . S
C1142 C1161 1.429 . S
C1142 H1166 0.950 . S
C1143 C1160 1.574 1_554 S
C1143 C1162 1.368 . S
C1143 H1167 0.949 . S
H1144 C1148 0.949 . S
C1145 C1146 1.349 . S
C1145 C1147 1.327 . S
C1145 H1168 0.950 . S
C1146 C1145 1.349 . S
C1146 C1158 1.349 . S
C1147 C1145 1.327 . S
C1147 C1163 1.429 . S
C1147 H1169 0.950 . S
C1148 H1144 0.949 . S
C1148 C1156 1.574 1_556 S
C1148 C1164 1.368 . S
H1149 C1157 0.950 . S
H1150 C1155 0.950 . S
H1151 C1156 0.949 . S
H1152 C1158 0.950 . S
H1153 C1159 0.950 . S
H1154 C1160 0.949 . S
C1155 H1150 0.950 . S
C1155 C1157 1.327 . S
C1155 C1161 1.429 . S
C1156 C1148 1.574 1_554 S
C1156 H1151 0.949 . S
C1156 C1162 1.368 . S
C1157 C1141 1.349 . S
C1157 H1149 0.950 . S
C1157 C1155 1.327 . S
C1158 C1146 1.349 . S
C1158 H1152 0.950 . S
C1158 C1159 1.327 . S
C1159 H1153 0.950 . S
C1159 C1158 1.327 . S
C1159 C1163 1.429 . S
C1160 C1143 1.574 1_556 S
C1160 H1154 0.949 . S
C1160 C1164 1.368 . S
C1161 C1142 1.429 . S
C1161 C1155 1.429 . S
C1161 C1162 1.523 . S
C1162 C1143 1.368 . S
C1162 C1156 1.368 . S
C1162 C1161 1.523 . S
C1163 C1147 1.429 . S
C1163 C1159 1.429 . S
C1163 C1164 1.523 . S
C1164 C1148 1.368 . S
C1164 C1160 1.368 . S
C1164 C1163 1.523 . S
H1165 C1140 0.950 . S
H1166 C1142 0.950 . S
H1167 C1143 0.949 . S
H1168 C1145 0.950 . S
H1169 C1147 0.950 . S
C1170 C1171 1.349 . S
C1170 C1172 1.327 . S
C1170 H1195 0.950 . S
C1171 C1170 1.349 . S
C1171 C1187 1.349 . S
C1172 C1170 1.327 . S
C1172 C1191 1.429 . S
C1172 H1196 0.950 . S
C1173 C1190 1.601 . S
C1173 C1192 1.356 1_655 S
C1173 H1197 0.938 . S
H1174 C1178 0.938 . S
C1175 C1176 1.349 . S
C1175 C1177 1.327 . S
C1175 H1198 0.950 . S
C1176 C1175 1.349 . S
C1176 C1188 1.349 . S
C1177 C1175 1.327 . S
C1177 C1193 1.429 . S
C1177 H1199 0.950 . S
C1178 H1174 0.938 . S
C1178 C1186 1.601 . S
C1178 C1194 1.356 1_455 S
H1179 C1187 0.950 . S
H1180 C1185 0.950 . S
H1181 C1186 0.949 . S
H1182 C1188 0.950 . S
H1183 C1189 0.950 . S
H1184 C1190 0.949 . S
C1185 H1180 0.950 . S
C1185 C1187 1.327 . S
C1185 C1191 1.429 . S
C1186 C1178 1.601 . S
C1186 H1181 0.949 . S
C1186 C1192 1.368 . S
C1187 C1171 1.349 . S
C1187 H1179 0.950 . S
C1187 C1185 1.327 . S
C1188 C1176 1.349 . S
C1188 H1182 0.950 . S
C1188 C1189 1.327 . S
C1189 H1183 0.950 . S
C1189 C1188 1.327 . S
C1189 C1193 1.429 . S
C1190 C1173 1.601 . S
C1190 H1184 0.949 . S
C1190 C1194 1.368 . S
C1191 C1172 1.429 . S
C1191 C1185 1.429 . S
C1191 C1192 1.523 . S
C1192 C1173 1.356 1_455 S
C1192 C1186 1.368 . S
C1192 C1191 1.523 . S
C1193 C1177 1.429 . S
C1193 C1189 1.429 . S
C1193 C1194 1.523 . S
C1194 C1178 1.356 1_655 S
C1194 C1190 1.368 . S
C1194 C1193 1.523 . S
H1195 C1170 0.950 . S
H1196 C1172 0.950 . S
H1197 C1173 0.938 . S
H1198 C1175 0.950 . S
H1199 C1177 0.950 . S
C1200 C1201 1.349 . S
C1200 C1202 1.327 . S
C1200 H1225 0.950 . S
C1201 C1200 1.349 . S
C1201 C1217 1.349 . S
C1202 C1200 1.327 . S
C1202 C1221 1.429 . S
C1202 H1226 0.950 . S
C1203 C1220 1.574 . S
C1203 C1222 1.368 . S
C1203 H1227 0.949 . S
H1204 C1208 0.949 . S
C1205 C1206 1.349 . S
C1205 C1207 1.327 . S
C1205 H1228 0.950 . S
C1206 C1205 1.349 . S
C1206 C1218 1.349 . S
C1207 C1205 1.327 . S
C1207 C1223 1.429 . S
C1207 H1229 0.950 . S
C1208 H1204 0.949 . S
C1208 C1216 1.574 . S
C1208 C1224 1.368 . S
H1209 C1217 0.950 . S
H1210 C1215 0.950 . S
H1211 C1216 0.949 . S
H1212 C1218 0.950 . S
H1213 C1219 0.950 . S
H1214 C1220 0.949 . S
C1215 H1210 0.950 . S
C1215 C1217 1.327 . S
C1215 C1221 1.429 . S
C1216 C1208 1.574 . S
C1216 H1211 0.949 . S
C1216 C1222 1.368 . S
C1217 C1201 1.349 . S
C1217 H1209 0.950 . S
C1217 C1215 1.327 . S
C1218 C1206 1.349 . S
C1218 H1212 0.950 . S
C1218 C1219 1.327 . S
C1219 H1213 0.950 . S
C1219 C1218 1.327 . S
C1219 C1223 1.429 . S
C1220 C1203 1.574 . S
C1220 H1214 0.949 . S
C1220 C1224 1.368 . S
C1221 C1202 1.429 . S
C1221 C1215 1.429 . S
C1221 C1222 1.523 . S
C1222 C1203 1.368 . S
C1222 C1216 1.368 . S
C1222 C1221 1.523 . S
C1223 C1207 1.429 . S
C1223 C1219 1.429 . S
C1223 C1224 1.523 . S
C1224 C1208 1.368 . S
C1224 C1220 1.368 . S
C1224 C1223 1.523 . S
H1225 C1200 0.950 . S
H1226 C1202 0.950 . S
H1227 C1203 0.949 . S
H1228 C1205 0.950 . S
H1229 C1207 0.950 . S
C1230 C1231 1.349 . S
C1230 C1232 1.327 . S
C1230 H1255 0.950 . S
C1231 C1230 1.349 . S
C1231 C1247 1.349 . S
C1232 C1230 1.327 . S
C1232 C1251 1.429 . S
C1232 H1256 0.950 . S
C1233 C1250 1.574 . S
C1233 C1252 1.368 . S
C1233 H1257 0.949 . S
H1234 C1238 0.949 . S
C1235 C1236 1.349 . S
C1235 C1237 1.327 . S
C1235 H1258 0.950 . S
C1236 C1235 1.349 . S
C1236 C1248 1.349 . S
C1237 C1235 1.327 . S
C1237 C1253 1.429 . S
C1237 H1259 0.950 . S
C1238 H1234 0.949 . S
C1238 C1246 1.574 . S
C1238 C1254 1.368 . S
H1239 C1247 0.950 . S
H1240 C1245 0.950 . S
H1241 C1246 0.949 . S
H1242 C1248 0.950 . S
H1243 C1249 0.950 . S
H1244 C1250 0.949 . S
C1245 H1240 0.950 . S
C1245 C1247 1.327 . S
C1245 C1251 1.429 . S
C1246 C1238 1.574 . S
C1246 H1241 0.949 . S
C1246 C1252 1.368 . S
C1247 C1231 1.349 . S
C1247 H1239 0.950 . S
C1247 C1245 1.327 . S
C1248 C1236 1.349 . S
C1248 H1242 0.950 . S
C1248 C1249 1.327 . S
C1249 H1243 0.950 . S
C1249 C1248 1.327 . S
C1249 C1253 1.429 . S
C1250 C1233 1.574 . S
C1250 H1244 0.949 . S
C1250 C1254 1.368 . S
C1251 C1232 1.429 . S
C1251 C1245 1.429 . S
C1251 C1252 1.523 . S
C1252 C1233 1.368 . S
C1252 C1246 1.368 . S
C1252 C1251 1.523 . S
C1253 C1237 1.429 . S
C1253 C1249 1.429 . S
C1253 C1254 1.523 . S
C1254 C1238 1.368 . S
C1254 C1250 1.368 . S
C1254 C1253 1.523 . S
H1255 C1230 0.950 . S
H1256 C1232 0.950 . S
H1257 C1233 0.949 . S
H1258 C1235 0.950 . S
H1259 C1237 0.950 . S
C1260 C1261 1.349 . S
C1260 C1262 1.327 . S
C1260 H1285 0.950 . S
C1261 C1260 1.349 . S
C1261 C1277 1.349 . S
C1262 C1260 1.327 . S
C1262 C1281 1.429 . S
C1262 H1286 0.950 . S
C1263 C1280 1.574 . S
C1263 C1282 1.368 . S
C1263 H1287 0.949 . S
H1264 C1268 0.949 . S
C1265 C1266 1.349 . S
C1265 C1267 1.327 . S
C1265 H1288 0.950 . S
C1266 C1265 1.349 . S
C1266 C1278 1.349 . S
C1267 C1265 1.327 . S
C1267 C1283 1.429 . S
C1267 H1289 0.950 . S
C1268 H1264 0.949 . S
C1268 C1276 1.574 . S
C1268 C1284 1.368 . S
H1269 C1277 0.950 . S
H1270 C1275 0.950 . S
H1271 C1276 0.949 . S
H1272 C1278 0.950 . S
H1273 C1279 0.950 . S
H1274 C1280 0.949 . S
C1275 H1270 0.950 . S
C1275 C1277 1.327 . S
C1275 C1281 1.429 . S
C1276 C1268 1.574 . S
C1276 H1271 0.949 . S
C1276 C1282 1.368 . S
C1277 C1261 1.349 . S
C1277 H1269 0.950 . S
C1277 C1275 1.327 . S
C1278 C1266 1.349 . S
C1278 H1272 0.950 . S
C1278 C1279 1.327 . S
C1279 H1273 0.950 . S
C1279 C1278 1.327 . S
C1279 C1283 1.429 . S
C1280 C1263 1.574 . S
C1280 H1274 0.949 . S
C1280 C1284 1.368 . S
C1281 C1262 1.429 . S
C1281 C1275 1.429 . S
C1281 C1282 1.523 . S
C1282 C1263 1.368 . S
C1282 C1276 1.368 . S
C1282 C1281 1.523 . S
C1283 C1267 1.429 . S
C1283 C1279 1.429 . S
C1283 C1284 1.523 . S
C1284 C1268 1.368 . S
C1284 C1280 1.368 . S
C1284 C1283 1.523 . S
H1285 C1260 0.950 . S
H1286 C1262 0.950 . S
H1287 C1263 0.949 . S
H1288 C1265 0.950 . S
H1289 C1267 0.950 . S
C1290 C1291 1.349 . S
C1290 C1292 1.327 . S
C1290 H1315 0.950 . S
C1291 C1290 1.349 . S
C1291 C1307 1.349 . S
C1292 C1290 1.327 . S
C1292 C1311 1.429 . S
C1292 H1316 0.950 . S
C1293 C1310 1.574 . S
C1293 C1312 1.368 . S
C1293 H1317 0.949 . S
H1294 C1298 0.949 . S
C1295 C1296 1.349 . S
C1295 C1297 1.327 . S
C1295 H1318 0.950 . S
C1296 C1295 1.349 . S
C1296 C1308 1.349 . S
C1297 C1295 1.327 . S
C1297 C1313 1.429 . S
C1297 H1319 0.950 . S
C1298 H1294 0.949 . S
C1298 C1306 1.574 . S
C1298 C1314 1.368 . S
H1299 C1307 0.950 . S
H1300 C1305 0.950 . S
H1301 C1306 0.949 . S
H1302 C1308 0.950 . S
H1303 C1309 0.950 . S
H1304 C1310 0.949 . S
C1305 H1300 0.950 . S
C1305 C1307 1.327 . S
C1305 C1311 1.429 . S
C1306 C1298 1.574 . S
C1306 H1301 0.949 . S
C1306 C1312 1.368 . S
C1307 C1291 1.349 . S
C1307 H1299 0.950 . S
C1307 C1305 1.327 . S
C1308 C1296 1.349 . S
C1308 H1302 0.950 . S
C1308 C1309 1.327 . S
C1309 H1303 0.950 . S
C1309 C1308 1.327 . S
C1309 C1313 1.429 . S
C1310 C1293 1.574 . S
C1310 H1304 0.949 . S
C1310 C1314 1.368 . S
C1311 C1292 1.429 . S
C1311 C1305 1.429 . S
C1311 C1312 1.523 . S
C1312 C1293 1.368 . S
C1312 C1306 1.368 . S
C1312 C1311 1.523 . S
C1313 C1297 1.429 . S
C1313 C1309 1.429 . S
C1313 C1314 1.523 . S
C1314 C1298 1.368 . S
C1314 C1310 1.368 . S
C1314 C1313 1.523 . S
H1315 C1290 0.950 . S
H1316 C1292 0.950 . S
H1317 C1293 0.949 . S
H1318 C1295 0.950 . S
H1319 C1297 0.950 . S
C1320 C1321 1.349 . S
C1320 C1322 1.327 . S
C1320 H1345 0.950 . S
C1321 C1320 1.349 . S
C1321 C1337 1.349 . S
C1322 C1320 1.327 . S
C1322 C1341 1.429 . S
C1322 H1346 0.950 . S
C1323 C1340 1.574 . S
C1323 C1342 1.368 . S
C1323 H1347 0.949 . S
H1324 C1328 0.949 . S
C1325 C1326 1.349 . S
C1325 C1327 1.327 . S
C1325 H1348 0.950 . S
C1326 C1325 1.349 . S
C1326 C1338 1.349 . S
C1327 C1325 1.327 . S
C1327 C1343 1.429 . S
C1327 H1349 0.950 . S
C1328 H1324 0.949 . S
C1328 C1336 1.574 . S
C1328 C1344 1.368 . S
H1329 C1337 0.950 . S
H1330 C1335 0.950 . S
H1331 C1336 0.949 . S
H1332 C1338 0.950 . S
H1333 C1339 0.950 . S
H1334 C1340 0.949 . S
C1335 H1330 0.950 . S
C1335 C1337 1.327 . S
C1335 C1341 1.429 . S
C1336 C1328 1.574 . S
C1336 H1331 0.949 . S
C1336 C1342 1.368 . S
C1337 C1321 1.349 . S
C1337 H1329 0.950 . S
C1337 C1335 1.327 . S
C1338 C1326 1.349 . S
C1338 H1332 0.950 . S
C1338 C1339 1.327 . S
C1339 H1333 0.950 . S
C1339 C1338 1.327 . S
C1339 C1343 1.429 . S
C1340 C1323 1.574 . S
C1340 H1334 0.949 . S
C1340 C1344 1.368 . S
C1341 C1322 1.429 . S
C1341 C1335 1.429 . S
C1341 C1342 1.523 . S
C1342 C1323 1.368 . S
C1342 C1336 1.368 . S
C1342 C1341 1.523 . S
C1343 C1327 1.429 . S
C1343 C1339 1.429 . S
C1343 C1344 1.523 . S
C1344 C1328 1.368 . S
C1344 C1340 1.368 . S
C1344 C1343 1.523 . S
H1345 C1320 0.950 . S
H1346 C1322 0.950 . S
H1347 C1323 0.949 . S
H1348 C1325 0.950 . S
H1349 C1327 0.950 . S
C1350 C1351 1.349 . S
C1350 C1352 1.327 . S
C1350 H1375 0.950 . S
C1351 C1350 1.349 . S
C1351 C1367 1.349 . S
C1352 C1350 1.327 . S
C1352 C1371 1.429 . S
C1352 H1376 0.950 . S
C1353 C1370 1.574 . S
C1353 C1372 1.368 . S
C1353 H1377 0.949 . S
H1354 C1358 0.949 . S
C1355 C1356 1.349 . S
C1355 C1357 1.327 . S
C1355 H1378 0.950 . S
C1356 C1355 1.349 . S
C1356 C1368 1.349 . S
C1357 C1355 1.327 . S
C1357 C1373 1.429 . S
C1357 H1379 0.950 . S
C1358 H1354 0.949 . S
C1358 C1366 1.574 . S
C1358 C1374 1.368 . S
H1359 C1367 0.950 . S
H1360 C1365 0.950 . S
H1361 C1366 0.949 . S
H1362 C1368 0.950 . S
H1363 C1369 0.950 . S
H1364 C1370 0.949 . S
C1365 H1360 0.950 . S
C1365 C1367 1.327 . S
C1365 C1371 1.429 . S
C1366 C1358 1.574 . S
C1366 H1361 0.949 . S
C1366 C1372 1.368 . S
C1367 C1351 1.349 . S
C1367 H1359 0.950 . S
C1367 C1365 1.327 . S
C1368 C1356 1.349 . S
C1368 H1362 0.950 . S
C1368 C1369 1.327 . S
C1369 H1363 0.950 . S
C1369 C1368 1.327 . S
C1369 C1373 1.429 . S
C1370 C1353 1.574 . S
C1370 H1364 0.949 . S
C1370 C1374 1.368 . S
C1371 C1352 1.429 . S
C1371 C1365 1.429 . S
C1371 C1372 1.523 . S
C1372 C1353 1.368 . S
C1372 C1366 1.368 . S
C1372 C1371 1.523 . S
C1373 C1357 1.429 . S
C1373 C1369 1.429 . S
C1373 C1374 1.523 . S
C1374 C1358 1.368 . S
C1374 C1370 1.368 . S
C1374 C1373 1.523 . S
H1375 C1350 0.950 . S
H1376 C1352 0.950 . S
H1377 C1353 0.949 . S
H1378 C1355 0.950 . S
H1379 C1357 0.950 . S
C1380 C1381 1.349 . S
C1380 C1382 1.327 . S
C1380 H1405 0.950 . S
C1381 C1380 1.349 . S
C1381 C1397 1.349 . S
C1382 C1380 1.327 . S
C1382 C1401 1.429 . S
C1382 H1406 0.950 . S
C1383 C1400 1.574 . S
C1383 C1402 1.368 . S
C1383 H1407 0.949 . S
H1384 C1388 0.949 . S
C1385 C1386 1.349 . S
C1385 C1387 1.327 . S
C1385 H1408 0.950 . S
C1386 C1385 1.349 . S
C1386 C1398 1.349 . S
C1387 C1385 1.327 . S
C1387 C1403 1.429 . S
C1387 H1409 0.950 . S
C1388 H1384 0.949 . S
C1388 C1396 1.574 . S
C1388 C1404 1.368 . S
H1389 C1397 0.950 . S
H1390 C1395 0.950 . S
H1391 C1396 0.949 . S
H1392 C1398 0.950 . S
H1393 C1399 0.950 . S
H1394 C1400 0.949 . S
C1395 H1390 0.950 . S
C1395 C1397 1.327 . S
C1395 C1401 1.429 . S
C1396 C1388 1.574 . S
C1396 H1391 0.949 . S
C1396 C1402 1.368 . S
C1397 C1381 1.349 . S
C1397 H1389 0.950 . S
C1397 C1395 1.327 . S
C1398 C1386 1.349 . S
C1398 H1392 0.950 . S
C1398 C1399 1.327 . S
C1399 H1393 0.950 . S
C1399 C1398 1.327 . S
C1399 C1403 1.429 . S
C1400 C1383 1.574 . S
C1400 H1394 0.949 . S
C1400 C1404 1.368 . S
C1401 C1382 1.429 . S
C1401 C1395 1.429 . S
C1401 C1402 1.523 . S
C1402 C1383 1.368 . S
C1402 C1396 1.368 . S
C1402 C1401 1.523 . S
C1403 C1387 1.429 . S
C1403 C1399 1.429 . S
C1403 C1404 1.523 . S
C1404 C1388 1.368 . S
C1404 C1400 1.368 . S
C1404 C1403 1.523 . S
H1405 C1380 0.950 . S
H1406 C1382 0.950 . S
H1407 C1383 0.949 . S
H1408 C1385 0.950 . S
H1409 C1387 0.950 . S
C1410 C1411 1.349 . S
C1410 C1412 1.327 . S
C1410 H1435 0.950 . S
C1411 C1410 1.349 . S
C1411 C1427 1.349 . S
C1412 C1410 1.327 . S
C1412 C1431 1.429 . S
C1412 H1436 0.950 . S
C1413 C1430 1.574 . S
C1413 C1432 1.368 . S
C1413 H1437 0.949 . S
H1414 C1418 0.949 . S
C1415 C1416 1.349 . S
C1415 C1417 1.327 . S
C1415 H1438 0.950 . S
C1416 C1415 1.349 . S
C1416 C1428 1.349 . S
C1417 C1415 1.327 . S
C1417 C1433 1.429 . S
C1417 H1439 0.950 . S
C1418 H1414 0.949 . S
C1418 C1426 1.574 . S
C1418 C1434 1.368 . S
H1419 C1427 0.950 . S
H1420 C1425 0.950 . S
H1421 C1426 0.949 . S
H1422 C1428 0.950 . S
H1423 C1429 0.950 . S
H1424 C1430 0.949 . S
C1425 H1420 0.950 . S
C1425 C1427 1.327 . S
C1425 C1431 1.429 . S
C1426 C1418 1.574 . S
C1426 H1421 0.949 . S
C1426 C1432 1.368 . S
C1427 C1411 1.349 . S
C1427 H1419 0.950 . S
C1427 C1425 1.327 . S
C1428 C1416 1.349 . S
C1428 H1422 0.950 . S
C1428 C1429 1.327 . S
C1429 H1423 0.950 . S
C1429 C1428 1.327 . S
C1429 C1433 1.429 . S
C1430 C1413 1.574 . S
C1430 H1424 0.949 . S
C1430 C1434 1.368 . S
C1431 C1412 1.429 . S
C1431 C1425 1.429 . S
C1431 C1432 1.523 . S
C1432 C1413 1.368 . S
C1432 C1426 1.368 . S
C1432 C1431 1.523 . S
C1433 C1417 1.429 . S
C1433 C1429 1.429 . S
C1433 C1434 1.523 . S
C1434 C1418 1.368 . S
C1434 C1430 1.368 . S
C1434 C1433 1.523 . S
H1435 C1410 0.950 . S
H1436 C1412 0.950 . S
H1437 C1413 0.949 . S
H1438 C1415 0.950 . S
H1439 C1417 0.950 . S
C1440 C1441 1.349 . S
C1440 C1442 1.327 . S
C1440 H1465 0.950 . S
C1441 C1440 1.349 . S
C1441 C1457 1.349 . S
C1442 C1440 1.327 . S
C1442 C1461 1.429 . S
C1442 H1466 0.950 . S
C1443 C1460 1.574 . S
C1443 C1462 1.368 . S
C1443 H1467 0.949 . S
H1444 C1448 0.949 . S
C1445 C1446 1.349 . S
C1445 C1447 1.327 . S
C1445 H1468 0.950 . S
C1446 C1445 1.349 . S
C1446 C1458 1.349 . S
C1447 C1445 1.327 . S
C1447 C1463 1.429 . S
C1447 H1469 0.950 . S
C1448 H1444 0.949 . S
C1448 C1456 1.574 . S
C1448 C1464 1.368 . S
H1449 C1457 0.950 . S
H1450 C1455 0.950 . S
H1451 C1456 0.949 . S
H1452 C1458 0.950 . S
H1453 C1459 0.950 . S
H1454 C1460 0.949 . S
C1455 H1450 0.950 . S
C1455 C1457 1.327 . S
C1455 C1461 1.429 . S
C1456 C1448 1.574 . S
C1456 H1451 0.949 . S
C1456 C1462 1.368 . S
C1457 C1441 1.349 . S
C1457 H1449 0.950 . S
C1457 C1455 1.327 . S
C1458 C1446 1.349 . S
C1458 H1452 0.950 . S
C1458 C1459 1.327 . S
C1459 H1453 0.950 . S
C1459 C1458 1.327 . S
C1459 C1463 1.429 . S
C1460 C1443 1.574 . S
C1460 H1454 0.949 . S
C1460 C1464 1.368 . S
C1461 C1442 1.429 . S
C1461 C1455 1.429 . S
C1461 C1462 1.523 . S
C1462 C1443 1.368 . S
C1462 C1456 1.368 . S
C1462 C1461 1.523 . S
C1463 C1447 1.429 . S
C1463 C1459 1.429 . S
C1463 C1464 1.523 . S
C1464 C1448 1.368 . S
C1464 C1460 1.368 . S
C1464 C1463 1.523 . S
H1465 C1440 0.950 . S
H1466 C1442 0.950 . S
H1467 C1443 0.949 . S
H1468 C1445 0.950 . S
H1469 C1447 0.950 . S
C1470 C1471 1.349 . S
C1470 C1472 1.327 . S
C1470 H1495 0.950 . S
C1471 C1470 1.349 . S
C1471 C1487 1.349 . S
C1472 C1470 1.327 . S
C1472 C1491 1.429 . S
C1472 H1496 0.950 . S
C1473 C1490 1.574 . S
C1473 C1492 1.368 . S
C1473 H1497 0.949 . S
H1474 C1478 0.949 . S
C1475 C1476 1.349 . S
C1475 C1477 1.327 . S
C1475 H1498 0.950 . S
C1476 C1475 1.349 . S
C1476 C1488 1.349 . S
C1477 C1475 1.327 . S
C1477 C1493 1.429 . S
C1477 H1499 0.950 . S
C1478 H1474 0.949 . S
C1478 C1486 1.574 . S
C1478 C1494 1.368 . S
H1479 C1487 0.950 . S
H1480 C1485 0.950 . S
H1481 C1486 0.949 . S
H1482 C1488 0.950 . S
H1483 C1489 0.950 . S
H1484 C1490 0.949 . S
C1485 H1480 0.950 . S
C1485 C1487 1.327 . S
C1485 C1491 1.429 . S
C1486 C1478 1.574 . S
C1486 H1481 0.949 . S
C1486 C1492 1.368 . S
C1487 C1471 1.349 . S
C1487 H1479 0.950 . S
C1487 C1485 1.327 . S
C1488 C1476 1.349 . S
C1488 H1482 0.950 . S
C1488 C1489 1.327 . S
C1489 H1483 0.950 . S
C1489 C1488 1.327 . S
C1489 C1493 1.429 . S
C1490 C1473 1.574 . S
C1490 H1484 0.949 . S
C1490 C1494 1.368 . S
C1491 C1472 1.429 . S
C1491 C1485 1.429 . S
C1491 C1492 1.523 . S
C1492 C1473 1.368 . S
C1492 C1486 1.368 . S
C1492 C1491 1.523 . S
C1493 C1477 1.429 . S
C1493 C1489 1.429 . S
C1493 C1494 1.523 . S
C1494 C1478 1.368 . S
C1494 C1490 1.368 . S
C1494 C1493 1.523 . S
H1495 C1470 0.950 . S
H1496 C1472 0.950 . S
H1497 C1473 0.949 . S
H1498 C1475 0.950 . S
H1499 C1477 0.950 . S
C1500 C1501 1.349 . S
C1500 C1502 1.327 . S
C1500 H1525 0.950 . S
C1501 C1500 1.349 . S
C1501 C1517 1.349 . S
C1502 C1500 1.327 . S
C1502 C1521 1.429 . S
C1502 H1526 0.950 . S
C1503 C1520 1.574 . S
C1503 C1522 1.368 . S
C1503 H1527 0.949 . S
H1504 C1508 0.949 . S
C1505 C1506 1.349 . S
C1505 C1507 1.327 . S
C1505 H1528 0.950 . S
C1506 C1505 1.349 . S
C1506 C1518 1.349 . S
C1507 C1505 1.327 . S
C1507 C1523 1.429 . S
C1507 H1529 0.950 . S
C1508 H1504 0.949 . S
C1508 C1516 1.574 . S
C1508 C1524 1.368 . S
H1509 C1517 0.950 . S
H1510 C1515 0.950 . S
H1511 C1516 0.949 . S
H1512 C1518 0.950 . S
H1513 C1519 0.950 . S
H1514 C1520 0.949 . S
C1515 H1510 0.950 . S
C1515 C1517 1.327 . S
C1515 C1521 1.429 . S
C1516 C1508 1.574 . S
C1516 H1511 0.949 . S
C1516 C1522 1.368 . S
C1517 C1501 1.349 . S
C1517 H1509 0.950 . S
C1517 C1515 1.327 . S
C1518 C1506 1.349 . S
C1518 H1512 0.950 . S
C1518 C1519 1.327 . S
C1519 H1513 0.950 . S
C1519 C1518 1.327 . S
C1519 C1523 1.429 . S
C1520 C1503 1.574 . S
C1520 H1514 0.949 . S
C1520 C1524 1.368 . S
C1521 C1502 1.429 . S
C1521 C1515 1.429 . S
C1521 C1522 1.523 . S
C1522 C1503 1.368 . S
C1522 C1516 1.368 . S
C1522 C1521 1.523 . S
C1523 C1507 1.429 . S
C1523 C1519 1.429 . S
C1523 C1524 1.523 . S
C1524 C1508 1.368 . S
C1524 C1520 1.368 . S
C1524 C1523 1.523 . S
H1525 C1500 0.950 . S
H1526 C1502 0.950 . S
H1527 C1503 0.949 . S
H1528 C1505 0.950 . S
H1529 C1507 0.950 . S
C1530 C1531 1.349 . S
C1530 C1532 1.327 . S
C1530 H1555 0.950 . S
C1531 C1530 1.349 . S
C1531 C1547 1.349 . S
C1532 C1530 1.327 . S
C1532 C1551 1.429 . S
C1532 H1556 0.950 . S
C1533 C1550 1.574 . S
C1533 C1552 1.368 . S
C1533 H1557 0.949 . S
H1534 C1538 0.949 . S
C1535 C1536 1.349 . S
C1535 C1537 1.327 . S
C1535 H1558 0.950 . S
C1536 C1535 1.349 . S
C1536 C1548 1.349 . S
C1537 C1535 1.327 . S
C1537 C1553 1.429 . S
C1537 H1559 0.950 . S
C1538 H1534 0.949 . S
C1538 C1546 1.574 . S
C1538 C1554 1.368 . S
H1539 C1547 0.950 . S
H1540 C1545 0.950 . S
H1541 C1546 0.949 . S
H1542 C1548 0.950 . S
H1543 C1549 0.950 . S
H1544 C1550 0.949 . S
C1545 H1540 0.950 . S
C1545 C1547 1.327 . S
C1545 C1551 1.429 . S
C1546 C1538 1.574 . S
C1546 H1541 0.949 . S
C1546 C1552 1.368 . S
C1547 C1531 1.349 . S
C1547 H1539 0.950 . S
C1547 C1545 1.327 . S
C1548 C1536 1.349 . S
C1548 H1542 0.950 . S
C1548 C1549 1.327 . S
C1549 H1543 0.950 . S
C1549 C1548 1.327 . S
C1549 C1553 1.429 . S
C1550 C1533 1.574 . S
C1550 H1544 0.949 . S
C1550 C1554 1.368 . S
C1551 C1532 1.429 . S
C1551 C1545 1.429 . S
C1551 C1552 1.523 . S
C1552 C1533 1.368 . S
C1552 C1546 1.368 . S
C1552 C1551 1.523 . S
C1553 C1537 1.429 . S
C1553 C1549 1.429 . S
C1553 C1554 1.523 . S
C1554 C1538 1.368 . S
C1554 C1550 1.368 . S
C1554 C1553 1.523 . S
H1555 C1530 0.950 . S
H1556 C1532 0.950 . S
H1557 C1533 0.949 . S
H1558 C1535 0.950 . S
H1559 C1537 0.950 . S
C481 C85 1.172 . S
C486 C9 1.151 . S
C511 C135 1.173 . S
C516 C59 1.151 . S
C541 C89 1.151 . S
C546 C165 1.172 . S
C571 C139 1.151 . S
C576 C215 1.172 . S
C601 C5 1.173 . S
C606 C169 1.151 . S
C631 C55 1.172 . S
C636 C219 1.151 . S
C661 C415 1.172 . S
C666 C259 1.151 . S
C691 C289 1.151 . S
C696 C445 1.172 . S
C721 C339 1.151 . S
C726 C255 1.173 . S
C751 C369 1.151 . S
C756 C285 1.172 . S
C781 C419 1.151 . S
C786 C335 1.172 . S
C811 C365 1.173 . S
C816 C449 1.151 . S
C841 C138 1.751 . S
C846 C8 1.751 . S
C871 C58 1.751 . S
C876 C168 1.751 . S
C901 C88 1.751 . S
C906 C218 1.751 . S
C931 C258 1.751 . S
C936 C368 1.751 . S
C961 C288 1.751 . S
C966 C418 1.751 . S
C991 C338 1.751 . S
C996 C448 1.751 . S
C1021 C298 2.250 . S
C1026 C18 2.250 . S
C1051 C48 2.250 . S
C1056 C328 2.250 . S
C1081 C378 2.250 . S
C1086 C98 2.250 . S
C1111 C128 2.250 . S
C1116 C408 2.250 . S
C1141 C178 2.250 . S
C1146 C458 2.250 . S
C1171 C248 2.250 . S
C1176 C208 2.250 . S
C1201 C95 1.658 . S
C1206 C19 1.657 . S
C1231 C49 1.657 . S
C1236 C125 1.658 . S
C1261 C99 1.656 . S
C1266 C175 1.658 . S
C1291 C129 1.657 . S
C1296 C205 1.658 . S
C1321 C15 1.658 . S
C1326 C179 1.657 . S
C1351 C45 1.658 . S
C1356 C209 1.656 . S
C1381 C405 1.658 . S
C1386 C249 1.657 . S
C1411 C299 1.656 . S
C1416 C455 1.658 . S
C1441 C329 1.657 . S
C1446 C245 1.658 . S
C1471 C295 1.658 . S
C1476 C379 1.657 . S
C1501 C409 1.656 . S
C1506 C325 1.658 . S
C1531 C459 1.657 . S
C1536 C375 1.658 . S
