# Generated by pormake.
# Topology vmg, (6)-cn, num edge types: 1
# Building blocks:
#     Node 0, Type 0, BuildingBlock: VOLQOD_clean_sbu_1, # of connection points: 6
#     Node 1, Type 0, BuildingBlock: VOLQOD_clean_sbu_1, # of connection points: 6
#     Node 2, Type 0, BuildingBlock: VOLQOD_clean_sbu_1, # of connection points: 6
#     Node 3, Type 0, BuildingBlock: VOLQOD_clean_sbu_1, # of connection points: 6
#     Node 4, Type 0, BuildingBlock: VOLQOD_clean_sbu_1, # of connection points: 6
#     Node 5, Type 0, BuildingBlock: VOLQOD_clean_sbu_1, # of connection points: 6
#     Node 6, Type 0, BuildingBlock: VOLQOD_clean_sbu_1, # of connection points: 6
#     Node 7, Type 0, BuildingBlock: VOLQOD_clean_sbu_1, # of connection points: 6
#     Edge 8, Type (0, 0), BuildingBlock: XIVTED_clean_linker_0, # of connection points: 2
#     Edge 9, Type (0, 0), BuildingBlock: XIVTED_clean_linker_0, # of connection points: 2
#     Edge 10, Type (0, 0), BuildingBlock: XIVTED_clean_linker_0, # of connection points: 2
#     Edge 11, Type (0, 0), BuildingBlock: XIVTED_clean_linker_0, # of connection points: 2
#     Edge 12, Type (0, 0), BuildingBlock: XIVTED_clean_linker_0, # of connection points: 2
#     Edge 13, Type (0, 0), BuildingBlock: XIVTED_clean_linker_0, # of connection points: 2
#     Edge 14, Type (0, 0), BuildingBlock: XIVTED_clean_linker_0, # of connection points: 2
#     Edge 15, Type (0, 0), BuildingBlock: XIVTED_clean_linker_0, # of connection points: 2
#     Edge 16, Type (0, 0), BuildingBlock: XIVTED_clean_linker_0, # of connection points: 2
#     Edge 17, Type (0, 0), BuildingBlock: XIVTED_clean_linker_0, # of connection points: 2
#     Edge 18, Type (0, 0), BuildingBlock: XIVTED_clean_linker_0, # of connection points: 2
#     Edge 19, Type (0, 0), BuildingBlock: XIVTED_clean_linker_0, # of connection points: 2
#     Edge 20, Type (0, 0), BuildingBlock: XIVTED_clean_linker_0, # of connection points: 2
#     Edge 21, Type (0, 0), BuildingBlock: XIVTED_clean_linker_0, # of connection points: 2
#     Edge 22, Type (0, 0), BuildingBlock: XIVTED_clean_linker_0, # of connection points: 2
#     Edge 23, Type (0, 0), BuildingBlock: XIVTED_clean_linker_0, # of connection points: 2
#     Edge 24, Type (0, 0), BuildingBlock: XIVTED_clean_linker_0, # of connection points: 2
#     Edge 25, Type (0, 0), BuildingBlock: XIVTED_clean_linker_0, # of connection points: 2
#     Edge 26, Type (0, 0), BuildingBlock: XIVTED_clean_linker_0, # of connection points: 2
#     Edge 27, Type (0, 0), BuildingBlock: XIVTED_clean_linker_0, # of connection points: 2
#     Edge 28, Type (0, 0), BuildingBlock: XIVTED_clean_linker_0, # of connection points: 2
#     Edge 29, Type (0, 0), BuildingBlock: XIVTED_clean_linker_0, # of connection points: 2
#     Edge 30, Type (0, 0), BuildingBlock: XIVTED_clean_linker_0, # of connection points: 2
#     Edge 31, Type (0, 0), BuildingBlock: XIVTED_clean_linker_0, # of connection points: 2
# Relax obj value: 0.364
# Max RMSD: 0.272
# Mean RMSD: 0.272
data_MOF--net-vmg--node1-VOLQOD_clean_sbu_1--edge1-XIVTED_clean_linker_0
_symmetry_space_group_name_H-M    P1
_symmetry_Int_Tables_number       1
_symmetry_cell_setting            triclinic
loop_
_symmetry_equiv_pos_as_xyz
'x, y, z'
_cell_length_a     28.89181
_cell_length_b     48.361221
_cell_length_c     27.755998
_cell_angle_alpha  90.045072
_cell_angle_beta   97.060765
_cell_angle_gamma 89.96596
loop_
_atom_site_label
_atom_site_type_symbol
_atom_site_fract_x
_atom_site_fract_y
_atom_site_fract_z
_atom_type_partial_charge
O0 O 0.16263 0.44182 0.11064 0.0
Zn1 Zn 0.22876 0.43038 0.13369 0.0
O2 O 0.23286 0.39057 0.1309 0.0
Zn3 Zn 0.24347 0.37419 0.19474 0.0
Zn4 Zn 0.1767 0.37591 0.0962 0.0
Zn5 Zn 0.28292 0.38089 0.09519 0.0
O6 O 0.30301 0.35146 0.20125 0.0
O7 O 0.33765 0.36888 0.1405 0.0
O8 O 0.24942 0.44428 0.20237 0.0
O9 O 0.25557 0.40469 0.24348 0.0
O10 O 0.18595 0.35323 0.21116 0.0
O11 O 0.13831 0.35912 0.14286 0.0
O12 O 0.18955 0.34476 0.05198 0.0
O13 O 0.26544 0.44776 0.08379 0.0
O14 O 0.26638 0.34748 0.05568 0.0
O15 O 0.29717 0.41161 0.05095 0.0
C16 C 0.13332 0.43094 0.07789 0.0
C17 C 0.33883 0.3543 0.17887 0.0
C18 C 0.14604 0.35034 0.18623 0.0
C19 C 0.25788 0.43099 0.24227 0.0
C20 C 0.22819 0.33538 0.04141 0.0
C21 C 0.28829 0.43739 0.05163 0.0
O22 O 0.13807 0.40622 0.06327 0.0
O23 O 0.83137 0.44108 0.39255 0.0
Zn24 Zn 0.76562 0.42904 0.3696 0.0
O25 O 0.76253 0.3892 0.37334 0.0
Zn26 Zn 0.75373 0.37231 0.30973 0.0
Zn27 Zn 0.81822 0.37514 0.41005 0.0
Zn28 Zn 0.71158 0.37965 0.40776 0.0
O29 O 0.69448 0.34927 0.30202 0.0
O30 O 0.6582 0.36692 0.3615 0.0
O31 O 0.74483 0.44223 0.3005 0.0
O32 O 0.74174 0.40234 0.26022 0.0
O33 O 0.81228 0.35161 0.29528 0.0
O34 O 0.85746 0.35721 0.36535 0.0
O35 O 0.8049 0.34491 0.45595 0.0
O36 O 0.72847 0.44658 0.41906 0.0
O37 O 0.72782 0.3469 0.44879 0.0
O38 O 0.6956 0.41054 0.45076 0.0
C39 C 0.8607 0.43075 0.42585 0.0
C40 C 0.65805 0.35215 0.32344 0.0
C41 C 0.85122 0.34838 0.32191 0.0
C42 C 0.7379 0.42857 0.26082 0.0
C43 C 0.76595 0.3354 0.46534 0.0
C44 C 0.7047 0.43628 0.45047 0.0
O45 O 0.85632 0.4062 0.44141 0.0
O46 O 0.82976 0.52926 0.89324 0.0
Zn47 Zn 0.76373 0.54074 0.8698 0.0
O48 O 0.75957 0.58053 0.87345 0.0
Zn49 Zn 0.75006 0.59744 0.80999 0.0
Zn50 Zn 0.81524 0.59497 0.90946 0.0
Zn51 Zn 0.70874 0.58982 0.90832 0.0
O52 O 0.69073 0.62041 0.80302 0.0
O53 O 0.65493 0.6025 0.86254 0.0
O54 O 0.74355 0.52741 0.80061 0.0
O55 O 0.73831 0.56733 0.76045 0.0
O56 O 0.80818 0.61831 0.79507 0.0
O57 O 0.8547 0.61197 0.86399 0.0
O58 O 0.80153 0.6258 0.95405 0.0
O59 O 0.72667 0.52293 0.91901 0.0
O60 O 0.72468 0.62261 0.94949 0.0
O61 O 0.69334 0.55875 0.95107 0.0
C62 C 0.85843 0.53983 0.92691 0.0
C63 C 0.6545 0.61746 0.82472 0.0
C64 C 0.84778 0.62098 0.82071 0.0
C65 C 0.7357 0.54104 0.76099 0.0
C66 C 0.76261 0.63477 0.9646 0.0
C67 C 0.70277 0.53305 0.95051 0.0
O68 O 0.85322 0.56435 0.94228 0.0
O69 O 0.16125 0.53205 0.60943 0.0
Zn70 Zn 0.22707 0.54367 0.63258 0.0
O71 O 0.23049 0.58352 0.63054 0.0
Zn72 Zn 0.2402 0.59935 0.69504 0.0
Zn73 Zn 0.17451 0.5982 0.59518 0.0
Zn74 Zn 0.28103 0.59347 0.59569 0.0
O75 O 0.29952 0.62232 0.70283 0.0
O76 O 0.33487 0.60574 0.64182 0.0
O77 O 0.24784 0.52936 0.70085 0.0
O78 O 0.25245 0.56855 0.74319 0.0
O79 O 0.18207 0.6199 0.71123 0.0
O80 O 0.13615 0.61556 0.64132 0.0
O81 O 0.1876 0.62906 0.55044 0.0
O82 O 0.26399 0.52669 0.58251 0.0
O83 O 0.26458 0.62668 0.55585 0.0
O84 O 0.2966 0.56303 0.55144 0.0
C85 C 0.1315 0.54287 0.57709 0.0
C86 C 0.33555 0.61993 0.68061 0.0
C87 C 0.14297 0.62366 0.68516 0.0
C88 C 0.25557 0.5423 0.74118 0.0
C89 C 0.2264 0.63852 0.54054 0.0
C90 C 0.28756 0.53727 0.5512 0.0
O91 O 0.13565 0.56769 0.56273 0.0
O92 O 0.6556 0.93886 0.10763 0.0
Zn93 Zn 0.72189 0.92802 0.13102 0.0
O94 O 0.72698 0.88826 0.12732 0.0
Zn95 Zn 0.73698 0.87135 0.19074 0.0
Zn96 Zn 0.67168 0.87348 0.0913 0.0
Zn97 Zn 0.77767 0.87935 0.09208 0.0
O98 O 0.79673 0.84866 0.19723 0.0
O99 O 0.83189 0.86719 0.13771 0.0
O100 O 0.74181 0.94154 0.2003 0.0
O101 O 0.7492 0.90152 0.24002 0.0
O102 O 0.67867 0.85054 0.20619 0.0
O103 O 0.63251 0.85653 0.1369 0.0
O104 O 0.68579 0.84248 0.0473 0.0
O105 O 0.75832 0.94615 0.08148 0.0
O106 O 0.76252 0.84622 0.05146 0.0
O107 O 0.79191 0.91055 0.049 0.0
C108 C 0.62739 0.92819 0.07364 0.0
C109 C 0.83279 0.85207 0.1754 0.0
C110 C 0.63919 0.84773 0.18031 0.0
C111 C 0.75091 0.92784 0.23972 0.0
C112 C 0.72483 0.83369 0.03681 0.0
C113 C 0.78203 0.9362 0.04965 0.0
O114 O 0.63328 0.9038 0.05802 0.0
O115 O 0.3274 0.94197 0.39025 0.0
Zn116 Zn 0.2613 0.93075 0.36657 0.0
O117 O 0.25656 0.89099 0.37032 0.0
Zn118 Zn 0.24768 0.87399 0.30681 0.0
Zn119 Zn 0.31166 0.87652 0.40715 0.0
Zn120 Zn 0.20541 0.88205 0.40495 0.0
O121 O 0.18789 0.85134 0.29947 0.0
O122 O 0.15189 0.86945 0.35884 0.0
O123 O 0.24144 0.94402 0.29733 0.0
O124 O 0.23654 0.90408 0.25712 0.0
O125 O 0.30618 0.85287 0.29275 0.0
O126 O 0.35149 0.85916 0.3625 0.0
O127 O 0.2974 0.846 0.45188 0.0
O128 O 0.22446 0.94886 0.4157 0.0
O129 O 0.22052 0.84923 0.44633 0.0
O130 O 0.1903 0.91336 0.4476 0.0
C131 C 0.35537 0.93142 0.42455 0.0
C132 C 0.15158 0.85443 0.32105 0.0
C133 C 0.34536 0.85009 0.31922 0.0
C134 C 0.23389 0.93037 0.25767 0.0
C135 C 0.25832 0.83709 0.462 0.0
C136 C 0.20029 0.93898 0.44714 0.0
O137 O 0.34948 0.90706 0.44017 0.0
O138 O 0.32883 0.03124 0.89073 0.0
Zn139 Zn 0.26299 0.04304 0.86709 0.0
O140 O 0.2592 0.08286 0.87098 0.0
Zn141 Zn 0.2508 0.09989 0.8075 0.0
Zn142 Zn 0.31453 0.09688 0.9081 0.0
Zn143 Zn 0.20818 0.09227 0.90546 0.0
O144 O 0.1909 0.12247 0.79943 0.0
O145 O 0.15486 0.10493 0.85917 0.0
O146 O 0.243 0.0299 0.79775 0.0
O147 O 0.2399 0.06984 0.75768 0.0
O148 O 0.30945 0.12097 0.79399 0.0
O149 O 0.35457 0.11423 0.86371 0.0
O150 O 0.30088 0.12735 0.95335 0.0
O151 O 0.22561 0.0253 0.91609 0.0
O152 O 0.22387 0.1251 0.94668 0.0
O153 O 0.19247 0.06119 0.94816 0.0
C154 C 0.35719 0.04159 0.9249 0.0
C155 C 0.15454 0.11957 0.82098 0.0
C156 C 0.3486 0.12352 0.8206 0.0
C157 C 0.23638 0.04359 0.7581 0.0
C158 C 0.26193 0.13676 0.96294 0.0
C159 C 0.20175 0.03546 0.94759 0.0
O160 O 0.35194 0.06602 0.94061 0.0
O161 O 0.65527 0.03211 0.60864 0.0
Zn162 Zn 0.72181 0.04258 0.63177 0.0
O163 O 0.72771 0.08222 0.62804 0.0
Zn164 Zn 0.73852 0.09906 0.69159 0.0
Zn165 Zn 0.67248 0.09737 0.59251 0.0
Zn166 Zn 0.77812 0.09061 0.59201 0.0
O167 O 0.79919 0.12084 0.69755 0.0
O168 O 0.83315 0.10212 0.63724 0.0
O169 O 0.74173 0.02903 0.7008 0.0
O170 O 0.74924 0.06887 0.74117 0.0
O171 O 0.68126 0.1209 0.70717 0.0
O172 O 0.63426 0.1149 0.63843 0.0
O173 O 0.68678 0.12809 0.54827 0.0
O174 O 0.75772 0.02405 0.58238 0.0
O175 O 0.76343 0.12407 0.55208 0.0
O176 O 0.79087 0.05919 0.54825 0.0
C177 C 0.627 0.04301 0.57498 0.0
C178 C 0.83487 0.11714 0.67519 0.0
C179 C 0.64166 0.12397 0.68165 0.0
C180 C 0.75052 0.04254 0.74047 0.0
C181 C 0.72584 0.13679 0.53775 0.0
C182 C 0.78084 0.03359 0.54976 0.0
O183 O 0.63316 0.06739 0.55957 0.0
H184 H 0.63231 0.33523 0.2296 0.0
H185 H 0.36487 0.33496 0.27116 0.0
H186 H 0.58219 0.3413 0.36948 0.0
H187 H 0.41508 0.34549 0.13208 0.0
H188 H 0.44392 0.32251 0.30642 0.0
H189 H 0.55304 0.32408 0.19307 0.0
C190 C 0.60485 0.33364 0.25275 0.0
C191 C 0.61342 0.33995 0.30234 0.0
C192 C 0.43739 0.32709 0.26799 0.0
C193 C 0.52309 0.32738 0.261 0.0
C194 C 0.3923 0.33416 0.24787 0.0
C195 C 0.38377 0.34202 0.19898 0.0
C196 C 0.47392 0.3279 0.23892 0.0
C197 C 0.42044 0.3403 0.1703 0.0
C198 C 0.55965 0.32735 0.23191 0.0
C199 C 0.57675 0.33732 0.33081 0.0
N200 N 0.46409 0.33383 0.19086 0.0
N201 N 0.53301 0.33165 0.3096 0.0
H202 H 0.62881 0.63642 0.73212 0.0
H203 H 0.36167 0.63705 0.77429 0.0
H204 H 0.57874 0.62737 0.87155 0.0
H205 H 0.41136 0.63052 0.63424 0.0
H206 H 0.44095 0.64838 0.81043 0.0
H207 H 0.54985 0.64905 0.6967 0.0
C208 C 0.60143 0.63761 0.75544 0.0
C209 C 0.60992 0.63007 0.80448 0.0
C210 C 0.43426 0.64495 0.77163 0.0
C211 C 0.51992 0.64437 0.7644 0.0
C212 C 0.38903 0.63854 0.75102 0.0
C213 C 0.38032 0.63205 0.70151 0.0
C214 C 0.47072 0.64483 0.74243 0.0
C215 C 0.41689 0.63462 0.67288 0.0
C216 C 0.5564 0.64477 0.73524 0.0
C217 C 0.57336 0.63228 0.83322 0.0
N218 N 0.46067 0.64037 0.69388 0.0
N219 N 0.52978 0.63881 0.8126 0.0
H220 H 0.07811 0.8417 0.36943 0.0
H221 H 0.90666 0.84036 0.12684 0.0
H222 H 0.12361 0.83847 0.22715 0.0
H223 H 0.86144 0.83625 0.26917 0.0
H224 H 0.98573 0.82921 0.1624 0.0
H225 H -0.00037 0.82929 0.33384 0.0
C226 C 0.07165 0.83799 0.33068 0.0
C227 C 0.10701 0.84182 0.30091 0.0
C228 C 0.95846 0.83024 0.18585 0.0
C229 C 0.01714 0.82792 0.25988 0.0
C230 C 0.91332 0.8367 0.16559 0.0
C231 C 0.87782 0.83994 0.19538 0.0
C232 C 0.96833 0.82749 0.23637 0.0
C233 C 0.88801 0.83433 0.24506 0.0
C234 C 0.02684 0.8308 0.3104 0.0
C235 C 0.09711 0.83612 0.25123 0.0
N236 N 0.93266 0.82896 0.26421 0.0
N237 N 0.05274 0.83002 0.23205 0.0
H238 H 0.08088 0.13318 0.86848 0.0
H239 H 0.90915 0.12694 0.62609 0.0
H240 H 0.12626 0.13319 0.72606 0.0
H241 H 0.86383 0.13476 0.76797 0.0
H242 H 0.98805 0.13906 0.66075 0.0
H243 H 0.00192 0.14388 0.83198 0.0
C244 C 0.07428 0.13587 0.82948 0.0
C245 C 0.10978 0.13162 0.80003 0.0
C246 C 0.96079 0.13859 0.68426 0.0
C247 C 0.01939 0.14348 0.75796 0.0
C248 C 0.91574 0.13154 0.66453 0.0
C249 C 0.88023 0.12914 0.69451 0.0
C250 C 0.97058 0.14281 0.73448 0.0
C251 C 0.89039 0.13598 0.74373 0.0
C252 C 0.0292 0.14205 0.80867 0.0
C253 C 0.09968 0.13595 0.74995 0.0
N254 N 0.93494 0.14196 0.76242 0.0
N255 N 0.05508 0.14105 0.73031 0.0
H256 H 0.1576 0.29742 0.02528 0.0
H257 H 0.33269 0.17431 0.98255 0.0
H258 H 0.30417 0.3089 0.01381 0.0
H259 H 0.18544 0.16287 0.99018 0.0
H260 H 0.32359 0.22349 0.99843 0.0
H261 H 0.16671 0.24807 0.01088 0.0
C262 C 0.19147 0.28969 0.01873 0.0
C263 C 0.23027 0.30729 0.02122 0.0
C264 C 0.29336 0.21015 0.99704 0.0
C265 C 0.24116 0.25081 0.00603 0.0
C266 C 0.29865 0.182 0.9886 0.0
C267 C 0.25966 0.16451 0.98445 0.0
C268 C 0.24881 0.2208 0.00134 0.0
C269 C 0.2164 0.17565 0.99257 0.0
C270 C 0.19678 0.26145 0.01112 0.0
C271 C 0.27335 0.29608 0.0126 0.0
N272 N 0.21204 0.20317 1.0001 0.0
N273 N 0.27772 0.26849 0.00588 0.0
H274 H 0.83583 0.29695 0.48123 0.0
H275 H 0.65681 0.17571 0.52154 0.0
H276 H 0.69021 0.31012 0.49547 0.0
H277 H 0.80321 0.16234 0.51143 0.0
H278 H 0.668 0.22499 0.5089 0.0
H279 H 0.82543 0.24768 0.49544 0.0
C280 C 0.80195 0.28961 0.48849 0.0
C281 C 0.76369 0.30762 0.48657 0.0
C282 C 0.69759 0.21123 0.50907 0.0
C283 C 0.75129 0.25128 0.50144 0.0
C284 C 0.69109 0.18302 0.51563 0.0
C285 C 0.72923 0.16489 0.51805 0.0
C286 C 0.74249 0.22133 0.50488 0.0
C287 C 0.77287 0.17559 0.51024 0.0
C288 C 0.79588 0.26142 0.49594 0.0
C289 C 0.72057 0.29693 0.49609 0.0
N290 N 0.77841 0.20317 0.5045 0.0
N291 N 0.71541 0.26939 0.50253 0.0
H292 H 0.80086 0.80942 0.00501 0.0
H293 H 0.68732 0.65889 0.99807 0.0
H294 H 0.6573 0.79374 0.02518 0.0
H295 H 0.83049 0.67452 0.97631 0.0
H296 H 0.67674 0.7081 0.01171 0.0
H297 H 0.81179 0.76015 0.99219 0.0
C298 C 0.77134 0.79569 0.00578 0.0
C299 C 0.72819 0.80569 0.01666 0.0
C300 C 0.7106 0.70075 0.00441 0.0
C301 C 0.74085 0.74921 0.00315 0.0
C302 C 0.71684 0.6726 0.99713 0.0
C303 C 0.75973 0.66262 0.98549 0.0
C304 C 0.74749 0.71903 0.99994 0.0
C305 C 0.79679 0.68131 0.98504 0.0
C306 C 0.77778 0.76751 0.99897 0.0
C307 C 0.69118 0.78696 0.01699 0.0
N308 N 0.78963 0.70872 0.99154 0.0
N309 N 0.69853 0.75953 0.01093 0.0
H310 H 0.30131 0.66338 0.50786 0.0
H311 H 0.18201 0.81246 0.49252 0.0
H312 H 0.15738 0.67763 0.52831 0.0
H313 H 0.32721 0.79811 0.47771 0.0
H314 H 0.17265 0.76332 0.50778 0.0
H315 H 0.31028 0.71258 0.49319 0.0
C316 C 0.27131 0.67679 0.50836 0.0
C317 C 0.22862 0.66642 0.51978 0.0
C318 C 0.20666 0.77096 0.50166 0.0
C319 C 0.23901 0.72285 0.5041 0.0
C320 C 0.21218 0.79907 0.49342 0.0
C321 C 0.25538 0.80937 0.4833 0.0
C322 C 0.24455 0.75304 0.49964 0.0
C323 C 0.29324 0.79108 0.48518 0.0
C324 C 0.27662 0.70493 0.50048 0.0
C325 C 0.19093 0.68472 0.51969 0.0
N326 N 0.28679 0.76371 0.49256 0.0
N327 N 0.19716 0.71215 0.51252 0.0
H328 H 0.88134 0.4866 0.90543 0.0
H329 H 0.11063 0.48427 0.09886 0.0
H330 H 0.92725 0.55561 0.99815 0.0
H331 H 0.0639 0.41486 0.00747 0.0
H332 H 0.04361 0.5108 0.06216 0.0
H333 H 0.94824 0.45998 0.94227 0.0
C334 C 0.90546 0.49618 0.9335 0.0
C335 C 0.89866 0.5234 0.9487 0.0
C336 C 0.04803 0.48976 0.05016 0.0
C337 C 0.97525 0.49304 0.99099 0.0
C338 C 0.08631 0.47459 0.07111 0.0
C339 C 0.09292 0.44729 0.05624 0.0
C340 C 0.01617 0.47755 0.01408 0.0
C341 C 0.06024 0.43584 0.0201 0.0
C342 C 0.94364 0.48095 0.95453 0.0
C343 C 0.93105 0.5347 0.98526 0.0
N344 N 0.02328 0.45104 1.00025 0.0
N345 N 0.96795 0.51946 0.00514 0.0
H346 H 0.11123 0.48909 0.5969 0.0
H347 H 0.88106 0.48445 0.40494 0.0
H348 H 0.06076 0.55858 0.50768 0.0
H349 H 0.93115 0.4155 0.49573 0.0
H350 H 0.94693 0.51193 0.44174 0.0
H351 H 0.0454 0.46178 0.55987 0.0
C352 C 0.0863 0.49864 0.56957 0.0
C353 C 0.09155 0.52618 0.55538 0.0
C354 C 0.94348 0.49078 0.45357 0.0
C355 C 0.01612 0.495 0.5128 0.0
C356 C 0.9059 0.47506 0.43255 0.0
C357 C 0.90054 0.44762 0.44728 0.0
C358 C 0.97592 0.47897 0.48954 0.0
C359 C 0.93381 0.43657 0.48325 0.0
C360 C 0.04871 0.48301 0.54841 0.0
C361 C 0.05814 0.53743 0.51975 0.0
N362 N 0.97006 0.4523 0.50314 0.0
N363 N 0.02184 0.52177 0.49966 0.0
H364 H 0.55965 0.91247 0.00111 0.0
H365 H 0.42474 0.05683 0.99776 0.0
H366 H 0.60328 0.98103 0.09585 0.0
H367 H 0.38058 -0.01146 0.9026 0.0
H368 H 0.49026 0.02918 0.03418 0.0
H369 H 0.49365 0.9399 0.96474 0.0
C370 C 0.55538 0.93329 0.01432 0.0
C371 C 0.5871 0.94448 0.05161 0.0
C372 C 0.46626 0.02023 0.00534 0.0
C373 C 0.5116 0.97595 0.01005 0.0
C374 C 0.42878 0.03601 0.98447 0.0
C375 C 0.39707 0.02499 0.94701 0.0
C376 C 0.47214 -0.00679 0.98868 0.0
C377 C 0.40416 -0.00211 0.93136 0.0
C378 C 0.51766 0.94893 0.9935 0.0
C379 C 0.57974 0.97155 0.06722 0.0
N380 N 0.44098 0.98291 0.9523 0.0
N381 N 0.54274 -0.01363 0.04632 0.0
H382 H 0.42267 0.91555 0.49719 0.0
H383 H 0.55897 0.05942 0.50334 0.0
H384 H 0.37944 0.98445 0.40321 0.0
H385 H 0.60243 -0.00987 0.59632 0.0
H386 H 0.4926 0.03243 0.46668 0.0
H387 H 0.48846 0.94278 0.53423 0.0
C388 C 0.42698 0.93641 0.48429 0.0
C389 C 0.39546 0.94773 0.44698 0.0
C390 C 0.51664 0.02315 0.49512 0.0
C391 C 0.47081 0.97902 0.48936 0.0
C392 C 0.55458 0.03854 0.51611 0.0
C393 C 0.58638 0.02701 0.55297 0.0
C394 C 0.51044 -0.00397 0.51106 0.0
C395 C 0.57883 -0.00013 0.56803 0.0
C396 C 0.4646 0.95195 0.50551 0.0
C397 C 0.40288 0.97487 0.43182 0.0
N398 N 0.54162 0.98529 0.54696 0.0
N399 N 0.43983 -0.0104 0.4531 0.0
H400 H 0.13848 0.34187 0.28294 0.0
H401 H 0.92802 0.32434 0.37148 0.0
H402 H 0.06168 0.334 0.14005 0.0
H403 H 0.86828 0.34684 0.22671 0.0
H404 H 0.00205 0.31498 0.34132 0.0
H405 H 0.06708 0.33244 0.31828 0.0
C406 C 0.10686 0.33739 0.25902 0.0
C407 C 0.10599 0.33915 0.20851 0.0
C408 C 0.97304 0.32208 0.31601 0.0
C409 C 0.02368 0.32796 0.24857 0.0
C410 C 0.93045 0.3271 0.33314 0.0
C411 C 0.89221 0.33699 0.3017 0.0
C412 C 0.97771 0.32749 0.26716 0.0
C413 C 0.89698 0.33952 0.25228 0.0
C414 C 0.06584 0.33184 0.27922 0.0
C415 C 0.06389 0.33329 0.17925 0.0
N416 N 0.93924 0.33525 0.23667 0.0
N417 N 0.02437 0.32842 0.19969 0.0
H418 H 0.06701 0.64959 0.63775 0.0
H419 H 0.85604 0.63124 0.72467 0.0
H420 H 0.12604 0.62288 0.78044 0.0
H421 H 0.93274 0.6354 0.86814 0.0
H422 H 0.92784 0.64079 0.69019 0.0
H423 H 0.99326 0.65869 0.66871 0.0
C424 C 0.06448 0.64585 0.67583 0.0
C425 C 0.10241 0.63488 0.70638 0.0
C426 C 0.929 0.64054 0.72926 0.0
C427 C 0.01721 0.64406 0.74171 0.0
C428 C 0.88775 0.63492 0.74896 0.0
C429 C 0.8884 0.63211 0.7993 0.0
C430 C 0.9712 0.64345 0.76022 0.0
C431 C 0.93064 0.63695 0.82902 0.0
C432 C 0.02206 0.65072 0.69338 0.0
C433 C 0.09757 0.63109 0.75554 0.0
N434 N 0.97038 0.64192 0.80902 0.0
N435 N 0.05543 0.63524 0.77152 0.0
H436 H 0.42813 0.83394 0.36923 0.0
H437 H 0.55657 0.83043 0.1316 0.0
H438 H 0.35715 0.84074 0.22347 0.0
H439 H 0.6277 0.8406 0.27666 0.0
H440 H 0.48401 0.82197 0.16544 0.0
H441 H 0.50069 0.82424 0.33614 0.0
C442 C 0.42758 0.83299 0.33016 0.0
C443 C 0.38654 0.83874 0.29902 0.0
C444 C 0.51557 0.82564 0.18993 0.0
C445 C 0.46992 0.82769 0.26099 0.0
C446 C 0.55715 0.83045 0.1707 0.0
C447 C 0.59821 0.8368 0.20135 0.0
C448 C 0.51484 0.82724 0.24023 0.0
C449 C 0.59686 0.83604 0.25166 0.0
C450 C 0.46915 0.82746 0.31136 0.0
C451 C 0.38796 0.8367 0.24882 0.0
N452 N 0.55562 0.8318 0.26954 0.0
N453 N 0.42918 0.83175 0.23134 0.0
H454 H 0.55986 0.14278 0.63341 0.0
H455 H 0.43159 0.13898 0.87102 0.0
H456 H 0.63075 0.13103 0.77815 0.0
H457 H 0.36049 0.13352 0.72511 0.0
H458 H 0.50428 0.14853 0.83815 0.0
H459 H 0.48765 0.152 0.66755 0.0
C460 C 0.56047 0.14259 0.67252 0.0
C461 C 0.60129 0.13554 0.70297 0.0
C462 C 0.47269 0.14565 0.81331 0.0
C463 C 0.51836 0.14595 0.74218 0.0
C464 C 0.43104 0.1402 0.83198 0.0
C465 C 0.38992 0.13485 0.8007 0.0
C466 C 0.47345 0.14573 0.76294 0.0
C467 C 0.39135 0.13723 0.75056 0.0
C468 C 0.51911 0.14783 0.69192 0.0
C469 C 0.60006 0.13612 0.75331 0.0
N470 N 0.43265 0.14209 0.73319 0.0
N471 N 0.55901 0.14076 0.77134 0.0
H472 H 0.27932 0.49364 0.04114 0.0
H473 H 0.27368 0.48665 0.7539 0.0
H474 H 0.31612 0.42029 0.96552 0.0
H475 H 0.26627 0.56295 0.8336 0.0
H476 H 0.29173 0.46206 0.83104 0.0
H477 H 0.27861 0.51986 0.96594 0.0
C478 C 0.28809 0.48313 0.00899 0.0
C479 C 0.29734 0.45463 0.00966 0.0
C480 C 0.2865 0.48422 0.83154 0.0
C481 C 0.2956 0.48445 0.92305 0.0
C482 C 0.27597 0.49826 0.7875 0.0
C483 C 0.26805 0.5269 0.78714 0.0
C484 C 0.28872 0.4989 0.87553 0.0
C485 C 0.27183 0.54085 0.83192 0.0
C486 C 0.2875 0.49811 0.96594 0.0
C487 C 0.30858 0.44219 0.96678 0.0
N488 N 0.2815 0.5267 0.87418 0.0
N489 N 0.30668 0.45707 0.92506 0.0
H490 H 0.67081 0.41933 0.53363 0.0
H491 H 0.72706 0.56324 0.6698 0.0
H492 H 0.718 0.49212 0.46396 0.0
H493 H 0.71637 0.48573 0.74485 0.0
H494 H 0.70938 0.53925 0.59258 0.0
H495 H 0.67133 0.4456 0.60884 0.0
C496 C 0.68036 0.44098 0.53373 0.0
C497 C 0.69495 0.45342 0.49238 0.0
C498 C 0.71069 0.5275 0.62592 0.0
C499 C 0.69599 0.48349 0.57872 0.0
C500 C 0.72081 0.54116 0.67017 0.0
C501 C 0.72364 0.52645 0.7141 0.0
C502 C 0.70301 0.49888 0.62529 0.0
C503 C 0.71497 0.49788 0.71198 0.0
C504 C 0.681 0.45589 0.5769 0.0
C505 C 0.70687 0.48157 0.49493 0.0
N506 N 0.70516 0.48501 0.66828 0.0
N507 N 0.70752 0.49558 0.5375 0.0
H508 H 0.72979 0.40631 0.16965 0.0
H509 H 0.66835 0.54961 0.03366 0.0
H510 H 0.71652 0.48364 0.24472 0.0
H511 H 0.71728 0.47729 0.96374 0.0
H512 H 0.66972 0.52329 0.10884 0.0
H513 H 0.71082 0.43007 0.09246 0.0
C514 C 0.72273 0.4283 0.17003 0.0
C515 C 0.72521 0.44304 0.21396 0.0
C516 C 0.67957 0.51312 0.07685 0.0
C517 C 0.70309 0.47035 0.12518 0.0
C518 C 0.67845 0.52804 0.0337 0.0
C519 C 0.69333 0.51577 0.99231 0.0
C520 C 0.69535 0.48566 0.07861 0.0
C521 C 0.70593 0.48771 0.99477 0.0
C522 C 0.71186 0.44183 0.12579 0.0
C523 C 0.71544 0.47148 0.21185 0.0
N524 N 0.70708 0.4737 0.03732 0.0
N525 N 0.70493 0.48424 0.16816 0.0
H526 H 0.26968 0.40934 0.33389 0.0
H527 H 0.31828 0.55492 0.46681 0.0
H528 H 0.27442 0.48671 0.25697 0.0
H529 H 0.27755 0.4812 0.53855 0.0
H530 H 0.3183 0.52847 0.3918 0.0
H531 H 0.28706 0.43401 0.41045 0.0
C532 C 0.27456 0.43153 0.33297 0.0
C533 C 0.27011 0.44599 0.28871 0.0
C534 C 0.30994 0.51804 0.42414 0.0
C535 C 0.29036 0.47436 0.37678 0.0
C536 C 0.31029 0.53305 0.46717 0.0
C537 C 0.29737 0.52035 0.50907 0.0
C538 C 0.29696 0.49007 0.42302 0.0
C539 C 0.28733 0.49194 0.50713 0.0
C540 C 0.28451 0.44559 0.37684 0.0
C541 C 0.27711 0.47473 0.29012 0.0
N542 N 0.28696 0.47783 0.46472 0.0
N543 N 0.28674 0.48799 0.33348 0.0
H544 H 0.8157 0.91989 0.96596 0.0
H545 H 0.75898 0.06436 0.83203 0.0
H546 H 0.76718 -0.00801 0.03684 0.0
H547 H 0.76895 -0.0129 0.75581 0.0
H548 H 0.77615 0.03997 0.90895 0.0
H549 H 0.81454 0.94653 0.89115 0.0
C550 C 0.80569 0.94147 0.9662 0.0
C551 C 0.791 0.95361 0.00781 0.0
C552 C 0.77477 0.02837 0.87541 0.0
C553 C 0.78924 0.9841 0.92189 0.0
C554 C 0.76496 0.04226 0.83135 0.0
C555 C 0.76212 0.02774 0.78719 0.0
C556 C 0.78219 -0.00028 0.87558 0.0
C557 C 0.77038 -0.00088 0.78888 0.0
C558 C 0.80469 0.95658 0.92326 0.0
C559 C 0.77845 0.98168 0.00567 0.0
N560 N 0.77997 -0.01397 0.83237 0.0
N561 N 0.7775 -0.0041 0.96331 0.0
H562 H 0.23038 0.06569 0.66694 0.0
H563 H 0.16552 0.92283 0.5303 0.0
H564 H 0.21412 -0.01134 0.74169 0.0
H565 H 0.21636 -0.00541 0.46065 0.0
H566 H 0.16769 0.94918 0.60561 0.0
H567 H 0.21165 0.04195 0.58959 0.0
C568 C 0.22273 0.04377 0.66721 0.0
C569 C 0.22423 0.02912 0.7111 0.0
C570 C 0.17781 0.95923 0.57366 0.0
C571 C 0.20235 0.00183 0.62216 0.0
C572 C 0.17621 0.94429 0.53042 0.0
C573 C 0.19134 0.95638 0.48904 0.0
C574 C 0.19433 -0.01347 0.57553 0.0
C575 C 0.20475 0.9843 0.49164 0.0
C576 C 0.212 0.03025 0.62289 0.0
C577 C 0.21378 0.00076 0.70886 0.0
N578 N 0.20635 -0.00166 0.53426 0.0
N579 N 0.20337 -0.01198 0.6651 0.0
H580 H 0.22625 0.90826 0.16635 0.0
H581 H 0.16744 0.05205 0.0308 0.0
H582 H 0.21378 0.98559 0.24166 0.0
H583 H 0.2159 0.97965 0.96072 0.0
H584 H 0.1684 0.02564 0.10585 0.0
H585 H 0.20838 0.93226 0.08918 0.0
C586 C 0.21959 0.9303 0.16679 0.0
C587 C 0.22195 0.94496 0.21078 0.0
C588 C 0.17826 0.01547 0.07386 0.0
C589 C 0.20106 0.97254 0.12205 0.0
C590 C 0.17736 0.03045 0.03078 0.0
C591 C 0.19218 0.01817 0.98935 0.0
C592 C 0.19376 -0.01204 0.07554 0.0
C593 C 0.20458 -0.00992 0.99175 0.0
C594 C 0.20935 0.94396 0.12257 0.0
C595 C 0.21276 0.97348 0.20874 0.0
N596 N 0.20549 0.97601 0.03424 0.0
N597 N 0.20282 -0.01365 0.16509 0.0
H598 H 0.76887 0.9775 0.54142 0.0
H599 H 0.77871 0.90463 0.32827 0.0
H600 H 0.80935 0.04877 0.46287 0.0
H601 H 0.75256 0.98392 0.25871 0.0
H602 H 0.79591 0.92782 0.406 0.0
H603 H 0.76748 0.95001 0.46787 0.0
C604 C 0.77867 -0.01277 0.50902 0.0
C605 C 0.78919 0.01554 0.50848 0.0
C606 C 0.78578 0.94021 0.374 0.0
C607 C 0.78796 0.98402 0.42361 0.0
C608 C 0.77624 0.92697 0.32929 0.0
C609 C 0.76332 0.94229 0.28673 0.0
C610 C 0.78205 0.96908 0.37656 0.0
C611 C 0.76182 0.97123 0.29054 0.0
C612 C 0.77808 0.97143 0.46686 0.0
C613 C 0.80117 0.02701 0.46514 0.0
N614 N 0.77086 0.98368 0.33473 0.0
N615 N 0.7995 0.01131 0.42428 0.0
loop_
_geom_bond_atom_site_label_1
_geom_bond_atom_site_label_2
_geom_bond_distance
_geom_bond_site_symmetry_2
_ccdc_geom_bond_type
O0 Zn1 1.953 . S
O0 C16 1.225 . S
Zn1 O0 1.953 . S
Zn1 O2 1.949 . S
Zn1 O8 1.919 . S
Zn1 O13 1.924 . S
O2 Zn1 1.949 . S
O2 Zn3 1.923 . S
O2 Zn4 1.950 . S
O2 Zn5 1.945 . S
Zn3 O2 1.923 . S
Zn3 O6 1.933 . S
Zn3 O9 1.941 . S
Zn3 O10 1.965 . S
Zn4 O2 1.950 . S
Zn4 O11 1.938 . S
Zn4 O12 1.906 . S
Zn4 O22 1.953 . S
Zn5 O2 1.945 . S
Zn5 O7 1.932 . S
Zn5 O14 1.977 . S
Zn5 O15 1.910 . S
O6 Zn3 1.933 . S
O6 C17 1.226 . S
O7 Zn5 1.932 . S
O7 C17 1.307 . S
O8 Zn1 1.919 . S
O8 C19 1.253 . S
O9 Zn3 1.941 . S
O9 C19 1.283 . S
O10 Zn3 1.965 . S
O10 C18 1.303 . S
O11 Zn4 1.938 . S
O11 C18 1.247 . S
O12 Zn4 1.906 . S
O12 C20 1.304 . S
O13 Zn1 1.924 . S
O13 C21 1.311 . S
O14 Zn5 1.977 . S
O14 C20 1.272 . S
O15 Zn5 1.910 . S
O15 C21 1.231 . S
C16 O0 1.225 . S
C16 O22 1.298 . S
C17 O6 1.226 . S
C17 O7 1.307 . S
C18 O10 1.303 . S
C18 O11 1.247 . S
C19 O8 1.253 . S
C19 O9 1.283 . S
C20 O12 1.304 . S
C20 O14 1.272 . S
C21 O13 1.311 . S
C21 O15 1.231 . S
O22 Zn4 1.953 . S
O22 C16 1.298 . S
O23 Zn24 1.953 . S
O23 C39 1.225 . S
Zn24 O23 1.953 . S
Zn24 O25 1.949 . S
Zn24 O31 1.919 . S
Zn24 O36 1.924 . S
O25 Zn24 1.949 . S
O25 Zn26 1.923 . S
O25 Zn27 1.950 . S
O25 Zn28 1.945 . S
Zn26 O25 1.923 . S
Zn26 O29 1.933 . S
Zn26 O32 1.941 . S
Zn26 O33 1.965 . S
Zn27 O25 1.950 . S
Zn27 O34 1.938 . S
Zn27 O35 1.906 . S
Zn27 O45 1.953 . S
Zn28 O25 1.945 . S
Zn28 O30 1.932 . S
Zn28 O37 1.977 . S
Zn28 O38 1.910 . S
O29 Zn26 1.933 . S
O29 C40 1.226 . S
O30 Zn28 1.932 . S
O30 C40 1.307 . S
O31 Zn24 1.919 . S
O31 C42 1.253 . S
O32 Zn26 1.941 . S
O32 C42 1.283 . S
O33 Zn26 1.965 . S
O33 C41 1.303 . S
O34 Zn27 1.938 . S
O34 C41 1.247 . S
O35 Zn27 1.906 . S
O35 C43 1.304 . S
O36 Zn24 1.924 . S
O36 C44 1.311 . S
O37 Zn28 1.977 . S
O37 C43 1.272 . S
O38 Zn28 1.910 . S
O38 C44 1.231 . S
C39 O23 1.225 . S
C39 O45 1.298 . S
C40 O29 1.226 . S
C40 O30 1.307 . S
C41 O33 1.303 . S
C41 O34 1.247 . S
C42 O31 1.253 . S
C42 O32 1.283 . S
C43 O35 1.304 . S
C43 O37 1.272 . S
C44 O36 1.311 . S
C44 O38 1.231 . S
O45 Zn27 1.953 . S
O45 C39 1.298 . S
O46 Zn47 1.953 . S
O46 C62 1.225 . S
Zn47 O46 1.953 . S
Zn47 O48 1.949 . S
Zn47 O54 1.919 . S
Zn47 O59 1.924 . S
O48 Zn47 1.949 . S
O48 Zn49 1.923 . S
O48 Zn50 1.950 . S
O48 Zn51 1.945 . S
Zn49 O48 1.923 . S
Zn49 O52 1.933 . S
Zn49 O55 1.941 . S
Zn49 O56 1.965 . S
Zn50 O48 1.950 . S
Zn50 O57 1.938 . S
Zn50 O58 1.906 . S
Zn50 O68 1.953 . S
Zn51 O48 1.945 . S
Zn51 O53 1.932 . S
Zn51 O60 1.977 . S
Zn51 O61 1.910 . S
O52 Zn49 1.933 . S
O52 C63 1.226 . S
O53 Zn51 1.932 . S
O53 C63 1.307 . S
O54 Zn47 1.919 . S
O54 C65 1.253 . S
O55 Zn49 1.941 . S
O55 C65 1.283 . S
O56 Zn49 1.965 . S
O56 C64 1.303 . S
O57 Zn50 1.938 . S
O57 C64 1.247 . S
O58 Zn50 1.906 . S
O58 C66 1.304 . S
O59 Zn47 1.924 . S
O59 C67 1.311 . S
O60 Zn51 1.977 . S
O60 C66 1.272 . S
O61 Zn51 1.910 . S
O61 C67 1.231 . S
C62 O46 1.225 . S
C62 O68 1.298 . S
C63 O52 1.226 . S
C63 O53 1.307 . S
C64 O56 1.303 . S
C64 O57 1.247 . S
C65 O54 1.253 . S
C65 O55 1.283 . S
C66 O58 1.304 . S
C66 O60 1.272 . S
C67 O59 1.311 . S
C67 O61 1.231 . S
O68 Zn50 1.953 . S
O68 C62 1.298 . S
O69 Zn70 1.953 . S
O69 C85 1.225 . S
Zn70 O69 1.953 . S
Zn70 O71 1.949 . S
Zn70 O77 1.919 . S
Zn70 O82 1.924 . S
O71 Zn70 1.949 . S
O71 Zn72 1.923 . S
O71 Zn73 1.950 . S
O71 Zn74 1.945 . S
Zn72 O71 1.923 . S
Zn72 O75 1.933 . S
Zn72 O78 1.941 . S
Zn72 O79 1.965 . S
Zn73 O71 1.950 . S
Zn73 O80 1.938 . S
Zn73 O81 1.906 . S
Zn73 O91 1.953 . S
Zn74 O71 1.945 . S
Zn74 O76 1.932 . S
Zn74 O83 1.977 . S
Zn74 O84 1.910 . S
O75 Zn72 1.933 . S
O75 C86 1.226 . S
O76 Zn74 1.932 . S
O76 C86 1.307 . S
O77 Zn70 1.919 . S
O77 C88 1.253 . S
O78 Zn72 1.941 . S
O78 C88 1.283 . S
O79 Zn72 1.965 . S
O79 C87 1.303 . S
O80 Zn73 1.938 . S
O80 C87 1.247 . S
O81 Zn73 1.906 . S
O81 C89 1.304 . S
O82 Zn70 1.924 . S
O82 C90 1.311 . S
O83 Zn74 1.977 . S
O83 C89 1.272 . S
O84 Zn74 1.910 . S
O84 C90 1.231 . S
C85 O69 1.225 . S
C85 O91 1.298 . S
C86 O75 1.226 . S
C86 O76 1.307 . S
C87 O79 1.303 . S
C87 O80 1.247 . S
C88 O77 1.253 . S
C88 O78 1.283 . S
C89 O81 1.304 . S
C89 O83 1.272 . S
C90 O82 1.311 . S
C90 O84 1.231 . S
O91 Zn73 1.953 . S
O91 C85 1.298 . S
O92 Zn93 1.953 . S
O92 C108 1.225 . S
Zn93 O92 1.953 . S
Zn93 O94 1.949 . S
Zn93 O100 1.919 . S
Zn93 O105 1.924 . S
O94 Zn93 1.949 . S
O94 Zn95 1.923 . S
O94 Zn96 1.950 . S
O94 Zn97 1.945 . S
Zn95 O94 1.923 . S
Zn95 O98 1.933 . S
Zn95 O101 1.941 . S
Zn95 O102 1.965 . S
Zn96 O94 1.950 . S
Zn96 O103 1.938 . S
Zn96 O104 1.906 . S
Zn96 O114 1.953 . S
Zn97 O94 1.945 . S
Zn97 O99 1.932 . S
Zn97 O106 1.977 . S
Zn97 O107 1.910 . S
O98 Zn95 1.933 . S
O98 C109 1.226 . S
O99 Zn97 1.932 . S
O99 C109 1.307 . S
O100 Zn93 1.919 . S
O100 C111 1.253 . S
O101 Zn95 1.941 . S
O101 C111 1.283 . S
O102 Zn95 1.965 . S
O102 C110 1.303 . S
O103 Zn96 1.938 . S
O103 C110 1.247 . S
O104 Zn96 1.906 . S
O104 C112 1.304 . S
O105 Zn93 1.924 . S
O105 C113 1.311 . S
O106 Zn97 1.977 . S
O106 C112 1.272 . S
O107 Zn97 1.910 . S
O107 C113 1.231 . S
C108 O92 1.225 . S
C108 O114 1.298 . S
C109 O98 1.226 . S
C109 O99 1.307 . S
C110 O102 1.303 . S
C110 O103 1.247 . S
C111 O100 1.253 . S
C111 O101 1.283 . S
C112 O104 1.304 . S
C112 O106 1.272 . S
C113 O105 1.311 . S
C113 O107 1.231 . S
O114 Zn96 1.953 . S
O114 C108 1.298 . S
O115 Zn116 1.953 . S
O115 C131 1.225 . S
Zn116 O115 1.953 . S
Zn116 O117 1.949 . S
Zn116 O123 1.919 . S
Zn116 O128 1.924 . S
O117 Zn116 1.949 . S
O117 Zn118 1.923 . S
O117 Zn119 1.950 . S
O117 Zn120 1.945 . S
Zn118 O117 1.923 . S
Zn118 O121 1.933 . S
Zn118 O124 1.941 . S
Zn118 O125 1.965 . S
Zn119 O117 1.950 . S
Zn119 O126 1.938 . S
Zn119 O127 1.906 . S
Zn119 O137 1.953 . S
Zn120 O117 1.945 . S
Zn120 O122 1.932 . S
Zn120 O129 1.977 . S
Zn120 O130 1.910 . S
O121 Zn118 1.933 . S
O121 C132 1.226 . S
O122 Zn120 1.932 . S
O122 C132 1.307 . S
O123 Zn116 1.919 . S
O123 C134 1.253 . S
O124 Zn118 1.941 . S
O124 C134 1.283 . S
O125 Zn118 1.965 . S
O125 C133 1.303 . S
O126 Zn119 1.938 . S
O126 C133 1.247 . S
O127 Zn119 1.906 . S
O127 C135 1.304 . S
O128 Zn116 1.924 . S
O128 C136 1.311 . S
O129 Zn120 1.977 . S
O129 C135 1.272 . S
O130 Zn120 1.910 . S
O130 C136 1.231 . S
C131 O115 1.225 . S
C131 O137 1.298 . S
C132 O121 1.226 . S
C132 O122 1.307 . S
C133 O125 1.303 . S
C133 O126 1.247 . S
C134 O123 1.253 . S
C134 O124 1.283 . S
C135 O127 1.304 . S
C135 O129 1.272 . S
C136 O128 1.311 . S
C136 O130 1.231 . S
O137 Zn119 1.953 . S
O137 C131 1.298 . S
O138 Zn139 1.953 . S
O138 C154 1.225 . S
Zn139 O138 1.953 . S
Zn139 O140 1.949 . S
Zn139 O146 1.919 . S
Zn139 O151 1.924 . S
O140 Zn139 1.949 . S
O140 Zn141 1.923 . S
O140 Zn142 1.950 . S
O140 Zn143 1.945 . S
Zn141 O140 1.923 . S
Zn141 O144 1.933 . S
Zn141 O147 1.941 . S
Zn141 O148 1.965 . S
Zn142 O140 1.950 . S
Zn142 O149 1.938 . S
Zn142 O150 1.906 . S
Zn142 O160 1.953 . S
Zn143 O140 1.945 . S
Zn143 O145 1.932 . S
Zn143 O152 1.977 . S
Zn143 O153 1.910 . S
O144 Zn141 1.933 . S
O144 C155 1.226 . S
O145 Zn143 1.932 . S
O145 C155 1.307 . S
O146 Zn139 1.919 . S
O146 C157 1.253 . S
O147 Zn141 1.941 . S
O147 C157 1.283 . S
O148 Zn141 1.965 . S
O148 C156 1.303 . S
O149 Zn142 1.938 . S
O149 C156 1.247 . S
O150 Zn142 1.906 . S
O150 C158 1.304 . S
O151 Zn139 1.924 . S
O151 C159 1.311 . S
O152 Zn143 1.977 . S
O152 C158 1.272 . S
O153 Zn143 1.910 . S
O153 C159 1.231 . S
C154 O138 1.225 . S
C154 O160 1.298 . S
C155 O144 1.226 . S
C155 O145 1.307 . S
C156 O148 1.303 . S
C156 O149 1.247 . S
C157 O146 1.253 . S
C157 O147 1.283 . S
C158 O150 1.304 . S
C158 O152 1.272 . S
C159 O151 1.311 . S
C159 O153 1.231 . S
O160 Zn142 1.953 . S
O160 C154 1.298 . S
O161 Zn162 1.953 . S
O161 C177 1.225 . S
Zn162 O161 1.953 . S
Zn162 O163 1.949 . S
Zn162 O169 1.919 . S
Zn162 O174 1.924 . S
O163 Zn162 1.949 . S
O163 Zn164 1.923 . S
O163 Zn165 1.950 . S
O163 Zn166 1.945 . S
Zn164 O163 1.923 . S
Zn164 O167 1.933 . S
Zn164 O170 1.941 . S
Zn164 O171 1.965 . S
Zn165 O163 1.950 . S
Zn165 O172 1.938 . S
Zn165 O173 1.906 . S
Zn165 O183 1.953 . S
Zn166 O163 1.945 . S
Zn166 O168 1.932 . S
Zn166 O175 1.977 . S
Zn166 O176 1.910 . S
O167 Zn164 1.933 . S
O167 C178 1.226 . S
O168 Zn166 1.932 . S
O168 C178 1.307 . S
O169 Zn162 1.919 . S
O169 C180 1.253 . S
O170 Zn164 1.941 . S
O170 C180 1.283 . S
O171 Zn164 1.965 . S
O171 C179 1.303 . S
O172 Zn165 1.938 . S
O172 C179 1.247 . S
O173 Zn165 1.906 . S
O173 C181 1.304 . S
O174 Zn162 1.924 . S
O174 C182 1.311 . S
O175 Zn166 1.977 . S
O175 C181 1.272 . S
O176 Zn166 1.910 . S
O176 C182 1.231 . S
C177 O161 1.225 . S
C177 O183 1.298 . S
C178 O167 1.226 . S
C178 O168 1.307 . S
C179 O171 1.303 . S
C179 O172 1.247 . S
C180 O169 1.253 . S
C180 O170 1.283 . S
C181 O173 1.304 . S
C181 O175 1.272 . S
C182 O174 1.311 . S
C182 O176 1.231 . S
O183 Zn165 1.953 . S
O183 C177 1.298 . S
H184 C190 0.930 . S
H185 C194 0.930 . S
H186 C199 0.929 . S
H187 C197 0.929 . S
H188 C192 0.929 . S
H189 C198 0.929 . S
C190 H184 0.930 . S
C190 C191 1.367 . S
C190 C198 1.378 . S
C191 C190 1.367 . S
C191 C199 1.433 . S
C192 H188 0.929 . S
C192 C194 1.378 . S
C192 C196 1.350 . S
C193 C196 1.463 . S
C193 C198 1.350 . S
C193 N201 1.427 . S
C194 H185 0.930 . S
C194 C192 1.378 . S
C194 C195 1.367 . S
C195 C194 1.367 . S
C195 C197 1.433 . S
C196 C192 1.350 . S
C196 C193 1.463 . S
C196 N200 1.427 . S
C197 H187 0.929 . S
C197 C195 1.433 . S
C197 N200 1.384 . S
C198 H189 0.929 . S
C198 C190 1.378 . S
C198 C193 1.350 . S
C199 H186 0.929 . S
C199 C191 1.433 . S
C199 N201 1.384 . S
N200 C196 1.427 . S
N200 C197 1.384 . S
N201 C193 1.427 . S
N201 C199 1.384 . S
H202 C208 0.930 . S
H203 C212 0.930 . S
H204 C217 0.929 . S
H205 C215 0.929 . S
H206 C210 0.929 . S
H207 C216 0.929 . S
C208 H202 0.930 . S
C208 C209 1.367 . S
C208 C216 1.378 . S
C209 C208 1.367 . S
C209 C217 1.433 . S
C210 H206 0.929 . S
C210 C212 1.378 . S
C210 C214 1.350 . S
C211 C214 1.463 . S
C211 C216 1.350 . S
C211 N219 1.427 . S
C212 H203 0.930 . S
C212 C210 1.378 . S
C212 C213 1.367 . S
C213 C212 1.367 . S
C213 C215 1.433 . S
C214 C210 1.350 . S
C214 C211 1.463 . S
C214 N218 1.427 . S
C215 H205 0.929 . S
C215 C213 1.433 . S
C215 N218 1.384 . S
C216 H207 0.929 . S
C216 C208 1.378 . S
C216 C211 1.350 . S
C217 H204 0.929 . S
C217 C209 1.433 . S
C217 N219 1.384 . S
N218 C214 1.427 . S
N218 C215 1.384 . S
N219 C211 1.427 . S
N219 C217 1.384 . S
H220 C226 0.930 . S
H221 C230 0.930 . S
H222 C235 0.929 . S
H223 C233 0.929 . S
H224 C228 0.929 . S
H225 C234 0.929 . S
C226 H220 0.930 . S
C226 C227 1.367 . S
C226 C234 1.378 . S
C227 C226 1.367 . S
C227 C235 1.433 . S
C228 H224 0.929 . S
C228 C230 1.378 . S
C228 C232 1.350 . S
C229 C232 1.463 1_455 S
C229 C234 1.350 . S
C229 N237 1.427 . S
C230 H221 0.930 . S
C230 C228 1.378 . S
C230 C231 1.367 . S
C231 C230 1.367 . S
C231 C233 1.433 . S
C232 C228 1.350 . S
C232 C229 1.463 1_655 S
C232 N236 1.427 . S
C233 H223 0.929 . S
C233 C231 1.433 . S
C233 N236 1.384 . S
C234 H225 0.929 . S
C234 C226 1.378 . S
C234 C229 1.350 . S
C235 H222 0.929 . S
C235 C227 1.433 . S
C235 N237 1.384 . S
N236 C232 1.427 . S
N236 C233 1.384 . S
N237 C229 1.427 . S
N237 C235 1.384 . S
H238 C244 0.930 . S
H239 C248 0.930 . S
H240 C253 0.929 . S
H241 C251 0.929 . S
H242 C246 0.929 . S
H243 C252 0.929 . S
C244 H238 0.930 . S
C244 C245 1.367 . S
C244 C252 1.378 . S
C245 C244 1.367 . S
C245 C253 1.433 . S
C246 H242 0.929 . S
C246 C248 1.378 . S
C246 C250 1.350 . S
C247 C250 1.463 1_455 S
C247 C252 1.350 . S
C247 N255 1.427 . S
C248 H239 0.930 . S
C248 C246 1.378 . S
C248 C249 1.367 . S
C249 C248 1.367 . S
C249 C251 1.433 . S
C250 C246 1.350 . S
C250 C247 1.463 1_655 S
C250 N254 1.427 . S
C251 H241 0.929 . S
C251 C249 1.433 . S
C251 N254 1.384 . S
C252 H243 0.929 . S
C252 C244 1.378 . S
C252 C247 1.350 . S
C253 H240 0.929 . S
C253 C245 1.433 . S
C253 N255 1.384 . S
N254 C250 1.427 . S
N254 C251 1.384 . S
N255 C247 1.427 . S
N255 C253 1.384 . S
H256 C262 0.930 . S
H257 C266 0.930 . S
H258 C271 0.929 . S
H259 C269 0.929 . S
H260 C264 0.929 . S
H261 C270 0.929 . S
C262 H256 0.930 . S
C262 C263 1.367 1_556 S
C262 C270 1.378 . S
C263 C262 1.367 1_554 S
C263 C271 1.433 . S
C264 H260 0.929 . S
C264 C266 1.378 . S
C264 C268 1.350 1_554 S
C265 C268 1.463 1_554 S
C265 C270 1.350 1_554 S
C265 N273 1.427 . S
C266 H257 0.930 . S
C266 C264 1.378 . S
C266 C267 1.367 1_554 S
C267 C266 1.367 1_556 S
C267 C269 1.433 . S
C268 C264 1.350 1_556 S
C268 C265 1.463 1_556 S
C268 N272 1.427 . S
C269 H259 0.929 . S
C269 C267 1.433 . S
C269 N272 1.384 . S
C270 H261 0.929 . S
C270 C262 1.378 . S
C270 C265 1.350 1_556 S
C271 H258 0.929 . S
C271 C263 1.433 . S
C271 N273 1.384 . S
N272 C268 1.427 . S
N272 C269 1.384 . S
N273 C265 1.427 . S
N273 C271 1.384 . S
H274 C280 0.930 . S
H275 C284 0.930 . S
H276 C289 0.929 . S
H277 C287 0.929 . S
H278 C282 0.929 . S
H279 C288 0.929 . S
C280 H274 0.930 . S
C280 C281 1.367 . S
C280 C288 1.378 . S
C281 C280 1.367 . S
C281 C289 1.433 . S
C282 H278 0.929 . S
C282 C284 1.378 . S
C282 C286 1.350 . S
C283 C286 1.463 . S
C283 C288 1.350 . S
C283 N291 1.427 . S
C284 H275 0.930 . S
C284 C282 1.378 . S
C284 C285 1.367 . S
C285 C284 1.367 . S
C285 C287 1.433 . S
C286 C282 1.350 . S
C286 C283 1.463 . S
C286 N290 1.427 . S
C287 H277 0.929 . S
C287 C285 1.433 . S
C287 N290 1.384 . S
C288 H279 0.929 . S
C288 C280 1.378 . S
C288 C283 1.350 . S
C289 H276 0.929 . S
C289 C281 1.433 . S
C289 N291 1.384 . S
N290 C286 1.427 . S
N290 C287 1.384 . S
N291 C283 1.427 . S
N291 C289 1.384 . S
H292 C298 0.930 . S
H293 C302 0.930 . S
H294 C307 0.929 . S
H295 C305 0.929 . S
H296 C300 0.929 . S
H297 C306 0.929 . S
C298 H292 0.930 . S
C298 C299 1.367 . S
C298 C306 1.378 . S
C299 C298 1.367 . S
C299 C307 1.433 1_554 S
C300 H296 0.929 . S
C300 C302 1.378 . S
C300 C304 1.350 . S
C301 C304 1.463 1_554 S
C301 C306 1.350 . S
C301 N309 1.427 1_554 S
C302 H293 0.930 . S
C302 C300 1.378 . S
C302 C303 1.367 . S
C303 C302 1.367 . S
C303 C305 1.433 1_556 S
C304 C300 1.350 . S
C304 C301 1.463 1_556 S
C304 N308 1.427 1_556 S
C305 H295 0.929 . S
C305 C303 1.433 1_554 S
C305 N308 1.384 . S
C306 H297 0.929 . S
C306 C298 1.378 . S
C306 C301 1.350 . S
C307 H294 0.929 . S
C307 C299 1.433 1_556 S
C307 N309 1.384 . S
N308 C304 1.427 1_554 S
N308 C305 1.384 . S
N309 C301 1.427 1_556 S
N309 C307 1.384 . S
H310 C316 0.930 . S
H311 C320 0.930 . S
H312 C325 0.929 . S
H313 C323 0.929 . S
H314 C318 0.929 . S
H315 C324 0.929 . S
C316 H310 0.930 . S
C316 C317 1.367 . S
C316 C324 1.378 . S
C317 C316 1.367 . S
C317 C325 1.433 . S
C318 H314 0.929 . S
C318 C320 1.378 . S
C318 C322 1.350 . S
C319 C322 1.463 . S
C319 C324 1.350 . S
C319 N327 1.427 . S
C320 H311 0.930 . S
C320 C318 1.378 . S
C320 C321 1.367 . S
C321 C320 1.367 . S
C321 C323 1.433 . S
C322 C318 1.350 . S
C322 C319 1.463 . S
C322 N326 1.427 . S
C323 H313 0.929 . S
C323 C321 1.433 . S
C323 N326 1.384 . S
C324 H315 0.929 . S
C324 C316 1.378 . S
C324 C319 1.350 . S
C325 H312 0.929 . S
C325 C317 1.433 . S
C325 N327 1.384 . S
N326 C322 1.427 . S
N326 C323 1.384 . S
N327 C319 1.427 . S
N327 C325 1.384 . S
H328 C334 0.930 . S
H329 C338 0.930 . S
H330 C343 0.929 . S
H331 C341 0.929 . S
H332 C336 0.929 . S
H333 C342 0.929 . S
C334 H328 0.930 . S
C334 C335 1.367 . S
C334 C342 1.378 . S
C335 C334 1.367 . S
C335 C343 1.433 1_556 S
C336 H332 0.929 . S
C336 C338 1.378 . S
C336 C340 1.350 . S
C337 C340 1.463 1_656 S
C337 C342 1.350 . S
C337 N345 1.427 1_556 S
C338 H329 0.930 . S
C338 C336 1.378 . S
C338 C339 1.367 . S
C339 C338 1.367 . S
C339 C341 1.433 1_554 S
C340 C336 1.350 . S
C340 C337 1.463 1_454 S
C340 N344 1.427 1_554 S
C341 H331 0.929 . S
C341 C339 1.433 1_556 S
C341 N344 1.384 . S
C342 H333 0.929 . S
C342 C334 1.378 . S
C342 C337 1.350 . S
C343 H330 0.929 . S
C343 C335 1.433 1_554 S
C343 N345 1.384 . S
N344 C340 1.427 1_556 S
N344 C341 1.384 . S
N345 C337 1.427 1_554 S
N345 C343 1.384 . S
H346 C352 0.930 . S
H347 C356 0.930 . S
H348 C361 0.929 . S
H349 C359 0.929 . S
H350 C354 0.929 . S
H351 C360 0.929 . S
C352 H346 0.930 . S
C352 C353 1.367 . S
C352 C360 1.378 . S
C353 C352 1.367 . S
C353 C361 1.433 . S
C354 H350 0.929 . S
C354 C356 1.378 . S
C354 C358 1.350 . S
C355 C358 1.463 1_455 S
C355 C360 1.350 . S
C355 N363 1.427 . S
C356 H347 0.930 . S
C356 C354 1.378 . S
C356 C357 1.367 . S
C357 C356 1.367 . S
C357 C359 1.433 . S
C358 C354 1.350 . S
C358 C355 1.463 1_655 S
C358 N362 1.427 . S
C359 H349 0.929 . S
C359 C357 1.433 . S
C359 N362 1.384 . S
C360 H351 0.929 . S
C360 C352 1.378 . S
C360 C355 1.350 . S
C361 H348 0.929 . S
C361 C353 1.433 . S
C361 N363 1.384 . S
N362 C358 1.427 . S
N362 C359 1.384 . S
N363 C355 1.427 . S
N363 C361 1.384 . S
H364 C370 0.930 . S
H365 C374 0.930 . S
H366 C379 0.929 . S
H367 C377 0.929 . S
H368 C372 0.929 . S
H369 C378 0.929 . S
C370 H364 0.930 . S
C370 C371 1.367 1_556 S
C370 C378 1.378 . S
C371 C370 1.367 1_554 S
C371 C379 1.433 . S
C372 H368 0.929 . S
C372 C374 1.378 . S
C372 C376 1.350 1_554 S
C373 C376 1.463 1_564 S
C373 C378 1.350 1_554 S
C373 N381 1.427 . S
C374 H365 0.930 . S
C374 C372 1.378 . S
C374 C375 1.367 1_554 S
C375 C374 1.367 1_556 S
C375 C377 1.433 . S
C376 C372 1.350 1_556 S
C376 C373 1.463 1_546 S
C376 N380 1.427 . S
C377 H367 0.929 . S
C377 C375 1.433 . S
C377 N380 1.384 . S
C378 H369 0.929 . S
C378 C370 1.378 . S
C378 C373 1.350 1_556 S
C379 H366 0.929 . S
C379 C371 1.433 . S
C379 N381 1.384 . S
N380 C376 1.427 . S
N380 C377 1.384 . S
N381 C373 1.427 . S
N381 C379 1.384 . S
H382 C388 0.930 . S
H383 C392 0.930 . S
H384 C397 0.929 . S
H385 C395 0.929 . S
H386 C390 0.929 . S
H387 C396 0.929 . S
C388 H382 0.930 . S
C388 C389 1.367 . S
C388 C396 1.378 . S
C389 C388 1.367 . S
C389 C397 1.433 . S
C390 H386 0.929 . S
C390 C392 1.378 . S
C390 C394 1.350 . S
C391 C394 1.463 1_565 S
C391 C396 1.350 . S
C391 N399 1.427 . S
C392 H383 0.930 . S
C392 C390 1.378 . S
C392 C393 1.367 . S
C393 C392 1.367 . S
C393 C395 1.433 . S
C394 C390 1.350 . S
C394 C391 1.463 1_545 S
C394 N398 1.427 . S
C395 H385 0.929 . S
C395 C393 1.433 . S
C395 N398 1.384 . S
C396 H387 0.929 . S
C396 C388 1.378 . S
C396 C391 1.350 . S
C397 H384 0.929 . S
C397 C389 1.433 . S
C397 N399 1.384 . S
N398 C394 1.427 . S
N398 C395 1.384 . S
N399 C391 1.427 . S
N399 C397 1.384 . S
H400 C406 0.930 . S
H401 C410 0.930 . S
H402 C415 0.929 . S
H403 C413 0.929 . S
H404 C408 0.929 . S
H405 C414 0.929 . S
C406 H400 0.930 . S
C406 C407 1.367 . S
C406 C414 1.378 . S
C407 C406 1.367 . S
C407 C415 1.433 . S
C408 H404 0.929 . S
C408 C410 1.378 . S
C408 C412 1.350 . S
C409 C412 1.463 1_455 S
C409 C414 1.350 . S
C409 N417 1.427 . S
C410 H401 0.930 . S
C410 C408 1.378 . S
C410 C411 1.367 . S
C411 C410 1.367 . S
C411 C413 1.433 . S
C412 C408 1.350 . S
C412 C409 1.463 1_655 S
C412 N416 1.427 . S
C413 H403 0.929 . S
C413 C411 1.433 . S
C413 N416 1.384 . S
C414 H405 0.929 . S
C414 C406 1.378 . S
C414 C409 1.350 . S
C415 H402 0.929 . S
C415 C407 1.433 . S
C415 N417 1.384 . S
N416 C412 1.427 . S
N416 C413 1.384 . S
N417 C409 1.427 . S
N417 C415 1.384 . S
H418 C424 0.930 . S
H419 C428 0.930 . S
H420 C433 0.929 . S
H421 C431 0.929 . S
H422 C426 0.929 . S
H423 C432 0.929 . S
C424 H418 0.930 . S
C424 C425 1.367 . S
C424 C432 1.378 . S
C425 C424 1.367 . S
C425 C433 1.433 . S
C426 H422 0.929 . S
C426 C428 1.378 . S
C426 C430 1.350 . S
C427 C430 1.463 1_455 S
C427 C432 1.350 . S
C427 N435 1.427 . S
C428 H419 0.930 . S
C428 C426 1.378 . S
C428 C429 1.367 . S
C429 C428 1.367 . S
C429 C431 1.433 . S
C430 C426 1.350 . S
C430 C427 1.463 1_655 S
C430 N434 1.427 . S
C431 H421 0.929 . S
C431 C429 1.433 . S
C431 N434 1.384 . S
C432 H423 0.929 . S
C432 C424 1.378 . S
C432 C427 1.350 . S
C433 H420 0.929 . S
C433 C425 1.433 . S
C433 N435 1.384 . S
N434 C430 1.427 . S
N434 C431 1.384 . S
N435 C427 1.427 . S
N435 C433 1.384 . S
H436 C442 0.930 . S
H437 C446 0.930 . S
H438 C451 0.929 . S
H439 C449 0.929 . S
H440 C444 0.929 . S
H441 C450 0.929 . S
C442 H436 0.930 . S
C442 C443 1.367 . S
C442 C450 1.378 . S
C443 C442 1.367 . S
C443 C451 1.433 . S
C444 H440 0.929 . S
C444 C446 1.378 . S
C444 C448 1.350 . S
C445 C448 1.463 . S
C445 C450 1.350 . S
C445 N453 1.427 . S
C446 H437 0.930 . S
C446 C444 1.378 . S
C446 C447 1.367 . S
C447 C446 1.367 . S
C447 C449 1.433 . S
C448 C444 1.350 . S
C448 C445 1.463 . S
C448 N452 1.427 . S
C449 H439 0.929 . S
C449 C447 1.433 . S
C449 N452 1.384 . S
C450 H441 0.929 . S
C450 C442 1.378 . S
C450 C445 1.350 . S
C451 H438 0.929 . S
C451 C443 1.433 . S
C451 N453 1.384 . S
N452 C448 1.427 . S
N452 C449 1.384 . S
N453 C445 1.427 . S
N453 C451 1.384 . S
H454 C460 0.930 . S
H455 C464 0.930 . S
H456 C469 0.929 . S
H457 C467 0.929 . S
H458 C462 0.929 . S
H459 C468 0.929 . S
C460 H454 0.930 . S
C460 C461 1.367 . S
C460 C468 1.378 . S
C461 C460 1.367 . S
C461 C469 1.433 . S
C462 H458 0.929 . S
C462 C464 1.378 . S
C462 C466 1.350 . S
C463 C466 1.463 . S
C463 C468 1.350 . S
C463 N471 1.427 . S
C464 H455 0.930 . S
C464 C462 1.378 . S
C464 C465 1.367 . S
C465 C464 1.367 . S
C465 C467 1.433 . S
C466 C462 1.350 . S
C466 C463 1.463 . S
C466 N470 1.427 . S
C467 H457 0.929 . S
C467 C465 1.433 . S
C467 N470 1.384 . S
C468 H459 0.929 . S
C468 C460 1.378 . S
C468 C463 1.350 . S
C469 H456 0.929 . S
C469 C461 1.433 . S
C469 N471 1.384 . S
N470 C466 1.427 . S
N470 C467 1.384 . S
N471 C463 1.427 . S
N471 C469 1.384 . S
H472 C478 0.930 . S
H473 C482 0.930 . S
H474 C487 0.929 . S
H475 C485 0.929 . S
H476 C480 0.929 . S
H477 C486 0.929 . S
C478 H472 0.930 . S
C478 C479 1.367 . S
C478 C486 1.378 . S
C479 C478 1.367 . S
C479 C487 1.433 . S
C480 H476 0.929 . S
C480 C482 1.378 . S
C480 C484 1.350 . S
C481 C484 1.463 . S
C481 C486 1.350 . S
C481 N489 1.427 . S
C482 H473 0.930 . S
C482 C480 1.378 . S
C482 C483 1.367 . S
C483 C482 1.367 . S
C483 C485 1.433 . S
C484 C480 1.350 . S
C484 C481 1.463 . S
C484 N488 1.427 . S
C485 H475 0.929 . S
C485 C483 1.433 . S
C485 N488 1.384 . S
C486 H477 0.929 . S
C486 C478 1.378 . S
C486 C481 1.350 . S
C487 H474 0.929 . S
C487 C479 1.433 . S
C487 N489 1.384 . S
N488 C484 1.427 . S
N488 C485 1.384 . S
N489 C481 1.427 . S
N489 C487 1.384 . S
H490 C496 0.930 . S
H491 C500 0.930 . S
H492 C505 0.929 . S
H493 C503 0.929 . S
H494 C498 0.929 . S
H495 C504 0.929 . S
C496 H490 0.930 . S
C496 C497 1.367 . S
C496 C504 1.378 . S
C497 C496 1.367 . S
C497 C505 1.433 . S
C498 H494 0.929 . S
C498 C500 1.378 . S
C498 C502 1.350 . S
C499 C502 1.463 . S
C499 C504 1.350 . S
C499 N507 1.427 . S
C500 H491 0.930 . S
C500 C498 1.378 . S
C500 C501 1.367 . S
C501 C500 1.367 . S
C501 C503 1.433 . S
C502 C498 1.350 . S
C502 C499 1.463 . S
C502 N506 1.427 . S
C503 H493 0.929 . S
C503 C501 1.433 . S
C503 N506 1.384 . S
C504 H495 0.929 . S
C504 C496 1.378 . S
C504 C499 1.350 . S
C505 H492 0.929 . S
C505 C497 1.433 . S
C505 N507 1.384 . S
N506 C502 1.427 . S
N506 C503 1.384 . S
N507 C499 1.427 . S
N507 C505 1.384 . S
H508 C514 0.930 . S
H509 C518 0.930 . S
H510 C523 0.929 . S
H511 C521 0.929 . S
H512 C516 0.929 . S
H513 C522 0.929 . S
C514 H508 0.930 . S
C514 C515 1.367 . S
C514 C522 1.378 . S
C515 C514 1.367 . S
C515 C523 1.433 . S
C516 H512 0.929 . S
C516 C518 1.378 . S
C516 C520 1.350 . S
C517 C520 1.463 . S
C517 C522 1.350 . S
C517 N525 1.427 . S
C518 H509 0.930 . S
C518 C516 1.378 . S
C518 C519 1.367 . S
C519 C518 1.367 . S
C519 C521 1.433 . S
C520 C516 1.350 . S
C520 C517 1.463 . S
C520 N524 1.427 . S
C521 H511 0.929 . S
C521 C519 1.433 . S
C521 N524 1.384 . S
C522 H513 0.929 . S
C522 C514 1.378 . S
C522 C517 1.350 . S
C523 H510 0.929 . S
C523 C515 1.433 . S
C523 N525 1.384 . S
N524 C520 1.427 . S
N524 C521 1.384 . S
N525 C517 1.427 . S
N525 C523 1.384 . S
H526 C532 0.930 . S
H527 C536 0.930 . S
H528 C541 0.929 . S
H529 C539 0.929 . S
H530 C534 0.929 . S
H531 C540 0.929 . S
C532 H526 0.930 . S
C532 C533 1.367 . S
C532 C540 1.378 . S
C533 C532 1.367 . S
C533 C541 1.433 . S
C534 H530 0.929 . S
C534 C536 1.378 . S
C534 C538 1.350 . S
C535 C538 1.463 . S
C535 C540 1.350 . S
C535 N543 1.427 . S
C536 H527 0.930 . S
C536 C534 1.378 . S
C536 C537 1.367 . S
C537 C536 1.367 . S
C537 C539 1.433 . S
C538 C534 1.350 . S
C538 C535 1.463 . S
C538 N542 1.427 . S
C539 H529 0.929 . S
C539 C537 1.433 . S
C539 N542 1.384 . S
C540 H531 0.929 . S
C540 C532 1.378 . S
C540 C535 1.350 . S
C541 H528 0.929 . S
C541 C533 1.433 . S
C541 N543 1.384 . S
N542 C538 1.427 . S
N542 C539 1.384 . S
N543 C535 1.427 . S
N543 C541 1.384 . S
H544 C550 0.930 . S
H545 C554 0.930 . S
H546 C559 0.929 1_545 S
H547 C557 0.929 . S
H548 C552 0.929 . S
H549 C558 0.929 . S
C550 H544 0.930 . S
C550 C551 1.367 . S
C550 C558 1.378 . S
C551 C550 1.367 . S
C551 C559 1.433 . S
C552 H548 0.929 . S
C552 C554 1.378 . S
C552 C556 1.350 1_545 S
C553 C556 1.463 . S
C553 C558 1.350 . S
C553 N561 1.427 1_565 S
C554 H545 0.930 . S
C554 C552 1.378 . S
C554 C555 1.367 . S
C555 C554 1.367 . S
C555 C557 1.433 1_545 S
C556 C552 1.350 1_565 S
C556 C553 1.463 . S
C556 N560 1.427 . S
C557 H547 0.929 . S
C557 C555 1.433 1_565 S
C557 N560 1.384 . S
C558 H549 0.929 . S
C558 C550 1.378 . S
C558 C553 1.350 . S
C559 H546 0.929 1_565 S
C559 C551 1.433 . S
C559 N561 1.384 1_565 S
N560 C556 1.427 . S
N560 C557 1.384 . S
N561 C553 1.427 1_545 S
N561 C559 1.384 1_545 S
H562 C568 0.930 . S
H563 C572 0.930 . S
H564 C577 0.929 . S
H565 C575 0.936 . S
H566 C570 0.929 . S
H567 C576 0.929 . S
C568 H562 0.930 . S
C568 C569 1.367 . S
C568 C576 1.378 . S
C569 C568 1.367 . S
C569 C577 1.433 1_545 S
C570 H566 0.929 . S
C570 C572 1.378 . S
C570 C574 1.350 . S
C571 C574 1.463 . S
C571 C576 1.350 1_565 S
C571 N579 1.427 . S
C572 H563 0.930 . S
C572 C570 1.378 . S
C572 C573 1.367 . S
C573 C572 1.367 . S
C573 C575 1.433 . S
C574 C570 1.350 . S
C574 C571 1.463 . S
C574 N578 1.427 1_565 S
C575 H565 0.936 . S
C575 C573 1.433 . S
C575 N578 1.383 1_565 S
C576 H567 0.929 . S
C576 C568 1.378 . S
C576 C571 1.350 1_545 S
C577 H564 0.929 . S
C577 C569 1.433 1_565 S
C577 N579 1.384 . S
N578 C574 1.427 1_545 S
N578 C575 1.383 1_545 S
N579 C571 1.427 . S
N579 C577 1.384 . S
H580 C586 0.930 . S
H581 C590 0.930 . S
H582 C595 0.929 . S
H583 C593 0.929 1_565 S
H584 C588 0.929 . S
H585 C594 0.929 . S
C586 H580 0.930 . S
C586 C587 1.367 . S
C586 C594 1.378 . S
C587 C586 1.367 . S
C587 C595 1.433 1_565 S
C588 H584 0.929 . S
C588 C590 1.378 . S
C588 C592 1.350 . S
C589 C592 1.463 . S
C589 C594 1.350 1_545 S
C589 N597 1.427 . S
C590 H581 0.930 . S
C590 C588 1.378 . S
C590 C591 1.367 . S
C591 C590 1.367 . S
C591 C593 1.433 . S
C592 C588 1.350 . S
C592 C589 1.463 . S
C592 N596 1.427 1_545 S
C593 H583 0.929 1_545 S
C593 C591 1.433 . S
C593 N596 1.384 1_545 S
C594 H585 0.929 . S
C594 C586 1.378 . S
C594 C589 1.350 1_565 S
C595 H582 0.929 . S
C595 C587 1.433 1_545 S
C595 N597 1.384 . S
N596 C592 1.427 1_565 S
N596 C593 1.384 1_565 S
N597 C589 1.427 . S
N597 C595 1.384 . S
H598 C604 0.930 . S
H599 C608 0.930 . S
H600 C613 0.929 . S
H601 C611 0.929 . S
H602 C606 0.928 1_545 S
H603 C612 0.929 . S
C604 H598 0.930 . S
C604 C605 1.367 . S
C604 C612 1.378 . S
C605 C604 1.367 . S
C605 C613 1.433 . S
C606 H602 0.928 1_565 S
C606 C608 1.378 . S
C606 C610 1.350 1_565 S
C607 C610 1.463 . S
C607 C612 1.350 . S
C607 N615 1.427 . S
C608 H599 0.930 . S
C608 C606 1.378 . S
C608 C609 1.367 . S
C609 C608 1.367 . S
C609 C611 1.433 . S
C610 C606 1.350 1_545 S
C610 C607 1.463 . S
C610 N614 1.431 . S
C611 H601 0.929 . S
C611 C609 1.433 . S
C611 N614 1.374 1_565 S
C612 H603 0.929 . S
C612 C604 1.378 . S
C612 C607 1.350 . S
C613 H600 0.929 . S
C613 C605 1.433 . S
C613 N615 1.384 . S
N614 C610 1.431 . S
N614 C611 1.374 1_545 S
N615 C607 1.427 . S
N615 C613 1.384 . S
C191 C40 1.432 . S
C195 C17 1.436 . S
C209 C63 1.429 . S
C213 C86 1.436 . S
C227 C132 1.428 . S
C231 C109 1.435 . S
C245 C155 1.431 . S
C249 C178 1.430 . S
C263 C20 1.369 . S
C267 C158 1.369 . S
C281 C43 1.370 . S
C285 C181 1.370 . S
C299 C112 1.371 . S
C303 C66 1.371 . S
C317 C89 1.371 . S
C321 C135 1.371 . S
C335 C62 1.160 . S
C339 C16 1.160 . S
C353 C85 1.156 . S
C357 C39 1.156 . S
C371 C108 1.167 . S
C375 C154 1.167 . S
C389 C131 1.169 . S
C393 C177 1.169 . S
C407 C18 1.309 . S
C411 C41 1.310 . S
C425 C87 1.310 . S
C429 C64 1.309 . S
C443 C133 1.306 . S
C447 C110 1.306 . S
C461 C179 1.306 . S
C465 C156 1.306 . S
C479 C21 1.547 1_556 S
C483 C88 1.475 . S
C497 C44 1.546 . S
C501 C65 1.462 . S
C515 C42 1.466 . S
C519 C67 1.544 1_554 S
C533 C19 1.469 . S
C537 C90 1.543 . S
C551 C113 1.544 1_556 S
C555 C180 1.467 . S
C569 C157 1.462 . S
C573 C136 1.545 . S
C587 C134 1.463 . S
C591 C159 1.545 1_554 S
C605 C182 1.543 . S
C609 C111 1.477 . S
