# Generated by pormake.
# Topology vdb, (5)-cn, num edge types: 1
# Building blocks:
#     Node 0, Type 0, BuildingBlock: BEQFEK_clean_sbu_0, # of connection points: 5
#     Node 1, Type 0, BuildingBlock: BEQFEK_clean_sbu_0, # of connection points: 5
#     Node 2, Type 0, BuildingBlock: BEQFEK_clean_sbu_0, # of connection points: 5
#     Node 3, Type 0, BuildingBlock: BEQFEK_clean_sbu_0, # of connection points: 5
#     Node 4, Type 0, BuildingBlock: BEQFEK_clean_sbu_0, # of connection points: 5
#     Node 5, Type 0, BuildingBlock: BEQFEK_clean_sbu_0, # of connection points: 5
#     Node 6, Type 0, BuildingBlock: BEQFEK_clean_sbu_0, # of connection points: 5
#     Node 7, Type 0, BuildingBlock: BEQFEK_clean_sbu_0, # of connection points: 5
#     Node 8, Type 0, BuildingBlock: BEQFEK_clean_sbu_0, # of connection points: 5
#     Node 9, Type 0, BuildingBlock: BEQFEK_clean_sbu_0, # of connection points: 5
#     Node 10, Type 0, BuildingBlock: BEQFEK_clean_sbu_0, # of connection points: 5
#     Node 11, Type 0, BuildingBlock: BEQFEK_clean_sbu_0, # of connection points: 5
#     Node 12, Type 0, BuildingBlock: BEQFEK_clean_sbu_0, # of connection points: 5
#     Node 13, Type 0, BuildingBlock: BEQFEK_clean_sbu_0, # of connection points: 5
#     Node 14, Type 0, BuildingBlock: BEQFEK_clean_sbu_0, # of connection points: 5
#     Node 15, Type 0, BuildingBlock: BEQFEK_clean_sbu_0, # of connection points: 5
#     Node 16, Type 0, BuildingBlock: BEQFEK_clean_sbu_0, # of connection points: 5
#     Node 17, Type 0, BuildingBlock: BEQFEK_clean_sbu_0, # of connection points: 5
#     Node 18, Type 0, BuildingBlock: BEQFEK_clean_sbu_0, # of connection points: 5
#     Node 19, Type 0, BuildingBlock: BEQFEK_clean_sbu_0, # of connection points: 5
#     Node 20, Type 0, BuildingBlock: BEQFEK_clean_sbu_0, # of connection points: 5
#     Node 21, Type 0, BuildingBlock: BEQFEK_clean_sbu_0, # of connection points: 5
#     Node 22, Type 0, BuildingBlock: BEQFEK_clean_sbu_0, # of connection points: 5
#     Node 23, Type 0, BuildingBlock: BEQFEK_clean_sbu_0, # of connection points: 5
#     Node 24, Type 0, BuildingBlock: BEQFEK_clean_sbu_0, # of connection points: 5
#     Node 25, Type 0, BuildingBlock: BEQFEK_clean_sbu_0, # of connection points: 5
#     Node 26, Type 0, BuildingBlock: BEQFEK_clean_sbu_0, # of connection points: 5
#     Node 27, Type 0, BuildingBlock: BEQFEK_clean_sbu_0, # of connection points: 5
#     Node 28, Type 0, BuildingBlock: BEQFEK_clean_sbu_0, # of connection points: 5
#     Node 29, Type 0, BuildingBlock: BEQFEK_clean_sbu_0, # of connection points: 5
#     Node 30, Type 0, BuildingBlock: BEQFEK_clean_sbu_0, # of connection points: 5
#     Node 31, Type 0, BuildingBlock: BEQFEK_clean_sbu_0, # of connection points: 5
#     Edge 32, Type (0, 0), BuildingBlock: AJUNOK_clean_linker_0, # of connection points: 2
#     Edge 33, Type (0, 0), BuildingBlock: AJUNOK_clean_linker_0, # of connection points: 2
#     Edge 34, Type (0, 0), BuildingBlock: AJUNOK_clean_linker_0, # of connection points: 2
#     Edge 35, Type (0, 0), BuildingBlock: AJUNOK_clean_linker_0, # of connection points: 2
#     Edge 36, Type (0, 0), BuildingBlock: AJUNOK_clean_linker_0, # of connection points: 2
#     Edge 37, Type (0, 0), BuildingBlock: AJUNOK_clean_linker_0, # of connection points: 2
#     Edge 38, Type (0, 0), BuildingBlock: AJUNOK_clean_linker_0, # of connection points: 2
#     Edge 39, Type (0, 0), BuildingBlock: AJUNOK_clean_linker_0, # of connection points: 2
#     Edge 40, Type (0, 0), BuildingBlock: AJUNOK_clean_linker_0, # of connection points: 2
#     Edge 41, Type (0, 0), BuildingBlock: AJUNOK_clean_linker_0, # of connection points: 2
#     Edge 42, Type (0, 0), BuildingBlock: AJUNOK_clean_linker_0, # of connection points: 2
#     Edge 43, Type (0, 0), BuildingBlock: AJUNOK_clean_linker_0, # of connection points: 2
#     Edge 44, Type (0, 0), BuildingBlock: AJUNOK_clean_linker_0, # of connection points: 2
#     Edge 45, Type (0, 0), BuildingBlock: AJUNOK_clean_linker_0, # of connection points: 2
#     Edge 46, Type (0, 0), BuildingBlock: AJUNOK_clean_linker_0, # of connection points: 2
#     Edge 47, Type (0, 0), BuildingBlock: AJUNOK_clean_linker_0, # of connection points: 2
#     Edge 48, Type (0, 0), BuildingBlock: AJUNOK_clean_linker_0, # of connection points: 2
#     Edge 49, Type (0, 0), BuildingBlock: AJUNOK_clean_linker_0, # of connection points: 2
#     Edge 50, Type (0, 0), BuildingBlock: AJUNOK_clean_linker_0, # of connection points: 2
#     Edge 51, Type (0, 0), BuildingBlock: AJUNOK_clean_linker_0, # of connection points: 2
#     Edge 52, Type (0, 0), BuildingBlock: AJUNOK_clean_linker_0, # of connection points: 2
#     Edge 53, Type (0, 0), BuildingBlock: AJUNOK_clean_linker_0, # of connection points: 2
#     Edge 54, Type (0, 0), BuildingBlock: AJUNOK_clean_linker_0, # of connection points: 2
#     Edge 55, Type (0, 0), BuildingBlock: AJUNOK_clean_linker_0, # of connection points: 2
#     Edge 56, Type (0, 0), BuildingBlock: AJUNOK_clean_linker_0, # of connection points: 2
#     Edge 57, Type (0, 0), BuildingBlock: AJUNOK_clean_linker_0, # of connection points: 2
#     Edge 58, Type (0, 0), BuildingBlock: AJUNOK_clean_linker_0, # of connection points: 2
#     Edge 59, Type (0, 0), BuildingBlock: AJUNOK_clean_linker_0, # of connection points: 2
#     Edge 60, Type (0, 0), BuildingBlock: AJUNOK_clean_linker_0, # of connection points: 2
#     Edge 61, Type (0, 0), BuildingBlock: AJUNOK_clean_linker_0, # of connection points: 2
#     Edge 62, Type (0, 0), BuildingBlock: AJUNOK_clean_linker_0, # of connection points: 2
#     Edge 63, Type (0, 0), BuildingBlock: AJUNOK_clean_linker_0, # of connection points: 2
#     Edge 64, Type (0, 0), BuildingBlock: AJUNOK_clean_linker_0, # of connection points: 2
#     Edge 65, Type (0, 0), BuildingBlock: AJUNOK_clean_linker_0, # of connection points: 2
#     Edge 66, Type (0, 0), BuildingBlock: AJUNOK_clean_linker_0, # of connection points: 2
#     Edge 67, Type (0, 0), BuildingBlock: AJUNOK_clean_linker_0, # of connection points: 2
#     Edge 68, Type (0, 0), BuildingBlock: AJUNOK_clean_linker_0, # of connection points: 2
#     Edge 69, Type (0, 0), BuildingBlock: AJUNOK_clean_linker_0, # of connection points: 2
#     Edge 70, Type (0, 0), BuildingBlock: AJUNOK_clean_linker_0, # of connection points: 2
#     Edge 71, Type (0, 0), BuildingBlock: AJUNOK_clean_linker_0, # of connection points: 2
#     Edge 72, Type (0, 0), BuildingBlock: AJUNOK_clean_linker_0, # of connection points: 2
#     Edge 73, Type (0, 0), BuildingBlock: AJUNOK_clean_linker_0, # of connection points: 2
#     Edge 74, Type (0, 0), BuildingBlock: AJUNOK_clean_linker_0, # of connection points: 2
#     Edge 75, Type (0, 0), BuildingBlock: AJUNOK_clean_linker_0, # of connection points: 2
#     Edge 76, Type (0, 0), BuildingBlock: AJUNOK_clean_linker_0, # of connection points: 2
#     Edge 77, Type (0, 0), BuildingBlock: AJUNOK_clean_linker_0, # of connection points: 2
#     Edge 78, Type (0, 0), BuildingBlock: AJUNOK_clean_linker_0, # of connection points: 2
#     Edge 79, Type (0, 0), BuildingBlock: AJUNOK_clean_linker_0, # of connection points: 2
#     Edge 80, Type (0, 0), BuildingBlock: AJUNOK_clean_linker_0, # of connection points: 2
#     Edge 81, Type (0, 0), BuildingBlock: AJUNOK_clean_linker_0, # of connection points: 2
#     Edge 82, Type (0, 0), BuildingBlock: AJUNOK_clean_linker_0, # of connection points: 2
#     Edge 83, Type (0, 0), BuildingBlock: AJUNOK_clean_linker_0, # of connection points: 2
#     Edge 84, Type (0, 0), BuildingBlock: AJUNOK_clean_linker_0, # of connection points: 2
#     Edge 85, Type (0, 0), BuildingBlock: AJUNOK_clean_linker_0, # of connection points: 2
#     Edge 86, Type (0, 0), BuildingBlock: AJUNOK_clean_linker_0, # of connection points: 2
#     Edge 87, Type (0, 0), BuildingBlock: AJUNOK_clean_linker_0, # of connection points: 2
#     Edge 88, Type (0, 0), BuildingBlock: AJUNOK_clean_linker_0, # of connection points: 2
#     Edge 89, Type (0, 0), BuildingBlock: AJUNOK_clean_linker_0, # of connection points: 2
#     Edge 90, Type (0, 0), BuildingBlock: AJUNOK_clean_linker_0, # of connection points: 2
#     Edge 91, Type (0, 0), BuildingBlock: AJUNOK_clean_linker_0, # of connection points: 2
#     Edge 92, Type (0, 0), BuildingBlock: AJUNOK_clean_linker_0, # of connection points: 2
#     Edge 93, Type (0, 0), BuildingBlock: AJUNOK_clean_linker_0, # of connection points: 2
#     Edge 94, Type (0, 0), BuildingBlock: AJUNOK_clean_linker_0, # of connection points: 2
#     Edge 95, Type (0, 0), BuildingBlock: AJUNOK_clean_linker_0, # of connection points: 2
#     Edge 96, Type (0, 0), BuildingBlock: AJUNOK_clean_linker_0, # of connection points: 2
#     Edge 97, Type (0, 0), BuildingBlock: AJUNOK_clean_linker_0, # of connection points: 2
#     Edge 98, Type (0, 0), BuildingBlock: AJUNOK_clean_linker_0, # of connection points: 2
#     Edge 99, Type (0, 0), BuildingBlock: AJUNOK_clean_linker_0, # of connection points: 2
#     Edge 100, Type (0, 0), BuildingBlock: AJUNOK_clean_linker_0, # of connection points: 2
#     Edge 101, Type (0, 0), BuildingBlock: AJUNOK_clean_linker_0, # of connection points: 2
#     Edge 102, Type (0, 0), BuildingBlock: AJUNOK_clean_linker_0, # of connection points: 2
#     Edge 103, Type (0, 0), BuildingBlock: AJUNOK_clean_linker_0, # of connection points: 2
#     Edge 104, Type (0, 0), BuildingBlock: AJUNOK_clean_linker_0, # of connection points: 2
#     Edge 105, Type (0, 0), BuildingBlock: AJUNOK_clean_linker_0, # of connection points: 2
#     Edge 106, Type (0, 0), BuildingBlock: AJUNOK_clean_linker_0, # of connection points: 2
#     Edge 107, Type (0, 0), BuildingBlock: AJUNOK_clean_linker_0, # of connection points: 2
#     Edge 108, Type (0, 0), BuildingBlock: AJUNOK_clean_linker_0, # of connection points: 2
#     Edge 109, Type (0, 0), BuildingBlock: AJUNOK_clean_linker_0, # of connection points: 2
#     Edge 110, Type (0, 0), BuildingBlock: AJUNOK_clean_linker_0, # of connection points: 2
#     Edge 111, Type (0, 0), BuildingBlock: AJUNOK_clean_linker_0, # of connection points: 2
# Relax obj value: 0.464
# Max RMSD: 0.216
# Mean RMSD: 0.216
data_MOF--net-vdb--node1-BEQFEK_clean_sbu_0--edge1-AJUNOK_clean_linker_0
_symmetry_space_group_name_H-M    P1
_symmetry_Int_Tables_number       1
_symmetry_cell_setting            triclinic
loop_
_symmetry_equiv_pos_as_xyz
'x, y, z'
_cell_length_a     20.109931
_cell_length_b     37.378787
_cell_length_c     88.767555
_cell_angle_alpha  89.97764
_cell_angle_beta   89.855411
_cell_angle_gamma 90.274058
loop_
_atom_site_label
_atom_site_type_symbol
_atom_site_fract_x
_atom_site_fract_y
_atom_site_fract_z
_atom_type_partial_charge
Co0 Co 0.30215 0.0333 0.11334 0.0
Co1 Co 0.38124 0.06194 0.08615 0.0
C2 C 0.23966 0.08326 0.09024 0.0
O3 O 0.23753 0.06295 0.10176 0.0
O4 O 0.29328 0.08701 0.08259 0.0
C5 C 0.20921 0.98324 0.12376 0.0
O6 O 0.19399 0.97953 0.10945 0.0
C7 C 0.43009 0.05918 0.05465 0.0
C8 C 0.53669 0.05094 0.05901 0.0
C9 C 0.48894 0.04732 0.04785 0.0
N10 N 0.44236 0.06677 0.06927 0.0
N11 N 0.50688 0.06336 0.07154 0.0
C12 C 0.36193 0.06005 0.04788 0.0
H13 H 0.32329 0.05835 0.05678 0.0
H14 H 0.35456 0.03822 0.0396 0.0
H15 H 0.3558 0.08582 0.04184 0.0
C16 C 0.34768 0.96464 0.10306 0.0
N17 N 0.34712 1.00042 0.10179 0.0
N18 N 0.36777 0.01019 0.08839 0.0
C19 C 0.37668 0.97974 0.08022 0.0
C20 C 0.36345 0.95031 0.0893 0.0
C21 C 0.34353 0.94439 0.11762 0.0
H22 H 0.34989 0.96264 0.12735 0.0
H23 H 0.29543 0.92992 0.11843 0.0
H24 H 0.38313 0.92379 0.11796 0.0
O25 O 0.36369 0.06237 0.12423 0.0
O26 O 0.42368 0.08549 0.10556 0.0
H27 H 0.44264 0.98819 0.06193 0.0
H28 H 0.38893 0.95024 0.05941 0.0
C29 C 0.39182 0.97795 0.06382 0.0
H30 H 0.35505 0.99398 0.05764 0.0
H31 H 0.52939 0.06548 0.08208 0.0
O32 O 0.25186 0.00637 0.12777 0.0
C33 C 0.41059 0.08239 0.11973 0.0
Co34 Co 0.94071 0.21635 0.11598 0.0
Co35 Co 0.85605 0.18768 0.08962 0.0
C36 C 0.00081 0.16856 0.09215 0.0
O37 O 0.00471 0.18837 0.10376 0.0
O38 O 0.94559 0.16439 0.08524 0.0
C39 C 0.03436 0.26548 0.12563 0.0
O40 O 0.04604 0.26892 0.11113 0.0
C41 C 0.81365 0.19031 0.05792 0.0
C42 C 0.70543 0.19607 0.06071 0.0
C43 C 0.75612 0.20061 0.05018 0.0
N44 N 0.79763 0.18266 0.07236 0.0
N45 N 0.7324 0.18483 0.07374 0.0
C46 C 0.88322 0.18809 0.05192 0.0
H47 H 0.9065 0.16306 0.05601 0.0
H48 H 0.91368 0.21058 0.05628 0.0
H49 H 0.88393 0.18812 0.03943 0.0
C50 C 0.89033 0.2852 0.10653 0.0
N51 N 0.89336 0.24946 0.10505 0.0
N52 N 0.86504 0.23945 0.09242 0.0
C53 C 0.84689 0.26976 0.08501 0.0
C54 C 0.86393 0.2992 0.09363 0.0
C55 C 0.90273 0.30585 0.12073 0.0
H56 H 0.90084 0.28805 0.1307 0.0
H57 H 0.95131 0.31989 0.12001 0.0
H58 H 0.8643 0.32686 0.12208 0.0
O59 O 0.88081 0.18612 0.12697 0.0
O60 O 0.81637 0.163 0.10908 0.0
H61 H 0.76722 0.25763 0.07016 0.0
H62 H 0.80741 0.29956 0.06616 0.0
C63 C 0.81571 0.2716 0.06985 0.0
H64 H 0.84936 0.259 0.06168 0.0
H65 H 0.70699 0.18229 0.08395 0.0
O66 O 0.99249 0.24254 0.13026 0.0
C67 C 0.83276 0.16623 0.12305 0.0
Co68 Co 0.31094 0.22202 0.17773 0.0
Co69 Co 0.39522 0.19363 0.20386 0.0
C70 C 0.25297 0.17239 0.20184 0.0
O71 O 0.24959 0.19207 0.19017 0.0
O72 O 0.30783 0.16877 0.20893 0.0
C73 C 0.21205 0.2692 0.17033 0.0
O74 O 0.20388 0.27001 0.18501 0.0
C75 C 0.4469 0.19417 0.23491 0.0
C76 C 0.55004 0.21109 0.23035 0.0
C77 C 0.50323 0.20901 0.24185 0.0
N78 N 0.45924 0.19014 0.22005 0.0
N79 N 0.52196 0.19898 0.21758 0.0
C80 C 0.3823 0.18354 0.24213 0.0
H81 H 0.36645 0.15713 0.23765 0.0
H82 H 0.3427 0.20278 0.23917 0.0
H83 H 0.38711 0.1817 0.25455 0.0
C84 C 0.35579 0.29108 0.18787 0.0
N85 N 0.35775 0.25523 0.18872 0.0
N86 N 0.38156 0.24514 0.20176 0.0
C87 C 0.39095 0.27523 0.21012 0.0
C88 C 0.37369 0.30483 0.20161 0.0
C89 C 0.34463 0.31229 0.17376 0.0
H90 H 0.34856 0.29506 0.16364 0.0
H91 H 0.29537 0.32541 0.17411 0.0
H92 H 0.3823 0.33403 0.17297 0.0
O93 O 0.37014 0.19362 0.16594 0.0
O94 O 0.43301 0.1701 0.18392 0.0
H95 H 0.46407 0.26947 0.22712 0.0
H96 H 0.40402 0.30343 0.23117 0.0
C97 C 0.41089 0.27643 0.22624 0.0
H98 H 0.38005 0.25731 0.23263 0.0
H99 H 0.54344 0.20058 0.20689 0.0
O100 O 0.25517 0.24868 0.16456 0.0
C101 C 0.41762 0.17363 0.1699 0.0
Co102 Co 0.9537 0.03298 0.18266 0.0
Co103 Co 0.86926 0.06453 0.2083 0.0
C104 C 0.01468 0.08531 0.20401 0.0
O105 O 0.01934 0.06335 0.19316 0.0
O106 O 0.95942 0.08962 0.21092 0.0
C107 C 0.05107 0.98684 0.1725 0.0
O108 O 0.06826 0.9865 0.18678 0.0
C109 C 0.83724 0.06091 0.24014 0.0
C110 C 0.72867 0.06858 0.24025 0.0
C111 C 0.7808 0.05669 0.24919 0.0
N112 N 0.81844 0.07286 0.22646 0.0
N113 N 0.75378 0.07879 0.22681 0.0
C114 C 0.90636 0.04812 0.24337 0.0
H115 H 0.93298 0.04169 0.23277 0.0
H116 H 0.90622 0.02441 0.25087 0.0
H117 H 0.93417 0.06988 0.24911 0.0
C118 C 0.91111 0.96451 0.19506 0.0
N119 N 0.91126 1.00049 0.19519 0.0
N120 N 0.87711 0.01227 0.2068 0.0
C121 C 0.85543 0.98311 0.21467 0.0
C122 C 0.87961 0.95246 0.20781 0.0
C123 C 0.92901 0.94135 0.18186 0.0
H124 H 0.9234 0.95615 0.17114 0.0
H125 H 0.98053 0.93142 0.18309 0.0
H126 H 0.8961 0.91742 0.18144 0.0
O127 O 0.88965 0.06116 0.17157 0.0
O128 O 0.82523 0.08594 0.18901 0.0
H129 H 0.77095 0.00523 0.22594 0.0
H130 H 0.77865 0.95786 0.22806 0.0
C131 C 0.80693 0.9833 0.22743 0.0
H132 H 0.83394 0.98594 0.2382 0.0
H133 H 0.72576 0.08605 0.21743 0.0
O134 O 0.00338 0.00632 0.16821 0.0
C135 C 0.84111 0.08103 0.17511 0.0
Co136 Co 0.68236 0.96844 0.92962 0.0
Co137 Co 0.5997 0.93883 0.95611 0.0
C138 C 0.74571 0.92143 0.95307 0.0
O139 O 0.7485 0.94136 0.94148 0.0
O140 O 0.69066 0.91646 0.96003 0.0
C141 C 0.77514 0.01779 0.91923 0.0
O142 O 0.78952 0.02117 0.93359 0.0
C143 C 0.56274 0.94239 0.98784 0.0
C144 C 0.45323 0.94189 0.98663 0.0
C145 C 0.50565 0.94963 0.99627 0.0
N146 N 0.54456 0.93242 0.97383 0.0
N147 N 0.47894 0.93083 0.97339 0.0
C148 C 0.63325 0.95091 0.99202 0.0
H149 H 0.66102 0.96098 0.98207 0.0
H150 H 0.63611 0.97094 1.00122 0.0
H151 H 0.6577 0.926 0.99588 0.0
C152 C 0.63234 0.03689 0.93954 0.0
N153 N 0.63523 1.00114 0.94088 0.0
N154 N 0.60647 0.99081 0.95346 0.0
C155 C 0.58765 0.02097 0.96094 0.0
C156 C 0.60574 0.0506 0.95249 0.0
C157 C 0.64394 0.05781 0.92535 0.0
H158 H 0.64063 0.04025 0.91533 0.0
H159 H 0.69287 0.07152 0.9258 0.0
H160 H 0.60592 0.07912 0.92429 0.0
O161 O 0.62248 0.93759 0.91886 0.0
O162 O 0.55922 0.91395 0.9369 0.0
H163 H 0.50729 0.00405 0.97485 0.0
H164 H 0.53094 0.04984 0.97764 0.0
C165 C 0.5501 0.02257 0.97542 0.0
H166 H 0.58328 0.0155 0.98484 0.0
H167 H 0.45165 0.92607 0.9636 0.0
O168 O 0.73215 0.99503 0.91504 0.0
C169 C 0.57516 0.91723 0.92289 0.0
Co170 Co 0.03827 0.78359 0.93333 0.0
Co171 Co 0.13292 0.817 0.95674 0.0
C172 C 0.98321 0.83558 0.95458 0.0
O173 O 0.97403 0.81259 0.9443 0.0
O174 O 0.04122 0.84083 0.96013 0.0
C175 C 0.93804 0.73938 0.92214 0.0
O176 O 0.91309 0.74202 0.93579 0.0
C177 C 0.16304 0.80519 0.98806 0.0
C178 C 0.27079 0.81486 0.98948 0.0
C179 C 0.2182 0.79877 0.99719 0.0
N180 N 0.18292 0.822 0.97534 0.0
N181 N 0.24724 0.82875 0.9765 0.0
C182 C 0.0918 0.79595 0.99119 0.0
H183 H 0.05978 0.81872 0.98792 0.0
H184 H 0.07655 0.77268 0.98424 0.0
H185 H 0.08365 0.79006 1.00331 0.0
C186 C 0.08271 0.71602 0.94681 0.0
N187 N 0.08259 0.75194 0.94571 0.0
N188 N 0.12876 0.7654 0.95448 0.0
C189 C 0.16209 0.73785 0.96092 0.0
C190 C 0.13078 0.70618 0.95696 0.0
C191 C 0.04505 0.69061 0.93688 0.0
H192 H 0.04827 0.69948 0.92501 0.0
H193 H 0.99252 0.68919 0.9406 0.0
H194 H 0.0656 0.66314 0.93739 0.0
O195 O 0.10081 0.81381 0.92181 0.0
O196 O 0.17262 0.83972 0.93743 0.0
H197 H 0.25431 0.76603 0.9643 0.0
H198 H 0.26184 0.71836 0.96331 0.0
C199 C 0.2303 0.74047 0.96751 0.0
H200 H 0.22809 0.73764 0.97985 0.0
H201 H 0.27631 0.8395 0.96784 0.0
O202 O 0.99036 0.75648 0.91874 0.0
C203 C 0.15044 0.83436 0.92403 0.0
Co204 Co 0.68472 0.78369 0.86153 0.0
Co205 Co 0.59236 0.81478 0.83736 0.0
C206 C 0.74053 0.83469 0.83941 0.0
O207 O 0.74856 0.81265 0.85009 0.0
O208 O 0.68306 0.83933 0.83359 0.0
C209 C 0.78571 0.73991 0.87212 0.0
O210 O 0.80598 0.74016 0.85803 0.0
C211 C 0.55935 0.80645 0.80598 0.0
C212 C 0.45155 0.81656 0.80529 0.0
C213 C 0.50347 0.80232 0.79687 0.0
N214 N 0.54081 0.82118 0.8192 0.0
N215 N 0.47661 0.82835 0.8185 0.0
C216 C 0.62672 0.79047 0.8034 0.0
H217 H 0.65389 0.78727 0.81415 0.0
H218 H 0.62278 0.76421 0.79764 0.0
H219 H 0.65621 0.80873 0.79611 0.0
C220 C 0.63803 0.71477 0.85003 0.0
N221 N 0.63946 0.75078 0.84983 0.0
N222 N 0.59793 0.7628 0.83963 0.0
C223 C 0.56848 0.73395 0.83303 0.0
C224 C 0.59551 0.70317 0.83901 0.0
C225 C 0.66894 0.69115 0.86172 0.0
H226 H 0.66643 0.7039 0.87295 0.0
H227 H 0.72116 0.6855 0.85855 0.0
H228 H 0.64271 0.66502 0.8625 0.0
O229 O 0.62259 0.81303 0.87299 0.0
O230 O 0.55209 0.83737 0.85673 0.0
H231 H 0.47994 0.75849 0.82454 0.0
H232 H 0.47923 0.71044 0.82401 0.0
C233 C 0.5108 0.73461 0.82249 0.0
H234 H 0.52942 0.73408 0.81076 0.0
H235 H 0.44858 0.83771 0.82758 0.0
O236 O 0.73543 0.75803 0.87595 0.0
C237 C 0.57254 0.8326 0.8703 0.0
Co238 Co 0.03964 0.9685 0.86376 0.0
Co239 Co 0.12372 0.94032 0.83735 0.0
C240 C 0.97932 0.92054 0.83987 0.0
O241 O 0.97634 0.94005 0.85157 0.0
O242 O 0.03427 0.91647 0.8328 0.0
C243 C 0.94269 0.01606 0.87237 0.0
O244 O 0.93278 0.01825 0.85777 0.0
C245 C 0.1706 0.94412 0.80594 0.0
C246 C 0.27892 0.94744 0.8094 0.0
C247 C 0.23002 0.95372 0.79871 0.0
N248 N 0.184 0.93502 0.82035 0.0
N249 N 0.2492 0.93558 0.82209 0.0
C250 C 0.10123 0.94819 0.80005 0.0
H251 H 0.06655 0.9549 0.80935 0.0
H252 H 0.0982 0.96896 0.79117 0.0
H253 H 0.08502 0.92233 0.79511 0.0
C254 C 0.08747 0.03773 0.85412 0.0
N255 N 0.08652 0.00194 0.85274 0.0
N256 N 0.11384 0.99231 0.83994 0.0
C257 C 0.12925 0.02294 0.83232 0.0
C258 C 0.11142 0.0522 0.84101 0.0
C259 C 0.07465 0.0582 0.86836 0.0
H260 H 0.07693 0.04046 0.87834 0.0
H261 H 0.02571 0.07164 0.86773 0.0
H262 H 0.11255 0.0797 0.86963 0.0
O263 O 0.09906 0.93894 0.87508 0.0
O264 O 0.16226 0.91581 0.85697 0.0
H265 H 0.17188 0.05318 0.81382 0.0
H266 H 0.12587 0.01442 0.80864 0.0
C267 C 0.16043 0.02524 0.81712 0.0
H268 H 0.20718 0.00999 0.8173 0.0
H269 H 0.27297 0.93176 0.8324 0.0
O270 O 0.98572 0.99467 0.87753 0.0
C271 C 0.14646 0.91894 0.87101 0.0
Co272 Co 0.30017 0.53063 0.61459 0.0
Co273 Co 0.38817 0.56234 0.58936 0.0
C274 C 0.24079 0.58125 0.59273 0.0
O275 O 0.23479 0.55936 0.60356 0.0
O276 O 0.29718 0.5862 0.58636 0.0
C277 C 0.20159 0.48537 0.62474 0.0
O278 O 0.18566 0.48507 0.61039 0.0
C279 C 0.41727 0.55537 0.55736 0.0
C280 C 0.52439 0.56721 0.5559 0.0
C281 C 0.4719 0.55273 0.5477 0.0
N282 N 0.43736 0.56894 0.57071 0.0
N283 N 0.50122 0.57696 0.56958 0.0
C284 C 0.34728 0.54353 0.55437 0.0
H285 H 0.31193 0.56234 0.5597 0.0
H286 H 0.33863 0.51675 0.55941 0.0
H287 H 0.33714 0.54241 0.5421 0.0
C288 C 0.34821 0.46214 0.60309 0.0
N289 N 0.34482 0.49809 0.60262 0.0
N290 N 0.38343 0.5104 0.59181 0.0
C291 C 0.41276 0.48183 0.58506 0.0
C292 C 0.3887 0.45074 0.59164 0.0
C293 C 0.32195 0.43857 0.61546 0.0
H294 H 0.32411 0.45252 0.62644 0.0
H295 H 0.27027 0.43032 0.61283 0.0
H296 H 0.35176 0.41374 0.61643 0.0
O297 O 0.36314 0.56061 0.62551 0.0
O298 O 0.43022 0.58556 0.60846 0.0
H299 H 0.5001 0.5071 0.57603 0.0
H300 H 0.49933 0.45911 0.5744 0.0
C301 C 0.46824 0.48347 0.57389 0.0
H302 H 0.44724 0.48465 0.56246 0.0
H303 H 0.53024 0.58619 0.57851 0.0
O304 O 0.24997 0.5044 0.62917 0.0
C305 C 0.4121 0.58079 0.62226 0.0
Co306 Co 0.94902 0.72153 0.61586 0.0
Co307 Co 0.86599 0.69424 0.58922 0.0
C308 C 0.00676 0.67063 0.59246 0.0
O309 O 0.01095 0.69075 0.60401 0.0
O310 O 0.95232 0.66787 0.58509 0.0
C311 C 0.04487 0.7701 0.62571 0.0
O312 O 0.0595 0.77305 0.61132 0.0
C313 C 0.8177 0.69533 0.5578 0.0
C314 C 0.71381 0.71114 0.56189 0.0
C315 C 0.76159 0.70937 0.55059 0.0
N316 N 0.80413 0.69125 0.57261 0.0
N317 N 0.7411 0.69952 0.5748 0.0
C318 C 0.88301 0.68528 0.55086 0.0
H319 H 0.89811 0.65869 0.55519 0.0
H320 H 0.92242 0.70442 0.55424 0.0
H321 H 0.87967 0.68407 0.53839 0.0
C322 C 0.90882 0.79101 0.60543 0.0
N323 N 0.9058 0.75521 0.60443 0.0
N324 N 0.88291 0.74553 0.59124 0.0
C325 C 0.87549 0.77585 0.58292 0.0
C326 C 0.89336 0.80518 0.59162 0.0
C327 C 0.9138 0.81164 0.61988 0.0
H328 H 0.90617 0.79377 0.62972 0.0
H329 H 0.9626 0.82533 0.6207 0.0
H330 H 0.8754 0.83289 0.6201 0.0
O331 O 0.88631 0.6938 0.62709 0.0
O332 O 0.8231 0.6716 0.60886 0.0
H333 H 0.80187 0.7698 0.56597 0.0
H334 H 0.86096 0.80477 0.56208 0.0
C335 C 0.85486 0.77749 0.56683 0.0
H336 H 0.88584 0.75906 0.5602 0.0
H337 H 0.71864 0.70085 0.5854 0.0
O338 O 0.00145 0.74766 0.63003 0.0
C339 C 0.83747 0.67482 0.62294 0.0
Co340 Co 0.30447 0.71803 0.68173 0.0
Co341 Co 0.38677 0.68684 0.70776 0.0
C342 C 0.24022 0.66948 0.70441 0.0
O343 O 0.23778 0.69017 0.69309 0.0
O344 O 0.29502 0.66428 0.71131 0.0
C345 C 0.20986 0.76606 0.67268 0.0
O346 O 0.1973 0.76717 0.68721 0.0
C347 C 0.42061 0.69239 0.73944 0.0
C348 C 0.52897 0.68408 0.73925 0.0
C349 C 0.47764 0.69723 0.74818 0.0
N350 N 0.43836 0.67925 0.72586 0.0
N351 N 0.50291 0.67294 0.72607 0.0
C352 C 0.35174 0.70539 0.74287 0.0
H353 H 0.32478 0.71174 0.73233 0.0
H354 H 0.35223 0.72924 0.75028 0.0
H355 H 0.32409 0.6838 0.74879 0.0
C356 C 0.35409 0.78623 0.69253 0.0
N357 N 0.35102 0.75035 0.69339 0.0
N358 N 0.38272 0.73909 0.7054 0.0
C359 C 0.40512 0.76867 0.71285 0.0
C360 C 0.3846 0.79897 0.70522 0.0
C361 C 0.33887 0.80839 0.67888 0.0
H362 H 0.34166 0.79211 0.66847 0.0
H363 H 0.28914 0.82073 0.68003 0.0
H364 H 0.37519 0.83076 0.67788 0.0
O365 O 0.36479 0.68768 0.67071 0.0
O366 O 0.42718 0.66266 0.68846 0.0
H367 H 0.48748 0.74708 0.72481 0.0
H368 H 0.47977 0.79458 0.72649 0.0
C369 C 0.45146 0.76911 0.72593 0.0
H370 H 0.42281 0.76697 0.73653 0.0
H371 H 0.53028 0.66473 0.71669 0.0
O372 O 0.25412 0.74518 0.66765 0.0
C373 C 0.41143 0.66683 0.6745 0.0
Co374 Co 0.93784 0.53624 0.68109 0.0
Co375 Co 0.85539 0.56534 0.70753 0.0
C376 C -0.00237 0.58621 0.70474 0.0
O377 O 0.00071 0.56614 0.69317 0.0
O378 O 0.94313 0.59003 0.71204 0.0
C379 C 0.03322 0.48725 0.67191 0.0
O380 O 0.04692 0.48536 0.68636 0.0
C381 C 0.80318 0.56503 0.73871 0.0
C382 C 0.69991 0.54875 0.73399 0.0
C383 C 0.74611 0.55059 0.74556 0.0
N384 N 0.79167 0.56914 0.72382 0.0
N385 N 0.72891 0.56067 0.72126 0.0
C386 C 0.86734 0.57564 0.74606 0.0
H387 H 0.88281 0.60233 0.74179 0.0
H388 H 0.90749 0.55684 0.74296 0.0
H389 H 0.86211 0.57689 0.75849 0.0
C390 C 0.89313 0.46759 0.69177 0.0
N391 N 0.89138 0.50345 0.69247 0.0
N392 N 0.86891 0.51384 0.70561 0.0
C393 C 0.8603 0.48396 0.71417 0.0
C394 C 0.87676 0.45418 0.70569 0.0
C395 C 0.89982 0.44616 0.67757 0.0
H396 H 0.89357 0.46343 0.66752 0.0
H397 H 0.94864 0.4326 0.67718 0.0
H398 H 0.86134 0.42476 0.67737 0.0
O399 O 0.87832 0.56495 0.66959 0.0
O400 O 0.81676 0.58889 0.68773 0.0
H401 H 0.78795 0.48998 0.73141 0.0
H402 H 0.84844 0.45624 0.7354 0.0
C403 C 0.84115 0.48311 0.73037 0.0
H404 H 0.87211 0.50238 0.7366 0.0
H405 H 0.70794 0.55921 0.71054 0.0
O406 O 0.99017 0.5092 0.66722 0.0
C407 C 0.83161 0.58535 0.67367 0.0
Co408 Co 0.70041 0.47761 0.43097 0.0
Co409 Co 0.60058 0.44589 0.45384 0.0
C410 C 0.74892 0.42536 0.45326 0.0
O411 O 0.75964 0.44719 0.44262 0.0
O412 O 0.69 0.42091 0.45845 0.0
C413 C 0.80811 0.51941 0.42342 0.0
O414 O 0.81975 0.51644 0.43792 0.0
C415 C 0.56612 0.45614 0.48504 0.0
C416 C 0.45746 0.44918 0.48565 0.0
C417 C 0.51037 0.46288 0.49395 0.0
N418 N 0.54662 0.44131 0.4719 0.0
N419 N 0.48162 0.4362 0.47253 0.0
C420 C 0.63747 0.46348 0.48877 0.0
H421 H 0.66785 0.43982 0.48583 0.0
H422 H 0.65609 0.48628 0.48193 0.0
H423 H 0.64405 0.46918 0.50094 0.0
C424 C 0.65611 0.54594 0.44369 0.0
N425 N 0.65548 0.50998 0.44295 0.0
N426 N 0.60834 0.4973 0.45174 0.0
C427 C 0.57547 0.52539 0.45789 0.0
C428 C 0.60763 0.55655 0.45362 0.0
C429 C 0.69499 0.57068 0.43363 0.0
H430 H 0.6961 0.56022 0.42197 0.0
H431 H 0.74615 0.57379 0.43804 0.0
H432 H 0.6726 0.59774 0.43322 0.0
O433 O 0.63773 0.44939 0.4186 0.0
O434 O 0.5627 0.42491 0.43398 0.0
H435 H 0.48039 0.49961 0.46039 0.0
H436 H 0.47799 0.54769 0.46099 0.0
C437 C 0.50687 0.52381 0.46439 0.0
H438 H 0.50908 0.52401 0.47678 0.0
H439 H 0.45296 0.42709 0.46352 0.0
O440 O 0.75778 0.50396 0.41777 0.0
C441 C 0.5861 0.43005 0.42062 0.0
Co442 Co 0.01031 0.27463 0.43354 0.0
Co443 Co 0.11664 0.30235 0.45545 0.0
C444 C 0.97189 0.33029 0.45505 0.0
O445 O 0.95709 0.30849 0.44467 0.0
O446 O 0.03134 0.33196 0.46027 0.0
C447 C 0.89539 0.23915 0.42477 0.0
O448 O 0.8747 0.24768 0.43835 0.0
C449 C 0.16451 0.29075 0.48586 0.0
C450 C 0.27274 0.29773 0.48352 0.0
C451 C 0.22458 0.28405 0.49327 0.0
N452 N 0.17734 0.3057 0.47231 0.0
N453 N 0.24217 0.31076 0.47119 0.0
C454 C 0.0955 0.28177 0.49102 0.0
H455 H 0.0824 0.25421 0.48745 0.0
H456 H 0.09158 0.28374 0.50347 0.0
H457 H 0.05924 0.30021 0.4858 0.0
C458 C 0.04072 0.20516 0.4473 0.0
N459 N 0.04795 0.24093 0.44622 0.0
N460 N 0.09979 0.25129 0.45406 0.0
C461 C 0.12996 0.2216 0.45953 0.0
C462 C 0.09199 0.19189 0.45581 0.0
C463 C 0.98928 0.183 0.43935 0.0
H464 H 0.99257 0.18751 0.42704 0.0
H465 H 0.93941 0.1903 0.44358 0.0
H466 H 0.99525 0.15398 0.44152 0.0
O467 O 0.07715 0.29903 0.42053 0.0
O468 O 0.15609 0.32068 0.43541 0.0
H469 H 0.22829 0.24372 0.46191 0.0
H470 H 0.22458 0.19557 0.46186 0.0
C471 C 0.19902 0.22023 0.46568 0.0
H472 H 0.19669 0.21915 0.47814 0.0
H473 H 0.26607 0.31999 0.46147 0.0
O474 O 0.95197 0.24966 0.42029 0.0
C475 C 0.13155 0.31617 0.42219 0.0
Co476 Co 0.65564 0.28481 0.36548 0.0
Co477 Co 0.60794 0.31744 0.33611 0.0
C478 C 0.74269 0.3336 0.34431 0.0
O479 O 0.729 0.31527 0.35612 0.0
O480 O 0.69999 0.33677 0.33376 0.0
C481 C 0.73559 0.2309 0.377 0.0
O482 O 0.75551 0.22771 0.36295 0.0
C483 C 0.57171 0.31738 0.3038 0.0
C484 C 0.46995 0.29613 0.3064 0.0
C485 C 0.52053 0.29998 0.29585 0.0
N486 N 0.55277 0.32134 0.31833 0.0
N487 N 0.49091 0.30975 0.31957 0.0
C488 C 0.63438 0.33358 0.2976 0.0
H489 H 0.64232 0.3603 0.30276 0.0
H490 H 0.67806 0.31722 0.30065 0.0
H491 H 0.6316 0.33656 0.28517 0.0
C492 C 0.6128 0.21835 0.35253 0.0
N493 N 0.61394 0.25429 0.35232 0.0
N494 N 0.61322 0.26595 0.33847 0.0
C495 C 0.61738 0.23708 0.32927 0.0
C496 C 0.61739 0.20617 0.33792 0.0
C497 C 0.60213 0.19593 0.36635 0.0
H498 H 0.5904 0.21293 0.37625 0.0
H499 H 0.64654 0.17945 0.36871 0.0
H500 H 0.56033 0.17702 0.36436 0.0
O501 O 0.59292 0.3144 0.37513 0.0
O502 O 0.56635 0.34579 0.35482 0.0
H503 H 0.65859 0.2145 0.30898 0.0
H504 H 0.66169 0.26257 0.31034 0.0
C505 C 0.6314 0.23861 0.31284 0.0
H506 H 0.58351 0.23955 0.30675 0.0
H507 H 0.46574 0.30716 0.32981 0.0
O508 O 0.69489 0.25527 0.38053 0.0
C509 C 0.56339 0.34057 0.3692 0.0
Co510 Co 0.07608 0.46137 0.36815 0.0
Co511 Co 0.12915 0.43337 0.33822 0.0
C512 C 0.9935 0.41491 0.34559 0.0
O513 O 0.00568 0.43125 0.35794 0.0
O514 O 0.03686 0.41427 0.33506 0.0
C515 C 0.98946 0.51146 0.37875 0.0
O516 O 0.97449 0.51308 0.36436 0.0
C517 C 0.17322 0.439 0.30629 0.0
C518 C 0.28052 0.44616 0.31017 0.0
C519 C 0.23165 0.45156 0.29942 0.0
N520 N 0.18686 0.42916 0.32063 0.0
N521 N 0.25178 0.43201 0.32254 0.0
C522 C 0.10448 0.43963 0.29984 0.0
H523 H 0.06651 0.43849 0.30888 0.0
H524 H 0.09678 0.46367 0.29274 0.0
H525 H 0.0979 0.41582 0.29252 0.0
C526 C 0.12289 0.52967 0.35754 0.0
N527 N 0.11851 0.494 0.35591 0.0
N528 N 0.12563 0.48506 0.34176 0.0
C529 C 0.12919 0.51599 0.33368 0.0
C530 C 0.12717 0.54488 0.34348 0.0
C531 C 0.12695 0.54903 0.3723 0.0
H532 H 0.13531 0.53005 0.38171 0.0
H533 H 0.08096 0.56452 0.37433 0.0
H534 H 0.16851 0.56867 0.3719 0.0
O535 O 0.13864 0.43162 0.37763 0.0
O536 O 0.1661 0.40239 0.35676 0.0
H537 H 0.17219 0.50958 0.31199 0.0
H538 H 0.11756 0.54698 0.31328 0.0
C539 C 0.12515 0.51894 0.31697 0.0
H540 H 0.08275 0.50269 0.31295 0.0
H541 H 0.27546 0.42844 0.33287 0.0
O542 O 0.03149 0.48874 0.38326 0.0
C543 C 0.16764 0.40582 0.37126 0.0
Co544 Co 0.80775 0.03392 0.61573 0.0
Co545 Co 0.89439 0.06769 0.59064 0.0
C546 C 0.74529 0.08309 0.59389 0.0
O547 O 0.73995 0.06073 0.60458 0.0
O548 O 0.80173 0.08946 0.58777 0.0
C549 C 0.71392 0.9862 0.62696 0.0
O550 O 0.69377 0.98515 0.61289 0.0
C551 C 0.92173 0.06067 0.55861 0.0
C552 C 0.02887 0.07204 0.55689 0.0
C553 C 0.9762 0.05699 0.54891 0.0
N554 N 0.94226 0.07497 0.57179 0.0
N555 N 0.00609 0.08288 0.57046 0.0
C556 C 0.85145 0.049 0.55587 0.0
H557 H 0.81664 0.0683 0.56105 0.0
H558 H 0.84258 0.02255 0.5612 0.0
H559 H 0.84071 0.04738 0.54363 0.0
C560 C 0.86006 0.9665 0.60399 0.0
N561 N 0.85517 0.00242 0.60381 0.0
N562 N 0.89322 0.01565 0.59309 0.0
C563 C 0.92362 0.9877 0.58613 0.0
C564 C 0.90088 0.9561 0.59244 0.0
C565 C 0.83446 0.94195 0.61608 0.0
H566 H 0.83667 0.95519 0.62721 0.0
H567 H 0.78293 0.93357 0.61339 0.0
H568 H 0.8648 0.91725 0.61672 0.0
O569 O 0.86765 0.06585 0.62657 0.0
O570 O 0.93424 0.09212 0.60979 0.0
H571 H 0.00946 0.01433 0.57711 0.0
H572 H 0.01136 0.96647 0.57544 0.0
C573 C 0.97885 0.99028 0.57494 0.0
H574 H 0.9576 0.99093 0.56354 0.0
H575 H 0.03551 0.0924 0.57927 0.0
O576 O 0.76129 0.00678 0.63064 0.0
C577 C 0.91517 0.08715 0.62351 0.0
Co578 Co 0.44121 0.21563 0.61676 0.0
Co579 Co 0.3635 0.18814 0.58908 0.0
C580 C 0.50573 0.16783 0.59319 0.0
O581 O 0.5069 0.18719 0.60499 0.0
O582 O 0.45257 0.1644 0.58545 0.0
C583 C 0.53476 0.26362 0.62711 0.0
O584 O 0.54861 0.26652 0.61269 0.0
C585 C 0.32562 0.18857 0.55664 0.0
C586 C 0.21868 0.20026 0.55856 0.0
C587 C 0.27056 0.19972 0.54821 0.0
N588 N 0.30726 0.18481 0.57124 0.0
N589 N 0.24271 0.19082 0.57214 0.0
C590 C 0.39398 0.18012 0.55098 0.0
H591 H 0.43034 0.20006 0.5552 0.0
H592 H 0.39545 0.17913 0.53849 0.0
H593 H 0.40937 0.15376 0.55551 0.0
C594 C 0.39753 0.28499 0.6067 0.0
N595 N 0.39685 0.24916 0.6055 0.0
N596 N 0.3752 0.23952 0.5922 0.0
C597 C 0.36597 0.26989 0.58408 0.0
C598 C 0.38151 0.29932 0.59293 0.0
C599 C 0.40334 0.30539 0.6212 0.0
H600 H 0.39622 0.28742 0.63103 0.0
H601 H 0.45231 0.31892 0.62194 0.0
H602 H 0.36514 0.32673 0.62157 0.0
O603 O 0.37917 0.18559 0.62704 0.0
O604 O 0.32007 0.16277 0.60816 0.0
H605 H 0.29875 0.261 0.56602 0.0
H606 H 0.35386 0.29853 0.5631 0.0
C607 C 0.34992 0.27108 0.56779 0.0
H608 H 0.3859 0.25381 0.56197 0.0
H609 H 0.21612 0.19155 0.58224 0.0
O610 O 0.4908 0.24155 0.63149 0.0
C611 C 0.33285 0.16545 0.62238 0.0
Co612 Co 0.7985 0.22389 0.68416 0.0
Co613 Co 0.8838 0.19171 0.70964 0.0
C614 C 0.73605 0.17417 0.70645 0.0
O615 O 0.73214 0.19554 0.69539 0.0
O616 O 0.79167 0.16893 0.71303 0.0
C617 C 0.70125 0.27054 0.67445 0.0
O618 O 0.68523 0.27082 0.68882 0.0
C619 C 0.9147 0.19798 0.74142 0.0
C620 C 0.0227 0.18854 0.74215 0.0
C621 C 0.97034 0.20196 0.75067 0.0
N622 N 0.934 0.18436 0.72803 0.0
N623 N -0.00169 0.17752 0.72876 0.0
C624 C 0.8466 0.21294 0.74411 0.0
H625 H 0.82154 0.2189 0.73329 0.0
H626 H 0.84857 0.23751 0.75109 0.0
H627 H 0.81624 0.19268 0.75018 0.0
C628 C 0.84892 0.29189 0.69552 0.0
N629 N 0.84493 0.25597 0.69606 0.0
N630 N 0.88073 0.24383 0.70732 0.0
C631 C 0.90783 0.27268 0.71445 0.0
C632 C 0.88604 0.3035 0.70746 0.0
C633 C 0.82646 0.31521 0.68278 0.0
H634 H 0.82877 0.30054 0.67197 0.0
H635 H 0.77535 0.32481 0.68503 0.0
H636 H 0.85875 0.33929 0.68177 0.0
O637 O 0.85953 0.19348 0.67301 0.0
O638 O 0.92402 0.16799 0.69027 0.0
H639 H 0.99223 0.24902 0.72512 0.0
H640 H 0.98877 0.29679 0.72676 0.0
C641 C 0.95849 0.27193 0.72671 0.0
H642 H 0.93305 0.27057 0.73775 0.0
H643 H 0.02684 0.16896 0.71962 0.0
O644 O 0.7483 0.25089 0.66987 0.0
C645 C 0.90681 0.17259 0.67641 0.0
Co646 Co 0.44738 0.03363 0.68306 0.0
Co647 Co 0.35545 0.06229 0.70791 0.0
C648 C 0.49965 0.08583 0.70585 0.0
O649 O 0.50746 0.06463 0.69483 0.0
O650 O 0.44277 0.08913 0.71218 0.0
C651 C 0.54979 0.98843 0.67476 0.0
O652 O 0.56161 0.98743 0.68931 0.0
C653 C 0.31196 0.05968 0.73926 0.0
C654 C 0.20293 0.05749 0.73685 0.0
C655 C 0.25357 0.0514 0.74714 0.0
N656 N 0.2962 0.0684 0.72496 0.0
N657 N 0.23073 0.06845 0.72379 0.0
C658 C 0.38215 0.05345 0.74427 0.0
H659 H 0.4135 0.04523 0.73459 0.0
H660 H 0.38502 0.03286 0.75323 0.0
H661 H 0.40265 0.07889 0.74878 0.0
C662 C 0.40375 0.96405 0.69373 0.0
N663 N 0.40281 0.99995 0.69453 0.0
N664 N 0.36863 0.0103 0.70636 0.0
C665 C 0.34954 0.98017 0.71393 0.0
C666 C 0.37317 0.95044 0.70629 0.0
C667 C 0.42327 0.94247 0.68019 0.0
H668 H 0.42094 0.95879 0.66979 0.0
H669 H 0.47384 0.93145 0.68178 0.0
H670 H 0.38914 0.91924 0.67886 0.0
O671 O 0.38564 0.06062 0.67101 0.0
O672 O 0.31555 0.08323 0.68785 0.0
H673 H 0.2634 0.99548 0.7263 0.0
H674 H 0.29161 0.95113 0.73056 0.0
C675 C 0.30794 0.97872 0.72785 0.0
H676 H 0.3375 0.98804 0.73755 0.0
H677 H 0.20531 0.07206 0.71367 0.0
O678 O 0.50386 0.00805 0.66965 0.0
C679 C 0.3347 0.0791 0.67409 0.0
Co680 Co 0.21743 0.9555 0.43764 0.0
Co681 Co 0.10996 0.92959 0.45949 0.0
C682 C 0.25798 0.90309 0.45894 0.0
O683 O 0.2742 0.92392 0.44827 0.0
O684 O 0.19824 0.90197 0.46417 0.0
C685 C 0.32063 0.99419 0.42273 0.0
O686 O 0.36099 0.98544 0.43373 0.0
C687 C 0.07208 0.9482 0.48977 0.0
C688 C 0.96285 0.94451 0.48942 0.0
C689 C 0.01533 0.9588 0.49767 0.0
N690 N 0.05369 0.93035 0.47723 0.0
N691 N 0.98818 0.92752 0.47728 0.0
C692 C 0.14333 0.95463 0.49386 0.0
H693 H 0.17304 0.93056 0.49113 0.0
H694 H 0.16368 0.97703 0.48704 0.0
H695 H 0.14862 0.96075 0.50603 0.0
C696 C 0.1913 0.02412 0.45135 0.0
N697 N 0.18165 0.98865 0.4505 0.0
N698 N 0.12431 0.98008 0.45644 0.0
C699 C 0.09252 0.01078 0.46014 0.0
C700 C 0.13451 0.03955 0.45701 0.0
C701 C 0.25531 0.04305 0.44788 0.0
H702 H 0.29776 0.02608 0.45122 0.0
H703 H 0.25865 0.06877 0.45409 0.0
H704 H 0.25835 0.04906 0.43568 0.0
O705 O 0.1505 0.92848 0.42589 0.0
O706 O 0.06974 0.90711 0.4404 0.0
H707 H -0.00252 0.03658 0.45908 0.0
H708 H 0.01741 0.01738 0.47693 0.0
C709 C 0.021 0.0132 0.46461 0.0
H710 H 0.99388 0.98849 0.46141 0.0
H711 H 0.96044 0.91707 0.46838 0.0
O712 O 0.262 0.98221 0.42253 0.0
C713 C 0.09662 0.91093 0.42737 0.0
Co714 Co 0.57041 0.78702 0.42888 0.0
Co715 Co 0.6435 0.81635 0.45652 0.0
C716 C 0.49939 0.82612 0.45497 0.0
O717 O 0.50121 0.80874 0.44258 0.0
O718 O 0.55273 0.83283 0.46223 0.0
C719 C 0.48543 0.7341 0.41815 0.0
O720 O 0.47192 0.72932 0.4325 0.0
C721 C 0.68888 0.81424 0.4882 0.0
C722 C 0.78879 0.79194 0.4845 0.0
C723 C 0.74082 0.79648 0.49559 0.0
N724 N 0.70457 0.81783 0.47345 0.0
N725 N 0.76543 0.80551 0.47152 0.0
C726 C 0.627 0.82954 0.49503 0.0
H727 H 0.61822 0.85656 0.49026 0.0
H728 H 0.58314 0.81297 0.49207 0.0
H729 H 0.63136 0.83156 0.50746 0.0
C730 C 0.62531 0.72037 0.43756 0.0
N731 N 0.62701 0.75619 0.43864 0.0
N732 N 0.63782 0.76566 0.45259 0.0
C733 C 0.63739 0.73564 0.46114 0.0
C734 C 0.62935 0.70613 0.45185 0.0
C735 C 0.62705 0.70004 0.42301 0.0
H736 H 0.63348 0.7185 0.41331 0.0
H737 H 0.58117 0.68393 0.42156 0.0
H738 H 0.66907 0.68089 0.42324 0.0
O739 O 0.6202 0.82283 0.41856 0.0
O740 O 0.67644 0.84702 0.43758 0.0
H741 H 0.68217 0.73642 0.48275 0.0
H742 H 0.60686 0.71052 0.48195 0.0
C743 C 0.63168 0.73526 0.47783 0.0
H744 H 0.6023 0.75859 0.48146 0.0
H745 H 0.78818 0.80266 0.46101 0.0
O746 O 0.52454 0.75902 0.41413 0.0
C747 C 0.66166 0.84555 0.42342 0.0
Co748 Co 0.2091 0.77979 0.3641 0.0
Co749 Co 0.11497 0.80896 0.33971 0.0
C750 C 0.26208 0.82935 0.34046 0.0
O751 O 0.26972 0.80907 0.35177 0.0
O752 O 0.20467 0.83298 0.33447 0.0
C753 C 0.31295 0.73596 0.37202 0.0
O754 O 0.32336 0.73584 0.3574 0.0
C755 C 0.0705 0.80057 0.30876 0.0
C756 C 0.96242 0.80907 0.31052 0.0
C757 C 0.01105 0.79555 0.30096 0.0
N758 N 0.05705 0.81465 0.32243 0.0
N759 N 0.99251 0.82091 0.32317 0.0
C760 C 0.13761 0.78658 0.30441 0.0
H761 H 0.16942 0.78307 0.31449 0.0
H762 H 0.13346 0.76084 0.29827 0.0
H763 H 0.16203 0.8062 0.2968 0.0
C764 C 0.16029 0.71 0.35401 0.0
N765 N 0.16196 0.74598 0.35312 0.0
N766 N 0.12158 0.75694 0.34246 0.0
C767 C 0.09327 0.7273 0.33617 0.0
C768 C 0.11924 0.69713 0.34297 0.0
C769 C 0.18922 0.68771 0.36641 0.0
H770 H 0.18994 0.70273 0.37715 0.0
H771 H 0.24005 0.67919 0.36322 0.0
H772 H 0.15937 0.66299 0.36818 0.0
O773 O 0.1492 0.80939 0.3761 0.0
O774 O 0.07987 0.83331 0.35941 0.0
H775 H 0.00357 0.74941 0.32729 0.0
H776 H 0.00817 0.70156 0.32609 0.0
C777 C 0.03731 0.72673 0.32516 0.0
H778 H 0.05749 0.72772 0.31358 0.0
H779 H 0.96806 0.82977 0.33285 0.0
O780 O 0.2661 0.75443 0.37752 0.0
C781 C 0.10039 0.8296 0.37307 0.0
Co782 Co 0.53797 0.97947 0.35862 0.0
Co783 Co 0.63959 0.94522 0.3374 0.0
C784 C 0.49031 0.92345 0.33825 0.0
O785 O 0.47755 0.94774 0.34778 0.0
O786 O 0.54993 0.91876 0.33348 0.0
C787 C 0.43188 0.02288 0.36928 0.0
O788 O 0.40325 0.01849 0.35611 0.0
C789 C 0.68463 0.95124 0.30662 0.0
C790 C 0.7917 0.93971 0.30811 0.0
C791 C 0.74416 0.95453 0.29867 0.0
N792 N 0.69697 0.93673 0.32023 0.0
N793 N 0.76083 0.92867 0.32084 0.0
C794 C 0.61932 0.96771 0.30251 0.0
H795 H 0.58402 0.96674 0.31211 0.0
H796 H 0.62649 0.99584 0.29882 0.0
H797 H 0.59733 0.95267 0.29296 0.0
C798 C 0.58117 0.04632 0.34431 0.0
N799 N 0.5833 0.01054 0.346 0.0
N800 N 0.63203 0.99734 0.33789 0.0
C801 C 0.66437 0.02527 0.33125 0.0
C802 C 0.63084 0.05655 0.33455 0.0
C803 C 0.53815 0.07138 0.35317 0.0
H804 H 0.54149 0.06498 0.3653 0.0
H805 H 0.48615 0.06897 0.34923 0.0
H806 H 0.55349 0.09973 0.35179 0.0
O807 O 0.59862 0.95215 0.37187 0.0
O808 O 0.67567 0.92643 0.3577 0.0
H809 H 0.75738 0.99919 0.32678 0.0
H810 H 0.76098 0.04731 0.32658 0.0
C811 C 0.73027 0.02365 0.32354 0.0
H812 H 0.7225 0.02483 0.31122 0.0
H813 H 0.78464 0.91929 0.33048 0.0
O814 O 0.48636 0.0075 0.37209 0.0
C815 C 0.6502 0.93276 0.37071 0.0
Co816 Co 0.797 0.5326 0.11644 0.0
Co817 Co 0.88535 0.56256 0.09081 0.0
C818 C 0.73887 0.58083 0.09282 0.0
O819 O 0.73395 0.56068 0.1043 0.0
O820 O 0.795 0.58554 0.08626 0.0
C821 C 0.69878 0.4851 0.12593 0.0
O822 O 0.68478 0.483 0.1115 0.0
C823 C 0.92841 0.55812 0.05929 0.0
C824 C 0.0375 0.5603 0.06146 0.0
C825 C 0.98728 0.5512 0.05143 0.0
N826 N 0.94352 0.56886 0.07341 0.0
N827 N 0.00893 0.57146 0.07439 0.0
C828 C 0.85904 0.54896 0.05444 0.0
H829 H 0.82893 0.54002 0.06424 0.0
H830 H 0.85849 0.52794 0.04563 0.0
H831 H 0.83557 0.57333 0.04975 0.0
C832 C 0.84474 0.46392 0.10618 0.0
N833 N 0.84391 0.4998 0.10524 0.0
N834 N 0.87697 0.51052 0.09326 0.0
C835 C 0.89754 0.48059 0.08587 0.0
C836 C 0.87534 0.45072 0.09361 0.0
C837 C 0.82713 0.44215 0.11982 0.0
H838 H 0.83005 0.45866 0.13014 0.0
H839 H 0.77686 0.43032 0.11849 0.0
H840 H 0.86215 0.41944 0.12102 0.0
O841 O 0.85641 0.56266 0.12787 0.0
O842 O 0.92278 0.58687 0.11054 0.0
H843 H 0.98262 0.49889 0.07396 0.0
H844 H 0.96416 0.45247 0.07098 0.0
C845 C 0.94193 0.47934 0.07245 0.0
H846 H 0.91296 0.48511 0.06218 0.0
H847 H 0.0343 0.57711 0.08436 0.0
O848 O 0.74387 0.50625 0.13046 0.0
C849 C 0.90447 0.58314 0.1244 0.0
Co850 Co 0.44809 0.71907 0.11334 0.0
Co851 Co 0.35424 0.68773 0.08922 0.0
C852 C 0.50241 0.66722 0.09164 0.0
O853 O 0.51105 0.68933 0.10228 0.0
O854 O 0.44487 0.66287 0.08573 0.0
C855 C 0.55099 0.76148 0.12406 0.0
O856 O 0.57278 0.75911 0.11013 0.0
C857 C 0.3208 0.69862 0.0577 0.0
C858 C 0.21432 0.68513 0.05661 0.0
C859 C 0.26492 0.70186 0.04849 0.0
N860 N 0.30316 0.68251 0.07075 0.0
N861 N 0.23967 0.67357 0.06982 0.0
C862 C 0.38974 0.71202 0.05454 0.0
H863 H 0.42676 0.69429 0.05992 0.0
H864 H 0.39625 0.73916 0.05936 0.0
H865 H 0.39932 0.71319 0.04223 0.0
C866 C 0.40656 0.7878 0.10056 0.0
N867 N 0.40557 0.75179 0.10109 0.0
N868 N 0.36122 0.73939 0.09157 0.0
C869 C 0.33076 0.76783 0.08506 0.0
C870 C 0.36168 0.79889 0.08992 0.0
C871 C 0.44193 0.81209 0.11137 0.0
H872 H 0.43817 0.80142 0.12298 0.0
H873 H 0.49471 0.8149 0.10795 0.0
H874 H 0.41996 0.83928 0.11144 0.0
O875 O 0.38355 0.6902 0.12473 0.0
O876 O 0.31261 0.66551 0.10856 0.0
H877 H 0.23975 0.74133 0.07883 0.0
H878 H 0.23476 0.7892 0.07957 0.0
C879 C 0.26708 0.76643 0.07645 0.0
H880 H 0.27766 0.76908 0.06432 0.0
H881 H 0.21222 0.66248 0.07867 0.0
O882 O 0.4985 0.745 0.12789 0.0
C883 C 0.33313 0.67052 0.12213 0.0
Co884 Co 0.79862 0.72149 0.18464 0.0
Co885 Co 0.88114 0.68876 0.21029 0.0
C886 C 0.73363 0.67256 0.20708 0.0
O887 O 0.73093 0.6939 0.19596 0.0
O888 O 0.78879 0.66665 0.21376 0.0
C889 C 0.70509 0.77016 0.17371 0.0
O890 O 0.68574 0.77255 0.18783 0.0
C891 C 0.91681 0.69095 0.24208 0.0
C892 C 0.02569 0.68486 0.24119 0.0
C893 C 0.97439 0.69549 0.2507 0.0
N894 N 0.93413 0.68003 0.22812 0.0
N895 N -0.00091 0.67505 0.22788 0.0
C896 C 0.8476 0.70254 0.24603 0.0
H897 H 0.82085 0.71151 0.2358 0.0
H898 H 0.84748 0.72432 0.2545 0.0
H899 H 0.82015 0.67933 0.2508 0.0
C900 C 0.85048 0.78903 0.19582 0.0
N901 N 0.84621 0.75316 0.19647 0.0
N902 N 0.8778 0.74122 0.20839 0.0
C903 C 0.90102 0.77034 0.21605 0.0
C904 C 0.8822 0.80112 0.20848 0.0
C905 C 0.83382 0.81177 0.18245 0.0
H906 H 0.8374 0.79609 0.17191 0.0
H907 H 0.78336 0.82311 0.18382 0.0
H908 H 0.86886 0.83475 0.1816 0.0
O909 O 0.85777 0.69083 0.17341 0.0
O910 O 0.92088 0.66498 0.19074 0.0
H911 H 0.982 0.74936 0.22871 0.0
H912 H 0.96699 0.79594 0.23202 0.0
C913 C 0.94283 0.76977 0.22991 0.0
H914 H 0.91114 0.76425 0.23981 0.0
H915 H 0.0261 0.66874 0.2182 0.0
O916 O 0.751 0.74875 0.17009 0.0
C917 C 0.90448 0.66975 0.17686 0.0
Co918 Co 0.43556 0.53968 0.18322 0.0
Co919 Co 0.34644 0.56733 0.20894 0.0
C920 C 0.49269 0.58802 0.20673 0.0
O921 O 0.49876 0.56784 0.19533 0.0
O922 O 0.43632 0.59168 0.21326 0.0
C923 C 0.53325 0.49386 0.17333 0.0
O924 O 0.54609 0.4911 0.18779 0.0
C925 C 0.30857 0.56023 0.24052 0.0
C926 C 0.19917 0.56246 0.23952 0.0
C927 C 0.25128 0.55286 0.24891 0.0
N928 N 0.29079 0.57212 0.22675 0.0
N929 N 0.22528 0.57467 0.22645 0.0
C930 C 0.37847 0.55 0.2444 0.0
H931 H 0.40621 0.54219 0.23412 0.0
H932 H 0.37978 0.52781 0.25269 0.0
H933 H 0.40396 0.57354 0.2494 0.0
C934 C 0.38689 0.46978 0.19263 0.0
N935 N 0.38911 0.50558 0.19411 0.0
N936 N 0.35468 0.51547 0.20599 0.0
C937 C 0.33174 0.48508 0.21279 0.0
C938 C 0.3535 0.45574 0.20471 0.0
C939 C 0.40687 0.44885 0.17895 0.0
H940 H 0.40579 0.46577 0.16871 0.0
H941 H 0.45692 0.43725 0.18066 0.0
H942 H 0.37221 0.426 0.17721 0.0
O943 O 0.3751 0.56962 0.17218 0.0
O944 O 0.30707 0.59193 0.18957 0.0
H945 H 0.24607 0.50277 0.2248 0.0
H946 H 0.26317 0.45604 0.22706 0.0
C947 C 0.2862 0.48295 0.22604 0.0
H948 H 0.31478 0.4877 0.23647 0.0
H949 H 0.19806 0.581 0.21683 0.0
O950 O 0.48839 0.51493 0.16883 0.0
C951 C 0.3259 0.58894 0.17573 0.0
Co952 Co 0.18774 0.47415 0.93244 0.0
Co953 Co 0.11148 0.44368 0.95963 0.0
C954 C 0.25391 0.42493 0.95546 0.0
O955 O 0.25414 0.44535 0.94396 0.0
O956 O 0.20066 0.41991 0.96309 0.0
C957 C 0.28005 0.52528 0.92326 0.0
O958 O 0.29295 0.52749 0.93774 0.0
C959 C 0.06661 0.44475 0.99148 0.0
C960 C 0.95953 0.45379 0.98807 0.0
C961 C 0.00879 0.45596 0.99897 0.0
N962 N 0.05204 0.43833 0.97686 0.0
N963 N 0.98731 0.44235 0.97513 0.0
C964 C 0.13611 0.44429 0.99753 0.0
H965 H 0.17283 0.44749 0.98831 0.0
H966 H 0.14402 0.46557 1.00604 0.0
H967 H 0.14497 0.41806 1.00301 0.0
C968 C 0.13976 0.5417 0.94308 0.0
N969 N 0.14057 0.50589 0.94409 0.0
N970 N 0.12282 0.49557 0.95762 0.0
C971 C 0.11562 0.52567 0.96611 0.0
C972 C 0.12694 0.55551 0.95711 0.0
C973 C 0.14244 0.56244 0.92862 0.0
H974 H 0.13609 0.54445 0.91879 0.0
H975 H 0.19006 0.5773 0.92769 0.0
H976 H 0.10225 0.58272 0.92855 0.0
O977 O 0.12824 0.44434 0.9213 0.0
O978 O 0.06982 0.41984 0.93995 0.0
H979 H 0.10984 0.55416 0.98732 0.0
H980 H 0.14429 0.51049 0.98817 0.0
C981 C 0.10554 0.52668 0.98274 0.0
H982 H 0.05544 0.51628 0.98542 0.0
H983 H 0.96326 0.44127 0.96474 0.0
O984 O 0.23793 0.50263 0.91851 0.0
C985 C 0.0826 0.42341 0.92575 0.0
Co986 Co 0.54308 0.28839 0.93148 0.0
Co987 Co 0.63449 0.31389 0.95732 0.0
C988 C 0.4907 0.33804 0.95503 0.0
O989 O 0.48287 0.31809 0.94361 0.0
O990 O 0.54712 0.34032 0.96159 0.0
C991 C 0.44187 0.24438 0.9222 0.0
O992 O 0.43029 0.24214 0.93675 0.0
C993 C 0.6707 0.30901 0.98932 0.0
C994 C 0.77853 0.30008 0.98784 0.0
C995 C 0.7249 0.29615 0.99766 0.0
N996 N 0.69099 0.31682 0.97515 0.0
N997 N 0.75613 0.31283 0.97459 0.0
C998 C 0.60044 0.3141 0.99442 0.0
H999 H 0.58165 0.33991 0.99002 0.0
H1000 H 0.56851 0.29264 0.98965 0.0
H1001 H 0.59679 0.31455 1.00689 0.0
C1002 C 0.58532 0.21742 0.94067 0.0
N1003 N 0.58598 0.25325 0.94224 0.0
N1004 N 0.62078 0.26237 0.95415 0.0
C1005 C 0.64096 0.23153 0.96085 0.0
C1006 C 0.61711 0.20263 0.95275 0.0
C1007 C 0.56508 0.19716 0.92683 0.0
H1008 H 0.56757 0.21443 0.9167 0.0
H1009 H 0.51434 0.18601 0.92836 0.0
H1010 H 0.59869 0.17404 0.92502 0.0
O1011 O 0.60674 0.31677 0.9205 0.0
O1012 O 0.67647 0.33749 0.9379 0.0
H1013 H 0.73096 0.24227 0.97254 0.0
H1014 H 0.69195 0.20067 0.9779 0.0
C1015 C 0.68272 0.22879 0.97457 0.0
H1016 H 0.65584 0.24165 0.98378 0.0
H1017 H 0.78432 0.31515 0.96475 0.0
O1018 O 0.48761 0.26471 0.91731 0.0
C1019 C 0.65766 0.33498 0.92405 0.0
Co1020 Co 0.1786 0.28361 0.86581 0.0
Co1021 Co 0.09145 0.31542 0.8407 0.0
C1022 C 0.23905 0.33341 0.84329 0.0
O1023 O 0.24409 0.31191 0.85429 0.0
O1024 O 0.1829 0.33864 0.83695 0.0
C1025 C 0.27464 0.2361 0.87545 0.0
O1026 O 0.2903 0.23488 0.86107 0.0
C1027 C 0.05576 0.30915 0.80907 0.0
C1028 C 0.9476 0.31805 0.8094 0.0
C1029 C -0.00161 0.30451 0.80043 0.0
N1030 N 0.03879 0.32275 0.82264 0.0
N1031 N 0.97432 0.32933 0.82251 0.0
C1032 C 0.12401 0.29541 0.80555 0.0
H1033 H 0.15254 0.29077 0.81604 0.0
H1034 H 0.12199 0.27037 0.79888 0.0
H1035 H 0.15086 0.31579 0.79874 0.0
C1036 C 0.12959 0.21537 0.85462 0.0
N1037 N 0.13158 0.25133 0.85419 0.0
N1038 N 0.0962 0.26312 0.84281 0.0
C1039 C 0.07181 0.2339 0.83543 0.0
C1040 C 0.09527 0.20331 0.84234 0.0
C1041 C 0.14973 0.19223 0.86762 0.0
H1042 H 0.14708 0.20726 0.87834 0.0
H1043 H 0.2004 0.18162 0.8657 0.0
H1044 H 0.11603 0.16869 0.86856 0.0
O1045 O 0.11921 0.31385 0.87725 0.0
O1046 O 0.05288 0.33918 0.86037 0.0
H1047 H 0.99082 0.20877 0.82357 0.0
H1048 H 0.04499 0.23505 0.81219 0.0
C1049 C 0.02046 0.23386 0.82333 0.0
H1050 H 0.98608 0.25647 0.82496 0.0
H1051 H 0.94739 0.33788 0.8319 0.0
O1052 O 0.22905 0.25678 0.87994 0.0
C1053 C 0.07146 0.33459 0.87414 0.0
Co1054 Co 0.54074 0.46863 0.86666 0.0
Co1055 Co 0.62024 0.44172 0.83921 0.0
C1056 C 0.47939 0.41895 0.84293 0.0
O1057 O 0.47744 0.43855 0.85467 0.0
O1058 O 0.53294 0.41595 0.83521 0.0
C1059 C 0.44616 0.51673 0.87634 0.0
O1060 O 0.43402 0.51954 0.86185 0.0
C1061 C 0.6666 0.44363 0.80733 0.0
C1062 C 0.76703 0.46567 0.81102 0.0
C1063 C 0.71949 0.46096 0.79986 0.0
N1064 N 0.68131 0.44081 0.82214 0.0
N1065 N 0.74252 0.45285 0.82406 0.0
C1066 C 0.60463 0.42807 0.80061 0.0
H1067 H 0.59541 0.40121 0.80556 0.0
H1068 H 0.56098 0.44468 0.80354 0.0
H1069 H 0.60918 0.42552 0.78819 0.0
C1070 C 0.58342 0.53838 0.85625 0.0
N1071 N 0.58471 0.5025 0.85531 0.0
N1072 N 0.60396 0.49259 0.84186 0.0
C1073 C 0.60983 0.52257 0.83334 0.0
C1074 C 0.59683 0.55224 0.84221 0.0
C1075 C 0.57746 0.55933 0.87059 0.0
H1076 H 0.58339 0.54173 0.88055 0.0
H1077 H 0.52881 0.57308 0.87107 0.0
H1078 H 0.61633 0.58052 0.87086 0.0
O1079 O 0.60357 0.44034 0.87735 0.0
O1080 O 0.6643 0.41846 0.85856 0.0
H1081 H 0.67023 0.52069 0.81372 0.0
H1082 H 0.59817 0.54841 0.81178 0.0
C1083 C 0.61702 0.52311 0.8167 0.0
H1084 H 0.588 0.50065 0.81206 0.0
H1085 H 0.76498 0.45587 0.83458 0.0
O1086 O 0.48893 0.49456 0.88099 0.0
C1087 C 0.65153 0.42141 0.87277 0.0
C1088 C 0.46156 0.02968 1.02101 0.0
C1089 C 0.49551 0.02283 0.03454 0.0
C1090 C 0.46365 0.00538 1.0089 0.0
C1091 C 0.50085 0.97353 1.00968 0.0
H1092 H 0.43323 0.05404 1.01973 0.0
H1093 H 0.43685 0.012 0.99872 0.0
S1094 S 0.59696 0.94196 0.04257 0.0
N1095 N 0.56645 0.98082 0.04799 0.0
N1096 N 0.57059 0.93589 0.02516 0.0
C1097 C 0.53503 0.9663 1.02306 0.0
C1098 C 0.53267 0.99083 0.03544 0.0
C1099 C 0.78917 0.27087 1.01939 0.0
C1100 C 0.72808 0.27317 1.01168 0.0
C1101 C 0.79928 0.24655 0.03126 0.0
C1102 C 0.74876 0.22292 0.03616 0.0
H1103 H 0.83034 0.28805 1.01615 0.0
H1104 H 0.84706 0.2472 0.03672 0.0
S1105 S 0.58004 0.21537 1.01958 0.0
N1106 N 0.61633 0.24756 1.00984 0.0
N1107 N 0.63581 0.2024 0.03198 0.0
C1108 C 0.68757 0.22451 0.02854 0.0
C1109 C 0.67699 0.2494 1.01643 0.0
C1110 C 0.45268 0.24795 0.26229 0.0
C1111 C 0.50841 0.23048 0.25613 0.0
C1112 C 0.45851 0.27174 0.27447 0.0
C1113 C 0.52032 0.27964 0.2812 0.0
H1114 H 0.40379 0.24415 0.25759 0.0
H1115 H 0.41347 0.28385 0.27878 0.0
S1116 S 0.68238 0.24052 0.26946 0.0
N1117 N 0.62789 0.22257 0.25781 0.0
N1118 N 0.63914 0.26717 0.28053 0.0
C1119 C 0.57682 0.26262 0.27504 0.0
C1120 C 0.5707 0.23812 0.26265 0.0
C1121 C 0.71507 0.9795 0.27319 0.0
C1122 C 0.7574 0.97933 0.28576 0.0
C1123 C 0.72241 0.00504 0.26167 0.0
C1124 C 0.77248 0.03158 0.26219 0.0
H1125 H 0.6759 0.95969 0.2722 0.0
H1126 H 0.68905 0.00355 0.25213 0.0
S1127 S 0.8942 0.04418 0.29305 0.0
N1128 N 0.85077 0.00857 0.29816 0.0
N1129 N 0.86304 0.05705 0.27674 0.0
C1130 C 0.81491 0.03189 0.27473 0.0
C1131 C 0.808 0.00558 0.2864 0.0
C1132 C 0.27558 0.78147 1.02116 0.0
C1133 C 0.22634 0.77385 1.01038 0.0
C1134 C 0.28932 0.75789 0.03309 0.0
C1135 C 0.25461 0.72523 0.0349 0.0
H1136 H 0.30392 0.80614 1.02042 0.0
H1137 H 0.32665 0.76618 0.04108 0.0
S1138 S 0.12627 0.68968 1.00887 0.0
N1139 N 0.14683 0.72888 1.00166 0.0
N1140 N 0.17152 0.68549 0.02424 0.0
C1141 C 0.2061 0.71683 0.02406 0.0
C1142 C 0.19226 0.74076 1.0118 0.0
C1143 C 0.44658 0.75001 0.78443 0.0
C1144 C 0.49596 0.77693 0.78399 0.0
C1145 C 0.44204 0.72369 0.77313 0.0
C1146 C 0.48634 0.72333 0.76083 0.0
H1147 H 0.41206 0.74873 0.79381 0.0
H1148 H 0.40354 0.70344 0.77403 0.0
S1149 S 0.62147 0.78958 0.7538 0.0
N1150 N 0.58748 0.80273 0.76979 0.0
N1151 N 0.5801 0.7533 0.74873 0.0
C1152 C 0.53568 0.75032 0.76023 0.0
C1153 C 0.53995 0.77717 0.77169 0.0
C1154 C 0.20378 0.97205 0.77196 0.0
C1155 C 0.23816 0.97833 0.78548 0.0
C1156 C 0.20788 0.99626 0.75983 0.0
C1157 C 0.24693 0.0277 0.76064 0.0
H1158 H 0.17359 0.94817 0.77071 0.0
H1159 H 0.1811 0.98988 0.7496 0.0
S1160 S 0.344 0.05787 0.79373 0.0
N1161 N 0.31178 0.01912 0.79899 0.0
N1162 N 0.31782 0.0646 0.77635 0.0
C1163 C 0.28097 0.03451 0.77411 0.0
C1164 C 0.27731 0.00978 0.78643 0.0
C1165 C 0.45445 0.47765 0.51843 0.0
C1166 C 0.50328 0.48619 0.50763 0.0
C1167 C 0.4429 0.49959 0.53102 0.0
C1168 C 0.47942 0.53143 0.53345 0.0
H1169 H 0.42501 0.45348 0.51721 0.0
H1170 H 0.40585 0.49064 0.53899 0.0
S1171 S 0.60714 0.56905 0.50762 0.0
N1172 N 0.58412 0.53124 0.49956 0.0
N1173 N 0.56335 0.57163 0.52332 0.0
C1174 C 0.52725 0.54084 0.52254 0.0
C1175 C 0.53891 0.51858 0.50965 0.0
C1176 C 0.80448 0.77083 0.51731 0.0
C1177 C 0.74255 0.77659 0.51032 0.0
C1178 C 0.81114 0.74822 0.52989 0.0
C1179 C 0.75626 0.72964 0.53604 0.0
H1180 H 0.84872 0.78392 0.51295 0.0
H1181 H 0.85976 0.74617 0.53492 0.0
S1182 S 0.58305 0.73333 0.52177 0.0
N1183 N 0.625 0.76052 0.51058 0.0
N1184 N 0.63788 0.7179 0.5339 0.0
C1185 C 0.69408 0.73487 0.52914 0.0
C1186 C 0.68707 0.75828 0.51642 0.0
C1187 C 0.79344 0.51162 0.76639 0.0
C1188 C 0.73902 0.5296 0.75994 0.0
C1189 C 0.78539 0.48823 0.7787 0.0
C1190 C 0.72252 0.4811 0.78516 0.0
H1191 H 0.84287 0.51474 0.76181 0.0
H1192 H 0.8294 0.47572 0.78329 0.0
S1193 S 0.56336 0.52191 0.77256 0.0
N1194 N 0.61983 0.53903 0.76112 0.0
N1195 N 0.60435 0.49494 0.78388 0.0
C1196 C 0.66744 0.49869 0.77869 0.0
C1197 C 0.67585 0.52288 0.76625 0.0
C1198 C 0.20693 0.21346 0.52468 0.0
C1199 C 0.26604 0.21724 0.533 0.0
C1200 C 0.19413 0.23438 0.51184 0.0
C1201 C 0.23859 0.26137 0.50695 0.0
H1202 H 0.16949 0.19429 0.52825 0.0
H1203 H 0.14905 0.22866 0.50576 0.0
S1204 S 0.40348 0.28082 0.52395 0.0
N1205 N 0.37247 0.24831 0.53442 0.0
N1206 N 0.34671 0.28892 0.51104 0.0
C1207 C 0.29906 0.26458 0.51484 0.0
C1208 C 0.31308 0.24242 0.52766 0.0
C1209 C 0.20252 0.47189 0.27296 0.0
C1210 C 0.23798 0.47719 0.28643 0.0
C1211 C 0.20573 0.49694 0.26109 0.0
C1212 C 0.24536 0.52811 0.26208 0.0
H1213 H 0.17238 0.44808 0.27149 0.0
H1214 H 0.178 0.49141 0.2509 0.0
S1215 S 0.34511 0.55604 0.29508 0.0
N1216 N 0.31206 0.51734 0.30017 0.0
N1217 N 0.31854 0.56358 0.2778 0.0
C1218 C 0.28072 0.53389 0.27545 0.0
C1219 C 0.27718 0.50862 0.28758 0.0
C1220 C 0.95558 0.97905 0.52096 0.0
C1221 C 0.0076 0.98446 0.51058 0.0
C1222 C 0.94412 0.00289 0.53293 0.0
C1223 C 0.98383 0.03374 0.53514 0.0
H1224 H 0.92369 0.95573 0.51997 0.0
H1225 H 0.90492 0.99586 0.54069 0.0
S1226 S 0.12316 0.06257 0.51042 0.0
N1227 N 0.09591 0.02522 0.50263 0.0
N1228 N 0.07601 0.06895 0.5254 0.0
C1229 C 0.03528 0.03989 0.52465 0.0
C1230 C 0.04668 0.01571 0.51234 0.0
C1231 C 0.02787 0.25342 0.76363 0.0
C1232 C 0.9777 0.22687 0.76377 0.0
C1233 C 0.03335 0.27895 0.77525 0.0
C1234 C 0.98908 0.279 0.78755 0.0
H1235 H 0.0625 0.25498 0.75429 0.0
H1236 H 0.0725 0.29888 0.77456 0.0
S1237 S 0.85208 0.21351 0.7939 0.0
N1238 N 0.88544 0.20106 0.77773 0.0
N1239 N 0.89461 0.24907 0.79936 0.0
C1240 C 0.93895 0.25241 0.78786 0.0
C1241 C 0.93375 0.2263 0.77609 0.0
C1242 C 0.0394 0.77215 0.2751 0.0
C1243 C -0.00078 0.77054 0.28807 0.0
C1244 C 0.03173 0.74734 0.26331 0.0
C1245 C 0.98352 0.71979 0.26394 0.0
H1246 H 0.077 0.79284 0.27403 0.0
H1247 H 0.06322 0.75023 0.25346 0.0
S1248 S 0.86937 0.70192 0.29594 0.0
N1249 N 0.91107 0.73804 0.30109 0.0
N1250 N 0.89806 0.69112 0.27911 0.0
C1251 C 0.94385 0.71748 0.27695 0.0
C1252 C 0.95115 0.74296 0.28891 0.0
C1253 C 0.9607 0.53397 0.02463 0.0
C1254 C 0.99548 0.52726 0.03803 0.0
C1255 C 0.96482 0.51049 1.01227 0.0
C1256 C 0.00335 0.47895 1.01278 0.0
H1257 H 0.93021 0.55767 0.02367 0.0
H1258 H 0.93812 0.5175 1.00212 0.0
S1259 S 0.09914 0.44731 0.04581 0.0
N1260 N 0.06882 0.48624 0.0512 0.0
N1261 N 0.07211 0.44099 0.02847 0.0
C1262 C 0.03688 0.47146 0.02628 0.0
C1263 C 0.03427 0.4959 0.03872 0.0
C1264 C 0.1021 0.96269 0.13388 0.0
C1265 C 0.17111 0.96524 0.13552 0.0
C1266 C 0.06149 0.96406 0.1466 0.0
C1267 C 0.08958 0.96808 0.16102 0.0
H1268 H 0.07926 0.96487 0.12288 0.0
H1269 H 0.00832 0.96661 0.14496 0.0
S1270 S 0.26734 0.95983 0.17096 0.0
N1271 N 0.26575 0.95959 0.15237 0.0
N1272 N 0.18894 0.96258 0.17641 0.0
C1273 C 0.15787 0.96268 0.16283 0.0
C1274 C 0.19915 0.96117 0.14989 0.0
C1275 C 0.18718 0.29288 0.14523 0.0
C1276 C 0.1664 0.28732 0.1602 0.0
C1277 C 0.14128 0.2914 0.13353 0.0
C1278 C 0.07426 0.28454 0.13675 0.0
H1279 H 0.23964 0.29333 0.14239 0.0
H1280 H 0.15966 0.29059 0.12205 0.0
S1281 S 0.99333 0.28455 0.17431 0.0
N1282 N 0.07381 0.28684 0.17786 0.0
N1283 N 0.98669 0.2846 0.15577 0.0
C1284 C 0.0518 0.28712 0.15172 0.0
C1285 C 0.09855 0.28855 0.16361 0.0
C1286 C 0.92556 0.04025 0.89776 0.0
C1287 C 0.9009 0.03505 0.8831 0.0
C1288 C 0.88226 0.04077 0.91002 0.0
C1289 C 0.814 0.03608 0.90767 0.0
H1290 H 0.97852 0.03909 0.89994 0.0
H1291 H 0.90303 0.0396 0.92126 0.0
S1292 S 0.725 0.03731 0.87117 0.0
N1293 N 0.80466 0.03684 0.86661 0.0
N1294 N 0.72254 0.03835 0.88976 0.0
C1295 C 0.7886 0.03894 0.89297 0.0
C1296 C 0.83268 0.03833 0.88051 0.0
C1297 C 0.83214 0.71884 0.91126 0.0
C1298 C 0.90133 0.72177 0.91004 0.0
C1299 C 0.79338 0.71891 0.89831 0.0
C1300 C 0.82337 0.7223 0.88402 0.0
H1301 H 0.8075 0.72126 0.92208 0.0
H1302 H 0.73992 0.72094 0.89961 0.0
S1303 S 0.00248 0.71373 0.87523 0.0
N1304 N -0.00161 0.71481 0.8938 0.0
N1305 N 0.92485 0.71615 0.8693 0.0
C1306 C 0.89199 0.71725 0.88269 0.0
C1307 C 0.93148 0.71672 0.89588 0.0
C1308 C 0.14158 0.46542 0.66316 0.0
C1309 C 0.07312 0.46844 0.66075 0.0
C1310 C 0.1848 0.46515 0.65088 0.0
C1311 C 0.1599 0.46803 0.63611 0.0
H1312 H 0.16227 0.46834 0.67436 0.0
H1313 H 0.23769 0.46733 0.65304 0.0
S1314 S 0.98392 0.46045 0.62443 0.0
N1315 N 0.98173 0.462 0.64302 0.0
N1316 N 0.06345 0.46196 0.6198 0.0
C1317 C 0.09174 0.46312 0.63368 0.0
C1318 C 0.04782 0.46326 0.64617 0.0
C1319 C 0.19534 0.79052 0.64722 0.0
C1320 C 0.16968 0.78569 0.66185 0.0
C1321 C 0.15266 0.79181 0.63491 0.0
C1322 C 0.08409 0.78829 0.63718 0.0
H1323 H 0.24828 0.78846 0.64509 0.0
H1324 H 0.17383 0.79023 0.62369 0.0
S1325 S 0.99346 0.79143 0.67354 0.0
N1326 N 0.0728 0.78946 0.67821 0.0
N1327 N 0.99199 0.79242 0.65495 0.0
C1328 C 0.0582 0.79177 0.65183 0.0
C1329 C 0.10159 0.79033 0.66435 0.0
C1330 C 0.8379 0.54159 0.3982 0.0
C1331 C 0.85703 0.53524 0.41319 0.0
C1332 C 0.88442 0.53938 0.3866 0.0
C1333 C 0.95054 0.5309 0.38993 0.0
H1334 H 0.78581 0.54363 0.39522 0.0
H1335 H 0.86674 0.53952 0.37508 0.0
S1336 S 0.0291 0.52888 0.42762 0.0
N1337 N 0.94866 0.53262 0.43102 0.0
N1338 N 0.03685 0.52895 0.40909 0.0
C1339 C 0.97222 0.53267 0.40494 0.0
C1340 C 0.92484 0.53481 0.41674 0.0
C1341 C 0.83835 0.20684 0.38757 0.0
C1342 C 0.77005 0.21268 0.38918 0.0
C1343 C 0.87965 0.21038 0.40003 0.0
C1344 C 0.85292 0.21982 0.41417 0.0
H1345 H 0.86102 0.20507 0.37651 0.0
H1346 H 0.93292 0.21019 0.39815 0.0
S1347 S 0.67485 0.21954 0.4248 0.0
N1348 N 0.67555 0.21414 0.40633 0.0
N1349 N 0.75368 0.22158 0.42992 0.0
C1350 C 0.78411 0.21714 0.41637 0.0
C1351 C 0.74214 0.21312 0.40369 0.0
C1352 C 0.60806 0.96309 0.63698 0.0
C1353 C 0.6764 0.96851 0.63895 0.0
C1354 C 0.56593 0.96366 0.64943 0.0
C1355 C 0.59172 0.96978 0.66393 0.0
H1356 H 0.58612 0.96343 0.62584 0.0
H1357 H 0.51275 0.96405 0.64748 0.0
S1358 S 0.76878 0.96911 0.67504 0.0
N1359 N 0.76959 0.96737 0.65645 0.0
N1360 N 0.68953 0.96939 0.67997 0.0
C1361 C 0.66028 0.96724 0.66621 0.0
C1362 C 0.70325 0.96638 0.65354 0.0
C1363 C 0.58994 0.28652 0.66556 0.0
C1364 C 0.65878 0.28723 0.66322 0.0
C1365 C 0.54734 0.28424 0.65326 0.0
C1366 C 0.57318 0.28266 0.63852 0.0
H1367 H 0.56938 0.2826 0.67674 0.0
H1368 H 0.49501 0.27926 0.65539 0.0
S1369 S 0.7473 0.29965 0.62693 0.0
N1370 N 0.74919 0.29836 0.64553 0.0
N1371 N 0.66858 0.29376 0.62225 0.0
C1372 C 0.6402 0.29117 0.63612 0.0
C1373 C 0.68354 0.29354 0.64864 0.0
C1374 C 0.32794 0.02807 0.38326 0.0
C1375 C 0.39545 0.03675 0.38221 0.0
C1376 C 0.30143 0.01779 0.39709 0.0
C1377 C 0.34211 0.01631 0.41001 0.0
H1378 H 0.2985 0.0236 0.37322 0.0
H1379 H 0.25122 0.00715 0.39721 0.0
S1380 S 0.51166 0.05402 0.41372 0.0
N1381 N 0.49435 0.05685 0.39558 0.0
N1382 N 0.44486 0.03649 0.42175 0.0
C1383 C 0.40472 0.0327 0.40955 0.0
C1384 C 0.43109 0.04385 0.3955 0.0
C1385 C 0.3349 0.71078 0.39709 0.0
C1386 C 0.35782 0.71796 0.3824 0.0
C1387 C 0.37932 0.70975 0.40909 0.0
C1388 C 0.44704 0.71604 0.40648 0.0
H1389 H 0.2821 0.71044 0.39959 0.0
H1390 H 0.35947 0.70923 0.42045 0.0
S1391 S 0.53287 0.72078 0.36956 0.0
N1392 N 0.45285 0.72008 0.36542 0.0
N1393 N 0.53699 0.71777 0.3881 0.0
C1394 C 0.47129 0.71542 0.39163 0.0
C1395 C 0.42609 0.71652 0.37942 0.0
C1396 C 0.58776 0.46867 0.135 0.0
C1397 C 0.65655 0.46822 0.13724 0.0
C1398 C 0.54543 0.47182 0.14736 0.0
C1399 C 0.57156 0.47448 0.16202 0.0
H1400 H 0.56717 0.47191 0.12382 0.0
H1401 H 0.49314 0.47657 0.14526 0.0
S1402 S 0.74562 0.45866 0.17348 0.0
N1403 N 0.74712 0.45846 0.15488 0.0
N1404 N 0.66706 0.46481 0.17825 0.0
C1405 C 0.63845 0.46623 0.16441 0.0
C1406 C 0.68146 0.4629 0.15184 0.0
C1407 C 0.5981 0.78774 0.16287 0.0
C1408 C 0.66737 0.78656 0.16157 0.0
C1409 C 0.55896 0.78462 0.15002 0.0
C1410 C 0.58869 0.78014 0.13575 0.0
H1411 H 0.57414 0.78598 0.17379 0.0
H1412 H 0.50575 0.78144 0.1515 0.0
S1413 S 0.7671 0.79137 0.12646 0.0
N1414 N 0.76344 0.793 0.14503 0.0
N1415 N 0.68951 0.78646 0.12074 0.0
C1416 C 0.65697 0.78662 0.13417 0.0
C1417 C 0.69671 0.7901 0.14725 0.0
C1418 C 0.39096 0.54264 0.9145 0.0
C1419 C 0.32219 0.54301 0.91217 0.0
C1420 C 0.43367 0.53939 0.90221 0.0
C1421 C 0.40794 0.53662 0.88752 0.0
H1422 H 0.41121 0.53935 0.92572 0.0
H1423 H 0.48587 0.53452 0.90437 0.0
S1424 S 0.23409 0.55222 0.87582 0.0
N1425 N 0.23208 0.55256 0.89442 0.0
N1426 N 0.31281 0.54619 0.87115 0.0
C1427 C 0.3411 0.54494 0.88503 0.0
C1428 C 0.29772 0.54832 0.89754 0.0
C1429 C 0.38433 0.21769 0.88438 0.0
C1430 C 0.31563 0.21885 0.88679 0.0
C1431 C 0.42724 0.22074 0.89658 0.0
C1432 C 0.40177 0.22488 0.91126 0.0
H1433 H 0.40489 0.21981 0.87311 0.0
H1434 H 0.47983 0.22435 0.89431 0.0
S1435 S 0.22695 0.21305 0.92335 0.0
N1436 N 0.22484 0.21167 0.90476 0.0
N1437 N 0.3061 0.21804 0.92785 0.0
C1438 C 0.33436 0.21801 0.91392 0.0
C1439 C 0.29073 0.2147 0.9015 0.0
C1440 C 0.05781 0.11011 0.08709 0.0
C1441 C 0.06096 0.14768 0.08791 0.0
C1442 C 0.11618 0.08932 0.0869 0.0
C1443 C 0.17984 0.10532 0.08701 0.0
H1444 H 0.01012 0.09659 0.08773 0.0
H1445 H 0.11148 0.06045 0.08732 0.0
S1446 S 0.21501 0.20272 0.08791 0.0
N1447 N 0.13298 0.20001 0.08815 0.0
N1448 N 0.24208 0.1611 0.08708 0.0
C1449 C 0.18348 0.14287 0.08681 0.0
C1450 C 0.12422 0.16398 0.08745 0.0
C1451 C 0.13746 0.09292 0.20818 0.0
C1452 C 0.07368 0.10832 0.20723 0.0
C1453 C 0.19568 0.11413 0.20787 0.0
C1454 C 0.19237 0.15148 0.20607 0.0
H1455 H 0.14245 0.06408 0.20852 0.0
H1456 H 0.24353 0.10094 0.20792 0.0
S1457 S 0.03789 0.20513 0.20367 0.0
N1458 N 0.01106 0.16346 0.20532 0.0
N1459 N 0.11992 0.20308 0.20408 0.0
C1460 C 0.12889 0.16728 0.20571 0.0
C1461 C 0.06973 0.1458 0.20646 0.0
C1462 C 0.80395 0.86444 0.96016 0.0
C1463 C 0.80701 0.90143 0.95729 0.0
C1464 C 0.86212 0.84352 0.96048 0.0
C1465 C 0.92573 0.85891 0.95843 0.0
H1466 H 0.75615 0.8511 0.96101 0.0
H1467 H 0.85704 0.81476 0.96155 0.0
S1468 S 0.96121 0.95515 0.95216 0.0
N1469 N 0.87932 0.95293 0.95341 0.0
N1470 N 0.98815 0.91386 0.95456 0.0
C1471 C 0.92967 0.89622 0.95672 0.0
C1472 C 0.87047 0.91738 0.956 0.0
C1473 C 0.86209 0.84196 0.83364 0.0
C1474 C 0.7987 0.85757 0.83529 0.0
C1475 C 0.92064 0.8629 0.8336 0.0
C1476 C 0.91814 0.90017 0.83568 0.0
H1477 H 0.86665 0.81311 0.83317 0.0
H1478 H 0.96824 0.84949 0.83314 0.0
S1479 S 0.76486 0.95441 0.8396 0.0
N1480 N 0.7372 0.9129 0.83797 0.0
N1481 N 0.84674 0.95203 0.83847 0.0
C1482 C 0.85495 0.91624 0.83657 0.0
C1483 C 0.79539 0.89503 0.83621 0.0
C1484 C 0.12984 0.66278 0.58885 0.0
C1485 C 0.06528 0.64783 0.58882 0.0
C1486 C 0.18702 0.64106 0.58863 0.0
C1487 C 0.18182 0.6035 0.58889 0.0
H1488 H 0.13618 0.69151 0.58968 0.0
H1489 H 0.23543 0.65376 0.58941 0.0
S1490 S 0.02471 0.551 0.58826 0.0
N1491 N -1e-05 0.5931 0.58812 0.0
N1492 N 0.10684 0.55238 0.5884 0.0
C1493 C 0.11763 0.58829 0.58826 0.0
C1494 C 0.05956 0.61039 0.58804 0.0
C1495 C 0.17997 0.61154 0.70928 0.0
C1496 C 0.17868 0.64911 0.70832 0.0
C1497 C 0.12064 0.59126 0.70911 0.0
C1498 C 0.05779 0.60779 0.70848 0.0
H1499 H 0.22708 0.59762 0.70901 0.0
H1500 H 0.12404 0.56235 0.70878 0.0
S1501 S 0.02727 0.70543 0.70703 0.0
N1502 N 0.10913 0.70203 0.70744 0.0
N1503 N -0.00182 0.66404 0.70777 0.0
C1504 C 0.05585 0.64535 0.70856 0.0
C1505 C 0.11613 0.66595 0.70831 0.0
C1506 C 0.85255 0.34272 0.46102 0.0
C1507 C 0.91845 0.35563 0.4596 0.0
C1508 C 0.79745 0.36586 0.46054 0.0
C1509 C 0.806 0.40281 0.45823 0.0
H1510 H 0.84329 0.31416 0.46151 0.0
H1511 H 0.74792 0.35434 0.46067 0.0
S1512 S 0.96803 0.45071 0.45562 0.0
N1513 N 0.98882 0.40821 0.45738 0.0
N1514 N 0.88594 0.45165 0.45617 0.0
C1515 C 0.87176 0.41632 0.45795 0.0
C1516 C 0.92779 0.39278 0.45872 0.0
C1517 C 0.83957 0.36207 0.35742 0.0
C1518 C 0.80729 0.35371 0.34379 0.0
C1519 C 0.89881 0.38201 0.35773 0.0
C1520 C 0.92982 0.39417 0.34441 0.0
H1521 H 0.81836 0.35365 0.36808 0.0
H1522 H 0.92087 0.38758 0.36861 0.0
S1523 S 0.8671 0.37913 0.30562 0.0
N1524 N 0.81125 0.35926 0.3165 0.0
N1525 N 0.92385 0.39596 0.31707 0.0
C1526 C 0.89885 0.38567 0.33063 0.0
C1527 C 0.83738 0.36578 0.33033 0.0
C1528 C 0.62962 0.16265 0.59044 0.0
C1529 C 0.56619 0.1465 0.58969 0.0
C1530 C 0.68817 0.14205 0.59034 0.0
C1531 C 0.68539 0.10443 0.58998 0.0
H1532 H 0.63391 0.19138 0.59176 0.0
H1533 H 0.73557 0.15556 0.59167 0.0
S1534 S 0.53217 0.04913 0.58729 0.0
N1535 N 0.50467 0.09071 0.58762 0.0
N1536 N 0.61409 0.05201 0.58812 0.0
C1537 C 0.62245 0.08808 0.58862 0.0
C1538 C 0.56304 0.10909 0.58829 0.0
C1539 C 0.62153 0.0937 0.71102 0.0
C1540 C 0.55752 0.10884 0.71004 0.0
C1541 C 0.67936 0.11518 0.71137 0.0
C1542 C 0.67555 0.15267 0.71026 0.0
H1543 H 0.6271 0.06488 0.71078 0.0
H1544 H 0.72742 0.1022 0.71132 0.0
S1545 S 0.52022 0.20576 0.70837 0.0
N1546 N 0.49404 0.16381 0.70904 0.0
N1547 N 0.60224 0.20407 0.70908 0.0
C1548 C 0.61177 0.16817 0.71001 0.0
C1549 C 0.55292 0.14633 0.71006 0.0
C1550 C 0.37439 0.82669 0.45445 0.0
C1551 C 0.43437 0.84121 0.46004 0.0
C1552 C 0.31351 0.8446 0.45624 0.0
C1553 C 0.31021 0.8778 0.46363 0.0
H1554 H 0.37499 0.8024 0.4478 0.0
H1555 H 0.27007 0.83415 0.4505 0.0
S1556 S 0.45032 0.92535 0.48197 0.0
N1557 N 0.48451 0.88898 0.47484 0.0
N1558 N 0.37046 0.92287 0.47776 0.0
C1559 C 0.36848 0.89107 0.47036 0.0
C1560 C 0.43043 0.87271 0.4687 0.0
C1561 C 0.36953 0.91146 0.33292 0.0
C1562 C 0.43487 0.89824 0.33447 0.0
C1563 C 0.31355 0.88856 0.33331 0.0
C1564 C 0.32053 0.85156 0.33569 0.0
H1565 H 0.36137 0.94004 0.33222 0.0
H1566 H 0.26444 0.90031 0.33297 0.0
S1567 S 0.48043 0.80291 0.33917 0.0
N1568 N 0.50295 0.84522 0.33719 0.0
N1569 N 0.39836 0.80243 0.3384 0.0
C1570 C 0.38569 0.83777 0.33634 0.0
C1571 C 0.44265 0.861 0.3356 0.0
C1572 C 0.68205 0.63862 0.08634 0.0
C1573 C 0.6785 0.60134 0.08837 0.0
C1574 C 0.62402 0.65967 0.08619 0.0
C1575 C 0.5601 0.6442 0.08759 0.0
H1576 H 0.73 0.65195 0.0861 0.0
H1577 H 0.62937 0.68851 0.08579 0.0
S1578 S 0.52353 0.54739 0.09152 0.0
N1579 N 0.60553 0.5496 0.09072 0.0
N1580 N 0.49703 0.58899 0.08989 0.0
C1581 C 0.55579 0.60674 0.08841 0.0
C1582 C 0.61481 0.58539 0.08895 0.0
C1583 C 0.61493 0.59388 0.21189 0.0
C1584 C 0.55176 0.61002 0.21099 0.0
C1585 C 0.6739 0.61448 0.21211 0.0
C1586 C 0.67206 0.652 0.21093 0.0
H1587 H 0.61893 0.56499 0.21166 0.0
H1588 H 0.72123 0.60076 0.21202 0.0
S1589 S 0.51963 0.70746 0.20917 0.0
N1590 N 0.49124 0.66595 0.20997 0.0
N1591 N 0.60153 0.70452 0.20976 0.0
C1592 C 0.60916 0.66849 0.21075 0.0
C1593 C 0.54919 0.64757 0.21095 0.0
C1594 C 0.31272 0.36758 0.96187 0.0
C1595 C 0.31581 0.40454 0.95886 0.0
C1596 C 0.3706 0.3464 0.96177 0.0
C1597 C 0.43401 0.36152 0.9592 0.0
H1598 H 0.26491 0.35448 0.96321 0.0
H1599 H 0.36538 0.31768 0.96297 0.0
S1600 S 0.46984 0.4574 0.95211 0.0
N1601 N 0.38817 0.45559 0.95408 0.0
N1602 N 0.49652 0.41604 0.95449 0.0
C1603 C 0.43815 0.39874 0.95723 0.0
C1604 C 0.37921 0.42016 0.95691 0.0
C1605 C 0.35545 0.41336 0.84009 0.0
C1606 C 0.41884 0.39742 0.83931 0.0
C1607 C 0.29667 0.39262 0.83985 0.0
C1608 C 0.29905 0.35503 0.8393 0.0
H1609 H 0.35135 0.44205 0.84155 0.0
H1610 H 0.24935 0.40597 0.84125 0.0
S1611 S 0.45189 0.30019 0.83645 0.0
N1612 N 0.47982 0.34182 0.83699 0.0
N1613 N 0.36996 0.30286 0.83724 0.0
C1614 C 0.36194 0.33889 0.83789 0.0
C1615 C 0.42162 0.36005 0.83771 0.0
C1616 C 0.29973 0.89318 0.08935 0.0
C1617 C 0.35798 0.91205 0.08536 0.0
C1618 C 0.29799 0.85573 0.08929 0.0
C1619 C 0.35406 0.8362 0.0849 0.0
H1620 H 0.25669 0.90744 0.09353 0.0
H1621 H 0.25479 0.84221 0.09391 0.0
S1622 S 0.51551 0.87288 0.07166 0.0
N1623 N 0.47095 0.90855 0.07583 0.0
N1624 N 0.46663 0.83807 0.07492 0.0
C1625 C 0.41025 0.85481 0.07951 0.0
C1626 C 0.41254 0.89286 0.07991 0.0
C1627 C 0.93196 0.39252 0.08965 0.0
C1628 C 0.87382 0.41292 0.08907 0.0
C1629 C 0.92831 0.35513 0.0898 0.0
C1630 C 0.86649 0.33728 0.08951 0.0
H1631 H 0.97984 0.40542 0.09115 0.0
H1632 H 0.97383 0.34008 0.09117 0.0
S1633 S 0.70069 0.37897 0.08665 0.0
N1634 N 0.75338 0.41301 0.08683 0.0
N1635 N 0.74668 0.34254 0.0876 0.0
C1636 C 0.80849 0.35735 0.0879 0.0
C1637 C 0.81219 0.39534 0.08757 0.0
C1638 C 0.41958 0.36327 0.21018 0.0
C1639 C 0.36435 0.34219 0.2064 0.0
C1640 C 0.41371 0.40049 0.21124 0.0
C1641 C 0.35254 0.41749 0.20856 0.0
H1642 H 0.46826 0.35124 0.21125 0.0
H1643 H 0.4583 0.41632 0.21302 0.0
S1644 S 0.19178 0.37337 0.2003 0.0
N1645 N 0.2452 0.34015 0.20186 0.0
N1646 N 0.23498 0.41041 0.20328 0.0
C1647 C 0.29609 0.39646 0.20594 0.0
C1648 C 0.30188 0.3586 0.205 0.0
C1649 C 0.82116 0.89497 0.21358 0.0
C1650 C 0.88026 0.91491 0.21299 0.0
C1651 C 0.82295 0.85753 0.21391 0.0
C1652 C 0.8837 0.83895 0.2132 0.0
H1653 H 0.7735 0.90802 0.21245 0.0
H1654 H 0.7763 0.84294 0.21337 0.0
S1655 S 0.05205 0.87929 0.21266 0.0
N1656 N 0.00111 0.91377 0.21342 0.0
N1657 N 0.00408 0.84331 0.21263 0.0
C1658 C 0.94305 0.85859 0.21355 0.0
C1659 C 0.9413 0.89668 0.21376 0.0
C1660 C 0.55503 0.14639 0.95768 0.0
C1661 C 0.61663 0.16428 0.95651 0.0
C1662 C 0.55143 0.10898 0.95775 0.0
C1663 C 0.60948 0.08857 0.95678 0.0
H1664 H 0.50913 0.16147 0.95759 0.0
H1665 H 0.50309 0.09608 0.95748 0.0
S1666 S 0.78281 0.12252 0.95478 0.0
N1667 N 0.73665 0.15895 0.95512 0.0
N1668 N 0.73032 0.08849 0.95591 0.0
C1669 C 0.67149 0.10616 0.95672 0.0
C1670 C 0.67505 0.14416 0.95642 0.0
C1671 C 0.19504 0.64957 0.95691 0.0
C1672 C 0.14089 0.66929 0.96228 0.0
C1673 C 0.19244 0.61214 0.95667 0.0
C1674 C 0.13494 0.59349 0.96136 0.0
H1675 H 0.23678 0.66295 0.95158 0.0
H1676 H 0.23379 0.59778 0.95174 0.0
S1677 S 0.98358 0.63318 0.97808 0.0
N1678 N 0.0322 0.66777 0.97426 0.0
N1679 N 0.02562 0.59738 0.97287 0.0
C1680 C 0.08298 0.61281 0.96794 0.0
C1681 C 0.08649 0.65082 0.96862 0.0
C1682 C 0.53119 0.64657 0.84041 0.0
C1683 C 0.58623 0.66548 0.83479 0.0
C1684 C 0.5332 0.60926 0.84175 0.0
C1685 C 0.59058 0.59004 0.83769 0.0
H1686 H 0.48887 0.66083 0.84495 0.0
H1687 H 0.49108 0.59556 0.84678 0.0
S1688 S 0.74445 0.62731 0.82084 0.0
N1689 N 0.69651 0.66244 0.8237 0.0
N1690 N 0.70084 0.59226 0.82654 0.0
C1691 C 0.64358 0.60842 0.83091 0.0
C1692 C 0.64123 0.64628 0.8294 0.0
C1693 C 0.03927 0.1446 0.8382 0.0
C1694 C 0.09642 0.16598 0.83703 0.0
C1695 C 0.04431 0.10724 0.83802 0.0
C1696 C 0.10662 0.09032 0.83692 0.0
H1697 H 0.99142 0.15662 0.84051 0.0
H1698 H -0.00032 0.09145 0.83987 0.0
S1699 S 0.27 0.13485 0.83227 0.0
N1700 N 0.2161 0.16799 0.83319 0.0
N1701 N 0.22568 0.09767 0.83366 0.0
C1702 C 0.16341 0.11141 0.83471 0.0
C1703 C 0.15817 0.14937 0.83457 0.0
C1704 C 0.33517 0.35686 0.5835 0.0
C1705 C 0.38986 0.33722 0.58858 0.0
C1706 C 0.33828 0.39426 0.58277 0.0
C1707 C 0.39596 0.41302 0.58718 0.0
H1708 H 0.28839 0.3435 0.58115 0.0
H1709 H 0.29347 0.4088 0.57997 0.0
S1710 S 0.55534 0.37324 0.59921 0.0
N1711 N 0.50625 0.33857 0.59595 0.0
N1712 N 0.51045 0.40908 0.59552 0.0
C1713 C 0.45251 0.39351 0.59112 0.0
C1714 C 0.44977 0.35545 0.5916 0.0
C1715 C 0.84686 0.86316 0.58276 0.0
C1716 C 0.90186 0.84308 0.58734 0.0
C1717 C 0.84995 0.9006 0.58269 0.0
C1718 C 0.90783 0.91888 0.5873 0.0
H1719 H 0.79985 0.85005 0.58042 0.0
H1720 H 0.80496 0.91539 0.58029 0.0
S1721 S 0.06783 0.87803 0.59818 0.0
N1722 N 0.01861 0.8437 0.5944 0.0
N1723 N 0.02277 0.91419 0.59523 0.0
C1724 C 0.96466 0.89906 0.59068 0.0
C1725 C 0.96198 0.861 0.59046 0.0
C1726 C 0.43571 0.89477 0.71126 0.0
C1727 C 0.37393 0.91233 0.71059 0.0
C1728 C 0.43958 0.85737 0.71091 0.0
C1729 C 0.3816 0.83655 0.71021 0.0
H1730 H 0.48153 0.91013 0.71084 0.0
H1731 H 0.48797 0.84498 0.70996 0.0
S1732 S 0.20787 0.86935 0.70978 0.0
N1733 N 0.25384 0.90609 0.70993 0.0
N1734 N 0.2607 0.8357 0.71046 0.0
C1735 C 0.31952 0.85375 0.71091 0.0
C1736 C 0.31567 0.89176 0.71082 0.0
C1737 C 0.82954 0.39669 0.7151 0.0
C1738 C 0.88495 0.4167 0.71045 0.0
C1739 C 0.83298 0.35934 0.71591 0.0
C1740 C 0.89176 0.34115 0.71205 0.0
H1741 H 0.78215 0.40965 0.71695 0.0
H1742 H 0.78782 0.3444 0.71828 0.0
S1743 S 0.05282 0.38216 0.70139 0.0
N1744 N 0.0026 0.41642 0.70407 0.0
N1745 N 0.00783 0.34596 0.70483 0.0
C1746 C 0.94885 0.36108 0.70865 0.0
C1747 C 0.94566 0.39906 0.70803 0.0
C1748 C 0.55792 0.6516 0.45001 0.0
C1749 C 0.61429 0.66878 0.45608 0.0
C1750 C 0.55003 0.61446 0.45102 0.0
C1751 C 0.59768 0.5937 0.45842 0.0
H1752 H 0.52185 0.66665 0.44361 0.0
H1753 H 0.51018 0.60172 0.44479 0.0
S1754 S 0.74715 0.62644 0.47853 0.0
N1755 N 0.71345 0.6629 0.47139 0.0
N1756 N 0.69765 0.59301 0.47368 0.0
C1757 C 0.64983 0.61102 0.46604 0.0
C1758 C 0.65845 0.64871 0.46479 0.0
C1759 C 0.09676 0.13409 0.46979 0.0
C1760 C 0.10992 0.15388 0.45666 0.0
C1761 C 0.10191 0.09662 0.46977 0.0
C1762 C 0.12014 0.0782 0.45663 0.0
H1763 H 0.08082 0.14756 0.47998 0.0
H1764 H 0.092 0.082 0.48003 0.0
S1765 S 0.15313 0.11804 0.41904 0.0
N1766 N 0.13921 0.15265 0.43014 0.0
N1767 N 0.14548 0.08234 0.42987 0.0
C1768 C 0.13147 0.09784 0.44336 0.0
C1769 C 0.12767 0.13573 0.44346 0.0
C1770 C 0.69075 0.11345 0.33882 0.0
C1771 C 0.64484 0.09387 0.33025 0.0
C1772 C 0.68475 0.15062 0.34024 0.0
C1773 C 0.63229 0.1691 0.33327 0.0
H1774 H 0.72718 0.09969 0.34565 0.0
H1775 H 0.7187 0.16463 0.34765 0.0
S1776 S 0.50612 0.13041 0.3077 0.0
N1777 N 0.55114 0.09585 0.3131 0.0
N1778 N 0.53943 0.16583 0.31593 0.0
C1779 C 0.59058 0.15032 0.32342 0.0
C1780 C 0.59704 0.11255 0.32187 0.0
C1781 C 0.17048 0.6032 0.33389 0.0
C1782 C 0.11791 0.58317 0.34003 0.0
C1783 C 0.16749 0.64066 0.3335 0.0
C1784 C 0.1117 0.65901 0.33911 0.0
H1785 H 0.21571 0.59002 0.33031 0.0
H1786 H 0.2109 0.65548 0.32975 0.0
S1787 S 0.9582 0.61829 0.35466 0.0
N1788 N 0.00573 0.58389 0.35028 0.0
N1789 N 0.00118 0.6544 0.34995 0.0
C1790 C 0.05709 0.63915 0.34428 0.0
C1791 C 0.05997 0.60109 0.34463 0.0
C1792 C 0.4457 0.0912 0.14651 0.0
C1793 C 0.44201 0.10503 0.13167 0.0
C1794 C 0.44792 0.11375 0.15923 0.0
C1795 C 0.44632 0.1511 0.15762 0.0
H1796 H 0.44013 0.06269 0.14839 0.0
H1797 H 0.44314 0.10184 0.17032 0.0
S1798 S 0.45202 0.20088 0.12138 0.0
N1799 N 0.44858 0.15844 0.11624 0.0
N1800 N 0.45319 0.20082 0.13999 0.0
C1801 C 0.4516 0.1651 0.14285 0.0
C1802 C 0.44944 0.14211 0.12991 0.0
C1803 C 0.8074 0.10661 0.1346 0.0
C1804 C 0.80375 0.14405 0.13543 0.0
C1805 C 0.81081 0.08567 0.1478 0.0
C1806 C 0.81049 0.10126 0.16234 0.0
H1807 H 0.81541 0.09375 0.12382 0.0
H1808 H 0.82013 0.05729 0.14656 0.0
S1809 S 0.78753 0.19755 0.17051 0.0
N1810 N 0.7888 0.1953 0.15192 0.0
N1811 N 0.79527 0.15598 0.17657 0.0
C1812 C 0.79819 0.1381 0.16327 0.0
C1813 C 0.79489 0.15944 0.14985 0.0
C1814 C 0.53822 0.88988 0.88287 0.0
C1815 C 0.54531 0.85256 0.88353 0.0
C1816 C 0.53873 0.9107 0.89612 0.0
C1817 C 0.54574 0.89507 0.91056 0.0
H1818 H 0.53952 0.90341 0.87208 0.0
H1819 H 0.54004 0.93955 0.89495 0.0
S1820 S 0.55219 0.79794 0.91849 0.0
N1821 N 0.54873 0.80044 0.89993 0.0
N1822 N 0.54961 0.8396 0.92466 0.0
C1823 C 0.54454 0.85763 0.91142 0.0
C1824 C 0.54448 0.83641 0.89795 0.0
C1825 C 0.16958 0.85928 0.88274 0.0
C1826 C 0.17583 0.8967 0.88328 0.0
C1827 C 0.16899 0.83868 0.89607 0.0
C1828 C 0.17514 0.85453 0.91049 0.0
H1829 H 0.15796 0.84622 0.87217 0.0
H1830 H 0.15811 0.81035 0.89513 0.0
S1831 S 0.20444 0.95089 0.91776 0.0
N1832 N 0.1973 0.94822 0.89925 0.0
N1833 N 0.19686 0.90954 0.92413 0.0
C1834 C 0.18897 0.89136 0.91101 0.0
C1835 C 0.18903 0.91238 0.89746 0.0
C1836 C 0.44461 0.63912 0.63425 0.0
C1837 C 0.44028 0.60167 0.63513 0.0
C1838 C 0.44413 0.66027 0.64741 0.0
C1839 C 0.43982 0.6449 0.66196 0.0
H1840 H 0.44104 0.65231 0.62342 0.0
H1841 H 0.44086 0.68904 0.64611 0.0
S1842 S 0.44164 0.54788 0.67035 0.0
N1843 N 0.44266 0.54997 0.65176 0.0
N1844 N 0.44184 0.58974 0.67632 0.0
C1845 C 0.44393 0.60753 0.66298 0.0
C1846 C 0.44401 0.58596 0.6496 0.0
C1847 C 0.80105 0.61586 0.63376 0.0
C1848 C 0.80536 0.65321 0.63515 0.0
C1849 C 0.79999 0.59373 0.64664 0.0
C1850 C 0.80299 0.608 0.66141 0.0
H1851 H 0.80626 0.6035 0.62279 0.0
H1852 H 0.80364 0.56508 0.64498 0.0
S1853 S 0.79993 0.70433 0.67104 0.0
N1854 N 0.8007 0.70362 0.65243 0.0
N1855 N 0.79919 0.66204 0.67646 0.0
C1856 C 0.79837 0.64525 0.66289 0.0
C1857 C 0.79954 0.66781 0.6498 0.0
C1858 C 0.56914 0.40277 0.37936 0.0
C1859 C 0.54128 0.36831 0.38023 0.0
C1860 C 0.57771 0.42386 0.39239 0.0
C1861 C 0.55869 0.41154 0.40689 0.0
H1862 H 0.59121 0.41195 0.3689 0.0
H1863 H 0.60411 0.44903 0.39119 0.0
S1864 S 0.46969 0.3264 0.41465 0.0
N1865 N 0.48434 0.32534 0.39633 0.0
N1866 N 0.50014 0.36492 0.42069 0.0
C1867 C 0.52335 0.37905 0.40758 0.0
C1868 C 0.5147 0.35754 0.3943 0.0
C1869 C 0.13825 0.32304 0.39391 0.0
C1870 C 0.16103 0.33351 0.40835 0.0
C1871 C 0.15057 0.34391 0.38093 0.0
C1872 C 0.18601 0.37634 0.38179 0.0
H1873 H 0.10632 0.2998 0.39273 0.0
H1874 H 0.12567 0.33662 0.37056 0.0
S1875 S 0.26855 0.41232 0.41601 0.0
N1876 N 0.23052 0.3757 0.42202 0.0
N1877 N 0.25277 0.41495 0.39779 0.0
C1878 C 0.21564 0.38487 0.39577 0.0
C1879 C 0.20335 0.36357 0.40898 0.0
C1880 C 0.94014 0.14626 0.63581 0.0
C1881 C 0.94033 0.10873 0.63653 0.0
C1882 C 0.93717 0.1671 0.64906 0.0
C1883 C 0.9349 0.15137 0.66358 0.0
H1884 H 0.93527 0.15953 0.62502 0.0
H1885 H 0.931 0.19575 0.64786 0.0
S1886 S 0.94639 0.05436 0.67157 0.0
N1887 N 0.94749 0.05688 0.65299 0.0
N1888 N 0.9423 0.09602 0.6777 0.0
C1889 C 0.94269 0.11415 0.66443 0.0
C1890 C 0.9452 0.09289 0.65096 0.0
C1891 C 0.29276 0.15708 0.64882 0.0
C1892 C 0.30213 0.1423 0.63427 0.0
C1893 C 0.29396 0.13577 0.66195 0.0
C1894 C 0.30487 0.09875 0.66105 0.0
H1895 H 0.29154 0.18588 0.65018 0.0
H1896 H 0.29382 0.14891 0.67282 0.0
S1897 S 0.3176 0.0458 0.62572 0.0
N1898 N 0.31152 0.08759 0.61983 0.0
N1899 N 0.31316 0.04746 0.64429 0.0
C1900 C 0.30558 0.08318 0.64652 0.0
C1901 C 0.30421 0.10492 0.63318 0.0
C1902 C 0.06594 0.83458 0.40018 0.0
C1903 C 0.07415 0.85118 0.38596 0.0
C1904 C 0.06435 0.85451 0.41369 0.0
C1905 C 0.07232 0.8919 0.41358 0.0
H1906 H 0.06593 0.80565 0.40095 0.0
H1907 H 0.0636 0.84023 0.42431 0.0
S1908 S 0.0876 0.94882 0.37941 0.0
N1909 N 0.0831 0.90767 0.37268 0.0
N1910 N 0.08171 0.94502 0.39791 0.0
C1911 C 0.07496 0.909 0.39939 0.0
C1912 C 0.07541 0.88873 0.38564 0.0
C1913 C 0.70019 0.87986 0.38441 0.0
C1914 C 0.67424 0.91473 0.38486 0.0
C1915 C 0.70492 0.85888 0.3976 0.0
C1916 C 0.68505 0.87194 0.41188 0.0
H1917 H 0.71124 0.86748 0.37366 0.0
H1918 H 0.71869 0.83103 0.39641 0.0
S1919 S 0.62476 0.96357 0.41963 0.0
N1920 N 0.63715 0.96303 0.40123 0.0
N1921 N 0.64611 0.92352 0.42577 0.0
C1922 C 0.66576 0.9079 0.41269 0.0
C1923 C 0.66027 0.92923 0.39926 0.0
C1924 C 0.93366 0.61076 0.16493 0.0
C1925 C 0.93208 0.64826 0.16406 0.0
C1926 C 0.93329 0.58959 0.15175 0.0
C1927 C 0.93185 0.60493 0.13716 0.0
H1928 H 0.92809 0.59764 0.17574 0.0
H1929 H 0.92811 0.56088 0.15304 0.0
S1930 S 0.94023 0.70191 0.1288 0.0
N1931 N 0.93925 0.69984 0.14739 0.0
N1932 N 0.93856 0.66005 0.12284 0.0
C1933 C 0.93819 0.64225 0.13618 0.0
C1934 C 0.93818 0.66385 0.14957 0.0
C1935 C 0.30455 0.64794 0.16334 0.0
C1936 C 0.298 0.61052 0.16309 0.0
C1937 C 0.30811 0.66783 0.14984 0.0
C1938 C 0.3048 0.65123 0.13552 0.0
H1939 H 0.31436 0.66151 0.17389 0.0
H1940 H 0.31927 0.69615 0.15063 0.0
S1941 S 0.27591 0.55461 0.12885 0.0
N1942 N 0.27921 0.55823 0.14739 0.0
N1943 N 0.28525 0.5956 0.12217 0.0
C1944 C 0.29054 0.61445 0.1352 0.0
C1945 C 0.28741 0.59415 0.14893 0.0
C1946 C 0.04256 0.39372 0.886 0.0
C1947 C 0.04592 0.35629 0.88711 0.0
C1948 C 0.04564 0.41547 0.89898 0.0
C1949 C 0.05186 0.40081 0.91364 0.0
H1950 H 0.04476 0.40642 0.87503 0.0
H1951 H 0.04938 0.44416 0.89741 0.0
S1952 S 0.04901 0.30417 0.9228 0.0
N1953 N 0.04487 0.30542 0.90422 0.0
N1954 N 0.05093 0.34629 0.92842 0.0
C1955 C 0.04706 0.3635 0.91497 0.0
C1956 C 0.04414 0.34131 0.90176 0.0
C1957 C 0.68554 0.36242 0.88368 0.0
C1958 C 0.68497 0.39989 0.88472 0.0
C1959 C 0.6868 0.34098 0.89676 0.0
C1960 C 0.68762 0.35609 0.9114 0.0
H1961 H 0.67702 0.34961 0.8729 0.0
H1962 H 0.67991 0.31238 0.89543 0.0
S1963 S 0.70168 0.4527 0.91999 0.0
N1964 N 0.69758 0.45103 0.90141 0.0
N1965 N 0.6993 0.41074 0.92583 0.0
C1966 C 0.69619 0.39324 0.91244 0.0
C1967 C 0.69491 0.41509 0.89914 0.0
loop_
_geom_bond_atom_site_label_1
_geom_bond_atom_site_label_2
_geom_bond_distance
_geom_bond_site_symmetry_2
_ccdc_geom_bond_type
Co0 O3 1.970 . S
Co0 N17 1.989 1_545 S
Co0 O25 1.967 . S
Co0 O32 1.920 . S
Co1 O4 1.966 . S
Co1 N10 2.022 . S
Co1 N18 1.970 1_545 S
Co1 O26 1.941 . S
C2 O3 1.258 . S
C2 O4 1.263 . S
O3 Co0 1.970 . S
O3 C2 1.258 . S
O4 Co1 1.966 . S
O4 C2 1.263 . S
C5 O6 1.235 1_545 S
C5 O32 1.289 . S
O6 C5 1.235 1_565 S
C7 C9 1.400 . S
C7 N10 1.351 . S
C7 C12 1.501 . S
C8 C9 1.387 . S
C8 N11 1.341 . S
C9 C7 1.400 . S
C9 C8 1.387 . S
N10 Co1 2.022 . S
N10 C7 1.351 . S
N10 N11 1.365 . S
N11 C8 1.341 . S
N11 N10 1.365 . S
N11 H31 0.862 . S
C12 C7 1.501 . S
C12 H13 0.961 . S
C12 H14 0.961 . S
C12 H15 0.960 . S
H13 C12 0.961 . S
H14 C12 0.961 . S
H15 C12 0.960 . S
C16 N17 1.342 . S
C16 C20 1.401 . S
C16 C21 1.499 . S
N17 Co0 1.989 1_565 S
N17 C16 1.342 . S
N17 N18 1.392 . S
N18 Co1 1.970 1_565 S
N18 N17 1.392 . S
N18 C19 1.367 . S
C19 N18 1.367 . S
C19 C20 1.396 . S
C19 C29 1.510 . S
C20 C16 1.401 . S
C20 C19 1.396 . S
C21 C16 1.499 . S
C21 H22 0.959 . S
C21 H23 0.960 . S
C21 H24 0.961 . S
H22 C21 0.959 . S
H23 C21 0.960 . S
H24 C21 0.961 . S
O25 Co0 1.967 . S
O25 C33 1.258 . S
O26 Co1 1.941 . S
O26 C33 1.266 . S
H27 C29 0.959 . S
H28 C29 0.961 . S
C29 C19 1.510 . S
C29 H27 0.959 . S
C29 H28 0.961 . S
C29 H30 0.960 . S
H30 C29 0.960 . S
H31 N11 0.862 . S
O32 Co0 1.920 . S
O32 C5 1.289 . S
C33 O25 1.258 . S
C33 O26 1.266 . S
Co34 O37 1.970 1_655 S
Co34 N51 1.989 . S
Co34 O59 1.967 . S
Co34 O66 1.925 . S
Co35 O38 1.966 . S
Co35 N44 2.022 . S
Co35 N52 1.993 . S
Co35 O60 1.941 . S
C36 O37 1.258 1_655 S
C36 O38 1.263 . S
O37 Co34 1.970 1_455 S
O37 C36 1.258 1_455 S
O38 Co35 1.966 . S
O38 C36 1.263 . S
C39 O40 1.235 . S
C39 O66 1.279 1_455 S
O40 C39 1.235 . S
C41 C43 1.400 . S
C41 N44 1.351 . S
C41 C46 1.501 . S
C42 C43 1.387 . S
C42 N45 1.341 . S
C43 C41 1.400 . S
C43 C42 1.387 . S
N44 Co35 2.022 . S
N44 C41 1.351 . S
N44 N45 1.365 . S
N45 C42 1.341 . S
N45 N44 1.365 . S
N45 H65 0.862 . S
C46 C41 1.501 . S
C46 H47 0.961 . S
C46 H48 0.961 . S
C46 H49 0.960 . S
H47 C46 0.961 . S
H48 C46 0.961 . S
H49 C46 0.960 . S
C50 N51 1.342 . S
C50 C54 1.401 . S
C50 C55 1.499 . S
N51 Co34 1.989 . S
N51 C50 1.342 . S
N51 N52 1.388 . S
N52 Co35 1.993 . S
N52 N51 1.388 . S
N52 C53 1.346 . S
C53 N52 1.346 . S
C53 C54 1.396 . S
C53 C63 1.510 . S
C54 C50 1.401 . S
C54 C53 1.396 . S
C55 C50 1.499 . S
C55 H56 0.959 . S
C55 H57 0.960 . S
C55 H58 0.961 . S
H56 C55 0.959 . S
H57 C55 0.960 . S
H58 C55 0.961 . S
O59 Co34 1.967 . S
O59 C67 1.258 . S
O60 Co35 1.941 . S
O60 C67 1.266 . S
H61 C63 0.959 . S
H62 C63 0.961 . S
C63 C53 1.510 . S
C63 H61 0.959 . S
C63 H62 0.961 . S
C63 H64 0.960 . S
H64 C63 0.960 . S
H65 N45 0.862 . S
O66 Co34 1.925 . S
O66 C39 1.279 1_655 S
C67 O59 1.258 . S
C67 O60 1.266 . S
Co68 O71 1.970 . S
Co68 N85 1.989 . S
Co68 O93 1.967 . S
Co68 O100 1.920 . S
Co69 O72 1.966 . S
Co69 N78 2.022 . S
Co69 N86 1.993 . S
Co69 O94 1.941 . S
C70 O71 1.258 . S
C70 O72 1.263 . S
O71 Co68 1.970 . S
O71 C70 1.258 . S
O72 Co69 1.966 . S
O72 C70 1.263 . S
C73 O74 1.235 . S
C73 O100 1.289 . S
O74 C73 1.235 . S
C75 C77 1.400 . S
C75 N78 1.351 . S
C75 C80 1.501 . S
C76 C77 1.387 . S
C76 N79 1.341 . S
C77 C75 1.400 . S
C77 C76 1.387 . S
N78 Co69 2.022 . S
N78 C75 1.351 . S
N78 N79 1.365 . S
N79 C76 1.341 . S
N79 N78 1.365 . S
N79 H99 0.862 . S
C80 C75 1.501 . S
C80 H81 0.961 . S
C80 H82 0.961 . S
C80 H83 0.960 . S
H81 C80 0.961 . S
H82 C80 0.961 . S
H83 C80 0.960 . S
C84 N85 1.342 . S
C84 C88 1.401 . S
C84 C89 1.499 . S
N85 Co68 1.989 . S
N85 C84 1.342 . S
N85 N86 1.388 . S
N86 Co69 1.993 . S
N86 N85 1.388 . S
N86 C87 1.346 . S
C87 N86 1.346 . S
C87 C88 1.396 . S
C87 C97 1.510 . S
C88 C84 1.401 . S
C88 C87 1.396 . S
C89 C84 1.499 . S
C89 H90 0.959 . S
C89 H91 0.960 . S
C89 H92 0.961 . S
H90 C89 0.959 . S
H91 C89 0.960 . S
H92 C89 0.961 . S
O93 Co68 1.967 . S
O93 C101 1.258 . S
O94 Co69 1.941 . S
O94 C101 1.266 . S
H95 C97 0.959 . S
H96 C97 0.961 . S
C97 C87 1.510 . S
C97 H95 0.959 . S
C97 H96 0.961 . S
C97 H98 0.960 . S
H98 C97 0.960 . S
H99 N79 0.862 . S
O100 Co68 1.920 . S
O100 C73 1.289 . S
C101 O93 1.258 . S
C101 O94 1.266 . S
Co102 O105 1.970 1_655 S
Co102 N119 1.989 1_545 S
Co102 O127 1.967 . S
Co102 O134 1.925 . S
Co103 O106 1.966 . S
Co103 N112 2.022 . S
Co103 N120 1.970 1_545 S
Co103 O128 1.941 . S
C104 O105 1.258 1_655 S
C104 O106 1.263 . S
O105 Co102 1.970 1_455 S
O105 C104 1.258 1_455 S
O106 Co103 1.966 . S
O106 C104 1.263 . S
C107 O108 1.235 1_545 S
C107 O134 1.280 1_455 S
O108 C107 1.235 1_565 S
C109 C111 1.400 . S
C109 N112 1.351 . S
C109 C114 1.501 . S
C110 C111 1.387 . S
C110 N113 1.341 . S
C111 C109 1.400 . S
C111 C110 1.387 . S
N112 Co103 2.022 . S
N112 C109 1.351 . S
N112 N113 1.365 . S
N113 C110 1.341 . S
N113 N112 1.365 . S
N113 H133 0.862 . S
C114 C109 1.501 . S
C114 H115 0.961 . S
C114 H116 0.961 . S
C114 H117 0.960 . S
H115 C114 0.961 . S
H116 C114 0.961 . S
H117 C114 0.960 . S
C118 N119 1.342 . S
C118 C122 1.401 . S
C118 C123 1.499 . S
N119 Co102 1.989 1_565 S
N119 C118 1.342 . S
N119 N120 1.392 . S
N120 Co103 1.970 1_565 S
N120 N119 1.392 . S
N120 C121 1.367 . S
C121 N120 1.367 . S
C121 C122 1.396 . S
C121 C131 1.510 . S
C122 C118 1.401 . S
C122 C121 1.396 . S
C123 C118 1.499 . S
C123 H124 0.959 . S
C123 H125 0.960 . S
C123 H126 0.961 . S
H124 C123 0.959 . S
H125 C123 0.960 . S
H126 C123 0.961 . S
O127 Co102 1.967 . S
O127 C135 1.258 . S
O128 Co103 1.941 . S
O128 C135 1.266 . S
H129 C131 0.959 . S
H130 C131 0.961 . S
C131 C121 1.510 . S
C131 H129 0.959 . S
C131 H130 0.961 . S
C131 H132 0.960 . S
H132 C131 0.960 . S
H133 N113 0.862 . S
O134 Co102 1.925 . S
O134 C107 1.280 1_655 S
C135 O127 1.258 . S
C135 O128 1.266 . S
Co136 O139 1.970 . S
Co136 N153 1.989 1_565 S
Co136 O161 1.967 . S
Co136 O168 1.920 . S
Co137 O140 1.966 . S
Co137 N146 2.022 . S
Co137 N154 1.970 1_565 S
Co137 O162 1.941 . S
C138 O139 1.258 . S
C138 O140 1.263 . S
O139 Co136 1.970 . S
O139 C138 1.258 . S
O140 Co137 1.966 . S
O140 C138 1.263 . S
C141 O142 1.235 1_565 S
C141 O168 1.289 . S
O142 C141 1.235 1_545 S
C143 C145 1.400 . S
C143 N146 1.351 . S
C143 C148 1.501 . S
C144 C145 1.387 . S
C144 N147 1.341 . S
C145 C143 1.400 . S
C145 C144 1.387 . S
N146 Co137 2.022 . S
N146 C143 1.351 . S
N146 N147 1.365 . S
N147 C144 1.341 . S
N147 N146 1.365 . S
N147 H167 0.862 . S
C148 C143 1.501 . S
C148 H149 0.961 . S
C148 H150 0.961 . S
C148 H151 0.960 . S
H149 C148 0.961 . S
H150 C148 0.961 . S
H151 C148 0.960 . S
C152 N153 1.342 . S
C152 C156 1.401 . S
C152 C157 1.499 . S
N153 Co136 1.989 1_545 S
N153 C152 1.342 . S
N153 N154 1.392 . S
N154 Co137 1.970 1_545 S
N154 N153 1.392 . S
N154 C155 1.367 . S
C155 N154 1.367 . S
C155 C156 1.396 . S
C155 C165 1.510 . S
C156 C152 1.401 . S
C156 C155 1.396 . S
C157 C152 1.499 . S
C157 H158 0.959 . S
C157 H159 0.960 . S
C157 H160 0.961 . S
H158 C157 0.959 . S
H159 C157 0.960 . S
H160 C157 0.961 . S
O161 Co136 1.967 . S
O161 C169 1.258 . S
O162 Co137 1.941 . S
O162 C169 1.266 . S
H163 C165 0.959 . S
H164 C165 0.961 . S
C165 C155 1.510 . S
C165 H163 0.959 . S
C165 H164 0.961 . S
C165 H166 0.960 . S
H166 C165 0.960 . S
H167 N147 0.862 . S
O168 Co136 1.920 . S
O168 C141 1.289 . S
C169 O161 1.258 . S
C169 O162 1.266 . S
Co170 O173 1.970 1_455 S
Co170 N187 1.989 . S
Co170 O195 1.967 . S
Co170 O202 1.925 . S
Co171 O174 1.966 . S
Co171 N180 2.022 . S
Co171 N188 1.993 . S
Co171 O196 1.941 . S
C172 O173 1.258 1_455 S
C172 O174 1.263 . S
O173 Co170 1.970 1_655 S
O173 C172 1.258 1_655 S
O174 Co171 1.966 . S
O174 C172 1.263 . S
C175 O176 1.235 . S
C175 O202 1.279 1_655 S
O176 C175 1.235 . S
C177 C179 1.400 . S
C177 N180 1.351 . S
C177 C182 1.501 . S
C178 C179 1.387 . S
C178 N181 1.341 . S
C179 C177 1.400 . S
C179 C178 1.387 . S
N180 Co171 2.022 . S
N180 C177 1.351 . S
N180 N181 1.365 . S
N181 C178 1.341 . S
N181 N180 1.365 . S
N181 H201 0.862 . S
C182 C177 1.501 . S
C182 H183 0.961 . S
C182 H184 0.961 . S
C182 H185 0.960 . S
H183 C182 0.961 . S
H184 C182 0.961 . S
H185 C182 0.960 . S
C186 N187 1.342 . S
C186 C190 1.401 . S
C186 C191 1.499 . S
N187 Co170 1.989 . S
N187 C186 1.342 . S
N187 N188 1.388 . S
N188 Co171 1.993 . S
N188 N187 1.388 . S
N188 C189 1.346 . S
C189 N188 1.346 . S
C189 C190 1.396 . S
C189 C199 1.510 . S
C190 C186 1.401 . S
C190 C189 1.396 . S
C191 C186 1.499 . S
C191 H192 0.959 . S
C191 H193 0.960 . S
C191 H194 0.961 . S
H192 C191 0.959 . S
H193 C191 0.960 . S
H194 C191 0.961 . S
O195 Co170 1.967 . S
O195 C203 1.258 . S
O196 Co171 1.941 . S
O196 C203 1.266 . S
H197 C199 0.959 . S
H198 C199 0.961 . S
C199 C189 1.510 . S
C199 H197 0.959 . S
C199 H198 0.961 . S
C199 H200 0.960 . S
H200 C199 0.960 . S
H201 N181 0.862 . S
O202 Co170 1.925 . S
O202 C175 1.279 1_455 S
C203 O195 1.258 . S
C203 O196 1.266 . S
Co204 O207 1.970 . S
Co204 N221 1.989 . S
Co204 O229 1.967 . S
Co204 O236 1.920 . S
Co205 O208 1.966 . S
Co205 N214 2.022 . S
Co205 N222 1.993 . S
Co205 O230 1.941 . S
C206 O207 1.258 . S
C206 O208 1.263 . S
O207 Co204 1.970 . S
O207 C206 1.258 . S
O208 Co205 1.966 . S
O208 C206 1.263 . S
C209 O210 1.235 . S
C209 O236 1.289 . S
O210 C209 1.235 . S
C211 C213 1.400 . S
C211 N214 1.351 . S
C211 C216 1.501 . S
C212 C213 1.387 . S
C212 N215 1.341 . S
C213 C211 1.400 . S
C213 C212 1.387 . S
N214 Co205 2.022 . S
N214 C211 1.351 . S
N214 N215 1.365 . S
N215 C212 1.341 . S
N215 N214 1.365 . S
N215 H235 0.862 . S
C216 C211 1.501 . S
C216 H217 0.961 . S
C216 H218 0.961 . S
C216 H219 0.960 . S
H217 C216 0.961 . S
H218 C216 0.961 . S
H219 C216 0.960 . S
C220 N221 1.342 . S
C220 C224 1.401 . S
C220 C225 1.499 . S
N221 Co204 1.989 . S
N221 C220 1.342 . S
N221 N222 1.388 . S
N222 Co205 1.993 . S
N222 N221 1.388 . S
N222 C223 1.346 . S
C223 N222 1.346 . S
C223 C224 1.396 . S
C223 C233 1.510 . S
C224 C220 1.401 . S
C224 C223 1.396 . S
C225 C220 1.499 . S
C225 H226 0.959 . S
C225 H227 0.960 . S
C225 H228 0.961 . S
H226 C225 0.959 . S
H227 C225 0.960 . S
H228 C225 0.961 . S
O229 Co204 1.967 . S
O229 C237 1.258 . S
O230 Co205 1.941 . S
O230 C237 1.266 . S
H231 C233 0.959 . S
H232 C233 0.961 . S
C233 C223 1.510 . S
C233 H231 0.959 . S
C233 H232 0.961 . S
C233 H234 0.960 . S
H234 C233 0.960 . S
H235 N215 0.862 . S
O236 Co204 1.920 . S
O236 C209 1.289 . S
C237 O229 1.258 . S
C237 O230 1.266 . S
Co238 O241 1.970 1_455 S
Co238 N255 1.989 1_565 S
Co238 O263 1.967 . S
Co238 O270 1.925 . S
Co239 O242 1.966 . S
Co239 N248 2.022 . S
Co239 N256 1.970 1_565 S
Co239 O264 1.941 . S
C240 O241 1.258 1_455 S
C240 O242 1.263 . S
O241 Co238 1.970 1_655 S
O241 C240 1.258 1_655 S
O242 Co239 1.966 . S
O242 C240 1.263 . S
C243 O244 1.235 1_565 S
C243 O270 1.280 1_655 S
O244 C243 1.235 1_545 S
C245 C247 1.400 . S
C245 N248 1.351 . S
C245 C250 1.501 . S
C246 C247 1.387 . S
C246 N249 1.341 . S
C247 C245 1.400 . S
C247 C246 1.387 . S
N248 Co239 2.022 . S
N248 C245 1.351 . S
N248 N249 1.365 . S
N249 C246 1.341 . S
N249 N248 1.365 . S
N249 H269 0.862 . S
C250 C245 1.501 . S
C250 H251 0.961 . S
C250 H252 0.961 . S
C250 H253 0.960 . S
H251 C250 0.961 . S
H252 C250 0.961 . S
H253 C250 0.960 . S
C254 N255 1.342 . S
C254 C258 1.401 . S
C254 C259 1.499 . S
N255 Co238 1.989 1_545 S
N255 C254 1.342 . S
N255 N256 1.392 . S
N256 Co239 1.970 1_545 S
N256 N255 1.392 . S
N256 C257 1.367 . S
C257 N256 1.367 . S
C257 C258 1.396 . S
C257 C267 1.510 . S
C258 C254 1.401 . S
C258 C257 1.396 . S
C259 C254 1.499 . S
C259 H260 0.959 . S
C259 H261 0.960 . S
C259 H262 0.961 . S
H260 C259 0.959 . S
H261 C259 0.960 . S
H262 C259 0.961 . S
O263 Co238 1.967 . S
O263 C271 1.258 . S
O264 Co239 1.941 . S
O264 C271 1.266 . S
H265 C267 0.959 . S
H266 C267 0.961 . S
C267 C257 1.510 . S
C267 H265 0.959 . S
C267 H266 0.961 . S
C267 H268 0.960 . S
H268 C267 0.960 . S
H269 N249 0.862 . S
O270 Co238 1.925 . S
O270 C243 1.280 1_455 S
C271 O263 1.258 . S
C271 O264 1.266 . S
Co272 O275 1.970 . S
Co272 N289 1.989 . S
Co272 O297 1.967 . S
Co272 O304 1.920 . S
Co273 O276 1.966 . S
Co273 N282 2.022 . S
Co273 N290 1.993 . S
Co273 O298 1.941 . S
C274 O275 1.258 . S
C274 O276 1.263 . S
O275 Co272 1.970 . S
O275 C274 1.258 . S
O276 Co273 1.966 . S
O276 C274 1.263 . S
C277 O278 1.235 . S
C277 O304 1.289 . S
O278 C277 1.235 . S
C279 C281 1.400 . S
C279 N282 1.351 . S
C279 C284 1.501 . S
C280 C281 1.387 . S
C280 N283 1.341 . S
C281 C279 1.400 . S
C281 C280 1.387 . S
N282 Co273 2.022 . S
N282 C279 1.351 . S
N282 N283 1.365 . S
N283 C280 1.341 . S
N283 N282 1.365 . S
N283 H303 0.862 . S
C284 C279 1.501 . S
C284 H285 0.961 . S
C284 H286 0.961 . S
C284 H287 0.960 . S
H285 C284 0.961 . S
H286 C284 0.961 . S
H287 C284 0.960 . S
C288 N289 1.342 . S
C288 C292 1.401 . S
C288 C293 1.499 . S
N289 Co272 1.989 . S
N289 C288 1.342 . S
N289 N290 1.388 . S
N290 Co273 1.993 . S
N290 N289 1.388 . S
N290 C291 1.346 . S
C291 N290 1.346 . S
C291 C292 1.396 . S
C291 C301 1.510 . S
C292 C288 1.401 . S
C292 C291 1.396 . S
C293 C288 1.499 . S
C293 H294 0.959 . S
C293 H295 0.960 . S
C293 H296 0.961 . S
H294 C293 0.959 . S
H295 C293 0.960 . S
H296 C293 0.961 . S
O297 Co272 1.967 . S
O297 C305 1.258 . S
O298 Co273 1.941 . S
O298 C305 1.266 . S
H299 C301 0.959 . S
H300 C301 0.961 . S
C301 C291 1.510 . S
C301 H299 0.959 . S
C301 H300 0.961 . S
C301 H302 0.960 . S
H302 C301 0.960 . S
H303 N283 0.862 . S
O304 Co272 1.920 . S
O304 C277 1.289 . S
C305 O297 1.258 . S
C305 O298 1.266 . S
Co306 O309 1.970 1_655 S
Co306 N323 1.989 . S
Co306 O331 1.967 . S
Co306 O338 1.925 . S
Co307 O310 1.966 . S
Co307 N316 2.022 . S
Co307 N324 1.993 . S
Co307 O332 1.941 . S
C308 O309 1.258 1_655 S
C308 O310 1.263 . S
O309 Co306 1.970 1_455 S
O309 C308 1.258 1_455 S
O310 Co307 1.966 . S
O310 C308 1.263 . S
C311 O312 1.235 . S
C311 O338 1.279 1_455 S
O312 C311 1.235 . S
C313 C315 1.400 . S
C313 N316 1.351 . S
C313 C318 1.501 . S
C314 C315 1.387 . S
C314 N317 1.341 . S
C315 C313 1.400 . S
C315 C314 1.387 . S
N316 Co307 2.022 . S
N316 C313 1.351 . S
N316 N317 1.365 . S
N317 C314 1.341 . S
N317 N316 1.365 . S
N317 H337 0.862 . S
C318 C313 1.501 . S
C318 H319 0.961 . S
C318 H320 0.961 . S
C318 H321 0.960 . S
H319 C318 0.961 . S
H320 C318 0.961 . S
H321 C318 0.960 . S
C322 N323 1.342 . S
C322 C326 1.401 . S
C322 C327 1.499 . S
N323 Co306 1.989 . S
N323 C322 1.342 . S
N323 N324 1.388 . S
N324 Co307 1.993 . S
N324 N323 1.388 . S
N324 C325 1.346 . S
C325 N324 1.346 . S
C325 C326 1.396 . S
C325 C335 1.510 . S
C326 C322 1.401 . S
C326 C325 1.396 . S
C327 C322 1.499 . S
C327 H328 0.959 . S
C327 H329 0.960 . S
C327 H330 0.961 . S
H328 C327 0.959 . S
H329 C327 0.960 . S
H330 C327 0.961 . S
O331 Co306 1.967 . S
O331 C339 1.258 . S
O332 Co307 1.941 . S
O332 C339 1.266 . S
H333 C335 0.959 . S
H334 C335 0.961 . S
C335 C325 1.510 . S
C335 H333 0.959 . S
C335 H334 0.961 . S
C335 H336 0.960 . S
H336 C335 0.960 . S
H337 N317 0.862 . S
O338 Co306 1.925 . S
O338 C311 1.279 1_655 S
C339 O331 1.258 . S
C339 O332 1.266 . S
Co340 O343 1.970 . S
Co340 N357 1.989 . S
Co340 O365 1.967 . S
Co340 O372 1.920 . S
Co341 O344 1.966 . S
Co341 N350 2.022 . S
Co341 N358 1.993 . S
Co341 O366 1.941 . S
C342 O343 1.258 . S
C342 O344 1.263 . S
O343 Co340 1.970 . S
O343 C342 1.258 . S
O344 Co341 1.966 . S
O344 C342 1.263 . S
C345 O346 1.235 . S
C345 O372 1.289 . S
O346 C345 1.235 . S
C347 C349 1.400 . S
C347 N350 1.351 . S
C347 C352 1.501 . S
C348 C349 1.387 . S
C348 N351 1.341 . S
C349 C347 1.400 . S
C349 C348 1.387 . S
N350 Co341 2.022 . S
N350 C347 1.351 . S
N350 N351 1.365 . S
N351 C348 1.341 . S
N351 N350 1.365 . S
N351 H371 0.862 . S
C352 C347 1.501 . S
C352 H353 0.961 . S
C352 H354 0.961 . S
C352 H355 0.960 . S
H353 C352 0.961 . S
H354 C352 0.961 . S
H355 C352 0.960 . S
C356 N357 1.342 . S
C356 C360 1.401 . S
C356 C361 1.499 . S
N357 Co340 1.989 . S
N357 C356 1.342 . S
N357 N358 1.388 . S
N358 Co341 1.993 . S
N358 N357 1.388 . S
N358 C359 1.346 . S
C359 N358 1.346 . S
C359 C360 1.396 . S
C359 C369 1.510 . S
C360 C356 1.401 . S
C360 C359 1.396 . S
C361 C356 1.499 . S
C361 H362 0.959 . S
C361 H363 0.960 . S
C361 H364 0.961 . S
H362 C361 0.959 . S
H363 C361 0.960 . S
H364 C361 0.961 . S
O365 Co340 1.967 . S
O365 C373 1.258 . S
O366 Co341 1.941 . S
O366 C373 1.266 . S
H367 C369 0.959 . S
H368 C369 0.961 . S
C369 C359 1.510 . S
C369 H367 0.959 . S
C369 H368 0.961 . S
C369 H370 0.960 . S
H370 C369 0.960 . S
H371 N351 0.862 . S
O372 Co340 1.920 . S
O372 C345 1.289 . S
C373 O365 1.258 . S
C373 O366 1.266 . S
Co374 O377 1.970 1_655 S
Co374 N391 1.989 . S
Co374 O399 1.967 . S
Co374 O406 1.925 . S
Co375 O378 1.966 . S
Co375 N384 2.022 . S
Co375 N392 1.993 . S
Co375 O400 1.941 . S
C376 O377 1.258 1_655 S
C376 O378 1.263 . S
O377 Co374 1.970 1_455 S
O377 C376 1.258 1_455 S
O378 Co375 1.966 . S
O378 C376 1.263 . S
C379 O380 1.235 . S
C379 O406 1.280 1_455 S
O380 C379 1.235 . S
C381 C383 1.400 . S
C381 N384 1.351 . S
C381 C386 1.501 . S
C382 C383 1.387 . S
C382 N385 1.341 . S
C383 C381 1.400 . S
C383 C382 1.387 . S
N384 Co375 2.022 . S
N384 C381 1.351 . S
N384 N385 1.365 . S
N385 C382 1.341 . S
N385 N384 1.365 . S
N385 H405 0.862 . S
C386 C381 1.501 . S
C386 H387 0.961 . S
C386 H388 0.961 . S
C386 H389 0.960 . S
H387 C386 0.961 . S
H388 C386 0.961 . S
H389 C386 0.960 . S
C390 N391 1.342 . S
C390 C394 1.401 . S
C390 C395 1.499 . S
N391 Co374 1.989 . S
N391 C390 1.342 . S
N391 N392 1.388 . S
N392 Co375 1.993 . S
N392 N391 1.388 . S
N392 C393 1.346 . S
C393 N392 1.346 . S
C393 C394 1.396 . S
C393 C403 1.510 . S
C394 C390 1.401 . S
C394 C393 1.396 . S
C395 C390 1.499 . S
C395 H396 0.959 . S
C395 H397 0.960 . S
C395 H398 0.961 . S
H396 C395 0.959 . S
H397 C395 0.960 . S
H398 C395 0.961 . S
O399 Co374 1.967 . S
O399 C407 1.258 . S
O400 Co375 1.941 . S
O400 C407 1.266 . S
H401 C403 0.959 . S
H402 C403 0.961 . S
C403 C393 1.510 . S
C403 H401 0.959 . S
C403 H402 0.961 . S
C403 H404 0.960 . S
H404 C403 0.960 . S
H405 N385 0.862 . S
O406 Co374 1.925 . S
O406 C379 1.280 1_655 S
C407 O399 1.258 . S
C407 O400 1.266 . S
Co408 O411 1.970 . S
Co408 N425 1.989 . S
Co408 O433 1.967 . S
Co408 O440 1.920 . S
Co409 O412 1.966 . S
Co409 N418 2.022 . S
Co409 N426 1.993 . S
Co409 O434 1.941 . S
C410 O411 1.258 . S
C410 O412 1.263 . S
O411 Co408 1.970 . S
O411 C410 1.258 . S
O412 Co409 1.966 . S
O412 C410 1.263 . S
C413 O414 1.235 . S
C413 O440 1.289 . S
O414 C413 1.235 . S
C415 C417 1.400 . S
C415 N418 1.351 . S
C415 C420 1.501 . S
C416 C417 1.387 . S
C416 N419 1.341 . S
C417 C415 1.400 . S
C417 C416 1.387 . S
N418 Co409 2.022 . S
N418 C415 1.351 . S
N418 N419 1.365 . S
N419 C416 1.341 . S
N419 N418 1.365 . S
N419 H439 0.862 . S
C420 C415 1.501 . S
C420 H421 0.961 . S
C420 H422 0.961 . S
C420 H423 0.960 . S
H421 C420 0.961 . S
H422 C420 0.961 . S
H423 C420 0.960 . S
C424 N425 1.342 . S
C424 C428 1.401 . S
C424 C429 1.499 . S
N425 Co408 1.989 . S
N425 C424 1.342 . S
N425 N426 1.388 . S
N426 Co409 1.993 . S
N426 N425 1.388 . S
N426 C427 1.346 . S
C427 N426 1.346 . S
C427 C428 1.396 . S
C427 C437 1.510 . S
C428 C424 1.401 . S
C428 C427 1.396 . S
C429 C424 1.499 . S
C429 H430 0.959 . S
C429 H431 0.960 . S
C429 H432 0.961 . S
H430 C429 0.959 . S
H431 C429 0.960 . S
H432 C429 0.961 . S
O433 Co408 1.967 . S
O433 C441 1.258 . S
O434 Co409 1.941 . S
O434 C441 1.266 . S
H435 C437 0.959 . S
H436 C437 0.961 . S
C437 C427 1.510 . S
C437 H435 0.959 . S
C437 H436 0.961 . S
C437 H438 0.960 . S
H438 C437 0.960 . S
H439 N419 0.862 . S
O440 Co408 1.920 . S
O440 C413 1.289 . S
C441 O433 1.258 . S
C441 O434 1.266 . S
Co442 O445 1.970 1_455 S
Co442 N459 1.989 . S
Co442 O467 1.967 . S
Co442 O474 1.925 . S
Co443 O446 1.966 . S
Co443 N452 2.022 . S
Co443 N460 1.993 . S
Co443 O468 1.941 . S
C444 O445 1.258 1_455 S
C444 O446 1.263 . S
O445 Co442 1.970 1_655 S
O445 C444 1.258 1_655 S
O446 Co443 1.966 . S
O446 C444 1.263 . S
C447 O448 1.235 . S
C447 O474 1.279 1_655 S
O448 C447 1.235 . S
C449 C451 1.400 . S
C449 N452 1.351 . S
C449 C454 1.501 . S
C450 C451 1.387 . S
C450 N453 1.341 . S
C451 C449 1.400 . S
C451 C450 1.387 . S
N452 Co443 2.022 . S
N452 C449 1.351 . S
N452 N453 1.365 . S
N453 C450 1.341 . S
N453 N452 1.365 . S
N453 H473 0.862 . S
C454 C449 1.501 . S
C454 H455 0.961 . S
C454 H456 0.961 . S
C454 H457 0.960 . S
H455 C454 0.961 . S
H456 C454 0.961 . S
H457 C454 0.960 . S
C458 N459 1.342 . S
C458 C462 1.401 . S
C458 C463 1.499 . S
N459 Co442 1.989 . S
N459 C458 1.342 . S
N459 N460 1.388 . S
N460 Co443 1.993 . S
N460 N459 1.388 . S
N460 C461 1.346 . S
C461 N460 1.346 . S
C461 C462 1.396 . S
C461 C471 1.510 . S
C462 C458 1.401 . S
C462 C461 1.396 . S
C463 C458 1.499 . S
C463 H464 0.959 . S
C463 H465 0.960 . S
C463 H466 0.961 . S
H464 C463 0.959 . S
H465 C463 0.960 . S
H466 C463 0.961 . S
O467 Co442 1.967 . S
O467 C475 1.258 . S
O468 Co443 1.941 . S
O468 C475 1.266 . S
H469 C471 0.959 . S
H470 C471 0.961 . S
C471 C461 1.510 . S
C471 H469 0.959 . S
C471 H470 0.961 . S
C471 H472 0.960 . S
H472 C471 0.960 . S
H473 N453 0.862 . S
O474 Co442 1.925 . S
O474 C447 1.279 1_455 S
C475 O467 1.258 . S
C475 O468 1.266 . S
Co476 O479 1.970 . S
Co476 N493 1.989 . S
Co476 O501 1.967 . S
Co476 O508 1.920 . S
Co477 O480 1.966 . S
Co477 N486 2.022 . S
Co477 N494 1.993 . S
Co477 O502 1.941 . S
C478 O479 1.258 . S
C478 O480 1.263 . S
O479 Co476 1.970 . S
O479 C478 1.258 . S
O480 Co477 1.966 . S
O480 C478 1.263 . S
C481 O482 1.235 . S
C481 O508 1.289 . S
O482 C481 1.235 . S
C483 C485 1.400 . S
C483 N486 1.351 . S
C483 C488 1.501 . S
C484 C485 1.387 . S
C484 N487 1.341 . S
C485 C483 1.400 . S
C485 C484 1.387 . S
N486 Co477 2.022 . S
N486 C483 1.351 . S
N486 N487 1.365 . S
N487 C484 1.341 . S
N487 N486 1.365 . S
N487 H507 0.862 . S
C488 C483 1.501 . S
C488 H489 0.961 . S
C488 H490 0.961 . S
C488 H491 0.960 . S
H489 C488 0.961 . S
H490 C488 0.961 . S
H491 C488 0.960 . S
C492 N493 1.342 . S
C492 C496 1.401 . S
C492 C497 1.499 . S
N493 Co476 1.989 . S
N493 C492 1.342 . S
N493 N494 1.388 . S
N494 Co477 1.993 . S
N494 N493 1.388 . S
N494 C495 1.346 . S
C495 N494 1.346 . S
C495 C496 1.396 . S
C495 C505 1.510 . S
C496 C492 1.401 . S
C496 C495 1.396 . S
C497 C492 1.499 . S
C497 H498 0.959 . S
C497 H499 0.960 . S
C497 H500 0.961 . S
H498 C497 0.959 . S
H499 C497 0.960 . S
H500 C497 0.961 . S
O501 Co476 1.967 . S
O501 C509 1.258 . S
O502 Co477 1.941 . S
O502 C509 1.266 . S
H503 C505 0.959 . S
H504 C505 0.961 . S
C505 C495 1.510 . S
C505 H503 0.959 . S
C505 H504 0.961 . S
C505 H506 0.960 . S
H506 C505 0.960 . S
H507 N487 0.862 . S
O508 Co476 1.920 . S
O508 C481 1.289 . S
C509 O501 1.258 . S
C509 O502 1.266 . S
Co510 O513 1.970 1_455 S
Co510 N527 1.989 . S
Co510 O535 1.967 . S
Co510 O542 1.925 . S
Co511 O514 1.966 . S
Co511 N520 2.022 . S
Co511 N528 1.993 . S
Co511 O536 1.941 . S
C512 O513 1.258 1_455 S
C512 O514 1.263 . S
O513 Co510 1.970 1_655 S
O513 C512 1.258 1_655 S
O514 Co511 1.966 . S
O514 C512 1.263 . S
C515 O516 1.235 . S
C515 O542 1.280 1_655 S
O516 C515 1.235 . S
C517 C519 1.400 . S
C517 N520 1.351 . S
C517 C522 1.501 . S
C518 C519 1.387 . S
C518 N521 1.341 . S
C519 C517 1.400 . S
C519 C518 1.387 . S
N520 Co511 2.022 . S
N520 C517 1.351 . S
N520 N521 1.365 . S
N521 C518 1.341 . S
N521 N520 1.365 . S
N521 H541 0.862 . S
C522 C517 1.501 . S
C522 H523 0.961 . S
C522 H524 0.961 . S
C522 H525 0.960 . S
H523 C522 0.961 . S
H524 C522 0.961 . S
H525 C522 0.960 . S
C526 N527 1.342 . S
C526 C530 1.401 . S
C526 C531 1.499 . S
N527 Co510 1.989 . S
N527 C526 1.342 . S
N527 N528 1.388 . S
N528 Co511 1.993 . S
N528 N527 1.388 . S
N528 C529 1.346 . S
C529 N528 1.346 . S
C529 C530 1.396 . S
C529 C539 1.510 . S
C530 C526 1.401 . S
C530 C529 1.396 . S
C531 C526 1.499 . S
C531 H532 0.959 . S
C531 H533 0.960 . S
C531 H534 0.961 . S
H532 C531 0.959 . S
H533 C531 0.960 . S
H534 C531 0.961 . S
O535 Co510 1.967 . S
O535 C543 1.258 . S
O536 Co511 1.941 . S
O536 C543 1.266 . S
H537 C539 0.959 . S
H538 C539 0.961 . S
C539 C529 1.510 . S
C539 H537 0.959 . S
C539 H538 0.961 . S
C539 H540 0.960 . S
H540 C539 0.960 . S
H541 N521 0.862 . S
O542 Co510 1.925 . S
O542 C515 1.280 1_455 S
C543 O535 1.258 . S
C543 O536 1.266 . S
Co544 O547 1.970 . S
Co544 N561 1.989 1_545 S
Co544 O569 1.967 . S
Co544 O576 1.920 . S
Co545 O548 1.966 . S
Co545 N554 2.022 . S
Co545 N562 1.970 1_545 S
Co545 O570 1.941 . S
C546 O547 1.258 . S
C546 O548 1.263 . S
O547 Co544 1.970 . S
O547 C546 1.258 . S
O548 Co545 1.966 . S
O548 C546 1.263 . S
C549 O550 1.235 1_545 S
C549 O576 1.289 . S
O550 C549 1.235 1_565 S
C551 C553 1.400 . S
C551 N554 1.351 . S
C551 C556 1.501 . S
C552 C553 1.387 1_455 S
C552 N555 1.341 . S
C553 C551 1.400 . S
C553 C552 1.387 1_655 S
N554 Co545 2.022 . S
N554 C551 1.351 . S
N554 N555 1.365 1_655 S
N555 C552 1.341 . S
N555 N554 1.365 1_455 S
N555 H575 0.862 . S
C556 C551 1.501 . S
C556 H557 0.961 . S
C556 H558 0.961 . S
C556 H559 0.960 . S
H557 C556 0.961 . S
H558 C556 0.961 . S
H559 C556 0.960 . S
C560 N561 1.342 . S
C560 C564 1.401 . S
C560 C565 1.499 . S
N561 Co544 1.989 1_565 S
N561 C560 1.342 . S
N561 N562 1.392 . S
N562 Co545 1.970 1_565 S
N562 N561 1.392 . S
N562 C563 1.367 . S
C563 N562 1.367 . S
C563 C564 1.396 . S
C563 C573 1.510 . S
C564 C560 1.401 . S
C564 C563 1.396 . S
C565 C560 1.499 . S
C565 H566 0.959 . S
C565 H567 0.960 . S
C565 H568 0.961 . S
H566 C565 0.959 . S
H567 C565 0.960 . S
H568 C565 0.961 . S
O569 Co544 1.967 . S
O569 C577 1.258 . S
O570 Co545 1.941 . S
O570 C577 1.266 . S
H571 C573 0.959 . S
H572 C573 0.961 . S
C573 C563 1.510 . S
C573 H571 0.959 . S
C573 H572 0.961 . S
C573 H574 0.960 . S
H574 C573 0.960 . S
H575 N555 0.862 . S
O576 Co544 1.920 . S
O576 C549 1.289 . S
C577 O569 1.258 . S
C577 O570 1.266 . S
Co578 O581 1.970 . S
Co578 N595 1.989 . S
Co578 O603 1.967 . S
Co578 O610 1.920 . S
Co579 O582 1.966 . S
Co579 N588 2.022 . S
Co579 N596 1.993 . S
Co579 O604 1.941 . S
C580 O581 1.258 . S
C580 O582 1.263 . S
O581 Co578 1.970 . S
O581 C580 1.258 . S
O582 Co579 1.966 . S
O582 C580 1.263 . S
C583 O584 1.235 . S
C583 O610 1.289 . S
O584 C583 1.235 . S
C585 C587 1.400 . S
C585 N588 1.351 . S
C585 C590 1.501 . S
C586 C587 1.387 . S
C586 N589 1.341 . S
C587 C585 1.400 . S
C587 C586 1.387 . S
N588 Co579 2.022 . S
N588 C585 1.351 . S
N588 N589 1.365 . S
N589 C586 1.341 . S
N589 N588 1.365 . S
N589 H609 0.862 . S
C590 C585 1.501 . S
C590 H591 0.961 . S
C590 H592 0.961 . S
C590 H593 0.960 . S
H591 C590 0.961 . S
H592 C590 0.961 . S
H593 C590 0.960 . S
C594 N595 1.342 . S
C594 C598 1.401 . S
C594 C599 1.499 . S
N595 Co578 1.989 . S
N595 C594 1.342 . S
N595 N596 1.388 . S
N596 Co579 1.993 . S
N596 N595 1.388 . S
N596 C597 1.346 . S
C597 N596 1.346 . S
C597 C598 1.396 . S
C597 C607 1.510 . S
C598 C594 1.401 . S
C598 C597 1.396 . S
C599 C594 1.499 . S
C599 H600 0.959 . S
C599 H601 0.960 . S
C599 H602 0.961 . S
H600 C599 0.959 . S
H601 C599 0.960 . S
H602 C599 0.961 . S
O603 Co578 1.967 . S
O603 C611 1.258 . S
O604 Co579 1.941 . S
O604 C611 1.266 . S
H605 C607 0.959 . S
H606 C607 0.961 . S
C607 C597 1.510 . S
C607 H605 0.959 . S
C607 H606 0.961 . S
C607 H608 0.960 . S
H608 C607 0.960 . S
H609 N589 0.862 . S
O610 Co578 1.920 . S
O610 C583 1.289 . S
C611 O603 1.258 . S
C611 O604 1.266 . S
Co612 O615 1.970 . S
Co612 N629 1.989 . S
Co612 O637 1.967 . S
Co612 O644 1.920 . S
Co613 O616 1.966 . S
Co613 N622 2.022 . S
Co613 N630 1.993 . S
Co613 O638 1.941 . S
C614 O615 1.258 . S
C614 O616 1.263 . S
O615 Co612 1.970 . S
O615 C614 1.258 . S
O616 Co613 1.966 . S
O616 C614 1.263 . S
C617 O618 1.235 . S
C617 O644 1.289 . S
O618 C617 1.235 . S
C619 C621 1.400 . S
C619 N622 1.351 . S
C619 C624 1.501 . S
C620 C621 1.387 1_455 S
C620 N623 1.341 . S
C621 C619 1.400 . S
C621 C620 1.387 1_655 S
N622 Co613 2.022 . S
N622 C619 1.351 . S
N622 N623 1.365 1_655 S
N623 C620 1.341 . S
N623 N622 1.365 1_455 S
N623 H643 0.862 . S
C624 C619 1.501 . S
C624 H625 0.961 . S
C624 H626 0.961 . S
C624 H627 0.960 . S
H625 C624 0.961 . S
H626 C624 0.961 . S
H627 C624 0.960 . S
C628 N629 1.342 . S
C628 C632 1.401 . S
C628 C633 1.499 . S
N629 Co612 1.989 . S
N629 C628 1.342 . S
N629 N630 1.388 . S
N630 Co613 1.993 . S
N630 N629 1.388 . S
N630 C631 1.346 . S
C631 N630 1.346 . S
C631 C632 1.396 . S
C631 C641 1.510 . S
C632 C628 1.401 . S
C632 C631 1.396 . S
C633 C628 1.499 . S
C633 H634 0.959 . S
C633 H635 0.960 . S
C633 H636 0.961 . S
H634 C633 0.959 . S
H635 C633 0.960 . S
H636 C633 0.961 . S
O637 Co612 1.967 . S
O637 C645 1.258 . S
O638 Co613 1.941 . S
O638 C645 1.266 . S
H639 C641 0.959 . S
H640 C641 0.961 . S
C641 C631 1.510 . S
C641 H639 0.959 . S
C641 H640 0.961 . S
C641 H642 0.960 . S
H642 C641 0.960 . S
H643 N623 0.862 . S
O644 Co612 1.920 . S
O644 C617 1.289 . S
C645 O637 1.258 . S
C645 O638 1.266 . S
Co646 O649 1.970 . S
Co646 N663 1.989 1_545 S
Co646 O671 1.967 . S
Co646 O678 1.920 . S
Co647 O650 1.966 . S
Co647 N656 2.022 . S
Co647 N664 1.970 1_545 S
Co647 O672 1.941 . S
C648 O649 1.258 . S
C648 O650 1.263 . S
O649 Co646 1.970 . S
O649 C648 1.258 . S
O650 Co647 1.966 . S
O650 C648 1.263 . S
C651 O652 1.235 1_545 S
C651 O678 1.289 . S
O652 C651 1.235 1_565 S
C653 C655 1.400 . S
C653 N656 1.351 . S
C653 C658 1.501 . S
C654 C655 1.387 . S
C654 N657 1.341 . S
C655 C653 1.400 . S
C655 C654 1.387 . S
N656 Co647 2.022 . S
N656 C653 1.351 . S
N656 N657 1.365 . S
N657 C654 1.341 . S
N657 N656 1.365 . S
N657 H677 0.862 . S
C658 C653 1.501 . S
C658 H659 0.961 . S
C658 H660 0.961 . S
C658 H661 0.960 . S
H659 C658 0.961 . S
H660 C658 0.961 . S
H661 C658 0.960 . S
C662 N663 1.342 . S
C662 C666 1.401 . S
C662 C667 1.499 . S
N663 Co646 1.989 1_565 S
N663 C662 1.342 . S
N663 N664 1.392 . S
N664 Co647 1.970 1_565 S
N664 N663 1.392 . S
N664 C665 1.367 . S
C665 N664 1.367 . S
C665 C666 1.396 . S
C665 C675 1.510 . S
C666 C662 1.401 . S
C666 C665 1.396 . S
C667 C662 1.499 . S
C667 H668 0.959 . S
C667 H669 0.960 . S
C667 H670 0.961 . S
H668 C667 0.959 . S
H669 C667 0.960 . S
H670 C667 0.961 . S
O671 Co646 1.967 . S
O671 C679 1.258 . S
O672 Co647 1.941 . S
O672 C679 1.266 . S
H673 C675 0.959 . S
H674 C675 0.961 . S
C675 C665 1.510 . S
C675 H673 0.959 . S
C675 H674 0.961 . S
C675 H676 0.960 . S
H676 C675 0.960 . S
H677 N657 0.862 . S
O678 Co646 1.920 . S
O678 C651 1.289 . S
C679 O671 1.258 . S
C679 O672 1.266 . S
Co680 O683 1.970 . S
Co680 N697 1.989 1_565 S
Co680 O705 1.967 . S
Co680 O712 1.920 . S
Co681 O684 1.966 . S
Co681 N690 2.022 . S
Co681 N698 1.970 1_565 S
Co681 O706 1.941 . S
C682 O683 1.258 . S
C682 O684 1.263 . S
O683 Co680 1.970 . S
O683 C682 1.258 . S
O684 Co681 1.966 . S
O684 C682 1.263 . S
C685 O686 1.235 1_565 S
C685 O712 1.289 . S
O686 C685 1.235 1_545 S
C687 C689 1.400 . S
C687 N690 1.351 . S
C687 C692 1.501 . S
C688 C689 1.387 1_655 S
C688 N691 1.341 . S
C689 C687 1.400 . S
C689 C688 1.387 1_455 S
N690 Co681 2.022 . S
N690 C687 1.351 . S
N690 N691 1.365 1_455 S
N691 C688 1.341 . S
N691 N690 1.365 1_655 S
N691 H711 0.862 . S
C692 C687 1.501 . S
C692 H693 0.961 . S
C692 H694 0.961 . S
C692 H695 0.960 . S
H693 C692 0.961 . S
H694 C692 0.961 . S
H695 C692 0.960 . S
C696 N697 1.342 . S
C696 C700 1.401 . S
C696 C701 1.499 . S
N697 Co680 1.989 1_545 S
N697 C696 1.342 . S
N697 N698 1.392 . S
N698 Co681 1.970 1_545 S
N698 N697 1.392 . S
N698 C699 1.367 . S
C699 N698 1.367 . S
C699 C700 1.396 . S
C699 C709 1.510 . S
C700 C696 1.401 . S
C700 C699 1.396 . S
C701 C696 1.499 . S
C701 H702 0.959 . S
C701 H703 0.960 . S
C701 H704 0.961 . S
H702 C701 0.959 . S
H703 C701 0.960 . S
H704 C701 0.961 . S
O705 Co680 1.967 . S
O705 C713 1.258 . S
O706 Co681 1.941 . S
O706 C713 1.266 . S
H707 C709 0.959 . S
H708 C709 0.961 . S
C709 C699 1.510 . S
C709 H707 0.959 . S
C709 H708 0.961 . S
C709 H710 0.960 . S
H710 C709 0.960 . S
H711 N691 0.862 . S
O712 Co680 1.920 . S
O712 C685 1.289 . S
C713 O705 1.258 . S
C713 O706 1.266 . S
Co714 O717 1.970 . S
Co714 N731 1.989 . S
Co714 O739 1.967 . S
Co714 O746 1.920 . S
Co715 O718 1.966 . S
Co715 N724 2.022 . S
Co715 N732 1.993 . S
Co715 O740 1.941 . S
C716 O717 1.258 . S
C716 O718 1.263 . S
O717 Co714 1.970 . S
O717 C716 1.258 . S
O718 Co715 1.966 . S
O718 C716 1.263 . S
C719 O720 1.235 . S
C719 O746 1.289 . S
O720 C719 1.235 . S
C721 C723 1.400 . S
C721 N724 1.351 . S
C721 C726 1.501 . S
C722 C723 1.387 . S
C722 N725 1.341 . S
C723 C721 1.400 . S
C723 C722 1.387 . S
N724 Co715 2.022 . S
N724 C721 1.351 . S
N724 N725 1.365 . S
N725 C722 1.341 . S
N725 N724 1.365 . S
N725 H745 0.862 . S
C726 C721 1.501 . S
C726 H727 0.961 . S
C726 H728 0.961 . S
C726 H729 0.960 . S
H727 C726 0.961 . S
H728 C726 0.961 . S
H729 C726 0.960 . S
C730 N731 1.342 . S
C730 C734 1.401 . S
C730 C735 1.499 . S
N731 Co714 1.989 . S
N731 C730 1.342 . S
N731 N732 1.388 . S
N732 Co715 1.993 . S
N732 N731 1.388 . S
N732 C733 1.346 . S
C733 N732 1.346 . S
C733 C734 1.396 . S
C733 C743 1.510 . S
C734 C730 1.401 . S
C734 C733 1.396 . S
C735 C730 1.499 . S
C735 H736 0.959 . S
C735 H737 0.960 . S
C735 H738 0.961 . S
H736 C735 0.959 . S
H737 C735 0.960 . S
H738 C735 0.961 . S
O739 Co714 1.967 . S
O739 C747 1.258 . S
O740 Co715 1.941 . S
O740 C747 1.266 . S
H741 C743 0.959 . S
H742 C743 0.961 . S
C743 C733 1.510 . S
C743 H741 0.959 . S
C743 H742 0.961 . S
C743 H744 0.960 . S
H744 C743 0.960 . S
H745 N725 0.862 . S
O746 Co714 1.920 . S
O746 C719 1.289 . S
C747 O739 1.258 . S
C747 O740 1.266 . S
Co748 O751 1.970 . S
Co748 N765 1.989 . S
Co748 O773 1.967 . S
Co748 O780 1.920 . S
Co749 O752 1.966 . S
Co749 N758 2.022 . S
Co749 N766 1.993 . S
Co749 O774 1.941 . S
C750 O751 1.258 . S
C750 O752 1.263 . S
O751 Co748 1.970 . S
O751 C750 1.258 . S
O752 Co749 1.966 . S
O752 C750 1.263 . S
C753 O754 1.235 . S
C753 O780 1.289 . S
O754 C753 1.235 . S
C755 C757 1.400 . S
C755 N758 1.351 . S
C755 C760 1.501 . S
C756 C757 1.387 1_655 S
C756 N759 1.341 . S
C757 C755 1.400 . S
C757 C756 1.387 1_455 S
N758 Co749 2.022 . S
N758 C755 1.351 . S
N758 N759 1.365 1_455 S
N759 C756 1.341 . S
N759 N758 1.365 1_655 S
N759 H779 0.862 . S
C760 C755 1.501 . S
C760 H761 0.961 . S
C760 H762 0.961 . S
C760 H763 0.960 . S
H761 C760 0.961 . S
H762 C760 0.961 . S
H763 C760 0.960 . S
C764 N765 1.342 . S
C764 C768 1.401 . S
C764 C769 1.499 . S
N765 Co748 1.989 . S
N765 C764 1.342 . S
N765 N766 1.388 . S
N766 Co749 1.993 . S
N766 N765 1.388 . S
N766 C767 1.346 . S
C767 N766 1.346 . S
C767 C768 1.396 . S
C767 C777 1.510 . S
C768 C764 1.401 . S
C768 C767 1.396 . S
C769 C764 1.499 . S
C769 H770 0.959 . S
C769 H771 0.960 . S
C769 H772 0.961 . S
H770 C769 0.959 . S
H771 C769 0.960 . S
H772 C769 0.961 . S
O773 Co748 1.967 . S
O773 C781 1.258 . S
O774 Co749 1.941 . S
O774 C781 1.266 . S
H775 C777 0.959 . S
H776 C777 0.961 . S
C777 C767 1.510 . S
C777 H775 0.959 . S
C777 H776 0.961 . S
C777 H778 0.960 . S
H778 C777 0.960 . S
H779 N759 0.862 . S
O780 Co748 1.920 . S
O780 C753 1.289 . S
C781 O773 1.258 . S
C781 O774 1.266 . S
Co782 O785 1.970 . S
Co782 N799 1.989 1_565 S
Co782 O807 1.967 . S
Co782 O814 1.920 . S
Co783 O786 1.966 . S
Co783 N792 2.022 . S
Co783 N800 1.970 1_565 S
Co783 O808 1.941 . S
C784 O785 1.258 . S
C784 O786 1.263 . S
O785 Co782 1.970 . S
O785 C784 1.258 . S
O786 Co783 1.966 . S
O786 C784 1.263 . S
C787 O788 1.235 1_565 S
C787 O814 1.289 . S
O788 C787 1.235 1_545 S
C789 C791 1.400 . S
C789 N792 1.351 . S
C789 C794 1.501 . S
C790 C791 1.387 . S
C790 N793 1.341 . S
C791 C789 1.400 . S
C791 C790 1.387 . S
N792 Co783 2.022 . S
N792 C789 1.351 . S
N792 N793 1.365 . S
N793 C790 1.341 . S
N793 N792 1.365 . S
N793 H813 0.862 . S
C794 C789 1.501 . S
C794 H795 0.961 . S
C794 H796 0.961 . S
C794 H797 0.960 . S
H795 C794 0.961 . S
H796 C794 0.961 . S
H797 C794 0.960 . S
C798 N799 1.342 . S
C798 C802 1.401 . S
C798 C803 1.499 . S
N799 Co782 1.989 1_545 S
N799 C798 1.342 . S
N799 N800 1.392 . S
N800 Co783 1.970 1_545 S
N800 N799 1.392 . S
N800 C801 1.367 . S
C801 N800 1.367 . S
C801 C802 1.396 . S
C801 C811 1.510 . S
C802 C798 1.401 . S
C802 C801 1.396 . S
C803 C798 1.499 . S
C803 H804 0.959 . S
C803 H805 0.960 . S
C803 H806 0.961 . S
H804 C803 0.959 . S
H805 C803 0.960 . S
H806 C803 0.961 . S
O807 Co782 1.967 . S
O807 C815 1.258 . S
O808 Co783 1.941 . S
O808 C815 1.266 . S
H809 C811 0.959 . S
H810 C811 0.961 . S
C811 C801 1.510 . S
C811 H809 0.959 . S
C811 H810 0.961 . S
C811 H812 0.960 . S
H812 C811 0.960 . S
H813 N793 0.862 . S
O814 Co782 1.920 . S
O814 C787 1.289 . S
C815 O807 1.258 . S
C815 O808 1.266 . S
Co816 O819 1.970 . S
Co816 N833 1.989 . S
Co816 O841 1.967 . S
Co816 O848 1.920 . S
Co817 O820 1.966 . S
Co817 N826 2.022 . S
Co817 N834 1.993 . S
Co817 O842 1.941 . S
C818 O819 1.258 . S
C818 O820 1.263 . S
O819 Co816 1.970 . S
O819 C818 1.258 . S
O820 Co817 1.966 . S
O820 C818 1.263 . S
C821 O822 1.235 . S
C821 O848 1.289 . S
O822 C821 1.235 . S
C823 C825 1.400 . S
C823 N826 1.351 . S
C823 C828 1.501 . S
C824 C825 1.387 1_455 S
C824 N827 1.341 . S
C825 C823 1.400 . S
C825 C824 1.387 1_655 S
N826 Co817 2.022 . S
N826 C823 1.351 . S
N826 N827 1.365 1_655 S
N827 C824 1.341 . S
N827 N826 1.365 1_455 S
N827 H847 0.862 . S
C828 C823 1.501 . S
C828 H829 0.961 . S
C828 H830 0.961 . S
C828 H831 0.960 . S
H829 C828 0.961 . S
H830 C828 0.961 . S
H831 C828 0.960 . S
C832 N833 1.342 . S
C832 C836 1.401 . S
C832 C837 1.499 . S
N833 Co816 1.989 . S
N833 C832 1.342 . S
N833 N834 1.388 . S
N834 Co817 1.993 . S
N834 N833 1.388 . S
N834 C835 1.346 . S
C835 N834 1.346 . S
C835 C836 1.396 . S
C835 C845 1.510 . S
C836 C832 1.401 . S
C836 C835 1.396 . S
C837 C832 1.499 . S
C837 H838 0.959 . S
C837 H839 0.960 . S
C837 H840 0.961 . S
H838 C837 0.959 . S
H839 C837 0.960 . S
H840 C837 0.961 . S
O841 Co816 1.967 . S
O841 C849 1.258 . S
O842 Co817 1.941 . S
O842 C849 1.266 . S
H843 C845 0.959 . S
H844 C845 0.961 . S
C845 C835 1.510 . S
C845 H843 0.959 . S
C845 H844 0.961 . S
C845 H846 0.960 . S
H846 C845 0.960 . S
H847 N827 0.862 . S
O848 Co816 1.920 . S
O848 C821 1.289 . S
C849 O841 1.258 . S
C849 O842 1.266 . S
Co850 O853 1.970 . S
Co850 N867 1.989 . S
Co850 O875 1.967 . S
Co850 O882 1.920 . S
Co851 O854 1.966 . S
Co851 N860 2.022 . S
Co851 N868 1.993 . S
Co851 O876 1.941 . S
C852 O853 1.258 . S
C852 O854 1.263 . S
O853 Co850 1.970 . S
O853 C852 1.258 . S
O854 Co851 1.966 . S
O854 C852 1.263 . S
C855 O856 1.235 . S
C855 O882 1.289 . S
O856 C855 1.235 . S
C857 C859 1.400 . S
C857 N860 1.351 . S
C857 C862 1.501 . S
C858 C859 1.387 . S
C858 N861 1.341 . S
C859 C857 1.400 . S
C859 C858 1.387 . S
N860 Co851 2.022 . S
N860 C857 1.351 . S
N860 N861 1.365 . S
N861 C858 1.341 . S
N861 N860 1.365 . S
N861 H881 0.862 . S
C862 C857 1.501 . S
C862 H863 0.961 . S
C862 H864 0.961 . S
C862 H865 0.960 . S
H863 C862 0.961 . S
H864 C862 0.961 . S
H865 C862 0.960 . S
C866 N867 1.342 . S
C866 C870 1.401 . S
C866 C871 1.499 . S
N867 Co850 1.989 . S
N867 C866 1.342 . S
N867 N868 1.388 . S
N868 Co851 1.993 . S
N868 N867 1.388 . S
N868 C869 1.346 . S
C869 N868 1.346 . S
C869 C870 1.396 . S
C869 C879 1.510 . S
C870 C866 1.401 . S
C870 C869 1.396 . S
C871 C866 1.499 . S
C871 H872 0.959 . S
C871 H873 0.960 . S
C871 H874 0.961 . S
H872 C871 0.959 . S
H873 C871 0.960 . S
H874 C871 0.961 . S
O875 Co850 1.967 . S
O875 C883 1.258 . S
O876 Co851 1.941 . S
O876 C883 1.266 . S
H877 C879 0.959 . S
H878 C879 0.961 . S
C879 C869 1.510 . S
C879 H877 0.959 . S
C879 H878 0.961 . S
C879 H880 0.960 . S
H880 C879 0.960 . S
H881 N861 0.862 . S
O882 Co850 1.920 . S
O882 C855 1.289 . S
C883 O875 1.258 . S
C883 O876 1.266 . S
Co884 O887 1.970 . S
Co884 N901 1.989 . S
Co884 O909 1.967 . S
Co884 O916 1.920 . S
Co885 O888 1.966 . S
Co885 N894 2.022 . S
Co885 N902 1.993 . S
Co885 O910 1.941 . S
C886 O887 1.258 . S
C886 O888 1.263 . S
O887 Co884 1.970 . S
O887 C886 1.258 . S
O888 Co885 1.966 . S
O888 C886 1.263 . S
C889 O890 1.235 . S
C889 O916 1.289 . S
O890 C889 1.235 . S
C891 C893 1.400 . S
C891 N894 1.351 . S
C891 C896 1.501 . S
C892 C893 1.387 1_455 S
C892 N895 1.341 . S
C893 C891 1.400 . S
C893 C892 1.387 1_655 S
N894 Co885 2.022 . S
N894 C891 1.351 . S
N894 N895 1.365 1_655 S
N895 C892 1.341 . S
N895 N894 1.365 1_455 S
N895 H915 0.862 . S
C896 C891 1.501 . S
C896 H897 0.961 . S
C896 H898 0.961 . S
C896 H899 0.960 . S
H897 C896 0.961 . S
H898 C896 0.961 . S
H899 C896 0.960 . S
C900 N901 1.342 . S
C900 C904 1.401 . S
C900 C905 1.499 . S
N901 Co884 1.989 . S
N901 C900 1.342 . S
N901 N902 1.388 . S
N902 Co885 1.993 . S
N902 N901 1.388 . S
N902 C903 1.346 . S
C903 N902 1.346 . S
C903 C904 1.396 . S
C903 C913 1.510 . S
C904 C900 1.401 . S
C904 C903 1.396 . S
C905 C900 1.499 . S
C905 H906 0.959 . S
C905 H907 0.960 . S
C905 H908 0.961 . S
H906 C905 0.959 . S
H907 C905 0.960 . S
H908 C905 0.961 . S
O909 Co884 1.967 . S
O909 C917 1.258 . S
O910 Co885 1.941 . S
O910 C917 1.266 . S
H911 C913 0.959 . S
H912 C913 0.961 . S
C913 C903 1.510 . S
C913 H911 0.959 . S
C913 H912 0.961 . S
C913 H914 0.960 . S
H914 C913 0.960 . S
H915 N895 0.862 . S
O916 Co884 1.920 . S
O916 C889 1.289 . S
C917 O909 1.258 . S
C917 O910 1.266 . S
Co918 O921 1.970 . S
Co918 N935 1.989 . S
Co918 O943 1.967 . S
Co918 O950 1.920 . S
Co919 O922 1.966 . S
Co919 N928 2.022 . S
Co919 N936 1.993 . S
Co919 O944 1.941 . S
C920 O921 1.258 . S
C920 O922 1.263 . S
O921 Co918 1.970 . S
O921 C920 1.258 . S
O922 Co919 1.966 . S
O922 C920 1.263 . S
C923 O924 1.235 . S
C923 O950 1.289 . S
O924 C923 1.235 . S
C925 C927 1.400 . S
C925 N928 1.351 . S
C925 C930 1.501 . S
C926 C927 1.387 . S
C926 N929 1.341 . S
C927 C925 1.400 . S
C927 C926 1.387 . S
N928 Co919 2.022 . S
N928 C925 1.351 . S
N928 N929 1.365 . S
N929 C926 1.341 . S
N929 N928 1.365 . S
N929 H949 0.862 . S
C930 C925 1.501 . S
C930 H931 0.961 . S
C930 H932 0.961 . S
C930 H933 0.960 . S
H931 C930 0.961 . S
H932 C930 0.961 . S
H933 C930 0.960 . S
C934 N935 1.342 . S
C934 C938 1.401 . S
C934 C939 1.499 . S
N935 Co918 1.989 . S
N935 C934 1.342 . S
N935 N936 1.388 . S
N936 Co919 1.993 . S
N936 N935 1.388 . S
N936 C937 1.346 . S
C937 N936 1.346 . S
C937 C938 1.396 . S
C937 C947 1.510 . S
C938 C934 1.401 . S
C938 C937 1.396 . S
C939 C934 1.499 . S
C939 H940 0.959 . S
C939 H941 0.960 . S
C939 H942 0.961 . S
H940 C939 0.959 . S
H941 C939 0.960 . S
H942 C939 0.961 . S
O943 Co918 1.967 . S
O943 C951 1.258 . S
O944 Co919 1.941 . S
O944 C951 1.266 . S
H945 C947 0.959 . S
H946 C947 0.961 . S
C947 C937 1.510 . S
C947 H945 0.959 . S
C947 H946 0.961 . S
C947 H948 0.960 . S
H948 C947 0.960 . S
H949 N929 0.862 . S
O950 Co918 1.920 . S
O950 C923 1.289 . S
C951 O943 1.258 . S
C951 O944 1.266 . S
Co952 O955 1.970 . S
Co952 N969 1.989 . S
Co952 O977 1.967 . S
Co952 O984 1.920 . S
Co953 O956 1.966 . S
Co953 N962 2.022 . S
Co953 N970 1.993 . S
Co953 O978 1.941 . S
C954 O955 1.258 . S
C954 O956 1.263 . S
O955 Co952 1.970 . S
O955 C954 1.258 . S
O956 Co953 1.966 . S
O956 C954 1.263 . S
C957 O958 1.235 . S
C957 O984 1.289 . S
O958 C957 1.235 . S
C959 C961 1.400 . S
C959 N962 1.351 . S
C959 C964 1.501 . S
C960 C961 1.387 1_655 S
C960 N963 1.341 . S
C961 C959 1.400 . S
C961 C960 1.387 1_455 S
N962 Co953 2.022 . S
N962 C959 1.351 . S
N962 N963 1.365 1_455 S
N963 C960 1.341 . S
N963 N962 1.365 1_655 S
N963 H983 0.862 . S
C964 C959 1.501 . S
C964 H965 0.961 . S
C964 H966 0.961 . S
C964 H967 0.960 . S
H965 C964 0.961 . S
H966 C964 0.961 . S
H967 C964 0.960 . S
C968 N969 1.342 . S
C968 C972 1.401 . S
C968 C973 1.499 . S
N969 Co952 1.989 . S
N969 C968 1.342 . S
N969 N970 1.388 . S
N970 Co953 1.993 . S
N970 N969 1.388 . S
N970 C971 1.346 . S
C971 N970 1.346 . S
C971 C972 1.396 . S
C971 C981 1.510 . S
C972 C968 1.401 . S
C972 C971 1.396 . S
C973 C968 1.499 . S
C973 H974 0.959 . S
C973 H975 0.960 . S
C973 H976 0.961 . S
H974 C973 0.959 . S
H975 C973 0.960 . S
H976 C973 0.961 . S
O977 Co952 1.967 . S
O977 C985 1.258 . S
O978 Co953 1.941 . S
O978 C985 1.266 . S
H979 C981 0.959 . S
H980 C981 0.961 . S
C981 C971 1.510 . S
C981 H979 0.959 . S
C981 H980 0.961 . S
C981 H982 0.960 . S
H982 C981 0.960 . S
H983 N963 0.862 . S
O984 Co952 1.920 . S
O984 C957 1.289 . S
C985 O977 1.258 . S
C985 O978 1.266 . S
Co986 O989 1.970 . S
Co986 N1003 1.989 . S
Co986 O1011 1.967 . S
Co986 O1018 1.920 . S
Co987 O990 1.966 . S
Co987 N996 2.022 . S
Co987 N1004 1.993 . S
Co987 O1012 1.941 . S
C988 O989 1.258 . S
C988 O990 1.263 . S
O989 Co986 1.970 . S
O989 C988 1.258 . S
O990 Co987 1.966 . S
O990 C988 1.263 . S
C991 O992 1.235 . S
C991 O1018 1.289 . S
O992 C991 1.235 . S
C993 C995 1.400 . S
C993 N996 1.351 . S
C993 C998 1.501 . S
C994 C995 1.387 . S
C994 N997 1.341 . S
C995 C993 1.400 . S
C995 C994 1.387 . S
N996 Co987 2.022 . S
N996 C993 1.351 . S
N996 N997 1.365 . S
N997 C994 1.341 . S
N997 N996 1.365 . S
N997 H1017 0.862 . S
C998 C993 1.501 . S
C998 H999 0.961 . S
C998 H1000 0.961 . S
C998 H1001 0.960 . S
H999 C998 0.961 . S
H1000 C998 0.961 . S
H1001 C998 0.960 . S
C1002 N1003 1.342 . S
C1002 C1006 1.401 . S
C1002 C1007 1.499 . S
N1003 Co986 1.989 . S
N1003 C1002 1.342 . S
N1003 N1004 1.388 . S
N1004 Co987 1.993 . S
N1004 N1003 1.388 . S
N1004 C1005 1.346 . S
C1005 N1004 1.346 . S
C1005 C1006 1.396 . S
C1005 C1015 1.510 . S
C1006 C1002 1.401 . S
C1006 C1005 1.396 . S
C1007 C1002 1.499 . S
C1007 H1008 0.959 . S
C1007 H1009 0.960 . S
C1007 H1010 0.961 . S
H1008 C1007 0.959 . S
H1009 C1007 0.960 . S
H1010 C1007 0.961 . S
O1011 Co986 1.967 . S
O1011 C1019 1.258 . S
O1012 Co987 1.941 . S
O1012 C1019 1.266 . S
H1013 C1015 0.959 . S
H1014 C1015 0.961 . S
C1015 C1005 1.510 . S
C1015 H1013 0.959 . S
C1015 H1014 0.961 . S
C1015 H1016 0.960 . S
H1016 C1015 0.960 . S
H1017 N997 0.862 . S
O1018 Co986 1.920 . S
O1018 C991 1.289 . S
C1019 O1011 1.258 . S
C1019 O1012 1.266 . S
Co1020 O1023 1.970 . S
Co1020 N1037 1.989 . S
Co1020 O1045 1.967 . S
Co1020 O1052 1.920 . S
Co1021 O1024 1.966 . S
Co1021 N1030 2.022 . S
Co1021 N1038 1.993 . S
Co1021 O1046 1.941 . S
C1022 O1023 1.258 . S
C1022 O1024 1.263 . S
O1023 Co1020 1.970 . S
O1023 C1022 1.258 . S
O1024 Co1021 1.966 . S
O1024 C1022 1.263 . S
C1025 O1026 1.235 . S
C1025 O1052 1.289 . S
O1026 C1025 1.235 . S
C1027 C1029 1.400 . S
C1027 N1030 1.351 . S
C1027 C1032 1.501 . S
C1028 C1029 1.387 1_655 S
C1028 N1031 1.341 . S
C1029 C1027 1.400 . S
C1029 C1028 1.387 1_455 S
N1030 Co1021 2.022 . S
N1030 C1027 1.351 . S
N1030 N1031 1.365 1_455 S
N1031 C1028 1.341 . S
N1031 N1030 1.365 1_655 S
N1031 H1051 0.862 . S
C1032 C1027 1.501 . S
C1032 H1033 0.961 . S
C1032 H1034 0.961 . S
C1032 H1035 0.960 . S
H1033 C1032 0.961 . S
H1034 C1032 0.961 . S
H1035 C1032 0.960 . S
C1036 N1037 1.342 . S
C1036 C1040 1.401 . S
C1036 C1041 1.499 . S
N1037 Co1020 1.989 . S
N1037 C1036 1.342 . S
N1037 N1038 1.388 . S
N1038 Co1021 1.993 . S
N1038 N1037 1.388 . S
N1038 C1039 1.346 . S
C1039 N1038 1.346 . S
C1039 C1040 1.396 . S
C1039 C1049 1.510 . S
C1040 C1036 1.401 . S
C1040 C1039 1.396 . S
C1041 C1036 1.499 . S
C1041 H1042 0.959 . S
C1041 H1043 0.960 . S
C1041 H1044 0.961 . S
H1042 C1041 0.959 . S
H1043 C1041 0.960 . S
H1044 C1041 0.961 . S
O1045 Co1020 1.967 . S
O1045 C1053 1.258 . S
O1046 Co1021 1.941 . S
O1046 C1053 1.266 . S
H1047 C1049 0.959 . S
H1048 C1049 0.961 . S
C1049 C1039 1.510 . S
C1049 H1047 0.959 . S
C1049 H1048 0.961 . S
C1049 H1050 0.960 . S
H1050 C1049 0.960 . S
H1051 N1031 0.862 . S
O1052 Co1020 1.920 . S
O1052 C1025 1.289 . S
C1053 O1045 1.258 . S
C1053 O1046 1.266 . S
Co1054 O1057 1.970 . S
Co1054 N1071 1.989 . S
Co1054 O1079 1.967 . S
Co1054 O1086 1.920 . S
Co1055 O1058 1.966 . S
Co1055 N1064 2.022 . S
Co1055 N1072 1.993 . S
Co1055 O1080 1.941 . S
C1056 O1057 1.258 . S
C1056 O1058 1.263 . S
O1057 Co1054 1.970 . S
O1057 C1056 1.258 . S
O1058 Co1055 1.966 . S
O1058 C1056 1.263 . S
C1059 O1060 1.235 . S
C1059 O1086 1.289 . S
O1060 C1059 1.235 . S
C1061 C1063 1.400 . S
C1061 N1064 1.351 . S
C1061 C1066 1.501 . S
C1062 C1063 1.387 . S
C1062 N1065 1.341 . S
C1063 C1061 1.400 . S
C1063 C1062 1.387 . S
N1064 Co1055 2.022 . S
N1064 C1061 1.351 . S
N1064 N1065 1.365 . S
N1065 C1062 1.341 . S
N1065 N1064 1.365 . S
N1065 H1085 0.862 . S
C1066 C1061 1.501 . S
C1066 H1067 0.961 . S
C1066 H1068 0.961 . S
C1066 H1069 0.960 . S
H1067 C1066 0.961 . S
H1068 C1066 0.961 . S
H1069 C1066 0.960 . S
C1070 N1071 1.342 . S
C1070 C1074 1.401 . S
C1070 C1075 1.499 . S
N1071 Co1054 1.989 . S
N1071 C1070 1.342 . S
N1071 N1072 1.388 . S
N1072 Co1055 1.993 . S
N1072 N1071 1.388 . S
N1072 C1073 1.346 . S
C1073 N1072 1.346 . S
C1073 C1074 1.396 . S
C1073 C1083 1.510 . S
C1074 C1070 1.401 . S
C1074 C1073 1.396 . S
C1075 C1070 1.499 . S
C1075 H1076 0.959 . S
C1075 H1077 0.960 . S
C1075 H1078 0.961 . S
H1076 C1075 0.959 . S
H1077 C1075 0.960 . S
H1078 C1075 0.961 . S
O1079 Co1054 1.967 . S
O1079 C1087 1.258 . S
O1080 Co1055 1.941 . S
O1080 C1087 1.266 . S
H1081 C1083 0.959 . S
H1082 C1083 0.961 . S
C1083 C1073 1.510 . S
C1083 H1081 0.959 . S
C1083 H1082 0.961 . S
C1083 H1084 0.960 . S
H1084 C1083 0.960 . S
H1085 N1065 0.862 . S
O1086 Co1054 1.920 . S
O1086 C1059 1.289 . S
C1087 O1079 1.258 . S
C1087 O1080 1.266 . S
C1088 C1089 1.369 1_556 S
C1088 C1090 1.419 . S
C1088 H1092 0.930 . S
C1089 C1088 1.369 1_554 S
C1089 C1098 1.429 1_545 S
C1090 C1088 1.419 . S
C1090 C1091 1.363 1_545 S
C1090 H1093 0.929 . S
C1091 C1090 1.363 1_565 S
C1091 C1097 1.428 1_556 S
H1092 C1088 0.930 . S
H1093 C1090 0.929 . S
S1094 N1095 1.613 . S
S1094 N1096 1.610 . S
N1095 S1094 1.613 . S
N1095 C1098 1.350 . S
N1096 S1094 1.610 . S
N1096 C1097 1.351 . S
C1097 C1091 1.428 1_554 S
C1097 N1096 1.351 . S
C1097 C1098 1.434 . S
C1098 C1089 1.429 1_565 S
C1098 N1095 1.350 . S
C1098 C1097 1.434 . S
C1099 C1100 1.369 . S
C1099 C1101 1.419 1_556 S
C1099 H1103 0.930 . S
C1100 C1099 1.369 . S
C1100 C1109 1.429 . S
C1101 C1099 1.419 1_554 S
C1101 C1102 1.363 . S
C1101 H1104 0.929 . S
C1102 C1101 1.363 . S
C1102 C1108 1.428 . S
H1103 C1099 0.930 . S
H1104 C1101 0.929 . S
S1105 N1106 1.613 . S
S1105 N1107 1.610 1_556 S
N1106 S1105 1.613 . S
N1106 C1109 1.350 . S
N1107 S1105 1.610 1_554 S
N1107 C1108 1.351 . S
C1108 C1102 1.428 . S
C1108 N1107 1.351 . S
C1108 C1109 1.434 1_554 S
C1109 C1100 1.429 . S
C1109 N1106 1.350 . S
C1109 C1108 1.434 1_556 S
C1110 C1111 1.369 . S
C1110 C1112 1.419 . S
C1110 H1114 0.930 . S
C1111 C1110 1.369 . S
C1111 C1120 1.429 . S
C1112 C1110 1.419 . S
C1112 C1113 1.363 . S
C1112 H1115 0.929 . S
C1113 C1112 1.363 . S
C1113 C1119 1.428 . S
H1114 C1110 0.930 . S
H1115 C1112 0.929 . S
S1116 N1117 1.613 . S
S1116 N1118 1.610 . S
N1117 S1116 1.613 . S
N1117 C1120 1.350 . S
N1118 S1116 1.610 . S
N1118 C1119 1.351 . S
C1119 C1113 1.428 . S
C1119 N1118 1.351 . S
C1119 C1120 1.434 . S
C1120 C1111 1.429 . S
C1120 N1117 1.350 . S
C1120 C1119 1.434 . S
C1121 C1122 1.369 . S
C1121 C1123 1.419 . S
C1121 H1125 0.930 . S
C1122 C1121 1.369 . S
C1122 C1131 1.429 1_565 S
C1123 C1121 1.419 . S
C1123 C1124 1.363 1_565 S
C1123 H1126 0.929 . S
C1124 C1123 1.363 1_545 S
C1124 C1130 1.428 . S
H1125 C1121 0.930 . S
H1126 C1123 0.929 . S
S1127 N1128 1.613 . S
S1127 N1129 1.610 . S
N1128 S1127 1.613 . S
N1128 C1131 1.350 . S
N1129 S1127 1.610 . S
N1129 C1130 1.351 . S
C1130 C1124 1.428 . S
C1130 N1129 1.351 . S
C1130 C1131 1.434 . S
C1131 C1122 1.429 1_545 S
C1131 N1128 1.350 . S
C1131 C1130 1.434 . S
C1132 C1133 1.369 . S
C1132 C1134 1.419 1_556 S
C1132 H1136 0.930 . S
C1133 C1132 1.369 . S
C1133 C1142 1.429 . S
C1134 C1132 1.419 1_554 S
C1134 C1135 1.363 . S
C1134 H1137 0.929 . S
C1135 C1134 1.363 . S
C1135 C1141 1.428 . S
H1136 C1132 0.930 . S
H1137 C1134 0.929 . S
S1138 N1139 1.613 . S
S1138 N1140 1.610 1_556 S
N1139 S1138 1.613 . S
N1139 C1142 1.350 . S
N1140 S1138 1.610 1_554 S
N1140 C1141 1.351 . S
C1141 C1135 1.428 . S
C1141 N1140 1.351 . S
C1141 C1142 1.434 1_554 S
C1142 C1133 1.429 . S
C1142 N1139 1.350 . S
C1142 C1141 1.434 1_556 S
C1143 C1144 1.369 . S
C1143 C1145 1.419 . S
C1143 H1147 0.930 . S
C1144 C1143 1.369 . S
C1144 C1153 1.429 . S
C1145 C1143 1.419 . S
C1145 C1146 1.363 . S
C1145 H1148 0.929 . S
C1146 C1145 1.363 . S
C1146 C1152 1.428 . S
H1147 C1143 0.930 . S
H1148 C1145 0.929 . S
S1149 N1150 1.613 . S
S1149 N1151 1.610 . S
N1150 S1149 1.613 . S
N1150 C1153 1.350 . S
N1151 S1149 1.610 . S
N1151 C1152 1.351 . S
C1152 C1146 1.428 . S
C1152 N1151 1.351 . S
C1152 C1153 1.434 . S
C1153 C1144 1.429 . S
C1153 N1150 1.350 . S
C1153 C1152 1.434 . S
C1154 C1155 1.369 . S
C1154 C1156 1.419 . S
C1154 H1158 0.930 . S
C1155 C1154 1.369 . S
C1155 C1164 1.429 1_565 S
C1156 C1154 1.419 . S
C1156 C1157 1.363 1_565 S
C1156 H1159 0.929 . S
C1157 C1156 1.363 1_545 S
C1157 C1163 1.428 . S
H1158 C1154 0.930 . S
H1159 C1156 0.929 . S
S1160 N1161 1.613 . S
S1160 N1162 1.610 . S
N1161 S1160 1.613 . S
N1161 C1164 1.350 . S
N1162 S1160 1.610 . S
N1162 C1163 1.351 . S
C1163 C1157 1.428 . S
C1163 N1162 1.351 . S
C1163 C1164 1.434 . S
C1164 C1155 1.429 1_545 S
C1164 N1161 1.350 . S
C1164 C1163 1.434 . S
C1165 C1166 1.369 . S
C1165 C1167 1.419 . S
C1165 H1169 0.930 . S
C1166 C1165 1.369 . S
C1166 C1175 1.429 . S
C1167 C1165 1.419 . S
C1167 C1168 1.363 . S
C1167 H1170 0.929 . S
C1168 C1167 1.363 . S
C1168 C1174 1.428 . S
H1169 C1165 0.930 . S
H1170 C1167 0.929 . S
S1171 N1172 1.613 . S
S1171 N1173 1.610 . S
N1172 S1171 1.613 . S
N1172 C1175 1.350 . S
N1173 S1171 1.610 . S
N1173 C1174 1.351 . S
C1174 C1168 1.428 . S
C1174 N1173 1.351 . S
C1174 C1175 1.434 . S
C1175 C1166 1.429 . S
C1175 N1172 1.350 . S
C1175 C1174 1.434 . S
C1176 C1177 1.369 . S
C1176 C1178 1.419 . S
C1176 H1180 0.930 . S
C1177 C1176 1.369 . S
C1177 C1186 1.429 . S
C1178 C1176 1.419 . S
C1178 C1179 1.363 . S
C1178 H1181 0.929 . S
C1179 C1178 1.363 . S
C1179 C1185 1.428 . S
H1180 C1176 0.930 . S
H1181 C1178 0.929 . S
S1182 N1183 1.613 . S
S1182 N1184 1.610 . S
N1183 S1182 1.613 . S
N1183 C1186 1.350 . S
N1184 S1182 1.610 . S
N1184 C1185 1.351 . S
C1185 C1179 1.428 . S
C1185 N1184 1.351 . S
C1185 C1186 1.434 . S
C1186 C1177 1.429 . S
C1186 N1183 1.350 . S
C1186 C1185 1.434 . S
C1187 C1188 1.369 . S
C1187 C1189 1.419 . S
C1187 H1191 0.930 . S
C1188 C1187 1.369 . S
C1188 C1197 1.429 . S
C1189 C1187 1.419 . S
C1189 C1190 1.363 . S
C1189 H1192 0.929 . S
C1190 C1189 1.363 . S
C1190 C1196 1.428 . S
H1191 C1187 0.930 . S
H1192 C1189 0.929 . S
S1193 N1194 1.613 . S
S1193 N1195 1.610 . S
N1194 S1193 1.613 . S
N1194 C1197 1.350 . S
N1195 S1193 1.610 . S
N1195 C1196 1.351 . S
C1196 C1190 1.428 . S
C1196 N1195 1.351 . S
C1196 C1197 1.434 . S
C1197 C1188 1.429 . S
C1197 N1194 1.350 . S
C1197 C1196 1.434 . S
C1198 C1199 1.369 . S
C1198 C1200 1.419 . S
C1198 H1202 0.930 . S
C1199 C1198 1.369 . S
C1199 C1208 1.429 . S
C1200 C1198 1.419 . S
C1200 C1201 1.363 . S
C1200 H1203 0.929 . S
C1201 C1200 1.363 . S
C1201 C1207 1.428 . S
H1202 C1198 0.930 . S
H1203 C1200 0.929 . S
S1204 N1205 1.613 . S
S1204 N1206 1.610 . S
N1205 S1204 1.613 . S
N1205 C1208 1.350 . S
N1206 S1204 1.610 . S
N1206 C1207 1.351 . S
C1207 C1201 1.428 . S
C1207 N1206 1.351 . S
C1207 C1208 1.434 . S
C1208 C1199 1.429 . S
C1208 N1205 1.350 . S
C1208 C1207 1.434 . S
C1209 C1210 1.369 . S
C1209 C1211 1.419 . S
C1209 H1213 0.930 . S
C1210 C1209 1.369 . S
C1210 C1219 1.429 . S
C1211 C1209 1.419 . S
C1211 C1212 1.363 . S
C1211 H1214 0.929 . S
C1212 C1211 1.363 . S
C1212 C1218 1.428 . S
H1213 C1209 0.930 . S
H1214 C1211 0.929 . S
S1215 N1216 1.613 . S
S1215 N1217 1.610 . S
N1216 S1215 1.613 . S
N1216 C1219 1.350 . S
N1217 S1215 1.610 . S
N1217 C1218 1.351 . S
C1218 C1212 1.428 . S
C1218 N1217 1.351 . S
C1218 C1219 1.434 . S
C1219 C1210 1.429 . S
C1219 N1216 1.350 . S
C1219 C1218 1.434 . S
C1220 C1221 1.369 1_655 S
C1220 C1222 1.419 1_565 S
C1220 H1224 0.930 . S
C1221 C1220 1.369 1_455 S
C1221 C1230 1.429 . S
C1222 C1220 1.419 1_545 S
C1222 C1223 1.363 . S
C1222 H1225 0.929 . S
C1223 C1222 1.363 . S
C1223 C1229 1.428 1_655 S
H1224 C1220 0.930 . S
H1225 C1222 0.929 . S
S1226 N1227 1.613 1_545 S
S1226 N1228 1.610 . S
N1227 S1226 1.613 1_565 S
N1227 C1230 1.350 . S
N1228 S1226 1.610 . S
N1228 C1229 1.351 . S
C1229 C1223 1.428 1_455 S
C1229 N1228 1.351 . S
C1229 C1230 1.434 1_545 S
C1230 C1221 1.429 . S
C1230 N1227 1.350 . S
C1230 C1229 1.434 1_565 S
C1231 C1232 1.369 1_455 S
C1231 C1233 1.419 . S
C1231 H1235 0.930 . S
C1232 C1231 1.369 1_655 S
C1232 C1241 1.429 . S
C1233 C1231 1.419 . S
C1233 C1234 1.363 . S
C1233 H1236 0.929 . S
C1234 C1233 1.363 . S
C1234 C1240 1.428 1_455 S
H1235 C1231 0.930 . S
H1236 C1233 0.929 . S
S1237 N1238 1.613 . S
S1237 N1239 1.610 . S
N1238 S1237 1.613 . S
N1238 C1241 1.350 . S
N1239 S1237 1.610 . S
N1239 C1240 1.351 . S
C1240 C1234 1.428 1_655 S
C1240 N1239 1.351 . S
C1240 C1241 1.434 . S
C1241 C1232 1.429 . S
C1241 N1238 1.350 . S
C1241 C1240 1.434 . S
C1242 C1243 1.370 . S
C1242 C1244 1.418 1_455 S
C1242 H1246 0.930 . S
C1243 C1242 1.370 . S
C1243 C1252 1.429 . S
C1244 C1242 1.418 1_655 S
C1244 C1245 1.363 . S
C1244 H1247 0.929 . S
C1245 C1244 1.363 . S
C1245 C1251 1.428 1_655 S
H1246 C1242 0.930 . S
H1247 C1244 0.929 . S
S1248 N1249 1.613 . S
S1248 N1250 1.610 . S
N1249 S1248 1.613 . S
N1249 C1252 1.350 . S
N1250 S1248 1.610 . S
N1250 C1251 1.351 . S
C1251 C1245 1.428 1_455 S
C1251 N1250 1.351 . S
C1251 C1252 1.434 . S
C1252 C1243 1.429 . S
C1252 N1249 1.350 . S
C1252 C1251 1.434 . S
C1253 C1254 1.314 1_456 S
C1253 C1255 1.468 . S
C1253 H1257 0.939 . S
C1254 C1253 1.314 1_654 S
C1254 C1263 1.429 . S
C1255 C1253 1.468 . S
C1255 C1256 1.363 . S
C1255 H1258 0.929 . S
C1256 C1255 1.363 . S
C1256 C1262 1.428 1_456 S
H1257 C1253 0.939 . S
H1258 C1255 0.929 . S
S1259 N1260 1.613 . S
S1259 N1261 1.610 . S
N1260 S1259 1.613 . S
N1260 C1263 1.350 . S
N1261 S1259 1.610 . S
N1261 C1262 1.351 . S
C1262 C1256 1.428 1_654 S
C1262 N1261 1.351 . S
C1262 C1263 1.434 . S
C1263 C1254 1.429 . S
C1263 N1260 1.350 . S
C1263 C1262 1.434 . S
C1264 C1265 1.369 1_565 S
C1264 C1266 1.419 . S
C1264 H1268 0.930 . S
C1265 C1264 1.369 1_545 S
C1265 C1274 1.429 . S
C1266 C1264 1.419 . S
C1266 C1267 1.363 1_565 S
C1266 H1269 0.929 . S
C1267 C1266 1.363 1_545 S
C1267 C1273 1.428 . S
H1268 C1264 0.930 . S
H1269 C1266 0.929 . S
S1270 N1271 1.613 . S
S1270 N1272 1.610 . S
N1271 S1270 1.613 . S
N1271 C1274 1.350 . S
N1272 S1270 1.610 . S
N1272 C1273 1.351 . S
C1273 C1267 1.428 . S
C1273 N1272 1.351 . S
C1273 C1274 1.434 . S
C1274 C1265 1.429 . S
C1274 N1271 1.350 . S
C1274 C1273 1.434 . S
C1275 C1276 1.369 . S
C1275 C1277 1.419 . S
C1275 H1279 0.930 . S
C1276 C1275 1.369 . S
C1276 C1285 1.429 . S
C1277 C1275 1.419 . S
C1277 C1278 1.363 . S
C1277 H1280 0.929 . S
C1278 C1277 1.363 . S
C1278 C1284 1.428 . S
H1279 C1275 0.930 . S
H1280 C1277 0.929 . S
S1281 N1282 1.613 . S
S1281 N1283 1.610 . S
N1282 S1281 1.613 . S
N1282 C1285 1.350 . S
N1283 S1281 1.610 . S
N1283 C1284 1.351 . S
C1284 C1278 1.428 . S
C1284 N1283 1.351 . S
C1284 C1285 1.434 . S
C1285 C1276 1.429 . S
C1285 N1282 1.350 . S
C1285 C1284 1.434 . S
C1286 C1287 1.369 . S
C1286 C1288 1.419 . S
C1286 H1290 0.930 . S
C1287 C1286 1.369 . S
C1287 C1296 1.429 . S
C1288 C1286 1.419 . S
C1288 C1289 1.363 . S
C1288 H1291 0.929 . S
C1289 C1288 1.363 . S
C1289 C1295 1.428 . S
H1290 C1286 0.930 . S
H1291 C1288 0.929 . S
S1292 N1293 1.613 . S
S1292 N1294 1.610 . S
N1293 S1292 1.613 . S
N1293 C1296 1.350 . S
N1294 S1292 1.610 . S
N1294 C1295 1.351 . S
C1295 C1289 1.428 . S
C1295 N1294 1.351 . S
C1295 C1296 1.434 . S
C1296 C1287 1.429 . S
C1296 N1293 1.350 . S
C1296 C1295 1.434 . S
C1297 C1298 1.369 . S
C1297 C1299 1.419 . S
C1297 H1301 0.930 . S
C1298 C1297 1.369 . S
C1298 C1307 1.429 . S
C1299 C1297 1.419 . S
C1299 C1300 1.363 . S
C1299 H1302 0.929 . S
C1300 C1299 1.363 . S
C1300 C1306 1.428 . S
H1301 C1297 0.930 . S
H1302 C1299 0.929 . S
S1303 N1304 1.613 . S
S1303 N1305 1.610 . S
N1304 S1303 1.613 . S
N1304 C1307 1.350 . S
N1305 S1303 1.610 . S
N1305 C1306 1.351 . S
C1306 C1300 1.428 . S
C1306 N1305 1.351 . S
C1306 C1307 1.434 . S
C1307 C1298 1.429 . S
C1307 N1304 1.350 . S
C1307 C1306 1.434 . S
C1308 C1309 1.369 . S
C1308 C1310 1.419 . S
C1308 H1312 0.930 . S
C1309 C1308 1.369 . S
C1309 C1318 1.429 . S
C1310 C1308 1.419 . S
C1310 C1311 1.363 . S
C1310 H1313 0.929 . S
C1311 C1310 1.363 . S
C1311 C1317 1.428 . S
H1312 C1308 0.930 . S
H1313 C1310 0.929 . S
S1314 N1315 1.613 . S
S1314 N1316 1.610 . S
N1315 S1314 1.613 . S
N1315 C1318 1.350 . S
N1316 S1314 1.610 . S
N1316 C1317 1.351 . S
C1317 C1311 1.428 . S
C1317 N1316 1.351 . S
C1317 C1318 1.434 . S
C1318 C1309 1.429 . S
C1318 N1315 1.350 . S
C1318 C1317 1.434 . S
C1319 C1320 1.369 . S
C1319 C1321 1.419 . S
C1319 H1323 0.930 . S
C1320 C1319 1.369 . S
C1320 C1329 1.429 . S
C1321 C1319 1.419 . S
C1321 C1322 1.363 . S
C1321 H1324 0.929 . S
C1322 C1321 1.363 . S
C1322 C1328 1.428 . S
H1323 C1319 0.930 . S
H1324 C1321 0.929 . S
S1325 N1326 1.613 . S
S1325 N1327 1.610 . S
N1326 S1325 1.613 . S
N1326 C1329 1.350 . S
N1327 S1325 1.610 . S
N1327 C1328 1.351 . S
C1328 C1322 1.428 . S
C1328 N1327 1.351 . S
C1328 C1329 1.434 . S
C1329 C1320 1.429 . S
C1329 N1326 1.350 . S
C1329 C1328 1.434 . S
C1330 C1331 1.369 . S
C1330 C1332 1.419 . S
C1330 H1334 0.930 . S
C1331 C1330 1.369 . S
C1331 C1340 1.429 . S
C1332 C1330 1.419 . S
C1332 C1333 1.363 . S
C1332 H1335 0.929 . S
C1333 C1332 1.363 . S
C1333 C1339 1.428 . S
H1334 C1330 0.930 . S
H1335 C1332 0.929 . S
S1336 N1337 1.613 . S
S1336 N1338 1.610 . S
N1337 S1336 1.613 . S
N1337 C1340 1.350 . S
N1338 S1336 1.610 . S
N1338 C1339 1.351 . S
C1339 C1333 1.428 . S
C1339 N1338 1.351 . S
C1339 C1340 1.434 . S
C1340 C1331 1.429 . S
C1340 N1337 1.350 . S
C1340 C1339 1.434 . S
C1341 C1342 1.369 . S
C1341 C1343 1.419 . S
C1341 H1345 0.930 . S
C1342 C1341 1.369 . S
C1342 C1351 1.429 . S
C1343 C1341 1.419 . S
C1343 C1344 1.363 . S
C1343 H1346 0.929 . S
C1344 C1343 1.363 . S
C1344 C1350 1.428 . S
H1345 C1341 0.930 . S
H1346 C1343 0.929 . S
S1347 N1348 1.613 . S
S1347 N1349 1.610 . S
N1348 S1347 1.613 . S
N1348 C1351 1.350 . S
N1349 S1347 1.610 . S
N1349 C1350 1.351 . S
C1350 C1344 1.428 . S
C1350 N1349 1.351 . S
C1350 C1351 1.434 . S
C1351 C1342 1.429 . S
C1351 N1348 1.350 . S
C1351 C1350 1.434 . S
C1352 C1353 1.369 1_565 S
C1352 C1354 1.419 . S
C1352 H1356 0.930 . S
C1353 C1352 1.369 1_545 S
C1353 C1362 1.429 . S
C1354 C1352 1.419 . S
C1354 C1355 1.363 1_565 S
C1354 H1357 0.929 . S
C1355 C1354 1.363 1_545 S
C1355 C1361 1.428 . S
H1356 C1352 0.930 . S
H1357 C1354 0.929 . S
S1358 N1359 1.613 . S
S1358 N1360 1.610 . S
N1359 S1358 1.613 . S
N1359 C1362 1.350 . S
N1360 S1358 1.610 . S
N1360 C1361 1.351 . S
C1361 C1355 1.428 . S
C1361 N1360 1.351 . S
C1361 C1362 1.434 . S
C1362 C1353 1.429 . S
C1362 N1359 1.350 . S
C1362 C1361 1.434 . S
C1363 C1364 1.369 . S
C1363 C1365 1.419 . S
C1363 H1367 0.930 . S
C1364 C1363 1.369 . S
C1364 C1373 1.429 . S
C1365 C1363 1.419 . S
C1365 C1366 1.363 . S
C1365 H1368 0.929 . S
C1366 C1365 1.363 . S
C1366 C1372 1.428 . S
H1367 C1363 0.930 . S
H1368 C1365 0.929 . S
S1369 N1370 1.613 . S
S1369 N1371 1.610 . S
N1370 S1369 1.613 . S
N1370 C1373 1.350 . S
N1371 S1369 1.610 . S
N1371 C1372 1.351 . S
C1372 C1366 1.428 . S
C1372 N1371 1.351 . S
C1372 C1373 1.434 . S
C1373 C1364 1.429 . S
C1373 N1370 1.350 . S
C1373 C1372 1.434 . S
C1374 C1375 1.369 . S
C1374 C1376 1.419 . S
C1374 H1378 0.930 . S
C1375 C1374 1.369 . S
C1375 C1384 1.429 1_565 S
C1376 C1374 1.419 . S
C1376 C1377 1.363 . S
C1376 H1379 0.929 . S
C1377 C1376 1.363 . S
C1377 C1383 1.428 1_565 S
H1378 C1374 0.930 . S
H1379 C1376 0.929 . S
S1380 N1381 1.613 . S
S1380 N1382 1.610 . S
N1381 S1380 1.613 . S
N1381 C1384 1.350 . S
N1382 S1380 1.610 . S
N1382 C1383 1.351 . S
C1383 C1377 1.428 1_545 S
C1383 N1382 1.351 . S
C1383 C1384 1.434 . S
C1384 C1375 1.429 1_545 S
C1384 N1381 1.350 . S
C1384 C1383 1.434 . S
C1385 C1386 1.369 . S
C1385 C1387 1.419 . S
C1385 H1389 0.930 . S
C1386 C1385 1.369 . S
C1386 C1395 1.429 . S
C1387 C1385 1.419 . S
C1387 C1388 1.363 . S
C1387 H1390 0.929 . S
C1388 C1387 1.363 . S
C1388 C1394 1.428 . S
H1389 C1385 0.930 . S
H1390 C1387 0.929 . S
S1391 N1392 1.613 . S
S1391 N1393 1.610 . S
N1392 S1391 1.613 . S
N1392 C1395 1.350 . S
N1393 S1391 1.610 . S
N1393 C1394 1.351 . S
C1394 C1388 1.428 . S
C1394 N1393 1.351 . S
C1394 C1395 1.434 . S
C1395 C1386 1.429 . S
C1395 N1392 1.350 . S
C1395 C1394 1.434 . S
C1396 C1397 1.369 . S
C1396 C1398 1.419 . S
C1396 H1400 0.930 . S
C1397 C1396 1.369 . S
C1397 C1406 1.429 . S
C1398 C1396 1.419 . S
C1398 C1399 1.363 . S
C1398 H1401 0.929 . S
C1399 C1398 1.363 . S
C1399 C1405 1.428 . S
H1400 C1396 0.930 . S
H1401 C1398 0.929 . S
S1402 N1403 1.613 . S
S1402 N1404 1.610 . S
N1403 S1402 1.613 . S
N1403 C1406 1.350 . S
N1404 S1402 1.610 . S
N1404 C1405 1.351 . S
C1405 C1399 1.428 . S
C1405 N1404 1.351 . S
C1405 C1406 1.434 . S
C1406 C1397 1.429 . S
C1406 N1403 1.350 . S
C1406 C1405 1.434 . S
C1407 C1408 1.369 . S
C1407 C1409 1.419 . S
C1407 H1411 0.930 . S
C1408 C1407 1.369 . S
C1408 C1417 1.429 . S
C1409 C1407 1.419 . S
C1409 C1410 1.363 . S
C1409 H1412 0.929 . S
C1410 C1409 1.363 . S
C1410 C1416 1.428 . S
H1411 C1407 0.930 . S
H1412 C1409 0.929 . S
S1413 N1414 1.613 . S
S1413 N1415 1.610 . S
N1414 S1413 1.613 . S
N1414 C1417 1.350 . S
N1415 S1413 1.610 . S
N1415 C1416 1.351 . S
C1416 C1410 1.428 . S
C1416 N1415 1.351 . S
C1416 C1417 1.434 . S
C1417 C1408 1.429 . S
C1417 N1414 1.350 . S
C1417 C1416 1.434 . S
C1418 C1419 1.369 . S
C1418 C1420 1.419 . S
C1418 H1422 0.930 . S
C1419 C1418 1.369 . S
C1419 C1428 1.429 . S
C1420 C1418 1.419 . S
C1420 C1421 1.363 . S
C1420 H1423 0.929 . S
C1421 C1420 1.363 . S
C1421 C1427 1.428 . S
H1422 C1418 0.930 . S
H1423 C1420 0.929 . S
S1424 N1425 1.613 . S
S1424 N1426 1.610 . S
N1425 S1424 1.613 . S
N1425 C1428 1.350 . S
N1426 S1424 1.610 . S
N1426 C1427 1.351 . S
C1427 C1421 1.428 . S
C1427 N1426 1.351 . S
C1427 C1428 1.434 . S
C1428 C1419 1.429 . S
C1428 N1425 1.350 . S
C1428 C1427 1.434 . S
C1429 C1430 1.369 . S
C1429 C1431 1.419 . S
C1429 H1433 0.930 . S
C1430 C1429 1.369 . S
C1430 C1439 1.429 . S
C1431 C1429 1.419 . S
C1431 C1432 1.363 . S
C1431 H1434 0.929 . S
C1432 C1431 1.363 . S
C1432 C1438 1.428 . S
H1433 C1429 0.930 . S
H1434 C1431 0.929 . S
S1435 N1436 1.613 . S
S1435 N1437 1.610 . S
N1436 S1435 1.613 . S
N1436 C1439 1.350 . S
N1437 S1435 1.610 . S
N1437 C1438 1.351 . S
C1438 C1432 1.428 . S
C1438 N1437 1.351 . S
C1438 C1439 1.434 . S
C1439 C1430 1.429 . S
C1439 N1436 1.350 . S
C1439 C1438 1.434 . S
C1440 C1441 1.369 . S
C1440 C1442 1.419 . S
C1440 H1444 0.930 . S
C1441 C1440 1.369 . S
C1441 C1450 1.429 . S
C1442 C1440 1.419 . S
C1442 C1443 1.363 . S
C1442 H1445 0.929 . S
C1443 C1442 1.363 . S
C1443 C1449 1.428 . S
H1444 C1440 0.930 . S
H1445 C1442 0.929 . S
S1446 N1447 1.613 . S
S1446 N1448 1.610 . S
N1447 S1446 1.613 . S
N1447 C1450 1.350 . S
N1448 S1446 1.610 . S
N1448 C1449 1.351 . S
C1449 C1443 1.428 . S
C1449 N1448 1.351 . S
C1449 C1450 1.434 . S
C1450 C1441 1.429 . S
C1450 N1447 1.350 . S
C1450 C1449 1.434 . S
C1451 C1452 1.369 . S
C1451 C1453 1.419 . S
C1451 H1455 0.930 . S
C1452 C1451 1.369 . S
C1452 C1461 1.429 . S
C1453 C1451 1.419 . S
C1453 C1454 1.363 . S
C1453 H1456 0.929 . S
C1454 C1453 1.363 . S
C1454 C1460 1.428 . S
H1455 C1451 0.930 . S
H1456 C1453 0.929 . S
S1457 N1458 1.613 . S
S1457 N1459 1.610 . S
N1458 S1457 1.613 . S
N1458 C1461 1.350 . S
N1459 S1457 1.610 . S
N1459 C1460 1.351 . S
C1460 C1454 1.428 . S
C1460 N1459 1.351 . S
C1460 C1461 1.434 . S
C1461 C1452 1.429 . S
C1461 N1458 1.350 . S
C1461 C1460 1.434 . S
C1462 C1463 1.369 . S
C1462 C1464 1.419 . S
C1462 H1466 0.930 . S
C1463 C1462 1.369 . S
C1463 C1472 1.429 . S
C1464 C1462 1.419 . S
C1464 C1465 1.363 . S
C1464 H1467 0.929 . S
C1465 C1464 1.363 . S
C1465 C1471 1.428 . S
H1466 C1462 0.930 . S
H1467 C1464 0.929 . S
S1468 N1469 1.613 . S
S1468 N1470 1.610 . S
N1469 S1468 1.613 . S
N1469 C1472 1.350 . S
N1470 S1468 1.610 . S
N1470 C1471 1.351 . S
C1471 C1465 1.428 . S
C1471 N1470 1.351 . S
C1471 C1472 1.434 . S
C1472 C1463 1.429 . S
C1472 N1469 1.350 . S
C1472 C1471 1.434 . S
C1473 C1474 1.369 . S
C1473 C1475 1.419 . S
C1473 H1477 0.930 . S
C1474 C1473 1.369 . S
C1474 C1483 1.429 . S
C1475 C1473 1.419 . S
C1475 C1476 1.363 . S
C1475 H1478 0.929 . S
C1476 C1475 1.363 . S
C1476 C1482 1.428 . S
H1477 C1473 0.930 . S
H1478 C1475 0.929 . S
S1479 N1480 1.613 . S
S1479 N1481 1.610 . S
N1480 S1479 1.613 . S
N1480 C1483 1.350 . S
N1481 S1479 1.610 . S
N1481 C1482 1.351 . S
C1482 C1476 1.428 . S
C1482 N1481 1.351 . S
C1482 C1483 1.434 . S
C1483 C1474 1.429 . S
C1483 N1480 1.350 . S
C1483 C1482 1.434 . S
C1484 C1485 1.369 . S
C1484 C1486 1.419 . S
C1484 H1488 0.930 . S
C1485 C1484 1.369 . S
C1485 C1494 1.429 . S
C1486 C1484 1.419 . S
C1486 C1487 1.363 . S
C1486 H1489 0.929 . S
C1487 C1486 1.363 . S
C1487 C1493 1.428 . S
H1488 C1484 0.930 . S
H1489 C1486 0.929 . S
S1490 N1491 1.613 . S
S1490 N1492 1.610 . S
N1491 S1490 1.613 . S
N1491 C1494 1.350 . S
N1492 S1490 1.610 . S
N1492 C1493 1.351 . S
C1493 C1487 1.428 . S
C1493 N1492 1.351 . S
C1493 C1494 1.434 . S
C1494 C1485 1.429 . S
C1494 N1491 1.350 . S
C1494 C1493 1.434 . S
C1495 C1496 1.369 . S
C1495 C1497 1.419 . S
C1495 H1499 0.930 . S
C1496 C1495 1.369 . S
C1496 C1505 1.429 . S
C1497 C1495 1.419 . S
C1497 C1498 1.363 . S
C1497 H1500 0.929 . S
C1498 C1497 1.363 . S
C1498 C1504 1.428 . S
H1499 C1495 0.930 . S
H1500 C1497 0.929 . S
S1501 N1502 1.613 . S
S1501 N1503 1.610 . S
N1502 S1501 1.613 . S
N1502 C1505 1.350 . S
N1503 S1501 1.610 . S
N1503 C1504 1.351 . S
C1504 C1498 1.428 . S
C1504 N1503 1.351 . S
C1504 C1505 1.434 . S
C1505 C1496 1.429 . S
C1505 N1502 1.350 . S
C1505 C1504 1.434 . S
C1506 C1507 1.369 . S
C1506 C1508 1.419 . S
C1506 H1510 0.930 . S
C1507 C1506 1.369 . S
C1507 C1516 1.429 . S
C1508 C1506 1.419 . S
C1508 C1509 1.363 . S
C1508 H1511 0.929 . S
C1509 C1508 1.363 . S
C1509 C1515 1.428 . S
H1510 C1506 0.930 . S
H1511 C1508 0.929 . S
S1512 N1513 1.613 . S
S1512 N1514 1.610 . S
N1513 S1512 1.613 . S
N1513 C1516 1.350 . S
N1514 S1512 1.610 . S
N1514 C1515 1.351 . S
C1515 C1509 1.428 . S
C1515 N1514 1.351 . S
C1515 C1516 1.434 . S
C1516 C1507 1.429 . S
C1516 N1513 1.350 . S
C1516 C1515 1.434 . S
C1517 C1518 1.369 . S
C1517 C1519 1.419 . S
C1517 H1521 0.930 . S
C1518 C1517 1.369 . S
C1518 C1527 1.429 . S
C1519 C1517 1.419 . S
C1519 C1520 1.363 . S
C1519 H1522 0.929 . S
C1520 C1519 1.363 . S
C1520 C1526 1.428 . S
H1521 C1517 0.930 . S
H1522 C1519 0.929 . S
S1523 N1524 1.613 . S
S1523 N1525 1.610 . S
N1524 S1523 1.613 . S
N1524 C1527 1.350 . S
N1525 S1523 1.610 . S
N1525 C1526 1.351 . S
C1526 C1520 1.428 . S
C1526 N1525 1.351 . S
C1526 C1527 1.434 . S
C1527 C1518 1.429 . S
C1527 N1524 1.350 . S
C1527 C1526 1.434 . S
C1528 C1529 1.369 . S
C1528 C1530 1.419 . S
C1528 H1532 0.930 . S
C1529 C1528 1.369 . S
C1529 C1538 1.429 . S
C1530 C1528 1.419 . S
C1530 C1531 1.363 . S
C1530 H1533 0.929 . S
C1531 C1530 1.363 . S
C1531 C1537 1.428 . S
H1532 C1528 0.930 . S
H1533 C1530 0.929 . S
S1534 N1535 1.613 . S
S1534 N1536 1.610 . S
N1535 S1534 1.613 . S
N1535 C1538 1.350 . S
N1536 S1534 1.610 . S
N1536 C1537 1.351 . S
C1537 C1531 1.428 . S
C1537 N1536 1.351 . S
C1537 C1538 1.434 . S
C1538 C1529 1.429 . S
C1538 N1535 1.350 . S
C1538 C1537 1.434 . S
C1539 C1540 1.369 . S
C1539 C1541 1.419 . S
C1539 H1543 0.930 . S
C1540 C1539 1.369 . S
C1540 C1549 1.429 . S
C1541 C1539 1.419 . S
C1541 C1542 1.363 . S
C1541 H1544 0.929 . S
C1542 C1541 1.363 . S
C1542 C1548 1.428 . S
H1543 C1539 0.930 . S
H1544 C1541 0.929 . S
S1545 N1546 1.613 . S
S1545 N1547 1.610 . S
N1546 S1545 1.613 . S
N1546 C1549 1.350 . S
N1547 S1545 1.610 . S
N1547 C1548 1.351 . S
C1548 C1542 1.428 . S
C1548 N1547 1.351 . S
C1548 C1549 1.434 . S
C1549 C1540 1.429 . S
C1549 N1546 1.350 . S
C1549 C1548 1.434 . S
C1550 C1551 1.369 . S
C1550 C1552 1.419 . S
C1550 H1554 0.930 . S
C1551 C1550 1.369 . S
C1551 C1560 1.429 . S
C1552 C1550 1.419 . S
C1552 C1553 1.363 . S
C1552 H1555 0.929 . S
C1553 C1552 1.363 . S
C1553 C1559 1.428 . S
H1554 C1550 0.930 . S
H1555 C1552 0.929 . S
S1556 N1557 1.613 . S
S1556 N1558 1.610 . S
N1557 S1556 1.613 . S
N1557 C1560 1.350 . S
N1558 S1556 1.610 . S
N1558 C1559 1.351 . S
C1559 C1553 1.428 . S
C1559 N1558 1.351 . S
C1559 C1560 1.434 . S
C1560 C1551 1.429 . S
C1560 N1557 1.350 . S
C1560 C1559 1.434 . S
C1561 C1562 1.369 . S
C1561 C1563 1.419 . S
C1561 H1565 0.930 . S
C1562 C1561 1.369 . S
C1562 C1571 1.429 . S
C1563 C1561 1.419 . S
C1563 C1564 1.363 . S
C1563 H1566 0.929 . S
C1564 C1563 1.363 . S
C1564 C1570 1.428 . S
H1565 C1561 0.930 . S
H1566 C1563 0.929 . S
S1567 N1568 1.613 . S
S1567 N1569 1.610 . S
N1568 S1567 1.613 . S
N1568 C1571 1.350 . S
N1569 S1567 1.610 . S
N1569 C1570 1.351 . S
C1570 C1564 1.428 . S
C1570 N1569 1.351 . S
C1570 C1571 1.434 . S
C1571 C1562 1.429 . S
C1571 N1568 1.350 . S
C1571 C1570 1.434 . S
C1572 C1573 1.369 . S
C1572 C1574 1.419 . S
C1572 H1576 0.930 . S
C1573 C1572 1.369 . S
C1573 C1582 1.429 . S
C1574 C1572 1.419 . S
C1574 C1575 1.363 . S
C1574 H1577 0.929 . S
C1575 C1574 1.363 . S
C1575 C1581 1.428 . S
H1576 C1572 0.930 . S
H1577 C1574 0.929 . S
S1578 N1579 1.613 . S
S1578 N1580 1.610 . S
N1579 S1578 1.613 . S
N1579 C1582 1.350 . S
N1580 S1578 1.610 . S
N1580 C1581 1.351 . S
C1581 C1575 1.428 . S
C1581 N1580 1.351 . S
C1581 C1582 1.434 . S
C1582 C1573 1.429 . S
C1582 N1579 1.350 . S
C1582 C1581 1.434 . S
C1583 C1584 1.369 . S
C1583 C1585 1.419 . S
C1583 H1587 0.930 . S
C1584 C1583 1.369 . S
C1584 C1593 1.429 . S
C1585 C1583 1.419 . S
C1585 C1586 1.363 . S
C1585 H1588 0.929 . S
C1586 C1585 1.363 . S
C1586 C1592 1.428 . S
H1587 C1583 0.930 . S
H1588 C1585 0.929 . S
S1589 N1590 1.613 . S
S1589 N1591 1.610 . S
N1590 S1589 1.613 . S
N1590 C1593 1.350 . S
N1591 S1589 1.610 . S
N1591 C1592 1.351 . S
C1592 C1586 1.428 . S
C1592 N1591 1.351 . S
C1592 C1593 1.434 . S
C1593 C1584 1.429 . S
C1593 N1590 1.350 . S
C1593 C1592 1.434 . S
C1594 C1595 1.369 . S
C1594 C1596 1.419 . S
C1594 H1598 0.930 . S
C1595 C1594 1.369 . S
C1595 C1604 1.429 . S
C1596 C1594 1.419 . S
C1596 C1597 1.363 . S
C1596 H1599 0.929 . S
C1597 C1596 1.363 . S
C1597 C1603 1.428 . S
H1598 C1594 0.930 . S
H1599 C1596 0.929 . S
S1600 N1601 1.613 . S
S1600 N1602 1.610 . S
N1601 S1600 1.613 . S
N1601 C1604 1.350 . S
N1602 S1600 1.610 . S
N1602 C1603 1.351 . S
C1603 C1597 1.428 . S
C1603 N1602 1.351 . S
C1603 C1604 1.434 . S
C1604 C1595 1.429 . S
C1604 N1601 1.350 . S
C1604 C1603 1.434 . S
C1605 C1606 1.369 . S
C1605 C1607 1.419 . S
C1605 H1609 0.930 . S
C1606 C1605 1.369 . S
C1606 C1615 1.429 . S
C1607 C1605 1.419 . S
C1607 C1608 1.363 . S
C1607 H1610 0.929 . S
C1608 C1607 1.363 . S
C1608 C1614 1.428 . S
H1609 C1605 0.930 . S
H1610 C1607 0.929 . S
S1611 N1612 1.613 . S
S1611 N1613 1.610 . S
N1612 S1611 1.613 . S
N1612 C1615 1.350 . S
N1613 S1611 1.610 . S
N1613 C1614 1.351 . S
C1614 C1608 1.428 . S
C1614 N1613 1.351 . S
C1614 C1615 1.434 . S
C1615 C1606 1.429 . S
C1615 N1612 1.350 . S
C1615 C1614 1.434 . S
C1616 C1617 1.369 . S
C1616 C1618 1.419 . S
C1616 H1620 0.930 . S
C1617 C1616 1.369 . S
C1617 C1626 1.429 . S
C1618 C1616 1.419 . S
C1618 C1619 1.363 . S
C1618 H1621 0.929 . S
C1619 C1618 1.363 . S
C1619 C1625 1.428 . S
H1620 C1616 0.930 . S
H1621 C1618 0.929 . S
S1622 N1623 1.613 . S
S1622 N1624 1.610 . S
N1623 S1622 1.613 . S
N1623 C1626 1.350 . S
N1624 S1622 1.610 . S
N1624 C1625 1.351 . S
C1625 C1619 1.428 . S
C1625 N1624 1.351 . S
C1625 C1626 1.434 . S
C1626 C1617 1.429 . S
C1626 N1623 1.350 . S
C1626 C1625 1.434 . S
C1627 C1628 1.369 . S
C1627 C1629 1.419 . S
C1627 H1631 0.930 . S
C1628 C1627 1.369 . S
C1628 C1637 1.429 . S
C1629 C1627 1.419 . S
C1629 C1630 1.363 . S
C1629 H1632 0.929 . S
C1630 C1629 1.363 . S
C1630 C1636 1.428 . S
H1631 C1627 0.930 . S
H1632 C1629 0.929 . S
S1633 N1634 1.613 . S
S1633 N1635 1.610 . S
N1634 S1633 1.613 . S
N1634 C1637 1.350 . S
N1635 S1633 1.610 . S
N1635 C1636 1.351 . S
C1636 C1630 1.428 . S
C1636 N1635 1.351 . S
C1636 C1637 1.434 . S
C1637 C1628 1.429 . S
C1637 N1634 1.350 . S
C1637 C1636 1.434 . S
C1638 C1639 1.369 . S
C1638 C1640 1.419 . S
C1638 H1642 0.930 . S
C1639 C1638 1.369 . S
C1639 C1648 1.429 . S
C1640 C1638 1.419 . S
C1640 C1641 1.363 . S
C1640 H1643 0.929 . S
C1641 C1640 1.363 . S
C1641 C1647 1.428 . S
H1642 C1638 0.930 . S
H1643 C1640 0.929 . S
S1644 N1645 1.613 . S
S1644 N1646 1.610 . S
N1645 S1644 1.613 . S
N1645 C1648 1.350 . S
N1646 S1644 1.610 . S
N1646 C1647 1.351 . S
C1647 C1641 1.428 . S
C1647 N1646 1.351 . S
C1647 C1648 1.434 . S
C1648 C1639 1.429 . S
C1648 N1645 1.350 . S
C1648 C1647 1.434 . S
C1649 C1650 1.369 . S
C1649 C1651 1.419 . S
C1649 H1653 0.930 . S
C1650 C1649 1.369 . S
C1650 C1659 1.429 . S
C1651 C1649 1.419 . S
C1651 C1652 1.363 . S
C1651 H1654 0.929 . S
C1652 C1651 1.363 . S
C1652 C1658 1.428 . S
H1653 C1649 0.930 . S
H1654 C1651 0.929 . S
S1655 N1656 1.613 . S
S1655 N1657 1.610 . S
N1656 S1655 1.613 . S
N1656 C1659 1.350 . S
N1657 S1655 1.610 . S
N1657 C1658 1.351 . S
C1658 C1652 1.428 . S
C1658 N1657 1.351 . S
C1658 C1659 1.434 . S
C1659 C1650 1.429 . S
C1659 N1656 1.350 . S
C1659 C1658 1.434 . S
C1660 C1661 1.369 . S
C1660 C1662 1.419 . S
C1660 H1664 0.930 . S
C1661 C1660 1.369 . S
C1661 C1670 1.429 . S
C1662 C1660 1.419 . S
C1662 C1663 1.363 . S
C1662 H1665 0.929 . S
C1663 C1662 1.363 . S
C1663 C1669 1.428 . S
H1664 C1660 0.930 . S
H1665 C1662 0.929 . S
S1666 N1667 1.613 . S
S1666 N1668 1.610 . S
N1667 S1666 1.613 . S
N1667 C1670 1.350 . S
N1668 S1666 1.610 . S
N1668 C1669 1.351 . S
C1669 C1663 1.428 . S
C1669 N1668 1.351 . S
C1669 C1670 1.434 . S
C1670 C1661 1.429 . S
C1670 N1667 1.350 . S
C1670 C1669 1.434 . S
C1671 C1672 1.369 . S
C1671 C1673 1.419 . S
C1671 H1675 0.930 . S
C1672 C1671 1.369 . S
C1672 C1681 1.429 . S
C1673 C1671 1.419 . S
C1673 C1674 1.363 . S
C1673 H1676 0.929 . S
C1674 C1673 1.363 . S
C1674 C1680 1.428 . S
H1675 C1671 0.930 . S
H1676 C1673 0.929 . S
S1677 N1678 1.613 . S
S1677 N1679 1.610 . S
N1678 S1677 1.613 . S
N1678 C1681 1.350 . S
N1679 S1677 1.610 . S
N1679 C1680 1.351 . S
C1680 C1674 1.428 . S
C1680 N1679 1.351 . S
C1680 C1681 1.434 . S
C1681 C1672 1.429 . S
C1681 N1678 1.350 . S
C1681 C1680 1.434 . S
C1682 C1683 1.369 . S
C1682 C1684 1.419 . S
C1682 H1686 0.930 . S
C1683 C1682 1.369 . S
C1683 C1692 1.429 . S
C1684 C1682 1.419 . S
C1684 C1685 1.363 . S
C1684 H1687 0.929 . S
C1685 C1684 1.363 . S
C1685 C1691 1.428 . S
H1686 C1682 0.930 . S
H1687 C1684 0.929 . S
S1688 N1689 1.613 . S
S1688 N1690 1.610 . S
N1689 S1688 1.613 . S
N1689 C1692 1.350 . S
N1690 S1688 1.610 . S
N1690 C1691 1.351 . S
C1691 C1685 1.428 . S
C1691 N1690 1.351 . S
C1691 C1692 1.434 . S
C1692 C1683 1.429 . S
C1692 N1689 1.350 . S
C1692 C1691 1.434 . S
C1693 C1694 1.369 . S
C1693 C1695 1.419 . S
C1693 H1697 0.930 . S
C1694 C1693 1.369 . S
C1694 C1703 1.429 . S
C1695 C1693 1.419 . S
C1695 C1696 1.363 . S
C1695 H1698 0.929 . S
C1696 C1695 1.363 . S
C1696 C1702 1.428 . S
H1697 C1693 0.930 . S
H1698 C1695 0.929 . S
S1699 N1700 1.613 . S
S1699 N1701 1.610 . S
N1700 S1699 1.613 . S
N1700 C1703 1.350 . S
N1701 S1699 1.610 . S
N1701 C1702 1.351 . S
C1702 C1696 1.428 . S
C1702 N1701 1.351 . S
C1702 C1703 1.434 . S
C1703 C1694 1.429 . S
C1703 N1700 1.350 . S
C1703 C1702 1.434 . S
C1704 C1705 1.369 . S
C1704 C1706 1.419 . S
C1704 H1708 0.930 . S
C1705 C1704 1.369 . S
C1705 C1714 1.429 . S
C1706 C1704 1.419 . S
C1706 C1707 1.363 . S
C1706 H1709 0.929 . S
C1707 C1706 1.363 . S
C1707 C1713 1.428 . S
H1708 C1704 0.930 . S
H1709 C1706 0.929 . S
S1710 N1711 1.613 . S
S1710 N1712 1.610 . S
N1711 S1710 1.613 . S
N1711 C1714 1.350 . S
N1712 S1710 1.610 . S
N1712 C1713 1.351 . S
C1713 C1707 1.428 . S
C1713 N1712 1.351 . S
C1713 C1714 1.434 . S
C1714 C1705 1.429 . S
C1714 N1711 1.350 . S
C1714 C1713 1.434 . S
C1715 C1716 1.369 . S
C1715 C1717 1.419 . S
C1715 H1719 0.930 . S
C1716 C1715 1.369 . S
C1716 C1725 1.429 . S
C1717 C1715 1.419 . S
C1717 C1718 1.363 . S
C1717 H1720 0.929 . S
C1718 C1717 1.363 . S
C1718 C1724 1.428 . S
H1719 C1715 0.930 . S
H1720 C1717 0.929 . S
S1721 N1722 1.613 1_455 S
S1721 N1723 1.610 1_455 S
N1722 S1721 1.613 1_655 S
N1722 C1725 1.350 . S
N1723 S1721 1.610 1_655 S
N1723 C1724 1.351 . S
C1724 C1718 1.428 . S
C1724 N1723 1.351 . S
C1724 C1725 1.434 . S
C1725 C1716 1.429 . S
C1725 N1722 1.350 . S
C1725 C1724 1.434 . S
C1726 C1727 1.369 . S
C1726 C1728 1.419 . S
C1726 H1730 0.930 . S
C1727 C1726 1.369 . S
C1727 C1736 1.429 . S
C1728 C1726 1.419 . S
C1728 C1729 1.363 . S
C1728 H1731 0.929 . S
C1729 C1728 1.363 . S
C1729 C1735 1.428 . S
H1730 C1726 0.930 . S
H1731 C1728 0.929 . S
S1732 N1733 1.613 . S
S1732 N1734 1.610 . S
N1733 S1732 1.613 . S
N1733 C1736 1.350 . S
N1734 S1732 1.610 . S
N1734 C1735 1.351 . S
C1735 C1729 1.428 . S
C1735 N1734 1.351 . S
C1735 C1736 1.434 . S
C1736 C1727 1.429 . S
C1736 N1733 1.350 . S
C1736 C1735 1.434 . S
C1737 C1738 1.369 . S
C1737 C1739 1.419 . S
C1737 H1741 0.930 . S
C1738 C1737 1.369 . S
C1738 C1747 1.429 . S
C1739 C1737 1.419 . S
C1739 C1740 1.363 . S
C1739 H1742 0.929 . S
C1740 C1739 1.363 . S
C1740 C1746 1.428 . S
H1741 C1737 0.930 . S
H1742 C1739 0.929 . S
S1743 N1744 1.613 1_455 S
S1743 N1745 1.610 . S
N1744 S1743 1.613 1_655 S
N1744 C1747 1.350 . S
N1745 S1743 1.610 . S
N1745 C1746 1.351 1_455 S
C1746 C1740 1.428 . S
C1746 N1745 1.351 1_655 S
C1746 C1747 1.434 . S
C1747 C1738 1.429 . S
C1747 N1744 1.350 . S
C1747 C1746 1.434 . S
C1748 C1749 1.369 . S
C1748 C1750 1.419 . S
C1748 H1752 0.930 . S
C1749 C1748 1.369 . S
C1749 C1758 1.429 . S
C1750 C1748 1.419 . S
C1750 C1751 1.363 . S
C1750 H1753 0.929 . S
C1751 C1750 1.363 . S
C1751 C1757 1.428 . S
H1752 C1748 0.930 . S
H1753 C1750 0.929 . S
S1754 N1755 1.613 . S
S1754 N1756 1.610 . S
N1755 S1754 1.613 . S
N1755 C1758 1.350 . S
N1756 S1754 1.610 . S
N1756 C1757 1.351 . S
C1757 C1751 1.428 . S
C1757 N1756 1.351 . S
C1757 C1758 1.434 . S
C1758 C1749 1.429 . S
C1758 N1755 1.350 . S
C1758 C1757 1.434 . S
C1759 C1760 1.369 . S
C1759 C1761 1.419 . S
C1759 H1763 0.930 . S
C1760 C1759 1.369 . S
C1760 C1769 1.429 . S
C1761 C1759 1.419 . S
C1761 C1762 1.363 . S
C1761 H1764 0.929 . S
C1762 C1761 1.363 . S
C1762 C1768 1.428 . S
H1763 C1759 0.930 . S
H1764 C1761 0.929 . S
S1765 N1766 1.613 . S
S1765 N1767 1.610 . S
N1766 S1765 1.613 . S
N1766 C1769 1.350 . S
N1767 S1765 1.610 . S
N1767 C1768 1.351 . S
C1768 C1762 1.428 . S
C1768 N1767 1.351 . S
C1768 C1769 1.434 . S
C1769 C1760 1.429 . S
C1769 N1766 1.350 . S
C1769 C1768 1.434 . S
C1770 C1771 1.369 . S
C1770 C1772 1.419 . S
C1770 H1774 0.930 . S
C1771 C1770 1.369 . S
C1771 C1780 1.429 . S
C1772 C1770 1.419 . S
C1772 C1773 1.363 . S
C1772 H1775 0.929 . S
C1773 C1772 1.363 . S
C1773 C1779 1.428 . S
H1774 C1770 0.930 . S
H1775 C1772 0.929 . S
S1776 N1777 1.613 . S
S1776 N1778 1.610 . S
N1777 S1776 1.613 . S
N1777 C1780 1.350 . S
N1778 S1776 1.610 . S
N1778 C1779 1.351 . S
C1779 C1773 1.428 . S
C1779 N1778 1.351 . S
C1779 C1780 1.434 . S
C1780 C1771 1.429 . S
C1780 N1777 1.350 . S
C1780 C1779 1.434 . S
C1781 C1782 1.369 . S
C1781 C1783 1.419 . S
C1781 H1785 0.930 . S
C1782 C1781 1.369 . S
C1782 C1791 1.429 . S
C1783 C1781 1.419 . S
C1783 C1784 1.363 . S
C1783 H1786 0.929 . S
C1784 C1783 1.363 . S
C1784 C1790 1.428 . S
H1785 C1781 0.930 . S
H1786 C1783 0.929 . S
S1787 N1788 1.613 1_655 S
S1787 N1789 1.614 . S
N1788 S1787 1.613 1_455 S
N1788 C1791 1.350 . S
N1789 S1787 1.614 . S
N1789 C1790 1.341 1_655 S
C1790 C1784 1.428 . S
C1790 N1789 1.341 1_455 S
C1790 C1791 1.434 . S
C1791 C1782 1.429 . S
C1791 N1788 1.350 . S
C1791 C1790 1.434 . S
C1792 C1793 1.369 . S
C1792 C1794 1.419 . S
C1792 H1796 0.930 . S
C1793 C1792 1.369 . S
C1793 C1802 1.429 . S
C1794 C1792 1.419 . S
C1794 C1795 1.363 . S
C1794 H1797 0.929 . S
C1795 C1794 1.363 . S
C1795 C1801 1.428 . S
H1796 C1792 0.930 . S
H1797 C1794 0.929 . S
S1798 N1799 1.613 . S
S1798 N1800 1.610 . S
N1799 S1798 1.613 . S
N1799 C1802 1.350 . S
N1800 S1798 1.610 . S
N1800 C1801 1.351 . S
C1801 C1795 1.428 . S
C1801 N1800 1.351 . S
C1801 C1802 1.434 . S
C1802 C1793 1.429 . S
C1802 N1799 1.350 . S
C1802 C1801 1.434 . S
C1803 C1804 1.369 . S
C1803 C1805 1.419 . S
C1803 H1807 0.930 . S
C1804 C1803 1.369 . S
C1804 C1813 1.429 . S
C1805 C1803 1.419 . S
C1805 C1806 1.363 . S
C1805 H1808 0.929 . S
C1806 C1805 1.363 . S
C1806 C1812 1.428 . S
H1807 C1803 0.930 . S
H1808 C1805 0.929 . S
S1809 N1810 1.613 . S
S1809 N1811 1.610 . S
N1810 S1809 1.613 . S
N1810 C1813 1.350 . S
N1811 S1809 1.610 . S
N1811 C1812 1.351 . S
C1812 C1806 1.428 . S
C1812 N1811 1.351 . S
C1812 C1813 1.434 . S
C1813 C1804 1.429 . S
C1813 N1810 1.350 . S
C1813 C1812 1.434 . S
C1814 C1815 1.369 . S
C1814 C1816 1.419 . S
C1814 H1818 0.930 . S
C1815 C1814 1.369 . S
C1815 C1824 1.429 . S
C1816 C1814 1.419 . S
C1816 C1817 1.363 . S
C1816 H1819 0.929 . S
C1817 C1816 1.363 . S
C1817 C1823 1.428 . S
H1818 C1814 0.930 . S
H1819 C1816 0.929 . S
S1820 N1821 1.613 . S
S1820 N1822 1.610 . S
N1821 S1820 1.613 . S
N1821 C1824 1.350 . S
N1822 S1820 1.610 . S
N1822 C1823 1.351 . S
C1823 C1817 1.428 . S
C1823 N1822 1.351 . S
C1823 C1824 1.434 . S
C1824 C1815 1.429 . S
C1824 N1821 1.350 . S
C1824 C1823 1.434 . S
C1825 C1826 1.369 . S
C1825 C1827 1.419 . S
C1825 H1829 0.930 . S
C1826 C1825 1.369 . S
C1826 C1835 1.429 . S
C1827 C1825 1.419 . S
C1827 C1828 1.363 . S
C1827 H1830 0.929 . S
C1828 C1827 1.363 . S
C1828 C1834 1.428 . S
H1829 C1825 0.930 . S
H1830 C1827 0.929 . S
S1831 N1832 1.613 . S
S1831 N1833 1.610 . S
N1832 S1831 1.613 . S
N1832 C1835 1.350 . S
N1833 S1831 1.610 . S
N1833 C1834 1.351 . S
C1834 C1828 1.428 . S
C1834 N1833 1.351 . S
C1834 C1835 1.434 . S
C1835 C1826 1.429 . S
C1835 N1832 1.350 . S
C1835 C1834 1.434 . S
C1836 C1837 1.369 . S
C1836 C1838 1.419 . S
C1836 H1840 0.930 . S
C1837 C1836 1.369 . S
C1837 C1846 1.429 . S
C1838 C1836 1.419 . S
C1838 C1839 1.363 . S
C1838 H1841 0.929 . S
C1839 C1838 1.363 . S
C1839 C1845 1.428 . S
H1840 C1836 0.930 . S
H1841 C1838 0.929 . S
S1842 N1843 1.613 . S
S1842 N1844 1.610 . S
N1843 S1842 1.613 . S
N1843 C1846 1.350 . S
N1844 S1842 1.610 . S
N1844 C1845 1.351 . S
C1845 C1839 1.428 . S
C1845 N1844 1.351 . S
C1845 C1846 1.434 . S
C1846 C1837 1.429 . S
C1846 N1843 1.350 . S
C1846 C1845 1.434 . S
C1847 C1848 1.369 . S
C1847 C1849 1.419 . S
C1847 H1851 0.930 . S
C1848 C1847 1.369 . S
C1848 C1857 1.429 . S
C1849 C1847 1.419 . S
C1849 C1850 1.363 . S
C1849 H1852 0.929 . S
C1850 C1849 1.363 . S
C1850 C1856 1.428 . S
H1851 C1847 0.930 . S
H1852 C1849 0.929 . S
S1853 N1854 1.613 . S
S1853 N1855 1.610 . S
N1854 S1853 1.613 . S
N1854 C1857 1.350 . S
N1855 S1853 1.610 . S
N1855 C1856 1.351 . S
C1856 C1850 1.428 . S
C1856 N1855 1.351 . S
C1856 C1857 1.434 . S
C1857 C1848 1.429 . S
C1857 N1854 1.350 . S
C1857 C1856 1.434 . S
C1858 C1859 1.369 . S
C1858 C1860 1.419 . S
C1858 H1862 0.930 . S
C1859 C1858 1.369 . S
C1859 C1868 1.429 . S
C1860 C1858 1.419 . S
C1860 C1861 1.363 . S
C1860 H1863 0.929 . S
C1861 C1860 1.363 . S
C1861 C1867 1.428 . S
H1862 C1858 0.930 . S
H1863 C1860 0.929 . S
S1864 N1865 1.613 . S
S1864 N1866 1.610 . S
N1865 S1864 1.613 . S
N1865 C1868 1.350 . S
N1866 S1864 1.610 . S
N1866 C1867 1.351 . S
C1867 C1861 1.428 . S
C1867 N1866 1.351 . S
C1867 C1868 1.434 . S
C1868 C1859 1.429 . S
C1868 N1865 1.350 . S
C1868 C1867 1.434 . S
C1869 C1870 1.369 . S
C1869 C1871 1.419 . S
C1869 H1873 0.930 . S
C1870 C1869 1.369 . S
C1870 C1879 1.429 . S
C1871 C1869 1.419 . S
C1871 C1872 1.363 . S
C1871 H1874 0.929 . S
C1872 C1871 1.363 . S
C1872 C1878 1.428 . S
H1873 C1869 0.930 . S
H1874 C1871 0.929 . S
S1875 N1876 1.613 . S
S1875 N1877 1.610 . S
N1876 S1875 1.613 . S
N1876 C1879 1.350 . S
N1877 S1875 1.610 . S
N1877 C1878 1.351 . S
C1878 C1872 1.428 . S
C1878 N1877 1.351 . S
C1878 C1879 1.434 . S
C1879 C1870 1.429 . S
C1879 N1876 1.350 . S
C1879 C1878 1.434 . S
C1880 C1881 1.369 . S
C1880 C1882 1.419 . S
C1880 H1884 0.930 . S
C1881 C1880 1.369 . S
C1881 C1890 1.429 . S
C1882 C1880 1.419 . S
C1882 C1883 1.363 . S
C1882 H1885 0.929 . S
C1883 C1882 1.363 . S
C1883 C1889 1.428 . S
H1884 C1880 0.930 . S
H1885 C1882 0.929 . S
S1886 N1887 1.613 . S
S1886 N1888 1.610 . S
N1887 S1886 1.613 . S
N1887 C1890 1.350 . S
N1888 S1886 1.610 . S
N1888 C1889 1.351 . S
C1889 C1883 1.428 . S
C1889 N1888 1.351 . S
C1889 C1890 1.434 . S
C1890 C1881 1.429 . S
C1890 N1887 1.350 . S
C1890 C1889 1.434 . S
C1891 C1892 1.369 . S
C1891 C1893 1.419 . S
C1891 H1895 0.930 . S
C1892 C1891 1.369 . S
C1892 C1901 1.429 . S
C1893 C1891 1.419 . S
C1893 C1894 1.363 . S
C1893 H1896 0.929 . S
C1894 C1893 1.363 . S
C1894 C1900 1.428 . S
H1895 C1891 0.930 . S
H1896 C1893 0.929 . S
S1897 N1898 1.613 . S
S1897 N1899 1.610 . S
N1898 S1897 1.613 . S
N1898 C1901 1.350 . S
N1899 S1897 1.610 . S
N1899 C1900 1.351 . S
C1900 C1894 1.428 . S
C1900 N1899 1.351 . S
C1900 C1901 1.434 . S
C1901 C1892 1.429 . S
C1901 N1898 1.350 . S
C1901 C1900 1.434 . S
C1902 C1903 1.369 . S
C1902 C1904 1.419 . S
C1902 H1906 0.930 . S
C1903 C1902 1.369 . S
C1903 C1912 1.429 . S
C1904 C1902 1.419 . S
C1904 C1905 1.363 . S
C1904 H1907 0.929 . S
C1905 C1904 1.363 . S
C1905 C1911 1.428 . S
H1906 C1902 0.930 . S
H1907 C1904 0.929 . S
S1908 N1909 1.613 . S
S1908 N1910 1.610 . S
N1909 S1908 1.613 . S
N1909 C1912 1.350 1_655 S
N1910 S1908 1.610 . S
N1910 C1911 1.351 1_655 S
C1911 C1905 1.428 . S
C1911 N1910 1.351 1_455 S
C1911 C1912 1.434 . S
C1912 C1903 1.429 . S
C1912 N1909 1.350 1_455 S
C1912 C1911 1.434 . S
C1913 C1914 1.369 . S
C1913 C1915 1.419 . S
C1913 H1917 0.930 . S
C1914 C1913 1.369 . S
C1914 C1923 1.429 . S
C1915 C1913 1.419 . S
C1915 C1916 1.363 . S
C1915 H1918 0.929 . S
C1916 C1915 1.363 . S
C1916 C1922 1.428 . S
H1917 C1913 0.930 . S
H1918 C1915 0.929 . S
S1919 N1920 1.613 . S
S1919 N1921 1.610 . S
N1920 S1919 1.613 . S
N1920 C1923 1.350 . S
N1921 S1919 1.610 . S
N1921 C1922 1.351 . S
C1922 C1916 1.428 . S
C1922 N1921 1.351 . S
C1922 C1923 1.434 . S
C1923 C1914 1.429 . S
C1923 N1920 1.350 . S
C1923 C1922 1.434 . S
C1924 C1925 1.369 . S
C1924 C1926 1.419 . S
C1924 H1928 0.930 1_655 S
C1925 C1924 1.369 . S
C1925 C1934 1.429 . S
C1926 C1924 1.419 . S
C1926 C1927 1.363 . S
C1926 H1929 0.929 1_655 S
C1927 C1926 1.363 . S
C1927 C1933 1.428 . S
H1928 C1924 0.930 1_455 S
H1929 C1926 0.929 1_455 S
S1930 N1931 1.613 . S
S1930 N1932 1.610 . S
N1931 S1930 1.613 . S
N1931 C1934 1.350 . S
N1932 S1930 1.610 . S
N1932 C1933 1.351 . S
C1933 C1927 1.428 . S
C1933 N1932 1.351 . S
C1933 C1934 1.434 . S
C1934 C1925 1.429 . S
C1934 N1931 1.350 . S
C1934 C1933 1.434 . S
C1935 C1936 1.369 . S
C1935 C1937 1.419 . S
C1935 H1939 0.930 . S
C1936 C1935 1.369 . S
C1936 C1945 1.429 . S
C1937 C1935 1.419 . S
C1937 C1938 1.363 . S
C1937 H1940 0.929 . S
C1938 C1937 1.363 . S
C1938 C1944 1.428 . S
H1939 C1935 0.930 . S
H1940 C1937 0.929 . S
S1941 N1942 1.613 . S
S1941 N1943 1.610 . S
N1942 S1941 1.613 . S
N1942 C1945 1.350 . S
N1943 S1941 1.610 . S
N1943 C1944 1.351 . S
C1944 C1938 1.428 . S
C1944 N1943 1.351 . S
C1944 C1945 1.434 . S
C1945 C1936 1.429 . S
C1945 N1942 1.350 . S
C1945 C1944 1.434 . S
C1946 C1947 1.369 . S
C1946 C1948 1.419 . S
C1946 H1950 0.930 . S
C1947 C1946 1.369 . S
C1947 C1956 1.429 . S
C1948 C1946 1.419 . S
C1948 C1949 1.363 . S
C1948 H1951 0.929 . S
C1949 C1948 1.363 . S
C1949 C1955 1.428 . S
H1950 C1946 0.930 . S
H1951 C1948 0.929 . S
S1952 N1953 1.613 . S
S1952 N1954 1.610 . S
N1953 S1952 1.613 . S
N1953 C1956 1.350 . S
N1954 S1952 1.610 . S
N1954 C1955 1.351 . S
C1955 C1949 1.428 . S
C1955 N1954 1.351 . S
C1955 C1956 1.434 . S
C1956 C1947 1.429 . S
C1956 N1953 1.350 . S
C1956 C1955 1.434 . S
C1957 C1958 1.369 . S
C1957 C1959 1.419 . S
C1957 H1961 0.930 . S
C1958 C1957 1.369 . S
C1958 C1967 1.429 . S
C1959 C1957 1.419 . S
C1959 C1960 1.363 . S
C1959 H1962 0.929 . S
C1960 C1959 1.363 . S
C1960 C1966 1.428 . S
H1961 C1957 0.930 . S
H1962 C1959 0.929 . S
S1963 N1964 1.613 . S
S1963 N1965 1.610 . S
N1964 S1963 1.613 . S
N1964 C1967 1.350 . S
N1965 S1963 1.610 . S
N1965 C1966 1.351 . S
C1966 C1960 1.428 . S
C1966 N1965 1.351 . S
C1966 C1967 1.434 . S
C1967 C1958 1.429 . S
C1967 N1964 1.350 . S
C1967 C1966 1.434 . S
C1089 C9 1.895 . S
C1091 C145 1.901 . S
C1100 C995 1.899 . S
C1102 C43 1.899 . S
C1111 C77 1.901 . S
C1113 C485 1.897 . S
C1122 C791 1.895 . S
C1124 C111 1.901 . S
C1133 C179 1.899 . S
C1135 C859 1.899 . S
C1144 C213 1.902 . S
C1146 C349 1.896 . S
C1155 C247 1.895 . S
C1157 C655 1.901 . S
C1166 C417 1.899 . S
C1168 C281 1.899 . S
C1177 C723 1.901 . S
C1179 C315 1.897 . S
C1188 C383 1.898 . S
C1190 C1063 1.899 . S
C1199 C587 1.895 . S
C1201 C451 1.901 . S
C1210 C519 1.895 . S
C1212 C927 1.901 . S
C1221 C689 1.900 . S
C1223 C553 1.898 . S
C1232 C621 1.902 . S
C1234 C1029 1.896 . S
C1243 C757 1.895 . S
C1245 C893 1.901 . S
C1254 C825 1.895 . S
C1256 C961 1.901 . S
C1265 C5 0.564 . S
C1267 C107 0.550 . S
C1276 C73 0.544 . S
C1278 C39 0.567 . S
C1287 C243 0.543 . S
C1289 C141 0.570 . S
C1298 C175 0.574 . S
C1300 C209 0.545 . S
C1309 C379 0.565 . S
C1311 C277 0.555 . S
C1320 C345 0.546 . S
C1322 C311 0.565 . S
C1331 C413 0.565 . S
C1333 C515 0.557 . S
C1342 C481 0.568 . S
C1344 C447 0.547 . S
C1353 C549 0.574 . S
C1355 C651 0.545 . S
C1364 C617 0.563 . S
C1366 C583 0.557 . S
C1375 C787 0.566 . S
C1377 C685 0.556 . S
C1386 C753 0.546 . S
C1388 C719 0.563 . S
C1397 C821 0.574 . S
C1399 C923 0.546 . S
C1408 C889 0.574 . S
C1410 C855 0.545 . S
C1419 C957 0.573 . S
C1421 C1059 0.548 . S
C1430 C1025 0.573 . S
C1432 C991 0.545 . S
C1441 C36 1.804 1_455 S
C1443 C2 1.807 . S
C1452 C104 1.806 1_455 S
C1454 C70 1.803 . S
C1463 C138 1.802 . S
C1465 C172 1.806 1_655 S
C1474 C206 1.806 . S
C1476 C240 1.807 1_655 S
C1485 C308 1.808 1_455 S
C1487 C274 1.806 . S
C1496 C342 1.801 . S
C1498 C376 1.803 1_455 S
C1507 C444 1.805 1_655 S
C1509 C410 1.802 . S
C1518 C478 1.807 . S
C1520 C512 1.807 1_655 S
C1529 C580 1.803 . S
C1531 C546 1.802 . S
C1540 C648 1.808 . S
C1542 C614 1.804 . S
C1551 C716 1.805 . S
C1553 C682 1.802 . S
C1562 C784 1.808 . S
C1564 C750 1.804 . S
C1573 C818 1.802 . S
C1575 C852 1.806 . S
C1584 C920 1.808 . S
C1586 C886 1.805 . S
C1595 C954 1.801 . S
C1597 C988 1.805 . S
C1606 C1056 1.808 . S
C1608 C1022 1.806 . S
C1617 C20 1.099 . S
C1619 C870 1.088 . S
C1628 C836 1.086 . S
C1630 C54 1.098 . S
C1639 C88 1.089 . S
C1641 C938 1.096 . S
C1650 C122 1.092 . S
C1652 C904 1.094 . S
C1661 C1006 1.094 . S
C1663 C156 1.091 . S
C1672 C190 1.094 . S
C1674 C972 1.092 . S
C1683 C224 1.088 . S
C1685 C1074 1.096 . S
C1694 C1040 1.090 . S
C1696 C258 1.094 . S
C1705 C598 1.090 . S
C1707 C292 1.095 . S
C1716 C326 1.086 . S
C1718 C564 1.098 . S
C1727 C666 1.099 . S
C1729 C360 1.088 . S
C1738 C394 1.086 . S
C1740 C632 1.098 . S
C1749 C734 1.099 . S
C1751 C428 1.088 . S
C1760 C462 1.092 . S
C1762 C700 1.093 . S
C1771 C802 1.094 . S
C1773 C496 1.092 . S
C1782 C530 1.088 . S
C1784 C768 1.097 . S
C1793 C33 1.479 . S
C1795 C101 1.478 . S
C1804 C67 1.478 . S
C1806 C135 1.478 . S
C1815 C237 1.479 . S
C1817 C169 1.481 . S
C1826 C271 1.478 . S
C1828 C203 1.480 . S
C1837 C305 1.477 . S
C1839 C373 1.478 . S
C1848 C339 1.483 . S
C1850 C407 1.485 . S
C1859 C509 1.479 . S
C1861 C441 1.481 . S
C1870 C475 1.485 . S
C1872 C543 1.482 . S
C1881 C577 1.478 . S
C1883 C645 1.481 . S
C1892 C611 1.481 . S
C1894 C679 1.479 . S
C1903 C781 1.484 . S
C1905 C713 1.482 . S
C1914 C815 1.485 . S
C1916 C747 1.485 . S
C1925 C917 1.478 . S
C1927 C849 1.478 . S
C1936 C951 1.483 . S
C1938 C883 1.485 . S
C1947 C1053 1.480 . S
C1949 C985 1.482 . S
C1958 C1087 1.479 . S
C1960 C1019 1.481 . S
