# Generated by pormake.
# Topology som, (6)-cn, num edge types: 1
# Building blocks:
#     Node 0, Type 0, BuildingBlock: BETDEL_clean_sbu_0, # of connection points: 6
#     Node 1, Type 0, BuildingBlock: BETDEL_clean_sbu_0, # of connection points: 6
#     Node 2, Type 0, BuildingBlock: BETDEL_clean_sbu_0, # of connection points: 6
#     Node 3, Type 0, BuildingBlock: BETDEL_clean_sbu_0, # of connection points: 6
#     Node 4, Type 0, BuildingBlock: BETDEL_clean_sbu_0, # of connection points: 6
#     Node 5, Type 0, BuildingBlock: BETDEL_clean_sbu_0, # of connection points: 6
#     Node 6, Type 0, BuildingBlock: BETDEL_clean_sbu_0, # of connection points: 6
#     Node 7, Type 0, BuildingBlock: BETDEL_clean_sbu_0, # of connection points: 6
#     Node 8, Type 0, BuildingBlock: BETDEL_clean_sbu_0, # of connection points: 6
#     Node 9, Type 0, BuildingBlock: BETDEL_clean_sbu_0, # of connection points: 6
#     Node 10, Type 0, BuildingBlock: BETDEL_clean_sbu_0, # of connection points: 6
#     Node 11, Type 0, BuildingBlock: BETDEL_clean_sbu_0, # of connection points: 6
#     Node 12, Type 0, BuildingBlock: BETDEL_clean_sbu_0, # of connection points: 6
#     Node 13, Type 0, BuildingBlock: BETDEL_clean_sbu_0, # of connection points: 6
#     Node 14, Type 0, BuildingBlock: BETDEL_clean_sbu_0, # of connection points: 6
#     Node 15, Type 0, BuildingBlock: BETDEL_clean_sbu_0, # of connection points: 6
#     Node 16, Type 0, BuildingBlock: BETDEL_clean_sbu_0, # of connection points: 6
#     Node 17, Type 0, BuildingBlock: BETDEL_clean_sbu_0, # of connection points: 6
#     Node 18, Type 0, BuildingBlock: BETDEL_clean_sbu_0, # of connection points: 6
#     Node 19, Type 0, BuildingBlock: BETDEL_clean_sbu_0, # of connection points: 6
#     Node 20, Type 0, BuildingBlock: BETDEL_clean_sbu_0, # of connection points: 6
#     Node 21, Type 0, BuildingBlock: BETDEL_clean_sbu_0, # of connection points: 6
#     Node 22, Type 0, BuildingBlock: BETDEL_clean_sbu_0, # of connection points: 6
#     Node 23, Type 0, BuildingBlock: BETDEL_clean_sbu_0, # of connection points: 6
#     Node 24, Type 0, BuildingBlock: BETDEL_clean_sbu_0, # of connection points: 6
#     Node 25, Type 0, BuildingBlock: BETDEL_clean_sbu_0, # of connection points: 6
#     Node 26, Type 0, BuildingBlock: BETDEL_clean_sbu_0, # of connection points: 6
#     Node 27, Type 0, BuildingBlock: BETDEL_clean_sbu_0, # of connection points: 6
#     Node 28, Type 0, BuildingBlock: BETDEL_clean_sbu_0, # of connection points: 6
#     Node 29, Type 0, BuildingBlock: BETDEL_clean_sbu_0, # of connection points: 6
#     Node 30, Type 0, BuildingBlock: BETDEL_clean_sbu_0, # of connection points: 6
#     Node 31, Type 0, BuildingBlock: BETDEL_clean_sbu_0, # of connection points: 6
#     Edge 32, Type (0, 0), BuildingBlock: AJUNOK_clean_linker_0, # of connection points: 2
#     Edge 33, Type (0, 0), BuildingBlock: AJUNOK_clean_linker_0, # of connection points: 2
#     Edge 34, Type (0, 0), BuildingBlock: AJUNOK_clean_linker_0, # of connection points: 2
#     Edge 35, Type (0, 0), BuildingBlock: AJUNOK_clean_linker_0, # of connection points: 2
#     Edge 36, Type (0, 0), BuildingBlock: AJUNOK_clean_linker_0, # of connection points: 2
#     Edge 37, Type (0, 0), BuildingBlock: AJUNOK_clean_linker_0, # of connection points: 2
#     Edge 38, Type (0, 0), BuildingBlock: AJUNOK_clean_linker_0, # of connection points: 2
#     Edge 39, Type (0, 0), BuildingBlock: AJUNOK_clean_linker_0, # of connection points: 2
#     Edge 40, Type (0, 0), BuildingBlock: AJUNOK_clean_linker_0, # of connection points: 2
#     Edge 41, Type (0, 0), BuildingBlock: AJUNOK_clean_linker_0, # of connection points: 2
#     Edge 42, Type (0, 0), BuildingBlock: AJUNOK_clean_linker_0, # of connection points: 2
#     Edge 43, Type (0, 0), BuildingBlock: AJUNOK_clean_linker_0, # of connection points: 2
#     Edge 44, Type (0, 0), BuildingBlock: AJUNOK_clean_linker_0, # of connection points: 2
#     Edge 45, Type (0, 0), BuildingBlock: AJUNOK_clean_linker_0, # of connection points: 2
#     Edge 46, Type (0, 0), BuildingBlock: AJUNOK_clean_linker_0, # of connection points: 2
#     Edge 47, Type (0, 0), BuildingBlock: AJUNOK_clean_linker_0, # of connection points: 2
#     Edge 48, Type (0, 0), BuildingBlock: AJUNOK_clean_linker_0, # of connection points: 2
#     Edge 49, Type (0, 0), BuildingBlock: AJUNOK_clean_linker_0, # of connection points: 2
#     Edge 50, Type (0, 0), BuildingBlock: AJUNOK_clean_linker_0, # of connection points: 2
#     Edge 51, Type (0, 0), BuildingBlock: AJUNOK_clean_linker_0, # of connection points: 2
#     Edge 52, Type (0, 0), BuildingBlock: AJUNOK_clean_linker_0, # of connection points: 2
#     Edge 53, Type (0, 0), BuildingBlock: AJUNOK_clean_linker_0, # of connection points: 2
#     Edge 54, Type (0, 0), BuildingBlock: AJUNOK_clean_linker_0, # of connection points: 2
#     Edge 55, Type (0, 0), BuildingBlock: AJUNOK_clean_linker_0, # of connection points: 2
#     Edge 56, Type (0, 0), BuildingBlock: AJUNOK_clean_linker_0, # of connection points: 2
#     Edge 57, Type (0, 0), BuildingBlock: AJUNOK_clean_linker_0, # of connection points: 2
#     Edge 58, Type (0, 0), BuildingBlock: AJUNOK_clean_linker_0, # of connection points: 2
#     Edge 59, Type (0, 0), BuildingBlock: AJUNOK_clean_linker_0, # of connection points: 2
#     Edge 60, Type (0, 0), BuildingBlock: AJUNOK_clean_linker_0, # of connection points: 2
#     Edge 61, Type (0, 0), BuildingBlock: AJUNOK_clean_linker_0, # of connection points: 2
#     Edge 62, Type (0, 0), BuildingBlock: AJUNOK_clean_linker_0, # of connection points: 2
#     Edge 63, Type (0, 0), BuildingBlock: AJUNOK_clean_linker_0, # of connection points: 2
#     Edge 64, Type (0, 0), BuildingBlock: AJUNOK_clean_linker_0, # of connection points: 2
#     Edge 65, Type (0, 0), BuildingBlock: AJUNOK_clean_linker_0, # of connection points: 2
#     Edge 66, Type (0, 0), BuildingBlock: AJUNOK_clean_linker_0, # of connection points: 2
#     Edge 67, Type (0, 0), BuildingBlock: AJUNOK_clean_linker_0, # of connection points: 2
#     Edge 68, Type (0, 0), BuildingBlock: AJUNOK_clean_linker_0, # of connection points: 2
#     Edge 69, Type (0, 0), BuildingBlock: AJUNOK_clean_linker_0, # of connection points: 2
#     Edge 70, Type (0, 0), BuildingBlock: AJUNOK_clean_linker_0, # of connection points: 2
#     Edge 71, Type (0, 0), BuildingBlock: AJUNOK_clean_linker_0, # of connection points: 2
#     Edge 72, Type (0, 0), BuildingBlock: AJUNOK_clean_linker_0, # of connection points: 2
#     Edge 73, Type (0, 0), BuildingBlock: AJUNOK_clean_linker_0, # of connection points: 2
#     Edge 74, Type (0, 0), BuildingBlock: AJUNOK_clean_linker_0, # of connection points: 2
#     Edge 75, Type (0, 0), BuildingBlock: AJUNOK_clean_linker_0, # of connection points: 2
#     Edge 76, Type (0, 0), BuildingBlock: AJUNOK_clean_linker_0, # of connection points: 2
#     Edge 77, Type (0, 0), BuildingBlock: AJUNOK_clean_linker_0, # of connection points: 2
#     Edge 78, Type (0, 0), BuildingBlock: AJUNOK_clean_linker_0, # of connection points: 2
#     Edge 79, Type (0, 0), BuildingBlock: AJUNOK_clean_linker_0, # of connection points: 2
#     Edge 80, Type (0, 0), BuildingBlock: AJUNOK_clean_linker_0, # of connection points: 2
#     Edge 81, Type (0, 0), BuildingBlock: AJUNOK_clean_linker_0, # of connection points: 2
#     Edge 82, Type (0, 0), BuildingBlock: AJUNOK_clean_linker_0, # of connection points: 2
#     Edge 83, Type (0, 0), BuildingBlock: AJUNOK_clean_linker_0, # of connection points: 2
#     Edge 84, Type (0, 0), BuildingBlock: AJUNOK_clean_linker_0, # of connection points: 2
#     Edge 85, Type (0, 0), BuildingBlock: AJUNOK_clean_linker_0, # of connection points: 2
#     Edge 86, Type (0, 0), BuildingBlock: AJUNOK_clean_linker_0, # of connection points: 2
#     Edge 87, Type (0, 0), BuildingBlock: AJUNOK_clean_linker_0, # of connection points: 2
#     Edge 88, Type (0, 0), BuildingBlock: AJUNOK_clean_linker_0, # of connection points: 2
#     Edge 89, Type (0, 0), BuildingBlock: AJUNOK_clean_linker_0, # of connection points: 2
#     Edge 90, Type (0, 0), BuildingBlock: AJUNOK_clean_linker_0, # of connection points: 2
#     Edge 91, Type (0, 0), BuildingBlock: AJUNOK_clean_linker_0, # of connection points: 2
#     Edge 92, Type (0, 0), BuildingBlock: AJUNOK_clean_linker_0, # of connection points: 2
#     Edge 93, Type (0, 0), BuildingBlock: AJUNOK_clean_linker_0, # of connection points: 2
#     Edge 94, Type (0, 0), BuildingBlock: AJUNOK_clean_linker_0, # of connection points: 2
#     Edge 95, Type (0, 0), BuildingBlock: AJUNOK_clean_linker_0, # of connection points: 2
#     Edge 96, Type (0, 0), BuildingBlock: AJUNOK_clean_linker_0, # of connection points: 2
#     Edge 97, Type (0, 0), BuildingBlock: AJUNOK_clean_linker_0, # of connection points: 2
#     Edge 98, Type (0, 0), BuildingBlock: AJUNOK_clean_linker_0, # of connection points: 2
#     Edge 99, Type (0, 0), BuildingBlock: AJUNOK_clean_linker_0, # of connection points: 2
#     Edge 100, Type (0, 0), BuildingBlock: AJUNOK_clean_linker_0, # of connection points: 2
#     Edge 101, Type (0, 0), BuildingBlock: AJUNOK_clean_linker_0, # of connection points: 2
#     Edge 102, Type (0, 0), BuildingBlock: AJUNOK_clean_linker_0, # of connection points: 2
#     Edge 103, Type (0, 0), BuildingBlock: AJUNOK_clean_linker_0, # of connection points: 2
#     Edge 104, Type (0, 0), BuildingBlock: AJUNOK_clean_linker_0, # of connection points: 2
#     Edge 105, Type (0, 0), BuildingBlock: AJUNOK_clean_linker_0, # of connection points: 2
#     Edge 106, Type (0, 0), BuildingBlock: AJUNOK_clean_linker_0, # of connection points: 2
#     Edge 107, Type (0, 0), BuildingBlock: AJUNOK_clean_linker_0, # of connection points: 2
#     Edge 108, Type (0, 0), BuildingBlock: AJUNOK_clean_linker_0, # of connection points: 2
#     Edge 109, Type (0, 0), BuildingBlock: AJUNOK_clean_linker_0, # of connection points: 2
#     Edge 110, Type (0, 0), BuildingBlock: AJUNOK_clean_linker_0, # of connection points: 2
#     Edge 111, Type (0, 0), BuildingBlock: AJUNOK_clean_linker_0, # of connection points: 2
#     Edge 112, Type (0, 0), BuildingBlock: AJUNOK_clean_linker_0, # of connection points: 2
#     Edge 113, Type (0, 0), BuildingBlock: AJUNOK_clean_linker_0, # of connection points: 2
#     Edge 114, Type (0, 0), BuildingBlock: AJUNOK_clean_linker_0, # of connection points: 2
#     Edge 115, Type (0, 0), BuildingBlock: AJUNOK_clean_linker_0, # of connection points: 2
#     Edge 116, Type (0, 0), BuildingBlock: AJUNOK_clean_linker_0, # of connection points: 2
#     Edge 117, Type (0, 0), BuildingBlock: AJUNOK_clean_linker_0, # of connection points: 2
#     Edge 118, Type (0, 0), BuildingBlock: AJUNOK_clean_linker_0, # of connection points: 2
#     Edge 119, Type (0, 0), BuildingBlock: AJUNOK_clean_linker_0, # of connection points: 2
#     Edge 120, Type (0, 0), BuildingBlock: AJUNOK_clean_linker_0, # of connection points: 2
#     Edge 121, Type (0, 0), BuildingBlock: AJUNOK_clean_linker_0, # of connection points: 2
#     Edge 122, Type (0, 0), BuildingBlock: AJUNOK_clean_linker_0, # of connection points: 2
#     Edge 123, Type (0, 0), BuildingBlock: AJUNOK_clean_linker_0, # of connection points: 2
#     Edge 124, Type (0, 0), BuildingBlock: AJUNOK_clean_linker_0, # of connection points: 2
#     Edge 125, Type (0, 0), BuildingBlock: AJUNOK_clean_linker_0, # of connection points: 2
#     Edge 126, Type (0, 0), BuildingBlock: AJUNOK_clean_linker_0, # of connection points: 2
#     Edge 127, Type (0, 0), BuildingBlock: AJUNOK_clean_linker_0, # of connection points: 2
# Relax obj value: 0.058
# Max RMSD: 0.110
# Mean RMSD: 0.110
data_MOF--net-som--node1-BETDEL_clean_sbu_0--edge1-AJUNOK_clean_linker_0
_symmetry_space_group_name_H-M    P1
_symmetry_Int_Tables_number       1
_symmetry_cell_setting            triclinic
loop_
_symmetry_equiv_pos_as_xyz
'x, y, z'
_cell_length_a     14.094633
_cell_length_b     42.960351
_cell_length_c     81.384973
_cell_angle_alpha  89.887063
_cell_angle_beta   89.994483
_cell_angle_gamma 90.057852
loop_
_atom_site_label
_atom_site_type_symbol
_atom_site_fract_x
_atom_site_fract_y
_atom_site_fract_z
_atom_type_partial_charge
Dy0 Dy 0.9381 0.50711 0.0896 0.0
C1 C 0.33657 0.48409 0.09118 0.0
C2 C 0.74334 0.50923 0.08843 0.0
Dy3 Dy 0.14277 0.4859 0.08754 0.0
O4 O 0.79553 0.51877 0.10055 0.0
O5 O 0.7981 0.50015 0.07651 0.0
O6 O 0.97062 0.52857 0.1141 0.0
O7 O 0.0394 0.48735 0.10716 0.0
C8 C 0.03447 0.50815 0.11801 0.0
C9 C 0.05582 0.48616 0.05827 0.0
O10 O 0.0762 0.43977 0.09407 0.0
O11 O 0.92382 0.456 0.08756 0.0
O12 O 0.28944 0.47284 0.07885 0.0
O13 O 0.27711 0.49484 0.10197 0.0
O14 O 0.11894 0.46582 0.0627 0.0
O15 O 0.04428 0.5059 0.06965 0.0
O16 O 0.99519 0.5523 0.08137 0.0
O17 O 0.15025 0.53872 0.08758 0.0
C18 C 0.98462 0.43403 0.09153 0.0
C19 C 0.08512 0.55988 0.08363 0.0
Dy20 Dy 0.36096 0.73805 0.08786 0.0
C21 C 0.95899 0.76405 0.09239 0.0
C22 C 0.55554 0.73621 0.08802 0.0
Dy23 Dy 0.14848 0.76175 0.0855 0.0
O24 O 0.50113 0.72849 0.10022 0.0
O25 O 0.50328 0.74334 0.0754 0.0
O26 O 0.31844 0.71441 0.11145 0.0
O27 O 0.25416 0.75667 0.10472 0.0
C28 C 0.25463 0.73501 0.11517 0.0
C29 C 0.21866 0.75537 0.05498 0.0
O30 O 0.22059 0.8072 0.09123 0.0
O31 O 0.37591 0.78951 0.08792 0.0
O32 O 1.00319 0.78265 0.0823 0.0
O33 O 1.01981 0.74568 0.09948 0.0
O34 O 0.13439 0.76591 0.0581 0.0
O35 O 0.2605 0.75005 0.06847 0.0
O36 O 0.29772 0.69517 0.0777 0.0
O37 O 0.14424 0.70932 0.08536 0.0
C38 C 0.31384 0.81214 0.09022 0.0
C39 C 0.20714 0.68846 0.08021 0.0
Dy40 Dy 0.92861 0.73749 0.20311 0.0
C41 C 0.32573 0.75747 0.19609 0.0
C42 C 0.73494 0.7407 0.20042 0.0
Dy43 Dy 0.13805 0.75762 0.20458 0.0
O44 O 0.78067 0.71898 0.20838 0.0
O45 O 0.79494 0.76013 0.19408 0.0
O46 O 0.96435 0.7141 0.17904 0.0
O47 O 0.03235 0.75553 0.18537 0.0
C48 C 1.02794 0.73434 0.17481 0.0
C49 C 0.08115 0.75211 0.23572 0.0
O50 O 0.0641 0.80371 0.2007 0.0
O51 O 0.92464 0.78592 0.21221 0.0
O52 O 0.28261 0.78051 0.20337 0.0
O53 O 0.26466 0.73589 0.19254 0.0
O54 O 0.16453 0.76175 0.23133 0.0
O55 O 0.02982 0.74715 0.22313 0.0
O56 O 0.98386 0.69359 0.21328 0.0
O57 O 0.13724 0.70492 0.20486 0.0
C58 C 0.97742 0.80892 0.20663 0.0
C59 C 0.07232 0.68508 0.21044 0.0
Dy60 Dy 0.33697 0.50455 0.2079 0.0
C61 C 0.93704 0.48493 0.20727 0.0
C62 C 0.52957 0.50336 0.20558 0.0
Dy63 Dy 0.1288 0.48227 0.21093 0.0
O64 O 0.47123 0.49023 0.19546 0.0
O65 O 0.48258 0.51849 0.21684 0.0
O66 O 0.29752 0.52904 0.18438 0.0
O67 O 0.22914 0.48735 0.19081 0.0
C68 C 0.23182 0.5092 0.18051 0.0
C69 C 0.19973 0.48443 0.24129 0.0
O70 O 0.19726 0.43557 0.20736 0.0
O71 O 0.35028 0.45381 0.21255 0.0
O72 O 0.98933 0.50462 0.21509 0.0
O73 O 0.98982 0.4628 0.2011 0.0
O74 O 0.11643 0.47345 0.23786 0.0
O75 O 0.24314 0.49116 0.22811 0.0
O76 O 0.27706 0.5484 0.21742 0.0
O77 O 0.12883 0.5345 0.20773 0.0
C78 C 0.28973 0.43098 0.20972 0.0
C79 C 0.18842 0.5555 0.21375 0.0
Dy80 Dy 0.9 0.50854 0.96054 0.0
C81 C 0.3072 0.48201 0.957 0.0
C82 C 0.70947 0.50551 0.95968 0.0
Dy83 Dy 0.11645 0.48265 0.95744 0.0
O84 O 0.75987 0.52072 0.94876 0.0
O85 O 0.76327 0.49364 0.9709 0.0
O86 O 0.9033 0.52276 0.98686 0.0
O87 O 1.02108 0.50119 0.9763 0.0
C88 C 0.98674 0.51119 0.98967 0.0
C89 C 1.0169 0.48119 0.92883 0.0
O90 O 0.05074 0.43922 0.96618 0.0
O91 O 0.89702 0.45578 0.95989 0.0
O92 O 0.25592 0.4658 0.96735 0.0
O93 O 0.25395 0.49766 0.94702 0.0
O94 O 0.10397 0.47171 0.92986 0.0
O95 O 0.99344 0.4898 0.94283 0.0
O96 O 0.97768 0.55198 0.95266 0.0
O97 O 0.12364 0.53357 0.96194 0.0
C98 C 0.95892 0.43378 0.96418 0.0
C99 C 0.06973 0.5561 0.95601 0.0
Dy100 Dy 0.90996 0.23188 0.95931 0.0
C101 C 0.50549 0.24649 0.95359 0.0
C102 C 0.09763 0.23047 0.95167 0.0
Dy103 Dy 0.69769 0.2509 0.95608 0.0
O104 O 0.05214 0.20789 0.95897 0.0
O105 O 0.03963 0.25284 0.94799 0.0
O106 O 0.92567 0.2294 0.98675 0.0
O107 O 0.79618 0.24215 0.97626 0.0
C108 C 0.83935 0.23828 0.98974 0.0
C109 C 0.80353 0.25385 0.92855 0.0
O110 O 0.75102 0.29571 0.96551 0.0
O111 O 0.90709 0.28439 0.95847 0.0
O112 O 0.54973 0.26833 0.96166 0.0
O113 O 0.56603 0.22791 0.94679 0.0
O114 O 0.73519 0.27305 0.93172 0.0
O115 O 0.80739 0.23315 0.93943 0.0
O116 O 0.83871 0.18584 0.95456 0.0
O117 O 0.69455 0.20213 0.96495 0.0
C118 C 0.84001 0.30429 0.96307 0.0
C119 C 0.75085 0.17981 0.95966 0.0
Dy120 Dy 0.91015 0.22778 0.83735 0.0
C121 C 0.31393 0.24476 0.84186 0.0
C122 C 0.72218 0.22826 0.84496 0.0
Dy123 Dy 0.12062 0.24805 0.83962 0.0
O124 O 0.78102 0.25088 0.84762 0.0
O125 O 0.76711 0.20437 0.83889 0.0
O126 O 0.8901 0.22279 0.81031 0.0
O127 O 1.02194 0.23754 0.81948 0.0
C128 C 0.9745 0.23241 0.80649 0.0
C129 C 1.01852 0.25247 0.86756 0.0
O130 O 0.0638 0.29315 0.83059 0.0
O131 O 0.90877 0.28014 0.83746 0.0
O132 O 0.25405 0.22793 0.85001 0.0
O133 O 0.26838 0.2644 0.83248 0.0
O134 O 0.08659 0.27142 0.86367 0.0
O135 O 1.01336 0.23117 0.857 0.0
O136 O 0.97887 0.18146 0.84236 0.0
O137 O 0.12746 0.19767 0.83344 0.0
C138 C 0.9735 0.30065 0.83269 0.0
C139 C 0.06825 0.17553 0.83815 0.0
Dy140 Dy 0.915 0.50304 0.83779 0.0
C141 C 0.51055 0.48798 0.84187 0.0
C142 C 0.10293 0.50398 0.84534 0.0
Dy143 Dy 0.70251 0.48251 0.83987 0.0
O144 O 0.05609 0.52781 0.83957 0.0
O145 O 0.04597 0.48071 0.8477 0.0
O146 O 0.93511 0.50564 0.8105 0.0
O147 O 0.80529 0.49154 0.8204 0.0
C148 C 0.85031 0.49571 0.80716 0.0
C149 C 0.80064 0.48146 0.86827 0.0
O150 O 0.76088 0.43758 0.83129 0.0
O151 O 0.91432 0.45046 0.83919 0.0
O152 O 0.57166 0.50643 0.84863 0.0
O153 O 0.55413 0.46568 0.83401 0.0
O154 O 0.73191 0.46245 0.86493 0.0
O155 O 0.80842 0.5013 0.85697 0.0
O156 O 0.83908 0.54906 0.84091 0.0
O157 O 0.69977 0.53031 0.82968 0.0
C158 C 0.85034 0.42985 0.83411 0.0
C159 C 0.7525 0.55374 0.83475 0.0
Dy160 Dy 0.93695 -0.00344 0.58918 0.0
C161 C 0.33583 0.97677 0.59449 0.0
C162 C 0.74388 -0.00594 0.5916 0.0
Dy163 Dy 0.14836 0.97682 0.58636 0.0
O164 O 0.79038 0.01546 0.58354 0.0
O165 O 0.80267 0.97473 0.5983 0.0
O166 O 0.97492 0.01846 0.61353 0.0
O167 O 0.04446 0.97801 0.60597 0.0
C168 C 0.04072 -0.00157 0.61695 0.0
C169 C 0.08154 0.98321 0.5558 0.0
O170 O 0.07735 0.93013 0.58978 0.0
O171 O 0.92872 0.94726 0.5813 0.0
O172 O 0.29314 0.95434 0.58662 0.0
O173 O 0.27476 -0.00213 0.5987 0.0
O174 O 0.16741 0.97431 0.55914 0.0
O175 O 0.03611 0.98745 0.56905 0.0
O176 O 0.99225 0.04114 0.57946 0.0
O177 O 0.14755 0.02951 0.58662 0.0
C178 C 0.9878 0.9247 0.58533 0.0
C179 C 0.08145 0.04961 0.5818 0.0
Dy180 Dy 0.34293 0.23218 0.58697 0.0
C181 C 0.94389 0.25497 0.59273 0.0
C182 C 0.53554 0.23717 0.58969 0.0
Dy183 Dy 0.13157 0.25351 0.58464 0.0
O184 O 0.47388 0.25485 0.59684 0.0
O185 O 0.49211 0.21576 0.58113 0.0
O186 O 0.30572 0.21033 0.61136 0.0
O187 O 0.23706 0.25116 0.60404 0.0
C188 C 0.24084 0.23053 0.61499 0.0
C189 C 0.19801 0.247 0.55396 0.0
O190 O 0.209 0.29898 0.58886 0.0
O191 O 0.34774 0.28047 0.57741 0.0
O192 O 0.98933 0.27774 0.58555 0.0
O193 O 1.00225 0.23256 0.59616 0.0
O194 O 0.11284 0.25663 0.55727 0.0
O195 O 0.24202 0.24227 0.56729 0.0
O196 O 0.28511 0.18742 0.57804 0.0
O197 O 0.13065 0.20081 0.58524 0.0
C198 C 0.29616 0.30373 0.58297 0.0
C199 C 0.19491 0.18005 0.58046 0.0
Dy200 Dy 0.94424 0.23239 0.70592 0.0
C201 C 0.34179 0.25464 0.70513 0.0
C202 C 0.7492 0.22979 0.7073 0.0
Dy203 Dy 0.1473 0.25353 0.70823 0.0
O204 O 0.80117 0.22052 0.69509 0.0
O205 O 0.80438 0.23896 0.71914 0.0
O206 O 0.97899 0.21041 0.68161 0.0
O207 O 0.04545 0.25232 0.68828 0.0
C208 C 0.04116 0.23131 0.67752 0.0
C209 C 0.05902 0.25469 0.73738 0.0
O210 O 0.08413 0.3 0.70197 0.0
O211 O 0.92936 0.28395 0.70697 0.0
O212 O 0.2942 0.26399 0.71783 0.0
O213 O 0.28255 0.24633 0.69371 0.0
O214 O 0.12247 0.27468 0.73266 0.0
O215 O 0.04753 0.23403 0.72638 0.0
O216 O 1.00164 0.18673 0.71393 0.0
O217 O 0.15539 0.20115 0.70745 0.0
C218 C 0.99233 0.30593 0.70394 0.0
C219 C 0.09186 0.17965 0.71145 0.0
Dy220 Dy 0.35696 -0.00305 0.70575 0.0
C221 C 0.95868 0.97448 0.70518 0.0
C222 C 0.55176 -0.0005 0.70674 0.0
Dy223 Dy 0.15276 0.97612 0.70841 0.0
O224 O 0.49936 0.0073 0.69429 0.0
O225 O 0.49718 -0.00811 0.71899 0.0
O226 O 0.3206 0.0186 0.68136 0.0
O227 O 0.25452 0.97685 0.68853 0.0
C228 C 0.2581 -0.00239 0.6776 0.0
C229 C 0.24175 0.97595 0.73744 0.0
O230 O 0.2174 0.92939 0.70271 0.0
O231 O 0.37192 0.94568 0.70769 0.0
O232 O 1.00597 0.9661 0.71812 0.0
O233 O 1.01801 0.98221 0.69364 0.0
O234 O 0.17759 0.95586 0.73315 0.0
O235 O 0.25312 -0.00403 0.7261 0.0
O236 O 0.30091 0.04242 0.71375 0.0
O237 O 0.14591 0.02892 0.70754 0.0
C238 C 0.30938 0.92359 0.70478 0.0
C239 C 0.21131 0.05014 0.71123 0.0
Dy240 Dy 0.89534 0.00244 0.45705 0.0
C241 C 0.29935 0.98564 0.45314 0.0
C242 C 0.70791 0.0026 0.44863 0.0
Dy243 Dy 0.10609 0.98223 0.45569 0.0
O244 O 0.75124 0.02546 0.45605 0.0
O245 O 0.76864 0.98106 0.4449 0.0
O246 O 0.87066 0.00622 0.48404 0.0
O247 O 1.00364 -0.00791 0.4753 0.0
C248 C 0.95482 -0.00312 0.48815 0.0
C249 C 1.00641 0.97905 0.42749 0.0
O250 O 0.04935 0.93804 0.46539 0.0
O251 O 0.89641 0.94964 0.45682 0.0
O252 O 0.25375 0.96418 0.46135 0.0
O253 O 0.23952 0.00468 0.44647 0.0
O254 O 0.07002 0.95881 0.43164 0.0
O255 O 1.00231 0.00028 0.43801 0.0
O256 O 0.97103 0.04823 0.4526 0.0
O257 O 0.10925 0.03079 0.46465 0.0
C258 C 0.96112 0.92953 0.46221 0.0
C259 C 0.05769 0.05359 0.45856 0.0
Dy260 Dy 0.91672 0.72629 0.45599 0.0
C261 C 0.51285 0.74249 0.45167 0.0
C262 C 0.10503 0.7248 0.44837 0.0
Dy263 Dy 0.70587 0.7462 0.4538 0.0
O264 O 0.04655 0.74682 0.4443 0.0
O265 O 0.0592 0.70248 0.45581 0.0
O266 O 0.93783 0.72269 0.48308 0.0
O267 O 0.80557 0.73629 0.47382 0.0
C268 C 0.85263 0.73144 0.48687 0.0
C269 C 0.80802 0.74973 0.42586 0.0
O270 O 0.76205 0.79078 0.4634 0.0
O271 O 0.9164 0.77879 0.4557 0.0
O272 O 0.57255 0.72404 0.4446 0.0
O273 O 0.55824 0.76391 0.45988 0.0
O274 O 0.74212 0.76942 0.4297 0.0
O275 O 0.81218 0.72853 0.43648 0.0
O276 O 0.84617 0.67988 0.45188 0.0
O277 O 0.69895 0.69656 0.46123 0.0
C278 C 0.85153 0.79889 0.4609 0.0
C279 C 0.75739 0.67432 0.4566 0.0
Dy280 Dy 0.91493 0.72777 0.33365 0.0
C281 C 0.3134 0.75026 0.33638 0.0
C282 C 0.72024 0.72618 0.33451 0.0
Dy283 Dy 0.11884 0.74874 0.33645 0.0
O284 O 0.77225 0.72761 0.32144 0.0
O285 O 0.77497 0.72379 0.34734 0.0
O286 O 0.9432 0.70679 0.30916 0.0
O287 O 1.01604 0.7476 0.31606 0.0
C288 C 1.00588 0.72742 0.30481 0.0
C289 C 1.01955 0.75064 0.36455 0.0
O290 O 0.06115 0.79487 0.33004 0.0
O291 O 0.90773 0.77991 0.33658 0.0
O292 O 0.26055 0.74193 0.34865 0.0
O293 O 0.25963 0.75904 0.32423 0.0
O294 O 0.08415 0.77094 0.36067 0.0
O295 O 1.01543 0.72953 0.35382 0.0
O296 O 0.98268 0.682 0.34006 0.0
O297 O 0.12848 0.69855 0.33058 0.0
C298 C 0.97126 0.80167 0.3329 0.0
C299 C 0.07227 0.67628 0.33596 0.0
Dy300 Dy 0.89145 0.00316 0.33656 0.0
C301 C 0.49291 0.9789 0.3383 0.0
C302 C 0.08636 0.00475 0.33721 0.0
Dy303 Dy 0.68771 0.98072 0.339 0.0
O304 O 0.0338 0.00439 0.32418 0.0
O305 O 0.03199 0.00608 0.35014 0.0
O306 O 0.85948 0.02677 0.31296 0.0
O307 O 0.79004 0.98462 0.31854 0.0
C308 C 0.79823 0.00625 0.30795 0.0
C309 C 0.78788 0.97754 0.367 0.0
O310 O 0.748 0.93532 0.33172 0.0
O311 O 0.90076 0.95106 0.33835 0.0
O312 O 0.54468 0.98289 0.35129 0.0
O313 O 0.54798 0.97433 0.32569 0.0
O314 O 0.7235 0.95726 0.36297 0.0
O315 O 0.7907 -0.00087 0.35651 0.0
O316 O 0.82472 0.04834 0.34389 0.0
O317 O 0.67563 0.03186 0.33569 0.0
C318 C 0.8389 0.92923 0.33416 0.0
C319 C 0.73364 0.05385 0.34083 0.0
Dy320 Dy 0.44108 0.4966 0.59159 0.0
C321 C 0.8415 0.47012 0.59786 0.0
C322 C 0.24689 0.49585 0.59417 0.0
Dy323 Dy 0.65305 0.47331 0.58977 0.0
O324 O 0.3062 0.48442 0.60473 0.0
O325 O 0.29398 0.50895 0.58216 0.0
O326 O 0.4825 0.51926 0.61552 0.0
O327 O 0.54541 0.47707 0.60854 0.0
C328 C 0.54434 0.49802 0.61928 0.0
C329 C 0.58924 0.47982 0.55909 0.0
O330 O 0.57775 0.42746 0.59318 0.0
O331 O 0.42825 0.44623 0.58575 0.0
O332 O 0.78087 0.48979 0.60387 0.0
O333 O 0.79779 0.4512 0.58791 0.0
O334 O 0.67344 0.46991 0.56277 0.0
O335 O 0.54295 0.4852 0.57215 0.0
O336 O 0.50442 0.54097 0.58291 0.0
O337 O 0.6584 0.52586 0.58956 0.0
C338 C 0.48674 0.42317 0.58931 0.0
C339 C 0.5957 0.54736 0.58506 0.0
Dy340 Dy 0.86272 0.73011 0.58739 0.0
C341 C 0.46375 0.75119 0.59293 0.0
C342 C 0.05569 0.73328 0.58983 0.0
Dy343 Dy 0.65119 0.75052 0.58477 0.0
O344 O 0.99624 0.75221 0.59666 0.0
O345 O 1.00982 0.71198 0.58161 0.0
O346 O 0.82597 0.70923 0.61204 0.0
O347 O 0.75654 0.7496 0.60422 0.0
C348 C 0.76073 0.72945 0.61541 0.0
C349 C 0.71727 0.74263 0.55418 0.0
O350 O 0.72646 0.79667 0.58816 0.0
O351 O 0.86755 0.77819 0.57754 0.0
O352 O 0.50689 0.77345 0.58493 0.0
O353 O 0.52438 0.73001 0.59725 0.0
O354 O 0.63182 0.75205 0.55742 0.0
O355 O 0.76193 0.73871 0.56752 0.0
O356 O 0.8057 0.68494 0.57908 0.0
O357 O 0.65078 0.69784 0.58613 0.0
C358 C 0.81428 0.80149 0.58256 0.0
C359 C 0.71638 0.67712 0.5819 0.0
Dy360 Dy 0.45475 0.73318 0.70552 0.0
C361 C 0.85288 0.7565 0.69851 0.0
C362 C 0.26175 0.73862 0.70276 0.0
Dy363 Dy 0.66504 0.7548 0.70686 0.0
O364 O 0.30474 0.71678 0.71112 0.0
O365 O 0.32407 0.75657 0.6959 0.0
O366 O 0.49033 0.71064 0.68126 0.0
O367 O 0.55774 0.75213 0.68785 0.0
C368 C 0.55337 0.73117 0.67714 0.0
C369 C 0.60631 0.74816 0.73798 0.0
O370 O 0.58614 0.79999 0.7028 0.0
O371 O 0.45138 0.78108 0.7154 0.0
O372 O 0.80718 0.77927 0.70555 0.0
O373 O 0.79436 0.73402 0.69521 0.0
O374 O 0.68974 0.75824 0.73387 0.0
O375 O 0.55761 0.74333 0.72511 0.0
O376 O 0.51331 0.68875 0.71464 0.0
O377 O 0.666 0.70219 0.70639 0.0
C378 C 0.50036 0.80446 0.70927 0.0
C379 C 0.60303 0.68149 0.71178 0.0
Dy380 Dy 0.8599 0.49667 0.70803 0.0
C381 C 0.46403 0.47754 0.70406 0.0
C382 C 0.05389 0.49218 0.70675 0.0
Dy383 Dy 0.656 0.47809 0.70963 0.0
O384 O 1.0078 0.51438 0.7142 0.0
O385 O 0.99414 0.47327 0.70002 0.0
O386 O 0.83026 0.51828 0.68325 0.0
O387 O 0.75947 0.47745 0.6901 0.0
C388 C 0.76677 0.49792 0.67917 0.0
C389 C 0.73371 0.47763 0.73954 0.0
O390 O 0.73031 0.43315 0.70304 0.0
O391 O 0.86074 0.44853 0.71754 0.0
O392 O 0.51176 0.45477 0.71059 0.0
O393 O 0.52168 0.49975 0.70003 0.0
O394 O 0.66299 0.46018 0.7352 0.0
O395 O 0.75373 0.49679 0.72818 0.0
O396 O 0.80849 0.54345 0.7149 0.0
O397 O 0.65322 0.53079 0.70848 0.0
C398 C 0.81234 0.42641 0.71027 0.0
C399 C 0.71943 0.55165 0.71224 0.0
Dy400 Dy 0.40944 0.50361 0.46174 0.0
C401 C 0.80705 0.48528 0.45804 0.0
C402 C 0.21532 0.50392 0.46111 0.0
Dy403 Dy 0.61322 0.48372 0.45887 0.0
O404 O 0.26765 0.48952 0.47171 0.0
O405 O 0.26916 0.51925 0.4509 0.0
O406 O 0.43285 0.52338 0.48665 0.0
O407 O 0.51044 0.48385 0.47929 0.0
C408 C 0.49801 0.50346 0.49073 0.0
C409 C 0.51756 0.48354 0.43031 0.0
O410 O 0.55464 0.43675 0.4641 0.0
O411 O 0.40479 0.45234 0.45596 0.0
O412 O 0.75073 0.49951 0.44799 0.0
O413 O 0.75732 0.46892 0.46847 0.0
O414 O 0.58405 0.46375 0.43384 0.0
O415 O 0.51028 0.50339 0.44161 0.0
O416 O 0.47794 0.55008 0.45676 0.0
O417 O 0.62139 0.53303 0.46695 0.0
C418 C 0.46548 0.43022 0.4603 0.0
C419 C 0.56619 0.55566 0.4617 0.0
Dy420 Dy 0.39999 0.22756 0.45601 0.0
C421 C 0.99316 0.25063 0.45525 0.0
C422 C 0.58979 0.22323 0.44958 0.0
Dy423 Dy 0.18741 0.2496 0.45402 0.0
O424 O 0.54209 0.20458 0.45913 0.0
O425 O 0.53187 0.24273 0.44257 0.0
O426 O 0.41943 0.22552 0.48323 0.0
O427 O 0.28965 0.23958 0.4735 0.0
C428 C 0.3348 0.23508 0.48676 0.0
C429 C 0.28937 0.25134 0.42616 0.0
O430 O 0.25081 0.2933 0.46332 0.0
O431 O 0.40361 0.28015 0.45498 0.0
O432 O 0.04427 0.26045 0.44302 0.0
O433 O 0.04858 0.24221 0.46722 0.0
O434 O 0.22481 0.27177 0.42978 0.0
O435 O 0.29247 0.23044 0.43702 0.0
O436 O 0.32898 0.18095 0.4522 0.0
O437 O 0.17216 0.19816 0.45404 0.0
C438 C 0.33993 0.30091 0.45999 0.0
C439 C 0.23571 0.17571 0.4529 0.0
Dy440 Dy 0.41885 0.23051 0.33669 0.0
C441 C 0.81831 0.25258 0.33948 0.0
C442 C 0.22511 0.22873 0.33981 0.0
Dy443 Dy 0.62366 0.25057 0.33943 0.0
O444 O 0.27236 0.22181 0.32664 0.0
O445 O 0.28418 0.23523 0.35156 0.0
O446 O 0.44407 0.20982 0.31208 0.0
O447 O 0.52055 0.24985 0.31903 0.0
C448 C 0.50898 0.22973 0.30779 0.0
C449 C 0.52288 0.25211 0.36738 0.0
O450 O 0.56982 0.29662 0.33201 0.0
O451 O 0.41409 0.28311 0.33781 0.0
O452 O 0.76447 0.25398 0.35236 0.0
O453 O 0.76545 0.25143 0.32639 0.0
O454 O 0.5858 0.27297 0.36354 0.0
O455 O 0.52007 0.23112 0.35662 0.0
O456 O 0.48296 0.18447 0.34353 0.0
O457 O 0.63363 0.19959 0.33565 0.0
C458 C 0.48009 0.30427 0.33433 0.0
C459 C 0.57294 0.17785 0.34016 0.0
Dy460 Dy 0.41995 0.50737 0.33674 0.0
C461 C 1.01142 0.48103 0.34158 0.0
C462 C 0.6108 0.50599 0.33734 0.0
Dy463 Dy 0.20235 0.48251 0.34131 0.0
O464 O 0.55751 0.49396 0.3261 0.0
O465 O 0.55955 0.5202 0.34845 0.0
O466 O 0.4135 0.51862 0.30993 0.0
O467 O 0.29625 0.49917 0.32171 0.0
C468 C 0.32894 0.50733 0.30784 0.0
C469 C 0.30555 0.48156 0.36937 0.0
O470 O 0.26705 0.43878 0.33296 0.0
O471 O 0.42219 0.45489 0.33878 0.0
O472 O 0.0638 0.49637 0.35182 0.0
O473 O 0.06365 0.46546 0.3312 0.0
O474 O 0.21923 0.47117 0.3687 0.0
O475 O 0.32699 0.49064 0.35531 0.0
O476 O 0.34752 0.55197 0.34347 0.0
O477 O 0.1942 0.53368 0.33769 0.0
C478 C 0.35886 0.43316 0.33473 0.0
C479 C 0.25432 0.55614 0.34164 0.0
Dy480 Dy 0.43803 0.00865 0.08981 0.0
C481 C 0.83592 0.98454 0.08831 0.0
C482 C 0.24299 0.01046 0.08905 0.0
Dy483 Dy 0.64088 0.98656 0.08713 0.0
O484 O 0.29471 0.00739 0.10212 0.0
O485 O 0.29828 0.01417 0.07638 0.0
O486 O 0.47541 0.03125 0.11385 0.0
O487 O 0.54046 0.98903 0.10722 0.0
C488 C 0.53795 0.01035 0.11782 0.0
C489 C 0.54866 0.98582 0.05834 0.0
O490 O 0.57326 0.94096 0.09403 0.0
O491 O 0.42509 0.95781 0.08573 0.0
O492 O 0.78425 0.98181 0.07524 0.0
O493 O 0.78051 0.9865 0.10106 0.0
O494 O 0.60858 0.96463 0.06305 0.0
O495 O 0.54099 0.00651 0.06938 0.0
O496 O 0.49637 0.0545 0.08288 0.0
O497 O 0.65039 0.03902 0.08869 0.0
C498 C 0.48226 0.93556 0.09078 0.0
C499 C 0.58726 0.06092 0.08506 0.0
Dy500 Dy 0.84998 0.24333 0.08955 0.0
C501 C 0.4507 0.26453 0.09536 0.0
C502 C 0.04247 0.24814 0.09205 0.0
Dy503 Dy 0.63839 0.26305 0.08743 0.0
O504 O 0.99861 0.22663 0.08364 0.0
O505 O 0.98139 0.26617 0.0991 0.0
O506 O 0.81409 0.22054 0.11378 0.0
O507 O 0.7438 0.26135 0.10681 0.0
C508 C 0.7487 0.24043 0.11755 0.0
C509 C 0.70252 0.25662 0.05655 0.0
O510 O 0.71234 0.30852 0.09251 0.0
O511 O 0.85163 0.29195 0.08054 0.0
O512 O 0.49654 0.28735 0.08834 0.0
O513 O 0.50862 0.24195 0.09872 0.0
O514 O 0.61763 0.26596 0.06019 0.0
O515 O 0.74894 0.25246 0.0697 0.0
O516 O 0.79381 0.19866 0.08048 0.0
O517 O 0.6406 0.21062 0.08884 0.0
C518 C 0.7991 0.3143 0.08682 0.0
C519 C 0.70546 0.19037 0.08376 0.0
Dy520 Dy 0.43154 0.23959 0.20647 0.0
C521 C 0.82921 0.26201 0.19895 0.0
C522 C 0.23794 0.24395 0.2042 0.0
Dy523 Dy 0.64153 0.26086 0.20753 0.0
O524 O 0.28303 0.2211 0.21138 0.0
O525 O 0.29848 0.26384 0.19844 0.0
O526 O 0.46353 0.21839 0.18176 0.0
O527 O 0.53318 0.25911 0.18874 0.0
C528 C 0.52746 0.23868 0.17776 0.0
C529 C 0.58713 0.25297 0.2387 0.0
O530 O 0.56318 0.30648 0.20465 0.0
O531 O 0.42895 0.28684 0.21711 0.0
O532 O 0.78552 0.28426 0.20679 0.0
O533 O 0.76837 0.24074 0.19478 0.0
O534 O 0.66991 0.26318 0.23433 0.0
O535 O 0.53564 0.24862 0.22609 0.0
O536 O 0.49079 0.19509 0.21528 0.0
O537 O 0.64233 0.2083 0.20652 0.0
C538 C 0.4778 0.31059 0.21137 0.0
C539 C 0.57953 0.18752 0.21187 0.0
Dy540 Dy 0.85809 0.00662 0.20619 0.0
C541 C 0.4594 0.98337 0.20846 0.0
C542 C 0.05276 0.00936 0.20765 0.0
Dy543 Dy 0.65439 0.9848 0.20934 0.0
O544 O 1.00246 0.00932 0.19431 0.0
O545 O 0.99616 0.00948 0.22028 0.0
O546 O 0.82153 0.02934 0.18219 0.0
O547 O 0.75356 0.98757 0.189 0.0
C548 C 0.75675 0.00903 0.1784 0.0
C549 C 0.74981 0.98376 0.23783 0.0
O550 O 0.71833 0.93857 0.20314 0.0
O551 O 0.87217 0.95507 0.20847 0.0
O552 O 0.51151 0.98182 0.22154 0.0
O553 O 0.51427 0.98386 0.19559 0.0
O554 O 0.68805 0.9629 0.23343 0.0
O555 O 0.75658 0.00446 0.22675 0.0
O556 O 0.79878 0.05258 0.2132 0.0
O557 O 0.64471 0.03703 0.20753 0.0
C558 C 0.81017 0.93283 0.20529 0.0
C559 C 0.70761 0.05894 0.21114 0.0
Dy560 Dy 0.4202 0.00547 0.95959 0.0
C561 C 0.81817 0.98352 0.95696 0.0
C562 C 0.22555 0.00599 0.96032 0.0
Dy563 Dy 0.62363 0.9847 0.95631 0.0
O564 O 0.28071 -0.00517 0.97157 0.0
O565 O 0.27702 0.01829 0.9487 0.0
O566 O 0.45157 0.02894 0.98315 0.0
O567 O 0.52432 0.98764 0.97736 0.0
C568 C 0.51493 0.00905 0.98802 0.0
C569 C 0.52329 0.98112 0.92827 0.0
O570 O 0.56572 0.93864 0.9632 0.0
O571 O 0.41334 0.95352 0.95607 0.0
O572 O 0.76646 -0.00687 0.94482 0.0
O573 O 0.76329 0.97319 0.96863 0.0
O574 O 0.59287 0.96247 0.93182 0.0
O575 O 0.51705 0.00222 0.93899 0.0
O576 O 0.48547 0.05196 0.95361 0.0
O577 O 0.63596 0.03532 0.96085 0.0
C578 C 0.47558 0.93193 0.96046 0.0
C579 C 0.57677 0.0575 0.9565 0.0
Dy580 Dy 0.41069 0.72984 0.95679 0.0
C581 C 1.00433 0.75323 0.95663 0.0
C582 C 0.60065 0.72631 0.95023 0.0
Dy583 Dy 0.19869 0.75268 0.95511 0.0
O584 O 0.55318 0.70673 0.9593 0.0
O585 O 0.5424 0.74636 0.94377 0.0
O586 O 0.42967 0.72618 0.984 0.0
O587 O 0.30083 0.74143 0.97443 0.0
C588 C 0.34565 0.73618 0.98764 0.0
C589 C 0.29986 0.75406 0.92708 0.0
O590 O 0.26274 0.79538 0.96531 0.0
O591 O 0.41397 0.78242 0.95619 0.0
O592 O 0.05482 0.76594 0.94506 0.0
O593 O 0.06045 0.74223 0.96789 0.0
O594 O 0.23651 0.77484 0.93076 0.0
O595 O 0.3024 0.7333 0.93796 0.0
O596 O 0.33855 0.68392 0.95173 0.0
O597 O 0.18264 0.70132 0.95456 0.0
C598 C 0.35151 0.803 0.96183 0.0
C599 C 0.24527 0.67878 0.95263 0.0
Dy600 Dy 0.41395 0.72786 0.83636 0.0
C601 C 0.81874 0.74545 0.84154 0.0
C602 C 0.22644 0.72811 0.84439 0.0
Dy603 Dy 0.62582 0.74774 0.83916 0.0
O604 O 0.26912 0.70532 0.83684 0.0
O605 O 0.28744 0.74944 0.84833 0.0
O606 O 0.39544 0.72491 0.80914 0.0
O607 O 0.52671 0.73821 0.81903 0.0
C608 C 0.48138 0.73374 0.80577 0.0
C609 C 0.5207 0.75071 0.86679 0.0
O610 O 0.57093 0.79246 0.82969 0.0
O611 O 0.4153 0.78047 0.83667 0.0
O612 O 0.7723 0.76596 0.83287 0.0
O613 O 0.75998 0.72693 0.84889 0.0
O614 O 0.58776 0.77034 0.86334 0.0
O615 O 0.51745 0.72995 0.85597 0.0
O616 O 0.48422 0.68129 0.84033 0.0
O617 O 0.63378 0.69807 0.832 0.0
C618 C 0.48169 0.80071 0.83211 0.0
C619 C 0.57407 0.67576 0.83616 0.0
Dy620 Dy 0.41848 0.00522 0.83449 0.0
C621 C 1.01257 0.98218 0.84046 0.0
C622 C 0.60966 0.00507 0.83629 0.0
Dy623 Dy 0.20349 0.97954 0.839 0.0
O624 O 0.55565 0.02246 0.84561 0.0
O625 O 0.55897 0.9891 0.82611 0.0
O626 O 0.41501 0.0155 0.8076 0.0
O627 O 0.29722 -0.00446 0.81914 0.0
C628 C 0.33151 0.00347 0.80534 0.0
C629 C 0.30531 0.98005 0.86752 0.0
O630 O 0.26765 0.93551 0.83083 0.0
O631 O 0.42211 0.95244 0.8364 0.0
O632 O 0.05922 0.96271 0.83108 0.0
O633 O 0.07043 -0.00101 0.84902 0.0
O634 O 0.21903 0.9697 0.8666 0.0
O635 O 0.3273 0.9888 0.85339 0.0
O636 O 0.33927 0.04967 0.84027 0.0
O637 O 0.19362 0.02949 0.83213 0.0
C638 C 0.3598 0.9302 0.83254 0.0
C639 C 0.24728 0.05315 0.83667 0.0
C640 C 0.98682 0.37774 0.08452 0.0
C641 C 0.94419 0.40257 0.09275 0.0
C642 C 0.93812 0.34959 0.08246 0.0
C643 C 0.84524 0.34513 0.08869 0.0
H644 H 0.05608 0.38057 0.07892 0.0
H645 H 0.97374 0.33132 0.07571 0.0
S646 S 0.70644 0.40289 0.11246 0.0
N647 N 0.80675 0.42091 0.10801 0.0
N648 N 0.71563 0.36784 0.10432 0.0
C649 C 0.80341 0.36962 0.09747 0.0
C650 C 0.85292 0.39831 0.09949 0.0
C651 C 0.49561 0.87759 0.09043 0.0
C652 C 0.43989 0.90423 0.09239 0.0
C653 C 0.45382 0.84805 0.09004 0.0
C654 C 0.35452 0.84391 0.09168 0.0
H655 H 0.57152 0.8796 0.0886 0.0
H656 H 0.5004 0.82836 0.0881 0.0
S657 S 0.17861 0.90645 0.09912 0.0
N658 N 0.28119 0.92475 0.09752 0.0
N659 N 0.20302 0.86919 0.09663 0.0
C660 C 0.29853 0.87037 0.09438 0.0
C661 C 0.34111 0.9005 0.09478 0.0
C662 C 0.94242 0.89579 0.1996 0.0
C663 C 0.84798 0.90079 0.20471 0.0
C664 C 0.9842 0.86619 0.20033 0.0
C665 C 0.93361 0.84047 0.20642 0.0
H666 H 0.98477 0.91501 0.19503 0.0
H667 H 0.05667 0.86355 0.19613 0.0
S668 S 0.68445 0.84182 0.222 0.0
N669 N 0.7056 0.87801 0.21626 0.0
N670 N 0.78277 0.82246 0.218 0.0
C671 C 0.83864 0.84533 0.21164 0.0
C672 C 0.79611 0.87542 0.21065 0.0
C673 C 0.42342 0.3957 0.20272 0.0
C674 C 0.33173 0.39957 0.20938 0.0
C675 C 0.47114 0.36714 0.20365 0.0
C676 C 0.42951 0.3414 0.21147 0.0
H677 H 0.45892 0.41504 0.19675 0.0
H678 H 0.54085 0.36528 0.19814 0.0
S679 S 0.19169 0.34029 0.23172 0.0
N680 N 0.20193 0.37593 0.22433 0.0
N681 N 0.29062 0.32227 0.22656 0.0
C682 C 0.33756 0.34519 0.21835 0.0
C683 C 0.28878 0.37422 0.21713 0.0
C684 C 0.06357 0.61353 0.95019 0.0
C685 C 0.11675 0.58695 0.95403 0.0
C686 C 0.10687 0.64285 0.94913 0.0
C687 C 0.20533 0.64686 0.95181 0.0
H688 H 0.98764 0.61189 0.94833 0.0
H689 H 0.06187 0.66266 0.94647 0.0
S690 S 0.37863 0.58451 0.96106 0.0
N691 N 0.27577 0.56642 0.95955 0.0
N692 N 0.35526 0.62157 0.95768 0.0
C693 C 0.26006 0.62041 0.95503 0.0
C694 C 0.21628 0.59049 0.95614 0.0
C695 C 0.61335 0.14356 0.96345 0.0
C696 C 0.70869 0.1482 0.95851 0.0
C697 C 0.56853 0.11459 0.96193 0.0
C698 C 0.61769 0.08904 0.9556 0.0
H699 H 0.57246 0.16241 0.96869 0.0
H700 H 0.49639 0.11192 0.96632 0.0
S701 S 0.86581 0.08851 0.94008 0.0
N702 N 0.84878 0.12459 0.94636 0.0
N703 N 0.76508 0.07007 0.94364 0.0
C704 C 0.7122 0.0933 0.95031 0.0
C705 C 0.75766 0.12285 0.95176 0.0
C706 C 0.20294 0.13959 0.84369 0.0
C707 C 0.10777 0.14365 0.83887 0.0
C708 C 0.24797 0.11052 0.84291 0.0
C709 C 0.19927 0.08413 0.83728 0.0
H710 H 0.24277 0.15926 0.84817 0.0
H711 H 0.32129 0.10878 0.84677 0.0
S712 S 0.94566 0.0823 0.82383 0.0
N713 N 0.96482 0.11898 0.82881 0.0
N714 N 0.04688 0.06413 0.82723 0.0
C715 C 0.10228 0.08782 0.83278 0.0
C716 C 0.05699 0.11755 0.83367 0.0
C717 C 0.70411 0.63924 0.84351 0.0
C718 C 0.61397 0.64406 0.83644 0.0
C719 C 0.7497 0.61027 0.84264 0.0
C720 C 0.70754 0.58511 0.83441 0.0
H721 H 0.73982 0.65813 0.8498 0.0
H722 H 0.81797 0.60757 0.84858 0.0
S723 S 0.47559 0.58715 0.81229 0.0
N724 N 0.48635 0.62228 0.82025 0.0
N725 N 0.57156 0.56798 0.81801 0.0
C726 C 0.61779 0.59004 0.82691 0.0
C727 C 0.571 0.61943 0.82811 0.0
C728 C 0.85238 0.88821 0.5897 0.0
C729 C 0.94788 0.89286 0.58508 0.0
C730 C 0.80914 0.85884 0.58868 0.0
C731 C 0.8592 0.83296 0.58273 0.0
H732 H 0.81055 0.90749 0.59426 0.0
H733 H 0.7361 0.85646 0.59263 0.0
S734 S 0.1103 0.8336 0.56805 0.0
N735 N 0.09045 0.86973 0.57396 0.0
N736 N 1.01046 0.81459 0.57153 0.0
C737 C 0.95501 0.83754 0.57783 0.0
C738 C 0.99908 0.86742 0.57917 0.0
C739 C 0.30665 0.35833 0.59387 0.0
C740 C 0.34375 0.33465 0.58388 0.0
C741 C 0.35582 0.38647 0.59604 0.0
C742 C 0.44468 0.39178 0.58859 0.0
H743 H 0.23973 0.35507 0.60019 0.0
H744 H 0.32377 0.40436 0.60359 0.0
S745 S 0.56976 0.33888 0.56012 0.0
N746 N 0.47319 0.31962 0.56551 0.0
N747 N 0.56524 0.37222 0.57014 0.0
C748 C 0.48251 0.36861 0.57852 0.0
C749 C 0.43204 0.34016 0.57601 0.0
C750 C 0.87162 0.34485 0.69539 0.0
C751 C 0.95586 0.33795 0.70396 0.0
C752 C 0.82442 0.37329 0.6976 0.0
C753 C 0.8588 0.39553 0.70875 0.0
H754 H 0.84114 0.32784 0.68711 0.0
H755 H 0.76068 0.3778 0.69055 0.0
S756 S 0.07279 0.38692 0.73531 0.0
N757 N 0.06966 0.3546 0.7244 0.0
N758 N 0.98093 0.40766 0.72912 0.0
C759 C 0.94289 0.38854 0.71756 0.0
C760 C 0.99156 0.35987 0.715 0.0
C761 C 0.48426 0.8585 0.69784 0.0
C762 C 0.45109 0.83501 0.7084 0.0
C763 C 0.43406 0.88647 0.69597 0.0
C764 C 0.34811 0.89181 0.70436 0.0
H765 H 0.54921 0.85531 0.69094 0.0
H766 H 0.46371 0.90439 0.6881 0.0
S767 S 0.23236 0.83892 0.73412 0.0
N768 N 0.32735 0.81979 0.72793 0.0
N769 N 0.23353 0.8722 0.72396 0.0
C770 C 0.31348 0.86863 0.71481 0.0
C771 C 0.36497 0.84032 0.71697 0.0
C772 C 0.05894 0.10938 0.44912 0.0
C773 C 0.10404 0.08475 0.45735 0.0
C774 C 0.10413 0.13826 0.44713 0.0
C775 C 0.19674 0.14367 0.45312 0.0
H776 H 0.98821 0.10641 0.44416 0.0
H777 H 0.06555 0.1567 0.44096 0.0
S778 S 0.34619 0.08748 0.4759 0.0
N779 N 0.24768 0.06818 0.47184 0.0
N780 N 0.33145 0.12233 0.46776 0.0
C781 C 0.24329 0.1193 0.46118 0.0
C782 C 0.19716 0.08995 0.46342 0.0
C783 C 0.73953 0.62174 0.46894 0.0
C784 C 0.71696 0.64283 0.45642 0.0
C785 C 0.68753 0.59414 0.47088 0.0
C786 C 0.61057 0.5868 0.46045 0.0
H787 H 0.79569 0.62705 0.47759 0.0
H788 H 0.7077 0.57842 0.4807 0.0
S789 S 0.52822 0.63393 0.42504 0.0
N790 N 0.61568 0.65452 0.43308 0.0
N791 N 0.51851 0.60238 0.43657 0.0
C792 C 0.58821 0.60768 0.44775 0.0
C793 C 0.64139 0.63575 0.44578 0.0
C794 C 0.25831 0.61254 0.3349 0.0
C795 C 0.21229 0.58741 0.34235 0.0
C796 C 0.21127 0.64088 0.33272 0.0
C797 C 0.11653 0.64526 0.33804 0.0
H798 H 0.32949 0.60993 0.33006 0.0
H799 H 0.24991 0.65938 0.32661 0.0
S800 S 0.96861 0.58693 0.35981 0.0
N801 N 0.06961 0.56881 0.35612 0.0
N802 N 0.98131 0.62227 0.3521 0.0
C803 C 0.07102 0.6205 0.34606 0.0
C804 C 0.11898 0.59157 0.34823 0.0
C805 C 0.75022 0.11156 0.34047 0.0
C806 C 0.69286 0.08527 0.34248 0.0
C807 C 0.71024 0.14129 0.34002 0.0
C808 C 0.6113 0.14592 0.34165 0.0
H809 H 0.82601 0.10915 0.33864 0.0
H810 H 0.75794 0.16076 0.33812 0.0
S811 S 0.43155 0.08448 0.34914 0.0
N812 N 0.53303 0.06557 0.34761 0.0
N813 N 0.45818 0.12161 0.34661 0.0
C814 C 0.55364 0.11985 0.34443 0.0
C815 C 0.59437 0.0895 0.34488 0.0
C816 C 0.08609 0.53453 0.14383 0.0
C817 C 0.08732 0.50798 0.13371 0.0
C818 C 0.13433 0.53495 0.15891 0.0
C819 C 0.18325 0.50857 0.16453 0.0
H820 H 0.04789 0.55521 0.14005 0.0
H821 H 0.13189 0.55581 0.16637 0.0
S822 S 0.21267 0.43385 0.14247 0.0
N823 N 0.14606 0.45517 0.13013 0.0
N824 N 0.23375 0.45572 0.15874 0.0
C825 C 0.18571 0.48198 0.15456 0.0
C826 C 0.13853 0.48176 0.13905 0.0
C827 C 0.1696 0.76208 0.13793 0.0
C828 C 0.19467 0.73417 0.13006 0.0
C829 C 0.11652 0.76186 0.15252 0.0
C830 C 0.08395 0.73378 0.15944 0.0
H831 H 0.19303 0.78422 0.13297 0.0
H832 H 0.10005 0.78387 0.15833 0.0
S833 S 0.12676 0.65449 0.14313 0.0
N834 N 0.18207 0.67778 0.13008 0.0
N835 N 0.07872 0.67741 0.15712 0.0
C836 C 0.10657 0.70577 0.15147 0.0
C837 C 0.16293 0.70595 0.13687 0.0
C838 C 0.94461 0.49496 0.88467 0.0
C839 C 0.85262 0.48238 0.88402 0.0
C840 C 0.99775 0.49418 0.89924 0.0
C841 C 0.95867 0.48231 0.91383 0.0
H842 H 0.97636 0.50502 0.8738 0.0
H843 H 0.06945 0.50331 0.89913 0.0
S844 S 0.71713 0.44972 0.91917 0.0
N845 N 0.72306 0.45895 0.89948 0.0
N846 N 0.82087 0.45946 0.92708 0.0
C847 C 0.86521 0.47109 0.91359 0.0
C848 C 0.81253 0.47067 0.89861 0.0
C849 C 0.8963 0.23012 0.88666 0.0
C850 C 0.96411 0.25333 0.88318 0.0
C851 C 0.84525 0.23016 0.90151 0.0
C852 C 0.85915 0.2537 0.91322 0.0
H853 H 0.88274 0.2117 0.87789 0.0
H854 H 0.79374 0.2119 0.90375 0.0
S855 S 0.02976 0.31904 0.91055 0.0
N856 N 0.04413 0.29991 0.89313 0.0
N857 N 0.94594 0.30026 0.92072 0.0
C858 C 0.92621 0.27698 0.90996 0.0
C859 C 0.97929 0.27674 0.89501 0.0
C860 C 0.12161 0.02564 0.64019 0.0
C861 C 0.0962 -0.00228 0.63235 0.0
C862 C 0.17529 0.02543 0.65474 0.0
C863 C 0.20252 -0.00274 0.66221 0.0
H864 H 0.10116 0.0478 0.6349 0.0
H865 H 0.19435 0.04744 0.66032 0.0
S866 S 0.15153 0.91783 0.6468 0.0
N867 N 0.10246 0.94119 0.63308 0.0
N868 N 0.19938 0.94078 0.66079 0.0
C869 C 0.17618 0.9692 0.65463 0.0
C870 C 0.12411 0.96943 0.63959 0.0
C871 C 0.16762 0.20354 0.63908 0.0
C872 C 0.18866 0.23142 0.63076 0.0
C873 C 0.11885 0.20373 0.65414 0.0
C874 C 0.09228 0.23186 0.66165 0.0
H875 H 0.18796 0.18138 0.63382 0.0
H876 H 0.10313 0.18172 0.66007 0.0
S877 S 0.13226 0.31123 0.64504 0.0
N878 N 0.1785 0.2879 0.63107 0.0
N879 N 0.09078 0.2883 0.6597 0.0
C880 C 0.11402 0.25991 0.65357 0.0
C881 C 0.1611 0.25968 0.63802 0.0
C882 C 0.94441 0.00466 0.40218 0.0
C883 C 0.94989 0.97818 0.41228 0.0
C884 C 0.89285 0.00409 0.38743 0.0
C885 C 0.8428 0.97729 0.38252 0.0
H886 H 0.98165 0.02578 0.40557 0.0
H887 H 0.89155 0.02491 0.37989 0.0
S888 S 0.82801 0.90292 0.40566 0.0
N889 N 0.89854 0.92501 0.4169 0.0
N890 N 0.79843 0.92412 0.3895 0.0
C891 C 0.84593 0.95092 0.3928 0.0
C892 C 0.90035 0.95132 0.40761 0.0
C893 C 0.93074 0.72279 0.38686 0.0
C894 C 0.96536 0.75078 0.38012 0.0
C895 C 0.88168 0.7225 0.4019 0.0
C896 C 0.86292 0.7503 0.41041 0.0
H897 H 0.9429 0.70092 0.3806 0.0
H898 H 0.85666 0.70047 0.40675 0.0
S899 S 0.93867 0.82953 0.39806 0.0
N900 N 0.97906 0.80682 0.38329 0.0
N901 N 0.88342 0.80637 0.41116 0.0
C902 C 0.89633 0.77839 0.40374 0.0
C903 C 0.94847 0.7786 0.38869 0.0
C904 C 0.62831 0.52576 0.64202 0.0
C905 C 0.60315 0.49771 0.63427 0.0
C906 C 0.68384 0.52575 0.65636 0.0
C907 C 0.7133 0.49767 0.66362 0.0
H908 H 0.60559 0.54782 0.63691 0.0
H909 H 0.70178 0.5478 0.66202 0.0
S910 S 0.66676 0.41806 0.64807 0.0
N911 N 0.61396 0.44122 0.63468 0.0
N912 N 0.71468 0.44122 0.66195 0.0
C913 C 0.68849 0.46952 0.65601 0.0
C914 C 0.63437 0.46954 0.64121 0.0
C915 C 0.68323 0.70268 0.63917 0.0
C916 C 0.70667 0.73049 0.63097 0.0
C917 C 0.63242 0.70308 0.65403 0.0
C918 C 0.60626 0.73133 0.66145 0.0
H919 H 0.70323 0.68044 0.63396 0.0
H920 H 0.61486 0.68114 0.65989 0.0
S921 S 0.65214 0.81053 0.64507 0.0
N922 N 0.69908 0.78699 0.63126 0.0
N923 N 0.60769 0.78778 0.65954 0.0
C924 C 0.63035 0.75928 0.65348 0.0
C925 C 0.67942 0.75885 0.63812 0.0
C926 C 0.43281 0.46108 0.38763 0.0
C927 C 0.36394 0.48372 0.38424 0.0
C928 C 0.48284 0.46139 0.40255 0.0
C929 C 0.46597 0.48452 0.41446 0.0
H930 H 0.44643 0.44264 0.37887 0.0
H931 H 0.53424 0.44316 0.40483 0.0
S932 S 0.29628 0.55017 0.41062 0.0
N933 N 0.28281 0.53027 0.39344 0.0
N934 N 0.37882 0.53168 0.42123 0.0
C935 C 0.39895 0.50782 0.41088 0.0
C936 C 0.34731 0.50719 0.39581 0.0
C937 C 0.3809 0.2242 0.40417 0.0
C938 C 0.34955 0.25215 0.41131 0.0
C939 C 0.43577 0.22438 0.38977 0.0
C940 C 0.46384 0.25252 0.38237 0.0
H941 H 0.36142 0.20204 0.40958 0.0
H942 H 0.45755 0.20234 0.38454 0.0
S943 S 0.40195 0.33197 0.39644 0.0
N944 N 0.3501 0.30865 0.40989 0.0
N945 N 0.45664 0.30899 0.38323 0.0
C946 C 0.43417 0.2806 0.38952 0.0
C947 C 0.37607 0.28041 0.4039 0.0
C948 C 0.66443 0.98206 0.15627 0.0
C949 C 0.7002 0.00978 0.16307 0.0
C950 C 0.61336 0.98232 0.14143 0.0
C951 C 0.5937 0.01042 0.1332 0.0
H952 H 0.67736 0.95996 0.1623 0.0
H953 H 0.58778 0.96046 0.1365 0.0
S954 S 0.67138 0.08918 0.14588 0.0
N955 N 0.71357 0.06593 0.16031 0.0
N956 N 0.61439 0.06651 0.13282 0.0
C957 C 0.62806 0.03826 0.13997 0.0
C958 C 0.68216 0.03791 0.15481 0.0
C959 C 0.68575 0.26602 0.14277 0.0
C960 C 0.69142 0.2396 0.13268 0.0
C961 C 0.63363 0.26538 0.15748 0.0
C962 C 0.5831 0.23859 0.16231 0.0
H963 H 0.72331 0.28713 0.13943 0.0
H964 H 0.63219 0.28612 0.16503 0.0
S965 S 0.56932 0.16431 0.13923 0.0
N966 N 0.64031 0.18645 0.12806 0.0
N967 N 0.53893 0.18547 0.15532 0.0
C968 C 0.58652 0.21229 0.15204 0.0
C969 C 0.6416 0.21274 0.13731 0.0
C970 C 0.32019 0.98654 0.89779 0.0
C971 C 0.36416 0.98084 0.88259 0.0
C972 C 0.37267 0.98704 0.91244 0.0
C973 C 0.47053 0.98103 0.91253 0.0
H974 H 0.24453 0.99088 0.89837 0.0
H975 H 0.33585 0.99129 0.92384 0.0
S976 S 0.61871 0.96296 0.87611 0.0
N977 N 0.51117 0.96828 0.86853 0.0
N978 N 0.60931 0.96827 0.89615 0.0
C979 C 0.51524 0.97467 0.89745 0.0
C980 C 0.46218 0.97491 0.88245 0.0
C981 C 0.44875 0.77927 0.89051 0.0
C982 C 0.4621 0.75123 0.88189 0.0
C983 C 0.39431 0.78021 0.90498 0.0
C984 C 0.35406 0.75296 0.91156 0.0
H985 H 0.47999 0.80068 0.88598 0.0
H986 H 0.38543 0.80224 0.91126 0.0
S987 S 0.3664 0.67382 0.89363 0.0
N988 N 0.42777 0.69579 0.88077 0.0
N989 N 0.32942 0.69737 0.90831 0.0
C990 C 0.36699 0.72482 0.90311 0.0
C991 C 0.41992 0.72401 0.88816 0.0
C992 C 0.24146 0.63161 0.08149 0.0
C993 C 0.17585 0.65578 0.07907 0.0
C994 C 0.21152 0.60064 0.08266 0.0
C995 C 0.1149 0.59265 0.08136 0.0
H996 H 0.31617 0.63669 0.08312 0.0
H997 H 0.2647 0.58296 0.08493 0.0
S998 S 0.91583 0.64733 0.07331 0.0
N999 N 1.01094 0.66967 0.07419 0.0
N1000 N 0.9543 0.61152 0.07636 0.0
C1001 C 0.04896 0.61656 0.07822 0.0
C1002 C 0.07953 0.64811 0.0771 0.0
C1003 C 0.19623 0.64375 0.21307 0.0
C1004 C 0.09959 0.65203 0.21261 0.0
C1005 C 0.2245 0.61254 0.21403 0.0
C1006 C 0.15721 0.58837 0.2144 0.0
H1007 H 0.25082 0.66147 0.21249 0.0
H1008 H 0.29971 0.60737 0.21396 0.0
S1009 S 0.89506 0.59754 0.21449 0.0
N1010 N 0.93641 0.63342 0.21336 0.0
N1011 N 0.98944 0.57489 0.21516 0.0
C1012 C 0.0603 0.59634 0.21444 0.0
C1013 C 0.03151 0.62812 0.21357 0.0
C1014 C 0.96222 0.34564 0.96661 0.0
C1015 C 0.86627 0.33747 0.96462 0.0
C1016 C 0.99089 0.37679 0.96697 0.0
C1017 C 0.9249 0.40114 0.96522 0.0
H1018 H 1.0162 0.32782 0.96772 0.0
H1019 H 0.06593 0.38166 0.96825 0.0
S1020 S 0.664 0.39213 0.96014 0.0
N1021 N 0.70451 0.35617 0.96128 0.0
N1022 N 0.75797 0.41479 0.96196 0.0
C1023 C 0.82809 0.3933 0.96362 0.0
C1024 C 0.79889 0.36147 0.96333 0.0
C1025 C 0.9766 0.38877 0.83516 0.0
C1026 C 0.88097 0.39689 0.83228 0.0
C1027 C 1.00713 0.35774 0.83452 0.0
C1028 C 0.9432 0.33352 0.83111 0.0
H1029 H 1.02851 0.40642 0.83825 0.0
H1030 H 0.0806 0.35263 0.83735 0.0
S1031 S 0.68785 0.34217 0.82079 0.0
N1032 N 0.72435 0.37799 0.8245 0.0
N1033 N 0.78174 0.31978 0.8234 0.0
C1034 C 0.84838 0.34131 0.82752 0.0
C1035 C 0.81729 0.37293 0.82807 0.0
C1036 C 0.20467 0.09175 0.58153 0.0
C1037 C 0.10872 0.08292 0.57994 0.0
C1038 C 0.23236 0.12309 0.58108 0.0
C1039 C 0.16522 0.14699 0.57915 0.0
H1040 H 0.25918 0.07438 0.58344 0.0
H1041 H 0.30672 0.12859 0.58281 0.0
S1042 S 0.90609 0.13659 0.57284 0.0
N1043 N 0.94717 0.1009 0.57516 0.0
N1044 N 0.99928 0.15969 0.57437 0.0
C1045 C 0.0695 0.13855 0.57692 0.0
C1046 C 0.04127 0.10659 0.57728 0.0
C1047 C 0.05692 0.12255 0.71192 0.0
C1048 C 0.12351 0.14688 0.71267 0.0
C1049 C 0.08595 0.09137 0.71172 0.0
C1050 C 0.18271 0.08327 0.7124 0.0
H1051 H 0.98178 0.12756 0.71103 0.0
H1052 H 0.03182 0.07353 0.71083 0.0
S1053 S 0.38546 0.13836 0.71557 0.0
N1054 N 0.29063 0.16079 0.71493 0.0
N1055 N 0.3451 0.10236 0.71453 0.0
C1056 C 0.24999 0.10741 0.71365 0.0
C1057 C 0.22043 0.13914 0.71379 0.0
C1058 C 0.81201 0.85571 0.46152 0.0
C1059 C 0.88002 0.83191 0.46279 0.0
C1060 C 0.83878 0.88715 0.46174 0.0
C1061 C 0.93454 0.89611 0.46341 0.0
H1062 H 0.73773 0.85008 0.4598 0.0
H1063 H 0.7838 0.90453 0.46032 0.0
S1064 S 0.13953 0.84256 0.46851 0.0
N1065 N 0.04679 0.81935 0.46676 0.0
N1066 N 0.09713 0.87826 0.46722 0.0
C1067 C 1.00292 0.87247 0.46531 0.0
C1068 C 0.97567 0.84046 0.46498 0.0
C1069 C 0.84279 0.84136 0.33476 0.0
C1070 C 0.93953 0.83443 0.33237 0.0
C1071 C 0.81034 0.87207 0.33491 0.0
C1072 C 0.87345 0.89702 0.3328 0.0
H1073 H 0.7913 0.82298 0.33669 0.0
H1074 H 0.73561 0.87625 0.3371 0.0
S1075 S 0.13262 0.89172 0.32494 0.0
N1076 N 0.09748 0.85527 0.32702 0.0
N1077 N 0.03627 0.91301 0.3273 0.0
C1078 C 0.96999 0.89053 0.32999 0.0
C1079 C 1.00308 0.85923 0.32977 0.0
C1080 C 0.56418 0.60415 0.58002 0.0
C1081 C 0.62934 0.58008 0.58326 0.0
C1082 C 0.59333 0.63536 0.57925 0.0
C1083 C 0.68894 0.64379 0.58153 0.0
H1084 H 0.48956 0.59904 0.57833 0.0
H1085 H 0.5402 0.65303 0.57695 0.0
S1086 S 0.88873 0.58999 0.59023 0.0
N1087 N 0.79512 0.56714 0.5886 0.0
N1088 N 0.84904 0.62561 0.5871 0.0
C1089 C 0.7553 0.62001 0.58445 0.0
C1090 C 0.72573 0.58824 0.58534 0.0
C1091 C 0.59538 0.59329 0.71171 0.0
C1092 C 0.69165 0.58492 0.71328 0.0
C1093 C 0.56692 0.62452 0.71179 0.0
C1094 C 0.63361 0.64867 0.71331 0.0
H1095 H 0.54116 0.57564 0.71017 0.0
H1096 H 0.49232 0.62973 0.71016 0.0
S1097 S 0.89344 0.6395 0.71915 0.0
N1098 N 0.85315 0.60359 0.71739 0.0
N1099 N 0.79951 0.6622 0.71752 0.0
C1100 C 0.72972 0.6407 0.7154 0.0
C1101 C 0.75876 0.60888 0.7154 0.0
C1102 C 0.49721 0.37282 0.461 0.0
C1103 C 0.43176 0.39749 0.46064 0.0
C1104 C 0.46672 0.34174 0.46101 0.0
C1105 C 0.36951 0.33404 0.46087 0.0
H1106 H 0.57276 0.37747 0.46103 0.0
H1107 H 0.52011 0.32362 0.46109 0.0
S1108 S 0.16879 0.39003 0.46047 0.0
N1109 N 0.26466 0.41208 0.46056 0.0
N1110 N 0.20774 0.35382 0.4606 0.0
C1111 C 0.30317 0.35849 0.4608 0.0
C1112 C 0.33418 0.39014 0.46066 0.0
C1113 C 0.35529 0.34522 0.33527 0.0
C1114 C 0.45153 0.33731 0.33338 0.0
C1115 C 0.32588 0.37624 0.33529 0.0
C1116 C 0.39155 0.40064 0.33353 0.0
H1117 H 0.30179 0.32739 0.33697 0.0
H1118 H 0.25117 0.38103 0.33711 0.0
S1119 S 0.65125 0.39263 0.32707 0.0
N1120 N 0.61225 0.35656 0.32888 0.0
N1121 N 0.55668 0.41494 0.32893 0.0
C1122 C 0.4878 0.39316 0.3312 0.0
C1123 C 0.51785 0.36149 0.33111 0.0
C1124 C 0.55294 0.1178 0.08479 0.0
C1125 C 0.6195 0.09356 0.08379 0.0
C1126 C 0.58159 0.14894 0.08442 0.0
C1127 C 0.67797 0.15715 0.08293 0.0
H1128 H 0.47805 0.11279 0.08621 0.0
H1129 H 0.52735 0.16666 0.0855 0.0
S1130 S 0.88029 0.10231 0.07892 0.0
N1131 N 0.78598 0.07973 0.08052 0.0
N1132 N 0.83996 0.13832 0.07984 0.0
C1133 C 0.74526 0.13312 0.08148 0.0
C1134 C 0.71602 0.10133 0.08194 0.0
C1135 C 0.70706 0.14715 0.21137 0.0
C1136 C 0.61011 0.15456 0.21299 0.0
C1137 C 0.73833 0.11624 0.21119 0.0
C1138 C 0.67383 0.09143 0.21254 0.0
H1139 H 0.75964 0.16535 0.21001 0.0
H1140 H 0.81341 0.11183 0.20958 0.0
S1141 S 0.41291 0.09799 0.21834 0.0
N1142 N 0.45022 0.13432 0.21688 0.0
N1143 N 0.50881 0.07626 0.21662 0.0
C1144 C 0.5769 0.09843 0.21471 0.0
C1145 C 0.5451 0.12995 0.21494 0.0
C1146 C 0.47794 0.84377 0.96087 0.0
C1147 C 0.38147 0.83602 0.96292 0.0
C1148 C 0.50808 0.87481 0.96044 0.0
C1149 C 0.44288 0.89935 0.96187 0.0
H1150 H 0.53093 0.82576 0.95934 0.0
H1151 H 0.5828 0.87955 0.95854 0.0
S1152 S 0.18326 0.89195 0.96877 0.0
N1153 N 0.22142 0.85574 0.96736 0.0
N1154 N 0.27825 0.91401 0.96652 0.0
C1155 C 0.3466 0.89204 0.96444 0.0
C1156 C 0.31588 0.86041 0.965 0.0
C1157 C 0.3579 0.84197 0.82965 0.0
C1158 C 0.45446 0.83397 0.83082 0.0
C1159 C 0.32842 0.87306 0.82982 0.0
C1160 C 0.39418 0.89758 0.83128 0.0
H1161 H 0.30405 0.82405 0.82877 0.0
H1162 H 0.25302 0.87774 0.82913 0.0
S1163 S 0.65643 0.88925 0.83396 0.0
N1164 N 0.61651 0.85318 0.83289 0.0
N1165 N 0.5615 0.91164 0.8332 0.0
C1166 C 0.49148 0.88997 0.83201 0.0
C1167 C 0.5215 0.8582 0.83176 0.0
C1168 C 0.59251 0.48818 0.07649 0.0
C1169 C 0.63916 0.50398 0.08929 0.0
C1170 C 0.49534 0.48103 0.07745 0.0
C1171 C 0.4408 0.48938 0.09125 0.0
H1172 H 0.63145 0.48107 0.06565 0.0
H1173 H 0.46253 0.46917 0.06718 0.0
S1174 S 0.52903 0.53064 0.12825 0.0
N1175 N 0.62334 0.52742 0.11633 0.0
N1176 N 0.44105 0.51409 0.11809 0.0
C1177 C 0.48663 0.505 0.10419 0.0
C1178 C 0.58562 0.51229 0.10322 0.0
C1179 C 0.70425 0.76086 0.07744 0.0
C1180 C 0.65889 0.74228 0.08933 0.0
C1181 C 0.80032 0.76905 0.07897 0.0
C1182 C 0.85515 0.75859 0.09233 0.0
H1183 H 0.66503 0.76949 0.06693 0.0
H1184 H 0.83238 0.78303 0.06936 0.0
S1185 S 0.77025 0.70964 0.12693 0.0
N1186 N 0.67585 0.71416 0.11513 0.0
N1187 N 0.85693 0.72886 0.11775 0.0
C1188 C 0.81073 0.74005 0.10433 0.0
C1189 C 0.71252 0.73206 0.1029 0.0
C1190 C 0.59104 0.7737 0.19606 0.0
C1191 C 0.6306 0.74406 0.19896 0.0
C1192 C 0.49235 0.77799 0.19496 0.0
C1193 C 0.42988 0.75259 0.19602 0.0
H1194 H 0.63664 0.79389 0.19495 0.0
H1195 H 0.46484 0.80131 0.19324 0.0
S1196 S 0.49759 0.66997 0.20275 0.0
N1197 N 0.59963 0.68892 0.20264 0.0
N1198 N 0.41482 0.69656 0.19974 0.0
C1199 C 0.46875 0.72269 0.19841 0.0
C1200 C 0.56895 0.71851 0.20009 0.0
C1201 C 0.78969 0.51197 0.21572 0.0
C1202 C 0.83305 0.48847 0.20626 0.0
C1203 C 0.69168 0.51683 0.2153 0.0
C1204 C 0.63322 0.49859 0.20527 0.0
H1205 H 0.83168 0.52671 0.22369 0.0
H1206 H 0.66162 0.535 0.2229 0.0
S1207 S 0.71082 0.43375 0.17825 0.0
N1208 N 0.80994 0.44655 0.18672 0.0
N1209 N 0.62504 0.45576 0.18571 0.0
C1210 C 0.67538 0.47502 0.19567 0.0
C1211 C 0.77552 0.4699 0.19623 0.0
C1212 C 0.55118 0.51222 0.94664 0.0
C1213 C 0.60731 0.49909 0.95902 0.0
C1214 C 0.45411 0.50574 0.94586 0.0
C1215 C 0.41044 0.48584 0.9574 0.0
H1216 H 0.58213 0.52771 0.93758 0.0
H1217 H 0.41281 0.51682 0.93627 0.0
S1218 S 0.52743 0.44441 0.99176 0.0
N1219 N 0.61314 0.46444 0.98283 0.0
N1220 N 0.4306 0.45229 0.98116 0.0
C1221 C 0.46606 0.47204 0.96961 0.0
C1222 C 0.56468 0.47871 0.97049 0.0
C1223 C 0.34073 0.2677 0.95343 0.0
C1224 C 0.40194 0.24202 0.95274 0.0
C1225 C 0.24216 0.26369 0.95236 0.0
C1226 C 0.20162 0.23379 0.9511 0.0
H1227 H 0.36915 0.29102 0.95464 0.0
H1228 H 0.1973 0.28412 0.95303 0.0
S1229 S 0.33147 0.15903 0.94904 0.0
N1230 N 0.41549 0.18573 0.95041 0.0
N1231 N 0.22994 0.17821 0.94926 0.0
C1232 C 0.26201 0.20795 0.9505 0.0
C1233 C 0.36238 0.21207 0.9511 0.0
C1234 C 0.57844 0.2617 0.84218 0.0
C1235 C 0.61826 0.23211 0.84513 0.0
C1236 C 0.47985 0.2657 0.84075 0.0
C1237 C 0.41788 0.2404 0.84276 0.0
H1238 H 0.62392 0.28179 0.84053 0.0
H1239 H 0.45203 0.28875 0.8383 0.0
S1240 S 0.48685 0.15839 0.851 0.0
N1241 N 0.58868 0.17728 0.8499 0.0
N1242 N 0.40367 0.18485 0.84806 0.0
C1243 C 0.45707 0.21086 0.84603 0.0
C1244 C 0.55726 0.20668 0.847 0.0
C1245 C 0.24689 0.4712 0.84232 0.0
C1246 C 0.20695 0.50068 0.84539 0.0
C1247 C 0.34524 0.46729 0.84091 0.0
C1248 C 0.40706 0.49256 0.84298 0.0
H1249 H 0.20168 0.45107 0.84057 0.0
H1250 H 0.373 0.44429 0.83835 0.0
S1251 S 0.33828 0.57431 0.85182 0.0
N1252 N 0.23636 0.55545 0.85051 0.0
N1253 N 0.42174 0.54801 0.84869 0.0
C1254 C 0.36813 0.52206 0.84641 0.0
C1255 C 0.26782 0.52617 0.8474 0.0
C1256 C 0.5017 0.95617 0.59516 0.0
C1257 C 0.43959 0.98167 0.59482 0.0
C1258 C 0.6003 0.96057 0.59436 0.0
C1259 C 0.63986 0.99053 0.59258 0.0
H1260 H 0.47395 0.9327 0.59608 0.0
H1261 H 0.64583 0.94028 0.59477 0.0
S1262 S 0.50773 0.0649 0.59075 0.0
N1263 N 0.42467 0.03801 0.59277 0.0
N1264 N 0.60969 0.04598 0.59051 0.0
C1265 C 0.57863 0.01617 0.59208 0.0
C1266 C 0.47848 0.01181 0.59342 0.0
C1267 C 0.70208 0.2171 0.58865 0.0
C1268 C 0.63928 0.24208 0.59079 0.0
C1269 C 0.80052 0.22146 0.58997 0.0
C1270 C 0.83971 0.25112 0.59292 0.0
H1271 H 0.67504 0.19398 0.58612 0.0
H1272 H 0.84645 0.20156 0.58821 0.0
S1273 S 0.70586 0.32414 0.59948 0.0
N1274 N 0.62314 0.29747 0.59649 0.0
N1275 N 0.8084 0.30575 0.59802 0.0
C1276 C 0.77786 0.27631 0.59497 0.0
C1277 C 0.67752 0.27175 0.59416 0.0
C1278 C 0.59813 0.24977 0.71968 0.0
C1279 C 0.64468 0.23463 0.70665 0.0
C1280 C 0.50079 0.25677 0.71888 0.0
C1281 C 0.44594 0.24898 0.70502 0.0
H1282 H 0.63732 0.25657 0.73054 0.0
H1283 H 0.46822 0.26823 0.7293 0.0
S1284 S 0.53314 0.20875 0.66765 0.0
N1285 N 0.62792 0.21184 0.67947 0.0
N1286 N 0.44543 0.22492 0.67802 0.0
C1287 C 0.49146 0.23376 0.69192 0.0
C1288 C 0.59059 0.22658 0.69273 0.0
C1289 C 0.80049 0.97448 0.71916 0.0
C1290 C 0.85456 0.97991 0.70489 0.0
C1291 C 0.70327 0.9816 0.71977 0.0
C1292 C 0.65608 -0.00554 0.70612 0.0
H1293 H 0.83364 0.96489 0.73006 0.0
H1294 H 0.66472 0.97674 0.731 0.0
S1295 S 0.76507 0.01307 0.66572 0.0
N1296 N 0.85348 -0.00109 0.67674 0.0
N1297 N 0.67104 0.01219 0.67783 0.0
C1298 C 0.70924 -2e-05 0.69175 0.0
C1299 C 0.80831 -0.00731 0.69113 0.0
C1300 C 0.54164 0.02323 0.44808 0.0
C1301 C 0.60385 -0.00225 0.44859 0.0
C1302 C 0.44304 0.01891 0.44928 0.0
C1303 C 0.40348 0.98911 0.45172 0.0
H1304 H 0.56929 0.04664 0.44673 0.0
H1305 H 0.3975 0.03916 0.44862 0.0
S1306 S 0.53572 0.91476 0.45399 0.0
N1307 N 0.6186 0.9415 0.45131 0.0
N1308 N 0.4339 0.93376 0.45439 0.0
C1309 C 0.46482 0.96348 0.45232 0.0
C1310 C 0.56488 0.96771 0.45054 0.0
C1311 C 0.34771 0.76316 0.44881 0.0
C1312 C 0.40922 0.73785 0.45103 0.0
C1313 C 0.24946 0.75849 0.44722 0.0
C1314 C 0.20939 0.72844 0.44823 0.0
H1315 H 0.37577 0.7866 0.44803 0.0
H1316 H 0.20439 0.77867 0.4456 0.0
S1317 S 0.34048 0.65475 0.45484 0.0
N1318 N 0.42374 0.68184 0.45444 0.0
N1319 N 0.23903 0.67322 0.45204 0.0
C1320 C 0.27031 0.70304 0.45066 0.0
C1321 C 0.37031 0.70773 0.45191 0.0
C1322 C 0.46636 0.73482 0.34977 0.0
C1323 C 0.41766 0.74568 0.33576 0.0
C1324 C 0.564 0.72822 0.34928 0.0
C1325 C 0.61635 0.73185 0.3347 0.0
H1326 H 0.42867 0.7312 0.36121 0.0
H1327 H 0.59856 0.72012 0.36038 0.0
S1328 S 0.52284 0.76032 0.2947 0.0
N1329 N 0.42974 0.76037 0.307 0.0
N1330 N 0.61235 0.74768 0.30596 0.0
C1331 C 0.5685 0.74282 0.32062 0.0
C1332 C 0.46943 0.74984 0.32118 0.0
C1333 C 0.24214 -0.00066 0.35196 0.0
C1334 C 0.19035 -0.00106 0.3372 0.0
C1335 C 0.33951 -0.0078 0.35222 0.0
C1336 C 0.38872 0.98411 0.33776 0.0
H1337 H 0.20726 0.00518 0.3634 0.0
H1338 H 0.37661 -0.00675 0.36386 0.0
S1339 S 0.28535 0.97874 0.29597 0.0
N1340 N 0.1956 0.98928 0.30774 0.0
N1341 N 0.37774 0.97572 0.30833 0.0
C1342 C 0.33761 0.98336 0.32296 0.0
C1343 C 0.23873 0.99082 0.32265 0.0
C1344 C 0.10501 0.47163 0.60768 0.0
C1345 C 0.14256 0.49081 0.59513 0.0
C1346 C 1.00749 0.46478 0.60856 0.0
C1347 C 0.94416 0.4768 0.5969 0.0
H1348 H 0.15148 0.46149 0.61684 0.0
H1349 H 0.98164 0.44993 0.61837 0.0
S1350 S 1.00392 0.52888 0.56201 0.0
N1351 N 0.10692 0.52223 0.57106 0.0
N1352 N 0.92403 0.50932 0.57273 0.0
C1353 C 0.98006 0.49625 0.58445 0.0
C1354 C 0.07918 0.50326 0.58354 0.0
C1355 C 0.2973 0.77124 0.59477 0.0
C1356 C 0.36005 0.74614 0.59304 0.0
C1357 C 0.19872 0.7666 0.59406 0.0
C1358 C 0.15978 0.73698 0.59088 0.0
H1359 H 0.32449 0.79451 0.5968 0.0
H1360 H 0.15266 0.78651 0.59573 0.0
S1361 S 0.29417 0.66377 0.5851 0.0
N1362 N 0.37653 0.69049 0.58822 0.0
N1363 N 0.19161 0.68226 0.58603 0.0
C1364 C 0.22181 0.71178 0.58898 0.0
C1365 C 0.32193 0.71626 0.59027 0.0
C1366 C 0.99639 0.72279 0.70098 0.0
C1367 C 0.95737 0.75264 0.6985 0.0
C1368 C 0.09473 0.71838 0.70267 0.0
C1369 C 0.15788 0.74355 0.7014 0.0
H1370 H 0.95034 0.70271 0.70208 0.0
H1371 H 0.12145 0.69508 0.70479 0.0
S1372 S 0.09226 0.82623 0.69424 0.0
N1373 N 0.98958 0.80767 0.69478 0.0
N1374 N 0.17456 0.79937 0.69702 0.0
C1375 C 0.11993 0.77344 0.6985 0.0
C1376 C 1.01963 0.77801 0.6973 0.0
C1377 C 0.21925 0.51373 0.70774 0.0
C1378 C 0.15821 0.48808 0.70605 0.0
C1379 C 0.31814 0.51014 0.70655 0.0
C1380 C 0.35949 0.48064 0.70414 0.0
H1381 H 0.19043 0.53677 0.70977 0.0
H1382 H 0.36267 0.53055 0.70792 0.0
S1383 S 0.23098 0.40608 0.69897 0.0
N1384 N 0.14633 0.43222 0.70145 0.0
N1385 N 0.33208 0.42545 0.70008 0.0
C1386 C 0.29941 0.4548 0.70259 0.0
C1387 C 0.19876 0.45854 0.70332 0.0
C1388 C 0.96761 0.47312 0.46945 0.0
C1389 C 0.9111 0.48999 0.45838 0.0
C1390 C 0.06584 0.47813 0.47031 0.0
C1391 C 0.11116 0.50022 0.46015 0.0
H1392 H 0.93583 0.45596 0.47753 0.0
H1393 H 0.10662 0.46438 0.47896 0.0
S1394 S 0.99488 0.55119 0.42942 0.0
N1395 N 0.90748 0.53023 0.43723 0.0
N1396 N 0.09202 0.53943 0.43891 0.0
C1397 C 0.05558 0.51733 0.44909 0.0
C1398 C 0.95554 0.51227 0.44819 0.0
C1399 C 0.83493 0.257 0.44161 0.0
C1400 C 0.89024 0.24369 0.45419 0.0
C1401 C 0.73845 0.24939 0.43981 0.0
C1402 C 0.69415 0.22771 0.45029 0.0
H1403 H 0.86621 0.27362 0.43317 0.0
H1404 H 0.69802 0.2609 0.43024 0.0
S1405 S 0.80924 0.18488 0.48459 0.0
N1406 N 0.89438 0.20703 0.47697 0.0
N1407 N 0.7142 0.19228 0.47339 0.0
C1408 C 0.7494 0.21363 0.46265 0.0
C1409 C 0.84708 0.22179 0.46466 0.0
C1410 C 0.06854 0.23312 0.32558 0.0
C1411 C 0.12111 0.23382 0.34029 0.0
C1412 C 0.97122 0.24004 0.32537 0.0
C1413 C 0.9225 0.24773 0.33988 0.0
H1414 H 0.10299 0.22753 0.31406 0.0
H1415 H 0.93376 0.23901 0.31376 0.0
S1416 S 1.02728 0.25255 0.38168 0.0
N1417 N 0.11721 0.24283 0.36975 0.0
N1418 N 0.93426 0.25545 0.36943 0.0
C1419 C 0.97415 0.24841 0.3547 0.0
C1420 C 0.07342 0.24153 0.35489 0.0
C1421 C 0.86253 0.50281 0.35289 0.0
C1422 C 0.90855 0.48531 0.34064 0.0
C1423 C 0.76614 0.51002 0.35165 0.0
C1424 C 0.71314 0.50006 0.33809 0.0
H1425 H 0.90139 0.51129 0.36346 0.0
H1426 H 0.73306 0.52334 0.36138 0.0
S1427 S 0.80113 0.45376 0.30264 0.0
N1428 N 0.89456 0.45814 0.31463 0.0
N1429 N 0.7135 0.47187 0.31206 0.0
C1430 C 0.75844 0.48248 0.32575 0.0
C1431 C 0.85627 0.47497 0.3271 0.0
C1432 C 0.99097 -0.00792 0.10305 0.0
C1433 C 0.94007 0.99028 0.08822 0.0
C1434 C 0.08846 -0.0008 0.1032 0.0
C1435 C 0.13868 0.00518 0.08855 0.0
H1436 H 0.95531 0.98795 0.11464 0.0
H1437 H 0.12482 -0.00015 0.11492 0.0
S1438 S 0.0379 0.00431 0.04644 0.0
N1439 N 0.94731 -0.00444 0.05846 0.0
N1440 N 0.12951 0.00919 0.05881 0.0
C1441 C 0.08843 0.00375 0.07365 0.0
C1442 C 0.98948 -0.00378 0.07347 0.0
C1443 C 0.20782 0.22713 0.09235 0.0
C1444 C 0.14613 0.25268 0.09318 0.0
C1445 C 0.30628 0.23121 0.0938 0.0
C1446 C 0.34647 0.26106 0.09563 0.0
H1447 H 0.17983 0.20384 0.09074 0.0
H1448 H 0.35142 0.21086 0.093 0.0
S1449 S 0.21535 0.33552 0.09834 0.0
N1450 N 0.1318 0.30882 0.09628 0.0
N1451 N 0.31713 0.31648 0.09817 0.0
C1452 C 0.2856 0.28678 0.09639 0.0
C1453 C 0.18527 0.28257 0.09539 0.0
C1454 C 0.99619 0.28244 0.19985 0.0
C1455 C 0.93351 0.25705 0.19905 0.0
C1456 C 0.09466 0.27784 0.2013 0.0
C1457 C 0.13373 0.24775 0.20267 0.0
H1458 H 0.96903 0.306 0.19935 0.0
H1459 H 0.14046 0.29809 0.20164 0.0
S1460 S 1.00038 0.17346 0.2013 0.0
N1461 N 0.91815 0.20058 0.19937 0.0
N1462 N 0.10227 0.19223 0.20292 0.0
C1463 C 0.07195 0.22219 0.20196 0.0
C1464 C 0.9721 0.22679 0.19993 0.0
C1465 C 0.30551 -0.00741 0.19366 0.0
C1466 C 0.3554 0.98924 0.20852 0.0
C1467 C 0.20822 -0.00011 0.1935 0.0
C1468 C 0.15707 0.00429 0.20819 0.0
H1469 H 0.34185 0.98961 0.18204 0.0
H1470 H 0.17265 0.00177 0.18174 0.0
S1471 S 0.2551 -0.00076 0.25041 0.0
N1472 N 0.34638 0.99162 0.23836 0.0
N1473 N 0.16433 0.00537 0.23801 0.0
C1474 C 0.20633 0.00136 0.22313 0.0
C1475 C 0.30519 -0.00619 0.2233 0.0
C1476 C 0.97051 0.00346 0.94514 0.0
C1477 C 0.92232 0.98813 0.958 0.0
C1478 C 0.06818 0.0098 0.94609 0.0
C1479 C 0.12135 0.00107 0.95995 0.0
H1480 H 0.93241 0.01083 0.93424 0.0
H1481 H 0.10229 0.02138 0.93582 0.0
S1482 S 1.02901 0.96049 0.99703 0.0
N1483 N 0.9353 0.96452 0.98505 0.0
N1484 N 0.11837 0.9763 0.98688 0.0
C1485 C 0.07397 0.98577 0.97292 0.0
C1486 C 0.97462 0.97932 0.97193 0.0
C1487 C 0.84465 0.76229 0.94389 0.0
C1488 C 0.90146 0.74622 0.95531 0.0
C1489 C 0.74813 0.7549 0.94186 0.0
C1490 C 0.70513 0.73077 0.95095 0.0
H1491 H 0.87474 0.78094 0.93657 0.0
H1492 H 0.70659 0.76854 0.93327 0.0
S1493 S 0.8248 0.68004 0.98155 0.0
N1494 N 0.90867 0.70415 0.9753 0.0
N1495 N 0.72836 0.68995 0.9713 0.0
C1496 C 0.76196 0.71393 0.96206 0.0
C1497 C 0.85975 0.72177 0.9643 0.0
C1498 C 0.06042 0.70768 0.84579 0.0
C1499 C 0.12281 0.73305 0.84461 0.0
C1500 C 0.96185 0.71211 0.84502 0.0
C1501 C 0.92268 0.74189 0.84245 0.0
H1502 H 0.0879 0.68432 0.84736 0.0
H1503 H 0.91599 0.69195 0.8461 0.0
S1504 S 0.05583 0.8158 0.83816 0.0
N1505 N 0.13856 0.78907 0.84084 0.0
N1506 N 0.95356 0.79701 0.83866 0.0
C1507 C 0.98425 0.76737 0.84107 0.0
C1508 C 0.08436 0.76304 0.84237 0.0
C1509 C 0.75515 0.97666 0.82839 0.0
C1510 C 0.71245 0.00034 0.83779 0.0
C1511 C 0.85204 0.97038 0.82959 0.0
C1512 C 0.90965 0.98761 0.84022 0.0
H1513 H 0.71344 0.96266 0.82 0.0
H1514 H 0.88199 0.95215 0.82202 0.0
S1515 S 0.83247 0.05213 0.86754 0.0
N1516 N 0.73453 0.04096 0.8581 0.0
N1517 N 0.91752 0.02942 0.86045 0.0
C1518 C 0.86787 0.01129 0.84981 0.0
C1519 C 0.76892 0.01763 0.84856 0.0
C1520 C 0.07657 0.47327 0.02843 0.0
C1521 C 0.04229 0.4937 0.04064 0.0
C1522 C 0.06718 0.48025 1.01161 0.0
C1523 C 1.0233 0.50791 1.00651 0.0
H1524 H 0.10929 0.4514 0.03186 0.0
H1525 H 0.08923 0.46315 1.00262 0.0
S1526 S 0.92935 0.57049 0.03336 0.0
N1527 N 0.96796 0.54363 0.04623 0.0
N1528 N 0.9515 0.55684 1.01481 0.0
C1529 C 0.99285 0.52912 1.01856 0.0
C1530 C 1.00166 0.52196 0.03558 0.0
C1531 C 0.22732 0.75563 1.00829 0.0
C1532 C 0.3125 0.74019 1.0048 0.0
C1533 C 0.19869 0.76063 0.02461 0.0
C1534 C 0.25406 0.75037 0.03804 0.0
H1535 H 0.18303 0.76419 0.99839 0.0
H1536 H 0.13237 0.77272 0.0267 0.0
S1537 S 0.48101 0.70739 0.0355 0.0
N1538 N 0.451 0.71381 1.01618 0.0
N1539 N 0.39604 0.72315 0.04667 0.0
C1540 C 0.33867 0.73461 0.03471 0.0
C1541 C 0.36808 0.72952 1.01813 0.0
C1542 C 0.97611 0.71784 0.27478 0.0
C1543 C 1.02574 0.73396 0.28723 0.0
C1544 C 0.99022 0.72475 0.25805 0.0
C1545 C 0.05543 0.74768 0.2532 0.0
H1546 H 0.92556 0.69981 0.27797 0.0
H1547 H 0.95217 0.7114 0.24888 0.0
S1548 S 0.20126 0.79713 0.28088 0.0
N1549 N 0.14046 0.77442 0.29343 0.0
N1550 N 0.16834 0.7871 0.26216 0.0
C1551 C 0.10466 0.76415 0.26552 0.0
C1552 C 0.08958 0.75735 0.28249 0.0
C1553 C 0.3076 0.50988 0.26155 0.0
C1554 C 0.2332 0.48917 0.2583 0.0
C1555 C 0.33455 0.51647 0.27774 0.0
C1556 C 0.28852 0.5025 0.29129 0.0
H1557 H 0.3444 0.5214 0.25155 0.0
H1558 H 0.39304 0.53245 0.27963 0.0
S1559 S 0.09215 0.44542 0.28929 0.0
N1560 N 0.11467 0.45412 0.26991 0.0
N1561 N 0.16715 0.4663 0.3003 0.0
C1562 C 0.21428 0.48168 0.28821 0.0
C1563 C 0.18636 0.47502 0.27172 0.0
C1564 C 0.86175 0.23808 1.02017 0.0
C1565 C 0.80153 0.24283 1.00654 0.0
C1566 C 0.82976 0.24259 0.03633 0.0
C1567 C 0.7363 0.25208 0.03946 0.0
H1568 H 0.93463 0.23086 1.01837 0.0
H1569 H 0.87854 0.23866 0.04641 0.0
S1570 S 0.54987 0.26728 1.00808 0.0
N1571 N 0.64407 0.25724 0.99727 0.0
N1572 N 0.58319 0.26581 0.02752 0.0
C1573 C 0.67517 0.25681 0.02592 0.0
C1574 C 0.70793 0.25218 1.00949 0.0
C1575 C 0.95447 0.22122 0.77668 0.0
C1576 C 1.00446 0.2369 0.7892 0.0
C1577 C 0.97248 0.22705 0.75999 0.0
C1578 C 0.03995 0.24928 0.75514 0.0
H1579 H 0.90009 0.20437 0.7798 0.0
H1580 H 0.93239 0.21432 0.75084 0.0
S1581 S 0.19017 0.29681 0.78317 0.0
N1582 N 0.12512 0.2752 0.79564 0.0
N1583 N 0.15795 0.28704 0.76436 0.0
C1584 C 0.09082 0.26512 0.76757 0.0
C1585 C 0.07355 0.25866 0.78458 0.0
C1586 C 0.86804 0.50439 0.77717 0.0
C1587 C 0.81513 0.49168 0.79025 0.0
C1588 C 0.84092 0.49983 0.76081 0.0
C1589 C 0.76069 0.482 0.75692 0.0
H1590 H 0.93135 0.51796 0.77956 0.0
H1591 H 0.88374 0.51007 0.75114 0.0
S1592 S 0.59767 0.44378 0.78673 0.0
N1593 N 0.67821 0.461 0.79831 0.0
N1594 N 0.62762 0.45166 0.76755 0.0
C1595 C 0.70688 0.46914 0.76991 0.0
C1596 C 0.73389 0.47424 0.7866 0.0
C1597 C 0.10818 0.98081 0.52555 0.0
C1598 C 0.04622 0.98685 0.53879 0.0
C1599 C 0.07863 0.9841 0.50918 0.0
C1600 C 0.98598 -0.0064 0.50545 0.0
H1601 H 0.18051 0.97346 0.52781 0.0
H1602 H 0.12864 0.97918 0.49941 0.0
S1603 S 0.796 0.01221 0.53566 0.0
N1604 N 0.88828 0.00268 0.54708 0.0
N1605 N 0.83182 0.00896 0.51641 0.0
C1606 C 0.92317 -0.00029 0.5186 0.0
C1607 C 0.95347 -0.00369 0.53526 0.0
C1608 C 0.20587 0.24614 0.50727 0.0
C1609 C 0.30069 0.23867 0.50389 0.0
C1610 C 0.17374 0.24875 0.52356 0.0
C1611 C 0.23521 0.244 0.53703 0.0
H1612 H 0.15611 0.2498 0.49732 0.0
H1613 H 0.0998 0.25443 0.52558 0.0
S1614 S 0.49102 0.22507 0.53483 0.0
N1615 N 0.45669 0.22731 0.51547 0.0
N1616 N 0.3954 0.23221 0.54589 0.0
C1617 C 0.3302 0.23681 0.53383 0.0
C1618 C 0.36312 0.23417 0.5173 0.0
C1619 C 0.32981 0.01669 0.77578 0.0
C1620 C 0.2934 -0.00169 0.78868 0.0
C1621 C 0.31329 0.00916 0.7593 0.0
C1622 C 0.26019 0.98275 0.75502 0.0
H1623 H 0.37407 0.0367 0.77843 0.0
H1624 H 0.34345 0.02398 0.74986 0.0
S1625 S 0.14749 0.92717 0.78425 0.0
N1626 N 0.20016 0.95301 0.79617 0.0
N1627 N 0.16908 0.93837 0.76517 0.0
C1628 C 0.22152 0.96443 0.76784 0.0
C1629 C 0.23775 0.9724 0.78468 0.0
C1630 C 0.72442 0.74182 0.50752 0.0
C1631 C 0.81904 0.7342 0.50406 0.0
C1632 C 0.69261 0.74432 0.52382 0.0
C1633 C 0.75419 0.73932 0.53725 0.0
H1634 H 0.6746 0.74584 0.49761 0.0
H1635 H 0.61889 0.75025 0.52588 0.0
S1636 S 1.00915 0.71927 0.53485 0.0
N1637 N 0.97468 0.72194 0.51551 0.0
N1638 N 0.91402 0.72669 0.54599 0.0
C1639 C 0.84885 0.73175 0.53398 0.0
C1640 C 0.88146 0.72919 0.51741 0.0
C1641 C 0.74252 0.96696 0.26725 0.0
C1642 C 0.76739 0.98978 0.25553 0.0
C1643 C 0.74946 0.97276 0.28418 0.0
C1644 C 0.78168 0.00162 0.2901 0.0
H1645 H 0.71675 0.94441 0.26332 0.0
H1646 H 0.73068 0.95431 0.29268 0.0
S1647 S 0.85387 0.06951 0.2646 0.0
N1648 N 0.82478 0.0425 0.25111 0.0
N1649 N 0.83708 0.05357 0.28284 0.0
C1650 C 0.80624 0.02473 0.27852 0.0
C1651 C 0.79965 0.01875 0.26128 0.0
C1652 C 0.49315 0.50699 0.53746 0.0
C1653 C 0.55843 0.48385 0.5419 0.0
C1654 C 0.47519 0.5136 0.52082 0.0
C1655 C 0.52117 0.49704 0.50814 0.0
H1656 H 0.45829 0.52071 0.54684 0.0
H1657 H 0.4249 0.53184 0.51791 0.0
S1658 S 0.69458 0.43304 0.5135 0.0
N1659 N 0.66657 0.44355 0.53238 0.0
N1660 N 0.63231 0.45592 0.50129 0.0
C1661 C 0.58493 0.47342 0.5125 0.0
C1662 C 0.60353 0.46682 0.52935 0.0
C1663 C 0.4538 0.73174 0.77551 0.0
C1664 C 0.51643 0.73737 0.78872 0.0
C1665 C 0.48287 0.73517 0.75911 0.0
C1666 C 0.57573 0.7444 0.7553 0.0
H1667 H 0.38122 0.72467 0.77783 0.0
H1668 H 0.43224 0.73066 0.74938 0.0
S1669 S 0.76776 0.76159 0.78538 0.0
N1670 N 0.67544 0.75232 0.79688 0.0
N1671 N 0.73104 0.75883 0.76617 0.0
C1672 C 0.63931 0.74999 0.76842 0.0
C1673 C 0.60947 0.74646 0.78511 0.0
C1674 C 0.48197 0.21911 0.27781 0.0
C1675 C 0.52992 0.23587 0.29022 0.0
C1676 C 0.49677 0.2256 0.26105 0.0
C1677 C 0.56102 0.24877 0.25616 0.0
H1678 H 0.43222 0.20086 0.28104 0.0
H1679 H 0.46001 0.2118 0.25192 0.0
S1680 S 0.70199 0.3 0.28369 0.0
N1681 N 0.64197 0.27721 0.29631 0.0
N1682 N 0.67091 0.28919 0.265 0.0
C1683 C 0.60856 0.26589 0.26843 0.0
C1684 C 0.59287 0.25948 0.28542 0.0
C1685 C 0.55831 0.96887 0.02899 0.0
C1686 C 0.53568 -0.00784 0.04053 0.0
C1687 C 0.55554 0.97475 1.01201 0.0
C1688 C 0.52998 0.00419 1.00589 0.0
H1689 H 0.57874 0.94583 0.0331 0.0
H1690 H 0.57167 0.9559 1.00364 0.0
S1691 S 0.46821 0.07363 0.03086 0.0
N1692 N 0.48901 0.04607 0.04454 0.0
N1693 N 0.48467 0.05727 1.01274 0.0
C1694 C 0.50847 0.02782 1.0173 0.0
C1695 C 0.51072 0.02176 0.03457 0.0
loop_
_geom_bond_atom_site_label_1
_geom_bond_atom_site_label_2
_geom_bond_distance
_geom_bond_site_symmetry_2
_ccdc_geom_bond_type
Dy0 O4 2.398 . S
Dy0 O5 2.491 . S
Dy0 O6 2.403 . S
Dy0 O7 2.664 1_655 S
Dy0 O11 2.326 . S
Dy0 O15 2.310 . S
Dy0 O16 2.351 1_655 S
C1 O12 1.185 . S
C1 O13 1.355 . S
C2 O4 1.185 . S
C2 O5 1.355 . S
Dy3 O7 2.310 . S
Dy3 O10 2.351 . S
Dy3 O12 2.398 . S
Dy3 O13 2.491 . S
Dy3 O14 2.403 . S
Dy3 O15 2.664 1_455 S
Dy3 O17 2.326 . S
O4 Dy0 2.398 . S
O4 C2 1.185 . S
O5 Dy0 2.491 . S
O5 C2 1.355 . S
O6 Dy0 2.403 . S
O6 C8 1.254 1_655 S
O7 Dy0 2.664 1_455 S
O7 Dy3 2.310 . S
O7 C8 1.268 . S
C8 O6 1.254 1_455 S
C8 O7 1.268 . S
C9 O14 1.254 . S
C9 O15 1.268 1_455 S
O10 Dy3 2.351 . S
O10 C18 1.249 1_455 S
O11 Dy0 2.326 . S
O11 C18 1.267 . S
O12 C1 1.185 . S
O12 Dy3 2.398 . S
O13 C1 1.355 . S
O13 Dy3 2.491 . S
O14 Dy3 2.403 . S
O14 C9 1.254 . S
O15 Dy0 2.310 . S
O15 Dy3 2.664 1_655 S
O15 C9 1.268 1_655 S
O16 Dy0 2.351 1_455 S
O16 C19 1.249 . S
O17 Dy3 2.326 . S
O17 C19 1.267 . S
C18 O10 1.249 1_655 S
C18 O11 1.267 . S
C19 O16 1.249 . S
C19 O17 1.267 . S
Dy20 O24 2.398 . S
Dy20 O25 2.491 . S
Dy20 O26 2.403 . S
Dy20 O27 2.664 . S
Dy20 O31 2.326 . S
Dy20 O35 2.310 . S
Dy20 O36 2.351 . S
C21 O32 1.185 . S
C21 O33 1.355 . S
C22 O24 1.185 . S
C22 O25 1.355 . S
Dy23 O27 2.310 . S
Dy23 O30 2.351 . S
Dy23 O32 2.398 1_455 S
Dy23 O33 2.491 1_455 S
Dy23 O34 2.403 . S
Dy23 O35 2.664 . S
Dy23 O37 2.326 . S
O24 Dy20 2.398 . S
O24 C22 1.185 . S
O25 Dy20 2.491 . S
O25 C22 1.355 . S
O26 Dy20 2.403 . S
O26 C28 1.254 . S
O27 Dy20 2.664 . S
O27 Dy23 2.310 . S
O27 C28 1.268 . S
C28 O26 1.254 . S
C28 O27 1.268 . S
C29 O34 1.254 . S
C29 O35 1.268 . S
O30 Dy23 2.351 . S
O30 C38 1.249 . S
O31 Dy20 2.326 . S
O31 C38 1.267 . S
O32 C21 1.185 . S
O32 Dy23 2.398 1_655 S
O33 C21 1.355 . S
O33 Dy23 2.491 1_655 S
O34 Dy23 2.403 . S
O34 C29 1.254 . S
O35 Dy20 2.310 . S
O35 Dy23 2.664 . S
O35 C29 1.268 . S
O36 Dy20 2.351 . S
O36 C39 1.249 . S
O37 Dy23 2.326 . S
O37 C39 1.267 . S
C38 O30 1.249 . S
C38 O31 1.267 . S
C39 O36 1.249 . S
C39 O37 1.267 . S
Dy40 O44 2.398 . S
Dy40 O45 2.491 . S
Dy40 O46 2.403 . S
Dy40 O47 2.664 1_655 S
Dy40 O51 2.326 . S
Dy40 O55 2.310 . S
Dy40 O56 2.351 1_655 S
C41 O52 1.185 . S
C41 O53 1.355 . S
C42 O44 1.185 . S
C42 O45 1.355 . S
Dy43 O47 2.310 . S
Dy43 O50 2.351 . S
Dy43 O52 2.398 . S
Dy43 O53 2.491 . S
Dy43 O54 2.403 . S
Dy43 O55 2.664 1_455 S
Dy43 O57 2.326 . S
O44 Dy40 2.398 . S
O44 C42 1.185 . S
O45 Dy40 2.491 . S
O45 C42 1.355 . S
O46 Dy40 2.403 . S
O46 C48 1.254 1_655 S
O47 Dy40 2.664 1_455 S
O47 Dy43 2.310 . S
O47 C48 1.268 . S
C48 O46 1.254 1_455 S
C48 O47 1.268 . S
C49 O54 1.254 . S
C49 O55 1.268 1_455 S
O50 Dy43 2.351 . S
O50 C58 1.249 1_455 S
O51 Dy40 2.326 . S
O51 C58 1.267 . S
O52 C41 1.185 . S
O52 Dy43 2.398 . S
O53 C41 1.355 . S
O53 Dy43 2.491 . S
O54 Dy43 2.403 . S
O54 C49 1.254 . S
O55 Dy40 2.310 . S
O55 Dy43 2.664 1_655 S
O55 C49 1.268 1_655 S
O56 Dy40 2.351 1_455 S
O56 C59 1.249 . S
O57 Dy43 2.326 . S
O57 C59 1.267 . S
C58 O50 1.249 1_655 S
C58 O51 1.267 . S
C59 O56 1.249 . S
C59 O57 1.267 . S
Dy60 O64 2.398 . S
Dy60 O65 2.491 . S
Dy60 O66 2.403 . S
Dy60 O67 2.664 . S
Dy60 O71 2.326 . S
Dy60 O75 2.310 . S
Dy60 O76 2.351 . S
C61 O72 1.185 . S
C61 O73 1.355 . S
C62 O64 1.185 . S
C62 O65 1.355 . S
Dy63 O67 2.310 . S
Dy63 O70 2.351 . S
Dy63 O72 2.398 1_455 S
Dy63 O73 2.491 1_455 S
Dy63 O74 2.403 . S
Dy63 O75 2.664 . S
Dy63 O77 2.326 . S
O64 Dy60 2.398 . S
O64 C62 1.185 . S
O65 Dy60 2.491 . S
O65 C62 1.355 . S
O66 Dy60 2.403 . S
O66 C68 1.254 . S
O67 Dy60 2.664 . S
O67 Dy63 2.310 . S
O67 C68 1.268 . S
C68 O66 1.254 . S
C68 O67 1.268 . S
C69 O74 1.254 . S
C69 O75 1.268 . S
O70 Dy63 2.351 . S
O70 C78 1.249 . S
O71 Dy60 2.326 . S
O71 C78 1.267 . S
O72 C61 1.185 . S
O72 Dy63 2.398 1_655 S
O73 C61 1.355 . S
O73 Dy63 2.491 1_655 S
O74 Dy63 2.403 . S
O74 C69 1.254 . S
O75 Dy60 2.310 . S
O75 Dy63 2.664 . S
O75 C69 1.268 . S
O76 Dy60 2.351 . S
O76 C79 1.249 . S
O77 Dy63 2.326 . S
O77 C79 1.267 . S
C78 O70 1.249 . S
C78 O71 1.267 . S
C79 O76 1.249 . S
C79 O77 1.267 . S
Dy80 O84 2.398 . S
Dy80 O85 2.491 . S
Dy80 O86 2.403 . S
Dy80 O87 2.664 1_655 S
Dy80 O91 2.326 . S
Dy80 O95 2.310 . S
Dy80 O96 2.351 . S
C81 O92 1.185 . S
C81 O93 1.355 . S
C82 O84 1.185 . S
C82 O85 1.355 . S
Dy83 O87 2.310 . S
Dy83 O90 2.351 1_455 S
Dy83 O92 2.398 . S
Dy83 O93 2.491 . S
Dy83 O94 2.403 . S
Dy83 O95 2.664 1_455 S
Dy83 O97 2.326 . S
O84 Dy80 2.398 . S
O84 C82 1.185 . S
O85 Dy80 2.491 . S
O85 C82 1.355 . S
O86 Dy80 2.403 . S
O86 C88 1.254 . S
O87 Dy80 2.664 1_455 S
O87 Dy83 2.310 . S
O87 C88 1.268 1_455 S
C88 O86 1.254 . S
C88 O87 1.268 1_655 S
C89 O94 1.254 1_655 S
C89 O95 1.268 . S
O90 Dy83 2.351 1_655 S
O90 C98 1.249 . S
O91 Dy80 2.326 . S
O91 C98 1.267 . S
O92 C81 1.185 . S
O92 Dy83 2.398 . S
O93 C81 1.355 . S
O93 Dy83 2.491 . S
O94 Dy83 2.403 . S
O94 C89 1.254 1_455 S
O95 Dy80 2.310 . S
O95 Dy83 2.664 1_655 S
O95 C89 1.268 . S
O96 Dy80 2.351 . S
O96 C99 1.249 1_655 S
O97 Dy83 2.326 . S
O97 C99 1.267 . S
C98 O90 1.249 . S
C98 O91 1.267 . S
C99 O96 1.249 1_455 S
C99 O97 1.267 . S
Dy100 O104 2.398 1_655 S
Dy100 O105 2.491 1_655 S
Dy100 O106 2.403 . S
Dy100 O107 2.664 . S
Dy100 O111 2.326 . S
Dy100 O115 2.310 . S
Dy100 O116 2.351 . S
C101 O112 1.185 . S
C101 O113 1.355 . S
C102 O104 1.185 . S
C102 O105 1.355 . S
Dy103 O107 2.310 . S
Dy103 O110 2.351 . S
Dy103 O112 2.398 . S
Dy103 O113 2.491 . S
Dy103 O114 2.403 . S
Dy103 O115 2.664 . S
Dy103 O117 2.326 . S
O104 Dy100 2.398 1_455 S
O104 C102 1.185 . S
O105 Dy100 2.491 1_455 S
O105 C102 1.355 . S
O106 Dy100 2.403 . S
O106 C108 1.254 . S
O107 Dy100 2.664 . S
O107 Dy103 2.310 . S
O107 C108 1.268 . S
C108 O106 1.254 . S
C108 O107 1.268 . S
C109 O114 1.254 . S
C109 O115 1.268 . S
O110 Dy103 2.351 . S
O110 C118 1.249 . S
O111 Dy100 2.326 . S
O111 C118 1.267 . S
O112 C101 1.185 . S
O112 Dy103 2.398 . S
O113 C101 1.355 . S
O113 Dy103 2.491 . S
O114 Dy103 2.403 . S
O114 C109 1.254 . S
O115 Dy100 2.310 . S
O115 Dy103 2.664 . S
O115 C109 1.268 . S
O116 Dy100 2.351 . S
O116 C119 1.249 . S
O117 Dy103 2.326 . S
O117 C119 1.267 . S
C118 O110 1.249 . S
C118 O111 1.267 . S
C119 O116 1.249 . S
C119 O117 1.267 . S
Dy120 O124 2.398 . S
Dy120 O125 2.491 . S
Dy120 O126 2.403 . S
Dy120 O127 2.664 1_655 S
Dy120 O131 2.326 . S
Dy120 O135 2.310 . S
Dy120 O136 2.351 . S
C121 O132 1.185 . S
C121 O133 1.355 . S
C122 O124 1.185 . S
C122 O125 1.355 . S
Dy123 O127 2.310 . S
Dy123 O130 2.351 1_455 S
Dy123 O132 2.398 . S
Dy123 O133 2.491 . S
Dy123 O134 2.403 . S
Dy123 O135 2.664 1_455 S
Dy123 O137 2.326 . S
O124 Dy120 2.398 . S
O124 C122 1.185 . S
O125 Dy120 2.491 . S
O125 C122 1.355 . S
O126 Dy120 2.403 . S
O126 C128 1.254 . S
O127 Dy120 2.664 1_455 S
O127 Dy123 2.310 . S
O127 C128 1.268 1_455 S
C128 O126 1.254 . S
C128 O127 1.268 1_655 S
C129 O134 1.254 1_655 S
C129 O135 1.268 . S
O130 Dy123 2.351 1_655 S
O130 C138 1.249 . S
O131 Dy120 2.326 . S
O131 C138 1.267 . S
O132 C121 1.185 . S
O132 Dy123 2.398 . S
O133 C121 1.355 . S
O133 Dy123 2.491 . S
O134 Dy123 2.403 . S
O134 C129 1.254 1_455 S
O135 Dy120 2.310 . S
O135 Dy123 2.664 1_655 S
O135 C129 1.268 . S
O136 Dy120 2.351 . S
O136 C139 1.249 1_655 S
O137 Dy123 2.326 . S
O137 C139 1.267 . S
C138 O130 1.249 . S
C138 O131 1.267 . S
C139 O136 1.249 1_455 S
C139 O137 1.267 . S
Dy140 O144 2.398 1_655 S
Dy140 O145 2.491 1_655 S
Dy140 O146 2.403 . S
Dy140 O147 2.664 . S
Dy140 O151 2.326 . S
Dy140 O155 2.310 . S
Dy140 O156 2.351 . S
C141 O152 1.185 . S
C141 O153 1.355 . S
C142 O144 1.185 . S
C142 O145 1.355 . S
Dy143 O147 2.310 . S
Dy143 O150 2.351 . S
Dy143 O152 2.398 . S
Dy143 O153 2.491 . S
Dy143 O154 2.403 . S
Dy143 O155 2.664 . S
Dy143 O157 2.326 . S
O144 Dy140 2.398 1_455 S
O144 C142 1.185 . S
O145 Dy140 2.491 1_455 S
O145 C142 1.355 . S
O146 Dy140 2.403 . S
O146 C148 1.254 . S
O147 Dy140 2.664 . S
O147 Dy143 2.310 . S
O147 C148 1.268 . S
C148 O146 1.254 . S
C148 O147 1.268 . S
C149 O154 1.254 . S
C149 O155 1.268 . S
O150 Dy143 2.351 . S
O150 C158 1.249 . S
O151 Dy140 2.326 . S
O151 C158 1.267 . S
O152 C141 1.185 . S
O152 Dy143 2.398 . S
O153 C141 1.355 . S
O153 Dy143 2.491 . S
O154 Dy143 2.403 . S
O154 C149 1.254 . S
O155 Dy140 2.310 . S
O155 Dy143 2.664 . S
O155 C149 1.268 . S
O156 Dy140 2.351 . S
O156 C159 1.249 . S
O157 Dy143 2.326 . S
O157 C159 1.267 . S
C158 O150 1.249 . S
C158 O151 1.267 . S
C159 O156 1.249 . S
C159 O157 1.267 . S
Dy160 O164 2.398 . S
Dy160 O165 2.491 1_545 S
Dy160 O166 2.403 . S
Dy160 O167 2.664 1_645 S
Dy160 O171 2.326 1_545 S
Dy160 O175 2.310 1_545 S
Dy160 O176 2.351 1_655 S
C161 O172 1.185 1_545 S
C161 O173 1.355 . S
C162 O164 1.185 1_565 S
C162 O165 1.355 . S
Dy163 O167 2.310 . S
Dy163 O170 2.351 . S
Dy163 O172 2.398 . S
Dy163 O173 2.491 1_565 S
Dy163 O174 2.403 . S
Dy163 O175 2.664 1_455 S
Dy163 O177 2.326 1_565 S
O164 Dy160 2.398 . S
O164 C162 1.185 1_545 S
O165 Dy160 2.491 1_565 S
O165 C162 1.355 . S
O166 Dy160 2.403 . S
O166 C168 1.254 1_655 S
O167 Dy160 2.664 1_465 S
O167 Dy163 2.310 . S
O167 C168 1.268 1_565 S
C168 O166 1.254 1_455 S
C168 O167 1.268 1_545 S
C169 O174 1.254 . S
C169 O175 1.268 1_455 S
O170 Dy163 2.351 . S
O170 C178 1.249 1_455 S
O171 Dy160 2.326 1_565 S
O171 C178 1.267 . S
O172 C161 1.185 1_565 S
O172 Dy163 2.398 . S
O173 C161 1.355 . S
O173 Dy163 2.491 1_545 S
O174 Dy163 2.403 . S
O174 C169 1.254 . S
O175 Dy160 2.310 1_565 S
O175 Dy163 2.664 1_655 S
O175 C169 1.268 1_655 S
O176 Dy160 2.351 1_455 S
O176 C179 1.249 . S
O177 Dy163 2.326 1_545 S
O177 C179 1.267 . S
C178 O170 1.249 1_655 S
C178 O171 1.267 . S
C179 O176 1.249 . S
C179 O177 1.267 . S
Dy180 O184 2.398 . S
Dy180 O185 2.491 . S
Dy180 O186 2.403 . S
Dy180 O187 2.664 . S
Dy180 O191 2.326 . S
Dy180 O195 2.310 . S
Dy180 O196 2.351 . S
C181 O192 1.185 . S
C181 O193 1.355 . S
C182 O184 1.185 . S
C182 O185 1.355 . S
Dy183 O187 2.310 . S
Dy183 O190 2.351 . S
Dy183 O192 2.398 1_455 S
Dy183 O193 2.491 1_455 S
Dy183 O194 2.403 . S
Dy183 O195 2.664 . S
Dy183 O197 2.326 . S
O184 Dy180 2.398 . S
O184 C182 1.185 . S
O185 Dy180 2.491 . S
O185 C182 1.355 . S
O186 Dy180 2.403 . S
O186 C188 1.254 . S
O187 Dy180 2.664 . S
O187 Dy183 2.310 . S
O187 C188 1.268 . S
C188 O186 1.254 . S
C188 O187 1.268 . S
C189 O194 1.254 . S
C189 O195 1.268 . S
O190 Dy183 2.351 . S
O190 C198 1.249 . S
O191 Dy180 2.326 . S
O191 C198 1.267 . S
O192 C181 1.185 . S
O192 Dy183 2.398 1_655 S
O193 C181 1.355 . S
O193 Dy183 2.491 1_655 S
O194 Dy183 2.403 . S
O194 C189 1.254 . S
O195 Dy180 2.310 . S
O195 Dy183 2.664 . S
O195 C189 1.268 . S
O196 Dy180 2.351 . S
O196 C199 1.249 . S
O197 Dy183 2.326 . S
O197 C199 1.267 . S
C198 O190 1.249 . S
C198 O191 1.267 . S
C199 O196 1.249 . S
C199 O197 1.267 . S
Dy200 O204 2.398 . S
Dy200 O205 2.491 . S
Dy200 O206 2.403 . S
Dy200 O207 2.664 1_655 S
Dy200 O211 2.326 . S
Dy200 O215 2.310 . S
Dy200 O216 2.351 1_655 S
C201 O212 1.185 . S
C201 O213 1.355 . S
C202 O204 1.185 . S
C202 O205 1.355 . S
Dy203 O207 2.310 . S
Dy203 O210 2.351 . S
Dy203 O212 2.398 . S
Dy203 O213 2.491 . S
Dy203 O214 2.403 . S
Dy203 O215 2.664 1_455 S
Dy203 O217 2.326 . S
O204 Dy200 2.398 . S
O204 C202 1.185 . S
O205 Dy200 2.491 . S
O205 C202 1.355 . S
O206 Dy200 2.403 . S
O206 C208 1.254 1_655 S
O207 Dy200 2.664 1_455 S
O207 Dy203 2.310 . S
O207 C208 1.268 . S
C208 O206 1.254 1_455 S
C208 O207 1.268 . S
C209 O214 1.254 . S
C209 O215 1.268 1_455 S
O210 Dy203 2.351 . S
O210 C218 1.249 1_455 S
O211 Dy200 2.326 . S
O211 C218 1.267 . S
O212 C201 1.185 . S
O212 Dy203 2.398 . S
O213 C201 1.355 . S
O213 Dy203 2.491 . S
O214 Dy203 2.403 . S
O214 C209 1.254 . S
O215 Dy200 2.310 . S
O215 Dy203 2.664 1_655 S
O215 C209 1.268 1_655 S
O216 Dy200 2.351 1_455 S
O216 C219 1.249 . S
O217 Dy203 2.326 . S
O217 C219 1.267 . S
C218 O210 1.249 1_655 S
C218 O211 1.267 . S
C219 O216 1.249 . S
C219 O217 1.267 . S
Dy220 O224 2.398 . S
Dy220 O225 2.491 1_545 S
Dy220 O226 2.403 . S
Dy220 O227 2.664 1_545 S
Dy220 O231 2.326 1_545 S
Dy220 O235 2.310 1_545 S
Dy220 O236 2.351 . S
C221 O232 1.185 1_545 S
C221 O233 1.355 . S
C222 O224 1.185 1_565 S
C222 O225 1.355 . S
Dy223 O227 2.310 . S
Dy223 O230 2.351 . S
Dy223 O232 2.398 1_455 S
Dy223 O233 2.491 1_465 S
Dy223 O234 2.403 . S
Dy223 O235 2.664 . S
Dy223 O237 2.326 1_565 S
O224 Dy220 2.398 . S
O224 C222 1.185 1_545 S
O225 Dy220 2.491 1_565 S
O225 C222 1.355 . S
O226 Dy220 2.403 . S
O226 C228 1.254 . S
O227 Dy220 2.664 1_565 S
O227 Dy223 2.310 . S
O227 C228 1.268 1_565 S
C228 O226 1.254 . S
C228 O227 1.268 1_545 S
C229 O234 1.254 . S
C229 O235 1.268 . S
O230 Dy223 2.351 . S
O230 C238 1.249 . S
O231 Dy220 2.326 1_565 S
O231 C238 1.267 . S
O232 C221 1.185 1_565 S
O232 Dy223 2.398 1_655 S
O233 C221 1.355 . S
O233 Dy223 2.491 1_645 S
O234 Dy223 2.403 . S
O234 C229 1.254 . S
O235 Dy220 2.310 1_565 S
O235 Dy223 2.664 . S
O235 C229 1.268 . S
O236 Dy220 2.351 . S
O236 C239 1.249 . S
O237 Dy223 2.326 1_545 S
O237 C239 1.267 . S
C238 O230 1.249 . S
C238 O231 1.267 . S
C239 O236 1.249 . S
C239 O237 1.267 . S
Dy240 O244 2.398 . S
Dy240 O245 2.491 1_545 S
Dy240 O246 2.403 . S
Dy240 O247 2.664 1_655 S
Dy240 O251 2.326 1_545 S
Dy240 O255 2.310 . S
Dy240 O256 2.351 . S
C241 O252 1.185 1_545 S
C241 O253 1.355 . S
C242 O244 1.185 1_565 S
C242 O245 1.355 . S
Dy243 O247 2.310 1_565 S
Dy243 O250 2.351 1_455 S
Dy243 O252 2.398 . S
Dy243 O253 2.491 1_565 S
Dy243 O254 2.403 . S
Dy243 O255 2.664 1_465 S
Dy243 O257 2.326 1_565 S
O244 Dy240 2.398 . S
O244 C242 1.185 1_545 S
O245 Dy240 2.491 1_565 S
O245 C242 1.355 . S
O246 Dy240 2.403 . S
O246 C248 1.254 . S
O247 Dy240 2.664 1_455 S
O247 Dy243 2.310 1_545 S
O247 C248 1.268 1_455 S
C248 O246 1.254 . S
C248 O247 1.268 1_655 S
C249 O254 1.254 1_655 S
C249 O255 1.268 1_565 S
O250 Dy243 2.351 1_655 S
O250 C258 1.249 . S
O251 Dy240 2.326 1_565 S
O251 C258 1.267 . S
O252 C241 1.185 1_565 S
O252 Dy243 2.398 . S
O253 C241 1.355 . S
O253 Dy243 2.491 1_545 S
O254 Dy243 2.403 . S
O254 C249 1.254 1_455 S
O255 Dy240 2.310 . S
O255 Dy243 2.664 1_645 S
O255 C249 1.268 1_545 S
O256 Dy240 2.351 . S
O256 C259 1.249 1_655 S
O257 Dy243 2.326 1_545 S
O257 C259 1.267 . S
C258 O250 1.249 . S
C258 O251 1.267 . S
C259 O256 1.249 1_455 S
C259 O257 1.267 . S
Dy260 O264 2.398 1_655 S
Dy260 O265 2.491 1_655 S
Dy260 O266 2.403 . S
Dy260 O267 2.664 . S
Dy260 O271 2.326 . S
Dy260 O275 2.310 . S
Dy260 O276 2.351 . S
C261 O272 1.185 . S
C261 O273 1.355 . S
C262 O264 1.185 . S
C262 O265 1.355 . S
Dy263 O267 2.310 . S
Dy263 O270 2.351 . S
Dy263 O272 2.398 . S
Dy263 O273 2.491 . S
Dy263 O274 2.403 . S
Dy263 O275 2.664 . S
Dy263 O277 2.326 . S
O264 Dy260 2.398 1_455 S
O264 C262 1.185 . S
O265 Dy260 2.491 1_455 S
O265 C262 1.355 . S
O266 Dy260 2.403 . S
O266 C268 1.254 . S
O267 Dy260 2.664 . S
O267 Dy263 2.310 . S
O267 C268 1.268 . S
C268 O266 1.254 . S
C268 O267 1.268 . S
C269 O274 1.254 . S
C269 O275 1.268 . S
O270 Dy263 2.351 . S
O270 C278 1.249 . S
O271 Dy260 2.326 . S
O271 C278 1.267 . S
O272 C261 1.185 . S
O272 Dy263 2.398 . S
O273 C261 1.355 . S
O273 Dy263 2.491 . S
O274 Dy263 2.403 . S
O274 C269 1.254 . S
O275 Dy260 2.310 . S
O275 Dy263 2.664 . S
O275 C269 1.268 . S
O276 Dy260 2.351 . S
O276 C279 1.249 . S
O277 Dy263 2.326 . S
O277 C279 1.267 . S
C278 O270 1.249 . S
C278 O271 1.267 . S
C279 O276 1.249 . S
C279 O277 1.267 . S
Dy280 O284 2.398 . S
Dy280 O285 2.491 . S
Dy280 O286 2.403 . S
Dy280 O287 2.664 1_655 S
Dy280 O291 2.326 . S
Dy280 O295 2.310 . S
Dy280 O296 2.351 . S
C281 O292 1.185 . S
C281 O293 1.355 . S
C282 O284 1.185 . S
C282 O285 1.355 . S
Dy283 O287 2.310 . S
Dy283 O290 2.351 1_455 S
Dy283 O292 2.398 . S
Dy283 O293 2.491 . S
Dy283 O294 2.403 . S
Dy283 O295 2.664 1_455 S
Dy283 O297 2.326 . S
O284 Dy280 2.398 . S
O284 C282 1.185 . S
O285 Dy280 2.491 . S
O285 C282 1.355 . S
O286 Dy280 2.403 . S
O286 C288 1.254 . S
O287 Dy280 2.664 1_455 S
O287 Dy283 2.310 . S
O287 C288 1.268 1_455 S
C288 O286 1.254 . S
C288 O287 1.268 1_655 S
C289 O294 1.254 1_655 S
C289 O295 1.268 . S
O290 Dy283 2.351 1_655 S
O290 C298 1.249 . S
O291 Dy280 2.326 . S
O291 C298 1.267 . S
O292 C281 1.185 . S
O292 Dy283 2.398 . S
O293 C281 1.355 . S
O293 Dy283 2.491 . S
O294 Dy283 2.403 . S
O294 C289 1.254 1_455 S
O295 Dy280 2.310 . S
O295 Dy283 2.664 1_655 S
O295 C289 1.268 . S
O296 Dy280 2.351 . S
O296 C299 1.249 1_655 S
O297 Dy283 2.326 . S
O297 C299 1.267 . S
C298 O290 1.249 . S
C298 O291 1.267 . S
C299 O296 1.249 1_455 S
C299 O297 1.267 . S
Dy300 O304 2.398 1_655 S
Dy300 O305 2.491 1_645 S
Dy300 O306 2.403 . S
Dy300 O307 2.664 . S
Dy300 O311 2.326 1_545 S
Dy300 O315 2.310 . S
Dy300 O316 2.351 . S
C301 O312 1.185 1_545 S
C301 O313 1.355 . S
C302 O304 1.185 1_565 S
C302 O305 1.355 . S
Dy303 O307 2.310 1_565 S
Dy303 O310 2.351 . S
Dy303 O312 2.398 . S
Dy303 O313 2.491 1_565 S
Dy303 O314 2.403 . S
Dy303 O315 2.664 1_565 S
Dy303 O317 2.326 1_565 S
O304 Dy300 2.398 1_455 S
O304 C302 1.185 1_545 S
O305 Dy300 2.491 1_465 S
O305 C302 1.355 . S
O306 Dy300 2.403 . S
O306 C308 1.254 . S
O307 Dy300 2.664 . S
O307 Dy303 2.310 1_545 S
O307 C308 1.268 . S
C308 O306 1.254 . S
C308 O307 1.268 . S
C309 O314 1.254 . S
C309 O315 1.268 1_565 S
O310 Dy303 2.351 . S
O310 C318 1.249 . S
O311 Dy300 2.326 1_565 S
O311 C318 1.267 . S
O312 C301 1.185 1_565 S
O312 Dy303 2.398 . S
O313 C301 1.355 . S
O313 Dy303 2.491 1_545 S
O314 Dy303 2.403 . S
O314 C309 1.254 . S
O315 Dy300 2.310 . S
O315 Dy303 2.664 1_545 S
O315 C309 1.268 1_545 S
O316 Dy300 2.351 . S
O316 C319 1.249 . S
O317 Dy303 2.326 1_545 S
O317 C319 1.267 . S
C318 O310 1.249 . S
C318 O311 1.267 . S
C319 O316 1.249 . S
C319 O317 1.267 . S
Dy320 O324 2.398 . S
Dy320 O325 2.491 . S
Dy320 O326 2.403 . S
Dy320 O327 2.664 . S
Dy320 O331 2.326 . S
Dy320 O335 2.310 . S
Dy320 O336 2.351 . S
C321 O332 1.185 . S
C321 O333 1.355 . S
C322 O324 1.185 . S
C322 O325 1.355 . S
Dy323 O327 2.310 . S
Dy323 O330 2.351 . S
Dy323 O332 2.398 . S
Dy323 O333 2.491 . S
Dy323 O334 2.403 . S
Dy323 O335 2.664 . S
Dy323 O337 2.326 . S
O324 Dy320 2.398 . S
O324 C322 1.185 . S
O325 Dy320 2.491 . S
O325 C322 1.355 . S
O326 Dy320 2.403 . S
O326 C328 1.254 . S
O327 Dy320 2.664 . S
O327 Dy323 2.310 . S
O327 C328 1.268 . S
C328 O326 1.254 . S
C328 O327 1.268 . S
C329 O334 1.254 . S
C329 O335 1.268 . S
O330 Dy323 2.351 . S
O330 C338 1.249 . S
O331 Dy320 2.326 . S
O331 C338 1.267 . S
O332 C321 1.185 . S
O332 Dy323 2.398 . S
O333 C321 1.355 . S
O333 Dy323 2.491 . S
O334 Dy323 2.403 . S
O334 C329 1.254 . S
O335 Dy320 2.310 . S
O335 Dy323 2.664 . S
O335 C329 1.268 . S
O336 Dy320 2.351 . S
O336 C339 1.249 . S
O337 Dy323 2.326 . S
O337 C339 1.267 . S
C338 O330 1.249 . S
C338 O331 1.267 . S
C339 O336 1.249 . S
C339 O337 1.267 . S
Dy340 O344 2.398 . S
Dy340 O345 2.491 . S
Dy340 O346 2.403 . S
Dy340 O347 2.664 . S
Dy340 O351 2.326 . S
Dy340 O355 2.310 . S
Dy340 O356 2.351 . S
C341 O352 1.185 . S
C341 O353 1.355 . S
C342 O344 1.185 1_455 S
C342 O345 1.355 1_455 S
Dy343 O347 2.310 . S
Dy343 O350 2.351 . S
Dy343 O352 2.398 . S
Dy343 O353 2.491 . S
Dy343 O354 2.403 . S
Dy343 O355 2.664 . S
Dy343 O357 2.326 . S
O344 Dy340 2.398 . S
O344 C342 1.185 1_655 S
O345 Dy340 2.491 . S
O345 C342 1.355 1_655 S
O346 Dy340 2.403 . S
O346 C348 1.254 . S
O347 Dy340 2.664 . S
O347 Dy343 2.310 . S
O347 C348 1.268 . S
C348 O346 1.254 . S
C348 O347 1.268 . S
C349 O354 1.254 . S
C349 O355 1.268 . S
O350 Dy343 2.351 . S
O350 C358 1.249 . S
O351 Dy340 2.326 . S
O351 C358 1.267 . S
O352 C341 1.185 . S
O352 Dy343 2.398 . S
O353 C341 1.355 . S
O353 Dy343 2.491 . S
O354 Dy343 2.403 . S
O354 C349 1.254 . S
O355 Dy340 2.310 . S
O355 Dy343 2.664 . S
O355 C349 1.268 . S
O356 Dy340 2.351 . S
O356 C359 1.249 . S
O357 Dy343 2.326 . S
O357 C359 1.267 . S
C358 O350 1.249 . S
C358 O351 1.267 . S
C359 O356 1.249 . S
C359 O357 1.267 . S
Dy360 O364 2.398 . S
Dy360 O365 2.491 . S
Dy360 O366 2.403 . S
Dy360 O367 2.664 . S
Dy360 O371 2.326 . S
Dy360 O375 2.310 . S
Dy360 O376 2.351 . S
C361 O372 1.185 . S
C361 O373 1.355 . S
C362 O364 1.185 . S
C362 O365 1.355 . S
Dy363 O367 2.310 . S
Dy363 O370 2.351 . S
Dy363 O372 2.398 . S
Dy363 O373 2.491 . S
Dy363 O374 2.403 . S
Dy363 O375 2.664 . S
Dy363 O377 2.326 . S
O364 Dy360 2.398 . S
O364 C362 1.185 . S
O365 Dy360 2.491 . S
O365 C362 1.355 . S
O366 Dy360 2.403 . S
O366 C368 1.254 . S
O367 Dy360 2.664 . S
O367 Dy363 2.310 . S
O367 C368 1.268 . S
C368 O366 1.254 . S
C368 O367 1.268 . S
C369 O374 1.254 . S
C369 O375 1.268 . S
O370 Dy363 2.351 . S
O370 C378 1.249 . S
O371 Dy360 2.326 . S
O371 C378 1.267 . S
O372 C361 1.185 . S
O372 Dy363 2.398 . S
O373 C361 1.355 . S
O373 Dy363 2.491 . S
O374 Dy363 2.403 . S
O374 C369 1.254 . S
O375 Dy360 2.310 . S
O375 Dy363 2.664 . S
O375 C369 1.268 . S
O376 Dy360 2.351 . S
O376 C379 1.249 . S
O377 Dy363 2.326 . S
O377 C379 1.267 . S
C378 O370 1.249 . S
C378 O371 1.267 . S
C379 O376 1.249 . S
C379 O377 1.267 . S
Dy380 O384 2.398 . S
Dy380 O385 2.491 . S
Dy380 O386 2.403 . S
Dy380 O387 2.664 . S
Dy380 O391 2.326 . S
Dy380 O395 2.310 . S
Dy380 O396 2.351 . S
C381 O392 1.185 . S
C381 O393 1.355 . S
C382 O384 1.185 1_455 S
C382 O385 1.355 1_455 S
Dy383 O387 2.310 . S
Dy383 O390 2.351 . S
Dy383 O392 2.398 . S
Dy383 O393 2.491 . S
Dy383 O394 2.403 . S
Dy383 O395 2.664 . S
Dy383 O397 2.326 . S
O384 Dy380 2.398 . S
O384 C382 1.185 1_655 S
O385 Dy380 2.491 . S
O385 C382 1.355 1_655 S
O386 Dy380 2.403 . S
O386 C388 1.254 . S
O387 Dy380 2.664 . S
O387 Dy383 2.310 . S
O387 C388 1.268 . S
C388 O386 1.254 . S
C388 O387 1.268 . S
C389 O394 1.254 . S
C389 O395 1.268 . S
O390 Dy383 2.351 . S
O390 C398 1.249 . S
O391 Dy380 2.326 . S
O391 C398 1.267 . S
O392 C381 1.185 . S
O392 Dy383 2.398 . S
O393 C381 1.355 . S
O393 Dy383 2.491 . S
O394 Dy383 2.403 . S
O394 C389 1.254 . S
O395 Dy380 2.310 . S
O395 Dy383 2.664 . S
O395 C389 1.268 . S
O396 Dy380 2.351 . S
O396 C399 1.249 . S
O397 Dy383 2.326 . S
O397 C399 1.267 . S
C398 O390 1.249 . S
C398 O391 1.267 . S
C399 O396 1.249 . S
C399 O397 1.267 . S
Dy400 O404 2.398 . S
Dy400 O405 2.491 . S
Dy400 O406 2.403 . S
Dy400 O407 2.664 . S
Dy400 O411 2.326 . S
Dy400 O415 2.310 . S
Dy400 O416 2.351 . S
C401 O412 1.185 . S
C401 O413 1.355 . S
C402 O404 1.185 . S
C402 O405 1.355 . S
Dy403 O407 2.310 . S
Dy403 O410 2.351 . S
Dy403 O412 2.398 . S
Dy403 O413 2.491 . S
Dy403 O414 2.403 . S
Dy403 O415 2.664 . S
Dy403 O417 2.326 . S
O404 Dy400 2.398 . S
O404 C402 1.185 . S
O405 Dy400 2.491 . S
O405 C402 1.355 . S
O406 Dy400 2.403 . S
O406 C408 1.254 . S
O407 Dy400 2.664 . S
O407 Dy403 2.310 . S
O407 C408 1.268 . S
C408 O406 1.254 . S
C408 O407 1.268 . S
C409 O414 1.254 . S
C409 O415 1.268 . S
O410 Dy403 2.351 . S
O410 C418 1.249 . S
O411 Dy400 2.326 . S
O411 C418 1.267 . S
O412 C401 1.185 . S
O412 Dy403 2.398 . S
O413 C401 1.355 . S
O413 Dy403 2.491 . S
O414 Dy403 2.403 . S
O414 C409 1.254 . S
O415 Dy400 2.310 . S
O415 Dy403 2.664 . S
O415 C409 1.268 . S
O416 Dy400 2.351 . S
O416 C419 1.249 . S
O417 Dy403 2.326 . S
O417 C419 1.267 . S
C418 O410 1.249 . S
C418 O411 1.267 . S
C419 O416 1.249 . S
C419 O417 1.267 . S
Dy420 O424 2.398 . S
Dy420 O425 2.491 . S
Dy420 O426 2.403 . S
Dy420 O427 2.664 . S
Dy420 O431 2.326 . S
Dy420 O435 2.310 . S
Dy420 O436 2.351 . S
C421 O432 1.185 1_655 S
C421 O433 1.355 1_655 S
C422 O424 1.185 . S
C422 O425 1.355 . S
Dy423 O427 2.310 . S
Dy423 O430 2.351 . S
Dy423 O432 2.398 . S
Dy423 O433 2.491 . S
Dy423 O434 2.403 . S
Dy423 O435 2.664 . S
Dy423 O437 2.326 . S
O424 Dy420 2.398 . S
O424 C422 1.185 . S
O425 Dy420 2.491 . S
O425 C422 1.355 . S
O426 Dy420 2.403 . S
O426 C428 1.254 . S
O427 Dy420 2.664 . S
O427 Dy423 2.310 . S
O427 C428 1.268 . S
C428 O426 1.254 . S
C428 O427 1.268 . S
C429 O434 1.254 . S
C429 O435 1.268 . S
O430 Dy423 2.351 . S
O430 C438 1.249 . S
O431 Dy420 2.326 . S
O431 C438 1.267 . S
O432 C421 1.185 1_455 S
O432 Dy423 2.398 . S
O433 C421 1.355 1_455 S
O433 Dy423 2.491 . S
O434 Dy423 2.403 . S
O434 C429 1.254 . S
O435 Dy420 2.310 . S
O435 Dy423 2.664 . S
O435 C429 1.268 . S
O436 Dy420 2.351 . S
O436 C439 1.249 . S
O437 Dy423 2.326 . S
O437 C439 1.267 . S
C438 O430 1.249 . S
C438 O431 1.267 . S
C439 O436 1.249 . S
C439 O437 1.267 . S
Dy440 O444 2.398 . S
Dy440 O445 2.491 . S
Dy440 O446 2.403 . S
Dy440 O447 2.664 . S
Dy440 O451 2.326 . S
Dy440 O455 2.310 . S
Dy440 O456 2.351 . S
C441 O452 1.185 . S
C441 O453 1.355 . S
C442 O444 1.185 . S
C442 O445 1.355 . S
Dy443 O447 2.310 . S
Dy443 O450 2.351 . S
Dy443 O452 2.398 . S
Dy443 O453 2.491 . S
Dy443 O454 2.403 . S
Dy443 O455 2.664 . S
Dy443 O457 2.326 . S
O444 Dy440 2.398 . S
O444 C442 1.185 . S
O445 Dy440 2.491 . S
O445 C442 1.355 . S
O446 Dy440 2.403 . S
O446 C448 1.254 . S
O447 Dy440 2.664 . S
O447 Dy443 2.310 . S
O447 C448 1.268 . S
C448 O446 1.254 . S
C448 O447 1.268 . S
C449 O454 1.254 . S
C449 O455 1.268 . S
O450 Dy443 2.351 . S
O450 C458 1.249 . S
O451 Dy440 2.326 . S
O451 C458 1.267 . S
O452 C441 1.185 . S
O452 Dy443 2.398 . S
O453 C441 1.355 . S
O453 Dy443 2.491 . S
O454 Dy443 2.403 . S
O454 C449 1.254 . S
O455 Dy440 2.310 . S
O455 Dy443 2.664 . S
O455 C449 1.268 . S
O456 Dy440 2.351 . S
O456 C459 1.249 . S
O457 Dy443 2.326 . S
O457 C459 1.267 . S
C458 O450 1.249 . S
C458 O451 1.267 . S
C459 O456 1.249 . S
C459 O457 1.267 . S
Dy460 O464 2.398 . S
Dy460 O465 2.491 . S
Dy460 O466 2.403 . S
Dy460 O467 2.664 . S
Dy460 O471 2.326 . S
Dy460 O475 2.310 . S
Dy460 O476 2.351 . S
C461 O472 1.185 1_655 S
C461 O473 1.355 1_655 S
C462 O464 1.185 . S
C462 O465 1.355 . S
Dy463 O467 2.310 . S
Dy463 O470 2.351 . S
Dy463 O472 2.398 . S
Dy463 O473 2.491 . S
Dy463 O474 2.403 . S
Dy463 O475 2.664 . S
Dy463 O477 2.326 . S
O464 Dy460 2.398 . S
O464 C462 1.185 . S
O465 Dy460 2.491 . S
O465 C462 1.355 . S
O466 Dy460 2.403 . S
O466 C468 1.254 . S
O467 Dy460 2.664 . S
O467 Dy463 2.310 . S
O467 C468 1.268 . S
C468 O466 1.254 . S
C468 O467 1.268 . S
C469 O474 1.254 . S
C469 O475 1.268 . S
O470 Dy463 2.351 . S
O470 C478 1.249 . S
O471 Dy460 2.326 . S
O471 C478 1.267 . S
O472 C461 1.185 1_455 S
O472 Dy463 2.398 . S
O473 C461 1.355 1_455 S
O473 Dy463 2.491 . S
O474 Dy463 2.403 . S
O474 C469 1.254 . S
O475 Dy460 2.310 . S
O475 Dy463 2.664 . S
O475 C469 1.268 . S
O476 Dy460 2.351 . S
O476 C479 1.249 . S
O477 Dy463 2.326 . S
O477 C479 1.267 . S
C478 O470 1.249 . S
C478 O471 1.267 . S
C479 O476 1.249 . S
C479 O477 1.267 . S
Dy480 O484 2.398 . S
Dy480 O485 2.491 1_545 S
Dy480 O486 2.403 . S
Dy480 O487 2.664 1_545 S
Dy480 O491 2.326 1_545 S
Dy480 O495 2.310 1_545 S
Dy480 O496 2.351 . S
C481 O492 1.185 1_545 S
C481 O493 1.355 . S
C482 O484 1.185 1_565 S
C482 O485 1.355 . S
Dy483 O487 2.310 . S
Dy483 O490 2.351 . S
Dy483 O492 2.398 . S
Dy483 O493 2.491 1_565 S
Dy483 O494 2.403 . S
Dy483 O495 2.664 . S
Dy483 O497 2.326 1_565 S
O484 Dy480 2.398 . S
O484 C482 1.185 1_545 S
O485 Dy480 2.491 1_565 S
O485 C482 1.355 . S
O486 Dy480 2.403 . S
O486 C488 1.254 . S
O487 Dy480 2.664 1_565 S
O487 Dy483 2.310 . S
O487 C488 1.268 1_565 S
C488 O486 1.254 . S
C488 O487 1.268 1_545 S
C489 O494 1.254 . S
C489 O495 1.268 . S
O490 Dy483 2.351 . S
O490 C498 1.249 . S
O491 Dy480 2.326 1_565 S
O491 C498 1.267 . S
O492 C481 1.185 1_565 S
O492 Dy483 2.398 . S
O493 C481 1.355 . S
O493 Dy483 2.491 1_545 S
O494 Dy483 2.403 . S
O494 C489 1.254 . S
O495 Dy480 2.310 1_565 S
O495 Dy483 2.664 . S
O495 C489 1.268 . S
O496 Dy480 2.351 . S
O496 C499 1.249 . S
O497 Dy483 2.326 1_545 S
O497 C499 1.267 . S
C498 O490 1.249 . S
C498 O491 1.267 . S
C499 O496 1.249 . S
C499 O497 1.267 . S
Dy500 O504 2.398 . S
Dy500 O505 2.491 . S
Dy500 O506 2.403 . S
Dy500 O507 2.664 . S
Dy500 O511 2.326 . S
Dy500 O515 2.310 . S
Dy500 O516 2.351 . S
C501 O512 1.185 . S
C501 O513 1.355 . S
C502 O504 1.185 1_455 S
C502 O505 1.355 1_455 S
Dy503 O507 2.310 . S
Dy503 O510 2.351 . S
Dy503 O512 2.398 . S
Dy503 O513 2.491 . S
Dy503 O514 2.403 . S
Dy503 O515 2.664 . S
Dy503 O517 2.326 . S
O504 Dy500 2.398 . S
O504 C502 1.185 1_655 S
O505 Dy500 2.491 . S
O505 C502 1.355 1_655 S
O506 Dy500 2.403 . S
O506 C508 1.254 . S
O507 Dy500 2.664 . S
O507 Dy503 2.310 . S
O507 C508 1.268 . S
C508 O506 1.254 . S
C508 O507 1.268 . S
C509 O514 1.254 . S
C509 O515 1.268 . S
O510 Dy503 2.351 . S
O510 C518 1.249 . S
O511 Dy500 2.326 . S
O511 C518 1.267 . S
O512 C501 1.185 . S
O512 Dy503 2.398 . S
O513 C501 1.355 . S
O513 Dy503 2.491 . S
O514 Dy503 2.403 . S
O514 C509 1.254 . S
O515 Dy500 2.310 . S
O515 Dy503 2.664 . S
O515 C509 1.268 . S
O516 Dy500 2.351 . S
O516 C519 1.249 . S
O517 Dy503 2.326 . S
O517 C519 1.267 . S
C518 O510 1.249 . S
C518 O511 1.267 . S
C519 O516 1.249 . S
C519 O517 1.267 . S
Dy520 O524 2.398 . S
Dy520 O525 2.491 . S
Dy520 O526 2.403 . S
Dy520 O527 2.664 . S
Dy520 O531 2.326 . S
Dy520 O535 2.310 . S
Dy520 O536 2.351 . S
C521 O532 1.185 . S
C521 O533 1.355 . S
C522 O524 1.185 . S
C522 O525 1.355 . S
Dy523 O527 2.310 . S
Dy523 O530 2.351 . S
Dy523 O532 2.398 . S
Dy523 O533 2.491 . S
Dy523 O534 2.403 . S
Dy523 O535 2.664 . S
Dy523 O537 2.326 . S
O524 Dy520 2.398 . S
O524 C522 1.185 . S
O525 Dy520 2.491 . S
O525 C522 1.355 . S
O526 Dy520 2.403 . S
O526 C528 1.254 . S
O527 Dy520 2.664 . S
O527 Dy523 2.310 . S
O527 C528 1.268 . S
C528 O526 1.254 . S
C528 O527 1.268 . S
C529 O534 1.254 . S
C529 O535 1.268 . S
O530 Dy523 2.351 . S
O530 C538 1.249 . S
O531 Dy520 2.326 . S
O531 C538 1.267 . S
O532 C521 1.185 . S
O532 Dy523 2.398 . S
O533 C521 1.355 . S
O533 Dy523 2.491 . S
O534 Dy523 2.403 . S
O534 C529 1.254 . S
O535 Dy520 2.310 . S
O535 Dy523 2.664 . S
O535 C529 1.268 . S
O536 Dy520 2.351 . S
O536 C539 1.249 . S
O537 Dy523 2.326 . S
O537 C539 1.267 . S
C538 O530 1.249 . S
C538 O531 1.267 . S
C539 O536 1.249 . S
C539 O537 1.267 . S
Dy540 O544 2.398 . S
Dy540 O545 2.491 1_545 S
Dy540 O546 2.403 . S
Dy540 O547 2.664 1_545 S
Dy540 O551 2.326 1_545 S
Dy540 O555 2.310 1_545 S
Dy540 O556 2.351 . S
C541 O552 1.185 1_545 S
C541 O553 1.355 . S
C542 O544 1.185 1_465 S
C542 O545 1.355 1_455 S
Dy543 O547 2.310 . S
Dy543 O550 2.351 . S
Dy543 O552 2.398 . S
Dy543 O553 2.491 1_565 S
Dy543 O554 2.403 . S
Dy543 O555 2.664 . S
Dy543 O557 2.326 1_565 S
O544 Dy540 2.398 . S
O544 C542 1.185 1_645 S
O545 Dy540 2.491 1_565 S
O545 C542 1.355 1_655 S
O546 Dy540 2.403 . S
O546 C548 1.254 . S
O547 Dy540 2.664 1_565 S
O547 Dy543 2.310 . S
O547 C548 1.268 1_565 S
C548 O546 1.254 . S
C548 O547 1.268 1_545 S
C549 O554 1.254 . S
C549 O555 1.268 . S
O550 Dy543 2.351 . S
O550 C558 1.249 . S
O551 Dy540 2.326 1_565 S
O551 C558 1.267 . S
O552 C541 1.185 1_565 S
O552 Dy543 2.398 . S
O553 C541 1.355 . S
O553 Dy543 2.491 1_545 S
O554 Dy543 2.403 . S
O554 C549 1.254 . S
O555 Dy540 2.310 1_565 S
O555 Dy543 2.664 . S
O555 C549 1.268 . S
O556 Dy540 2.351 . S
O556 C559 1.249 . S
O557 Dy543 2.326 1_545 S
O557 C559 1.267 . S
C558 O550 1.249 . S
C558 O551 1.267 . S
C559 O556 1.249 . S
C559 O557 1.267 . S
Dy560 O564 2.398 . S
Dy560 O565 2.491 1_545 S
Dy560 O566 2.403 . S
Dy560 O567 2.664 . S
Dy560 O571 2.326 1_545 S
Dy560 O575 2.310 . S
Dy560 O576 2.351 . S
C561 O572 1.185 1_545 S
C561 O573 1.355 . S
C562 O564 1.185 1_565 S
C562 O565 1.355 . S
Dy563 O567 2.310 1_565 S
Dy563 O570 2.351 . S
Dy563 O572 2.398 . S
Dy563 O573 2.491 1_565 S
Dy563 O574 2.403 . S
Dy563 O575 2.664 1_565 S
Dy563 O577 2.326 1_565 S
O564 Dy560 2.398 . S
O564 C562 1.185 1_545 S
O565 Dy560 2.491 1_565 S
O565 C562 1.355 . S
O566 Dy560 2.403 . S
O566 C568 1.254 . S
O567 Dy560 2.664 . S
O567 Dy563 2.310 1_545 S
O567 C568 1.268 . S
C568 O566 1.254 . S
C568 O567 1.268 . S
C569 O574 1.254 . S
C569 O575 1.268 1_565 S
O570 Dy563 2.351 . S
O570 C578 1.249 . S
O571 Dy560 2.326 1_565 S
O571 C578 1.267 . S
O572 C561 1.185 1_565 S
O572 Dy563 2.398 . S
O573 C561 1.355 . S
O573 Dy563 2.491 1_545 S
O574 Dy563 2.403 . S
O574 C569 1.254 . S
O575 Dy560 2.310 . S
O575 Dy563 2.664 1_545 S
O575 C569 1.268 1_545 S
O576 Dy560 2.351 . S
O576 C579 1.249 . S
O577 Dy563 2.326 1_545 S
O577 C579 1.267 . S
C578 O570 1.249 . S
C578 O571 1.267 . S
C579 O576 1.249 . S
C579 O577 1.267 . S
Dy580 O584 2.398 . S
Dy580 O585 2.491 . S
Dy580 O586 2.403 . S
Dy580 O587 2.664 . S
Dy580 O591 2.326 . S
Dy580 O595 2.310 . S
Dy580 O596 2.351 . S
C581 O592 1.185 1_655 S
C581 O593 1.355 1_655 S
C582 O584 1.185 . S
C582 O585 1.355 . S
Dy583 O587 2.310 . S
Dy583 O590 2.351 . S
Dy583 O592 2.398 . S
Dy583 O593 2.491 . S
Dy583 O594 2.403 . S
Dy583 O595 2.664 . S
Dy583 O597 2.326 . S
O584 Dy580 2.398 . S
O584 C582 1.185 . S
O585 Dy580 2.491 . S
O585 C582 1.355 . S
O586 Dy580 2.403 . S
O586 C588 1.254 . S
O587 Dy580 2.664 . S
O587 Dy583 2.310 . S
O587 C588 1.268 . S
C588 O586 1.254 . S
C588 O587 1.268 . S
C589 O594 1.254 . S
C589 O595 1.268 . S
O590 Dy583 2.351 . S
O590 C598 1.249 . S
O591 Dy580 2.326 . S
O591 C598 1.267 . S
O592 C581 1.185 1_455 S
O592 Dy583 2.398 . S
O593 C581 1.355 1_455 S
O593 Dy583 2.491 . S
O594 Dy583 2.403 . S
O594 C589 1.254 . S
O595 Dy580 2.310 . S
O595 Dy583 2.664 . S
O595 C589 1.268 . S
O596 Dy580 2.351 . S
O596 C599 1.249 . S
O597 Dy583 2.326 . S
O597 C599 1.267 . S
C598 O590 1.249 . S
C598 O591 1.267 . S
C599 O596 1.249 . S
C599 O597 1.267 . S
Dy600 O604 2.398 . S
Dy600 O605 2.491 . S
Dy600 O606 2.403 . S
Dy600 O607 2.664 . S
Dy600 O611 2.326 . S
Dy600 O615 2.310 . S
Dy600 O616 2.351 . S
C601 O612 1.185 . S
C601 O613 1.355 . S
C602 O604 1.185 . S
C602 O605 1.355 . S
Dy603 O607 2.310 . S
Dy603 O610 2.351 . S
Dy603 O612 2.398 . S
Dy603 O613 2.491 . S
Dy603 O614 2.403 . S
Dy603 O615 2.664 . S
Dy603 O617 2.326 . S
O604 Dy600 2.398 . S
O604 C602 1.185 . S
O605 Dy600 2.491 . S
O605 C602 1.355 . S
O606 Dy600 2.403 . S
O606 C608 1.254 . S
O607 Dy600 2.664 . S
O607 Dy603 2.310 . S
O607 C608 1.268 . S
C608 O606 1.254 . S
C608 O607 1.268 . S
C609 O614 1.254 . S
C609 O615 1.268 . S
O610 Dy603 2.351 . S
O610 C618 1.249 . S
O611 Dy600 2.326 . S
O611 C618 1.267 . S
O612 C601 1.185 . S
O612 Dy603 2.398 . S
O613 C601 1.355 . S
O613 Dy603 2.491 . S
O614 Dy603 2.403 . S
O614 C609 1.254 . S
O615 Dy600 2.310 . S
O615 Dy603 2.664 . S
O615 C609 1.268 . S
O616 Dy600 2.351 . S
O616 C619 1.249 . S
O617 Dy603 2.326 . S
O617 C619 1.267 . S
C618 O610 1.249 . S
C618 O611 1.267 . S
C619 O616 1.249 . S
C619 O617 1.267 . S
Dy620 O624 2.398 . S
Dy620 O625 2.491 1_545 S
Dy620 O626 2.403 . S
Dy620 O627 2.664 . S
Dy620 O631 2.326 1_545 S
Dy620 O635 2.310 . S
Dy620 O636 2.351 . S
C621 O632 1.185 1_645 S
C621 O633 1.355 1_655 S
C622 O624 1.185 1_565 S
C622 O625 1.355 . S
Dy623 O627 2.310 1_565 S
Dy623 O630 2.351 . S
Dy623 O632 2.398 . S
Dy623 O633 2.491 1_565 S
Dy623 O634 2.403 . S
Dy623 O635 2.664 1_565 S
Dy623 O637 2.326 1_565 S
O624 Dy620 2.398 . S
O624 C622 1.185 1_545 S
O625 Dy620 2.491 1_565 S
O625 C622 1.355 . S
O626 Dy620 2.403 . S
O626 C628 1.254 . S
O627 Dy620 2.664 . S
O627 Dy623 2.310 1_545 S
O627 C628 1.268 . S
C628 O626 1.254 . S
C628 O627 1.268 . S
C629 O634 1.254 . S
C629 O635 1.268 1_565 S
O630 Dy623 2.351 . S
O630 C638 1.249 . S
O631 Dy620 2.326 1_565 S
O631 C638 1.267 . S
O632 C621 1.185 1_465 S
O632 Dy623 2.398 . S
O633 C621 1.355 1_455 S
O633 Dy623 2.491 1_545 S
O634 Dy623 2.403 . S
O634 C629 1.254 . S
O635 Dy620 2.310 . S
O635 Dy623 2.664 1_545 S
O635 C629 1.268 1_545 S
O636 Dy620 2.351 . S
O636 C639 1.249 . S
O637 Dy623 2.326 1_545 S
O637 C639 1.267 . S
C638 O630 1.249 . S
C638 O631 1.267 . S
C639 O636 1.249 . S
C639 O637 1.267 . S
C640 C641 1.369 . S
C640 C642 1.419 . S
C640 H644 0.930 1_655 S
C641 C640 1.369 . S
C641 C650 1.429 . S
C642 C640 1.419 . S
C642 C643 1.363 . S
C642 H645 0.929 . S
C643 C642 1.363 . S
C643 C649 1.428 . S
H644 C640 0.930 1_455 S
H645 C642 0.929 . S
S646 N647 1.613 . S
S646 N648 1.610 . S
N647 S646 1.613 . S
N647 C650 1.350 . S
N648 S646 1.610 . S
N648 C649 1.351 . S
C649 C643 1.428 . S
C649 N648 1.351 . S
C649 C650 1.434 . S
C650 C641 1.429 . S
C650 N647 1.350 . S
C650 C649 1.434 . S
C651 C652 1.369 . S
C651 C653 1.419 . S
C651 H655 0.930 . S
C652 C651 1.369 . S
C652 C661 1.429 . S
C653 C651 1.419 . S
C653 C654 1.363 . S
C653 H656 0.929 . S
C654 C653 1.363 . S
C654 C660 1.428 . S
H655 C651 0.930 . S
H656 C653 0.929 . S
S657 N658 1.613 . S
S657 N659 1.610 . S
N658 S657 1.613 . S
N658 C661 1.350 . S
N659 S657 1.610 . S
N659 C660 1.351 . S
C660 C654 1.428 . S
C660 N659 1.351 . S
C660 C661 1.434 . S
C661 C652 1.429 . S
C661 N658 1.350 . S
C661 C660 1.434 . S
C662 C663 1.369 . S
C662 C664 1.419 . S
C662 H666 0.930 . S
C663 C662 1.369 . S
C663 C672 1.429 . S
C664 C662 1.419 . S
C664 C665 1.363 . S
C664 H667 0.929 . S
C665 C664 1.363 . S
C665 C671 1.428 . S
H666 C662 0.930 . S
H667 C664 0.929 . S
S668 N669 1.613 . S
S668 N670 1.610 . S
N669 S668 1.613 . S
N669 C672 1.350 . S
N670 S668 1.610 . S
N670 C671 1.351 . S
C671 C665 1.428 . S
C671 N670 1.351 . S
C671 C672 1.434 . S
C672 C663 1.429 . S
C672 N669 1.350 . S
C672 C671 1.434 . S
C673 C674 1.369 . S
C673 C675 1.419 . S
C673 H677 0.930 . S
C674 C673 1.369 . S
C674 C683 1.429 . S
C675 C673 1.419 . S
C675 C676 1.363 . S
C675 H678 0.929 . S
C676 C675 1.363 . S
C676 C682 1.428 . S
H677 C673 0.930 . S
H678 C675 0.929 . S
S679 N680 1.613 . S
S679 N681 1.610 . S
N680 S679 1.613 . S
N680 C683 1.350 . S
N681 S679 1.610 . S
N681 C682 1.351 . S
C682 C676 1.428 . S
C682 N681 1.351 . S
C682 C683 1.434 . S
C683 C674 1.429 . S
C683 N680 1.350 . S
C683 C682 1.434 . S
C684 C685 1.369 . S
C684 C686 1.419 . S
C684 H688 0.930 1_455 S
C685 C684 1.369 . S
C685 C694 1.429 . S
C686 C684 1.419 . S
C686 C687 1.363 . S
C686 H689 0.929 . S
C687 C686 1.363 . S
C687 C693 1.428 . S
H688 C684 0.930 1_655 S
H689 C686 0.929 . S
S690 N691 1.613 . S
S690 N692 1.610 . S
N691 S690 1.613 . S
N691 C694 1.350 . S
N692 S690 1.610 . S
N692 C693 1.351 . S
C693 C687 1.428 . S
C693 N692 1.351 . S
C693 C694 1.434 . S
C694 C685 1.429 . S
C694 N691 1.350 . S
C694 C693 1.434 . S
C695 C696 1.369 . S
C695 C697 1.419 . S
C695 H699 0.930 . S
C696 C695 1.369 . S
C696 C705 1.429 . S
C697 C695 1.419 . S
C697 C698 1.363 . S
C697 H700 0.929 . S
C698 C697 1.363 . S
C698 C704 1.428 . S
H699 C695 0.930 . S
H700 C697 0.929 . S
S701 N702 1.613 . S
S701 N703 1.610 . S
N702 S701 1.613 . S
N702 C705 1.350 . S
N703 S701 1.610 . S
N703 C704 1.351 . S
C704 C698 1.428 . S
C704 N703 1.351 . S
C704 C705 1.434 . S
C705 C696 1.429 . S
C705 N702 1.350 . S
C705 C704 1.434 . S
C706 C707 1.369 . S
C706 C708 1.419 . S
C706 H710 0.930 . S
C707 C706 1.369 . S
C707 C716 1.429 . S
C708 C706 1.419 . S
C708 C709 1.363 . S
C708 H711 0.929 . S
C709 C708 1.363 . S
C709 C715 1.428 . S
H710 C706 0.930 . S
H711 C708 0.929 . S
S712 N713 1.613 . S
S712 N714 1.610 1_655 S
N713 S712 1.613 . S
N713 C716 1.350 1_655 S
N714 S712 1.610 1_455 S
N714 C715 1.351 . S
C715 C709 1.428 . S
C715 N714 1.351 . S
C715 C716 1.434 . S
C716 C707 1.429 . S
C716 N713 1.350 1_455 S
C716 C715 1.434 . S
C717 C718 1.369 . S
C717 C719 1.419 . S
C717 H721 0.930 . S
C718 C717 1.369 . S
C718 C727 1.429 . S
C719 C717 1.419 . S
C719 C720 1.363 . S
C719 H722 0.929 . S
C720 C719 1.363 . S
C720 C726 1.428 . S
H721 C717 0.930 . S
H722 C719 0.929 . S
S723 N724 1.613 . S
S723 N725 1.610 . S
N724 S723 1.613 . S
N724 C727 1.350 . S
N725 S723 1.610 . S
N725 C726 1.351 . S
C726 C720 1.428 . S
C726 N725 1.351 . S
C726 C727 1.434 . S
C727 C718 1.429 . S
C727 N724 1.350 . S
C727 C726 1.434 . S
C728 C729 1.369 . S
C728 C730 1.419 . S
C728 H732 0.930 . S
C729 C728 1.369 . S
C729 C738 1.429 . S
C730 C728 1.419 . S
C730 C731 1.363 . S
C730 H733 0.929 . S
C731 C730 1.363 . S
C731 C737 1.428 . S
H732 C728 0.930 . S
H733 C730 0.929 . S
S734 N735 1.613 . S
S734 N736 1.610 . S
N735 S734 1.613 . S
N735 C738 1.350 . S
N736 S734 1.610 . S
N736 C737 1.351 . S
C737 C731 1.428 . S
C737 N736 1.351 . S
C737 C738 1.434 . S
C738 C729 1.429 . S
C738 N735 1.350 . S
C738 C737 1.434 . S
C739 C740 1.369 . S
C739 C741 1.419 . S
C739 H743 0.930 . S
C740 C739 1.369 . S
C740 C749 1.429 . S
C741 C739 1.419 . S
C741 C742 1.363 . S
C741 H744 0.929 . S
C742 C741 1.363 . S
C742 C748 1.428 . S
H743 C739 0.930 . S
H744 C741 0.929 . S
S745 N746 1.613 . S
S745 N747 1.610 . S
N746 S745 1.613 . S
N746 C749 1.350 . S
N747 S745 1.610 . S
N747 C748 1.351 . S
C748 C742 1.428 . S
C748 N747 1.351 . S
C748 C749 1.434 . S
C749 C740 1.429 . S
C749 N746 1.350 . S
C749 C748 1.434 . S
C750 C751 1.369 . S
C750 C752 1.419 . S
C750 H754 0.930 . S
C751 C750 1.369 . S
C751 C760 1.429 . S
C752 C750 1.419 . S
C752 C753 1.363 . S
C752 H755 0.929 . S
C753 C752 1.363 . S
C753 C759 1.428 . S
H754 C750 0.930 . S
H755 C752 0.929 . S
S756 N757 1.613 . S
S756 N758 1.610 . S
N757 S756 1.613 . S
N757 C760 1.350 . S
N758 S756 1.610 . S
N758 C759 1.351 . S
C759 C753 1.428 . S
C759 N758 1.351 . S
C759 C760 1.434 . S
C760 C751 1.429 . S
C760 N757 1.350 . S
C760 C759 1.434 . S
C761 C762 1.369 . S
C761 C763 1.419 . S
C761 H765 0.930 . S
C762 C761 1.369 . S
C762 C771 1.429 . S
C763 C761 1.419 . S
C763 C764 1.363 . S
C763 H766 0.929 . S
C764 C763 1.363 . S
C764 C770 1.428 . S
H765 C761 0.930 . S
H766 C763 0.929 . S
S767 N768 1.613 . S
S767 N769 1.610 . S
N768 S767 1.613 . S
N768 C771 1.350 . S
N769 S767 1.610 . S
N769 C770 1.351 . S
C770 C764 1.428 . S
C770 N769 1.351 . S
C770 C771 1.434 . S
C771 C762 1.429 . S
C771 N768 1.350 . S
C771 C770 1.434 . S
C772 C773 1.369 . S
C772 C774 1.419 . S
C772 H776 0.930 . S
C773 C772 1.369 . S
C773 C782 1.429 . S
C774 C772 1.419 . S
C774 C775 1.363 . S
C774 H777 0.929 . S
C775 C774 1.363 . S
C775 C781 1.428 . S
H776 C772 0.930 . S
H777 C774 0.929 . S
S778 N779 1.613 . S
S778 N780 1.610 . S
N779 S778 1.613 . S
N779 C782 1.350 . S
N780 S778 1.610 . S
N780 C781 1.351 . S
C781 C775 1.428 . S
C781 N780 1.351 . S
C781 C782 1.434 . S
C782 C773 1.429 . S
C782 N779 1.350 . S
C782 C781 1.434 . S
C783 C784 1.369 . S
C783 C785 1.419 . S
C783 H787 0.930 . S
C784 C783 1.369 . S
C784 C793 1.429 . S
C785 C783 1.419 . S
C785 C786 1.363 . S
C785 H788 0.929 . S
C786 C785 1.363 . S
C786 C792 1.428 . S
H787 C783 0.930 . S
H788 C785 0.929 . S
S789 N790 1.613 . S
S789 N791 1.610 . S
N790 S789 1.613 . S
N790 C793 1.350 . S
N791 S789 1.610 . S
N791 C792 1.351 . S
C792 C786 1.428 . S
C792 N791 1.351 . S
C792 C793 1.434 . S
C793 C784 1.429 . S
C793 N790 1.350 . S
C793 C792 1.434 . S
C794 C795 1.369 . S
C794 C796 1.419 . S
C794 H798 0.930 . S
C795 C794 1.369 . S
C795 C804 1.429 . S
C796 C794 1.419 . S
C796 C797 1.363 . S
C796 H799 0.929 . S
C797 C796 1.363 . S
C797 C803 1.428 . S
H798 C794 0.930 . S
H799 C796 0.929 . S
S800 N801 1.613 1_655 S
S800 N802 1.610 . S
N801 S800 1.613 1_455 S
N801 C804 1.350 . S
N802 S800 1.610 . S
N802 C803 1.351 1_655 S
C803 C797 1.428 . S
C803 N802 1.351 1_455 S
C803 C804 1.434 . S
C804 C795 1.429 . S
C804 N801 1.350 . S
C804 C803 1.434 . S
C805 C806 1.369 . S
C805 C807 1.419 . S
C805 H809 0.930 . S
C806 C805 1.369 . S
C806 C815 1.429 . S
C807 C805 1.419 . S
C807 C808 1.363 . S
C807 H810 0.929 . S
C808 C807 1.363 . S
C808 C814 1.428 . S
H809 C805 0.930 . S
H810 C807 0.929 . S
S811 N812 1.613 . S
S811 N813 1.610 . S
N812 S811 1.613 . S
N812 C815 1.350 . S
N813 S811 1.610 . S
N813 C814 1.351 . S
C814 C808 1.428 . S
C814 N813 1.351 . S
C814 C815 1.434 . S
C815 C806 1.429 . S
C815 N812 1.350 . S
C815 C814 1.434 . S
C816 C817 1.369 . S
C816 C818 1.419 . S
C816 H820 0.930 1_455 S
C817 C816 1.369 . S
C817 C826 1.429 . S
C818 C816 1.419 . S
C818 C819 1.363 . S
C818 H821 0.929 . S
C819 C818 1.363 . S
C819 C825 1.428 . S
H820 C816 0.930 1_655 S
H821 C818 0.929 . S
S822 N823 1.613 . S
S822 N824 1.610 . S
N823 S822 1.613 . S
N823 C826 1.350 . S
N824 S822 1.610 . S
N824 C825 1.351 . S
C825 C819 1.428 . S
C825 N824 1.351 . S
C825 C826 1.434 . S
C826 C817 1.429 . S
C826 N823 1.350 . S
C826 C825 1.434 . S
C827 C828 1.369 . S
C827 C829 1.419 . S
C827 H831 0.930 . S
C828 C827 1.369 . S
C828 C837 1.429 . S
C829 C827 1.419 . S
C829 C830 1.363 . S
C829 H832 0.929 . S
C830 C829 1.363 . S
C830 C836 1.428 . S
H831 C827 0.930 . S
H832 C829 0.929 . S
S833 N834 1.613 . S
S833 N835 1.610 . S
N834 S833 1.613 . S
N834 C837 1.350 . S
N835 S833 1.610 . S
N835 C836 1.351 . S
C836 C830 1.428 . S
C836 N835 1.351 . S
C836 C837 1.434 . S
C837 C828 1.429 . S
C837 N834 1.350 . S
C837 C836 1.434 . S
C838 C839 1.369 . S
C838 C840 1.419 . S
C838 H842 0.930 . S
C839 C838 1.369 . S
C839 C848 1.429 . S
C840 C838 1.419 . S
C840 C841 1.363 . S
C840 H843 0.929 1_655 S
C841 C840 1.363 . S
C841 C847 1.428 . S
H842 C838 0.930 . S
H843 C840 0.929 1_455 S
S844 N845 1.613 . S
S844 N846 1.610 . S
N845 S844 1.613 . S
N845 C848 1.350 . S
N846 S844 1.610 . S
N846 C847 1.351 . S
C847 C841 1.428 . S
C847 N846 1.351 . S
C847 C848 1.434 . S
C848 C839 1.429 . S
C848 N845 1.350 . S
C848 C847 1.434 . S
C849 C850 1.369 . S
C849 C851 1.419 . S
C849 H853 0.930 . S
C850 C849 1.369 . S
C850 C859 1.429 . S
C851 C849 1.419 . S
C851 C852 1.363 . S
C851 H854 0.929 . S
C852 C851 1.363 . S
C852 C858 1.428 . S
H853 C849 0.930 . S
H854 C851 0.929 . S
S855 N856 1.613 . S
S855 N857 1.610 1_455 S
N856 S855 1.613 . S
N856 C859 1.350 1_455 S
N857 S855 1.610 1_655 S
N857 C858 1.351 . S
C858 C852 1.428 . S
C858 N857 1.351 . S
C858 C859 1.434 . S
C859 C850 1.429 . S
C859 N856 1.350 1_655 S
C859 C858 1.434 . S
C860 C861 1.369 1_545 S
C860 C862 1.419 . S
C860 H864 0.930 . S
C861 C860 1.369 1_565 S
C861 C870 1.429 . S
C862 C860 1.419 . S
C862 C863 1.363 1_545 S
C862 H865 0.929 . S
C863 C862 1.363 1_565 S
C863 C869 1.428 . S
H864 C860 0.930 . S
H865 C862 0.929 . S
S866 N867 1.613 . S
S866 N868 1.610 1_655 S
N867 S866 1.613 . S
N867 C870 1.350 1_655 S
N868 S866 1.610 1_455 S
N868 C869 1.351 . S
C869 C863 1.428 . S
C869 N868 1.351 . S
C869 C870 1.434 . S
C870 C861 1.429 . S
C870 N867 1.350 1_455 S
C870 C869 1.434 . S
C871 C872 1.369 . S
C871 C873 1.419 . S
C871 H875 0.930 . S
C872 C871 1.369 . S
C872 C881 1.429 . S
C873 C871 1.419 . S
C873 C874 1.363 . S
C873 H876 0.929 . S
C874 C873 1.363 . S
C874 C880 1.428 . S
H875 C871 0.930 . S
H876 C873 0.929 . S
S877 N878 1.613 1_655 S
S877 N879 1.610 . S
N878 S877 1.613 1_455 S
N878 C881 1.350 . S
N879 S877 1.610 . S
N879 C880 1.351 1_655 S
C880 C874 1.428 . S
C880 N879 1.351 1_455 S
C880 C881 1.434 . S
C881 C872 1.429 . S
C881 N878 1.350 . S
C881 C880 1.434 . S
C882 C883 1.369 . S
C882 C884 1.419 . S
C882 H886 0.930 1_655 S
C883 C882 1.369 . S
C883 C892 1.429 1_545 S
C884 C882 1.419 . S
C884 C885 1.363 . S
C884 H887 0.929 . S
C885 C884 1.363 . S
C885 C891 1.428 1_545 S
H886 C882 0.930 1_455 S
H887 C884 0.929 . S
S888 N889 1.613 . S
S888 N890 1.610 . S
N889 S888 1.613 . S
N889 C892 1.350 . S
N890 S888 1.610 . S
N890 C891 1.351 . S
C891 C885 1.428 1_565 S
C891 N890 1.351 . S
C891 C892 1.434 . S
C892 C883 1.429 1_565 S
C892 N889 1.350 . S
C892 C891 1.434 . S
C893 C894 1.369 . S
C893 C895 1.419 . S
C893 H897 0.930 . S
C894 C893 1.369 . S
C894 C903 1.429 . S
C895 C893 1.419 . S
C895 C896 1.363 . S
C895 H898 0.929 . S
C896 C895 1.363 . S
C896 C902 1.428 . S
H897 C893 0.930 . S
H898 C895 0.929 . S
S899 N900 1.613 . S
S899 N901 1.610 . S
N900 S899 1.613 . S
N900 C903 1.350 . S
N901 S899 1.610 . S
N901 C902 1.351 . S
C902 C896 1.428 . S
C902 N901 1.351 . S
C902 C903 1.434 . S
C903 C894 1.429 . S
C903 N900 1.350 . S
C903 C902 1.434 . S
C904 C905 1.369 . S
C904 C906 1.419 . S
C904 H908 0.930 . S
C905 C904 1.369 . S
C905 C914 1.429 . S
C906 C904 1.419 . S
C906 C907 1.363 . S
C906 H909 0.929 . S
C907 C906 1.363 . S
C907 C913 1.428 . S
H908 C904 0.930 . S
H909 C906 0.929 . S
S910 N911 1.613 . S
S910 N912 1.610 . S
N911 S910 1.613 . S
N911 C914 1.350 . S
N912 S910 1.610 . S
N912 C913 1.351 . S
C913 C907 1.428 . S
C913 N912 1.351 . S
C913 C914 1.434 . S
C914 C905 1.429 . S
C914 N911 1.350 . S
C914 C913 1.434 . S
C915 C916 1.369 . S
C915 C917 1.419 . S
C915 H919 0.930 . S
C916 C915 1.369 . S
C916 C925 1.429 . S
C917 C915 1.419 . S
C917 C918 1.363 . S
C917 H920 0.929 . S
C918 C917 1.363 . S
C918 C924 1.428 . S
H919 C915 0.930 . S
H920 C917 0.929 . S
S921 N922 1.613 . S
S921 N923 1.610 . S
N922 S921 1.613 . S
N922 C925 1.350 . S
N923 S921 1.610 . S
N923 C924 1.351 . S
C924 C918 1.428 . S
C924 N923 1.351 . S
C924 C925 1.434 . S
C925 C916 1.429 . S
C925 N922 1.350 . S
C925 C924 1.434 . S
C926 C927 1.369 . S
C926 C928 1.419 . S
C926 H930 0.930 . S
C927 C926 1.369 . S
C927 C936 1.429 . S
C928 C926 1.419 . S
C928 C929 1.363 . S
C928 H931 0.929 . S
C929 C928 1.363 . S
C929 C935 1.428 . S
H930 C926 0.930 . S
H931 C928 0.929 . S
S932 N933 1.613 . S
S932 N934 1.610 . S
N933 S932 1.613 . S
N933 C936 1.350 . S
N934 S932 1.610 . S
N934 C935 1.351 . S
C935 C929 1.428 . S
C935 N934 1.351 . S
C935 C936 1.434 . S
C936 C927 1.429 . S
C936 N933 1.350 . S
C936 C935 1.434 . S
C937 C938 1.369 . S
C937 C939 1.419 . S
C937 H941 0.930 . S
C938 C937 1.369 . S
C938 C947 1.429 . S
C939 C937 1.419 . S
C939 C940 1.363 . S
C939 H942 0.929 . S
C940 C939 1.363 . S
C940 C946 1.428 . S
H941 C937 0.930 . S
H942 C939 0.929 . S
S943 N944 1.613 . S
S943 N945 1.610 . S
N944 S943 1.613 . S
N944 C947 1.350 . S
N945 S943 1.610 . S
N945 C946 1.351 . S
C946 C940 1.428 . S
C946 N945 1.351 . S
C946 C947 1.434 . S
C947 C938 1.429 . S
C947 N944 1.350 . S
C947 C946 1.434 . S
C948 C949 1.369 . S
C948 C950 1.419 . S
C948 H952 0.930 . S
C949 C948 1.369 . S
C949 C958 1.429 1_565 S
C950 C948 1.419 . S
C950 C951 1.363 . S
C950 H953 0.929 . S
C951 C950 1.363 . S
C951 C957 1.428 1_565 S
H952 C948 0.930 . S
H953 C950 0.929 . S
S954 N955 1.613 . S
S954 N956 1.610 . S
N955 S954 1.613 . S
N955 C958 1.350 . S
N956 S954 1.610 . S
N956 C957 1.351 . S
C957 C951 1.428 1_545 S
C957 N956 1.351 . S
C957 C958 1.434 . S
C958 C949 1.429 1_545 S
C958 N955 1.350 . S
C958 C957 1.434 . S
C959 C960 1.369 . S
C959 C961 1.419 . S
C959 H963 0.930 . S
C960 C959 1.369 . S
C960 C969 1.429 . S
C961 C959 1.419 . S
C961 C962 1.363 . S
C961 H964 0.929 . S
C962 C961 1.363 . S
C962 C968 1.428 . S
H963 C959 0.930 . S
H964 C961 0.929 . S
S965 N966 1.613 . S
S965 N967 1.610 . S
N966 S965 1.613 . S
N966 C969 1.350 . S
N967 S965 1.610 . S
N967 C968 1.351 . S
C968 C962 1.428 . S
C968 N967 1.351 . S
C968 C969 1.434 . S
C969 C960 1.429 . S
C969 N966 1.350 . S
C969 C968 1.434 . S
C970 C971 1.369 . S
C970 C972 1.419 . S
C970 H974 0.930 . S
C971 C970 1.369 . S
C971 C980 1.429 1_545 S
C972 C970 1.419 . S
C972 C973 1.363 . S
C972 H975 0.929 . S
C973 C972 1.363 . S
C973 C979 1.428 1_545 S
H974 C970 0.930 . S
H975 C972 0.929 . S
S976 N977 1.613 . S
S976 N978 1.610 . S
N977 S976 1.613 . S
N977 C980 1.350 . S
N978 S976 1.610 . S
N978 C979 1.351 . S
C979 C973 1.428 1_565 S
C979 N978 1.351 . S
C979 C980 1.434 . S
C980 C971 1.429 1_565 S
C980 N977 1.350 . S
C980 C979 1.434 . S
C981 C982 1.369 . S
C981 C983 1.419 . S
C981 H985 0.930 . S
C982 C981 1.369 . S
C982 C991 1.429 . S
C983 C981 1.419 . S
C983 C984 1.363 . S
C983 H986 0.929 . S
C984 C983 1.363 . S
C984 C990 1.428 . S
H985 C981 0.930 . S
H986 C983 0.929 . S
S987 N988 1.613 . S
S987 N989 1.610 . S
N988 S987 1.613 . S
N988 C991 1.350 . S
N989 S987 1.610 . S
N989 C990 1.351 . S
C990 C984 1.428 . S
C990 N989 1.351 . S
C990 C991 1.434 . S
C991 C982 1.429 . S
C991 N988 1.350 . S
C991 C990 1.434 . S
C992 C993 1.369 . S
C992 C994 1.419 . S
C992 H996 0.930 . S
C993 C992 1.369 . S
C993 C1002 1.429 . S
C994 C992 1.419 . S
C994 C995 1.363 . S
C994 H997 0.929 . S
C995 C994 1.363 . S
C995 C1001 1.428 . S
H996 C992 0.930 . S
H997 C994 0.929 . S
S998 N999 1.613 . S
S998 N1000 1.610 . S
N999 S998 1.613 . S
N999 C1002 1.350 . S
N1000 S998 1.610 . S
N1000 C1001 1.351 . S
C1001 C995 1.428 . S
C1001 N1000 1.351 . S
C1001 C1002 1.434 . S
C1002 C993 1.429 . S
C1002 N999 1.350 . S
C1002 C1001 1.434 . S
C1003 C1004 1.369 . S
C1003 C1005 1.419 . S
C1003 H1007 0.930 . S
C1004 C1003 1.369 . S
C1004 C1013 1.429 . S
C1005 C1003 1.419 . S
C1005 C1006 1.363 . S
C1005 H1008 0.929 . S
C1006 C1005 1.363 . S
C1006 C1012 1.428 . S
H1007 C1003 0.930 . S
H1008 C1005 0.929 . S
S1009 N1010 1.613 . S
S1009 N1011 1.610 . S
N1010 S1009 1.613 . S
N1010 C1013 1.350 . S
N1011 S1009 1.610 . S
N1011 C1012 1.351 . S
C1012 C1006 1.428 . S
C1012 N1011 1.351 . S
C1012 C1013 1.434 . S
C1013 C1004 1.429 . S
C1013 N1010 1.350 . S
C1013 C1012 1.434 . S
C1014 C1015 1.369 . S
C1014 C1016 1.419 . S
C1014 H1018 0.930 . S
C1015 C1014 1.369 . S
C1015 C1024 1.429 . S
C1016 C1014 1.419 . S
C1016 C1017 1.363 . S
C1016 H1019 0.929 . S
C1017 C1016 1.363 . S
C1017 C1023 1.428 . S
H1018 C1014 0.930 . S
H1019 C1016 0.929 . S
S1020 N1021 1.613 . S
S1020 N1022 1.610 . S
N1021 S1020 1.613 . S
N1021 C1024 1.350 . S
N1022 S1020 1.610 . S
N1022 C1023 1.351 . S
C1023 C1017 1.428 . S
C1023 N1022 1.351 . S
C1023 C1024 1.434 . S
C1024 C1015 1.429 . S
C1024 N1021 1.350 . S
C1024 C1023 1.434 . S
C1025 C1026 1.369 . S
C1025 C1027 1.419 . S
C1025 H1029 0.930 1_655 S
C1026 C1025 1.369 . S
C1026 C1035 1.429 . S
C1027 C1025 1.419 . S
C1027 C1028 1.363 . S
C1027 H1030 0.929 1_655 S
C1028 C1027 1.363 . S
C1028 C1034 1.428 . S
H1029 C1025 0.930 1_455 S
H1030 C1027 0.929 1_455 S
S1031 N1032 1.613 . S
S1031 N1033 1.610 . S
N1032 S1031 1.613 . S
N1032 C1035 1.350 . S
N1033 S1031 1.610 . S
N1033 C1034 1.351 . S
C1034 C1028 1.428 . S
C1034 N1033 1.351 . S
C1034 C1035 1.434 . S
C1035 C1026 1.429 . S
C1035 N1032 1.350 . S
C1035 C1034 1.434 . S
C1036 C1037 1.369 . S
C1036 C1038 1.419 . S
C1036 H1040 0.930 . S
C1037 C1036 1.369 . S
C1037 C1046 1.429 . S
C1038 C1036 1.419 . S
C1038 C1039 1.363 . S
C1038 H1041 0.929 . S
C1039 C1038 1.363 . S
C1039 C1045 1.428 . S
H1040 C1036 0.930 . S
H1041 C1038 0.929 . S
S1042 N1043 1.613 1_655 S
S1042 N1044 1.610 1_655 S
N1043 S1042 1.613 1_455 S
N1043 C1046 1.350 . S
N1044 S1042 1.610 1_455 S
N1044 C1045 1.351 . S
C1045 C1039 1.428 . S
C1045 N1044 1.351 . S
C1045 C1046 1.434 . S
C1046 C1037 1.429 . S
C1046 N1043 1.350 . S
C1046 C1045 1.434 . S
C1047 C1048 1.369 . S
C1047 C1049 1.419 . S
C1047 H1051 0.923 1_455 S
C1048 C1047 1.369 . S
C1048 C1057 1.429 . S
C1049 C1047 1.419 . S
C1049 C1050 1.363 . S
C1049 H1052 0.929 1_455 S
C1050 C1049 1.363 . S
C1050 C1056 1.428 . S
H1051 C1047 0.923 1_655 S
H1052 C1049 0.929 1_655 S
S1053 N1054 1.613 . S
S1053 N1055 1.610 . S
N1054 S1053 1.613 . S
N1054 C1057 1.350 . S
N1055 S1053 1.610 . S
N1055 C1056 1.351 . S
C1056 C1050 1.428 . S
C1056 N1055 1.351 . S
C1056 C1057 1.434 . S
C1057 C1048 1.429 . S
C1057 N1054 1.350 . S
C1057 C1056 1.434 . S
C1058 C1059 1.369 . S
C1058 C1060 1.419 . S
C1058 H1062 0.930 . S
C1059 C1058 1.369 . S
C1059 C1068 1.429 . S
C1060 C1058 1.419 . S
C1060 C1061 1.363 . S
C1060 H1063 0.929 . S
C1061 C1060 1.363 . S
C1061 C1067 1.428 . S
H1062 C1058 0.930 . S
H1063 C1060 0.929 . S
S1064 N1065 1.613 . S
S1064 N1066 1.610 . S
N1065 S1064 1.613 . S
N1065 C1068 1.350 1_455 S
N1066 S1064 1.610 . S
N1066 C1067 1.351 1_455 S
C1067 C1061 1.428 . S
C1067 N1066 1.351 1_655 S
C1067 C1068 1.434 . S
C1068 C1059 1.429 . S
C1068 N1065 1.350 1_655 S
C1068 C1067 1.434 . S
C1069 C1070 1.369 . S
C1069 C1071 1.419 . S
C1069 H1073 0.930 . S
C1070 C1069 1.369 . S
C1070 C1079 1.429 . S
C1071 C1069 1.419 . S
C1071 C1072 1.363 . S
C1071 H1074 0.929 . S
C1072 C1071 1.363 . S
C1072 C1078 1.428 . S
H1073 C1069 0.930 . S
H1074 C1071 0.929 . S
S1075 N1076 1.613 . S
S1075 N1077 1.610 . S
N1076 S1075 1.613 . S
N1076 C1079 1.350 . S
N1077 S1075 1.610 . S
N1077 C1078 1.351 . S
C1078 C1072 1.428 . S
C1078 N1077 1.351 . S
C1078 C1079 1.434 . S
C1079 C1070 1.429 . S
C1079 N1076 1.350 . S
C1079 C1078 1.434 . S
C1080 C1081 1.369 . S
C1080 C1082 1.419 . S
C1080 H1084 0.930 . S
C1081 C1080 1.369 . S
C1081 C1090 1.429 . S
C1082 C1080 1.419 . S
C1082 C1083 1.363 . S
C1082 H1085 0.929 . S
C1083 C1082 1.363 . S
C1083 C1089 1.428 . S
H1084 C1080 0.930 . S
H1085 C1082 0.929 . S
S1086 N1087 1.613 . S
S1086 N1088 1.610 . S
N1087 S1086 1.613 . S
N1087 C1090 1.350 . S
N1088 S1086 1.610 . S
N1088 C1089 1.351 . S
C1089 C1083 1.428 . S
C1089 N1088 1.351 . S
C1089 C1090 1.434 . S
C1090 C1081 1.429 . S
C1090 N1087 1.350 . S
C1090 C1089 1.434 . S
C1091 C1092 1.369 . S
C1091 C1093 1.419 . S
C1091 H1095 0.930 . S
C1092 C1091 1.369 . S
C1092 C1101 1.429 . S
C1093 C1091 1.419 . S
C1093 C1094 1.363 . S
C1093 H1096 0.929 . S
C1094 C1093 1.363 . S
C1094 C1100 1.428 . S
H1095 C1091 0.930 . S
H1096 C1093 0.929 . S
S1097 N1098 1.613 . S
S1097 N1099 1.610 . S
N1098 S1097 1.613 . S
N1098 C1101 1.350 . S
N1099 S1097 1.610 . S
N1099 C1100 1.351 . S
C1100 C1094 1.428 . S
C1100 N1099 1.351 . S
C1100 C1101 1.434 . S
C1101 C1092 1.429 . S
C1101 N1098 1.350 . S
C1101 C1100 1.434 . S
C1102 C1103 1.369 . S
C1102 C1104 1.419 . S
C1102 H1106 0.930 . S
C1103 C1102 1.369 . S
C1103 C1112 1.429 . S
C1104 C1102 1.419 . S
C1104 C1105 1.363 . S
C1104 H1107 0.929 . S
C1105 C1104 1.363 . S
C1105 C1111 1.428 . S
H1106 C1102 0.930 . S
H1107 C1104 0.929 . S
S1108 N1109 1.613 . S
S1108 N1110 1.610 . S
N1109 S1108 1.613 . S
N1109 C1112 1.350 . S
N1110 S1108 1.610 . S
N1110 C1111 1.351 . S
C1111 C1105 1.428 . S
C1111 N1110 1.351 . S
C1111 C1112 1.434 . S
C1112 C1103 1.429 . S
C1112 N1109 1.350 . S
C1112 C1111 1.434 . S
C1113 C1114 1.369 . S
C1113 C1115 1.419 . S
C1113 H1117 0.930 . S
C1114 C1113 1.369 . S
C1114 C1123 1.429 . S
C1115 C1113 1.419 . S
C1115 C1116 1.363 . S
C1115 H1118 0.929 . S
C1116 C1115 1.363 . S
C1116 C1122 1.428 . S
H1117 C1113 0.930 . S
H1118 C1115 0.929 . S
S1119 N1120 1.613 . S
S1119 N1121 1.610 . S
N1120 S1119 1.613 . S
N1120 C1123 1.350 . S
N1121 S1119 1.610 . S
N1121 C1122 1.351 . S
C1122 C1116 1.428 . S
C1122 N1121 1.351 . S
C1122 C1123 1.434 . S
C1123 C1114 1.429 . S
C1123 N1120 1.350 . S
C1123 C1122 1.434 . S
C1124 C1125 1.369 . S
C1124 C1126 1.419 . S
C1124 H1128 0.930 . S
C1125 C1124 1.369 . S
C1125 C1134 1.429 . S
C1126 C1124 1.419 . S
C1126 C1127 1.363 . S
C1126 H1129 0.929 . S
C1127 C1126 1.363 . S
C1127 C1133 1.428 . S
H1128 C1124 0.930 . S
H1129 C1126 0.929 . S
S1130 N1131 1.613 . S
S1130 N1132 1.610 . S
N1131 S1130 1.613 . S
N1131 C1134 1.350 . S
N1132 S1130 1.610 . S
N1132 C1133 1.351 . S
C1133 C1127 1.428 . S
C1133 N1132 1.351 . S
C1133 C1134 1.434 . S
C1134 C1125 1.429 . S
C1134 N1131 1.350 . S
C1134 C1133 1.434 . S
C1135 C1136 1.369 . S
C1135 C1137 1.419 . S
C1135 H1139 0.930 . S
C1136 C1135 1.369 . S
C1136 C1145 1.429 . S
C1137 C1135 1.419 . S
C1137 C1138 1.363 . S
C1137 H1140 0.929 . S
C1138 C1137 1.363 . S
C1138 C1144 1.428 . S
H1139 C1135 0.930 . S
H1140 C1137 0.929 . S
S1141 N1142 1.613 . S
S1141 N1143 1.610 . S
N1142 S1141 1.613 . S
N1142 C1145 1.350 . S
N1143 S1141 1.610 . S
N1143 C1144 1.351 . S
C1144 C1138 1.428 . S
C1144 N1143 1.351 . S
C1144 C1145 1.434 . S
C1145 C1136 1.429 . S
C1145 N1142 1.350 . S
C1145 C1144 1.434 . S
C1146 C1147 1.369 . S
C1146 C1148 1.419 . S
C1146 H1150 0.930 . S
C1147 C1146 1.369 . S
C1147 C1156 1.429 . S
C1148 C1146 1.419 . S
C1148 C1149 1.363 . S
C1148 H1151 0.929 . S
C1149 C1148 1.363 . S
C1149 C1155 1.428 . S
H1150 C1146 0.930 . S
H1151 C1148 0.929 . S
S1152 N1153 1.613 . S
S1152 N1154 1.610 . S
N1153 S1152 1.613 . S
N1153 C1156 1.350 . S
N1154 S1152 1.610 . S
N1154 C1155 1.351 . S
C1155 C1149 1.428 . S
C1155 N1154 1.351 . S
C1155 C1156 1.434 . S
C1156 C1147 1.429 . S
C1156 N1153 1.350 . S
C1156 C1155 1.434 . S
C1157 C1158 1.369 . S
C1157 C1159 1.419 . S
C1157 H1161 0.930 . S
C1158 C1157 1.369 . S
C1158 C1167 1.429 . S
C1159 C1157 1.419 . S
C1159 C1160 1.363 . S
C1159 H1162 0.929 . S
C1160 C1159 1.363 . S
C1160 C1166 1.428 . S
H1161 C1157 0.930 . S
H1162 C1159 0.929 . S
S1163 N1164 1.613 . S
S1163 N1165 1.610 . S
N1164 S1163 1.613 . S
N1164 C1167 1.350 . S
N1165 S1163 1.610 . S
N1165 C1166 1.351 . S
C1166 C1160 1.428 . S
C1166 N1165 1.351 . S
C1166 C1167 1.434 . S
C1167 C1158 1.429 . S
C1167 N1164 1.350 . S
C1167 C1166 1.434 . S
C1168 C1169 1.369 . S
C1168 C1170 1.419 . S
C1168 H1172 0.930 . S
C1169 C1168 1.369 . S
C1169 C1178 1.429 . S
C1170 C1168 1.419 . S
C1170 C1171 1.363 . S
C1170 H1173 0.929 . S
C1171 C1170 1.363 . S
C1171 C1177 1.428 . S
H1172 C1168 0.930 . S
H1173 C1170 0.929 . S
S1174 N1175 1.613 . S
S1174 N1176 1.610 . S
N1175 S1174 1.613 . S
N1175 C1178 1.350 . S
N1176 S1174 1.610 . S
N1176 C1177 1.351 . S
C1177 C1171 1.428 . S
C1177 N1176 1.351 . S
C1177 C1178 1.434 . S
C1178 C1169 1.429 . S
C1178 N1175 1.350 . S
C1178 C1177 1.434 . S
C1179 C1180 1.369 . S
C1179 C1181 1.419 . S
C1179 H1183 0.930 . S
C1180 C1179 1.369 . S
C1180 C1189 1.429 . S
C1181 C1179 1.419 . S
C1181 C1182 1.363 . S
C1181 H1184 0.929 . S
C1182 C1181 1.363 . S
C1182 C1188 1.428 . S
H1183 C1179 0.930 . S
H1184 C1181 0.929 . S
S1185 N1186 1.613 . S
S1185 N1187 1.610 . S
N1186 S1185 1.613 . S
N1186 C1189 1.350 . S
N1187 S1185 1.610 . S
N1187 C1188 1.351 . S
C1188 C1182 1.428 . S
C1188 N1187 1.351 . S
C1188 C1189 1.434 . S
C1189 C1180 1.429 . S
C1189 N1186 1.350 . S
C1189 C1188 1.434 . S
C1190 C1191 1.369 . S
C1190 C1192 1.419 . S
C1190 H1194 0.930 . S
C1191 C1190 1.369 . S
C1191 C1200 1.429 . S
C1192 C1190 1.419 . S
C1192 C1193 1.363 . S
C1192 H1195 0.929 . S
C1193 C1192 1.363 . S
C1193 C1199 1.428 . S
H1194 C1190 0.930 . S
H1195 C1192 0.929 . S
S1196 N1197 1.613 . S
S1196 N1198 1.610 . S
N1197 S1196 1.613 . S
N1197 C1200 1.350 . S
N1198 S1196 1.610 . S
N1198 C1199 1.351 . S
C1199 C1193 1.428 . S
C1199 N1198 1.351 . S
C1199 C1200 1.434 . S
C1200 C1191 1.429 . S
C1200 N1197 1.350 . S
C1200 C1199 1.434 . S
C1201 C1202 1.369 . S
C1201 C1203 1.419 . S
C1201 H1205 0.930 . S
C1202 C1201 1.369 . S
C1202 C1211 1.429 . S
C1203 C1201 1.419 . S
C1203 C1204 1.363 . S
C1203 H1206 0.929 . S
C1204 C1203 1.363 . S
C1204 C1210 1.428 . S
H1205 C1201 0.930 . S
H1206 C1203 0.929 . S
S1207 N1208 1.613 . S
S1207 N1209 1.610 . S
N1208 S1207 1.613 . S
N1208 C1211 1.350 . S
N1209 S1207 1.610 . S
N1209 C1210 1.351 . S
C1210 C1204 1.428 . S
C1210 N1209 1.351 . S
C1210 C1211 1.434 . S
C1211 C1202 1.429 . S
C1211 N1208 1.350 . S
C1211 C1210 1.434 . S
C1212 C1213 1.369 . S
C1212 C1214 1.419 . S
C1212 H1216 0.930 . S
C1213 C1212 1.369 . S
C1213 C1222 1.429 . S
C1214 C1212 1.419 . S
C1214 C1215 1.363 . S
C1214 H1217 0.929 . S
C1215 C1214 1.363 . S
C1215 C1221 1.428 . S
H1216 C1212 0.930 . S
H1217 C1214 0.929 . S
S1218 N1219 1.613 . S
S1218 N1220 1.610 . S
N1219 S1218 1.613 . S
N1219 C1222 1.350 . S
N1220 S1218 1.610 . S
N1220 C1221 1.351 . S
C1221 C1215 1.428 . S
C1221 N1220 1.351 . S
C1221 C1222 1.434 . S
C1222 C1213 1.429 . S
C1222 N1219 1.350 . S
C1222 C1221 1.434 . S
C1223 C1224 1.369 . S
C1223 C1225 1.419 . S
C1223 H1227 0.930 . S
C1224 C1223 1.369 . S
C1224 C1233 1.429 . S
C1225 C1223 1.419 . S
C1225 C1226 1.363 . S
C1225 H1228 0.929 . S
C1226 C1225 1.363 . S
C1226 C1232 1.428 . S
H1227 C1223 0.930 . S
H1228 C1225 0.929 . S
S1229 N1230 1.613 . S
S1229 N1231 1.610 . S
N1230 S1229 1.613 . S
N1230 C1233 1.350 . S
N1231 S1229 1.610 . S
N1231 C1232 1.351 . S
C1232 C1226 1.428 . S
C1232 N1231 1.351 . S
C1232 C1233 1.434 . S
C1233 C1224 1.429 . S
C1233 N1230 1.350 . S
C1233 C1232 1.434 . S
C1234 C1235 1.369 . S
C1234 C1236 1.419 . S
C1234 H1238 0.930 . S
C1235 C1234 1.369 . S
C1235 C1244 1.429 . S
C1236 C1234 1.419 . S
C1236 C1237 1.363 . S
C1236 H1239 0.929 . S
C1237 C1236 1.363 . S
C1237 C1243 1.428 . S
H1238 C1234 0.930 . S
H1239 C1236 0.929 . S
S1240 N1241 1.613 . S
S1240 N1242 1.610 . S
N1241 S1240 1.613 . S
N1241 C1244 1.350 . S
N1242 S1240 1.610 . S
N1242 C1243 1.351 . S
C1243 C1237 1.428 . S
C1243 N1242 1.351 . S
C1243 C1244 1.434 . S
C1244 C1235 1.429 . S
C1244 N1241 1.350 . S
C1244 C1243 1.434 . S
C1245 C1246 1.369 . S
C1245 C1247 1.419 . S
C1245 H1249 0.930 . S
C1246 C1245 1.369 . S
C1246 C1255 1.429 . S
C1247 C1245 1.419 . S
C1247 C1248 1.363 . S
C1247 H1250 0.929 . S
C1248 C1247 1.363 . S
C1248 C1254 1.428 . S
H1249 C1245 0.930 . S
H1250 C1247 0.929 . S
S1251 N1252 1.613 . S
S1251 N1253 1.610 . S
N1252 S1251 1.613 . S
N1252 C1255 1.350 . S
N1253 S1251 1.610 . S
N1253 C1254 1.351 . S
C1254 C1248 1.428 . S
C1254 N1253 1.351 . S
C1254 C1255 1.434 . S
C1255 C1246 1.429 . S
C1255 N1252 1.350 . S
C1255 C1254 1.434 . S
C1256 C1257 1.369 1_565 S
C1256 C1258 1.419 . S
C1256 H1260 0.930 . S
C1257 C1256 1.369 1_545 S
C1257 C1266 1.429 . S
C1258 C1256 1.419 . S
C1258 C1259 1.363 . S
C1258 H1261 0.929 . S
C1259 C1258 1.363 . S
C1259 C1265 1.428 1_565 S
H1260 C1256 0.930 . S
H1261 C1258 0.929 . S
S1262 N1263 1.613 . S
S1262 N1264 1.610 . S
N1263 S1262 1.613 . S
N1263 C1266 1.350 . S
N1264 S1262 1.610 . S
N1264 C1265 1.351 . S
C1265 C1259 1.428 1_545 S
C1265 N1264 1.351 . S
C1265 C1266 1.434 . S
C1266 C1257 1.429 . S
C1266 N1263 1.350 . S
C1266 C1265 1.434 . S
C1267 C1268 1.369 . S
C1267 C1269 1.419 . S
C1267 H1271 0.930 . S
C1268 C1267 1.369 . S
C1268 C1277 1.429 . S
C1269 C1267 1.419 . S
C1269 C1270 1.363 . S
C1269 H1272 0.929 . S
C1270 C1269 1.363 . S
C1270 C1276 1.428 . S
H1271 C1267 0.930 . S
H1272 C1269 0.929 . S
S1273 N1274 1.613 . S
S1273 N1275 1.610 . S
N1274 S1273 1.613 . S
N1274 C1277 1.350 . S
N1275 S1273 1.610 . S
N1275 C1276 1.351 . S
C1276 C1270 1.428 . S
C1276 N1275 1.351 . S
C1276 C1277 1.434 . S
C1277 C1268 1.429 . S
C1277 N1274 1.350 . S
C1277 C1276 1.434 . S
C1278 C1279 1.369 . S
C1278 C1280 1.419 . S
C1278 H1282 0.930 . S
C1279 C1278 1.369 . S
C1279 C1288 1.429 . S
C1280 C1278 1.419 . S
C1280 C1281 1.363 . S
C1280 H1283 0.929 . S
C1281 C1280 1.363 . S
C1281 C1287 1.428 . S
H1282 C1278 0.930 . S
H1283 C1280 0.929 . S
S1284 N1285 1.613 . S
S1284 N1286 1.610 . S
N1285 S1284 1.613 . S
N1285 C1288 1.350 . S
N1286 S1284 1.610 . S
N1286 C1287 1.351 . S
C1287 C1281 1.428 . S
C1287 N1286 1.351 . S
C1287 C1288 1.434 . S
C1288 C1279 1.429 . S
C1288 N1285 1.350 . S
C1288 C1287 1.434 . S
C1289 C1290 1.371 . S
C1289 C1291 1.416 1_545 S
C1289 H1293 0.931 . S
C1290 C1289 1.371 . S
C1290 C1299 1.429 . S
C1291 C1289 1.416 1_565 S
C1291 C1292 1.363 . S
C1291 H1294 0.929 . S
C1292 C1291 1.363 . S
C1292 C1298 1.428 . S
H1293 C1289 0.931 . S
H1294 C1291 0.929 . S
S1295 N1296 1.613 . S
S1295 N1297 1.610 1_545 S
N1296 S1295 1.613 . S
N1296 C1299 1.350 . S
N1297 S1295 1.610 1_565 S
N1297 C1298 1.351 . S
C1298 C1292 1.428 . S
C1298 N1297 1.351 . S
C1298 C1299 1.434 1_565 S
C1299 C1290 1.429 . S
C1299 N1296 1.350 . S
C1299 C1298 1.434 1_545 S
C1300 C1301 1.369 1_545 S
C1300 C1302 1.419 . S
C1300 H1304 0.930 . S
C1301 C1300 1.369 1_565 S
C1301 C1310 1.429 . S
C1302 C1300 1.419 . S
C1302 C1303 1.363 . S
C1302 H1305 0.929 . S
C1303 C1302 1.363 . S
C1303 C1309 1.419 1_545 S
H1304 C1300 0.930 . S
H1305 C1302 0.929 . S
S1306 N1307 1.613 . S
S1306 N1308 1.610 . S
N1307 S1306 1.613 . S
N1307 C1310 1.350 . S
N1308 S1306 1.610 . S
N1308 C1309 1.355 . S
C1309 C1303 1.419 1_565 S
C1309 N1308 1.355 . S
C1309 C1310 1.441 . S
C1310 C1301 1.429 . S
C1310 N1307 1.350 . S
C1310 C1309 1.441 . S
C1311 C1312 1.369 . S
C1311 C1313 1.419 . S
C1311 H1315 0.930 . S
C1312 C1311 1.369 . S
C1312 C1321 1.429 . S
C1313 C1311 1.419 . S
C1313 C1314 1.363 . S
C1313 H1316 0.929 . S
C1314 C1313 1.363 . S
C1314 C1320 1.428 . S
H1315 C1311 0.930 . S
H1316 C1313 0.929 . S
S1317 N1318 1.613 . S
S1317 N1319 1.610 . S
N1318 S1317 1.613 . S
N1318 C1321 1.350 . S
N1319 S1317 1.610 . S
N1319 C1320 1.351 . S
C1320 C1314 1.428 . S
C1320 N1319 1.351 . S
C1320 C1321 1.434 . S
C1321 C1312 1.429 . S
C1321 N1318 1.350 . S
C1321 C1320 1.434 . S
C1322 C1323 1.369 . S
C1322 C1324 1.419 . S
C1322 H1326 0.930 . S
C1323 C1322 1.369 . S
C1323 C1332 1.429 . S
C1324 C1322 1.419 . S
C1324 C1325 1.363 . S
C1324 H1327 0.929 . S
C1325 C1324 1.363 . S
C1325 C1331 1.428 . S
H1326 C1322 0.930 . S
H1327 C1324 0.929 . S
S1328 N1329 1.613 . S
S1328 N1330 1.610 . S
N1329 S1328 1.613 . S
N1329 C1332 1.350 . S
N1330 S1328 1.610 . S
N1330 C1331 1.351 . S
C1331 C1325 1.428 . S
C1331 N1330 1.351 . S
C1331 C1332 1.434 . S
C1332 C1323 1.429 . S
C1332 N1329 1.350 . S
C1332 C1331 1.434 . S
C1333 C1334 1.369 . S
C1333 C1335 1.419 . S
C1333 H1337 0.930 . S
C1334 C1333 1.369 . S
C1334 C1343 1.429 1_565 S
C1335 C1333 1.419 . S
C1335 C1336 1.363 1_565 S
C1335 H1338 0.929 . S
C1336 C1335 1.363 1_545 S
C1336 C1342 1.428 . S
H1337 C1333 0.930 . S
H1338 C1335 0.929 . S
S1339 N1340 1.613 . S
S1339 N1341 1.610 . S
N1340 S1339 1.613 . S
N1340 C1343 1.350 . S
N1341 S1339 1.610 . S
N1341 C1342 1.351 . S
C1342 C1336 1.428 . S
C1342 N1341 1.351 . S
C1342 C1343 1.434 . S
C1343 C1334 1.429 1_545 S
C1343 N1340 1.350 . S
C1343 C1342 1.434 . S
C1344 C1345 1.369 . S
C1344 C1346 1.419 1_455 S
C1344 H1348 0.930 . S
C1345 C1344 1.369 . S
C1345 C1354 1.429 . S
C1346 C1344 1.419 1_655 S
C1346 C1347 1.363 . S
C1346 H1349 0.929 . S
C1347 C1346 1.363 . S
C1347 C1353 1.428 1_655 S
H1348 C1344 0.930 . S
H1349 C1346 0.929 . S
S1350 N1351 1.613 . S
S1350 N1352 1.610 1_455 S
N1351 S1350 1.613 . S
N1351 C1354 1.350 . S
N1352 S1350 1.610 1_655 S
N1352 C1353 1.351 1_655 S
C1353 C1347 1.428 1_455 S
C1353 N1352 1.351 1_455 S
C1353 C1354 1.434 . S
C1354 C1345 1.429 . S
C1354 N1351 1.350 . S
C1354 C1353 1.434 . S
C1355 C1356 1.369 . S
C1355 C1357 1.419 . S
C1355 H1359 0.930 . S
C1356 C1355 1.369 . S
C1356 C1365 1.429 . S
C1357 C1355 1.419 . S
C1357 C1358 1.363 . S
C1357 H1360 0.929 . S
C1358 C1357 1.363 . S
C1358 C1364 1.428 . S
H1359 C1355 0.930 . S
H1360 C1357 0.929 . S
S1361 N1362 1.613 . S
S1361 N1363 1.610 . S
N1362 S1361 1.613 . S
N1362 C1365 1.350 . S
N1363 S1361 1.610 . S
N1363 C1364 1.351 . S
C1364 C1358 1.428 . S
C1364 N1363 1.351 . S
C1364 C1365 1.434 . S
C1365 C1356 1.429 . S
C1365 N1362 1.350 . S
C1365 C1364 1.434 . S
C1366 C1367 1.369 . S
C1366 C1368 1.419 1_655 S
C1366 H1370 0.930 . S
C1367 C1366 1.369 . S
C1367 C1376 1.429 . S
C1368 C1366 1.419 1_455 S
C1368 C1369 1.363 . S
C1368 H1371 0.929 . S
C1369 C1368 1.363 . S
C1369 C1375 1.428 . S
H1370 C1366 0.930 . S
H1371 C1368 0.929 . S
S1372 N1373 1.613 . S
S1372 N1374 1.610 1_655 S
N1373 S1372 1.613 . S
N1373 C1376 1.350 . S
N1374 S1372 1.610 1_455 S
N1374 C1375 1.351 . S
C1375 C1369 1.428 . S
C1375 N1374 1.351 . S
C1375 C1376 1.434 1_455 S
C1376 C1367 1.429 . S
C1376 N1373 1.350 . S
C1376 C1375 1.434 1_655 S
C1377 C1378 1.369 . S
C1377 C1379 1.419 . S
C1377 H1381 0.930 . S
C1378 C1377 1.369 . S
C1378 C1387 1.429 . S
C1379 C1377 1.419 . S
C1379 C1380 1.363 . S
C1379 H1382 0.929 . S
C1380 C1379 1.363 . S
C1380 C1386 1.428 . S
H1381 C1377 0.930 . S
H1382 C1379 0.929 . S
S1383 N1384 1.613 . S
S1383 N1385 1.610 . S
N1384 S1383 1.613 . S
N1384 C1387 1.350 . S
N1385 S1383 1.610 . S
N1385 C1386 1.351 . S
C1386 C1380 1.428 . S
C1386 N1385 1.351 . S
C1386 C1387 1.434 . S
C1387 C1378 1.429 . S
C1387 N1384 1.350 . S
C1387 C1386 1.434 . S
C1388 C1389 1.369 . S
C1388 C1390 1.419 . S
C1388 H1392 0.930 . S
C1389 C1388 1.369 . S
C1389 C1398 1.429 . S
C1390 C1388 1.419 . S
C1390 C1391 1.363 1_655 S
C1390 H1393 0.929 1_655 S
C1391 C1390 1.363 1_455 S
C1391 C1397 1.428 . S
H1392 C1388 0.930 . S
H1393 C1390 0.929 1_455 S
S1394 N1395 1.613 1_455 S
S1394 N1396 1.610 . S
N1395 S1394 1.613 1_655 S
N1395 C1398 1.350 . S
N1396 S1394 1.610 . S
N1396 C1397 1.351 . S
C1397 C1391 1.428 . S
C1397 N1396 1.351 . S
C1397 C1398 1.434 1_455 S
C1398 C1389 1.429 . S
C1398 N1395 1.350 . S
C1398 C1397 1.434 1_655 S
C1399 C1400 1.369 . S
C1399 C1401 1.419 . S
C1399 H1403 0.930 . S
C1400 C1399 1.369 . S
C1400 C1409 1.429 . S
C1401 C1399 1.419 . S
C1401 C1402 1.363 . S
C1401 H1404 0.929 . S
C1402 C1401 1.363 . S
C1402 C1408 1.428 . S
H1403 C1399 0.930 . S
H1404 C1401 0.929 . S
S1405 N1406 1.613 . S
S1405 N1407 1.610 . S
N1406 S1405 1.613 . S
N1406 C1409 1.350 . S
N1407 S1405 1.610 . S
N1407 C1408 1.351 . S
C1408 C1402 1.428 . S
C1408 N1407 1.351 . S
C1408 C1409 1.434 . S
C1409 C1400 1.429 . S
C1409 N1406 1.350 . S
C1409 C1408 1.434 . S
C1410 C1411 1.369 . S
C1410 C1412 1.419 1_455 S
C1410 H1414 0.930 . S
C1411 C1410 1.369 . S
C1411 C1420 1.429 . S
C1412 C1410 1.419 1_655 S
C1412 C1413 1.363 . S
C1412 H1415 0.929 . S
C1413 C1412 1.363 . S
C1413 C1419 1.428 . S
H1414 C1410 0.930 . S
H1415 C1412 0.929 . S
S1416 N1417 1.613 1_655 S
S1416 N1418 1.610 . S
N1417 S1416 1.613 1_455 S
N1417 C1420 1.350 . S
N1418 S1416 1.610 . S
N1418 C1419 1.351 . S
C1419 C1413 1.428 . S
C1419 N1418 1.351 . S
C1419 C1420 1.434 1_655 S
C1420 C1411 1.429 . S
C1420 N1417 1.350 . S
C1420 C1419 1.434 1_455 S
C1421 C1422 1.369 . S
C1421 C1423 1.419 . S
C1421 H1425 0.930 . S
C1422 C1421 1.369 . S
C1422 C1431 1.429 . S
C1423 C1421 1.419 . S
C1423 C1424 1.363 . S
C1423 H1426 0.929 . S
C1424 C1423 1.363 . S
C1424 C1430 1.428 . S
H1425 C1421 0.930 . S
H1426 C1423 0.929 . S
S1427 N1428 1.613 . S
S1427 N1429 1.610 . S
N1428 S1427 1.613 . S
N1428 C1431 1.350 . S
N1429 S1427 1.610 . S
N1429 C1430 1.351 . S
C1430 C1424 1.428 . S
C1430 N1429 1.351 . S
C1430 C1431 1.434 . S
C1431 C1422 1.429 . S
C1431 N1428 1.350 . S
C1431 C1430 1.434 . S
C1432 C1433 1.369 1_565 S
C1432 C1434 1.419 1_655 S
C1432 H1436 0.930 . S
C1433 C1432 1.369 1_545 S
C1433 C1442 1.429 1_655 S
C1434 C1432 1.419 1_455 S
C1434 C1435 1.363 . S
C1434 H1437 0.929 . S
C1435 C1434 1.363 . S
C1435 C1441 1.428 1_565 S
H1436 C1432 0.930 . S
H1437 C1434 0.929 . S
S1438 N1439 1.613 1_455 S
S1438 N1440 1.610 . S
N1439 S1438 1.613 1_655 S
N1439 C1442 1.350 1_655 S
N1440 S1438 1.610 . S
N1440 C1441 1.351 . S
C1441 C1435 1.428 1_545 S
C1441 N1440 1.351 . S
C1441 C1442 1.434 . S
C1442 C1433 1.429 1_455 S
C1442 N1439 1.350 1_455 S
C1442 C1441 1.434 . S
C1443 C1444 1.369 . S
C1443 C1445 1.419 . S
C1443 H1447 0.930 . S
C1444 C1443 1.369 . S
C1444 C1453 1.429 . S
C1445 C1443 1.419 . S
C1445 C1446 1.363 . S
C1445 H1448 0.929 . S
C1446 C1445 1.363 . S
C1446 C1452 1.428 . S
H1447 C1443 0.930 . S
H1448 C1445 0.929 . S
S1449 N1450 1.613 . S
S1449 N1451 1.610 . S
N1450 S1449 1.613 . S
N1450 C1453 1.350 . S
N1451 S1449 1.610 . S
N1451 C1452 1.351 . S
C1452 C1446 1.428 . S
C1452 N1451 1.351 . S
C1452 C1453 1.434 . S
C1453 C1444 1.429 . S
C1453 N1450 1.350 . S
C1453 C1452 1.434 . S
C1454 C1455 1.369 . S
C1454 C1456 1.419 1_655 S
C1454 H1458 0.930 . S
C1455 C1454 1.369 . S
C1455 C1464 1.429 1_655 S
C1456 C1454 1.419 1_455 S
C1456 C1457 1.363 . S
C1456 H1459 0.929 . S
C1457 C1456 1.363 . S
C1457 C1463 1.428 . S
H1458 C1454 0.930 . S
H1459 C1456 0.929 . S
S1460 N1461 1.613 1_455 S
S1460 N1462 1.610 . S
N1461 S1460 1.613 1_655 S
N1461 C1464 1.350 1_655 S
N1462 S1460 1.610 . S
N1462 C1463 1.351 . S
C1463 C1457 1.428 . S
C1463 N1462 1.351 . S
C1463 C1464 1.434 . S
C1464 C1455 1.429 1_455 S
C1464 N1461 1.350 1_455 S
C1464 C1463 1.434 . S
C1465 C1466 1.369 1_565 S
C1465 C1467 1.419 . S
C1465 H1469 0.930 . S
C1466 C1465 1.369 1_545 S
C1466 C1475 1.429 . S
C1467 C1465 1.419 . S
C1467 C1468 1.363 . S
C1467 H1470 0.929 . S
C1468 C1467 1.363 . S
C1468 C1474 1.428 1_565 S
H1469 C1465 0.930 . S
H1470 C1467 0.929 . S
S1471 N1472 1.613 . S
S1471 N1473 1.610 . S
N1472 S1471 1.613 . S
N1472 C1475 1.350 . S
N1473 S1471 1.610 . S
N1473 C1474 1.351 . S
C1474 C1468 1.428 1_545 S
C1474 N1473 1.351 . S
C1474 C1475 1.434 . S
C1475 C1466 1.429 . S
C1475 N1472 1.350 . S
C1475 C1474 1.434 . S
C1476 C1477 1.369 . S
C1476 C1478 1.414 1_645 S
C1476 H1480 0.930 . S
C1477 C1476 1.369 . S
C1477 C1486 1.429 . S
C1478 C1476 1.414 1_465 S
C1478 C1479 1.366 . S
C1478 H1481 0.932 . S
C1479 C1478 1.366 . S
C1479 C1485 1.430 . S
H1480 C1476 0.930 . S
H1481 C1478 0.932 . S
S1482 N1483 1.613 . S
S1482 N1484 1.610 1_645 S
N1483 S1482 1.613 . S
N1483 C1486 1.350 . S
N1484 S1482 1.610 1_465 S
N1484 C1485 1.352 . S
C1485 C1479 1.430 . S
C1485 N1484 1.352 . S
C1485 C1486 1.431 1_465 S
C1486 C1477 1.429 . S
C1486 N1483 1.350 . S
C1486 C1485 1.431 1_645 S
C1487 C1488 1.369 . S
C1487 C1489 1.419 . S
C1487 H1491 0.930 . S
C1488 C1487 1.369 . S
C1488 C1497 1.429 . S
C1489 C1487 1.419 . S
C1489 C1490 1.363 . S
C1489 H1492 0.929 . S
C1490 C1489 1.363 . S
C1490 C1496 1.428 . S
H1491 C1487 0.930 . S
H1492 C1489 0.929 . S
S1493 N1494 1.613 . S
S1493 N1495 1.610 . S
N1494 S1493 1.613 . S
N1494 C1497 1.350 . S
N1495 S1493 1.610 . S
N1495 C1496 1.351 . S
C1496 C1490 1.428 . S
C1496 N1495 1.351 . S
C1496 C1497 1.434 . S
C1497 C1488 1.429 . S
C1497 N1494 1.350 . S
C1497 C1496 1.434 . S
C1498 C1499 1.369 . S
C1498 C1500 1.419 1_455 S
C1498 H1502 0.930 . S
C1499 C1498 1.369 . S
C1499 C1508 1.429 1_455 S
C1500 C1498 1.419 1_655 S
C1500 C1501 1.363 . S
C1500 H1503 0.929 . S
C1501 C1500 1.363 . S
C1501 C1507 1.428 . S
H1502 C1498 0.930 . S
H1503 C1500 0.929 . S
S1504 N1505 1.613 1_655 S
S1504 N1506 1.610 . S
N1505 S1504 1.613 1_455 S
N1505 C1508 1.350 1_455 S
N1506 S1504 1.610 . S
N1506 C1507 1.351 . S
C1507 C1501 1.428 . S
C1507 N1506 1.351 . S
C1507 C1508 1.434 . S
C1508 C1499 1.429 1_655 S
C1508 N1505 1.350 1_655 S
C1508 C1507 1.434 . S
C1509 C1510 1.369 . S
C1509 C1511 1.419 . S
C1509 H1513 0.930 . S
C1510 C1509 1.369 . S
C1510 C1519 1.429 1_565 S
C1511 C1509 1.419 . S
C1511 C1512 1.363 1_565 S
C1511 H1514 0.929 . S
C1512 C1511 1.363 1_545 S
C1512 C1518 1.428 . S
H1513 C1509 0.930 . S
H1514 C1511 0.929 . S
S1515 N1516 1.613 . S
S1515 N1517 1.610 . S
N1516 S1515 1.613 . S
N1516 C1519 1.350 . S
N1517 S1515 1.610 . S
N1517 C1518 1.351 . S
C1518 C1512 1.428 . S
C1518 N1517 1.351 . S
C1518 C1519 1.434 . S
C1519 C1510 1.429 1_545 S
C1519 N1516 1.350 . S
C1519 C1518 1.434 . S
C1520 C1521 1.369 . S
C1520 C1522 1.419 1_554 S
C1520 H1524 0.930 . S
C1521 C1520 1.369 . S
C1521 C1530 1.429 1_455 S
C1522 C1520 1.419 1_556 S
C1522 C1523 1.363 1_455 S
C1522 H1525 0.929 . S
C1523 C1522 1.363 1_655 S
C1523 C1529 1.428 . S
H1524 C1520 0.930 . S
H1525 C1522 0.929 . S
S1526 N1527 1.613 . S
S1526 N1528 1.610 1_554 S
N1527 S1526 1.613 . S
N1527 C1530 1.350 . S
N1528 S1526 1.610 1_556 S
N1528 C1529 1.351 . S
C1529 C1523 1.428 . S
C1529 N1528 1.351 . S
C1529 C1530 1.434 1_556 S
C1530 C1521 1.429 1_655 S
C1530 N1527 1.350 . S
C1530 C1529 1.434 1_554 S
C1531 C1532 1.369 . S
C1531 C1533 1.419 1_556 S
C1531 H1535 0.930 . S
C1532 C1531 1.369 . S
C1532 C1541 1.429 . S
C1533 C1531 1.419 1_554 S
C1533 C1534 1.363 . S
C1533 H1536 0.929 . S
C1534 C1533 1.363 . S
C1534 C1540 1.428 . S
H1535 C1531 0.930 . S
H1536 C1533 0.929 . S
S1537 N1538 1.613 1_554 S
S1537 N1539 1.610 . S
N1538 S1537 1.613 1_556 S
N1538 C1541 1.350 . S
N1539 S1537 1.610 . S
N1539 C1540 1.351 . S
C1540 C1534 1.428 . S
C1540 N1539 1.351 . S
C1540 C1541 1.434 1_554 S
C1541 C1532 1.429 . S
C1541 N1538 1.350 . S
C1541 C1540 1.434 1_556 S
C1542 C1543 1.369 . S
C1542 C1544 1.419 . S
C1542 H1546 0.930 . S
C1543 C1542 1.369 . S
C1543 C1552 1.429 1_655 S
C1544 C1542 1.419 . S
C1544 C1545 1.363 1_655 S
C1544 H1547 0.929 . S
C1545 C1544 1.363 1_455 S
C1545 C1551 1.428 . S
H1546 C1542 0.930 . S
H1547 C1544 0.929 . S
S1548 N1549 1.613 . S
S1548 N1550 1.610 . S
N1549 S1548 1.613 . S
N1549 C1552 1.350 . S
N1550 S1548 1.610 . S
N1550 C1551 1.351 . S
C1551 C1545 1.428 . S
C1551 N1550 1.351 . S
C1551 C1552 1.434 . S
C1552 C1543 1.429 1_455 S
C1552 N1549 1.350 . S
C1552 C1551 1.434 . S
C1553 C1554 1.369 . S
C1553 C1555 1.419 . S
C1553 H1557 0.930 . S
C1554 C1553 1.369 . S
C1554 C1563 1.429 . S
C1555 C1553 1.419 . S
C1555 C1556 1.363 . S
C1555 H1558 0.929 . S
C1556 C1555 1.363 . S
C1556 C1562 1.428 . S
H1557 C1553 0.930 . S
H1558 C1555 0.929 . S
S1559 N1560 1.613 . S
S1559 N1561 1.610 . S
N1560 S1559 1.613 . S
N1560 C1563 1.350 . S
N1561 S1559 1.610 . S
N1561 C1562 1.351 . S
C1562 C1556 1.428 . S
C1562 N1561 1.351 . S
C1562 C1563 1.434 . S
C1563 C1554 1.429 . S
C1563 N1560 1.350 . S
C1563 C1562 1.434 . S
C1564 C1565 1.369 . S
C1564 C1566 1.419 1_556 S
C1564 H1568 0.930 . S
C1565 C1564 1.369 . S
C1565 C1574 1.429 . S
C1566 C1564 1.419 1_554 S
C1566 C1567 1.363 . S
C1566 H1569 0.929 . S
C1567 C1566 1.363 . S
C1567 C1573 1.428 . S
H1568 C1564 0.930 . S
H1569 C1566 0.929 . S
S1570 N1571 1.613 . S
S1570 N1572 1.610 1_556 S
N1571 S1570 1.613 . S
N1571 C1574 1.350 . S
N1572 S1570 1.610 1_554 S
N1572 C1573 1.351 . S
C1573 C1567 1.428 . S
C1573 N1572 1.351 . S
C1573 C1574 1.434 1_554 S
C1574 C1565 1.429 . S
C1574 N1571 1.350 . S
C1574 C1573 1.434 1_556 S
C1575 C1576 1.369 . S
C1575 C1577 1.419 . S
C1575 H1579 0.930 . S
C1576 C1575 1.369 . S
C1576 C1585 1.429 1_655 S
C1577 C1575 1.419 . S
C1577 C1578 1.363 1_655 S
C1577 H1580 0.929 . S
C1578 C1577 1.363 1_455 S
C1578 C1584 1.428 . S
H1579 C1575 0.930 . S
H1580 C1577 0.929 . S
S1581 N1582 1.613 . S
S1581 N1583 1.610 . S
N1582 S1581 1.613 . S
N1582 C1585 1.350 . S
N1583 S1581 1.610 . S
N1583 C1584 1.351 . S
C1584 C1578 1.428 . S
C1584 N1583 1.351 . S
C1584 C1585 1.434 . S
C1585 C1576 1.429 1_455 S
C1585 N1582 1.350 . S
C1585 C1584 1.434 . S
C1586 C1587 1.369 . S
C1586 C1588 1.419 . S
C1586 H1590 0.930 . S
C1587 C1586 1.369 . S
C1587 C1596 1.429 . S
C1588 C1586 1.419 . S
C1588 C1589 1.363 . S
C1588 H1591 0.929 . S
C1589 C1588 1.363 . S
C1589 C1595 1.428 . S
H1590 C1586 0.930 . S
H1591 C1588 0.929 . S
S1592 N1593 1.613 . S
S1592 N1594 1.610 . S
N1593 S1592 1.613 . S
N1593 C1596 1.350 . S
N1594 S1592 1.610 . S
N1594 C1595 1.351 . S
C1595 C1589 1.428 . S
C1595 N1594 1.351 . S
C1595 C1596 1.434 . S
C1596 C1587 1.429 . S
C1596 N1593 1.350 . S
C1596 C1595 1.434 . S
C1597 C1598 1.394 1_655 S
C1597 C1599 1.419 . S
C1597 H1601 0.930 . S
C1598 C1597 1.394 1_455 S
C1598 C1607 1.402 1_565 S
C1599 C1597 1.419 . S
C1599 C1600 1.363 1_565 S
C1599 H1602 0.929 . S
C1600 C1599 1.363 1_545 S
C1600 C1606 1.428 1_655 S
H1601 C1597 0.930 . S
H1602 C1599 0.929 . S
S1603 N1604 1.613 . S
S1603 N1605 1.610 . S
N1604 S1603 1.613 . S
N1604 C1607 1.350 . S
N1605 S1603 1.610 . S
N1605 C1606 1.351 . S
C1606 C1600 1.428 1_455 S
C1606 N1605 1.351 . S
C1606 C1607 1.434 . S
C1607 C1598 1.402 1_545 S
C1607 N1604 1.350 . S
C1607 C1606 1.434 . S
C1608 C1609 1.369 . S
C1608 C1610 1.419 . S
C1608 H1612 0.930 . S
C1609 C1608 1.369 . S
C1609 C1618 1.429 . S
C1610 C1608 1.419 . S
C1610 C1611 1.363 . S
C1610 H1613 0.929 . S
C1611 C1610 1.363 . S
C1611 C1617 1.428 . S
H1612 C1608 0.930 . S
H1613 C1610 0.929 . S
S1614 N1615 1.613 . S
S1614 N1616 1.610 . S
N1615 S1614 1.613 . S
N1615 C1618 1.350 . S
N1616 S1614 1.610 . S
N1616 C1617 1.351 . S
C1617 C1611 1.428 . S
C1617 N1616 1.351 . S
C1617 C1618 1.434 . S
C1618 C1609 1.429 . S
C1618 N1615 1.350 . S
C1618 C1617 1.434 . S
C1619 C1620 1.369 1_565 S
C1619 C1621 1.419 . S
C1619 H1623 0.930 . S
C1620 C1619 1.369 1_545 S
C1620 C1629 1.429 . S
C1621 C1619 1.419 . S
C1621 C1622 1.363 . S
C1621 H1624 0.929 . S
C1622 C1621 1.363 . S
C1622 C1628 1.428 1_565 S
H1623 C1619 0.930 . S
H1624 C1621 0.929 . S
S1625 N1626 1.613 . S
S1625 N1627 1.610 . S
N1626 S1625 1.613 . S
N1626 C1629 1.350 . S
N1627 S1625 1.610 . S
N1627 C1628 1.351 . S
C1628 C1622 1.428 1_545 S
C1628 N1627 1.351 . S
C1628 C1629 1.434 . S
C1629 C1620 1.429 . S
C1629 N1626 1.350 . S
C1629 C1628 1.434 . S
C1630 C1631 1.369 . S
C1630 C1632 1.419 . S
C1630 H1634 0.930 . S
C1631 C1630 1.369 . S
C1631 C1640 1.429 . S
C1632 C1630 1.419 . S
C1632 C1633 1.363 . S
C1632 H1635 0.929 . S
C1633 C1632 1.363 . S
C1633 C1639 1.428 . S
H1634 C1630 0.930 . S
H1635 C1632 0.929 . S
S1636 N1637 1.613 . S
S1636 N1638 1.610 . S
N1637 S1636 1.613 . S
N1637 C1640 1.350 . S
N1638 S1636 1.610 . S
N1638 C1639 1.351 . S
C1639 C1633 1.428 . S
C1639 N1638 1.351 . S
C1639 C1640 1.434 . S
C1640 C1631 1.429 . S
C1640 N1637 1.350 . S
C1640 C1639 1.434 . S
C1641 C1642 1.369 . S
C1641 C1643 1.419 . S
C1641 H1645 0.930 . S
C1642 C1641 1.369 . S
C1642 C1651 1.429 1_565 S
C1643 C1641 1.419 . S
C1643 C1644 1.363 1_565 S
C1643 H1646 0.929 . S
C1644 C1643 1.363 1_545 S
C1644 C1650 1.428 . S
H1645 C1641 0.930 . S
H1646 C1643 0.929 . S
S1647 N1648 1.613 . S
S1647 N1649 1.610 . S
N1648 S1647 1.613 . S
N1648 C1651 1.350 . S
N1649 S1647 1.610 . S
N1649 C1650 1.351 . S
C1650 C1644 1.428 . S
C1650 N1649 1.351 . S
C1650 C1651 1.434 . S
C1651 C1642 1.429 1_545 S
C1651 N1648 1.350 . S
C1651 C1650 1.434 . S
C1652 C1653 1.369 . S
C1652 C1654 1.419 . S
C1652 H1656 0.930 . S
C1653 C1652 1.369 . S
C1653 C1662 1.429 . S
C1654 C1652 1.419 . S
C1654 C1655 1.363 . S
C1654 H1657 0.929 . S
C1655 C1654 1.363 . S
C1655 C1661 1.428 . S
H1656 C1652 0.930 . S
H1657 C1654 0.929 . S
S1658 N1659 1.613 . S
S1658 N1660 1.610 . S
N1659 S1658 1.613 . S
N1659 C1662 1.350 . S
N1660 S1658 1.610 . S
N1660 C1661 1.351 . S
C1661 C1655 1.428 . S
C1661 N1660 1.351 . S
C1661 C1662 1.434 . S
C1662 C1653 1.429 . S
C1662 N1659 1.350 . S
C1662 C1661 1.434 . S
C1663 C1664 1.369 . S
C1663 C1665 1.419 . S
C1663 H1667 0.930 . S
C1664 C1663 1.369 . S
C1664 C1673 1.429 . S
C1665 C1663 1.419 . S
C1665 C1666 1.363 . S
C1665 H1668 0.929 . S
C1666 C1665 1.363 . S
C1666 C1672 1.428 . S
H1667 C1663 0.930 . S
H1668 C1665 0.929 . S
S1669 N1670 1.613 . S
S1669 N1671 1.610 . S
N1670 S1669 1.613 . S
N1670 C1673 1.350 . S
N1671 S1669 1.610 . S
N1671 C1672 1.351 . S
C1672 C1666 1.428 . S
C1672 N1671 1.351 . S
C1672 C1673 1.434 . S
C1673 C1664 1.429 . S
C1673 N1670 1.350 . S
C1673 C1672 1.434 . S
C1674 C1675 1.369 . S
C1674 C1676 1.419 . S
C1674 H1678 0.930 . S
C1675 C1674 1.369 . S
C1675 C1684 1.429 . S
C1676 C1674 1.419 . S
C1676 C1677 1.363 . S
C1676 H1679 0.929 . S
C1677 C1676 1.363 . S
C1677 C1683 1.428 . S
H1678 C1674 0.930 . S
H1679 C1676 0.929 . S
S1680 N1681 1.613 . S
S1680 N1682 1.610 . S
N1681 S1680 1.613 . S
N1681 C1684 1.350 . S
N1682 S1680 1.610 . S
N1682 C1683 1.351 . S
C1683 C1677 1.428 . S
C1683 N1682 1.351 . S
C1683 C1684 1.434 . S
C1684 C1675 1.429 . S
C1684 N1681 1.350 . S
C1684 C1683 1.434 . S
C1685 C1686 1.369 . S
C1685 C1687 1.419 1_554 S
C1685 H1689 0.930 . S
C1686 C1685 1.369 . S
C1686 C1695 1.429 1_565 S
C1687 C1685 1.419 1_556 S
C1687 C1688 1.363 1_565 S
C1687 H1690 0.929 . S
C1688 C1687 1.363 1_545 S
C1688 C1694 1.428 . S
H1689 C1685 0.930 . S
H1690 C1687 0.929 . S
S1691 N1692 1.613 . S
S1691 N1693 1.610 1_554 S
N1692 S1691 1.613 . S
N1692 C1695 1.350 . S
N1693 S1691 1.610 1_556 S
N1693 C1694 1.351 . S
C1694 C1688 1.428 . S
C1694 N1693 1.351 . S
C1694 C1695 1.434 1_556 S
C1695 C1686 1.429 1_545 S
C1695 N1692 1.350 . S
C1695 C1694 1.434 1_554 S
C641 C18 1.561 . S
C643 C518 1.560 . S
C652 C498 1.560 . S
C654 C38 1.560 . S
C663 C558 1.562 . S
C665 C58 1.563 . S
C674 C78 1.563 . S
C676 C538 1.562 . S
C685 C99 1.563 . S
C687 C599 1.562 . S
C696 C119 1.559 . S
C698 C579 1.560 . S
C707 C139 1.561 . S
C709 C639 1.562 . S
C718 C619 1.560 . S
C720 C159 1.562 . S
C729 C178 1.563 . S
C731 C358 1.562 . S
C740 C198 1.563 . S
C742 C338 1.562 . S
C751 C218 1.563 . S
C753 C398 1.562 . S
C762 C378 1.562 . S
C764 C238 1.561 . S
C773 C259 1.563 . S
C775 C439 1.562 . S
C784 C279 1.561 . S
C786 C419 1.560 . S
C795 C479 1.562 . S
C797 C299 1.560 . S
C806 C319 1.562 . S
C808 C459 1.560 . S
C817 C8 1.574 . S
C819 C68 1.572 . S
C828 C28 1.570 . S
C830 C48 1.571 . S
C839 C149 1.571 . S
C841 C89 1.573 . S
C850 C129 1.570 . S
C852 C109 1.572 . S
C861 C168 1.572 1_565 S
C863 C228 1.573 1_565 S
C872 C188 1.574 . S
C874 C208 1.573 . S
C883 C249 1.572 1_545 S
C885 C309 1.571 1_545 S
C894 C289 1.570 . S
C896 C269 1.571 . S
C905 C328 1.574 . S
C907 C388 1.573 . S
C916 C348 1.574 . S
C918 C368 1.573 . S
C927 C469 1.573 . S
C929 C409 1.574 . S
C938 C429 1.570 . S
C940 C449 1.571 . S
C949 C548 1.571 1_565 S
C951 C488 1.571 1_565 S
C960 C508 1.573 . S
C962 C528 1.571 . S
C971 C629 1.571 1_545 S
C973 C569 1.571 1_545 S
C982 C609 1.573 . S
C984 C589 1.572 . S
C993 C39 1.528 . S
C995 C19 1.527 . S
C1004 C59 1.527 . S
C1006 C79 1.528 . S
C1015 C118 1.527 . S
C1017 C98 1.528 . S
C1026 C158 1.522 . S
C1028 C138 1.530 . S
C1037 C179 1.523 . S
C1039 C199 1.526 . S
C1048 C219 1.531 . S
C1050 C239 1.523 . S
C1059 C278 1.528 . S
C1061 C258 1.523 . S
C1070 C298 1.528 . S
C1072 C318 1.528 . S
C1081 C339 1.530 . S
C1083 C359 1.525 . S
C1092 C399 1.523 . S
C1094 C379 1.526 . S
C1103 C418 1.528 . S
C1105 C438 1.522 . S
C1114 C458 1.521 . S
C1116 C478 1.529 . S
C1125 C499 1.530 . S
C1127 C519 1.525 . S
C1136 C539 1.523 . S
C1138 C559 1.526 . S
C1147 C598 1.522 . S
C1149 C578 1.528 . S
C1158 C618 1.523 . S
C1160 C638 1.526 . S
C1169 C2 1.586 . S
C1171 C1 1.588 . S
C1180 C22 1.590 . S
C1182 C21 1.585 . S
C1191 C42 1.584 . S
C1193 C41 1.590 . S
C1202 C61 1.586 . S
C1204 C62 1.588 . S
C1213 C82 1.590 . S
C1215 C81 1.584 . S
C1224 C101 1.592 . S
C1226 C102 1.584 . S
C1235 C122 1.582 . S
C1237 C121 1.591 . S
C1246 C142 1.583 . S
C1248 C141 1.591 . S
C1257 C161 1.592 . S
C1259 C162 1.584 . S
C1268 C182 1.592 . S
C1270 C181 1.584 . S
C1279 C202 1.583 . S
C1281 C201 1.591 . S
C1290 C221 1.589 . S
C1292 C222 1.586 . S
C1301 C242 1.586 . S
C1303 C241 1.588 . S
C1312 C261 1.589 . S
C1314 C262 1.585 . S
C1323 C281 1.584 . S
C1325 C282 1.590 . S
C1334 C302 1.588 . S
C1336 C301 1.587 . S
C1345 C322 1.583 . S
C1347 C321 1.591 . S
C1356 C341 1.591 . S
C1358 C342 1.584 . S
C1367 C361 1.582 . S
C1369 C362 1.591 . S
C1378 C382 1.590 . S
C1380 C381 1.585 . S
C1389 C401 1.589 . S
C1391 C402 1.585 . S
C1400 C421 1.588 . S
C1402 C422 1.587 . S
C1411 C442 1.589 . S
C1413 C441 1.585 . S
C1422 C461 1.584 . S
C1424 C462 1.589 . S
C1433 C481 1.590 . S
C1435 C482 1.585 . S
C1444 C502 1.592 . S
C1446 C501 1.584 . S
C1455 C521 1.592 . S
C1457 C522 1.584 . S
C1466 C541 1.589 . S
C1468 C542 1.585 . S
C1477 C561 1.589 . S
C1479 C562 1.586 . S
C1488 C581 1.591 . S
C1490 C582 1.584 . S
C1499 C602 1.592 . S
C1501 C601 1.584 . S
C1510 C622 1.583 . S
C1512 C621 1.590 . S
C1521 C9 1.467 . S
C1523 C88 1.460 . S
C1532 C588 1.460 . S
C1534 C29 1.466 . S
C1543 C288 1.464 . S
C1545 C49 1.462 . S
C1554 C69 1.463 . S
C1556 C468 1.463 . S
C1565 C108 1.465 . S
C1567 C509 1.461 . S
C1576 C128 1.467 . S
C1578 C209 1.460 . S
C1587 C148 1.467 . S
C1589 C389 1.459 . S
C1598 C169 1.470 . S
C1600 C248 1.463 . S
C1609 C428 1.460 . S
C1611 C189 1.466 . S
C1620 C628 1.467 . S
C1622 C229 1.460 . S
C1631 C268 1.463 . S
C1633 C349 1.464 . S
C1642 C549 1.467 . S
C1644 C308 1.460 . S
C1653 C329 1.461 . S
C1655 C408 1.464 . S
C1664 C608 1.466 . S
C1666 C369 1.461 . S
C1675 C448 1.460 . S
C1677 C529 1.465 . S
C1686 C489 1.467 . S
C1688 C568 1.460 . S
