# Generated by pormake.
# Topology xfd, (7)-cn, num edge types: 1
# Building blocks:
#     Node 0, Type 0, BuildingBlock: HICVOG_clean_sbu_0, # of connection points: 7
#     Node 1, Type 0, BuildingBlock: HICVOG_clean_sbu_0, # of connection points: 7
#     Node 2, Type 0, BuildingBlock: HICVOG_clean_sbu_0, # of connection points: 7
#     Node 3, Type 0, BuildingBlock: HICVOG_clean_sbu_0, # of connection points: 7
#     Node 4, Type 0, BuildingBlock: HICVOG_clean_sbu_0, # of connection points: 7
#     Node 5, Type 0, BuildingBlock: HICVOG_clean_sbu_0, # of connection points: 7
#     Node 6, Type 0, BuildingBlock: HICVOG_clean_sbu_0, # of connection points: 7
#     Node 7, Type 0, BuildingBlock: HICVOG_clean_sbu_0, # of connection points: 7
#     Node 8, Type 0, BuildingBlock: HICVOG_clean_sbu_0, # of connection points: 7
#     Node 9, Type 0, BuildingBlock: HICVOG_clean_sbu_0, # of connection points: 7
#     Node 10, Type 0, BuildingBlock: HICVOG_clean_sbu_0, # of connection points: 7
#     Node 11, Type 0, BuildingBlock: HICVOG_clean_sbu_0, # of connection points: 7
#     Node 12, Type 0, BuildingBlock: HICVOG_clean_sbu_0, # of connection points: 7
#     Node 13, Type 0, BuildingBlock: HICVOG_clean_sbu_0, # of connection points: 7
#     Node 14, Type 0, BuildingBlock: HICVOG_clean_sbu_0, # of connection points: 7
#     Node 15, Type 0, BuildingBlock: HICVOG_clean_sbu_0, # of connection points: 7
#     Edge 16, Type (0, 0), None
#     Edge 17, Type (0, 0), None
#     Edge 18, Type (0, 0), None
#     Edge 19, Type (0, 0), None
#     Edge 20, Type (0, 0), None
#     Edge 21, Type (0, 0), None
#     Edge 22, Type (0, 0), None
#     Edge 23, Type (0, 0), None
#     Edge 24, Type (0, 0), None
#     Edge 25, Type (0, 0), None
#     Edge 26, Type (0, 0), None
#     Edge 27, Type (0, 0), None
#     Edge 28, Type (0, 0), None
#     Edge 29, Type (0, 0), None
#     Edge 30, Type (0, 0), None
#     Edge 31, Type (0, 0), None
#     Edge 32, Type (0, 0), None
#     Edge 33, Type (0, 0), None
#     Edge 34, Type (0, 0), None
#     Edge 35, Type (0, 0), None
#     Edge 36, Type (0, 0), None
#     Edge 37, Type (0, 0), None
#     Edge 38, Type (0, 0), None
#     Edge 39, Type (0, 0), None
#     Edge 40, Type (0, 0), None
#     Edge 41, Type (0, 0), None
#     Edge 42, Type (0, 0), None
#     Edge 43, Type (0, 0), None
#     Edge 44, Type (0, 0), None
#     Edge 45, Type (0, 0), None
#     Edge 46, Type (0, 0), None
#     Edge 47, Type (0, 0), None
#     Edge 48, Type (0, 0), None
#     Edge 49, Type (0, 0), None
#     Edge 50, Type (0, 0), None
#     Edge 51, Type (0, 0), None
#     Edge 52, Type (0, 0), None
#     Edge 53, Type (0, 0), None
#     Edge 54, Type (0, 0), None
#     Edge 55, Type (0, 0), None
#     Edge 56, Type (0, 0), None
#     Edge 57, Type (0, 0), None
#     Edge 58, Type (0, 0), None
#     Edge 59, Type (0, 0), None
#     Edge 60, Type (0, 0), None
#     Edge 61, Type (0, 0), None
#     Edge 62, Type (0, 0), None
#     Edge 63, Type (0, 0), None
#     Edge 64, Type (0, 0), None
#     Edge 65, Type (0, 0), None
#     Edge 66, Type (0, 0), None
#     Edge 67, Type (0, 0), None
#     Edge 68, Type (0, 0), None
#     Edge 69, Type (0, 0), None
#     Edge 70, Type (0, 0), None
#     Edge 71, Type (0, 0), None
# Relax obj value: 0.660
# Max RMSD: 0.282
# Mean RMSD: 0.282
data_MOF--net-xfd--node1-HICVOG_clean_sbu_0--edge1-none
_symmetry_space_group_name_H-M    P1
_symmetry_Int_Tables_number       1
_symmetry_cell_setting            triclinic
loop_
_symmetry_equiv_pos_as_xyz
'x, y, z'
_cell_length_a     23.096162
_cell_length_b     23.096134
_cell_length_c     11.229279
_cell_angle_alpha  90.007489
_cell_angle_beta   90.00192
_cell_angle_gamma 90.005655
loop_
_atom_site_label
_atom_site_type_symbol
_atom_site_fract_x
_atom_site_fract_y
_atom_site_fract_z
_atom_type_partial_charge
Zn0 Zn 0.92051 0.60345 0.39425 0.0
C1 C 0.05464 0.46764 0.38053 0.0
N2 N 0.00961 0.43242 0.34664 0.0
C3 C 0.96009 0.46458 0.33754 0.0
N4 N 0.96854 0.5214 0.36956 0.0
N5 N 0.025 0.52445 0.3844 0.0
C6 C 0.05694 0.64722 0.15958 0.0
O7 O 0.04693 0.59264 0.13428 0.0
O8 O 0.84763 0.63341 0.50458 0.0
Zn9 Zn 0.04755 0.61124 0.48262 0.0
N10 N 0.88245 0.59104 0.26042 0.0
C11 C 0.92271 0.54046 0.10068 0.0
C12 C 0.92263 0.5886 0.1741 0.0
C13 C 0.83692 0.55462 0.26024 0.0
N14 N 0.8734 0.50815 0.09786 0.0
C15 C 0.8243 0.5282 0.15238 0.0
O16 O -0.00241 0.67735 0.5387 0.0
C17 C 0.98785 0.71033 0.45105 0.0
O18 O 0.96259 0.68628 0.36283 0.0
H19 H 0.95484 0.62095 0.17295 0.0
H20 H 0.81451 0.54459 0.34105 0.0
C21 C 0.16072 0.57506 0.7136 0.0
C22 C 0.19558 0.62312 0.7329 0.0
C23 C 0.13381 0.59182 0.9117 0.0
C24 C 0.088 0.58288 0.82151 0.0
N25 N 0.10258 0.59182 0.70183 0.0
N26 N 0.18258 0.6201 0.86163 0.0
H27 H 0.20001 0.59458 0.68314 0.0
C28 C 0.80425 0.64317 0.57522 0.0
O29 O 0.78482 0.60152 0.64303 0.0
O30 O 0.05803 0.6613 0.27529 0.0
H31 H 0.04381 0.57425 0.8482 0.0
H32 H 0.95946 0.53046 0.04525 0.0
H33 H 0.13047 0.58164 0.00489 0.0
Zn34 Zn 0.63793 0.66209 0.64654 0.0
C35 C 0.7745 0.79481 0.63583 0.0
N36 N 0.80941 0.75031 0.59864 0.0
C37 C 0.77673 0.70108 0.58993 0.0
N38 N 0.7201 0.70967 0.6235 0.0
N39 N 0.71742 0.76598 0.63985 0.0
C40 C 0.59418 0.79987 0.40943 0.0
O41 O 0.64865 0.79011 0.38266 0.0
O42 O 0.60679 0.58926 0.75509 0.0
Zn43 Zn 0.63043 0.79061 0.73459 0.0
N44 N 0.65086 0.62435 0.51248 0.0
C45 C 0.7014 0.66442 0.35261 0.0
C46 C 0.65394 0.66514 0.42764 0.0
C47 C 0.68615 0.57799 0.5103 0.0
N48 N 0.73232 0.61431 0.34715 0.0
C49 C 0.71172 0.56539 0.40154 0.0
O50 O 0.56391 0.74071 0.78978 0.0
C51 C 0.53121 0.73055 0.70176 0.0
O52 O 0.55551 0.70495 0.61423 0.0
H53 H 0.62337 0.69885 0.43072 0.0
H54 H 0.69579 0.55471 0.59017 0.0
C55 C 0.66549 0.90521 0.96408 0.0
C56 C 0.6175 0.94011 0.98109 0.0
C57 C 0.64816 0.87945 0.16237 0.0
C58 C 0.65797 0.83317 0.07335 0.0
N59 N 0.64925 0.84684 0.95312 0.0
N60 N 0.62006 0.92787 0.11023 0.0
H61 H 0.64628 0.94431 0.93138 0.0
C62 C 0.59747 0.54572 0.82544 0.0
O63 O 0.63941 0.5263 0.89254 0.0
O64 O 0.58066 0.8009 0.52566 0.0
H65 H 0.6669 0.78922 0.10133 0.0
H66 H 0.71212 0.70147 0.29864 0.0
H67 H 0.65797 0.87669 0.25586 0.0
Zn68 Zn 0.57823 0.37934 0.89705 0.0
C69 C 0.44582 0.5164 0.88661 0.0
N70 N 0.4904 0.55116 0.84935 0.0
C71 C 0.53956 0.51832 0.84079 0.0
N72 N 0.53086 0.46171 0.87432 0.0
N73 N 0.47455 0.45926 0.89104 0.0
C74 C 0.44052 0.33609 0.66167 0.0
O75 O 0.45056 0.39053 0.635 0.0
O76 O 0.65132 0.34813 0.00536 0.0
Zn77 Zn 0.44992 0.3725 0.98623 0.0
N78 N 0.61557 0.3917 0.76234 0.0
C79 C 0.57586 0.44194 0.60158 0.0
C80 C 0.57517 0.39442 0.67656 0.0
C81 C 0.66179 0.42718 0.76072 0.0
N82 N 0.62578 0.47323 0.59724 0.0
C83 C 0.67461 0.45273 0.65213 0.0
O84 O 0.49973 0.3059 0.04124 0.0
C85 C 0.50961 0.27309 0.95325 0.0
O86 O 0.5352 0.29716 0.8655 0.0
H87 H 0.54221 0.36293 0.67734 0.0
H88 H 0.68508 0.43656 0.84073 0.0
C89 C 0.33569 0.40752 0.21582 0.0
C90 C 0.30081 0.35951 0.23281 0.0
C91 C 0.36158 0.39014 0.41399 0.0
C92 C 0.40782 0.39988 0.3249 0.0
N93 N 0.39403 0.3913 0.20468 0.0
N94 N 0.31312 0.36201 0.36197 0.0
H95 H 0.29661 0.38819 0.1833 0.0
C96 C 0.69486 0.33845 0.0756 0.0
O97 O 0.71399 0.38004 0.14394 0.0
O98 O 0.43936 0.3226 0.77783 0.0
H99 H 0.45181 0.4087 0.35277 0.0
H100 H 0.53918 0.45223 0.54613 0.0
H101 H 0.3644 0.39996 0.50746 0.0
Zn102 Zn 0.86191 0.31982 0.14495 0.0
C103 C 0.72554 0.18599 0.13151 0.0
N104 N 0.69052 0.23113 0.09764 0.0
C105 C 0.72287 0.28055 0.08876 0.0
N106 N 0.77966 0.27196 0.12069 0.0
N107 N 0.78246 0.21549 0.13572 0.0
C108 C 0.90524 0.18334 0.91125 0.0
O109 O 0.8507 0.19353 0.88596 0.0
O110 O 0.89212 0.39296 0.25477 0.0
Zn111 Zn 0.86909 0.19277 0.23397 0.0
N112 N 0.84983 0.35755 0.01063 0.0
C113 C 0.79943 0.31766 0.85021 0.0
C114 C 0.84752 0.31759 0.92381 0.0
C115 C 0.81348 0.40311 0.01061 0.0
N116 N 0.76711 0.36697 0.84791 0.0
C117 C 0.78729 0.41596 0.90269 0.0
O118 O 0.93533 0.24265 0.28986 0.0
C119 C 0.96838 0.25226 0.20223 0.0
O120 O 0.94452 0.27756 0.11394 0.0
H121 H 0.88019 0.28569 0.92162 0.0
H122 H 0.80364 0.42559 0.09142 0.0
C123 C 0.83309 0.07993 0.46507 0.0
C124 C 0.88113 0.04511 0.48434 0.0
C125 C 0.84978 0.10696 0.66307 0.0
C126 C 0.84088 0.15272 0.57277 0.0
N127 N 0.84977 0.13806 0.45309 0.0
N128 N 0.87811 0.05817 0.6131 0.0
H129 H 0.85272 0.0407 0.43469 0.0
C130 C 0.90222 0.43636 0.32523 0.0
O131 O 0.86093 0.45545 0.39434 0.0
O132 O 0.91926 0.18214 0.02694 0.0
H133 H 0.83227 0.19693 0.59936 0.0
H134 H 0.78953 0.28114 0.79398 0.0
H135 H 0.83954 0.11032 0.75623 0.0
Zn136 Zn 0.04967 0.3711 0.48795 0.0
C137 C 0.95932 0.51789 0.63298 0.0
N138 N 0.00826 0.55091 0.62333 0.0
C139 C 0.05287 0.51649 0.5849 0.0
N140 N 0.02427 0.45919 0.57973 0.0
N141 N 0.96807 0.46134 0.5988 0.0
C142 C 0.80329 0.33886 0.40191 0.0
O143 O 0.78409 0.38166 0.33688 0.0
O144 O 0.06263 0.3193 0.69171 0.0
Zn145 Zn 0.92051 0.37897 0.57924 0.0
N146 N 0.09742 0.38269 0.26983 0.0
C147 C 0.13442 0.38805 0.05894 0.0
C148 C 0.08556 0.39256 0.14758 0.0
C149 C 0.15425 0.39789 0.26038 0.0
N150 N 0.18518 0.36416 0.11377 0.0
C151 C 0.19448 0.35712 0.24151 0.0
O152 O 0.96351 0.29705 0.61321 0.0
C153 C 0.98809 0.27283 0.52458 0.0
O154 O -0.00278 0.30576 0.43656 0.0
H155 H 0.04188 0.40143 0.1178 0.0
H156 H 0.16622 0.44349 0.24025 0.0
C157 C 0.8377 0.42716 0.71714 0.0
C158 C 0.82559 0.45316 0.82562 0.0
C159 C 0.92453 0.44193 0.87482 0.0
C160 C 0.9249 0.39462 0.79942 0.0
N161 N 0.88407 0.39197 0.71453 0.0
N162 N 0.87461 0.47312 0.88065 0.0
H163 H 0.81306 0.43517 0.6383 0.0
C164 C 0.06049 0.33226 0.808 0.0
O165 O 0.0496 0.38646 0.83515 0.0
O166 O 0.8472 0.3471 0.47194 0.0
H167 H 0.95769 0.3629 0.79826 0.0
H168 H 0.13264 0.39994 0.96635 0.0
H169 H 0.96144 0.45196 0.92988 0.0
Zn170 Zn 0.86101 0.66182 0.82952 0.0
C171 C 0.7248 0.79527 0.83964 0.0
N172 N 0.6897 0.75101 0.87733 0.0
C173 C 0.72223 0.70164 0.88652 0.0
N174 N 0.77891 0.7099 0.8528 0.0
N175 N 0.78177 0.76617 0.8359 0.0
C176 C 0.90511 0.79955 0.06382 0.0
O177 O 0.85059 0.78962 0.08994 0.0
O178 O 0.89278 0.58887 0.72116 0.0
Zn179 Zn 0.8688 0.79006 0.74014 0.0
N180 N 0.84828 0.62419 0.96395 0.0
C181 C 0.79805 0.66477 0.1238 0.0
C182 C 0.84558 0.66497 0.04889 0.0
C183 C 0.81273 0.57802 0.96628 0.0
N184 N 0.76662 0.61498 0.12931 0.0
C185 C 0.78667 0.56588 0.07479 0.0
O186 O 0.93475 0.73967 0.68498 0.0
C187 C 0.96756 0.73002 0.773 0.0
O188 O 0.9434 0.70473 0.86107 0.0
H189 H 0.87698 0.69799 0.04706 0.0
H190 H 0.80319 0.55457 0.88655 0.0
C191 C 0.8332 0.90337 0.5096 0.0
C192 C 0.88093 0.93854 0.49135 0.0
C193 C 0.8501 0.8771 0.3114 0.0
C194 C 0.84112 0.83104 0.4012 0.0
N195 N 0.85001 0.84528 0.52115 0.0
N196 N 0.87806 0.92589 0.36233 0.0
H197 H 0.85244 0.94266 0.54095 0.0
C198 C 0.90142 0.54515 0.65082 0.0
O199 O 0.85881 0.52554 0.58583 0.0
O200 O 0.91881 0.80072 0.94787 0.0
H201 H 0.83246 0.78692 0.37401 0.0
H202 H 0.78786 0.70183 0.17819 0.0
H203 H 0.83997 0.874 0.21814 0.0
Zn204 Zn 0.4505 0.61105 -0.00983 0.0
C205 C 0.53887 0.46458 0.13778 0.0
N206 N 0.48948 0.43209 0.12856 0.0
C207 C 0.44522 0.46714 0.09083 0.0
N208 N 0.47436 0.5241 0.08677 0.0
N209 N 0.53059 0.52134 0.10431 0.0
C210 C 0.69456 0.64381 0.90199 0.0
O211 O 0.71404 0.60181 0.83518 0.0
O212 O 0.43955 0.66115 0.19749 0.0
Zn213 Zn 0.57806 0.60375 0.08157 0.0
N214 N 0.39539 0.59193 0.77133 0.0
C215 C 0.36384 0.59188 0.56133 0.0
C216 C 0.40977 0.58297 0.65146 0.0
C217 C 0.33721 0.57535 0.75938 0.0
N218 N 0.315 0.61998 0.61187 0.0
C219 C 0.30214 0.62308 0.74075 0.0
O220 O 0.53538 0.68629 0.11157 0.0
C221 C 0.5105 0.71039 0.02297 0.0
O222 O 0.50076 0.67742 0.93518 0.0
H223 H 0.45392 0.57429 0.62457 0.0
H224 H 0.2981 0.59475 0.791 0.0
C225 C 0.66064 0.55527 0.2169 0.0
C226 C 0.67313 0.52847 0.32443 0.0
C227 C 0.57497 0.54152 0.37725 0.0
C228 C 0.57515 0.58957 0.30353 0.0
N229 N 0.61516 0.59172 0.21682 0.0
N230 N 0.62408 0.50893 0.37993 0.0
H231 H 0.68377 0.54625 0.13647 0.0
C232 C 0.44082 0.6472 0.31327 0.0
O233 O 0.45119 0.59271 0.33869 0.0
O234 O 0.65103 0.63448 0.97243 0.0
H235 H 0.54353 0.62257 0.30609 0.0
H236 H 0.3671 0.5817 0.4681 0.0
H237 H 0.53844 0.53202 0.43373 0.0
Zn238 Zn 0.62877 0.19099 0.23838 0.0
C239 C 0.77566 0.28104 0.38415 0.0
N240 N 0.80855 0.23205 0.37448 0.0
C241 C 0.77409 0.18745 0.33615 0.0
N242 N 0.71683 0.21613 0.33088 0.0
N243 N 0.71902 0.27231 0.35034 0.0
C244 C 0.59662 0.43656 0.15308 0.0
O245 O 0.63882 0.45567 0.08631 0.0
O246 O 0.57689 0.17783 0.44181 0.0
Zn247 Zn 0.63644 0.3195 0.33106 0.0
N248 N 0.64052 0.14348 0.02017 0.0
C249 C 0.64623 0.10679 0.80905 0.0
C250 C 0.6506 0.15551 0.89805 0.0
C251 C 0.65565 0.08664 0.01044 0.0
N252 N 0.62217 0.05595 0.86333 0.0
C253 C 0.61492 0.04642 -0.00905 0.0
O254 O 0.55426 0.27679 0.36402 0.0
C255 C 0.53005 0.25251 0.275 0.0
O256 O 0.5631 0.24333 0.18715 0.0
H257 H 0.65952 0.19924 0.86862 0.0
H258 H 0.70129 0.07467 -0.00943 0.0
C259 C 0.68505 0.40157 0.46767 0.0
C260 C 0.7115 0.41394 0.57553 0.0
C261 C 0.69893 0.31552 0.6274 0.0
C262 C 0.65125 0.31548 0.55282 0.0
N263 N 0.64907 0.35577 0.46668 0.0
N264 N 0.73104 0.36493 0.63124 0.0
H265 H 0.69278 0.426 0.38836 0.0
C266 C 0.59004 0.18007 0.55794 0.0
O267 O 0.64425 0.19127 0.58447 0.0
O268 O 0.6055 0.39281 0.22317 0.0
H269 H 0.61842 0.28365 0.55459 0.0
H270 H 0.65822 0.10874 0.71653 0.0
H271 H 0.70846 0.27894 0.68379 0.0
Zn272 Zn 0.36079 0.16249 0.32964 0.0
C273 C 0.22364 0.2951 0.33611 0.0
N274 N 0.18897 0.25079 0.37507 0.0
C275 C 0.22179 0.20166 0.38463 0.0
N276 N 0.27841 0.21018 0.35034 0.0
N277 N 0.28085 0.26637 0.33168 0.0
C278 C 0.40741 0.30235 0.56168 0.0
O279 O 0.35318 0.29172 0.58908 0.0
O280 O 0.39305 0.08949 0.22181 0.0
Zn281 Zn 0.36909 0.29206 0.23991 0.0
N282 N 0.34763 0.12537 0.46429 0.0
C283 C 0.2976 0.16584 0.62435 0.0
C284 C 0.34482 0.16636 0.54879 0.0
C285 C 0.31243 0.07896 0.46712 0.0
N286 N 0.26663 0.11579 0.63069 0.0
C287 C 0.28664 0.06673 0.57585 0.0
O288 O 0.43423 0.23963 0.18698 0.0
C289 C 0.46719 0.2302 0.27482 0.0
O290 O 0.44292 0.20556 0.36342 0.0
H291 H 0.37551 0.20004 0.54538 0.0
H292 H 0.30391 0.05459 0.38809 0.0
C293 C 0.34196 0.39941 0.01337 0.0
C294 C 0.38341 0.43888 -0.00466 0.0
C295 C 0.35231 0.37955 0.81186 0.0
C296 C 0.3466 0.33065 0.89984 0.0
N297 N 0.35652 0.34207 0.02207 0.0
N298 N 0.37665 0.4299 0.86746 0.0
H299 H 0.29658 0.41208 -0.00665 0.0
C300 C 0.40148 0.0457 0.15155 0.0
O301 O 0.35872 0.02612 0.08686 0.0
O302 O 0.42048 0.30425 0.44524 0.0
H303 H 0.3374 0.28712 0.86948 0.0
H304 H 0.28723 0.203 0.67833 0.0
H305 H 0.34095 0.3779 0.7189 0.0
Zn306 Zn 0.12812 0.69136 0.73967 0.0
C307 C 0.27553 0.78024 0.88502 0.0
N308 N 0.30803 0.7309 0.87533 0.0
C309 C 0.27317 0.68605 0.83938 0.0
N310 N 0.21616 0.71543 0.83446 0.0
N311 N 0.21875 0.77176 0.85215 0.0
C312 C 0.09586 0.93661 0.65181 0.0
O313 O 0.13816 0.95585 0.58547 0.0
O314 O 0.07623 0.67856 0.94287 0.0
Zn315 Zn 0.13626 0.81958 0.8309 0.0
N316 N 0.14073 0.64317 0.52133 0.0
C317 C 0.14635 0.60691 0.31018 0.0
C318 C 0.15076 0.65544 0.39941 0.0
C319 C 0.1559 0.58619 0.51146 0.0
N320 N 0.12228 0.55597 0.36395 0.0
C321 C 0.11493 0.54622 0.49142 0.0
O322 O 0.05403 0.77699 0.86354 0.0
C323 C 0.03015 0.75283 0.77405 0.0
O324 O 0.06344 0.74408 0.68651 0.0
H325 H 0.15951 0.69925 0.37026 0.0
H326 H 0.20152 0.57421 0.49203 0.0
C327 C 0.18476 0.90204 0.96681 0.0
C328 C 0.21119 0.91454 0.07468 0.0
C329 C 0.19854 0.81615 0.12671 0.0
C330 C 0.15066 0.81621 0.05262 0.0
N331 N 0.14858 0.85635 0.96616 0.0
N332 N 0.23086 0.86544 0.12986 0.0
H333 H 0.19322 0.92583 0.88695 0.0
C334 C 0.08978 0.68066 0.0588 0.0
O335 O 0.14407 0.69179 0.08477 0.0
O336 O 0.10487 0.89292 0.7222 0.0
H337 H 0.11789 0.7843 0.0545 0.0
H338 H 0.15821 0.60912 0.21758 0.0
H339 H 0.20817 0.77954 0.18292 0.0
Zn340 Zn 0.13768 0.16208 0.1463 0.0
C341 C 0.27335 0.29651 0.13252 0.0
N342 N 0.30872 0.25178 0.09772 0.0
C343 C 0.2765 0.20219 0.08869 0.0
N344 N 0.21971 0.21045 0.1212 0.0
N345 N 0.21656 0.26689 0.13586 0.0
C346 C 0.094 0.29902 0.90802 0.0
O347 O 0.1486 0.2895 0.88195 0.0
O348 O 0.10608 0.08921 0.25566 0.0
Zn349 Zn 0.12962 0.28991 0.23286 0.0
N350 N 0.15038 0.12372 0.01276 0.0
C351 C 0.201 0.16365 0.8529 0.0
C352 C 0.15337 0.16431 0.92747 0.0
C353 C 0.18584 0.07745 0.01103 0.0
N354 N 0.23214 0.11365 0.84816 0.0
C355 C 0.21142 0.06473 0.90231 0.0
O356 O 0.06404 0.23973 0.2901 0.0
C357 C 0.03111 0.23004 0.20237 0.0
O358 O 0.05512 0.20463 0.11427 0.0
H359 H 0.12278 0.19804 0.93016 0.0
H360 H 0.19631 0.05495 0.09145 0.0
C361 C 0.16594 0.40513 0.46219 0.0
C362 C 0.11756 0.4398 0.47996 0.0
C363 C 0.1482 0.37904 0.66057 0.0
C364 C 0.15795 0.33284 0.5717 0.0
N365 N 0.14934 0.34672 0.45172 0.0
N366 N 0.12014 0.4275 0.60885 0.0
H367 H 0.14676 0.44438 0.43007 0.0
C368 C 0.09659 0.04573 0.32628 0.0
O369 O 0.13861 0.02612 0.39291 0.0
O370 O 0.08002 0.29977 0.02398 0.0
H371 H 0.16664 0.28882 0.5995 0.0
H372 H 0.21176 0.2007 0.799 0.0
H373 H 0.15788 0.3761 0.75412 0.0
Zn374 Zn 0.36975 0.69097 0.7344 0.0
C375 C 0.22259 0.78052 0.59017 0.0
N376 N 0.19 0.73129 0.59955 0.0
C377 C 0.2247 0.68617 0.63475 0.0
N378 N 0.2818 0.7154 0.63976 0.0
N379 N 0.27935 0.77178 0.62278 0.0
C380 C 0.40242 0.93602 0.82404 0.0
O381 O 0.36088 0.95506 0.89262 0.0
O382 O 0.42139 0.67862 0.53018 0.0
Zn383 Zn 0.36191 0.81924 0.64445 0.0
N384 N 0.35667 0.64166 0.95248 0.0
C385 C 0.35211 0.60503 0.1632 0.0
C386 C 0.34672 0.65361 0.07448 0.0
C387 C 0.34218 0.58433 0.9619 0.0
N388 N 0.37671 0.55451 0.10873 0.0
C389 C 0.38373 0.54505 0.9811 0.0
O390 O 0.44427 0.7768 0.61153 0.0
C391 C 0.46825 0.75239 0.70063 0.0
O392 O 0.43501 0.74315 0.78808 0.0
H393 H 0.33765 0.69728 0.1041 0.0
H394 H 0.29679 0.5717 0.98167 0.0
C395 C 0.31335 0.90189 0.50946 0.0
C396 C 0.2872 0.91477 0.40155 0.0
C397 C 0.29943 0.81645 0.34871 0.0
C398 C 0.3473 0.81619 0.42283 0.0
N399 N 0.34952 0.8562 0.5096 0.0
N400 N 0.26727 0.86586 0.34605 0.0
H401 H 0.30472 0.92538 0.58965 0.0
C402 C 0.40787 0.68059 0.4141 0.0
O403 O 0.35358 0.69158 0.38787 0.0
O404 O 0.39267 0.89251 0.75361 0.0
H405 H 0.37975 0.78398 0.4212 0.0
H406 H 0.34056 0.60701 0.25602 0.0
H407 H 0.28959 0.77993 0.2924 0.0
Zn408 Zn 0.42054 0.10349 0.89433 0.0
C409 C 0.55458 0.96763 0.88095 0.0
N410 N 0.50991 0.93223 0.84606 0.0
C411 C 0.46026 0.96434 0.83707 0.0
N412 N 0.46848 0.02122 0.86933 0.0
N413 N 0.52489 0.02438 0.88458 0.0
C414 C 0.55694 0.14672 0.65858 0.0
O415 O 0.54701 0.09213 0.63311 0.0
O416 O 0.3477 0.13412 0.00467 0.0
Zn417 Zn 0.54764 0.1112 0.98273 0.0
N418 N 0.38245 0.09138 0.76029 0.0
C419 C 0.42223 0.04092 0.59982 0.0
C420 C 0.42236 0.08903 0.67338 0.0
C421 C 0.33692 0.05493 0.76057 0.0
N422 N 0.37296 0.00852 0.59759 0.0
C423 C 0.32405 0.02854 0.65281 0.0
O424 O 0.49751 0.17707 0.03999 0.0
C425 C 0.48783 0.21018 0.95252 0.0
O426 O 0.46285 0.18624 0.86383 0.0
H427 H 0.45472 0.12126 0.67203 0.0
H428 H 0.31479 0.04478 0.8417 0.0
C429 C 0.6627 0.07461 0.21219 0.0
C430 C 0.69738 0.123 0.23043 0.0
C431 C 0.63634 0.09213 0.41053 0.0
C432 C 0.59024 0.08249 0.3214 0.0
N433 N 0.60427 0.09118 0.20153 0.0
N434 N 0.68488 0.12028 0.35923 0.0
H435 H 0.70195 0.0939 0.18039 0.0
C436 C 0.30442 0.14426 0.07542 0.0
O437 O 0.28492 0.10282 0.1437 0.0
O438 O 0.55779 0.1609 0.77437 0.0
H439 H 0.54618 0.07384 0.34897 0.0
H440 H 0.45883 0.03098 0.5439 0.0
H441 H 0.63324 0.08242 0.50405 0.0
Zn442 Zn 0.07777 0.8792 0.39645 0.0
C443 C 0.94426 0.01608 0.38608 0.0
N444 N 0.98936 0.05082 0.35083 0.0
C445 C 0.03858 0.01817 0.34166 0.0
N446 N 0.02984 0.96149 0.37448 0.0
N447 N 0.97344 0.95897 0.39095 0.0
C448 C 0.93866 0.83267 0.16397 0.0
O449 O 0.94921 0.88697 0.13705 0.0
O450 O 0.15102 0.84768 0.50492 0.0
Zn451 Zn 0.9489 0.87098 0.48472 0.0
N452 N 0.11515 0.8921 0.26226 0.0
C453 C 0.07516 0.94239 0.102 0.0
C454 C 0.07446 0.89496 0.17709 0.0
C455 C 0.16156 0.92731 0.26023 0.0
N456 N 0.12522 0.97342 0.09686 0.0
C457 C 0.17408 0.95297 0.15164 0.0
O458 O 0.00118 0.80612 0.53842 0.0
C459 C 0.01035 0.77302 0.45076 0.0
O460 O 0.03515 0.79702 0.36215 0.0
H461 H 0.04098 0.86402 0.17921 0.0
H462 H 0.18527 0.93638 0.33988 0.0
C463 C 0.84242 0.89838 0.71203 0.0
C464 C 0.80291 0.85691 0.73072 0.0
C465 C 0.86261 0.88811 0.91343 0.0
C466 C 0.91136 0.89351 0.82501 0.0
N467 N 0.89963 0.88364 0.70286 0.0
N468 N 0.8121 0.86379 0.85844 0.0
H469 H 0.82992 0.9438 0.73193 0.0
C470 C 0.19467 0.83847 0.57525 0.0
O471 O 0.21391 0.88057 0.64222 0.0
O472 O 0.93677 0.8194 0.28021 0.0
H473 H 0.95499 0.90254 0.85496 0.0
H474 H 0.03824 0.95287 0.04739 0.0
H475 H 0.86441 0.89962 0.00628 0.0
Zn476 Zn 0.5501 0.87158 -0.01187 0.0
C477 C 0.45938 0.01839 0.13334 0.0
N478 N 0.50842 0.05139 0.12408 0.0
C479 C 0.55284 0.01692 0.08497 0.0
N480 N 0.52423 0.95963 0.08001 0.0
N481 N 0.46803 0.96182 0.09895 0.0
C482 C 0.30351 0.8381 0.90127 0.0
O483 O 0.2842 0.88065 0.83568 0.0
O484 O 0.56246 0.82007 0.19311 0.0
Zn485 Zn 0.42058 0.87924 0.07868 0.0
N486 N 0.59996 0.88413 0.77049 0.0
C487 C 0.63737 0.88798 0.56027 0.0
C488 C 0.58847 0.89371 0.64819 0.0
C489 C 0.65729 0.89865 0.76168 0.0
N490 N 0.68773 0.86372 0.61597 0.0
C491 C 0.69671 0.85711 0.74389 0.0
O492 O 0.46384 0.79739 0.11187 0.0
C493 C 0.48844 0.77327 0.02311 0.0
O494 O 0.49774 0.8063 0.93529 0.0
H495 H 0.54491 0.90273 0.61781 0.0
H496 H 0.66994 0.94398 0.74129 0.0
C497 C 0.33752 0.92705 0.21651 0.0
C498 C 0.32506 0.95272 0.32517 0.0
C499 C 0.42392 0.94175 0.37512 0.0
C500 C 0.42463 0.89457 0.29933 0.0
N501 N 0.38399 0.89197 0.21404 0.0
N502 N 0.37391 0.97281 0.38065 0.0
H503 H 0.31312 0.93529 0.1374 0.0
C504 C 0.56049 0.83307 0.30954 0.0
O505 O 0.54968 0.88727 0.337 0.0
O506 O 0.34732 0.84675 0.97142 0.0
H507 H 0.4578 0.86325 0.29767 0.0
H508 H 0.63575 0.8993 0.4673 0.0
H509 H 0.46072 0.95185 0.43045 0.0
Zn510 Zn 0.94933 0.11241 0.49102 0.0
C511 C 0.03801 0.9647 0.63616 0.0
N512 N 0.98862 0.93233 0.62627 0.0
C513 C 0.94382 0.9673 0.59043 0.0
N514 N 0.97329 0.02426 0.58589 0.0
N515 N 0.02962 0.02151 0.60342 0.0
C516 C 0.19431 0.14377 0.40198 0.0
O517 O 0.21383 0.10132 0.3364 0.0
O518 O 0.93668 0.16419 0.69448 0.0
Zn519 Zn 0.07757 0.10383 0.58183 0.0
N520 N 0.90076 0.09958 0.2726 0.0
C521 C 0.8645 0.09395 0.06152 0.0
C522 C 0.913 0.08944 0.15073 0.0
C523 C 0.84371 0.08444 0.26281 0.0
N524 N 0.81359 0.11808 0.11527 0.0
C525 C 0.80382 0.12545 0.24273 0.0
O526 O 0.03516 0.18623 0.6147 0.0
C527 C 0.01107 0.21026 0.52526 0.0
O528 O 0.00214 0.17701 0.43772 0.0
H529 H 0.9568 0.08064 0.12156 0.0
H530 H 0.83166 0.03883 0.24355 0.0
C531 C 0.16026 0.05502 0.71732 0.0
C532 C 0.1725 0.02824 0.82497 0.0
C533 C 0.0741 0.04113 0.87669 0.0
C534 C 0.07431 0.08905 0.80279 0.0
N535 N 0.11462 0.09125 0.71668 0.0
N536 N 0.12336 0.00877 0.88023 0.0
H537 H 0.18392 0.04638 0.63736 0.0
C538 C 0.93869 0.15055 0.81039 0.0
O539 O 0.94969 0.09623 0.83624 0.0
O540 O 0.15067 0.13491 0.47252 0.0
H541 H 0.0422 0.12161 0.80402 0.0
H542 H 0.86672 0.08214 0.96888 0.0
H543 H 0.03731 0.03148 0.93233 0.0
loop_
_geom_bond_atom_site_label_1
_geom_bond_atom_site_label_2
_geom_bond_distance
_geom_bond_site_symmetry_2
_ccdc_geom_bond_type
Zn0 N4 2.020 . S
Zn0 O8 2.019 . S
Zn0 N10 2.119 . S
Zn0 O18 1.975 . S
C1 N2 1.334 . S
C1 N5 1.336 . S
N2 C1 1.334 . S
N2 C3 1.334 1_455 S
C3 N2 1.334 1_655 S
C3 N4 1.336 . S
N4 Zn0 2.020 . S
N4 C3 1.336 . S
N4 N5 1.354 1_655 S
N5 C1 1.336 . S
N5 N4 1.354 1_455 S
N5 Zn9 2.020 . S
C6 O7 1.244 . S
C6 O30 1.257 . S
O7 C6 1.244 . S
O8 Zn0 2.019 . S
O8 C28 1.257 . S
Zn9 N5 2.020 . S
Zn9 O16 1.975 . S
Zn9 N25 2.119 . S
Zn9 O30 2.019 . S
N10 Zn0 2.119 . S
N10 C12 1.334 . S
N10 C13 1.328 . S
C11 C12 1.391 . S
C11 N14 1.329 . S
C11 H32 0.930 . S
C12 N10 1.334 . S
C12 C11 1.391 . S
C12 H19 0.930 . S
C13 N10 1.328 . S
C13 C15 1.392 . S
C13 H20 0.930 . S
N14 C11 1.329 . S
N14 C15 1.331 . S
C15 C13 1.392 . S
C15 N14 1.331 . S
O16 Zn9 1.975 . S
O16 C17 1.252 . S
C17 O16 1.252 . S
C17 O18 1.252 1_455 S
O18 Zn0 1.975 . S
O18 C17 1.252 1_655 S
H19 C12 0.930 . S
H20 C13 0.930 . S
C21 C22 1.392 . S
C21 N25 1.328 . S
C21 H27 0.930 . S
C22 C21 1.392 . S
C22 N26 1.331 . S
C23 C24 1.391 . S
C23 N26 1.329 . S
C23 H33 0.930 . S
C24 C23 1.391 . S
C24 N25 1.334 . S
C24 H31 0.930 . S
N25 Zn9 2.119 . S
N25 C21 1.328 . S
N25 C24 1.334 . S
N26 C22 1.331 . S
N26 C23 1.329 . S
H27 C21 0.930 . S
C28 O8 1.257 . S
C28 O29 1.244 . S
O29 C28 1.244 . S
O30 C6 1.257 . S
O30 Zn9 2.019 . S
H31 C24 0.930 . S
H32 C11 0.930 . S
H33 C23 0.930 . S
Zn34 N38 2.020 . S
Zn34 O42 2.019 . S
Zn34 N44 2.119 . S
Zn34 O52 1.975 . S
C35 N36 1.334 . S
C35 N39 1.336 . S
N36 C35 1.334 . S
N36 C37 1.334 . S
C37 N36 1.334 . S
C37 N38 1.336 . S
N38 Zn34 2.020 . S
N38 C37 1.336 . S
N38 N39 1.354 . S
N39 C35 1.336 . S
N39 N38 1.354 . S
N39 Zn43 2.020 . S
C40 O41 1.244 . S
C40 O64 1.257 . S
O41 C40 1.244 . S
O42 Zn34 2.019 . S
O42 C62 1.257 . S
Zn43 N39 2.020 . S
Zn43 O50 1.975 . S
Zn43 N59 2.119 . S
Zn43 O64 2.019 . S
N44 Zn34 2.119 . S
N44 C46 1.334 . S
N44 C47 1.328 . S
C45 C46 1.391 . S
C45 N48 1.329 . S
C45 H66 0.930 . S
C46 N44 1.334 . S
C46 C45 1.391 . S
C46 H53 0.930 . S
C47 N44 1.328 . S
C47 C49 1.392 . S
C47 H54 0.930 . S
N48 C45 1.329 . S
N48 C49 1.331 . S
C49 C47 1.392 . S
C49 N48 1.331 . S
O50 Zn43 1.975 . S
O50 C51 1.252 . S
C51 O50 1.252 . S
C51 O52 1.252 . S
O52 Zn34 1.975 . S
O52 C51 1.252 . S
H53 C46 0.930 . S
H54 C47 0.930 . S
C55 C56 1.392 1_556 S
C55 N59 1.328 . S
C55 H61 0.930 . S
C56 C55 1.392 1_554 S
C56 N60 1.331 . S
C57 C58 1.391 1_554 S
C57 N60 1.329 . S
C57 H67 0.930 . S
C58 C57 1.391 1_556 S
C58 N59 1.334 . S
C58 H65 0.930 . S
N59 Zn43 2.119 . S
N59 C55 1.328 . S
N59 C58 1.334 . S
N60 C56 1.331 . S
N60 C57 1.329 . S
H61 C55 0.930 . S
C62 O42 1.257 . S
C62 O63 1.244 . S
O63 C62 1.244 . S
O64 C40 1.257 . S
O64 Zn43 2.019 . S
H65 C58 0.930 . S
H66 C45 0.930 . S
H67 C57 0.930 . S
Zn68 N72 2.020 . S
Zn68 O76 2.019 1_556 S
Zn68 N78 2.119 . S
Zn68 O86 1.975 1_556 S
C69 N70 1.334 . S
C69 N73 1.336 . S
N70 C69 1.334 . S
N70 C71 1.334 . S
C71 N70 1.334 . S
C71 N72 1.336 . S
N72 Zn68 2.020 . S
N72 C71 1.336 . S
N72 N73 1.354 . S
N73 C69 1.336 . S
N73 N72 1.354 . S
N73 Zn77 2.020 . S
C74 O75 1.244 . S
C74 O98 1.257 . S
O75 C74 1.244 . S
O76 Zn68 2.019 1_554 S
O76 C96 1.257 . S
Zn77 N73 2.020 . S
Zn77 O84 1.975 . S
Zn77 N93 2.119 1_556 S
Zn77 O98 2.019 . S
N78 Zn68 2.119 . S
N78 C80 1.334 . S
N78 C81 1.328 . S
C79 C80 1.391 . S
C79 N82 1.329 . S
C79 H100 0.930 . S
C80 N78 1.334 . S
C80 C79 1.391 . S
C80 H87 0.930 . S
C81 N78 1.328 . S
C81 C83 1.392 . S
C81 H88 0.930 . S
N82 C79 1.329 . S
N82 C83 1.331 . S
C83 C81 1.392 . S
C83 N82 1.331 . S
O84 Zn77 1.975 . S
O84 C85 1.252 . S
C85 O84 1.252 . S
C85 O86 1.252 1_556 S
O86 Zn68 1.975 1_554 S
O86 C85 1.252 1_554 S
H87 C80 0.930 . S
H88 C81 0.930 . S
C89 C90 1.392 . S
C89 N93 1.328 . S
C89 H95 0.930 . S
C90 C89 1.392 . S
C90 N94 1.331 . S
C91 C92 1.391 . S
C91 N94 1.329 . S
C91 H101 0.930 . S
C92 C91 1.391 . S
C92 N93 1.334 . S
C92 H99 0.930 . S
N93 Zn77 2.119 1_554 S
N93 C89 1.328 . S
N93 C92 1.334 . S
N94 C90 1.331 . S
N94 C91 1.329 . S
H95 C89 0.930 . S
C96 O76 1.257 . S
C96 O97 1.244 . S
O97 C96 1.244 . S
O98 C74 1.257 . S
O98 Zn77 2.019 . S
H99 C92 0.930 . S
H100 C79 0.930 . S
H101 C91 0.930 . S
Zn102 N106 2.020 . S
Zn102 O110 2.019 . S
Zn102 N112 2.119 . S
Zn102 O120 1.975 . S
C103 N104 1.334 . S
C103 N107 1.336 . S
N104 C103 1.334 . S
N104 C105 1.334 . S
C105 N104 1.334 . S
C105 N106 1.336 . S
N106 Zn102 2.020 . S
N106 C105 1.336 . S
N106 N107 1.354 . S
N107 C103 1.336 . S
N107 N106 1.354 . S
N107 Zn111 2.020 . S
C108 O109 1.244 1_554 S
C108 O132 1.257 . S
O109 C108 1.244 1_556 S
O110 Zn102 2.019 . S
O110 C130 1.257 . S
Zn111 N107 2.020 . S
Zn111 O118 1.975 . S
Zn111 N127 2.119 . S
Zn111 O132 2.019 . S
N112 Zn102 2.119 . S
N112 C114 1.334 1_554 S
N112 C115 1.328 . S
C113 C114 1.391 . S
C113 N116 1.329 . S
C113 H134 0.930 . S
C114 N112 1.334 1_556 S
C114 C113 1.391 . S
C114 H121 0.930 . S
C115 N112 1.328 . S
C115 C117 1.392 1_554 S
C115 H122 0.930 . S
N116 C113 1.329 . S
N116 C117 1.331 . S
C117 C115 1.392 1_556 S
C117 N116 1.331 . S
O118 Zn111 1.975 . S
O118 C119 1.252 . S
C119 O118 1.252 . S
C119 O120 1.252 . S
O120 Zn102 1.975 . S
O120 C119 1.252 . S
H121 C114 0.930 . S
H122 C115 0.930 . S
C123 C124 1.392 . S
C123 N127 1.328 . S
C123 H129 0.930 . S
C124 C123 1.392 . S
C124 N128 1.331 . S
C125 C126 1.391 . S
C125 N128 1.329 . S
C125 H135 0.930 . S
C126 C125 1.391 . S
C126 N127 1.334 . S
C126 H133 0.930 . S
N127 Zn111 2.119 . S
N127 C123 1.328 . S
N127 C126 1.334 . S
N128 C124 1.331 . S
N128 C125 1.329 . S
H129 C123 0.930 . S
C130 O110 1.257 . S
C130 O131 1.244 . S
O131 C130 1.244 . S
O132 C108 1.257 . S
O132 Zn111 2.019 . S
H133 C126 0.930 . S
H134 C113 0.930 . S
H135 C125 0.930 . S
Zn136 N140 2.020 . S
Zn136 O144 2.019 . S
Zn136 N146 2.119 . S
Zn136 O154 1.975 . S
C137 N138 1.334 1_655 S
C137 N141 1.336 . S
N138 C137 1.334 1_455 S
N138 C139 1.334 . S
C139 N138 1.334 . S
C139 N140 1.336 . S
N140 Zn136 2.020 . S
N140 C139 1.336 . S
N140 N141 1.354 1_455 S
N141 C137 1.336 . S
N141 N140 1.354 1_655 S
N141 Zn145 2.020 . S
C142 O143 1.244 . S
C142 O166 1.257 . S
O143 C142 1.244 . S
O144 Zn136 2.019 . S
O144 C164 1.257 . S
Zn145 N141 2.020 . S
Zn145 O152 1.975 . S
Zn145 N161 2.119 . S
Zn145 O166 2.019 . S
N146 Zn136 2.119 . S
N146 C148 1.334 . S
N146 C149 1.328 . S
C147 C148 1.391 . S
C147 N150 1.329 . S
C147 H168 0.930 . S
C148 N146 1.334 . S
C148 C147 1.391 . S
C148 H155 0.930 . S
C149 N146 1.328 . S
C149 C151 1.392 . S
C149 H156 0.930 . S
N150 C147 1.329 . S
N150 C151 1.331 . S
C151 C149 1.392 . S
C151 N150 1.331 . S
O152 Zn145 1.975 . S
O152 C153 1.252 1_655 S
C153 O152 1.252 1_455 S
C153 O154 1.252 . S
O154 Zn136 1.975 . S
O154 C153 1.252 . S
H155 C148 0.930 . S
H156 C149 0.930 . S
C157 C158 1.392 . S
C157 N161 1.328 . S
C157 H163 0.930 . S
C158 C157 1.392 . S
C158 N162 1.331 . S
C159 C160 1.391 . S
C159 N162 1.329 . S
C159 H169 0.930 . S
C160 C159 1.391 . S
C160 N161 1.334 . S
C160 H167 0.930 . S
N161 Zn145 2.119 . S
N161 C157 1.328 . S
N161 C160 1.334 . S
N162 C158 1.331 . S
N162 C159 1.329 . S
H163 C157 0.930 . S
C164 O144 1.257 . S
C164 O165 1.244 . S
O165 C164 1.244 . S
O166 C142 1.257 . S
O166 Zn145 2.019 . S
H167 C160 0.930 . S
H168 C147 0.930 . S
H169 C159 0.930 . S
Zn170 N174 2.020 . S
Zn170 O178 2.019 . S
Zn170 N180 2.119 . S
Zn170 O188 1.975 . S
C171 N172 1.334 . S
C171 N175 1.336 . S
N172 C171 1.334 . S
N172 C173 1.334 . S
C173 N172 1.334 . S
C173 N174 1.336 . S
N174 Zn170 2.020 . S
N174 C173 1.336 . S
N174 N175 1.354 . S
N175 C171 1.336 . S
N175 N174 1.354 . S
N175 Zn179 2.020 . S
C176 O177 1.244 1_556 S
C176 O200 1.257 . S
O177 C176 1.244 1_554 S
O178 Zn170 2.019 . S
O178 C198 1.257 . S
Zn179 N175 2.020 . S
Zn179 O186 1.975 . S
Zn179 N195 2.119 . S
Zn179 O200 2.019 . S
N180 Zn170 2.119 . S
N180 C182 1.334 1_556 S
N180 C183 1.328 . S
C181 C182 1.391 . S
C181 N184 1.329 . S
C181 H202 0.930 . S
C182 N180 1.334 1_554 S
C182 C181 1.391 . S
C182 H189 0.930 . S
C183 N180 1.328 . S
C183 C185 1.392 1_556 S
C183 H190 0.930 . S
N184 C181 1.329 . S
N184 C185 1.331 . S
C185 C183 1.392 1_554 S
C185 N184 1.331 . S
O186 Zn179 1.975 . S
O186 C187 1.252 . S
C187 O186 1.252 . S
C187 O188 1.252 . S
O188 Zn170 1.975 . S
O188 C187 1.252 . S
H189 C182 0.930 . S
H190 C183 0.930 . S
C191 C192 1.392 . S
C191 N195 1.328 . S
C191 H197 0.930 . S
C192 C191 1.392 . S
C192 N196 1.331 . S
C193 C194 1.391 . S
C193 N196 1.329 . S
C193 H203 0.930 . S
C194 C193 1.391 . S
C194 N195 1.334 . S
C194 H201 0.930 . S
N195 Zn179 2.119 . S
N195 C191 1.328 . S
N195 C194 1.334 . S
N196 C192 1.331 . S
N196 C193 1.329 . S
H197 C191 0.930 . S
C198 O178 1.257 . S
C198 O199 1.244 . S
O199 C198 1.244 . S
O200 C176 1.257 . S
O200 Zn179 2.019 . S
H201 C194 0.930 . S
H202 C181 0.930 . S
H203 C193 0.930 . S
Zn204 N208 2.020 . S
Zn204 O212 2.019 . S
Zn204 N214 2.119 1_554 S
Zn204 O222 1.975 . S
C205 N206 1.334 . S
C205 N209 1.336 . S
N206 C205 1.334 . S
N206 C207 1.334 . S
C207 N206 1.334 . S
C207 N208 1.336 . S
N208 Zn204 2.020 . S
N208 C207 1.336 . S
N208 N209 1.354 . S
N209 C205 1.336 . S
N209 N208 1.354 . S
N209 Zn213 2.020 . S
C210 O211 1.244 . S
C210 O234 1.257 . S
O211 C210 1.244 . S
O212 Zn204 2.019 . S
O212 C232 1.257 . S
Zn213 N209 2.020 . S
Zn213 O220 1.975 1_554 S
Zn213 N229 2.119 . S
Zn213 O234 2.019 1_554 S
N214 Zn204 2.119 1_556 S
N214 C216 1.334 . S
N214 C217 1.328 . S
C215 C216 1.391 . S
C215 N218 1.329 . S
C215 H236 0.930 . S
C216 N214 1.334 . S
C216 C215 1.391 . S
C216 H223 0.930 . S
C217 N214 1.328 . S
C217 C219 1.392 . S
C217 H224 0.930 . S
N218 C215 1.329 . S
N218 C219 1.331 . S
C219 C217 1.392 . S
C219 N218 1.331 . S
O220 Zn213 1.975 1_556 S
O220 C221 1.252 1_556 S
C221 O220 1.252 1_554 S
C221 O222 1.252 . S
O222 Zn204 1.975 . S
O222 C221 1.252 . S
H223 C216 0.930 . S
H224 C217 0.930 . S
C225 C226 1.392 . S
C225 N229 1.328 . S
C225 H231 0.930 . S
C226 C225 1.392 . S
C226 N230 1.331 . S
C227 C228 1.391 . S
C227 N230 1.329 . S
C227 H237 0.930 . S
C228 C227 1.391 . S
C228 N229 1.334 . S
C228 H235 0.930 . S
N229 Zn213 2.119 . S
N229 C225 1.328 . S
N229 C228 1.334 . S
N230 C226 1.331 . S
N230 C227 1.329 . S
H231 C225 0.930 . S
C232 O212 1.257 . S
C232 O233 1.244 . S
O233 C232 1.244 . S
O234 C210 1.257 . S
O234 Zn213 2.019 1_556 S
H235 C228 0.930 . S
H236 C215 0.930 . S
H237 C227 0.930 . S
Zn238 N242 2.020 . S
Zn238 O246 2.019 . S
Zn238 N248 2.119 . S
Zn238 O256 1.975 . S
C239 N240 1.334 . S
C239 N243 1.336 . S
N240 C239 1.334 . S
N240 C241 1.334 . S
C241 N240 1.334 . S
C241 N242 1.336 . S
N242 Zn238 2.020 . S
N242 C241 1.336 . S
N242 N243 1.354 . S
N243 C239 1.336 . S
N243 N242 1.354 . S
N243 Zn247 2.020 . S
C244 O245 1.244 . S
C244 O268 1.257 . S
O245 C244 1.244 . S
O246 Zn238 2.019 . S
O246 C266 1.257 . S
Zn247 N243 2.020 . S
Zn247 O254 1.975 . S
Zn247 N263 2.119 . S
Zn247 O268 2.019 . S
N248 Zn238 2.119 . S
N248 C250 1.334 . S
N248 C251 1.328 . S
C249 C250 1.391 1_556 S
C249 N252 1.329 . S
C249 H270 0.930 . S
C250 N248 1.334 . S
C250 C249 1.391 1_554 S
C250 H257 0.930 . S
C251 N248 1.328 . S
C251 C253 1.392 1_554 S
C251 H258 0.930 . S
N252 C249 1.329 . S
N252 C253 1.331 . S
C253 C251 1.392 1_556 S
C253 N252 1.331 . S
O254 Zn247 1.975 . S
O254 C255 1.252 . S
C255 O254 1.252 . S
C255 O256 1.252 . S
O256 Zn238 1.975 . S
O256 C255 1.252 . S
H257 C250 0.930 . S
H258 C251 0.930 . S
C259 C260 1.392 . S
C259 N263 1.328 . S
C259 H265 0.930 . S
C260 C259 1.392 . S
C260 N264 1.331 . S
C261 C262 1.391 . S
C261 N264 1.329 . S
C261 H271 0.930 . S
C262 C261 1.391 . S
C262 N263 1.334 . S
C262 H269 0.930 . S
N263 Zn247 2.119 . S
N263 C259 1.328 . S
N263 C262 1.334 . S
N264 C260 1.331 . S
N264 C261 1.329 . S
H265 C259 0.930 . S
C266 O246 1.257 . S
C266 O267 1.244 . S
O267 C266 1.244 . S
O268 C244 1.257 . S
O268 Zn247 2.019 . S
H269 C262 0.930 . S
H270 C249 0.930 . S
H271 C261 0.930 . S
Zn272 N276 2.020 . S
Zn272 O280 2.019 . S
Zn272 N282 2.119 . S
Zn272 O290 1.975 . S
C273 N274 1.334 . S
C273 N277 1.336 . S
N274 C273 1.334 . S
N274 C275 1.334 . S
C275 N274 1.334 . S
C275 N276 1.336 . S
N276 Zn272 2.020 . S
N276 C275 1.336 . S
N276 N277 1.354 . S
N277 C273 1.336 . S
N277 N276 1.354 . S
N277 Zn281 2.020 . S
C278 O279 1.244 . S
C278 O302 1.257 . S
O279 C278 1.244 . S
O280 Zn272 2.019 . S
O280 C300 1.257 . S
Zn281 N277 2.020 . S
Zn281 O288 1.975 . S
Zn281 N297 2.119 . S
Zn281 O302 2.019 . S
N282 Zn272 2.119 . S
N282 C284 1.334 . S
N282 C285 1.328 . S
C283 C284 1.391 . S
C283 N286 1.329 . S
C283 H304 0.930 . S
C284 N282 1.334 . S
C284 C283 1.391 . S
C284 H291 0.930 . S
C285 N282 1.328 . S
C285 C287 1.392 . S
C285 H292 0.930 . S
N286 C283 1.329 . S
N286 C287 1.331 . S
C287 C285 1.392 . S
C287 N286 1.331 . S
O288 Zn281 1.975 . S
O288 C289 1.252 . S
C289 O288 1.252 . S
C289 O290 1.252 . S
O290 Zn272 1.975 . S
O290 C289 1.252 . S
H291 C284 0.930 . S
H292 C285 0.930 . S
C293 C294 1.392 1_554 S
C293 N297 1.328 . S
C293 H299 0.930 . S
C294 C293 1.392 1_556 S
C294 N298 1.331 . S
C295 C296 1.391 1_556 S
C295 N298 1.329 . S
C295 H305 0.930 . S
C296 C295 1.391 1_554 S
C296 N297 1.334 . S
C296 H303 0.930 . S
N297 Zn281 2.119 . S
N297 C293 1.328 . S
N297 C296 1.334 . S
N298 C294 1.331 . S
N298 C295 1.329 . S
H299 C293 0.930 . S
C300 O280 1.257 . S
C300 O301 1.244 . S
O301 C300 1.244 . S
O302 C278 1.257 . S
O302 Zn281 2.019 . S
H303 C296 0.930 . S
H304 C283 0.930 . S
H305 C295 0.930 . S
Zn306 N310 2.020 . S
Zn306 O314 2.019 . S
Zn306 N316 2.119 . S
Zn306 O324 1.975 . S
C307 N308 1.334 . S
C307 N311 1.336 . S
N308 C307 1.334 . S
N308 C309 1.334 . S
C309 N308 1.334 . S
C309 N310 1.336 . S
N310 Zn306 2.020 . S
N310 C309 1.336 . S
N310 N311 1.354 . S
N311 C307 1.336 . S
N311 N310 1.354 . S
N311 Zn315 2.020 . S
C312 O313 1.244 . S
C312 O336 1.257 . S
O313 C312 1.244 . S
O314 Zn306 2.019 . S
O314 C334 1.257 . S
Zn315 N311 2.020 . S
Zn315 O322 1.975 . S
Zn315 N331 2.119 . S
Zn315 O336 2.019 . S
N316 Zn306 2.119 . S
N316 C318 1.334 . S
N316 C319 1.328 . S
C317 C318 1.391 . S
C317 N320 1.329 . S
C317 H338 0.930 . S
C318 N316 1.334 . S
C318 C317 1.391 . S
C318 H325 0.930 . S
C319 N316 1.328 . S
C319 C321 1.392 . S
C319 H326 0.930 . S
N320 C317 1.329 . S
N320 C321 1.331 . S
C321 C319 1.392 . S
C321 N320 1.331 . S
O322 Zn315 1.975 . S
O322 C323 1.252 . S
C323 O322 1.252 . S
C323 O324 1.252 . S
O324 Zn306 1.975 . S
O324 C323 1.252 . S
H325 C318 0.930 . S
H326 C319 0.930 . S
C327 C328 1.392 1_556 S
C327 N331 1.328 . S
C327 H333 0.930 . S
C328 C327 1.392 1_554 S
C328 N332 1.331 . S
C329 C330 1.391 . S
C329 N332 1.329 . S
C329 H339 0.930 . S
C330 C329 1.391 . S
C330 N331 1.334 1_554 S
C330 H337 0.930 . S
N331 Zn315 2.119 . S
N331 C327 1.328 . S
N331 C330 1.334 1_556 S
N332 C328 1.331 . S
N332 C329 1.329 . S
H333 C327 0.930 . S
C334 O314 1.257 . S
C334 O335 1.244 1_556 S
O335 C334 1.244 1_554 S
O336 C312 1.257 . S
O336 Zn315 2.019 . S
H337 C330 0.930 . S
H338 C317 0.930 . S
H339 C329 0.930 . S
Zn340 N344 2.020 . S
Zn340 O348 2.019 . S
Zn340 N350 2.119 . S
Zn340 O358 1.975 . S
C341 N342 1.334 . S
C341 N345 1.336 . S
N342 C341 1.334 . S
N342 C343 1.334 . S
C343 N342 1.334 . S
C343 N344 1.336 . S
N344 Zn340 2.020 . S
N344 C343 1.336 . S
N344 N345 1.354 . S
N345 C341 1.336 . S
N345 N344 1.354 . S
N345 Zn349 2.020 . S
C346 O347 1.244 1_554 S
C346 O370 1.257 . S
O347 C346 1.244 1_556 S
O348 Zn340 2.019 . S
O348 C368 1.257 . S
Zn349 N345 2.020 . S
Zn349 O356 1.975 . S
Zn349 N365 2.119 . S
Zn349 O370 2.019 . S
N350 Zn340 2.119 . S
N350 C352 1.334 1_554 S
N350 C353 1.328 . S
C351 C352 1.391 . S
C351 N354 1.329 . S
C351 H372 0.930 . S
C352 N350 1.334 1_556 S
C352 C351 1.391 . S
C352 H359 0.930 . S
C353 N350 1.328 . S
C353 C355 1.392 1_554 S
C353 H360 0.930 . S
N354 C351 1.329 . S
N354 C355 1.331 . S
C355 C353 1.392 1_556 S
C355 N354 1.331 . S
O356 Zn349 1.975 . S
O356 C357 1.252 . S
C357 O356 1.252 . S
C357 O358 1.252 . S
O358 Zn340 1.975 . S
O358 C357 1.252 . S
H359 C352 0.930 . S
H360 C353 0.930 . S
C361 C362 1.392 . S
C361 N365 1.328 . S
C361 H367 0.930 . S
C362 C361 1.392 . S
C362 N366 1.331 . S
C363 C364 1.391 . S
C363 N366 1.329 . S
C363 H373 0.930 . S
C364 C363 1.391 . S
C364 N365 1.334 . S
C364 H371 0.930 . S
N365 Zn349 2.119 . S
N365 C361 1.328 . S
N365 C364 1.334 . S
N366 C362 1.331 . S
N366 C363 1.329 . S
H367 C361 0.930 . S
C368 O348 1.257 . S
C368 O369 1.244 . S
O369 C368 1.244 . S
O370 C346 1.257 . S
O370 Zn349 2.019 . S
H371 C364 0.930 . S
H372 C351 0.930 . S
H373 C363 0.930 . S
Zn374 N378 2.020 . S
Zn374 O382 2.019 . S
Zn374 N384 2.119 . S
Zn374 O392 1.975 . S
C375 N376 1.334 . S
C375 N379 1.336 . S
N376 C375 1.334 . S
N376 C377 1.334 . S
C377 N376 1.334 . S
C377 N378 1.336 . S
N378 Zn374 2.020 . S
N378 C377 1.336 . S
N378 N379 1.354 . S
N379 C375 1.336 . S
N379 N378 1.354 . S
N379 Zn383 2.020 . S
C380 O381 1.244 . S
C380 O404 1.257 . S
O381 C380 1.244 . S
O382 Zn374 2.019 . S
O382 C402 1.257 . S
Zn383 N379 2.020 . S
Zn383 O390 1.975 . S
Zn383 N399 2.119 . S
Zn383 O404 2.019 . S
N384 Zn374 2.119 . S
N384 C386 1.334 . S
N384 C387 1.328 . S
C385 C386 1.391 1_554 S
C385 N388 1.329 . S
C385 H406 0.930 . S
C386 N384 1.334 . S
C386 C385 1.391 1_556 S
C386 H393 0.930 . S
C387 N384 1.328 . S
C387 C389 1.392 1_556 S
C387 H394 0.930 . S
N388 C385 1.329 . S
N388 C389 1.331 . S
C389 C387 1.392 1_554 S
C389 N388 1.331 . S
O390 Zn383 1.975 . S
O390 C391 1.252 . S
C391 O390 1.252 . S
C391 O392 1.252 . S
O392 Zn374 1.975 . S
O392 C391 1.252 . S
H393 C386 0.930 . S
H394 C387 0.930 . S
C395 C396 1.392 . S
C395 N399 1.328 . S
C395 H401 0.930 . S
C396 C395 1.392 . S
C396 N400 1.331 . S
C397 C398 1.391 . S
C397 N400 1.329 . S
C397 H407 0.930 . S
C398 C397 1.391 . S
C398 N399 1.334 . S
C398 H405 0.930 . S
N399 Zn383 2.119 . S
N399 C395 1.328 . S
N399 C398 1.334 . S
N400 C396 1.331 . S
N400 C397 1.329 . S
H401 C395 0.930 . S
C402 O382 1.257 . S
C402 O403 1.244 . S
O403 C402 1.244 . S
O404 C380 1.257 . S
O404 Zn383 2.019 . S
H405 C398 0.930 . S
H406 C385 0.930 . S
H407 C397 0.930 . S
Zn408 N412 2.020 . S
Zn408 O416 2.019 1_556 S
Zn408 N418 2.119 . S
Zn408 O426 1.975 1_556 S
C409 N410 1.334 . S
C409 N413 1.336 1_565 S
N410 C409 1.334 . S
N410 C411 1.334 . S
C411 N410 1.334 . S
C411 N412 1.336 1_565 S
N412 Zn408 2.020 . S
N412 C411 1.336 1_545 S
N412 N413 1.354 . S
N413 C409 1.336 1_545 S
N413 N412 1.354 . S
N413 Zn417 2.020 . S
C414 O415 1.244 . S
C414 O438 1.257 . S
O415 C414 1.244 . S
O416 Zn408 2.019 1_554 S
O416 C436 1.257 . S
Zn417 N413 2.020 . S
Zn417 O424 1.975 . S
Zn417 N433 2.119 1_556 S
Zn417 O438 2.019 . S
N418 Zn408 2.119 . S
N418 C420 1.334 . S
N418 C421 1.328 . S
C419 C420 1.391 . S
C419 N422 1.329 . S
C419 H440 0.930 . S
C420 N418 1.334 . S
C420 C419 1.391 . S
C420 H427 0.930 . S
C421 N418 1.328 . S
C421 C423 1.392 . S
C421 H428 0.930 . S
N422 C419 1.329 . S
N422 C423 1.331 . S
C423 C421 1.392 . S
C423 N422 1.331 . S
O424 Zn417 1.975 . S
O424 C425 1.252 . S
C425 O424 1.252 . S
C425 O426 1.252 1_556 S
O426 Zn408 1.975 1_554 S
O426 C425 1.252 1_554 S
H427 C420 0.930 . S
H428 C421 0.930 . S
C429 C430 1.392 . S
C429 N433 1.328 . S
C429 H435 0.930 . S
C430 C429 1.392 . S
C430 N434 1.331 . S
C431 C432 1.391 . S
C431 N434 1.329 . S
C431 H441 0.930 . S
C432 C431 1.391 . S
C432 N433 1.334 . S
C432 H439 0.930 . S
N433 Zn417 2.119 1_554 S
N433 C429 1.328 . S
N433 C432 1.334 . S
N434 C430 1.331 . S
N434 C431 1.329 . S
H435 C429 0.930 . S
C436 O416 1.257 . S
C436 O437 1.244 . S
O437 C436 1.244 . S
O438 C414 1.257 . S
O438 Zn417 2.019 . S
H439 C432 0.930 . S
H440 C419 0.930 . S
H441 C431 0.930 . S
Zn442 N446 2.020 . S
Zn442 O450 2.019 . S
Zn442 N452 2.119 . S
Zn442 O460 1.975 . S
C443 N444 1.334 1_655 S
C443 N447 1.336 1_545 S
N444 C443 1.334 1_455 S
N444 C445 1.334 . S
C445 N444 1.334 . S
C445 N446 1.336 1_545 S
N446 Zn442 2.020 . S
N446 C445 1.336 1_565 S
N446 N447 1.354 1_455 S
N447 C443 1.336 1_565 S
N447 N446 1.354 1_655 S
N447 Zn451 2.020 . S
C448 O449 1.244 . S
C448 O472 1.257 . S
O449 C448 1.244 . S
O450 Zn442 2.019 . S
O450 C470 1.257 . S
Zn451 N447 2.020 . S
Zn451 O458 1.975 . S
Zn451 N467 2.119 . S
Zn451 O472 2.019 . S
N452 Zn442 2.119 . S
N452 C454 1.334 . S
N452 C455 1.328 . S
C453 C454 1.391 . S
C453 N456 1.329 . S
C453 H474 0.930 . S
C454 N452 1.334 . S
C454 C453 1.391 . S
C454 H461 0.930 . S
C455 N452 1.328 . S
C455 C457 1.392 . S
C455 H462 0.930 . S
N456 C453 1.329 . S
N456 C457 1.331 . S
C457 C455 1.392 . S
C457 N456 1.331 . S
O458 Zn451 1.975 . S
O458 C459 1.252 1_655 S
C459 O458 1.252 1_455 S
C459 O460 1.252 . S
O460 Zn442 1.975 . S
O460 C459 1.252 . S
H461 C454 0.930 . S
H462 C455 0.930 . S
C463 C464 1.392 . S
C463 N467 1.328 . S
C463 H469 0.930 . S
C464 C463 1.392 . S
C464 N468 1.331 . S
C465 C466 1.391 . S
C465 N468 1.329 . S
C465 H475 0.930 . S
C466 C465 1.391 . S
C466 N467 1.334 . S
C466 H473 0.930 . S
N467 Zn451 2.119 . S
N467 C463 1.328 . S
N467 C466 1.334 . S
N468 C464 1.331 . S
N468 C465 1.329 . S
H469 C463 0.930 . S
C470 O450 1.257 . S
C470 O471 1.244 . S
O471 C470 1.244 . S
O472 C448 1.257 . S
O472 Zn451 2.019 . S
H473 C466 0.930 . S
H474 C453 0.930 . S
H475 C465 0.930 . S
Zn476 N480 2.020 . S
Zn476 O484 2.019 . S
Zn476 N486 2.119 1_554 S
Zn476 O494 1.975 . S
C477 N478 1.334 . S
C477 N481 1.336 1_545 S
N478 C477 1.334 . S
N478 C479 1.334 . S
C479 N478 1.334 . S
C479 N480 1.336 1_545 S
N480 Zn476 2.020 . S
N480 C479 1.336 1_565 S
N480 N481 1.354 . S
N481 C477 1.336 1_565 S
N481 N480 1.354 . S
N481 Zn485 2.020 . S
C482 O483 1.244 . S
C482 O506 1.257 . S
O483 C482 1.244 . S
O484 Zn476 2.019 . S
O484 C504 1.257 . S
Zn485 N481 2.020 . S
Zn485 O492 1.975 1_554 S
Zn485 N501 2.119 . S
Zn485 O506 2.019 1_554 S
N486 Zn476 2.119 1_556 S
N486 C488 1.334 . S
N486 C489 1.328 . S
C487 C488 1.391 . S
C487 N490 1.329 . S
C487 H508 0.930 . S
C488 N486 1.334 . S
C488 C487 1.391 . S
C488 H495 0.930 . S
C489 N486 1.328 . S
C489 C491 1.392 . S
C489 H496 0.930 . S
N490 C487 1.329 . S
N490 C491 1.331 . S
C491 C489 1.392 . S
C491 N490 1.331 . S
O492 Zn485 1.975 1_556 S
O492 C493 1.252 1_556 S
C493 O492 1.252 1_554 S
C493 O494 1.252 . S
O494 Zn476 1.975 . S
O494 C493 1.252 . S
H495 C488 0.930 . S
H496 C489 0.930 . S
C497 C498 1.392 . S
C497 N501 1.328 . S
C497 H503 0.930 . S
C498 C497 1.392 . S
C498 N502 1.331 . S
C499 C500 1.391 . S
C499 N502 1.329 . S
C499 H509 0.930 . S
C500 C499 1.391 . S
C500 N501 1.334 . S
C500 H507 0.930 . S
N501 Zn485 2.119 . S
N501 C497 1.328 . S
N501 C500 1.334 . S
N502 C498 1.331 . S
N502 C499 1.329 . S
H503 C497 0.930 . S
C504 O484 1.257 . S
C504 O505 1.244 . S
O505 C504 1.244 . S
O506 C482 1.257 . S
O506 Zn485 2.019 1_556 S
H507 C500 0.930 . S
H508 C487 0.930 . S
H509 C499 0.930 . S
Zn510 N514 2.020 . S
Zn510 O518 2.019 . S
Zn510 N520 2.119 . S
Zn510 O528 1.975 . S
C511 N512 1.334 . S
C511 N515 1.336 1_565 S
N512 C511 1.334 . S
N512 C513 1.334 1_455 S
C513 N512 1.334 1_655 S
C513 N514 1.336 1_565 S
N514 Zn510 2.020 . S
N514 C513 1.336 1_545 S
N514 N515 1.354 1_655 S
N515 C511 1.336 1_545 S
N515 N514 1.354 1_455 S
N515 Zn519 2.020 . S
C516 O517 1.244 . S
C516 O540 1.257 . S
O517 C516 1.244 . S
O518 Zn510 2.019 . S
O518 C538 1.257 . S
Zn519 N515 2.020 . S
Zn519 O526 1.975 . S
Zn519 N535 2.119 . S
Zn519 O540 2.019 . S
N520 Zn510 2.119 . S
N520 C522 1.334 . S
N520 C523 1.328 . S
C521 C522 1.391 . S
C521 N524 1.329 . S
C521 H542 0.930 . S
C522 N520 1.334 . S
C522 C521 1.391 . S
C522 H529 0.930 . S
C523 N520 1.328 . S
C523 C525 1.392 . S
C523 H530 0.930 . S
N524 C521 1.329 . S
N524 C525 1.331 . S
C525 C523 1.392 . S
C525 N524 1.331 . S
O526 Zn519 1.975 . S
O526 C527 1.252 . S
C527 O526 1.252 . S
C527 O528 1.252 1_455 S
O528 Zn510 1.975 . S
O528 C527 1.252 1_655 S
H529 C522 0.930 . S
H530 C523 0.930 . S
C531 C532 1.392 . S
C531 N535 1.328 . S
C531 H537 0.930 . S
C532 C531 1.392 . S
C532 N536 1.331 . S
C533 C534 1.391 . S
C533 N536 1.329 . S
C533 H543 0.930 . S
C534 C533 1.391 . S
C534 N535 1.334 . S
C534 H541 0.930 . S
N535 Zn519 2.119 . S
N535 C531 1.328 . S
N535 C534 1.334 . S
N536 C532 1.331 . S
N536 C533 1.329 . S
H537 C531 0.930 . S
C538 O518 1.257 . S
C538 O539 1.244 . S
O539 C538 1.244 . S
O540 C516 1.257 . S
O540 Zn519 2.019 . S
H541 C534 0.930 . S
H542 C521 0.930 . S
H543 C533 0.930 . S
C334 C6 3.237 1_556 S
C40 C504 3.238 . S
C74 C278 3.237 . S
C108 C538 3.238 1_554 S
C346 C164 3.237 1_554 S
C176 C448 3.238 1_556 S
C402 C232 3.237 . S
C414 C266 3.238 . S
C158 C117 2.450 . S
C287 C423 2.450 . S
C49 C226 2.450 . S
C457 C328 2.450 . S
C185 C15 2.450 . S
C355 C532 2.450 . S
C83 C260 2.450 . S
C396 C498 2.450 . S
C362 C1 2.757 . S
C35 C464 2.757 . S
C69 C389 2.757 1_556 S
C430 C103 2.757 . S
C321 C139 2.757 . S
C171 C491 2.757 . S
C294 C207 2.757 1_556 S
C525 C241 2.757 . S
C198 C137 2.909 . S
C516 C275 2.909 . S
C205 C244 2.909 . S
C482 C307 2.909 . S
C130 C3 2.909 . S
C343 C436 2.909 . S
C62 C71 2.909 . S
C375 C470 2.909 . S
C409 C56 2.757 1_556 S
C341 C90 2.757 . S
C443 C124 2.757 . S
C377 C22 2.757 . S
C253 C479 2.757 1_556 S
C273 C151 2.757 . S
C513 C192 2.757 . S
C309 C219 2.757 . S
C300 C477 2.909 . S
C173 C210 2.909 . S
C312 C511 2.909 . S
C239 C142 2.909 . S
C411 C380 2.909 . S
C37 C28 2.909 . S
C368 C445 2.909 . S
C105 C96 2.909 . S
C459 C17 2.919 . S
C391 C51 2.919 . S
C85 C425 2.919 . S
C357 C119 2.919 1_455 S
C153 C527 2.919 . S
C323 C187 2.919 1_455 S
C221 C493 2.919 . S
C255 C289 2.919 . S
