# Generated by pormake.
# Topology umj, (4)-cn, num edge types: 1
# Building blocks:
#     Node 0, Type 0, BuildingBlock: ICAMEG_clean_sbu_1, # of connection points: 4
#     Node 1, Type 0, BuildingBlock: ICAMEG_clean_sbu_1, # of connection points: 4
#     Node 2, Type 0, BuildingBlock: ICAMEG_clean_sbu_1, # of connection points: 4
#     Node 3, Type 0, BuildingBlock: ICAMEG_clean_sbu_1, # of connection points: 4
#     Node 4, Type 0, BuildingBlock: ICAMEG_clean_sbu_1, # of connection points: 4
#     Node 5, Type 0, BuildingBlock: ICAMEG_clean_sbu_1, # of connection points: 4
#     Node 6, Type 0, BuildingBlock: ICAMEG_clean_sbu_1, # of connection points: 4
#     Node 7, Type 0, BuildingBlock: ICAMEG_clean_sbu_1, # of connection points: 4
#     Node 8, Type 0, BuildingBlock: ICAMEG_clean_sbu_1, # of connection points: 4
#     Node 9, Type 0, BuildingBlock: ICAMEG_clean_sbu_1, # of connection points: 4
#     Node 10, Type 0, BuildingBlock: ICAMEG_clean_sbu_1, # of connection points: 4
#     Node 11, Type 0, BuildingBlock: ICAMEG_clean_sbu_1, # of connection points: 4
#     Edge 12, Type (0, 0), BuildingBlock: TEMPAE_clean_linker_10, # of connection points: 2
#     Edge 13, Type (0, 0), BuildingBlock: TEMPAE_clean_linker_10, # of connection points: 2
#     Edge 14, Type (0, 0), BuildingBlock: TEMPAE_clean_linker_10, # of connection points: 2
#     Edge 15, Type (0, 0), BuildingBlock: TEMPAE_clean_linker_10, # of connection points: 2
#     Edge 16, Type (0, 0), BuildingBlock: TEMPAE_clean_linker_10, # of connection points: 2
#     Edge 17, Type (0, 0), BuildingBlock: TEMPAE_clean_linker_10, # of connection points: 2
#     Edge 18, Type (0, 0), BuildingBlock: TEMPAE_clean_linker_10, # of connection points: 2
#     Edge 19, Type (0, 0), BuildingBlock: TEMPAE_clean_linker_10, # of connection points: 2
#     Edge 20, Type (0, 0), BuildingBlock: TEMPAE_clean_linker_10, # of connection points: 2
#     Edge 21, Type (0, 0), BuildingBlock: TEMPAE_clean_linker_10, # of connection points: 2
#     Edge 22, Type (0, 0), BuildingBlock: TEMPAE_clean_linker_10, # of connection points: 2
#     Edge 23, Type (0, 0), BuildingBlock: TEMPAE_clean_linker_10, # of connection points: 2
#     Edge 24, Type (0, 0), BuildingBlock: TEMPAE_clean_linker_10, # of connection points: 2
#     Edge 25, Type (0, 0), BuildingBlock: TEMPAE_clean_linker_10, # of connection points: 2
#     Edge 26, Type (0, 0), BuildingBlock: TEMPAE_clean_linker_10, # of connection points: 2
#     Edge 27, Type (0, 0), BuildingBlock: TEMPAE_clean_linker_10, # of connection points: 2
#     Edge 28, Type (0, 0), BuildingBlock: TEMPAE_clean_linker_10, # of connection points: 2
#     Edge 29, Type (0, 0), BuildingBlock: TEMPAE_clean_linker_10, # of connection points: 2
#     Edge 30, Type (0, 0), BuildingBlock: TEMPAE_clean_linker_10, # of connection points: 2
#     Edge 31, Type (0, 0), BuildingBlock: TEMPAE_clean_linker_10, # of connection points: 2
#     Edge 32, Type (0, 0), BuildingBlock: TEMPAE_clean_linker_10, # of connection points: 2
#     Edge 33, Type (0, 0), BuildingBlock: TEMPAE_clean_linker_10, # of connection points: 2
#     Edge 34, Type (0, 0), BuildingBlock: TEMPAE_clean_linker_10, # of connection points: 2
#     Edge 35, Type (0, 0), BuildingBlock: TEMPAE_clean_linker_10, # of connection points: 2
# Relax obj value: 0.069
# Max RMSD: 0.260
# Mean RMSD: 0.228
data_MOF--net-umj--node1-ICAMEG_clean_sbu_1--edge1-TEMPAE_clean_linker_10
_symmetry_space_group_name_H-M    P1
_symmetry_Int_Tables_number       1
_symmetry_cell_setting            triclinic
loop_
_symmetry_equiv_pos_as_xyz
'x, y, z'
_cell_length_a     30.97649
_cell_length_b     31.001098
_cell_length_c     89.889351
_cell_angle_alpha  90.013351
_cell_angle_beta   89.988143
_cell_angle_gamma 119.96712
loop_
_atom_site_label
_atom_site_type_symbol
_atom_site_fract_x
_atom_site_fract_y
_atom_site_fract_z
_atom_type_partial_charge
Co0 Co 0.09127 0.27832 0.08481 0.0
Co1 Co 0.9827 0.24894 0.06614 0.0
O2 O 0.03094 0.28161 0.08193 0.0
C3 C 0.03166 0.2351 0.11169 0.0
O4 O 0.99523 0.20807 0.10246 0.0
C5 C 0.0203 0.35554 0.06208 0.0
O6 O 0.06474 0.36026 0.06264 0.0
O7 O 0.03609 0.27109 0.05102 0.0
O8 O 0.10715 0.28851 0.06295 0.0
H9 H 0.91064 0.14262 0.02061 0.0
H10 H 0.07319 0.34745 0.10309 0.0
O11 O 0.07464 0.26667 0.10666 0.0
H12 H 0.22979 0.45389 0.07609 0.0
H13 H 0.24592 0.31325 0.11286 0.0
H14 H 0.14119 0.23121 0.06896 0.0
H15 H 0.18554 0.36263 0.07295 0.0
H16 H 0.16972 0.31771 0.10818 0.0
O17 O 0.98136 0.31266 0.06328 0.0
H18 H 0.97159 0.1825 0.0409 0.0
H19 H 0.8904 0.24948 0.05733 0.0
H20 H 0.2172 0.22606 0.07314 0.0
H21 H 0.11635 0.43849 0.10663 0.0
H22 H 0.27015 0.2673 0.09523 0.0
H23 H 0.19515 0.49237 0.09303 0.0
O24 O 0.05525 0.20553 0.08146 0.0
H25 H 0.89543 0.27054 0.11022 0.0
H26 H 0.89294 0.15156 0.07331 0.0
H27 H 0.82757 0.12213 0.09259 0.0
H28 H 0.82858 0.18184 0.11121 0.0
H29 H 0.96027 0.29829 0.09083 0.0
H30 H 0.8287 0.21064 0.03714 0.0
H31 H 0.83856 0.15661 0.01865 0.0
O32 O 0.98493 0.18561 0.06881 0.0
C33 C 0.0822 0.28434 0.05117 0.0
C34 C 0.90581 0.1659 0.02864 0.0
C35 C 0.85987 0.20414 0.03791 0.0
N36 N 0.93418 0.21778 0.05036 0.0
C37 C 0.9401 0.18842 0.04018 0.0
C38 C 0.89492 0.22608 0.04929 0.0
C39 C 0.86541 0.17382 0.02753 0.0
C40 C 0.10774 0.37062 0.09726 0.0
N41 N 0.12702 0.34977 0.0879 0.0
C42 C 0.1319 0.42216 0.09926 0.0
C43 C 0.17607 0.45237 0.09161 0.0
C44 C 0.19552 0.4308 0.08209 0.0
C45 C 0.17029 0.37913 0.08035 0.0
C46 C 0.22323 0.29525 0.10318 0.0
C47 C 0.16427 0.24957 0.07853 0.0
C48 C 0.18005 0.29761 0.10048 0.0
N49 N 0.15141 0.2752 0.08823 0.0
C50 C 0.20716 0.24638 0.08087 0.0
C51 C 0.23681 0.26947 0.09328 0.0
C52 C 0.0152 0.17418 0.07492 0.0
C53 C 0.8945 0.24421 0.10213 0.0
C54 C 0.8936 0.17775 0.08138 0.0
C55 C 0.85647 0.16089 0.09225 0.0
C56 C 0.85704 0.19442 0.1027 0.0
N57 N 0.93018 0.22665 0.0809 0.0
C58 C 0.93098 0.25975 0.09109 0.0
Co59 Co 0.80976 0.08324 0.41829 0.0
Co60 Co 0.73771 0.97176 0.40014 0.0
O61 O 0.74882 0.02055 0.41534 0.0
C62 C 0.79464 0.02503 0.44541 0.0
O63 O 0.78718 0.9889 0.43632 0.0
C64 C 0.66708 0.00629 0.39391 0.0
O65 O 0.70599 0.0511 0.39466 0.0
O66 O 0.77083 0.02405 0.3848 0.0
O67 O 0.81491 0.09819 0.39637 0.0
H68 H 0.78306 0.89784 0.3573 0.0
H69 H 0.71963 0.05925 0.43602 0.0
O70 O 0.80499 0.0675 0.44021 0.0
H71 H 0.76028 0.21247 0.40845 0.0
H72 H 0.92053 0.24132 0.44623 0.0
H73 H 0.90686 0.13845 0.40267 0.0
H74 H 0.81318 0.17414 0.40604 0.0
H75 H 0.84312 0.16192 0.44149 0.0
O76 O 0.67198 0.96804 0.39574 0.0
H77 H 0.79897 0.95994 0.37682 0.0
H78 H 0.64793 0.87786 0.3907 0.0
H79 H 0.98484 0.21771 0.40693 0.0
H80 H 0.66589 0.09646 0.43882 0.0
H81 H 0.992 0.26972 0.42884 0.0
H82 H 0.68598 0.17351 0.42492 0.0
O83 O 0.85118 0.05154 0.41535 0.0
H84 H 0.62249 0.88537 0.4431 0.0
H85 H 0.74752 0.88477 0.40925 0.0
H86 H 0.71009 0.82078 0.42886 0.0
H87 H 0.64711 0.82087 0.44595 0.0
H88 H 0.66111 0.94884 0.42341 0.0
H89 H 0.63021 0.81492 0.37125 0.0
H90 H 0.69813 0.82466 0.35442 0.0
O91 O 0.80399 0.97698 0.40435 0.0
C92 C 0.79961 0.07114 0.38466 0.0
C93 C 0.75318 0.89309 0.36459 0.0
C94 C 0.66738 0.8466 0.37241 0.0
N95 N 0.7245 0.92231 0.38495 0.0
C96 C 0.76201 0.92808 0.37569 0.0
C97 C 0.6776 0.88238 0.38338 0.0
C98 C 0.70551 0.85207 0.36297 0.0
C99 C 0.72895 0.0931 0.43007 0.0
N100 N 0.76966 0.11469 0.42095 0.0
C101 C 0.69825 0.11387 0.43165 0.0
C102 C 0.70951 0.15707 0.42383 0.0
C103 C 0.75118 0.17893 0.41458 0.0
C104 C 0.78097 0.15706 0.41325 0.0
C105 C 0.91782 0.21905 0.43662 0.0
C106 C 0.9096 0.16108 0.41217 0.0
C107 C 0.87413 0.17406 0.4339 0.0
N108 N 0.8704 0.14591 0.42174 0.0
C109 C 0.95389 0.20583 0.41455 0.0
C110 C 0.9579 0.23497 0.42686 0.0
C111 C 0.84523 0.01097 0.40984 0.0
C112 C 0.64976 0.88484 0.43568 0.0
C113 C 0.72007 0.88496 0.41664 0.0
C114 C 0.69899 0.84864 0.42771 0.0
C115 C 0.66364 0.8487 0.4373 0.0
N116 N 0.70623 0.92024 0.41513 0.0
C117 C 0.67157 0.92053 0.42447 0.0
Co118 Co 0.72434 0.81915 0.75446 0.0
Co119 Co 0.7456 0.74224 0.73152 0.0
O120 O 0.71848 0.75551 0.74934 0.0
C121 C 0.77194 0.79597 0.77899 0.0
O122 O 0.79665 0.78761 0.76861 0.0
C123 C 0.63793 0.67534 0.73043 0.0
O124 O 0.63484 0.71492 0.73372 0.0
O125 O 0.7205 0.77695 0.71886 0.0
O126 O 0.70937 0.82982 0.73346 0.0
H127 H 0.83782 0.78449 0.6829 0.0
H128 H 0.65808 0.72966 0.77235 0.0
O129 O 0.74058 0.80952 0.77543 0.0
H130 H 0.54883 0.78834 0.75183 0.0
H131 H 0.70108 0.93546 0.78821 0.0
H132 H 0.77044 0.9192 0.74052 0.0
H133 H 0.63901 0.83356 0.74647 0.0
H134 H 0.69249 0.85495 0.7807 0.0
O135 O 0.68045 0.67874 0.72878 0.0
H136 H 0.80534 0.8021 0.70577 0.0
H137 H 0.74015 0.65077 0.71898 0.0
H138 H 0.77963 0.00031 0.74754 0.0
H139 H 0.56826 0.68373 0.77815 0.0
H140 H 0.74478 0.00879 0.77154 0.0
H141 H 0.51294 0.71288 0.7678 0.0
O142 O 0.79616 0.85488 0.74956 0.0
H143 H 0.73316 0.62368 0.77163 0.0
H144 H 0.84343 0.74647 0.73447 0.0
H145 H 0.87648 0.7055 0.75069 0.0
H146 H 0.82117 0.64361 0.76943 0.0
H147 H 0.70176 0.66578 0.75525 0.0
H148 H 0.7717 0.63139 0.6962 0.0
H149 H 0.82106 0.6986 0.678 0.0
O150 O 0.81038 0.80634 0.73399 0.0
C151 C 0.70906 0.81063 0.72085 0.0
C152 C 0.81659 0.75494 0.69078 0.0
C153 C 0.7794 0.669 0.69823 0.0
N154 N 0.77142 0.7276 0.71377 0.0
C155 C 0.79826 0.76473 0.70377 0.0
C156 C 0.76161 0.68016 0.7111 0.0
C157 C 0.8071 0.70673 0.68803 0.0
C158 C 0.63436 0.74296 0.76796 0.0
N159 N 0.6538 0.78442 0.75916 0.0
C160 C 0.5835 0.71668 0.77124 0.0
C161 C 0.55246 0.73301 0.7654 0.0
C162 C 0.57257 0.77531 0.75642 0.0
C163 C 0.62363 0.80069 0.75339 0.0
C164 C 0.71628 0.93219 0.7777 0.0
C165 C 0.75484 0.92252 0.75092 0.0
C166 C 0.71157 0.88673 0.7734 0.0
N167 N 0.73046 0.8823 0.76011 0.0
C168 C 0.76031 0.96857 0.75487 0.0
C169 C 0.7408 0.97332 0.76834 0.0
C170 C 0.82475 0.84671 0.74128 0.0
C171 C 0.75758 0.65046 0.76347 0.0
C172 C 0.81915 0.71957 0.7426 0.0
C173 C 0.83805 0.69646 0.75174 0.0
C174 C 0.80699 0.66171 0.76225 0.0
N175 N 0.77064 0.70827 0.74386 0.0
C176 C 0.73995 0.67425 0.75413 0.0
Co177 Co 0.90696 0.72162 0.0839 0.0
Co178 Co 0.02039 0.76851 0.06621 0.0
O179 O 0.97257 0.72929 0.08146 0.0
C180 C 0.96197 0.77005 0.11113 0.0
O181 O 0.997 0.80139 0.10216 0.0
C182 C 0.99622 0.66577 0.06078 0.0
O183 O 0.94962 0.65499 0.06112 0.0
O184 O 0.96803 0.74333 0.05064 0.0
O185 O 0.89318 0.70926 0.06203 0.0
H186 H 0.08675 0.88505 0.02255 0.0
H187 H 0.93816 0.66276 0.10248 0.0
O188 O 0.92137 0.7348 0.1058 0.0
H189 H 0.78981 0.53906 0.07501 0.0
H190 H 0.74492 0.66275 0.11099 0.0
H191 H 0.84553 0.75446 0.06737 0.0
H192 H 0.8209 0.62893 0.07192 0.0
H193 H 0.82814 0.67248 0.10693 0.0
O194 O 0.0314 0.71054 0.06264 0.0
H195 H 0.02571 0.83639 0.04207 0.0
H196 H 0.11911 0.78201 0.05758 0.0
H197 H 0.7624 0.74537 0.07093 0.0
H198 H 0.90819 0.57328 0.10597 0.0
H199 H 0.7115 0.69922 0.09288 0.0
H200 H 0.83363 0.51074 0.09212 0.0
O201 O 0.93289 0.79383 0.08038 0.0
H202 H 0.11204 0.75475 0.11044 0.0
H203 H 0.10104 0.86981 0.07479 0.0
H204 H 0.16436 0.90351 0.09468 0.0
H205 H 0.1701 0.84579 0.11268 0.0
H206 H 0.0491 0.7227 0.09045 0.0
H207 H 0.18113 0.82987 0.03815 0.0
H208 H 0.16516 0.88198 0.0205 0.0
O209 O 0.00827 0.82546 0.06955 0.0
C210 C 0.92053 0.72146 0.05038 0.0
C211 C 0.09421 0.86259 0.03019 0.0
C212 C 0.14713 0.83155 0.03894 0.0
N213 N 0.06899 0.80664 0.05099 0.0
C214 C 0.05982 0.83504 0.04129 0.0
C215 C 0.11185 0.80446 0.04989 0.0
C216 C 0.13816 0.86081 0.02904 0.0
C217 C 0.90536 0.63577 0.09655 0.0
N218 N 0.88111 0.65103 0.08708 0.0
C219 C 0.88869 0.58515 0.09852 0.0
C220 C 0.84689 0.55008 0.09073 0.0
C221 C 0.8223 0.56594 0.08112 0.0
C222 C 0.84009 0.61687 0.0794 0.0
C223 C 0.76669 0.68285 0.10137 0.0
C224 C 0.82344 0.73404 0.07689 0.0
C225 C 0.81384 0.68853 0.09903 0.0
N226 N 0.84139 0.71362 0.08686 0.0
C227 C 0.77647 0.72916 0.07887 0.0
C228 C 0.74796 0.7033 0.0912 0.0
C229 C 0.97205 0.82981 0.07463 0.0
C230 C 0.11003 0.78026 0.10263 0.0
C231 C 0.10342 0.84447 0.08257 0.0
C232 C 0.13934 0.86376 0.0938 0.0
C233 C 0.14255 0.83135 0.10389 0.0
N234 N 0.0717 0.79432 0.08139 0.0
C235 C 0.07463 0.7623 0.09124 0.0
Co236 Co 0.19485 0.91155 0.41701 0.0
Co237 Co 0.26448 0.02609 0.40027 0.0
O238 O 0.25428 0.97606 0.41491 0.0
C239 C 0.20483 0.96494 0.44483 0.0
O240 O 0.21053 0.0015 0.43621 0.0
C241 C 0.33921 0.99717 0.39381 0.0
O242 O 0.30163 0.95149 0.39397 0.0
O243 O 0.23489 0.97562 0.38427 0.0
O244 O 0.19198 0.89983 0.39493 0.0
H245 H 0.2178 0.10115 0.35807 0.0
H246 H 0.2847 0.93712 0.43509 0.0
O247 O 0.19737 0.92403 0.43911 0.0
H248 H 0.25313 0.7899 0.40567 0.0
H249 H 0.08755 0.74811 0.44285 0.0
H250 H 0.09945 0.85501 0.40061 0.0
H251 H 0.19699 0.82465 0.4037 0.0
H252 H 0.163 0.83007 0.4392 0.0
O253 O 0.33213 0.03386 0.39612 0.0
H254 H 0.20314 0.03731 0.37686 0.0
H255 H 0.35226 0.12348 0.39213 0.0
H256 H 0.02347 0.77321 0.40377 0.0
H257 H 0.34163 0.90346 0.43746 0.0
H258 H 0.01721 0.71916 0.42502 0.0
H259 H 0.32612 0.82946 0.42263 0.0
O260 O 0.15095 0.94066 0.41438 0.0
H261 H 0.37373 0.11023 0.44453 0.0
H262 H 0.24877 0.10879 0.41023 0.0
H263 H 0.28172 0.1702 0.43063 0.0
H264 H 0.34465 0.17113 0.44796 0.0
H265 H 0.33954 0.04927 0.42404 0.0
H266 H 0.36871 0.18821 0.37342 0.0
H267 H 0.30112 0.17729 0.35626 0.0
O268 O 0.19641 0.01686 0.40418 0.0
C269 C 0.2076 0.92839 0.38353 0.0
C270 C 0.24752 0.10643 0.36551 0.0
C271 C 0.33224 0.15524 0.37411 0.0
N272 N 0.27671 0.07687 0.38564 0.0
C273 C 0.23939 0.07047 0.3762 0.0
C274 C 0.32275 0.11845 0.38466 0.0
C275 C 0.29428 0.1491 0.36449 0.0
C276 C 0.27737 0.90456 0.42873 0.0
N277 N 0.2374 0.88268 0.41934 0.0
C278 C 0.30986 0.8858 0.43007 0.0
C279 C 0.30118 0.84432 0.42173 0.0
C280 C 0.26024 0.82212 0.41221 0.0
C281 C 0.2286 0.84196 0.41113 0.0
C282 C 0.08989 0.77127 0.43353 0.0
C283 C 0.09711 0.83152 0.40982 0.0
C284 C 0.13246 0.81771 0.43142 0.0
N285 N 0.13573 0.847 0.41963 0.0
C286 C 0.05395 0.78533 0.41158 0.0
C287 C 0.05044 0.75504 0.42352 0.0
C288 C 0.15544 0.98109 0.40924 0.0
C289 C 0.34646 0.11031 0.43702 0.0
C290 C 0.27621 0.10905 0.41771 0.0
C291 C 0.29475 0.14391 0.42924 0.0
C292 C 0.33007 0.14443 0.43895 0.0
N293 N 0.29251 0.07576 0.41588 0.0
C294 C 0.32715 0.07604 0.42535 0.0
Co295 Co 0.2788 0.18112 0.75074 0.0
Co296 Co 0.23454 0.25267 0.73467 0.0
O297 O 0.27056 0.23924 0.74998 0.0
C298 C 0.22532 0.17795 0.77805 0.0
O299 O 0.19432 0.183 0.76928 0.0
C300 C 0.33774 0.33333 0.73329 0.0
O301 O 0.34906 0.29799 0.73438 0.0
O302 O 0.26426 0.23199 0.71871 0.0
O303 O 0.29503 0.18668 0.72893 0.0
H304 H 0.1286 0.21574 0.6889 0.0
H305 H 0.33369 0.26382 0.77219 0.0
O306 O 0.26188 0.1752 0.77255 0.0
H307 H 0.46314 0.24957 0.74431 0.0
H308 H 0.33432 0.07046 0.77482 0.0
H309 H 0.24979 0.09297 0.73152 0.0
H310 H 0.37405 0.19278 0.73902 0.0
H311 H 0.32433 0.14442 0.77291 0.0
O312 O 0.29226 0.32262 0.73303 0.0
H313 H 0.17336 0.19794 0.70846 0.0
H314 H 0.22069 0.33912 0.72818 0.0
H315 H 0.25928 0.01866 0.73292 0.0
H316 H 0.42227 0.32084 0.77798 0.0
H317 H 0.30182 0.00706 0.7547 0.0
H318 H 0.48771 0.31414 0.76393 0.0
O319 O 0.20745 0.13603 0.74583 0.0
H320 H 0.2368 0.34226 0.7815 0.0
H321 H 0.13091 0.22804 0.74197 0.0
H322 H 0.09208 0.25019 0.76232 0.0
H323 H 0.14518 0.30766 0.78228 0.0
H324 H 0.27402 0.31893 0.76098 0.0
H325 H 0.1767 0.35865 0.70877 0.0
H326 H 0.1301 0.29662 0.68898 0.0
O327 O 0.17763 0.18262 0.73588 0.0
C328 C 0.28607 0.20648 0.71774 0.0
C329 C 0.14861 0.243 0.6975 0.0
C330 C 0.17568 0.32324 0.70863 0.0
N331 N 0.19923 0.2673 0.7195 0.0
C332 C 0.17388 0.23306 0.70863 0.0
C333 C 0.20058 0.31203 0.71957 0.0
C334 C 0.14953 0.28841 0.69754 0.0
C335 C 0.36191 0.26018 0.76616 0.0
N336 N 0.3487 0.22477 0.75535 0.0
C337 C 0.41203 0.29273 0.76945 0.0
C338 C 0.44873 0.28901 0.76154 0.0
C339 C 0.43496 0.25283 0.75052 0.0
C340 C 0.38447 0.22085 0.74755 0.0
C341 C 0.31582 0.07515 0.76526 0.0
C342 C 0.26865 0.08834 0.74098 0.0
C343 C 0.30999 0.1169 0.76413 0.0
N344 N 0.28692 0.12318 0.75205 0.0
C345 C 0.27377 0.04612 0.74174 0.0
C346 C 0.29759 0.0396 0.75397 0.0
C347 C 0.17251 0.14081 0.73999 0.0
C348 C 0.2133 0.31734 0.77284 0.0
C349 C 0.15424 0.25317 0.7506 0.0
C350 C 0.13206 0.26559 0.76209 0.0
C351 C 0.16188 0.29785 0.77328 0.0
N352 N 0.2047 0.27249 0.75024 0.0
C353 C 0.23419 0.30418 0.76116 0.0
Co354 Co 0.72374 0.90385 0.58358 0.0
Co355 Co 0.759 0.01777 0.59962 0.0
O356 O 0.72323 0.96597 0.585 0.0
C357 C 0.76514 0.95588 0.55547 0.0
O358 O 0.79517 0.99376 0.56383 0.0
C359 C 0.65363 0.98409 0.60448 0.0
O360 O 0.64774 0.9392 0.60469 0.0
O361 O 0.7374 0.96842 0.61594 0.0
O362 O 0.71554 0.89371 0.60573 0.0
H363 H 0.87227 0.09933 0.64328 0.0
H364 H 0.65439 0.92039 0.56485 0.0
O365 O 0.73299 0.91482 0.56143 0.0
H366 H 0.54735 0.77223 0.59519 0.0
H367 H 0.68028 0.74104 0.5592 0.0
H368 H 0.76971 0.85528 0.60068 0.0
H369 H 0.6389 0.81437 0.59743 0.0
H370 H 0.67948 0.81985 0.56202 0.0
O371 O 0.69676 0.02202 0.60244 0.0
H372 H 0.82813 0.03345 0.62454 0.0
H373 H 0.76271 0.11359 0.60621 0.0
H374 H 0.77123 0.77675 0.59836 0.0
H375 H 0.56306 0.87923 0.56219 0.0
H376 H 0.72626 0.71901 0.57749 0.0
H377 H 0.50888 0.80469 0.57747 0.0
O378 O 0.79693 0.9384 0.58623 0.0
H379 H 0.73479 0.09488 0.55351 0.0
H380 H 0.85675 0.10341 0.59037 0.0
H381 H 0.88529 0.16324 0.56954 0.0
H382 H 0.82409 0.15914 0.55093 0.0
H383 H 0.70792 0.03562 0.57445 0.0
H384 H 0.8058 0.18021 0.62483 0.0
H385 H 0.86121 0.17337 0.6435 0.0
O386 O 0.82073 0.01255 0.59704 0.0
C387 C 0.72219 0.92198 0.6169 0.0
C388 C 0.8484 0.10284 0.63517 0.0
C389 C 0.81103 0.1482 0.62482 0.0
N390 N 0.79338 0.07002 0.61421 0.0
C391 C 0.82347 0.06575 0.6245 0.0
C392 C 0.78668 0.11037 0.61433 0.0
C393 C 0.84213 0.14434 0.63529 0.0
C394 C 0.63109 0.88765 0.57142 0.0
N395 N 0.65194 0.86958 0.58121 0.0
C396 C 0.57939 0.86463 0.56991 0.0
C397 C 0.54901 0.82285 0.57851 0.0
C398 C 0.57057 0.80463 0.58846 0.0
C399 C 0.62241 0.82866 0.58969 0.0
C400 C 0.6999 0.76582 0.56836 0.0
C401 C 0.74974 0.83014 0.59165 0.0
C402 C 0.69962 0.81049 0.57 0.0
N403 N 0.72407 0.84179 0.58159 0.0
C404 C 0.75088 0.78583 0.59035 0.0
C405 C 0.72569 0.75348 0.57863 0.0
C406 C 0.83001 0.97966 0.59178 0.0
C407 C 0.76178 0.09714 0.56158 0.0
C408 C 0.82991 0.10146 0.58232 0.0
C409 C 0.84627 0.13545 0.57056 0.0
C410 C 0.81191 0.13315 0.56012 0.0
N411 N 0.78068 0.06628 0.58367 0.0
C412 C 0.74676 0.06383 0.57349 0.0
Co413 Co 0.81929 0.70539 0.91513 0.0
Co414 Co 0.74451 0.7477 0.93008 0.0
O415 O 0.76028 0.71226 0.91518 0.0
C416 C 0.82377 0.75789 0.88754 0.0
O417 O 0.81826 0.78905 0.89609 0.0
C418 C 0.66446 0.64427 0.93106 0.0
O419 O 0.70012 0.63326 0.9304 0.0
O420 O 0.76395 0.71835 0.94643 0.0
O421 O 0.81231 0.68988 0.93699 0.0
H422 H 0.77482 0.85248 0.97576 0.0
H423 H 0.73837 0.64867 0.89328 0.0
O424 O 0.82644 0.7216 0.89326 0.0
H425 H 0.75357 0.52196 0.92232 0.0
H426 H 0.93419 0.65226 0.89266 0.0
H427 H 0.90624 0.73636 0.93506 0.0
H428 H 0.80872 0.6114 0.92746 0.0
H429 H 0.85912 0.6607 0.8937 0.0
O430 O 0.67477 0.68957 0.93117 0.0
H431 H 0.79558 0.80849 0.9567 0.0
H432 H 0.65669 0.76052 0.9353 0.0
H433 H 0.98158 0.7284 0.93455 0.0
H434 H 0.68296 0.55972 0.88764 0.0
H435 H 0.99592 0.68608 0.91323 0.0
H436 H 0.69016 0.49565 0.90227 0.0
O437 O 0.86302 0.77703 0.91997 0.0
H438 H 0.66019 0.74445 0.88201 0.0
H439 H 0.76864 0.8509 0.92247 0.0
H440 H 0.74845 0.88922 0.90153 0.0
H441 H 0.69393 0.83585 0.8811 0.0
H442 H 0.68147 0.70773 0.90314 0.0
H443 H 0.63422 0.80374 0.95419 0.0
H444 H 0.69361 0.85027 0.97457 0.0
O445 O 0.81429 0.80512 0.92944 0.0
C446 C 0.79053 0.69783 0.94787 0.0
C447 C 0.74871 0.83251 0.9669 0.0
C448 C 0.66977 0.80508 0.9548 0.0
N449 N 0.72757 0.7824 0.94483 0.0
C450 C 0.76034 0.80768 0.95605 0.0
C451 C 0.68264 0.78063 0.94416 0.0
C452 C 0.70311 0.8312 0.96624 0.0
C453 C 0.74224 0.62106 0.89956 0.0
N454 N 0.777 0.63523 0.91062 0.0
C455 C 0.71059 0.57073 0.89636 0.0
C456 C 0.71458 0.5348 0.90459 0.0
C457 C 0.75011 0.54954 0.91585 0.0
C458 C 0.78117 0.60022 0.91873 0.0
C459 C 0.9283 0.67067 0.90203 0.0
C460 C 0.91206 0.7176 0.9258 0.0
C461 C 0.88593 0.67564 0.90266 0.0
N462 N 0.87814 0.69859 0.91449 0.0
C463 C 0.95487 0.71335 0.92555 0.0
C464 C 0.96292 0.68965 0.91357 0.0
C465 C 0.85679 0.81127 0.92566 0.0
C466 C 0.68382 0.76807 0.89088 0.0
C467 C 0.74473 0.82744 0.91364 0.0
C468 C 0.73343 0.84933 0.90182 0.0
C469 C 0.70283 0.81937 0.89036 0.0
N470 N 0.72592 0.7771 0.91407 0.0
C471 C 0.69581 0.74746 0.9029 0.0
Co472 Co 0.09459 0.81488 0.24798 0.0
Co473 Co 0.98272 0.73882 0.26561 0.0
O474 O 0.03175 0.75313 0.25009 0.0
C475 C 0.03741 0.80487 0.22091 0.0
O476 O 0.00075 0.79614 0.22997 0.0
C477 C 0.01785 0.668 0.26918 0.0
O478 O 0.06242 0.70685 0.26759 0.0
O479 O 0.03489 0.76913 0.28103 0.0
O480 O 0.10909 0.81617 0.26986 0.0
H481 H 0.90898 0.7766 0.31012 0.0
H482 H 0.07273 0.7296 0.22821 0.0
O483 O 0.07956 0.81415 0.22612 0.0
H484 H 0.22574 0.76623 0.25531 0.0
H485 H 0.25344 0.93193 0.22126 0.0
H486 H 0.14868 0.90875 0.26522 0.0
H487 H 0.18529 0.81638 0.2597 0.0
H488 H 0.17411 0.85346 0.2249 0.0
O489 O 0.9794 0.67306 0.26899 0.0
H490 H 0.97101 0.79588 0.29028 0.0
H491 H 0.88882 0.64747 0.27422 0.0
H492 H 0.22787 0.98766 0.26208 0.0
H493 H 0.11245 0.67912 0.22328 0.0
H494 H 0.28085 -0.00039 0.23997 0.0
H495 H 0.18934 0.69712 0.23695 0.0
O496 O 0.06215 0.85494 0.25202 0.0
H497 H 0.89681 0.63065 0.22133 0.0
H498 H 0.89519 0.7493 0.25758 0.0
H499 H 0.83118 0.71475 0.23789 0.0
H500 H 0.83178 0.65499 0.21959 0.0
H501 H 0.96026 0.66634 0.24114 0.0
H502 H 0.826 0.62639 0.29397 0.0
H503 H 0.83582 0.69129 0.31206 0.0
O504 O 0.9874 0.80512 0.26262 0.0
C505 C 0.08189 0.79815 0.28147 0.0
C506 C 0.90417 0.74804 0.30227 0.0
C507 C 0.85765 0.66372 0.29322 0.0
N508 N 0.93327 0.72295 0.28103 0.0
C509 C 0.93908 0.7588 0.29098 0.0
C510 C 0.89336 0.67583 0.28208 0.0
C511 C 0.86317 0.70016 0.30336 0.0
C512 C 0.10657 0.73811 0.23405 0.0
N513 N 0.12688 0.77612 0.24415 0.0
C514 C 0.12879 0.70928 0.23125 0.0
C515 C 0.17188 0.71934 0.23895 0.0
C516 C 0.19228 0.75807 0.24927 0.0
C517 C 0.16914 0.78624 0.25174 0.0
C518 C 0.23075 0.92712 0.23096 0.0
C519 C 0.17173 0.91355 0.25563 0.0
C520 C 0.18578 0.88282 0.23307 0.0
N521 N 0.15711 0.8764 0.24533 0.0
C522 C 0.21643 0.95837 0.25388 0.0
C523 C 0.24611 0.96507 0.24147 0.0
C524 C 0.02117 0.84736 0.25769 0.0
C525 C 0.89606 0.65653 0.22927 0.0
C526 C 0.89561 0.72325 0.24966 0.0
C527 C 0.85927 0.70379 0.23855 0.0
C528 C 0.85962 0.67025 0.22829 0.0
N529 N 0.93117 0.70955 0.25056 0.0
C530 C 0.93175 0.67668 0.24055 0.0
Co531 Co 0.28302 0.09027 0.58237 0.0
Co532 Co 0.2383 0.97746 0.60019 0.0
O533 O 0.27759 0.02578 0.58508 0.0
C534 C 0.23823 0.03425 0.55499 0.0
O535 O 0.20721 -0.00127 0.56389 0.0
C536 C 0.34172 0.00537 0.60632 0.0
O537 O 0.35066 0.05134 0.60596 0.0
O538 O 0.26069 0.0297 0.61573 0.0
O539 O 0.29304 0.10428 0.6043 0.0
H540 H 0.11891 0.90784 0.64315 0.0
H541 H 0.34595 0.06212 0.56457 0.0
O542 O 0.27202 0.07556 0.5604 0.0
H543 H 0.46371 0.21213 0.59257 0.0
H544 H 0.33904 0.25117 0.555 0.0
H545 H 0.24558 0.14908 0.5982 0.0
H546 H 0.37302 0.17817 0.59486 0.0
H547 H 0.33203 0.16932 0.55942 0.0
O548 O 0.2976 0.96907 0.60429 0.0
H549 H 0.16751 0.96952 0.62377 0.0
H550 H 0.22788 0.88035 0.60916 0.0
H551 H 0.25191 0.23081 0.59427 0.0
H552 H 0.43632 0.09495 0.5619 0.0
H553 H 0.29893 0.28245 0.57254 0.0
H554 H 0.49587 0.17036 0.57602 0.0
O555 O 0.21015 0.06196 0.58527 0.0
H556 H 0.25924 0.88811 0.55656 0.0
H557 H 0.13884 0.8945 0.5911 0.0
H558 H 0.10845 0.83108 0.57124 0.0
H559 H 0.16887 0.82766 0.55379 0.0
H560 H 0.28796 0.9511 0.5765 0.0
H561 H 0.18016 0.81775 0.62845 0.0
H562 H 0.12507 0.83127 0.64557 0.0
O563 O 0.18 0.98709 0.5963 0.0
C564 C 0.2808 0.07703 0.61597 0.0
C565 C 0.14268 0.90145 0.63573 0.0
C566 C 0.17712 0.85093 0.62749 0.0
N567 N 0.20023 0.92836 0.61529 0.0
C568 C 0.17019 0.9362 0.62471 0.0
C569 C 0.20412 0.88653 0.61661 0.0
C570 C 0.14619 0.85853 0.63709 0.0
C571 C 0.37164 0.09528 0.57062 0.0
N572 N 0.35426 0.1184 0.57979 0.0
C573 C 0.42277 0.11357 0.56911 0.0
C574 C 0.45616 0.15584 0.57705 0.0
C575 C 0.43814 0.17928 0.58635 0.0
C576 C 0.38676 0.15988 0.58761 0.0
C577 C 0.31855 0.22907 0.56453 0.0
C578 C 0.26639 0.17151 0.58878 0.0
C579 C 0.31439 0.18269 0.56707 0.0
N580 N 0.28882 0.15474 0.57913 0.0
C581 C 0.26971 0.21767 0.58658 0.0
C582 C 0.29605 0.2466 0.57438 0.0
C583 C 0.17459 0.02231 0.59092 0.0
C584 C 0.23257 0.88911 0.56412 0.0
C585 C 0.16534 0.89314 0.58357 0.0
C586 C 0.14793 0.85716 0.57235 0.0
C587 C 0.18185 0.85525 0.56257 0.0
N588 N 0.21514 0.92618 0.58503 0.0
C589 C 0.24864 0.92453 0.57549 0.0
Co590 Co 0.17056 0.26401 0.91373 0.0
Co591 Co 0.25111 0.23984 0.93388 0.0
O592 O 0.2346 0.26823 0.91701 0.0
C593 C 0.18648 0.2165 0.88769 0.0
O594 O 0.19567 0.19027 0.8973 0.0
C595 C 0.32062 0.34687 0.93468 0.0
O596 O 0.28127 0.35148 0.93251 0.0
O597 O 0.22102 0.26613 0.948 0.0
O598 O 0.16548 0.27862 0.93526 0.0
H599 H 0.21831 0.1454 0.98186 0.0
H600 H 0.25621 0.32971 0.89439 0.0
O601 O 0.1749 0.24843 0.89224 0.0
H602 H 0.20595 0.4405 0.91865 0.0
H603 H 0.04878 0.29188 0.88414 0.0
H604 H 0.07411 0.21923 0.92982 0.0
H605 H 0.16047 0.35023 0.92374 0.0
H606 H 0.12999 0.29815 0.88928 0.0
O607 O 0.31616 0.30379 0.9358 0.0
H608 H 0.19663 0.18002 0.96027 0.0
H609 H 0.34416 0.24234 0.94363 0.0
H610 H 0.99242 0.21239 0.92519 0.0
H611 H 0.30221 0.4196 0.88881 0.0
H612 H 0.97938 0.2489 0.9022 0.0
H613 H 0.27733 0.4757 0.90105 0.0
O614 O 0.13462 0.19202 0.91835 0.0
H615 H 0.35773 0.25007 0.89038 0.0
H616 H 0.24318 0.14089 0.92936 0.0
H617 H 0.27815 0.10663 0.91129 0.0
H618 H 0.33586 0.16138 0.89162 0.0
H619 H 0.32166 0.2827 0.90861 0.0
H620 H 0.36761 0.20872 0.9651 0.0
H621 H 0.30436 0.15969 0.98436 0.0
O622 O 0.18565 0.17617 0.93224 0.0
C623 C 0.18764 0.27853 0.94725 0.0
C624 C 0.24614 0.1665 0.9735 0.0
C625 C 0.32996 0.20211 0.96411 0.0
N626 N 0.26896 0.21266 0.95064 0.0
C627 C 0.23403 0.18603 0.96124 0.0
C628 C 0.3165 0.2211 0.952 0.0
C629 C 0.29444 0.17459 0.97491 0.0
C630 C 0.24472 0.35377 0.89961 0.0
N631 N 0.2055 0.3347 0.90931 0.0
C632 C 0.27104 0.40467 0.89645 0.0
C633 C 0.25712 0.43614 0.90335 0.0
C634 C 0.21712 0.41643 0.91324 0.0
C635 C 0.19159 0.36531 0.91611 0.0
C636 C 0.05405 0.27596 0.89422 0.0
C637 C 0.06882 0.23556 0.91986 0.0
C638 C 0.09991 0.27935 0.89718 0.0
N639 N 0.10689 0.25957 0.90992 0.0
C640 C 0.02244 0.23141 0.91727 0.0
C641 C 0.01513 0.25185 0.90436 0.0
C642 C 0.14392 0.16271 0.92585 0.0
C643 C 0.33275 0.22589 0.89893 0.0
C644 C 0.2683 0.16494 0.92083 0.0
C645 C 0.28801 0.14535 0.91065 0.0
C646 C 0.32041 0.1761 0.89962 0.0
N647 N 0.28063 0.21382 0.92009 0.0
C648 C 0.31239 0.24421 0.90932 0.0
Co649 Co 0.9023 0.18128 0.2489 0.0
Co650 Co 0.01655 0.25565 0.2655 0.0
O651 O 0.96656 0.2418 0.25034 0.0
C652 C 0.95603 0.18741 0.22138 0.0
O653 O 0.99267 0.19404 0.23014 0.0
C654 C 0.9862 0.33019 0.26875 0.0
O655 O 0.94073 0.29254 0.26754 0.0
O656 O 0.96572 0.22895 0.28135 0.0
O657 O 0.89028 0.18205 0.2709 0.0
H658 H 0.09017 0.218 0.31003 0.0
H659 H 0.92495 0.26592 0.22873 0.0
O660 O 0.91497 0.18022 0.22693 0.0
H661 H 0.77644 0.23644 0.25714 0.0
H662 H 0.73949 0.06657 0.22367 0.0
H663 H 0.84719 0.08902 0.26679 0.0
H664 H 0.81474 0.18426 0.26138 0.0
H665 H 0.82069 0.14358 0.22651 0.0
O666 O 0.02341 0.32314 0.26842 0.0
H667 H 0.02702 0.19937 0.2906 0.0
H668 H 0.11363 0.34514 0.27293 0.0
H669 H 0.76616 0.01161 0.26446 0.0
H670 H 0.88722 0.31825 0.22391 0.0
H671 H 0.7117 3e-05 0.24277 0.0
H672 H 0.81264 0.30389 0.23825 0.0
O673 O 0.93278 0.13934 0.25277 0.0
H674 H 0.10083 0.35692 0.21995 0.0
H675 H 0.10056 0.23974 0.25711 0.0
H676 H 0.16242 0.26954 0.23679 0.0
H677 H 0.16274 0.32852 0.21803 0.0
H678 H 0.0395 0.32598 0.2404 0.0
H679 H 0.17764 0.36555 0.29225 0.0
H680 H 0.16616 0.30163 0.31094 0.0
O681 O 0.00849 0.18773 0.26298 0.0
C682 C 0.91864 0.20104 0.28224 0.0
C683 C 0.09572 0.24609 0.30191 0.0
C684 C 0.14477 0.32893 0.29194 0.0
N685 N 0.06694 0.27097 0.28056 0.0
C686 C 0.06018 0.23569 0.29085 0.0
C687 C 0.1084 0.31721 0.28105 0.0
C688 C 0.13831 0.29305 0.30242 0.0
C689 C 0.89206 0.25894 0.23486 0.0
N690 N 0.87185 0.22183 0.24524 0.0
C691 C 0.87097 0.28883 0.23212 0.0
C692 C 0.82919 0.28082 0.2402 0.0
C693 C 0.80891 0.24303 0.25081 0.0
C694 C 0.83084 0.21371 0.2532 0.0
C695 C 0.76283 0.07124 0.23319 0.0
C696 C 0.82352 0.08439 0.25738 0.0
C697 C 0.80885 0.1147 0.23484 0.0
N698 N 0.83836 0.12093 0.24688 0.0
C699 C 0.77777 0.04042 0.25609 0.0
C700 C 0.74726 0.03392 0.24391 0.0
C701 C 0.97349 0.14574 0.2583 0.0
C702 C 0.10118 0.33137 0.22809 0.0
C703 C 0.10058 0.2655 0.249 0.0
C704 C 0.13569 0.28226 0.23753 0.0
C705 C 0.13586 0.31536 0.22701 0.0
N706 N 0.06673 0.28141 0.24999 0.0
C707 C 0.06669 0.31391 0.23973 0.0
C708 C 0.00161 0.184 0.19905 0.0
C709 C 0.96456 0.19201 0.20517 0.0
C710 C 0.01282 0.19106 0.18384 0.0
C711 C 0.98709 0.2076 0.17457 0.0
C712 C 0.9496 0.21578 0.18068 0.0
C713 C 0.93835 0.20732 0.19591 0.0
C714 C 0.05216 0.18072 0.17769 0.0
C715 C 0.92198 0.23422 0.17116 0.0
C716 C 0.04926 0.26724 0.13783 0.0
C717 C 0.02176 0.2284 0.12782 0.0
C718 C 0.03778 0.26137 0.15309 0.0
C719 C 0.99878 0.21519 0.15841 0.0
C720 C 0.97157 0.17566 0.14834 0.0
C721 C 0.98301 0.18296 0.13315 0.0
C722 C 0.06697 0.30463 0.16349 0.0
C723 C 0.93063 0.12548 0.15362 0.0
H724 H 0.02186 0.172 0.20619 0.0
H725 H 0.9101 0.21411 0.20066 0.0
H726 H 0.03607 0.15255 0.16868 0.0
H727 H 0.08301 0.21512 0.17275 0.0
H728 H 0.06788 0.16693 0.18635 0.0
H729 H 0.89473 0.23987 0.17768 0.0
H730 H 0.94887 0.26999 0.16582 0.0
H731 H 0.90178 0.2072 0.16212 0.0
H732 H 0.07891 0.30255 0.13369 0.0
H733 H 0.96186 0.15272 0.12543 0.0
H734 H 0.08646 0.2945 0.17194 0.0
H735 H 0.04122 0.3136 0.16955 0.0
H736 H 0.09502 0.33851 0.15752 0.0
H737 H 0.94568 0.1099 0.16191 0.0
H738 H 0.91358 0.09839 0.14435 0.0
H739 H 0.90096 0.12954 0.15922 0.0
C740 C 0.7914 0.97359 0.46708 0.0
C741 C 0.78982 0.01513 0.46158 0.0
C742 C 0.78607 0.96245 0.4823 0.0
C743 C 0.77808 0.99309 0.49225 0.0
C744 C 0.77581 0.03478 0.48677 0.0
C745 C 0.7822 0.04562 0.47147 0.0
C746 C 0.7898 0.91831 0.48774 0.0
C747 C 0.76659 0.06783 0.49706 0.0
C748 C 0.72534 0.93882 0.53034 0.0
C749 C 0.76813 0.96257 0.53921 0.0
C750 C 0.72778 0.94901 0.51503 0.0
C751 C 0.77432 0.98261 0.50848 0.0
C752 C 0.81777 0.00558 0.51738 0.0
C753 C 0.814 0.99579 0.53268 0.0
C754 C 0.68054 0.92461 0.50592 0.0
C755 C 0.86829 0.04047 0.51076 0.0
H756 H 0.79744 0.94993 0.45949 0.0
H757 H 0.78046 0.07746 0.46724 0.0
H758 H 0.82114 0.93095 0.49573 0.0
H759 H 0.75528 0.89191 0.49374 0.0
H760 H 0.79581 0.89803 0.47851 0.0
H761 H 0.76346 0.0973 0.49095 0.0
H762 H 0.73179 0.04516 0.50347 0.0
H763 H 0.79746 0.08592 0.50521 0.0
H764 H 0.68977 0.91361 0.53546 0.0
H765 H 0.84715 0.01402 0.53955 0.0
H766 H 0.68376 0.90198 0.49689 0.0
H767 H 0.67473 0.95356 0.50056 0.0
H768 H 0.64723 0.90019 0.51275 0.0
H769 H 0.87677 0.02127 0.50177 0.0
H770 H 0.89858 0.05414 0.51916 0.0
H771 H 0.86822 0.07303 0.50568 0.0
C772 C 0.74505 0.78166 0.80562 0.0
C773 C 0.78059 0.78923 0.79475 0.0
C774 C 0.75284 0.77451 0.82059 0.0
C775 C 0.7977 0.77608 0.82478 0.0
C776 C 0.83374 0.78387 0.81385 0.0
C777 C 0.8245 0.78983 0.79893 0.0
C778 C 0.71316 0.7654 0.83192 0.0
C779 C 0.88247 0.7869 0.81793 0.0
C780 C 0.83568 0.80934 0.86507 0.0
C781 C 0.82174 0.76272 0.87128 0.0
C782 C 0.8295 0.81437 0.84986 0.0
C783 C 0.80769 0.77151 0.8407 0.0
C784 C 0.79432 0.72438 0.84685 0.0
C785 C 0.80208 0.72063 0.86208 0.0
C786 C 0.84537 0.86544 0.84365 0.0
C787 C 0.77016 0.67776 0.83748 0.0
H788 H 0.71085 0.78069 0.8024 0.0
H789 H 0.85219 0.79588 0.79057 0.0
H790 H 0.70227 0.73044 0.83809 0.0
H791 H 0.72804 0.79611 0.84017 0.0
H792 H 0.67934 0.76267 0.82673 0.0
H793 H 0.90632 0.79258 0.80806 0.0
H794 H 0.90335 0.81817 0.8258 0.0
H795 H 0.87539 0.7523 0.82367 0.0
H796 H 0.85111 0.84198 0.87217 0.0
H797 H 0.79079 0.68446 0.86691 0.0
H798 H 0.81225 0.86683 0.83962 0.0
H799 H 0.87054 0.87329 0.83399 0.0
H800 H 0.86483 0.89531 0.85205 0.0
H801 H 0.73405 0.67171 0.8331 0.0
H802 H 0.76329 0.64422 0.84386 0.0
H803 H 0.79398 0.68189 0.82776 0.0
C804 C 0.94623 0.73388 0.13678 0.0
C805 C 0.9714 0.77494 0.1273 0.0
C806 C 0.95764 0.73794 0.15203 0.0
C807 C 0.99426 0.7844 0.15791 0.0
C808 C 0.0191 0.82612 0.14841 0.0
C809 C 0.00773 0.82073 0.1332 0.0
C810 C 0.93097 0.69247 0.16181 0.0
C811 C 0.05751 0.87654 0.15431 0.0
C812 C 0.98904 0.80712 0.19914 0.0
C813 C 0.02822 0.80152 0.20473 0.0
C814 C 0.97785 0.80196 0.18392 0.0
C815 C 0.00587 0.78987 0.17408 0.0
C816 C 0.04544 0.78402 0.17965 0.0
C817 C 0.05654 0.79046 0.19493 0.0
C818 C 0.93613 0.80964 0.17838 0.0
C819 C 0.0756 0.77035 0.1695 0.0
H820 H 0.91851 0.6983 0.13222 0.0
H821 H 0.02715 0.85264 0.1259 0.0
H822 H 0.9585 0.68498 0.16739 0.0
H823 H 0.91005 0.69915 0.17066 0.0
H824 H 0.90449 0.65882 0.15543 0.0
H825 H 0.07287 0.90538 0.14545 0.0
H826 H 0.04068 0.88874 0.16307 0.0
H827 H 0.08873 0.87418 0.15951 0.0
H828 H 0.96719 0.81589 0.20669 0.0
H829 H 0.08651 0.7856 0.19925 0.0
H830 H 0.907 0.77518 0.17295 0.0
H831 H 0.95056 0.83957 0.16987 0.0
H832 H 0.91857 0.81981 0.18747 0.0
H833 H 0.05059 0.73493 0.16366 0.0
H834 H 0.10434 0.76603 0.17564 0.0
H835 H 0.09437 0.79941 0.16086 0.0
C836 C 0.18953 0.98681 0.53284 0.0
C837 C 0.23428 0.02484 0.53881 0.0
C838 C 0.18485 0.97593 0.5176 0.0
C839 C 0.22626 0.0031 0.50813 0.0
C840 C 0.27179 0.04121 0.5141 0.0
C841 C 0.27512 0.05202 0.52939 0.0
C842 C 0.13534 0.93582 0.51162 0.0
C843 C 0.31696 0.07041 0.50436 0.0
C844 C 0.2225 0.94547 0.47041 0.0
C845 C 0.20882 0.97284 0.46108 0.0
C846 C 0.22924 0.95549 0.48576 0.0
C847 C 0.22104 0.99295 0.49187 0.0
C848 C 0.20643 0.02004 0.48249 0.0
C849 C 0.20099 0.00998 0.46721 0.0
C850 C 0.24562 0.92642 0.4954 0.0
C851 C 0.19621 0.05947 0.48861 0.0
H852 H 0.15777 0.96577 0.54008 0.0
H853 H 0.30993 0.08106 0.534 0.0
H854 H 0.1212 0.95194 0.50321 0.0
H855 H 0.13996 0.90659 0.50596 0.0
H856 H 0.10685 0.91803 0.5205 0.0
H857 H 0.35018 0.09723 0.51083 0.0
H858 H 0.32598 0.04461 0.49836 0.0
H859 H 0.30894 0.09132 0.49583 0.0
H860 H 0.22909 0.9171 0.46567 0.0
H861 H 0.19018 0.03111 0.46004 0.0
H862 H 0.2171 0.90564 0.50405 0.0
H863 H 0.2807 0.95235 0.50126 0.0
H864 H 0.25177 0.89953 0.48887 0.0
H865 H 0.16642 0.04295 0.49715 0.0
H866 H 0.18454 0.07672 0.47982 0.0
H867 H 0.23006 0.08921 0.49413 0.0
C868 C 0.17281 0.16669 0.80028 0.0
C869 C 0.21952 0.17954 0.7943 0.0
C870 C 0.16688 0.17122 0.81555 0.0
C871 C 0.20893 0.19019 0.82502 0.0
C872 C 0.25618 0.20287 0.81907 0.0
C873 C 0.26082 0.19684 0.80377 0.0
C874 C 0.11568 0.15616 0.82153 0.0
C875 C 0.30202 0.22404 0.82879 0.0
C876 C 0.20004 0.24748 0.86146 0.0
C877 C 0.19127 0.20971 0.87163 0.0
C878 C 0.20672 0.24195 0.84627 0.0
C879 C 0.2034 0.19718 0.84113 0.0
C880 C 0.19387 0.1587 0.85135 0.0
C881 C 0.18846 0.16566 0.8665 0.0
C882 C 0.21771 0.28415 0.83573 0.0
C883 C 0.18893 0.11 0.84626 0.0
H884 H 0.14075 0.15308 0.79298 0.0
H885 H 0.29708 0.2073 0.79914 0.0
H886 H 0.1058 0.12859 0.83062 0.0
H887 H 0.11552 0.18907 0.82631 0.0
H888 H 0.08646 0.13976 0.81279 0.0
H889 H 0.33595 0.23185 0.82245 0.0
H890 H 0.30831 0.25916 0.83401 0.0
H891 H 0.29657 0.19774 0.83792 0.0
H892 H 0.20271 0.28177 0.86542 0.0
H893 H 0.18146 0.13627 0.87433 0.0
H894 H 0.18786 0.27165 0.82723 0.0
H895 H 0.25314 0.2956 0.82974 0.0
H896 H 0.2207 0.31712 0.84157 0.0
H897 H 0.15856 0.09216 0.83793 0.0
H898 H 0.18081 0.08358 0.8556 0.0
H899 H 0.22382 0.11681 0.84074 0.0
C900 C 0.12926 0.26775 0.03187 0.0
C901 C 0.10711 0.29503 0.03666 0.0
C902 C 0.14425 0.27034 0.017 0.0
C903 C 0.1382 0.30217 0.00693 0.0
C904 C 0.11873 0.33218 0.01205 0.0
C905 C 0.10244 0.32748 0.02682 0.0
C906 C 0.16387 0.23695 0.01188 0.0
C907 C 0.11339 0.36784 0.00182 0.0
C908 C 0.21036 0.32539 0.97098 0.0
C909 C 0.17329 0.29153 0.96137 0.0
C910 C 0.19888 0.33157 0.98563 0.0
C911 C 0.14957 0.30168 0.99089 0.0
C912 C 0.11165 0.26869 0.98102 0.0
C913 C 0.12392 0.26457 0.96626 0.0
C914 C 0.23992 0.36842 0.99563 0.0
C915 C 0.05883 0.23541 0.9863 0.0
H916 H 0.13198 0.24212 0.03949 0.0
H917 H 0.08507 0.34842 0.03063 0.0
H918 H 0.13841 0.21047 0.00339 0.0
H919 H 0.20089 0.25931 0.00657 0.0
H920 H 0.16737 0.21529 0.02118 0.0
H921 H 0.10355 0.39283 0.00797 0.0
H922 H 0.14857 0.39098 0.99562 0.0
H923 H 0.0838 0.34662 0.9935 0.0
H924 H 0.24861 0.34605 0.96711 0.0
H925 H 0.09559 0.23781 0.95884 0.0
H926 H 0.24905 0.34816 0.00409 0.0
H927 H 0.22757 0.39159 0.00167 0.0
H928 H 0.27439 0.39333 0.98931 0.0
H929 H 0.05821 0.20932 0.99487 0.0
H930 H 0.03342 0.21332 0.9771 0.0
H931 H 0.04421 0.25787 0.99158 0.0
C932 C 0.81931 0.14129 0.36705 0.0
C933 C 0.81458 0.09471 0.36992 0.0
C934 C 0.83146 0.1621 0.3527 0.0
C935 C 0.84039 0.13622 0.34121 0.0
C936 C 0.83573 0.08923 0.34414 0.0
C937 C 0.82234 0.06888 0.3584 0.0
C938 C 0.83501 0.21173 0.34985 0.0
C939 C 0.84633 0.061 0.33234 0.0
C940 C 0.84549 0.16219 0.29979 0.0
C941 C 0.89712 0.18942 0.29742 0.0
C942 C 0.82603 0.14754 0.31423 0.0
C943 C 0.85905 0.15956 0.32644 0.0
C944 C 0.91099 0.18887 0.32417 0.0
C945 C 0.92928 0.2038 0.30976 0.0
C946 C 0.77032 0.11724 0.31632 0.0
C947 C 0.94762 0.20166 0.33681 0.0
H948 H 0.81259 0.1609 0.37592 0.0
H949 H 0.81892 0.03296 0.36064 0.0
H950 H 0.87403 0.24004 0.34716 0.0
H951 H 0.81181 0.20903 0.3401 0.0
H952 H 0.82275 0.22495 0.3596 0.0
H953 H 0.84001 0.02445 0.3364 0.0
H954 H 0.8223 0.0545 0.32249 0.0
H955 H 0.88562 0.08338 0.3286 0.0
H956 H 0.82033 0.15137 0.29038 0.0
H957 H 0.96927 0.22511 0.30815 0.0
H958 H 0.75856 0.13135 0.32595 0.0
H959 H 0.75941 0.078 0.31873 0.0
H960 H 0.74981 0.1179 0.30626 0.0
H961 H 0.93798 0.21854 0.34618 0.0
H962 H 0.9866 0.22786 0.33335 0.0
H963 H 0.94574 0.16712 0.34104 0.0
C964 C 0.66015 0.79731 0.69789 0.0
C965 C 0.69841 0.83001 0.70736 0.0
C966 C 0.65714 0.81124 0.68326 0.0
C967 C 0.69449 0.85814 0.67791 0.0
C968 C 0.73189 0.89215 0.68772 0.0
C969 C 0.733 0.87779 0.70245 0.0
C970 C 0.61575 0.77466 0.6733 0.0
C971 C 0.77294 0.94213 0.68237 0.0
C972 C 0.72872 0.87027 0.63697 0.0
C973 C 0.70997 0.90028 0.63188 0.0
C974 C 0.72328 0.85561 0.65195 0.0
C975 C 0.69708 0.87012 0.66183 0.0
C976 C 0.67563 0.89805 0.65646 0.0
C977 C 0.68312 0.91357 0.64158 0.0
C978 C 0.74752 0.82662 0.65734 0.0
C979 C 0.64601 0.91271 0.6665 0.0
H980 H 0.63388 0.76007 0.70174 0.0
H981 H 0.76319 0.90241 0.70977 0.0
H982 H 0.59914 0.79356 0.66698 0.0
H983 H 0.63101 0.75908 0.66508 0.0
H984 H 0.58583 0.74333 0.6797 0.0
H985 H 0.79733 0.96535 0.69161 0.0
H986 H 0.79626 0.93649 0.67409 0.0
H987 H 0.75704 0.96288 0.67675 0.0
H988 H 0.74984 0.8605 0.62944 0.0
H989 H 0.66839 0.93662 0.63754 0.0
H990 H 0.71936 0.79126 0.66259 0.0
H991 H 0.77577 0.84842 0.66596 0.0
H992 H 0.76604 0.81782 0.64821 0.0
H993 H 0.61741 0.87974 0.67266 0.0
H994 H 0.6272 0.92953 0.66021 0.0
H995 H 0.67106 0.94008 0.67487 0.0
C996 C 0.92118 0.74108 0.02365 0.0
C997 C 0.89666 0.70928 0.03564 0.0
C998 C 0.89969 0.73132 0.0095 0.0
C999 C 0.85297 0.68793 0.00717 0.0
C1000 C 0.82863 0.65472 0.01912 0.0
C1001 C 0.85048 0.66622 0.03333 0.0
C1002 C 0.92635 0.76843 0.99716 0.0
C1003 C 0.77945 0.60746 0.01691 0.0
C1004 C 0.78326 0.70384 0.9753 0.0
C1005 C 0.79914 0.68646 0.96323 0.0
C1006 C 0.79799 0.70162 0.98984 0.0
C1007 C 0.82837 0.68033 0.99248 0.0
C1008 C 0.84094 0.65875 0.98056 0.0
C1009 C 0.82664 0.66256 0.966 0.0
C1010 C 0.78453 0.72598 0.00217 0.0
C1011 C 0.8721 0.63443 0.98305 0.0
H1012 H 0.9568 0.77451 0.02543 0.0
H1013 H 0.83185 0.64127 0.04257 0.0
H1014 H 0.93301 0.74986 0.98761 0.0
H1015 H 0.90275 0.7836 0.99311 0.0
H1016 H 0.96273 0.80001 0.00082 0.0
H1017 H 0.76794 0.58325 0.02693 0.0
H1018 H 0.75 0.61669 0.0143 0.0
H1019 H 0.78185 0.58621 0.00731 0.0
H1020 H 0.76156 0.72195 0.97337 0.0
H1021 H 0.83852 0.64841 0.95678 0.0
H1022 H 0.8186 0.76006 0.00596 0.0
H1023 H 0.76916 0.70076 0.01188 0.0
H1024 H 0.75686 0.73666 0.99853 0.0
H1025 H 0.9115 0.66357 0.98485 0.0
H1026 H 0.87058 0.61142 0.97336 0.0
H1027 H 0.85948 0.6106 0.99313 0.0
C1028 C 0.1564 0.83397 0.2985 0.0
C1029 C 0.10479 0.81196 0.29643 0.0
C1030 C 0.17747 0.84911 0.31275 0.0
C1031 C 0.14625 0.84318 0.32502 0.0
C1032 C 0.09412 0.81984 0.32302 0.0
C1033 C 0.07409 0.80412 0.30882 0.0
C1034 C 0.23316 0.87282 0.31458 0.0
C1035 C 0.05952 0.81385 0.33572 0.0
C1036 C 0.18383 0.85761 0.36572 0.0
C1037 C 0.19455 0.90647 0.36849 0.0
C1038 C 0.17109 0.83727 0.35133 0.0
C1039 C 0.16771 0.86611 0.33964 0.0
C1040 C 0.17935 0.9157 0.34237 0.0
C1041 C 0.1931 0.93536 0.3567 0.0
C1042 C 0.16003 0.78464 0.34872 0.0
C1043 C 0.17491 0.94733 0.33034 0.0
H1044 H 0.18029 0.83969 0.28901 0.0
H1045 H 0.03417 0.78719 0.30739 0.0
H1046 H 0.24948 0.91319 0.31683 0.0
H1047 H 0.24207 0.85636 0.32424 0.0
H1048 H 0.25125 0.86831 0.30449 0.0
H1049 H 0.01966 0.79285 0.3324 0.0
H1050 H 0.06515 0.79415 0.34515 0.0
H1051 H 0.06805 0.85107 0.33981 0.0
H1052 H 0.18559 0.8354 0.37476 0.0
H1053 H 0.2012 0.97312 0.35877 0.0
H1054 H 0.18006 0.78294 0.33869 0.0
H1055 H 0.11959 0.7601 0.34665 0.0
H1056 H 0.1708 0.7697 0.35838 0.0
H1057 H 0.19707 0.94894 0.32045 0.0
H1058 H 0.18771 0.98598 0.33413 0.0
H1059 H 0.13546 0.93033 0.32675 0.0
C1060 C 0.25888 0.07426 0.64261 0.0
C1061 C 0.29038 0.10075 0.63074 0.0
C1062 C 0.26572 0.09562 0.65672 0.0
C1063 C 0.30585 0.14439 0.65916 0.0
C1064 C 0.33895 0.17084 0.64736 0.0
C1065 C 0.33035 0.14893 0.63317 0.0
C1066 C 0.22874 0.06654 0.66888 0.0
C1067 C 0.38287 0.22239 0.64969 0.0
C1068 C 0.27888 0.20923 0.69019 0.0
C1069 C 0.29857 0.19733 0.70258 0.0
C1070 C 0.2836 0.19472 0.67584 0.0
C1071 C 0.3097 0.16863 0.67372 0.0
C1072 C 0.33304 0.15985 0.68597 0.0
C1073 C 0.3267 0.1738 0.70033 0.0
C1074 C 0.25721 0.20394 0.66314 0.0
C1075 C 0.36234 0.13332 0.68404 0.0
H1076 H 0.22779 0.0371 0.64077 0.0
H1077 H 0.35512 0.16922 0.62405 0.0
H1078 H 0.24834 0.06288 0.67869 0.0
H1079 H 0.20949 0.08679 0.67253 0.0
H1080 H 0.20015 0.02865 0.66519 0.0
H1081 H 0.40812 0.23558 0.63989 0.0
H1082 H 0.36952 0.24903 0.6518 0.0
H1083 H 0.40445 0.22295 0.65961 0.0
H1084 H 0.25735 0.22771 0.69172 0.0
H1085 H 0.34259 0.16501 0.7098 0.0
H1086 H 0.22584 0.16788 0.65924 0.0
H1087 H 0.28284 0.2213 0.6536 0.0
H1088 H 0.24208 0.22836 0.66644 0.0
H1089 H 0.33631 0.09305 0.68219 0.0
H1090 H 0.38541 0.13742 0.69398 0.0
H1091 H 0.387 0.14776 0.67416 0.0
C1092 C 0.03963 0.62046 0.06881 0.0
C1093 C 0.00647 0.62466 0.05918 0.0
C1094 C 0.04314 0.57701 0.06894 0.0
C1095 C 0.01393 0.53795 0.05887 0.0
C1096 C 0.98245 0.54344 0.04858 0.0
C1097 C 0.97841 0.58642 0.04906 0.0
C1098 C 0.07617 0.57191 0.08032 0.0
C1099 C 0.95204 0.5034 0.03734 0.0
C1100 C 0.05189 0.44075 0.05216 0.0
C1101 C 0.01645 0.40069 0.06061 0.0
C1102 C 0.05098 0.4854 0.05126 0.0
C1103 C 0.01476 0.49052 0.05943 0.0
C1104 C 0.9789 0.45011 0.06803 0.0
C1105 C 0.97968 0.40524 0.06832 0.0
C1106 C 0.08868 0.527 0.04158 0.0
C1107 C 0.94043 0.45466 0.07716 0.0
H1108 H 0.06068 0.6499 0.07677 0.0
H1109 H 0.95277 0.58995 0.04163 0.0
H1110 H 0.05304 0.54045 0.08791 0.0
H1111 H 0.10289 0.56324 0.07476 0.0
H1112 H 0.09747 0.60623 0.08707 0.0
H1113 H 0.93316 0.51554 0.02924 0.0
H1114 H 0.97621 0.49265 0.03113 0.0
H1115 H 0.92325 0.46965 0.04314 0.0
H1116 H 0.0802 0.43698 0.04615 0.0
H1117 H 0.9527 0.37434 0.07499 0.0
H1118 H 0.11255 0.56016 0.04849 0.0
H1119 H 0.06928 0.53819 0.03339 0.0
H1120 H 0.113 0.51619 0.03545 0.0
H1121 H 0.95918 0.48644 0.08499 0.0
H1122 H 0.91635 0.42036 0.08364 0.0
H1123 H 0.91639 0.46242 0.06979 0.0
C1124 C 0.57662 0.96653 0.40009 0.0
C1125 C 0.61783 0.00177 0.39201 0.0
C1126 C 0.53161 0.96724 0.39993 0.0
C1127 C 0.52764 0.00311 0.39115 0.0
C1128 C 0.56866 0.03734 0.38249 0.0
C1129 C 0.61352 0.03674 0.38321 0.0
C1130 C 0.48891 0.93078 0.40954 0.0
C1131 C 0.56541 0.07504 0.37261 0.0
C1132 C 0.39642 0.97366 0.38186 0.0
C1133 C 0.38944 0.00423 0.39188 0.0
C1134 C 0.44187 0.97424 0.38114 0.0
C1135 C 0.48062 0.00495 0.39105 0.0
C1136 C 0.47406 0.03668 0.40103 0.0
C1137 C 0.42858 0.03647 0.40117 0.0
C1138 C 0.44796 0.94116 0.37001 0.0
C1139 C 0.51425 0.0692 0.41197 0.0
H1140 H 0.58032 0.94001 0.40706 0.0
H1141 H 0.64554 0.06398 0.37695 0.0
H1142 H 0.47875 0.95135 0.41761 0.0
H1143 H 0.45556 0.90786 0.40258 0.0
H1144 H 0.49814 0.90554 0.4158 0.0
H1145 H 0.59971 0.09692 0.36589 0.0
H1146 H 0.53314 0.056 0.36496 0.0
H1147 H 0.55929 0.1012 0.3795 0.0
H1148 H 0.36592 0.94871 0.37468 0.0
H1149 H 0.42271 0.05946 0.40908 0.0
H1150 H 0.45212 0.91207 0.37593 0.0
H1151 H 0.48226 0.96327 0.36333 0.0
H1152 H 0.41566 0.92256 0.36232 0.0
H1153 H 0.52216 0.04557 0.41948 0.0
H1154 H 0.50354 0.09216 0.41884 0.0
H1155 H 0.54933 0.09433 0.406 0.0
C1156 C 0.4207 0.3991 0.7417 0.0
C1157 C 0.37841 0.38522 0.73295 0.0
C1158 C 0.46153 0.44744 0.74108 0.0
C1159 C 0.4606 0.48215 0.73105 0.0
C1160 C 0.41783 0.46831 0.72217 0.0
C1161 C 0.37666 0.42 0.72342 0.0
C1162 C 0.50569 0.4612 0.75111 0.0
C1163 C 0.41618 0.504 0.71108 0.0
C1164 C 0.55102 0.61837 0.73858 0.0
C1165 C 0.59201 0.62658 0.72989 0.0
C1166 C 0.50766 0.57167 0.73891 0.0
C1167 C 0.5047 0.5328 0.72994 0.0
C1168 C 0.54533 0.54146 0.72069 0.0
C1169 C 0.58899 0.58816 0.72098 0.0
C1170 C 0.46587 0.56344 0.7493 0.0
C1171 C 0.54292 0.50122 0.71068 0.0
H1172 H 0.4217 0.37208 0.74913 0.0
H1173 H 0.34396 0.40883 0.71656 0.0
H1174 H 0.53914 0.47061 0.74432 0.0
H1175 H 0.51412 0.49469 0.75776 0.0
H1176 H 0.49916 0.43057 0.75885 0.0
H1177 H 0.38015 0.48741 0.70501 0.0
H1178 H 0.4222 0.53828 0.7168 0.0
H1179 H 0.44674 0.51536 0.70287 0.0
H1180 H 0.55346 0.64807 0.74553 0.0
H1181 H 0.6206 0.59475 0.71416 0.0
H1182 H 0.46004 0.53468 0.75766 0.0
H1183 H 0.43053 0.54942 0.74304 0.0
H1184 H 0.47366 0.59801 0.75526 0.0
H1185 H 0.54139 0.47069 0.71751 0.0
H1186 H 0.57564 0.51539 0.70314 0.0
H1187 H 0.5085 0.48498 0.70384 0.0
C1188 C 0.42379 0.0285 0.61721 0.0
C1189 C 0.38421 0.99716 0.60788 0.0
C1190 C 0.46755 0.02582 0.61761 0.0
C1191 C 0.4723 0.99215 0.60807 0.0
C1192 C 0.432 0.95977 0.59879 0.0
C1193 C 0.38793 0.96215 0.59898 0.0
C1194 C 0.50904 0.05973 0.62801 0.0
C1195 C 0.43623 0.92417 0.58823 0.0
C1196 C 0.60369 0.02391 0.59764 0.0
C1197 C 0.60935 0.98932 0.60616 0.0
C1198 C 0.55893 0.02497 0.59805 0.0
C1199 C 0.51992 0.99169 0.60756 0.0
C1200 C 0.52638 0.95799 0.61659 0.0
C1201 C 0.57081 0.95668 0.61559 0.0
C1202 C 0.55285 0.06066 0.58803 0.0
C1203 C 0.48632 0.92314 0.62723 0.0
H1204 H 0.42064 0.05553 0.6241 0.0
H1205 H 0.35743 0.93848 0.59163 0.0
H1206 H 0.52095 0.03775 0.63487 0.0
H1207 H 0.54188 0.08677 0.62149 0.0
H1208 H 0.49778 0.0808 0.63555 0.0
H1209 H 0.40126 0.9011 0.58191 0.0
H1210 H 0.4669 0.94541 0.58021 0.0
H1211 H 0.44566 0.89906 0.59444 0.0
H1212 H 0.63343 0.04867 0.59022 0.0
H1213 H 0.5755 0.93009 0.62223 0.0
H1214 H 0.54525 0.08611 0.59477 0.0
H1215 H 0.52038 0.03963 0.58057 0.0
H1216 H 0.58643 0.0834 0.5811 0.0
H1217 H 0.47573 0.94461 0.6348 0.0
H1218 H 0.49841 0.90118 0.63404 0.0
H1219 H 0.45242 0.89693 0.62094 0.0
C1220 C 0.37878 0.4324 0.92582 0.0
C1221 C 0.37012 0.39174 0.93471 0.0
C1222 C 0.42599 0.47504 0.92519 0.0
C1223 C 0.46487 0.47761 0.93409 0.0
C1224 C 0.45586 0.43717 0.94345 0.0
C1225 C 0.40866 0.39417 0.94343 0.0
C1226 C 0.4346 0.5166 0.91467 0.0
C1227 C 0.49611 0.43927 0.95341 0.0
C1228 C 0.59899 0.56128 0.92256 0.0
C1229 C 0.61264 0.60352 0.9313 0.0
C1230 C 0.55054 0.52054 0.92309 0.0
C1231 C 0.5156 0.52154 0.93302 0.0
C1232 C 0.52928 0.56424 0.9419 0.0
C1233 C 0.57764 0.60531 0.94072 0.0
C1234 C 0.53687 0.47646 0.91305 0.0
C1235 C 0.49337 0.56592 0.95292 0.0
H1236 H 0.34893 0.43027 0.919 0.0
H1237 H 0.40164 0.36275 0.95039 0.0
H1238 H 0.44844 0.55201 0.92087 0.0
H1239 H 0.46367 0.52229 0.90643 0.0
H1240 H 0.40021 0.50875 0.90858 0.0
H1241 H 0.48189 0.40643 0.96088 0.0
H1242 H 0.52666 0.44091 0.94655 0.0
H1243 H 0.51239 0.47352 0.96031 0.0
H1244 H 0.62623 0.56029 0.91521 0.0
H1245 H 0.58868 0.63799 0.94757 0.0
H1246 H 0.50351 0.46814 0.90634 0.0
H1247 H 0.52723 0.44297 0.91984 0.0
H1248 H 0.56766 0.48295 0.90537 0.0
H1249 H 0.45937 0.56035 0.94712 0.0
H1250 H 0.51001 0.60178 0.95907 0.0
H1251 H 0.4815 0.53515 0.96107 0.0
C1252 C 0.9766 0.58065 0.27862 0.0
C1253 C 0.01306 0.61852 0.26982 0.0
C1254 C 0.97362 0.53401 0.27949 0.0
C1255 C 0.00663 0.52494 0.27088 0.0
C1256 C 0.04303 0.56307 0.26184 0.0
C1257 C 0.04634 0.6097 0.26164 0.0
C1258 C 0.93529 0.49452 0.28958 0.0
C1259 C 0.07762 0.55432 0.25206 0.0
C1260 C 0.02759 0.41655 0.27892 0.0
C1261 C 0.99326 0.38054 0.2692 0.0
C1262 C 0.03137 0.46352 0.27995 0.0
C1263 C 0.00144 0.4748 0.27062 0.0
C1264 C 0.96762 0.43868 0.26054 0.0
C1265 C 0.96334 0.39165 0.26017 0.0
C1266 C 0.06677 0.50077 0.29112 0.0
C1267 C 0.93644 0.44984 0.25 0.0
H1268 H 0.95125 0.58787 0.28505 0.0
H1269 H 0.07435 0.63905 0.25477 0.0
H1270 H 0.90766 0.46261 0.28286 0.0
H1271 H 0.95354 0.48017 0.29715 0.0
H1272 H 0.91514 0.50879 0.29638 0.0
H1273 H 0.10364 0.58802 0.24562 0.0
H1274 H 0.09983 0.54274 0.25891 0.0
H1275 H 0.0555 0.52363 0.24412 0.0
H1276 H 0.05024 0.40743 0.286 0.0
H1277 H 0.93704 0.36365 0.2526 0.0
H1278 H 0.04627 0.51301 0.29853 0.0
H1279 H 0.09576 0.53433 0.28529 0.0
H1280 H 0.08546 0.48525 0.29806 0.0
H1281 H 0.91186 0.45962 0.25637 0.0
H1282 H 0.91285 0.41783 0.24262 0.0
H1283 H 0.96101 0.48244 0.24297 0.0
C1284 C 0.02624 0.10593 0.08536 0.0
C1285 C 0.00363 0.12175 0.07483 0.0
C1286 C 0.01877 0.05755 0.08508 0.0
C1287 C 0.9883 0.02411 0.07389 0.0
C1288 C 0.96458 0.0394 0.06336 0.0
C1289 C 0.97225 0.08807 0.06402 0.0
C1290 C 0.0441 0.04247 0.09665 0.0
C1291 C 0.93207 0.00474 0.05122 0.0
C1292 C 0.01366 0.91852 0.06597 0.0
C1293 C 0.97567 0.87932 0.07411 0.0
C1294 C 0.01713 0.96539 0.06536 0.0
C1295 C 0.98212 0.97342 0.07322 0.0
C1296 C 0.94338 0.93393 0.08131 0.0
C1297 C 0.9405 0.88734 0.08161 0.0
C1298 C 0.05881 0.0066 0.05654 0.0
C1299 C 0.90572 0.94122 0.08997 0.0
H1300 H 0.0501 0.13155 0.09387 0.0
H1301 H 0.95482 0.10013 0.05583 0.0
H1302 H 0.01605 0.0088 0.10267 0.0
H1303 H 0.07028 0.03285 0.09117 0.0
H1304 H 0.06521 0.07245 0.10491 0.0
H1305 H 0.91529 0.02188 0.04414 0.0
H1306 H 0.95445 0.99413 0.04406 0.0
H1307 H 0.90168 0.96996 0.05615 0.0
H1308 H 0.04078 0.91267 0.06004 0.0
H1309 H 0.91092 0.85735 0.08793 0.0
H1310 H 0.0843 0.03682 0.06416 0.0
H1311 H 0.04351 0.02296 0.0486 0.0
H1312 H 0.08083 0.99339 0.05022 0.0
H1313 H 0.92483 0.96873 0.099 0.0
H1314 H 0.87626 0.90602 0.09501 0.0
H1315 H 0.88774 0.95643 0.08263 0.0
C1316 C 0.92905 0.03249 0.41965 0.0
C1317 C 0.88905 0.00372 0.41004 0.0
C1318 C 0.97234 0.02882 0.41949 0.0
C1319 C 0.97616 0.996 0.40935 0.0
C1320 C 0.93585 0.96651 0.39969 0.0
C1321 C 0.89254 0.97041 0.40023 0.0
C1322 C 0.01405 0.06021 0.43018 0.0
C1323 C 0.93877 0.93137 0.38864 0.0
C1324 C 0.10712 0.02163 0.40051 0.0
C1325 C 0.11034 0.98625 0.40944 0.0
C1326 C 0.06332 0.02465 0.40015 0.0
C1327 C 0.02213 0.99206 0.40911 0.0
C1328 C 0.02542 0.95673 0.41827 0.0
C1329 C 0.06927 0.95407 0.41826 0.0
C1330 C 0.06102 0.06256 0.39015 0.0
C1331 C 0.98271 0.92193 0.42819 0.0
H1332 H 0.9266 0.05809 0.42736 0.0
H1333 H 0.86196 0.94826 0.39273 0.0
H1334 H 0.02234 0.03593 0.43726 0.0
H1335 H 0.04849 0.08516 0.4239 0.0
H1336 H 0.00488 0.08337 0.43751 0.0
H1337 H 0.90447 0.91149 0.38179 0.0
H1338 H 0.9711 0.95235 0.38113 0.0
H1339 H 0.94476 0.90341 0.39457 0.0
H1340 H 0.13849 0.04642 0.3936 0.0
H1341 H 0.07141 0.92675 0.42528 0.0
H1342 H 0.05502 0.08904 0.39692 0.0
H1343 H 0.02895 0.0437 0.38242 0.0
H1344 H 0.0956 0.08402 0.38351 0.0
H1345 H 0.9739 0.94378 0.43616 0.0
H1346 H 0.99114 0.89635 0.43458 0.0
H1347 H 0.94879 0.8993 0.42141 0.0
C1348 C 0.11435 0.05021 0.74471 0.0
C1349 C 0.12289 0.09548 0.73856 0.0
C1350 C 0.06711 0.00747 0.74414 0.0
C1351 C 0.02744 0.00986 0.73717 0.0
C1352 C 0.03612 0.0548 0.73045 0.0
C1353 C 0.08372 0.09716 0.73127 0.0
C1354 C 0.05922 0.96032 0.75154 0.0
C1355 C 0.99471 0.05861 0.72282 0.0
C1356 C 0.90788 0.88921 0.72847 0.0
C1357 C 0.87746 0.88668 0.74038 0.0
C1358 C 0.95695 0.92917 0.72721 0.0
C1359 C 0.97595 0.9669 0.73823 0.0
C1360 C 0.94574 0.96385 0.75043 0.0
C1361 C 0.8969 0.92396 0.75132 0.0
C1362 C 0.98815 0.93148 0.71401 0.0
C1363 C 0.96485 0.00296 0.76252 0.0
H1364 H 0.14433 0.0483 0.75031 0.0
H1365 H 0.08998 0.13175 0.72635 0.0
H1366 H 0.03431 0.95186 0.7613 0.0
H1367 H 0.04068 0.92835 0.74378 0.0
H1368 H 0.09475 0.96339 0.75538 0.0
H1369 H 0.00857 0.09466 0.71694 0.0
H1370 H 0.97539 0.02787 0.71469 0.0
H1371 H 0.96667 0.05485 0.73118 0.0
H1372 H 0.89302 0.86064 0.71995 0.0
H1373 H 0.87383 0.92207 0.76065 0.0
H1374 H 0.02308 0.93333 0.71784 0.0
H1375 H 0.99894 0.96584 0.70752 0.0
H1376 H 0.96812 0.89881 0.70654 0.0
H1377 H 0.99885 0.00602 0.76765 0.0
H1378 H 0.93681 0.9945 0.77142 0.0
H1379 H 0.97534 0.03984 0.75769 0.0
C1380 C 0.89548 0.9638 0.58153 0.0
C1381 C 0.88196 0.98975 0.59155 0.0
C1382 C 0.94364 0.97055 0.58146 0.0
C1383 C 0.97914 0.00364 0.59181 0.0
C1384 C 0.96606 0.03046 0.60186 0.0
C1385 C 0.91761 0.02349 0.60153 0.0
C1386 C 0.95639 0.94194 0.57038 0.0
C1387 C 0.00294 0.06574 0.61313 0.0
C1388 C 0.08631 0.98082 0.59999 0.0
C1389 C 0.12443 0.01721 0.59115 0.0
C1390 C 0.03921 0.9769 0.60063 0.0
C1391 C 0.02981 0.00966 0.59207 0.0
C1392 C 0.06805 0.04641 0.58312 0.0
C1393 C 0.11494 0.04992 0.58283 0.0
C1394 C -0.00062 0.93745 0.6104 0.0
C1395 C 0.05919 0.0815 0.57364 0.0
H1396 H 0.86829 0.93806 0.57365 0.0
H1397 H 0.90732 0.04349 0.60933 0.0
H1398 H 0.98898 0.96808 0.5636 0.0
H1399 H 0.96687 0.91719 0.57635 0.0
H1400 H 0.92488 0.91882 0.56278 0.0
H1401 H 0.98709 0.08416 0.62005 0.0
H1402 H 0.015 0.04516 0.62056 0.0
H1403 H 0.0367 0.09486 0.6074 0.0
H1404 H 0.09334 0.95562 0.60654 0.0
H1405 H 0.14408 0.07814 0.57593 0.0
H1406 H 0.96779 0.91049 0.60343 0.0
H1407 H 0.98455 0.95472 0.61817 0.0
H1408 H 0.01347 0.91672 0.61698 0.0
H1409 H 0.02964 0.05994 0.56534 0.0
H1410 H 0.09332 0.109 0.56765 0.0
H1411 H 0.04589 0.10196 0.58066 0.0
C1412 C 0.94614 0.87263 0.9203 0.0
C1413 C 0.90112 0.86142 0.92725 0.0
C1414 C 0.98776 0.92061 0.92103 0.0
C1415 C 0.98447 0.95816 0.92902 0.0
C1416 C 0.93984 0.9467 0.93654 0.0
C1417 C 0.89856 0.89851 0.9355 0.0
C1418 C 0.03455 0.93159 0.91271 0.0
C1419 C 0.93517 0.98574 0.9453 0.0
C1420 C 0.10411 0.0784 0.93785 0.0
C1421 C 0.10413 0.10998 0.92668 0.0
C1422 C 0.06519 0.02879 0.93886 0.0
C1423 C 0.026 0.01042 0.92831 0.0
C1424 C 0.02632 0.04194 0.91689 0.0
C1425 C 0.06517 0.09133 0.91627 0.0
C1426 C 0.06567 0.99623 0.95126 0.0
C1427 C 0.98559 0.02351 0.9053 0.0
H1428 H 0.94859 0.84425 0.91392 0.0
H1429 H 0.86413 0.89009 0.94103 0.0
H1430 H 0.04094 0.95789 0.90348 0.0
H1431 H 0.06739 0.94979 0.92017 0.0
H1432 H 0.03235 0.89744 0.90798 0.0
H1433 H 0.89972 0.96969 0.95167 0.0
H1434 H 0.96677 0.00477 0.95318 0.0
H1435 H 0.93672 0.01447 0.93761 0.0
H1436 H 0.13401 0.09266 0.94596 0.0
H1437 H 0.06513 0.11533 0.9075 0.0
H1438 H 0.06536 0.96298 0.94657 0.0
H1439 H 0.03157 0.98269 0.95814 0.0
H1440 H 0.0988 0.01621 0.95858 0.0
H1441 H 0.98318 0.99105 0.89932 0.0
H1442 H 0.99188 0.05265 0.897 0.0
H1443 H 0.94905 0.01084 0.91074 0.0
C1444 C 0.97765 0.89072 0.26793 0.0
C1445 C 0.01255 0.89012 0.25813 0.0
C1446 C 0.97119 0.93238 0.26878 0.0
C1447 C -0.00032 0.97383 0.25941 0.0
C1448 C 0.03452 0.97315 0.24939 0.0
C1449 C 0.04074 0.93147 0.24894 0.0
C1450 C 0.93403 0.93213 0.2797 0.0
C1451 C 0.06492 0.01628 0.23903 0.0
C1452 C 0.95041 0.06022 0.24992 0.0
C1453 C 0.98054 0.10199 0.25876 0.0
C1454 C 0.95591 0.01808 0.25018 0.0
C1455 C 0.992 0.01738 0.25964 0.0
C1456 C 0.02218 0.05909 0.26873 0.0
C1457 C 0.01637 0.10117 0.26809 0.0
C1458 C 0.92366 0.97466 0.24012 0.0
C1459 C 0.06071 0.05933 0.27906 0.0
H1460 H 0.95598 0.85902 0.27512 0.0
H1461 H 0.06756 0.93118 0.24125 0.0
H1462 H 0.9528 0.96476 0.28723 0.0
H1463 H 0.90458 0.93538 0.27365 0.0
H1464 H 0.91608 0.8977 0.28655 0.0
H1465 H 0.0906 0.00989 0.23195 0.0
H1466 H 0.03978 0.02256 0.2317 0.0
H1467 H 0.08726 0.05089 0.24554 0.0
H1468 H 0.92279 0.06061 0.2426 0.0
H1469 H 0.03953 0.13316 0.27501 0.0
H1470 H 0.90265 0.94017 0.24678 0.0
H1471 H 0.94746 0.96833 0.23222 0.0
H1472 H 0.89665 0.98078 0.23364 0.0
H1473 H 0.04303 0.02657 0.28657 0.0
H1474 H 0.0794 0.09366 0.28594 0.0
H1475 H 0.08948 0.05636 0.27252 0.0
loop_
_geom_bond_atom_site_label_1
_geom_bond_atom_site_label_2
_geom_bond_distance
_geom_bond_site_symmetry_2
_ccdc_geom_bond_type
Co0 O2 2.143 . S
Co0 O8 2.074 . S
Co0 O11 2.093 . S
Co0 O24 2.097 . S
Co0 N41 2.151 . S
Co0 N49 2.214 . S
Co1 O2 2.160 1_655 S
Co1 O7 2.058 1_655 S
Co1 O17 2.057 . S
Co1 O32 2.037 . S
Co1 N36 2.145 . S
Co1 N57 2.257 . S
O2 Co0 2.143 . S
O2 Co1 2.160 1_455 S
C3 O4 1.278 . S
C3 O11 1.224 . S
O4 C3 1.278 . S
C5 O6 1.245 1_655 S
C5 O17 1.232 . S
O6 C5 1.245 1_455 S
O7 Co1 2.058 1_455 S
O7 C33 1.269 . S
O8 Co0 2.074 . S
O8 C33 1.257 . S
H9 C34 0.930 . S
H10 C40 0.930 . S
O11 Co0 2.093 . S
O11 C3 1.224 . S
H12 C44 0.929 . S
H13 C46 0.930 . S
H14 C47 0.930 . S
H15 C45 0.929 . S
H16 C48 0.928 . S
O17 Co1 2.057 . S
O17 C5 1.232 . S
H18 C37 0.929 . S
H19 C38 0.929 . S
H20 C50 0.931 . S
H21 C42 0.929 . S
H22 C51 0.930 . S
H23 C43 0.931 . S
O24 Co0 2.097 . S
O24 C52 1.214 1_455 S
H25 C53 0.929 . S
H26 C54 0.929 . S
H27 C55 0.930 . S
H28 C56 0.929 . S
H29 C58 0.930 . S
H30 C35 0.930 . S
H31 C39 0.930 . S
O32 Co1 2.037 . S
O32 C52 1.234 . S
C33 O7 1.269 . S
C33 O8 1.257 . S
C34 H9 0.930 . S
C34 C37 1.388 . S
C34 C39 1.418 . S
C35 H30 0.930 . S
C35 C38 1.404 . S
C35 C39 1.353 . S
N36 Co1 2.145 . S
N36 C37 1.397 . S
N36 C38 1.334 . S
C37 H18 0.929 . S
C37 C34 1.388 . S
C37 N36 1.397 . S
C38 H19 0.929 . S
C38 C35 1.404 . S
C38 N36 1.334 . S
C39 H31 0.930 . S
C39 C34 1.418 . S
C39 C35 1.353 . S
C40 H10 0.930 . S
C40 N41 1.330 . S
C40 C42 1.446 . S
N41 Co0 2.151 . S
N41 C40 1.330 . S
N41 C45 1.418 . S
C42 H21 0.929 . S
C42 C40 1.446 . S
C42 C43 1.332 . S
C43 H23 0.931 . S
C43 C42 1.332 . S
C43 C44 1.267 . S
C44 H12 0.929 . S
C44 C43 1.267 . S
C44 C45 1.251 . S
C45 H15 0.929 . S
C45 N41 1.418 . S
C45 C44 1.251 . S
C46 H13 0.930 . S
C46 C48 1.406 . S
C46 C51 1.261 . S
C47 H14 0.930 . S
C47 N49 1.325 . S
C47 C50 1.357 . S
C48 H16 0.928 . S
C48 C46 1.406 . S
C48 N49 1.261 . S
N49 Co0 2.214 . S
N49 C47 1.325 . S
N49 C48 1.261 . S
C50 H20 0.931 . S
C50 C47 1.357 . S
C50 C51 1.312 . S
C51 H22 0.930 . S
C51 C46 1.261 . S
C51 C50 1.312 . S
C52 O24 1.214 1_655 S
C52 O32 1.234 . S
C53 H25 0.929 . S
C53 C56 1.391 . S
C53 C58 1.391 . S
C54 H26 0.929 . S
C54 C55 1.390 . S
C54 N57 1.391 . S
C55 H27 0.930 . S
C55 C54 1.390 . S
C55 C56 1.392 . S
C56 H28 0.929 . S
C56 C53 1.391 . S
C56 C55 1.392 . S
N57 Co1 2.257 . S
N57 C54 1.391 . S
N57 C58 1.388 . S
C58 H29 0.930 . S
C58 C53 1.391 . S
C58 N57 1.388 . S
Co59 O61 2.145 . S
Co59 O67 2.074 . S
Co59 O70 2.093 . S
Co59 O83 2.097 1_545 S
Co59 N100 2.151 . S
Co59 N108 2.214 . S
Co60 O61 2.153 1_565 S
Co60 O66 2.058 1_565 S
Co60 O76 2.057 . S
Co60 O91 2.037 . S
Co60 N95 2.145 . S
Co60 N116 2.257 . S
O61 Co59 2.145 . S
O61 Co60 2.153 1_545 S
C62 O63 1.278 1_545 S
C62 O70 1.224 . S
O63 C62 1.278 1_565 S
C64 O65 1.245 1_565 S
C64 O76 1.232 . S
O65 C64 1.245 1_545 S
O66 Co60 2.058 1_545 S
O66 C92 1.269 . S
O67 Co59 2.074 . S
O67 C92 1.257 . S
H68 C93 0.930 . S
H69 C99 0.930 . S
O70 Co59 2.093 . S
O70 C62 1.224 . S
H71 C103 0.929 . S
H72 C105 0.930 . S
H73 C106 0.930 . S
H74 C104 0.929 . S
H75 C107 0.928 . S
O76 Co60 2.057 . S
O76 C64 1.232 . S
H77 C96 0.929 . S
H78 C97 0.929 . S
H79 C109 0.931 1_455 S
H80 C101 0.929 . S
H81 C110 0.930 . S
H82 C102 0.931 . S
O83 Co59 2.097 1_565 S
O83 C111 1.214 . S
H84 C112 0.929 . S
H85 C113 0.929 . S
H86 C114 0.930 . S
H87 C115 0.929 . S
H88 C117 0.930 . S
H89 C94 0.930 . S
H90 C98 0.930 . S
O91 Co60 2.037 . S
O91 C111 1.234 . S
C92 O66 1.269 . S
C92 O67 1.257 . S
C93 H68 0.930 . S
C93 C96 1.388 . S
C93 C98 1.418 . S
C94 H89 0.930 . S
C94 C97 1.404 . S
C94 C98 1.353 . S
N95 Co60 2.145 . S
N95 C96 1.397 . S
N95 C97 1.334 . S
C96 H77 0.929 . S
C96 C93 1.388 . S
C96 N95 1.397 . S
C97 H78 0.929 . S
C97 C94 1.404 . S
C97 N95 1.334 . S
C98 H90 0.930 . S
C98 C93 1.418 . S
C98 C94 1.353 . S
C99 H69 0.930 . S
C99 N100 1.330 . S
C99 C101 1.446 . S
N100 Co59 2.151 . S
N100 C99 1.330 . S
N100 C104 1.418 . S
C101 H80 0.929 . S
C101 C99 1.446 . S
C101 C102 1.332 . S
C102 H82 0.931 . S
C102 C101 1.332 . S
C102 C103 1.267 . S
C103 H71 0.929 . S
C103 C102 1.267 . S
C103 C104 1.251 . S
C104 H74 0.929 . S
C104 N100 1.418 . S
C104 C103 1.251 . S
C105 H72 0.930 . S
C105 C107 1.406 . S
C105 C110 1.261 1_655 S
C106 H73 0.930 . S
C106 N108 1.325 . S
C106 C109 1.357 . S
C107 H75 0.928 . S
C107 C105 1.406 . S
C107 N108 1.261 . S
N108 Co59 2.214 . S
N108 C106 1.325 . S
N108 C107 1.261 . S
C109 H79 0.931 1_655 S
C109 C106 1.357 . S
C109 C110 1.312 1_655 S
C110 H81 0.930 . S
C110 C105 1.261 1_455 S
C110 C109 1.312 1_455 S
C111 O83 1.214 . S
C111 O91 1.234 . S
C112 H84 0.929 . S
C112 C115 1.391 . S
C112 C117 1.391 . S
C113 H85 0.929 . S
C113 C114 1.390 . S
C113 N116 1.391 . S
C114 H86 0.930 . S
C114 C113 1.390 . S
C114 C115 1.392 . S
C115 H87 0.929 . S
C115 C112 1.391 . S
C115 C114 1.392 . S
N116 Co60 2.257 . S
N116 C113 1.391 . S
N116 C117 1.388 . S
C117 H88 0.930 . S
C117 C112 1.391 . S
C117 N116 1.388 . S
Co118 O120 2.143 . S
Co118 O126 2.074 . S
Co118 O129 2.093 . S
Co118 O142 2.097 . S
Co118 N159 2.151 . S
Co118 N167 2.214 . S
Co119 O120 2.160 . S
Co119 O125 2.058 . S
Co119 O135 2.057 . S
Co119 O150 2.037 . S
Co119 N154 2.145 . S
Co119 N175 2.257 . S
O120 Co118 2.143 . S
O120 Co119 2.160 . S
C121 O122 1.278 . S
C121 O129 1.224 . S
O122 C121 1.278 . S
C123 O124 1.245 . S
C123 O135 1.232 . S
O124 C123 1.245 . S
O125 Co119 2.058 . S
O125 C151 1.269 . S
O126 Co118 2.074 . S
O126 C151 1.257 . S
H127 C152 0.930 . S
H128 C158 0.930 . S
O129 Co118 2.093 . S
O129 C121 1.224 . S
H130 C162 0.929 . S
H131 C164 0.930 . S
H132 C165 0.930 . S
H133 C163 0.929 . S
H134 C166 0.928 . S
O135 Co119 2.057 . S
O135 C123 1.232 . S
H136 C155 0.929 . S
H137 C156 0.929 . S
H138 C168 0.931 . S
H139 C160 0.929 . S
H140 C169 0.930 1_545 S
H141 C161 0.931 . S
O142 Co118 2.097 . S
O142 C170 1.214 . S
H143 C171 0.929 . S
H144 C172 0.929 . S
H145 C173 0.930 . S
H146 C174 0.929 . S
H147 C176 0.930 . S
H148 C153 0.930 . S
H149 C157 0.930 . S
O150 Co119 2.037 . S
O150 C170 1.234 . S
C151 O125 1.269 . S
C151 O126 1.257 . S
C152 H127 0.930 . S
C152 C155 1.388 . S
C152 C157 1.418 . S
C153 H148 0.930 . S
C153 C156 1.404 . S
C153 C157 1.353 . S
N154 Co119 2.145 . S
N154 C155 1.397 . S
N154 C156 1.334 . S
C155 H136 0.929 . S
C155 C152 1.388 . S
C155 N154 1.397 . S
C156 H137 0.929 . S
C156 C153 1.404 . S
C156 N154 1.334 . S
C157 H149 0.930 . S
C157 C152 1.418 . S
C157 C153 1.353 . S
C158 H128 0.930 . S
C158 N159 1.330 . S
C158 C160 1.446 . S
N159 Co118 2.151 . S
N159 C158 1.330 . S
N159 C163 1.418 . S
C160 H139 0.929 . S
C160 C158 1.446 . S
C160 C161 1.332 . S
C161 H141 0.931 . S
C161 C160 1.332 . S
C161 C162 1.267 . S
C162 H130 0.929 . S
C162 C161 1.267 . S
C162 C163 1.251 . S
C163 H133 0.929 . S
C163 N159 1.418 . S
C163 C162 1.251 . S
C164 H131 0.930 . S
C164 C166 1.406 . S
C164 C169 1.261 . S
C165 H132 0.930 . S
C165 N167 1.325 . S
C165 C168 1.357 . S
C166 H134 0.928 . S
C166 C164 1.406 . S
C166 N167 1.261 . S
N167 Co118 2.214 . S
N167 C165 1.325 . S
N167 C166 1.261 . S
C168 H138 0.931 . S
C168 C165 1.357 . S
C168 C169 1.312 . S
C169 H140 0.930 1_565 S
C169 C164 1.261 . S
C169 C168 1.312 . S
C170 O142 1.214 . S
C170 O150 1.234 . S
C171 H143 0.929 . S
C171 C174 1.391 . S
C171 C176 1.391 . S
C172 H144 0.929 . S
C172 C173 1.390 . S
C172 N175 1.391 . S
C173 H145 0.930 . S
C173 C172 1.390 . S
C173 C174 1.392 . S
C174 H146 0.929 . S
C174 C171 1.391 . S
C174 C173 1.392 . S
N175 Co119 2.257 . S
N175 C172 1.391 . S
N175 C176 1.388 . S
C176 H147 0.930 . S
C176 C171 1.391 . S
C176 N175 1.388 . S
Co177 O179 2.143 . S
Co177 O185 2.074 . S
Co177 O188 2.093 . S
Co177 O201 2.097 . S
Co177 N218 2.151 . S
Co177 N226 2.214 . S
Co178 O179 2.160 1_455 S
Co178 O184 2.058 1_455 S
Co178 O194 2.057 . S
Co178 O209 2.037 . S
Co178 N213 2.145 . S
Co178 N234 2.257 . S
O179 Co177 2.143 . S
O179 Co178 2.160 1_655 S
C180 O181 1.278 . S
C180 O188 1.224 . S
O181 C180 1.278 . S
C182 O183 1.245 1_455 S
C182 O194 1.232 . S
O183 C182 1.245 1_655 S
O184 Co178 2.058 1_655 S
O184 C210 1.269 . S
O185 Co177 2.074 . S
O185 C210 1.257 . S
H186 C211 0.930 . S
H187 C217 0.930 . S
O188 Co177 2.093 . S
O188 C180 1.224 . S
H189 C221 0.929 . S
H190 C223 0.930 . S
H191 C224 0.930 . S
H192 C222 0.929 . S
H193 C225 0.928 . S
O194 Co178 2.057 . S
O194 C182 1.232 . S
H195 C214 0.929 . S
H196 C215 0.929 . S
H197 C227 0.931 . S
H198 C219 0.929 . S
H199 C228 0.930 . S
H200 C220 0.931 . S
O201 Co177 2.097 . S
O201 C229 1.214 1_655 S
H202 C230 0.929 . S
H203 C231 0.929 . S
H204 C232 0.930 . S
H205 C233 0.929 . S
H206 C235 0.930 . S
H207 C212 0.930 . S
H208 C216 0.930 . S
O209 Co178 2.037 . S
O209 C229 1.234 . S
C210 O184 1.269 . S
C210 O185 1.257 . S
C211 H186 0.930 . S
C211 C214 1.388 . S
C211 C216 1.418 . S
C212 H207 0.930 . S
C212 C215 1.404 . S
C212 C216 1.353 . S
N213 Co178 2.145 . S
N213 C214 1.397 . S
N213 C215 1.334 . S
C214 H195 0.929 . S
C214 C211 1.388 . S
C214 N213 1.397 . S
C215 H196 0.929 . S
C215 C212 1.404 . S
C215 N213 1.334 . S
C216 H208 0.930 . S
C216 C211 1.418 . S
C216 C212 1.353 . S
C217 H187 0.930 . S
C217 N218 1.330 . S
C217 C219 1.446 . S
N218 Co177 2.151 . S
N218 C217 1.330 . S
N218 C222 1.418 . S
C219 H198 0.929 . S
C219 C217 1.446 . S
C219 C220 1.332 . S
C220 H200 0.931 . S
C220 C219 1.332 . S
C220 C221 1.267 . S
C221 H189 0.929 . S
C221 C220 1.267 . S
C221 C222 1.251 . S
C222 H192 0.929 . S
C222 N218 1.418 . S
C222 C221 1.251 . S
C223 H190 0.930 . S
C223 C225 1.406 . S
C223 C228 1.261 . S
C224 H191 0.930 . S
C224 N226 1.325 . S
C224 C227 1.357 . S
C225 H193 0.928 . S
C225 C223 1.406 . S
C225 N226 1.261 . S
N226 Co177 2.214 . S
N226 C224 1.325 . S
N226 C225 1.261 . S
C227 H197 0.931 . S
C227 C224 1.357 . S
C227 C228 1.312 . S
C228 H199 0.930 . S
C228 C223 1.261 . S
C228 C227 1.312 . S
C229 O201 1.214 1_455 S
C229 O209 1.234 . S
C230 H202 0.929 . S
C230 C233 1.391 . S
C230 C235 1.391 . S
C231 H203 0.929 . S
C231 C232 1.390 . S
C231 N234 1.391 . S
C232 H204 0.930 . S
C232 C231 1.390 . S
C232 C233 1.392 . S
C233 H205 0.929 . S
C233 C230 1.391 . S
C233 C232 1.392 . S
N234 Co178 2.257 . S
N234 C231 1.391 . S
N234 C235 1.388 . S
C235 H206 0.930 . S
C235 C230 1.391 . S
C235 N234 1.388 . S
Co236 O238 2.145 . S
Co236 O244 2.074 . S
Co236 O247 2.093 . S
Co236 O260 2.097 1_565 S
Co236 N277 2.151 . S
Co236 N285 2.214 . S
Co237 O238 2.153 1_545 S
Co237 O243 2.058 1_545 S
Co237 O253 2.057 . S
Co237 O268 2.037 . S
Co237 N272 2.145 . S
Co237 N293 2.257 . S
O238 Co236 2.145 . S
O238 Co237 2.153 1_565 S
C239 O240 1.278 1_565 S
C239 O247 1.224 . S
O240 C239 1.278 1_545 S
C241 O242 1.245 1_545 S
C241 O253 1.232 . S
O242 C241 1.245 1_565 S
O243 Co237 2.058 1_565 S
O243 C269 1.269 . S
O244 Co236 2.074 . S
O244 C269 1.257 . S
H245 C270 0.930 . S
H246 C276 0.930 . S
O247 Co236 2.093 . S
O247 C239 1.224 . S
H248 C280 0.929 . S
H249 C282 0.930 . S
H250 C283 0.930 . S
H251 C281 0.929 . S
H252 C284 0.928 . S
O253 Co237 2.057 . S
O253 C241 1.232 . S
H254 C273 0.929 . S
H255 C274 0.929 . S
H256 C286 0.931 1_655 S
H257 C278 0.929 . S
H258 C287 0.930 . S
H259 C279 0.931 . S
O260 Co236 2.097 1_545 S
O260 C288 1.214 . S
H261 C289 0.929 . S
H262 C290 0.929 . S
H263 C291 0.930 . S
H264 C292 0.929 . S
H265 C294 0.930 . S
H266 C271 0.930 . S
H267 C275 0.930 . S
O268 Co237 2.037 . S
O268 C288 1.234 . S
C269 O243 1.269 . S
C269 O244 1.257 . S
C270 H245 0.930 . S
C270 C273 1.388 . S
C270 C275 1.418 . S
C271 H266 0.930 . S
C271 C274 1.404 . S
C271 C275 1.353 . S
N272 Co237 2.145 . S
N272 C273 1.397 . S
N272 C274 1.334 . S
C273 H254 0.929 . S
C273 C270 1.388 . S
C273 N272 1.397 . S
C274 H255 0.929 . S
C274 C271 1.404 . S
C274 N272 1.334 . S
C275 H267 0.930 . S
C275 C270 1.418 . S
C275 C271 1.353 . S
C276 H246 0.930 . S
C276 N277 1.330 . S
C276 C278 1.446 . S
N277 Co236 2.151 . S
N277 C276 1.330 . S
N277 C281 1.418 . S
C278 H257 0.929 . S
C278 C276 1.446 . S
C278 C279 1.332 . S
C279 H259 0.931 . S
C279 C278 1.332 . S
C279 C280 1.267 . S
C280 H248 0.929 . S
C280 C279 1.267 . S
C280 C281 1.251 . S
C281 H251 0.929 . S
C281 N277 1.418 . S
C281 C280 1.251 . S
C282 H249 0.930 . S
C282 C284 1.406 . S
C282 C287 1.261 1_455 S
C283 H250 0.930 . S
C283 N285 1.325 . S
C283 C286 1.357 . S
C284 H252 0.928 . S
C284 C282 1.406 . S
C284 N285 1.261 . S
N285 Co236 2.214 . S
N285 C283 1.325 . S
N285 C284 1.261 . S
C286 H256 0.931 1_455 S
C286 C283 1.357 . S
C286 C287 1.312 1_455 S
C287 H258 0.930 . S
C287 C282 1.261 1_655 S
C287 C286 1.312 1_655 S
C288 O260 1.214 . S
C288 O268 1.234 . S
C289 H261 0.929 . S
C289 C292 1.391 . S
C289 C294 1.391 . S
C290 H262 0.929 . S
C290 C291 1.390 . S
C290 N293 1.391 . S
C291 H263 0.930 . S
C291 C290 1.390 . S
C291 C292 1.392 . S
C292 H264 0.929 . S
C292 C289 1.391 . S
C292 C291 1.392 . S
N293 Co237 2.257 . S
N293 C290 1.391 . S
N293 C294 1.388 . S
C294 H265 0.930 . S
C294 C289 1.391 . S
C294 N293 1.388 . S
Co295 O297 2.143 . S
Co295 O303 2.074 . S
Co295 O306 2.093 . S
Co295 O319 2.097 . S
Co295 N336 2.151 . S
Co295 N344 2.214 . S
Co296 O297 2.160 . S
Co296 O302 2.058 . S
Co296 O312 2.057 . S
Co296 O327 2.037 . S
Co296 N331 2.145 . S
Co296 N352 2.257 . S
O297 Co295 2.143 . S
O297 Co296 2.160 . S
C298 O299 1.278 . S
C298 O306 1.224 . S
O299 C298 1.278 . S
C300 O301 1.245 . S
C300 O312 1.232 . S
O301 C300 1.245 . S
O302 Co296 2.058 . S
O302 C328 1.269 . S
O303 Co295 2.074 . S
O303 C328 1.257 . S
H304 C329 0.930 . S
H305 C335 0.930 . S
O306 Co295 2.093 . S
O306 C298 1.224 . S
H307 C339 0.929 . S
H308 C341 0.930 . S
H309 C342 0.930 . S
H310 C340 0.929 . S
H311 C343 0.928 . S
O312 Co296 2.057 . S
O312 C300 1.232 . S
H313 C332 0.929 . S
H314 C333 0.929 . S
H315 C345 0.931 . S
H316 C337 0.929 . S
H317 C346 0.930 1_565 S
H318 C338 0.931 . S
O319 Co295 2.097 . S
O319 C347 1.214 . S
H320 C348 0.929 . S
H321 C349 0.929 . S
H322 C350 0.930 . S
H323 C351 0.929 . S
H324 C353 0.930 . S
H325 C330 0.930 . S
H326 C334 0.930 . S
O327 Co296 2.037 . S
O327 C347 1.234 . S
C328 O302 1.269 . S
C328 O303 1.257 . S
C329 H304 0.930 . S
C329 C332 1.388 . S
C329 C334 1.418 . S
C330 H325 0.930 . S
C330 C333 1.404 . S
C330 C334 1.353 . S
N331 Co296 2.145 . S
N331 C332 1.397 . S
N331 C333 1.334 . S
C332 H313 0.929 . S
C332 C329 1.388 . S
C332 N331 1.397 . S
C333 H314 0.929 . S
C333 C330 1.404 . S
C333 N331 1.334 . S
C334 H326 0.930 . S
C334 C329 1.418 . S
C334 C330 1.353 . S
C335 H305 0.930 . S
C335 N336 1.330 . S
C335 C337 1.446 . S
N336 Co295 2.151 . S
N336 C335 1.330 . S
N336 C340 1.418 . S
C337 H316 0.929 . S
C337 C335 1.446 . S
C337 C338 1.332 . S
C338 H318 0.931 . S
C338 C337 1.332 . S
C338 C339 1.267 . S
C339 H307 0.929 . S
C339 C338 1.267 . S
C339 C340 1.251 . S
C340 H310 0.929 . S
C340 N336 1.418 . S
C340 C339 1.251 . S
C341 H308 0.930 . S
C341 C343 1.406 . S
C341 C346 1.261 . S
C342 H309 0.930 . S
C342 N344 1.325 . S
C342 C345 1.357 . S
C343 H311 0.928 . S
C343 C341 1.406 . S
C343 N344 1.261 . S
N344 Co295 2.214 . S
N344 C342 1.325 . S
N344 C343 1.261 . S
C345 H315 0.931 . S
C345 C342 1.357 . S
C345 C346 1.312 . S
C346 H317 0.930 1_545 S
C346 C341 1.261 . S
C346 C345 1.312 . S
C347 O319 1.214 . S
C347 O327 1.234 . S
C348 H320 0.929 . S
C348 C351 1.391 . S
C348 C353 1.391 . S
C349 H321 0.929 . S
C349 C350 1.390 . S
C349 N352 1.391 . S
C350 H322 0.930 . S
C350 C349 1.390 . S
C350 C351 1.392 . S
C351 H323 0.929 . S
C351 C348 1.391 . S
C351 C350 1.392 . S
N352 Co296 2.257 . S
N352 C349 1.391 . S
N352 C353 1.388 . S
C353 H324 0.930 . S
C353 C348 1.391 . S
C353 N352 1.388 . S
Co354 O356 2.143 . S
Co354 O362 2.074 . S
Co354 O365 2.093 . S
Co354 O378 2.097 . S
Co354 N395 2.151 . S
Co354 N403 2.214 . S
Co355 O356 2.160 1_545 S
Co355 O361 2.058 1_545 S
Co355 O371 2.057 . S
Co355 O386 2.037 . S
Co355 N390 2.145 . S
Co355 N411 2.257 . S
O356 Co354 2.143 . S
O356 Co355 2.160 1_565 S
C357 O358 1.268 1_565 S
C357 O365 1.224 . S
O358 C357 1.268 1_545 S
C359 O360 1.245 1_545 S
C359 O371 1.232 . S
O360 C359 1.245 1_565 S
O361 Co355 2.058 1_565 S
O361 C387 1.269 . S
O362 Co354 2.074 . S
O362 C387 1.257 . S
H363 C388 0.930 . S
H364 C394 0.930 . S
O365 Co354 2.093 . S
O365 C357 1.224 . S
H366 C398 0.929 . S
H367 C400 0.930 . S
H368 C401 0.930 . S
H369 C399 0.929 . S
H370 C402 0.928 . S
O371 Co355 2.057 . S
O371 C359 1.232 . S
H372 C391 0.929 . S
H373 C392 0.929 . S
H374 C404 0.931 . S
H375 C396 0.929 . S
H376 C405 0.930 . S
H377 C397 0.931 . S
O378 Co354 2.097 . S
O378 C406 1.214 1_565 S
H379 C407 0.929 . S
H380 C408 0.929 . S
H381 C409 0.930 . S
H382 C410 0.929 . S
H383 C412 0.930 . S
H384 C389 0.930 . S
H385 C393 0.930 . S
O386 Co355 2.037 . S
O386 C406 1.234 . S
C387 O361 1.269 . S
C387 O362 1.257 . S
C388 H363 0.930 . S
C388 C391 1.388 . S
C388 C393 1.418 . S
C389 H384 0.930 . S
C389 C392 1.404 . S
C389 C393 1.353 . S
N390 Co355 2.145 . S
N390 C391 1.397 . S
N390 C392 1.334 . S
C391 H372 0.929 . S
C391 C388 1.388 . S
C391 N390 1.397 . S
C392 H373 0.929 . S
C392 C389 1.404 . S
C392 N390 1.334 . S
C393 H385 0.930 . S
C393 C388 1.418 . S
C393 C389 1.353 . S
C394 H364 0.930 . S
C394 N395 1.330 . S
C394 C396 1.446 . S
N395 Co354 2.151 . S
N395 C394 1.330 . S
N395 C399 1.418 . S
C396 H375 0.929 . S
C396 C394 1.446 . S
C396 C397 1.332 . S
C397 H377 0.931 . S
C397 C396 1.332 . S
C397 C398 1.267 . S
C398 H366 0.929 . S
C398 C397 1.267 . S
C398 C399 1.251 . S
C399 H369 0.929 . S
C399 N395 1.418 . S
C399 C398 1.251 . S
C400 H367 0.930 . S
C400 C402 1.406 . S
C400 C405 1.261 . S
C401 H368 0.930 . S
C401 N403 1.325 . S
C401 C404 1.357 . S
C402 H370 0.928 . S
C402 C400 1.406 . S
C402 N403 1.261 . S
N403 Co354 2.214 . S
N403 C401 1.325 . S
N403 C402 1.261 . S
C404 H374 0.931 . S
C404 C401 1.357 . S
C404 C405 1.312 . S
C405 H376 0.930 . S
C405 C400 1.261 . S
C405 C404 1.312 . S
C406 O378 1.214 1_545 S
C406 O386 1.234 . S
C407 H379 0.929 . S
C407 C410 1.391 . S
C407 C412 1.391 . S
C408 H380 0.929 . S
C408 C409 1.390 . S
C408 N411 1.391 . S
C409 H381 0.930 . S
C409 C408 1.390 . S
C409 C410 1.392 . S
C410 H382 0.929 . S
C410 C407 1.391 . S
C410 C409 1.392 . S
N411 Co355 2.257 . S
N411 C408 1.391 . S
N411 C412 1.388 . S
C412 H383 0.930 . S
C412 C407 1.391 . S
C412 N411 1.388 . S
Co413 O415 2.143 . S
Co413 O421 2.074 . S
Co413 O424 2.093 . S
Co413 O437 2.097 . S
Co413 N454 2.151 . S
Co413 N462 2.214 . S
Co414 O415 2.160 . S
Co414 O420 2.058 . S
Co414 O430 2.057 . S
Co414 O445 2.037 . S
Co414 N449 2.145 . S
Co414 N470 2.257 . S
O415 Co413 2.143 . S
O415 Co414 2.160 . S
C416 O417 1.278 . S
C416 O424 1.224 . S
O417 C416 1.278 . S
C418 O419 1.245 . S
C418 O430 1.232 . S
O419 C418 1.245 . S
O420 Co414 2.058 . S
O420 C446 1.269 . S
O421 Co413 2.074 . S
O421 C446 1.257 . S
H422 C447 0.930 . S
H423 C453 0.930 . S
O424 Co413 2.093 . S
O424 C416 1.224 . S
H425 C457 0.929 . S
H426 C459 0.930 1_455 S
H427 C460 0.930 . S
H428 C458 0.929 . S
H429 C461 0.928 . S
O430 Co414 2.057 . S
O430 C418 1.232 . S
H431 C450 0.929 . S
H432 C451 0.929 . S
H433 C463 0.931 . S
H434 C455 0.929 . S
H435 C464 0.930 . S
H436 C456 0.931 . S
O437 Co413 2.097 . S
O437 C465 1.214 . S
H438 C466 0.929 . S
H439 C467 0.929 . S
H440 C468 0.930 . S
H441 C469 0.929 . S
H442 C471 0.930 . S
H443 C448 0.930 . S
H444 C452 0.930 . S
O445 Co414 2.037 . S
O445 C465 1.234 . S
C446 O420 1.269 . S
C446 O421 1.257 . S
C447 H422 0.930 . S
C447 C450 1.388 . S
C447 C452 1.418 . S
C448 H443 0.930 . S
C448 C451 1.404 . S
C448 C452 1.353 . S
N449 Co414 2.145 . S
N449 C450 1.397 . S
N449 C451 1.334 . S
C450 H431 0.929 . S
C450 C447 1.388 . S
C450 N449 1.397 . S
C451 H432 0.929 . S
C451 C448 1.404 . S
C451 N449 1.334 . S
C452 H444 0.930 . S
C452 C447 1.418 . S
C452 C448 1.353 . S
C453 H423 0.930 . S
C453 N454 1.330 . S
C453 C455 1.446 . S
N454 Co413 2.151 . S
N454 C453 1.330 . S
N454 C458 1.418 . S
C455 H434 0.929 . S
C455 C453 1.446 . S
C455 C456 1.332 . S
C456 H436 0.931 . S
C456 C455 1.332 . S
C456 C457 1.267 . S
C457 H425 0.929 . S
C457 C456 1.267 . S
C457 C458 1.251 . S
C458 H428 0.929 . S
C458 N454 1.418 . S
C458 C457 1.251 . S
C459 H426 0.930 1_655 S
C459 C461 1.406 . S
C459 C464 1.261 1_655 S
C460 H427 0.930 . S
C460 N462 1.325 . S
C460 C463 1.357 1_655 S
C461 H429 0.928 . S
C461 C459 1.406 . S
C461 N462 1.261 . S
N462 Co413 2.214 . S
N462 C460 1.325 . S
N462 C461 1.261 . S
C463 H433 0.931 . S
C463 C460 1.357 1_455 S
C463 C464 1.312 . S
C464 H435 0.930 . S
C464 C459 1.261 1_455 S
C464 C463 1.312 . S
C465 O437 1.214 . S
C465 O445 1.234 . S
C466 H438 0.929 . S
C466 C469 1.391 . S
C466 C471 1.391 . S
C467 H439 0.929 . S
C467 C468 1.390 . S
C467 N470 1.391 . S
C468 H440 0.930 . S
C468 C467 1.390 . S
C468 C469 1.392 . S
C469 H441 0.929 . S
C469 C466 1.391 . S
C469 C468 1.392 . S
N470 Co414 2.257 . S
N470 C467 1.391 . S
N470 C471 1.388 . S
C471 H442 0.930 . S
C471 C466 1.391 . S
C471 N470 1.388 . S
Co472 O474 2.145 . S
Co472 O480 2.074 . S
Co472 O483 2.093 . S
Co472 O496 2.097 1_455 S
Co472 N513 2.151 . S
Co472 N521 2.214 . S
Co473 O474 2.154 1_655 S
Co473 O479 2.058 1_655 S
Co473 O489 2.057 . S
Co473 O504 2.037 . S
Co473 N508 2.145 . S
Co473 N529 2.257 . S
O474 Co472 2.145 . S
O474 Co473 2.154 1_455 S
C475 O476 1.278 1_455 S
C475 O483 1.224 . S
O476 C475 1.278 1_655 S
C477 O478 1.245 1_655 S
C477 O489 1.232 . S
O478 C477 1.245 1_455 S
O479 Co473 2.058 1_455 S
O479 C505 1.269 . S
O480 Co472 2.074 . S
O480 C505 1.257 . S
H481 C506 0.930 . S
H482 C512 0.930 . S
O483 Co472 2.093 . S
O483 C475 1.224 . S
H484 C516 0.929 . S
H485 C518 0.930 . S
H486 C519 0.930 . S
H487 C517 0.929 . S
H488 C520 0.928 . S
O489 Co473 2.057 . S
O489 C477 1.232 . S
H490 C509 0.929 . S
H491 C510 0.929 . S
H492 C522 0.931 1_545 S
H493 C514 0.929 . S
H494 C523 0.930 . S
H495 C515 0.931 . S
O496 Co472 2.097 1_655 S
O496 C524 1.214 . S
H497 C525 0.929 . S
H498 C526 0.929 . S
H499 C527 0.930 . S
H500 C528 0.929 . S
H501 C530 0.930 . S
H502 C507 0.930 . S
H503 C511 0.930 . S
O504 Co473 2.037 . S
O504 C524 1.234 . S
C505 O479 1.269 . S
C505 O480 1.257 . S
C506 H481 0.930 . S
C506 C509 1.388 . S
C506 C511 1.418 . S
C507 H502 0.930 . S
C507 C510 1.404 . S
C507 C511 1.353 . S
N508 Co473 2.145 . S
N508 C509 1.397 . S
N508 C510 1.334 . S
C509 H490 0.929 . S
C509 C506 1.388 . S
C509 N508 1.397 . S
C510 H491 0.929 . S
C510 C507 1.404 . S
C510 N508 1.334 . S
C511 H503 0.930 . S
C511 C506 1.418 . S
C511 C507 1.353 . S
C512 H482 0.930 . S
C512 N513 1.330 . S
C512 C514 1.446 . S
N513 Co472 2.151 . S
N513 C512 1.330 . S
N513 C517 1.418 . S
C514 H493 0.929 . S
C514 C512 1.446 . S
C514 C515 1.332 . S
C515 H495 0.931 . S
C515 C514 1.332 . S
C515 C516 1.267 . S
C516 H484 0.929 . S
C516 C515 1.267 . S
C516 C517 1.251 . S
C517 H487 0.929 . S
C517 N513 1.418 . S
C517 C516 1.251 . S
C518 H485 0.930 . S
C518 C520 1.406 . S
C518 C523 1.261 1_565 S
C519 H486 0.930 . S
C519 N521 1.325 . S
C519 C522 1.357 . S
C520 H488 0.928 . S
C520 C518 1.406 . S
C520 N521 1.261 . S
N521 Co472 2.214 . S
N521 C519 1.325 . S
N521 C520 1.261 . S
C522 H492 0.931 1_565 S
C522 C519 1.357 . S
C522 C523 1.312 1_565 S
C523 H494 0.930 . S
C523 C518 1.261 1_545 S
C523 C522 1.312 1_545 S
C524 O496 1.214 . S
C524 O504 1.234 . S
C525 H497 0.929 . S
C525 C528 1.391 . S
C525 C530 1.391 . S
C526 H498 0.929 . S
C526 C527 1.390 . S
C526 N529 1.391 . S
C527 H499 0.930 . S
C527 C526 1.390 . S
C527 C528 1.392 . S
C528 H500 0.929 . S
C528 C525 1.391 . S
C528 C527 1.392 . S
N529 Co473 2.257 . S
N529 C526 1.391 . S
N529 C530 1.388 . S
C530 H501 0.930 . S
C530 C525 1.391 . S
C530 N529 1.388 . S
Co531 O533 2.143 . S
Co531 O539 2.074 . S
Co531 O542 2.093 . S
Co531 O555 2.097 . S
Co531 N572 2.151 . S
Co531 N580 2.214 . S
Co532 O533 2.160 1_565 S
Co532 O538 2.058 1_565 S
Co532 O548 2.057 . S
Co532 O563 2.037 . S
Co532 N567 2.145 . S
Co532 N588 2.257 . S
O533 Co531 2.143 . S
O533 Co532 2.160 1_545 S
C534 O535 1.260 1_545 S
C534 O542 1.224 . S
O535 C534 1.260 1_565 S
C536 O537 1.245 1_565 S
C536 O548 1.232 . S
O537 C536 1.245 1_545 S
O538 Co532 2.058 1_545 S
O538 C564 1.269 . S
O539 Co531 2.074 . S
O539 C564 1.257 . S
H540 C565 0.930 . S
H541 C571 0.930 . S
O542 Co531 2.093 . S
O542 C534 1.224 . S
H543 C575 0.929 . S
H544 C577 0.930 . S
H545 C578 0.930 . S
H546 C576 0.929 . S
H547 C579 0.928 . S
O548 Co532 2.057 . S
O548 C536 1.232 . S
H549 C568 0.929 . S
H550 C569 0.929 . S
H551 C581 0.931 . S
H552 C573 0.929 . S
H553 C582 0.930 . S
H554 C574 0.931 . S
O555 Co531 2.097 . S
O555 C583 1.214 1_545 S
H556 C584 0.929 . S
H557 C585 0.929 . S
H558 C586 0.930 . S
H559 C587 0.929 . S
H560 C589 0.930 . S
H561 C566 0.930 . S
H562 C570 0.930 . S
O563 Co532 2.037 . S
O563 C583 1.234 . S
C564 O538 1.269 . S
C564 O539 1.257 . S
C565 H540 0.930 . S
C565 C568 1.388 . S
C565 C570 1.418 . S
C566 H561 0.930 . S
C566 C569 1.404 . S
C566 C570 1.353 . S
N567 Co532 2.145 . S
N567 C568 1.397 . S
N567 C569 1.334 . S
C568 H549 0.929 . S
C568 C565 1.388 . S
C568 N567 1.397 . S
C569 H550 0.929 . S
C569 C566 1.404 . S
C569 N567 1.334 . S
C570 H562 0.930 . S
C570 C565 1.418 . S
C570 C566 1.353 . S
C571 H541 0.930 . S
C571 N572 1.330 . S
C571 C573 1.446 . S
N572 Co531 2.151 . S
N572 C571 1.330 . S
N572 C576 1.418 . S
C573 H552 0.929 . S
C573 C571 1.446 . S
C573 C574 1.332 . S
C574 H554 0.931 . S
C574 C573 1.332 . S
C574 C575 1.267 . S
C575 H543 0.929 . S
C575 C574 1.267 . S
C575 C576 1.251 . S
C576 H546 0.929 . S
C576 N572 1.418 . S
C576 C575 1.251 . S
C577 H544 0.930 . S
C577 C579 1.406 . S
C577 C582 1.261 . S
C578 H545 0.930 . S
C578 N580 1.325 . S
C578 C581 1.357 . S
C579 H547 0.928 . S
C579 C577 1.406 . S
C579 N580 1.261 . S
N580 Co531 2.214 . S
N580 C578 1.325 . S
N580 C579 1.261 . S
C581 H551 0.931 . S
C581 C578 1.357 . S
C581 C582 1.312 . S
C582 H553 0.930 . S
C582 C577 1.261 . S
C582 C581 1.312 . S
C583 O555 1.214 1_565 S
C583 O563 1.234 . S
C584 H556 0.929 . S
C584 C587 1.391 . S
C584 C589 1.391 . S
C585 H557 0.929 . S
C585 C586 1.390 . S
C585 N588 1.391 . S
C586 H558 0.930 . S
C586 C585 1.390 . S
C586 C587 1.392 . S
C587 H559 0.929 . S
C587 C584 1.391 . S
C587 C586 1.392 . S
N588 Co532 2.257 . S
N588 C585 1.391 . S
N588 C589 1.388 . S
C589 H560 0.930 . S
C589 C584 1.391 . S
C589 N588 1.388 . S
Co590 O592 2.143 . S
Co590 O598 2.074 . S
Co590 O601 2.093 . S
Co590 O614 2.097 . S
Co590 N631 2.151 . S
Co590 N639 2.214 . S
Co591 O592 2.160 . S
Co591 O597 2.058 . S
Co591 O607 2.057 . S
Co591 O622 2.037 . S
Co591 N626 2.145 . S
Co591 N647 2.257 . S
O592 Co590 2.143 . S
O592 Co591 2.160 . S
C593 O594 1.278 . S
C593 O601 1.224 . S
O594 C593 1.278 . S
C595 O596 1.245 . S
C595 O607 1.232 . S
O596 C595 1.245 . S
O597 Co591 2.058 . S
O597 C623 1.269 . S
O598 Co590 2.074 . S
O598 C623 1.257 . S
H599 C624 0.930 . S
H600 C630 0.930 . S
O601 Co590 2.093 . S
O601 C593 1.224 . S
H602 C634 0.929 . S
H603 C636 0.930 1_655 S
H604 C637 0.930 . S
H605 C635 0.929 . S
H606 C638 0.928 . S
O607 Co591 2.057 . S
O607 C595 1.232 . S
H608 C627 0.929 . S
H609 C628 0.929 . S
H610 C640 0.931 . S
H611 C632 0.929 . S
H612 C641 0.930 . S
H613 C633 0.931 . S
O614 Co590 2.097 . S
O614 C642 1.214 . S
H615 C643 0.929 . S
H616 C644 0.929 . S
H617 C645 0.930 . S
H618 C646 0.929 . S
H619 C648 0.930 . S
H620 C625 0.930 . S
H621 C629 0.930 . S
O622 Co591 2.037 . S
O622 C642 1.234 . S
C623 O597 1.269 . S
C623 O598 1.257 . S
C624 H599 0.930 . S
C624 C627 1.388 . S
C624 C629 1.418 . S
C625 H620 0.930 . S
C625 C628 1.404 . S
C625 C629 1.353 . S
N626 Co591 2.145 . S
N626 C627 1.397 . S
N626 C628 1.334 . S
C627 H608 0.929 . S
C627 C624 1.388 . S
C627 N626 1.397 . S
C628 H609 0.929 . S
C628 C625 1.404 . S
C628 N626 1.334 . S
C629 H621 0.930 . S
C629 C624 1.418 . S
C629 C625 1.353 . S
C630 H600 0.930 . S
C630 N631 1.330 . S
C630 C632 1.446 . S
N631 Co590 2.151 . S
N631 C630 1.330 . S
N631 C635 1.418 . S
C632 H611 0.929 . S
C632 C630 1.446 . S
C632 C633 1.332 . S
C633 H613 0.931 . S
C633 C632 1.332 . S
C633 C634 1.267 . S
C634 H602 0.929 . S
C634 C633 1.267 . S
C634 C635 1.251 . S
C635 H605 0.929 . S
C635 N631 1.418 . S
C635 C634 1.251 . S
C636 H603 0.930 1_455 S
C636 C638 1.406 . S
C636 C641 1.261 1_455 S
C637 H604 0.930 . S
C637 N639 1.325 . S
C637 C640 1.357 1_455 S
C638 H606 0.928 . S
C638 C636 1.406 . S
C638 N639 1.261 . S
N639 Co590 2.214 . S
N639 C637 1.325 . S
N639 C638 1.261 . S
C640 H610 0.931 . S
C640 C637 1.357 1_655 S
C640 C641 1.312 . S
C641 H612 0.930 . S
C641 C636 1.261 1_655 S
C641 C640 1.312 . S
C642 O614 1.214 . S
C642 O622 1.234 . S
C643 H615 0.929 . S
C643 C646 1.391 . S
C643 C648 1.391 . S
C644 H616 0.929 . S
C644 C645 1.390 . S
C644 N647 1.391 . S
C645 H617 0.930 . S
C645 C644 1.390 . S
C645 C646 1.392 . S
C646 H618 0.929 . S
C646 C643 1.391 . S
C646 C645 1.392 . S
N647 Co591 2.257 . S
N647 C644 1.391 . S
N647 C648 1.388 . S
C648 H619 0.930 . S
C648 C643 1.391 . S
C648 N647 1.388 . S
Co649 O651 2.145 . S
Co649 O657 2.074 . S
Co649 O660 2.093 . S
Co649 O673 2.097 1_655 S
Co649 N690 2.151 . S
Co649 N698 2.214 . S
Co650 O651 2.154 1_455 S
Co650 O656 2.058 1_455 S
Co650 O666 2.057 . S
Co650 O681 2.037 . S
Co650 N685 2.145 . S
Co650 N706 2.257 . S
O651 Co649 2.145 . S
O651 Co650 2.154 1_655 S
C652 O653 1.278 1_655 S
C652 O660 1.224 . S
O653 C652 1.278 1_455 S
C654 O655 1.245 1_455 S
C654 O666 1.232 . S
O655 C654 1.245 1_655 S
O656 Co650 2.058 1_655 S
O656 C682 1.269 . S
O657 Co649 2.074 . S
O657 C682 1.257 . S
H658 C683 0.930 . S
H659 C689 0.930 . S
O660 Co649 2.093 . S
O660 C652 1.224 . S
H661 C693 0.929 . S
H662 C695 0.930 . S
H663 C696 0.930 . S
H664 C694 0.929 . S
H665 C697 0.928 . S
O666 Co650 2.057 . S
O666 C654 1.232 . S
H667 C686 0.929 . S
H668 C687 0.929 . S
H669 C699 0.931 1_565 S
H670 C691 0.929 . S
H671 C700 0.930 . S
H672 C692 0.931 . S
O673 Co649 2.097 1_455 S
O673 C701 1.214 . S
H674 C702 0.929 . S
H675 C703 0.929 . S
H676 C704 0.930 . S
H677 C705 0.929 . S
H678 C707 0.930 . S
H679 C684 0.930 . S
H680 C688 0.930 . S
O681 Co650 2.037 . S
O681 C701 1.234 . S
C682 O656 1.269 . S
C682 O657 1.257 . S
C683 H658 0.930 . S
C683 C686 1.388 . S
C683 C688 1.418 . S
C684 H679 0.930 . S
C684 C687 1.404 . S
C684 C688 1.353 . S
N685 Co650 2.145 . S
N685 C686 1.397 . S
N685 C687 1.334 . S
C686 H667 0.929 . S
C686 C683 1.388 . S
C686 N685 1.397 . S
C687 H668 0.929 . S
C687 C684 1.404 . S
C687 N685 1.334 . S
C688 H680 0.930 . S
C688 C683 1.418 . S
C688 C684 1.353 . S
C689 H659 0.930 . S
C689 N690 1.330 . S
C689 C691 1.446 . S
N690 Co649 2.151 . S
N690 C689 1.330 . S
N690 C694 1.418 . S
C691 H670 0.929 . S
C691 C689 1.446 . S
C691 C692 1.332 . S
C692 H672 0.931 . S
C692 C691 1.332 . S
C692 C693 1.267 . S
C693 H661 0.929 . S
C693 C692 1.267 . S
C693 C694 1.251 . S
C694 H664 0.929 . S
C694 N690 1.418 . S
C694 C693 1.251 . S
C695 H662 0.930 . S
C695 C697 1.406 . S
C695 C700 1.261 1_545 S
C696 H663 0.930 . S
C696 N698 1.325 . S
C696 C699 1.357 . S
C697 H665 0.928 . S
C697 C695 1.406 . S
C697 N698 1.261 . S
N698 Co649 2.214 . S
N698 C696 1.325 . S
N698 C697 1.261 . S
C699 H669 0.931 1_545 S
C699 C696 1.357 . S
C699 C700 1.312 1_545 S
C700 H671 0.930 . S
C700 C695 1.261 1_565 S
C700 C699 1.312 1_565 S
C701 O673 1.214 . S
C701 O681 1.234 . S
C702 H674 0.929 . S
C702 C705 1.391 . S
C702 C707 1.391 . S
C703 H675 0.929 . S
C703 C704 1.390 . S
C703 N706 1.391 . S
C704 H676 0.930 . S
C704 C703 1.390 . S
C704 C705 1.392 . S
C705 H677 0.929 . S
C705 C702 1.391 . S
C705 C704 1.392 . S
N706 Co650 2.257 . S
N706 C703 1.391 . S
N706 C707 1.388 . S
C707 H678 0.930 . S
C707 C702 1.391 . S
C707 N706 1.388 . S
C708 C709 1.391 1_455 S
C708 C710 1.394 . S
C708 H724 0.931 . S
C709 C708 1.391 1_655 S
C709 C713 1.376 . S
C710 C708 1.394 . S
C710 C711 1.369 . S
C710 C714 1.531 . S
C711 C710 1.369 . S
C711 C712 1.410 1_455 S
C711 C719 1.503 . S
C712 C711 1.410 1_655 S
C712 C713 1.392 . S
C712 C715 1.511 . S
C713 C709 1.376 . S
C713 C712 1.392 . S
C713 H725 0.929 . S
C714 C710 1.531 . S
C714 H726 0.960 . S
C714 H727 0.962 . S
C714 H728 0.960 . S
C715 C712 1.511 . S
C715 H729 0.961 . S
C715 H730 0.961 . S
C715 H731 0.961 . S
C716 C717 1.370 . S
C716 C718 1.363 . S
C716 H732 0.931 . S
C717 C716 1.370 . S
C717 C721 1.408 . S
C718 C716 1.363 . S
C718 C719 1.370 . S
C718 C722 1.524 . S
C719 C711 1.503 . S
C719 C718 1.370 . S
C719 C720 1.403 . S
C720 C719 1.403 . S
C720 C721 1.404 . S
C720 C723 1.539 1_455 S
C721 C717 1.408 . S
C721 C720 1.404 . S
C721 H733 0.930 . S
C722 C718 1.524 . S
C722 H734 0.956 . S
C722 H735 0.961 . S
C722 H736 0.961 . S
C723 C720 1.539 1_655 S
C723 H737 0.958 1_655 S
C723 H738 0.961 . S
C723 H739 0.960 . S
H724 C708 0.931 . S
H725 C713 0.929 . S
H726 C714 0.960 . S
H727 C714 0.962 . S
H728 C714 0.960 . S
H729 C715 0.961 . S
H730 C715 0.961 . S
H731 C715 0.961 . S
H732 C716 0.931 . S
H733 C721 0.930 . S
H734 C722 0.956 . S
H735 C722 0.961 . S
H736 C722 0.961 . S
H737 C723 0.958 1_455 S
H738 C723 0.961 . S
H739 C723 0.960 . S
C740 C741 1.391 1_565 S
C740 C742 1.394 . S
C740 H756 0.931 . S
C741 C740 1.391 1_545 S
C741 C745 1.376 . S
C742 C740 1.394 . S
C742 C743 1.369 . S
C742 C746 1.531 . S
C743 C742 1.369 . S
C743 C744 1.410 1_565 S
C743 C751 1.503 . S
C744 C743 1.410 1_545 S
C744 C745 1.392 . S
C744 C747 1.511 . S
C745 C741 1.376 . S
C745 C744 1.392 . S
C745 H757 0.929 . S
C746 C742 1.531 . S
C746 H758 0.960 . S
C746 H759 0.962 . S
C746 H760 0.960 . S
C747 C744 1.511 . S
C747 H761 0.961 . S
C747 H762 0.961 . S
C747 H763 0.961 . S
C748 C749 1.370 . S
C748 C750 1.363 1_565 S
C748 H764 0.931 1_565 S
C749 C748 1.370 . S
C749 C753 1.408 . S
C750 C748 1.363 1_545 S
C750 C751 1.370 1_545 S
C750 C754 1.524 . S
C751 C743 1.503 . S
C751 C750 1.370 1_565 S
C751 C752 1.403 . S
C752 C751 1.403 . S
C752 C753 1.404 . S
C752 C755 1.539 . S
C753 C749 1.408 . S
C753 C752 1.404 . S
C753 H765 0.930 . S
C754 C750 1.524 . S
C754 H766 0.956 . S
C754 H767 0.961 . S
C754 H768 0.961 . S
C755 C752 1.539 . S
C755 H769 0.958 . S
C755 H770 0.961 . S
C755 H771 0.960 . S
H756 C740 0.931 . S
H757 C745 0.929 . S
H758 C746 0.960 . S
H759 C746 0.962 . S
H760 C746 0.960 . S
H761 C747 0.961 . S
H762 C747 0.961 . S
H763 C747 0.961 . S
H764 C748 0.931 1_545 S
H765 C753 0.930 . S
H766 C754 0.956 . S
H767 C754 0.961 . S
H768 C754 0.961 . S
H769 C755 0.958 . S
H770 C755 0.961 . S
H771 C755 0.960 . S
C772 C773 1.391 . S
C772 C774 1.394 . S
C772 H788 0.931 . S
C773 C772 1.391 . S
C773 C777 1.376 . S
C774 C772 1.394 . S
C774 C775 1.369 . S
C774 C778 1.531 . S
C775 C774 1.369 . S
C775 C776 1.410 . S
C775 C783 1.503 . S
C776 C775 1.410 . S
C776 C777 1.392 . S
C776 C779 1.511 . S
C777 C773 1.376 . S
C777 C776 1.392 . S
C777 H789 0.929 . S
C778 C774 1.531 . S
C778 H790 0.960 . S
C778 H791 0.962 . S
C778 H792 0.960 . S
C779 C776 1.511 . S
C779 H793 0.961 . S
C779 H794 0.961 . S
C779 H795 0.961 . S
C780 C781 1.370 . S
C780 C782 1.363 . S
C780 H796 0.931 . S
C781 C780 1.370 . S
C781 C785 1.408 . S
C782 C780 1.363 . S
C782 C783 1.370 . S
C782 C786 1.524 . S
C783 C775 1.503 . S
C783 C782 1.370 . S
C783 C784 1.403 . S
C784 C783 1.403 . S
C784 C785 1.404 . S
C784 C787 1.539 . S
C785 C781 1.408 . S
C785 C784 1.404 . S
C785 H797 0.930 . S
C786 C782 1.524 . S
C786 H798 0.956 . S
C786 H799 0.961 . S
C786 H800 0.961 . S
C787 C784 1.539 . S
C787 H801 0.958 . S
C787 H802 0.961 . S
C787 H803 0.960 . S
H788 C772 0.931 . S
H789 C777 0.929 . S
H790 C778 0.960 . S
H791 C778 0.962 . S
H792 C778 0.960 . S
H793 C779 0.961 . S
H794 C779 0.961 . S
H795 C779 0.961 . S
H796 C780 0.931 . S
H797 C785 0.930 . S
H798 C786 0.956 . S
H799 C786 0.961 . S
H800 C786 0.961 . S
H801 C787 0.958 . S
H802 C787 0.961 . S
H803 C787 0.960 . S
C804 C805 1.391 . S
C804 C806 1.394 . S
C804 H820 0.931 . S
C805 C804 1.391 . S
C805 C809 1.376 1_655 S
C806 C804 1.394 . S
C806 C807 1.369 . S
C806 C810 1.531 . S
C807 C806 1.369 . S
C807 C808 1.410 1_655 S
C807 C815 1.503 . S
C808 C807 1.410 1_455 S
C808 C809 1.392 . S
C808 C811 1.511 . S
C809 C805 1.376 1_455 S
C809 C808 1.392 . S
C809 H821 0.929 . S
C810 C806 1.531 . S
C810 H822 0.960 . S
C810 H823 0.962 . S
C810 H824 0.960 . S
C811 C808 1.511 . S
C811 H825 0.961 . S
C811 H826 0.961 . S
C811 H827 0.961 . S
C812 C813 1.370 1_655 S
C812 C814 1.363 . S
C812 H828 0.931 . S
C813 C812 1.370 1_455 S
C813 C817 1.408 . S
C814 C812 1.363 . S
C814 C815 1.370 . S
C814 C818 1.524 . S
C815 C807 1.503 . S
C815 C814 1.370 . S
C815 C816 1.403 1_655 S
C816 C815 1.403 1_455 S
C816 C817 1.404 . S
C816 C819 1.539 . S
C817 C813 1.408 . S
C817 C816 1.404 . S
C817 H829 0.930 . S
C818 C814 1.524 . S
C818 H830 0.956 . S
C818 H831 0.961 . S
C818 H832 0.961 . S
C819 C816 1.539 . S
C819 H833 0.958 1_455 S
C819 H834 0.961 . S
C819 H835 0.960 . S
H820 C804 0.931 . S
H821 C809 0.929 . S
H822 C810 0.960 . S
H823 C810 0.962 . S
H824 C810 0.960 . S
H825 C811 0.961 . S
H826 C811 0.961 . S
H827 C811 0.961 . S
H828 C812 0.931 . S
H829 C817 0.930 . S
H830 C818 0.956 . S
H831 C818 0.961 . S
H832 C818 0.961 . S
H833 C819 0.958 1_655 S
H834 C819 0.961 . S
H835 C819 0.960 . S
C836 C837 1.391 . S
C836 C838 1.394 . S
C836 H852 0.931 . S
C837 C836 1.391 . S
C837 C841 1.376 . S
C838 C836 1.394 . S
C838 C839 1.369 . S
C838 C842 1.531 . S
C839 C838 1.369 . S
C839 C840 1.410 . S
C839 C847 1.503 . S
C840 C839 1.410 . S
C840 C841 1.392 . S
C840 C843 1.511 1_545 S
C841 C837 1.376 . S
C841 C840 1.392 . S
C841 H853 0.929 . S
C842 C838 1.531 . S
C842 H854 0.960 . S
C842 H855 0.962 . S
C842 H856 0.960 . S
C843 C840 1.511 1_565 S
C843 H857 0.961 . S
C843 H858 0.961 . S
C843 H859 0.961 1_565 S
C844 C845 1.370 . S
C844 C846 1.363 . S
C844 H860 0.931 . S
C845 C844 1.370 . S
C845 C849 1.408 1_565 S
C846 C844 1.363 . S
C846 C847 1.370 1_565 S
C846 C850 1.524 . S
C847 C839 1.503 . S
C847 C846 1.370 1_545 S
C847 C848 1.403 . S
C848 C847 1.403 . S
C848 C849 1.404 . S
C848 C851 1.539 . S
C849 C845 1.408 1_545 S
C849 C848 1.404 . S
C849 H861 0.930 . S
C850 C846 1.524 . S
C850 H862 0.956 . S
C850 H863 0.961 . S
C850 H864 0.961 . S
C851 C848 1.539 . S
C851 H865 0.958 . S
C851 H866 0.961 . S
C851 H867 0.960 . S
H852 C836 0.931 . S
H853 C841 0.929 . S
H854 C842 0.960 . S
H855 C842 0.962 . S
H856 C842 0.960 . S
H857 C843 0.961 . S
H858 C843 0.961 . S
H859 C843 0.961 1_545 S
H860 C844 0.931 . S
H861 C849 0.930 . S
H862 C850 0.956 . S
H863 C850 0.961 . S
H864 C850 0.961 . S
H865 C851 0.958 . S
H866 C851 0.961 . S
H867 C851 0.960 . S
C868 C869 1.391 . S
C868 C870 1.394 . S
C868 H884 0.931 . S
C869 C868 1.391 . S
C869 C873 1.376 . S
C870 C868 1.394 . S
C870 C871 1.369 . S
C870 C874 1.531 . S
C871 C870 1.369 . S
C871 C872 1.410 . S
C871 C879 1.503 . S
C872 C871 1.410 . S
C872 C873 1.392 . S
C872 C875 1.511 . S
C873 C869 1.376 . S
C873 C872 1.392 . S
C873 H885 0.929 . S
C874 C870 1.531 . S
C874 H886 0.960 . S
C874 H887 0.962 . S
C874 H888 0.960 . S
C875 C872 1.511 . S
C875 H889 0.961 . S
C875 H890 0.961 . S
C875 H891 0.961 . S
C876 C877 1.370 . S
C876 C878 1.363 . S
C876 H892 0.931 . S
C877 C876 1.370 . S
C877 C881 1.408 . S
C878 C876 1.363 . S
C878 C879 1.370 . S
C878 C882 1.524 . S
C879 C871 1.503 . S
C879 C878 1.370 . S
C879 C880 1.403 . S
C880 C879 1.403 . S
C880 C881 1.404 . S
C880 C883 1.539 . S
C881 C877 1.408 . S
C881 C880 1.404 . S
C881 H893 0.930 . S
C882 C878 1.524 . S
C882 H894 0.956 . S
C882 H895 0.961 . S
C882 H896 0.961 . S
C883 C880 1.539 . S
C883 H897 0.958 . S
C883 H898 0.961 . S
C883 H899 0.960 . S
H884 C868 0.931 . S
H885 C873 0.929 . S
H886 C874 0.960 . S
H887 C874 0.962 . S
H888 C874 0.960 . S
H889 C875 0.961 . S
H890 C875 0.961 . S
H891 C875 0.961 . S
H892 C876 0.931 . S
H893 C881 0.930 . S
H894 C882 0.956 . S
H895 C882 0.961 . S
H896 C882 0.961 . S
H897 C883 0.958 . S
H898 C883 0.961 . S
H899 C883 0.960 . S
C900 C901 1.391 . S
C900 C902 1.394 . S
C900 H916 0.931 . S
C901 C900 1.391 . S
C901 C905 1.376 . S
C902 C900 1.394 . S
C902 C903 1.369 . S
C902 C906 1.531 . S
C903 C902 1.369 . S
C903 C904 1.410 . S
C903 C911 1.503 1_554 S
C904 C903 1.410 . S
C904 C905 1.392 . S
C904 C907 1.511 . S
C905 C901 1.376 . S
C905 C904 1.392 . S
C905 H917 0.929 . S
C906 C902 1.531 . S
C906 H918 0.960 1_554 S
C906 H919 0.962 . S
C906 H920 0.960 . S
C907 C904 1.511 . S
C907 H921 0.961 . S
C907 H922 0.961 1_554 S
C907 H923 0.975 . S
C908 C909 1.370 . S
C908 C910 1.363 . S
C908 H924 0.931 . S
C909 C908 1.370 . S
C909 C913 1.408 . S
C910 C908 1.363 . S
C910 C911 1.370 . S
C910 C914 1.524 1_556 S
C911 C903 1.503 1_556 S
C911 C910 1.370 . S
C911 C912 1.403 . S
C912 C911 1.403 . S
C912 C913 1.404 . S
C912 C915 1.539 . S
C913 C909 1.408 . S
C913 C912 1.404 . S
C913 H925 0.930 . S
C914 C910 1.524 1_554 S
C914 H926 0.956 . S
C914 H927 0.961 . S
C914 H928 0.961 1_554 S
C915 C912 1.539 . S
C915 H929 0.958 . S
C915 H930 0.961 . S
C915 H931 0.960 . S
H916 C900 0.931 . S
H917 C905 0.929 . S
H918 C906 0.960 1_556 S
H919 C906 0.962 . S
H920 C906 0.960 . S
H921 C907 0.961 . S
H922 C907 0.961 1_556 S
H923 C907 0.975 . S
H924 C908 0.931 . S
H925 C913 0.930 . S
H926 C914 0.956 . S
H927 C914 0.961 . S
H928 C914 0.961 1_556 S
H929 C915 0.958 . S
H930 C915 0.961 . S
H931 C915 0.960 . S
C932 C933 1.391 . S
C932 C934 1.394 . S
C932 H948 0.931 . S
C933 C932 1.391 . S
C933 C937 1.376 . S
C934 C932 1.394 . S
C934 C935 1.369 . S
C934 C938 1.531 . S
C935 C934 1.369 . S
C935 C936 1.410 . S
C935 C943 1.503 . S
C936 C935 1.410 . S
C936 C937 1.392 . S
C936 C939 1.511 . S
C937 C933 1.376 . S
C937 C936 1.392 . S
C937 H949 0.929 . S
C938 C934 1.531 . S
C938 H950 0.960 . S
C938 H951 0.962 . S
C938 H952 0.960 . S
C939 C936 1.511 . S
C939 H953 0.961 . S
C939 H954 0.961 . S
C939 H955 0.961 . S
C940 C941 1.370 . S
C940 C942 1.363 . S
C940 H956 0.931 . S
C941 C940 1.370 . S
C941 C945 1.408 . S
C942 C940 1.363 . S
C942 C943 1.370 . S
C942 C946 1.524 . S
C943 C935 1.503 . S
C943 C942 1.370 . S
C943 C944 1.403 . S
C944 C943 1.403 . S
C944 C945 1.404 . S
C944 C947 1.539 . S
C945 C941 1.408 . S
C945 C944 1.404 . S
C945 H957 0.930 . S
C946 C942 1.524 . S
C946 H958 0.956 . S
C946 H959 0.961 . S
C946 H960 0.961 . S
C947 C944 1.539 . S
C947 H961 0.958 . S
C947 H962 0.961 . S
C947 H963 0.960 . S
H948 C932 0.931 . S
H949 C937 0.929 . S
H950 C938 0.960 . S
H951 C938 0.962 . S
H952 C938 0.960 . S
H953 C939 0.961 . S
H954 C939 0.961 . S
H955 C939 0.961 . S
H956 C940 0.931 . S
H957 C945 0.930 . S
H958 C946 0.956 . S
H959 C946 0.961 . S
H960 C946 0.961 . S
H961 C947 0.958 . S
H962 C947 0.961 . S
H963 C947 0.960 . S
C964 C965 1.391 . S
C964 C966 1.394 . S
C964 H980 0.931 . S
C965 C964 1.391 . S
C965 C969 1.376 . S
C966 C964 1.394 . S
C966 C967 1.369 . S
C966 C970 1.531 . S
C967 C966 1.369 . S
C967 C968 1.410 . S
C967 C975 1.503 . S
C968 C967 1.410 . S
C968 C969 1.392 . S
C968 C971 1.511 . S
C969 C965 1.376 . S
C969 C968 1.392 . S
C969 H981 0.929 . S
C970 C966 1.531 . S
C970 H982 0.960 . S
C970 H983 0.962 . S
C970 H984 0.960 . S
C971 C968 1.511 . S
C971 H985 0.961 . S
C971 H986 0.961 . S
C971 H987 0.961 . S
C972 C973 1.370 . S
C972 C974 1.363 . S
C972 H988 0.931 . S
C973 C972 1.370 . S
C973 C977 1.408 . S
C974 C972 1.363 . S
C974 C975 1.370 . S
C974 C978 1.524 . S
C975 C967 1.503 . S
C975 C974 1.370 . S
C975 C976 1.403 . S
C976 C975 1.403 . S
C976 C977 1.404 . S
C976 C979 1.539 . S
C977 C973 1.408 . S
C977 C976 1.404 . S
C977 H989 0.930 . S
C978 C974 1.524 . S
C978 H990 0.956 . S
C978 H991 0.961 . S
C978 H992 0.961 . S
C979 C976 1.539 . S
C979 H993 0.958 . S
C979 H994 0.961 . S
C979 H995 0.960 . S
H980 C964 0.931 . S
H981 C969 0.929 . S
H982 C970 0.960 . S
H983 C970 0.962 . S
H984 C970 0.960 . S
H985 C971 0.961 . S
H986 C971 0.961 . S
H987 C971 0.961 . S
H988 C972 0.931 . S
H989 C977 0.930 . S
H990 C978 0.956 . S
H991 C978 0.961 . S
H992 C978 0.961 . S
H993 C979 0.958 . S
H994 C979 0.961 . S
H995 C979 0.960 . S
C996 C997 1.391 . S
C996 C998 1.394 . S
C996 H1012 0.931 . S
C997 C996 1.391 . S
C997 C1001 1.376 . S
C998 C996 1.394 . S
C998 C999 1.369 . S
C998 C1002 1.521 1_554 S
C999 C998 1.369 . S
C999 C1000 1.410 . S
C999 C1007 1.503 1_554 S
C1000 C999 1.410 . S
C1000 C1001 1.392 . S
C1000 C1003 1.511 . S
C1001 C997 1.376 . S
C1001 C1000 1.392 . S
C1001 H1013 0.929 . S
C1002 C998 1.521 1_556 S
C1002 H1014 0.970 . S
C1002 H1015 0.965 . S
C1002 H1016 0.956 1_556 S
C1003 C1000 1.511 . S
C1003 H1017 0.961 . S
C1003 H1018 0.961 . S
C1003 H1019 0.961 . S
C1004 C1005 1.370 . S
C1004 C1006 1.363 . S
C1004 H1020 0.931 . S
C1005 C1004 1.370 . S
C1005 C1009 1.408 . S
C1006 C1004 1.363 . S
C1006 C1007 1.370 . S
C1006 C1010 1.524 . S
C1007 C999 1.503 1_556 S
C1007 C1006 1.370 . S
C1007 C1008 1.403 . S
C1008 C1007 1.403 . S
C1008 C1009 1.404 . S
C1008 C1011 1.539 . S
C1009 C1005 1.408 . S
C1009 C1008 1.404 . S
C1009 H1021 0.930 . S
C1010 C1006 1.524 . S
C1010 H1022 0.956 . S
C1010 H1023 0.961 1_556 S
C1010 H1024 0.961 . S
C1011 C1008 1.539 . S
C1011 H1025 0.958 . S
C1011 H1026 0.961 . S
C1011 H1027 0.904 1_556 S
H1012 C996 0.931 . S
H1013 C1001 0.929 . S
H1014 C1002 0.970 . S
H1015 C1002 0.965 . S
H1016 C1002 0.956 1_554 S
H1017 C1003 0.961 . S
H1018 C1003 0.961 . S
H1019 C1003 0.961 . S
H1020 C1004 0.931 . S
H1021 C1009 0.930 . S
H1022 C1010 0.956 . S
H1023 C1010 0.961 1_554 S
H1024 C1010 0.961 . S
H1025 C1011 0.958 . S
H1026 C1011 0.961 . S
H1027 C1011 0.904 1_554 S
C1028 C1029 1.391 . S
C1028 C1030 1.394 . S
C1028 H1044 0.931 . S
C1029 C1028 1.391 . S
C1029 C1033 1.376 . S
C1030 C1028 1.394 . S
C1030 C1031 1.369 . S
C1030 C1034 1.531 . S
C1031 C1030 1.369 . S
C1031 C1032 1.410 . S
C1031 C1039 1.503 . S
C1032 C1031 1.410 . S
C1032 C1033 1.392 . S
C1032 C1035 1.511 . S
C1033 C1029 1.376 . S
C1033 C1032 1.392 . S
C1033 H1045 0.929 . S
C1034 C1030 1.531 . S
C1034 H1046 0.960 . S
C1034 H1047 0.962 . S
C1034 H1048 0.960 . S
C1035 C1032 1.511 . S
C1035 H1049 0.961 . S
C1035 H1050 0.961 . S
C1035 H1051 0.961 . S
C1036 C1037 1.370 . S
C1036 C1038 1.363 . S
C1036 H1052 0.931 . S
C1037 C1036 1.370 . S
C1037 C1041 1.408 . S
C1038 C1036 1.363 . S
C1038 C1039 1.370 . S
C1038 C1042 1.524 . S
C1039 C1031 1.503 . S
C1039 C1038 1.370 . S
C1039 C1040 1.403 . S
C1040 C1039 1.403 . S
C1040 C1041 1.404 . S
C1040 C1043 1.539 . S
C1041 C1037 1.408 . S
C1041 C1040 1.404 . S
C1041 H1053 0.930 . S
C1042 C1038 1.524 . S
C1042 H1054 0.956 . S
C1042 H1055 0.961 . S
C1042 H1056 0.961 . S
C1043 C1040 1.539 . S
C1043 H1057 0.958 . S
C1043 H1058 0.961 1_565 S
C1043 H1059 0.960 . S
H1044 C1028 0.931 . S
H1045 C1033 0.929 . S
H1046 C1034 0.960 . S
H1047 C1034 0.962 . S
H1048 C1034 0.960 . S
H1049 C1035 0.961 . S
H1050 C1035 0.961 . S
H1051 C1035 0.961 . S
H1052 C1036 0.931 . S
H1053 C1041 0.930 . S
H1054 C1042 0.956 . S
H1055 C1042 0.961 . S
H1056 C1042 0.961 . S
H1057 C1043 0.958 . S
H1058 C1043 0.961 1_545 S
H1059 C1043 0.960 . S
C1060 C1061 1.391 . S
C1060 C1062 1.394 . S
C1060 H1076 0.931 . S
C1061 C1060 1.391 . S
C1061 C1065 1.376 . S
C1062 C1060 1.394 . S
C1062 C1063 1.369 . S
C1062 C1066 1.531 . S
C1063 C1062 1.369 . S
C1063 C1064 1.410 . S
C1063 C1071 1.503 . S
C1064 C1063 1.410 . S
C1064 C1065 1.392 . S
C1064 C1067 1.511 . S
C1065 C1061 1.376 . S
C1065 C1064 1.392 . S
C1065 H1077 0.929 . S
C1066 C1062 1.531 . S
C1066 H1078 0.960 . S
C1066 H1079 0.962 . S
C1066 H1080 0.960 . S
C1067 C1064 1.511 . S
C1067 H1081 0.961 . S
C1067 H1082 0.961 . S
C1067 H1083 0.961 . S
C1068 C1069 1.370 . S
C1068 C1070 1.363 . S
C1068 H1084 0.931 . S
C1069 C1068 1.370 . S
C1069 C1073 1.408 . S
C1070 C1068 1.363 . S
C1070 C1071 1.370 . S
C1070 C1074 1.524 . S
C1071 C1063 1.503 . S
C1071 C1070 1.370 . S
C1071 C1072 1.403 . S
C1072 C1071 1.403 . S
C1072 C1073 1.404 . S
C1072 C1075 1.539 . S
C1073 C1069 1.408 . S
C1073 C1072 1.404 . S
C1073 H1085 0.930 . S
C1074 C1070 1.524 . S
C1074 H1086 0.956 . S
C1074 H1087 0.961 . S
C1074 H1088 0.961 . S
C1075 C1072 1.539 . S
C1075 H1089 0.958 . S
C1075 H1090 0.961 . S
C1075 H1091 0.960 . S
H1076 C1060 0.931 . S
H1077 C1065 0.929 . S
H1078 C1066 0.960 . S
H1079 C1066 0.962 . S
H1080 C1066 0.960 . S
H1081 C1067 0.961 . S
H1082 C1067 0.961 . S
H1083 C1067 0.961 . S
H1084 C1068 0.931 . S
H1085 C1073 0.930 . S
H1086 C1074 0.956 . S
H1087 C1074 0.961 . S
H1088 C1074 0.961 . S
H1089 C1075 0.958 . S
H1090 C1075 0.961 . S
H1091 C1075 0.960 . S
C1092 C1093 1.391 . S
C1092 C1094 1.394 . S
C1092 H1108 0.931 . S
C1093 C1092 1.391 . S
C1093 C1097 1.376 1_455 S
C1094 C1092 1.394 . S
C1094 C1095 1.369 1_455 S
C1094 C1098 1.531 . S
C1095 C1094 1.369 1_655 S
C1095 C1096 1.410 . S
C1095 C1103 1.503 . S
C1096 C1095 1.410 . S
C1096 C1097 1.392 . S
C1096 C1099 1.511 . S
C1097 C1093 1.376 1_655 S
C1097 C1096 1.392 . S
C1097 H1109 0.929 . S
C1098 C1094 1.531 . S
C1098 H1110 0.960 . S
C1098 H1111 0.962 . S
C1098 H1112 0.960 . S
C1099 C1096 1.511 . S
C1099 H1113 0.961 . S
C1099 H1114 0.961 . S
C1099 H1115 0.961 . S
C1100 C1101 1.370 1_455 S
C1100 C1102 1.363 . S
C1100 H1116 0.931 . S
C1101 C1100 1.370 1_655 S
C1101 C1105 1.408 . S
C1102 C1100 1.363 . S
C1102 C1103 1.370 1_455 S
C1102 C1106 1.524 . S
C1103 C1095 1.503 . S
C1103 C1102 1.370 1_655 S
C1103 C1104 1.403 . S
C1104 C1103 1.403 . S
C1104 C1105 1.404 . S
C1104 C1107 1.539 . S
C1105 C1101 1.408 . S
C1105 C1104 1.404 . S
C1105 H1117 0.930 . S
C1106 C1102 1.524 . S
C1106 H1118 0.956 . S
C1106 H1119 0.961 . S
C1106 H1120 0.961 . S
C1107 C1104 1.539 . S
C1107 H1121 0.958 . S
C1107 H1122 0.961 . S
C1107 H1123 0.960 . S
H1108 C1092 0.931 . S
H1109 C1097 0.929 . S
H1110 C1098 0.960 . S
H1111 C1098 0.962 . S
H1112 C1098 0.960 . S
H1113 C1099 0.961 . S
H1114 C1099 0.961 . S
H1115 C1099 0.961 . S
H1116 C1100 0.931 . S
H1117 C1105 0.930 . S
H1118 C1106 0.956 . S
H1119 C1106 0.961 . S
H1120 C1106 0.961 . S
H1121 C1107 0.958 . S
H1122 C1107 0.961 . S
H1123 C1107 0.960 . S
C1124 C1125 1.391 . S
C1124 C1126 1.394 . S
C1124 H1140 0.931 . S
C1125 C1124 1.391 . S
C1125 C1129 1.376 1_565 S
C1126 C1124 1.394 . S
C1126 C1127 1.369 . S
C1126 C1130 1.531 . S
C1127 C1126 1.369 . S
C1127 C1128 1.410 1_565 S
C1127 C1135 1.503 1_565 S
C1128 C1127 1.410 1_545 S
C1128 C1129 1.392 . S
C1128 C1131 1.511 . S
C1129 C1125 1.376 1_545 S
C1129 C1128 1.392 . S
C1129 H1141 0.929 . S
C1130 C1126 1.531 . S
C1130 H1142 0.960 . S
C1130 H1143 0.962 . S
C1130 H1144 0.960 . S
C1131 C1128 1.511 . S
C1131 H1145 0.961 . S
C1131 H1146 0.961 . S
C1131 H1147 0.961 . S
C1132 C1133 1.370 . S
C1132 C1134 1.363 1_545 S
C1132 H1148 0.931 1_545 S
C1133 C1132 1.370 . S
C1133 C1137 1.408 . S
C1134 C1132 1.363 1_565 S
C1134 C1135 1.370 1_565 S
C1134 C1138 1.524 . S
C1135 C1127 1.503 1_545 S
C1135 C1134 1.370 1_545 S
C1135 C1136 1.403 . S
C1136 C1135 1.403 . S
C1136 C1137 1.404 . S
C1136 C1139 1.539 . S
C1137 C1133 1.408 . S
C1137 C1136 1.404 . S
C1137 H1149 0.930 . S
C1138 C1134 1.524 . S
C1138 H1150 0.956 . S
C1138 H1151 0.961 . S
C1138 H1152 0.961 . S
C1139 C1136 1.539 . S
C1139 H1153 0.958 . S
C1139 H1154 0.961 . S
C1139 H1155 0.960 . S
H1140 C1124 0.931 . S
H1141 C1129 0.929 . S
H1142 C1130 0.960 . S
H1143 C1130 0.962 . S
H1144 C1130 0.960 . S
H1145 C1131 0.961 . S
H1146 C1131 0.961 . S
H1147 C1131 0.961 . S
H1148 C1132 0.931 1_565 S
H1149 C1137 0.930 . S
H1150 C1138 0.956 . S
H1151 C1138 0.961 . S
H1152 C1138 0.961 . S
H1153 C1139 0.958 . S
H1154 C1139 0.961 . S
H1155 C1139 0.960 . S
C1156 C1157 1.391 . S
C1156 C1158 1.394 . S
C1156 H1172 0.931 . S
C1157 C1156 1.391 . S
C1157 C1161 1.376 . S
C1158 C1156 1.394 . S
C1158 C1159 1.369 . S
C1158 C1162 1.531 . S
C1159 C1158 1.369 . S
C1159 C1160 1.410 . S
C1159 C1167 1.503 . S
C1160 C1159 1.410 . S
C1160 C1161 1.392 . S
C1160 C1163 1.511 . S
C1161 C1157 1.376 . S
C1161 C1160 1.392 . S
C1161 H1173 0.929 . S
C1162 C1158 1.531 . S
C1162 H1174 0.960 . S
C1162 H1175 0.962 . S
C1162 H1176 0.960 . S
C1163 C1160 1.511 . S
C1163 H1177 0.961 . S
C1163 H1178 0.961 . S
C1163 H1179 0.961 . S
C1164 C1165 1.370 . S
C1164 C1166 1.363 . S
C1164 H1180 0.931 . S
C1165 C1164 1.370 . S
C1165 C1169 1.408 . S
C1166 C1164 1.363 . S
C1166 C1167 1.370 . S
C1166 C1170 1.524 . S
C1167 C1159 1.503 . S
C1167 C1166 1.370 . S
C1167 C1168 1.403 . S
C1168 C1167 1.403 . S
C1168 C1169 1.404 . S
C1168 C1171 1.539 . S
C1169 C1165 1.408 . S
C1169 C1168 1.404 . S
C1169 H1181 0.930 . S
C1170 C1166 1.524 . S
C1170 H1182 0.956 . S
C1170 H1183 0.961 . S
C1170 H1184 0.961 . S
C1171 C1168 1.539 . S
C1171 H1185 0.958 . S
C1171 H1186 0.961 . S
C1171 H1187 0.960 . S
H1172 C1156 0.931 . S
H1173 C1161 0.929 . S
H1174 C1162 0.960 . S
H1175 C1162 0.962 . S
H1176 C1162 0.960 . S
H1177 C1163 0.961 . S
H1178 C1163 0.961 . S
H1179 C1163 0.961 . S
H1180 C1164 0.931 . S
H1181 C1169 0.930 . S
H1182 C1170 0.956 . S
H1183 C1170 0.961 . S
H1184 C1170 0.961 . S
H1185 C1171 0.958 . S
H1186 C1171 0.961 . S
H1187 C1171 0.960 . S
C1188 C1189 1.391 1_545 S
C1188 C1190 1.394 . S
C1188 H1204 0.931 . S
C1189 C1188 1.391 1_565 S
C1189 C1193 1.376 . S
C1190 C1188 1.394 . S
C1190 C1191 1.369 1_545 S
C1190 C1194 1.531 . S
C1191 C1190 1.369 1_565 S
C1191 C1192 1.410 . S
C1191 C1199 1.503 . S
C1192 C1191 1.410 . S
C1192 C1193 1.392 . S
C1192 C1195 1.511 . S
C1193 C1189 1.376 . S
C1193 C1192 1.392 . S
C1193 H1205 0.929 . S
C1194 C1190 1.531 . S
C1194 H1206 0.960 . S
C1194 H1207 0.962 . S
C1194 H1208 0.960 . S
C1195 C1192 1.511 . S
C1195 H1209 0.961 . S
C1195 H1210 0.961 . S
C1195 H1211 0.961 . S
C1196 C1197 1.370 . S
C1196 C1198 1.363 . S
C1196 H1212 0.931 . S
C1197 C1196 1.370 . S
C1197 C1201 1.408 1_545 S
C1198 C1196 1.363 . S
C1198 C1199 1.370 1_545 S
C1198 C1202 1.524 . S
C1199 C1191 1.503 . S
C1199 C1198 1.370 1_565 S
C1199 C1200 1.403 . S
C1200 C1199 1.403 . S
C1200 C1201 1.404 . S
C1200 C1203 1.539 . S
C1201 C1197 1.408 1_565 S
C1201 C1200 1.404 . S
C1201 H1213 0.930 . S
C1202 C1198 1.524 . S
C1202 H1214 0.956 . S
C1202 H1215 0.961 . S
C1202 H1216 0.961 . S
C1203 C1200 1.539 . S
C1203 H1217 0.958 . S
C1203 H1218 0.961 . S
C1203 H1219 0.960 . S
H1204 C1188 0.931 . S
H1205 C1193 0.929 . S
H1206 C1194 0.960 . S
H1207 C1194 0.962 . S
H1208 C1194 0.960 . S
H1209 C1195 0.961 . S
H1210 C1195 0.961 . S
H1211 C1195 0.961 . S
H1212 C1196 0.931 . S
H1213 C1201 0.930 . S
H1214 C1202 0.956 . S
H1215 C1202 0.961 . S
H1216 C1202 0.961 . S
H1217 C1203 0.958 . S
H1218 C1203 0.961 . S
H1219 C1203 0.960 . S
C1220 C1221 1.391 . S
C1220 C1222 1.394 . S
C1220 H1236 0.931 . S
C1221 C1220 1.391 . S
C1221 C1225 1.376 . S
C1222 C1220 1.394 . S
C1222 C1223 1.369 . S
C1222 C1226 1.531 . S
C1223 C1222 1.369 . S
C1223 C1224 1.410 . S
C1223 C1231 1.503 . S
C1224 C1223 1.410 . S
C1224 C1225 1.392 . S
C1224 C1227 1.511 . S
C1225 C1221 1.376 . S
C1225 C1224 1.392 . S
C1225 H1237 0.929 . S
C1226 C1222 1.531 . S
C1226 H1238 0.960 . S
C1226 H1239 0.962 . S
C1226 H1240 0.960 . S
C1227 C1224 1.511 . S
C1227 H1241 0.961 . S
C1227 H1242 0.961 . S
C1227 H1243 0.961 . S
C1228 C1229 1.370 . S
C1228 C1230 1.363 . S
C1228 H1244 0.931 . S
C1229 C1228 1.370 . S
C1229 C1233 1.408 . S
C1230 C1228 1.363 . S
C1230 C1231 1.370 . S
C1230 C1234 1.524 . S
C1231 C1223 1.503 . S
C1231 C1230 1.370 . S
C1231 C1232 1.403 . S
C1232 C1231 1.403 . S
C1232 C1233 1.404 . S
C1232 C1235 1.539 . S
C1233 C1229 1.408 . S
C1233 C1232 1.404 . S
C1233 H1245 0.930 . S
C1234 C1230 1.524 . S
C1234 H1246 0.956 . S
C1234 H1247 0.961 . S
C1234 H1248 0.961 . S
C1235 C1232 1.539 . S
C1235 H1249 0.958 . S
C1235 H1250 0.961 . S
C1235 H1251 0.960 . S
H1236 C1220 0.931 . S
H1237 C1225 0.929 . S
H1238 C1226 0.960 . S
H1239 C1226 0.962 . S
H1240 C1226 0.960 . S
H1241 C1227 0.961 . S
H1242 C1227 0.961 . S
H1243 C1227 0.961 . S
H1244 C1228 0.931 . S
H1245 C1233 0.930 . S
H1246 C1234 0.956 . S
H1247 C1234 0.961 . S
H1248 C1234 0.961 . S
H1249 C1235 0.958 . S
H1250 C1235 0.961 . S
H1251 C1235 0.960 . S
C1252 C1253 1.391 . S
C1252 C1254 1.394 . S
C1252 H1268 0.931 . S
C1253 C1252 1.391 . S
C1253 C1257 1.376 1_655 S
C1254 C1252 1.394 . S
C1254 C1255 1.369 . S
C1254 C1258 1.531 . S
C1255 C1254 1.369 . S
C1255 C1256 1.410 1_655 S
C1255 C1263 1.503 1_655 S
C1256 C1255 1.410 1_455 S
C1256 C1257 1.392 . S
C1256 C1259 1.511 . S
C1257 C1253 1.376 1_455 S
C1257 C1256 1.392 . S
C1257 H1269 0.929 . S
C1258 C1254 1.531 . S
C1258 H1270 0.960 . S
C1258 H1271 0.962 . S
C1258 H1272 0.960 . S
C1259 C1256 1.511 . S
C1259 H1273 0.961 . S
C1259 H1274 0.961 . S
C1259 H1275 0.961 . S
C1260 C1261 1.370 . S
C1260 C1262 1.363 . S
C1260 H1276 0.931 . S
C1261 C1260 1.370 . S
C1261 C1265 1.408 . S
C1262 C1260 1.363 . S
C1262 C1263 1.370 . S
C1262 C1266 1.524 . S
C1263 C1255 1.503 1_455 S
C1263 C1262 1.370 . S
C1263 C1264 1.403 1_455 S
C1264 C1263 1.403 1_655 S
C1264 C1265 1.404 1_655 S
C1264 C1267 1.539 . S
C1265 C1261 1.408 . S
C1265 C1264 1.404 1_455 S
C1265 H1277 0.930 . S
C1266 C1262 1.524 . S
C1266 H1278 0.956 . S
C1266 H1279 0.961 . S
C1266 H1280 0.961 . S
C1267 C1264 1.539 . S
C1267 H1281 0.958 . S
C1267 H1282 0.961 . S
C1267 H1283 0.960 . S
H1268 C1252 0.931 . S
H1269 C1257 0.929 . S
H1270 C1258 0.960 . S
H1271 C1258 0.962 . S
H1272 C1258 0.960 . S
H1273 C1259 0.961 . S
H1274 C1259 0.961 . S
H1275 C1259 0.961 . S
H1276 C1260 0.931 . S
H1277 C1265 0.930 . S
H1278 C1266 0.956 . S
H1279 C1266 0.961 . S
H1280 C1266 0.961 . S
H1281 C1267 0.958 . S
H1282 C1267 0.961 . S
H1283 C1267 0.960 . S
C1284 C1285 1.391 . S
C1284 C1286 1.394 . S
C1284 H1300 0.931 . S
C1285 C1284 1.391 . S
C1285 C1289 1.376 1_655 S
C1286 C1284 1.394 . S
C1286 C1287 1.369 . S
C1286 C1290 1.531 1_545 S
C1287 C1286 1.369 . S
C1287 C1288 1.410 1_655 S
C1287 C1295 1.503 1_545 S
C1288 C1287 1.410 1_455 S
C1288 C1289 1.392 . S
C1288 C1291 1.511 . S
C1289 C1285 1.376 1_455 S
C1289 C1288 1.392 . S
C1289 H1301 0.929 . S
C1290 C1286 1.531 1_565 S
C1290 H1302 0.960 . S
C1290 H1303 0.962 . S
C1290 H1304 0.960 . S
C1291 C1288 1.511 . S
C1291 H1305 0.961 . S
C1291 H1306 0.961 . S
C1291 H1307 0.961 . S
C1292 C1293 1.370 . S
C1292 C1294 1.363 . S
C1292 H1308 0.931 . S
C1293 C1292 1.370 . S
C1293 C1297 1.408 1_455 S
C1294 C1292 1.363 . S
C1294 C1295 1.370 1_455 S
C1294 C1298 1.524 1_565 S
C1295 C1287 1.503 1_565 S
C1295 C1294 1.370 1_655 S
C1295 C1296 1.403 . S
C1296 C1295 1.403 . S
C1296 C1297 1.404 . S
C1296 C1299 1.539 . S
C1297 C1293 1.408 1_655 S
C1297 C1296 1.404 . S
C1297 H1309 0.930 . S
C1298 C1294 1.524 1_545 S
C1298 H1310 0.956 . S
C1298 H1311 0.961 . S
C1298 H1312 0.961 . S
C1299 C1296 1.539 . S
C1299 H1313 0.958 . S
C1299 H1314 0.961 . S
C1299 H1315 0.960 . S
H1300 C1284 0.931 . S
H1301 C1289 0.929 . S
H1302 C1290 0.960 . S
H1303 C1290 0.962 . S
H1304 C1290 0.960 . S
H1305 C1291 0.961 . S
H1306 C1291 0.961 . S
H1307 C1291 0.961 . S
H1308 C1292 0.931 . S
H1309 C1297 0.930 . S
H1310 C1298 0.956 . S
H1311 C1298 0.961 . S
H1312 C1298 0.961 . S
H1313 C1299 0.958 . S
H1314 C1299 0.961 . S
H1315 C1299 0.960 . S
C1316 C1317 1.391 . S
C1316 C1318 1.394 1_565 S
C1316 H1332 0.931 1_565 S
C1317 C1316 1.391 . S
C1317 C1321 1.376 . S
C1318 C1316 1.394 1_545 S
C1318 C1319 1.369 1_545 S
C1318 C1322 1.531 . S
C1319 C1318 1.369 1_565 S
C1319 C1320 1.410 . S
C1319 C1327 1.503 1_665 S
C1320 C1319 1.410 . S
C1320 C1321 1.392 . S
C1320 C1323 1.511 . S
C1321 C1317 1.376 . S
C1321 C1320 1.392 . S
C1321 H1333 0.929 . S
C1322 C1318 1.531 . S
C1322 H1334 0.960 1_655 S
C1322 H1335 0.962 1_655 S
C1322 H1336 0.960 . S
C1323 C1320 1.511 . S
C1323 H1337 0.961 . S
C1323 H1338 0.961 . S
C1323 H1339 0.961 . S
C1324 C1325 1.370 . S
C1324 C1326 1.363 . S
C1324 H1340 0.931 . S
C1325 C1324 1.370 . S
C1325 C1329 1.408 1_545 S
C1326 C1324 1.363 . S
C1326 C1327 1.370 . S
C1326 C1330 1.524 . S
C1327 C1319 1.503 1_445 S
C1327 C1326 1.370 . S
C1327 C1328 1.403 1_545 S
C1328 C1327 1.403 1_565 S
C1328 C1329 1.404 . S
C1328 C1331 1.539 . S
C1329 C1325 1.408 1_565 S
C1329 C1328 1.404 . S
C1329 H1341 0.930 . S
C1330 C1326 1.524 . S
C1330 H1342 0.956 . S
C1330 H1343 0.961 . S
C1330 H1344 0.961 . S
C1331 C1328 1.539 . S
C1331 H1345 0.958 . S
C1331 H1346 0.961 . S
C1331 H1347 0.960 1_455 S
H1332 C1316 0.931 1_545 S
H1333 C1321 0.929 . S
H1334 C1322 0.960 1_455 S
H1335 C1322 0.962 1_455 S
H1336 C1322 0.960 . S
H1337 C1323 0.961 . S
H1338 C1323 0.961 . S
H1339 C1323 0.961 . S
H1340 C1324 0.931 . S
H1341 C1329 0.930 . S
H1342 C1330 0.956 . S
H1343 C1330 0.961 . S
H1344 C1330 0.961 . S
H1345 C1331 0.958 . S
H1346 C1331 0.961 . S
H1347 C1331 0.960 1_655 S
C1348 C1349 1.391 . S
C1348 C1350 1.394 . S
C1348 H1364 0.931 . S
C1349 C1348 1.391 . S
C1349 C1353 1.376 . S
C1350 C1348 1.394 . S
C1350 C1351 1.369 . S
C1350 C1354 1.531 . S
C1351 C1350 1.369 . S
C1351 C1352 1.410 . S
C1351 C1359 1.503 1_445 S
C1352 C1351 1.410 . S
C1352 C1353 1.392 . S
C1352 C1355 1.511 1_455 S
C1353 C1349 1.376 . S
C1353 C1352 1.392 . S
C1353 H1365 0.929 . S
C1354 C1350 1.531 . S
C1354 H1366 0.960 1_545 S
C1354 H1367 0.962 . S
C1354 H1368 0.960 . S
C1355 C1352 1.511 1_655 S
C1355 H1369 0.961 . S
C1355 H1370 0.961 . S
C1355 H1371 0.961 . S
C1356 C1357 1.370 . S
C1356 C1358 1.363 . S
C1356 H1372 0.931 . S
C1357 C1356 1.370 . S
C1357 C1361 1.408 . S
C1358 C1356 1.363 . S
C1358 C1359 1.370 . S
C1358 C1362 1.524 . S
C1359 C1351 1.503 1_665 S
C1359 C1358 1.370 . S
C1359 C1360 1.403 . S
C1360 C1359 1.403 . S
C1360 C1361 1.404 . S
C1360 C1363 1.539 1_655 S
C1361 C1357 1.408 . S
C1361 C1360 1.404 . S
C1361 H1373 0.930 . S
C1362 C1358 1.524 . S
C1362 H1374 0.955 . S
C1362 H1375 0.961 1_565 S
C1362 H1376 0.961 . S
C1363 C1360 1.539 1_455 S
C1363 H1377 0.958 . S
C1363 H1378 0.961 1_455 S
C1363 H1379 0.960 . S
H1364 C1348 0.931 . S
H1365 C1353 0.929 . S
H1366 C1354 0.960 1_565 S
H1367 C1354 0.962 . S
H1368 C1354 0.960 . S
H1369 C1355 0.961 . S
H1370 C1355 0.961 . S
H1371 C1355 0.961 . S
H1372 C1356 0.931 . S
H1373 C1361 0.930 . S
H1374 C1362 0.955 . S
H1375 C1362 0.961 1_545 S
H1376 C1362 0.961 . S
H1377 C1363 0.958 . S
H1378 C1363 0.961 1_655 S
H1379 C1363 0.960 . S
C1380 C1381 1.391 1_565 S
C1380 C1382 1.394 . S
C1380 H1396 0.931 . S
C1381 C1380 1.391 1_545 S
C1381 C1385 1.376 . S
C1382 C1380 1.394 . S
C1382 C1383 1.369 1_565 S
C1382 C1386 1.531 . S
C1383 C1382 1.369 1_545 S
C1383 C1384 1.410 . S
C1383 C1391 1.503 1_645 S
C1384 C1383 1.410 . S
C1384 C1385 1.392 . S
C1384 C1387 1.511 1_655 S
C1385 C1381 1.376 . S
C1385 C1384 1.392 . S
C1385 H1397 0.929 . S
C1386 C1382 1.531 . S
C1386 H1398 0.960 . S
C1386 H1399 0.962 . S
C1386 H1400 0.960 . S
C1387 C1384 1.511 1_455 S
C1387 H1401 0.961 . S
C1387 H1402 0.961 . S
C1387 H1403 0.961 . S
C1388 C1389 1.370 . S
C1388 C1390 1.363 . S
C1388 H1404 0.931 . S
C1389 C1388 1.370 . S
C1389 C1393 1.415 . S
C1390 C1388 1.363 . S
C1390 C1391 1.370 . S
C1390 C1394 1.524 . S
C1391 C1383 1.503 1_465 S
C1391 C1390 1.370 . S
C1391 C1392 1.403 1_565 S
C1392 C1391 1.403 1_545 S
C1392 C1393 1.395 1_545 S
C1392 C1395 1.539 . S
C1393 C1389 1.415 . S
C1393 C1392 1.395 1_565 S
C1393 H1405 0.932 1_565 S
C1394 C1390 1.524 . S
C1394 H1406 0.956 1_455 S
C1394 H1407 0.948 1_465 S
C1394 H1408 0.961 . S
C1395 C1392 1.539 . S
C1395 H1409 0.959 . S
C1395 H1410 0.961 . S
C1395 H1411 0.960 . S
H1396 C1380 0.931 . S
H1397 C1385 0.929 . S
H1398 C1386 0.960 . S
H1399 C1386 0.962 . S
H1400 C1386 0.960 . S
H1401 C1387 0.961 . S
H1402 C1387 0.961 . S
H1403 C1387 0.961 . S
H1404 C1388 0.931 . S
H1405 C1393 0.932 1_545 S
H1406 C1394 0.956 1_655 S
H1407 C1394 0.948 1_645 S
H1408 C1394 0.961 . S
H1409 C1395 0.959 . S
H1410 C1395 0.961 . S
H1411 C1395 0.960 . S
C1412 C1413 1.391 . S
C1412 C1414 1.394 . S
C1412 H1428 0.931 . S
C1413 C1412 1.391 . S
C1413 C1417 1.376 . S
C1414 C1412 1.394 . S
C1414 C1415 1.369 . S
C1414 C1418 1.531 1_655 S
C1415 C1414 1.369 . S
C1415 C1416 1.410 . S
C1415 C1423 1.503 1_665 S
C1416 C1415 1.410 . S
C1416 C1417 1.392 . S
C1416 C1419 1.511 1_565 S
C1417 C1413 1.376 . S
C1417 C1416 1.392 . S
C1417 H1429 0.929 . S
C1418 C1414 1.531 1_455 S
C1418 H1430 0.960 . S
C1418 H1431 0.962 . S
C1418 H1432 0.960 . S
C1419 C1416 1.511 1_545 S
C1419 H1433 0.961 . S
C1419 H1434 0.961 . S
C1419 H1435 0.961 1_545 S
C1420 C1421 1.370 . S
C1420 C1422 1.363 . S
C1420 H1436 0.931 . S
C1421 C1420 1.370 . S
C1421 C1425 1.408 . S
C1422 C1420 1.363 . S
C1422 C1423 1.370 . S
C1422 C1426 1.524 1_455 S
C1423 C1415 1.503 1_445 S
C1423 C1422 1.370 . S
C1423 C1424 1.403 . S
C1424 C1423 1.403 . S
C1424 C1425 1.404 . S
C1424 C1427 1.539 1_545 S
C1425 C1421 1.408 . S
C1425 C1424 1.404 . S
C1425 H1437 0.930 . S
C1426 C1422 1.524 1_655 S
C1426 H1438 0.956 . S
C1426 H1439 0.961 . S
C1426 H1440 0.961 . S
C1427 C1424 1.539 1_565 S
C1427 H1441 0.958 . S
C1427 H1442 0.961 1_565 S
C1427 H1443 0.960 . S
H1428 C1412 0.931 . S
H1429 C1417 0.929 . S
H1430 C1418 0.960 . S
H1431 C1418 0.962 . S
H1432 C1418 0.960 . S
H1433 C1419 0.961 . S
H1434 C1419 0.961 . S
H1435 C1419 0.961 1_565 S
H1436 C1420 0.931 . S
H1437 C1425 0.930 . S
H1438 C1426 0.956 . S
H1439 C1426 0.961 . S
H1440 C1426 0.961 . S
H1441 C1427 0.958 . S
H1442 C1427 0.961 1_545 S
H1443 C1427 0.960 . S
C1444 C1445 1.391 . S
C1444 C1446 1.394 . S
C1444 H1460 0.931 . S
C1445 C1444 1.391 . S
C1445 C1449 1.386 . S
C1446 C1444 1.394 . S
C1446 C1447 1.369 1_655 S
C1446 C1450 1.531 . S
C1447 C1446 1.369 1_455 S
C1447 C1448 1.410 . S
C1447 C1455 1.503 1_565 S
C1448 C1447 1.410 . S
C1448 C1449 1.397 1_455 S
C1448 C1451 1.511 . S
C1449 C1445 1.386 . S
C1449 C1448 1.397 1_655 S
C1449 H1461 0.915 1_655 S
C1450 C1446 1.531 . S
C1450 H1462 0.976 . S
C1450 H1463 0.962 . S
C1450 H1464 0.960 . S
C1451 C1448 1.511 . S
C1451 H1465 0.961 . S
C1451 H1466 0.961 1_565 S
C1451 H1467 0.961 1_565 S
C1452 C1453 1.370 1_655 S
C1452 C1454 1.363 . S
C1452 H1468 0.931 . S
C1453 C1452 1.370 1_455 S
C1453 C1457 1.408 . S
C1454 C1452 1.363 . S
C1454 C1455 1.370 1_655 S
C1454 C1458 1.524 . S
C1455 C1447 1.503 1_545 S
C1455 C1454 1.370 1_455 S
C1455 C1456 1.403 . S
C1456 C1455 1.403 . S
C1456 C1457 1.404 . S
C1456 C1459 1.539 . S
C1457 C1453 1.408 . S
C1457 C1456 1.404 . S
C1457 H1469 0.930 . S
C1458 C1454 1.524 . S
C1458 H1470 0.956 1_545 S
C1458 H1471 0.961 1_545 S
C1458 H1472 0.961 . S
C1459 C1456 1.539 . S
C1459 H1473 0.958 . S
C1459 H1474 0.961 . S
C1459 H1475 0.960 . S
H1460 C1444 0.931 . S
H1461 C1449 0.915 1_455 S
H1462 C1450 0.976 . S
H1463 C1450 0.962 . S
H1464 C1450 0.960 . S
H1465 C1451 0.961 . S
H1466 C1451 0.961 1_545 S
H1467 C1451 0.961 1_545 S
H1468 C1452 0.931 . S
H1469 C1457 0.930 . S
H1470 C1458 0.956 1_565 S
H1471 C1458 0.961 1_565 S
H1472 C1458 0.961 . S
H1473 C1459 0.958 . S
H1474 C1459 0.961 . S
H1475 C1459 0.960 . S
C709 C652 1.414 . S
C717 C3 1.410 . S
C741 C62 1.400 . S
C749 C357 1.424 . S
C773 C121 1.404 . S
C781 C416 1.427 . S
C805 C180 1.421 . S
C813 C475 1.433 . S
C837 C534 1.444 . S
C845 C239 1.423 . S
C869 C298 1.429 . S
C877 C593 1.405 . S
C901 C33 1.242 . S
C909 C623 1.274 . S
C933 C92 1.323 . S
C941 C682 1.304 . S
C965 C151 1.320 . S
C973 C387 1.300 . S
C997 C210 1.273 . S
C1005 C446 1.272 . S
C1029 C505 1.311 . S
C1037 C269 1.303 . S
C1061 C564 1.288 . S
C1069 C328 1.312 . S
C1093 C182 1.370 . S
C1101 C5 1.401 . S
C1125 C64 1.503 . S
C1133 C241 1.531 . S
C1157 C300 1.552 . S
C1165 C123 1.582 . S
C1189 C536 1.476 . S
C1197 C359 1.446 . S
C1221 C595 1.386 . S
C1229 C418 1.392 . S
C1253 C477 1.517 . S
C1261 C654 1.508 . S
C1285 C52 1.314 . S
C1293 C229 1.293 . S
C1317 C111 1.380 . S
C1325 C288 1.352 . S
C1349 C347 1.445 . S
C1357 C170 1.474 . S
C1381 C406 1.251 . S
C1389 C583 1.246 . S
C1413 C465 1.247 . S
C1421 C642 1.279 . S
C1445 C524 1.340 . S
C1453 C701 1.389 . S
