# Generated by pormake.
# Topology afw, (4)-cn, num edge types: 1
# Building blocks:
#     Node 0, Type 0, BuildingBlock: GALJAG_clean_sbu_0, # of connection points: 4
#     Node 1, Type 0, BuildingBlock: GALJAG_clean_sbu_0, # of connection points: 4
#     Node 2, Type 0, BuildingBlock: GALJAG_clean_sbu_0, # of connection points: 4
#     Node 3, Type 0, BuildingBlock: GALJAG_clean_sbu_0, # of connection points: 4
#     Node 4, Type 0, BuildingBlock: GALJAG_clean_sbu_0, # of connection points: 4
#     Node 5, Type 0, BuildingBlock: GALJAG_clean_sbu_0, # of connection points: 4
#     Node 6, Type 0, BuildingBlock: GALJAG_clean_sbu_0, # of connection points: 4
#     Node 7, Type 0, BuildingBlock: GALJAG_clean_sbu_0, # of connection points: 4
#     Node 8, Type 0, BuildingBlock: GALJAG_clean_sbu_0, # of connection points: 4
#     Edge 9, Type (0, 0), BuildingBlock: CIFDUS_clean_linker_0, # of connection points: 2
#     Edge 10, Type (0, 0), BuildingBlock: CIFDUS_clean_linker_0, # of connection points: 2
#     Edge 11, Type (0, 0), BuildingBlock: CIFDUS_clean_linker_0, # of connection points: 2
#     Edge 12, Type (0, 0), BuildingBlock: CIFDUS_clean_linker_0, # of connection points: 2
#     Edge 13, Type (0, 0), BuildingBlock: CIFDUS_clean_linker_0, # of connection points: 2
#     Edge 14, Type (0, 0), BuildingBlock: CIFDUS_clean_linker_0, # of connection points: 2
#     Edge 15, Type (0, 0), BuildingBlock: CIFDUS_clean_linker_0, # of connection points: 2
#     Edge 16, Type (0, 0), BuildingBlock: CIFDUS_clean_linker_0, # of connection points: 2
#     Edge 17, Type (0, 0), BuildingBlock: CIFDUS_clean_linker_0, # of connection points: 2
#     Edge 18, Type (0, 0), BuildingBlock: CIFDUS_clean_linker_0, # of connection points: 2
#     Edge 19, Type (0, 0), BuildingBlock: CIFDUS_clean_linker_0, # of connection points: 2
#     Edge 20, Type (0, 0), BuildingBlock: CIFDUS_clean_linker_0, # of connection points: 2
#     Edge 21, Type (0, 0), BuildingBlock: CIFDUS_clean_linker_0, # of connection points: 2
#     Edge 22, Type (0, 0), BuildingBlock: CIFDUS_clean_linker_0, # of connection points: 2
#     Edge 23, Type (0, 0), BuildingBlock: CIFDUS_clean_linker_0, # of connection points: 2
#     Edge 24, Type (0, 0), BuildingBlock: CIFDUS_clean_linker_0, # of connection points: 2
#     Edge 25, Type (0, 0), BuildingBlock: CIFDUS_clean_linker_0, # of connection points: 2
#     Edge 26, Type (0, 0), BuildingBlock: CIFDUS_clean_linker_0, # of connection points: 2
# Relax obj value: 0.092
# Max RMSD: 0.157
# Mean RMSD: 0.157
data_MOF--net-afw--node1-GALJAG_clean_sbu_0--edge1-CIFDUS_clean_linker_0
_symmetry_space_group_name_H-M    P1
_symmetry_Int_Tables_number       1
_symmetry_cell_setting            triclinic
loop_
_symmetry_equiv_pos_as_xyz
'x, y, z'
_cell_length_a     40.632538
_cell_length_b     40.580362
_cell_length_c     23.771993
_cell_angle_alpha  89.759495
_cell_angle_beta   90.308926
_cell_angle_gamma 119.73032
loop_
_atom_site_label
_atom_site_type_symbol
_atom_site_fract_x
_atom_site_fract_y
_atom_site_fract_z
_atom_type_partial_charge
In0 In 0.00725 0.19975 -0.00169 0.0
O1 O 0.0045 0.22325 0.91204 0.0
O2 O 0.0469 0.26 0.97034 0.0
C3 C 0.94654 0.12915 0.00113 0.0
C4 C 0.98642 0.23384 0.07518 0.0
C5 C 0.06337 0.18242 -0.00173 0.0
O6 O 0.95676 0.14866 0.95644 0.0
O7 O 0.96642 0.14558 0.04375 0.0
O8 O 0.05588 0.19588 0.04102 0.0
O9 O 0.04327 0.17873 0.95564 0.0
C10 C 0.03177 0.25611 0.92252 0.0
O11 O 0.01198 0.22537 0.08505 0.0
O12 O 0.97132 0.2247 0.02702 0.0
In13 In 0.81082 0.83642 0.0598 0.0
O14 O 0.7819 0.8118 0.97586 0.0
O15 O 0.74911 0.81653 0.04219 0.0
C16 C 0.88265 0.85013 0.05443 0.0
C17 C 0.78288 0.77739 0.13071 0.0
C18 C 0.82672 0.90914 0.06044 0.0
O19 O 0.86083 0.83878 0.01199 0.0
O20 O 0.86787 0.85377 0.09879 0.0
O21 O 0.81727 0.88923 0.10489 0.0
O22 O 0.82697 0.89192 0.01655 0.0
C23 C 0.7499 0.80622 -0.00765 0.0
O24 O 0.7883 0.80964 0.14593 0.0
O25 O 0.79203 0.77555 0.08061 0.0
In26 In 0.17517 -1e-05 0.98015 0.0
O27 O 0.20183 0.00515 0.06677 0.0
O28 O 0.23685 0.03968 -0.00048 0.0
C29 C 0.10201 0.94545 -0.01098 0.0
C30 C 0.20451 0.96669 0.91658 0.0
C31 C 0.16384 0.05951 0.96625 0.0
O32 O 0.12359 0.95807 0.03154 0.0
O33 O 0.11777 0.95948 0.94267 0.0
O34 O 0.17018 0.04388 0.92497 0.0
O35 O 0.16427 0.04569 0.01364 0.0
C36 C 0.23464 0.02976 0.05041 0.0
O37 O 0.20052 -0.00613 0.89823 0.0
O38 O 0.1924 0.9557 0.96582 0.0
In39 In 0.65908 0.51678 0.35413 0.0
O40 O 0.6651 0.54389 0.26785 0.0
O41 O 0.69916 0.57871 0.33571 0.0
C42 C 0.60386 0.44402 0.34296 0.0
C43 C 0.62527 0.54525 0.41838 0.0
C44 C 0.71759 0.50399 0.36901 0.0
O45 O 0.61741 0.46593 0.301 0.0
O46 O 0.6174 0.45925 0.38983 0.0
O47 O 0.70208 0.51072 0.41002 0.0
O48 O 0.70429 0.50495 0.32142 0.0
C49 C 0.68969 0.57663 0.28459 0.0
O50 O 0.65199 0.54062 0.43701 0.0
O51 O 0.6153 0.53462 0.36827 0.0
In52 In 0.49536 0.15299 0.27284 0.0
O53 O 0.46809 0.12941 0.18725 0.0
O54 O 0.43416 0.13294 0.25289 0.0
C55 C 0.56784 0.16861 0.2734 0.0
C56 C 0.46698 0.09348 0.34266 0.0
C57 C 0.50874 0.22481 0.27624 0.0
O58 O 0.54807 0.15854 0.22875 0.0
O59 O 0.55068 0.16988 0.31663 0.0
O60 O 0.49658 0.20309 0.31868 0.0
O61 O 0.51335 0.20993 0.23269 0.0
C62 C 0.4358 0.12353 0.20286 0.0
O63 O 0.47275 0.12578 0.3582 0.0
O64 O 0.47583 0.09159 0.29236 0.0
In65 In 0.85748 0.34593 0.33888 0.0
O66 O 0.88592 0.33792 0.41684 0.0
O67 O 0.91152 0.39243 0.37766 0.0
C68 C 0.78716 0.28493 0.33681 0.0
C69 C 0.89383 0.32842 0.26098 0.0
C70 C 0.8376 0.40005 0.33848 0.0
O71 O 0.80559 0.2974 0.38218 0.0
O72 O 0.80463 0.30259 0.29328 0.0
O73 O 0.85326 0.39434 0.29664 0.0
O74 O 0.83275 0.37895 0.38043 0.0
C75 C 0.91314 0.37173 0.41612 0.0
O76 O 0.8827 0.352 0.25106 0.0
O77 O 0.88656 0.31409 0.30961 0.0
In78 In 0.35287 0.87512 0.65085 0.0
O79 O 0.36245 0.90201 0.56405 0.0
O80 O 0.39491 0.93671 0.63312 0.0
C81 C 0.29702 0.80274 0.63988 0.0
C82 C 0.3155 0.9023 0.70954 0.0
C83 C 0.40973 0.86075 0.67171 0.0
O84 O 0.31138 0.82419 0.59763 0.0
O85 O 0.3103 0.81819 0.68672 0.0
O86 O 0.39593 0.87178 0.71007 0.0
O87 O 0.39562 0.85835 0.62352 0.0
C88 C 0.3872 0.93456 0.58122 0.0
O89 O 0.34009 0.89598 0.73241 0.0
O90 O 0.30996 0.89478 0.65771 0.0
In91 In 0.15831 0.50555 0.67365 0.0
O92 O 0.12569 0.47142 0.59643 0.0
O93 O 0.10487 0.5031 0.64061 0.0
C94 C 0.22902 0.51574 0.66789 0.0
C95 C 0.12407 0.44918 0.74888 0.0
C96 C 0.17958 0.57952 0.67682 0.0
O97 O 0.20821 0.50842 0.62468 0.0
O98 O 0.21351 0.51638 0.71331 0.0
O99 O 0.16517 0.5581 0.7192 0.0
O100 O 0.1825 0.56333 0.63343 0.0
C101 C 0.10052 0.48099 0.60054 0.0
O102 O 0.13505 0.48336 0.76169 0.0
O103 O 0.13043 0.44393 0.69881 0.0
In104 In 0.52464 0.68059 0.69466 0.0
O105 O 0.55273 0.69061 0.78116 0.0
O106 O 0.58663 0.72119 0.71051 0.0
C107 C 0.45182 0.62541 0.70419 0.0
C108 C 0.55076 0.64318 0.6337 0.0
C109 C 0.51302 0.73951 0.67596 0.0
O110 O 0.47345 0.63819 0.74669 0.0
O111 O 0.46725 0.64002 0.65791 0.0
O112 O 0.52334 0.72537 0.63715 0.0
O113 O 0.50937 0.72431 0.7236 0.0
C114 C 0.58521 0.71441 0.7626 0.0
O115 O 0.5448 0.66839 0.61221 0.0
O116 O 0.54314 0.6368 0.68541 0.0
H117 H 0.15838 0.10213 0.04883 0.0
H118 H 0.14303 0.08178 0.87011 0.0
H119 H 0.11377 0.12181 0.86332 0.0
H120 H 0.08607 0.1563 0.91022 0.0
H121 H 0.10081 0.17572 0.08925 0.0
H122 H 0.13722 0.14264 0.09382 0.0
C123 C 0.14915 0.10692 0.00823 0.0
C124 C 0.1524 0.08868 0.96013 0.0
C125 C 0.132 0.12953 0.00484 0.0
C126 C 0.14073 0.09545 0.90774 0.0
C127 C 0.12382 0.11816 0.90392 0.0
C128 C 0.09774 0.15378 0.95009 0.0
C129 C 0.09036 0.16799 -0.00053 0.0
C130 C 0.1183 0.13438 0.95248 0.0
C131 C 0.10595 0.16486 0.05072 0.0
C132 C 0.12664 0.14582 0.05339 0.0
H133 H 0.83996 0.95395 0.96913 0.0
H134 H 0.84629 0.95708 0.15042 0.0
H135 H 0.88082 0.02651 0.14799 0.0
H136 H 0.91579 0.08565 0.09382 0.0
H137 H 0.91022 0.08228 0.91246 0.0
H138 H 0.86839 0.01349 0.91542 0.0
C139 C 0.84837 0.96983 0.00818 0.0
C140 C 0.84106 0.95047 0.05988 0.0
C141 C 0.86861 0.00962 0.00636 0.0
C142 C 0.8517 0.97136 0.11011 0.0
C143 C 0.87164 0.01104 0.1087 0.0
C144 C 0.90496 0.06992 0.05496 0.0
C145 C 0.91647 0.0889 0.00294 0.0
C146 C 0.88128 0.03039 0.05701 0.0
C147 C 0.9019 0.06828 0.95298 0.0
C148 C 0.87812 0.02894 0.95466 0.0
H149 H 0.92469 0.85658 0.96189 0.0
H150 H 0.93186 0.86983 0.1423 0.0
H151 H 0.00042 0.89669 0.13875 0.0
H152 H 0.05898 0.92245 0.08361 0.0
H153 H 0.05215 0.91149 0.90289 0.0
H154 H 0.98305 0.87734 0.90741 0.0
C155 C 0.94123 0.86481 0.00044 0.0
C156 C 0.92327 0.86154 0.05215 0.0
C157 C 0.98082 0.88089 -0.00195 0.0
C158 C 0.94505 0.87232 0.10183 0.0
C159 C 0.98429 0.88774 0.09989 0.0
C160 C 0.04235 0.91199 0.04534 0.0
C161 C 0.06064 0.91974 -0.00697 0.0
C162 C 0.00259 0.89307 0.04812 0.0
C163 C 0.03872 0.90607 0.94374 0.0
C164 C -0.00081 0.88663 0.94623 0.0
H165 H 0.80998 0.42165 0.42595 0.0
H166 H 0.8322 0.43845 0.24778 0.0
H167 H 0.80019 0.47589 0.24291 0.0
H168 H 0.76033 0.49801 0.28731 0.0
H169 H 0.73759 0.48106 0.46527 0.0
H170 H 0.77593 0.44998 0.47244 0.0
C171 C 0.80823 0.43392 0.3862 0.0
C172 C 0.82299 0.42691 0.33714 0.0
C173 C 0.7896 0.45522 0.38367 0.0
C174 C 0.8209 0.4433 0.28606 0.0
C175 C 0.8025 0.4646 0.28322 0.0
C176 C 0.76424 0.48802 0.32785 0.0
C177 C 0.74585 0.49142 0.37559 0.0
C178 C 0.78591 0.46988 0.33146 0.0
C179 C 0.75144 0.47872 0.42791 0.0
C180 C 0.77316 0.46075 0.43194 0.0
H181 H 0.51255 0.26662 0.36772 0.0
H182 H 0.53096 0.2743 0.18841 0.0
H183 H 0.55808 0.343 0.19212 0.0
H184 H 0.58286 0.40149 0.24769 0.0
H185 H 0.56687 0.39399 0.42752 0.0
H186 H 0.53212 0.32484 0.42212 0.0
C187 C 0.52195 0.2833 0.32938 0.0
C188 C 0.5201 0.26547 0.27803 0.0
C189 C 0.53819 0.32293 0.33193 0.0
C190 C 0.53235 0.2874 0.22862 0.0
C191 C 0.54793 0.32673 0.23066 0.0
C192 C 0.57115 0.3847 0.28551 0.0
C193 C 0.57769 0.40278 0.33792 0.0
C194 C 0.55193 0.3449 0.28229 0.0
C195 C 0.56242 0.3807 0.38665 0.0
C196 C 0.54263 0.34114 0.38365 0.0
H197 H 0.61159 0.18224 0.36591 0.0
H198 H 0.61627 0.18563 0.18458 0.0
H199 H 0.6856 0.21841 0.18856 0.0
H200 H 0.74438 0.25289 0.24375 0.0
H201 H 0.73929 0.25081 0.42512 0.0
H202 H 0.67044 0.21022 0.42099 0.0
C203 C 0.62776 0.18964 0.32721 0.0
C204 C 0.60892 0.18204 0.275 0.0
C205 C 0.66746 0.20894 0.32991 0.0
C206 C 0.63017 0.19133 0.22525 0.0
C207 C 0.66978 0.21024 0.22755 0.0
C208 C 0.72826 0.24305 0.2824 0.0
C209 C 0.7468 0.25523 0.3347 0.0
C210 C 0.68868 0.22025 0.27965 0.0
C211 C 0.72564 0.24198 0.38439 0.0
C212 C 0.68628 0.21892 0.38202 0.0
H213 H 0.44566 0.84126 0.59445 0.0
H214 H 0.43342 0.84837 0.77348 0.0
H215 H 0.46835 0.81454 0.79068 0.0
H216 H 0.49536 0.77647 0.75436 0.0
H217 H 0.50618 0.76817 0.5752 0.0
H218 H 0.47907 0.80934 0.55847 0.0
C219 C 0.45116 0.83595 0.63728 0.0
C220 C 0.43658 0.84685 0.68265 0.0
C221 C 0.47065 0.81598 0.64674 0.0
C222 C 0.44424 0.84014 0.73788 0.0
C223 C 0.46402 0.82061 0.74769 0.0
C224 C 0.49227 0.7841 0.71166 0.0
C225 C 0.50226 0.7689 0.66601 0.0
C226 C 0.47626 0.80737 0.70239 0.0
C227 C 0.49851 0.77934 0.61099 0.0
C228 C 0.48288 0.80276 0.60142 0.0
H229 H 0.25891 0.75459 0.72505 0.0
H230 H 0.27412 0.75899 0.54512 0.0
H231 H 0.23602 0.68978 0.54032 0.0
H232 H 0.2038 0.62811 0.5885 0.0
H233 H 0.18927 0.62376 0.76859 0.0
H234 H 0.22154 0.69308 0.77208 0.0
C235 C 0.25349 0.74043 0.68467 0.0
C236 C 0.2696 0.76177 0.63554 0.0
C237 C 0.23196 0.70073 0.68237 0.0
C238 C 0.26208 0.74314 0.5835 0.0
C239 C 0.24046 0.70359 0.5808 0.0
C240 C 0.20733 0.64233 0.62846 0.0
C241 C 0.19459 0.62092 0.67833 0.0
C242 C 0.22611 0.6821 0.63014 0.0
C243 C 0.19897 0.63965 0.72968 0.0
C244 C 0.21751 0.67926 0.73171 0.0
H245 H 0.27744 0.53222 0.75574 0.0
H246 H 0.27223 0.52707 0.57439 0.0
H247 H 0.34131 0.55736 0.57021 0.0
H248 H 0.40305 0.59159 0.61766 0.0
H249 H 0.4084 0.59843 0.79887 0.0
H250 H 0.33923 0.56079 0.8036 0.0
C251 C 0.29138 0.53716 0.71529 0.0
C252 C 0.26979 0.52778 0.66538 0.0
C253 C 0.33108 0.55518 0.71323 0.0
C254 C 0.28821 0.53413 0.61337 0.0
C255 C 0.32771 0.55162 0.61097 0.0
C256 C 0.38912 0.58443 0.65826 0.0
C257 C 0.41075 0.59815 0.70787 0.0
C258 C 0.34943 0.56327 0.66055 0.0
C259 C 0.39236 0.58834 0.76012 0.0
C260 C 0.35282 0.56694 0.7628 0.0
H261 H 0.06994 0.33082 0.94754 0.0
H262 H 0.02195 0.2528 0.80876 0.0
H263 H 0.04558 0.30611 0.74268 0.0
H264 H 0.08173 0.37468 0.7245 0.0
H265 H 0.127 0.45285 0.86355 0.0
H266 H 0.1022 0.39958 0.92983 0.0
C267 C 0.0647 0.32555 0.9028 0.0
C268 C 0.04472 0.28806 0.88277 0.0
C269 C 0.07774 0.35627 0.86537 0.0
C270 C 0.03742 0.28149 0.82495 0.0
C271 C 0.05094 0.31191 0.78726 0.0
C272 C 0.08599 0.38002 0.76937 0.0
C273 C 0.10641 0.41751 0.78927 0.0
C274 C 0.07139 0.34937 0.80701 0.0
C275 C 0.11134 0.42417 0.8474 0.0
C276 C 0.09733 0.39376 0.88519 0.0
H277 H 0.746 0.79728 0.87903 0.0
H278 H 0.67671 0.77431 0.02676 0.0
H279 H 0.61937 0.74282 0.9691 0.0
H280 H 0.58881 0.72176 0.87639 0.0
H281 H 0.65835 0.74804 0.72826 0.0
H282 H 0.71558 0.77819 0.78619 0.0
C283 C 0.71833 0.78534 0.89849 0.0
C284 C 0.71553 0.78797 0.95693 0.0
C285 C 0.6855 0.76785 0.86501 0.0
C286 C 0.67955 0.77271 0.98171 0.0
C287 C 0.64675 0.75463 0.94883 0.0
C288 C 0.61653 0.73404 0.85696 0.0
C289 C 0.61943 0.73259 0.79831 0.0
C290 C 0.64937 0.752 0.89042 0.0
C291 C 0.65545 0.74891 0.77343 0.0
C292 C 0.68818 0.7661 0.80648 0.0
H293 H 0.29952 0.89519 0.82094 0.0
H294 H 0.28378 0.94217 0.66683 0.0
H295 H 0.24787 0.9664 0.71707 0.0
H296 H 0.22101 0.97432 0.80508 0.0
H297 H 0.23335 0.92377 0.958 0.0
H298 H 0.27016 0.90058 0.90806 0.0
C299 C 0.28833 0.91089 0.79858 0.0
C300 C 0.29443 0.9172 0.74055 0.0
C301 C 0.26689 0.92386 0.82743 0.0
C302 C 0.27937 0.93703 0.71164 0.0
C303 C 0.25885 0.95087 0.74029 0.0
C304 C 0.23165 0.95809 0.82729 0.0
C305 C 0.22458 0.95082 0.88502 0.0
C306 C 0.25238 0.9444 0.79818 0.0
C307 C 0.23829 0.92958 0.91339 0.0
C308 C 0.2595 0.91645 0.88497 0.0
H309 H 0.36277 0.09025 0.23562 0.0
H310 H 0.43323 0.11866 0.08819 0.0
H311 H 0.37681 0.09252 0.02788 0.0
H312 H 0.30765 0.06248 0.01746 0.0
H313 H 0.23709 0.03088 0.16512 0.0
H314 H 0.29354 0.05748 0.22536 0.0
C315 C 0.36575 0.09073 0.19026 0.0
C316 C 0.40202 0.10661 0.1662 0.0
C317 C 0.33328 0.07519 0.15613 0.0
C318 C 0.40555 0.10659 0.10753 0.0
C319 C 0.37335 0.09175 0.07313 0.0
C320 C 0.30468 0.06153 0.06285 0.0
C321 C 0.2684 0.04515 0.087 0.0
C322 C 0.33712 0.07618 0.09701 0.0
C323 C 0.2648 0.04346 0.14574 0.0
C324 C 0.29701 0.05867 0.18009 0.0
H325 H 0.95014 0.27331 0.05462 0.0
H326 H -0.00357 0.23651 0.18872 0.0
H327 H 0.97298 0.26412 0.25826 0.0
H328 H 0.93658 0.29575 0.28077 0.0
H329 H 0.8925 0.33497 0.14681 0.0
H330 H 0.91821 0.30967 0.07696 0.0
C331 C 0.95516 0.27148 0.09909 0.0
C332 C 0.97451 0.25257 0.11678 0.0
C333 C 0.94205 0.28781 0.13861 0.0
C334 C 0.98147 0.25087 0.1743 0.0
C335 C 0.96802 0.26656 0.21398 0.0
C336 C 0.93283 0.29895 0.23624 0.0
C337 C 0.91241 0.31678 0.21875 0.0
C338 C 0.94788 0.28464 0.1966 0.0
C339 C 0.90814 0.32129 0.1611 0.0
C340 C 0.92267 0.3067 0.12126 0.0
H341 H 0.72261 0.64995 0.31726 0.0
H342 H 0.69158 0.57875 0.17003 0.0
H343 H 0.71828 0.63499 0.10948 0.0
H344 H 0.75054 0.70417 0.0987 0.0
H345 H 0.7783 0.77541 0.24545 0.0
H346 H 0.75256 0.71923 0.30626 0.0
C347 C 0.72184 0.64681 0.2719 0.0
C348 C 0.70551 0.6104 0.24798 0.0
C349 C 0.73651 0.67917 0.23749 0.0
C350 C 0.70408 0.60656 0.18925 0.0
C351 C 0.71935 0.63866 0.15471 0.0
C352 C 0.751 0.70739 0.14403 0.0
C353 C 0.76652 0.7438 0.16774 0.0
C354 C 0.73565 0.67505 0.17841 0.0
C355 C 0.76649 0.74761 0.22637 0.0
C356 C 0.75187 0.71555 0.26105 0.0
H357 H 0.05494 0.40833 0.56826 0.0
H358 H 0.07162 0.52138 0.55167 0.0
H359 H 0.01472 0.49746 0.49279 0.0
H360 H 0.96018 0.44431 0.44661 0.0
H361 H 0.93973 0.33029 0.47037 0.0
H362 H -0.00221 0.35438 0.5267 0.0
C363 C 0.04613 0.42759 0.55115 0.0
C364 C 0.06747 0.46651 0.56305 0.0
C365 C 0.01258 0.41339 0.5194 0.0
C366 C 0.05557 0.49132 0.5423 0.0
C367 C 0.02308 0.47766 0.50892 0.0
C368 C 0.9684 0.42478 0.46442 0.0
C369 C 0.94597 0.38569 0.45437 0.0
C370 C 0.00131 0.43875 0.49741 0.0
C371 C 0.95655 0.36052 0.47798 0.0
C372 C -0.01017 0.37429 0.50979 0.0
H373 H 0.62703 0.55425 0.5317 0.0
H374 H 0.58537 0.57762 0.37801 0.0
H375 H 0.55921 0.61074 0.43082 0.0
H376 H 0.54883 0.63383 0.52069 0.0
H377 H 0.58701 0.60718 0.67499 0.0
H378 H 0.61384 0.5746 0.62212 0.0
C379 C 0.61215 0.56655 0.50993 0.0
C380 C 0.60823 0.56367 0.45119 0.0
C381 C 0.59662 0.58502 0.54064 0.0
C382 C 0.58861 0.57939 0.42335 0.0
C383 C 0.57375 0.59844 0.45345 0.0
C384 C 0.56307 0.6209 0.5426 0.0
C385 C 0.5662 0.62304 0.60143 0.0
C386 C 0.57773 0.60157 0.51207 0.0
C387 C 0.58426 0.60581 0.62958 0.0
C388 C 0.59965 0.58725 0.59943 0.0
H389 H 0.38892 0.93549 0.46722 0.0
H390 H 0.42494 0.00871 0.61246 0.0
H391 H 0.45221 0.06459 0.55149 0.0
H392 H 0.46526 0.09267 0.45669 0.0
H393 H 0.43235 0.01943 0.31164 0.0
H394 H 0.40441 0.96355 0.3726 0.0
C395 C 0.40278 0.9637 0.48541 0.0
C396 C 0.4048 0.96805 0.54408 0.0
C397 C 0.41888 -0.00432 0.45016 0.0
C398 C 0.42313 0.0047 0.56729 0.0
C399 C 0.43863 0.03665 0.5325 0.0
C400 C 0.45189 0.06444 0.43858 0.0
C401 C 0.45061 0.06006 0.37994 0.0
C402 C 0.43654 0.03248 0.47388 0.0
C403 C 0.43368 0.02343 0.3568 0.0
C404 C 0.41766 0.99149 0.39157 0.0
loop_
_geom_bond_atom_site_label_1
_geom_bond_atom_site_label_2
_geom_bond_distance
_geom_bond_site_symmetry_2
_ccdc_geom_bond_type
In0 O1 2.294 1_554 S
In0 O2 2.326 1_554 S
In0 O6 2.266 1_454 S
In0 O7 2.326 1_455 S
In0 O8 2.266 . S
In0 O9 2.326 1_554 S
In0 O11 2.294 . S
In0 O12 2.326 1_455 S
O1 In0 2.294 1_556 S
O1 C10 1.240 . S
O2 In0 2.326 1_556 S
O2 C10 1.252 . S
C3 O6 1.252 1_554 S
C3 O7 1.260 . S
C4 O11 1.240 1_655 S
C4 O12 1.252 . S
C5 O8 1.252 . S
C5 O9 1.260 1_554 S
O6 In0 2.266 1_656 S
O6 C3 1.252 1_556 S
O7 In0 2.326 1_655 S
O7 C3 1.260 . S
O8 In0 2.266 . S
O8 C5 1.252 . S
O9 In0 2.326 1_556 S
O9 C5 1.260 1_556 S
C10 O1 1.240 . S
C10 O2 1.252 . S
O11 In0 2.294 . S
O11 C4 1.240 1_455 S
O12 In0 2.326 1_655 S
O12 C4 1.252 . S
In13 O14 2.294 1_554 S
In13 O15 2.326 1_554 S
In13 O19 2.266 1_554 S
In13 O20 2.326 . S
In13 O21 2.266 . S
In13 O22 2.326 1_554 S
In13 O24 2.294 . S
In13 O25 2.326 . S
O14 In13 2.294 1_556 S
O14 C23 1.240 . S
O15 In13 2.326 1_556 S
O15 C23 1.252 . S
C16 O19 1.252 1_554 S
C16 O20 1.260 . S
C17 O24 1.240 . S
C17 O25 1.252 . S
C18 O21 1.252 . S
C18 O22 1.260 1_554 S
O19 In13 2.266 1_556 S
O19 C16 1.252 1_556 S
O20 In13 2.326 . S
O20 C16 1.260 . S
O21 In13 2.266 . S
O21 C18 1.252 . S
O22 In13 2.326 1_556 S
O22 C18 1.260 1_556 S
C23 O14 1.240 . S
C23 O15 1.252 . S
O24 In13 2.294 . S
O24 C17 1.240 . S
O25 In13 2.326 . S
O25 C17 1.252 . S
In26 O27 2.294 . S
In26 O28 2.326 . S
In26 O32 2.266 1_545 S
In26 O33 2.326 1_544 S
In26 O34 2.266 1_554 S
In26 O35 2.326 . S
In26 O37 2.294 1_554 S
In26 O38 2.326 1_544 S
O27 In26 2.294 . S
O27 C36 1.240 . S
O28 In26 2.326 . S
O28 C36 1.252 . S
C29 O32 1.252 . S
C29 O33 1.260 1_554 S
C30 O37 1.240 1_565 S
C30 O38 1.252 . S
C31 O34 1.252 1_554 S
C31 O35 1.260 . S
O32 In26 2.266 1_565 S
O32 C29 1.252 . S
O33 In26 2.326 1_566 S
O33 C29 1.260 1_556 S
O34 In26 2.266 1_556 S
O34 C31 1.252 1_556 S
O35 In26 2.326 . S
O35 C31 1.260 . S
C36 O27 1.240 . S
C36 O28 1.252 . S
O37 In26 2.294 1_556 S
O37 C30 1.240 1_545 S
O38 In26 2.326 1_566 S
O38 C30 1.252 . S
In39 O40 2.294 . S
In39 O41 2.326 . S
In39 O45 2.266 . S
In39 O46 2.326 . S
In39 O47 2.266 . S
In39 O48 2.326 . S
In39 O50 2.294 . S
In39 O51 2.326 . S
O40 In39 2.294 . S
O40 C49 1.240 . S
O41 In39 2.326 . S
O41 C49 1.252 . S
C42 O45 1.252 . S
C42 O46 1.260 . S
C43 O50 1.240 . S
C43 O51 1.252 . S
C44 O47 1.252 . S
C44 O48 1.260 . S
O45 In39 2.266 . S
O45 C42 1.252 . S
O46 In39 2.326 . S
O46 C42 1.260 . S
O47 In39 2.266 . S
O47 C44 1.252 . S
O48 In39 2.326 . S
O48 C44 1.260 . S
C49 O40 1.240 . S
C49 O41 1.252 . S
O50 In39 2.294 . S
O50 C43 1.240 . S
O51 In39 2.326 . S
O51 C43 1.252 . S
In52 O53 2.294 . S
In52 O54 2.326 . S
In52 O58 2.266 . S
In52 O59 2.326 . S
In52 O60 2.266 . S
In52 O61 2.326 . S
In52 O63 2.294 . S
In52 O64 2.326 . S
O53 In52 2.294 . S
O53 C62 1.240 . S
O54 In52 2.326 . S
O54 C62 1.252 . S
C55 O58 1.252 . S
C55 O59 1.260 . S
C56 O63 1.240 . S
C56 O64 1.252 . S
C57 O60 1.252 . S
C57 O61 1.260 . S
O58 In52 2.266 . S
O58 C55 1.252 . S
O59 In52 2.326 . S
O59 C55 1.260 . S
O60 In52 2.266 . S
O60 C57 1.252 . S
O61 In52 2.326 . S
O61 C57 1.260 . S
C62 O53 1.240 . S
C62 O54 1.252 . S
O63 In52 2.294 . S
O63 C56 1.240 . S
O64 In52 2.326 . S
O64 C56 1.252 . S
In65 O66 2.294 . S
In65 O67 2.326 . S
In65 O71 2.266 . S
In65 O72 2.326 . S
In65 O73 2.266 . S
In65 O74 2.326 . S
In65 O76 2.294 . S
In65 O77 2.326 . S
O66 In65 2.294 . S
O66 C75 1.240 . S
O67 In65 2.326 . S
O67 C75 1.252 . S
C68 O71 1.252 . S
C68 O72 1.260 . S
C69 O76 1.240 . S
C69 O77 1.252 . S
C70 O73 1.252 . S
C70 O74 1.260 . S
O71 In65 2.266 . S
O71 C68 1.252 . S
O72 In65 2.326 . S
O72 C68 1.260 . S
O73 In65 2.266 . S
O73 C70 1.252 . S
O74 In65 2.326 . S
O74 C70 1.260 . S
C75 O66 1.240 . S
C75 O67 1.252 . S
O76 In65 2.294 . S
O76 C69 1.240 . S
O77 In65 2.326 . S
O77 C69 1.252 . S
In78 O79 2.294 . S
In78 O80 2.326 . S
In78 O84 2.266 . S
In78 O85 2.326 . S
In78 O86 2.266 . S
In78 O87 2.326 . S
In78 O89 2.294 . S
In78 O90 2.326 . S
O79 In78 2.294 . S
O79 C88 1.240 . S
O80 In78 2.326 . S
O80 C88 1.252 . S
C81 O84 1.252 . S
C81 O85 1.260 . S
C82 O89 1.240 . S
C82 O90 1.252 . S
C83 O86 1.252 . S
C83 O87 1.260 . S
O84 In78 2.266 . S
O84 C81 1.252 . S
O85 In78 2.326 . S
O85 C81 1.260 . S
O86 In78 2.266 . S
O86 C83 1.252 . S
O87 In78 2.326 . S
O87 C83 1.260 . S
C88 O79 1.240 . S
C88 O80 1.252 . S
O89 In78 2.294 . S
O89 C82 1.240 . S
O90 In78 2.326 . S
O90 C82 1.252 . S
In91 O92 2.294 . S
In91 O93 2.326 . S
In91 O97 2.266 . S
In91 O98 2.326 . S
In91 O99 2.266 . S
In91 O100 2.326 . S
In91 O102 2.294 . S
In91 O103 2.326 . S
O92 In91 2.294 . S
O92 C101 1.240 . S
O93 In91 2.326 . S
O93 C101 1.252 . S
C94 O97 1.252 . S
C94 O98 1.260 . S
C95 O102 1.240 . S
C95 O103 1.252 . S
C96 O99 1.252 . S
C96 O100 1.260 . S
O97 In91 2.266 . S
O97 C94 1.252 . S
O98 In91 2.326 . S
O98 C94 1.260 . S
O99 In91 2.266 . S
O99 C96 1.252 . S
O100 In91 2.326 . S
O100 C96 1.260 . S
C101 O92 1.240 . S
C101 O93 1.252 . S
O102 In91 2.294 . S
O102 C95 1.240 . S
O103 In91 2.326 . S
O103 C95 1.252 . S
In104 O105 2.294 . S
In104 O106 2.326 . S
In104 O110 2.266 . S
In104 O111 2.326 . S
In104 O112 2.266 . S
In104 O113 2.326 . S
In104 O115 2.294 . S
In104 O116 2.326 . S
O105 In104 2.294 . S
O105 C114 1.240 . S
O106 In104 2.326 . S
O106 C114 1.252 . S
C107 O110 1.252 . S
C107 O111 1.260 . S
C108 O115 1.240 . S
C108 O116 1.252 . S
C109 O112 1.252 . S
C109 O113 1.260 . S
O110 In104 2.266 . S
O110 C107 1.252 . S
O111 In104 2.326 . S
O111 C107 1.260 . S
O112 In104 2.266 . S
O112 C109 1.252 . S
O113 In104 2.326 . S
O113 C109 1.260 . S
C114 O105 1.240 . S
C114 O106 1.252 . S
O115 In104 2.294 . S
O115 C108 1.240 . S
O116 In104 2.326 . S
O116 C108 1.252 . S
H117 C123 0.930 . S
H118 C126 0.930 . S
H119 C127 0.930 . S
H120 C128 0.930 . S
H121 C131 0.930 1_556 S
H122 C132 0.930 . S
C123 H117 0.930 . S
C123 C124 1.355 1_556 S
C123 C125 1.415 1_556 S
C124 C123 1.355 1_554 S
C124 C126 1.419 . S
C125 C123 1.415 1_554 S
C125 C130 1.425 . S
C125 C132 1.409 1_554 S
C126 H118 0.930 . S
C126 C124 1.419 . S
C126 C127 1.362 . S
C127 H119 0.930 . S
C127 C126 1.362 . S
C127 C130 1.409 . S
C128 H120 0.930 . S
C128 C129 1.355 . S
C128 C130 1.415 . S
C129 C128 1.355 . S
C129 C131 1.419 . S
C130 C125 1.425 . S
C130 C127 1.409 . S
C130 C128 1.415 . S
C131 H121 0.930 1_554 S
C131 C129 1.419 . S
C131 C132 1.362 1_554 S
C132 H122 0.930 . S
C132 C125 1.409 1_556 S
C132 C131 1.362 1_556 S
H133 C139 0.930 1_556 S
H134 C142 0.930 . S
H135 C143 0.930 . S
H136 C144 0.930 . S
H137 C147 0.930 . S
H138 C148 0.930 . S
C139 H133 0.930 1_554 S
C139 C140 1.355 . S
C139 C141 1.415 1_565 S
C140 C139 1.355 . S
C140 C142 1.419 . S
C141 C139 1.415 1_545 S
C141 C146 1.425 . S
C141 C148 1.409 1_554 S
C142 H134 0.930 . S
C142 C140 1.419 . S
C142 C143 1.362 1_565 S
C143 H135 0.930 . S
C143 C142 1.362 1_545 S
C143 C146 1.409 . S
C144 H136 0.930 . S
C144 C145 1.355 . S
C144 C146 1.415 . S
C145 C144 1.355 . S
C145 C147 1.419 1_554 S
C146 C141 1.425 . S
C146 C143 1.409 . S
C146 C144 1.415 . S
C147 H137 0.930 . S
C147 C145 1.419 1_556 S
C147 C148 1.362 . S
C148 H138 0.930 . S
C148 C141 1.409 1_556 S
C148 C147 1.362 . S
H149 C155 0.930 . S
H150 C158 0.930 . S
H151 C159 0.930 . S
H152 C160 0.930 . S
H153 C163 0.930 . S
H154 C164 0.930 . S
C155 H149 0.930 . S
C155 C156 1.355 1_556 S
C155 C157 1.415 1_655 S
C156 C155 1.355 1_554 S
C156 C158 1.419 . S
C157 C155 1.415 1_455 S
C157 C162 1.425 1_556 S
C157 C164 1.409 . S
C158 H150 0.930 . S
C158 C156 1.419 . S
C158 C159 1.362 . S
C159 H151 0.930 . S
C159 C158 1.362 . S
C159 C162 1.409 1_655 S
C160 H152 0.930 . S
C160 C161 1.355 . S
C160 C162 1.415 . S
C161 C160 1.355 . S
C161 C163 1.419 1_554 S
C162 C157 1.425 1_554 S
C162 C159 1.409 1_455 S
C162 C160 1.415 . S
C163 H153 0.930 . S
C163 C161 1.419 1_556 S
C163 C164 1.362 . S
C164 H154 0.930 . S
C164 C157 1.409 . S
C164 C163 1.362 . S
H165 C171 0.930 . S
H166 C174 0.930 . S
H167 C175 0.930 . S
H168 C176 0.930 . S
H169 C179 0.930 . S
H170 C180 0.930 . S
C171 H165 0.930 . S
C171 C172 1.355 . S
C171 C173 1.415 . S
C172 C171 1.355 . S
C172 C174 1.419 . S
C173 C171 1.415 . S
C173 C178 1.425 . S
C173 C180 1.409 . S
C174 H166 0.930 . S
C174 C172 1.419 . S
C174 C175 1.362 . S
C175 H167 0.930 . S
C175 C174 1.362 . S
C175 C178 1.409 . S
C176 H168 0.930 . S
C176 C177 1.355 . S
C176 C178 1.415 . S
C177 C176 1.355 . S
C177 C179 1.419 . S
C178 C173 1.425 . S
C178 C175 1.409 . S
C178 C176 1.415 . S
C179 H169 0.930 . S
C179 C177 1.419 . S
C179 C180 1.362 . S
C180 H170 0.930 . S
C180 C173 1.409 . S
C180 C179 1.362 . S
H181 C187 0.930 . S
H182 C190 0.930 . S
H183 C191 0.930 . S
H184 C192 0.930 . S
H185 C195 0.930 . S
H186 C196 0.930 . S
C187 H181 0.930 . S
C187 C188 1.355 . S
C187 C189 1.415 . S
C188 C187 1.355 . S
C188 C190 1.419 . S
C189 C187 1.415 . S
C189 C194 1.425 . S
C189 C196 1.409 . S
C190 H182 0.930 . S
C190 C188 1.419 . S
C190 C191 1.362 . S
C191 H183 0.930 . S
C191 C190 1.362 . S
C191 C194 1.409 . S
C192 H184 0.930 . S
C192 C193 1.355 . S
C192 C194 1.415 . S
C193 C192 1.355 . S
C193 C195 1.419 . S
C194 C189 1.425 . S
C194 C191 1.409 . S
C194 C192 1.415 . S
C195 H185 0.930 . S
C195 C193 1.419 . S
C195 C196 1.362 . S
C196 H186 0.930 . S
C196 C189 1.409 . S
C196 C195 1.362 . S
H197 C203 0.930 . S
H198 C206 0.930 . S
H199 C207 0.930 . S
H200 C208 0.930 . S
H201 C211 0.930 . S
H202 C212 0.930 . S
C203 H197 0.930 . S
C203 C204 1.355 . S
C203 C205 1.415 . S
C204 C203 1.355 . S
C204 C206 1.419 . S
C205 C203 1.415 . S
C205 C210 1.425 . S
C205 C212 1.409 . S
C206 H198 0.930 . S
C206 C204 1.419 . S
C206 C207 1.362 . S
C207 H199 0.930 . S
C207 C206 1.362 . S
C207 C210 1.409 . S
C208 H200 0.930 . S
C208 C209 1.355 . S
C208 C210 1.415 . S
C209 C208 1.355 . S
C209 C211 1.419 . S
C210 C205 1.425 . S
C210 C207 1.409 . S
C210 C208 1.415 . S
C211 H201 0.930 . S
C211 C209 1.419 . S
C211 C212 1.362 . S
C212 H202 0.930 . S
C212 C205 1.409 . S
C212 C211 1.362 . S
H213 C219 0.930 . S
H214 C222 0.930 . S
H215 C223 0.930 . S
H216 C224 0.930 . S
H217 C227 0.930 . S
H218 C228 0.930 . S
C219 H213 0.930 . S
C219 C220 1.355 . S
C219 C221 1.415 . S
C220 C219 1.355 . S
C220 C222 1.419 . S
C221 C219 1.415 . S
C221 C226 1.425 . S
C221 C228 1.409 . S
C222 H214 0.930 . S
C222 C220 1.419 . S
C222 C223 1.362 . S
C223 H215 0.930 . S
C223 C222 1.362 . S
C223 C226 1.409 . S
C224 H216 0.930 . S
C224 C225 1.355 . S
C224 C226 1.415 . S
C225 C224 1.355 . S
C225 C227 1.419 . S
C226 C221 1.425 . S
C226 C223 1.409 . S
C226 C224 1.415 . S
C227 H217 0.930 . S
C227 C225 1.419 . S
C227 C228 1.362 . S
C228 H218 0.930 . S
C228 C221 1.409 . S
C228 C227 1.362 . S
H229 C235 0.930 . S
H230 C238 0.930 . S
H231 C239 0.930 . S
H232 C240 0.930 . S
H233 C243 0.930 . S
H234 C244 0.930 . S
C235 H229 0.930 . S
C235 C236 1.355 . S
C235 C237 1.415 . S
C236 C235 1.355 . S
C236 C238 1.419 . S
C237 C235 1.415 . S
C237 C242 1.425 . S
C237 C244 1.409 . S
C238 H230 0.930 . S
C238 C236 1.419 . S
C238 C239 1.362 . S
C239 H231 0.930 . S
C239 C238 1.362 . S
C239 C242 1.409 . S
C240 H232 0.930 . S
C240 C241 1.355 . S
C240 C242 1.415 . S
C241 C240 1.355 . S
C241 C243 1.419 . S
C242 C237 1.425 . S
C242 C239 1.409 . S
C242 C240 1.415 . S
C243 H233 0.930 . S
C243 C241 1.419 . S
C243 C244 1.362 . S
C244 H234 0.930 . S
C244 C237 1.409 . S
C244 C243 1.362 . S
H245 C251 0.930 . S
H246 C254 0.930 . S
H247 C255 0.930 . S
H248 C256 0.930 . S
H249 C259 0.930 . S
H250 C260 0.930 . S
C251 H245 0.930 . S
C251 C252 1.355 . S
C251 C253 1.415 . S
C252 C251 1.355 . S
C252 C254 1.419 . S
C253 C251 1.415 . S
C253 C258 1.425 . S
C253 C260 1.409 . S
C254 H246 0.930 . S
C254 C252 1.419 . S
C254 C255 1.362 . S
C255 H247 0.930 . S
C255 C254 1.362 . S
C255 C258 1.409 . S
C256 H248 0.930 . S
C256 C257 1.355 . S
C256 C258 1.415 . S
C257 C256 1.355 . S
C257 C259 1.419 . S
C258 C253 1.425 . S
C258 C255 1.409 . S
C258 C256 1.415 . S
C259 H249 0.930 . S
C259 C257 1.419 . S
C259 C260 1.362 . S
C260 H250 0.930 . S
C260 C253 1.409 . S
C260 C259 1.362 . S
H261 C267 0.930 . S
H262 C270 0.930 . S
H263 C271 0.930 . S
H264 C272 0.930 . S
H265 C275 0.930 . S
H266 C276 0.930 . S
C267 H261 0.930 . S
C267 C268 1.355 . S
C267 C269 1.415 . S
C268 C267 1.355 . S
C268 C270 1.419 . S
C269 C267 1.415 . S
C269 C274 1.425 . S
C269 C276 1.409 . S
C270 H262 0.930 . S
C270 C268 1.419 . S
C270 C271 1.362 . S
C271 H263 0.930 . S
C271 C270 1.362 . S
C271 C274 1.409 . S
C272 H264 0.930 . S
C272 C273 1.355 . S
C272 C274 1.415 . S
C273 C272 1.355 . S
C273 C275 1.419 . S
C274 C269 1.425 . S
C274 C271 1.409 . S
C274 C272 1.415 . S
C275 H265 0.930 . S
C275 C273 1.419 . S
C275 C276 1.362 . S
C276 H266 0.930 . S
C276 C269 1.409 . S
C276 C275 1.362 . S
H277 C283 0.930 . S
H278 C286 0.930 . S
H279 C287 0.930 . S
H280 C288 0.930 . S
H281 C291 0.930 . S
H282 C292 0.930 . S
C283 H277 0.930 . S
C283 C284 1.355 . S
C283 C285 1.415 . S
C284 C283 1.355 . S
C284 C286 1.419 . S
C285 C283 1.415 . S
C285 C290 1.425 . S
C285 C292 1.409 . S
C286 H278 0.930 . S
C286 C284 1.419 . S
C286 C287 1.362 . S
C287 H279 0.930 . S
C287 C286 1.362 . S
C287 C290 1.409 . S
C288 H280 0.930 . S
C288 C289 1.355 . S
C288 C290 1.415 . S
C289 C288 1.355 . S
C289 C291 1.419 . S
C290 C285 1.425 . S
C290 C287 1.409 . S
C290 C288 1.415 . S
C291 H281 0.930 . S
C291 C289 1.419 . S
C291 C292 1.362 . S
C292 H282 0.930 . S
C292 C285 1.409 . S
C292 C291 1.362 . S
H293 C299 0.930 . S
H294 C302 0.930 . S
H295 C303 0.930 . S
H296 C304 0.930 1_545 S
H297 C307 0.930 . S
H298 C308 0.930 . S
C299 H293 0.930 . S
C299 C300 1.355 . S
C299 C301 1.415 . S
C300 C299 1.355 . S
C300 C302 1.419 . S
C301 C299 1.415 . S
C301 C306 1.425 . S
C301 C308 1.409 . S
C302 H294 0.930 . S
C302 C300 1.419 . S
C302 C303 1.362 . S
C303 H295 0.930 . S
C303 C302 1.362 . S
C303 C306 1.409 . S
C304 H296 0.930 1_565 S
C304 C305 1.355 . S
C304 C306 1.415 . S
C305 C304 1.355 . S
C305 C307 1.419 . S
C306 C301 1.425 . S
C306 C303 1.409 . S
C306 C304 1.415 . S
C307 H297 0.930 . S
C307 C305 1.419 . S
C307 C308 1.362 . S
C308 H298 0.930 . S
C308 C301 1.409 . S
C308 C307 1.362 . S
H309 C315 0.930 . S
H310 C318 0.930 . S
H311 C319 0.930 . S
H312 C320 0.930 . S
H313 C323 0.930 . S
H314 C324 0.930 . S
C315 H309 0.930 . S
C315 C316 1.355 . S
C315 C317 1.415 . S
C316 C315 1.355 . S
C316 C318 1.419 . S
C317 C315 1.415 . S
C317 C322 1.425 . S
C317 C324 1.409 . S
C318 H310 0.930 . S
C318 C316 1.419 . S
C318 C319 1.362 . S
C319 H311 0.930 . S
C319 C318 1.362 . S
C319 C322 1.409 . S
C320 H312 0.930 . S
C320 C321 1.355 . S
C320 C322 1.415 . S
C321 C320 1.355 . S
C321 C323 1.419 . S
C322 C317 1.425 . S
C322 C319 1.409 . S
C322 C320 1.415 . S
C323 H313 0.930 . S
C323 C321 1.419 . S
C323 C324 1.362 . S
C324 H314 0.930 . S
C324 C317 1.409 . S
C324 C323 1.362 . S
H325 C331 0.930 . S
H326 C334 0.930 . S
H327 C335 0.930 1_455 S
H328 C336 0.930 . S
H329 C339 0.930 . S
H330 C340 0.930 . S
C331 H325 0.930 . S
C331 C332 1.355 . S
C331 C333 1.415 . S
C332 C331 1.355 . S
C332 C334 1.419 1_655 S
C333 C331 1.415 . S
C333 C338 1.425 . S
C333 C340 1.409 . S
C334 H326 0.930 . S
C334 C332 1.419 1_455 S
C334 C335 1.362 1_455 S
C335 H327 0.930 1_655 S
C335 C334 1.362 1_655 S
C335 C338 1.409 . S
C336 H328 0.930 . S
C336 C337 1.355 . S
C336 C338 1.415 . S
C337 C336 1.355 . S
C337 C339 1.419 . S
C338 C333 1.425 . S
C338 C335 1.409 . S
C338 C336 1.415 . S
C339 H329 0.930 . S
C339 C337 1.419 . S
C339 C340 1.362 . S
C340 H330 0.930 . S
C340 C333 1.409 . S
C340 C339 1.362 . S
H341 C347 0.930 . S
H342 C350 0.930 . S
H343 C351 0.930 . S
H344 C352 0.930 . S
H345 C355 0.930 . S
H346 C356 0.930 . S
C347 H341 0.930 . S
C347 C348 1.355 . S
C347 C349 1.415 . S
C348 C347 1.355 . S
C348 C350 1.419 . S
C349 C347 1.415 . S
C349 C354 1.425 . S
C349 C356 1.409 . S
C350 H342 0.930 . S
C350 C348 1.419 . S
C350 C351 1.362 . S
C351 H343 0.930 . S
C351 C350 1.362 . S
C351 C354 1.409 . S
C352 H344 0.930 . S
C352 C353 1.355 . S
C352 C354 1.415 . S
C353 C352 1.355 . S
C353 C355 1.419 . S
C354 C349 1.425 . S
C354 C351 1.409 . S
C354 C352 1.415 . S
C355 H345 0.930 . S
C355 C353 1.419 . S
C355 C356 1.362 . S
C356 H346 0.930 . S
C356 C349 1.409 . S
C356 C355 1.362 . S
H357 C363 0.930 . S
H358 C366 0.930 . S
H359 C367 0.930 . S
H360 C368 0.930 . S
H361 C371 0.930 . S
H362 C372 0.930 . S
C363 H357 0.930 . S
C363 C364 1.355 . S
C363 C365 1.415 . S
C364 C363 1.355 . S
C364 C366 1.419 . S
C365 C363 1.415 . S
C365 C370 1.425 . S
C365 C372 1.409 . S
C366 H358 0.930 . S
C366 C364 1.419 . S
C366 C367 1.362 . S
C367 H359 0.930 . S
C367 C366 1.362 . S
C367 C370 1.409 . S
C368 H360 0.930 . S
C368 C369 1.355 . S
C368 C370 1.415 1_655 S
C369 C368 1.355 . S
C369 C371 1.419 . S
C370 C365 1.425 . S
C370 C367 1.409 . S
C370 C368 1.415 1_455 S
C371 H361 0.930 . S
C371 C369 1.419 . S
C371 C372 1.362 1_655 S
C372 H362 0.930 . S
C372 C365 1.409 . S
C372 C371 1.362 1_455 S
H373 C379 0.930 . S
H374 C382 0.930 . S
H375 C383 0.930 . S
H376 C384 0.930 . S
H377 C387 0.930 . S
H378 C388 0.930 . S
C379 H373 0.930 . S
C379 C380 1.355 . S
C379 C381 1.415 . S
C380 C379 1.355 . S
C380 C382 1.419 . S
C381 C379 1.415 . S
C381 C386 1.425 . S
C381 C388 1.409 . S
C382 H374 0.930 . S
C382 C380 1.419 . S
C382 C383 1.362 . S
C383 H375 0.930 . S
C383 C382 1.362 . S
C383 C386 1.409 . S
C384 H376 0.930 . S
C384 C385 1.355 . S
C384 C386 1.415 . S
C385 C384 1.355 . S
C385 C387 1.419 . S
C386 C381 1.425 . S
C386 C383 1.409 . S
C386 C384 1.415 . S
C387 H377 0.930 . S
C387 C385 1.419 . S
C387 C388 1.362 . S
C388 H378 0.930 . S
C388 C381 1.409 . S
C388 C387 1.362 . S
H389 C395 0.930 . S
H390 C398 0.930 . S
H391 C399 0.930 . S
H392 C400 0.930 . S
H393 C403 0.930 . S
H394 C404 0.930 1_565 S
C395 H389 0.930 . S
C395 C396 1.355 . S
C395 C397 1.415 1_565 S
C396 C395 1.355 . S
C396 C398 1.419 . S
C397 C395 1.415 1_545 S
C397 C402 1.425 . S
C397 C404 1.409 . S
C398 H390 0.930 . S
C398 C396 1.419 . S
C398 C399 1.362 1_565 S
C399 H391 0.930 . S
C399 C398 1.362 1_545 S
C399 C402 1.409 . S
C400 H392 0.930 . S
C400 C401 1.355 . S
C400 C402 1.415 . S
C401 C400 1.355 . S
C401 C403 1.419 . S
C402 C397 1.425 . S
C402 C399 1.409 . S
C402 C400 1.415 . S
C403 H393 0.930 . S
C403 C401 1.419 . S
C403 C404 1.362 . S
C404 H394 0.930 1_545 S
C404 C397 1.409 . S
C404 C403 1.362 . S
C124 C31 1.190 . S
C129 C5 1.144 . S
C140 C18 1.194 . S
C145 C3 1.164 . S
C156 C16 1.173 . S
C161 C29 1.140 . S
C172 C70 1.194 . S
C177 C44 1.150 . S
C188 C57 1.174 . S
C193 C42 1.140 . S
C204 C55 1.191 . S
C209 C68 1.170 . S
C220 C83 1.173 . S
C225 C109 1.190 . S
C236 C81 1.144 . S
C241 C96 1.190 . S
C252 C94 1.195 . S
C257 C107 1.154 . S
C268 C10 1.429 . S
C273 C95 1.429 . S
C284 C23 1.418 . S
C289 C114 1.419 . S
C300 C82 1.418 . S
C305 C30 1.417 . S
C316 C62 1.424 . S
C321 C36 1.423 . S
C332 C4 1.425 . S
C337 C69 1.424 . S
C348 C49 1.428 . S
C353 C17 1.428 . S
C364 C101 1.422 . S
C369 C75 1.424 . S
C380 C43 1.418 . S
C385 C108 1.418 . S
C396 C88 1.418 . S
C401 C56 1.418 . S
