# Generated by pormake.
# Topology npo, (4)-cn, num edge types: 1
# Building blocks:
#     Node 0, Type 0, BuildingBlock: GALJAG_clean_sbu_0, # of connection points: 4
#     Node 1, Type 0, BuildingBlock: GALJAG_clean_sbu_0, # of connection points: 4
#     Node 2, Type 0, BuildingBlock: GALJAG_clean_sbu_0, # of connection points: 4
#     Node 3, Type 0, BuildingBlock: GALJAG_clean_sbu_0, # of connection points: 4
#     Node 4, Type 0, BuildingBlock: GALJAG_clean_sbu_0, # of connection points: 4
#     Node 5, Type 0, BuildingBlock: GALJAG_clean_sbu_0, # of connection points: 4
#     Edge 6, Type (0, 0), BuildingBlock: FUNLAD_clean_linker_1, # of connection points: 2
#     Edge 7, Type (0, 0), BuildingBlock: FUNLAD_clean_linker_1, # of connection points: 2
#     Edge 8, Type (0, 0), BuildingBlock: FUNLAD_clean_linker_1, # of connection points: 2
#     Edge 9, Type (0, 0), BuildingBlock: FUNLAD_clean_linker_1, # of connection points: 2
#     Edge 10, Type (0, 0), BuildingBlock: FUNLAD_clean_linker_1, # of connection points: 2
#     Edge 11, Type (0, 0), BuildingBlock: FUNLAD_clean_linker_1, # of connection points: 2
#     Edge 12, Type (0, 0), BuildingBlock: FUNLAD_clean_linker_1, # of connection points: 2
#     Edge 13, Type (0, 0), BuildingBlock: FUNLAD_clean_linker_1, # of connection points: 2
#     Edge 14, Type (0, 0), BuildingBlock: FUNLAD_clean_linker_1, # of connection points: 2
#     Edge 15, Type (0, 0), BuildingBlock: FUNLAD_clean_linker_1, # of connection points: 2
#     Edge 16, Type (0, 0), BuildingBlock: FUNLAD_clean_linker_1, # of connection points: 2
#     Edge 17, Type (0, 0), BuildingBlock: FUNLAD_clean_linker_1, # of connection points: 2
# Relax obj value: 0.168
# Max RMSD: 0.203
# Mean RMSD: 0.203
data_MOF--net-npo--node1-GALJAG_clean_sbu_0--edge1-FUNLAD_clean_linker_1
_symmetry_space_group_name_H-M    P1
_symmetry_Int_Tables_number       1
_symmetry_cell_setting            triclinic
loop_
_symmetry_equiv_pos_as_xyz
'x, y, z'
_cell_length_a     49.016568
_cell_length_b     48.861719
_cell_length_c     22.535562
_cell_angle_alpha  90.151336
_cell_angle_beta   89.5797
_cell_angle_gamma 120.10503
loop_
_atom_site_label
_atom_site_type_symbol
_atom_site_fract_x
_atom_site_fract_y
_atom_site_fract_z
_atom_type_partial_charge
In0 In 0.56076 0.12631 0.23603 0.0
O1 O 0.52591 0.08784 0.17379 0.0
O2 O 0.57461 0.1104 0.1515 0.0
C3 C 0.53701 0.1654 0.23101 0.0
C4 C 0.53837 0.08976 0.33414 0.0
C5 C 0.62358 0.16532 0.23886 0.0
O6 O 0.52543 0.14016 0.20122 0.0
O7 O 0.55998 0.17051 0.26331 0.0
O8 O 0.60995 0.14108 0.27149 0.0
O9 O 0.60569 0.16945 0.2047 0.0
C10 C 0.54686 0.0898 0.13838 0.0
O11 O 0.5528 0.08438 0.29342 0.0
O12 O 0.53562 0.11371 0.32604 0.0
In13 In 0.42505 0.55436 0.74276 0.0
O14 O 0.4304 0.52918 0.66244 0.0
O15 O 0.47085 0.57176 0.69031 0.0
C16 C 0.36385 0.53472 0.72398 0.0
C17 C 0.43513 0.52052 0.82433 0.0
C18 C 0.44144 0.61417 0.77126 0.0
O19 O 0.38367 0.54321 0.68217 0.0
O20 O 0.37464 0.53519 0.77484 0.0
O21 O 0.43546 0.5933 0.80994 0.0
O22 O 0.44005 0.6052 0.71822 0.0
C23 C 0.45928 0.54884 0.6546 0.0
O24 O 0.45256 0.55007 0.81899 0.0
O25 O 0.41224 0.5079 0.78903 0.0
In26 In 0.87117 0.44172 0.26277 0.0
O27 O 0.88952 0.44607 0.1678 0.0
O28 O 0.91606 0.48393 0.22759 0.0
C29 C 0.82271 0.38191 0.25998 0.0
C30 C 0.90804 0.43891 0.3472 0.0
C31 C 0.8383 0.47201 0.27199 0.0
O32 O 0.84569 0.39164 0.22422 0.0
O33 O 0.8243 0.4021 0.29672 0.0
O34 O 0.85258 0.46885 0.31543 0.0
O35 O 0.84152 0.46089 0.22346 0.0
C36 C 0.91378 0.4727 0.17636 0.0
O37 O 0.89943 0.4593 0.34762 0.0
O38 O 0.89752 0.41946 0.305 0.0
In39 In 0.42955 0.86943 0.73731 0.0
O40 O 0.4194 0.89046 0.81872 0.0
O41 O 0.46748 0.907 0.79693 0.0
C42 C 0.36836 0.82876 0.71394 0.0
C43 C 0.44947 0.90762 0.64133 0.0
C44 C 0.45019 0.82914 0.76389 0.0
O45 O 0.37703 0.84916 0.75454 0.0
O46 O 0.39044 0.8295 0.68374 0.0
O47 O 0.46434 0.85153 0.72749 0.0
O48 O 0.42642 0.82781 0.78872 0.0
C49 C 0.44792 0.90869 0.83125 0.0
O50 O 0.45519 0.88547 0.6484 0.0
O51 O 0.43328 0.9104 0.6821 0.0
In52 In 0.56575 0.44211 0.23795 0.0
O53 O 0.56552 0.48052 0.18132 0.0
O54 O 0.53387 0.43269 0.15812 0.0
C55 C 0.62869 0.46936 0.24612 0.0
C56 C 0.54009 0.45508 0.33231 0.0
C57 C 0.5525 0.38181 0.22551 0.0
O58 O 0.61539 0.47291 0.20151 0.0
O59 O 0.61031 0.45266 0.28742 0.0
O60 O 0.53994 0.39001 0.26557 0.0
O61 O 0.57142 0.40377 0.1918 0.0
C62 C 0.54424 0.46152 0.14708 0.0
O63 O 0.52449 0.43142 0.29952 0.0
O64 O 0.5688 0.472 0.31839 0.0
In65 In 0.11737 0.56304 0.74386 0.0
O66 O 0.09901 0.55109 0.83963 0.0
O67 O 0.06905 0.55327 0.7746 0.0
C68 C 0.1561 0.53919 0.74753 0.0
C69 C 0.08671 0.5356 0.64353 0.0
C70 C 0.15506 0.6265 0.74987 0.0
O71 O 0.13528 0.53285 0.78689 0.0
O72 O 0.15685 0.55688 0.70604 0.0
O73 O 0.12801 0.61388 0.72737 0.0
O74 O 0.16261 0.60734 0.77051 0.0
C75 C 0.07259 0.54824 0.82783 0.0
O76 O 0.10401 0.56517 0.64829 0.0
O77 O 0.08545 0.51985 0.68879 0.0
H78 H 0.50316 0.18055 0.20465 0.0
C79 C 0.52525 0.18776 0.22724 0.0
H80 H 0.56404 0.22398 0.27269 0.0
H81 H 0.51099 0.30778 0.13558 0.0
H82 H 0.51718 0.28601 0.04273 0.0
H83 H 0.53207 0.24468 0.04244 0.0
H84 H 0.53972 0.22416 0.13447 0.0
C85 C 0.54219 0.21713 0.24936 0.0
C86 C 0.5316 0.24079 0.24746 0.0
C87 C 0.52881 0.25347 0.19272 0.0
C88 C 0.52249 0.27887 0.19267 0.0
C89 C 0.51757 0.28972 0.13779 0.0
C90 C 0.52079 0.27726 0.0843 0.0
C91 C 0.52902 0.2539 0.08416 0.0
C92 C 0.5331 0.24211 0.13754 0.0
H93 H 0.56465 0.34664 0.19464 0.0
C94 C 0.54747 0.34965 0.2203 0.0
H95 H 0.50623 0.32761 0.27287 0.0
H96 H 0.53051 0.21868 0.35942 0.0
H97 H 0.5249 0.24104 0.4518 0.0
H98 H 0.5182 0.28781 0.45168 0.0
H99 H 0.51664 0.31221 0.35944 0.0
C100 C 0.52332 0.32457 0.24703 0.0
C101 C 0.52166 0.29325 0.24695 0.0
C102 C 0.52251 0.27935 0.30154 0.0
C103 C 0.52715 0.25287 0.30169 0.0
C104 C 0.52772 0.23925 0.35678 0.0
C105 C 0.52441 0.25177 0.41014 0.0
C106 C 0.52059 0.27806 0.41007 0.0
C107 C 0.51972 0.29184 0.35661 0.0
H108 H 0.32437 0.52945 0.66946 0.0
C109 C 0.33159 0.52846 0.71454 0.0
H110 H 0.3205 0.52655 0.80571 0.0
H111 H 0.24189 0.59467 0.75608 0.0
H112 H 0.2899 0.63808 0.79658 0.0
H113 H 0.33585 0.63184 0.81709 0.0
H114 H 0.33427 0.58237 0.79635 0.0
C115 C 0.31278 0.52579 0.76034 0.0
C116 C 0.28437 0.52853 0.7507 0.0
C117 C 0.28576 0.55764 0.76326 0.0
C118 C 0.2593 0.56122 0.75149 0.0
C119 C 0.26135 0.59065 0.76399 0.0
C120 C 0.28875 0.61577 0.78736 0.0
C121 C 0.31462 0.61226 0.79889 0.0
C122 C 0.31335 0.58368 0.78684 0.0
H123 H 0.17821 0.51469 0.79065 0.0
C124 C 0.17963 0.52908 0.75275 0.0
H125 H 0.20662 0.5555 0.67879 0.0
H126 H 0.27364 0.46921 0.72505 0.0
H127 H 0.2256 0.42571 0.68426 0.0
H128 H 0.17986 0.43214 0.66248 0.0
H129 H 0.18178 0.48203 0.68158 0.0
C130 C 0.20423 0.53986 0.71516 0.0
C131 C 0.23145 0.53555 0.72789 0.0
C132 C 0.22992 0.50632 0.71604 0.0
C133 C 0.25644 0.50277 0.72768 0.0
C134 C 0.25429 0.47327 0.71613 0.0
C135 C 0.22685 0.44811 0.69291 0.0
C136 C 0.20107 0.45172 0.68073 0.0
C137 C 0.20245 0.48044 0.69202 0.0
H138 H 0.67256 0.18121 0.2661 0.0
C139 C 0.65762 0.18793 0.24226 0.0
H140 H 0.65471 0.22359 0.19529 0.0
H141 H 0.7895 0.3067 0.34071 0.0
H142 H 0.76008 0.28362 0.43181 0.0
H143 H 0.7038 0.24261 0.42871 0.0
H144 H 0.67705 0.22365 0.3351 0.0
C145 C 0.66978 0.21717 0.21956 0.0
C146 C 0.70377 0.24148 0.22342 0.0
C147 C 0.7183 0.25342 0.27917 0.0
C148 C 0.74997 0.27881 0.28123 0.0
C149 C 0.76489 0.28875 0.33702 0.0
C150 C 0.74838 0.27554 0.38952 0.0
C151 C 0.71675 0.25234 0.38775 0.0
C152 C 0.70174 0.24141 0.33343 0.0
H153 H 0.77413 0.34604 0.2821 0.0
C154 C 0.79522 0.34989 0.25857 0.0
H155 H 0.81623 0.32938 0.20661 0.0
H156 H 0.68459 0.22141 0.10978 0.0
H157 H 0.71386 0.24571 0.01935 0.0
H158 H 0.76712 0.29271 0.02323 0.0
H159 H 0.79159 0.3154 0.11745 0.0
C160 C 0.79531 0.32568 0.23047 0.0
C161 C 0.76594 0.29419 0.22805 0.0
C162 C 0.75207 0.28129 0.17247 0.0
C163 C 0.72108 0.25466 0.17022 0.0
C164 C 0.70781 0.24204 0.1141 0.0
C165 C 0.72439 0.25567 0.06181 0.0
C166 C 0.75439 0.2821 0.06401 0.0
C167 C 0.76817 0.2949 0.11851 0.0
H168 H 0.47695 0.80536 0.74161 0.0
C169 C 0.45814 0.80399 0.76962 0.0
H170 H 0.42034 0.77566 0.82736 0.0
H171 H 0.3937 0.64814 0.70787 0.0
H172 H 0.34703 0.65055 0.68232 0.0
H173 H 0.34307 0.69773 0.7061 0.0
H174 H 0.38579 0.74283 0.75525 0.0
C175 C 0.44001 0.77767 0.80128 0.0
C176 C 0.44192 0.74861 0.79109 0.0
C177 C 0.41663 0.72244 0.76217 0.0
C178 C 0.41905 0.69542 0.74775 0.0
C179 C 0.39338 0.66952 0.71911 0.0
C180 C 0.36637 0.67053 0.70426 0.0
C181 C 0.36412 0.69707 0.71773 0.0
C182 C 0.38887 0.7228 0.74617 0.0
H183 H 0.4458 0.65083 0.83396 0.0
C184 C 0.44657 0.64559 0.78727 0.0
H185 H 0.44822 0.66061 0.699 0.0
H186 H 0.49291 0.79305 0.85285 0.0
H187 H 0.54015 0.79112 0.87665 0.0
H188 H 0.54553 0.7454 0.84695 0.0
H189 H 0.50356 0.70117 0.79397 0.0
C190 C 0.44897 0.66635 0.74582 0.0
C191 C 0.44676 0.69464 0.76213 0.0
C192 C 0.47187 0.72058 0.7918 0.0
C193 C 0.46923 0.74742 0.8071 0.0
C194 C 0.49414 0.77255 0.83853 0.0
C195 C 0.52129 0.77165 0.85276 0.0
C196 C 0.52428 0.74587 0.83619 0.0
C197 C 0.49995 0.72057 0.80602 0.0
H198 H 0.67614 0.4922 0.20612 0.0
C199 C 0.66266 0.48051 0.24591 0.0
H200 H 0.66241 0.45974 0.32796 0.0
H201 H 0.75924 0.42005 0.23494 0.0
H202 H 0.71084 0.36947 0.24007 0.0
H203 H 0.66007 0.36646 0.26249 0.0
H204 H 0.65747 0.414 0.28036 0.0
C205 C 0.67614 0.47277 0.2893 0.0
C206 C 0.70716 0.47505 0.27905 0.0
C207 C 0.70816 0.44694 0.26866 0.0
C208 C 0.7373 0.44869 0.25488 0.0
C209 C 0.7377 0.42021 0.24495 0.0
C210 C 0.71007 0.39095 0.24784 0.0
C211 C 0.68151 0.38925 0.26053 0.0
C212 C 0.68039 0.4168 0.27079 0.0
H213 H 0.81206 0.48937 0.32461 0.0
C214 C 0.81551 0.48294 0.28012 0.0
H215 H 0.79769 0.47156 0.19317 0.0
H216 H 0.7136 0.53308 0.30106 0.0
H217 H 0.7621 0.58387 0.29516 0.0
H218 H 0.81252 0.58699 0.26858 0.0
H219 H 0.8148 0.53931 0.24807 0.0
C220 C 0.79545 0.4797 0.2369 0.0
C221 C 0.76535 0.47855 0.25154 0.0
C222 C 0.76445 0.50662 0.26271 0.0
C223 C 0.73529 0.50486 0.27687 0.0
C224 C 0.73504 0.53317 0.28891 0.0
C225 C 0.76271 0.56244 0.28592 0.0
C226 C 0.79112 0.56419 0.27106 0.0
C227 C 0.79213 0.53667 0.25953 0.0
H228 H 0.33112 0.78376 0.67769 0.0
C229 C 0.3356 0.80304 0.70764 0.0
H230 H 0.31704 0.81952 0.77436 0.0
H231 H 0.20252 0.68574 0.64628 0.0
H232 H 0.21307 0.71693 0.55698 0.0
H233 H 0.25424 0.77332 0.55508 0.0
H234 H 0.28569 0.79853 0.64254 0.0
C235 C 0.31239 0.8007 0.74314 0.0
C236 C 0.28232 0.77008 0.74867 0.0
C237 C 0.26275 0.7563 0.69864 0.0
C238 C 0.23782 0.72431 0.70089 0.0
C239 C 0.22065 0.71034 0.6484 0.0
C240 C 0.22664 0.72795 0.59649 0.0
C241 C 0.2499 0.75965 0.59533 0.0
C242 C 0.26788 0.77377 0.64564 0.0
H243 H 0.16795 0.67654 0.73827 0.0
C244 C 0.17695 0.66084 0.74874 0.0
H245 H 0.21679 0.65668 0.76732 0.0
H246 H 0.31366 0.7903 0.85467 0.0
H247 H 0.30066 0.76052 0.94627 0.0
H248 H 0.25526 0.70621 0.95204 0.0
H249 H 0.22283 0.68129 0.86581 0.0
C250 C 0.20796 0.67251 0.75656 0.0
C251 C 0.23135 0.70689 0.75457 0.0
C252 C 0.24934 0.72158 0.80595 0.0
C253 C 0.27503 0.75312 0.80294 0.0
C254 C 0.29351 0.76662 0.85438 0.0
C255 C 0.28634 0.74975 0.90741 0.0
C256 C 0.26083 0.71917 0.91065 0.0
C257 C 0.24248 0.70512 0.8607 0.0
H258 H 0.43842 0.93043 0.9082 0.0
C259 C 0.4571 0.93093 0.88106 0.0
H260 H 0.50612 0.95412 0.86406 0.0
H261 H 0.52353 0.08065 0.98029 0.0
H262 H 0.53393 0.09552 0.87653 0.0
H263 H 0.52684 0.05625 0.80016 0.0
H264 H 0.50912 0.00183 0.82716 0.0
C265 C 0.48725 0.95241 0.89226 0.0
C266 C 0.49498 0.97657 0.93918 0.0
C267 C 0.5062 0.00847 0.92275 0.0
C268 C 0.51083 0.03123 0.96688 0.0
C269 C 0.52057 0.0626 0.94891 0.0
C270 C 0.52639 0.07141 0.88938 0.0
C271 C 0.52235 0.04929 0.84639 0.0
C272 C 0.51221 0.01813 0.86255 0.0
H273 H 0.55983 0.07119 0.06078 0.0
C274 C 0.54007 0.0687 0.08722 0.0
H275 H 0.49091 0.04235 0.1019 0.0
H276 H 0.4766 0.91811 0.98603 0.0
H277 H 0.46669 0.90324 0.08991 0.0
H278 H 0.47422 0.94256 0.1665 0.0
H279 H 0.49181 0.99695 0.13971 0.0
C280 C 0.51069 0.04581 0.07436 0.0
C281 C 0.50497 0.02212 0.02746 0.0
C282 C 0.49421 0.9903 0.04393 0.0
C283 C 0.48947 0.96755 -0.00022 0.0
C284 C 0.47973 0.93616 0.01759 0.0
C285 C 0.47419 0.92735 0.07714 0.0
C286 C 0.47847 0.94949 0.12026 0.0
C287 C 0.4885 0.98065 0.10418 0.0
H288 H 0.50011 0.44715 0.38922 0.0
C289 C 0.52516 0.4629 0.38111 0.0
H290 H 0.56572 0.50597 0.40408 0.0
H291 H 0.48171 0.56297 0.49574 0.0
H292 H 0.50691 0.59525 0.40889 0.0
H293 H 0.5404 0.58379 0.34315 0.0
H294 H 0.54874 0.53988 0.36377 0.0
C295 C 0.54099 0.48939 0.41331 0.0
C296 C 0.5241 0.49845 0.45709 0.0
C297 C 0.5202 0.52476 0.44523 0.0
C298 C 0.5013 0.53167 0.48362 0.0
C299 C 0.49655 0.55717 0.46913 0.0
C300 C 0.5107 0.57578 0.41911 0.0
C301 C 0.52952 0.56931 0.38206 0.0
C302 C 0.53415 0.54403 0.39452 0.0
H303 H 0.50362 0.56206 0.6067 0.0
C304 C 0.47865 0.54459 0.60949 0.0
H305 H 0.44187 0.5008 0.57865 0.0
H306 H 0.53047 0.44902 0.49682 0.0
H307 H 0.50615 0.41728 0.5848 0.0
H308 H 0.47284 0.42882 0.65091 0.0
H309 H 0.46376 0.4722 0.62956 0.0
C310 C 0.46653 0.519 0.57436 0.0
C311 C 0.48693 0.5126 0.53445 0.0
C312 C 0.49164 0.48688 0.54727 0.0
C313 C 0.51048 0.47996 0.50882 0.0
C314 C 0.51562 0.45475 0.52362 0.0
C315 C 0.50201 0.43649 0.57426 0.0
C316 C 0.48328 0.44301 0.6115 0.0
C317 C 0.47818 0.46794 0.59856 0.0
H318 H 0.02444 0.53482 0.85551 0.0
C319 C 0.04688 0.53831 0.87128 0.0
H320 H 0.07172 0.53465 0.94404 0.0
H321 H 0.93986 0.52881 0.04865 0.0
H322 H 0.96287 0.58298 0.01427 0.0
H323 H 0.01399 0.60902 0.9613 0.0
H324 H 0.04198 0.58076 0.94122 0.0
C325 C 0.04977 0.53233 0.92818 0.0
C326 C 0.0219 0.51881 0.96855 0.0
C327 C 0.00674 0.53629 0.98268 0.0
C328 C 0.97822 0.52191 0.01615 0.0
C329 C 0.96238 0.53909 0.02594 0.0
C330 C 0.9752 0.57014 0.00604 0.0
C331 C 0.0039 0.58475 0.97599 0.0
C332 C 0.0196 0.56815 0.96435 0.0
H333 H 0.95996 0.5106 0.14519 0.0
C334 C 0.939 0.4888 0.13206 0.0
H335 H 0.91749 0.4541 0.06558 0.0
H336 H 0.04513 0.47881 0.94958 0.0
H337 H 0.02356 0.42564 0.98823 0.0
H338 H 0.97578 0.40178 0.05129 0.0
H339 H 0.9491 0.43081 0.07546 0.0
C340 C 0.93783 0.4765 0.07826 0.0
C341 C 0.96599 0.49078 0.03858 0.0
C342 C 0.98153 0.47357 0.02557 0.0
C343 C 0.00943 0.48754 0.99024 0.0
C344 C 0.02411 0.46957 0.97689 0.0
C345 C 0.01196 0.43897 -0.00125 0.0
C346 C 0.98505 0.42553 0.03419 0.0
C347 C 0.96993 0.44249 0.04763 0.0
H348 H 0.5121 0.07542 0.41877 0.0
C349 C 0.52455 0.06918 0.38623 0.0
H350 H 0.53709 0.03546 0.35967 0.0
H351 H 0.5 0.00148 0.64563 0.0
H352 H 0.54648 0.05218 0.66572 0.0
H353 H 0.5767 0.08861 0.58398 0.0
H354 H 0.56049 0.07463 0.48177 0.0
C355 C 0.52582 0.04259 0.39315 0.0
C356 C 0.50867 0.02037 0.44263 0.0
C357 C 0.51871 0.02888 0.5021 0.0
C358 C 0.50161 0.00766 0.54912 0.0
C359 C 0.51212 0.01667 0.60815 0.0
C360 C 0.53881 0.04569 0.62034 0.0
C361 C 0.55578 0.06622 0.57433 0.0
C362 C 0.54607 0.05799 0.51583 0.0
H363 H 0.47528 0.92449 0.55677 0.0
C364 C 0.46202 0.92913 0.59023 0.0
H365 H 0.44694 0.96051 0.61972 0.0
H366 H 0.48306 0.99694 0.33356 0.0
H367 H 0.43649 0.94629 0.31367 0.0
H368 H 0.40655 0.90974 0.39545 0.0
H369 H 0.42312 0.92361 0.49759 0.0
C370 C 0.45891 0.95478 0.58532 0.0
C371 C 0.475 0.97778 0.5364 0.0
C372 C 0.46477 0.96941 0.47703 0.0
C373 C 0.48179 0.99064 0.43002 0.0
C374 C 0.47109 0.9817 0.37106 0.0
C375 C 0.44433 0.95271 0.35899 0.0
C376 C 0.4275 0.93212 0.40501 0.0
C377 C 0.4374 0.94029 0.46343 0.0
H378 H 0.42664 0.47627 0.86696 0.0
C379 C 0.44164 0.50186 0.86693 0.0
H380 H 0.48193 0.54126 0.90255 0.0
H381 H 0.45335 0.43419 0.10988 0.0
H382 H 0.40431 0.43374 0.12864 0.0
H383 H 0.38744 0.46284 0.06324 0.0
H384 H 0.41934 0.49235 0.9786 0.0
C385 C 0.46621 0.51578 0.9039 0.0
C386 C 0.47515 0.49701 0.94234 0.0
C387 C 0.45614 0.48003 0.99179 0.0
C388 C 0.46613 0.46375 0.03013 0.0
C389 C 0.44692 0.44708 0.07947 0.0
C390 C 0.41872 0.44663 0.09077 0.0
C391 C 0.40921 0.46298 0.05389 0.0
C392 C 0.42767 0.47967 0.00514 0.0
H393 H 0.54318 0.49797 0.09189 0.0
C394 C 0.53227 0.47259 0.09885 0.0
H395 H 0.49603 0.42724 0.07261 0.0
H396 H 0.5158 0.52533 0.84875 0.0
H397 H 0.56427 0.5248 0.8293 0.0
H398 H 0.58143 0.49642 0.89596 0.0
H399 H 0.5502 0.46844 0.98258 0.0
C400 C 0.50803 0.4526 0.06486 0.0
C401 C 0.49537 0.46523 0.01971 0.0
C402 C 0.51364 0.481 0.96886 0.0
C403 C 0.50361 0.4971 0.93028 0.0
C404 C 0.52241 0.51287 0.87989 0.0
C405 C 0.55024 0.51267 0.86804 0.0
C406 C 0.55991 0.49671 0.90559 0.0
C407 C 0.54188 0.48094 0.95537 0.0
H408 H 0.06507 0.53693 0.55957 0.0
C409 C 0.06635 0.52118 0.59201 0.0
H410 H 0.04739 0.4741 0.62139 0.0
H411 H 0.91278 0.43807 0.52399 0.0
H412 H 0.90269 0.42605 0.62909 0.0
H413 H 0.94624 0.43744 0.69739 0.0
H414 H -6e-05 0.46061 0.66118 0.0
C415 C 0.04672 0.48983 0.58817 0.0
C416 C 0.02011 0.47714 0.54576 0.0
C417 C 0.9888 0.46319 0.56801 0.0
C418 C 0.96376 0.45702 0.52893 0.0
C419 C 0.9327 0.44349 0.55203 0.0
C420 C 0.92658 0.43644 0.61219 0.0
C421 C 0.95109 0.44283 0.65062 0.0
C422 C 0.98188 0.45614 0.62913 0.0
H423 H 0.93736 0.42112 0.38611 0.0
C424 C 0.93066 0.43917 0.38975 0.0
H425 H 0.93822 0.4806 0.43383 0.0
H426 H 0.07606 0.49682 0.48754 0.0
H427 H 0.08609 0.50833 0.38214 0.0
H428 H 0.04326 0.50078 0.31513 0.0
H429 H 0.99018 0.48122 0.35274 0.0
C430 C 0.94483 0.46252 0.4294 0.0
C431 C 0.97016 0.46486 0.46809 0.0
C432 C 0.0011 0.47681 0.44515 0.0
C433 C 0.02601 0.48233 0.48399 0.0
C434 C 0.05656 0.49334 0.46005 0.0
C435 C 0.06257 0.49981 0.39968 0.0
C436 C 0.03843 0.49547 0.36194 0.0
C437 C 0.00802 0.48414 0.38413 0.0
loop_
_geom_bond_atom_site_label_1
_geom_bond_atom_site_label_2
_geom_bond_distance
_geom_bond_site_symmetry_2
_ccdc_geom_bond_type
In0 O1 2.294 . S
In0 O2 2.326 . S
In0 O6 2.266 . S
In0 O7 2.326 . S
In0 O8 2.266 . S
In0 O9 2.326 . S
In0 O11 2.294 . S
In0 O12 2.326 . S
O1 In0 2.294 . S
O1 C10 1.240 . S
O2 In0 2.326 . S
O2 C10 1.252 . S
C3 O6 1.252 . S
C3 O7 1.260 . S
C4 O11 1.240 . S
C4 O12 1.252 . S
C5 O8 1.252 . S
C5 O9 1.260 . S
O6 In0 2.266 . S
O6 C3 1.252 . S
O7 In0 2.326 . S
O7 C3 1.260 . S
O8 In0 2.266 . S
O8 C5 1.252 . S
O9 In0 2.326 . S
O9 C5 1.260 . S
C10 O1 1.240 . S
C10 O2 1.252 . S
O11 In0 2.294 . S
O11 C4 1.240 . S
O12 In0 2.326 . S
O12 C4 1.252 . S
In13 O14 2.294 . S
In13 O15 2.326 . S
In13 O19 2.266 . S
In13 O20 2.326 . S
In13 O21 2.266 . S
In13 O22 2.326 . S
In13 O24 2.294 . S
In13 O25 2.326 . S
O14 In13 2.294 . S
O14 C23 1.240 . S
O15 In13 2.326 . S
O15 C23 1.252 . S
C16 O19 1.252 . S
C16 O20 1.260 . S
C17 O24 1.240 . S
C17 O25 1.252 . S
C18 O21 1.252 . S
C18 O22 1.260 . S
O19 In13 2.266 . S
O19 C16 1.252 . S
O20 In13 2.326 . S
O20 C16 1.260 . S
O21 In13 2.266 . S
O21 C18 1.252 . S
O22 In13 2.326 . S
O22 C18 1.260 . S
C23 O14 1.240 . S
C23 O15 1.252 . S
O24 In13 2.294 . S
O24 C17 1.240 . S
O25 In13 2.326 . S
O25 C17 1.252 . S
In26 O27 2.294 . S
In26 O28 2.326 . S
In26 O32 2.266 . S
In26 O33 2.326 . S
In26 O34 2.266 . S
In26 O35 2.326 . S
In26 O37 2.294 . S
In26 O38 2.326 . S
O27 In26 2.294 . S
O27 C36 1.240 . S
O28 In26 2.326 . S
O28 C36 1.252 . S
C29 O32 1.252 . S
C29 O33 1.260 . S
C30 O37 1.240 . S
C30 O38 1.252 . S
C31 O34 1.252 . S
C31 O35 1.260 . S
O32 In26 2.266 . S
O32 C29 1.252 . S
O33 In26 2.326 . S
O33 C29 1.260 . S
O34 In26 2.266 . S
O34 C31 1.252 . S
O35 In26 2.326 . S
O35 C31 1.260 . S
C36 O27 1.240 . S
C36 O28 1.252 . S
O37 In26 2.294 . S
O37 C30 1.240 . S
O38 In26 2.326 . S
O38 C30 1.252 . S
In39 O40 2.294 . S
In39 O41 2.326 . S
In39 O45 2.266 . S
In39 O46 2.326 . S
In39 O47 2.266 . S
In39 O48 2.326 . S
In39 O50 2.294 . S
In39 O51 2.326 . S
O40 In39 2.294 . S
O40 C49 1.240 . S
O41 In39 2.326 . S
O41 C49 1.252 . S
C42 O45 1.252 . S
C42 O46 1.260 . S
C43 O50 1.240 . S
C43 O51 1.252 . S
C44 O47 1.252 . S
C44 O48 1.260 . S
O45 In39 2.266 . S
O45 C42 1.252 . S
O46 In39 2.326 . S
O46 C42 1.260 . S
O47 In39 2.266 . S
O47 C44 1.252 . S
O48 In39 2.326 . S
O48 C44 1.260 . S
C49 O40 1.240 . S
C49 O41 1.252 . S
O50 In39 2.294 . S
O50 C43 1.240 . S
O51 In39 2.326 . S
O51 C43 1.252 . S
In52 O53 2.294 . S
In52 O54 2.326 . S
In52 O58 2.266 . S
In52 O59 2.326 . S
In52 O60 2.266 . S
In52 O61 2.326 . S
In52 O63 2.294 . S
In52 O64 2.326 . S
O53 In52 2.294 . S
O53 C62 1.240 . S
O54 In52 2.326 . S
O54 C62 1.252 . S
C55 O58 1.252 . S
C55 O59 1.260 . S
C56 O63 1.240 . S
C56 O64 1.252 . S
C57 O60 1.252 . S
C57 O61 1.260 . S
O58 In52 2.266 . S
O58 C55 1.252 . S
O59 In52 2.326 . S
O59 C55 1.260 . S
O60 In52 2.266 . S
O60 C57 1.252 . S
O61 In52 2.326 . S
O61 C57 1.260 . S
C62 O53 1.240 . S
C62 O54 1.252 . S
O63 In52 2.294 . S
O63 C56 1.240 . S
O64 In52 2.326 . S
O64 C56 1.252 . S
In65 O66 2.294 . S
In65 O67 2.326 . S
In65 O71 2.266 . S
In65 O72 2.326 . S
In65 O73 2.266 . S
In65 O74 2.326 . S
In65 O76 2.294 . S
In65 O77 2.326 . S
O66 In65 2.294 . S
O66 C75 1.240 . S
O67 In65 2.326 . S
O67 C75 1.252 . S
C68 O71 1.252 . S
C68 O72 1.260 . S
C69 O76 1.240 . S
C69 O77 1.252 . S
C70 O73 1.252 . S
C70 O74 1.260 . S
O71 In65 2.266 . S
O71 C68 1.252 . S
O72 In65 2.326 . S
O72 C68 1.260 . S
O73 In65 2.266 . S
O73 C70 1.252 . S
O74 In65 2.326 . S
O74 C70 1.260 . S
C75 O66 1.240 . S
C75 O67 1.252 . S
O76 In65 2.294 . S
O76 C69 1.240 . S
O77 In65 2.326 . S
O77 C69 1.252 . S
H78 C79 0.951 . S
C79 H78 0.951 . S
C79 C85 1.265 . S
H80 C85 0.950 . S
H81 C89 0.949 . S
H82 C90 0.950 . S
H83 C91 0.951 . S
H84 C92 0.951 . S
C85 C79 1.265 . S
C85 H80 0.950 . S
C85 C86 1.478 . S
C86 C85 1.478 . S
C86 C87 1.397 . S
C86 C103 1.394 . S
C87 C86 1.397 . S
C87 C88 1.438 . S
C87 C92 1.429 . S
C88 C87 1.438 . S
C88 C89 1.428 . S
C88 C101 1.394 . S
C89 H81 0.949 . S
C89 C88 1.428 . S
C89 C90 1.345 . S
C90 H82 0.950 . S
C90 C89 1.345 . S
C90 C91 1.424 . S
C91 H83 0.951 . S
C91 C90 1.424 . S
C91 C92 1.347 . S
C92 H84 0.951 . S
C92 C87 1.429 . S
C92 C91 1.347 . S
H93 C94 0.951 . S
C94 H93 0.951 . S
C94 C100 1.265 . S
H95 C100 0.950 . S
H96 C104 0.949 . S
H97 C105 0.950 . S
H98 C106 0.951 . S
H99 C107 0.951 . S
C100 C94 1.265 . S
C100 H95 0.950 . S
C100 C101 1.478 . S
C101 C88 1.394 . S
C101 C100 1.478 . S
C101 C102 1.397 . S
C102 C101 1.397 . S
C102 C103 1.438 . S
C102 C107 1.429 . S
C103 C86 1.394 . S
C103 C102 1.438 . S
C103 C104 1.428 . S
C104 H96 0.949 . S
C104 C103 1.428 . S
C104 C105 1.345 . S
C105 H97 0.950 . S
C105 C104 1.345 . S
C105 C106 1.424 . S
C106 H98 0.951 . S
C106 C105 1.424 . S
C106 C107 1.347 . S
C107 H99 0.951 . S
C107 C102 1.429 . S
C107 C106 1.347 . S
H108 C109 0.951 . S
C109 H108 0.951 . S
C109 C115 1.265 . S
H110 C115 0.950 . S
H111 C119 0.949 . S
H112 C120 0.950 . S
H113 C121 0.951 . S
H114 C122 0.951 . S
C115 C109 1.265 . S
C115 H110 0.950 . S
C115 C116 1.478 . S
C116 C115 1.478 . S
C116 C117 1.397 . S
C116 C133 1.394 . S
C117 C116 1.397 . S
C117 C118 1.438 . S
C117 C122 1.429 . S
C118 C117 1.438 . S
C118 C119 1.428 . S
C118 C131 1.394 . S
C119 H111 0.949 . S
C119 C118 1.428 . S
C119 C120 1.345 . S
C120 H112 0.950 . S
C120 C119 1.345 . S
C120 C121 1.424 . S
C121 H113 0.951 . S
C121 C120 1.424 . S
C121 C122 1.347 . S
C122 H114 0.951 . S
C122 C117 1.429 . S
C122 C121 1.347 . S
H123 C124 0.951 . S
C124 H123 0.951 . S
C124 C130 1.265 . S
H125 C130 0.950 . S
H126 C134 0.949 . S
H127 C135 0.950 . S
H128 C136 0.951 . S
H129 C137 0.951 . S
C130 C124 1.265 . S
C130 H125 0.950 . S
C130 C131 1.478 . S
C131 C118 1.394 . S
C131 C130 1.478 . S
C131 C132 1.397 . S
C132 C131 1.397 . S
C132 C133 1.438 . S
C132 C137 1.429 . S
C133 C116 1.394 . S
C133 C132 1.438 . S
C133 C134 1.428 . S
C134 H126 0.949 . S
C134 C133 1.428 . S
C134 C135 1.345 . S
C135 H127 0.950 . S
C135 C134 1.345 . S
C135 C136 1.424 . S
C136 H128 0.951 . S
C136 C135 1.424 . S
C136 C137 1.347 . S
C137 H129 0.951 . S
C137 C132 1.429 . S
C137 C136 1.347 . S
H138 C139 0.951 . S
C139 H138 0.951 . S
C139 C145 1.265 . S
H140 C145 0.950 . S
H141 C149 0.949 . S
H142 C150 0.950 . S
H143 C151 0.951 . S
H144 C152 0.951 . S
C145 C139 1.265 . S
C145 H140 0.950 . S
C145 C146 1.478 . S
C146 C145 1.478 . S
C146 C147 1.397 . S
C146 C163 1.394 . S
C147 C146 1.397 . S
C147 C148 1.438 . S
C147 C152 1.429 . S
C148 C147 1.438 . S
C148 C149 1.428 . S
C148 C161 1.394 . S
C149 H141 0.949 . S
C149 C148 1.428 . S
C149 C150 1.345 . S
C150 H142 0.950 . S
C150 C149 1.345 . S
C150 C151 1.424 . S
C151 H143 0.951 . S
C151 C150 1.424 . S
C151 C152 1.347 . S
C152 H144 0.951 . S
C152 C147 1.429 . S
C152 C151 1.347 . S
H153 C154 0.951 . S
C154 H153 0.951 . S
C154 C160 1.265 . S
H155 C160 0.950 . S
H156 C164 0.949 . S
H157 C165 0.950 . S
H158 C166 0.951 . S
H159 C167 0.951 . S
C160 C154 1.265 . S
C160 H155 0.950 . S
C160 C161 1.478 . S
C161 C148 1.394 . S
C161 C160 1.478 . S
C161 C162 1.397 . S
C162 C161 1.397 . S
C162 C163 1.438 . S
C162 C167 1.429 . S
C163 C146 1.394 . S
C163 C162 1.438 . S
C163 C164 1.428 . S
C164 H156 0.949 . S
C164 C163 1.428 . S
C164 C165 1.345 . S
C165 H157 0.950 . S
C165 C164 1.345 . S
C165 C166 1.424 . S
C166 H158 0.951 . S
C166 C165 1.424 . S
C166 C167 1.347 . S
C167 H159 0.951 . S
C167 C162 1.429 . S
C167 C166 1.347 . S
H168 C169 0.951 . S
C169 H168 0.951 . S
C169 C175 1.265 . S
H170 C175 0.950 . S
H171 C179 0.949 . S
H172 C180 0.950 . S
H173 C181 0.951 . S
H174 C182 0.951 . S
C175 C169 1.265 . S
C175 H170 0.950 . S
C175 C176 1.478 . S
C176 C175 1.478 . S
C176 C177 1.397 . S
C176 C193 1.394 . S
C177 C176 1.397 . S
C177 C178 1.438 . S
C177 C182 1.429 . S
C178 C177 1.438 . S
C178 C179 1.428 . S
C178 C191 1.394 . S
C179 H171 0.949 . S
C179 C178 1.428 . S
C179 C180 1.345 . S
C180 H172 0.950 . S
C180 C179 1.345 . S
C180 C181 1.424 . S
C181 H173 0.951 . S
C181 C180 1.424 . S
C181 C182 1.347 . S
C182 H174 0.951 . S
C182 C177 1.429 . S
C182 C181 1.347 . S
H183 C184 0.951 . S
C184 H183 0.951 . S
C184 C190 1.265 . S
H185 C190 0.950 . S
H186 C194 0.949 . S
H187 C195 0.950 . S
H188 C196 0.951 . S
H189 C197 0.951 . S
C190 C184 1.265 . S
C190 H185 0.950 . S
C190 C191 1.478 . S
C191 C178 1.394 . S
C191 C190 1.478 . S
C191 C192 1.397 . S
C192 C191 1.397 . S
C192 C193 1.438 . S
C192 C197 1.429 . S
C193 C176 1.394 . S
C193 C192 1.438 . S
C193 C194 1.428 . S
C194 H186 0.949 . S
C194 C193 1.428 . S
C194 C195 1.345 . S
C195 H187 0.950 . S
C195 C194 1.345 . S
C195 C196 1.424 . S
C196 H188 0.951 . S
C196 C195 1.424 . S
C196 C197 1.347 . S
C197 H189 0.951 . S
C197 C192 1.429 . S
C197 C196 1.347 . S
H198 C199 0.951 . S
C199 H198 0.951 . S
C199 C205 1.265 . S
H200 C205 0.950 . S
H201 C209 0.949 . S
H202 C210 0.950 . S
H203 C211 0.951 . S
H204 C212 0.951 . S
C205 C199 1.265 . S
C205 H200 0.950 . S
C205 C206 1.478 . S
C206 C205 1.478 . S
C206 C207 1.397 . S
C206 C223 1.394 . S
C207 C206 1.397 . S
C207 C208 1.438 . S
C207 C212 1.429 . S
C208 C207 1.438 . S
C208 C209 1.428 . S
C208 C221 1.394 . S
C209 H201 0.949 . S
C209 C208 1.428 . S
C209 C210 1.345 . S
C210 H202 0.950 . S
C210 C209 1.345 . S
C210 C211 1.424 . S
C211 H203 0.951 . S
C211 C210 1.424 . S
C211 C212 1.347 . S
C212 H204 0.951 . S
C212 C207 1.429 . S
C212 C211 1.347 . S
H213 C214 0.951 . S
C214 H213 0.951 . S
C214 C220 1.265 . S
H215 C220 0.950 . S
H216 C224 0.949 . S
H217 C225 0.950 . S
H218 C226 0.951 . S
H219 C227 0.951 . S
C220 C214 1.265 . S
C220 H215 0.950 . S
C220 C221 1.478 . S
C221 C208 1.394 . S
C221 C220 1.478 . S
C221 C222 1.397 . S
C222 C221 1.397 . S
C222 C223 1.438 . S
C222 C227 1.429 . S
C223 C206 1.394 . S
C223 C222 1.438 . S
C223 C224 1.428 . S
C224 H216 0.949 . S
C224 C223 1.428 . S
C224 C225 1.345 . S
C225 H217 0.950 . S
C225 C224 1.345 . S
C225 C226 1.424 . S
C226 H218 0.951 . S
C226 C225 1.424 . S
C226 C227 1.347 . S
C227 H219 0.951 . S
C227 C222 1.429 . S
C227 C226 1.347 . S
H228 C229 0.951 . S
C229 H228 0.951 . S
C229 C235 1.265 . S
H230 C235 0.950 . S
H231 C239 0.949 . S
H232 C240 0.950 . S
H233 C241 0.951 . S
H234 C242 0.951 . S
C235 C229 1.265 . S
C235 H230 0.950 . S
C235 C236 1.478 . S
C236 C235 1.478 . S
C236 C237 1.397 . S
C236 C253 1.394 . S
C237 C236 1.397 . S
C237 C238 1.438 . S
C237 C242 1.429 . S
C238 C237 1.438 . S
C238 C239 1.428 . S
C238 C251 1.394 . S
C239 H231 0.949 . S
C239 C238 1.428 . S
C239 C240 1.345 . S
C240 H232 0.950 . S
C240 C239 1.345 . S
C240 C241 1.424 . S
C241 H233 0.951 . S
C241 C240 1.424 . S
C241 C242 1.347 . S
C242 H234 0.951 . S
C242 C237 1.429 . S
C242 C241 1.347 . S
H243 C244 0.951 . S
C244 H243 0.951 . S
C244 C250 1.265 . S
H245 C250 0.950 . S
H246 C254 0.949 . S
H247 C255 0.950 . S
H248 C256 0.951 . S
H249 C257 0.951 . S
C250 C244 1.265 . S
C250 H245 0.950 . S
C250 C251 1.478 . S
C251 C238 1.394 . S
C251 C250 1.478 . S
C251 C252 1.397 . S
C252 C251 1.397 . S
C252 C253 1.438 . S
C252 C257 1.429 . S
C253 C236 1.394 . S
C253 C252 1.438 . S
C253 C254 1.428 . S
C254 H246 0.949 . S
C254 C253 1.428 . S
C254 C255 1.345 . S
C255 H247 0.950 . S
C255 C254 1.345 . S
C255 C256 1.424 . S
C256 H248 0.951 . S
C256 C255 1.424 . S
C256 C257 1.347 . S
C257 H249 0.951 . S
C257 C252 1.429 . S
C257 C256 1.347 . S
H258 C259 0.951 . S
C259 H258 0.951 . S
C259 C265 1.265 . S
H260 C265 0.950 . S
H261 C269 0.949 1_554 S
H262 C270 0.950 . S
H263 C271 0.951 . S
H264 C272 0.951 . S
C265 C259 1.265 . S
C265 H260 0.950 . S
C265 C266 1.478 . S
C266 C265 1.478 . S
C266 C267 1.397 1_565 S
C266 C283 1.394 1_556 S
C267 C266 1.397 1_545 S
C267 C268 1.438 . S
C267 C272 1.429 . S
C268 C267 1.438 . S
C268 C269 1.428 . S
C268 C281 1.394 1_556 S
C269 H261 0.949 1_556 S
C269 C268 1.428 . S
C269 C270 1.345 . S
C270 H262 0.950 . S
C270 C269 1.345 . S
C270 C271 1.424 . S
C271 H263 0.951 . S
C271 C270 1.424 . S
C271 C272 1.347 . S
C272 H264 0.951 . S
C272 C267 1.429 . S
C272 C271 1.347 . S
H273 C274 0.951 . S
C274 H273 0.951 . S
C274 C280 1.265 . S
H275 C280 0.950 . S
H276 C284 0.949 1_556 S
H277 C285 0.950 . S
H278 C286 0.951 . S
H279 C287 0.951 . S
C280 C274 1.265 . S
C280 H275 0.950 . S
C280 C281 1.478 . S
C281 C268 1.394 1_554 S
C281 C280 1.478 . S
C281 C282 1.397 1_545 S
C282 C281 1.397 1_565 S
C282 C283 1.438 . S
C282 C287 1.429 . S
C283 C266 1.394 1_554 S
C283 C282 1.438 . S
C283 C284 1.428 . S
C284 H276 0.949 1_554 S
C284 C283 1.428 . S
C284 C285 1.345 . S
C285 H277 0.950 . S
C285 C284 1.345 . S
C285 C286 1.424 . S
C286 H278 0.951 . S
C286 C285 1.424 . S
C286 C287 1.347 . S
C287 H279 0.951 . S
C287 C282 1.429 . S
C287 C286 1.347 . S
H288 C289 0.951 . S
C289 H288 0.951 . S
C289 C295 1.265 . S
H290 C295 0.950 . S
H291 C299 0.949 . S
H292 C300 0.950 . S
H293 C301 0.951 . S
H294 C302 0.951 . S
C295 C289 1.265 . S
C295 H290 0.950 . S
C295 C296 1.478 . S
C296 C295 1.478 . S
C296 C297 1.397 . S
C296 C313 1.394 . S
C297 C296 1.397 . S
C297 C298 1.438 . S
C297 C302 1.429 . S
C298 C297 1.438 . S
C298 C299 1.428 . S
C298 C311 1.394 . S
C299 H291 0.949 . S
C299 C298 1.428 . S
C299 C300 1.345 . S
C300 H292 0.950 . S
C300 C299 1.345 . S
C300 C301 1.424 . S
C301 H293 0.951 . S
C301 C300 1.424 . S
C301 C302 1.347 . S
C302 H294 0.951 . S
C302 C297 1.429 . S
C302 C301 1.347 . S
H303 C304 0.951 . S
C304 H303 0.951 . S
C304 C310 1.265 . S
H305 C310 0.950 . S
H306 C314 0.949 . S
H307 C315 0.950 . S
H308 C316 0.951 . S
H309 C317 0.951 . S
C310 C304 1.265 . S
C310 H305 0.950 . S
C310 C311 1.478 . S
C311 C298 1.394 . S
C311 C310 1.478 . S
C311 C312 1.397 . S
C312 C311 1.397 . S
C312 C313 1.438 . S
C312 C317 1.429 . S
C313 C296 1.394 . S
C313 C312 1.438 . S
C313 C314 1.428 . S
C314 H306 0.949 . S
C314 C313 1.428 . S
C314 C315 1.345 . S
C315 H307 0.950 . S
C315 C314 1.345 . S
C315 C316 1.424 . S
C316 H308 0.951 . S
C316 C315 1.424 . S
C316 C317 1.347 . S
C317 H309 0.951 . S
C317 C312 1.429 . S
C317 C316 1.347 . S
H318 C319 0.951 . S
C319 H318 0.951 . S
C319 C325 1.265 . S
H320 C325 0.950 . S
H321 C329 0.949 . S
H322 C330 0.950 . S
H323 C331 0.951 . S
H324 C332 0.951 . S
C325 C319 1.265 . S
C325 H320 0.950 . S
C325 C326 1.478 . S
C326 C325 1.478 . S
C326 C327 1.397 . S
C326 C343 1.394 . S
C327 C326 1.397 . S
C327 C328 1.438 1_456 S
C327 C332 1.429 . S
C328 C327 1.438 1_654 S
C328 C329 1.428 . S
C328 C341 1.394 . S
C329 H321 0.949 . S
C329 C328 1.428 . S
C329 C330 1.345 . S
C330 H322 0.950 . S
C330 C329 1.345 . S
C330 C331 1.424 1_655 S
C331 H323 0.951 . S
C331 C330 1.424 1_455 S
C331 C332 1.347 1_554 S
C332 H324 0.951 . S
C332 C327 1.429 . S
C332 C331 1.347 1_556 S
H333 C334 0.951 . S
C334 H333 0.951 . S
C334 C340 1.265 . S
H335 C340 0.950 . S
H336 C344 0.949 . S
H337 C345 0.950 . S
H338 C346 0.951 . S
H339 C347 0.951 . S
C340 C334 1.265 . S
C340 H335 0.950 . S
C340 C341 1.478 . S
C341 C328 1.394 . S
C341 C340 1.478 . S
C341 C342 1.397 . S
C342 C341 1.397 . S
C342 C343 1.438 1_654 S
C342 C347 1.429 . S
C343 C326 1.394 . S
C343 C342 1.438 1_456 S
C343 C344 1.428 . S
C344 H336 0.949 . S
C344 C343 1.428 . S
C344 C345 1.345 . S
C345 H337 0.950 . S
C345 C344 1.345 . S
C345 C346 1.424 1_455 S
C346 H338 0.951 . S
C346 C345 1.424 1_655 S
C346 C347 1.347 1_556 S
C347 H339 0.951 . S
C347 C342 1.429 . S
C347 C346 1.347 1_554 S
H348 C349 0.951 . S
C349 H348 0.951 . S
C349 C355 1.265 . S
H350 C355 0.950 . S
H351 C359 0.949 1_565 S
H352 C360 0.950 . S
H353 C361 0.951 . S
H354 C362 0.951 . S
C355 C349 1.265 . S
C355 H350 0.950 . S
C355 C356 1.478 . S
C356 C355 1.478 . S
C356 C357 1.397 . S
C356 C373 1.394 1_545 S
C357 C356 1.397 . S
C357 C358 1.438 . S
C357 C362 1.429 . S
C358 C357 1.438 . S
C358 C359 1.428 . S
C358 C371 1.394 1_545 S
C359 H351 0.949 1_545 S
C359 C358 1.428 . S
C359 C360 1.345 . S
C360 H352 0.950 . S
C360 C359 1.345 . S
C360 C361 1.424 . S
C361 H353 0.951 . S
C361 C360 1.424 . S
C361 C362 1.347 . S
C362 H354 0.951 . S
C362 C357 1.429 . S
C362 C361 1.347 . S
H363 C364 0.951 . S
C364 H363 0.951 . S
C364 C370 1.265 . S
H365 C370 0.950 . S
H366 C374 0.949 1_545 S
H367 C375 0.950 . S
H368 C376 0.951 . S
H369 C377 0.951 . S
C370 C364 1.265 . S
C370 H365 0.950 . S
C370 C371 1.478 . S
C371 C358 1.394 1_565 S
C371 C370 1.478 . S
C371 C372 1.397 . S
C372 C371 1.397 . S
C372 C373 1.438 . S
C372 C377 1.429 . S
C373 C356 1.394 1_565 S
C373 C372 1.438 . S
C373 C374 1.428 . S
C374 H366 0.949 1_565 S
C374 C373 1.428 . S
C374 C375 1.345 . S
C375 H367 0.950 . S
C375 C374 1.345 . S
C375 C376 1.424 . S
C376 H368 0.951 . S
C376 C375 1.424 . S
C376 C377 1.347 . S
C377 H369 0.951 . S
C377 C372 1.429 . S
C377 C376 1.347 . S
H378 C379 0.951 . S
C379 H378 0.951 . S
C379 C385 1.265 . S
H380 C385 0.950 . S
H381 C389 0.949 . S
H382 C390 0.950 . S
H383 C391 0.951 . S
H384 C392 0.951 1_556 S
C385 C379 1.265 . S
C385 H380 0.950 . S
C385 C386 1.478 . S
C386 C385 1.478 . S
C386 C387 1.397 1_556 S
C386 C403 1.394 . S
C387 C386 1.397 1_554 S
C387 C388 1.438 . S
C387 C392 1.429 . S
C388 C387 1.438 . S
C388 C389 1.428 . S
C388 C401 1.394 . S
C389 H381 0.949 . S
C389 C388 1.428 . S
C389 C390 1.345 . S
C390 H382 0.950 . S
C390 C389 1.345 . S
C390 C391 1.424 . S
C391 H383 0.951 . S
C391 C390 1.424 . S
C391 C392 1.347 . S
C392 H384 0.951 1_554 S
C392 C387 1.429 . S
C392 C391 1.347 . S
H393 C394 0.951 . S
C394 H393 0.951 . S
C394 C400 1.265 . S
H395 C400 0.950 . S
H396 C404 0.949 . S
H397 C405 0.950 . S
H398 C406 0.951 . S
H399 C407 0.951 1_554 S
C400 C394 1.265 . S
C400 H395 0.950 . S
C400 C401 1.478 . S
C401 C388 1.394 . S
C401 C400 1.478 . S
C401 C402 1.397 1_554 S
C402 C401 1.397 1_556 S
C402 C403 1.438 . S
C402 C407 1.429 . S
C403 C386 1.394 . S
C403 C402 1.438 . S
C403 C404 1.428 . S
C404 H396 0.949 . S
C404 C403 1.428 . S
C404 C405 1.345 . S
C405 H397 0.950 . S
C405 C404 1.345 . S
C405 C406 1.424 . S
C406 H398 0.951 . S
C406 C405 1.424 . S
C406 C407 1.347 . S
C407 H399 0.951 1_556 S
C407 C402 1.429 . S
C407 C406 1.347 . S
H408 C409 0.951 . S
C409 H408 0.951 . S
C409 C415 1.265 . S
H410 C415 0.950 . S
H411 C419 0.949 . S
H412 C420 0.950 . S
H413 C421 0.951 . S
H414 C422 0.976 . S
C415 C409 1.265 . S
C415 H410 0.950 . S
C415 C416 1.478 . S
C416 C415 1.478 . S
C416 C417 1.397 . S
C416 C433 1.394 . S
C417 C416 1.397 . S
C417 C418 1.438 1_455 S
C417 C422 1.415 . S
C418 C417 1.438 1_655 S
C418 C419 1.428 . S
C418 C431 1.394 . S
C419 H411 0.949 . S
C419 C418 1.428 . S
C419 C420 1.345 . S
C420 H412 0.950 . S
C420 C419 1.345 . S
C420 C421 1.424 . S
C421 H413 0.951 . S
C421 C420 1.424 . S
C421 C422 1.338 1_655 S
C422 H414 0.976 . S
C422 C417 1.415 . S
C422 C421 1.338 1_455 S
H423 C424 0.951 . S
C424 H423 0.951 . S
C424 C430 1.265 . S
H425 C430 0.950 . S
H426 C434 0.949 . S
H427 C435 0.950 . S
H428 C436 0.951 . S
H429 C437 0.976 . S
C430 C424 1.265 . S
C430 H425 0.950 . S
C430 C431 1.478 . S
C431 C418 1.394 . S
C431 C430 1.478 . S
C431 C432 1.397 . S
C432 C431 1.397 . S
C432 C433 1.438 1_655 S
C432 C437 1.415 . S
C433 C416 1.394 . S
C433 C432 1.438 1_455 S
C433 C434 1.428 . S
C434 H426 0.949 . S
C434 C433 1.428 . S
C434 C435 1.345 . S
C435 H427 0.950 . S
C435 C434 1.345 . S
C435 C436 1.424 . S
C436 H428 0.951 . S
C436 C435 1.424 . S
C436 C437 1.338 1_455 S
C437 H429 0.976 . S
C437 C432 1.415 . S
C437 C436 1.338 1_655 S
C79 C3 1.165 . S
C94 C57 1.105 . S
C109 C16 1.102 . S
C124 C68 1.099 . S
C139 C5 1.173 . S
C154 C29 1.118 . S
C169 C44 1.147 . S
C184 C18 1.091 . S
C199 C55 1.110 . S
C214 C31 1.093 . S
C229 C42 1.102 . S
C244 C70 1.162 . S
C259 C49 1.408 . S
C274 C10 1.434 . S
C289 C56 1.412 . S
C304 C23 1.430 . S
C319 C75 1.418 . S
C334 C36 1.424 . S
C349 C4 1.434 . S
C364 C43 1.408 . S
C379 C17 1.424 . S
C394 C62 1.419 . S
C409 C69 1.411 . S
C424 C30 1.432 . S
