# Generated by pormake.
# Topology uob, (4)-cn, num edge types: 1
# Building blocks:
#     Node 0, Type 0, BuildingBlock: NAWXER_clean_sbu_0, # of connection points: 4
#     Node 1, Type 0, BuildingBlock: NAWXER_clean_sbu_0, # of connection points: 4
#     Node 2, Type 0, BuildingBlock: NAWXER_clean_sbu_0, # of connection points: 4
#     Node 3, Type 0, BuildingBlock: NAWXER_clean_sbu_0, # of connection points: 4
#     Node 4, Type 0, BuildingBlock: NAWXER_clean_sbu_0, # of connection points: 4
#     Node 5, Type 0, BuildingBlock: NAWXER_clean_sbu_0, # of connection points: 4
#     Node 6, Type 0, BuildingBlock: NAWXER_clean_sbu_0, # of connection points: 4
#     Node 7, Type 0, BuildingBlock: NAWXER_clean_sbu_0, # of connection points: 4
#     Node 8, Type 0, BuildingBlock: NAWXER_clean_sbu_0, # of connection points: 4
#     Node 9, Type 0, BuildingBlock: NAWXER_clean_sbu_0, # of connection points: 4
#     Node 10, Type 0, BuildingBlock: NAWXER_clean_sbu_0, # of connection points: 4
#     Node 11, Type 0, BuildingBlock: NAWXER_clean_sbu_0, # of connection points: 4
#     Node 12, Type 0, BuildingBlock: NAWXER_clean_sbu_0, # of connection points: 4
#     Node 13, Type 0, BuildingBlock: NAWXER_clean_sbu_0, # of connection points: 4
#     Node 14, Type 0, BuildingBlock: NAWXER_clean_sbu_0, # of connection points: 4
#     Node 15, Type 0, BuildingBlock: NAWXER_clean_sbu_0, # of connection points: 4
#     Edge 16, Type (0, 0), BuildingBlock: MIFKUJ_clean_linker_0, # of connection points: 2
#     Edge 17, Type (0, 0), BuildingBlock: MIFKUJ_clean_linker_0, # of connection points: 2
#     Edge 18, Type (0, 0), BuildingBlock: MIFKUJ_clean_linker_0, # of connection points: 2
#     Edge 19, Type (0, 0), BuildingBlock: MIFKUJ_clean_linker_0, # of connection points: 2
#     Edge 20, Type (0, 0), BuildingBlock: MIFKUJ_clean_linker_0, # of connection points: 2
#     Edge 21, Type (0, 0), BuildingBlock: MIFKUJ_clean_linker_0, # of connection points: 2
#     Edge 22, Type (0, 0), BuildingBlock: MIFKUJ_clean_linker_0, # of connection points: 2
#     Edge 23, Type (0, 0), BuildingBlock: MIFKUJ_clean_linker_0, # of connection points: 2
#     Edge 24, Type (0, 0), BuildingBlock: MIFKUJ_clean_linker_0, # of connection points: 2
#     Edge 25, Type (0, 0), BuildingBlock: MIFKUJ_clean_linker_0, # of connection points: 2
#     Edge 26, Type (0, 0), BuildingBlock: MIFKUJ_clean_linker_0, # of connection points: 2
#     Edge 27, Type (0, 0), BuildingBlock: MIFKUJ_clean_linker_0, # of connection points: 2
#     Edge 28, Type (0, 0), BuildingBlock: MIFKUJ_clean_linker_0, # of connection points: 2
#     Edge 29, Type (0, 0), BuildingBlock: MIFKUJ_clean_linker_0, # of connection points: 2
#     Edge 30, Type (0, 0), BuildingBlock: MIFKUJ_clean_linker_0, # of connection points: 2
#     Edge 31, Type (0, 0), BuildingBlock: MIFKUJ_clean_linker_0, # of connection points: 2
#     Edge 32, Type (0, 0), BuildingBlock: MIFKUJ_clean_linker_0, # of connection points: 2
#     Edge 33, Type (0, 0), BuildingBlock: MIFKUJ_clean_linker_0, # of connection points: 2
#     Edge 34, Type (0, 0), BuildingBlock: MIFKUJ_clean_linker_0, # of connection points: 2
#     Edge 35, Type (0, 0), BuildingBlock: MIFKUJ_clean_linker_0, # of connection points: 2
#     Edge 36, Type (0, 0), BuildingBlock: MIFKUJ_clean_linker_0, # of connection points: 2
#     Edge 37, Type (0, 0), BuildingBlock: MIFKUJ_clean_linker_0, # of connection points: 2
#     Edge 38, Type (0, 0), BuildingBlock: MIFKUJ_clean_linker_0, # of connection points: 2
#     Edge 39, Type (0, 0), BuildingBlock: MIFKUJ_clean_linker_0, # of connection points: 2
#     Edge 40, Type (0, 0), BuildingBlock: MIFKUJ_clean_linker_0, # of connection points: 2
#     Edge 41, Type (0, 0), BuildingBlock: MIFKUJ_clean_linker_0, # of connection points: 2
#     Edge 42, Type (0, 0), BuildingBlock: MIFKUJ_clean_linker_0, # of connection points: 2
#     Edge 43, Type (0, 0), BuildingBlock: MIFKUJ_clean_linker_0, # of connection points: 2
#     Edge 44, Type (0, 0), BuildingBlock: MIFKUJ_clean_linker_0, # of connection points: 2
#     Edge 45, Type (0, 0), BuildingBlock: MIFKUJ_clean_linker_0, # of connection points: 2
#     Edge 46, Type (0, 0), BuildingBlock: MIFKUJ_clean_linker_0, # of connection points: 2
#     Edge 47, Type (0, 0), BuildingBlock: MIFKUJ_clean_linker_0, # of connection points: 2
# Relax obj value: 0.120
# Max RMSD: 0.245
# Mean RMSD: 0.245
data_MOF--net-uob--node1-NAWXER_clean_sbu_0--edge1-MIFKUJ_clean_linker_0
_symmetry_space_group_name_H-M    P1
_symmetry_Int_Tables_number       1
_symmetry_cell_setting            triclinic
loop_
_symmetry_equiv_pos_as_xyz
'x, y, z'
_cell_length_a     68.482337
_cell_length_b     68.475459
_cell_length_c     37.106881
_cell_angle_alpha  89.983783
_cell_angle_beta   90.010534
_cell_angle_gamma 89.985326
loop_
_atom_site_label
_atom_site_type_symbol
_atom_site_fract_x
_atom_site_fract_y
_atom_site_fract_z
_atom_type_partial_charge
C0 C 0.11777 0.0834 0.34396 0.0
C1 C 0.13228 0.08768 0.21707 0.0
O2 O 0.12384 0.06681 0.33208 0.0
Zn3 Zn 0.13403 0.05551 0.27992 0.0
O4 O 0.11687 0.09794 0.32283 0.0
Zn5 Zn 0.12655 0.08479 0.28177 0.0
O6 O 0.10246 0.0646 0.27148 0.0
O7 O 0.11535 0.03508 0.27114 0.0
O8 O 0.12824 0.10075 0.23996 0.0
O9 O 0.13493 0.07005 0.22787 0.0
O10 O 0.16043 0.04733 0.29072 0.0
O11 O 0.15624 0.07885 0.29869 0.0
C12 C 0.10043 0.04601 0.26842 0.0
C13 C 0.16715 0.06366 0.30103 0.0
C14 C 0.92471 0.61564 0.60113 0.0
C15 C 0.91978 0.62977 0.47381 0.0
O16 O 0.94112 0.62182 0.58875 0.0
Zn17 Zn 0.95217 0.63148 0.53639 0.0
O18 O 0.91003 0.61437 0.58037 0.0
Zn19 Zn 0.92275 0.62408 0.53856 0.0
O20 O 0.94274 0.59999 0.52776 0.0
O21 O 0.97241 0.61253 0.52776 0.0
O22 O 0.90665 0.62586 0.4967 0.0
O23 O 0.93744 0.63226 0.48455 0.0
O24 O 0.96041 0.65791 0.5467 0.0
O25 O 0.92884 0.65387 0.5546 0.0
C26 C 0.96131 0.59775 0.52475 0.0
C27 C 0.94406 0.66475 0.5567 0.0
C28 C 0.38642 0.42215 0.84115 0.0
C29 C 0.37297 0.41687 0.71418 0.0
O30 O 0.38157 0.43891 0.82833 0.0
Zn31 Zn 0.3716 0.44978 0.77584 0.0
O32 O 0.38597 0.40714 0.82113 0.0
Zn33 Zn 0.37768 0.4202 0.77892 0.0
O34 O 0.40273 0.43927 0.76853 0.0
O35 O 0.39107 0.46931 0.76653 0.0
O36 O 0.37634 0.4039 0.73766 0.0
O37 O 0.37052 0.43465 0.72427 0.0
O38 O 0.34553 0.45913 0.78606 0.0
O39 O 0.348 0.42741 0.79358 0.0
C40 C 0.40555 0.45773 0.7647 0.0
C41 C 0.33782 0.4431 0.79554 0.0
C42 C 0.58738 0.88564 0.10194 0.0
C43 C 0.58979 0.87169 0.97427 0.0
O44 O 0.57054 0.88028 0.09022 0.0
Zn45 Zn 0.55869 0.86987 0.03883 0.0
O46 O 0.60201 0.88558 0.08092 0.0
Zn47 Zn 0.58824 0.87649 0.03968 0.0
O48 O 0.56829 0.90115 0.03015 0.0
O49 O 0.53851 0.88879 0.0314 0.0
O50 O 0.6035 0.87452 0.99655 0.0
O51 O 0.57229 0.86961 0.98607 0.0
O52 O 0.55027 0.84348 0.04961 0.0
O53 O 0.58187 0.84706 0.05697 0.0
C54 C 0.54967 0.9035 0.02803 0.0
C55 C 0.56652 0.83645 0.05966 0.0
C56 C 0.16323 0.44186 0.01201 0.0
C57 C 0.09668 0.45901 0.0469 0.0
O58 O 0.1522 0.42672 0.01314 0.0
Zn59 Zn 0.12243 0.4206 0.02942 0.0
O60 O 0.15667 0.45801 0.02364 0.0
Zn61 Zn 0.13028 0.44978 0.03389 0.0
O62 O 0.13145 0.43367 0.08424 0.0
O63 O 0.12378 0.4035 0.0696 0.0
O64 O 0.11159 0.47 0.04483 0.0
O65 O 0.09869 0.44054 0.0421 0.0
O66 O 0.11245 0.40889 0.98719 0.0
O67 O 0.12004 0.44009 0.98088 0.0
C68 C 0.12834 0.41586 0.09349 0.0
C69 C 0.11365 0.42399 0.96749 0.0
C70 C 0.57882 0.61743 0.22504 0.0
C71 C 0.58688 0.62477 0.35393 0.0
O72 O 0.56265 0.62243 0.23998 0.0
Zn73 Zn 0.55308 0.62985 0.29448 0.0
O74 O 0.5941 0.61565 0.24413 0.0
Zn75 Zn 0.58231 0.6224 0.28889 0.0
O76 O 0.56233 0.59794 0.2971 0.0
O77 O 0.53293 0.61083 0.30194 0.0
O78 O 0.59928 0.62117 0.32951 0.0
O79 O 0.56915 0.62859 0.34501 0.0
O80 O 0.54457 0.65649 0.28885 0.0
O81 O 0.57614 0.65306 0.27979 0.0
C82 C 0.54383 0.59582 0.3015 0.0
C83 C 0.56086 0.66392 0.28011 0.0
C84 C 0.39116 0.07712 0.47486 0.0
C85 C 0.37715 0.08722 0.60102 0.0
O86 O 0.38371 0.06164 0.48876 0.0
Zn87 Zn 0.37333 0.05301 0.54214 0.0
O88 O 0.39339 0.09239 0.49378 0.0
Zn89 Zn 0.38252 0.08183 0.53673 0.0
O90 O 0.40521 0.06095 0.55018 0.0
O91 O 0.39121 0.03201 0.55322 0.0
O92 O 0.38221 0.09923 0.57681 0.0
O93 O 0.3731 0.06955 0.59212 0.0
O94 O 0.34663 0.04592 0.5324 0.0
O95 O 0.35231 0.07695 0.52112 0.0
C96 C 0.40651 0.04245 0.55527 0.0
C97 C 0.34066 0.06225 0.52058 0.0
C98 C 0.92303 0.89039 0.71928 0.0
C99 C 0.91502 0.87907 0.84697 0.0
O100 O 0.93916 0.88458 0.73345 0.0
Zn101 Zn 0.94862 0.87498 0.78706 0.0
O102 O 0.90773 0.89136 0.7385 0.0
Zn103 Zn 0.91949 0.88268 0.78195 0.0
O104 O 0.93973 0.90674 0.79238 0.0
O105 O 0.96905 0.89353 0.79622 0.0
O106 O 0.90256 0.8828 0.82272 0.0
O107 O 0.93275 0.87548 0.83782 0.0
O108 O 0.95673 0.84835 0.77881 0.0
O109 O 0.92541 0.85247 0.76837 0.0
C110 C 0.95825 0.90862 0.79692 0.0
C111 C 0.94057 0.84145 0.76801 0.0
C112 C 0.66227 0.56343 0.81186 0.0
C113 C 0.59762 0.54178 0.77327 0.0
O114 O 0.65035 0.57784 0.80947 0.0
Zn115 Zn 0.62073 0.58192 0.79029 0.0
O116 O 0.6569 0.54678 0.80064 0.0
Zn117 Zn 0.63017 0.55324 0.7885 0.0
O118 O 0.63131 0.56836 0.73681 0.0
O119 O 0.62219 0.5984 0.74924 0.0
O120 O 0.613 0.5317 0.77788 0.0
O121 O 0.59846 0.56043 0.77661 0.0
O122 O 0.60888 0.59382 0.83054 0.0
O123 O 0.61788 0.56326 0.8401 0.0
C124 C 0.62759 0.58586 0.7263 0.0
C125 C 0.61014 0.57923 0.85149 0.0
C126 C 0.42578 0.11233 0.1014 0.0
C127 C 0.4186 0.12429 0.97357 0.0
O128 O 0.44193 0.11844 0.0878 0.0
Zn129 Zn 0.45178 0.12808 0.03455 0.0
O130 O 0.41078 0.11086 0.0815 0.0
Zn131 Zn 0.42277 0.11974 0.03836 0.0
O132 O 0.4435 0.09612 0.02813 0.0
O133 O 0.47256 0.10991 0.0256 0.0
O134 O 0.40614 0.11963 0.99725 0.0
O135 O 0.43619 0.12812 0.98337 0.0
O136 O 0.45948 0.15466 0.04363 0.0
O137 O 0.42798 0.15016 0.05162 0.0
C138 C 0.46209 0.09462 0.02418 0.0
C139 C 0.44298 0.16137 0.05296 0.0
C140 C 0.90759 0.96275 0.26866 0.0
C141 C 0.84069 0.94614 0.3018 0.0
O142 O 0.90543 0.94419 0.27225 0.0
Zn143 Zn 0.88113 0.92437 0.28397 0.0
O144 O 0.8928 0.97384 0.27151 0.0
Zn145 Zn 0.87401 0.95372 0.28098 0.0
O146 O 0.88446 0.94326 0.3333 0.0
O147 O 0.89038 0.91177 0.32624 0.0
O148 O 0.8478 0.96235 0.29174 0.0
O149 O 0.85132 0.93074 0.29971 0.0
O150 O 0.87978 0.90793 0.24274 0.0
O151 O 0.8729 0.93848 0.22948 0.0
C152 C 0.89012 0.92679 0.34626 0.0
C153 C 0.87574 0.92076 0.21934 0.0
C154 C 0.04643 0.40562 0.51558 0.0
C155 C 0.06576 0.33909 0.54636 0.0
O156 O 0.06502 0.40407 0.51927 0.0
Zn157 Zn 0.08574 0.38072 0.5303 0.0
O158 O 0.0359 0.39039 0.51766 0.0
Zn159 Zn 0.05678 0.37213 0.52656 0.0
O160 O 0.06673 0.38183 0.57967 0.0
O161 O 0.09757 0.39065 0.57258 0.0
O162 O 0.04932 0.34549 0.5359 0.0
O163 O 0.08066 0.35045 0.54515 0.0
O164 O 0.10242 0.38051 0.48955 0.0
O165 O 0.07235 0.37212 0.47547 0.0
C166 C 0.08272 0.38866 0.59268 0.0
C167 C 0.08997 0.37594 0.46583 0.0
C168 C 0.66735 0.94418 0.52196 0.0
C169 C 0.59981 0.96012 0.55164 0.0
O170 O 0.65674 0.92877 0.52375 0.0
Zn171 Zn 0.62713 0.92201 0.53941 0.0
O172 O 0.66023 0.96032 0.53243 0.0
Zn173 Zn 0.63378 0.95159 0.54187 0.0
O174 O 0.63383 0.93712 0.59389 0.0
O175 O 0.62874 0.90611 0.58172 0.0
O176 O 0.61444 0.97148 0.54931 0.0
O177 O 0.6024 0.94158 0.54886 0.0
O178 O 0.61849 0.90894 0.4971 0.0
O179 O 0.6246 0.94036 0.48933 0.0
C180 C 0.63163 0.91945 0.60473 0.0
C181 C 0.61927 0.92374 0.47651 0.0
C182 C 0.06577 0.16626 0.76617 0.0
C183 C 0.0453 0.09997 0.79614 0.0
O184 O 0.08038 0.15451 0.767 0.0
Zn185 Zn 0.08502 0.1242 0.78177 0.0
O186 O 0.04923 0.16026 0.77693 0.0
Zn187 Zn 0.05614 0.13333 0.78548 0.0
O188 O 0.07158 0.13275 0.83663 0.0
O189 O 0.10166 0.12431 0.82287 0.0
O190 O 0.03496 0.11533 0.79394 0.0
O191 O 0.06391 0.10127 0.79257 0.0
O192 O 0.09664 0.11414 0.73927 0.0
O193 O 0.06609 0.12397 0.73211 0.0
C194 C 0.08914 0.12887 0.84651 0.0
C195 C 0.08194 0.11684 0.71904 0.0
C196 C 0.90553 0.54579 0.05364 0.0
C197 C 0.83954 0.56608 0.02078 0.0
O198 O 0.90422 0.56442 0.05021 0.0
Zn199 Zn 0.88119 0.58551 0.03857 0.0
O200 O 0.89022 0.5354 0.05079 0.0
Zn201 Zn 0.87232 0.55652 0.04183 0.0
O202 O 0.88275 0.56653 0.98916 0.0
O203 O 0.89173 0.5973 0.99649 0.0
O204 O 0.84537 0.54963 0.03224 0.0
O205 O 0.85128 0.58068 0.02185 0.0
O206 O 0.88011 0.60204 0.08003 0.0
O207 O 0.87258 0.57164 0.09317 0.0
C208 C 0.88984 0.58246 0.97627 0.0
C209 C 0.87586 0.58925 0.10338 0.0
C210 C 0.42142 0.38687 0.21509 0.0
C211 C 0.41287 0.37532 0.34233 0.0
O212 O 0.43741 0.38056 0.2291 0.0
Zn213 Zn 0.44668 0.37096 0.28288 0.0
O214 O 0.40629 0.38852 0.23457 0.0
Zn215 Zn 0.41772 0.37941 0.27775 0.0
O216 O 0.43833 0.40289 0.28882 0.0
O217 O 0.46742 0.38921 0.29256 0.0
O218 O 0.40059 0.37956 0.31806 0.0
O219 O 0.43057 0.37149 0.33332 0.0
O220 O 0.45413 0.34409 0.27488 0.0
O221 O 0.42299 0.34917 0.26402 0.0
C222 C 0.45685 0.40445 0.2936 0.0
C223 C 0.4378 0.33769 0.2639 0.0
H224 H 0.31652 0.03238 0.50054 0.0
H225 H 0.28712 0.03431 0.4634 0.0
H226 H 0.2916 0.09707 0.46153 0.0
H227 H 0.32134 0.09531 0.49833 0.0
H228 H 0.25178 0.08083 0.47232 0.0
H229 H 0.30734 0.07637 0.39249 0.0
H230 H 0.33818 0.06172 0.37133 0.0
H231 H 0.30891 0.00721 0.35271 0.0
H232 H 0.27793 0.02146 0.37425 0.0
H233 H 0.18524 0.09603 0.32891 0.0
H234 H 0.21484 0.09714 0.36571 0.0
H235 H 0.22192 0.03493 0.35313 0.0
H236 H 0.19255 0.03375 0.31577 0.0
H237 H 0.2564 0.05216 0.34975 0.0
H238 H 0.20164 0.05475 0.42941 0.0
H239 H 0.17052 0.06719 0.45372 0.0
H240 H 0.19736 0.12256 0.47586 0.0
H241 H 0.22858 0.11055 0.4511 0.0
C242 C 0.31114 0.04665 0.49277 0.0
C243 C 0.32136 0.0637 0.50238 0.0
C244 C 0.29434 0.0477 0.4714 0.0
C245 C 0.28727 0.06582 0.45947 0.0
C246 C 0.29683 0.08294 0.47044 0.0
C247 C 0.31383 0.0819 0.49144 0.0
C248 C 0.27057 0.06668 0.4339 0.0
C249 C 0.25284 0.07488 0.4453 0.0
C250 C 0.27184 0.0584 0.39903 0.0
C251 C 0.29035 0.04994 0.38531 0.0
C252 C 0.3075 0.06122 0.38411 0.0
C253 C 0.32501 0.053 0.37202 0.0
C254 C 0.32551 0.03353 0.36082 0.0
C255 C 0.30849 0.02228 0.36146 0.0
C256 C 0.29095 0.03043 0.37356 0.0
C257 C 0.19323 0.08261 0.33352 0.0
C258 C 0.18642 0.06478 0.31946 0.0
C259 C 0.2101 0.08325 0.35483 0.0
C260 C 0.22046 0.06606 0.36285 0.0
C261 C 0.21418 0.04838 0.34751 0.0
C262 C 0.19734 0.04774 0.3261 0.0
C263 C 0.23745 0.06636 0.38802 0.0
C264 C 0.25529 0.0583 0.37662 0.0
C265 C 0.23617 0.07454 0.42309 0.0
C266 C 0.21741 0.08182 0.43801 0.0
C267 C 0.20087 0.06964 0.43917 0.0
C268 C 0.18322 0.0766 0.45307 0.0
C269 C 0.18195 0.09567 0.46625 0.0
C270 C 0.19835 0.1078 0.46559 0.0
C271 C 0.21604 0.10093 0.45162 0.0
H272 H 0.16827 0.10102 0.47704 0.0
H273 H 0.33908 0.02716 0.35164 0.0
H274 H 0.97107 0.81683 0.75346 0.0
H275 H 0.97043 0.78678 0.718 0.0
H276 H 0.90791 0.79144 0.7077 0.0
H277 H 0.90839 0.82166 0.7431 0.0
H278 H 0.92101 0.75276 0.72036 0.0
H279 H 0.93458 0.80635 0.64038 0.0
H280 H 0.95225 0.83574 0.6201 0.0
H281 H 0.00555 0.80286 0.6141 0.0
H282 H 0.98825 0.77332 0.63487 0.0
H283 H 0.91126 0.68474 0.57763 0.0
H284 H 0.9096 0.71482 0.61299 0.0
H285 H 0.97249 0.71835 0.61311 0.0
H286 H 0.97424 0.68863 0.57685 0.0
H287 H 0.95813 0.75335 0.6055 0.0
H288 H 0.94545 0.69995 0.68605 0.0
H289 H 0.92853 0.67039 0.70773 0.0
H290 H 0.87468 0.70231 0.71448 0.0
H291 H 0.89121 0.73199 0.69227 0.0
C292 C 0.95712 0.81136 0.74418 0.0
C293 C 0.93978 0.82177 0.75104 0.0
C294 C 0.9568 0.79419 0.72372 0.0
C295 C 0.93916 0.78699 0.70976 0.0
C296 C 0.9217 0.79676 0.7181 0.0
C297 C 0.92201 0.81405 0.73835 0.0
C298 C 0.93912 0.76986 0.68504 0.0
C299 C 0.9289 0.75294 0.69501 0.0
C300 C 0.94975 0.76997 0.6523 0.0
C301 C 0.96015 0.78767 0.6395 0.0
C302 C 0.9501 0.80542 0.635 0.0
C303 C 0.96004 0.8221 0.62337 0.0
C304 C 0.98001 0.82118 0.61589 0.0
C305 C 0.99008 0.80355 0.61994 0.0
C306 C 0.98021 0.78684 0.63161 0.0
C307 C 0.92474 0.69205 0.58477 0.0
C308 C 0.94289 0.68418 0.57447 0.0
C309 C 0.92377 0.70919 0.60529 0.0
C310 C 0.94093 0.71869 0.61651 0.0
C311 C 0.95903 0.71129 0.60501 0.0
C312 C 0.96 0.69426 0.5842 0.0
C313 C 0.94012 0.73606 0.64082 0.0
C314 C 0.95019 0.75308 0.63078 0.0
C315 C 0.92947 0.73596 0.67364 0.0
C316 C 0.91953 0.71815 0.68716 0.0
C317 C 0.92997 0.70063 0.6919 0.0
C318 C 0.92046 0.68386 0.70431 0.0
C319 C 0.90054 0.68448 0.71242 0.0
C320 C 0.8901 0.70186 0.70815 0.0
C321 C 0.89954 0.71866 0.69566 0.0
H322 H 0.89321 0.67153 0.72213 0.0
H323 H 0.98769 0.83411 0.6069 0.0
H324 H 0.31492 0.41131 0.81117 0.0
H325 H 0.28458 0.41078 0.84623 0.0
H326 H 0.28642 0.47351 0.85525 0.0
H327 H 0.31653 0.47422 0.81985 0.0
H328 H 0.28208 0.4544 0.92153 0.0
H329 H 0.25345 0.45381 0.80384 0.0
H330 H 0.24718 0.44213 0.74209 0.0
H331 H 0.22697 0.38724 0.78376 0.0
H332 H 0.23347 0.39844 0.84577 0.0
H333 H 0.18904 0.47178 0.0003 0.0
H334 H 0.21854 0.47121 0.96339 0.0
H335 H 0.21048 0.40962 0.94416 0.0
H336 H 0.18071 0.41015 0.98052 0.0
H337 H 0.21817 0.42754 0.88298 0.0
H338 H 0.24716 0.42729 0.00015 0.0
H339 H 0.25309 0.43855 0.0623 0.0
H340 H 0.2726 0.49407 0.02235 0.0
H341 H 0.26653 0.48324 0.95994 0.0
C342 C 0.30869 0.42503 0.82008 0.0
C343 C 0.31819 0.44281 0.81265 0.0
C344 C 0.29134 0.42469 0.84011 0.0
C345 C 0.28325 0.4421 0.85343 0.0
C346 C 0.29242 0.4599 0.84529 0.0
C347 C 0.30959 0.46027 0.82485 0.0
C348 C 0.26592 0.44171 0.87764 0.0
C349 C 0.26803 0.44875 0.91297 0.0
C350 C 0.24775 0.4338 0.86681 0.0
C351 C 0.24424 0.42687 0.82947 0.0
C352 C 0.24794 0.43914 0.79984 0.0
C353 C 0.24428 0.43263 0.76478 0.0
C354 C 0.23676 0.41393 0.759 0.0
C355 C 0.23286 0.4017 0.78827 0.0
C356 C 0.23654 0.40812 0.82338 0.0
C357 C 0.19367 0.45803 0.98869 0.0
C358 C 0.18248 0.44099 0.99353 0.0
C359 C 0.21061 0.45772 0.96759 0.0
C360 C 0.21688 0.44034 0.9511 0.0
C361 C 0.20597 0.42322 0.95653 0.0
C362 C 0.18899 0.42352 0.97756 0.0
C363 C 0.23431 0.44022 0.92697 0.0
C364 C 0.23224 0.4331 0.89165 0.0
C365 C 0.25258 0.44793 0.93786 0.0
C366 C 0.25621 0.45451 0.97537 0.0
C367 C 0.25256 0.44196 0.00462 0.0
C368 C 0.25597 0.44825 0.0399 0.0
C369 C 0.26316 0.46703 0.04628 0.0
C370 C 0.267 0.47954 0.01737 0.0
C371 C 0.26359 0.47332 0.98204 0.0
H372 H 0.26581 0.47187 0.07361 0.0
H373 H 0.2339 0.40893 0.73184 0.0
H374 H 0.53674 0.81033 0.07049 0.0
H375 H 0.53703 0.78135 0.10895 0.0
H376 H 0.59812 0.79048 0.13146 0.0
H377 H 0.59805 0.81932 0.09252 0.0
H378 H 0.59037 0.75199 0.12479 0.0
H379 H 0.56333 0.80593 0.19061 0.0
H380 H 0.54092 0.83355 0.20108 0.0
H381 H 0.4918 0.79469 0.19585 0.0
H382 H 0.51391 0.76687 0.18485 0.0
H383 H 0.5928 0.68784 0.27374 0.0
H384 H 0.59484 0.71867 0.24043 0.0
H385 H 0.53319 0.71537 0.21714 0.0
H386 H 0.53089 0.68527 0.25202 0.0
H387 H 0.54278 0.75176 0.22564 0.0
H388 H 0.57101 0.69714 0.1618 0.0
H389 H 0.59436 0.66983 0.15798 0.0
H390 H 0.64225 0.71026 0.15962 0.0
H391 H 0.61923 0.73777 0.16567 0.0
C392 C 0.55033 0.80602 0.08313 0.0
C393 C 0.56734 0.81729 0.07855 0.0
C394 C 0.55045 0.78948 0.10532 0.0
C395 C 0.5675 0.78392 0.12376 0.0
C396 C 0.58476 0.79451 0.11771 0.0
C397 C 0.58468 0.81102 0.09539 0.0
C398 C 0.56706 0.76775 0.15071 0.0
C399 C 0.5801 0.75203 0.14704 0.0
C400 C 0.55359 0.76767 0.1797 0.0
C401 C 0.54027 0.78435 0.18658 0.0
C402 C 0.54774 0.8033 0.19145 0.0
C403 C 0.53509 0.81898 0.19752 0.0
C404 C 0.51494 0.81588 0.19905 0.0
C405 C 0.50741 0.79707 0.19461 0.0
C406 C 0.51999 0.78134 0.1885 0.0
C407 C 0.57962 0.69394 0.26218 0.0
C408 C 0.56172 0.68402 0.26528 0.0
C409 C 0.58081 0.71151 0.24293 0.0
C410 C 0.56429 0.7191 0.22524 0.0
C411 C 0.5462 0.70981 0.23023 0.0
C412 C 0.5449 0.69254 0.25022 0.0
C413 C 0.5659 0.73582 0.19953 0.0
C414 C 0.55306 0.75167 0.2034 0.0
C415 C 0.5796 0.73599 0.1708 0.0
C416 C 0.59337 0.71953 0.16466 0.0
C417 C 0.58652 0.70022 0.16162 0.0
C418 C 0.59971 0.68468 0.15938 0.0
C419 C 0.61978 0.6883 0.15862 0.0
C420 C 0.6267 0.70747 0.16029 0.0
C421 C 0.61359 0.72304 0.16341 0.0
H422 H 0.62995 0.67626 0.15653 0.0
H423 H 0.50518 0.82805 0.20374 0.0
H424 H 0.6741 0.59366 0.85483 0.0
H425 H 0.70418 0.59603 0.89024 0.0
H426 H 0.72358 0.54086 0.84727 0.0
H427 H 0.69341 0.53823 0.81207 0.0
H428 H 0.71744 0.56987 0.94345 0.0
H429 H 0.77442 0.54461 0.83886 0.0
H430 H 0.77962 0.54522 0.77308 0.0
H431 H 0.74408 0.59668 0.7645 0.0
H432 H 0.73891 0.59655 0.83026 0.0
H433 H 0.8089 0.54025 0.02199 0.0
H434 H 0.77853 0.54197 0.98715 0.0
H435 H 0.79645 0.59729 0.94269 0.0
H436 H 0.8267 0.59584 0.97769 0.0
H437 H 0.78389 0.57049 0.89023 0.0
H438 H 0.76174 0.59735 0.0028 0.0
H439 H 0.75669 0.59769 0.06859 0.0
H440 H 0.72256 0.54525 0.06121 0.0
H441 H 0.72764 0.54445 0.9954 0.0
C442 C 0.68485 0.58212 0.85255 0.0
C443 C 0.68134 0.56576 0.83052 0.0
C444 C 0.70199 0.58345 0.87301 0.0
C445 C 0.71614 0.56864 0.87142 0.0
C446 C 0.71291 0.55252 0.84879 0.0
C447 C 0.69565 0.55104 0.82868 0.0
C448 C 0.73402 0.5698 0.89414 0.0
C449 C 0.73197 0.57 0.9318 0.0
C450 C 0.75299 0.5701 0.879 0.0
C451 C 0.75612 0.57043 0.83945 0.0
C452 C 0.76777 0.55609 0.82294 0.0
C453 C 0.77071 0.55635 0.78566 0.0
C454 C 0.76213 0.57094 0.76461 0.0
C455 C 0.75065 0.58534 0.78082 0.0
C456 C 0.74768 0.58516 0.81809 0.0
C457 C 0.80627 0.55292 0.00517 0.0
C458 C 0.82023 0.56794 0.00276 0.0
C459 C 0.7889 0.55386 0.98525 0.0
C460 C 0.78523 0.56975 0.96226 0.0
C461 C 0.799 0.58488 0.96019 0.0
C462 C 0.81623 0.58408 0.98044 0.0
C463 C 0.76731 0.57031 0.93954 0.0
C464 C 0.76936 0.57035 0.90188 0.0
C465 C 0.74835 0.57026 0.95468 0.0
C466 C 0.74523 0.57075 0.99422 0.0
C467 C 0.7533 0.5858 0.01525 0.0
C468 C 0.7504 0.5861 0.05253 0.0
C469 C 0.73935 0.57148 0.06909 0.0
C470 C 0.73113 0.55656 0.04836 0.0
C471 C 0.734 0.55619 0.01106 0.0
H472 H 0.73712 0.57173 0.09796 0.0
H473 H 0.76442 0.57111 0.73575 0.0
H474 H 0.46644 0.3099 0.25807 0.0
H475 H 0.46554 0.2799 0.22245 0.0
H476 H 0.40547 0.29123 0.19454 0.0
H477 H 0.40614 0.32114 0.23054 0.0
H478 H 0.41186 0.25232 0.20608 0.0
H479 H 0.44172 0.30431 0.13949 0.0
H480 H 0.46549 0.33085 0.13019 0.0
H481 H 0.51263 0.28961 0.13515 0.0
H482 H 0.4892 0.26289 0.14591 0.0
H483 H 0.41035 0.18423 0.06144 0.0
H484 H 0.40775 0.21497 0.09491 0.0
H485 H 0.4695 0.21274 0.11792 0.0
H486 H 0.47232 0.1828 0.08284 0.0
H487 H 0.46041 0.24823 0.10716 0.0
H488 H 0.43029 0.19618 0.17622 0.0
H489 H 0.40617 0.16987 0.1857 0.0
H490 H 0.35941 0.21129 0.17656 0.0
H491 H 0.38313 0.2377 0.16547 0.0
C492 C 0.45292 0.30588 0.24489 0.0
C493 C 0.43641 0.31806 0.24697 0.0
C494 C 0.45246 0.28874 0.22437 0.0
C495 C 0.43555 0.28349 0.20522 0.0
C496 C 0.41871 0.29501 0.20892 0.0
C497 C 0.41914 0.31214 0.22953 0.0
C498 C 0.43583 0.26671 0.17965 0.0
C499 C 0.42234 0.25148 0.18421 0.0
C500 C 0.4496 0.26557 0.15124 0.0
C501 C 0.46368 0.28159 0.14389 0.0
C502 C 0.45716 0.3009 0.13896 0.0
C503 C 0.47058 0.31599 0.13346 0.0
C504 C 0.49055 0.31191 0.13204 0.0
C505 C 0.49715 0.29274 0.13625 0.0
C506 C 0.48381 0.27762 0.14217 0.0
C507 C 0.42341 0.1905 0.07317 0.0
C508 C 0.44153 0.18104 0.06955 0.0
C509 C 0.42189 0.20799 0.09261 0.0
C510 C 0.43833 0.21601 0.10992 0.0
C511 C 0.45655 0.20692 0.10506 0.0
C512 C 0.45815 0.18974 0.08493 0.0
C513 C 0.43672 0.23346 0.13396 0.0
C514 C 0.44992 0.24895 0.12902 0.0
C515 C 0.42269 0.23479 0.16206 0.0
C516 C 0.4085 0.21891 0.16963 0.0
C517 C 0.41486 0.19967 0.176 0.0
C518 C 0.40127 0.18473 0.18164 0.0
C519 C 0.38131 0.18893 0.18188 0.0
C520 C 0.37488 0.20806 0.17636 0.0
C521 C 0.38838 0.223 0.17024 0.0
H522 H 0.37082 0.17735 0.18634 0.0
H523 H 0.5009 0.32361 0.12763 0.0
H524 H 0.81872 0.97685 0.32576 0.0
H525 H 0.78914 0.97563 0.36258 0.0
H526 H 0.7891 0.91279 0.35607 0.0
H527 H 0.81897 0.91383 0.31958 0.0
H528 H 0.7508 0.93147 0.3478 0.0
H529 H 0.80629 0.93039 0.42771 0.0
H530 H 0.83768 0.94232 0.45169 0.0
H531 H 0.81125 0.99742 0.47767 0.0
H532 H 0.77976 0.98591 0.45328 0.0
H533 H 0.68519 0.9126 0.49085 0.0
H534 H 0.71447 0.91242 0.45324 0.0
H535 H 0.72212 0.97408 0.47206 0.0
H536 H 0.69292 0.97437 0.51005 0.0
H537 H 0.75667 0.95558 0.47349 0.0
H538 H 0.70158 0.95777 0.39479 0.0
H539 H 0.66997 0.94734 0.36949 0.0
H540 H 0.6949 0.89217 0.33941 0.0
H541 H 0.7266 0.90214 0.36513 0.0
C542 C 0.81229 0.96276 0.33163 0.0
C543 C 0.82129 0.94542 0.31976 0.0
C544 C 0.79541 0.9621 0.35283 0.0
C545 C 0.78702 0.94412 0.36233 0.0
C546 C 0.79536 0.92682 0.34907 0.0
C547 C 0.81244 0.92745 0.32825 0.0
C548 C 0.7702 0.94343 0.38769 0.0
C549 C 0.75211 0.93646 0.37543 0.0
C550 C 0.77182 0.95044 0.42346 0.0
C551 C 0.79071 0.95736 0.43831 0.0
C552 C 0.80721 0.94511 0.43823 0.0
C553 C 0.82501 0.95178 0.45195 0.0
C554 C 0.82647 0.97063 0.46612 0.0
C555 C 0.8101 0.98283 0.46665 0.0
C556 C 0.79227 0.97624 0.45289 0.0
C557 C 0.69323 0.92609 0.48748 0.0
C558 C 0.6866 0.94353 0.50344 0.0
C559 C 0.70992 0.92598 0.46569 0.0
C560 C 0.72033 0.94331 0.45921 0.0
C561 C 0.7143 0.96054 0.47647 0.0
C562 C 0.69758 0.96068 0.49826 0.0
C563 C 0.73716 0.94356 0.43373 0.0
C564 C 0.75529 0.9505 0.44591 0.0
C565 C 0.7355 0.9367 0.39777 0.0
C566 C 0.71644 0.93063 0.38227 0.0
C567 C 0.70029 0.94334 0.38309 0.0
C568 C 0.68235 0.93752 0.36862 0.0
C569 C 0.68041 0.91908 0.35293 0.0
C570 C 0.69642 0.90644 0.35163 0.0
C571 C 0.71438 0.91217 0.36615 0.0
H572 H 0.66652 0.91462 0.3417 0.0
H573 H 0.84026 0.97576 0.47675 0.0
H574 H 0.03584 0.31605 0.57001 0.0
H575 H 0.03805 0.28671 0.60727 0.0
H576 H 0.10085 0.28874 0.6009 0.0
H577 H 0.09882 0.31847 0.56407 0.0
H578 H 0.08176 0.24913 0.59334 0.0
H579 H 0.08521 0.30543 0.67088 0.0
H580 H 0.07418 0.33752 0.69314 0.0
H581 H 0.01885 0.31278 0.72278 0.0
H582 H 0.02943 0.28061 0.70002 0.0
H583 H 0.09843 0.18262 0.73596 0.0
H584 H 0.1003 0.21232 0.69954 0.0
H585 H 0.03916 0.22324 0.71867 0.0
H586 H 0.03722 0.19374 0.7556 0.0
H587 H 0.0593 0.25684 0.71978 0.0
H588 H 0.05441 0.2014 0.64125 0.0
H589 H 0.06401 0.1691 0.61785 0.0
H590 H 0.12036 0.19164 0.58887 0.0
H591 H 0.11118 0.22406 0.61258 0.0
C592 C 0.05015 0.31012 0.57593 0.0
C593 C 0.06717 0.31968 0.5641 0.0
C594 C 0.05137 0.29336 0.59735 0.0
C595 C 0.06961 0.28564 0.60702 0.0
C596 C 0.08663 0.29448 0.5937 0.0
C597 C 0.08544 0.31147 0.57271 0.0
C598 C 0.07076 0.2692 0.63307 0.0
C599 C 0.07717 0.25084 0.62114 0.0
C600 C 0.06434 0.27139 0.6691 0.0
C601 C 0.05805 0.29064 0.6834 0.0
C602 C 0.07063 0.30686 0.68185 0.0
C603 C 0.06447 0.32507 0.6946 0.0
C604 C 0.04581 0.3272 0.70928 0.0
C605 C 0.0333 0.31111 0.71135 0.0
C606 C 0.03937 0.29289 0.69854 0.0
C607 C 0.08544 0.19149 0.73295 0.0
C608 C 0.06763 0.18568 0.74857 0.0
C609 C 0.08651 0.20843 0.71189 0.0
C610 C 0.06978 0.21985 0.70574 0.0
C611 C 0.05225 0.21465 0.72286 0.0
C612 C 0.05116 0.19774 0.74399 0.0
C613 C 0.07028 0.23663 0.68015 0.0
C614 C 0.06409 0.25508 0.6921 0.0
C615 C 0.07675 0.23446 0.64404 0.0
C616 C 0.08218 0.21511 0.62904 0.0
C617 C 0.06889 0.19945 0.63008 0.0
C618 C 0.07425 0.18111 0.61675 0.0
C619 C 0.09281 0.17829 0.602 0.0
C620 C 0.106 0.19384 0.60037 0.0
C621 C 0.10072 0.2122 0.61372 0.0
H622 H 0.09695 0.16408 0.59176 0.0
H623 H 0.04107 0.34131 0.71913 0.0
H624 H 0.06504 0.06412 0.2755 0.0
H625 H 0.0326 0.04934 0.27181 0.0
H626 H 0.05859 0.99361 0.24687 0.0
H627 H 0.09118 0.00824 0.25078 0.0
H628 H 0.0258 1.00166 0.20443 0.0
H629 H 0.04342 0.99986 0.32803 0.0
H630 H 0.05493 0.01196 0.38685 0.0
H631 H 0.00692 0.05222 0.39134 0.0
H632 H 0.99525 0.04054 0.33219 0.0
H633 H 0.94155 0.94368 0.25132 0.0
H634 H 0.9744 0.95765 0.24644 0.0
H635 H 0.95117 0.01483 0.2695 0.0
H636 H 0.91834 1.00107 0.27415 0.0
H637 H 0.98311 0.00493 0.31229 0.0
H638 H 0.96542 0.00457 0.18666 0.0
H639 H 0.95434 0.98985 0.12958 0.0
H640 H 0.00326 0.95065 0.13095 0.0
H641 H 0.01449 0.96494 0.18837 0.0
C642 C 0.06389 0.04875 0.26893 0.0
C643 C 0.08073 0.03734 0.26361 0.0
C644 C 0.04533 0.04031 0.26695 0.0
C645 C 0.04319 0.02034 0.25935 0.0
C646 C 0.05991 0.00904 0.25278 0.0
C647 C 0.07852 0.01742 0.25516 0.0
C648 C 0.0235 0.01119 0.25957 0.0
C649 C 0.01653 1.00217 0.22812 0.0
C650 C 0.01137 0.01197 0.2904 0.0
C651 C 0.01858 0.01947 0.32548 0.0
C652 C 0.03544 0.01147 0.34133 0.0
C653 C 0.04196 0.0182 0.37478 0.0
C654 C 0.03166 0.03283 0.39281 0.0
C655 C 0.01487 0.04086 0.37733 0.0
C656 C 0.00829 0.03419 0.34384 0.0
C657 C 0.94341 0.95926 0.25504 0.0
C658 C 0.92731 0.97125 0.2632 0.0
C659 C 0.96218 0.96723 0.25212 0.0
C660 C 0.96522 0.9873 0.25754 0.0
C661 C 0.94915 0.99931 0.26522 0.0
C662 C 0.93038 0.99141 0.26775 0.0
C663 C 0.98523 0.99568 0.25698 0.0
C664 C 0.99232 0.00449 0.28852 0.0
C665 C 0.99752 0.99442 0.22639 0.0
C666 C 0.9907 0.98571 0.19201 0.0
C667 C 0.97372 0.99269 0.17499 0.0
C668 C 0.96744 0.98446 0.14251 0.0
C669 C 0.97811 0.96935 0.12663 0.0
C670 C 0.99504 0.96239 0.14325 0.0
C671 C 1.00137 0.97054 0.17576 0.0
H672 H 0.97325 0.96303 0.10145 0.0
H673 H 0.03666 0.03788 0.41887 0.0
H674 H 0.99961 0.58788 0.51317 0.0
H675 H 0.01348 0.55511 0.50721 0.0
H676 H 0.95602 0.53006 0.51827 0.0
H677 H 0.94203 0.56274 0.5244 0.0
H678 H 0.9826 0.51194 0.56145 0.0
H679 H 0.97831 0.53098 0.43715 0.0
H680 H 0.98381 0.55232 0.3846 0.0
H681 H 0.04582 0.54673 0.39826 0.0
H682 H 0.04069 0.52557 0.45124 0.0
H683 H 0.00749 0.41485 0.51558 0.0
H684 H 0.99278 0.44736 0.51285 0.0
H685 H 0.04995 0.47317 0.50288 0.0
H686 H 0.06481 0.44071 0.50548 0.0
H687 H 0.02325 0.49075 0.45789 0.0
H688 H 0.02837 0.47335 0.58214 0.0
H689 H 0.02406 0.45233 0.63535 0.0
H690 H 0.96177 0.45557 0.62329 0.0
H691 H 0.96574 0.47638 0.56946 0.0
C692 C 0.98989 0.57542 0.51409 0.0
C693 C 0.96969 0.57797 0.51925 0.0
C694 C 0.99784 0.55668 0.51055 0.0
C695 C 0.98578 0.54011 0.51205 0.0
C696 C 0.96561 0.54262 0.517 0.0
C697 C 0.95763 0.56134 0.52037 0.0
C698 C 0.99425 0.52015 0.50971 0.0
C699 C 0.99121 0.50721 0.53852 0.0
C700 C 0.00598 0.51415 0.48029 0.0
C701 C 0.00911 0.52684 0.44839 0.0
C702 C 0.99312 0.53443 0.42914 0.0
C703 C 0.99617 0.54647 0.39923 0.0
C704 C 0.01515 0.55092 0.38815 0.0
C705 C 0.03113 0.54329 0.4069 0.0
C706 C 0.02816 0.53126 0.43685 0.0
C707 C 0.01695 0.42741 0.51246 0.0
C708 C 0.03735 0.42515 0.51098 0.0
C709 C 0.00851 0.446 0.51102 0.0
C710 C 0.02028 0.46272 0.50806 0.0
C711 C 0.04059 0.46048 0.5052 0.0
C712 C 0.04906 0.4419 0.50683 0.0
C713 C 0.01147 0.48255 0.50951 0.0
C714 C 0.01452 0.49547 0.48068 0.0
C715 C 0.99986 0.48862 0.53903 0.0
C716 C 0.99736 0.47624 0.57153 0.0
C717 C 0.01375 0.46945 0.59064 0.0
C718 C 0.01137 0.45759 0.62096 0.0
C719 C 0.99264 0.45256 0.6327 0.0
C720 C 0.97626 0.45945 0.61414 0.0
C721 C 0.97857 0.47128 0.58371 0.0
H722 H 0.99083 0.44337 0.6562 0.0
H723 H 0.01749 0.56024 0.36498 0.0
H724 H 0.44004 0.43755 0.76726 0.0
H725 H 0.47315 0.45076 0.7636 0.0
H726 H 0.44974 0.50863 0.74821 0.0
H727 H 0.41655 0.49555 0.75168 0.0
H728 H 0.4811 0.50124 0.70344 0.0
H729 H 0.4654 0.49523 0.82932 0.0
H730 H 0.45446 0.47777 0.88382 0.0
H731 H 0.50237 0.43769 0.87361 0.0
H732 H 0.51341 0.45473 0.81866 0.0
H733 H 0.5629 0.55904 0.75533 0.0
H734 H 0.53107 0.54338 0.74814 0.0
H735 H 0.55728 0.48711 0.76795 0.0
H736 H 0.5892 0.50267 0.77533 0.0
H737 H 0.52504 0.49235 0.80851 0.0
H738 H 0.54186 0.49916 0.68447 0.0
H739 H 0.55231 0.51569 0.62869 0.0
H740 H 0.50259 0.55375 0.63458 0.0
H741 H 0.49197 0.53764 0.69074 0.0
C742 C 0.4419 0.45307 0.76279 0.0
C743 C 0.42561 0.4655 0.75998 0.0
C744 C 0.46086 0.4606 0.76082 0.0
C745 C 0.46392 0.48071 0.75602 0.0
C746 C 0.44771 0.49307 0.75196 0.0
C747 C 0.42874 0.48556 0.75409 0.0
C748 C 0.48399 0.48897 0.75658 0.0
C749 C 0.49065 0.4995 0.72654 0.0
C750 C 0.4966 0.48627 0.7864 0.0
C751 C 0.49011 0.47613 0.81965 0.0
C752 C 0.47351 0.4826 0.83853 0.0
C753 C 0.4673 0.47279 0.86953 0.0
C754 C 0.47768 0.4566 0.88211 0.0
C755 C 0.49432 0.45022 0.86379 0.0
C756 C 0.50057 0.45995 0.83272 0.0
C757 C 0.56195 0.5433 0.75784 0.0
C758 C 0.57862 0.53212 0.76602 0.0
C759 C 0.54374 0.53436 0.75355 0.0
C760 C 0.54178 0.51405 0.75734 0.0
C761 C 0.55844 0.50281 0.76491 0.0
C762 C 0.57669 0.51172 0.76899 0.0
C763 C 0.5222 0.50471 0.75535 0.0
C764 C 0.51558 0.49402 0.78525 0.0
C765 C 0.50965 0.50726 0.72537 0.0
C766 C 0.5162 0.51728 0.69201 0.0
C767 C 0.53325 0.51118 0.6741 0.0
C768 C 0.53917 0.52043 0.64234 0.0
C769 C 0.52808 0.53572 0.62806 0.0
C770 C 0.51112 0.54186 0.64563 0.0
C771 C 0.50514 0.53267 0.67742 0.0
H772 H 0.53266 0.54282 0.60341 0.0
H773 H 0.47284 0.44902 0.90611 0.0
H774 H 0.51113 0.91341 0.02096 0.0
H775 H 0.49711 0.94609 0.01602 0.0
H776 H 0.55485 0.97118 0.01909 0.0
H777 H 0.56903 0.93849 0.02442 0.0
H778 H 0.53049 0.98996 0.06419 0.0
H779 H 0.52891 0.9698 0.9408 0.0
H780 H 0.52137 0.94802 0.88976 0.0
H781 H 0.4601 0.9529 0.91268 0.0
H782 H 0.46729 0.9745 0.96421 0.0
H783 H 0.50108 0.08613 0.01946 0.0
H784 H 0.51636 0.05393 0.01612 0.0
H785 H 0.45954 0.02679 0.01609 0.0
H786 H 0.44409 0.05898 0.01917 0.0
H787 H 0.48422 0.00944 0.96772 0.0
H788 H 0.48584 0.0284 0.09226 0.0
H789 H 0.4932 0.05007 0.14355 0.0
H790 H 0.55435 0.04721 0.11853 0.0
H791 H 0.54732 0.02574 0.06672 0.0
C792 C 0.5209 0.92585 0.02034 0.0
C793 C 0.54123 0.9233 0.02308 0.0
C794 C 0.51284 0.94454 0.01735 0.0
C795 C 0.52492 0.96111 0.01686 0.0
C796 C 0.54523 0.95862 0.01937 0.0
C797 C 0.55332 0.9399 0.0223 0.0
C798 C 0.51629 0.98103 0.01508 0.0
C799 C 0.52063 0.99432 0.04274 0.0
C800 C 0.50304 0.98658 0.9876 0.0
C801 C 0.49866 0.97363 0.95659 0.0
C802 C 0.51383 0.9661 0.93515 0.0
C803 C 0.50962 0.95381 0.90609 0.0
C804 C 0.49027 0.94904 0.89804 0.0
C805 C 0.47509 0.95659 0.91898 0.0
C806 C 0.47922 0.96888 0.94809 0.0
C807 C 0.4918 0.07334 0.01849 0.0
C808 C 0.47134 0.07516 0.0198 0.0
C809 C 0.50057 0.05492 0.01671 0.0
C810 C 0.48911 0.03793 0.01632 0.0
C811 C 0.46868 0.0397 0.01644 0.0
C812 C 0.45988 0.05812 0.01831 0.0
C813 C 0.49842 0.01831 0.01682 0.0
C814 C 0.49417 0.00509 0.98901 0.0
C815 C 0.51175 0.01278 0.04417 0.0
C816 C 0.51603 0.02563 0.07538 0.0
C817 C 0.50084 0.03252 0.09751 0.0
C818 C 0.50495 0.04474 0.12671 0.0
C819 C 0.52423 0.05006 0.13423 0.0
C820 C 0.53943 0.04311 0.11263 0.0
C821 C 0.53539 0.03091 0.08336 0.0
H822 H 0.52739 0.05952 0.15685 0.0
H823 H 0.48704 0.93953 0.87553 0.0
H824 H 0.08711 0.49716 0.06098 0.0
H825 H 0.05442 0.51118 0.06721 0.0
H826 H 0.02899 0.45411 0.05269 0.0
H827 H 0.06158 0.43998 0.04627 0.0
H828 H 0.01146 0.48097 0.01038 0.0
H829 H 0.02837 0.47527 0.13506 0.0
H830 H 0.0488 0.47955 0.18916 0.0
H831 H 0.04565 0.54184 0.17718 0.0
H832 H 0.02523 0.53793 0.12283 0.0
H833 H 0.91425 0.50673 0.05428 0.0
H834 H 0.94655 0.49162 0.058 0.0
H835 H 0.973 0.54849 0.06812 0.0
H836 H 0.94075 0.56376 0.06456 0.0
H837 H 0.98979 0.52133 0.11399 0.0
H838 H 0.97249 0.52654 0.98893 0.0
H839 H 0.95139 0.52176 0.93586 0.0
H840 H 0.95555 0.45958 0.94854 0.0
H841 H 0.97628 0.46398 0.00232 0.0
C842 C 0.07458 0.48755 0.05941 0.0
C843 C 0.07699 0.46744 0.05307 0.0
C844 C 0.05589 0.49559 0.06312 0.0
C845 C 0.03924 0.48368 0.0606 0.0
C846 C 0.04162 0.46358 0.05471 0.0
C847 C 0.06029 0.45552 0.05116 0.0
C848 C 0.01934 0.4923 0.06254 0.0
C849 C 0.00662 0.48953 0.03331 0.0
C850 C 0.01317 0.50386 0.09205 0.0
C851 C 0.02544 0.5063 0.12467 0.0
C852 C 0.03216 0.48988 0.14379 0.0
C853 C 0.04372 0.49224 0.17453 0.0
C854 C 0.04862 0.51095 0.1865 0.0
C855 C 0.04188 0.52735 0.16783 0.0
C856 C 0.03027 0.52508 0.13711 0.0
C857 C 0.9269 0.51604 0.05764 0.0
C858 C 0.9249 0.53648 0.05886 0.0
C859 C 0.94537 0.50737 0.05967 0.0
C860 C 0.96221 0.51894 0.06292 0.0
C861 C 0.96021 0.53929 0.06556 0.0
C862 C 0.94175 0.54798 0.06338 0.0
C863 C 0.98193 0.5099 0.06191 0.0
C864 C 0.99462 0.51267 0.09118 0.0
C865 C 0.98809 0.49828 0.03245 0.0
C866 C 0.97577 0.4956 -9e-05 0.0
C867 C 0.96877 0.51185 0.98061 0.0
C868 C 0.9569 0.50921 0.95036 0.0
C869 C 0.95213 0.49038 0.93883 0.0
C870 C 0.95924 0.47415 0.95753 0.0
C871 C 0.97103 0.47671 0.98792 0.0
H872 H 0.94295 0.48837 0.91537 0.0
H873 H 0.05758 0.51274 0.2103 0.0
H874 H 0.49549 0.41327 0.30437 0.0
H875 H 0.51029 0.44565 0.30943 0.0
H876 H 0.45343 0.47224 0.29959 0.0
H877 H 0.43853 0.43995 0.29416 0.0
H878 H 0.47919 0.48963 0.25595 0.0
H879 H 0.47705 0.47157 0.38049 0.0
H880 H 0.48274 0.45057 0.43341 0.0
H881 H 0.54461 0.45338 0.41539 0.0
H882 H 0.53928 0.47433 0.36216 0.0
H883 H 0.50511 0.58609 0.30393 0.0
H884 H 0.49081 0.55343 0.30589 0.0
H885 H 0.5484 0.528 0.30806 0.0
H886 H 0.5629 0.56069 0.30616 0.0
H887 H 0.52268 0.50999 0.3561 0.0
H888 H 0.52423 0.52853 0.23126 0.0
H889 H 0.51794 0.55003 0.17921 0.0
H890 H 0.45624 0.54637 0.19865 0.0
H891 H 0.46218 0.52507 0.25118 0.0
C892 C 0.4861 0.42599 0.30355 0.0
C893 C 0.46581 0.42399 0.29881 0.0
C894 C 0.49458 0.44451 0.30659 0.0
C895 C 0.48296 0.4614 0.30511 0.0
C896 C 0.46269 0.45942 0.30077 0.0
C897 C 0.4542 0.44093 0.29778 0.0
C898 C 0.49197 0.48114 0.30665 0.0
C899 C 0.48847 0.49416 0.27813 0.0
C900 C 0.50447 0.48693 0.33513 0.0
C901 C 0.50775 0.47435 0.36712 0.0
C902 C 0.49186 0.46758 0.38764 0.0
C903 C 0.49502 0.45571 0.41773 0.0
C904 C 0.51402 0.45055 0.42767 0.0
C905 C 0.5299 0.45735 0.40762 0.0
C906 C 0.52682 0.46926 0.37753 0.0
C907 C 0.51477 0.57358 0.30504 0.0
C908 C 0.53517 0.57603 0.30467 0.0
C909 C 0.50656 0.55491 0.30607 0.0
C910 C 0.51854 0.53827 0.30674 0.0
C911 C 0.53889 0.54064 0.30749 0.0
C912 C 0.54715 0.55934 0.30627 0.0
C913 C 0.50977 0.51844 0.30553 0.0
C914 C 0.51338 0.50542 0.33399 0.0
C915 C 0.49728 0.51265 0.27707 0.0
C916 C 0.49367 0.52536 0.24537 0.0
C917 C 0.50933 0.53244 0.22461 0.0
C918 C 0.50583 0.54456 0.195 0.0
C919 C 0.48671 0.5496 0.18569 0.0
C920 C 0.47105 0.54248 0.20593 0.0
C921 C 0.47447 0.53036 0.23561 0.0
H922 H 0.48403 0.55899 0.16274 0.0
H923 H 0.51642 0.44135 0.45096 0.0
H924 H 0.44143 0.06098 0.56493 0.0
H925 H 0.47384 0.04631 0.56875 0.0
H926 H 0.4483 0.98886 0.56213 0.0
H927 H 0.41568 0.00344 0.55878 0.0
H928 H 0.47864 0.98992 0.61035 0.0
H929 H 0.46713 0.00948 0.48817 0.0
H930 H 0.45779 0.03246 0.43999 0.0
H931 H 0.50539 0.07012 0.46894 0.0
H932 H 0.51483 0.0475 0.51772 0.0
H933 H 0.56522 0.9401 0.55508 0.0
H934 H 0.53227 0.95361 0.5595 0.0
H935 H 0.55613 0.01188 0.56283 0.0
H936 H 0.58912 0.99851 0.55789 0.0
H937 H 0.52626 0.00982 0.51647 0.0
H938 H 0.53786 0.98973 0.63877 0.0
H939 H 0.54689 0.96648 0.68672 0.0
H940 H 0.4991 0.92929 0.65679 0.0
H941 H 0.48994 0.95219 0.6083 0.0
C942 C 0.44264 0.04521 0.56462 0.0
C943 C 0.42594 0.03339 0.56116 0.0
C944 C 0.46121 0.03684 0.56673 0.0
C945 C 0.46353 0.01649 0.56508 0.0
C946 C 0.44686 0.0046 0.56331 0.0
C947 C 0.42822 0.01297 0.56131 0.0
C948 C 0.48339 0.00777 0.56339 0.0
C949 C 0.48899 0.99408 0.58959 0.0
C950 C 0.49699 0.01342 0.53658 0.0
C951 C 0.49158 0.02688 0.50683 0.0
C952 C 0.47553 0.02272 0.48442 0.0
C953 C 0.47022 0.03568 0.45699 0.0
C954 C 0.48096 0.05276 0.45147 0.0
C955 C 0.49707 0.05689 0.47328 0.0
C956 C 0.50242 0.044 0.50082 0.0
C957 C 0.56349 0.95579 0.55699 0.0
C958 C 0.57985 0.96822 0.55616 0.0
C959 C 0.54462 0.9635 0.55964 0.0
C960 C 0.5417 0.98377 0.56181 0.0
C961 C 0.55801 0.99619 0.56119 0.0
C962 C 0.57688 0.98851 0.55849 0.0
C963 C 0.52165 0.99209 0.56367 0.0
C964 C 0.51597 0.00567 0.53732 0.0
C965 C 0.50799 0.98627 0.59026 0.0
C966 C 0.51332 0.97259 0.61968 0.0
C967 C 0.52935 0.97653 0.64225 0.0
C968 C 0.53449 0.96342 0.66955 0.0
C969 C 0.52361 0.94639 0.67473 0.0
C970 C 0.50753 0.94247 0.65271 0.0
C971 C 0.50235 0.95552 0.62534 0.0
H972 H 0.52762 0.93625 0.69586 0.0
H973 H 0.47681 0.06279 0.43024 0.0
H974 H 0.06342 0.06468 0.8044 0.0
H975 H 0.04832 0.03247 0.80844 0.0
H976 H 0.99121 0.05884 0.8024 0.0
H977 H 0.00622 0.09124 0.79893 0.0
H978 H 0.9918 0.02947 0.85124 0.0
H979 H 0.01176 0.03825 0.72841 0.0
H980 H 0.03486 0.04585 0.67941 0.0
H981 H 0.07124 0.99785 0.71167 0.0
H982 H 0.04849 0.99013 0.76123 0.0
H983 H 0.93945 0.94392 0.79882 0.0
H984 H 0.95409 0.97641 0.80256 0.0
H985 H 0.01142 0.9505 0.80855 0.0
H986 H 0.99692 0.91795 0.80443 0.0
H987 H 0.01053 0.97974 0.76033 0.0
H988 H 0.99 0.97068 0.88283 0.0
H989 H 0.96667 0.96322 0.93153 0.0
H990 H 0.93094 0.01172 0.89931 0.0
H991 H 0.95394 0.01931 0.85007 0.0
C992 C 0.04764 0.06369 0.80417 0.0
C993 C 0.03604 0.08056 0.80106 0.0
C994 C 0.03902 0.04523 0.80636 0.0
C995 C 0.01863 0.0432 0.80512 0.0
C996 C 0.00697 0.06004 0.80328 0.0
C997 C 0.01559 0.07855 0.80121 0.0
C998 C 0.00954 0.02347 0.80462 0.0
C999 C 0.99571 0.01867 0.83111 0.0
C1000 C 0.0149 0.00924 0.77875 0.0
C1001 C 0.02851 0.01373 0.74875 0.0
C1002 C 0.02476 0.0294 0.72521 0.0
C1003 C 0.03778 0.03372 0.69732 0.0
C1004 C 0.05453 0.02237 0.69249 0.0
C1005 C 0.05827 0.00664 0.71548 0.0
C1006 C 0.04531 1.00228 0.74346 0.0
C1007 C 0.95517 0.9451 0.80121 0.0
C1008 C 0.967 0.9283 0.80134 0.0
C1009 C 0.96352 0.96371 0.80348 0.0
C1010 C 0.98386 0.96591 0.80611 0.0
C1011 C 0.99569 0.94916 0.80654 0.0
C1012 C 0.98736 0.93055 0.8043 0.0
C1013 C 0.99286 0.98566 0.80709 0.0
C1014 C 0.00665 0.9905 0.78056 0.0
C1015 C 0.9874 0.99991 0.83285 0.0
C1016 C 0.9736 0.99544 0.86254 0.0
C1017 C 0.97709 0.97966 0.88595 0.0
C1018 C 0.96394 0.97543 0.91368 0.0
C1019 C 0.94731 0.98696 0.91846 0.0
C1020 C 0.94382 0.00279 0.89556 0.0
C1021 C 0.95692 0.00707 0.86775 0.0
H1022 H 0.93715 0.98366 0.93994 0.0
H1023 H 0.0646 0.02575 0.67089 0.0
H1024 H 0.10095 0.08633 0.68861 0.0
H1025 H 0.10497 0.07953 0.62441 0.0
H1026 H 0.07135 0.13107 0.59863 0.0
H1027 H 0.06627 0.13713 0.66304 0.0
H1028 H 0.06242 0.10486 0.55351 0.0
H1029 H 0.12317 0.12939 0.59584 0.0
H1030 H 0.15235 0.13177 0.63452 0.0
H1031 H 0.16967 0.07393 0.60327 0.0
H1032 H 0.14043 0.07108 0.56479 0.0
H1033 H 0.10053 0.11503 0.37524 0.0
H1034 H 0.09266 0.11966 0.4388 0.0
H1035 H 0.11475 0.0621 0.46274 0.0
H1036 H 0.12279 0.05733 0.39906 0.0
H1037 H 0.12916 0.09147 0.50775 0.0
H1038 H 0.06672 0.07081 0.45905 0.0
H1039 H 0.03895 0.07366 0.41706 0.0
H1040 H 0.02606 0.13082 0.45794 0.0
H1041 H 0.05413 0.12866 0.49935 0.0
C1042 C 0.09431 0.09608 0.66914 0.0
C1043 C 0.08339 0.11227 0.6805 0.0
C1044 C 0.09671 0.09229 0.6325 0.0
C1045 C 0.0889 0.10507 0.60662 0.0
C1046 C 0.07757 0.12102 0.61805 0.0
C1047 C 0.07468 0.1245 0.65477 0.0
C1048 C 0.09281 0.10191 0.56772 0.0
C1049 C 0.07705 0.10215 0.5435 0.0
C1050 C 0.1119 0.09831 0.55454 0.0
C1051 C 0.12949 0.09994 0.57775 0.0
C1052 C 0.13311 0.11711 0.59745 0.0
C1053 C 0.14968 0.11856 0.6193 0.0
C1054 C 0.16282 0.10299 0.62144 0.0
C1055 C 0.15946 0.08596 0.60164 0.0
C1056 C 0.14289 0.08443 0.5798 0.0
C1057 C 0.10363 0.10329 0.39395 0.0
C1058 C 0.11227 0.08579 0.38214 0.0
C1059 C 0.09904 0.10595 0.43021 0.0
C1060 C 0.10295 0.09115 0.45527 0.0
C1061 C 0.11154 0.07365 0.44365 0.0
C1062 C 0.11607 0.07093 0.40731 0.0
C1063 C 0.09878 0.09424 0.49388 0.0
C1064 C 0.11454 0.09407 0.51796 0.0
C1065 C 0.0798 0.09857 0.50663 0.0
C1066 C 0.06266 0.09962 0.48216 0.0
C1067 C 0.05807 0.08405 0.45893 0.0
C1068 C 0.04226 0.08553 0.43524 0.0
C1069 C 0.03073 0.10236 0.4349 0.0
C1070 C 0.035 0.11778 0.45823 0.0
C1071 C 0.05088 0.11645 0.48178 0.0
H1072 H 0.01849 0.10344 0.41655 0.0
H1073 H 0.17565 0.10414 0.63836 0.0
H1074 H 0.89834 0.5908 0.63108 0.0
H1075 H 0.89412 0.58313 0.69486 0.0
H1076 H 0.94176 0.62179 0.7216 0.0
H1077 H 0.9466 0.62881 0.65752 0.0
H1078 H 0.94385 0.59099 0.76205 0.0
H1079 H 0.89311 0.63532 0.73063 0.0
H1080 H 0.86522 0.64831 0.69603 0.0
H1081 H 0.83121 0.59784 0.7239 0.0
H1082 H 0.859 0.58443 0.75825 0.0
H1083 H 0.91411 0.60896 0.94474 0.0
H1084 H 0.92187 0.61209 0.88061 0.0
H1085 H 0.8854 0.56238 0.85704 0.0
H1086 H 0.8778 0.55891 0.92127 0.0
H1087 H 0.87787 0.59804 0.81579 0.0
H1088 H 0.93068 0.5549 0.8495 0.0
H1089 H 0.95902 0.54475 0.88596 0.0
H1090 H 0.98936 0.59724 0.85653 0.0
H1091 H 0.96113 0.60779 0.82006 0.0
C1092 C 0.90797 0.59758 0.65057 0.0
C1093 C 0.92272 0.61047 0.63947 0.0
C1094 C 0.9055 0.59325 0.687 0.0
C1095 C 0.91737 0.60218 0.71309 0.0
C1096 C 0.93242 0.61474 0.70196 0.0
C1097 C 0.93515 0.61877 0.66539 0.0
C1098 C 0.9138 0.5987 0.75197 0.0
C1099 C 0.92946 0.59275 0.77382 0.0
C1100 C 0.89498 0.6008 0.76736 0.0
C1101 C 0.87821 0.6088 0.74672 0.0
C1102 C 0.87973 0.62694 0.72916 0.0
C1103 C 0.86393 0.63439 0.70963 0.0
C1104 C 0.84647 0.62389 0.7077 0.0
C1105 C 0.84476 0.60594 0.72537 0.0
C1106 C 0.86052 0.59842 0.7449 0.0
C1107 C 0.90787 0.5986 0.92593 0.0
C1108 C 0.89532 0.58372 0.93793 0.0
C1109 C 0.91238 0.60037 0.88941 0.0
C1110 C 0.90424 0.58742 0.86432 0.0
C1111 C 0.89184 0.57245 0.87617 0.0
C1112 C 0.88757 0.57047 0.91279 0.0
C1113 C 0.90785 0.59024 0.82548 0.0
C1114 C 0.8922 0.59618 0.80378 0.0
C1115 C 0.92672 0.58855 0.81047 0.0
C1116 C 0.94372 0.58221 0.83233 0.0
C1117 C 0.94333 0.56436 0.85105 0.0
C1118 C 0.95939 0.55852 0.87167 0.0
C1119 C 0.97595 0.57038 0.8737 0.0
C1120 C 0.97652 0.58808 0.85498 0.0
C1121 C 0.96051 0.59398 0.83427 0.0
H1122 H 0.98836 0.56583 0.8897 0.0
H1123 H 0.83425 0.62967 0.69258 0.0
H1124 H 0.38935 0.39844 0.17744 0.0
H1125 H 0.3871 0.40607 0.11359 0.0
H1126 H 0.44877 0.39497 0.1012 0.0
H1127 H 0.4511 0.38683 0.16538 0.0
H1128 H 0.40234 0.43315 0.07352 0.0
H1129 H 0.45599 0.37573 0.01511 0.0
H1130 H 0.46839 0.34257 0.02769 0.0
H1131 H 0.41742 0.33022 0.09107 0.0
H1132 H 0.40458 0.36317 0.07841 0.0
H1133 H 0.40475 0.44906 0.88366 0.0
H1134 H 0.41503 0.44491 0.94652 0.0
H1135 H 0.39058 0.38675 0.94679 0.0
H1136 H 0.38141 0.39047 0.88374 0.0
H1137 H 0.42246 0.38536 0.98028 0.0
H1138 H 0.36691 0.4288 0.98463 0.0
H1139 H 0.34824 0.45857 0.96994 0.0
H1140 H 0.39366 0.49404 0.01557 0.0
H1141 H 0.41269 0.46445 0.03018 0.0
C1142 C 0.40248 0.39763 0.16125 0.0
C1143 C 0.4204 0.39196 0.17647 0.0
C1144 C 0.40118 0.40209 0.12473 0.0
C1145 C 0.41774 0.40103 0.10261 0.0
C1146 C 0.43576 0.39568 0.11775 0.0
C1147 C 0.43707 0.39109 0.1544 0.0
C1148 C 0.41578 0.40519 0.06363 0.0
C1149 C 0.40687 0.42276 0.05309 0.0
C1150 C 0.4215 0.39155 0.03703 0.0
C1151 C 0.42947 0.37202 0.04619 0.0
C1152 C 0.44747 0.36595 0.03184 0.0
C1153 C 0.45454 0.34718 0.03889 0.0
C1154 C 0.44367 0.3343 0.06009 0.0
C1155 C 0.42582 0.34022 0.07465 0.0
C1156 C 0.41866 0.35897 0.06761 0.0
C1157 C 0.40163 0.43543 0.8973 0.0
C1158 C 0.39226 0.4201 0.87907 0.0
C1159 C 0.40744 0.43307 0.93316 0.0
C1160 C 0.40339 0.41558 0.95158 0.0
C1161 C 0.39402 0.40032 0.93317 0.0
C1162 C 0.38868 0.40248 0.8972 0.0
C1163 C 0.40846 0.41304 0.99016 0.0
C1164 C 0.41819 0.3959 0.00064 0.0
C1165 C 0.40274 0.42667 0.01682 0.0
C1166 C 0.39131 0.44445 0.0081 0.0
C1167 C 0.37297 0.44296 0.9913 0.0
C1168 C 0.36231 0.45979 0.98303 0.0
C1169 C 0.36979 0.47819 0.99171 0.0
C1170 C 0.38791 0.47978 0.00879 0.0
C1171 C 0.39863 0.46299 0.01709 0.0
H1172 H 0.36152 0.4912 0.98529 0.0
H1173 H 0.44905 0.31969 0.0651 0.0
H1174 H 0.61696 0.95271 0.42591 0.0
H1175 H 0.60943 0.9492 0.36181 0.0
H1176 H 0.60405 0.88685 0.37552 0.0
H1177 H 0.61107 0.89026 0.43962 0.0
H1178 H 0.62763 0.9313 0.30969 0.0
H1179 H 0.57038 0.86849 0.31942 0.0
H1180 H 0.54449 0.8574 0.36086 0.0
H1181 H 0.53887 0.91556 0.40287 0.0
H1182 H 0.56451 0.92705 0.36134 0.0
H1183 H 0.62028 0.88342 0.1428 0.0
H1184 H 0.6241 0.89261 0.20595 0.0
H1185 H 0.56396 0.91157 0.209 0.0
H1186 H 0.55982 0.90129 0.14632 0.0
H1187 H 0.57057 0.89341 0.2662 0.0
H1188 H 0.60497 0.94416 0.20593 0.0
H1189 H 0.62873 0.95904 0.16424 0.0
H1190 H 0.67591 0.93222 0.22223 0.0
H1191 H 0.65243 0.91694 0.26398 0.0
C1192 C 0.61404 0.93826 0.41531 0.0
C1193 C 0.61449 0.92177 0.43788 0.0
C1194 C 0.6098 0.93628 0.37867 0.0
C1195 C 0.60593 0.9178 0.364 0.0
C1196 C 0.60658 0.9013 0.38642 0.0
C1197 C 0.61068 0.90327 0.42304 0.0
C1198 C 0.60169 0.9156 0.32507 0.0
C1199 C 0.6151 0.92311 0.30009 0.0
C1200 C 0.58508 0.90536 0.31259 0.0
C1201 C 0.56951 0.89858 0.33747 0.0
C1202 C 0.56357 0.87893 0.33739 0.0
C1203 C 0.54894 0.87257 0.36092 0.0
C1204 C 0.54009 0.88575 0.38456 0.0
C1205 C 0.54579 0.90534 0.38464 0.0
C1206 C 0.56039 0.91178 0.36115 0.0
C1207 C 0.60791 0.88962 0.15696 0.0
C1208 C 0.58977 0.8917 0.13975 0.0
C1209 C 0.61014 0.89501 0.19298 0.0
C1210 C 0.59444 0.90318 0.21214 0.0
C1211 C 0.57631 0.90533 0.19484 0.0
C1212 C 0.57395 0.89948 0.15904 0.0
C1213 C 0.59674 0.90875 0.2506 0.0
C1214 C 0.583 0.9018 0.27559 0.0
C1215 C 0.61271 0.92009 0.26297 0.0
C1216 C 0.6269 0.92926 0.2379 0.0
C1217 C 0.6204 0.94131 0.20964 0.0
C1218 C 0.63382 0.94984 0.18601 0.0
C1219 C 0.65381 0.94654 0.19053 0.0
C1220 C 0.66042 0.93474 0.21874 0.0
C1221 C 0.64706 0.92616 0.24241 0.0
H1222 H 0.66418 0.95316 0.17221 0.0
H1223 H 0.52878 0.8808 0.40276 0.0
H1224 H 0.06363 0.37217 0.64942 0.0
H1225 H 0.06746 0.38025 0.71324 0.0
H1226 H 0.10784 0.42627 0.68511 0.0
H1227 H 0.10489 0.41742 0.6216 0.0
H1228 H 0.12192 0.40763 0.73786 0.0
H1229 H 0.0586 0.43508 0.71482 0.0
H1230 H 0.02443 0.43533 0.69385 0.0
H1231 H 0.01026 0.38958 0.76848 0.0
H1232 H 0.04438 0.38899 0.78985 0.0
H1233 H 0.12276 0.44965 0.91363 0.0
H1234 H 0.11584 0.44597 0.84919 0.0
H1235 H 0.08567 0.3919 0.87054 0.0
H1236 H 0.09256 0.39538 0.93478 0.0
H1237 H 0.06617 0.41664 0.82156 0.0
H1238 H 0.13053 0.38976 0.84333 0.0
H1239 H 0.16467 0.39083 0.86436 0.0
H1240 H 0.17687 0.43762 0.79071 0.0
H1241 H 0.14267 0.43708 0.76969 0.0
C1242 C 0.07319 0.38409 0.65698 0.0
C1243 C 0.08398 0.3942 0.63081 0.0
C1244 C 0.07529 0.38879 0.69338 0.0
C1245 C 0.08771 0.4041 0.70399 0.0
C1246 C 0.09821 0.41439 0.67763 0.0
C1247 C 0.0965 0.40936 0.64139 0.0
C1248 C 0.09053 0.40885 0.7426 0.0
C1249 C 0.1097 0.40997 0.75595 0.0
C1250 C 0.07461 0.41154 0.76645 0.0
C1251 C 0.05407 0.4119 0.75373 0.0
C1252 C 0.04822 0.425 0.72661 0.0
C1253 C 0.02886 0.42522 0.71467 0.0
C1254 C 0.0152 0.41244 0.7297 0.0
C1255 C 0.02086 0.39946 0.75683 0.0
C1256 C 0.04019 0.39921 0.76894 0.0
C1257 C 0.11449 0.43709 0.90461 0.0
C1258 C 0.10831 0.42273 0.92913 0.0
C1259 C 0.11061 0.435 0.86787 0.0
C1260 C 0.1004 0.4186 0.85531 0.0
C1261 C 0.09359 0.40464 0.87986 0.0
C1262 C 0.09762 0.40661 0.91647 0.0
C1263 C 0.09745 0.41546 0.81641 0.0
C1264 C 0.0783 0.41456 0.80317 0.0
C1265 C 0.11338 0.41322 0.79257 0.0
C1266 C 0.13396 0.41354 0.80525 0.0
C1267 C 0.14043 0.40042 0.83188 0.0
C1268 C 0.1598 0.40091 0.84376 0.0
C1269 C 0.17292 0.41433 0.82897 0.0
C1270 C 0.16668 0.42727 0.80221 0.0
C1271 C 0.1473 0.42688 0.79031 0.0
H1272 H 0.18792 0.41466 0.83815 0.0
H1273 H 1.00023 0.41263 0.72038 0.0
H1274 H 0.61127 0.61667 0.18261 0.0
H1275 H 0.613 0.61028 0.11791 0.0
H1276 H 0.55042 0.60355 0.11408 0.0
H1277 H 0.54851 0.61015 0.17895 0.0
H1278 H 0.57052 0.57356 0.07863 0.0
H1279 H 0.56709 0.64339 0.07549 0.0
H1280 H 0.57495 0.6779 0.08794 0.0
H1281 H 0.63439 0.66811 0.05589 0.0
H1282 H 0.62682 0.63358 0.04286 0.0
H1283 H 0.5864 0.60743 0.87845 0.0
H1284 H 0.57691 0.6125 0.94096 0.0
H1285 H 0.60867 0.56072 0.97207 0.0
H1286 H 0.61793 0.55528 0.90903 0.0
H1287 H 0.60066 0.62052 0.99339 0.0
H1288 H 0.58822 0.54259 0.0508 0.0
H1289 H 0.5757 0.51066 0.03045 0.0
H1290 H 0.54123 0.53903 0.94915 0.0
H1291 H 0.55331 0.57113 0.96934 0.0
C1292 C 0.59786 0.61386 0.16802 0.0
C1293 C 0.57975 0.61386 0.18584 0.0
C1294 C 0.59887 0.61032 0.13105 0.0
C1295 C 0.58183 0.60653 0.11129 0.0
C1296 C 0.56372 0.60646 0.12895 0.0
C1297 C 0.56266 0.61028 0.16591 0.0
C1298 C 0.58315 0.60218 0.07236 0.0
C1299 C 0.57706 0.58381 0.05987 0.0
C1300 C 0.59139 0.61567 0.04794 0.0
C1301 C 0.59643 0.6359 0.05853 0.0
C1302 C 0.58189 0.64855 0.07153 0.0
C1303 C 0.58625 0.66815 0.07833 0.0
C1304 C 0.60514 0.6752 0.07255 0.0
C1305 C 0.61975 0.66264 0.06022 0.0
C1306 C 0.61542 0.64308 0.053 0.0
C1307 C 0.59122 0.59698 0.89849 0.0
C1308 C 0.60308 0.58106 0.88891 0.0
C1309 C 0.58575 0.59989 0.93421 0.0
C1310 C 0.5921 0.58703 0.96117 0.0
C1311 C 0.60342 0.57071 0.95161 0.0
C1312 C 0.60877 0.56767 0.91565 0.0
C1313 C 0.58825 0.59178 -0.00056 0.0
C1314 C 0.59406 0.61021 0.01197 0.0
C1315 C 0.57933 0.57849 0.02353 0.0
C1316 C 0.57185 0.55925 0.01136 0.0
C1317 C 0.57792 0.54202 0.02866 0.0
C1318 C 0.5709 0.52389 0.01715 0.0
C1319 C 0.55773 0.52281 0.98845 0.0
C1320 C 0.5515 0.53987 0.97128 0.0
C1321 C 0.55845 0.55804 0.98271 0.0
H1322 H 0.55233 0.50876 0.97957 0.0
H1323 H 0.60846 0.6904 0.07774 0.0
H1324 H 0.36825 0.06994 0.41697 0.0
H1325 H 0.37715 0.0734 0.35346 0.0
H1326 H 0.43648 0.08701 0.38448 0.0
H1327 H 0.42698 0.08515 0.44803 0.0
H1328 H 0.42764 0.11031 0.33677 0.0
H1329 H 0.4208 0.04133 0.34253 0.0
H1330 H 0.40516 0.0098 0.35655 0.0
H1331 H 0.35769 0.02368 0.28542 0.0
H1332 H 0.37286 0.05543 0.27141 0.0
H1333 H 0.45564 0.1093 0.15034 0.0
H1334 H 0.45315 0.10051 0.21416 0.0
H1335 H 0.39064 0.09518 0.20339 0.0
H1336 H 0.39302 0.10347 0.13969 0.0
H1337 H 0.40556 0.06515 0.24064 0.0
H1338 H 0.41356 0.13677 0.24204 0.0
H1339 H 0.43164 0.16731 0.22988 0.0
H1340 H 0.48113 0.1453 0.28793 0.0
H1341 H 0.46342 0.11468 0.30056 0.0
C1342 C 0.38319 0.07351 0.40997 0.0
C1343 C 0.39698 0.07731 0.43693 0.0
C1344 C 0.38836 0.07531 0.37373 0.0
C1345 C 0.40763 0.08012 0.36391 0.0
C1346 C 0.42152 0.08334 0.39119 0.0
C1347 C 0.41616 0.08222 0.42742 0.0
C1348 C 0.41295 0.08309 0.32543 0.0
C1349 C 0.42312 0.10017 0.31592 0.0
C1350 C 0.40705 0.07001 0.29793 0.0
C1351 C 0.39793 0.05083 0.30608 0.0
C1352 C 0.40697 0.03771 0.33003 0.0
C1353 C 0.39819 0.01979 0.33797 0.0
C1354 C 0.38043 0.01475 0.32192 0.0
C1355 C 0.37145 0.0276 0.29781 0.0
C1356 C 0.38013 0.04556 0.28985 0.0
C1357 C 0.44137 0.10626 0.16161 0.0
C1358 C 0.42452 0.10711 0.13998 0.0
C1359 C 0.43997 0.1013 0.19809 0.0
C1360 C 0.42168 0.09737 0.21359 0.0
C1361 C 0.4049 0.09812 0.19196 0.0
C1362 C 0.40629 0.10291 0.15555 0.0
C1363 C 0.41975 0.09248 0.25232 0.0
C1364 C 0.41026 0.07505 0.26176 0.0
C1365 C 0.42669 0.10497 0.27981 0.0
C1366 C 0.43725 0.12337 0.27192 0.0
C1367 C 0.42834 0.1384 0.25199 0.0
C1368 C 0.4385 0.15572 0.24506 0.0
C1369 C 0.45752 0.15818 0.2579 0.0
C1370 C 0.46641 0.14336 0.27791 0.0
C1371 C 0.45632 0.12605 0.28505 0.0
H1372 H 0.46533 0.1716 0.25245 0.0
H1373 H 0.37364 1.00088 0.32814 0.0
H1374 H 0.9536 0.89792 0.67384 0.0
H1375 H 0.95187 0.90808 0.61064 0.0
H1376 H 0.88895 0.90496 0.61482 0.0
H1377 H 0.89056 0.89553 0.67803 0.0
H1378 H 0.93957 0.89127 0.55327 0.0
H1379 H 0.86773 0.93741 0.56111 0.0
H1380 H 0.8513 0.95948 0.60397 0.0
H1381 H 0.90618 0.97174 0.65512 0.0
H1382 H 0.92301 0.95 0.61225 0.0
H1383 H 0.8928 0.8937 0.38654 0.0
H1384 H 0.90225 0.89085 0.44959 0.0
H1385 H 0.91118 0.9532 0.45488 0.0
H1386 H 0.90087 0.95623 0.39193 0.0
H1387 H 0.89357 0.94257 0.51178 0.0
H1388 H 0.95033 0.91982 0.45299 0.0
H1389 H 0.97011 0.90076 0.41006 0.0
H1390 H 0.95173 0.84748 0.46077 0.0
H1391 H 0.9316 0.8662 0.50369 0.0
C1392 C 0.93941 0.89948 0.66126 0.0
C1393 C 0.9222 0.89606 0.68093 0.0
C1394 C 0.93844 0.90528 0.62517 0.0
C1395 C 0.92027 0.90764 0.60815 0.0
C1396 C 0.90312 0.90379 0.62761 0.0
C1397 C 0.90407 0.89827 0.66372 0.0
C1398 C 0.91909 0.91344 0.56969 0.0
C1399 C 0.92962 0.90259 0.54419 0.0
C1400 C 0.90662 0.92865 0.55788 0.0
C1401 C 0.89661 0.94193 0.58359 0.0
C1402 C 0.87632 0.94489 0.58137 0.0
C1403 C 0.86693 0.95733 0.6057 0.0
C1404 C 0.87768 0.96696 0.63231 0.0
C1405 C 0.89786 0.96422 0.63458 0.0
C1406 C 0.90733 0.95182 0.61029 0.0
C1407 C 0.89686 0.9068 0.40106 0.0
C1408 C 0.89616 0.92518 0.38429 0.0
C1409 C 0.9024 0.90515 0.43707 0.0
C1410 C 0.90785 0.92176 0.45683 0.0
C1411 C 0.90713 0.94016 0.44014 0.0
C1412 C 0.90124 0.94188 0.4042 0.0
C1413 C 0.91344 0.91986 0.4953 0.0
C1414 C 0.90374 0.93146 0.52083 0.0
C1415 C 0.9272 0.9058 0.50713 0.0
C1416 C 0.93935 0.89443 0.48145 0.0
C1417 C 0.9504 0.90404 0.45485 0.0
C1418 C 0.96169 0.89329 0.43053 0.0
C1419 C 0.96215 0.87292 0.43265 0.0
C1420 C 0.95135 0.86326 0.45915 0.0
C1421 C 0.94002 0.87393 0.48352 0.0
H1422 H 0.9709 0.86463 0.41379 0.0
H1423 H 0.87038 0.97658 0.65114 0.0
H1424 H 0.06547 0.13413 0.90546 0.0
H1425 H 0.07408 0.12918 0.96892 0.0
H1426 H 0.13327 0.11553 0.93811 0.0
H1427 H 0.12495 0.12081 0.87507 0.0
H1428 H 0.08605 0.09697 0.00201 0.0
H1429 H 0.16472 0.12857 0.00373 0.0
H1430 H 0.18358 0.15488 0.97452 0.0
H1431 H 0.13077 0.18717 0.95596 0.0
H1432 H 0.11163 0.16119 0.98546 0.0
H1433 H 0.13361 0.06272 0.15914 0.0
H1434 H 0.12812 0.07105 0.09569 0.0
H1435 H 0.12368 0.13198 0.12404 0.0
H1436 H 0.1295 0.12389 0.18704 0.0
H1437 H 0.14259 0.12829 0.06247 0.0
H1438 H 0.08295 0.10398 0.11348 0.0
H1439 H 0.06219 0.08007 0.14516 0.0
H1440 H 0.07312 0.0378 0.06212 0.0
H1441 H 0.09419 0.06138 0.0302 0.0
C1442 C 0.08039 0.13038 0.91227 0.0
C1443 C 0.09452 0.12791 0.88516 0.0
C1444 C 0.08526 0.12744 0.94852 0.0
C1445 C 0.10434 0.12208 0.95832 0.0
C1446 C 0.11852 0.11995 0.93133 0.0
C1447 C 0.11371 0.12293 0.89521 0.0
C1448 C 0.10934 0.11792 0.99653 0.0
C1449 C 0.0984 0.10385 0.01522 0.0
C1450 C 0.12533 0.12702 0.01397 0.0
C1451 C 0.13673 0.14283 0.99651 0.0
C1452 C 0.15714 0.14132 0.99354 0.0
C1453 C 0.16788 0.15617 0.97691 0.0
C1454 C 0.15837 0.17265 0.96329 0.0
C1455 C 0.13811 0.17436 0.96639 0.0
C1456 C 0.12731 0.15956 0.98302 0.0
C1457 C 0.13183 0.07792 0.15174 0.0
C1458 C 0.13183 0.09261 0.17821 0.0
C1459 C 0.12855 0.08265 0.11552 0.0
C1460 C 0.12514 0.10211 0.10522 0.0
C1461 C 0.1262 0.11687 0.13134 0.0
C1462 C 0.12948 0.11218 0.16742 0.0
C1463 C 0.11948 0.10715 0.06772 0.0
C1464 C 0.13029 0.12137 0.04917 0.0
C1465 C 0.1031 0.09852 0.0507 0.0
C1466 C 0.0903 0.08438 0.06965 0.0
C1467 C 0.08103 0.08954 0.10211 0.0
C1468 C 0.0692 0.07606 0.12009 0.0
C1469 C 0.06638 0.05741 0.10571 0.0
C1470 C 0.07534 0.05224 0.07325 0.0
C1471 C 0.08722 0.06566 0.0552 0.0
H1472 H 0.05722 0.04699 0.11968 0.0
H1473 H 0.16671 0.18412 0.95041 0.0
H1474 H 0.94435 0.62384 0.4167 0.0
H1475 H 0.93523 0.61902 0.35359 0.0
H1476 H 0.87496 0.63062 0.38012 0.0
H1477 H 0.88391 0.63466 0.44336 0.0
H1478 H 0.87602 0.6003 0.34055 0.0
H1479 H 0.90476 0.66368 0.33116 0.0
H1480 H 0.93015 0.68887 0.33886 0.0
H1481 H 0.96985 0.65511 0.27451 0.0
H1482 H 0.94477 0.62959 0.2668 0.0
H1483 H 0.87456 0.62562 0.13325 0.0
H1484 H 0.87958 0.63444 0.19633 0.0
H1485 H 0.88534 0.57346 0.22386 0.0
H1486 H 0.8796 0.56454 0.16095 0.0
H1487 H 0.90978 0.63047 0.23629 0.0
H1488 H 0.87326 0.56535 0.31042 0.0
H1489 H 0.84526 0.54308 0.30267 0.0
H1490 H 0.81607 0.58593 0.23752 0.0
H1491 H 0.84377 0.60854 0.24527 0.0
C1492 C 0.92921 0.62569 0.40894 0.0
C1493 C 0.91485 0.62963 0.43498 0.0
C1494 C 0.92399 0.62295 0.3728 0.0
C1495 C 0.90438 0.62455 0.3619 0.0
C1496 C 0.89016 0.62918 0.38779 0.0
C1497 C 0.89531 0.63159 0.42393 0.0
C1498 C 0.89849 0.62045 0.324 0.0
C1499 C 0.88338 0.60697 0.31778 0.0
C1500 C 0.90783 0.62931 0.29415 0.0
C1501 C 0.92294 0.64465 0.29867 0.0
C1502 C 0.91895 0.66156 0.31886 0.0
C1503 C 0.93328 0.67591 0.32319 0.0
C1504 C 0.95161 0.67357 0.30725 0.0
C1505 C 0.95564 0.6569 0.28687 0.0
C1506 C 0.94137 0.64249 0.28247 0.0
C1507 C 0.87656 0.61407 0.15285 0.0
C1508 C 0.87662 0.59438 0.14213 0.0
C1509 C 0.87955 0.61914 0.1889 0.0
C1510 C 0.8828 0.60465 0.21501 0.0
C1511 C 0.88251 0.58493 0.20445 0.0
C1512 C 0.87924 0.57983 0.16842 0.0
C1513 C 0.88737 0.61026 0.25286 0.0
C1514 C 0.90233 0.62391 0.25907 0.0
C1515 C 0.87751 0.60198 0.2827 0.0
C1516 C 0.86069 0.58855 0.27816 0.0
C1517 C 0.86083 0.57004 0.29456 0.0
C1518 C 0.84502 0.55736 0.29014 0.0
C1519 C 0.82892 0.56306 0.26953 0.0
C1520 C 0.82858 0.58149 0.25337 0.0
C1521 C 0.84434 0.59424 0.25773 0.0
H1522 H 0.8167 0.55322 0.26612 0.0
H1523 H 0.96269 0.6847 0.31064 0.0
H1524 H 0.36074 0.43823 0.65553 0.0
H1525 H 0.36565 0.43012 0.59154 0.0
H1526 H 0.39381 0.3763 0.62195 0.0
H1527 H 0.38851 0.38386 0.68542 0.0
H1528 H 0.41412 0.40755 0.56886 0.0
H1529 H 0.3573 0.36571 0.59344 0.0
H1530 H 0.32348 0.36072 0.61436 0.0
H1531 H 0.3029 0.40246 0.53673 0.0
H1532 H 0.33668 0.40789 0.51574 0.0
H1533 H 0.43241 0.36176 0.40194 0.0
H1534 H 0.42398 0.36741 0.46524 0.0
H1535 H 0.37273 0.39951 0.43223 0.0
H1536 H 0.3805 0.39305 0.36941 0.0
H1537 H 0.36351 0.38027 0.48748 0.0
H1538 H 0.41722 0.42196 0.45915 0.0
H1539 H 0.45011 0.43052 0.43725 0.0
H1540 H 0.47587 0.39485 0.51974 0.0
H1541 H 0.4431 0.38581 0.54177 0.0
C1542 C 0.36772 0.42456 0.64851 0.0
C1543 C 0.37416 0.41166 0.67553 0.0
C1544 C 0.37054 0.41998 0.61206 0.0
C1545 C 0.38012 0.40265 0.60229 0.0
C1546 C 0.38638 0.38972 0.62911 0.0
C1547 C 0.38323 0.39406 0.66534 0.0
C1548 C 0.38427 0.39814 0.56414 0.0
C1549 C 0.40317 0.40142 0.55101 0.0
C1550 C 0.36977 0.39074 0.54088 0.0
C1551 C 0.34951 0.38739 0.55337 0.0
C1552 C 0.34558 0.37398 0.58112 0.0
C1553 C 0.32642 0.37103 0.59292 0.0
C1554 C 0.31105 0.38132 0.57697 0.0
C1555 C 0.31482 0.39453 0.54911 0.0
C1556 C 0.33396 0.39754 0.53725 0.0
C1557 C 0.41922 0.36979 0.40827 0.0
C1558 C 0.40717 0.37699 0.38067 0.0
C1559 C 0.41449 0.37317 0.44444 0.0
C1560 C 0.39793 0.38429 0.45361 0.0
C1561 C 0.38559 0.39092 0.42601 0.0
C1562 C 0.39008 0.38722 0.39 0.0
C1563 C 0.39359 0.38946 0.49174 0.0
C1564 C 0.3746 0.3864 0.50503 0.0
C1565 C 0.40795 0.39756 0.51491 0.0
C1566 C 0.42769 0.40305 0.50187 0.0
C1567 C 0.42989 0.41583 0.47246 0.0
C1568 C 0.44852 0.42078 0.46004 0.0
C1569 C 0.46508 0.41319 0.47704 0.0
C1570 C 0.46303 0.40069 0.50656 0.0
C1571 C 0.44444 0.39565 0.51903 0.0
H1572 H 0.47949 0.41703 0.46738 0.0
H1573 H 0.29623 0.37902 0.58613 0.0
H1574 H 0.63418 0.88357 0.63643 0.0
H1575 H 0.6277 0.87524 0.69926 0.0
H1576 H 0.61852 0.93615 0.72372 0.0
H1577 H 0.6256 0.94465 0.66098 0.0
H1578 H 0.63634 0.91994 0.77758 0.0
H1579 H 0.57963 0.90458 0.70965 0.0
H1580 H 0.5604 0.88988 0.66047 0.0
H1581 H 0.57702 0.83253 0.69592 0.0
H1582 H 0.59657 0.84691 0.74508 0.0
H1583 H 0.56359 0.87794 0.91969 0.0
H1584 H 0.57096 0.88581 0.85681 0.0
H1585 H 0.63231 0.8767 0.87735 0.0
H1586 H 0.62511 0.86944 0.94038 0.0
H1587 H 0.58633 0.86905 0.80108 0.0
H1588 H 0.65962 0.90896 0.83132 0.0
H1589 H 0.67477 0.92774 0.8807 0.0
H1590 H 0.61802 0.94299 0.92107 0.0
H1591 H 0.60254 0.92454 0.87167 0.0
C1592 C 0.63104 0.89524 0.65527 0.0
C1593 C 0.6303 0.91477 0.64366 0.0
C1594 C 0.6272 0.89043 0.69117 0.0
C1595 C 0.62214 0.905 0.71612 0.0
C1596 C 0.62228 0.92462 0.70498 0.0
C1597 C 0.62637 0.92948 0.6691 0.0
C1598 C 0.61617 0.89967 0.75345 0.0
C1599 C 0.62545 0.90878 0.78268 0.0
C1600 C 0.60148 0.88556 0.76029 0.0
C1601 C 0.58971 0.87683 0.73084 0.0
C1602 C 0.5793 0.88884 0.7068 0.0
C1603 C 0.56832 0.88056 0.67896 0.0
C1604 C 0.56753 0.86029 0.67501 0.0
C1605 C 0.57767 0.84824 0.69898 0.0
C1606 C 0.58868 0.85644 0.72687 0.0
C1607 C 0.57862 0.87733 0.91067 0.0
C1608 C 0.59378 0.87322 0.93511 0.0
C1609 C 0.58283 0.88187 0.8747 0.0
C1610 C 0.60225 0.8823 0.86246 0.0
C1611 C 0.61726 0.87699 0.88632 0.0
C1612 C 0.6131 0.87269 0.92233 0.0
C1613 C 0.60689 0.88894 0.8252 0.0
C1614 C 0.59731 0.88013 0.79598 0.0
C1615 C 0.62074 0.90388 0.81841 0.0
C1616 C 0.62994 0.91519 0.848 0.0
C1617 C 0.65038 0.91638 0.85066 0.0
C1618 C 0.65902 0.92696 0.87867 0.0
C1619 C 0.64737 0.9365 0.90407 0.0
C1620 C 0.62704 0.93553 0.90145 0.0
C1621 C 0.61832 0.925 0.87348 0.0
H1622 H 0.65409 0.94466 0.92574 0.0
H1623 H 0.55903 0.85391 0.65343 0.0
H1624 H 0.07034 0.36124 0.40711 0.0
H1625 H 0.07865 0.3661 0.3432 0.0
H1626 H 0.12949 0.39919 0.37406 0.0
H1627 H 0.12176 0.394 0.43749 0.0
H1628 H 0.09788 0.41643 0.31994 0.0
H1629 H 0.1427 0.36255 0.34694 0.0
H1630 H 0.14984 0.32928 0.36877 0.0
H1631 H 0.11047 0.3054 0.29022 0.0
H1632 H 0.10289 0.33858 0.2683 0.0
H1633 H 0.14185 0.43621 0.15218 0.0
H1634 H 0.13749 0.42772 0.2158 0.0
H1635 H 0.108 0.3746 0.18482 0.0
H1636 H 0.11316 0.38248 0.12166 0.0
H1637 H 0.12829 0.36694 0.24001 0.0
H1638 H 0.08329 0.41778 0.21037 0.0
H1639 H 0.07283 0.44991 0.18742 0.0
H1640 H 0.107 0.47846 0.26889 0.0
H1641 H 0.11796 0.44647 0.29193 0.0
C1642 C 0.08342 0.36931 0.40022 0.0
C1643 C 0.09542 0.37718 0.42733 0.0
C1644 C 0.08811 0.37209 0.36382 0.0
C1645 C 0.10464 0.38302 0.35419 0.0
C1646 C 0.11669 0.3907 0.38112 0.0
C1647 C 0.11227 0.38762 0.41733 0.0
C1648 C 0.1091 0.38716 0.31605 0.0
C1649 C 0.10471 0.40574 0.30242 0.0
C1650 C 0.11742 0.37295 0.29324 0.0
C1651 C 0.12205 0.35304 0.30632 0.0
C1652 C 0.13541 0.35022 0.3346 0.0
C1653 C 0.13957 0.33138 0.34692 0.0
C1654 C 0.13056 0.31524 0.33098 0.0
C1655 C 0.11741 0.31791 0.3026 0.0
C1656 C 0.11318 0.33673 0.29021 0.0
C1657 C 0.1347 0.4226 0.15901 0.0
C1658 C 0.12777 0.41009 0.13189 0.0
C1659 C 0.13207 0.41782 0.19536 0.0
C1660 C 0.12199 0.40072 0.20518 0.0
C1661 C 0.11577 0.38788 0.17806 0.0
C1662 C 0.11872 0.39245 0.14186 0.0
C1663 C 0.11725 0.39643 0.24347 0.0
C1664 C 0.12149 0.37777 0.25727 0.0
C1665 C 0.1083 0.41045 0.26622 0.0
C1666 C 0.10162 0.42972 0.25262 0.0
C1667 C 0.08869 0.43091 0.22323 0.0
C1668 C 0.08266 0.4491 0.21022 0.0
C1669 C 0.08928 0.46622 0.22664 0.0
C1670 C 0.10191 0.46518 0.25617 0.0
C1671 C 0.10804 0.44703 0.26921 0.0
H1672 H 0.08462 0.4803 0.21653 0.0
H1673 H 0.13381 0.30066 0.34054 0.0
H1674 H 0.61276 0.61887 0.69599 0.0
H1675 H 0.60821 0.6259 0.63217 0.0
H1676 H 0.63709 0.57205 0.60443 0.0
H1677 H 0.64135 0.56451 0.66877 0.0
H1678 H 0.64647 0.61266 0.56299 0.0
H1679 H 0.59589 0.5659 0.59821 0.0
H1680 H 0.57017 0.55514 0.64025 0.0
H1681 H 0.53862 0.6084 0.62182 0.0
H1682 H 0.56442 0.6197 0.58033 0.0
H1683 H 0.61875 0.60604 0.3807 0.0
H1684 H 0.62724 0.6004 0.44346 0.0
H1685 H 0.5769 0.63369 0.47709 0.0
H1686 H 0.56773 0.63853 0.41383 0.0
H1687 H 0.57899 0.60368 0.517 0.0
H1688 H 0.62606 0.65124 0.48299 0.0
H1689 H 0.65189 0.66656 0.44633 0.0
H1690 H 0.68955 0.61754 0.4659 0.0
H1691 H 0.66384 0.6018 0.50229 0.0
C1692 C 0.61844 0.60858 0.67646 0.0
C1693 C 0.62736 0.59105 0.68753 0.0
C1694 C 0.61579 0.61266 0.63997 0.0
C1695 C 0.62224 0.59946 0.61378 0.0
C1696 C 0.63205 0.58241 0.62443 0.0
C1697 C 0.63443 0.57812 0.66112 0.0
C1698 C 0.6174 0.60302 0.57551 0.0
C1699 C 0.63184 0.61039 0.55255 0.0
C1700 C 0.59809 0.60087 0.56272 0.0
C1701 C 0.5822 0.59374 0.58649 0.0
C1702 C 0.58355 0.57539 0.60334 0.0
C1703 C 0.56896 0.56919 0.62707 0.0
C1704 C 0.55281 0.58112 0.63382 0.0
C1705 C 0.55116 0.5992 0.61664 0.0
C1706 C 0.56577 0.60551 0.59302 0.0
C1707 C 0.60956 0.61236 0.4014 0.0
C1708 C 0.59262 0.62286 0.39226 0.0
C1709 C 0.61451 0.60919 0.43741 0.0
C1710 C 0.60296 0.61691 0.46524 0.0
C1711 C 0.5861 0.62759 0.45618 0.0
C1712 C 0.5809 0.63044 0.42003 0.0
C1713 C 0.60817 0.61317 0.50364 0.0
C1714 C 0.59372 0.60587 0.52694 0.0
C1715 C 0.62742 0.61585 0.51696 0.0
C1716 C 0.64294 0.62526 0.49509 0.0
C1717 C 0.63979 0.64366 0.47925 0.0
C1718 C 0.65442 0.65243 0.45856 0.0
C1719 C 0.67233 0.643 0.45371 0.0
C1720 C 0.67566 0.62481 0.46964 0.0
C1721 C 0.66107 0.61597 0.49033 0.0
H1722 H 0.68364 0.64982 0.43769 0.0
H1723 H 0.54156 0.57634 0.6523 0.0
H1724 H 0.39531 0.11919 0.62892 0.0
H1725 H 0.40061 0.12707 0.69233 0.0
H1726 H 0.36674 0.07685 0.72373 0.0
H1727 H 0.36176 0.06842 0.65998 0.0
H1728 H 0.36085 0.11909 0.76149 0.0
H1729 H 0.40678 0.0667 0.73235 0.0
H1730 H 0.43207 0.05182 0.69381 0.0
H1731 H 0.46867 0.1021 0.70859 0.0
H1732 H 0.4434 0.11742 0.74671 0.0
H1733 H 0.38539 0.10906 0.94467 0.0
H1734 H 0.37719 0.10508 0.88141 0.0
H1735 H 0.43068 0.13408 0.85119 0.0
H1736 H 0.43945 0.13738 0.91499 0.0
H1737 H 0.42649 0.10399 0.81097 0.0
H1738 H 0.38383 0.15598 0.84243 0.0
H1739 H 0.35908 0.1738 0.87772 0.0
H1740 H 0.31709 0.12876 0.85605 0.0
H1741 H 0.34167 0.11052 0.82101 0.0
C1742 C 0.38872 0.10992 0.64921 0.0
C1743 C 0.37813 0.09313 0.63939 0.0
C1744 C 0.39182 0.11446 0.68542 0.0
C1745 C 0.38411 0.10251 0.71253 0.0
C1746 C 0.37276 0.08624 0.70303 0.0
C1747 C 0.36997 0.08144 0.66669 0.0
C1748 C 0.38898 0.10649 0.75065 0.0
C1749 C 0.37506 0.11556 0.77265 0.0
C1750 C 0.40782 0.10261 0.76443 0.0
C1751 C 0.42312 0.09329 0.742 0.0
C1752 C 0.42013 0.07466 0.72708 0.0
C1753 C 0.43448 0.06613 0.70537 0.0
C1754 C 0.45194 0.07604 0.69866 0.0
C1755 C 0.45512 0.09446 0.71376 0.0
C1756 C 0.4408 0.10307 0.73542 0.0
C1757 C 0.39536 0.11482 0.92466 0.0
C1758 C 0.41307 0.12362 0.93495 0.0
C1759 C 0.39057 0.11261 0.88835 0.0
C1760 C 0.40312 0.11956 0.86132 0.0
C1761 C 0.42071 0.12863 0.87149 0.0
C1762 C 0.42568 0.13058 0.90796 0.0
C1763 C 0.39822 0.11642 0.82262 0.0
C1764 C 0.41221 0.10758 0.80021 0.0
C1765 C 0.37952 0.12087 0.8083 0.0
C1766 C 0.36466 0.1318 0.82934 0.0
C1767 C 0.36937 0.1498 0.84541 0.0
C1768 C 0.35536 0.15999 0.86533 0.0
C1769 C 0.33654 0.1524 0.86919 0.0
C1770 C 0.33168 0.13461 0.85306 0.0
C1771 C 0.34564 0.12435 0.83313 0.0
H1772 H 0.32571 0.16031 0.88462 0.0
H1773 H 0.46303 0.06941 0.68184 0.0
H1774 H 0.89069 0.88758 0.1899 0.0
H1775 H 0.89554 0.88017 0.12625 0.0
H1776 H 0.86755 0.93426 0.09698 0.0
H1777 H 0.86302 0.94218 0.1611 0.0
H1778 H 0.85695 0.89434 0.05695 0.0
H1779 H 0.90941 0.93891 0.09041 0.0
H1780 H 0.93606 0.94928 0.13081 0.0
H1781 H 0.96579 0.89497 0.11245 0.0
H1782 H 0.93908 0.88411 0.07254 0.0
H1783 H 0.88385 0.89872 0.87407 0.0
H1784 H 0.87593 0.90491 0.93686 0.0
H1785 H 0.9252 0.86991 0.97008 0.0
H1786 H 0.93389 0.86461 0.90669 0.0
H1787 H 0.92451 0.89996 0.00961 0.0
H1788 H 0.87488 0.8545 0.97711 0.0
H1789 H 0.84809 0.84049 0.94102 0.0
H1790 H 0.8132 0.8915 0.96059 0.0
H1791 H 0.83989 0.90594 0.99643 0.0
C1792 C 0.88531 0.89785 0.17004 0.0
C1793 C 0.87648 0.91552 0.18061 0.0
C1794 C 0.88815 0.89357 0.13367 0.0
C1795 C 0.88197 0.9067 0.10709 0.0
C1796 C 0.87239 0.92397 0.11726 0.0
C1797 C 0.86985 0.92846 0.15382 0.0
C1798 C 0.88651 0.90265 0.06883 0.0
C1799 C 0.87162 0.89585 0.04624 0.0
C1800 C 0.90582 0.90386 0.05564 0.0
C1801 C 0.92214 0.91061 0.07882 0.0
C1802 C 0.92154 0.92911 0.09524 0.0
C1803 C 0.93667 0.93509 0.11802 0.0
C1804 C 0.95257 0.92276 0.12429 0.0
C1805 C 0.95344 0.90448 0.10763 0.0
C1806 C 0.93831 0.89841 0.08492 0.0
C1807 C 0.8929 0.89211 0.89469 0.0
C1808 C 0.90943 0.88101 0.88537 0.0
C1809 C 0.88828 0.8956 0.93073 0.0
C1810 C 0.89968 0.88757 0.95849 0.0
C1811 C 0.9161 0.87625 0.94925 0.0
C1812 C 0.92102 0.87313 0.91303 0.0
C1813 C 0.89486 0.8917 0.99695 0.0
C1814 C 0.90975 0.89845 0.01988 0.0
C1815 C 0.87557 0.89003 0.01066 0.0
C1816 C 0.85946 0.88137 0.98919 0.0
C1817 C 0.86155 0.86279 0.97351 0.0
C1818 C 0.84637 0.85476 0.95314 0.0
C1819 C 0.82898 0.86512 0.94845 0.0
C1820 C 0.8267 0.88351 0.96422 0.0
C1821 C 0.84183 0.89161 0.9846 0.0
H1822 H 0.81724 0.85888 0.93266 0.0
H1823 H 0.96424 0.92737 0.14202 0.0
loop_
_geom_bond_atom_site_label_1
_geom_bond_atom_site_label_2
_geom_bond_distance
_geom_bond_site_symmetry_2
_ccdc_geom_bond_type
C0 O2 1.247 . S
C0 O4 1.258 . S
C1 O8 1.247 . S
C1 O9 1.258 . S
O2 C0 1.247 . S
O2 Zn3 2.028 . S
Zn3 O2 2.028 . S
Zn3 O7 2.035 . S
Zn3 O9 2.035 . S
Zn3 O10 2.028 . S
O4 C0 1.258 . S
O4 Zn5 2.035 . S
Zn5 O4 2.035 . S
Zn5 O6 2.028 . S
Zn5 O8 2.028 . S
Zn5 O11 2.035 . S
O6 Zn5 2.028 . S
O6 C12 1.247 . S
O7 Zn3 2.035 . S
O7 C12 1.258 . S
O8 C1 1.247 . S
O8 Zn5 2.028 . S
O9 C1 1.258 . S
O9 Zn3 2.035 . S
O10 Zn3 2.028 . S
O10 C13 1.247 . S
O11 Zn5 2.035 . S
O11 C13 1.258 . S
C12 O6 1.247 . S
C12 O7 1.258 . S
C13 O10 1.247 . S
C13 O11 1.258 . S
C14 O16 1.247 . S
C14 O18 1.258 . S
C15 O22 1.247 . S
C15 O23 1.258 . S
O16 C14 1.247 . S
O16 Zn17 2.028 . S
Zn17 O16 2.028 . S
Zn17 O21 2.035 . S
Zn17 O23 2.035 . S
Zn17 O24 2.028 . S
O18 C14 1.258 . S
O18 Zn19 2.035 . S
Zn19 O18 2.035 . S
Zn19 O20 2.028 . S
Zn19 O22 2.028 . S
Zn19 O25 2.035 . S
O20 Zn19 2.028 . S
O20 C26 1.247 . S
O21 Zn17 2.035 . S
O21 C26 1.258 . S
O22 C15 1.247 . S
O22 Zn19 2.028 . S
O23 C15 1.258 . S
O23 Zn17 2.035 . S
O24 Zn17 2.028 . S
O24 C27 1.247 . S
O25 Zn19 2.035 . S
O25 C27 1.258 . S
C26 O20 1.247 . S
C26 O21 1.258 . S
C27 O24 1.247 . S
C27 O25 1.258 . S
C28 O30 1.247 . S
C28 O32 1.258 . S
C29 O36 1.247 . S
C29 O37 1.258 . S
O30 C28 1.247 . S
O30 Zn31 2.028 . S
Zn31 O30 2.028 . S
Zn31 O35 2.035 . S
Zn31 O37 2.035 . S
Zn31 O38 2.028 . S
O32 C28 1.258 . S
O32 Zn33 2.035 . S
Zn33 O32 2.035 . S
Zn33 O34 2.028 . S
Zn33 O36 2.028 . S
Zn33 O39 2.035 . S
O34 Zn33 2.028 . S
O34 C40 1.247 . S
O35 Zn31 2.035 . S
O35 C40 1.258 . S
O36 C29 1.247 . S
O36 Zn33 2.028 . S
O37 C29 1.258 . S
O37 Zn31 2.035 . S
O38 Zn31 2.028 . S
O38 C41 1.247 . S
O39 Zn33 2.035 . S
O39 C41 1.258 . S
C40 O34 1.247 . S
C40 O35 1.258 . S
C41 O38 1.247 . S
C41 O39 1.258 . S
C42 O44 1.247 . S
C42 O46 1.258 . S
C43 O50 1.255 . S
C43 O51 1.258 1_556 S
O44 C42 1.247 . S
O44 Zn45 2.028 . S
Zn45 O44 2.028 . S
Zn45 O49 2.035 . S
Zn45 O51 2.035 . S
Zn45 O52 2.028 . S
O46 C42 1.258 . S
O46 Zn47 2.035 . S
Zn47 O46 2.035 . S
Zn47 O48 2.028 . S
Zn47 O50 2.009 1_554 S
Zn47 O53 2.035 . S
O48 Zn47 2.028 . S
O48 C54 1.247 . S
O49 Zn45 2.035 . S
O49 C54 1.258 . S
O50 C43 1.255 . S
O50 Zn47 2.009 1_556 S
O51 C43 1.258 1_554 S
O51 Zn45 2.035 . S
O52 Zn45 2.028 . S
O52 C55 1.247 . S
O53 Zn47 2.035 . S
O53 C55 1.258 . S
C54 O48 1.247 . S
C54 O49 1.258 . S
C55 O52 1.247 . S
C55 O53 1.258 . S
C56 O58 1.247 . S
C56 O60 1.258 . S
C57 O64 1.247 . S
C57 O65 1.258 . S
O58 C56 1.247 . S
O58 Zn59 2.028 . S
Zn59 O58 2.028 . S
Zn59 O63 2.035 . S
Zn59 O65 2.035 . S
Zn59 O66 2.028 1_554 S
O60 C56 1.258 . S
O60 Zn61 2.035 . S
Zn61 O60 2.035 . S
Zn61 O62 2.028 . S
Zn61 O64 2.028 . S
Zn61 O67 2.035 1_554 S
O62 Zn61 2.028 . S
O62 C68 1.247 . S
O63 Zn59 2.035 . S
O63 C68 1.258 . S
O64 C57 1.247 . S
O64 Zn61 2.028 . S
O65 C57 1.258 . S
O65 Zn59 2.035 . S
O66 Zn59 2.028 1_556 S
O66 C69 1.247 . S
O67 Zn61 2.035 1_556 S
O67 C69 1.258 . S
C68 O62 1.247 . S
C68 O63 1.258 . S
C69 O66 1.247 . S
C69 O67 1.258 . S
C70 O72 1.247 . S
C70 O74 1.258 . S
C71 O78 1.247 . S
C71 O79 1.258 . S
O72 C70 1.247 . S
O72 Zn73 2.028 . S
Zn73 O72 2.028 . S
Zn73 O77 2.035 . S
Zn73 O79 2.035 . S
Zn73 O80 2.028 . S
O74 C70 1.258 . S
O74 Zn75 2.035 . S
Zn75 O74 2.035 . S
Zn75 O76 2.028 . S
Zn75 O78 2.028 . S
Zn75 O81 2.035 . S
O76 Zn75 2.028 . S
O76 C82 1.247 . S
O77 Zn73 2.035 . S
O77 C82 1.258 . S
O78 C71 1.247 . S
O78 Zn75 2.028 . S
O79 C71 1.258 . S
O79 Zn73 2.035 . S
O80 Zn73 2.028 . S
O80 C83 1.247 . S
O81 Zn75 2.035 . S
O81 C83 1.258 . S
C82 O76 1.247 . S
C82 O77 1.258 . S
C83 O80 1.247 . S
C83 O81 1.258 . S
C84 O86 1.247 . S
C84 O88 1.258 . S
C85 O92 1.247 . S
C85 O93 1.258 . S
O86 C84 1.247 . S
O86 Zn87 2.028 . S
Zn87 O86 2.028 . S
Zn87 O91 2.035 . S
Zn87 O93 2.035 . S
Zn87 O94 2.028 . S
O88 C84 1.258 . S
O88 Zn89 2.035 . S
Zn89 O88 2.035 . S
Zn89 O90 2.028 . S
Zn89 O92 2.028 . S
Zn89 O95 2.035 . S
O90 Zn89 2.028 . S
O90 C96 1.247 . S
O91 Zn87 2.035 . S
O91 C96 1.258 . S
O92 C85 1.247 . S
O92 Zn89 2.028 . S
O93 C85 1.258 . S
O93 Zn87 2.035 . S
O94 Zn87 2.028 . S
O94 C97 1.247 . S
O95 Zn89 2.035 . S
O95 C97 1.258 . S
C96 O90 1.247 . S
C96 O91 1.258 . S
C97 O94 1.247 . S
C97 O95 1.258 . S
C98 O100 1.247 . S
C98 O102 1.258 . S
C99 O106 1.247 . S
C99 O107 1.258 . S
O100 C98 1.247 . S
O100 Zn101 2.028 . S
Zn101 O100 2.028 . S
Zn101 O105 2.035 . S
Zn101 O107 2.035 . S
Zn101 O108 2.028 . S
O102 C98 1.258 . S
O102 Zn103 2.035 . S
Zn103 O102 2.035 . S
Zn103 O104 2.028 . S
Zn103 O106 2.028 . S
Zn103 O109 2.035 . S
O104 Zn103 2.028 . S
O104 C110 1.247 . S
O105 Zn101 2.035 . S
O105 C110 1.258 . S
O106 C99 1.247 . S
O106 Zn103 2.028 . S
O107 C99 1.258 . S
O107 Zn101 2.035 . S
O108 Zn101 2.028 . S
O108 C111 1.247 . S
O109 Zn103 2.035 . S
O109 C111 1.258 . S
C110 O104 1.247 . S
C110 O105 1.258 . S
C111 O108 1.247 . S
C111 O109 1.258 . S
C112 O114 1.247 . S
C112 O116 1.258 . S
C113 O120 1.247 . S
C113 O121 1.258 . S
O114 C112 1.247 . S
O114 Zn115 2.028 . S
Zn115 O114 2.028 . S
Zn115 O119 2.035 . S
Zn115 O121 2.035 . S
Zn115 O122 2.028 . S
O116 C112 1.258 . S
O116 Zn117 2.035 . S
Zn117 O116 2.035 . S
Zn117 O118 2.028 . S
Zn117 O120 2.028 . S
Zn117 O123 2.035 . S
O118 Zn117 2.028 . S
O118 C124 1.247 . S
O119 Zn115 2.035 . S
O119 C124 1.258 . S
O120 C113 1.247 . S
O120 Zn117 2.028 . S
O121 C113 1.258 . S
O121 Zn115 2.035 . S
O122 Zn115 2.028 . S
O122 C125 1.247 . S
O123 Zn117 2.035 . S
O123 C125 1.258 . S
C124 O118 1.247 . S
C124 O119 1.258 . S
C125 O122 1.247 . S
C125 O123 1.258 . S
C126 O128 1.247 . S
C126 O130 1.258 . S
C127 O134 1.255 . S
C127 O135 1.258 1_556 S
O128 C126 1.247 . S
O128 Zn129 2.028 . S
Zn129 O128 2.028 . S
Zn129 O133 2.035 . S
Zn129 O135 2.035 . S
Zn129 O136 2.028 . S
O130 C126 1.258 . S
O130 Zn131 2.035 . S
Zn131 O130 2.035 . S
Zn131 O132 2.028 . S
Zn131 O134 2.009 1_554 S
Zn131 O137 2.035 . S
O132 Zn131 2.028 . S
O132 C138 1.247 . S
O133 Zn129 2.035 . S
O133 C138 1.258 . S
O134 C127 1.255 . S
O134 Zn131 2.009 1_556 S
O135 C127 1.258 1_554 S
O135 Zn129 2.035 . S
O136 Zn129 2.028 . S
O136 C139 1.247 . S
O137 Zn131 2.035 . S
O137 C139 1.258 . S
C138 O132 1.247 . S
C138 O133 1.258 . S
C139 O136 1.247 . S
C139 O137 1.258 . S
C140 O142 1.247 . S
C140 O144 1.258 . S
C141 O148 1.247 . S
C141 O149 1.258 . S
O142 C140 1.247 . S
O142 Zn143 2.028 . S
Zn143 O142 2.028 . S
Zn143 O147 2.035 . S
Zn143 O149 2.035 . S
Zn143 O150 2.028 . S
O144 C140 1.258 . S
O144 Zn145 2.035 . S
Zn145 O144 2.035 . S
Zn145 O146 2.028 . S
Zn145 O148 2.028 . S
Zn145 O151 2.035 . S
O146 Zn145 2.028 . S
O146 C152 1.247 . S
O147 Zn143 2.035 . S
O147 C152 1.258 . S
O148 C141 1.247 . S
O148 Zn145 2.028 . S
O149 C141 1.258 . S
O149 Zn143 2.035 . S
O150 Zn143 2.028 . S
O150 C153 1.247 . S
O151 Zn145 2.035 . S
O151 C153 1.258 . S
C152 O146 1.247 . S
C152 O147 1.258 . S
C153 O150 1.247 . S
C153 O151 1.258 . S
C154 O156 1.247 . S
C154 O158 1.258 . S
C155 O162 1.247 . S
C155 O163 1.258 . S
O156 C154 1.247 . S
O156 Zn157 2.028 . S
Zn157 O156 2.028 . S
Zn157 O161 2.035 . S
Zn157 O163 2.035 . S
Zn157 O164 2.028 . S
O158 C154 1.258 . S
O158 Zn159 2.035 . S
Zn159 O158 2.035 . S
Zn159 O160 2.028 . S
Zn159 O162 2.028 . S
Zn159 O165 2.035 . S
O160 Zn159 2.028 . S
O160 C166 1.247 . S
O161 Zn157 2.035 . S
O161 C166 1.258 . S
O162 C155 1.247 . S
O162 Zn159 2.028 . S
O163 C155 1.258 . S
O163 Zn157 2.035 . S
O164 Zn157 2.028 . S
O164 C167 1.247 . S
O165 Zn159 2.035 . S
O165 C167 1.258 . S
C166 O160 1.247 . S
C166 O161 1.258 . S
C167 O164 1.247 . S
C167 O165 1.258 . S
C168 O170 1.247 . S
C168 O172 1.258 . S
C169 O176 1.247 . S
C169 O177 1.258 . S
O170 C168 1.247 . S
O170 Zn171 2.028 . S
Zn171 O170 2.028 . S
Zn171 O175 2.035 . S
Zn171 O177 2.035 . S
Zn171 O178 2.028 . S
O172 C168 1.258 . S
O172 Zn173 2.035 . S
Zn173 O172 2.035 . S
Zn173 O174 2.028 . S
Zn173 O176 2.028 . S
Zn173 O179 2.035 . S
O174 Zn173 2.028 . S
O174 C180 1.247 . S
O175 Zn171 2.035 . S
O175 C180 1.258 . S
O176 C169 1.247 . S
O176 Zn173 2.028 . S
O177 C169 1.258 . S
O177 Zn171 2.035 . S
O178 Zn171 2.028 . S
O178 C181 1.247 . S
O179 Zn173 2.035 . S
O179 C181 1.258 . S
C180 O174 1.247 . S
C180 O175 1.258 . S
C181 O178 1.247 . S
C181 O179 1.258 . S
C182 O184 1.247 . S
C182 O186 1.258 . S
C183 O190 1.247 . S
C183 O191 1.258 . S
O184 C182 1.247 . S
O184 Zn185 2.028 . S
Zn185 O184 2.028 . S
Zn185 O189 2.035 . S
Zn185 O191 2.035 . S
Zn185 O192 2.028 . S
O186 C182 1.258 . S
O186 Zn187 2.035 . S
Zn187 O186 2.035 . S
Zn187 O188 2.028 . S
Zn187 O190 2.028 . S
Zn187 O193 2.035 . S
O188 Zn187 2.028 . S
O188 C194 1.247 . S
O189 Zn185 2.035 . S
O189 C194 1.258 . S
O190 C183 1.247 . S
O190 Zn187 2.028 . S
O191 C183 1.258 . S
O191 Zn185 2.035 . S
O192 Zn185 2.028 . S
O192 C195 1.247 . S
O193 Zn187 2.035 . S
O193 C195 1.258 . S
C194 O188 1.247 . S
C194 O189 1.258 . S
C195 O192 1.247 . S
C195 O193 1.258 . S
C196 O198 1.247 . S
C196 O200 1.258 . S
C197 O204 1.247 . S
C197 O205 1.258 . S
O198 C196 1.247 . S
O198 Zn199 2.028 . S
Zn199 O198 2.028 . S
Zn199 O203 2.035 1_554 S
Zn199 O205 2.035 . S
Zn199 O206 2.028 . S
O200 C196 1.258 . S
O200 Zn201 2.035 . S
Zn201 O200 2.035 . S
Zn201 O202 2.028 1_554 S
Zn201 O204 2.028 . S
Zn201 O207 2.035 . S
O202 Zn201 2.028 1_556 S
O202 C208 1.247 . S
O203 Zn199 2.035 1_556 S
O203 C208 1.258 . S
O204 C197 1.247 . S
O204 Zn201 2.028 . S
O205 C197 1.258 . S
O205 Zn199 2.035 . S
O206 Zn199 2.028 . S
O206 C209 1.247 . S
O207 Zn201 2.035 . S
O207 C209 1.258 . S
C208 O202 1.247 . S
C208 O203 1.258 . S
C209 O206 1.247 . S
C209 O207 1.258 . S
C210 O212 1.247 . S
C210 O214 1.258 . S
C211 O218 1.247 . S
C211 O219 1.258 . S
O212 C210 1.247 . S
O212 Zn213 2.028 . S
Zn213 O212 2.028 . S
Zn213 O217 2.035 . S
Zn213 O219 2.035 . S
Zn213 O220 2.028 . S
O214 C210 1.258 . S
O214 Zn215 2.035 . S
Zn215 O214 2.035 . S
Zn215 O216 2.028 . S
Zn215 O218 2.028 . S
Zn215 O221 2.035 . S
O216 Zn215 2.028 . S
O216 C222 1.247 . S
O217 Zn213 2.035 . S
O217 C222 1.258 . S
O218 C211 1.247 . S
O218 Zn215 2.028 . S
O219 C211 1.258 . S
O219 Zn213 2.035 . S
O220 Zn213 2.028 . S
O220 C223 1.247 . S
O221 Zn215 2.035 . S
O221 C223 1.258 . S
C222 O216 1.247 . S
C222 O217 1.258 . S
C223 O220 1.247 . S
C223 O221 1.258 . S
H224 C242 0.951 . S
H225 C244 0.951 . S
H226 C246 0.950 . S
H227 C247 0.950 . S
H228 C249 0.950 . S
H229 C252 0.950 . S
H230 C253 0.950 . S
H231 C255 0.950 . S
H232 C256 0.950 . S
H233 C257 0.951 . S
H234 C259 0.951 . S
H235 C261 0.950 . S
H236 C262 0.950 . S
H237 C264 0.950 . S
H238 C267 0.950 . S
H239 C268 0.950 . S
H240 C270 0.950 . S
H241 C271 0.950 . S
C242 H224 0.951 . S
C242 C243 1.366 . S
C242 C244 1.388 . S
C243 C242 1.366 . S
C243 C247 1.385 . S
C244 H225 0.951 . S
C244 C242 1.388 . S
C244 C245 1.366 . S
C245 C244 1.366 . S
C245 C246 1.414 . S
C245 C248 1.499 . S
C246 H226 0.950 . S
C246 C245 1.414 . S
C246 C247 1.374 . S
C247 H227 0.950 . S
C247 C243 1.385 . S
C247 C246 1.374 . S
C248 C245 1.499 . S
C248 C249 1.373 . S
C248 C250 1.389 . S
C249 H228 0.950 . S
C249 C248 1.373 . S
C249 C265 1.377 . S
C250 C248 1.389 . S
C250 C251 1.524 . S
C250 C264 1.377 . S
C251 C250 1.524 . S
C251 C252 1.397 . S
C251 C256 1.363 . S
C252 H229 0.950 . S
C252 C251 1.397 . S
C252 C253 1.334 . S
C253 H230 0.950 . S
C253 C252 1.334 . S
C253 C254 1.287 . S
C254 C253 1.287 . S
C254 C255 1.524 . S
C254 H273 0.913 . S
C255 H231 0.950 . S
C255 C254 1.524 . S
C255 C256 1.415 . S
C256 H232 0.950 . S
C256 C251 1.363 . S
C256 C255 1.415 . S
C257 H233 0.951 . S
C257 C258 1.366 . S
C257 C259 1.388 . S
C258 C257 1.366 . S
C258 C262 1.385 . S
C259 H234 0.951 . S
C259 C257 1.388 . S
C259 C260 1.366 . S
C260 C259 1.366 . S
C260 C261 1.414 . S
C260 C263 1.499 . S
C261 H235 0.950 . S
C261 C260 1.414 . S
C261 C262 1.374 . S
C262 H236 0.950 . S
C262 C258 1.385 . S
C262 C261 1.374 . S
C263 C260 1.499 . S
C263 C264 1.373 . S
C263 C265 1.389 . S
C264 H237 0.950 . S
C264 C250 1.377 . S
C264 C263 1.373 . S
C265 C249 1.377 . S
C265 C263 1.389 . S
C265 C266 1.524 . S
C266 C265 1.524 . S
C266 C267 1.397 . S
C266 C271 1.363 . S
C267 H238 0.950 . S
C267 C266 1.397 . S
C267 C268 1.334 . S
C268 H239 0.950 . S
C268 C267 1.334 . S
C268 C269 1.287 . S
C269 C268 1.287 . S
C269 C270 1.524 . S
C269 H272 0.999 . S
C270 H240 0.950 . S
C270 C269 1.524 . S
C270 C271 1.415 . S
C271 H241 0.950 . S
C271 C266 1.363 . S
C271 C270 1.415 . S
H272 C269 0.999 . S
H273 C254 0.913 . S
H274 C292 0.951 . S
H275 C294 0.951 . S
H276 C296 0.950 . S
H277 C297 0.950 . S
H278 C299 0.950 . S
H279 C302 0.950 . S
H280 C303 0.950 . S
H281 C305 0.950 . S
H282 C306 0.950 . S
H283 C307 0.951 . S
H284 C309 0.951 . S
H285 C311 0.950 . S
H286 C312 0.950 . S
H287 C314 0.950 . S
H288 C317 0.950 . S
H289 C318 0.950 . S
H290 C320 0.950 . S
H291 C321 0.950 . S
C292 H274 0.951 . S
C292 C293 1.366 . S
C292 C294 1.388 . S
C293 C292 1.366 . S
C293 C297 1.385 . S
C294 H275 0.951 . S
C294 C292 1.388 . S
C294 C295 1.366 . S
C295 C294 1.366 . S
C295 C296 1.414 . S
C295 C298 1.499 . S
C296 H276 0.950 . S
C296 C295 1.414 . S
C296 C297 1.374 . S
C297 H277 0.950 . S
C297 C293 1.385 . S
C297 C296 1.374 . S
C298 C295 1.499 . S
C298 C299 1.373 . S
C298 C300 1.389 . S
C299 H278 0.950 . S
C299 C298 1.373 . S
C299 C315 1.377 . S
C300 C298 1.389 . S
C300 C301 1.524 . S
C300 C314 1.377 . S
C301 C300 1.524 . S
C301 C302 1.397 . S
C301 C306 1.363 . S
C302 H279 0.950 . S
C302 C301 1.397 . S
C302 C303 1.334 . S
C303 H280 0.950 . S
C303 C302 1.334 . S
C303 C304 1.287 . S
C304 C303 1.287 . S
C304 C305 1.524 . S
C304 H323 0.913 . S
C305 H281 0.950 . S
C305 C304 1.524 . S
C305 C306 1.415 . S
C306 H282 0.950 . S
C306 C301 1.363 . S
C306 C305 1.415 . S
C307 H283 0.951 . S
C307 C308 1.366 . S
C307 C309 1.388 . S
C308 C307 1.366 . S
C308 C312 1.385 . S
C309 H284 0.951 . S
C309 C307 1.388 . S
C309 C310 1.366 . S
C310 C309 1.366 . S
C310 C311 1.414 . S
C310 C313 1.499 . S
C311 H285 0.950 . S
C311 C310 1.414 . S
C311 C312 1.374 . S
C312 H286 0.950 . S
C312 C308 1.385 . S
C312 C311 1.374 . S
C313 C310 1.499 . S
C313 C314 1.373 . S
C313 C315 1.389 . S
C314 H287 0.950 . S
C314 C300 1.377 . S
C314 C313 1.373 . S
C315 C299 1.377 . S
C315 C313 1.389 . S
C315 C316 1.524 . S
C316 C315 1.524 . S
C316 C317 1.397 . S
C316 C321 1.363 . S
C317 H288 0.950 . S
C317 C316 1.397 . S
C317 C318 1.334 . S
C318 H289 0.950 . S
C318 C317 1.334 . S
C318 C319 1.287 . S
C319 C318 1.287 . S
C319 C320 1.524 . S
C319 H322 0.999 . S
C320 H290 0.950 . S
C320 C319 1.524 . S
C320 C321 1.415 . S
C321 H291 0.950 . S
C321 C316 1.363 . S
C321 C320 1.415 . S
H322 C319 0.999 . S
H323 C304 0.913 . S
H324 C342 0.951 . S
H325 C344 0.951 . S
H326 C346 0.950 . S
H327 C347 0.950 . S
H328 C349 0.950 . S
H329 C352 0.950 . S
H330 C353 0.950 . S
H331 C355 0.950 . S
H332 C356 0.950 . S
H333 C357 0.935 1_554 S
H334 C359 0.951 . S
H335 C361 0.950 . S
H336 C362 0.950 . S
H337 C364 0.950 . S
H338 C367 0.950 . S
H339 C368 0.950 . S
H340 C370 0.950 . S
H341 C371 0.950 . S
C342 H324 0.951 . S
C342 C343 1.366 . S
C342 C344 1.388 . S
C343 C342 1.366 . S
C343 C347 1.385 . S
C344 H325 0.951 . S
C344 C342 1.388 . S
C344 C345 1.366 . S
C345 C344 1.366 . S
C345 C346 1.414 . S
C345 C348 1.499 . S
C346 H326 0.950 . S
C346 C345 1.414 . S
C346 C347 1.374 . S
C347 H327 0.950 . S
C347 C343 1.385 . S
C347 C346 1.374 . S
C348 C345 1.499 . S
C348 C349 1.373 . S
C348 C350 1.389 . S
C349 H328 0.950 . S
C349 C348 1.373 . S
C349 C365 1.377 . S
C350 C348 1.389 . S
C350 C351 1.524 . S
C350 C364 1.377 . S
C351 C350 1.524 . S
C351 C352 1.397 . S
C351 C356 1.363 . S
C352 H329 0.950 . S
C352 C351 1.397 . S
C352 C353 1.334 . S
C353 H330 0.950 . S
C353 C352 1.334 . S
C353 C354 1.287 . S
C354 C353 1.287 . S
C354 C355 1.524 . S
C354 H373 0.913 . S
C355 H331 0.950 . S
C355 C354 1.524 . S
C355 C356 1.415 . S
C356 H332 0.950 . S
C356 C351 1.363 . S
C356 C355 1.415 . S
C357 H333 0.935 1_556 S
C357 C358 1.373 . S
C357 C359 1.396 . S
C358 C357 1.373 . S
C358 C362 1.385 . S
C359 H334 0.951 . S
C359 C357 1.396 . S
C359 C360 1.366 . S
C360 C359 1.366 . S
C360 C361 1.414 . S
C360 C363 1.499 . S
C361 H335 0.950 . S
C361 C360 1.414 . S
C361 C362 1.374 . S
C362 H336 0.950 . S
C362 C358 1.385 . S
C362 C361 1.374 . S
C363 C360 1.499 . S
C363 C364 1.373 . S
C363 C365 1.389 . S
C364 H337 0.950 . S
C364 C350 1.377 . S
C364 C363 1.373 . S
C365 C349 1.377 . S
C365 C363 1.389 . S
C365 C366 1.524 . S
C366 C365 1.524 . S
C366 C367 1.397 . S
C366 C371 1.363 1_556 S
C367 H338 0.950 . S
C367 C366 1.397 . S
C367 C368 1.334 1_556 S
C368 H339 0.950 . S
C368 C367 1.334 1_554 S
C368 C369 1.287 . S
C369 C368 1.287 . S
C369 C370 1.524 . S
C369 H372 0.999 . S
C370 H340 0.950 . S
C370 C369 1.524 . S
C370 C371 1.415 . S
C371 H341 0.950 . S
C371 C366 1.363 1_554 S
C371 C370 1.415 . S
H372 C369 0.999 . S
H373 C354 0.913 . S
H374 C392 0.951 . S
H375 C394 0.951 . S
H376 C396 0.950 . S
H377 C397 0.950 . S
H378 C399 0.950 . S
H379 C402 0.950 . S
H380 C403 0.950 . S
H381 C405 0.950 . S
H382 C406 0.950 . S
H383 C407 0.951 . S
H384 C409 0.951 . S
H385 C411 0.950 . S
H386 C412 0.950 . S
H387 C414 0.950 . S
H388 C417 0.950 . S
H389 C418 0.950 . S
H390 C420 0.950 . S
H391 C421 0.950 . S
C392 H374 0.951 . S
C392 C393 1.366 . S
C392 C394 1.388 . S
C393 C392 1.366 . S
C393 C397 1.385 . S
C394 H375 0.951 . S
C394 C392 1.388 . S
C394 C395 1.366 . S
C395 C394 1.366 . S
C395 C396 1.414 . S
C395 C398 1.499 . S
C396 H376 0.950 . S
C396 C395 1.414 . S
C396 C397 1.374 . S
C397 H377 0.950 . S
C397 C393 1.385 . S
C397 C396 1.374 . S
C398 C395 1.499 . S
C398 C399 1.373 . S
C398 C400 1.389 . S
C399 H378 0.950 . S
C399 C398 1.373 . S
C399 C415 1.377 . S
C400 C398 1.389 . S
C400 C401 1.524 . S
C400 C414 1.377 . S
C401 C400 1.524 . S
C401 C402 1.397 . S
C401 C406 1.363 . S
C402 H379 0.950 . S
C402 C401 1.397 . S
C402 C403 1.334 . S
C403 H380 0.950 . S
C403 C402 1.334 . S
C403 C404 1.287 . S
C404 C403 1.287 . S
C404 C405 1.524 . S
C404 H423 0.913 . S
C405 H381 0.950 . S
C405 C404 1.524 . S
C405 C406 1.415 . S
C406 H382 0.950 . S
C406 C401 1.363 . S
C406 C405 1.415 . S
C407 H383 0.951 . S
C407 C408 1.366 . S
C407 C409 1.388 . S
C408 C407 1.366 . S
C408 C412 1.385 . S
C409 H384 0.951 . S
C409 C407 1.388 . S
C409 C410 1.366 . S
C410 C409 1.366 . S
C410 C411 1.414 . S
C410 C413 1.499 . S
C411 H385 0.950 . S
C411 C410 1.414 . S
C411 C412 1.374 . S
C412 H386 0.950 . S
C412 C408 1.385 . S
C412 C411 1.374 . S
C413 C410 1.499 . S
C413 C414 1.373 . S
C413 C415 1.389 . S
C414 H387 0.950 . S
C414 C400 1.377 . S
C414 C413 1.373 . S
C415 C399 1.377 . S
C415 C413 1.389 . S
C415 C416 1.524 . S
C416 C415 1.524 . S
C416 C417 1.397 . S
C416 C421 1.363 . S
C417 H388 0.950 . S
C417 C416 1.397 . S
C417 C418 1.334 . S
C418 H389 0.950 . S
C418 C417 1.334 . S
C418 C419 1.287 . S
C419 C418 1.287 . S
C419 C420 1.524 . S
C419 H422 0.999 . S
C420 H390 0.950 . S
C420 C419 1.524 . S
C420 C421 1.415 . S
C421 H391 0.950 . S
C421 C416 1.363 . S
C421 C420 1.415 . S
H422 C419 0.999 . S
H423 C404 0.913 . S
H424 C442 0.951 . S
H425 C444 0.951 . S
H426 C446 0.950 . S
H427 C447 0.950 . S
H428 C449 0.950 . S
H429 C452 0.950 . S
H430 C453 0.950 . S
H431 C455 0.950 . S
H432 C456 0.950 . S
H433 C457 0.952 1_554 S
H434 C459 0.951 . S
H435 C461 0.950 . S
H436 C462 0.950 . S
H437 C464 0.950 . S
H438 C467 0.950 . S
H439 C468 0.950 . S
H440 C470 0.950 . S
H441 C471 0.950 . S
C442 H424 0.951 . S
C442 C443 1.366 . S
C442 C444 1.388 . S
C443 C442 1.366 . S
C443 C447 1.385 . S
C444 H425 0.951 . S
C444 C442 1.388 . S
C444 C445 1.366 . S
C445 C444 1.366 . S
C445 C446 1.414 . S
C445 C448 1.499 . S
C446 H426 0.950 . S
C446 C445 1.414 . S
C446 C447 1.374 . S
C447 H427 0.950 . S
C447 C443 1.385 . S
C447 C446 1.374 . S
C448 C445 1.499 . S
C448 C449 1.373 . S
C448 C450 1.389 . S
C449 H428 0.950 . S
C449 C448 1.373 . S
C449 C465 1.377 . S
C450 C448 1.389 . S
C450 C451 1.524 . S
C450 C464 1.377 . S
C451 C450 1.524 . S
C451 C452 1.397 . S
C451 C456 1.363 . S
C452 H429 0.950 . S
C452 C451 1.397 . S
C452 C453 1.334 . S
C453 H430 0.950 . S
C453 C452 1.334 . S
C453 C454 1.287 . S
C454 C453 1.287 . S
C454 C455 1.524 . S
C454 H473 0.913 . S
C455 H431 0.950 . S
C455 C454 1.524 . S
C455 C456 1.415 . S
C456 H432 0.950 . S
C456 C451 1.363 . S
C456 C455 1.415 . S
C457 H433 0.952 1_556 S
C457 C458 1.365 . S
C457 C459 1.387 . S
C458 C457 1.365 . S
C458 C462 1.385 . S
C459 H434 0.951 . S
C459 C457 1.387 . S
C459 C460 1.366 . S
C460 C459 1.366 . S
C460 C461 1.414 . S
C460 C463 1.499 . S
C461 H435 0.950 . S
C461 C460 1.414 . S
C461 C462 1.374 . S
C462 H436 0.950 . S
C462 C458 1.385 . S
C462 C461 1.374 . S
C463 C460 1.499 . S
C463 C464 1.373 . S
C463 C465 1.389 . S
C464 H437 0.950 . S
C464 C450 1.377 . S
C464 C463 1.373 . S
C465 C449 1.377 . S
C465 C463 1.389 . S
C465 C466 1.524 . S
C466 C465 1.524 . S
C466 C467 1.397 . S
C466 C471 1.363 1_556 S
C467 H438 0.950 . S
C467 C466 1.397 . S
C467 C468 1.334 1_556 S
C468 H439 0.950 . S
C468 C467 1.334 1_554 S
C468 C469 1.287 . S
C469 C468 1.287 . S
C469 C470 1.524 . S
C469 H472 0.999 . S
C470 H440 0.950 . S
C470 C469 1.524 . S
C470 C471 1.415 . S
C471 H441 0.950 . S
C471 C466 1.363 1_554 S
C471 C470 1.415 . S
H472 C469 0.999 . S
H473 C454 0.913 . S
H474 C492 0.951 . S
H475 C494 0.951 . S
H476 C496 0.950 . S
H477 C497 0.950 . S
H478 C499 0.950 . S
H479 C502 0.950 . S
H480 C503 0.950 . S
H481 C505 0.950 . S
H482 C506 0.950 . S
H483 C507 0.951 . S
H484 C509 0.951 . S
H485 C511 0.950 . S
H486 C512 0.950 . S
H487 C514 0.950 . S
H488 C517 0.950 . S
H489 C518 0.950 . S
H490 C520 0.950 . S
H491 C521 0.950 . S
C492 H474 0.951 . S
C492 C493 1.366 . S
C492 C494 1.388 . S
C493 C492 1.366 . S
C493 C497 1.385 . S
C494 H475 0.951 . S
C494 C492 1.388 . S
C494 C495 1.366 . S
C495 C494 1.366 . S
C495 C496 1.414 . S
C495 C498 1.499 . S
C496 H476 0.950 . S
C496 C495 1.414 . S
C496 C497 1.374 . S
C497 H477 0.950 . S
C497 C493 1.385 . S
C497 C496 1.374 . S
C498 C495 1.499 . S
C498 C499 1.373 . S
C498 C500 1.389 . S
C499 H478 0.950 . S
C499 C498 1.373 . S
C499 C515 1.377 . S
C500 C498 1.389 . S
C500 C501 1.524 . S
C500 C514 1.377 . S
C501 C500 1.524 . S
C501 C502 1.397 . S
C501 C506 1.363 . S
C502 H479 0.950 . S
C502 C501 1.397 . S
C502 C503 1.334 . S
C503 H480 0.950 . S
C503 C502 1.334 . S
C503 C504 1.287 . S
C504 C503 1.287 . S
C504 C505 1.524 . S
C504 H523 0.913 . S
C505 H481 0.950 . S
C505 C504 1.524 . S
C505 C506 1.415 . S
C506 H482 0.950 . S
C506 C501 1.363 . S
C506 C505 1.415 . S
C507 H483 0.951 . S
C507 C508 1.366 . S
C507 C509 1.388 . S
C508 C507 1.366 . S
C508 C512 1.385 . S
C509 H484 0.951 . S
C509 C507 1.388 . S
C509 C510 1.366 . S
C510 C509 1.366 . S
C510 C511 1.414 . S
C510 C513 1.499 . S
C511 H485 0.950 . S
C511 C510 1.414 . S
C511 C512 1.374 . S
C512 H486 0.950 . S
C512 C508 1.385 . S
C512 C511 1.374 . S
C513 C510 1.499 . S
C513 C514 1.373 . S
C513 C515 1.389 . S
C514 H487 0.950 . S
C514 C500 1.377 . S
C514 C513 1.373 . S
C515 C499 1.377 . S
C515 C513 1.389 . S
C515 C516 1.524 . S
C516 C515 1.524 . S
C516 C517 1.397 . S
C516 C521 1.363 . S
C517 H488 0.950 . S
C517 C516 1.397 . S
C517 C518 1.334 . S
C518 H489 0.950 . S
C518 C517 1.334 . S
C518 C519 1.287 . S
C519 C518 1.287 . S
C519 C520 1.524 . S
C519 H522 0.999 . S
C520 H490 0.950 . S
C520 C519 1.524 . S
C520 C521 1.415 . S
C521 H491 0.950 . S
C521 C516 1.363 . S
C521 C520 1.415 . S
H522 C519 0.999 . S
H523 C504 0.913 . S
H524 C542 0.951 . S
H525 C544 0.951 . S
H526 C546 0.950 . S
H527 C547 0.950 . S
H528 C549 0.950 . S
H529 C552 0.950 . S
H530 C553 0.950 . S
H531 C555 0.950 . S
H532 C556 0.950 . S
H533 C557 0.951 . S
H534 C559 0.951 . S
H535 C561 0.950 . S
H536 C562 0.950 . S
H537 C564 0.950 . S
H538 C567 0.950 . S
H539 C568 0.950 . S
H540 C570 0.950 . S
H541 C571 0.950 . S
C542 H524 0.951 . S
C542 C543 1.366 . S
C542 C544 1.388 . S
C543 C542 1.366 . S
C543 C547 1.385 . S
C544 H525 0.951 . S
C544 C542 1.388 . S
C544 C545 1.366 . S
C545 C544 1.366 . S
C545 C546 1.414 . S
C545 C548 1.499 . S
C546 H526 0.950 . S
C546 C545 1.414 . S
C546 C547 1.374 . S
C547 H527 0.950 . S
C547 C543 1.385 . S
C547 C546 1.374 . S
C548 C545 1.499 . S
C548 C549 1.373 . S
C548 C550 1.389 . S
C549 H528 0.950 . S
C549 C548 1.373 . S
C549 C565 1.377 . S
C550 C548 1.389 . S
C550 C551 1.524 . S
C550 C564 1.377 . S
C551 C550 1.524 . S
C551 C552 1.397 . S
C551 C556 1.363 . S
C552 H529 0.950 . S
C552 C551 1.397 . S
C552 C553 1.334 . S
C553 H530 0.950 . S
C553 C552 1.334 . S
C553 C554 1.287 . S
C554 C553 1.287 . S
C554 C555 1.524 . S
C554 H573 0.913 . S
C555 H531 0.950 . S
C555 C554 1.524 . S
C555 C556 1.415 . S
C556 H532 0.950 . S
C556 C551 1.363 . S
C556 C555 1.415 . S
C557 H533 0.951 . S
C557 C558 1.366 . S
C557 C559 1.388 . S
C558 C557 1.366 . S
C558 C562 1.385 . S
C559 H534 0.951 . S
C559 C557 1.388 . S
C559 C560 1.366 . S
C560 C559 1.366 . S
C560 C561 1.414 . S
C560 C563 1.499 . S
C561 H535 0.950 . S
C561 C560 1.414 . S
C561 C562 1.374 . S
C562 H536 0.950 . S
C562 C558 1.385 . S
C562 C561 1.374 . S
C563 C560 1.499 . S
C563 C564 1.373 . S
C563 C565 1.389 . S
C564 H537 0.950 . S
C564 C550 1.377 . S
C564 C563 1.373 . S
C565 C549 1.377 . S
C565 C563 1.389 . S
C565 C566 1.524 . S
C566 C565 1.524 . S
C566 C567 1.397 . S
C566 C571 1.363 . S
C567 H538 0.950 . S
C567 C566 1.397 . S
C567 C568 1.334 . S
C568 H539 0.950 . S
C568 C567 1.334 . S
C568 C569 1.287 . S
C569 C568 1.287 . S
C569 C570 1.524 . S
C569 H572 0.999 . S
C570 H540 0.950 . S
C570 C569 1.524 . S
C570 C571 1.415 . S
C571 H541 0.950 . S
C571 C566 1.363 . S
C571 C570 1.415 . S
H572 C569 0.999 . S
H573 C554 0.913 . S
H574 C592 0.951 . S
H575 C594 0.951 . S
H576 C596 0.950 . S
H577 C597 0.950 . S
H578 C599 0.950 . S
H579 C602 0.950 . S
H580 C603 0.950 . S
H581 C605 0.950 . S
H582 C606 0.950 . S
H583 C607 0.951 . S
H584 C609 0.951 . S
H585 C611 0.950 . S
H586 C612 0.950 . S
H587 C614 0.950 . S
H588 C617 0.950 . S
H589 C618 0.950 . S
H590 C620 0.950 . S
H591 C621 0.950 . S
C592 H574 0.951 . S
C592 C593 1.366 . S
C592 C594 1.388 . S
C593 C592 1.366 . S
C593 C597 1.385 . S
C594 H575 0.951 . S
C594 C592 1.388 . S
C594 C595 1.366 . S
C595 C594 1.366 . S
C595 C596 1.414 . S
C595 C598 1.499 . S
C596 H576 0.950 . S
C596 C595 1.414 . S
C596 C597 1.374 . S
C597 H577 0.950 . S
C597 C593 1.385 . S
C597 C596 1.374 . S
C598 C595 1.499 . S
C598 C599 1.373 . S
C598 C600 1.389 . S
C599 H578 0.950 . S
C599 C598 1.373 . S
C599 C615 1.377 . S
C600 C598 1.389 . S
C600 C601 1.524 . S
C600 C614 1.377 . S
C601 C600 1.524 . S
C601 C602 1.397 . S
C601 C606 1.363 . S
C602 H579 0.950 . S
C602 C601 1.397 . S
C602 C603 1.334 . S
C603 H580 0.950 . S
C603 C602 1.334 . S
C603 C604 1.287 . S
C604 C603 1.287 . S
C604 C605 1.524 . S
C604 H623 0.913 . S
C605 H581 0.950 . S
C605 C604 1.524 . S
C605 C606 1.415 . S
C606 H582 0.950 . S
C606 C601 1.363 . S
C606 C605 1.415 . S
C607 H583 0.951 . S
C607 C608 1.366 . S
C607 C609 1.388 . S
C608 C607 1.366 . S
C608 C612 1.385 . S
C609 H584 0.951 . S
C609 C607 1.388 . S
C609 C610 1.366 . S
C610 C609 1.366 . S
C610 C611 1.414 . S
C610 C613 1.499 . S
C611 H585 0.950 . S
C611 C610 1.414 . S
C611 C612 1.374 . S
C612 H586 0.950 . S
C612 C608 1.385 . S
C612 C611 1.374 . S
C613 C610 1.499 . S
C613 C614 1.373 . S
C613 C615 1.389 . S
C614 H587 0.950 . S
C614 C600 1.377 . S
C614 C613 1.373 . S
C615 C599 1.377 . S
C615 C613 1.389 . S
C615 C616 1.524 . S
C616 C615 1.524 . S
C616 C617 1.397 . S
C616 C621 1.363 . S
C617 H588 0.950 . S
C617 C616 1.397 . S
C617 C618 1.334 . S
C618 H589 0.950 . S
C618 C617 1.334 . S
C618 C619 1.287 . S
C619 C618 1.287 . S
C619 C620 1.524 . S
C619 H622 0.999 . S
C620 H590 0.950 . S
C620 C619 1.524 . S
C620 C621 1.415 . S
C621 H591 0.950 . S
C621 C616 1.363 . S
C621 C620 1.415 . S
H622 C619 0.999 . S
H623 C604 0.913 . S
H624 C642 0.951 . S
H625 C644 0.951 . S
H626 C646 0.950 . S
H627 C647 0.950 . S
H628 C649 0.950 . S
H629 C652 0.950 . S
H630 C653 0.955 . S
H631 C655 0.950 . S
H632 C656 0.950 . S
H633 C657 0.951 . S
H634 C659 0.951 . S
H635 C661 0.950 . S
H636 C662 0.950 . S
H637 C664 0.950 . S
H638 C667 0.950 . S
H639 C668 0.955 . S
H640 C670 0.950 . S
H641 C671 0.950 . S
C642 H624 0.951 . S
C642 C643 1.366 . S
C642 C644 1.388 . S
C643 C642 1.366 . S
C643 C647 1.385 . S
C644 H625 0.951 . S
C644 C642 1.388 . S
C644 C645 1.366 . S
C645 C644 1.366 . S
C645 C646 1.414 . S
C645 C648 1.499 . S
C646 H626 0.950 . S
C646 C645 1.414 . S
C646 C647 1.374 . S
C647 H627 0.950 . S
C647 C643 1.385 . S
C647 C646 1.374 . S
C648 C645 1.499 . S
C648 C649 1.373 . S
C648 C650 1.389 . S
C649 H628 0.950 . S
C649 C648 1.373 . S
C649 C665 1.377 1_445 S
C650 C648 1.389 . S
C650 C651 1.524 . S
C650 C664 1.377 1_445 S
C651 C650 1.524 . S
C651 C652 1.395 1_545 S
C651 C656 1.363 . S
C652 H629 0.950 . S
C652 C651 1.395 1_565 S
C652 C653 1.333 . S
C653 H630 0.955 . S
C653 C652 1.333 . S
C653 C654 1.287 . S
C654 C653 1.287 . S
C654 C655 1.519 1_565 S
C654 H673 0.913 . S
C655 H631 0.950 . S
C655 C654 1.519 1_545 S
C655 C656 1.415 . S
C656 H632 0.950 . S
C656 C651 1.363 . S
C656 C655 1.415 . S
C657 H633 0.951 . S
C657 C658 1.366 . S
C657 C659 1.388 . S
C658 C657 1.366 . S
C658 C662 1.385 . S
C659 H634 0.951 . S
C659 C657 1.388 . S
C659 C660 1.366 . S
C660 C659 1.366 . S
C660 C661 1.414 . S
C660 C663 1.499 . S
C661 H635 0.950 . S
C661 C660 1.414 . S
C661 C662 1.374 . S
C662 H636 0.950 . S
C662 C658 1.385 . S
C662 C661 1.374 . S
C663 C660 1.499 . S
C663 C664 1.373 . S
C663 C665 1.389 . S
C664 H637 0.950 . S
C664 C650 1.377 1_665 S
C664 C663 1.373 . S
C665 C649 1.377 1_665 S
C665 C663 1.389 . S
C665 C666 1.524 . S
C666 C665 1.524 . S
C666 C667 1.396 1_565 S
C666 C671 1.363 . S
C667 H638 0.950 . S
C667 C666 1.396 1_545 S
C667 C668 1.333 . S
C668 H639 0.955 . S
C668 C667 1.333 . S
C668 C669 1.287 . S
C669 C668 1.287 . S
C669 C670 1.519 1_545 S
C669 H672 0.999 . S
C670 H640 0.950 . S
C670 C669 1.519 1_565 S
C670 C671 1.415 . S
C671 H641 0.950 . S
C671 C666 1.363 . S
C671 C670 1.415 . S
H672 C669 0.999 . S
H673 C654 0.913 . S
H674 C692 0.951 . S
H675 C694 0.951 . S
H676 C696 0.950 . S
H677 C697 0.950 . S
H678 C699 0.950 . S
H679 C702 0.950 . S
H680 C703 0.950 . S
H681 C705 0.950 . S
H682 C706 0.950 . S
H683 C707 0.951 . S
H684 C709 0.951 . S
H685 C711 0.950 . S
H686 C712 0.950 . S
H687 C714 0.950 . S
H688 C717 0.950 . S
H689 C718 0.950 . S
H690 C720 0.950 . S
H691 C721 0.950 . S
C692 H674 0.951 . S
C692 C693 1.366 . S
C692 C694 1.388 . S
C693 C692 1.366 . S
C693 C697 1.385 . S
C694 H675 0.951 . S
C694 C692 1.388 . S
C694 C695 1.366 . S
C695 C694 1.366 . S
C695 C696 1.414 . S
C695 C698 1.499 . S
C696 H676 0.950 . S
C696 C695 1.414 . S
C696 C697 1.374 . S
C697 H677 0.950 . S
C697 C693 1.385 . S
C697 C696 1.374 . S
C698 C695 1.499 . S
C698 C699 1.373 . S
C698 C700 1.389 1_655 S
C699 H678 0.950 . S
C699 C698 1.373 . S
C699 C715 1.377 . S
C700 C698 1.389 1_455 S
C700 C701 1.524 . S
C700 C714 1.377 . S
C701 C700 1.524 . S
C701 C702 1.397 1_455 S
C701 C706 1.363 . S
C702 H679 0.950 . S
C702 C701 1.397 1_655 S
C702 C703 1.334 . S
C703 H680 0.950 . S
C703 C702 1.334 . S
C703 C704 1.287 1_655 S
C704 C703 1.287 1_455 S
C704 C705 1.524 . S
C704 H723 0.913 . S
C705 H681 0.950 . S
C705 C704 1.524 . S
C705 C706 1.415 . S
C706 H682 0.950 . S
C706 C701 1.363 . S
C706 C705 1.415 . S
C707 H683 0.951 . S
C707 C708 1.366 . S
C707 C709 1.388 . S
C708 C707 1.366 . S
C708 C712 1.385 . S
C709 H684 0.951 . S
C709 C707 1.388 . S
C709 C710 1.366 . S
C710 C709 1.366 . S
C710 C711 1.414 . S
C710 C713 1.499 . S
C711 H685 0.950 . S
C711 C710 1.414 . S
C711 C712 1.374 . S
C712 H686 0.950 . S
C712 C708 1.385 . S
C712 C711 1.374 . S
C713 C710 1.499 . S
C713 C714 1.373 . S
C713 C715 1.389 1_455 S
C714 H687 0.950 . S
C714 C700 1.377 . S
C714 C713 1.373 . S
C715 C699 1.377 . S
C715 C713 1.389 1_655 S
C715 C716 1.524 . S
C716 C715 1.524 . S
C716 C717 1.397 1_655 S
C716 C721 1.363 . S
C717 H688 0.950 . S
C717 C716 1.397 1_455 S
C717 C718 1.334 . S
C718 H689 0.950 . S
C718 C717 1.334 . S
C718 C719 1.287 1_455 S
C719 C718 1.287 1_655 S
C719 C720 1.524 . S
C719 H722 0.999 . S
C720 H690 0.950 . S
C720 C719 1.524 . S
C720 C721 1.415 . S
C721 H691 0.950 . S
C721 C716 1.363 . S
C721 C720 1.415 . S
H722 C719 0.999 . S
H723 C704 0.913 . S
H724 C742 0.951 . S
H725 C744 0.951 . S
H726 C746 0.950 . S
H727 C747 0.950 . S
H728 C749 0.950 . S
H729 C752 0.950 . S
H730 C753 0.950 . S
H731 C755 0.950 . S
H732 C756 0.950 . S
H733 C757 0.951 . S
H734 C759 0.951 . S
H735 C761 0.950 . S
H736 C762 0.950 . S
H737 C764 0.950 . S
H738 C767 0.950 . S
H739 C768 0.950 . S
H740 C770 0.950 . S
H741 C771 0.950 . S
C742 H724 0.951 . S
C742 C743 1.366 . S
C742 C744 1.388 . S
C743 C742 1.366 . S
C743 C747 1.385 . S
C744 H725 0.951 . S
C744 C742 1.388 . S
C744 C745 1.366 . S
C745 C744 1.366 . S
C745 C746 1.414 . S
C745 C748 1.499 . S
C746 H726 0.950 . S
C746 C745 1.414 . S
C746 C747 1.374 . S
C747 H727 0.950 . S
C747 C743 1.385 . S
C747 C746 1.374 . S
C748 C745 1.499 . S
C748 C749 1.373 . S
C748 C750 1.389 . S
C749 H728 0.950 . S
C749 C748 1.373 . S
C749 C765 1.377 . S
C750 C748 1.389 . S
C750 C751 1.524 . S
C750 C764 1.377 . S
C751 C750 1.524 . S
C751 C752 1.397 . S
C751 C756 1.363 . S
C752 H729 0.950 . S
C752 C751 1.397 . S
C752 C753 1.334 . S
C753 H730 0.950 . S
C753 C752 1.334 . S
C753 C754 1.287 . S
C754 C753 1.287 . S
C754 C755 1.524 . S
C754 H773 0.913 . S
C755 H731 0.950 . S
C755 C754 1.524 . S
C755 C756 1.415 . S
C756 H732 0.950 . S
C756 C751 1.363 . S
C756 C755 1.415 . S
C757 H733 0.951 . S
C757 C758 1.366 . S
C757 C759 1.388 . S
C758 C757 1.366 . S
C758 C762 1.385 . S
C759 H734 0.951 . S
C759 C757 1.388 . S
C759 C760 1.366 . S
C760 C759 1.366 . S
C760 C761 1.414 . S
C760 C763 1.499 . S
C761 H735 0.950 . S
C761 C760 1.414 . S
C761 C762 1.374 . S
C762 H736 0.950 . S
C762 C758 1.385 . S
C762 C761 1.374 . S
C763 C760 1.499 . S
C763 C764 1.373 . S
C763 C765 1.389 . S
C764 H737 0.950 . S
C764 C750 1.377 . S
C764 C763 1.373 . S
C765 C749 1.377 . S
C765 C763 1.389 . S
C765 C766 1.524 . S
C766 C765 1.524 . S
C766 C767 1.397 . S
C766 C771 1.363 . S
C767 H738 0.950 . S
C767 C766 1.397 . S
C767 C768 1.334 . S
C768 H739 0.950 . S
C768 C767 1.334 . S
C768 C769 1.287 . S
C769 C768 1.287 . S
C769 C770 1.524 . S
C769 H772 0.999 . S
C770 H740 0.950 . S
C770 C769 1.524 . S
C770 C771 1.415 . S
C771 H741 0.950 . S
C771 C766 1.363 . S
C771 C770 1.415 . S
H772 C769 0.999 . S
H773 C754 0.913 . S
H774 C792 0.951 . S
H775 C794 0.951 . S
H776 C796 0.950 . S
H777 C797 0.950 . S
H778 C799 0.950 . S
H779 C802 0.950 . S
H780 C803 0.950 . S
H781 C805 0.950 . S
H782 C806 0.950 . S
H783 C807 0.951 . S
H784 C809 0.951 . S
H785 C811 0.950 . S
H786 C812 0.950 . S
H787 C814 0.946 1_556 S
H788 C817 0.950 . S
H789 C818 0.950 . S
H790 C820 0.950 . S
H791 C821 0.950 . S
C792 H774 0.951 . S
C792 C793 1.366 . S
C792 C794 1.388 . S
C793 C792 1.366 . S
C793 C797 1.385 . S
C794 H775 0.951 . S
C794 C792 1.388 . S
C794 C795 1.366 . S
C795 C794 1.366 . S
C795 C796 1.414 . S
C795 C798 1.499 . S
C796 H776 0.950 . S
C796 C795 1.414 . S
C796 C797 1.374 . S
C797 H777 0.950 . S
C797 C793 1.385 . S
C797 C796 1.374 . S
C798 C795 1.499 . S
C798 C799 1.373 1_565 S
C798 C800 1.389 . S
C799 H778 0.950 . S
C799 C798 1.373 1_545 S
C799 C815 1.377 . S
C800 C798 1.389 . S
C800 C801 1.524 1_554 S
C800 C814 1.377 . S
C801 C800 1.524 1_556 S
C801 C802 1.397 . S
C801 C806 1.363 . S
C802 H779 0.950 . S
C802 C801 1.397 . S
C802 C803 1.334 . S
C803 H780 0.950 . S
C803 C802 1.334 . S
C803 C804 1.287 . S
C804 C803 1.287 . S
C804 C805 1.524 . S
C804 H823 0.913 . S
C805 H781 0.950 . S
C805 C804 1.524 . S
C805 C806 1.415 . S
C806 H782 0.950 . S
C806 C801 1.363 . S
C806 C805 1.415 . S
C807 H783 0.951 . S
C807 C808 1.366 . S
C807 C809 1.388 . S
C808 C807 1.366 . S
C808 C812 1.385 . S
C809 H784 0.951 . S
C809 C807 1.388 . S
C809 C810 1.366 . S
C810 C809 1.366 . S
C810 C811 1.414 . S
C810 C813 1.499 . S
C811 H785 0.950 . S
C811 C810 1.414 . S
C811 C812 1.374 . S
C812 H786 0.950 . S
C812 C808 1.385 . S
C812 C811 1.374 . S
C813 C810 1.499 . S
C813 C814 1.373 1_545 S
C813 C815 1.389 . S
C814 H787 0.946 1_554 S
C814 C800 1.377 . S
C814 C813 1.373 1_565 S
C815 C799 1.377 . S
C815 C813 1.389 . S
C815 C816 1.524 . S
C816 C815 1.524 . S
C816 C817 1.397 . S
C816 C821 1.363 . S
C817 H788 0.950 . S
C817 C816 1.397 . S
C817 C818 1.334 . S
C818 H789 0.950 . S
C818 C817 1.334 . S
C818 C819 1.287 . S
C819 C818 1.287 . S
C819 C820 1.524 . S
C819 H822 0.999 . S
C820 H790 0.950 . S
C820 C819 1.524 . S
C820 C821 1.415 . S
C821 H791 0.950 . S
C821 C816 1.363 . S
C821 C820 1.415 . S
H822 C819 0.999 . S
H823 C804 0.913 . S
H824 C842 0.951 . S
H825 C844 0.951 . S
H826 C846 0.950 . S
H827 C847 0.950 . S
H828 C849 0.950 1_556 S
H829 C852 0.950 . S
H830 C853 0.950 . S
H831 C855 0.950 . S
H832 C856 0.950 . S
H833 C857 0.951 . S
H834 C859 0.951 . S
H835 C861 0.950 . S
H836 C862 0.950 . S
H837 C864 0.950 . S
H838 C867 0.950 . S
H839 C868 0.950 . S
H840 C870 0.950 . S
H841 C871 0.950 . S
C842 H824 0.951 . S
C842 C843 1.366 . S
C842 C844 1.388 . S
C843 C842 1.366 . S
C843 C847 1.385 . S
C844 H825 0.951 . S
C844 C842 1.388 . S
C844 C845 1.366 . S
C845 C844 1.366 . S
C845 C846 1.414 . S
C845 C848 1.499 . S
C846 H826 0.950 . S
C846 C845 1.414 . S
C846 C847 1.374 . S
C847 H827 0.950 . S
C847 C843 1.385 . S
C847 C846 1.374 . S
C848 C845 1.499 . S
C848 C849 1.373 1_455 S
C848 C850 1.389 . S
C849 H828 0.950 1_554 S
C849 C848 1.373 1_655 S
C849 C865 1.377 . S
C850 C848 1.389 . S
C850 C851 1.524 . S
C850 C864 1.377 . S
C851 C850 1.524 . S
C851 C852 1.397 . S
C851 C856 1.363 . S
C852 H829 0.950 . S
C852 C851 1.397 . S
C852 C853 1.334 . S
C853 H830 0.950 . S
C853 C852 1.334 . S
C853 C854 1.287 . S
C854 C853 1.287 . S
C854 C855 1.524 . S
C854 H873 0.913 . S
C855 H831 0.950 . S
C855 C854 1.524 . S
C855 C856 1.415 . S
C856 H832 0.950 . S
C856 C851 1.363 . S
C856 C855 1.415 . S
C857 H833 0.951 . S
C857 C858 1.366 . S
C857 C859 1.388 . S
C858 C857 1.366 . S
C858 C862 1.385 . S
C859 H834 0.951 . S
C859 C857 1.388 . S
C859 C860 1.366 . S
C860 C859 1.366 . S
C860 C861 1.414 . S
C860 C863 1.499 . S
C861 H835 0.950 . S
C861 C860 1.414 . S
C861 C862 1.374 . S
C862 H836 0.950 . S
C862 C858 1.385 . S
C862 C861 1.374 . S
C863 C860 1.499 . S
C863 C864 1.373 1_655 S
C863 C865 1.389 . S
C864 H837 0.950 . S
C864 C850 1.377 . S
C864 C863 1.373 1_455 S
C865 C849 1.377 . S
C865 C863 1.389 . S
C865 C866 1.524 1_554 S
C866 C865 1.524 1_556 S
C866 C867 1.397 . S
C866 C871 1.363 . S
C867 H838 0.950 . S
C867 C866 1.397 . S
C867 C868 1.334 . S
C868 H839 0.950 . S
C868 C867 1.334 . S
C868 C869 1.287 . S
C869 C868 1.287 . S
C869 C870 1.524 . S
C869 H872 0.999 . S
C870 H840 0.950 . S
C870 C869 1.524 . S
C870 C871 1.415 . S
C871 H841 0.950 . S
C871 C866 1.363 . S
C871 C870 1.415 . S
H872 C869 0.999 . S
H873 C854 0.913 . S
H874 C892 0.951 . S
H875 C894 0.951 . S
H876 C896 0.950 . S
H877 C897 0.950 . S
H878 C899 0.950 . S
H879 C902 0.950 . S
H880 C903 0.950 . S
H881 C905 0.950 . S
H882 C906 0.950 . S
H883 C907 0.951 . S
H884 C909 0.951 . S
H885 C911 0.950 . S
H886 C912 0.950 . S
H887 C914 0.950 . S
H888 C917 0.950 . S
H889 C918 0.950 . S
H890 C920 0.950 . S
H891 C921 0.950 . S
C892 H874 0.951 . S
C892 C893 1.366 . S
C892 C894 1.388 . S
C893 C892 1.366 . S
C893 C897 1.385 . S
C894 H875 0.951 . S
C894 C892 1.388 . S
C894 C895 1.366 . S
C895 C894 1.366 . S
C895 C896 1.414 . S
C895 C898 1.499 . S
C896 H876 0.950 . S
C896 C895 1.414 . S
C896 C897 1.374 . S
C897 H877 0.950 . S
C897 C893 1.385 . S
C897 C896 1.374 . S
C898 C895 1.499 . S
C898 C899 1.373 . S
C898 C900 1.389 . S
C899 H878 0.950 . S
C899 C898 1.373 . S
C899 C915 1.377 . S
C900 C898 1.389 . S
C900 C901 1.524 . S
C900 C914 1.377 . S
C901 C900 1.524 . S
C901 C902 1.397 . S
C901 C906 1.363 . S
C902 H879 0.950 . S
C902 C901 1.397 . S
C902 C903 1.334 . S
C903 H880 0.950 . S
C903 C902 1.334 . S
C903 C904 1.287 . S
C904 C903 1.287 . S
C904 C905 1.524 . S
C904 H923 0.913 . S
C905 H881 0.950 . S
C905 C904 1.524 . S
C905 C906 1.415 . S
C906 H882 0.950 . S
C906 C901 1.363 . S
C906 C905 1.415 . S
C907 H883 0.951 . S
C907 C908 1.366 . S
C907 C909 1.388 . S
C908 C907 1.366 . S
C908 C912 1.385 . S
C909 H884 0.951 . S
C909 C907 1.388 . S
C909 C910 1.366 . S
C910 C909 1.366 . S
C910 C911 1.414 . S
C910 C913 1.499 . S
C911 H885 0.950 . S
C911 C910 1.414 . S
C911 C912 1.374 . S
C912 H886 0.950 . S
C912 C908 1.385 . S
C912 C911 1.374 . S
C913 C910 1.499 . S
C913 C914 1.373 . S
C913 C915 1.389 . S
C914 H887 0.950 . S
C914 C900 1.377 . S
C914 C913 1.373 . S
C915 C899 1.377 . S
C915 C913 1.389 . S
C915 C916 1.524 . S
C916 C915 1.524 . S
C916 C917 1.397 . S
C916 C921 1.363 . S
C917 H888 0.950 . S
C917 C916 1.397 . S
C917 C918 1.334 . S
C918 H889 0.950 . S
C918 C917 1.334 . S
C918 C919 1.287 . S
C919 C918 1.287 . S
C919 C920 1.524 . S
C919 H922 0.999 . S
C920 H890 0.950 . S
C920 C919 1.524 . S
C920 C921 1.415 . S
C921 H891 0.950 . S
C921 C916 1.363 . S
C921 C920 1.415 . S
H922 C919 0.999 . S
H923 C904 0.913 . S
H924 C942 0.951 . S
H925 C944 0.951 . S
H926 C946 0.950 . S
H927 C947 0.950 . S
H928 C949 0.950 . S
H929 C952 0.950 . S
H930 C953 0.950 . S
H931 C955 0.950 . S
H932 C956 0.950 . S
H933 C957 0.951 . S
H934 C959 0.951 . S
H935 C961 0.950 . S
H936 C962 0.950 . S
H937 C964 0.950 . S
H938 C967 0.950 . S
H939 C968 0.950 . S
H940 C970 0.950 . S
H941 C971 0.950 . S
C942 H924 0.951 . S
C942 C943 1.366 . S
C942 C944 1.388 . S
C943 C942 1.366 . S
C943 C947 1.385 . S
C944 H925 0.951 . S
C944 C942 1.388 . S
C944 C945 1.366 . S
C945 C944 1.366 . S
C945 C946 1.414 . S
C945 C948 1.499 . S
C946 H926 0.950 . S
C946 C945 1.414 . S
C946 C947 1.374 . S
C947 H927 0.950 . S
C947 C943 1.385 . S
C947 C946 1.374 . S
C948 C945 1.499 . S
C948 C949 1.373 1_545 S
C948 C950 1.389 . S
C949 H928 0.950 . S
C949 C948 1.373 1_565 S
C949 C965 1.377 . S
C950 C948 1.389 . S
C950 C951 1.524 . S
C950 C964 1.377 . S
C951 C950 1.524 . S
C951 C952 1.397 . S
C951 C956 1.363 . S
C952 H929 0.950 . S
C952 C951 1.397 . S
C952 C953 1.334 . S
C953 H930 0.950 . S
C953 C952 1.334 . S
C953 C954 1.287 . S
C954 C953 1.287 . S
C954 C955 1.524 . S
C954 H973 0.913 . S
C955 H931 0.950 . S
C955 C954 1.524 . S
C955 C956 1.415 . S
C956 H932 0.950 . S
C956 C951 1.363 . S
C956 C955 1.415 . S
C957 H933 0.951 . S
C957 C958 1.366 . S
C957 C959 1.388 . S
C958 C957 1.366 . S
C958 C962 1.385 . S
C959 H934 0.951 . S
C959 C957 1.388 . S
C959 C960 1.366 . S
C960 C959 1.366 . S
C960 C961 1.414 . S
C960 C963 1.499 . S
C961 H935 0.950 . S
C961 C960 1.414 . S
C961 C962 1.374 . S
C962 H936 0.950 . S
C962 C958 1.385 . S
C962 C961 1.374 . S
C963 C960 1.499 . S
C963 C964 1.373 1_565 S
C963 C965 1.389 . S
C964 H937 0.950 . S
C964 C950 1.377 . S
C964 C963 1.373 1_545 S
C965 C949 1.377 . S
C965 C963 1.389 . S
C965 C966 1.524 . S
C966 C965 1.524 . S
C966 C967 1.397 . S
C966 C971 1.363 . S
C967 H938 0.950 . S
C967 C966 1.397 . S
C967 C968 1.334 . S
C968 H939 0.950 . S
C968 C967 1.334 . S
C968 C969 1.287 . S
C969 C968 1.287 . S
C969 C970 1.524 . S
C969 H972 0.999 . S
C970 H940 0.950 . S
C970 C969 1.524 . S
C970 C971 1.415 . S
C971 H941 0.950 . S
C971 C966 1.363 . S
C971 C970 1.415 . S
H972 C969 0.999 . S
H973 C954 0.913 . S
H974 C992 0.951 . S
H975 C994 0.951 . S
H976 C996 0.950 . S
H977 C997 0.950 . S
H978 C999 0.950 . S
H979 C1002 0.950 . S
H980 C1003 0.973 . S
H981 C1005 0.950 . S
H982 C1006 0.950 . S
H983 C1007 0.951 . S
H984 C1009 0.951 . S
H985 C1011 0.950 . S
H986 C1012 0.950 . S
H987 C1014 0.950 . S
H988 C1017 0.950 . S
H989 C1018 0.973 . S
H990 C1020 0.950 . S
H991 C1021 0.950 . S
C992 H974 0.951 . S
C992 C993 1.366 . S
C992 C994 1.388 . S
C993 C992 1.366 . S
C993 C997 1.385 . S
C994 H975 0.951 . S
C994 C992 1.388 . S
C994 C995 1.366 . S
C995 C994 1.366 . S
C995 C996 1.414 . S
C995 C998 1.499 . S
C996 H976 0.950 . S
C996 C995 1.414 . S
C996 C997 1.374 . S
C997 H977 0.950 . S
C997 C993 1.385 . S
C997 C996 1.374 . S
C998 C995 1.499 . S
C998 C999 1.373 1_455 S
C998 C1000 1.389 1_545 S
C999 H978 0.950 . S
C999 C998 1.373 1_655 S
C999 C1015 1.377 . S
C1000 C998 1.389 1_565 S
C1000 C1001 1.524 . S
C1000 C1014 1.377 . S
C1001 C1000 1.524 . S
C1001 C1002 1.397 1_565 S
C1001 C1006 1.363 . S
C1002 H979 0.950 . S
C1002 C1001 1.397 1_545 S
C1002 C1003 1.340 . S
C1003 H980 0.973 . S
C1003 C1002 1.340 . S
C1003 C1004 1.258 1_545 S
C1004 C1003 1.258 1_565 S
C1004 C1005 1.524 . S
C1004 H1023 0.913 . S
C1005 H981 0.950 . S
C1005 C1004 1.524 . S
C1005 C1006 1.415 . S
C1006 H982 0.950 . S
C1006 C1001 1.363 . S
C1006 C1005 1.415 . S
C1007 H983 0.951 . S
C1007 C1008 1.366 . S
C1007 C1009 1.388 . S
C1008 C1007 1.366 . S
C1008 C1012 1.385 . S
C1009 H984 0.951 . S
C1009 C1007 1.388 . S
C1009 C1010 1.366 . S
C1010 C1009 1.366 . S
C1010 C1011 1.414 . S
C1010 C1013 1.499 . S
C1011 H985 0.950 . S
C1011 C1010 1.414 . S
C1011 C1012 1.374 . S
C1012 H986 0.950 . S
C1012 C1008 1.385 . S
C1012 C1011 1.374 . S
C1013 C1010 1.499 . S
C1013 C1014 1.373 1_655 S
C1013 C1015 1.389 1_565 S
C1014 H987 0.950 . S
C1014 C1000 1.377 . S
C1014 C1013 1.373 1_455 S
C1015 C999 1.377 . S
C1015 C1013 1.389 1_545 S
C1015 C1016 1.524 . S
C1016 C1015 1.524 . S
C1016 C1017 1.397 1_545 S
C1016 C1021 1.363 . S
C1017 H988 0.950 . S
C1017 C1016 1.397 1_565 S
C1017 C1018 1.340 . S
C1018 H989 0.973 . S
C1018 C1017 1.340 . S
C1018 C1019 1.258 1_565 S
C1019 C1018 1.258 1_545 S
C1019 C1020 1.524 . S
C1019 H1022 0.999 . S
C1020 H990 0.950 . S
C1020 C1019 1.524 . S
C1020 C1021 1.415 . S
C1021 H991 0.950 . S
C1021 C1016 1.363 . S
C1021 C1020 1.415 . S
H1022 C1019 0.999 . S
H1023 C1004 0.913 . S
H1024 C1042 0.951 . S
H1025 C1044 0.951 . S
H1026 C1046 0.950 . S
H1027 C1047 0.950 . S
H1028 C1049 0.950 . S
H1029 C1052 0.950 . S
H1030 C1053 0.950 . S
H1031 C1055 0.950 . S
H1032 C1056 0.950 . S
H1033 C1057 0.951 . S
H1034 C1059 0.951 . S
H1035 C1061 0.950 . S
H1036 C1062 0.950 . S
H1037 C1064 0.950 . S
H1038 C1067 0.950 . S
H1039 C1068 0.950 . S
H1040 C1070 0.950 . S
H1041 C1071 0.950 . S
C1042 H1024 0.951 . S
C1042 C1043 1.366 . S
C1042 C1044 1.388 . S
C1043 C1042 1.366 . S
C1043 C1047 1.385 . S
C1044 H1025 0.951 . S
C1044 C1042 1.388 . S
C1044 C1045 1.366 . S
C1045 C1044 1.366 . S
C1045 C1046 1.414 . S
C1045 C1048 1.499 . S
C1046 H1026 0.950 . S
C1046 C1045 1.414 . S
C1046 C1047 1.374 . S
C1047 H1027 0.950 . S
C1047 C1043 1.385 . S
C1047 C1046 1.374 . S
C1048 C1045 1.499 . S
C1048 C1049 1.373 . S
C1048 C1050 1.389 . S
C1049 H1028 0.950 . S
C1049 C1048 1.373 . S
C1049 C1065 1.377 . S
C1050 C1048 1.389 . S
C1050 C1051 1.524 . S
C1050 C1064 1.377 . S
C1051 C1050 1.524 . S
C1051 C1052 1.397 . S
C1051 C1056 1.363 . S
C1052 H1029 0.950 . S
C1052 C1051 1.397 . S
C1052 C1053 1.334 . S
C1053 H1030 0.950 . S
C1053 C1052 1.334 . S
C1053 C1054 1.287 . S
C1054 C1053 1.287 . S
C1054 C1055 1.524 . S
C1054 H1073 0.913 . S
C1055 H1031 0.950 . S
C1055 C1054 1.524 . S
C1055 C1056 1.415 . S
C1056 H1032 0.950 . S
C1056 C1051 1.363 . S
C1056 C1055 1.415 . S
C1057 H1033 0.951 . S
C1057 C1058 1.366 . S
C1057 C1059 1.388 . S
C1058 C1057 1.366 . S
C1058 C1062 1.385 . S
C1059 H1034 0.951 . S
C1059 C1057 1.388 . S
C1059 C1060 1.366 . S
C1060 C1059 1.366 . S
C1060 C1061 1.414 . S
C1060 C1063 1.499 . S
C1061 H1035 0.950 . S
C1061 C1060 1.414 . S
C1061 C1062 1.374 . S
C1062 H1036 0.950 . S
C1062 C1058 1.385 . S
C1062 C1061 1.374 . S
C1063 C1060 1.499 . S
C1063 C1064 1.373 . S
C1063 C1065 1.389 . S
C1064 H1037 0.950 . S
C1064 C1050 1.377 . S
C1064 C1063 1.373 . S
C1065 C1049 1.377 . S
C1065 C1063 1.389 . S
C1065 C1066 1.524 . S
C1066 C1065 1.524 . S
C1066 C1067 1.397 . S
C1066 C1071 1.363 . S
C1067 H1038 0.950 . S
C1067 C1066 1.397 . S
C1067 C1068 1.334 . S
C1068 H1039 0.950 . S
C1068 C1067 1.334 . S
C1068 C1069 1.287 . S
C1069 C1068 1.287 . S
C1069 C1070 1.524 . S
C1069 H1072 0.999 . S
C1070 H1040 0.950 . S
C1070 C1069 1.524 . S
C1070 C1071 1.415 . S
C1071 H1041 0.950 . S
C1071 C1066 1.363 . S
C1071 C1070 1.415 . S
H1072 C1069 0.999 . S
H1073 C1054 0.913 . S
H1074 C1092 0.951 . S
H1075 C1094 0.951 . S
H1076 C1096 0.950 . S
H1077 C1097 0.950 . S
H1078 C1099 0.950 . S
H1079 C1102 0.950 . S
H1080 C1103 0.950 . S
H1081 C1105 0.950 . S
H1082 C1106 0.950 . S
H1083 C1107 0.951 . S
H1084 C1109 0.951 . S
H1085 C1111 0.950 . S
H1086 C1112 0.950 . S
H1087 C1114 0.950 . S
H1088 C1117 0.950 . S
H1089 C1118 0.950 . S
H1090 C1120 0.950 . S
H1091 C1121 0.950 . S
C1092 H1074 0.951 . S
C1092 C1093 1.366 . S
C1092 C1094 1.388 . S
C1093 C1092 1.366 . S
C1093 C1097 1.385 . S
C1094 H1075 0.951 . S
C1094 C1092 1.388 . S
C1094 C1095 1.366 . S
C1095 C1094 1.366 . S
C1095 C1096 1.414 . S
C1095 C1098 1.499 . S
C1096 H1076 0.950 . S
C1096 C1095 1.414 . S
C1096 C1097 1.374 . S
C1097 H1077 0.950 . S
C1097 C1093 1.385 . S
C1097 C1096 1.374 . S
C1098 C1095 1.499 . S
C1098 C1099 1.373 . S
C1098 C1100 1.389 . S
C1099 H1078 0.950 . S
C1099 C1098 1.373 . S
C1099 C1115 1.377 . S
C1100 C1098 1.389 . S
C1100 C1101 1.524 . S
C1100 C1114 1.377 . S
C1101 C1100 1.524 . S
C1101 C1102 1.397 . S
C1101 C1106 1.363 . S
C1102 H1079 0.950 . S
C1102 C1101 1.397 . S
C1102 C1103 1.334 . S
C1103 H1080 0.950 . S
C1103 C1102 1.334 . S
C1103 C1104 1.287 . S
C1104 C1103 1.287 . S
C1104 C1105 1.524 . S
C1104 H1123 0.913 . S
C1105 H1081 0.950 . S
C1105 C1104 1.524 . S
C1105 C1106 1.415 . S
C1106 H1082 0.950 . S
C1106 C1101 1.363 . S
C1106 C1105 1.415 . S
C1107 H1083 0.951 . S
C1107 C1108 1.366 . S
C1107 C1109 1.388 . S
C1108 C1107 1.366 . S
C1108 C1112 1.385 . S
C1109 H1084 0.951 . S
C1109 C1107 1.388 . S
C1109 C1110 1.366 . S
C1110 C1109 1.366 . S
C1110 C1111 1.414 . S
C1110 C1113 1.499 . S
C1111 H1085 0.950 . S
C1111 C1110 1.414 . S
C1111 C1112 1.374 . S
C1112 H1086 0.950 . S
C1112 C1108 1.385 . S
C1112 C1111 1.374 . S
C1113 C1110 1.499 . S
C1113 C1114 1.373 . S
C1113 C1115 1.389 . S
C1114 H1087 0.950 . S
C1114 C1100 1.377 . S
C1114 C1113 1.373 . S
C1115 C1099 1.377 . S
C1115 C1113 1.389 . S
C1115 C1116 1.524 . S
C1116 C1115 1.524 . S
C1116 C1117 1.397 . S
C1116 C1121 1.363 . S
C1117 H1088 0.950 . S
C1117 C1116 1.397 . S
C1117 C1118 1.334 . S
C1118 H1089 0.950 . S
C1118 C1117 1.334 . S
C1118 C1119 1.287 . S
C1119 C1118 1.287 . S
C1119 C1120 1.524 . S
C1119 H1122 0.999 . S
C1120 H1090 0.950 . S
C1120 C1119 1.524 . S
C1120 C1121 1.415 . S
C1121 H1091 0.950 . S
C1121 C1116 1.363 . S
C1121 C1120 1.415 . S
H1122 C1119 0.999 . S
H1123 C1104 0.913 . S
H1124 C1142 0.951 . S
H1125 C1144 0.951 . S
H1126 C1146 0.950 . S
H1127 C1147 0.950 . S
H1128 C1149 0.950 . S
H1129 C1152 0.950 . S
H1130 C1153 0.950 . S
H1131 C1155 0.950 . S
H1132 C1156 0.950 . S
H1133 C1157 0.951 . S
H1134 C1159 0.951 . S
H1135 C1161 0.950 . S
H1136 C1162 0.950 . S
H1137 C1164 0.951 1_556 S
H1138 C1167 0.950 . S
H1139 C1168 0.950 . S
H1140 C1170 0.950 . S
H1141 C1171 0.950 . S
C1142 H1124 0.951 . S
C1142 C1143 1.366 . S
C1142 C1144 1.388 . S
C1143 C1142 1.366 . S
C1143 C1147 1.385 . S
C1144 H1125 0.951 . S
C1144 C1142 1.388 . S
C1144 C1145 1.366 . S
C1145 C1144 1.366 . S
C1145 C1146 1.414 . S
C1145 C1148 1.499 . S
C1146 H1126 0.950 . S
C1146 C1145 1.414 . S
C1146 C1147 1.374 . S
C1147 H1127 0.950 . S
C1147 C1143 1.385 . S
C1147 C1146 1.374 . S
C1148 C1145 1.499 . S
C1148 C1149 1.373 . S
C1148 C1150 1.389 . S
C1149 H1128 0.950 . S
C1149 C1148 1.373 . S
C1149 C1165 1.377 . S
C1150 C1148 1.389 . S
C1150 C1151 1.524 . S
C1150 C1164 1.377 . S
C1151 C1150 1.524 . S
C1151 C1152 1.397 . S
C1151 C1156 1.363 . S
C1152 H1129 0.950 . S
C1152 C1151 1.397 . S
C1152 C1153 1.334 . S
C1153 H1130 0.950 . S
C1153 C1152 1.334 . S
C1153 C1154 1.287 . S
C1154 C1153 1.287 . S
C1154 C1155 1.524 . S
C1154 H1173 0.913 . S
C1155 H1131 0.950 . S
C1155 C1154 1.524 . S
C1155 C1156 1.415 . S
C1156 H1132 0.950 . S
C1156 C1151 1.363 . S
C1156 C1155 1.415 . S
C1157 H1133 0.951 . S
C1157 C1158 1.366 . S
C1157 C1159 1.388 . S
C1158 C1157 1.366 . S
C1158 C1162 1.385 . S
C1159 H1134 0.951 . S
C1159 C1157 1.388 . S
C1159 C1160 1.366 . S
C1160 C1159 1.366 . S
C1160 C1161 1.414 . S
C1160 C1163 1.506 . S
C1161 H1135 0.950 . S
C1161 C1160 1.414 . S
C1161 C1162 1.374 . S
C1162 H1136 0.950 . S
C1162 C1158 1.385 . S
C1162 C1161 1.374 . S
C1163 C1160 1.506 . S
C1163 C1164 1.370 1_556 S
C1163 C1165 1.385 1_556 S
C1164 H1137 0.951 1_554 S
C1164 C1150 1.377 . S
C1164 C1163 1.370 1_554 S
C1165 C1149 1.377 . S
C1165 C1163 1.385 1_554 S
C1165 C1166 1.524 . S
C1166 C1165 1.524 . S
C1166 C1167 1.397 1_554 S
C1166 C1171 1.363 . S
C1167 H1138 0.950 . S
C1167 C1166 1.397 1_556 S
C1167 C1168 1.334 . S
C1168 H1139 0.950 . S
C1168 C1167 1.334 . S
C1168 C1169 1.287 . S
C1169 C1168 1.287 . S
C1169 C1170 1.524 1_556 S
C1169 H1172 0.999 . S
C1170 H1140 0.950 . S
C1170 C1169 1.524 1_554 S
C1170 C1171 1.415 . S
C1171 H1141 0.950 . S
C1171 C1166 1.363 . S
C1171 C1170 1.415 . S
H1172 C1169 0.999 . S
H1173 C1154 0.913 . S
H1174 C1192 0.951 . S
H1175 C1194 0.951 . S
H1176 C1196 0.950 . S
H1177 C1197 0.950 . S
H1178 C1199 0.950 . S
H1179 C1202 0.950 . S
H1180 C1203 0.950 . S
H1181 C1205 0.950 . S
H1182 C1206 0.950 . S
H1183 C1207 0.951 . S
H1184 C1209 0.951 . S
H1185 C1211 0.950 . S
H1186 C1212 0.950 . S
H1187 C1214 0.950 . S
H1188 C1217 0.950 . S
H1189 C1218 0.950 . S
H1190 C1220 0.950 . S
H1191 C1221 0.950 . S
C1192 H1174 0.951 . S
C1192 C1193 1.366 . S
C1192 C1194 1.388 . S
C1193 C1192 1.366 . S
C1193 C1197 1.385 . S
C1194 H1175 0.951 . S
C1194 C1192 1.388 . S
C1194 C1195 1.366 . S
C1195 C1194 1.366 . S
C1195 C1196 1.414 . S
C1195 C1198 1.499 . S
C1196 H1176 0.950 . S
C1196 C1195 1.414 . S
C1196 C1197 1.374 . S
C1197 H1177 0.950 . S
C1197 C1193 1.385 . S
C1197 C1196 1.374 . S
C1198 C1195 1.499 . S
C1198 C1199 1.373 . S
C1198 C1200 1.389 . S
C1199 H1178 0.950 . S
C1199 C1198 1.373 . S
C1199 C1215 1.377 . S
C1200 C1198 1.389 . S
C1200 C1201 1.524 . S
C1200 C1214 1.377 . S
C1201 C1200 1.524 . S
C1201 C1202 1.397 . S
C1201 C1206 1.363 . S
C1202 H1179 0.950 . S
C1202 C1201 1.397 . S
C1202 C1203 1.334 . S
C1203 H1180 0.950 . S
C1203 C1202 1.334 . S
C1203 C1204 1.287 . S
C1204 C1203 1.287 . S
C1204 C1205 1.524 . S
C1204 H1223 0.913 . S
C1205 H1181 0.950 . S
C1205 C1204 1.524 . S
C1205 C1206 1.415 . S
C1206 H1182 0.950 . S
C1206 C1201 1.363 . S
C1206 C1205 1.415 . S
C1207 H1183 0.951 . S
C1207 C1208 1.366 . S
C1207 C1209 1.388 . S
C1208 C1207 1.366 . S
C1208 C1212 1.385 . S
C1209 H1184 0.951 . S
C1209 C1207 1.388 . S
C1209 C1210 1.366 . S
C1210 C1209 1.366 . S
C1210 C1211 1.414 . S
C1210 C1213 1.499 . S
C1211 H1185 0.950 . S
C1211 C1210 1.414 . S
C1211 C1212 1.374 . S
C1212 H1186 0.950 . S
C1212 C1208 1.385 . S
C1212 C1211 1.374 . S
C1213 C1210 1.499 . S
C1213 C1214 1.373 . S
C1213 C1215 1.389 . S
C1214 H1187 0.950 . S
C1214 C1200 1.377 . S
C1214 C1213 1.373 . S
C1215 C1199 1.377 . S
C1215 C1213 1.389 . S
C1215 C1216 1.524 . S
C1216 C1215 1.524 . S
C1216 C1217 1.397 . S
C1216 C1221 1.363 . S
C1217 H1188 0.950 . S
C1217 C1216 1.397 . S
C1217 C1218 1.334 . S
C1218 H1189 0.950 . S
C1218 C1217 1.334 . S
C1218 C1219 1.287 . S
C1219 C1218 1.287 . S
C1219 C1220 1.524 . S
C1219 H1222 0.999 . S
C1220 H1190 0.950 . S
C1220 C1219 1.524 . S
C1220 C1221 1.415 . S
C1221 H1191 0.950 . S
C1221 C1216 1.363 . S
C1221 C1220 1.415 . S
H1222 C1219 0.999 . S
H1223 C1204 0.913 . S
H1224 C1242 0.951 . S
H1225 C1244 0.951 . S
H1226 C1246 0.950 . S
H1227 C1247 0.950 . S
H1228 C1249 0.950 . S
H1229 C1252 0.950 . S
H1230 C1253 0.950 . S
H1231 C1255 0.950 . S
H1232 C1256 0.950 . S
H1233 C1257 0.951 . S
H1234 C1259 0.951 . S
H1235 C1261 0.950 . S
H1236 C1262 0.950 . S
H1237 C1264 0.950 . S
H1238 C1267 0.950 . S
H1239 C1268 0.950 . S
H1240 C1270 0.950 . S
H1241 C1271 0.950 . S
C1242 H1224 0.951 . S
C1242 C1243 1.366 . S
C1242 C1244 1.388 . S
C1243 C1242 1.366 . S
C1243 C1247 1.385 . S
C1244 H1225 0.951 . S
C1244 C1242 1.388 . S
C1244 C1245 1.366 . S
C1245 C1244 1.366 . S
C1245 C1246 1.414 . S
C1245 C1248 1.499 . S
C1246 H1226 0.950 . S
C1246 C1245 1.414 . S
C1246 C1247 1.374 . S
C1247 H1227 0.950 . S
C1247 C1243 1.385 . S
C1247 C1246 1.374 . S
C1248 C1245 1.499 . S
C1248 C1249 1.373 . S
C1248 C1250 1.389 . S
C1249 H1228 0.950 . S
C1249 C1248 1.373 . S
C1249 C1265 1.377 . S
C1250 C1248 1.389 . S
C1250 C1251 1.524 . S
C1250 C1264 1.377 . S
C1251 C1250 1.524 . S
C1251 C1252 1.397 . S
C1251 C1256 1.363 . S
C1252 H1229 0.950 . S
C1252 C1251 1.397 . S
C1252 C1253 1.334 . S
C1253 H1230 0.950 . S
C1253 C1252 1.334 . S
C1253 C1254 1.287 . S
C1254 C1253 1.287 . S
C1254 C1255 1.524 . S
C1254 H1273 0.913 . S
C1255 H1231 0.950 . S
C1255 C1254 1.524 . S
C1255 C1256 1.415 . S
C1256 H1232 0.950 . S
C1256 C1251 1.363 . S
C1256 C1255 1.415 . S
C1257 H1233 0.951 . S
C1257 C1258 1.366 . S
C1257 C1259 1.388 . S
C1258 C1257 1.366 . S
C1258 C1262 1.385 . S
C1259 H1234 0.951 . S
C1259 C1257 1.388 . S
C1259 C1260 1.366 . S
C1260 C1259 1.366 . S
C1260 C1261 1.414 . S
C1260 C1263 1.499 . S
C1261 H1235 0.950 . S
C1261 C1260 1.414 . S
C1261 C1262 1.374 . S
C1262 H1236 0.950 . S
C1262 C1258 1.385 . S
C1262 C1261 1.374 . S
C1263 C1260 1.499 . S
C1263 C1264 1.373 . S
C1263 C1265 1.389 . S
C1264 H1237 0.950 . S
C1264 C1250 1.377 . S
C1264 C1263 1.373 . S
C1265 C1249 1.377 . S
C1265 C1263 1.389 . S
C1265 C1266 1.524 . S
C1266 C1265 1.524 . S
C1266 C1267 1.397 . S
C1266 C1271 1.363 . S
C1267 H1238 0.950 . S
C1267 C1266 1.397 . S
C1267 C1268 1.334 . S
C1268 H1239 0.950 . S
C1268 C1267 1.334 . S
C1268 C1269 1.287 . S
C1269 C1268 1.287 . S
C1269 C1270 1.524 . S
C1269 H1272 0.999 . S
C1270 H1240 0.950 . S
C1270 C1269 1.524 . S
C1270 C1271 1.415 . S
C1271 H1241 0.950 . S
C1271 C1266 1.363 . S
C1271 C1270 1.415 . S
H1272 C1269 0.999 . S
H1273 C1254 0.913 . S
H1274 C1292 0.951 . S
H1275 C1294 0.951 . S
H1276 C1296 0.950 . S
H1277 C1297 0.950 . S
H1278 C1299 0.950 . S
H1279 C1302 0.950 . S
H1280 C1303 0.950 . S
H1281 C1305 0.950 . S
H1282 C1306 0.950 . S
H1283 C1307 0.951 . S
H1284 C1309 0.951 . S
H1285 C1311 0.950 . S
H1286 C1312 0.950 . S
H1287 C1314 0.950 . S
H1288 C1317 0.950 . S
H1289 C1318 0.950 . S
H1290 C1320 0.950 . S
H1291 C1321 0.950 . S
C1292 H1274 0.951 . S
C1292 C1293 1.366 . S
C1292 C1294 1.388 . S
C1293 C1292 1.366 . S
C1293 C1297 1.385 . S
C1294 H1275 0.951 . S
C1294 C1292 1.388 . S
C1294 C1295 1.366 . S
C1295 C1294 1.366 . S
C1295 C1296 1.414 . S
C1295 C1298 1.499 . S
C1296 H1276 0.950 . S
C1296 C1295 1.414 . S
C1296 C1297 1.374 . S
C1297 H1277 0.950 . S
C1297 C1293 1.385 . S
C1297 C1296 1.374 . S
C1298 C1295 1.499 . S
C1298 C1299 1.373 . S
C1298 C1300 1.389 . S
C1299 H1278 0.950 . S
C1299 C1298 1.373 . S
C1299 C1315 1.377 . S
C1300 C1298 1.389 . S
C1300 C1301 1.524 . S
C1300 C1314 1.377 . S
C1301 C1300 1.524 . S
C1301 C1302 1.397 . S
C1301 C1306 1.363 . S
C1302 H1279 0.950 . S
C1302 C1301 1.397 . S
C1302 C1303 1.334 . S
C1303 H1280 0.950 . S
C1303 C1302 1.334 . S
C1303 C1304 1.287 . S
C1304 C1303 1.287 . S
C1304 C1305 1.524 . S
C1304 H1323 0.913 . S
C1305 H1281 0.950 . S
C1305 C1304 1.524 . S
C1305 C1306 1.415 . S
C1306 H1282 0.950 . S
C1306 C1301 1.363 . S
C1306 C1305 1.415 . S
C1307 H1283 0.951 . S
C1307 C1308 1.366 . S
C1307 C1309 1.388 . S
C1308 C1307 1.366 . S
C1308 C1312 1.385 . S
C1309 H1284 0.951 . S
C1309 C1307 1.388 . S
C1309 C1310 1.366 . S
C1310 C1309 1.366 . S
C1310 C1311 1.414 . S
C1310 C1313 1.507 . S
C1311 H1285 0.950 . S
C1311 C1310 1.414 . S
C1311 C1312 1.374 . S
C1312 H1286 0.950 . S
C1312 C1308 1.385 . S
C1312 C1311 1.374 . S
C1313 C1310 1.507 . S
C1313 C1314 1.369 1_556 S
C1313 C1315 1.385 1_556 S
C1314 H1287 0.950 . S
C1314 C1300 1.377 . S
C1314 C1313 1.369 1_554 S
C1315 C1299 1.377 . S
C1315 C1313 1.385 1_554 S
C1315 C1316 1.524 . S
C1316 C1315 1.524 . S
C1316 C1317 1.397 1_554 S
C1316 C1321 1.363 . S
C1317 H1288 0.950 . S
C1317 C1316 1.397 1_556 S
C1317 C1318 1.334 . S
C1318 H1289 0.950 . S
C1318 C1317 1.334 . S
C1318 C1319 1.287 . S
C1319 C1318 1.287 . S
C1319 C1320 1.524 . S
C1319 H1322 0.999 . S
C1320 H1290 0.950 . S
C1320 C1319 1.524 . S
C1320 C1321 1.415 1_556 S
C1321 H1291 0.950 . S
C1321 C1316 1.363 . S
C1321 C1320 1.415 1_554 S
H1322 C1319 0.999 . S
H1323 C1304 0.913 . S
H1324 C1342 0.951 . S
H1325 C1344 0.951 . S
H1326 C1346 0.950 . S
H1327 C1347 0.950 . S
H1328 C1349 0.950 . S
H1329 C1352 0.950 . S
H1330 C1353 0.950 . S
H1331 C1355 0.950 . S
H1332 C1356 0.950 . S
H1333 C1357 0.951 . S
H1334 C1359 0.951 . S
H1335 C1361 0.950 . S
H1336 C1362 0.950 . S
H1337 C1364 0.950 . S
H1338 C1367 0.950 . S
H1339 C1368 0.950 . S
H1340 C1370 0.950 . S
H1341 C1371 0.950 . S
C1342 H1324 0.951 . S
C1342 C1343 1.366 . S
C1342 C1344 1.388 . S
C1343 C1342 1.366 . S
C1343 C1347 1.385 . S
C1344 H1325 0.951 . S
C1344 C1342 1.388 . S
C1344 C1345 1.366 . S
C1345 C1344 1.366 . S
C1345 C1346 1.414 . S
C1345 C1348 1.499 . S
C1346 H1326 0.950 . S
C1346 C1345 1.414 . S
C1346 C1347 1.374 . S
C1347 H1327 0.950 . S
C1347 C1343 1.385 . S
C1347 C1346 1.374 . S
C1348 C1345 1.499 . S
C1348 C1349 1.373 . S
C1348 C1350 1.389 . S
C1349 H1328 0.950 . S
C1349 C1348 1.373 . S
C1349 C1365 1.377 . S
C1350 C1348 1.389 . S
C1350 C1351 1.524 . S
C1350 C1364 1.377 . S
C1351 C1350 1.524 . S
C1351 C1352 1.397 . S
C1351 C1356 1.363 . S
C1352 H1329 0.950 . S
C1352 C1351 1.397 . S
C1352 C1353 1.334 . S
C1353 H1330 0.950 . S
C1353 C1352 1.334 . S
C1353 C1354 1.287 . S
C1354 C1353 1.287 . S
C1354 C1355 1.524 . S
C1354 H1373 0.913 . S
C1355 H1331 0.950 . S
C1355 C1354 1.524 . S
C1355 C1356 1.415 . S
C1356 H1332 0.950 . S
C1356 C1351 1.363 . S
C1356 C1355 1.415 . S
C1357 H1333 0.951 . S
C1357 C1358 1.366 . S
C1357 C1359 1.388 . S
C1358 C1357 1.366 . S
C1358 C1362 1.385 . S
C1359 H1334 0.951 . S
C1359 C1357 1.388 . S
C1359 C1360 1.366 . S
C1360 C1359 1.366 . S
C1360 C1361 1.414 . S
C1360 C1363 1.499 . S
C1361 H1335 0.950 . S
C1361 C1360 1.414 . S
C1361 C1362 1.374 . S
C1362 H1336 0.950 . S
C1362 C1358 1.385 . S
C1362 C1361 1.374 . S
C1363 C1360 1.499 . S
C1363 C1364 1.373 . S
C1363 C1365 1.389 . S
C1364 H1337 0.950 . S
C1364 C1350 1.377 . S
C1364 C1363 1.373 . S
C1365 C1349 1.377 . S
C1365 C1363 1.389 . S
C1365 C1366 1.524 . S
C1366 C1365 1.524 . S
C1366 C1367 1.397 . S
C1366 C1371 1.363 . S
C1367 H1338 0.950 . S
C1367 C1366 1.397 . S
C1367 C1368 1.334 . S
C1368 H1339 0.950 . S
C1368 C1367 1.334 . S
C1368 C1369 1.287 . S
C1369 C1368 1.287 . S
C1369 C1370 1.524 . S
C1369 H1372 0.999 . S
C1370 H1340 0.950 . S
C1370 C1369 1.524 . S
C1370 C1371 1.415 . S
C1371 H1341 0.950 . S
C1371 C1366 1.363 . S
C1371 C1370 1.415 . S
H1372 C1369 0.999 . S
H1373 C1354 0.913 . S
H1374 C1392 0.951 . S
H1375 C1394 0.951 . S
H1376 C1396 0.950 . S
H1377 C1397 0.950 . S
H1378 C1399 0.950 . S
H1379 C1402 0.950 . S
H1380 C1403 0.950 . S
H1381 C1405 0.950 . S
H1382 C1406 0.950 . S
H1383 C1407 0.951 . S
H1384 C1409 0.951 . S
H1385 C1411 0.950 . S
H1386 C1412 0.950 . S
H1387 C1414 0.950 . S
H1388 C1417 0.950 . S
H1389 C1418 0.950 . S
H1390 C1420 0.950 . S
H1391 C1421 0.950 . S
C1392 H1374 0.951 . S
C1392 C1393 1.366 . S
C1392 C1394 1.388 . S
C1393 C1392 1.366 . S
C1393 C1397 1.385 . S
C1394 H1375 0.951 . S
C1394 C1392 1.388 . S
C1394 C1395 1.366 . S
C1395 C1394 1.366 . S
C1395 C1396 1.414 . S
C1395 C1398 1.499 . S
C1396 H1376 0.950 . S
C1396 C1395 1.414 . S
C1396 C1397 1.374 . S
C1397 H1377 0.950 . S
C1397 C1393 1.385 . S
C1397 C1396 1.374 . S
C1398 C1395 1.499 . S
C1398 C1399 1.373 . S
C1398 C1400 1.389 . S
C1399 H1378 0.950 . S
C1399 C1398 1.373 . S
C1399 C1415 1.377 . S
C1400 C1398 1.389 . S
C1400 C1401 1.524 . S
C1400 C1414 1.377 . S
C1401 C1400 1.524 . S
C1401 C1402 1.397 . S
C1401 C1406 1.363 . S
C1402 H1379 0.950 . S
C1402 C1401 1.397 . S
C1402 C1403 1.334 . S
C1403 H1380 0.950 . S
C1403 C1402 1.334 . S
C1403 C1404 1.287 . S
C1404 C1403 1.287 . S
C1404 C1405 1.524 . S
C1404 H1423 0.913 . S
C1405 H1381 0.950 . S
C1405 C1404 1.524 . S
C1405 C1406 1.415 . S
C1406 H1382 0.950 . S
C1406 C1401 1.363 . S
C1406 C1405 1.415 . S
C1407 H1383 0.951 . S
C1407 C1408 1.366 . S
C1407 C1409 1.388 . S
C1408 C1407 1.366 . S
C1408 C1412 1.385 . S
C1409 H1384 0.951 . S
C1409 C1407 1.388 . S
C1409 C1410 1.366 . S
C1410 C1409 1.366 . S
C1410 C1411 1.414 . S
C1410 C1413 1.499 . S
C1411 H1385 0.950 . S
C1411 C1410 1.414 . S
C1411 C1412 1.374 . S
C1412 H1386 0.950 . S
C1412 C1408 1.385 . S
C1412 C1411 1.374 . S
C1413 C1410 1.499 . S
C1413 C1414 1.373 . S
C1413 C1415 1.389 . S
C1414 H1387 0.950 . S
C1414 C1400 1.377 . S
C1414 C1413 1.373 . S
C1415 C1399 1.377 . S
C1415 C1413 1.389 . S
C1415 C1416 1.524 . S
C1416 C1415 1.524 . S
C1416 C1417 1.397 . S
C1416 C1421 1.363 . S
C1417 H1388 0.950 . S
C1417 C1416 1.397 . S
C1417 C1418 1.334 . S
C1418 H1389 0.950 . S
C1418 C1417 1.334 . S
C1418 C1419 1.287 . S
C1419 C1418 1.287 . S
C1419 C1420 1.524 . S
C1419 H1422 0.999 . S
C1420 H1390 0.950 . S
C1420 C1419 1.524 . S
C1420 C1421 1.415 . S
C1421 H1391 0.950 . S
C1421 C1416 1.363 . S
C1421 C1420 1.415 . S
H1422 C1419 0.999 . S
H1423 C1404 0.913 . S
H1424 C1442 0.951 . S
H1425 C1444 0.951 . S
H1426 C1446 0.950 . S
H1427 C1447 0.950 . S
H1428 C1449 0.950 . S
H1429 C1452 0.950 . S
H1430 C1453 0.950 . S
H1431 C1455 0.947 1_554 S
H1432 C1456 0.950 . S
H1433 C1457 0.951 . S
H1434 C1459 0.951 . S
H1435 C1461 0.950 . S
H1436 C1462 0.950 . S
H1437 C1464 0.950 . S
H1438 C1467 0.950 . S
H1439 C1468 0.950 . S
H1440 C1470 0.950 . S
H1441 C1471 0.950 . S
C1442 H1424 0.951 . S
C1442 C1443 1.366 . S
C1442 C1444 1.388 . S
C1443 C1442 1.366 . S
C1443 C1447 1.385 . S
C1444 H1425 0.951 . S
C1444 C1442 1.388 . S
C1444 C1445 1.366 . S
C1445 C1444 1.366 . S
C1445 C1446 1.414 . S
C1445 C1448 1.499 . S
C1446 H1426 0.950 . S
C1446 C1445 1.414 . S
C1446 C1447 1.374 . S
C1447 H1427 0.950 . S
C1447 C1443 1.385 . S
C1447 C1446 1.374 . S
C1448 C1445 1.499 . S
C1448 C1449 1.373 1_556 S
C1448 C1450 1.389 1_556 S
C1449 H1428 0.950 . S
C1449 C1448 1.373 1_554 S
C1449 C1465 1.377 . S
C1450 C1448 1.389 1_554 S
C1450 C1451 1.524 . S
C1450 C1464 1.377 . S
C1451 C1450 1.524 . S
C1451 C1452 1.397 1_554 S
C1451 C1456 1.363 . S
C1452 H1429 0.950 . S
C1452 C1451 1.397 1_556 S
C1452 C1453 1.334 . S
C1453 H1430 0.950 . S
C1453 C1452 1.334 . S
C1453 C1454 1.287 . S
C1454 C1453 1.287 . S
C1454 C1455 1.530 . S
C1454 H1473 0.913 . S
C1455 H1431 0.947 1_556 S
C1455 C1454 1.530 . S
C1455 C1456 1.412 1_556 S
C1456 H1432 0.950 . S
C1456 C1451 1.363 . S
C1456 C1455 1.412 1_554 S
C1457 H1433 0.951 . S
C1457 C1458 1.366 . S
C1457 C1459 1.388 . S
C1458 C1457 1.366 . S
C1458 C1462 1.385 . S
C1459 H1434 0.951 . S
C1459 C1457 1.388 . S
C1459 C1460 1.366 . S
C1460 C1459 1.366 . S
C1460 C1461 1.414 . S
C1460 C1463 1.499 . S
C1461 H1435 0.950 . S
C1461 C1460 1.414 . S
C1461 C1462 1.374 . S
C1462 H1436 0.950 . S
C1462 C1458 1.385 . S
C1462 C1461 1.374 . S
C1463 C1460 1.499 . S
C1463 C1464 1.373 . S
C1463 C1465 1.389 . S
C1464 H1437 0.950 . S
C1464 C1450 1.377 . S
C1464 C1463 1.373 . S
C1465 C1449 1.377 . S
C1465 C1463 1.389 . S
C1465 C1466 1.524 . S
C1466 C1465 1.524 . S
C1466 C1467 1.397 . S
C1466 C1471 1.363 . S
C1467 H1438 0.950 . S
C1467 C1466 1.397 . S
C1467 C1468 1.334 . S
C1468 H1439 0.950 . S
C1468 C1467 1.334 . S
C1468 C1469 1.287 . S
C1469 C1468 1.287 . S
C1469 C1470 1.524 . S
C1469 H1472 0.999 . S
C1470 H1440 0.950 . S
C1470 C1469 1.524 . S
C1470 C1471 1.415 . S
C1471 H1441 0.950 . S
C1471 C1466 1.363 . S
C1471 C1470 1.415 . S
H1472 C1469 0.999 . S
H1473 C1454 0.913 . S
H1474 C1492 0.951 . S
H1475 C1494 0.951 . S
H1476 C1496 0.950 . S
H1477 C1497 0.950 . S
H1478 C1499 0.950 . S
H1479 C1502 0.950 . S
H1480 C1503 0.950 . S
H1481 C1505 0.950 . S
H1482 C1506 0.950 . S
H1483 C1507 0.951 . S
H1484 C1509 0.951 . S
H1485 C1511 0.950 . S
H1486 C1512 0.950 . S
H1487 C1514 0.950 . S
H1488 C1517 0.950 . S
H1489 C1518 0.950 . S
H1490 C1520 0.950 . S
H1491 C1521 0.950 . S
C1492 H1474 0.951 . S
C1492 C1493 1.366 . S
C1492 C1494 1.388 . S
C1493 C1492 1.366 . S
C1493 C1497 1.385 . S
C1494 H1475 0.951 . S
C1494 C1492 1.388 . S
C1494 C1495 1.366 . S
C1495 C1494 1.366 . S
C1495 C1496 1.414 . S
C1495 C1498 1.499 . S
C1496 H1476 0.950 . S
C1496 C1495 1.414 . S
C1496 C1497 1.374 . S
C1497 H1477 0.950 . S
C1497 C1493 1.385 . S
C1497 C1496 1.374 . S
C1498 C1495 1.499 . S
C1498 C1499 1.373 . S
C1498 C1500 1.389 . S
C1499 H1478 0.950 . S
C1499 C1498 1.373 . S
C1499 C1515 1.377 . S
C1500 C1498 1.389 . S
C1500 C1501 1.524 . S
C1500 C1514 1.377 . S
C1501 C1500 1.524 . S
C1501 C1502 1.397 . S
C1501 C1506 1.363 . S
C1502 H1479 0.950 . S
C1502 C1501 1.397 . S
C1502 C1503 1.334 . S
C1503 H1480 0.950 . S
C1503 C1502 1.334 . S
C1503 C1504 1.287 . S
C1504 C1503 1.287 . S
C1504 C1505 1.524 . S
C1504 H1523 0.913 . S
C1505 H1481 0.950 . S
C1505 C1504 1.524 . S
C1505 C1506 1.415 . S
C1506 H1482 0.950 . S
C1506 C1501 1.363 . S
C1506 C1505 1.415 . S
C1507 H1483 0.951 . S
C1507 C1508 1.366 . S
C1507 C1509 1.388 . S
C1508 C1507 1.366 . S
C1508 C1512 1.385 . S
C1509 H1484 0.951 . S
C1509 C1507 1.388 . S
C1509 C1510 1.366 . S
C1510 C1509 1.366 . S
C1510 C1511 1.414 . S
C1510 C1513 1.499 . S
C1511 H1485 0.950 . S
C1511 C1510 1.414 . S
C1511 C1512 1.374 . S
C1512 H1486 0.950 . S
C1512 C1508 1.385 . S
C1512 C1511 1.374 . S
C1513 C1510 1.499 . S
C1513 C1514 1.373 . S
C1513 C1515 1.389 . S
C1514 H1487 0.950 . S
C1514 C1500 1.377 . S
C1514 C1513 1.373 . S
C1515 C1499 1.377 . S
C1515 C1513 1.389 . S
C1515 C1516 1.524 . S
C1516 C1515 1.524 . S
C1516 C1517 1.397 . S
C1516 C1521 1.363 . S
C1517 H1488 0.950 . S
C1517 C1516 1.397 . S
C1517 C1518 1.334 . S
C1518 H1489 0.950 . S
C1518 C1517 1.334 . S
C1518 C1519 1.287 . S
C1519 C1518 1.287 . S
C1519 C1520 1.524 . S
C1519 H1522 0.999 . S
C1520 H1490 0.950 . S
C1520 C1519 1.524 . S
C1520 C1521 1.415 . S
C1521 H1491 0.950 . S
C1521 C1516 1.363 . S
C1521 C1520 1.415 . S
H1522 C1519 0.999 . S
H1523 C1504 0.913 . S
H1524 C1542 0.951 . S
H1525 C1544 0.951 . S
H1526 C1546 0.950 . S
H1527 C1547 0.950 . S
H1528 C1549 0.950 . S
H1529 C1552 0.950 . S
H1530 C1553 0.950 . S
H1531 C1555 0.950 . S
H1532 C1556 0.950 . S
H1533 C1557 0.951 . S
H1534 C1559 0.951 . S
H1535 C1561 0.950 . S
H1536 C1562 0.950 . S
H1537 C1564 0.950 . S
H1538 C1567 0.950 . S
H1539 C1568 0.950 . S
H1540 C1570 0.950 . S
H1541 C1571 0.950 . S
C1542 H1524 0.951 . S
C1542 C1543 1.366 . S
C1542 C1544 1.388 . S
C1543 C1542 1.366 . S
C1543 C1547 1.385 . S
C1544 H1525 0.951 . S
C1544 C1542 1.388 . S
C1544 C1545 1.366 . S
C1545 C1544 1.366 . S
C1545 C1546 1.414 . S
C1545 C1548 1.499 . S
C1546 H1526 0.950 . S
C1546 C1545 1.414 . S
C1546 C1547 1.374 . S
C1547 H1527 0.950 . S
C1547 C1543 1.385 . S
C1547 C1546 1.374 . S
C1548 C1545 1.499 . S
C1548 C1549 1.373 . S
C1548 C1550 1.389 . S
C1549 H1528 0.950 . S
C1549 C1548 1.373 . S
C1549 C1565 1.377 . S
C1550 C1548 1.389 . S
C1550 C1551 1.524 . S
C1550 C1564 1.377 . S
C1551 C1550 1.524 . S
C1551 C1552 1.397 . S
C1551 C1556 1.363 . S
C1552 H1529 0.950 . S
C1552 C1551 1.397 . S
C1552 C1553 1.334 . S
C1553 H1530 0.950 . S
C1553 C1552 1.334 . S
C1553 C1554 1.287 . S
C1554 C1553 1.287 . S
C1554 C1555 1.524 . S
C1554 H1573 0.913 . S
C1555 H1531 0.950 . S
C1555 C1554 1.524 . S
C1555 C1556 1.415 . S
C1556 H1532 0.950 . S
C1556 C1551 1.363 . S
C1556 C1555 1.415 . S
C1557 H1533 0.951 . S
C1557 C1558 1.366 . S
C1557 C1559 1.388 . S
C1558 C1557 1.366 . S
C1558 C1562 1.385 . S
C1559 H1534 0.951 . S
C1559 C1557 1.388 . S
C1559 C1560 1.366 . S
C1560 C1559 1.366 . S
C1560 C1561 1.414 . S
C1560 C1563 1.499 . S
C1561 H1535 0.950 . S
C1561 C1560 1.414 . S
C1561 C1562 1.374 . S
C1562 H1536 0.950 . S
C1562 C1558 1.385 . S
C1562 C1561 1.374 . S
C1563 C1560 1.499 . S
C1563 C1564 1.373 . S
C1563 C1565 1.389 . S
C1564 H1537 0.950 . S
C1564 C1550 1.377 . S
C1564 C1563 1.373 . S
C1565 C1549 1.377 . S
C1565 C1563 1.389 . S
C1565 C1566 1.524 . S
C1566 C1565 1.524 . S
C1566 C1567 1.397 . S
C1566 C1571 1.363 . S
C1567 H1538 0.950 . S
C1567 C1566 1.397 . S
C1567 C1568 1.334 . S
C1568 H1539 0.950 . S
C1568 C1567 1.334 . S
C1568 C1569 1.287 . S
C1569 C1568 1.287 . S
C1569 C1570 1.524 . S
C1569 H1572 0.999 . S
C1570 H1540 0.950 . S
C1570 C1569 1.524 . S
C1570 C1571 1.415 . S
C1571 H1541 0.950 . S
C1571 C1566 1.363 . S
C1571 C1570 1.415 . S
H1572 C1569 0.999 . S
H1573 C1554 0.913 . S
H1574 C1592 0.951 . S
H1575 C1594 0.951 . S
H1576 C1596 0.950 . S
H1577 C1597 0.950 . S
H1578 C1599 0.950 . S
H1579 C1602 0.950 . S
H1580 C1603 0.950 . S
H1581 C1605 0.950 . S
H1582 C1606 0.950 . S
H1583 C1607 0.951 . S
H1584 C1609 0.951 . S
H1585 C1611 0.950 . S
H1586 C1612 0.950 . S
H1587 C1614 0.950 . S
H1588 C1617 0.950 . S
H1589 C1618 0.950 . S
H1590 C1620 0.950 . S
H1591 C1621 0.950 . S
C1592 H1574 0.951 . S
C1592 C1593 1.366 . S
C1592 C1594 1.388 . S
C1593 C1592 1.366 . S
C1593 C1597 1.385 . S
C1594 H1575 0.951 . S
C1594 C1592 1.388 . S
C1594 C1595 1.366 . S
C1595 C1594 1.366 . S
C1595 C1596 1.414 . S
C1595 C1598 1.499 . S
C1596 H1576 0.950 . S
C1596 C1595 1.414 . S
C1596 C1597 1.374 . S
C1597 H1577 0.950 . S
C1597 C1593 1.385 . S
C1597 C1596 1.374 . S
C1598 C1595 1.499 . S
C1598 C1599 1.373 . S
C1598 C1600 1.389 . S
C1599 H1578 0.950 . S
C1599 C1598 1.373 . S
C1599 C1615 1.377 . S
C1600 C1598 1.389 . S
C1600 C1601 1.524 . S
C1600 C1614 1.377 . S
C1601 C1600 1.524 . S
C1601 C1602 1.397 . S
C1601 C1606 1.363 . S
C1602 H1579 0.950 . S
C1602 C1601 1.397 . S
C1602 C1603 1.334 . S
C1603 H1580 0.950 . S
C1603 C1602 1.334 . S
C1603 C1604 1.287 . S
C1604 C1603 1.287 . S
C1604 C1605 1.524 . S
C1604 H1623 0.913 . S
C1605 H1581 0.950 . S
C1605 C1604 1.524 . S
C1605 C1606 1.415 . S
C1606 H1582 0.950 . S
C1606 C1601 1.363 . S
C1606 C1605 1.415 . S
C1607 H1583 0.951 . S
C1607 C1608 1.366 . S
C1607 C1609 1.388 . S
C1608 C1607 1.366 . S
C1608 C1612 1.385 . S
C1609 H1584 0.951 . S
C1609 C1607 1.388 . S
C1609 C1610 1.366 . S
C1610 C1609 1.366 . S
C1610 C1611 1.414 . S
C1610 C1613 1.499 . S
C1611 H1585 0.950 . S
C1611 C1610 1.414 . S
C1611 C1612 1.374 . S
C1612 H1586 0.950 . S
C1612 C1608 1.385 . S
C1612 C1611 1.374 . S
C1613 C1610 1.499 . S
C1613 C1614 1.373 . S
C1613 C1615 1.389 . S
C1614 H1587 0.950 . S
C1614 C1600 1.377 . S
C1614 C1613 1.373 . S
C1615 C1599 1.377 . S
C1615 C1613 1.389 . S
C1615 C1616 1.524 . S
C1616 C1615 1.524 . S
C1616 C1617 1.397 . S
C1616 C1621 1.363 . S
C1617 H1588 0.950 . S
C1617 C1616 1.397 . S
C1617 C1618 1.334 . S
C1618 H1589 0.950 . S
C1618 C1617 1.334 . S
C1618 C1619 1.287 . S
C1619 C1618 1.287 . S
C1619 C1620 1.524 . S
C1619 H1622 0.999 . S
C1620 H1590 0.950 . S
C1620 C1619 1.524 . S
C1620 C1621 1.415 . S
C1621 H1591 0.950 . S
C1621 C1616 1.363 . S
C1621 C1620 1.415 . S
H1622 C1619 0.999 . S
H1623 C1604 0.913 . S
H1624 C1642 0.951 . S
H1625 C1644 0.951 . S
H1626 C1646 0.950 . S
H1627 C1647 0.950 . S
H1628 C1649 0.950 . S
H1629 C1652 0.950 . S
H1630 C1653 0.950 . S
H1631 C1655 0.950 . S
H1632 C1656 0.950 . S
H1633 C1657 0.951 . S
H1634 C1659 0.951 . S
H1635 C1661 0.950 . S
H1636 C1662 0.950 . S
H1637 C1664 0.950 . S
H1638 C1667 0.950 . S
H1639 C1668 0.950 . S
H1640 C1670 0.950 . S
H1641 C1671 0.950 . S
C1642 H1624 0.951 . S
C1642 C1643 1.366 . S
C1642 C1644 1.388 . S
C1643 C1642 1.366 . S
C1643 C1647 1.385 . S
C1644 H1625 0.951 . S
C1644 C1642 1.388 . S
C1644 C1645 1.366 . S
C1645 C1644 1.366 . S
C1645 C1646 1.414 . S
C1645 C1648 1.499 . S
C1646 H1626 0.950 . S
C1646 C1645 1.414 . S
C1646 C1647 1.374 . S
C1647 H1627 0.950 . S
C1647 C1643 1.385 . S
C1647 C1646 1.374 . S
C1648 C1645 1.499 . S
C1648 C1649 1.373 . S
C1648 C1650 1.389 . S
C1649 H1628 0.950 . S
C1649 C1648 1.373 . S
C1649 C1665 1.377 . S
C1650 C1648 1.389 . S
C1650 C1651 1.524 . S
C1650 C1664 1.377 . S
C1651 C1650 1.524 . S
C1651 C1652 1.397 . S
C1651 C1656 1.363 . S
C1652 H1629 0.950 . S
C1652 C1651 1.397 . S
C1652 C1653 1.334 . S
C1653 H1630 0.950 . S
C1653 C1652 1.334 . S
C1653 C1654 1.287 . S
C1654 C1653 1.287 . S
C1654 C1655 1.524 . S
C1654 H1673 0.913 . S
C1655 H1631 0.950 . S
C1655 C1654 1.524 . S
C1655 C1656 1.415 . S
C1656 H1632 0.950 . S
C1656 C1651 1.363 . S
C1656 C1655 1.415 . S
C1657 H1633 0.951 . S
C1657 C1658 1.366 . S
C1657 C1659 1.388 . S
C1658 C1657 1.366 . S
C1658 C1662 1.385 . S
C1659 H1634 0.951 . S
C1659 C1657 1.388 . S
C1659 C1660 1.366 . S
C1660 C1659 1.366 . S
C1660 C1661 1.414 . S
C1660 C1663 1.499 . S
C1661 H1635 0.950 . S
C1661 C1660 1.414 . S
C1661 C1662 1.374 . S
C1662 H1636 0.950 . S
C1662 C1658 1.385 . S
C1662 C1661 1.374 . S
C1663 C1660 1.499 . S
C1663 C1664 1.373 . S
C1663 C1665 1.389 . S
C1664 H1637 0.950 . S
C1664 C1650 1.377 . S
C1664 C1663 1.373 . S
C1665 C1649 1.377 . S
C1665 C1663 1.389 . S
C1665 C1666 1.524 . S
C1666 C1665 1.524 . S
C1666 C1667 1.397 . S
C1666 C1671 1.363 . S
C1667 H1638 0.950 . S
C1667 C1666 1.397 . S
C1667 C1668 1.334 . S
C1668 H1639 0.950 . S
C1668 C1667 1.334 . S
C1668 C1669 1.287 . S
C1669 C1668 1.287 . S
C1669 C1670 1.524 . S
C1669 H1672 0.999 . S
C1670 H1640 0.950 . S
C1670 C1669 1.524 . S
C1670 C1671 1.415 . S
C1671 H1641 0.950 . S
C1671 C1666 1.363 . S
C1671 C1670 1.415 . S
H1672 C1669 0.999 . S
H1673 C1654 0.913 . S
H1674 C1692 0.951 . S
H1675 C1694 0.951 . S
H1676 C1696 0.950 . S
H1677 C1697 0.950 . S
H1678 C1699 0.950 . S
H1679 C1702 0.950 . S
H1680 C1703 0.950 . S
H1681 C1705 0.950 . S
H1682 C1706 0.950 . S
H1683 C1707 0.951 . S
H1684 C1709 0.951 . S
H1685 C1711 0.950 . S
H1686 C1712 0.950 . S
H1687 C1714 0.950 . S
H1688 C1717 0.950 . S
H1689 C1718 0.950 . S
H1690 C1720 0.950 . S
H1691 C1721 0.950 . S
C1692 H1674 0.951 . S
C1692 C1693 1.366 . S
C1692 C1694 1.388 . S
C1693 C1692 1.366 . S
C1693 C1697 1.385 . S
C1694 H1675 0.951 . S
C1694 C1692 1.388 . S
C1694 C1695 1.366 . S
C1695 C1694 1.366 . S
C1695 C1696 1.414 . S
C1695 C1698 1.499 . S
C1696 H1676 0.950 . S
C1696 C1695 1.414 . S
C1696 C1697 1.374 . S
C1697 H1677 0.950 . S
C1697 C1693 1.385 . S
C1697 C1696 1.374 . S
C1698 C1695 1.499 . S
C1698 C1699 1.373 . S
C1698 C1700 1.389 . S
C1699 H1678 0.950 . S
C1699 C1698 1.373 . S
C1699 C1715 1.377 . S
C1700 C1698 1.389 . S
C1700 C1701 1.524 . S
C1700 C1714 1.377 . S
C1701 C1700 1.524 . S
C1701 C1702 1.397 . S
C1701 C1706 1.363 . S
C1702 H1679 0.950 . S
C1702 C1701 1.397 . S
C1702 C1703 1.334 . S
C1703 H1680 0.950 . S
C1703 C1702 1.334 . S
C1703 C1704 1.287 . S
C1704 C1703 1.287 . S
C1704 C1705 1.524 . S
C1704 H1723 0.913 . S
C1705 H1681 0.950 . S
C1705 C1704 1.524 . S
C1705 C1706 1.415 . S
C1706 H1682 0.950 . S
C1706 C1701 1.363 . S
C1706 C1705 1.415 . S
C1707 H1683 0.951 . S
C1707 C1708 1.366 . S
C1707 C1709 1.388 . S
C1708 C1707 1.366 . S
C1708 C1712 1.385 . S
C1709 H1684 0.951 . S
C1709 C1707 1.388 . S
C1709 C1710 1.366 . S
C1710 C1709 1.366 . S
C1710 C1711 1.414 . S
C1710 C1713 1.499 . S
C1711 H1685 0.950 . S
C1711 C1710 1.414 . S
C1711 C1712 1.374 . S
C1712 H1686 0.950 . S
C1712 C1708 1.385 . S
C1712 C1711 1.374 . S
C1713 C1710 1.499 . S
C1713 C1714 1.373 . S
C1713 C1715 1.389 . S
C1714 H1687 0.950 . S
C1714 C1700 1.377 . S
C1714 C1713 1.373 . S
C1715 C1699 1.377 . S
C1715 C1713 1.389 . S
C1715 C1716 1.524 . S
C1716 C1715 1.524 . S
C1716 C1717 1.397 . S
C1716 C1721 1.363 . S
C1717 H1688 0.950 . S
C1717 C1716 1.397 . S
C1717 C1718 1.334 . S
C1718 H1689 0.950 . S
C1718 C1717 1.334 . S
C1718 C1719 1.287 . S
C1719 C1718 1.287 . S
C1719 C1720 1.524 . S
C1719 H1722 0.999 . S
C1720 H1690 0.950 . S
C1720 C1719 1.524 . S
C1720 C1721 1.415 . S
C1721 H1691 0.950 . S
C1721 C1716 1.363 . S
C1721 C1720 1.415 . S
H1722 C1719 0.999 . S
H1723 C1704 0.913 . S
H1724 C1742 0.951 . S
H1725 C1744 0.951 . S
H1726 C1746 0.950 . S
H1727 C1747 0.950 . S
H1728 C1749 0.950 . S
H1729 C1752 0.950 . S
H1730 C1753 0.950 . S
H1731 C1755 0.950 . S
H1732 C1756 0.950 . S
H1733 C1757 0.951 . S
H1734 C1759 0.951 . S
H1735 C1761 0.950 . S
H1736 C1762 0.950 . S
H1737 C1764 0.950 . S
H1738 C1767 0.950 . S
H1739 C1768 0.950 . S
H1740 C1770 0.950 . S
H1741 C1771 0.950 . S
C1742 H1724 0.951 . S
C1742 C1743 1.366 . S
C1742 C1744 1.388 . S
C1743 C1742 1.366 . S
C1743 C1747 1.385 . S
C1744 H1725 0.951 . S
C1744 C1742 1.388 . S
C1744 C1745 1.366 . S
C1745 C1744 1.366 . S
C1745 C1746 1.414 . S
C1745 C1748 1.499 . S
C1746 H1726 0.950 . S
C1746 C1745 1.414 . S
C1746 C1747 1.374 . S
C1747 H1727 0.950 . S
C1747 C1743 1.385 . S
C1747 C1746 1.374 . S
C1748 C1745 1.499 . S
C1748 C1749 1.373 . S
C1748 C1750 1.389 . S
C1749 H1728 0.950 . S
C1749 C1748 1.373 . S
C1749 C1765 1.377 . S
C1750 C1748 1.389 . S
C1750 C1751 1.524 . S
C1750 C1764 1.377 . S
C1751 C1750 1.524 . S
C1751 C1752 1.397 . S
C1751 C1756 1.363 . S
C1752 H1729 0.950 . S
C1752 C1751 1.397 . S
C1752 C1753 1.334 . S
C1753 H1730 0.950 . S
C1753 C1752 1.334 . S
C1753 C1754 1.287 . S
C1754 C1753 1.287 . S
C1754 C1755 1.524 . S
C1754 H1773 0.913 . S
C1755 H1731 0.950 . S
C1755 C1754 1.524 . S
C1755 C1756 1.415 . S
C1756 H1732 0.950 . S
C1756 C1751 1.363 . S
C1756 C1755 1.415 . S
C1757 H1733 0.951 . S
C1757 C1758 1.366 . S
C1757 C1759 1.388 . S
C1758 C1757 1.366 . S
C1758 C1762 1.385 . S
C1759 H1734 0.951 . S
C1759 C1757 1.388 . S
C1759 C1760 1.366 . S
C1760 C1759 1.366 . S
C1760 C1761 1.414 . S
C1760 C1763 1.499 . S
C1761 H1735 0.950 . S
C1761 C1760 1.414 . S
C1761 C1762 1.374 . S
C1762 H1736 0.950 . S
C1762 C1758 1.385 . S
C1762 C1761 1.374 . S
C1763 C1760 1.499 . S
C1763 C1764 1.373 . S
C1763 C1765 1.389 . S
C1764 H1737 0.950 . S
C1764 C1750 1.377 . S
C1764 C1763 1.373 . S
C1765 C1749 1.377 . S
C1765 C1763 1.389 . S
C1765 C1766 1.524 . S
C1766 C1765 1.524 . S
C1766 C1767 1.397 . S
C1766 C1771 1.363 . S
C1767 H1738 0.950 . S
C1767 C1766 1.397 . S
C1767 C1768 1.334 . S
C1768 H1739 0.950 . S
C1768 C1767 1.334 . S
C1768 C1769 1.287 . S
C1769 C1768 1.287 . S
C1769 C1770 1.524 . S
C1769 H1772 0.999 . S
C1770 H1740 0.950 . S
C1770 C1769 1.524 . S
C1770 C1771 1.415 . S
C1771 H1741 0.950 . S
C1771 C1766 1.363 . S
C1771 C1770 1.415 . S
H1772 C1769 0.999 . S
H1773 C1754 0.913 . S
H1774 C1792 0.951 . S
H1775 C1794 0.951 . S
H1776 C1796 0.950 . S
H1777 C1797 0.950 . S
H1778 C1799 0.950 . S
H1779 C1802 0.950 . S
H1780 C1803 0.950 . S
H1781 C1805 0.950 . S
H1782 C1806 0.950 . S
H1783 C1807 0.951 . S
H1784 C1809 0.951 . S
H1785 C1811 0.950 . S
H1786 C1812 0.950 . S
H1787 C1814 0.950 . S
H1788 C1817 0.950 . S
H1789 C1818 0.950 . S
H1790 C1820 0.950 . S
H1791 C1821 0.950 1_554 S
C1792 H1774 0.951 . S
C1792 C1793 1.366 . S
C1792 C1794 1.388 . S
C1793 C1792 1.366 . S
C1793 C1797 1.385 . S
C1794 H1775 0.951 . S
C1794 C1792 1.388 . S
C1794 C1795 1.366 . S
C1795 C1794 1.366 . S
C1795 C1796 1.414 . S
C1795 C1798 1.499 . S
C1796 H1776 0.950 . S
C1796 C1795 1.414 . S
C1796 C1797 1.374 . S
C1797 H1777 0.950 . S
C1797 C1793 1.385 . S
C1797 C1796 1.374 . S
C1798 C1795 1.499 . S
C1798 C1799 1.373 . S
C1798 C1800 1.389 . S
C1799 H1778 0.950 . S
C1799 C1798 1.373 . S
C1799 C1815 1.377 . S
C1800 C1798 1.389 . S
C1800 C1801 1.524 . S
C1800 C1814 1.377 . S
C1801 C1800 1.524 . S
C1801 C1802 1.397 . S
C1801 C1806 1.363 . S
C1802 H1779 0.950 . S
C1802 C1801 1.397 . S
C1802 C1803 1.334 . S
C1803 H1780 0.950 . S
C1803 C1802 1.334 . S
C1803 C1804 1.287 . S
C1804 C1803 1.287 . S
C1804 C1805 1.524 . S
C1804 H1823 0.913 . S
C1805 H1781 0.950 . S
C1805 C1804 1.524 . S
C1805 C1806 1.415 . S
C1806 H1782 0.950 . S
C1806 C1801 1.363 . S
C1806 C1805 1.415 . S
C1807 H1783 0.951 . S
C1807 C1808 1.366 . S
C1807 C1809 1.388 . S
C1808 C1807 1.366 . S
C1808 C1812 1.385 . S
C1809 H1784 0.951 . S
C1809 C1807 1.388 . S
C1809 C1810 1.366 . S
C1810 C1809 1.366 . S
C1810 C1811 1.414 . S
C1810 C1813 1.522 . S
C1811 H1785 0.950 . S
C1811 C1810 1.414 . S
C1811 C1812 1.374 . S
C1812 H1786 0.950 . S
C1812 C1808 1.385 . S
C1812 C1811 1.374 . S
C1813 C1810 1.522 . S
C1813 C1814 1.358 1_556 S
C1813 C1815 1.381 1_556 S
C1814 H1787 0.950 . S
C1814 C1800 1.377 . S
C1814 C1813 1.358 1_554 S
C1815 C1799 1.377 . S
C1815 C1813 1.381 1_554 S
C1815 C1816 1.524 1_554 S
C1816 C1815 1.524 1_556 S
C1816 C1817 1.397 . S
C1816 C1821 1.363 . S
C1817 H1788 0.950 . S
C1817 C1816 1.397 . S
C1817 C1818 1.334 . S
C1818 H1789 0.950 . S
C1818 C1817 1.334 . S
C1818 C1819 1.287 . S
C1819 C1818 1.287 . S
C1819 C1820 1.524 . S
C1819 H1822 0.999 . S
C1820 H1790 0.950 . S
C1820 C1819 1.524 . S
C1820 C1821 1.415 . S
C1821 H1791 0.950 1_556 S
C1821 C1816 1.363 . S
C1821 C1820 1.415 . S
H1822 C1819 0.999 . S
H1823 C1804 0.913 . S
C243 C97 2.179 . S
C258 C13 2.178 . S
C293 C111 2.178 . S
C308 C27 2.178 . S
C343 C41 2.178 . S
C358 C56 2.180 1_556 S
C393 C55 2.178 . S
C408 C83 2.178 . S
C443 C112 2.180 . S
C458 C197 2.178 1_556 S
C493 C223 2.178 . S
C508 C139 2.178 . S
C543 C141 2.179 . S
C558 C168 2.180 . S
C593 C155 2.178 . S
C608 C182 2.180 . S
C643 C12 2.076 . S
C658 C140 2.076 . S
C693 C26 2.076 . S
C708 C154 2.077 . S
C743 C40 2.077 . S
C758 C113 2.073 . S
C793 C54 2.076 . S
C808 C138 2.077 . S
C843 C57 2.073 . S
C858 C196 2.077 . S
C893 C222 2.076 . S
C908 C82 2.077 . S
C943 C96 2.076 . S
C958 C169 2.073 . S
C993 C183 2.073 . S
C1008 C110 2.076 . S
C1043 C195 0.451 . S
C1058 C0 0.450 . S
C1093 C14 0.450 . S
C1108 C208 0.450 . S
C1143 C210 0.449 . S
C1158 C28 0.449 . S
C1193 C181 0.451 . S
C1208 C42 0.450 . S
C1243 C166 0.449 . S
C1258 C69 0.449 . S
C1293 C70 0.449 . S
C1308 C125 0.450 . S
C1343 C84 0.449 . S
C1358 C126 0.449 . S
C1393 C98 0.450 . S
C1408 C152 0.450 . S
C1443 C194 1.781 . S
C1458 C1 1.780 . S
C1493 C15 1.780 . S
C1508 C209 1.780 . S
C1543 C29 1.780 . S
C1558 C211 1.780 . S
C1593 C180 1.781 . S
C1608 C43 1.780 . S
C1643 C167 1.780 . S
C1658 C68 1.781 . S
C1693 C124 1.781 . S
C1708 C71 1.780 . S
C1743 C85 1.780 . S
C1758 C127 1.780 . S
C1793 C153 1.780 . S
C1808 C99 1.780 . S
