# Generated by pormake.
# Topology wkf, (6)-cn, num edge types: 1
# Building blocks:
#     Node 0, Type 0, BuildingBlock: OJICUG_clean_sbu_0, # of connection points: 6
#     Node 1, Type 0, BuildingBlock: OJICUG_clean_sbu_0, # of connection points: 6
#     Node 2, Type 0, BuildingBlock: OJICUG_clean_sbu_0, # of connection points: 6
#     Node 3, Type 0, BuildingBlock: OJICUG_clean_sbu_0, # of connection points: 6
#     Node 4, Type 0, BuildingBlock: OJICUG_clean_sbu_0, # of connection points: 6
#     Node 5, Type 0, BuildingBlock: OJICUG_clean_sbu_0, # of connection points: 6
#     Node 6, Type 0, BuildingBlock: OJICUG_clean_sbu_0, # of connection points: 6
#     Node 7, Type 0, BuildingBlock: OJICUG_clean_sbu_0, # of connection points: 6
#     Node 8, Type 0, BuildingBlock: OJICUG_clean_sbu_0, # of connection points: 6
#     Node 9, Type 0, BuildingBlock: OJICUG_clean_sbu_0, # of connection points: 6
#     Node 10, Type 0, BuildingBlock: OJICUG_clean_sbu_0, # of connection points: 6
#     Node 11, Type 0, BuildingBlock: OJICUG_clean_sbu_0, # of connection points: 6
#     Edge 12, Type (0, 0), BuildingBlock: XIVTED_clean_linker_0, # of connection points: 2
#     Edge 13, Type (0, 0), BuildingBlock: XIVTED_clean_linker_0, # of connection points: 2
#     Edge 14, Type (0, 0), BuildingBlock: XIVTED_clean_linker_0, # of connection points: 2
#     Edge 15, Type (0, 0), BuildingBlock: XIVTED_clean_linker_0, # of connection points: 2
#     Edge 16, Type (0, 0), BuildingBlock: XIVTED_clean_linker_0, # of connection points: 2
#     Edge 17, Type (0, 0), BuildingBlock: XIVTED_clean_linker_0, # of connection points: 2
#     Edge 18, Type (0, 0), BuildingBlock: XIVTED_clean_linker_0, # of connection points: 2
#     Edge 19, Type (0, 0), BuildingBlock: XIVTED_clean_linker_0, # of connection points: 2
#     Edge 20, Type (0, 0), BuildingBlock: XIVTED_clean_linker_0, # of connection points: 2
#     Edge 21, Type (0, 0), BuildingBlock: XIVTED_clean_linker_0, # of connection points: 2
#     Edge 22, Type (0, 0), BuildingBlock: XIVTED_clean_linker_0, # of connection points: 2
#     Edge 23, Type (0, 0), BuildingBlock: XIVTED_clean_linker_0, # of connection points: 2
#     Edge 24, Type (0, 0), BuildingBlock: XIVTED_clean_linker_0, # of connection points: 2
#     Edge 25, Type (0, 0), BuildingBlock: XIVTED_clean_linker_0, # of connection points: 2
#     Edge 26, Type (0, 0), BuildingBlock: XIVTED_clean_linker_0, # of connection points: 2
#     Edge 27, Type (0, 0), BuildingBlock: XIVTED_clean_linker_0, # of connection points: 2
#     Edge 28, Type (0, 0), BuildingBlock: XIVTED_clean_linker_0, # of connection points: 2
#     Edge 29, Type (0, 0), BuildingBlock: XIVTED_clean_linker_0, # of connection points: 2
#     Edge 30, Type (0, 0), BuildingBlock: XIVTED_clean_linker_0, # of connection points: 2
#     Edge 31, Type (0, 0), BuildingBlock: XIVTED_clean_linker_0, # of connection points: 2
#     Edge 32, Type (0, 0), BuildingBlock: XIVTED_clean_linker_0, # of connection points: 2
#     Edge 33, Type (0, 0), BuildingBlock: XIVTED_clean_linker_0, # of connection points: 2
#     Edge 34, Type (0, 0), BuildingBlock: XIVTED_clean_linker_0, # of connection points: 2
#     Edge 35, Type (0, 0), BuildingBlock: XIVTED_clean_linker_0, # of connection points: 2
#     Edge 36, Type (0, 0), BuildingBlock: XIVTED_clean_linker_0, # of connection points: 2
#     Edge 37, Type (0, 0), BuildingBlock: XIVTED_clean_linker_0, # of connection points: 2
#     Edge 38, Type (0, 0), BuildingBlock: XIVTED_clean_linker_0, # of connection points: 2
#     Edge 39, Type (0, 0), BuildingBlock: XIVTED_clean_linker_0, # of connection points: 2
#     Edge 40, Type (0, 0), BuildingBlock: XIVTED_clean_linker_0, # of connection points: 2
#     Edge 41, Type (0, 0), BuildingBlock: XIVTED_clean_linker_0, # of connection points: 2
#     Edge 42, Type (0, 0), BuildingBlock: XIVTED_clean_linker_0, # of connection points: 2
#     Edge 43, Type (0, 0), BuildingBlock: XIVTED_clean_linker_0, # of connection points: 2
#     Edge 44, Type (0, 0), BuildingBlock: XIVTED_clean_linker_0, # of connection points: 2
#     Edge 45, Type (0, 0), BuildingBlock: XIVTED_clean_linker_0, # of connection points: 2
#     Edge 46, Type (0, 0), BuildingBlock: XIVTED_clean_linker_0, # of connection points: 2
#     Edge 47, Type (0, 0), BuildingBlock: XIVTED_clean_linker_0, # of connection points: 2
# Relax obj value: 0.170
# Max RMSD: 0.210
# Mean RMSD: 0.210
data_MOF--net-wkf--node1-OJICUG_clean_sbu_0--edge1-XIVTED_clean_linker_0
_symmetry_space_group_name_H-M    P1
_symmetry_Int_Tables_number       1
_symmetry_cell_setting            triclinic
loop_
_symmetry_equiv_pos_as_xyz
'x, y, z'
_cell_length_a     28.487518
_cell_length_b     28.470529
_cell_length_c     72.84932
_cell_angle_alpha  90.37486
_cell_angle_beta   89.830497
_cell_angle_gamma 119.88127
loop_
_atom_site_label
_atom_site_type_symbol
_atom_site_fract_x
_atom_site_fract_y
_atom_site_fract_z
_atom_type_partial_charge
Sc0 Sc 0.46346 0.10633 0.35169 0.0
Sc1 Sc 0.33097 0.04541 0.3674 0.0
Sc2 Sc 0.4322 0.0461 0.39418 0.0
O3 O 0.40792 0.06532 0.37097 0.0
C4 C 0.49364 0.02076 0.3651 0.0
C5 C 0.36709 0.01513 0.32936 0.0
C6 C 0.31456 0.94515 0.38981 0.0
C7 C 0.38487 0.15417 0.34603 0.0
C8 C 0.52197 0.16311 0.38722 0.0
C9 C 0.36 0.09314 0.40843 0.0
O10 O 0.50963 0.06774 0.35868 0.0
O11 O 0.33212 0.01666 0.33999 0.0
O12 O 0.35725 0.97272 0.39916 0.0
O13 O 0.42505 0.14895 0.34163 0.0
O14 O 0.51121 0.1164 0.39239 0.0
O15 O 0.32709 0.07263 0.39495 0.0
O16 O 0.5056 0.17004 0.37178 0.0
O17 O 0.34996 0.12428 0.35776 0.0
O18 O 0.40391 0.09161 0.40979 0.0
O19 O 0.41821 0.04279 0.33192 0.0
O20 O 0.45948 0.00102 0.37811 0.0
O21 O 0.30256 0.96422 0.37611 0.0
Sc22 Sc 0.29931 0.44265 0.54407 0.0
Sc23 Sc 0.19757 0.32859 0.52114 0.0
Sc24 Sc 0.29162 0.44302 0.49585 0.0
O25 O 0.26296 0.40471 0.52032 0.0
C26 C 0.29671 0.53634 0.52106 0.0
C27 C 0.17421 0.38581 0.5546 0.0
C28 C 0.16418 0.38045 0.48882 0.0
C29 C 0.27271 0.32304 0.5525 0.0
C30 C 0.40139 0.48421 0.51825 0.0
C31 C 0.26773 0.32271 0.4878 0.0
O32 O 0.30047 0.51476 0.53575 0.0
O33 O 0.15783 0.34958 0.54216 0.0
O34 O 0.2123 0.41631 0.48493 0.0
O35 O 0.30161 0.37385 0.55471 0.0
O36 O 0.37493 0.47674 0.5035 0.0
O37 O 0.23118 0.30088 0.50003 0.0
O38 O 0.37933 0.47129 0.53392 0.0
O39 O 0.2335 0.30116 0.54124 0.0
O40 O 0.29366 0.37351 0.48478 0.0
O41 O 0.22377 0.42023 0.55711 0.0
O42 O 0.29267 0.51597 0.50515 0.0
O43 O 0.15293 0.34656 0.50162 0.0
Sc44 Sc 0.8962 0.39091 0.69228 0.0
Sc45 Sc 0.92621 0.28703 0.69733 0.0
Sc46 Sc 0.96419 0.38703 0.73142 0.0
O47 O 0.92946 0.35504 0.7069 0.0
C48 C 0.00123 0.492 0.70895 0.0
C49 C 0.95608 0.36318 0.66185 0.0
C50 C 0.04222 0.34599 0.71558 0.0
C51 C 0.81518 0.26707 0.68239 0.0
C52 C 0.85623 0.39296 0.7321 0.0
C53 C 0.896 0.26118 0.73963 0.0
O54 O 0.95577 0.47117 0.70086 0.0
O55 O 0.94837 0.32074 0.67024 0.0
O56 O 0.02988 0.37138 0.72725 0.0
O57 O 0.83158 0.31723 0.68098 0.0
O58 O 0.90236 0.40654 0.73891 0.0
O59 O 0.90112 0.24745 0.72342 0.0
O60 O 0.8452 0.38176 0.71517 0.0
O61 O 0.84242 0.24919 0.69039 0.0
O62 O 0.91551 0.31029 0.74472 0.0
O63 O 0.94534 0.39809 0.66872 0.0
O64 O 0.01456 0.46501 0.71937 0.0
O65 O 0.00997 0.31602 0.70312 0.0
Sc66 Sc 0.56513 0.88792 0.885 0.0
Sc67 Sc 0.67319 0.90398 0.85777 0.0
Sc68 Sc 0.54537 0.86051 0.83747 0.0
O69 O 0.5945 0.88424 0.85999 0.0
C70 C 0.47517 0.77568 0.86852 0.0
C71 C 0.64389 0.8429 0.89554 0.0
C72 C 0.61723 0.80523 0.82987 0.0
C73 C 0.67712 -0.00478 0.88477 0.0
C74 C 0.49902 0.92518 0.85955 0.0
C75 C 0.65506 0.96021 0.82292 0.0
O76 O 0.50137 0.80703 0.88173 0.0
O77 O 0.66962 0.85469 0.88051 0.0
O78 O 0.57632 0.81078 0.82714 0.0
O79 O 0.62788 0.96893 0.88959 0.0
O80 O 0.50711 0.90671 0.84472 0.0
O81 O 0.68411 0.95435 0.83483 0.0
O82 O 0.51694 0.92055 0.87491 0.0
O83 O 0.69949 0.97574 0.87446 0.0
O84 O 0.60392 0.92947 0.82169 0.0
O85 O 0.60842 0.85591 0.89929 0.0
O86 O 0.48341 0.78944 0.85166 0.0
O87 O 0.65526 0.83519 0.84078 0.0
Sc88 Sc 0.63938 0.51173 0.01502 0.0
Sc89 Sc 0.70609 0.63567 0.03754 0.0
Sc90 Sc 0.58945 0.52941 0.05637 0.0
O91 O 0.64486 0.55933 0.03625 0.0
C92 C 0.51553 0.47349 0.02311 0.0
C93 C 0.66874 0.61943 0.99545 0.0
C94 C 0.60953 0.64869 0.05191 0.0
C95 C 0.76741 0.58409 0.01973 0.0
C96 C 0.61542 0.43635 0.04853 0.0
C97 C 0.69636 0.59622 0.07896 0.0
O98 O 0.55175 0.46655 0.01539 0.0
O99 O 0.70027 0.64617 0.00864 0.0
O100 O 0.58764 0.60347 0.06013 0.0
O101 O 0.7252 0.55051 0.01108 0.0
O102 O 0.58329 0.45141 0.05472 0.0
O103 O 0.71738 0.63247 0.06666 0.0
O104 O 0.64468 0.45729 0.03436 0.0
O105 O 0.76656 0.61269 0.03299 0.0
O106 O 0.6516 0.55248 0.07683 0.0
O107 O 0.63709 0.5682 -0.00415 0.0
O108 O 0.52517 0.50403 0.03703 0.0
O109 O 0.65071 0.66476 0.04164 0.0
Sc110 Sc 0.08803 0.63178 0.21679 0.0
Sc111 Sc 0.07095 0.73638 0.19864 0.0
Sc112 Sc 0.09281 0.65069 0.16891 0.0
O113 O 0.08382 0.67284 0.19477 0.0
C114 C 0.18442 0.64415 0.19113 0.0
C115 C 0.15255 0.7547 0.23101 0.0
C116 C 0.15416 0.77938 0.16543 0.0
C117 C -0.00701 0.65172 0.22871 0.0
C118 C 0.02892 0.53536 0.18822 0.0
C119 C -0.00658 0.67179 0.16495 0.0
O120 O 0.16021 0.63627 0.20642 0.0
O121 O 0.13281 0.77279 0.21925 0.0
O122 O 0.14255 0.73252 0.15988 0.0
O123 O 0.01559 0.62304 0.22887 0.0
O124 O 0.04579 0.56555 0.17422 0.0
O125 O 0.00801 0.70576 0.17815 0.0
O126 O 0.0392 0.55362 0.20451 0.0
O127 O 0.0095 0.69414 0.21908 0.0
O128 O 0.01956 0.64826 0.16007 0.0
O129 O 0.13838 0.70484 0.23216 0.0
O130 O 0.1665 0.65107 0.17603 0.0
O131 O 0.13188 0.7871 0.17931 0.0
Sc132 Sc 0.8454 0.55506 0.48992 0.0
Sc133 Sc 0.87892 0.67744 0.46774 0.0
Sc134 Sc 0.86035 0.56527 0.44193 0.0
O135 O 0.86172 0.59924 0.46656 0.0
C136 C 0.91047 0.51066 0.46654 0.0
C137 C 0.94185 0.66808 0.50255 0.0
C138 C 0.96457 0.68169 0.43889 0.0
C139 C 0.7867 0.62428 0.49722 0.0
C140 C 0.75629 0.47343 0.46237 0.0
C141 C 0.80506 0.63457 0.43201 0.0
O142 O 0.88857 0.51465 0.48124 0.0
O143 O 0.92854 0.69409 0.49164 0.0
O144 O 0.93472 0.63353 0.43316 0.0
O145 O 0.79913 0.58875 0.50167 0.0
O146 O 0.78603 0.49467 0.44843 0.0
O147 O 0.82967 0.67044 0.44427 0.0
O148 O 0.77053 0.49027 0.47875 0.0
O149 O 0.80937 0.65728 0.48415 0.0
O150 O 0.81191 0.5943 0.42975 0.0
O151 O 0.91888 0.61662 0.50275 0.0
O152 O 0.90707 0.53039 0.4514 0.0
O153 O 0.95058 0.70318 0.45154 0.0
Sc154 Sc 0.38035 0.96615 0.592 0.0
Sc155 Sc 0.28241 0.93295 0.62606 0.0
Sc156 Sc 0.38497 0.90185 0.63147 0.0
O157 O 0.34909 0.93422 0.61662 0.0
C158 C 0.38463 0.85809 0.59241 0.0
C159 C 0.25552 0.8994 0.58382 0.0
C160 C 0.26162 0.82365 0.64227 0.0
C161 C 0.33936 0.04569 0.6065 0.0
C162 C 0.48453 0.00535 0.61449 0.0
C163 C 0.36125 0.96626 0.66116 0.0
O164 O 0.40297 0.9055 0.58598 0.0
O165 O 0.24288 0.90875 0.59968 0.0
O166 O 0.31182 0.8407 0.6441 0.0
O167 O 0.36185 0.03056 0.5946 0.0
O168 O 0.46467 0.95838 0.62139 0.0
O169 O 0.31726 0.95599 0.65317 0.0
O170 O 0.45692 0.01908 0.60454 0.0
O171 O 0.31307 0.01673 0.62006 0.0
O172 O 0.39606 0.95566 0.65412 0.0
O173 O 0.30388 0.91406 0.57899 0.0
O174 O 0.37109 0.84697 0.60916 0.0
O175 O 0.24369 0.84907 0.63313 0.0
Sc176 Sc 0.44348 0.31142 0.82663 0.0
Sc177 Sc 0.33062 0.21997 0.79992 0.0
Sc178 Sc 0.44764 0.32058 0.77833 0.0
O179 O 0.40725 0.28414 0.80166 0.0
C180 C 0.48822 0.42233 0.8048 0.0
C181 C 0.32331 0.28984 0.83316 0.0
C182 C 0.33 0.29683 0.76828 0.0
C183 C 0.37829 0.18356 0.8328 0.0
C184 C 0.53807 0.31542 0.80261 0.0
C185 C 0.38871 0.1954 0.76703 0.0
O186 O 0.47824 0.39529 0.8195 0.0
O187 O 0.30203 0.25449 0.82045 0.0
O188 O 0.38102 0.32555 0.76683 0.0
O189 O 0.41518 0.23116 0.83698 0.0
O190 O 0.51772 0.31906 0.78758 0.0
O191 O 0.35232 0.1796 0.77934 0.0
O192 O 0.51687 0.31236 0.81825 0.0
O193 O 0.34501 0.17376 0.81984 0.0
O194 O 0.42405 0.24484 0.7648 0.0
O195 O 0.37361 0.31378 0.83702 0.0
O196 O 0.4775 0.40072 0.78897 0.0
O197 O 0.30666 0.25725 0.77925 0.0
Sc198 Sc 0.05744 0.44833 0.93531 0.0
Sc199 Sc 0.05075 0.33548 0.95547 0.0
Sc200 Sc 0.11312 0.45885 0.97807 0.0
O201 O 0.07273 0.41351 0.95646 0.0
C202 C 0.17442 0.53117 0.94529 0.0
C203 C 0.09747 0.37793 0.91537 0.0
C204 C 0.15995 0.37826 0.9753 0.0
C205 C 0.95253 0.3326 0.93633 0.0
C206 C 0.034 0.50309 0.96742 0.0
C207 C 0.02461 0.35465 -0.00319 0.0
O208 O 0.12897 0.5245 0.94034 0.0
O209 O 0.07172 0.33929 0.92666 0.0
O210 O 0.15328 0.41362 0.98377 0.0
O211 O 0.98278 0.37661 0.92799 0.0
O212 O 0.07624 0.50927 0.9756 0.0
O213 O 0.02837 0.32541 0.98418 0.0
O214 O 0.01443 0.47332 0.95321 0.0
O215 O 0.96953 0.31511 0.94919 0.0
O216 O 0.04793 0.40621 -0.00397 0.0
O217 O 0.10222 0.42459 0.91739 0.0
O218 O 0.17891 0.50847 0.95963 0.0
O219 O 0.13077 0.35098 0.96185 0.0
Sc220 Sc 0.64798 0.09551 0.15382 0.0
Sc221 Sc 0.72901 0.06065 0.12746 0.0
Sc222 Sc 0.63089 0.08027 0.1059 0.0
O223 O 0.66903 0.07872 0.12906 0.0
C224 C 0.53301 0.03076 0.13368 0.0
C225 C 0.66837 0.0008 0.1643 0.0
C226 C 0.64048 0.97457 0.10081 0.0
C227 C 0.77715 0.15498 0.15618 0.0
C228 C 0.64811 0.18421 0.12825 0.0
C229 C 0.75047 0.13069 0.09124 0.0
O230 O 0.56259 0.05369 0.14763 0.0
O231 O 0.70584 0.01555 0.15248 0.0
O232 O 0.62385 0.00622 0.09554 0.0
O233 O 0.73088 0.14045 0.16312 0.0
O234 O 0.63472 0.15391 0.11414 0.0
O235 O 0.76215 0.10389 0.10233 0.0
O236 O 0.65724 0.17104 0.14392 0.0
O237 O 0.78363 0.13328 0.14183 0.0
O238 O 0.70534 0.12936 0.09151 0.0
O239 O 0.63773 0.02134 0.16544 0.0
O240 O 0.5522 0.03288 0.11777 0.0
O241 O 0.67659 0.98703 0.11307 0.0
Sc242 Sc 0.54783 0.58951 0.26395 0.0
Sc243 Sc 0.63174 0.70049 0.29233 0.0
Sc244 Sc 0.49361 0.62003 0.3026 0.0
O245 O 0.55787 0.63648 0.2864 0.0
C246 C 0.44429 0.60385 0.26275 0.0
C247 C 0.62371 0.70861 0.24899 0.0
C248 C 0.55831 0.74918 0.30367 0.0
C249 C 0.66303 0.61358 0.27871 0.0
C250 C 0.47101 0.50127 0.29216 0.0
C251 C 0.58609 0.64934 0.33178 0.0
O252 O 0.47358 0.58578 0.25622 0.0
O253 O 0.64597 0.72801 0.2644 0.0
O254 O 0.51702 0.70343 0.30672 0.0
O255 O 0.62161 0.58766 0.26857 0.0
O256 O 0.46076 0.53392 0.30085 0.0
O257 O 0.6234 0.68033 0.32081 0.0
O258 O 0.50539 0.51594 0.27922 0.0
O259 O 0.67086 0.65389 0.28846 0.0
O260 O 0.53653 0.62063 0.32715 0.0
O261 O 0.58722 0.6595 0.24666 0.0
O262 O 0.44818 0.62063 0.2792 0.0
O263 O 0.60244 0.75517 0.29744 0.0
H264 H 0.21524 0.86504 0.22807 0.0
H265 H 0.29385 0.90933 0.33227 0.0
H266 H 0.18169 0.73185 0.26402 0.0
H267 H 0.39087 0.03137 0.2926 0.0
H268 H 0.24939 0.84432 0.30735 0.0
H269 H 0.27714 0.92815 0.25124 0.0
C270 C 0.22106 0.84906 0.24079 0.0
C271 C 0.19277 0.79313 0.24423 0.0
C272 C 0.2809 0.88505 0.30405 0.0
C273 C 0.26313 0.86496 0.27066 0.0
C274 C 0.30607 0.92209 0.31823 0.0
C275 C 0.34573 0.97546 0.31433 0.0
C276 C 0.29447 0.90196 0.28582 0.0
C277 C 0.36046 0.99033 0.29603 0.0
C278 C 0.25668 0.88505 0.2539 0.0
C279 C 0.2024 0.77461 0.26082 0.0
N280 N 0.33402 0.95386 0.28232 0.0
N281 N 0.23618 0.81051 0.27353 0.0
H282 H 0.20411 0.21421 0.4813 0.0
H283 H 0.43164 0.18074 0.42877 0.0
H284 H 0.36244 0.35008 0.46978 0.0
H285 H 0.26071 0.07454 0.41946 0.0
H286 H 0.41005 0.23618 0.44925 0.0
H287 H 0.22765 0.15558 0.46361 0.0
C288 C 0.24385 0.23169 0.47508 0.0
C289 C 0.28127 0.28718 0.4769 0.0
C290 C 0.3774 0.20047 0.44281 0.0
C291 C 0.30856 0.2202 0.45693 0.0
C292 C 0.3896 0.16862 0.43129 0.0
C293 C 0.34781 0.12314 0.42242 0.0
C294 C 0.32311 0.18603 0.44568 0.0
C295 C 0.29408 0.10951 0.42596 0.0
C296 C 0.25716 0.19824 0.46498 0.0
C297 C 0.33219 0.30764 0.46854 0.0
N298 N 0.28324 0.1408 0.43736 0.0
N299 N 0.34448 0.27405 0.45897 0.0
H300 H 0.93344 0.28479 0.63664 0.0
H301 H 0.18844 0.47008 0.5765 0.0
H302 H 0.0274 0.45783 0.64465 0.0
H303 H 0.06947 0.3066 0.56103 0.0
H304 H 0.12629 0.46937 0.59971 0.0
H305 H 0.97785 0.29427 0.60722 0.0
C306 C 0.96323 0.32494 0.63206 0.0
C307 C 0.97768 0.37056 0.64314 0.0
C308 C 0.11346 0.43394 0.59107 0.0
C309 C 0.0291 0.38171 0.6096 0.0
C310 C 0.14905 0.43411 0.5779 0.0
C311 C 0.13452 0.38779 0.56712 0.0
C312 C 0.06331 0.38688 0.59362 0.0
C313 C 0.08258 0.34289 0.56922 0.0
C314 C -0.01165 0.33037 0.61522 0.0
C315 C 0.01559 0.42171 0.6365 0.0
N316 N 0.04914 0.34324 0.58245 0.0
N317 N 0.04092 0.42587 0.62024 0.0
H318 H 0.88547 0.26857 0.77682 0.0
H319 H 0.6373 0.96616 0.78617 0.0
H320 H 0.82486 0.15517 0.73144 0.0
H321 H 0.73777 0.05918 0.83174 0.0
H322 H 0.69471 0.04164 0.7656 0.0
H323 H 0.8213 0.19711 0.79711 0.0
C324 C 0.85901 0.22864 0.77115 0.0
C325 C 0.86096 0.21773 0.75245 0.0
C326 C 0.70375 0.04545 0.78014 0.0
C327 C 0.78685 0.13638 0.77545 0.0
C328 C 0.67085 0.00275 0.79183 0.0
C329 C 0.68341 0.00653 0.81054 0.0
C330 C 0.74856 0.09213 0.78739 0.0
C331 C 0.72733 0.05456 0.8173 0.0
C332 C 0.8223 0.18799 0.7827 0.0
C333 C 0.82531 0.16528 0.74581 0.0
N334 N 0.75842 0.09548 0.80573 0.0
N335 N 0.78954 0.12659 0.75729 0.0
H336 H 0.66687 0.7612 0.88973 0.0
H337 H 0.70051 0.72609 0.9957 0.0
H338 H 0.64174 0.85218 0.93243 0.0
H339 H 0.6354 0.58648 0.95965 0.0
H340 H 0.69939 0.78064 0.97056 0.0
H341 H 0.6746 0.704 0.91347 0.0
C342 C 0.66377 0.7695 0.90408 0.0
C343 C 0.65382 0.81134 0.90925 0.0
C344 C 0.68544 0.73811 0.96811 0.0
C345 C 0.6627 0.74702 0.93606 0.0
C346 C 0.68625 0.70683 0.98243 0.0
C347 C 0.66792 0.65147 0.97977 0.0
C348 C 0.66662 0.71432 0.95087 0.0
C349 C 0.64952 0.62893 0.96227 0.0
C350 C 0.6676 0.73668 0.91751 0.0
C351 C 0.64931 0.82022 0.92792 0.0
N352 N 0.64945 0.66064 0.94834 0.0
N353 N 0.65408 0.78849 0.94066 0.0
H354 H 0.9439 0.73278 0.16232 0.0
H355 H 0.70237 0.51866 0.09901 0.0
H356 H 0.92849 0.58032 0.14505 0.0
H357 H 0.76481 0.69113 0.09622 0.0
H358 H 0.76911 0.53437 0.12297 0.0
H359 H 0.86252 0.7112 0.14464 0.0
C360 C 0.92321 0.69464 0.15492 0.0
C361 C 0.94337 0.6586 0.15492 0.0
C362 C 0.76745 0.56857 0.11729 0.0
C363 C 0.85011 0.63348 0.13504 0.0
C364 C 0.72921 0.55966 0.10377 0.0
C365 C 0.72859 0.60379 0.09559 0.0
C366 C 0.80445 0.62182 0.12277 0.0
C367 C 0.76449 0.65613 0.1021 0.0
C368 C 0.87688 0.68242 0.14487 0.0
C369 C 0.91482 0.60963 0.14517 0.0
N370 N 0.80121 0.66377 0.11528 0.0
N371 N 0.86959 0.59849 0.13559 0.0
H372 H 0.25165 0.82909 0.55735 0.0
H373 H 0.96651 0.7642 0.51819 0.0
H374 H 0.15829 0.89537 0.58141 0.0
H375 H 0.01872 0.64566 0.51566 0.0
H376 H 0.04398 0.82127 0.53774 0.0
H377 H 0.17387 0.77012 0.53783 0.0
C378 C 0.21505 0.83168 0.55834 0.0
C379 C 0.21121 0.86715 0.57092 0.0
C380 C 0.03832 0.78265 0.53298 0.0
C381 C 0.12291 0.80028 0.54882 0.0
C382 C -0.0057 0.75016 0.52183 0.0
C383 C -0.01363 0.70022 0.51538 0.0
C384 C 0.07529 0.76561 0.53742 0.0
C385 C 0.02336 0.68377 0.52051 0.0
C386 C 0.1707 0.79773 0.54738 0.0
C387 C 0.16275 0.86848 0.5719 0.0
N388 N 0.06679 0.71678 0.53113 0.0
N389 N 0.12052 0.8357 0.5609 0.0
H390 H 0.4581 0.04098 0.67664 0.0
H391 H 0.3106 0.08904 0.76241 0.0
H392 H 0.28628 0.94941 0.68705 0.0
H393 H 0.46851 0.20942 0.74288 0.0
H394 H 0.309 0.02579 0.7393 0.0
H395 H 0.46981 0.09139 0.70542 0.0
C396 C 0.42312 0.0309 0.68515 0.0
C397 C 0.37109 -0.00823 0.67942 0.0
C398 C 0.34418 0.06593 0.7402 0.0
C399 C 0.38404 0.04846 0.71209 0.0
C400 C 0.34515 0.10205 0.75339 0.0
C401 C 0.38926 0.15498 0.75435 0.0
C402 C 0.3877 0.08274 0.72794 0.0
C403 C 0.43316 0.16934 0.7424 0.0
C404 C 0.42973 0.05971 0.70147 0.0
C405 C 0.32697 0.98005 0.69087 0.0
N406 N 0.43108 0.13354 0.72957 0.0
N407 N 0.33441 0.0085 0.7066 0.0
H408 H 0.19104 0.45225 0.8985 0.0
H409 H 0.21295 0.23198 0.83619 0.0
H410 H 0.07058 0.28235 0.89826 0.0
H411 H 0.35273 0.38092 0.85399 0.0
H412 H 0.15505 0.25631 0.85386 0.0
H413 H 0.2452 0.43303 0.87668 0.0
C414 C 0.17551 0.41113 0.89357 0.0
C415 C 0.12642 0.36871 0.90022 0.0
C416 C 0.19839 0.28366 0.85384 0.0
C417 C 0.18797 0.34663 0.87545 0.0
C418 C 0.23148 0.26987 0.84376 0.0
C419 C 0.28786 0.30424 0.84375 0.0
C420 C 0.22169 0.3325 0.86377 0.0
C421 C 0.30955 0.35291 0.85379 0.0
C422 C 0.20661 0.40016 0.88128 0.0
C423 C 0.10841 0.31611 0.89356 0.0
N424 N 0.2764 0.36565 0.86339 0.0
N425 N 0.13924 0.30652 0.88156 0.0
H426 H 0.75681 0.21674 0.07239 0.0
H427 H 0.00497 0.25868 0.01101 0.0
H428 H 0.839 0.12529 0.07983 0.0
H429 H 0.96468 0.38507 0.0182 0.0
H430 H 0.93997 0.20619 0.03486 0.0
H431 H 0.82763 0.27558 0.05076 0.0
C432 C 0.78956 0.20888 0.06941 0.0
C433 C 0.7919 0.16587 0.07784 0.0
C434 C 0.94566 0.24562 0.03137 0.0
C435 C 0.87272 0.23292 0.05325 0.0
C436 C 0.98266 0.27555 0.01775 0.0
C437 C -0.00999 0.32617 0.01264 0.0
C438 C 0.915 0.26596 0.03974 0.0
C439 C 0.96031 0.34628 0.02185 0.0
C440 C 0.83011 0.24273 0.05721 0.0
C441 C 0.83556 0.15793 0.07366 0.0
N442 N 0.92345 0.31573 0.03485 0.0
N443 N 0.87402 0.19091 0.06156 0.0
H444 H 0.71736 0.80285 0.24201 0.0
H445 H 0.57439 0.92211 0.18004 0.0
H446 H 0.55328 0.70318 0.22278 0.0
H447 H 0.74624 0.98128 0.17702 0.0
H448 H 0.5644 0.84689 0.19925 0.0
H449 H 0.72835 0.874 0.2208 0.0
C450 C 0.68406 0.79564 0.23308 0.0
C451 C 0.63453 0.7471 0.23402 0.0
C452 C 0.60419 0.87647 0.19432 0.0
C453 C 0.64612 0.82859 0.21033 0.0
C454 C 0.60993 0.9195 0.18357 0.0
C455 C 0.66114 0.9577 0.17698 0.0
C456 C 0.65015 0.87263 0.19872 0.0
C457 C 0.70597 0.95241 0.18177 0.0
C458 C 0.69023 0.83621 0.22106 0.0
C459 C 0.59239 0.73983 0.22228 0.0
N460 N 0.69949 0.91082 0.19245 0.0
N461 N 0.59884 0.78058 0.21109 0.0
H462 H 0.79456 0.72343 0.42466 0.0
H463 H 0.55209 0.56021 0.35361 0.0
H464 H 0.72208 0.55211 0.41331 0.0
H465 H 0.6594 0.73314 0.35227 0.0
H466 H 0.59653 0.55636 0.38198 0.0
H467 H 0.72839 0.72677 0.40405 0.0
C468 C 0.76462 0.68657 0.41792 0.0
C469 C 0.76459 0.63775 0.42033 0.0
C470 C 0.60953 0.59523 0.37563 0.0
C471 C 0.68859 0.64104 0.39715 0.0
C472 C 0.58399 0.5974 0.35958 0.0
C473 C 0.60297 0.64688 0.35057 0.0
C474 C 0.65367 0.64295 0.38262 0.0
C475 C 0.64443 0.69408 0.35873 0.0
C476 C 0.72685 0.68844 0.40624 0.0
C477 C 0.72444 0.59095 0.41148 0.0
N478 N 0.66884 0.69091 0.37422 0.0
N479 N 0.68825 0.59382 0.40019 0.0
H480 H 0.63136 0.82776 0.32586 0.0
H481 H 0.50663 0.01629 0.32863 0.0
H482 H 0.48131 0.77676 0.29705 0.0
H483 H 0.51903 0.94786 0.37987 0.0
H484 H 0.52836 0.95441 0.31206 0.0
H485 H 0.62126 0.89966 0.34106 0.0
C486 C 0.59714 0.83279 0.32241 0.0
C487 C 0.55714 0.79704 0.31021 0.0
C488 C 0.52702 0.95376 0.32693 0.0
C489 C 0.54604 0.87818 0.32716 0.0
C490 C 0.51497 0.9889 0.33638 0.0
C491 C 0.51127 0.98689 0.35559 0.0
C492 C 0.53691 0.91778 0.33684 0.0
C493 C 0.52151 0.95028 0.36504 0.0
C494 C 0.59127 0.87312 0.33116 0.0
C495 C 0.5129 0.80398 0.30637 0.0
N496 N 0.53435 0.91706 0.35551 0.0
N497 N 0.50859 0.84427 0.31479 0.0
H498 H 0.4654 0.5486 0.4907 0.0
H499 H 0.73148 0.56683 0.52758 0.0
H500 H 0.47231 0.48596 0.54387 0.0
H501 H 0.73042 0.67325 0.48575 0.0
H502 H 0.639 0.54233 0.53573 0.0
H503 H 0.56384 0.59729 0.48953 0.0
C504 C 0.48768 0.54491 0.5021 0.0
C505 C 0.46076 0.5126 0.51729 0.0
C506 C 0.65949 0.57195 0.52505 0.0
C507 C 0.57334 0.56865 0.51612 0.0
C508 C 0.71228 0.58598 0.52039 0.0
C509 C 0.73808 0.62091 0.5056 0.0
C510 C 0.63239 0.59244 0.51466 0.0
C511 C 0.71171 0.64532 0.497 0.0
C512 C 0.54388 0.57332 0.50154 0.0
C513 C 0.49161 0.51015 0.53184 0.0
N514 N 0.65973 0.62961 0.50138 0.0
N515 N 0.54644 0.53733 0.5308 0.0
H516 H 0.1518 0.77959 0.64485 0.0
H517 H 0.11175 0.54159 0.71176 0.0
H518 H 0.28372 0.7584 0.66376 0.0
H519 H 0.98263 0.56855 0.69399 0.0
H520 H 0.177 0.62584 0.69678 0.0
H521 H 0.09004 0.70463 0.66418 0.0
C522 C 0.16776 0.75896 0.65295 0.0
C523 C 0.22304 0.77526 0.65262 0.0
C524 C 0.13444 0.61361 0.69638 0.0
C525 C 0.15253 0.6897 0.67499 0.0
C526 C 0.09725 0.56582 0.70508 0.0
C527 C 0.04168 0.54771 0.70387 0.0
C528 C 0.11568 0.64315 0.68645 0.0
C529 C 0.02507 0.58059 0.695 0.0
C530 C 0.1325 0.71637 0.66411 0.0
C531 C 0.24138 0.74714 0.66353 0.0
N532 N 0.06187 0.62638 0.68644 0.0
N533 N 0.20615 0.70565 0.67427 0.0
H534 H 0.3214 0.07677 0.82262 0.0
H535 H 0.49861 -0.00438 0.88516 0.0
H536 H 0.4376 0.18466 0.86259 0.0
H537 H 0.43124 0.9226 0.83255 0.0
H538 H 0.45505 0.05069 0.88256 0.0
H539 H 0.33893 0.00528 0.83244 0.0
C540 C 0.34972 0.0852 0.83375 0.0
C541 C 0.37906 0.13728 0.84151 0.0
C542 C 0.44935 0.0221 0.87173 0.0
C543 C 0.39922 0.05556 0.85269 0.0
C544 C 0.47411 -0.00935 0.87317 0.0
C545 C 0.46917 0.95508 0.85889 0.0
C546 C 0.419 0.01741 0.85601 0.0
C547 C 0.43682 0.95016 0.84372 0.0
C548 C 0.35984 0.04437 0.83925 0.0
C549 C 0.41483 0.14545 0.85599 0.0
N550 N 0.41316 0.98127 0.84263 0.0
N551 N 0.42449 0.10516 0.86095 0.0
H552 H 0.23144 0.36336 0.95431 0.0
H553 H 0.48001 0.41705 0.9906 0.0
H554 H 0.18983 0.37719 0.01026 0.0
H555 H 0.42437 0.46377 0.03889 0.0
H556 H 0.38853 0.3749 0.97804 0.0
H557 H 0.31661 0.37199 0.96506 0.0
C558 C 0.23969 0.36649 0.96892 0.0
C559 C 0.20452 0.3706 0.98145 0.0
C560 C 0.39625 0.39456 0.99131 0.0
C561 C 0.30105 0.38006 0.99395 0.0
C562 C 0.44853 0.41841 -0.00145 0.0
C563 C 0.46009 0.44498 0.01565 0.0
C564 C 0.35553 0.39756 0.00129 0.0
C565 C 0.4177 0.44476 0.0255 0.0
C566 C 0.28836 0.37143 0.97511 0.0
C567 C 0.21665 0.3749 0.00017 0.0
N568 N 0.36752 0.42176 0.01811 0.0
N569 N 0.26421 0.3802 0.00582 0.0
H570 H 0.96554 0.45744 0.21311 0.0
H571 H 0.87648 0.21703 0.14037 0.0
H572 H 0.02195 0.47874 0.15702 0.0
H573 H 0.7846 0.2046 0.18921 0.0
H574 H 0.94581 0.30735 0.15018 0.0
H575 H 0.91302 0.35958 0.20774 0.0
C576 C 0.96707 0.44155 0.1997 0.0
C577 C -0.00248 0.47629 0.1854 0.0
C578 C 0.9108 0.28445 0.15886 0.0
C579 C 0.93843 0.36481 0.17932 0.0
C580 C 0.87137 0.23275 0.15335 0.0
C581 C 0.82414 0.20372 0.16381 0.0
C582 C 0.90297 0.30701 0.17495 0.0
C583 C 0.81991 0.22605 0.18055 0.0
C584 C 0.93723 0.38581 0.19668 0.0
C585 C -0.00167 0.45353 0.16835 0.0
N586 N 0.85856 0.27676 0.18551 0.0
N587 N 0.96905 0.39919 0.16577 0.0
H588 H 0.90391 0.43812 0.49217 0.0
H589 H 0.16892 0.44308 0.45963 0.0
H590 H 0.98558 0.51593 0.44189 0.0
H591 H 0.0571 0.32626 0.49834 0.0
H592 H 0.09924 0.4646 0.45083 0.0
H593 H 0.95728 0.39284 0.49344 0.0
C594 C 0.93302 0.44558 0.48137 0.0
C595 C 0.94092 0.48141 0.46705 0.0
C596 C 0.08965 0.43346 0.46098 0.0
C597 C 0.00199 0.42965 0.46839 0.0
C598 C 0.1294 0.42111 0.466 0.0
C599 C 0.1193 0.3838 0.48008 0.0
C600 C 0.03991 0.40886 0.47029 0.0
C601 C 0.06708 0.35601 0.48765 0.0
C602 C 0.96309 0.4193 0.48201 0.0
C603 C 0.97851 0.48888 0.45325 0.0
N604 N 0.02969 0.36998 0.48294 0.0
N605 N 0.00828 0.46379 0.45441 0.0
H606 H 0.53174 0.11588 0.61298 0.0
H607 H 0.76967 0.157 0.68037 0.0
H608 H 0.56142 0.98778 0.62981 0.0
H609 H 0.74833 0.28889 0.6616 0.0
H610 H 0.69395 0.09492 0.66127 0.0
H611 H 0.6144 0.18135 0.62888 0.0
C612 C 0.55622 0.10168 0.61966 0.0
C613 C 0.53938 0.04627 0.6203 0.0
C614 C 0.70577 0.13743 0.66133 0.0
C615 C 0.63296 0.1205 0.63875 0.0
C616 C 0.7488 0.17289 0.67237 0.0
C617 C 0.76548 0.2283 0.67259 0.0
C618 C 0.67903 0.15738 0.65046 0.0
C619 C 0.73685 0.24648 0.66187 0.0
C620 C 0.60309 0.13898 0.62888 0.0
C621 C 0.5725 0.03004 0.62921 0.0
N622 N 0.695 0.21106 0.6512 0.0
N623 N 0.6174 0.06694 0.63826 0.0
H624 H 0.66728 0.75156 0.84281 0.0
H625 H 0.49322 0.49371 0.77883 0.0
H626 H 0.5632 0.74848 0.79927 0.0
H627 H 0.54724 0.48626 0.83353 0.0
H628 H 0.53924 0.59251 0.78152 0.0
H629 H 0.6462 0.66008 0.83402 0.0
C630 C 0.64121 0.73226 0.83108 0.0
C631 C 0.61607 0.75705 0.82195 0.0
C632 C 0.54124 0.5691 0.79284 0.0
C633 C 0.59159 0.65279 0.81203 0.0
C634 C 0.51491 0.51285 0.79136 0.0
C635 C 0.51573 0.48179 0.80611 0.0
C636 C 0.56904 0.59429 0.80906 0.0
C637 C 0.54476 0.50863 0.82197 0.0
C638 C 0.62886 0.67996 0.8262 0.0
C639 C 0.58261 0.73026 0.80687 0.0
N640 N 0.57018 0.56342 0.82305 0.0
N641 N 0.57074 0.67915 0.8025 0.0
H642 H 0.79791 0.59791 0.98444 0.0
H643 H 0.04292 0.54487 0.00201 0.0
H644 H 0.85309 0.58912 0.03868 0.0
H645 H 0.96239 0.52476 0.95001 0.0
H646 H -0.01067 0.58248 0.01508 0.0
H647 H 0.87509 0.59523 0.97127 0.0
C648 C 0.82695 0.59608 0.99356 0.0
C649 C 0.81903 0.59262 0.01258 0.0
C650 C 0.98403 0.57048 0.00076 0.0
C651 C 0.90657 0.58827 -0.00233 0.0
C652 C 0.01454 0.54908 0.99328 0.0
C653 C 0.00637 0.53092 0.97496 0.0
C654 C 0.9456 0.57404 0.98978 0.0
C655 C 0.9693 0.5374 0.96426 0.0
C656 C 0.8709 0.59451 0.98607 0.0
C657 C 0.85796 0.59137 0.02391 0.0
N658 N 0.94003 0.5581 0.97188 0.0
N659 N 0.89983 0.58806 0.01623 0.0
H660 H 0.45631 0.96123 0.10932 0.0
H661 H 0.21261 0.88233 0.17931 0.0
H662 H 0.47425 0.03216 0.16328 0.0
H663 H 0.20425 0.78325 0.13288 0.0
H664 H 0.30221 0.95195 0.16921 0.0
H665 H 0.3585 0.90912 0.11406 0.0
C666 C 0.43973 0.96613 0.12212 0.0
C667 C 0.47364 0.00053 0.13604 0.0
C668 C 0.28031 0.91532 0.16108 0.0
C669 C 0.36182 0.94146 0.14142 0.0
C670 C 0.22896 0.87569 0.16675 0.0
C671 C 0.20134 0.82639 0.15712 0.0
C672 C 0.30397 0.90562 0.14567 0.0
C673 C 0.22454 0.82024 0.1409 0.0
C674 C 0.3839 0.93644 0.12478 0.0
C675 C 0.44978 0.00551 0.15228 0.0
N676 N 0.2749 0.85911 0.13582 0.0
N677 N 0.39533 0.97605 0.15456 0.0
H678 H 0.46547 0.41481 0.27373 0.0
H679 H 0.34497 0.2178 0.35953 0.0
H680 H 0.41264 0.45754 0.32358 0.0
H681 H 0.41224 0.18616 0.31101 0.0
H682 H 0.35077 0.29737 0.3443 0.0
H683 H 0.42742 0.32258 0.28487 0.0
C684 C 0.4456 0.40472 0.28699 0.0
C685 C 0.44325 0.44417 0.29791 0.0
C686 C 0.36342 0.27241 0.33693 0.0
C687 C 0.39988 0.33871 0.31083 0.0
C688 C 0.35997 0.22711 0.34559 0.0
C689 C 0.37937 0.19651 0.33661 0.0
C690 C 0.38598 0.28635 0.31923 0.0
C691 C 0.39814 0.2097 0.31854 0.0
C692 C 0.42368 0.35198 0.29333 0.0
C693 C 0.41597 0.4285 0.31481 0.0
N694 N 0.40148 0.25393 0.31052 0.0
N695 N 0.39604 0.37707 0.3209 0.0
H696 H 0.00114 0.66815 0.40565 0.0
H697 H 0.30144 0.90737 0.42485 0.0
H698 H 0.05328 0.76367 0.45548 0.0
H699 H 0.23245 0.86315 0.37047 0.0
H700 H 0.21906 0.8314 0.43731 0.0
H701 H 0.09383 0.71959 0.39384 0.0
C702 C 0.03211 0.69983 0.41409 0.0
C703 C 0.01953 0.71257 0.43139 0.0
C704 C 0.22259 0.83778 0.42261 0.0
C705 C 0.12504 0.7699 0.41825 0.0
C706 C 0.26964 0.88077 0.41547 0.0
C707 C 0.27293 0.89222 0.39667 0.0
C708 C 0.17917 0.80611 0.41082 0.0
C709 C 0.23077 0.85632 0.38512 0.0
C710 C 0.08481 0.72879 0.40741 0.0
C711 C 0.0611 0.75347 0.4419 0.0
N712 N 0.18504 0.81517 0.39243 0.0
N713 N 0.11211 0.78082 0.43513 0.0
H714 H 0.20147 0.22398 0.5661 0.0
H715 H 0.41156 0.13402 0.58682 0.0
H716 H 0.37187 0.34188 0.56389 0.0
H717 H 0.2635 0.07087 0.61808 0.0
H718 H 0.39914 0.20916 0.57681 0.0
H719 H 0.22281 0.16356 0.58336 0.0
C720 C 0.24335 0.23708 0.56931 0.0
C721 C 0.28507 0.28761 0.56353 0.0
C722 C 0.37007 0.17935 0.58616 0.0
C723 C 0.30965 0.21892 0.583 0.0
C724 C 0.377 0.13651 0.59181 0.0
C725 C 0.33818 0.09598 0.60312 0.0
C726 C 0.32337 0.1806 0.59148 0.0
C727 C 0.29431 0.1012 0.60931 0.0
C728 C 0.25543 0.20293 0.57927 0.0
C729 C 0.33865 0.30311 0.56816 0.0
N730 N 0.28743 0.14214 0.60308 0.0
N731 N 0.34961 0.26838 0.57739 0.0
H732 H 0.34783 0.39636 0.75766 0.0
H733 H 0.06919 0.27222 0.70274 0.0
H734 H 0.23491 0.22516 0.75229 0.0
H735 H 0.13292 0.42142 0.73377 0.0
H736 H 0.14821 0.26531 0.71157 0.0
H737 H 0.28534 0.41509 0.74008 0.0
C738 C 0.31029 0.36285 0.75254 0.0
C739 C 0.29582 0.30922 0.75657 0.0
C740 C 0.14519 0.3 0.71613 0.0
C741 C 0.22573 0.33016 0.73631 0.0
C742 C 0.10033 0.30416 0.71107 0.0
C743 C 0.09405 0.34692 0.71785 0.0
C744 C 0.18419 0.33922 0.72783 0.0
C745 C 0.13579 0.38725 0.72854 0.0
C746 C 0.27488 0.37354 0.74258 0.0
C747 C 0.24695 0.26708 0.74968 0.0
N748 N 0.17904 0.38217 0.73337 0.0
N749 N 0.21354 0.27845 0.73987 0.0
H750 H 0.76567 0.07756 0.86833 0.0
H751 H 0.86442 0.25624 0.95477 0.0
H752 H 0.66048 0.0408 0.91532 0.0
H753 H 0.91908 0.32439 0.90091 0.0
H754 H 0.78489 0.18007 0.9408 0.0
H755 H 0.82045 0.1702 0.87974 0.0
C756 C 0.75414 0.0891 0.88103 0.0
C757 C 0.70932 0.05145 0.89113 0.0
C758 C 0.81352 0.21245 0.93209 0.0
C759 C 0.77124 0.15688 0.90414 0.0
C760 C 0.85886 0.25575 0.94004 0.0
C761 C 0.89866 0.29571 0.92889 0.0
C762 C 0.80913 0.20871 0.9129 0.0
C763 C 0.88947 0.29389 0.90994 0.0
C764 C 0.78486 0.14206 0.88739 0.0
C765 C 0.69523 0.06861 0.90727 0.0
N766 N 0.84624 0.25006 0.90243 0.0
N767 N 0.72679 0.11999 0.91349 0.0
H768 H 0.59653 0.94353 0.0665 0.0
H769 H 0.6225 0.73342 0.03099 0.0
H770 H 0.62865 0.88287 0.11627 0.0
H771 H 0.55289 0.65057 0.08188 0.0
H772 H 0.60845 0.8073 0.04102 0.0
H773 H 0.56507 0.85477 0.05198 0.0
C774 C 0.59647 0.91138 0.07439 0.0
C775 C 0.61667 0.92066 0.09238 0.0
C776 C 0.59434 0.77207 0.0497 0.0
C777 C 0.58079 0.82009 0.07606 0.0
C778 C 0.603 0.73023 0.04408 0.0
C779 C 0.59011 0.6867 0.05586 0.0
C780 C 0.57359 0.77049 0.06732 0.0
C781 C 0.56414 0.6839 0.07252 0.0
C782 C 0.57866 0.86102 0.06611 0.0
C783 C 0.61492 0.87768 0.10218 0.0
N784 N 0.5582 0.7262 0.07802 0.0
N785 N 0.59763 0.82922 0.09382 0.0
H786 H 0.7572 0.65977 0.29838 0.0
H787 H 0.90581 0.55045 0.2328 0.0
H788 H 0.67118 0.54013 0.2561 0.0
H789 H 0.97296 0.71618 0.25089 0.0
H790 H 0.82254 0.52669 0.25017 0.0
H791 H 0.83916 0.65745 0.29054 0.0
C792 C 0.7551 0.63209 0.28771 0.0
C793 C 0.70767 0.60151 0.27741 0.0
C794 C 0.85607 0.56791 0.25055 0.0
C795 C 0.80122 0.59861 0.2686 0.0
C796 C 0.90322 0.58145 0.24071 0.0
C797 C 0.94544 0.6354 0.24033 0.0
C798 C 0.85239 0.60846 0.26038 0.0
C799 C 0.94072 0.67432 0.25069 0.0
C800 C 0.80193 0.63086 0.2833 0.0
C801 C 0.7072 0.56538 0.26408 0.0
N802 N 0.89486 0.66008 0.26032 0.0
N803 N 0.75378 0.56567 0.25978 0.0
H804 H 0.67895 0.47228 0.44106 0.0
H805 H 0.56686 0.16092 0.4199 0.0
H806 H 0.71661 0.36946 0.47354 0.0
H807 H 0.54019 0.26729 0.38486 0.0
H808 H 0.60743 0.23253 0.44275 0.0
H809 H 0.60994 0.39269 0.42471 0.0
C810 C 0.67088 0.43245 0.44523 0.0
C811 C 0.70316 0.42688 0.45854 0.0
C812 C 0.59265 0.24028 0.4301 0.0
C813 C 0.62658 0.33641 0.43945 0.0
C814 C 0.56987 0.19955 0.41691 0.0
C815 C 0.55083 0.20839 0.40025 0.0
C816 C 0.59682 0.29054 0.42664 0.0
C817 C 0.55521 0.25904 0.39735 0.0
C818 C 0.63213 0.38719 0.43574 0.0
C819 C 0.69209 0.37498 0.4634 0.0
N820 N 0.57809 0.2984 0.4104 0.0
N821 N 0.65532 0.33156 0.45353 0.0
H822 H 0.42845 0.86405 0.55828 0.0
H823 H 0.22218 0.55189 0.53828 0.0
H824 H 0.311 0.75142 0.59662 0.0
H825 H 0.37646 0.63661 0.51092 0.0
H826 H 0.24071 0.63637 0.55327 0.0
H827 H 0.39948 0.7899 0.53581 0.0
C828 C 0.39693 0.82373 0.56201 0.0
C829 C 0.37257 0.81361 0.57943 0.0
C830 C 0.26991 0.63689 0.54359 0.0
C831 C 0.33816 0.72992 0.55369 0.0
C832 C 0.25895 0.589 0.53484 0.0
C833 C 0.29788 0.58784 0.52339 0.0
C834 C 0.32046 0.68353 0.54105 0.0
C835 C 0.34539 0.63644 0.51956 0.0
C836 C 0.38024 0.78177 0.54916 0.0
C837 C 0.33155 0.76088 0.5835 0.0
N838 N 0.356 0.68253 0.5287 0.0
N839 N 0.31548 0.72112 0.57069 0.0
H840 H 0.63774 0.39477 0.81359 0.0
H841 H 0.7488 0.32647 0.72629 0.0
H842 H 0.55387 0.23981 0.78624 0.0
H843 H 0.86261 0.43267 0.76709 0.0
H844 H 0.67606 0.29945 0.74843 0.0
H845 H 0.72233 0.41178 0.79868 0.0
C846 C 0.63787 0.36327 0.8052 0.0
C847 C 0.58934 0.31591 0.80102 0.0
C848 C 0.71698 0.32856 0.75259 0.0
C849 C 0.68404 0.33582 0.7835 0.0
C850 C 0.75842 0.34474 0.73985 0.0
C851 C 0.81176 0.38224 0.74481 0.0
C852 C 0.7286 0.35067 0.77037 0.0
C853 C 0.82188 0.4038 0.76272 0.0
C854 C 0.6858 0.37321 0.79654 0.0
C855 C 0.59081 0.27676 0.78974 0.0
N856 N 0.78044 0.38807 0.77488 0.0
N857 N 0.63723 0.28809 0.78101 0.0
H858 H 0.37092 0.72156 0.85602 0.0
H859 H 0.27736 0.54575 0.9476 0.0
H860 H 0.48098 0.70996 0.89375 0.0
H861 H 0.17532 0.58237 0.91383 0.0
H862 H 0.3496 0.58945 0.92473 0.0
H863 H 0.29478 0.64919 0.8728 0.0
C864 C 0.37896 0.70231 0.86741 0.0
C865 C 0.43172 0.72199 0.87381 0.0
C866 C 0.3112 0.58759 0.92237 0.0
C867 C 0.34585 0.64123 0.8933 0.0
C868 C 0.27031 0.56333 0.93551 0.0
C869 C 0.2206 0.56125 0.93281 0.0
C870 C 0.30201 0.60958 0.90646 0.0
C871 C 0.21319 0.58359 0.91667 0.0
C872 C 0.33568 0.66161 0.87714 0.0
C873 C 0.44043 0.69616 0.88867 0.0
N874 N 0.25345 0.60691 0.90417 0.0
N875 N 0.3978 0.65773 0.89818 0.0
H876 H 0.57608 0.21787 0.13464 0.0
H877 H 0.70611 0.42689 0.0521 0.0
H878 H 0.73446 0.26789 0.11264 0.0
H879 H 0.54291 0.36296 0.07223 0.0
H880 H 0.7228 0.37797 0.07647 0.0
H881 H 0.57167 0.28672 0.11605 0.0
C882 C 0.61103 0.24538 0.12658 0.0
C883 C 0.65578 0.23795 0.12515 0.0
C884 C 0.68331 0.3746 0.07547 0.0
C885 C 0.64994 0.31386 0.10306 0.0
C886 C 0.67351 0.40161 0.06137 0.0
C887 C 0.623 0.3986 0.06011 0.0
C888 C 0.64225 0.34457 0.08829 0.0
C889 C 0.58247 0.36634 0.07272 0.0
C890 C 0.60814 0.28382 0.11566 0.0
C891 C 0.69955 0.27322 0.11415 0.0
N892 N 0.59305 0.34077 0.0863 0.0
N893 N 0.69512 0.30906 0.10316 0.0
H894 H 0.40856 0.67631 0.26551 0.0
H895 H 0.28096 0.73227 0.1981 0.0
H896 H 0.40219 0.55055 0.23033 0.0
H897 H 0.20342 0.56056 0.18778 0.0
H898 H 0.35583 0.72855 0.21311 0.0
H899 H 0.35826 0.69509 0.2425 0.0
C900 C 0.39629 0.65246 0.25298 0.0
C901 C 0.40918 0.61159 0.24985 0.0
C902 C 0.32304 0.69192 0.20718 0.0
C903 C 0.35359 0.63425 0.22318 0.0
C904 C 0.28114 0.6943 0.19827 0.0
C905 C 0.23658 0.64663 0.19178 0.0
C906 C 0.31928 0.64135 0.20977 0.0
C907 C 0.23762 0.59809 0.19259 0.0
C908 C 0.36874 0.66407 0.23966 0.0
C909 C 0.39291 0.58238 0.23326 0.0
N910 N 0.27807 0.59639 0.2018 0.0
N911 N 0.36524 0.59382 0.2206 0.0
loop_
_geom_bond_atom_site_label_1
_geom_bond_atom_site_label_2
_geom_bond_distance
_geom_bond_site_symmetry_2
_ccdc_geom_bond_type
Sc0 O3 2.025 . S
Sc0 O10 2.105 . S
Sc0 O13 2.105 . S
Sc0 O16 2.105 . S
Sc0 O19 2.105 . S
Sc1 O3 2.025 . S
Sc1 O11 2.105 . S
Sc1 O15 2.105 . S
Sc1 O17 2.105 . S
Sc1 O21 2.105 . S
Sc2 O3 2.025 . S
Sc2 O12 2.105 . S
Sc2 O14 2.105 . S
Sc2 O18 2.105 . S
Sc2 O20 2.105 . S
O3 Sc0 2.025 . S
O3 Sc1 2.025 . S
O3 Sc2 2.025 . S
C4 O10 1.268 . S
C4 O20 1.268 . S
C5 O11 1.268 . S
C5 O19 1.268 . S
C6 O12 1.268 . S
C6 O21 1.268 . S
C7 O13 1.268 . S
C7 O17 1.268 . S
C8 O14 1.268 . S
C8 O16 1.268 . S
C9 O15 1.268 . S
C9 O18 1.268 . S
O10 Sc0 2.105 . S
O10 C4 1.268 . S
O11 Sc1 2.105 . S
O11 C5 1.268 . S
O12 Sc2 2.105 . S
O12 C6 1.268 . S
O13 Sc0 2.105 . S
O13 C7 1.268 . S
O14 Sc2 2.105 . S
O14 C8 1.268 . S
O15 Sc1 2.105 . S
O15 C9 1.268 . S
O16 Sc0 2.105 . S
O16 C8 1.268 . S
O17 Sc1 2.105 . S
O17 C7 1.268 . S
O18 Sc2 2.105 . S
O18 C9 1.268 . S
O19 Sc0 2.105 . S
O19 C5 1.268 . S
O20 Sc2 2.105 . S
O20 C4 1.268 . S
O21 Sc1 2.105 . S
O21 C6 1.268 . S
Sc22 O25 2.025 . S
Sc22 O32 2.105 . S
Sc22 O35 2.105 . S
Sc22 O38 2.105 . S
Sc22 O41 2.105 . S
Sc23 O25 2.025 . S
Sc23 O33 2.105 . S
Sc23 O37 2.105 . S
Sc23 O39 2.105 . S
Sc23 O43 2.105 . S
Sc24 O25 2.025 . S
Sc24 O34 2.105 . S
Sc24 O36 2.105 . S
Sc24 O40 2.105 . S
Sc24 O42 2.105 . S
O25 Sc22 2.025 . S
O25 Sc23 2.025 . S
O25 Sc24 2.025 . S
C26 O32 1.268 . S
C26 O42 1.268 . S
C27 O33 1.268 . S
C27 O41 1.268 . S
C28 O34 1.268 . S
C28 O43 1.268 . S
C29 O35 1.268 . S
C29 O39 1.268 . S
C30 O36 1.268 . S
C30 O38 1.268 . S
C31 O37 1.268 . S
C31 O40 1.268 . S
O32 Sc22 2.105 . S
O32 C26 1.268 . S
O33 Sc23 2.105 . S
O33 C27 1.268 . S
O34 Sc24 2.105 . S
O34 C28 1.268 . S
O35 Sc22 2.105 . S
O35 C29 1.268 . S
O36 Sc24 2.105 . S
O36 C30 1.268 . S
O37 Sc23 2.105 . S
O37 C31 1.268 . S
O38 Sc22 2.105 . S
O38 C30 1.268 . S
O39 Sc23 2.105 . S
O39 C29 1.268 . S
O40 Sc24 2.105 . S
O40 C31 1.268 . S
O41 Sc22 2.105 . S
O41 C27 1.268 . S
O42 Sc24 2.105 . S
O42 C26 1.268 . S
O43 Sc23 2.105 . S
O43 C28 1.268 . S
Sc44 O47 2.025 . S
Sc44 O54 2.105 . S
Sc44 O57 2.105 . S
Sc44 O60 2.105 . S
Sc44 O63 2.105 . S
Sc45 O47 2.025 . S
Sc45 O55 2.105 . S
Sc45 O59 2.105 . S
Sc45 O61 2.105 . S
Sc45 O65 2.105 . S
Sc46 O47 2.025 . S
Sc46 O56 2.105 . S
Sc46 O58 2.105 . S
Sc46 O62 2.105 . S
Sc46 O64 2.105 . S
O47 Sc44 2.025 . S
O47 Sc45 2.025 . S
O47 Sc46 2.025 . S
C48 O54 1.268 . S
C48 O64 1.268 . S
C49 O55 1.268 . S
C49 O63 1.268 . S
C50 O56 1.268 . S
C50 O65 1.268 . S
C51 O57 1.268 . S
C51 O61 1.268 . S
C52 O58 1.268 . S
C52 O60 1.268 . S
C53 O59 1.268 . S
C53 O62 1.268 . S
O54 Sc44 2.105 . S
O54 C48 1.268 . S
O55 Sc45 2.105 . S
O55 C49 1.268 . S
O56 Sc46 2.105 . S
O56 C50 1.268 . S
O57 Sc44 2.105 . S
O57 C51 1.268 . S
O58 Sc46 2.105 . S
O58 C52 1.268 . S
O59 Sc45 2.105 . S
O59 C53 1.268 . S
O60 Sc44 2.105 . S
O60 C52 1.268 . S
O61 Sc45 2.105 . S
O61 C51 1.268 . S
O62 Sc46 2.105 . S
O62 C53 1.268 . S
O63 Sc44 2.105 . S
O63 C49 1.268 . S
O64 Sc46 2.105 . S
O64 C48 1.268 . S
O65 Sc45 2.105 . S
O65 C50 1.268 . S
Sc66 O69 2.025 . S
Sc66 O76 2.105 . S
Sc66 O79 2.105 . S
Sc66 O82 2.105 . S
Sc66 O85 2.105 . S
Sc67 O69 2.025 . S
Sc67 O77 2.105 . S
Sc67 O81 2.105 . S
Sc67 O83 2.105 . S
Sc67 O87 2.105 . S
Sc68 O69 2.025 . S
Sc68 O78 2.105 . S
Sc68 O80 2.105 . S
Sc68 O84 2.105 . S
Sc68 O86 2.105 . S
O69 Sc66 2.025 . S
O69 Sc67 2.025 . S
O69 Sc68 2.025 . S
C70 O76 1.268 . S
C70 O86 1.268 . S
C71 O77 1.268 . S
C71 O85 1.268 . S
C72 O78 1.268 . S
C72 O87 1.268 . S
C73 O79 1.268 . S
C73 O83 1.268 . S
C74 O80 1.268 . S
C74 O82 1.268 . S
C75 O81 1.268 . S
C75 O84 1.268 . S
O76 Sc66 2.105 . S
O76 C70 1.268 . S
O77 Sc67 2.105 . S
O77 C71 1.268 . S
O78 Sc68 2.105 . S
O78 C72 1.268 . S
O79 Sc66 2.105 . S
O79 C73 1.268 . S
O80 Sc68 2.105 . S
O80 C74 1.268 . S
O81 Sc67 2.105 . S
O81 C75 1.268 . S
O82 Sc66 2.105 . S
O82 C74 1.268 . S
O83 Sc67 2.105 . S
O83 C73 1.268 . S
O84 Sc68 2.105 . S
O84 C75 1.268 . S
O85 Sc66 2.105 . S
O85 C71 1.268 . S
O86 Sc68 2.105 . S
O86 C70 1.268 . S
O87 Sc67 2.105 . S
O87 C72 1.268 . S
Sc88 O91 2.025 . S
Sc88 O98 2.105 . S
Sc88 O101 2.105 . S
Sc88 O104 2.105 . S
Sc88 O107 2.105 1_554 S
Sc89 O91 2.025 . S
Sc89 O99 2.105 . S
Sc89 O103 2.105 . S
Sc89 O105 2.105 . S
Sc89 O109 2.105 . S
Sc90 O91 2.025 . S
Sc90 O100 2.105 . S
Sc90 O102 2.105 . S
Sc90 O106 2.105 . S
Sc90 O108 2.105 . S
O91 Sc88 2.025 . S
O91 Sc89 2.025 . S
O91 Sc90 2.025 . S
C92 O98 1.268 . S
C92 O108 1.268 . S
C93 O99 1.268 1_556 S
C93 O107 1.268 . S
C94 O100 1.268 . S
C94 O109 1.268 . S
C95 O101 1.268 . S
C95 O105 1.268 . S
C96 O102 1.268 . S
C96 O104 1.268 . S
C97 O103 1.268 . S
C97 O106 1.268 . S
O98 Sc88 2.105 . S
O98 C92 1.268 . S
O99 Sc89 2.105 . S
O99 C93 1.268 1_554 S
O100 Sc90 2.105 . S
O100 C94 1.268 . S
O101 Sc88 2.105 . S
O101 C95 1.268 . S
O102 Sc90 2.105 . S
O102 C96 1.268 . S
O103 Sc89 2.105 . S
O103 C97 1.268 . S
O104 Sc88 2.105 . S
O104 C96 1.268 . S
O105 Sc89 2.105 . S
O105 C95 1.268 . S
O106 Sc90 2.105 . S
O106 C97 1.268 . S
O107 Sc88 2.105 1_556 S
O107 C93 1.268 . S
O108 Sc90 2.105 . S
O108 C92 1.268 . S
O109 Sc89 2.105 . S
O109 C94 1.268 . S
Sc110 O113 2.025 . S
Sc110 O120 2.105 . S
Sc110 O123 2.105 . S
Sc110 O126 2.105 . S
Sc110 O129 2.105 . S
Sc111 O113 2.025 . S
Sc111 O121 2.105 . S
Sc111 O125 2.105 . S
Sc111 O127 2.105 . S
Sc111 O131 2.105 . S
Sc112 O113 2.025 . S
Sc112 O122 2.105 . S
Sc112 O124 2.105 . S
Sc112 O128 2.105 . S
Sc112 O130 2.105 . S
O113 Sc110 2.025 . S
O113 Sc111 2.025 . S
O113 Sc112 2.025 . S
C114 O120 1.268 . S
C114 O130 1.268 . S
C115 O121 1.268 . S
C115 O129 1.268 . S
C116 O122 1.268 . S
C116 O131 1.268 . S
C117 O123 1.268 . S
C117 O127 1.268 . S
C118 O124 1.268 . S
C118 O126 1.268 . S
C119 O125 1.268 . S
C119 O128 1.268 . S
O120 Sc110 2.105 . S
O120 C114 1.268 . S
O121 Sc111 2.105 . S
O121 C115 1.268 . S
O122 Sc112 2.105 . S
O122 C116 1.268 . S
O123 Sc110 2.105 . S
O123 C117 1.268 . S
O124 Sc112 2.105 . S
O124 C118 1.268 . S
O125 Sc111 2.105 . S
O125 C119 1.268 . S
O126 Sc110 2.105 . S
O126 C118 1.268 . S
O127 Sc111 2.105 . S
O127 C117 1.268 . S
O128 Sc112 2.105 . S
O128 C119 1.268 . S
O129 Sc110 2.105 . S
O129 C115 1.268 . S
O130 Sc112 2.105 . S
O130 C114 1.268 . S
O131 Sc111 2.105 . S
O131 C116 1.268 . S
Sc132 O135 2.025 . S
Sc132 O142 2.105 . S
Sc132 O145 2.105 . S
Sc132 O148 2.105 . S
Sc132 O151 2.105 . S
Sc133 O135 2.025 . S
Sc133 O143 2.105 . S
Sc133 O147 2.105 . S
Sc133 O149 2.105 . S
Sc133 O153 2.105 . S
Sc134 O135 2.025 . S
Sc134 O144 2.105 . S
Sc134 O146 2.105 . S
Sc134 O150 2.105 . S
Sc134 O152 2.105 . S
O135 Sc132 2.025 . S
O135 Sc133 2.025 . S
O135 Sc134 2.025 . S
C136 O142 1.268 . S
C136 O152 1.268 . S
C137 O143 1.268 . S
C137 O151 1.268 . S
C138 O144 1.268 . S
C138 O153 1.268 . S
C139 O145 1.268 . S
C139 O149 1.268 . S
C140 O146 1.268 . S
C140 O148 1.268 . S
C141 O147 1.268 . S
C141 O150 1.268 . S
O142 Sc132 2.105 . S
O142 C136 1.268 . S
O143 Sc133 2.105 . S
O143 C137 1.268 . S
O144 Sc134 2.105 . S
O144 C138 1.268 . S
O145 Sc132 2.105 . S
O145 C139 1.268 . S
O146 Sc134 2.105 . S
O146 C140 1.268 . S
O147 Sc133 2.105 . S
O147 C141 1.268 . S
O148 Sc132 2.105 . S
O148 C140 1.268 . S
O149 Sc133 2.105 . S
O149 C139 1.268 . S
O150 Sc134 2.105 . S
O150 C141 1.268 . S
O151 Sc132 2.105 . S
O151 C137 1.268 . S
O152 Sc134 2.105 . S
O152 C136 1.268 . S
O153 Sc133 2.105 . S
O153 C138 1.268 . S
Sc154 O157 2.025 . S
Sc154 O164 2.105 . S
Sc154 O167 2.105 . S
Sc154 O170 2.105 . S
Sc154 O173 2.105 . S
Sc155 O157 2.025 . S
Sc155 O165 2.105 . S
Sc155 O169 2.105 . S
Sc155 O171 2.105 . S
Sc155 O175 2.105 . S
Sc156 O157 2.025 . S
Sc156 O166 2.105 . S
Sc156 O168 2.105 . S
Sc156 O172 2.105 . S
Sc156 O174 2.105 . S
O157 Sc154 2.025 . S
O157 Sc155 2.025 . S
O157 Sc156 2.025 . S
C158 O164 1.268 . S
C158 O174 1.268 . S
C159 O165 1.268 . S
C159 O173 1.268 . S
C160 O166 1.268 . S
C160 O175 1.268 . S
C161 O167 1.268 . S
C161 O171 1.268 . S
C162 O168 1.268 . S
C162 O170 1.268 . S
C163 O169 1.268 . S
C163 O172 1.268 . S
O164 Sc154 2.105 . S
O164 C158 1.268 . S
O165 Sc155 2.105 . S
O165 C159 1.268 . S
O166 Sc156 2.105 . S
O166 C160 1.268 . S
O167 Sc154 2.105 . S
O167 C161 1.268 . S
O168 Sc156 2.105 . S
O168 C162 1.268 . S
O169 Sc155 2.105 . S
O169 C163 1.268 . S
O170 Sc154 2.105 . S
O170 C162 1.268 . S
O171 Sc155 2.105 . S
O171 C161 1.268 . S
O172 Sc156 2.105 . S
O172 C163 1.268 . S
O173 Sc154 2.105 . S
O173 C159 1.268 . S
O174 Sc156 2.105 . S
O174 C158 1.268 . S
O175 Sc155 2.105 . S
O175 C160 1.268 . S
Sc176 O179 2.025 . S
Sc176 O186 2.105 . S
Sc176 O189 2.105 . S
Sc176 O192 2.105 . S
Sc176 O195 2.105 . S
Sc177 O179 2.025 . S
Sc177 O187 2.105 . S
Sc177 O191 2.105 . S
Sc177 O193 2.105 . S
Sc177 O197 2.105 . S
Sc178 O179 2.025 . S
Sc178 O188 2.105 . S
Sc178 O190 2.105 . S
Sc178 O194 2.105 . S
Sc178 O196 2.105 . S
O179 Sc176 2.025 . S
O179 Sc177 2.025 . S
O179 Sc178 2.025 . S
C180 O186 1.268 . S
C180 O196 1.268 . S
C181 O187 1.268 . S
C181 O195 1.268 . S
C182 O188 1.268 . S
C182 O197 1.268 . S
C183 O189 1.268 . S
C183 O193 1.268 . S
C184 O190 1.268 . S
C184 O192 1.268 . S
C185 O191 1.268 . S
C185 O194 1.268 . S
O186 Sc176 2.105 . S
O186 C180 1.268 . S
O187 Sc177 2.105 . S
O187 C181 1.268 . S
O188 Sc178 2.105 . S
O188 C182 1.268 . S
O189 Sc176 2.105 . S
O189 C183 1.268 . S
O190 Sc178 2.105 . S
O190 C184 1.268 . S
O191 Sc177 2.105 . S
O191 C185 1.268 . S
O192 Sc176 2.105 . S
O192 C184 1.268 . S
O193 Sc177 2.105 . S
O193 C183 1.268 . S
O194 Sc178 2.105 . S
O194 C185 1.268 . S
O195 Sc176 2.105 . S
O195 C181 1.268 . S
O196 Sc178 2.105 . S
O196 C180 1.268 . S
O197 Sc177 2.105 . S
O197 C182 1.268 . S
Sc198 O201 2.025 . S
Sc198 O208 2.105 . S
Sc198 O211 2.105 . S
Sc198 O214 2.105 . S
Sc198 O217 2.105 . S
Sc199 O201 2.025 . S
Sc199 O209 2.105 . S
Sc199 O213 2.105 . S
Sc199 O215 2.105 . S
Sc199 O219 2.105 . S
Sc200 O201 2.025 . S
Sc200 O210 2.105 . S
Sc200 O212 2.105 . S
Sc200 O216 2.080 1_556 S
Sc200 O218 2.105 . S
O201 Sc198 2.025 . S
O201 Sc199 2.025 . S
O201 Sc200 2.025 . S
C202 O208 1.268 . S
C202 O218 1.268 . S
C203 O209 1.268 . S
C203 O217 1.268 . S
C204 O210 1.268 . S
C204 O219 1.268 . S
C205 O211 1.268 . S
C205 O215 1.268 . S
C206 O212 1.268 . S
C206 O214 1.268 . S
C207 O213 1.268 1_554 S
C207 O216 1.270 . S
O208 Sc198 2.105 . S
O208 C202 1.268 . S
O209 Sc199 2.105 . S
O209 C203 1.268 . S
O210 Sc200 2.105 . S
O210 C204 1.268 . S
O211 Sc198 2.105 . S
O211 C205 1.268 . S
O212 Sc200 2.105 . S
O212 C206 1.268 . S
O213 Sc199 2.105 . S
O213 C207 1.268 1_556 S
O214 Sc198 2.105 . S
O214 C206 1.268 . S
O215 Sc199 2.105 . S
O215 C205 1.268 . S
O216 Sc200 2.080 1_554 S
O216 C207 1.270 . S
O217 Sc198 2.105 . S
O217 C203 1.268 . S
O218 Sc200 2.105 . S
O218 C202 1.268 . S
O219 Sc199 2.105 . S
O219 C204 1.268 . S
Sc220 O223 2.025 . S
Sc220 O230 2.105 . S
Sc220 O233 2.105 . S
Sc220 O236 2.105 . S
Sc220 O239 2.105 . S
Sc221 O223 2.025 . S
Sc221 O231 2.105 . S
Sc221 O235 2.105 . S
Sc221 O237 2.105 . S
Sc221 O241 2.105 . S
Sc222 O223 2.025 . S
Sc222 O232 2.105 . S
Sc222 O234 2.105 . S
Sc222 O238 2.105 . S
Sc222 O240 2.105 . S
O223 Sc220 2.025 . S
O223 Sc221 2.025 . S
O223 Sc222 2.025 . S
C224 O230 1.268 . S
C224 O240 1.268 . S
C225 O231 1.268 . S
C225 O239 1.268 . S
C226 O232 1.268 . S
C226 O241 1.268 . S
C227 O233 1.268 . S
C227 O237 1.268 . S
C228 O234 1.268 . S
C228 O236 1.268 . S
C229 O235 1.268 . S
C229 O238 1.268 . S
O230 Sc220 2.105 . S
O230 C224 1.268 . S
O231 Sc221 2.105 . S
O231 C225 1.268 . S
O232 Sc222 2.105 . S
O232 C226 1.268 . S
O233 Sc220 2.105 . S
O233 C227 1.268 . S
O234 Sc222 2.105 . S
O234 C228 1.268 . S
O235 Sc221 2.105 . S
O235 C229 1.268 . S
O236 Sc220 2.105 . S
O236 C228 1.268 . S
O237 Sc221 2.105 . S
O237 C227 1.268 . S
O238 Sc222 2.105 . S
O238 C229 1.268 . S
O239 Sc220 2.105 . S
O239 C225 1.268 . S
O240 Sc222 2.105 . S
O240 C224 1.268 . S
O241 Sc221 2.105 . S
O241 C226 1.268 . S
Sc242 O245 2.025 . S
Sc242 O252 2.105 . S
Sc242 O255 2.105 . S
Sc242 O258 2.105 . S
Sc242 O261 2.105 . S
Sc243 O245 2.025 . S
Sc243 O253 2.105 . S
Sc243 O257 2.105 . S
Sc243 O259 2.105 . S
Sc243 O263 2.105 . S
Sc244 O245 2.025 . S
Sc244 O254 2.105 . S
Sc244 O256 2.105 . S
Sc244 O260 2.105 . S
Sc244 O262 2.105 . S
O245 Sc242 2.025 . S
O245 Sc243 2.025 . S
O245 Sc244 2.025 . S
C246 O252 1.268 . S
C246 O262 1.268 . S
C247 O253 1.268 . S
C247 O261 1.268 . S
C248 O254 1.268 . S
C248 O263 1.268 . S
C249 O255 1.268 . S
C249 O259 1.268 . S
C250 O256 1.268 . S
C250 O258 1.268 . S
C251 O257 1.268 . S
C251 O260 1.268 . S
O252 Sc242 2.105 . S
O252 C246 1.268 . S
O253 Sc243 2.105 . S
O253 C247 1.268 . S
O254 Sc244 2.105 . S
O254 C248 1.268 . S
O255 Sc242 2.105 . S
O255 C249 1.268 . S
O256 Sc244 2.105 . S
O256 C250 1.268 . S
O257 Sc243 2.105 . S
O257 C251 1.268 . S
O258 Sc242 2.105 . S
O258 C250 1.268 . S
O259 Sc243 2.105 . S
O259 C249 1.268 . S
O260 Sc244 2.105 . S
O260 C251 1.268 . S
O261 Sc242 2.105 . S
O261 C247 1.268 . S
O262 Sc244 2.105 . S
O262 C246 1.268 . S
O263 Sc243 2.105 . S
O263 C248 1.268 . S
H264 C270 0.930 . S
H265 C274 0.930 . S
H266 C279 0.929 . S
H267 C277 0.929 . S
H268 C272 0.929 . S
H269 C278 0.929 . S
C270 H264 0.930 . S
C270 C271 1.367 . S
C270 C278 1.378 . S
C271 C270 1.367 . S
C271 C279 1.433 . S
C272 H268 0.929 . S
C272 C274 1.378 . S
C272 C276 1.350 . S
C273 C276 1.463 . S
C273 C278 1.350 . S
C273 N281 1.427 . S
C274 H265 0.930 . S
C274 C272 1.378 . S
C274 C275 1.367 1_565 S
C275 C274 1.367 1_545 S
C275 C277 1.433 . S
C276 C272 1.350 . S
C276 C273 1.463 . S
C276 N280 1.427 1_565 S
C277 H267 0.929 . S
C277 C275 1.433 . S
C277 N280 1.384 . S
C278 H269 0.929 . S
C278 C270 1.378 . S
C278 C273 1.350 . S
C279 H266 0.929 . S
C279 C271 1.433 . S
C279 N281 1.384 . S
N280 C276 1.427 1_545 S
N280 C277 1.384 . S
N281 C273 1.427 . S
N281 C279 1.384 . S
H282 C288 0.930 . S
H283 C292 0.930 . S
H284 C297 0.929 . S
H285 C295 0.929 . S
H286 C290 0.929 . S
H287 C296 0.929 . S
C288 H282 0.930 . S
C288 C289 1.367 . S
C288 C296 1.378 . S
C289 C288 1.367 . S
C289 C297 1.433 . S
C290 H286 0.929 . S
C290 C292 1.378 . S
C290 C294 1.350 . S
C291 C294 1.463 . S
C291 C296 1.350 . S
C291 N299 1.427 . S
C292 H283 0.930 . S
C292 C290 1.378 . S
C292 C293 1.367 . S
C293 C292 1.367 . S
C293 C295 1.433 . S
C294 C290 1.350 . S
C294 C291 1.463 . S
C294 N298 1.427 . S
C295 H285 0.929 . S
C295 C293 1.433 . S
C295 N298 1.384 . S
C296 H287 0.929 . S
C296 C288 1.378 . S
C296 C291 1.350 . S
C297 H284 0.929 . S
C297 C289 1.433 . S
C297 N299 1.384 . S
N298 C294 1.427 . S
N298 C295 1.384 . S
N299 C291 1.427 . S
N299 C297 1.384 . S
H300 C306 0.930 . S
H301 C310 0.930 . S
H302 C315 0.929 . S
H303 C313 0.929 . S
H304 C308 0.929 . S
H305 C314 0.929 . S
C306 H300 0.930 . S
C306 C307 1.367 . S
C306 C314 1.378 . S
C307 C306 1.367 . S
C307 C315 1.433 1_655 S
C308 H304 0.929 . S
C308 C310 1.378 . S
C308 C312 1.350 . S
C309 C312 1.463 . S
C309 C314 1.350 1_455 S
C309 N317 1.427 . S
C310 H301 0.930 . S
C310 C308 1.378 . S
C310 C311 1.367 . S
C311 C310 1.367 . S
C311 C313 1.433 . S
C312 C308 1.350 . S
C312 C309 1.463 . S
C312 N316 1.427 . S
C313 H303 0.929 . S
C313 C311 1.433 . S
C313 N316 1.384 . S
C314 H305 0.929 . S
C314 C306 1.378 . S
C314 C309 1.350 1_655 S
C315 H302 0.929 . S
C315 C307 1.433 1_455 S
C315 N317 1.384 . S
N316 C312 1.427 . S
N316 C313 1.384 . S
N317 C309 1.427 . S
N317 C315 1.384 . S
H318 C324 0.930 . S
H319 C328 0.930 . S
H320 C333 0.929 . S
H321 C331 0.929 . S
H322 C326 0.929 . S
H323 C332 0.929 . S
C324 H318 0.930 . S
C324 C325 1.367 . S
C324 C332 1.378 . S
C325 C324 1.367 . S
C325 C333 1.433 . S
C326 H322 0.929 . S
C326 C328 1.378 . S
C326 C330 1.350 1_565 S
C327 C330 1.463 . S
C327 C332 1.350 . S
C327 N335 1.427 . S
C328 H319 0.930 . S
C328 C326 1.378 . S
C328 C329 1.367 . S
C329 C328 1.367 . S
C329 C331 1.433 1_565 S
C330 C326 1.350 1_545 S
C330 C327 1.463 . S
C330 N334 1.427 . S
C331 H321 0.929 . S
C331 C329 1.433 1_545 S
C331 N334 1.384 . S
C332 H323 0.929 . S
C332 C324 1.378 . S
C332 C327 1.350 . S
C333 H320 0.929 . S
C333 C325 1.433 . S
C333 N335 1.384 . S
N334 C330 1.427 . S
N334 C331 1.384 . S
N335 C327 1.427 . S
N335 C333 1.384 . S
H336 C342 0.930 . S
H337 C346 0.930 1_554 S
H338 C351 0.929 . S
H339 C349 0.929 . S
H340 C344 0.929 . S
H341 C350 0.929 . S
C342 H336 0.930 . S
C342 C343 1.367 . S
C342 C350 1.378 . S
C343 C342 1.367 . S
C343 C351 1.433 . S
C344 H340 0.929 . S
C344 C346 1.378 . S
C344 C348 1.350 . S
C345 C348 1.463 . S
C345 C350 1.350 . S
C345 N353 1.427 . S
C346 H337 0.930 1_556 S
C346 C344 1.378 . S
C346 C347 1.367 . S
C347 C346 1.367 . S
C347 C349 1.433 . S
C348 C344 1.350 . S
C348 C345 1.463 . S
C348 N352 1.427 . S
C349 H339 0.929 . S
C349 C347 1.433 . S
C349 N352 1.384 . S
C350 H341 0.929 . S
C350 C342 1.378 . S
C350 C345 1.350 . S
C351 H338 0.929 . S
C351 C343 1.433 . S
C351 N353 1.384 . S
N352 C348 1.427 . S
N352 C349 1.384 . S
N353 C345 1.427 . S
N353 C351 1.384 . S
H354 C360 0.930 . S
H355 C364 0.930 . S
H356 C369 0.929 . S
H357 C367 0.929 . S
H358 C362 0.929 . S
H359 C368 0.929 . S
C360 H354 0.930 . S
C360 C361 1.367 1_655 S
C360 C368 1.378 . S
C361 C360 1.367 1_455 S
C361 C369 1.433 . S
C362 H358 0.929 . S
C362 C364 1.378 . S
C362 C366 1.350 . S
C363 C366 1.463 . S
C363 C368 1.350 . S
C363 N371 1.427 1_655 S
C364 H355 0.930 . S
C364 C362 1.378 . S
C364 C365 1.367 . S
C365 C364 1.367 . S
C365 C367 1.433 . S
C366 C362 1.350 . S
C366 C363 1.463 . S
C366 N370 1.427 . S
C367 H357 0.929 . S
C367 C365 1.433 . S
C367 N370 1.384 . S
C368 H359 0.929 . S
C368 C360 1.378 . S
C368 C363 1.350 . S
C369 H356 0.929 . S
C369 C361 1.433 . S
C369 N371 1.384 . S
N370 C366 1.427 . S
N370 C367 1.384 . S
N371 C363 1.427 1_455 S
N371 C369 1.384 . S
H372 C378 0.930 . S
H373 C382 0.930 . S
H374 C387 0.929 . S
H375 C385 0.929 . S
H376 C380 0.929 . S
H377 C386 0.929 . S
C378 H372 0.930 . S
C378 C379 1.367 . S
C378 C386 1.378 . S
C379 C378 1.367 . S
C379 C387 1.433 . S
C380 H376 0.929 . S
C380 C382 1.378 . S
C380 C384 1.350 1_655 S
C381 C384 1.463 . S
C381 C386 1.350 . S
C381 N389 1.427 . S
C382 H373 0.930 . S
C382 C380 1.378 . S
C382 C383 1.367 . S
C383 C382 1.367 . S
C383 C385 1.433 1_655 S
C384 C380 1.350 1_455 S
C384 C381 1.463 . S
C384 N388 1.427 . S
C385 H375 0.929 . S
C385 C383 1.433 1_455 S
C385 N388 1.384 . S
C386 H377 0.929 . S
C386 C378 1.378 . S
C386 C381 1.350 . S
C387 H374 0.929 . S
C387 C379 1.433 . S
C387 N389 1.384 . S
N388 C384 1.427 . S
N388 C385 1.384 . S
N389 C381 1.427 . S
N389 C387 1.384 . S
H390 C396 0.930 . S
H391 C400 0.930 . S
H392 C405 0.929 . S
H393 C403 0.929 . S
H394 C398 0.929 . S
H395 C404 0.935 . S
C396 H390 0.930 . S
C396 C397 1.367 . S
C396 C404 1.378 1_565 S
C397 C396 1.367 . S
C397 C405 1.433 1_565 S
C398 H394 0.929 . S
C398 C400 1.378 . S
C398 C402 1.350 . S
C399 C402 1.463 . S
C399 C404 1.350 . S
C399 N407 1.427 . S
C400 H391 0.930 . S
C400 C398 1.378 . S
C400 C401 1.367 . S
C401 C400 1.367 . S
C401 C403 1.433 . S
C402 C398 1.350 . S
C402 C399 1.463 . S
C402 N406 1.427 . S
C403 H393 0.929 . S
C403 C401 1.433 . S
C403 N406 1.384 . S
C404 H395 0.935 . S
C404 C396 1.378 1_545 S
C404 C399 1.350 . S
C405 H392 0.929 . S
C405 C397 1.433 1_545 S
C405 N407 1.384 . S
N406 C402 1.427 . S
N406 C403 1.384 . S
N407 C399 1.427 . S
N407 C405 1.384 . S
H408 C414 0.930 . S
H409 C418 0.930 . S
H410 C423 0.929 . S
H411 C421 0.929 . S
H412 C416 0.929 . S
H413 C422 0.929 . S
C414 H408 0.930 . S
C414 C415 1.367 . S
C414 C422 1.378 . S
C415 C414 1.367 . S
C415 C423 1.433 . S
C416 H412 0.929 . S
C416 C418 1.378 . S
C416 C420 1.350 . S
C417 C420 1.463 . S
C417 C422 1.350 . S
C417 N425 1.427 . S
C418 H409 0.930 . S
C418 C416 1.378 . S
C418 C419 1.367 . S
C419 C418 1.367 . S
C419 C421 1.433 . S
C420 C416 1.350 . S
C420 C417 1.463 . S
C420 N424 1.427 . S
C421 H411 0.929 . S
C421 C419 1.433 . S
C421 N424 1.384 . S
C422 H413 0.929 . S
C422 C414 1.378 . S
C422 C417 1.350 . S
C423 H410 0.929 . S
C423 C415 1.433 . S
C423 N425 1.384 . S
N424 C420 1.427 . S
N424 C421 1.384 . S
N425 C417 1.427 . S
N425 C423 1.384 . S
H426 C432 0.930 . S
H427 C436 0.930 . S
H428 C441 0.929 . S
H429 C439 0.929 1_556 S
H430 C434 0.929 . S
H431 C440 0.929 . S
C432 H426 0.930 . S
C432 C433 1.367 . S
C432 C440 1.378 . S
C433 C432 1.367 . S
C433 C441 1.433 . S
C434 H430 0.929 . S
C434 C436 1.378 . S
C434 C438 1.350 1_455 S
C435 C438 1.463 . S
C435 C440 1.350 . S
C435 N443 1.427 . S
C436 H427 0.930 . S
C436 C434 1.378 . S
C436 C437 1.367 . S
C437 C436 1.367 . S
C437 C439 1.433 1_455 S
C438 C434 1.350 1_655 S
C438 C435 1.463 . S
C438 N442 1.427 . S
C439 H429 0.929 1_554 S
C439 C437 1.433 1_655 S
C439 N442 1.384 . S
C440 H431 0.929 . S
C440 C432 1.378 . S
C440 C435 1.350 . S
C441 H428 0.929 . S
C441 C433 1.433 . S
C441 N443 1.384 . S
N442 C438 1.427 . S
N442 C439 1.384 . S
N443 C435 1.427 . S
N443 C441 1.384 . S
H444 C450 0.930 . S
H445 C454 0.930 . S
H446 C459 0.929 . S
H447 C457 0.929 . S
H448 C452 0.929 . S
H449 C458 0.929 . S
C450 H444 0.930 . S
C450 C451 1.367 . S
C450 C458 1.378 . S
C451 C450 1.367 . S
C451 C459 1.433 . S
C452 H448 0.929 . S
C452 C454 1.378 . S
C452 C456 1.350 . S
C453 C456 1.463 . S
C453 C458 1.350 . S
C453 N461 1.427 . S
C454 H445 0.930 . S
C454 C452 1.378 . S
C454 C455 1.367 1_565 S
C455 C454 1.367 1_545 S
C455 C457 1.433 . S
C456 C452 1.350 . S
C456 C453 1.463 . S
C456 N460 1.427 1_565 S
C457 H447 0.929 . S
C457 C455 1.433 . S
C457 N460 1.384 . S
C458 H449 0.929 . S
C458 C450 1.378 . S
C458 C453 1.350 . S
C459 H446 0.929 . S
C459 C451 1.433 . S
C459 N461 1.384 . S
N460 C456 1.427 1_545 S
N460 C457 1.384 . S
N461 C453 1.427 . S
N461 C459 1.384 . S
H462 C468 0.930 . S
H463 C472 0.930 . S
H464 C477 0.929 . S
H465 C475 0.929 . S
H466 C470 0.929 . S
H467 C476 0.929 . S
C468 H462 0.930 . S
C468 C469 1.367 . S
C468 C476 1.378 . S
C469 C468 1.367 . S
C469 C477 1.433 . S
C470 H466 0.929 . S
C470 C472 1.378 . S
C470 C474 1.350 . S
C471 C474 1.463 . S
C471 C476 1.350 . S
C471 N479 1.427 . S
C472 H463 0.930 . S
C472 C470 1.378 . S
C472 C473 1.367 . S
C473 C472 1.367 . S
C473 C475 1.433 . S
C474 C470 1.350 . S
C474 C471 1.463 . S
C474 N478 1.427 . S
C475 H465 0.929 . S
C475 C473 1.433 . S
C475 N478 1.384 . S
C476 H467 0.929 . S
C476 C468 1.378 . S
C476 C471 1.350 . S
C477 H464 0.929 . S
C477 C469 1.433 . S
C477 N479 1.384 . S
N478 C474 1.427 . S
N478 C475 1.384 . S
N479 C471 1.427 . S
N479 C477 1.384 . S
H480 C486 0.930 . S
H481 C490 0.930 1_545 S
H482 C495 0.929 . S
H483 C493 0.929 1_545 S
H484 C488 0.929 . S
H485 C494 0.929 . S
C486 H480 0.930 . S
C486 C487 1.367 . S
C486 C494 1.378 . S
C487 C486 1.367 . S
C487 C495 1.433 . S
C488 H484 0.929 . S
C488 C490 1.378 . S
C488 C492 1.350 . S
C489 C492 1.463 . S
C489 C494 1.350 . S
C489 N497 1.427 . S
C490 H481 0.930 1_565 S
C490 C488 1.378 . S
C490 C491 1.367 1_565 S
C491 C490 1.367 1_545 S
C491 C493 1.433 1_545 S
C492 C488 1.350 . S
C492 C489 1.463 . S
C492 N496 1.427 . S
C493 H483 0.929 1_565 S
C493 C491 1.433 1_565 S
C493 N496 1.384 . S
C494 H485 0.929 . S
C494 C486 1.378 . S
C494 C489 1.350 . S
C495 H482 0.929 . S
C495 C487 1.433 . S
C495 N497 1.384 . S
N496 C492 1.427 . S
N496 C493 1.384 . S
N497 C489 1.427 . S
N497 C495 1.384 . S
H498 C504 0.930 . S
H499 C508 0.930 . S
H500 C513 0.929 . S
H501 C511 0.929 . S
H502 C506 0.929 . S
H503 C512 0.929 . S
C504 H498 0.930 . S
C504 C505 1.367 . S
C504 C512 1.378 . S
C505 C504 1.367 . S
C505 C513 1.433 . S
C506 H502 0.929 . S
C506 C508 1.378 . S
C506 C510 1.350 . S
C507 C510 1.463 . S
C507 C512 1.350 . S
C507 N515 1.427 . S
C508 H499 0.930 . S
C508 C506 1.378 . S
C508 C509 1.367 . S
C509 C508 1.367 . S
C509 C511 1.433 . S
C510 C506 1.350 . S
C510 C507 1.463 . S
C510 N514 1.427 . S
C511 H501 0.929 . S
C511 C509 1.433 . S
C511 N514 1.384 . S
C512 H503 0.929 . S
C512 C504 1.378 . S
C512 C507 1.350 . S
C513 H500 0.929 . S
C513 C505 1.433 . S
C513 N515 1.384 . S
N514 C510 1.427 . S
N514 C511 1.384 . S
N515 C507 1.427 . S
N515 C513 1.384 . S
H516 C522 0.930 . S
H517 C526 0.930 . S
H518 C531 0.929 . S
H519 C529 0.929 . S
H520 C524 0.929 . S
H521 C530 0.929 . S
C522 H516 0.930 . S
C522 C523 1.367 . S
C522 C530 1.378 . S
C523 C522 1.367 . S
C523 C531 1.433 . S
C524 H520 0.929 . S
C524 C526 1.378 . S
C524 C528 1.350 . S
C525 C528 1.463 . S
C525 C530 1.350 . S
C525 N533 1.427 . S
C526 H517 0.930 . S
C526 C524 1.378 . S
C526 C527 1.367 1_455 S
C527 C526 1.367 1_655 S
C527 C529 1.433 . S
C528 C524 1.350 . S
C528 C525 1.463 . S
C528 N532 1.427 . S
C529 H519 0.929 . S
C529 C527 1.433 . S
C529 N532 1.384 1_655 S
C530 H521 0.929 . S
C530 C522 1.378 . S
C530 C525 1.350 . S
C531 H518 0.929 . S
C531 C523 1.433 . S
C531 N533 1.384 . S
N532 C528 1.427 . S
N532 C529 1.384 1_455 S
N533 C525 1.427 . S
N533 C531 1.384 . S
H534 C540 0.930 . S
H535 C544 0.930 . S
H536 C549 0.929 . S
H537 C547 0.929 . S
H538 C542 0.929 . S
H539 C548 0.929 . S
C540 H534 0.930 . S
C540 C541 1.367 . S
C540 C548 1.378 . S
C541 C540 1.367 . S
C541 C549 1.433 . S
C542 H538 0.929 . S
C542 C544 1.378 . S
C542 C546 1.350 . S
C543 C546 1.463 . S
C543 C548 1.350 . S
C543 N551 1.427 . S
C544 H535 0.930 . S
C544 C542 1.378 . S
C544 C545 1.367 1_545 S
C545 C544 1.367 1_565 S
C545 C547 1.433 . S
C546 C542 1.350 . S
C546 C543 1.463 . S
C546 N550 1.427 1_545 S
C547 H537 0.929 . S
C547 C545 1.433 . S
C547 N550 1.384 . S
C548 H539 0.929 . S
C548 C540 1.378 . S
C548 C543 1.350 . S
C549 H536 0.929 . S
C549 C541 1.433 . S
C549 N551 1.384 . S
N550 C546 1.427 1_565 S
N550 C547 1.384 . S
N551 C543 1.427 . S
N551 C549 1.384 . S
H552 C558 0.930 . S
H553 C562 0.930 . S
H554 C567 0.940 . S
H555 C565 0.929 . S
H556 C560 0.929 . S
H557 C566 0.929 . S
C558 H552 0.930 . S
C558 C559 1.367 . S
C558 C566 1.378 . S
C559 C558 1.367 . S
C559 C567 1.403 1_556 S
C560 H556 0.929 . S
C560 C562 1.378 . S
C560 C564 1.350 . S
C561 C564 1.463 . S
C561 C566 1.350 1_554 S
C561 N569 1.427 . S
C562 H553 0.930 . S
C562 C560 1.378 . S
C562 C563 1.367 . S
C563 C562 1.367 . S
C563 C565 1.433 . S
C564 C560 1.350 . S
C564 C561 1.463 . S
C564 N568 1.427 . S
C565 H555 0.929 . S
C565 C563 1.433 . S
C565 N568 1.384 . S
C566 H557 0.929 . S
C566 C558 1.378 . S
C566 C561 1.350 1_556 S
C567 H554 0.940 . S
C567 C559 1.403 1_554 S
C567 N569 1.406 . S
N568 C564 1.427 . S
N568 C565 1.384 . S
N569 C561 1.427 . S
N569 C567 1.406 . S
H570 C576 0.930 1_455 S
H571 C580 0.930 . S
H572 C585 0.929 . S
H573 C583 0.929 . S
H574 C578 0.929 . S
H575 C584 0.929 . S
C576 H570 0.930 1_655 S
C576 C577 1.367 1_655 S
C576 C584 1.378 . S
C577 C576 1.367 1_455 S
C577 C585 1.433 1_455 S
C578 H574 0.929 . S
C578 C580 1.378 . S
C578 C582 1.350 . S
C579 C582 1.463 . S
C579 C584 1.350 . S
C579 N587 1.427 . S
C580 H571 0.930 . S
C580 C578 1.378 . S
C580 C581 1.367 . S
C581 C580 1.367 . S
C581 C583 1.433 . S
C582 C578 1.350 . S
C582 C579 1.463 . S
C582 N586 1.427 . S
C583 H573 0.929 . S
C583 C581 1.433 . S
C583 N586 1.384 . S
C584 H575 0.929 . S
C584 C576 1.378 . S
C584 C579 1.350 . S
C585 H572 0.929 . S
C585 C577 1.433 1_655 S
C585 N587 1.384 . S
N586 C582 1.427 . S
N586 C583 1.384 . S
N587 C579 1.427 . S
N587 C585 1.384 . S
H588 C594 0.930 . S
H589 C598 0.930 . S
H590 C603 0.929 . S
H591 C601 0.929 . S
H592 C596 0.929 . S
H593 C602 0.929 . S
C594 H588 0.930 . S
C594 C595 1.367 1_455 S
C594 C602 1.378 . S
C595 C594 1.367 1_655 S
C595 C603 1.433 . S
C596 H592 0.929 . S
C596 C598 1.378 . S
C596 C600 1.350 . S
C597 C600 1.463 . S
C597 C602 1.350 . S
C597 N605 1.427 . S
C598 H589 0.930 . S
C598 C596 1.378 . S
C598 C599 1.367 . S
C599 C598 1.367 . S
C599 C601 1.433 . S
C600 C596 1.350 . S
C600 C597 1.463 . S
C600 N604 1.427 . S
C601 H591 0.929 . S
C601 C599 1.433 . S
C601 N604 1.384 . S
C602 H593 0.929 . S
C602 C594 1.378 . S
C602 C597 1.350 . S
C603 H590 0.929 . S
C603 C595 1.433 . S
C603 N605 1.384 1_655 S
N604 C600 1.427 . S
N604 C601 1.384 . S
N605 C597 1.427 . S
N605 C603 1.384 1_455 S
H606 C612 0.930 . S
H607 C616 0.930 . S
H608 C621 0.929 . S
H609 C619 0.929 . S
H610 C614 0.929 . S
H611 C620 0.929 . S
C612 H606 0.930 . S
C612 C613 1.367 1_545 S
C612 C620 1.378 . S
C613 C612 1.367 1_565 S
C613 C621 1.433 . S
C614 H610 0.929 . S
C614 C616 1.378 . S
C614 C618 1.350 . S
C615 C618 1.463 . S
C615 C620 1.350 . S
C615 N623 1.427 . S
C616 H607 0.930 . S
C616 C614 1.378 . S
C616 C617 1.367 . S
C617 C616 1.367 . S
C617 C619 1.433 . S
C618 C614 1.350 . S
C618 C615 1.463 . S
C618 N622 1.427 . S
C619 H609 0.929 . S
C619 C617 1.433 . S
C619 N622 1.384 . S
C620 H611 0.929 . S
C620 C612 1.378 . S
C620 C615 1.350 . S
C621 H608 0.929 . S
C621 C613 1.433 . S
C621 N623 1.384 1_565 S
N622 C618 1.427 . S
N622 C619 1.384 . S
N623 C615 1.427 . S
N623 C621 1.384 1_545 S
H624 C630 0.930 . S
H625 C634 0.930 . S
H626 C639 0.929 . S
H627 C637 0.929 . S
H628 C632 0.929 . S
H629 C638 0.929 . S
C630 H624 0.930 . S
C630 C631 1.367 . S
C630 C638 1.378 . S
C631 C630 1.367 . S
C631 C639 1.433 . S
C632 H628 0.929 . S
C632 C634 1.378 . S
C632 C636 1.350 . S
C633 C636 1.463 . S
C633 C638 1.350 . S
C633 N641 1.427 . S
C634 H625 0.930 . S
C634 C632 1.378 . S
C634 C635 1.367 . S
C635 C634 1.367 . S
C635 C637 1.433 . S
C636 C632 1.350 . S
C636 C633 1.463 . S
C636 N640 1.427 . S
C637 H627 0.929 . S
C637 C635 1.433 . S
C637 N640 1.384 . S
C638 H629 0.929 . S
C638 C630 1.378 . S
C638 C633 1.350 . S
C639 H626 0.929 . S
C639 C631 1.433 . S
C639 N641 1.384 . S
N640 C636 1.427 . S
N640 C637 1.384 . S
N641 C633 1.427 . S
N641 C639 1.384 . S
H642 C648 0.930 . S
H643 C652 0.930 . S
H644 C657 0.929 . S
H645 C655 0.930 1_455 S
H646 C650 0.929 1_554 S
H647 C656 0.929 . S
C648 H642 0.930 . S
C648 C649 1.367 1_556 S
C648 C656 1.378 . S
C649 C648 1.367 1_554 S
C649 C657 1.433 . S
C650 H646 0.929 1_556 S
C650 C652 1.378 . S
C650 C654 1.350 . S
C651 C654 1.463 . S
C651 C656 1.350 . S
C651 N659 1.427 1_556 S
C652 H643 0.930 . S
C652 C650 1.378 . S
C652 C653 1.367 1_655 S
C653 C652 1.367 1_455 S
C653 C655 1.434 1_455 S
C654 C650 1.350 . S
C654 C651 1.463 . S
C654 N658 1.427 . S
C655 H645 0.930 1_655 S
C655 C653 1.434 1_655 S
C655 N658 1.382 . S
C656 H647 0.929 . S
C656 C648 1.378 . S
C656 C651 1.350 . S
C657 H644 0.929 . S
C657 C649 1.433 . S
C657 N659 1.384 . S
N658 C654 1.427 . S
N658 C655 1.382 . S
N659 C651 1.427 1_554 S
N659 C657 1.384 . S
H660 C666 0.930 . S
H661 C670 0.930 . S
H662 C675 0.929 . S
H663 C673 0.929 . S
H664 C668 0.929 . S
H665 C674 0.929 . S
C666 H660 0.930 . S
C666 C667 1.367 1_565 S
C666 C674 1.378 . S
C667 C666 1.367 1_545 S
C667 C675 1.433 . S
C668 H664 0.929 . S
C668 C670 1.378 . S
C668 C672 1.350 . S
C669 C672 1.463 . S
C669 C674 1.350 . S
C669 N677 1.427 1_565 S
C670 H661 0.930 . S
C670 C668 1.378 . S
C670 C671 1.367 . S
C671 C670 1.367 . S
C671 C673 1.433 . S
C672 C668 1.350 . S
C672 C669 1.463 . S
C672 N676 1.427 . S
C673 H663 0.929 . S
C673 C671 1.433 . S
C673 N676 1.384 . S
C674 H665 0.929 . S
C674 C666 1.378 . S
C674 C669 1.350 . S
C675 H662 0.929 . S
C675 C667 1.433 . S
C675 N677 1.384 . S
N676 C672 1.427 . S
N676 C673 1.384 . S
N677 C669 1.427 1_545 S
N677 C675 1.384 . S
H678 C684 0.930 . S
H679 C688 0.930 . S
H680 C693 0.929 . S
H681 C691 0.929 . S
H682 C686 0.929 . S
H683 C692 0.929 . S
C684 H678 0.930 . S
C684 C685 1.367 . S
C684 C692 1.378 . S
C685 C684 1.367 . S
C685 C693 1.433 . S
C686 H682 0.929 . S
C686 C688 1.378 . S
C686 C690 1.350 . S
C687 C690 1.463 . S
C687 C692 1.350 . S
C687 N695 1.427 . S
C688 H679 0.930 . S
C688 C686 1.378 . S
C688 C689 1.367 . S
C689 C688 1.367 . S
C689 C691 1.433 . S
C690 C686 1.350 . S
C690 C687 1.463 . S
C690 N694 1.427 . S
C691 H681 0.929 . S
C691 C689 1.433 . S
C691 N694 1.384 . S
C692 H683 0.929 . S
C692 C684 1.378 . S
C692 C687 1.350 . S
C693 H680 0.929 . S
C693 C685 1.433 . S
C693 N695 1.384 . S
N694 C690 1.427 . S
N694 C691 1.384 . S
N695 C687 1.427 . S
N695 C693 1.384 . S
H696 C702 0.930 1_655 S
H697 C706 0.930 . S
H698 C711 0.929 . S
H699 C709 0.929 . S
H700 C704 0.929 . S
H701 C710 0.929 . S
C702 H696 0.930 1_455 S
C702 C703 1.367 . S
C702 C710 1.378 . S
C703 C702 1.367 . S
C703 C711 1.433 . S
C704 H700 0.929 . S
C704 C706 1.378 . S
C704 C708 1.350 . S
C705 C708 1.463 . S
C705 C710 1.350 . S
C705 N713 1.427 . S
C706 H697 0.930 . S
C706 C704 1.378 . S
C706 C707 1.367 . S
C707 C706 1.367 . S
C707 C709 1.433 . S
C708 C704 1.350 . S
C708 C705 1.463 . S
C708 N712 1.427 . S
C709 H699 0.929 . S
C709 C707 1.433 . S
C709 N712 1.384 . S
C710 H701 0.929 . S
C710 C702 1.378 . S
C710 C705 1.350 . S
C711 H698 0.929 . S
C711 C703 1.433 . S
C711 N713 1.384 . S
N712 C708 1.427 . S
N712 C709 1.384 . S
N713 C705 1.427 . S
N713 C711 1.384 . S
H714 C720 0.930 . S
H715 C724 0.930 . S
H716 C729 0.929 . S
H717 C727 0.929 . S
H718 C722 0.929 . S
H719 C728 0.929 . S
C720 H714 0.930 . S
C720 C721 1.367 . S
C720 C728 1.378 . S
C721 C720 1.367 . S
C721 C729 1.433 . S
C722 H718 0.929 . S
C722 C724 1.378 . S
C722 C726 1.350 . S
C723 C726 1.463 . S
C723 C728 1.350 . S
C723 N731 1.427 . S
C724 H715 0.930 . S
C724 C722 1.378 . S
C724 C725 1.367 . S
C725 C724 1.367 . S
C725 C727 1.433 . S
C726 C722 1.350 . S
C726 C723 1.463 . S
C726 N730 1.427 . S
C727 H717 0.929 . S
C727 C725 1.433 . S
C727 N730 1.384 . S
C728 H719 0.929 . S
C728 C720 1.378 . S
C728 C723 1.350 . S
C729 H716 0.929 . S
C729 C721 1.433 . S
C729 N731 1.384 . S
N730 C726 1.427 . S
N730 C727 1.384 . S
N731 C723 1.427 . S
N731 C729 1.384 . S
H732 C738 0.930 . S
H733 C742 0.930 1_655 S
H734 C747 0.929 . S
H735 C745 0.929 . S
H736 C740 0.929 . S
H737 C746 0.929 . S
C738 H732 0.930 . S
C738 C739 1.367 . S
C738 C746 1.378 . S
C739 C738 1.367 . S
C739 C747 1.433 . S
C740 H736 0.929 . S
C740 C742 1.378 . S
C740 C744 1.350 . S
C741 C744 1.463 . S
C741 C746 1.350 . S
C741 N749 1.427 . S
C742 H733 0.930 1_455 S
C742 C740 1.378 . S
C742 C743 1.367 . S
C743 C742 1.367 . S
C743 C745 1.433 . S
C744 C740 1.350 . S
C744 C741 1.463 . S
C744 N748 1.427 . S
C745 H735 0.929 . S
C745 C743 1.433 . S
C745 N748 1.384 . S
C746 H737 0.929 . S
C746 C738 1.378 . S
C746 C741 1.350 . S
C747 H734 0.929 . S
C747 C739 1.433 . S
C747 N749 1.384 . S
N748 C744 1.427 . S
N748 C745 1.384 . S
N749 C741 1.427 . S
N749 C747 1.384 . S
H750 C756 0.930 . S
H751 C760 0.930 . S
H752 C765 0.929 1_565 S
H753 C763 0.929 . S
H754 C758 0.929 . S
H755 C764 0.929 . S
C756 H750 0.930 . S
C756 C757 1.367 . S
C756 C764 1.378 . S
C757 C756 1.367 . S
C757 C765 1.433 . S
C758 H754 0.929 . S
C758 C760 1.378 . S
C758 C762 1.350 . S
C759 C762 1.463 . S
C759 C764 1.350 . S
C759 N767 1.427 . S
C760 H751 0.930 . S
C760 C758 1.378 . S
C760 C761 1.367 . S
C761 C760 1.367 . S
C761 C763 1.433 . S
C762 C758 1.350 . S
C762 C759 1.463 . S
C762 N766 1.427 . S
C763 H753 0.929 . S
C763 C761 1.433 . S
C763 N766 1.384 . S
C764 H755 0.929 . S
C764 C756 1.378 . S
C764 C759 1.350 . S
C765 H752 0.929 1_545 S
C765 C757 1.433 . S
C765 N767 1.384 . S
N766 C762 1.427 . S
N766 C763 1.384 . S
N767 C759 1.427 . S
N767 C765 1.384 . S
H768 C774 0.930 . S
H769 C778 0.930 . S
H770 C783 0.929 1_545 S
H771 C781 0.929 . S
H772 C776 0.929 . S
H773 C782 0.929 . S
C774 H768 0.930 . S
C774 C775 1.367 . S
C774 C782 1.378 . S
C775 C774 1.367 . S
C775 C783 1.433 . S
C776 H772 0.929 . S
C776 C778 1.378 . S
C776 C780 1.350 . S
C777 C780 1.463 . S
C777 C782 1.350 . S
C777 N785 1.427 . S
C778 H769 0.930 . S
C778 C776 1.378 . S
C778 C779 1.367 . S
C779 C778 1.367 . S
C779 C781 1.433 . S
C780 C776 1.350 . S
C780 C777 1.463 . S
C780 N784 1.427 . S
C781 H771 0.929 . S
C781 C779 1.433 . S
C781 N784 1.384 . S
C782 H773 0.929 . S
C782 C774 1.378 . S
C782 C777 1.350 . S
C783 H770 0.929 1_565 S
C783 C775 1.433 . S
C783 N785 1.384 . S
N784 C780 1.427 . S
N784 C781 1.384 . S
N785 C777 1.427 . S
N785 C783 1.384 . S
H786 C792 0.930 . S
H787 C796 0.930 . S
H788 C801 0.929 . S
H789 C799 0.929 . S
H790 C794 0.929 . S
H791 C800 0.929 . S
C792 H786 0.930 . S
C792 C793 1.367 . S
C792 C800 1.378 . S
C793 C792 1.367 . S
C793 C801 1.433 . S
C794 H790 0.929 . S
C794 C796 1.378 . S
C794 C798 1.350 . S
C795 C798 1.463 . S
C795 C800 1.350 . S
C795 N803 1.427 . S
C796 H787 0.930 . S
C796 C794 1.378 . S
C796 C797 1.367 . S
C797 C796 1.367 . S
C797 C799 1.433 . S
C798 C794 1.350 . S
C798 C795 1.463 . S
C798 N802 1.427 . S
C799 H789 0.929 . S
C799 C797 1.433 . S
C799 N802 1.384 . S
C800 H791 0.929 . S
C800 C792 1.378 . S
C800 C795 1.350 . S
C801 H788 0.929 . S
C801 C793 1.433 . S
C801 N803 1.384 . S
N802 C798 1.427 . S
N802 C799 1.384 . S
N803 C795 1.427 . S
N803 C801 1.384 . S
H804 C810 0.930 . S
H805 C814 0.930 . S
H806 C819 0.929 . S
H807 C817 0.929 . S
H808 C812 0.929 . S
H809 C818 0.929 . S
C810 H804 0.930 . S
C810 C811 1.367 . S
C810 C818 1.378 . S
C811 C810 1.367 . S
C811 C819 1.433 . S
C812 H808 0.929 . S
C812 C814 1.378 . S
C812 C816 1.350 . S
C813 C816 1.463 . S
C813 C818 1.350 . S
C813 N821 1.427 . S
C814 H805 0.930 . S
C814 C812 1.378 . S
C814 C815 1.367 . S
C815 C814 1.367 . S
C815 C817 1.433 . S
C816 C812 1.350 . S
C816 C813 1.463 . S
C816 N820 1.427 . S
C817 H807 0.929 . S
C817 C815 1.433 . S
C817 N820 1.384 . S
C818 H809 0.929 . S
C818 C810 1.378 . S
C818 C813 1.350 . S
C819 H806 0.929 . S
C819 C811 1.433 . S
C819 N821 1.384 . S
N820 C816 1.427 . S
N820 C817 1.384 . S
N821 C813 1.427 . S
N821 C819 1.384 . S
H822 C828 0.930 . S
H823 C832 0.930 . S
H824 C837 0.929 . S
H825 C835 0.929 . S
H826 C830 0.929 . S
H827 C836 0.929 . S
C828 H822 0.930 . S
C828 C829 1.367 . S
C828 C836 1.378 . S
C829 C828 1.367 . S
C829 C837 1.433 . S
C830 H826 0.929 . S
C830 C832 1.378 . S
C830 C834 1.350 . S
C831 C834 1.463 . S
C831 C836 1.350 . S
C831 N839 1.427 . S
C832 H823 0.930 . S
C832 C830 1.378 . S
C832 C833 1.367 . S
C833 C832 1.367 . S
C833 C835 1.433 . S
C834 C830 1.350 . S
C834 C831 1.463 . S
C834 N838 1.427 . S
C835 H825 0.929 . S
C835 C833 1.433 . S
C835 N838 1.384 . S
C836 H827 0.929 . S
C836 C828 1.378 . S
C836 C831 1.350 . S
C837 H824 0.929 . S
C837 C829 1.433 . S
C837 N839 1.384 . S
N838 C834 1.427 . S
N838 C835 1.384 . S
N839 C831 1.427 . S
N839 C837 1.384 . S
H840 C846 0.930 . S
H841 C850 0.930 . S
H842 C855 0.929 . S
H843 C853 0.929 . S
H844 C848 0.929 . S
H845 C854 0.929 . S
C846 H840 0.930 . S
C846 C847 1.367 . S
C846 C854 1.378 . S
C847 C846 1.367 . S
C847 C855 1.433 . S
C848 H844 0.929 . S
C848 C850 1.378 . S
C848 C852 1.350 . S
C849 C852 1.463 . S
C849 C854 1.350 . S
C849 N857 1.427 . S
C850 H841 0.930 . S
C850 C848 1.378 . S
C850 C851 1.367 . S
C851 C850 1.367 . S
C851 C853 1.433 . S
C852 C848 1.350 . S
C852 C849 1.463 . S
C852 N856 1.427 . S
C853 H843 0.929 . S
C853 C851 1.433 . S
C853 N856 1.384 . S
C854 H845 0.929 . S
C854 C846 1.378 . S
C854 C849 1.350 . S
C855 H842 0.929 . S
C855 C847 1.433 . S
C855 N857 1.384 . S
N856 C852 1.427 . S
N856 C853 1.384 . S
N857 C849 1.427 . S
N857 C855 1.384 . S
H858 C864 0.930 . S
H859 C868 0.930 . S
H860 C873 0.929 . S
H861 C871 0.929 . S
H862 C866 0.929 . S
H863 C872 0.929 . S
C864 H858 0.930 . S
C864 C865 1.367 . S
C864 C872 1.378 . S
C865 C864 1.367 . S
C865 C873 1.433 . S
C866 H862 0.929 . S
C866 C868 1.378 . S
C866 C870 1.350 . S
C867 C870 1.463 . S
C867 C872 1.350 . S
C867 N875 1.427 . S
C868 H859 0.930 . S
C868 C866 1.378 . S
C868 C869 1.367 . S
C869 C868 1.367 . S
C869 C871 1.433 . S
C870 C866 1.350 . S
C870 C867 1.463 . S
C870 N874 1.427 . S
C871 H861 0.929 . S
C871 C869 1.433 . S
C871 N874 1.384 . S
C872 H863 0.929 . S
C872 C864 1.378 . S
C872 C867 1.350 . S
C873 H860 0.929 . S
C873 C865 1.433 . S
C873 N875 1.384 . S
N874 C870 1.427 . S
N874 C871 1.384 . S
N875 C867 1.427 . S
N875 C873 1.384 . S
H876 C882 0.930 . S
H877 C886 0.930 . S
H878 C891 0.929 . S
H879 C889 0.929 . S
H880 C884 0.929 . S
H881 C890 0.929 . S
C882 H876 0.930 . S
C882 C883 1.367 . S
C882 C890 1.378 . S
C883 C882 1.367 . S
C883 C891 1.433 . S
C884 H880 0.929 . S
C884 C886 1.378 . S
C884 C888 1.350 . S
C885 C888 1.463 . S
C885 C890 1.350 . S
C885 N893 1.427 . S
C886 H877 0.930 . S
C886 C884 1.378 . S
C886 C887 1.367 . S
C887 C886 1.367 . S
C887 C889 1.433 . S
C888 C884 1.350 . S
C888 C885 1.463 . S
C888 N892 1.427 . S
C889 H879 0.929 . S
C889 C887 1.433 . S
C889 N892 1.384 . S
C890 H881 0.929 . S
C890 C882 1.378 . S
C890 C885 1.350 . S
C891 H878 0.929 . S
C891 C883 1.433 . S
C891 N893 1.384 . S
N892 C888 1.427 . S
N892 C889 1.384 . S
N893 C885 1.427 . S
N893 C891 1.384 . S
H894 C900 0.930 . S
H895 C904 0.930 . S
H896 C909 0.929 . S
H897 C907 0.929 . S
H898 C902 0.929 . S
H899 C908 0.929 . S
C900 H894 0.930 . S
C900 C901 1.367 . S
C900 C908 1.378 . S
C901 C900 1.367 . S
C901 C909 1.433 . S
C902 H898 0.929 . S
C902 C904 1.378 . S
C902 C906 1.350 . S
C903 C906 1.463 . S
C903 C908 1.350 . S
C903 N911 1.427 . S
C904 H895 0.930 . S
C904 C902 1.378 . S
C904 C905 1.367 . S
C905 C904 1.367 . S
C905 C907 1.433 . S
C906 C902 1.350 . S
C906 C903 1.463 . S
C906 N910 1.427 . S
C907 H897 0.929 . S
C907 C905 1.433 . S
C907 N910 1.384 . S
C908 H899 0.929 . S
C908 C900 1.378 . S
C908 C903 1.350 . S
C909 H896 0.929 . S
C909 C901 1.433 . S
C909 N911 1.384 . S
N910 C906 1.427 . S
N910 C907 1.384 . S
N911 C903 1.427 . S
N911 C909 1.384 . S
C271 C115 1.138 . S
C275 C5 1.147 . S
C289 C31 1.147 . S
C293 C9 1.140 . S
C307 C49 1.147 . S
C311 C27 1.140 . S
C325 C53 1.135 . S
C329 C75 1.147 . S
C343 C71 1.135 . S
C347 C93 1.147 . S
C361 C119 1.147 . S
C365 C97 1.140 . S
C379 C159 1.140 . S
C383 C137 1.147 . S
C397 C163 1.147 . S
C401 C185 1.132 . S
C415 C203 1.141 . S
C419 C181 1.147 . S
C433 C229 1.138 . S
C437 C207 1.148 . S
C451 C247 1.133 . S
C455 C225 1.147 . S
C469 C141 1.131 . S
C473 C251 1.147 . S
C487 C248 1.360 . S
C491 C4 1.353 . S
C505 C30 1.354 . S
C509 C139 1.361 . S
C523 C160 1.365 . S
C527 C48 1.359 . S
C541 C183 1.368 . S
C545 C74 1.361 . S
C559 C204 1.368 . S
C563 C92 1.360 . S
C577 C118 1.356 . S
C581 C227 1.367 . S
C595 C136 1.355 . S
C599 C28 1.362 . S
C613 C162 1.357 . S
C617 C51 1.363 . S
C631 C72 1.368 . S
C635 C180 1.360 . S
C649 C95 1.361 . S
C653 C206 1.354 . S
C667 C224 1.360 . S
C671 C116 1.367 . S
C685 C250 1.360 . S
C689 C7 1.368 . S
C703 C138 1.158 1_455 S
C707 C6 1.165 1_565 S
C721 C29 1.158 . S
C725 C161 1.165 1_545 S
C739 C182 1.165 . S
C743 C50 1.158 1_455 S
C757 C73 1.175 1_545 S
C761 C205 1.169 1_655 S
C775 C226 1.175 1_565 S
C779 C94 1.166 . S
C793 C249 1.159 . S
C797 C117 1.168 1_655 S
C811 C140 0.935 . S
C815 C8 0.933 . S
C829 C158 0.931 . S
C833 C26 0.929 . S
C847 C184 0.936 . S
C851 C52 0.937 . S
C865 C70 0.930 . S
C869 C202 0.932 . S
C883 C228 0.937 . S
C887 C96 0.937 . S
C901 C246 0.937 . S
C905 C114 0.936 . S
