# Generated by pormake.
# Topology cbo, (4)-cn, num edge types: 1
# Building blocks:
#     Node 0, Type 0, BuildingBlock: QUQFOY_clean_sbu_3, # of connection points: 4
#     Node 1, Type 0, BuildingBlock: QUQFOY_clean_sbu_3, # of connection points: 4
#     Node 2, Type 0, BuildingBlock: QUQFOY_clean_sbu_3, # of connection points: 4
#     Node 3, Type 0, BuildingBlock: QUQFOY_clean_sbu_3, # of connection points: 4
#     Node 4, Type 0, BuildingBlock: QUQFOY_clean_sbu_3, # of connection points: 4
#     Node 5, Type 0, BuildingBlock: QUQFOY_clean_sbu_3, # of connection points: 4
#     Node 6, Type 0, BuildingBlock: QUQFOY_clean_sbu_3, # of connection points: 4
#     Node 7, Type 0, BuildingBlock: QUQFOY_clean_sbu_3, # of connection points: 4
#     Node 8, Type 0, BuildingBlock: QUQFOY_clean_sbu_3, # of connection points: 4
#     Node 9, Type 0, BuildingBlock: QUQFOY_clean_sbu_3, # of connection points: 4
#     Node 10, Type 0, BuildingBlock: QUQFOY_clean_sbu_3, # of connection points: 4
#     Node 11, Type 0, BuildingBlock: QUQFOY_clean_sbu_3, # of connection points: 4
#     Node 12, Type 0, BuildingBlock: QUQFOY_clean_sbu_3, # of connection points: 4
#     Node 13, Type 0, BuildingBlock: QUQFOY_clean_sbu_3, # of connection points: 4
#     Node 14, Type 0, BuildingBlock: QUQFOY_clean_sbu_3, # of connection points: 4
#     Node 15, Type 0, BuildingBlock: QUQFOY_clean_sbu_3, # of connection points: 4
#     Node 16, Type 0, BuildingBlock: QUQFOY_clean_sbu_3, # of connection points: 4
#     Node 17, Type 0, BuildingBlock: QUQFOY_clean_sbu_3, # of connection points: 4
#     Node 18, Type 0, BuildingBlock: QUQFOY_clean_sbu_3, # of connection points: 4
#     Node 19, Type 0, BuildingBlock: QUQFOY_clean_sbu_3, # of connection points: 4
#     Node 20, Type 0, BuildingBlock: QUQFOY_clean_sbu_3, # of connection points: 4
#     Node 21, Type 0, BuildingBlock: QUQFOY_clean_sbu_3, # of connection points: 4
#     Node 22, Type 0, BuildingBlock: QUQFOY_clean_sbu_3, # of connection points: 4
#     Node 23, Type 0, BuildingBlock: QUQFOY_clean_sbu_3, # of connection points: 4
#     Edge 24, Type (0, 0), BuildingBlock: CIFDUS_clean_linker_0, # of connection points: 2
#     Edge 25, Type (0, 0), BuildingBlock: CIFDUS_clean_linker_0, # of connection points: 2
#     Edge 26, Type (0, 0), BuildingBlock: CIFDUS_clean_linker_0, # of connection points: 2
#     Edge 27, Type (0, 0), BuildingBlock: CIFDUS_clean_linker_0, # of connection points: 2
#     Edge 28, Type (0, 0), BuildingBlock: CIFDUS_clean_linker_0, # of connection points: 2
#     Edge 29, Type (0, 0), BuildingBlock: CIFDUS_clean_linker_0, # of connection points: 2
#     Edge 30, Type (0, 0), BuildingBlock: CIFDUS_clean_linker_0, # of connection points: 2
#     Edge 31, Type (0, 0), BuildingBlock: CIFDUS_clean_linker_0, # of connection points: 2
#     Edge 32, Type (0, 0), BuildingBlock: CIFDUS_clean_linker_0, # of connection points: 2
#     Edge 33, Type (0, 0), BuildingBlock: CIFDUS_clean_linker_0, # of connection points: 2
#     Edge 34, Type (0, 0), BuildingBlock: CIFDUS_clean_linker_0, # of connection points: 2
#     Edge 35, Type (0, 0), BuildingBlock: CIFDUS_clean_linker_0, # of connection points: 2
#     Edge 36, Type (0, 0), BuildingBlock: CIFDUS_clean_linker_0, # of connection points: 2
#     Edge 37, Type (0, 0), BuildingBlock: CIFDUS_clean_linker_0, # of connection points: 2
#     Edge 38, Type (0, 0), BuildingBlock: CIFDUS_clean_linker_0, # of connection points: 2
#     Edge 39, Type (0, 0), BuildingBlock: CIFDUS_clean_linker_0, # of connection points: 2
#     Edge 40, Type (0, 0), BuildingBlock: CIFDUS_clean_linker_0, # of connection points: 2
#     Edge 41, Type (0, 0), BuildingBlock: CIFDUS_clean_linker_0, # of connection points: 2
#     Edge 42, Type (0, 0), BuildingBlock: CIFDUS_clean_linker_0, # of connection points: 2
#     Edge 43, Type (0, 0), BuildingBlock: CIFDUS_clean_linker_0, # of connection points: 2
#     Edge 44, Type (0, 0), BuildingBlock: CIFDUS_clean_linker_0, # of connection points: 2
#     Edge 45, Type (0, 0), BuildingBlock: CIFDUS_clean_linker_0, # of connection points: 2
#     Edge 46, Type (0, 0), BuildingBlock: CIFDUS_clean_linker_0, # of connection points: 2
#     Edge 47, Type (0, 0), BuildingBlock: CIFDUS_clean_linker_0, # of connection points: 2
#     Edge 48, Type (0, 0), BuildingBlock: CIFDUS_clean_linker_0, # of connection points: 2
#     Edge 49, Type (0, 0), BuildingBlock: CIFDUS_clean_linker_0, # of connection points: 2
#     Edge 50, Type (0, 0), BuildingBlock: CIFDUS_clean_linker_0, # of connection points: 2
#     Edge 51, Type (0, 0), BuildingBlock: CIFDUS_clean_linker_0, # of connection points: 2
#     Edge 52, Type (0, 0), BuildingBlock: CIFDUS_clean_linker_0, # of connection points: 2
#     Edge 53, Type (0, 0), BuildingBlock: CIFDUS_clean_linker_0, # of connection points: 2
#     Edge 54, Type (0, 0), BuildingBlock: CIFDUS_clean_linker_0, # of connection points: 2
#     Edge 55, Type (0, 0), BuildingBlock: CIFDUS_clean_linker_0, # of connection points: 2
#     Edge 56, Type (0, 0), BuildingBlock: CIFDUS_clean_linker_0, # of connection points: 2
#     Edge 57, Type (0, 0), BuildingBlock: CIFDUS_clean_linker_0, # of connection points: 2
#     Edge 58, Type (0, 0), BuildingBlock: CIFDUS_clean_linker_0, # of connection points: 2
#     Edge 59, Type (0, 0), BuildingBlock: CIFDUS_clean_linker_0, # of connection points: 2
#     Edge 60, Type (0, 0), BuildingBlock: CIFDUS_clean_linker_0, # of connection points: 2
#     Edge 61, Type (0, 0), BuildingBlock: CIFDUS_clean_linker_0, # of connection points: 2
#     Edge 62, Type (0, 0), BuildingBlock: CIFDUS_clean_linker_0, # of connection points: 2
#     Edge 63, Type (0, 0), BuildingBlock: CIFDUS_clean_linker_0, # of connection points: 2
#     Edge 64, Type (0, 0), BuildingBlock: CIFDUS_clean_linker_0, # of connection points: 2
#     Edge 65, Type (0, 0), BuildingBlock: CIFDUS_clean_linker_0, # of connection points: 2
#     Edge 66, Type (0, 0), BuildingBlock: CIFDUS_clean_linker_0, # of connection points: 2
#     Edge 67, Type (0, 0), BuildingBlock: CIFDUS_clean_linker_0, # of connection points: 2
#     Edge 68, Type (0, 0), BuildingBlock: CIFDUS_clean_linker_0, # of connection points: 2
#     Edge 69, Type (0, 0), BuildingBlock: CIFDUS_clean_linker_0, # of connection points: 2
#     Edge 70, Type (0, 0), BuildingBlock: CIFDUS_clean_linker_0, # of connection points: 2
#     Edge 71, Type (0, 0), BuildingBlock: CIFDUS_clean_linker_0, # of connection points: 2
# Relax obj value: 0.193
# Max RMSD: 0.202
# Mean RMSD: 0.197
data_MOF--net-cbo--node1-QUQFOY_clean_sbu_3--edge1-CIFDUS_clean_linker_0
_symmetry_space_group_name_H-M    P1
_symmetry_Int_Tables_number       1
_symmetry_cell_setting            triclinic
loop_
_symmetry_equiv_pos_as_xyz
'x, y, z'
_cell_length_a     47.27188
_cell_length_b     47.888412
_cell_length_c     48.942151
_cell_angle_alpha  89.957553
_cell_angle_beta   89.879637
_cell_angle_gamma 89.57541
loop_
_atom_site_label
_atom_site_type_symbol
_atom_site_fract_x
_atom_site_fract_y
_atom_site_fract_z
_atom_type_partial_charge
C0 C 0.10835 0.23065 0.29142 0.0
O1 O 0.12395 0.23668 0.31162 0.0
Cd2 Cd 0.13486 0.20458 0.34758 0.0
O3 O 0.09489 0.20769 0.29094 0.0
Cd4 Cd 0.0875 0.16728 0.32233 0.0
C5 C 0.15424 0.14789 0.30788 0.0
O6 O 0.09186 0.18868 0.36751 0.0
O7 O 0.09992 0.14436 0.36552 0.0
O8 O 0.03619 0.16891 0.3206 0.0
C9 C 0.09649 0.166 0.38014 0.0
O10 O 0.16139 0.16692 0.32466 0.0
C11 C 0.03321 0.1449 0.31005 0.0
O12 O 0.12833 0.14416 0.30195 0.0
O13 O 0.05565 0.13125 0.30459 0.0
C14 C 0.34616 0.723 0.76662 0.0
O15 O 0.33534 0.70986 0.78657 0.0
Cd16 Cd 0.32069 0.7333 0.82799 0.0
O17 O 0.35349 0.74833 0.76957 0.0
Cd18 Cd 0.35533 0.78317 0.80709 0.0
C19 C 0.28528 0.7891 0.79905 0.0
O20 O 0.35664 0.75845 0.85152 0.0
O21 O 0.33887 0.80026 0.85064 0.0
O22 O 0.40592 0.78879 0.80702 0.0
C23 C 0.34684 0.77934 0.86465 0.0
O24 O 0.28457 0.76654 0.81287 0.0
C25 C 0.40605 0.81368 0.79814 0.0
O26 O 0.30884 0.79982 0.79203 0.0
O27 O 0.38223 0.82476 0.79247 0.0
C28 C 0.62848 0.23434 0.66287 0.0
O29 O 0.6441 0.22786 0.6427 0.0
Cd30 Cd 0.65627 0.2608 0.60792 0.0
O31 O 0.61584 0.25792 0.66345 0.0
Cd32 Cd 0.61005 0.29858 0.63193 0.0
C33 C 0.67582 0.31572 0.6493 0.0
O34 O 0.61475 0.27819 0.58573 0.0
O35 O 0.6245 0.32185 0.5901 0.0
O36 O 0.5592 0.29582 0.63999 0.0
C37 C 0.6204 0.3013 0.57435 0.0
O38 O 0.68298 0.29714 0.63191 0.0
C39 C 0.55552 0.32199 0.6424 0.0
O40 O 0.64987 0.31989 0.65512 0.0
O41 O 0.57729 0.33726 0.64073 0.0
C42 C 0.8455 0.71771 0.17181 0.0
O43 O 0.83372 0.72977 0.15161 0.0
Cd44 Cd 0.8256 0.70702 0.10809 0.0
O45 O 0.85619 0.6934 0.16911 0.0
Cd46 Cd 0.8648 0.65755 0.13376 0.0
C47 C 0.79391 0.64784 0.13401 0.0
O48 O 0.86906 0.68693 0.09279 0.0
O49 O 0.86794 0.64223 0.08666 0.0
O50 O 0.91103 0.6572 0.15478 0.0
C51 C 0.86963 0.66641 0.07634 0.0
O52 O 0.79227 0.67036 0.12019 0.0
C53 C 0.91384 0.63082 0.1548 0.0
O54 O 0.81766 0.63882 0.14281 0.0
O55 O 0.89349 0.61654 0.14541 0.0
C56 C 0.29225 0.09897 0.229 0.0
O57 O 0.3159 0.11097 0.23198 0.0
Cd58 Cd 0.35012 0.11499 0.19648 0.0
O59 O 0.28682 0.08553 0.20713 0.0
Cd60 Cd 0.31192 0.07197 0.16396 0.0
C61 C 0.30467 0.13948 0.14613 0.0
O62 O 0.36036 0.06898 0.18079 0.0
O63 O 0.3557 0.07523 0.13751 0.0
O64 O 0.29415 0.0245 0.17028 0.0
C65 C 0.372 0.07052 0.15752 0.0
O66 O 0.32522 0.14382 0.1624 0.0
C67 C 0.28902 0.02044 0.14515 0.0
O68 O 0.29437 0.11511 0.1435 0.0
O69 O 0.2935 0.04064 0.12893 0.0
C70 C 0.15454 0.84646 0.71447 0.0
O71 O 0.13138 0.83632 0.72295 0.0
Cd72 Cd 0.09169 0.83072 0.69283 0.0
O73 O 0.1563 0.85659 0.69049 0.0
Cd74 Cd 0.12727 0.8669 0.64987 0.0
C75 C 0.12851 0.7973 0.64055 0.0
O76 O 0.08081 0.87403 0.67091 0.0
O77 O 0.08173 0.86577 0.62754 0.0
O78 O 0.14905 0.91205 0.65504 0.0
C79 C 0.06729 0.87164 0.64864 0.0
O80 O 0.11033 0.79684 0.65983 0.0
C81 C 0.15263 0.91647 0.62973 0.0
O82 O 0.1398 0.82021 0.63306 0.0
O83 O 0.14493 0.89747 0.61328 0.0
C84 C 0.81427 0.36123 0.72805 0.0
O85 O 0.83849 0.3504 0.72386 0.0
Cd86 Cd 0.87252 0.34375 0.75926 0.0
O87 O 0.80853 0.3728 0.75089 0.0
Cd88 Cd 0.83299 0.38509 0.79436 0.0
C89 C 0.82654 0.31677 0.80843 0.0
O90 O 0.88224 0.38692 0.78042 0.0
O91 O 0.87487 0.37842 0.82309 0.0
O92 O 0.82613 0.43385 0.78503 0.0
C93 C 0.89247 0.38315 0.80406 0.0
O94 O 0.84705 0.31428 0.79161 0.0
C95 C 0.81461 0.44046 0.80756 0.0
O96 O 0.81521 0.34062 0.81309 0.0
O97 O 0.80967 0.42063 0.82425 0.0
C98 C 0.66461 0.59948 0.22324 0.0
O99 O 0.64192 0.61082 0.21473 0.0
Cd100 Cd 0.60302 0.62078 0.24497 0.0
O101 O 0.66628 0.59052 0.24768 0.0
Cd102 Cd 0.6367 0.58453 0.28882 0.0
C103 C 0.6406 0.65407 0.2963 0.0
O104 O 0.58965 0.57944 0.26879 0.0
O105 O 0.5919 0.59041 0.31154 0.0
O106 O 0.65456 0.53729 0.28617 0.0
C107 C 0.57679 0.58403 0.29117 0.0
O108 O 0.62265 0.65486 0.2769 0.0
C109 C 0.65759 0.53398 0.31169 0.0
O110 O 0.65113 0.63087 0.30436 0.0
O111 O 0.65185 0.55467 0.32704 0.0
C112 C 0.23046 0.28321 0.10803 0.0
O113 O 0.23418 0.30603 0.1207 0.0
Cd114 Cd 0.1974 0.3406 0.12611 0.0
O115 O 0.20778 0.27917 0.09463 0.0
Cd116 Cd 0.16368 0.30385 0.0813 0.0
C117 C 0.14453 0.29508 0.14716 0.0
O118 O 0.17791 0.35286 0.08306 0.0
O119 O 0.13315 0.34459 0.08517 0.0
O120 O 0.17378 0.29545 0.03352 0.0
C121 C 0.15284 0.36244 0.0846 0.0
O122 O 0.16156 0.31503 0.15193 0.0
C123 C 0.15083 0.28302 0.02812 0.0
O124 O 0.14187 0.28519 0.12308 0.0
O125 O 0.13365 0.27953 0.04787 0.0
C126 C 0.7321 0.18837 0.8544 0.0
O127 O 0.74145 0.16656 0.84262 0.0
Cd128 Cd 0.71035 0.12817 0.83285 0.0
O129 O 0.70753 0.18846 0.86507 0.0
Cd130 Cd 0.66834 0.15572 0.87425 0.0
C131 C 0.65387 0.16749 0.80832 0.0
O132 O 0.68945 0.10822 0.87269 0.0
O133 O 0.64465 0.11226 0.86487 0.0
O134 O 0.67596 0.16736 0.92194 0.0
C135 C 0.66593 0.09634 0.86819 0.0
O136 O 0.67398 0.15004 0.80438 0.0
C137 C 0.65006 0.17124 0.92777 0.0
O138 O 0.6474 0.17544 0.83244 0.0
O139 O 0.63231 0.16853 0.90845 0.0
C140 C 0.72756 0.78229 0.35357 0.0
O141 O 0.71978 0.80532 0.34301 0.0
Cd142 Cd 0.7529 0.84298 0.33576 0.0
O143 O 0.75205 0.77982 0.36401 0.0
Cd144 Cd 0.79438 0.8069 0.37465 0.0
C145 C 0.80572 0.80152 0.30673 0.0
O146 O 0.77917 0.85585 0.37509 0.0
O147 O 0.8237 0.84704 0.36844 0.0
O148 O 0.78307 0.80088 0.42193 0.0
C149 C 0.80406 0.86506 0.37117 0.0
O150 O 0.78691 0.82069 0.30546 0.0
C151 C 0.80613 0.78933 0.4291 0.0
O152 O 0.81229 0.79019 0.32959 0.0
O153 O 0.82428 0.78456 0.4103 0.0
C154 C 0.21772 0.66579 0.59091 0.0
O155 O 0.2096 0.64393 0.60326 0.0
Cd156 Cd 0.24108 0.60466 0.61074 0.0
O157 O 0.24163 0.66614 0.57897 0.0
Cd158 Cd 0.28152 0.63488 0.56772 0.0
C159 C 0.29925 0.64198 0.63396 0.0
O160 O 0.2626 0.58736 0.57025 0.0
O161 O 0.30786 0.59224 0.57492 0.0
O162 O 0.26818 0.63757 0.52071 0.0
C163 C 0.28682 0.57601 0.57331 0.0
O164 O 0.27917 0.6247 0.63744 0.0
C165 C 0.291 0.64774 0.51153 0.0
O166 O 0.30462 0.65203 0.61028 0.0
O167 O 0.31017 0.65339 0.52895 0.0
C168 C 0.80971 0.85792 0.6839 0.0
O169 O 0.8314 0.86653 0.69657 0.0
Cd170 Cd 0.8782 0.8475 0.69068 0.0
O171 O 0.81213 0.83929 0.6654 0.0
Cd172 Cd 0.8496 0.81139 0.64182 0.0
C173 C 0.86097 0.7784 0.70236 0.0
O174 O 0.88696 0.8466 0.64286 0.0
O175 O 0.89896 0.80517 0.62949 0.0
O176 O 0.82183 0.82252 0.60153 0.0
C177 C 0.90596 0.83026 0.63372 0.0
O178 O 0.87353 0.80063 0.70964 0.0
C179 C 0.82552 0.79917 0.58974 0.0
O180 O 0.84908 0.77675 0.67902 0.0
O181 O 0.83959 0.7807 0.6026 0.0
C182 C 0.63536 0.10214 0.17001 0.0
O183 O 0.6169 0.09137 0.18561 0.0
Cd184 Cd 0.56845 0.10739 0.1877 0.0
O185 O 0.6282 0.12081 0.15276 0.0
Cd186 Cd 0.58501 0.14528 0.13661 0.0
C187 C 0.58017 0.17756 0.19838 0.0
O188 O 0.54871 0.10964 0.14299 0.0
O189 O 0.53438 0.15209 0.13529 0.0
O190 O 0.5917 0.13228 0.08946 0.0
C191 C 0.52837 0.1265 0.13842 0.0
O192 O 0.57163 0.15402 0.20714 0.0
C193 C 0.59668 0.15658 0.08047 0.0
O194 O 0.58775 0.18054 0.17348 0.0
O195 O 0.59737 0.17634 0.09781 0.0
C196 C 0.32034 0.60246 0.26393 0.0
O197 O 0.34177 0.59341 0.25086 0.0
Cd198 Cd 0.38797 0.61332 0.25422 0.0
O199 O 0.32295 0.62194 0.2815 0.0
Cd200 Cd 0.36032 0.65097 0.30284 0.0
C201 C 0.36851 0.68172 0.24062 0.0
O202 O 0.39805 0.61605 0.30166 0.0
O203 O 0.41015 0.65792 0.31277 0.0
O204 O 0.3353 0.6397 0.34469 0.0
C205 C 0.41723 0.63261 0.30931 0.0
O206 O 0.38104 0.6592 0.23358 0.0
C207 C 0.33833 0.66333 0.356 0.0
O208 O 0.35785 0.68436 0.26449 0.0
O209 O 0.35049 0.68216 0.34203 0.0
C210 C 0.14449 0.33473 0.7787 0.0
O211 O 0.12512 0.34698 0.76519 0.0
Cd212 Cd 0.07698 0.33109 0.76807 0.0
O213 O 0.13833 0.31548 0.79559 0.0
Cd214 Cd 0.09877 0.29023 0.81684 0.0
C215 C 0.09035 0.26114 0.75408 0.0
O216 O 0.06527 0.32904 0.81555 0.0
O217 O 0.04847 0.28912 0.82787 0.0
O218 O 0.12838 0.30098 0.85533 0.0
C219 C 0.04426 0.31493 0.82365 0.0
O220 O 0.08061 0.28495 0.74702 0.0
C221 C 0.12373 0.27881 0.86872 0.0
O222 O 0.09932 0.25695 0.77836 0.0
O223 O 0.10759 0.26088 0.85778 0.0
C224 C 0.65077 0.86935 0.73463 0.0
O225 O 0.6296 0.85533 0.72673 0.0
Cd226 Cd 0.59094 0.84301 0.75673 0.0
O227 O 0.65092 0.88027 0.75834 0.0
Cd228 Cd 0.62076 0.88614 0.79925 0.0
C229 C 0.63219 0.81738 0.81026 0.0
O230 O 0.57247 0.88121 0.78202 0.0
O231 O 0.57939 0.87356 0.8251 0.0
O232 O 0.61859 0.93611 0.79555 0.0
C233 C 0.5622 0.87478 0.80523 0.0
O234 O 0.61448 0.81427 0.79089 0.0
C235 C 0.63169 0.94171 0.81744 0.0
O236 O 0.64071 0.84167 0.8172 0.0
O237 O 0.64098 0.92109 0.83134 0.0
C238 C 0.78392 0.08258 0.23976 0.0
O239 O 0.80267 0.09859 0.22994 0.0
Cd240 Cd 0.83927 0.11816 0.25868 0.0
O241 O 0.78552 0.07457 0.26448 0.0
Cd242 Cd 0.81551 0.07822 0.30519 0.0
C243 C 0.79578 0.14552 0.30911 0.0
O244 O 0.86346 0.08538 0.28742 0.0
O245 O 0.85469 0.09834 0.32905 0.0
O246 O 0.8219 0.02868 0.31038 0.0
C247 C 0.87252 0.09543 0.30981 0.0
O248 O 0.81298 0.14892 0.28931 0.0
C249 C 0.80712 0.02613 0.33188 0.0
O250 O 0.79059 0.12118 0.31844 0.0
O251 O 0.7958 0.04821 0.34155 0.0
C252 C 0.16051 0.58972 0.21864 0.0
O253 O 0.139 0.60313 0.22729 0.0
Cd254 Cd 0.09784 0.61252 0.19956 0.0
O255 O 0.16048 0.57887 0.19489 0.0
Cd256 Cd 0.12972 0.57311 0.15466 0.0
C257 C 0.13245 0.64346 0.14517 0.0
O258 O 0.08376 0.571 0.17703 0.0
O259 O 0.08364 0.57578 0.13303 0.0
O260 O 0.1362 0.52333 0.15447 0.0
C261 C 0.06972 0.57279 0.15501 0.0
O262 O 0.11569 0.64487 0.16556 0.0
C263 C 0.14784 0.52163 0.13116 0.0
O264 O 0.14243 0.61999 0.13713 0.0
O265 O 0.15265 0.5444 0.11861 0.0
C266 C 0.29418 0.35591 0.70981 0.0
O267 O 0.31198 0.33861 0.71961 0.0
Cd268 Cd 0.35298 0.32212 0.69477 0.0
O269 O 0.29841 0.36708 0.68657 0.0
Cd270 Cd 0.3331 0.3687 0.64905 0.0
C271 C 0.31751 0.30061 0.6366 0.0
O272 O 0.3759 0.36122 0.67531 0.0
O273 O 0.3806 0.35938 0.63134 0.0
O274 O 0.33424 0.41883 0.65148 0.0
C275 C 0.39198 0.35802 0.65477 0.0
O276 O 0.33186 0.29531 0.65803 0.0
C277 C 0.3242 0.42347 0.62789 0.0
O278 O 0.31312 0.32576 0.62885 0.0
O279 O 0.31745 0.40235 0.61361 0.0
C280 C 0.72576 0.68785 0.85624 0.0
O281 O 0.71578 0.66649 0.84442 0.0
Cd282 Cd 0.74576 0.62764 0.83247 0.0
O283 O 0.75069 0.6872 0.86601 0.0
Cd284 Cd 0.79002 0.65336 0.87335 0.0
C285 C 0.80143 0.66658 0.80678 0.0
O286 O 0.76708 0.6073 0.87208 0.0
O287 O 0.8117 0.60863 0.86266 0.0
O288 O 0.78555 0.66627 0.92112 0.0
C289 C 0.78977 0.59406 0.86658 0.0
O290 O 0.78075 0.65014 0.80273 0.0
C291 C 0.8118 0.66945 0.92538 0.0
O292 O 0.8092 0.67265 0.831 0.0
O293 O 0.82842 0.6652 0.90531 0.0
C294 C 0.22088 0.77504 0.09861 0.0
O295 O 0.21345 0.79519 0.114 0.0
Cd296 Cd 0.24349 0.83425 0.12431 0.0
O297 O 0.24381 0.77624 0.08497 0.0
Cd298 Cd 0.28284 0.80912 0.07518 0.0
C299 C 0.30309 0.79516 0.14052 0.0
O300 O 0.25975 0.85428 0.08297 0.0
O301 O 0.30549 0.8543 0.07977 0.0
O302 O 0.27142 0.80625 0.02743 0.0
C303 C 0.28262 0.86802 0.08274 0.0
O304 O 0.28273 0.81126 0.14748 0.0
C305 C 0.29542 0.79764 0.01919 0.0
O306 O 0.30779 0.78955 0.11537 0.0
O307 O 0.31412 0.79304 0.03739 0.0
C308 C 0.23866 0.15866 0.60902 0.0
O309 O 0.2423 0.13732 0.62409 0.0
Cd310 Cd 0.20692 0.10278 0.63305 0.0
O311 O 0.21601 0.16159 0.59519 0.0
Cd312 Cd 0.17238 0.13442 0.58574 0.0
C313 C 0.15272 0.14789 0.65138 0.0
O314 O 0.19001 0.08652 0.59037 0.0
O315 O 0.14455 0.09201 0.58897 0.0
O316 O 0.18228 0.13738 0.53755 0.0
C317 C 0.16567 0.07555 0.58948 0.0
O318 O 0.17076 0.1291 0.65775 0.0
C319 C 0.1587 0.14797 0.53056 0.0
O320 O 0.14927 0.15515 0.62647 0.0
O321 O 0.1415 0.15423 0.54969 0.0
C322 C 0.71902 0.29122 0.33195 0.0
O323 O 0.72255 0.31215 0.31637 0.0
Cd324 Cd 0.68714 0.34719 0.30855 0.0
O325 O 0.69681 0.28916 0.34661 0.0
Cd326 Cd 0.65332 0.31607 0.35791 0.0
C327 C 0.63336 0.30149 0.29251 0.0
O328 O 0.67305 0.36206 0.35282 0.0
O329 O 0.62762 0.36107 0.35685 0.0
O330 O 0.66434 0.31036 0.40563 0.0
C331 C 0.64997 0.37546 0.35491 0.0
O332 O 0.65102 0.32001 0.2851 0.0
C333 C 0.64095 0.29964 0.41263 0.0
O334 O 0.6302 0.2954 0.31774 0.0
O335 O 0.62309 0.29518 0.39374 0.0
H336 H 0.14073 0.31483 0.19891 0.0
H337 H 0.11543 0.24563 0.14828 0.0
H338 H 0.09799 0.22096 0.18866 0.0
H339 H 0.09569 0.21669 0.23887 0.0
H340 H 0.12345 0.28532 0.28903 0.0
H341 H 0.13381 0.31268 0.24824 0.0
C342 C 0.13111 0.29448 0.19658 0.0
C343 C 0.12984 0.28192 0.17062 0.0
C344 C 0.12168 0.28023 0.21987 0.0
C345 C 0.11687 0.25573 0.16802 0.0
C346 C 0.10698 0.24156 0.19113 0.0
C347 C 0.10338 0.23787 0.24087 0.0
C348 C 0.10906 0.24884 0.26697 0.0
C349 C 0.11009 0.25325 0.21726 0.0
C350 C 0.11915 0.27628 0.26919 0.0
C351 C 0.12517 0.29192 0.24587 0.0
H352 H 0.33682 0.66867 0.75362 0.0
H353 H 0.35514 0.74864 0.71726 0.0
H354 H 0.3458 0.72965 0.67187 0.0
H355 H 0.32591 0.69192 0.64317 0.0
H356 H 0.30678 0.61263 0.68062 0.0
H357 H 0.32323 0.62964 0.72456 0.0
C358 C 0.33928 0.68186 0.73576 0.0
C359 C 0.34626 0.71014 0.73898 0.0
C360 C 0.33343 0.67097 0.70976 0.0
C361 C 0.34966 0.7268 0.71548 0.0
C362 C 0.34415 0.71599 0.68945 0.0
C363 C 0.326 0.67822 0.66082 0.0
C364 C 0.3147 0.6512 0.65866 0.0
C365 C 0.33506 0.68834 0.68641 0.0
C366 C 0.31494 0.63368 0.68177 0.0
C367 C 0.32433 0.64338 0.70698 0.0
H368 H 0.61045 0.24673 0.71459 0.0
H369 H 0.6458 0.18004 0.66561 0.0
H370 H 0.6533 0.15196 0.70651 0.0
H371 H 0.65554 0.14873 0.75619 0.0
H372 H 0.62214 0.21572 0.80589 0.0
H373 H 0.60769 0.24104 0.76469 0.0
C374 C 0.61926 0.22583 0.71281 0.0
C375 C 0.62791 0.21569 0.68706 0.0
C376 C 0.62412 0.20994 0.73656 0.0
C377 C 0.63925 0.18853 0.68516 0.0
C378 C 0.64361 0.17245 0.70856 0.0
C379 C 0.64475 0.16871 0.75809 0.0
C380 C 0.64035 0.18051 0.7841 0.0
C381 C 0.63706 0.18334 0.73439 0.0
C382 C 0.62591 0.20619 0.78614 0.0
C383 C 0.61779 0.22076 0.76256 0.0
H384 H 0.83154 0.7714 0.18432 0.0
H385 H 0.85763 0.69349 0.22115 0.0
H386 H 0.85056 0.71333 0.26662 0.0
H387 H 0.83224 0.75148 0.29594 0.0
H388 H 0.80618 0.82907 0.25831 0.0
H389 H 0.81828 0.81079 0.21346 0.0
C390 C 0.83598 0.75882 0.20227 0.0
C391 C 0.84473 0.7309 0.19924 0.0
C392 C 0.83174 0.77028 0.22838 0.0
C393 C 0.85073 0.71504 0.2228 0.0
C394 C 0.84661 0.72634 0.24888 0.0
C395 C 0.82974 0.76454 0.27798 0.0
C396 C 0.81791 0.79145 0.28055 0.0
C397 C 0.83645 0.75375 0.25194 0.0
C398 C 0.81484 0.80811 0.25699 0.0
C399 C 0.82173 0.79768 0.23123 0.0
H400 H 0.23598 0.08726 0.225 0.0
H401 H 0.29816 0.12193 0.27962 0.0
H402 H 0.26075 0.13771 0.31033 0.0
H403 H 0.21051 0.14648 0.319 0.0
H404 H 0.14803 0.11295 0.26407 0.0
H405 H 0.18544 0.09169 0.23641 0.0
C406 C 0.24139 0.09779 0.24387 0.0
C407 C 0.26986 0.10372 0.24975 0.0
C408 C 0.2197 0.10732 0.26128 0.0
C409 C 0.27644 0.11733 0.27438 0.0
C410 C 0.25504 0.12646 0.29196 0.0
C411 C 0.20501 0.13426 0.30116 0.0
C412 C 0.17651 0.13171 0.29342 0.0
C413 C 0.2266 0.12237 0.28516 0.0
C414 C 0.1698 0.11544 0.27043 0.0
C415 C 0.19119 0.10332 0.25453 0.0
H416 H 0.27754 0.82965 0.76054 0.0
H417 H 0.23212 0.77641 0.81648 0.0
H418 H 0.18728 0.79223 0.79734 0.0
H419 H 0.16123 0.8172 0.76167 0.0
H420 H 0.2065 0.869 0.70437 0.0
H421 H 0.25095 0.85805 0.72739 0.0
C422 C 0.25783 0.82182 0.76881 0.0
C423 C 0.25826 0.80159 0.78966 0.0
C424 C 0.23202 0.83063 0.75738 0.0
C425 C 0.23247 0.79173 0.80019 0.0
C426 C 0.20676 0.80077 0.78927 0.0
C427 C 0.18072 0.8265 0.75447 0.0
C428 C 0.18052 0.84363 0.73114 0.0
C429 C 0.20631 0.81962 0.76738 0.0
C430 C 0.20603 0.85553 0.72215 0.0
C431 C 0.23152 0.84923 0.73525 0.0
H432 H 0.75786 0.37255 0.73342 0.0
H433 H 0.81985 0.34008 0.67653 0.0
H434 H 0.78224 0.32541 0.64591 0.0
H435 H 0.73199 0.3171 0.63766 0.0
H436 H 0.66975 0.34856 0.69476 0.0
H437 H 0.70725 0.36851 0.72271 0.0
C438 C 0.76319 0.36272 0.7141 0.0
C439 C 0.79168 0.35711 0.70752 0.0
C440 C 0.74141 0.35385 0.69672 0.0
C441 C 0.79813 0.34444 0.68231 0.0
C442 C 0.77662 0.33594 0.66477 0.0
C443 C 0.72656 0.32856 0.65607 0.0
C444 C 0.69811 0.33094 0.66429 0.0
C445 C 0.74821 0.33974 0.67218 0.0
C446 C 0.69148 0.34623 0.68801 0.0
C447 C 0.71293 0.3576 0.70407 0.0
H448 H 0.78695 0.60967 0.1747 0.0
H449 H 0.74095 0.65624 0.1134 0.0
H450 H 0.69624 0.64192 0.13372 0.0
H451 H 0.67058 0.62198 0.1725 0.0
H452 H 0.71661 0.57722 0.23505 0.0
H453 H 0.76078 0.58472 0.2104 0.0
C454 C 0.76715 0.61618 0.16541 0.0
C455 C 0.76733 0.63437 0.14284 0.0
C456 C 0.74146 0.60849 0.17763 0.0
C457 C 0.74145 0.64253 0.13102 0.0
C458 C 0.71583 0.63442 0.14266 0.0
C459 C 0.69018 0.61342 0.18053 0.0
C460 C 0.69029 0.59951 0.20585 0.0
C461 C 0.71562 0.61832 0.16658 0.0
C462 C 0.7159 0.58833 0.21578 0.0
C463 C 0.74123 0.59265 0.20172 0.0
H464 H 0.31866 0.19438 0.15001 0.0
H465 H 0.25983 0.13873 0.11082 0.0
H466 H 0.23361 0.17869 0.09268 0.0
H467 H 0.22448 0.22914 0.09209 0.0
H468 H 0.28219 0.28467 0.13295 0.0
H469 H 0.31193 0.24498 0.14591 0.0
C470 C 0.30032 0.19092 0.13721 0.0
C471 C 0.29107 0.16353 0.13211 0.0
C472 C 0.28502 0.21399 0.12723 0.0
C473 C 0.26734 0.15954 0.1153 0.0
C474 C 0.25228 0.1824 0.10493 0.0
C475 C 0.24381 0.23268 0.10342 0.0
C476 C 0.25088 0.25988 0.11177 0.0
C477 C 0.26049 0.2097 0.11138 0.0
C478 C 0.27608 0.26397 0.12641 0.0
C479 C 0.29308 0.24126 0.13393 0.0
H480 H 0.77762 0.31071 0.83809 0.0
H481 H 0.84899 0.26432 0.80594 0.0
H482 H 0.82728 0.22069 0.81972 0.0
H483 H 0.78616 0.19526 0.8366 0.0
H484 H 0.71441 0.24097 0.86864 0.0
H485 H 0.73831 0.28503 0.85959 0.0
C486 C 0.78861 0.2911 0.83447 0.0
C487 C 0.81472 0.29092 0.82059 0.0
C488 C 0.77587 0.2658 0.84227 0.0
C489 C 0.8287 0.26522 0.81624 0.0
C490 C 0.81631 0.24014 0.82411 0.0
C491 C 0.77587 0.21482 0.84196 0.0
C492 C 0.74838 0.21472 0.85297 0.0
C493 C 0.78958 0.24013 0.83645 0.0
C494 C 0.73553 0.24034 0.86003 0.0
C495 C 0.74913 0.26562 0.85474 0.0
H496 H 0.67961 0.77637 0.32338 0.0
H497 H 0.73626 0.73109 0.3768 0.0
H498 H 0.71276 0.68748 0.36549 0.0
H499 H 0.6796 0.66154 0.33668 0.0
H500 H 0.62372 0.70688 0.28251 0.0
H501 H 0.64335 0.75093 0.29803 0.0
C502 C 0.68649 0.75706 0.33297 0.0
C503 C 0.70989 0.75703 0.35065 0.0
C504 C 0.67326 0.7319 0.32597 0.0
C505 C 0.71846 0.73175 0.36291 0.0
C506 C 0.7051 0.70673 0.35639 0.0
C507 C 0.67149 0.68105 0.32847 0.0
C508 C 0.65049 0.68076 0.30816 0.0
C509 C 0.68306 0.70643 0.3373 0.0
C510 C 0.64007 0.70634 0.29797 0.0
C511 C 0.65129 0.73163 0.30682 0.0
H512 H 0.17123 0.78855 0.60379 0.0
H513 H 0.10814 0.74523 0.65129 0.0
H514 H 0.12849 0.70049 0.63777 0.0
H515 H 0.16706 0.67377 0.61656 0.0
H516 H 0.23069 0.71694 0.56965 0.0
H517 H 0.20702 0.76139 0.57858 0.0
C518 C 0.16166 0.76934 0.61087 0.0
C519 C 0.13843 0.77038 0.62887 0.0
C520 C 0.17368 0.74354 0.60329 0.0
C521 C 0.12622 0.74518 0.63766 0.0
C522 C 0.13787 0.7195 0.62998 0.0
C523 C 0.17556 0.69283 0.60794 0.0
C524 C 0.20085 0.69196 0.59278 0.0
C525 C 0.16206 0.71844 0.61344 0.0
C526 C 0.21138 0.71692 0.5816 0.0
C527 C 0.1979 0.74243 0.58675 0.0
H528 H 0.84434 0.70433 0.80712 0.0
H529 H 0.78727 0.66154 0.75286 0.0
H530 H 0.80303 0.69041 0.71483 0.0
H531 H 0.82895 0.73132 0.69812 0.0
H532 H 0.88536 0.77452 0.75274 0.0
H533 H 0.87413 0.74179 0.78918 0.0
C534 C 0.83562 0.70101 0.78692 0.0
C535 C 0.81433 0.68104 0.78305 0.0
C536 C 0.84449 0.71794 0.76512 0.0
C537 C 0.80351 0.67691 0.75659 0.0
C538 C 0.81245 0.69348 0.73476 0.0
C539 C 0.83916 0.73332 0.71784 0.0
C540 C 0.85763 0.75567 0.72271 0.0
C541 C 0.83232 0.71461 0.73896 0.0
C542 C 0.87079 0.75776 0.74841 0.0
C543 C 0.86435 0.73905 0.76936 0.0
H544 H 0.60162 0.22976 0.18945 0.0
H545 H 0.56568 0.17752 0.25237 0.0
H546 H 0.57603 0.21271 0.28664 0.0
H547 H 0.59966 0.25604 0.29966 0.0
H548 H 0.63623 0.30819 0.23706 0.0
H549 H 0.62083 0.27562 0.20198 0.0
C550 C 0.59571 0.22621 0.21058 0.0
C551 C 0.58327 0.20077 0.21825 0.0
C552 C 0.60194 0.24652 0.23041 0.0
C553 C 0.57557 0.19672 0.24578 0.0
C554 C 0.58149 0.21686 0.2655 0.0
C555 C 0.60386 0.26057 0.27833 0.0
C556 C 0.61944 0.2844 0.27116 0.0
C557 C 0.59533 0.24151 0.25818 0.0
C558 C 0.62449 0.28992 0.24331 0.0
C559 C 0.61578 0.27122 0.22315 0.0
H560 H 0.34241 0.73241 0.24682 0.0
H561 H 0.38399 0.68022 0.18681 0.0
H562 H 0.37018 0.71247 0.15068 0.0
H563 H 0.34164 0.75259 0.13534 0.0
H564 H 0.29985 0.80456 0.19542 0.0
H565 H 0.31872 0.77557 0.23203 0.0
C566 C 0.34881 0.72827 0.22591 0.0
C567 C 0.36382 0.70364 0.21961 0.0
C568 C 0.34059 0.7468 0.20505 0.0
C569 C 0.37218 0.69884 0.19235 0.0
C570 C 0.36424 0.71727 0.17157 0.0
C571 C 0.33707 0.7579 0.15644 0.0
C572 C 0.31894 0.78048 0.16247 0.0
C573 C 0.34773 0.74089 0.17756 0.0
C574 C 0.31344 0.78709 0.19004 0.0
C575 C 0.32418 0.77048 0.21108 0.0
H576 H 0.11597 0.19214 0.64728 0.0
H577 H 0.15642 0.13791 0.70619 0.0
H578 H 0.1382 0.16651 0.74341 0.0
H579 H 0.11514 0.20966 0.75919 0.0
H580 H 0.07489 0.26412 0.70037 0.0
H581 H 0.08832 0.23255 0.66351 0.0
C582 C 0.12046 0.18633 0.66825 0.0
C583 C 0.13793 0.1631 0.67376 0.0
C584 C 0.1101 0.20305 0.68974 0.0
C585 C 0.1433 0.15582 0.70118 0.0
C586 C 0.13292 0.17221 0.72259 0.0
C587 C 0.10888 0.21443 0.73839 0.0
C588 C 0.09437 0.23949 0.73266 0.0
C589 C 0.11696 0.19631 0.7171 0.0
C590 C 0.0863 0.24514 0.70549 0.0
C591 C 0.09405 0.22712 0.68429 0.0
H592 H 0.69952 0.89703 0.74546 0.0
H593 H 0.66123 0.84226 0.68628 0.0
H594 H 0.70685 0.83617 0.6635 0.0
H595 H 0.75849 0.84195 0.66372 0.0
H596 H 0.79668 0.89579 0.72382 0.0
H597 H 0.75018 0.90676 0.74267 0.0
C598 C 0.70098 0.88409 0.72732 0.0
C599 C 0.67697 0.86983 0.71787 0.0
C600 C 0.72738 0.88024 0.71461 0.0
C601 C 0.67933 0.85339 0.69415 0.0
C602 C 0.70548 0.84976 0.68117 0.0
C603 C 0.75666 0.8564 0.6807 0.0
C604 C 0.78119 0.86768 0.69254 0.0
C605 C 0.72981 0.86238 0.69174 0.0
C606 C 0.77827 0.88656 0.7144 0.0
C607 C 0.75165 0.89284 0.72527 0.0
H608 H 0.65837 0.06376 0.20473 0.0
H609 H 0.68096 0.12648 0.14531 0.0
H610 H 0.73043 0.12274 0.15893 0.0
H611 H 0.76586 0.10688 0.19235 0.0
H612 H 0.74269 0.04526 0.25267 0.0
H613 H 0.69515 0.04307 0.23372 0.0
C614 C 0.67416 0.07627 0.19439 0.0
C615 C 0.66578 0.09575 0.17439 0.0
C616 C 0.70255 0.0744 0.20265 0.0
C617 C 0.68667 0.1115 0.16098 0.0
C618 C 0.71502 0.10946 0.16882 0.0
C619 C 0.75064 0.09247 0.20094 0.0
C620 C 0.75775 0.07664 0.22421 0.0
C621 C 0.72303 0.09176 0.19034 0.0
C622 C 0.73773 0.05798 0.23498 0.0
C623 C 0.71045 0.05677 0.22422 0.0
H624 H 0.26962 0.61889 0.28546 0.0
H625 H 0.30681 0.56308 0.22587 0.0
H626 H 0.25995 0.55154 0.20886 0.0
H627 H 0.20916 0.56147 0.20724 0.0
H628 H 0.17183 0.6182 0.26586 0.0
H629 H 0.21796 0.62476 0.28715 0.0
C630 C 0.26749 0.60389 0.26902 0.0
C631 C 0.2918 0.59225 0.2567 0.0
C632 C 0.24044 0.59761 0.25901 0.0
C633 C 0.28855 0.57262 0.23559 0.0
C634 C 0.26172 0.56602 0.22577 0.0
C635 C 0.21097 0.57496 0.22493 0.0
C636 C 0.1871 0.58965 0.23463 0.0
C637 C 0.23762 0.57905 0.23677 0.0
C638 C 0.18985 0.60676 0.25782 0.0
C639 C 0.21628 0.61064 0.26994 0.0
H640 H 0.27538 0.33185 0.75685 0.0
H641 H 0.25074 0.39006 0.69364 0.0
H642 H 0.20255 0.39106 0.71139 0.0
H643 H 0.16619 0.37095 0.7412 0.0
H644 H 0.19076 0.31188 0.80369 0.0
H645 H 0.2401 0.31598 0.79 0.0
C646 C 0.25962 0.34514 0.74721 0.0
C647 C 0.26663 0.36047 0.72367 0.0
C648 C 0.23177 0.34527 0.75721 0.0
C649 C 0.24593 0.37778 0.71163 0.0
C650 C 0.21828 0.37832 0.72171 0.0
C651 C 0.18236 0.35929 0.75212 0.0
C652 C 0.17464 0.34079 0.77312 0.0
C653 C 0.21075 0.36142 0.74391 0.0
C654 C 0.19598 0.32605 0.78721 0.0
C655 C 0.22426 0.32833 0.77938 0.0
H656 H 0.67117 0.69589 0.84083 0.0
H657 H 0.74447 0.74012 0.86969 0.0
H658 H 0.72078 0.78471 0.86081 0.0
H659 H 0.68128 0.81107 0.83959 0.0
H660 H 0.60881 0.76588 0.81003 0.0
H661 H 0.63005 0.722 0.82463 0.0
C662 C 0.68186 0.71525 0.84558 0.0
C663 C 0.7097 0.71458 0.85555 0.0
C664 C 0.66833 0.74079 0.84002 0.0
C665 C 0.72306 0.73994 0.86187 0.0
C666 C 0.70958 0.76552 0.85666 0.0
C667 C 0.66996 0.79167 0.83681 0.0
C668 C 0.64371 0.79179 0.8233 0.0
C669 C 0.68252 0.76621 0.84494 0.0
C670 C 0.62927 0.76642 0.81994 0.0
C671 C 0.64137 0.74124 0.8283 0.0
H672 H 0.17699 0.65178 0.1102 0.0
H673 H 0.10967 0.69522 0.15267 0.0
H674 H 0.12949 0.73991 0.13936 0.0
H675 H 0.1687 0.76671 0.12045 0.0
H676 H 0.23659 0.72393 0.07833 0.0
H677 H 0.21355 0.67919 0.08632 0.0
C678 C 0.16638 0.671 0.1161 0.0
C679 C 0.14214 0.67004 0.13282 0.0
C680 C 0.17811 0.69687 0.10865 0.0
C681 C 0.1286 0.69524 0.14015 0.0
C682 C 0.13992 0.7209 0.13257 0.0
C683 C 0.17829 0.74766 0.11265 0.0
C684 C 0.20455 0.74871 0.09918 0.0
C685 C 0.16513 0.72197 0.1176 0.0
C686 C 0.21644 0.7238 0.08891 0.0
C687 C 0.20334 0.69813 0.09358 0.0
H688 H 0.33115 0.24586 0.64069 0.0
H689 H 0.27196 0.30214 0.60181 0.0
H690 H 0.24376 0.26235 0.58667 0.0
H691 H 0.23283 0.21209 0.58993 0.0
H692 H 0.29169 0.15668 0.63066 0.0
H693 H 0.32316 0.19566 0.63943 0.0
C694 C 0.31229 0.24948 0.62857 0.0
C695 C 0.30344 0.27696 0.62277 0.0
C696 C 0.29594 0.22664 0.6205 0.0
C697 C 0.27921 0.28121 0.60665 0.0
C698 C 0.26297 0.25846 0.59815 0.0
C699 C 0.25278 0.20844 0.60028 0.0
C700 C 0.25965 0.1815 0.60997 0.0
C701 C 0.27064 0.23113 0.60577 0.0
C702 C 0.28566 0.1772 0.62326 0.0
C703 C 0.3037 0.1995 0.62833 0.0
H704 H 0.71246 0.23873 0.35243 0.0
H705 H 0.77118 0.2906 0.30804 0.0
H706 H 0.80137 0.25013 0.29929 0.0
H707 H 0.8086 0.1997 0.30014 0.0
H708 H 0.74948 0.14709 0.34304 0.0
H709 H 0.72206 0.18833 0.35672 0.0
C710 C 0.7321 0.24129 0.34124 0.0
C711 C 0.73937 0.26764 0.33064 0.0
C712 C 0.74913 0.21779 0.33577 0.0
C713 C 0.76492 0.27055 0.31621 0.0
C714 C 0.78219 0.24739 0.31113 0.0
C715 C 0.78982 0.19718 0.31265 0.0
C716 C 0.78086 0.17031 0.32019 0.0
C717 C 0.77406 0.22084 0.32011 0.0
C718 C 0.75675 0.16753 0.33681 0.0
C719 C 0.74103 0.19109 0.34457 0.0
H720 H 0.11672 0.17964 0.50712 0.0
H721 H 0.1832 0.12031 0.48845 0.0
H722 H 0.16893 0.11972 0.44074 0.0
H723 H 0.13726 0.13523 0.40427 0.0
H724 H 0.07331 0.19748 0.42099 0.0
H725 H 0.08668 0.19771 0.46944 0.0
C726 C 0.12813 0.16676 0.49253 0.0
C727 C 0.15093 0.15001 0.50136 0.0
C728 C 0.12012 0.16685 0.46482 0.0
C729 C 0.16567 0.13354 0.4822 0.0
C730 C 0.15744 0.13303 0.45489 0.0
C731 C 0.12615 0.1487 0.41859 0.0
C732 C 0.10408 0.16597 0.40933 0.0
C733 C 0.1346 0.1494 0.44602 0.0
C734 C 0.09027 0.18386 0.42784 0.0
C735 C 0.09794 0.18402 0.45547 0.0
H736 H 0.33764 0.76779 -0.00657 0.0
H737 H 0.26642 0.82262 -0.02162 0.0
H738 H 0.2763 0.82181 0.92966 0.0
H739 H 0.30538 0.80664 0.89132 0.0
H740 H 0.37482 0.74939 0.90431 0.0
H741 H 0.36543 0.74987 0.95374 0.0
C742 C 0.3243 0.77944 -0.02059 0.0
C743 C 0.30139 0.79533 -0.01043 0.0
C744 C 0.3298 0.7785 0.95107 0.0
C745 C 0.28411 0.81014 0.97116 0.0
C746 C 0.28978 0.80978 0.94324 0.0
C747 C 0.31851 0.79427 0.90496 0.0
C748 C 0.34096 0.77828 0.89431 0.0
C749 C 0.31262 0.79422 0.93302 0.0
C750 C 0.35745 0.76193 0.91212 0.0
C751 C 0.3521 0.76226 0.94034 0.0
H752 H 0.6638 0.32623 0.45538 0.0
H753 H 0.60283 0.26309 0.43509 0.0
H754 H 0.59174 0.25693 0.48378 0.0
H755 H 0.59906 0.2705 0.53228 0.0
H756 H 0.65737 0.33675 0.55076 0.0
H757 H 0.66985 0.34071 0.50263 0.0
C758 C 0.64824 0.31093 0.4616 0.0
C759 C 0.63437 0.2949 0.44178 0.0
C760 C 0.64143 0.3082 0.48932 0.0
C761 C 0.61384 0.27559 0.45007 0.0
C762 C 0.60751 0.2721 0.47786 0.0
C763 C 0.61452 0.28571 0.52565 0.0
C764 C 0.62733 0.30326 0.545 0.0
C765 C 0.6211 0.28841 0.49769 0.0
C766 C 0.64711 0.32311 0.53624 0.0
C767 C 0.65434 0.32535 0.50873 0.0
H768 H 0.8309 0.6976 0.04953 0.0
H769 H 0.90132 0.64146 0.03712 0.0
H770 H 0.89192 0.64055 -0.01209 0.0
H771 H 0.86027 0.65145 0.94937 0.0
H772 H 0.78607 0.70239 0.96321 0.0
H773 H 0.80021 0.70986 0.01068 0.0
C774 C 0.84454 0.6858 0.03584 0.0
C775 C 0.86698 0.66996 0.04661 0.0
C776 C 0.83802 0.68418 0.00788 0.0
C777 C 0.88411 0.65401 0.02902 0.0
C778 C 0.87863 0.65337 0.00098 0.0
C779 C 0.84754 0.66459 0.96271 0.0
C780 C 0.82225 0.67642 0.95292 0.0
C781 C 0.85515 0.66773 -0.00971 0.0
C782 C 0.80561 0.69301 0.97042 0.0
C783 C 0.81367 0.69727 -0.00247 0.0
H784 H 0.39839 0.10528 0.12266 0.0
H785 H 0.41394 0.04644 0.1877 0.0
H786 H 0.46465 0.05686 0.18601 0.0
H787 H 0.50404 0.08491 0.16765 0.0
H788 H 0.48681 0.14743 0.10633 0.0
H789 H 0.43724 0.13342 0.10481 0.0
C790 C 0.41297 0.09445 0.13617 0.0
C791 C 0.40268 0.07492 0.15507 0.0
C792 C 0.4417 0.10142 0.13585 0.0
C793 C 0.42158 0.06147 0.17292 0.0
C794 C 0.45047 0.06747 0.17199 0.0
C795 C 0.48939 0.09521 0.15383 0.0
C796 C 0.49889 0.11705 0.13705 0.0
C797 C 0.46071 0.08772 0.15379 0.0
C798 C 0.47981 0.13062 0.11948 0.0
C799 C 0.45153 0.1226 0.11857 0.0
H800 H 0.93519 0.86538 0.66648 0.0
H801 H 0.94296 0.81354 0.59483 0.0
H802 H -0.00665 0.82419 0.59167 0.0
H803 H 0.03553 0.84541 0.61102 0.0
H804 H 0.02943 0.89325 0.68546 0.0
H805 H -0.02203 0.88714 0.68587 0.0
C806 C 0.94794 0.85682 0.65 0.0
C807 C 0.93557 0.83889 0.63079 0.0
C808 C -0.02288 0.86213 0.64899 0.0
C809 C 0.9522 0.8274 0.6098 0.0
C810 C -0.01906 0.83345 0.60802 0.0
C811 C 0.02292 0.8548 0.62718 0.0
C812 C 0.03616 0.86984 0.64814 0.0
C813 C -0.00631 0.85037 0.62776 0.0
C814 C 0.01963 0.88155 0.66913 0.0
C815 C -0.00973 0.87805 0.66936 0.0
H816 H 0.02318 0.35911 0.79548 0.0
H817 H 0.00141 0.29786 0.85649 0.0
H818 H 0.95296 0.316 0.85816 0.0
H819 H 0.91606 0.34689 0.83982 0.0
H820 H 0.93644 0.4048 0.77534 0.0
H821 H -0.01373 0.39066 0.77758 0.0
C822 C 0.00787 0.35002 0.80936 0.0
C823 C 0.01573 0.32726 0.82588 0.0
C824 C -0.02015 0.35993 0.80949 0.0
C825 C -0.00429 0.31534 0.84352 0.0
C826 C 0.96806 0.32571 0.84449 0.0
C827 C 0.93154 0.35674 0.82659 0.0
C828 C 0.92279 0.37695 0.80754 0.0
C829 C 0.95979 0.34768 0.82725 0.0
C830 C 0.94283 0.38921 0.79016 0.0
C831 C 0.97124 0.38108 0.79141 0.0
H832 H 0.44445 0.59434 0.27795 0.0
H833 H 0.45637 0.65192 0.34459 0.0
H834 H 0.50667 0.63991 0.34627 0.0
H835 H 0.54741 0.61525 0.32718 0.0
H836 H 0.53709 0.56123 0.25748 0.0
H837 H 0.48583 0.56953 0.25853 0.0
C838 C 0.4581 0.60393 0.29301 0.0
C839 C 0.44694 0.6238 0.31125 0.0
C840 C 0.48715 0.5977 0.29314 0.0
C841 C 0.4647 0.63656 0.33038 0.0
C842 C 0.49337 0.62972 0.33133 0.0
C843 C 0.53392 0.60504 0.31238 0.0
C844 C 0.54586 0.58755 0.29237 0.0
C845 C 0.50485 0.61064 0.31257 0.0
C846 C 0.52825 0.5748 0.27306 0.0
C847 C 0.49903 0.57954 0.27367 0.0
H848 H 0.18673 0.40783 0.07684 0.0
H849 H 0.10609 0.38277 0.11005 0.0
H850 H 0.09785 0.42976 0.12728 0.0
H851 H 0.11417 0.47728 0.13483 0.0
H852 H 0.19261 0.50466 0.09918 0.0
H853 H 0.20118 0.45749 0.08089 0.0
C854 C 0.16729 0.41281 0.08766 0.0
C855 C 0.14716 0.39178 0.09234 0.0
C856 C 0.1624 0.44016 0.0972 0.0
C857 C 0.12192 0.39853 0.10612 0.0
C858 C 0.11721 0.42538 0.11612 0.0
C859 C 0.13315 0.47289 0.12303 0.0
C860 C 0.15299 0.49407 0.11867 0.0
C861 C 0.13744 0.44619 0.11211 0.0
C862 C 0.17716 0.48848 0.10285 0.0
C863 C 0.18204 0.46157 0.09247 0.0
H864 H 0.67331 0.96536 0.84888 0.0
H865 H 0.59573 -0.01608 0.80596 0.0
H866 H 0.59892 0.03277 0.81908 0.0
H867 H 0.6239 0.07046 0.84144 0.0
H868 H 0.70334 0.05428 0.88179 0.0
H869 H 0.69935 0.00436 0.87103 0.0
C870 C 0.65711 -0.01984 0.84258 0.0
C871 C 0.63431 0.97104 0.82649 0.0
C872 C 0.65944 0.00863 0.84965 0.0
C873 C 0.61358 -0.00957 0.8182 0.0
C874 C 0.61533 0.01838 0.82574 0.0
C875 C 0.64032 0.05604 0.84808 0.0
C876 C 0.66379 0.06604 0.86254 0.0
C877 C 0.6382 0.02773 0.84126 0.0
C878 C 0.68503 0.04708 0.87063 0.0
C879 C 0.68273 0.01856 0.86448 0.0
H880 H 0.84312 -0.01735 0.32924 0.0
H881 H 0.76231 0.00764 0.36243 0.0
H882 H 0.75426 0.95979 0.37859 0.0
H883 H 0.76932 0.91007 0.3805 0.0
H884 H 0.85141 0.88678 0.34854 0.0
H885 H 0.85987 0.93477 0.3348 0.0
C886 C 0.82382 -0.02235 0.34018 0.0
C887 C 0.80319 -0.00158 0.34439 0.0
C888 C 0.81953 0.95039 0.34951 0.0
C889 C 0.77848 -0.00811 0.35897 0.0
C890 C 0.77384 0.96455 0.36807 0.0
C891 C 0.78911 0.91561 0.37072 0.0
C892 C 0.80955 0.89481 0.3653 0.0
C893 C 0.79405 0.94349 0.36304 0.0
C894 C 0.83525 0.90232 0.35289 0.0
C895 C 0.84013 0.92977 0.34494 0.0
H896 H 0.28322 0.44566 0.59488 0.0
H897 H 0.35955 0.46589 0.63853 0.0
H898 H 0.35559 0.51443 0.62391 0.0
H899 H 0.32973 0.55142 0.60047 0.0
H900 H 0.25101 0.53332 0.56007 0.0
H901 H 0.25648 0.48368 0.57163 0.0
C902 C 0.29902 0.46075 0.60092 0.0
C903 C 0.32169 0.45232 0.61764 0.0
C904 C 0.2961 0.48895 0.59316 0.0
C905 C 0.34188 0.472 0.62573 0.0
C906 C 0.33965 0.49972 0.61738 0.0
C907 C 0.31386 0.5366 0.59397 0.0
C908 C 0.29011 0.54592 0.57929 0.0
C909 C 0.31674 0.50847 0.60135 0.0
C910 C 0.2695 0.52656 0.5714 0.0
C911 C 0.27263 0.49822 0.57799 0.0
H912 H 0.7746 0.80671 0.47187 0.0
H913 H 0.85088 0.76085 0.45228 0.0
H914 H 0.8619 0.75678 0.5011 0.0
H915 H 0.85169 0.77 0.54914 0.0
H916 H 0.77756 0.81975 0.56711 0.0
H917 H 0.76361 0.8183 0.51911 0.0
C918 C 0.7935 0.7955 0.47819 0.0
C919 C 0.81193 0.78414 0.45843 0.0
C920 C 0.80007 0.79403 0.50606 0.0
C921 C 0.83638 0.76984 0.46707 0.0
C922 C 0.84269 0.76755 0.49498 0.0
C923 C 0.83223 0.78002 0.54252 0.0
C924 C 0.81553 0.79485 0.56154 0.0
C925 C 0.82495 0.78006 0.51463 0.0
C926 C 0.79066 0.80823 0.55277 0.0
C927 C 0.78275 0.80746 0.52536 0.0
H928 H 0.60264 0.1525 0.95227 0.0
H929 H 0.6783 0.19969 0.96724 0.0
H930 H 0.66663 0.20243 0.01596 0.0
H931 H 0.63705 0.18745 0.05501 0.0
H932 H 0.56494 0.13513 0.04008 0.0
H933 H 0.57278 0.13842 -0.00918 0.0
C934 C 0.61624 0.16384 0.96616 0.0
C935 C 0.64113 0.17605 0.95628 0.0
C936 C 0.6101 0.16414 -0.00575 0.0
C937 C 0.65896 0.19018 0.97449 0.0
C938 C 0.65234 0.19167 0.00232 0.0
C939 C 0.6229 0.17719 0.04084 0.0
C940 C 0.60044 0.16117 0.05094 0.0
C941 C 0.62831 0.17816 0.01256 0.0
C942 C 0.58242 0.14751 0.0326 0.0
C943 C 0.58689 0.14938 0.00448 0.0
H944 H 0.29725 0.63656 0.38357 0.0
H945 H 0.3616 0.69903 0.39322 0.0
H946 H 0.3527 0.70034 0.44261 0.0
H947 H 0.32854 0.68098 0.48361 0.0
H948 H 0.26257 0.62021 0.47227 0.0
H949 H 0.27018 0.62101 0.42318 0.0
C950 C 0.30908 0.65072 0.39645 0.0
C951 C 0.33014 0.66751 0.38488 0.0
C952 C 0.30373 0.65147 0.42463 0.0
C953 C 0.34514 0.68597 0.40171 0.0
C954 C 0.34022 0.68657 0.42996 0.0
C955 C 0.31578 0.66809 0.47032 0.0
C956 C 0.29521 0.65039 0.48165 0.0
C957 C 0.31991 0.66897 0.44176 0.0
C958 C 0.27856 0.63404 0.46414 0.0
C959 C 0.28291 0.6344 0.43601 0.0
H960 H 0.18145 0.29368 -0.01736 0.0
H961 H 0.10435 0.25464 0.00975 0.0
H962 H 0.09079 0.24624 0.9622 0.0
H963 H 0.09874 0.25447 0.9128 0.0
H964 H 0.17425 0.29703 0.88682 0.0
H965 H 0.19076 0.29919 0.93397 0.0
C966 C 0.16182 0.28301 -0.02177 0.0
C967 C 0.14385 0.27498 -0.00028 0.0
C968 C 0.15387 0.27893 0.95096 0.0
C969 C 0.11851 0.26116 -0.00643 0.0
C970 C 0.11073 0.25639 0.96638 0.0
C971 C 0.11908 0.26362 0.91751 0.0
C972 C 0.13533 0.27554 0.89648 0.0
C973 C 0.12794 0.26578 0.94488 0.0
C974 C 0.16142 0.28777 0.90275 0.0
C975 C 0.17081 0.2891 0.92969 0.0
H976 H 0.51594 0.88388 0.77278 0.0
H977 H 0.54445 0.83868 0.84409 0.0
H978 H 0.49882 0.81587 0.84781 0.0
H979 H 0.45144 0.80751 0.83031 0.0
H980 H 0.42041 0.85454 0.76138 0.0
H981 H 0.46629 0.87801 0.75721 0.0
C982 C 0.51201 0.86916 0.78917 0.0
C983 C 0.53359 0.86289 0.80803 0.0
C984 C 0.48536 0.85639 0.79156 0.0
C985 C 0.52819 0.84397 0.82936 0.0
C986 C 0.50213 0.8308 0.83146 0.0
C987 C 0.45474 0.82291 0.81436 0.0
C988 C 0.43286 0.82907 0.79594 0.0
C989 C 0.4807 0.83665 0.81258 0.0
C990 C 0.43709 0.84945 0.77572 0.0
C991 C 0.46329 0.86279 0.77333 0.0
H992 H 0.92014 0.0817 0.28092 0.0
H993 H 0.88879 0.13617 0.34454 0.0
H994 H 0.93532 0.15705 0.34916 0.0
H995 H -0.01505 0.15962 0.33577 0.0
H996 H 0.01812 0.10326 0.27477 0.0
H997 H 0.97094 0.08335 0.26841 0.0
C998 C 0.92359 0.09815 0.29573 0.0
C999 C 0.90109 0.10739 0.31233 0.0
C1000 C 0.95069 0.10973 0.29874 0.0
C1001 C 0.90582 0.12857 0.33163 0.0
C1002 C 0.9324 0.1406 0.33425 0.0
C1003 C -0.01817 0.14309 0.32095 0.0
C1004 C 0.00485 0.13306 0.3056 0.0
C1005 C 0.95496 0.13133 0.31798 0.0
C1006 C 0.00063 0.11133 0.2868 0.0
C1007 C 0.97369 0.09996 0.28316 0.0
H1008 H 0.03793 0.6023 0.19073 0.0
H1009 H 0.03291 0.55101 0.11862 0.0
H1010 H -0.01783 0.56094 0.11498 0.0
H1011 H 0.94075 0.58858 0.12922 0.0
H1012 H 0.94768 0.64527 0.19716 0.0
H1013 H -0.00403 0.62875 0.20593 0.0
C1014 C 0.0255 0.59291 0.1746 0.0
C1015 C 0.03881 0.57588 0.15504 0.0
C1016 C -0.00324 0.59988 0.17186 0.0
C1017 C 0.02286 0.5642 0.13385 0.0
C1018 C -0.00604 0.5699 0.13176 0.0
C1019 C 0.95269 0.59677 0.1463 0.0
C1020 C 0.94085 0.61785 0.16269 0.0
C1021 C -0.01914 0.58832 0.1502 0.0
C1022 C 0.95655 0.62892 0.18439 0.0
C1023 C -0.01588 0.61957 0.18932 0.0
H1024 H 0.43703 0.38115 0.63 0.0
H1025 H 0.41303 0.31632 0.68633 0.0
H1026 H 0.46207 0.29936 0.68803 0.0
H1027 H 0.5113 0.30162 0.67125 0.0
H1028 H 0.53604 0.36941 0.61859 0.0
H1029 H 0.48728 0.38692 0.61782 0.0
C1030 C 0.44274 0.36348 0.6428 0.0
C1031 C 0.42174 0.34973 0.6578 0.0
C1032 C 0.471 0.35446 0.64427 0.0
C1033 C 0.42909 0.32712 0.67466 0.0
C1034 C 0.45702 0.31741 0.67554 0.0
C1035 C 0.50595 0.32038 0.65988 0.0
C1036 C 0.52696 0.33413 0.6448 0.0
C1037 C 0.47807 0.33069 0.66012 0.0
C1038 C 0.52009 0.3586 0.63039 0.0
C1039 C 0.49224 0.3685 0.62983 0.0
H1040 H 0.81883 0.57037 0.82552 0.0
H1041 H 0.75999 0.55127 0.89006 0.0
H1042 H 0.76191 0.50152 0.87758 0.0
H1043 H 0.78191 0.46327 0.84869 0.0
H1044 H 0.8379 0.48478 0.78217 0.0
H1045 H 0.8353 0.53369 0.79489 0.0
C1046 C 0.80645 0.55529 0.83689 0.0
C1047 C 0.78968 0.56424 0.85892 0.0
C1048 C 0.80709 0.52715 0.82914 0.0
C1049 C 0.7732 0.5447 0.8731 0.0
C1050 C 0.77432 0.51632 0.86597 0.0
C1051 C 0.79331 0.47874 0.83692 0.0
C1052 C 0.81019 0.47027 0.8146 0.0
C1053 C 0.79139 0.50724 0.84408 0.0
C1054 C 0.82469 0.49061 0.79939 0.0
C1055 C 0.82335 0.51866 0.8067 0.0
H1056 H 0.25487 0.89545 0.12308 0.0
H1057 H 0.3125 0.90743 0.05583 0.0
H1058 H 0.31664 0.957 0.06735 0.0
H1059 H 0.30671 -0.00406 0.09861 0.0
H1060 H 0.25452 -0.01751 0.16962 0.0
H1061 H 0.24512 0.93459 0.15467 0.0
C1062 C 0.26797 0.90912 0.1108 0.0
C1063 C 0.28316 0.89813 0.08853 0.0
C1064 C 0.27128 0.93722 0.11836 0.0
C1065 C 0.3006 0.91566 0.07303 0.0
C1066 C 0.30298 0.94391 0.07962 0.0
C1067 C 0.29291 -0.01739 0.11052 0.0
C1068 C 0.28104 -0.00735 0.13497 0.0
C1069 C 0.2888 0.9548 0.1025 0.0
C1070 C 0.26375 0.9751 0.15066 0.0
C1071 C 0.25845 0.94776 0.14214 0.0
H1072 H 0.12736 0.94997 0.59291 0.0
H1073 H 0.19896 0.94436 0.64695 0.0
H1074 H 0.21135 -0.00714 0.6367 0.0
H1075 H 0.19896 0.03807 0.61582 0.0
H1076 H 0.12356 0.04517 0.56682 0.0
H1077 H 0.11534 -0.00499 0.57151 0.0
C1078 C 0.14602 0.9593 0.60186 0.0
C1079 C 0.16256 0.94378 0.62025 0.0
C1080 C 0.152 -0.01245 0.59707 0.0
C1081 C 0.1862 0.95606 0.63249 0.0
C1082 C 0.19315 -0.01625 0.62677 0.0
C1083 C 0.18096 0.02848 0.60592 0.0
C1084 C 0.16189 0.0451 0.59098 0.0
C1085 C 0.17578 -0.0001 0.60963 0.0
C1086 C 0.1384 0.03268 0.57854 0.0
C1087 C 0.13374 0.00405 0.58117 0.0
H1088 H 0.68901 0.4084 0.33097 0.0
H1089 H 0.60876 0.41104 0.37302 0.0
H1090 H 0.60642 0.46177 0.36702 0.0
H1091 H 0.62541 0.50471 0.34646 0.0
H1092 H 0.7025 0.50078 0.29953 0.0
H1093 H 0.70837 0.45129 0.31121 0.0
C1094 C 0.67117 0.42015 0.33906 0.0
C1095 C 0.64907 0.40612 0.35238 0.0
C1096 C 0.66957 0.44906 0.33476 0.0
C1097 C 0.62591 0.42146 0.36253 0.0
C1098 C 0.62462 0.45042 0.35918 0.0
C1099 C 0.64382 0.49306 0.33945 0.0
C1100 C 0.66383 0.50616 0.32269 0.0
C1101 C 0.64611 0.46437 0.34496 0.0
C1102 C 0.68715 0.49095 0.31283 0.0
C1103 C 0.69034 0.46271 0.31932 0.0
loop_
_geom_bond_atom_site_label_1
_geom_bond_atom_site_label_2
_geom_bond_distance
_geom_bond_site_symmetry_2
_ccdc_geom_bond_type
C0 O1 1.306 . S
C0 O3 1.160 . S
O1 C0 1.306 . S
O1 Cd2 2.228 . S
Cd2 O1 2.228 . S
Cd2 O6 2.273 . S
Cd2 O10 2.277 . S
O3 C0 1.160 . S
O3 Cd4 2.203 . S
Cd4 O3 2.203 . S
Cd4 O6 2.411 . S
Cd4 O7 2.333 . S
Cd4 O8 2.352 . S
Cd4 O12 2.277 . S
Cd4 O13 2.356 . S
C5 O10 1.209 . S
C5 O12 1.226 . S
O6 Cd2 2.273 . S
O6 Cd4 2.411 . S
O6 C9 1.320 . S
O7 Cd4 2.333 . S
O7 C9 1.214 . S
O8 Cd4 2.352 . S
O8 C11 1.258 . S
C9 O6 1.320 . S
C9 O7 1.214 . S
O10 Cd2 2.277 . S
O10 C5 1.209 . S
C11 O8 1.258 . S
C11 O13 1.282 . S
O12 Cd4 2.277 . S
O12 C5 1.226 . S
O13 Cd4 2.356 . S
O13 C11 1.282 . S
C14 O15 1.306 . S
C14 O17 1.160 . S
O15 C14 1.306 . S
O15 Cd16 2.228 . S
Cd16 O15 2.228 . S
Cd16 O20 2.273 . S
Cd16 O24 2.277 . S
O17 C14 1.160 . S
O17 Cd18 2.203 . S
Cd18 O17 2.203 . S
Cd18 O20 2.411 . S
Cd18 O21 2.333 . S
Cd18 O22 2.352 . S
Cd18 O26 2.277 . S
Cd18 O27 2.356 . S
C19 O24 1.209 . S
C19 O26 1.226 . S
O20 Cd16 2.273 . S
O20 Cd18 2.411 . S
O20 C23 1.320 . S
O21 Cd18 2.333 . S
O21 C23 1.214 . S
O22 Cd18 2.352 . S
O22 C25 1.258 . S
C23 O20 1.320 . S
C23 O21 1.214 . S
O24 Cd16 2.277 . S
O24 C19 1.209 . S
C25 O22 1.258 . S
C25 O27 1.282 . S
O26 Cd18 2.277 . S
O26 C19 1.226 . S
O27 Cd18 2.356 . S
O27 C25 1.282 . S
C28 O29 1.306 . S
C28 O31 1.160 . S
O29 C28 1.306 . S
O29 Cd30 2.228 . S
Cd30 O29 2.228 . S
Cd30 O34 2.273 . S
Cd30 O38 2.277 . S
O31 C28 1.160 . S
O31 Cd32 2.203 . S
Cd32 O31 2.203 . S
Cd32 O34 2.411 . S
Cd32 O35 2.333 . S
Cd32 O36 2.352 . S
Cd32 O40 2.277 . S
Cd32 O41 2.356 . S
C33 O38 1.209 . S
C33 O40 1.226 . S
O34 Cd30 2.273 . S
O34 Cd32 2.411 . S
O34 C37 1.320 . S
O35 Cd32 2.333 . S
O35 C37 1.214 . S
O36 Cd32 2.352 . S
O36 C39 1.258 . S
C37 O34 1.320 . S
C37 O35 1.214 . S
O38 Cd30 2.277 . S
O38 C33 1.209 . S
C39 O36 1.258 . S
C39 O41 1.282 . S
O40 Cd32 2.277 . S
O40 C33 1.226 . S
O41 Cd32 2.356 . S
O41 C39 1.282 . S
C42 O43 1.306 . S
C42 O45 1.160 . S
O43 C42 1.306 . S
O43 Cd44 2.228 . S
Cd44 O43 2.228 . S
Cd44 O48 2.273 . S
Cd44 O52 2.277 . S
O45 C42 1.160 . S
O45 Cd46 2.203 . S
Cd46 O45 2.203 . S
Cd46 O48 2.411 . S
Cd46 O49 2.333 . S
Cd46 O50 2.352 . S
Cd46 O54 2.277 . S
Cd46 O55 2.356 . S
C47 O52 1.209 . S
C47 O54 1.226 . S
O48 Cd44 2.273 . S
O48 Cd46 2.411 . S
O48 C51 1.320 . S
O49 Cd46 2.333 . S
O49 C51 1.214 . S
O50 Cd46 2.352 . S
O50 C53 1.258 . S
C51 O48 1.320 . S
C51 O49 1.214 . S
O52 Cd44 2.277 . S
O52 C47 1.209 . S
C53 O50 1.258 . S
C53 O55 1.282 . S
O54 Cd46 2.277 . S
O54 C47 1.226 . S
O55 Cd46 2.356 . S
O55 C53 1.282 . S
C56 O57 1.306 . S
C56 O59 1.160 . S
O57 C56 1.306 . S
O57 Cd58 2.228 . S
Cd58 O57 2.228 . S
Cd58 O62 2.273 . S
Cd58 O66 2.277 . S
O59 C56 1.160 . S
O59 Cd60 2.203 . S
Cd60 O59 2.203 . S
Cd60 O62 2.411 . S
Cd60 O63 2.333 . S
Cd60 O64 2.352 . S
Cd60 O68 2.277 . S
Cd60 O69 2.356 . S
C61 O66 1.209 . S
C61 O68 1.226 . S
O62 Cd58 2.273 . S
O62 Cd60 2.411 . S
O62 C65 1.320 . S
O63 Cd60 2.333 . S
O63 C65 1.214 . S
O64 Cd60 2.352 . S
O64 C67 1.258 . S
C65 O62 1.320 . S
C65 O63 1.214 . S
O66 Cd58 2.277 . S
O66 C61 1.209 . S
C67 O64 1.258 . S
C67 O69 1.282 . S
O68 Cd60 2.277 . S
O68 C61 1.226 . S
O69 Cd60 2.356 . S
O69 C67 1.282 . S
C70 O71 1.306 . S
C70 O73 1.160 . S
O71 C70 1.306 . S
O71 Cd72 2.228 . S
Cd72 O71 2.228 . S
Cd72 O76 2.273 . S
Cd72 O80 2.277 . S
O73 C70 1.160 . S
O73 Cd74 2.203 . S
Cd74 O73 2.203 . S
Cd74 O76 2.411 . S
Cd74 O77 2.333 . S
Cd74 O78 2.352 . S
Cd74 O82 2.277 . S
Cd74 O83 2.356 . S
C75 O80 1.209 . S
C75 O82 1.226 . S
O76 Cd72 2.273 . S
O76 Cd74 2.411 . S
O76 C79 1.320 . S
O77 Cd74 2.333 . S
O77 C79 1.214 . S
O78 Cd74 2.352 . S
O78 C81 1.258 . S
C79 O76 1.320 . S
C79 O77 1.214 . S
O80 Cd72 2.277 . S
O80 C75 1.209 . S
C81 O78 1.258 . S
C81 O83 1.282 . S
O82 Cd74 2.277 . S
O82 C75 1.226 . S
O83 Cd74 2.356 . S
O83 C81 1.282 . S
C84 O85 1.306 . S
C84 O87 1.160 . S
O85 C84 1.306 . S
O85 Cd86 2.228 . S
Cd86 O85 2.228 . S
Cd86 O90 2.273 . S
Cd86 O94 2.277 . S
O87 C84 1.160 . S
O87 Cd88 2.203 . S
Cd88 O87 2.203 . S
Cd88 O90 2.411 . S
Cd88 O91 2.333 . S
Cd88 O92 2.352 . S
Cd88 O96 2.277 . S
Cd88 O97 2.356 . S
C89 O94 1.209 . S
C89 O96 1.226 . S
O90 Cd86 2.273 . S
O90 Cd88 2.411 . S
O90 C93 1.320 . S
O91 Cd88 2.333 . S
O91 C93 1.214 . S
O92 Cd88 2.352 . S
O92 C95 1.258 . S
C93 O90 1.320 . S
C93 O91 1.214 . S
O94 Cd86 2.277 . S
O94 C89 1.209 . S
C95 O92 1.258 . S
C95 O97 1.282 . S
O96 Cd88 2.277 . S
O96 C89 1.226 . S
O97 Cd88 2.356 . S
O97 C95 1.282 . S
C98 O99 1.306 . S
C98 O101 1.160 . S
O99 C98 1.306 . S
O99 Cd100 2.228 . S
Cd100 O99 2.228 . S
Cd100 O104 2.273 . S
Cd100 O108 2.277 . S
O101 C98 1.160 . S
O101 Cd102 2.203 . S
Cd102 O101 2.203 . S
Cd102 O104 2.411 . S
Cd102 O105 2.333 . S
Cd102 O106 2.352 . S
Cd102 O110 2.277 . S
Cd102 O111 2.356 . S
C103 O108 1.209 . S
C103 O110 1.226 . S
O104 Cd100 2.273 . S
O104 Cd102 2.411 . S
O104 C107 1.320 . S
O105 Cd102 2.333 . S
O105 C107 1.214 . S
O106 Cd102 2.352 . S
O106 C109 1.258 . S
C107 O104 1.320 . S
C107 O105 1.214 . S
O108 Cd100 2.277 . S
O108 C103 1.209 . S
C109 O106 1.258 . S
C109 O111 1.282 . S
O110 Cd102 2.277 . S
O110 C103 1.226 . S
O111 Cd102 2.356 . S
O111 C109 1.282 . S
C112 O113 1.306 . S
C112 O115 1.160 . S
O113 C112 1.306 . S
O113 Cd114 2.228 . S
Cd114 O113 2.228 . S
Cd114 O118 2.273 . S
Cd114 O122 2.277 . S
O115 C112 1.160 . S
O115 Cd116 2.203 . S
Cd116 O115 2.203 . S
Cd116 O118 2.411 . S
Cd116 O119 2.333 . S
Cd116 O120 2.352 . S
Cd116 O124 2.277 . S
Cd116 O125 2.356 . S
C117 O122 1.209 . S
C117 O124 1.226 . S
O118 Cd114 2.273 . S
O118 Cd116 2.411 . S
O118 C121 1.320 . S
O119 Cd116 2.333 . S
O119 C121 1.214 . S
O120 Cd116 2.352 . S
O120 C123 1.258 . S
C121 O118 1.320 . S
C121 O119 1.214 . S
O122 Cd114 2.277 . S
O122 C117 1.209 . S
C123 O120 1.258 . S
C123 O125 1.282 . S
O124 Cd116 2.277 . S
O124 C117 1.226 . S
O125 Cd116 2.356 . S
O125 C123 1.282 . S
C126 O127 1.306 . S
C126 O129 1.160 . S
O127 C126 1.306 . S
O127 Cd128 2.228 . S
Cd128 O127 2.228 . S
Cd128 O132 2.273 . S
Cd128 O136 2.277 . S
O129 C126 1.160 . S
O129 Cd130 2.203 . S
Cd130 O129 2.203 . S
Cd130 O132 2.411 . S
Cd130 O133 2.333 . S
Cd130 O134 2.352 . S
Cd130 O138 2.277 . S
Cd130 O139 2.356 . S
C131 O136 1.209 . S
C131 O138 1.226 . S
O132 Cd128 2.273 . S
O132 Cd130 2.411 . S
O132 C135 1.320 . S
O133 Cd130 2.333 . S
O133 C135 1.214 . S
O134 Cd130 2.352 . S
O134 C137 1.258 . S
C135 O132 1.320 . S
C135 O133 1.214 . S
O136 Cd128 2.277 . S
O136 C131 1.209 . S
C137 O134 1.258 . S
C137 O139 1.282 . S
O138 Cd130 2.277 . S
O138 C131 1.226 . S
O139 Cd130 2.356 . S
O139 C137 1.282 . S
C140 O141 1.306 . S
C140 O143 1.160 . S
O141 C140 1.306 . S
O141 Cd142 2.228 . S
Cd142 O141 2.228 . S
Cd142 O146 2.273 . S
Cd142 O150 2.277 . S
O143 C140 1.160 . S
O143 Cd144 2.203 . S
Cd144 O143 2.203 . S
Cd144 O146 2.411 . S
Cd144 O147 2.333 . S
Cd144 O148 2.352 . S
Cd144 O152 2.277 . S
Cd144 O153 2.356 . S
C145 O150 1.209 . S
C145 O152 1.226 . S
O146 Cd142 2.273 . S
O146 Cd144 2.411 . S
O146 C149 1.320 . S
O147 Cd144 2.333 . S
O147 C149 1.214 . S
O148 Cd144 2.352 . S
O148 C151 1.258 . S
C149 O146 1.320 . S
C149 O147 1.214 . S
O150 Cd142 2.277 . S
O150 C145 1.209 . S
C151 O148 1.258 . S
C151 O153 1.282 . S
O152 Cd144 2.277 . S
O152 C145 1.226 . S
O153 Cd144 2.356 . S
O153 C151 1.282 . S
C154 O155 1.306 . S
C154 O157 1.160 . S
O155 C154 1.306 . S
O155 Cd156 2.228 . S
Cd156 O155 2.228 . S
Cd156 O160 2.273 . S
Cd156 O164 2.277 . S
O157 C154 1.160 . S
O157 Cd158 2.203 . S
Cd158 O157 2.203 . S
Cd158 O160 2.411 . S
Cd158 O161 2.333 . S
Cd158 O162 2.352 . S
Cd158 O166 2.277 . S
Cd158 O167 2.356 . S
C159 O164 1.209 . S
C159 O166 1.226 . S
O160 Cd156 2.273 . S
O160 Cd158 2.411 . S
O160 C163 1.320 . S
O161 Cd158 2.333 . S
O161 C163 1.214 . S
O162 Cd158 2.352 . S
O162 C165 1.258 . S
C163 O160 1.320 . S
C163 O161 1.214 . S
O164 Cd156 2.277 . S
O164 C159 1.209 . S
C165 O162 1.258 . S
C165 O167 1.282 . S
O166 Cd158 2.277 . S
O166 C159 1.226 . S
O167 Cd158 2.356 . S
O167 C165 1.282 . S
C168 O169 1.306 . S
C168 O171 1.160 . S
O169 C168 1.306 . S
O169 Cd170 2.228 . S
Cd170 O169 2.228 . S
Cd170 O174 2.273 . S
Cd170 O178 2.277 . S
O171 C168 1.160 . S
O171 Cd172 2.203 . S
Cd172 O171 2.203 . S
Cd172 O174 2.411 . S
Cd172 O175 2.333 . S
Cd172 O176 2.352 . S
Cd172 O180 2.277 . S
Cd172 O181 2.356 . S
C173 O178 1.209 . S
C173 O180 1.226 . S
O174 Cd170 2.273 . S
O174 Cd172 2.411 . S
O174 C177 1.320 . S
O175 Cd172 2.333 . S
O175 C177 1.214 . S
O176 Cd172 2.352 . S
O176 C179 1.258 . S
C177 O174 1.320 . S
C177 O175 1.214 . S
O178 Cd170 2.277 . S
O178 C173 1.209 . S
C179 O176 1.258 . S
C179 O181 1.282 . S
O180 Cd172 2.277 . S
O180 C173 1.226 . S
O181 Cd172 2.356 . S
O181 C179 1.282 . S
C182 O183 1.306 . S
C182 O185 1.160 . S
O183 C182 1.306 . S
O183 Cd184 2.228 . S
Cd184 O183 2.228 . S
Cd184 O188 2.273 . S
Cd184 O192 2.277 . S
O185 C182 1.160 . S
O185 Cd186 2.203 . S
Cd186 O185 2.203 . S
Cd186 O188 2.411 . S
Cd186 O189 2.333 . S
Cd186 O190 2.352 . S
Cd186 O194 2.277 . S
Cd186 O195 2.356 . S
C187 O192 1.209 . S
C187 O194 1.226 . S
O188 Cd184 2.273 . S
O188 Cd186 2.411 . S
O188 C191 1.320 . S
O189 Cd186 2.333 . S
O189 C191 1.214 . S
O190 Cd186 2.352 . S
O190 C193 1.258 . S
C191 O188 1.320 . S
C191 O189 1.214 . S
O192 Cd184 2.277 . S
O192 C187 1.209 . S
C193 O190 1.258 . S
C193 O195 1.282 . S
O194 Cd186 2.277 . S
O194 C187 1.226 . S
O195 Cd186 2.356 . S
O195 C193 1.282 . S
C196 O197 1.306 . S
C196 O199 1.160 . S
O197 C196 1.306 . S
O197 Cd198 2.228 . S
Cd198 O197 2.228 . S
Cd198 O202 2.273 . S
Cd198 O206 2.277 . S
O199 C196 1.160 . S
O199 Cd200 2.203 . S
Cd200 O199 2.203 . S
Cd200 O202 2.411 . S
Cd200 O203 2.333 . S
Cd200 O204 2.352 . S
Cd200 O208 2.277 . S
Cd200 O209 2.356 . S
C201 O206 1.209 . S
C201 O208 1.226 . S
O202 Cd198 2.273 . S
O202 Cd200 2.411 . S
O202 C205 1.320 . S
O203 Cd200 2.333 . S
O203 C205 1.214 . S
O204 Cd200 2.352 . S
O204 C207 1.258 . S
C205 O202 1.320 . S
C205 O203 1.214 . S
O206 Cd198 2.277 . S
O206 C201 1.209 . S
C207 O204 1.258 . S
C207 O209 1.282 . S
O208 Cd200 2.277 . S
O208 C201 1.226 . S
O209 Cd200 2.356 . S
O209 C207 1.282 . S
C210 O211 1.306 . S
C210 O213 1.160 . S
O211 C210 1.306 . S
O211 Cd212 2.228 . S
Cd212 O211 2.228 . S
Cd212 O216 2.273 . S
Cd212 O220 2.277 . S
O213 C210 1.160 . S
O213 Cd214 2.203 . S
Cd214 O213 2.203 . S
Cd214 O216 2.411 . S
Cd214 O217 2.333 . S
Cd214 O218 2.352 . S
Cd214 O222 2.277 . S
Cd214 O223 2.356 . S
C215 O220 1.209 . S
C215 O222 1.226 . S
O216 Cd212 2.273 . S
O216 Cd214 2.411 . S
O216 C219 1.320 . S
O217 Cd214 2.333 . S
O217 C219 1.214 . S
O218 Cd214 2.352 . S
O218 C221 1.258 . S
C219 O216 1.320 . S
C219 O217 1.214 . S
O220 Cd212 2.277 . S
O220 C215 1.209 . S
C221 O218 1.258 . S
C221 O223 1.282 . S
O222 Cd214 2.277 . S
O222 C215 1.226 . S
O223 Cd214 2.356 . S
O223 C221 1.282 . S
C224 O225 1.306 . S
C224 O227 1.160 . S
O225 C224 1.306 . S
O225 Cd226 2.228 . S
Cd226 O225 2.228 . S
Cd226 O230 2.273 . S
Cd226 O234 2.277 . S
O227 C224 1.160 . S
O227 Cd228 2.203 . S
Cd228 O227 2.203 . S
Cd228 O230 2.411 . S
Cd228 O231 2.333 . S
Cd228 O232 2.352 . S
Cd228 O236 2.277 . S
Cd228 O237 2.356 . S
C229 O234 1.209 . S
C229 O236 1.226 . S
O230 Cd226 2.273 . S
O230 Cd228 2.411 . S
O230 C233 1.320 . S
O231 Cd228 2.333 . S
O231 C233 1.214 . S
O232 Cd228 2.352 . S
O232 C235 1.258 . S
C233 O230 1.320 . S
C233 O231 1.214 . S
O234 Cd226 2.277 . S
O234 C229 1.209 . S
C235 O232 1.258 . S
C235 O237 1.282 . S
O236 Cd228 2.277 . S
O236 C229 1.226 . S
O237 Cd228 2.356 . S
O237 C235 1.282 . S
C238 O239 1.306 . S
C238 O241 1.160 . S
O239 C238 1.306 . S
O239 Cd240 2.228 . S
Cd240 O239 2.228 . S
Cd240 O244 2.273 . S
Cd240 O248 2.277 . S
O241 C238 1.160 . S
O241 Cd242 2.203 . S
Cd242 O241 2.203 . S
Cd242 O244 2.411 . S
Cd242 O245 2.333 . S
Cd242 O246 2.352 . S
Cd242 O250 2.277 . S
Cd242 O251 2.356 . S
C243 O248 1.209 . S
C243 O250 1.226 . S
O244 Cd240 2.273 . S
O244 Cd242 2.411 . S
O244 C247 1.320 . S
O245 Cd242 2.333 . S
O245 C247 1.214 . S
O246 Cd242 2.352 . S
O246 C249 1.258 . S
C247 O244 1.320 . S
C247 O245 1.214 . S
O248 Cd240 2.277 . S
O248 C243 1.209 . S
C249 O246 1.258 . S
C249 O251 1.282 . S
O250 Cd242 2.277 . S
O250 C243 1.226 . S
O251 Cd242 2.356 . S
O251 C249 1.282 . S
C252 O253 1.306 . S
C252 O255 1.160 . S
O253 C252 1.306 . S
O253 Cd254 2.228 . S
Cd254 O253 2.228 . S
Cd254 O258 2.273 . S
Cd254 O262 2.277 . S
O255 C252 1.160 . S
O255 Cd256 2.203 . S
Cd256 O255 2.203 . S
Cd256 O258 2.411 . S
Cd256 O259 2.333 . S
Cd256 O260 2.352 . S
Cd256 O264 2.277 . S
Cd256 O265 2.356 . S
C257 O262 1.209 . S
C257 O264 1.226 . S
O258 Cd254 2.273 . S
O258 Cd256 2.411 . S
O258 C261 1.320 . S
O259 Cd256 2.333 . S
O259 C261 1.214 . S
O260 Cd256 2.352 . S
O260 C263 1.258 . S
C261 O258 1.320 . S
C261 O259 1.214 . S
O262 Cd254 2.277 . S
O262 C257 1.209 . S
C263 O260 1.258 . S
C263 O265 1.282 . S
O264 Cd256 2.277 . S
O264 C257 1.226 . S
O265 Cd256 2.356 . S
O265 C263 1.282 . S
C266 O267 1.306 . S
C266 O269 1.160 . S
O267 C266 1.306 . S
O267 Cd268 2.228 . S
Cd268 O267 2.228 . S
Cd268 O272 2.273 . S
Cd268 O276 2.277 . S
O269 C266 1.160 . S
O269 Cd270 2.203 . S
Cd270 O269 2.203 . S
Cd270 O272 2.411 . S
Cd270 O273 2.333 . S
Cd270 O274 2.352 . S
Cd270 O278 2.277 . S
Cd270 O279 2.356 . S
C271 O276 1.209 . S
C271 O278 1.226 . S
O272 Cd268 2.273 . S
O272 Cd270 2.411 . S
O272 C275 1.320 . S
O273 Cd270 2.333 . S
O273 C275 1.214 . S
O274 Cd270 2.352 . S
O274 C277 1.258 . S
C275 O272 1.320 . S
C275 O273 1.214 . S
O276 Cd268 2.277 . S
O276 C271 1.209 . S
C277 O274 1.258 . S
C277 O279 1.282 . S
O278 Cd270 2.277 . S
O278 C271 1.226 . S
O279 Cd270 2.356 . S
O279 C277 1.282 . S
C280 O281 1.306 . S
C280 O283 1.160 . S
O281 C280 1.306 . S
O281 Cd282 2.228 . S
Cd282 O281 2.228 . S
Cd282 O286 2.273 . S
Cd282 O290 2.277 . S
O283 C280 1.160 . S
O283 Cd284 2.203 . S
Cd284 O283 2.203 . S
Cd284 O286 2.411 . S
Cd284 O287 2.333 . S
Cd284 O288 2.352 . S
Cd284 O292 2.277 . S
Cd284 O293 2.356 . S
C285 O290 1.209 . S
C285 O292 1.226 . S
O286 Cd282 2.273 . S
O286 Cd284 2.411 . S
O286 C289 1.320 . S
O287 Cd284 2.333 . S
O287 C289 1.214 . S
O288 Cd284 2.352 . S
O288 C291 1.258 . S
C289 O286 1.320 . S
C289 O287 1.214 . S
O290 Cd282 2.277 . S
O290 C285 1.209 . S
C291 O288 1.258 . S
C291 O293 1.282 . S
O292 Cd284 2.277 . S
O292 C285 1.226 . S
O293 Cd284 2.356 . S
O293 C291 1.282 . S
C294 O295 1.306 . S
C294 O297 1.160 . S
O295 C294 1.306 . S
O295 Cd296 2.228 . S
Cd296 O295 2.228 . S
Cd296 O300 2.273 . S
Cd296 O304 2.277 . S
O297 C294 1.160 . S
O297 Cd298 2.203 . S
Cd298 O297 2.203 . S
Cd298 O300 2.411 . S
Cd298 O301 2.333 . S
Cd298 O302 2.352 . S
Cd298 O306 2.277 . S
Cd298 O307 2.356 . S
C299 O304 1.209 . S
C299 O306 1.226 . S
O300 Cd296 2.273 . S
O300 Cd298 2.411 . S
O300 C303 1.320 . S
O301 Cd298 2.333 . S
O301 C303 1.214 . S
O302 Cd298 2.352 . S
O302 C305 1.258 . S
C303 O300 1.320 . S
C303 O301 1.214 . S
O304 Cd296 2.277 . S
O304 C299 1.209 . S
C305 O302 1.258 . S
C305 O307 1.282 . S
O306 Cd298 2.277 . S
O306 C299 1.226 . S
O307 Cd298 2.356 . S
O307 C305 1.282 . S
C308 O309 1.306 . S
C308 O311 1.160 . S
O309 C308 1.306 . S
O309 Cd310 2.228 . S
Cd310 O309 2.228 . S
Cd310 O314 2.273 . S
Cd310 O318 2.277 . S
O311 C308 1.160 . S
O311 Cd312 2.203 . S
Cd312 O311 2.203 . S
Cd312 O314 2.411 . S
Cd312 O315 2.333 . S
Cd312 O316 2.352 . S
Cd312 O320 2.277 . S
Cd312 O321 2.356 . S
C313 O318 1.209 . S
C313 O320 1.226 . S
O314 Cd310 2.273 . S
O314 Cd312 2.411 . S
O314 C317 1.320 . S
O315 Cd312 2.333 . S
O315 C317 1.214 . S
O316 Cd312 2.352 . S
O316 C319 1.258 . S
C317 O314 1.320 . S
C317 O315 1.214 . S
O318 Cd310 2.277 . S
O318 C313 1.209 . S
C319 O316 1.258 . S
C319 O321 1.282 . S
O320 Cd312 2.277 . S
O320 C313 1.226 . S
O321 Cd312 2.356 . S
O321 C319 1.282 . S
C322 O323 1.306 . S
C322 O325 1.160 . S
O323 C322 1.306 . S
O323 Cd324 2.228 . S
Cd324 O323 2.228 . S
Cd324 O328 2.273 . S
Cd324 O332 2.277 . S
O325 C322 1.160 . S
O325 Cd326 2.203 . S
Cd326 O325 2.203 . S
Cd326 O328 2.411 . S
Cd326 O329 2.333 . S
Cd326 O330 2.352 . S
Cd326 O334 2.277 . S
Cd326 O335 2.356 . S
C327 O332 1.209 . S
C327 O334 1.226 . S
O328 Cd324 2.273 . S
O328 Cd326 2.411 . S
O328 C331 1.320 . S
O329 Cd326 2.333 . S
O329 C331 1.214 . S
O330 Cd326 2.352 . S
O330 C333 1.258 . S
C331 O328 1.320 . S
C331 O329 1.214 . S
O332 Cd324 2.277 . S
O332 C327 1.209 . S
C333 O330 1.258 . S
C333 O335 1.282 . S
O334 Cd326 2.277 . S
O334 C327 1.226 . S
O335 Cd326 2.356 . S
O335 C333 1.282 . S
H336 C342 0.930 . S
H337 C345 0.930 . S
H338 C346 0.930 . S
H339 C347 0.930 . S
H340 C350 0.930 . S
H341 C351 0.930 . S
C342 H336 0.930 . S
C342 C343 1.355 . S
C342 C344 1.415 . S
C343 C342 1.355 . S
C343 C345 1.419 . S
C344 C342 1.415 . S
C344 C349 1.425 . S
C344 C351 1.409 . S
C345 H337 0.930 . S
C345 C343 1.419 . S
C345 C346 1.362 . S
C346 H338 0.930 . S
C346 C345 1.362 . S
C346 C349 1.409 . S
C347 H339 0.930 . S
C347 C348 1.355 . S
C347 C349 1.415 . S
C348 C347 1.355 . S
C348 C350 1.419 . S
C349 C344 1.425 . S
C349 C346 1.409 . S
C349 C347 1.415 . S
C350 H340 0.930 . S
C350 C348 1.419 . S
C350 C351 1.362 . S
C351 H341 0.930 . S
C351 C344 1.409 . S
C351 C350 1.362 . S
H352 C358 0.930 . S
H353 C361 0.930 . S
H354 C362 0.930 . S
H355 C363 0.930 . S
H356 C366 0.930 . S
H357 C367 0.930 . S
C358 H352 0.930 . S
C358 C359 1.355 . S
C358 C360 1.415 . S
C359 C358 1.355 . S
C359 C361 1.419 . S
C360 C358 1.415 . S
C360 C365 1.425 . S
C360 C367 1.409 . S
C361 H353 0.930 . S
C361 C359 1.419 . S
C361 C362 1.362 . S
C362 H354 0.930 . S
C362 C361 1.362 . S
C362 C365 1.409 . S
C363 H355 0.930 . S
C363 C364 1.355 . S
C363 C365 1.415 . S
C364 C363 1.355 . S
C364 C366 1.419 . S
C365 C360 1.425 . S
C365 C362 1.409 . S
C365 C363 1.415 . S
C366 H356 0.930 . S
C366 C364 1.419 . S
C366 C367 1.362 . S
C367 H357 0.930 . S
C367 C360 1.409 . S
C367 C366 1.362 . S
H368 C374 0.930 . S
H369 C377 0.930 . S
H370 C378 0.930 . S
H371 C379 0.930 . S
H372 C382 0.930 . S
H373 C383 0.930 . S
C374 H368 0.930 . S
C374 C375 1.355 . S
C374 C376 1.415 . S
C375 C374 1.355 . S
C375 C377 1.419 . S
C376 C374 1.415 . S
C376 C381 1.425 . S
C376 C383 1.409 . S
C377 H369 0.930 . S
C377 C375 1.419 . S
C377 C378 1.362 . S
C378 H370 0.930 . S
C378 C377 1.362 . S
C378 C381 1.409 . S
C379 H371 0.930 . S
C379 C380 1.355 . S
C379 C381 1.415 . S
C380 C379 1.355 . S
C380 C382 1.419 . S
C381 C376 1.425 . S
C381 C378 1.409 . S
C381 C379 1.415 . S
C382 H372 0.930 . S
C382 C380 1.419 . S
C382 C383 1.362 . S
C383 H373 0.930 . S
C383 C376 1.409 . S
C383 C382 1.362 . S
H384 C390 0.930 . S
H385 C393 0.930 . S
H386 C394 0.930 . S
H387 C395 0.930 . S
H388 C398 0.930 . S
H389 C399 0.930 . S
C390 H384 0.930 . S
C390 C391 1.355 . S
C390 C392 1.415 . S
C391 C390 1.355 . S
C391 C393 1.419 . S
C392 C390 1.415 . S
C392 C397 1.425 . S
C392 C399 1.409 . S
C393 H385 0.930 . S
C393 C391 1.419 . S
C393 C394 1.362 . S
C394 H386 0.930 . S
C394 C393 1.362 . S
C394 C397 1.409 . S
C395 H387 0.930 . S
C395 C396 1.355 . S
C395 C397 1.415 . S
C396 C395 1.355 . S
C396 C398 1.419 . S
C397 C392 1.425 . S
C397 C394 1.409 . S
C397 C395 1.415 . S
C398 H388 0.930 . S
C398 C396 1.419 . S
C398 C399 1.362 . S
C399 H389 0.930 . S
C399 C392 1.409 . S
C399 C398 1.362 . S
H400 C406 0.930 . S
H401 C409 0.930 . S
H402 C410 0.930 . S
H403 C411 0.930 . S
H404 C414 0.930 . S
H405 C415 0.930 . S
C406 H400 0.930 . S
C406 C407 1.355 . S
C406 C408 1.415 . S
C407 C406 1.355 . S
C407 C409 1.419 . S
C408 C406 1.415 . S
C408 C413 1.425 . S
C408 C415 1.409 . S
C409 H401 0.930 . S
C409 C407 1.419 . S
C409 C410 1.362 . S
C410 H402 0.930 . S
C410 C409 1.362 . S
C410 C413 1.409 . S
C411 H403 0.930 . S
C411 C412 1.355 . S
C411 C413 1.415 . S
C412 C411 1.355 . S
C412 C414 1.419 . S
C413 C408 1.425 . S
C413 C410 1.409 . S
C413 C411 1.415 . S
C414 H404 0.930 . S
C414 C412 1.419 . S
C414 C415 1.362 . S
C415 H405 0.930 . S
C415 C408 1.409 . S
C415 C414 1.362 . S
H416 C422 0.930 . S
H417 C425 0.930 . S
H418 C426 0.930 . S
H419 C427 0.930 . S
H420 C430 0.930 . S
H421 C431 0.930 . S
C422 H416 0.930 . S
C422 C423 1.355 . S
C422 C424 1.415 . S
C423 C422 1.355 . S
C423 C425 1.419 . S
C424 C422 1.415 . S
C424 C429 1.425 . S
C424 C431 1.409 . S
C425 H417 0.930 . S
C425 C423 1.419 . S
C425 C426 1.362 . S
C426 H418 0.930 . S
C426 C425 1.362 . S
C426 C429 1.409 . S
C427 H419 0.930 . S
C427 C428 1.355 . S
C427 C429 1.415 . S
C428 C427 1.355 . S
C428 C430 1.419 . S
C429 C424 1.425 . S
C429 C426 1.409 . S
C429 C427 1.415 . S
C430 H420 0.930 . S
C430 C428 1.419 . S
C430 C431 1.362 . S
C431 H421 0.930 . S
C431 C424 1.409 . S
C431 C430 1.362 . S
H432 C438 0.930 . S
H433 C441 0.930 . S
H434 C442 0.930 . S
H435 C443 0.930 . S
H436 C446 0.930 . S
H437 C447 0.930 . S
C438 H432 0.930 . S
C438 C439 1.355 . S
C438 C440 1.415 . S
C439 C438 1.355 . S
C439 C441 1.419 . S
C440 C438 1.415 . S
C440 C445 1.425 . S
C440 C447 1.409 . S
C441 H433 0.930 . S
C441 C439 1.419 . S
C441 C442 1.362 . S
C442 H434 0.930 . S
C442 C441 1.362 . S
C442 C445 1.409 . S
C443 H435 0.930 . S
C443 C444 1.355 . S
C443 C445 1.415 . S
C444 C443 1.355 . S
C444 C446 1.419 . S
C445 C440 1.425 . S
C445 C442 1.409 . S
C445 C443 1.415 . S
C446 H436 0.930 . S
C446 C444 1.419 . S
C446 C447 1.362 . S
C447 H437 0.930 . S
C447 C440 1.409 . S
C447 C446 1.362 . S
H448 C454 0.930 . S
H449 C457 0.930 . S
H450 C458 0.930 . S
H451 C459 0.930 . S
H452 C462 0.930 . S
H453 C463 0.930 . S
C454 H448 0.930 . S
C454 C455 1.355 . S
C454 C456 1.415 . S
C455 C454 1.355 . S
C455 C457 1.419 . S
C456 C454 1.415 . S
C456 C461 1.425 . S
C456 C463 1.409 . S
C457 H449 0.930 . S
C457 C455 1.419 . S
C457 C458 1.362 . S
C458 H450 0.930 . S
C458 C457 1.362 . S
C458 C461 1.409 . S
C459 H451 0.930 . S
C459 C460 1.355 . S
C459 C461 1.415 . S
C460 C459 1.355 . S
C460 C462 1.419 . S
C461 C456 1.425 . S
C461 C458 1.409 . S
C461 C459 1.415 . S
C462 H452 0.930 . S
C462 C460 1.419 . S
C462 C463 1.362 . S
C463 H453 0.930 . S
C463 C456 1.409 . S
C463 C462 1.362 . S
H464 C470 0.930 . S
H465 C473 0.930 . S
H466 C474 0.930 . S
H467 C475 0.930 . S
H468 C478 0.930 . S
H469 C479 0.930 . S
C470 H464 0.930 . S
C470 C471 1.355 . S
C470 C472 1.415 . S
C471 C470 1.355 . S
C471 C473 1.419 . S
C472 C470 1.415 . S
C472 C477 1.425 . S
C472 C479 1.409 . S
C473 H465 0.930 . S
C473 C471 1.419 . S
C473 C474 1.362 . S
C474 H466 0.930 . S
C474 C473 1.362 . S
C474 C477 1.409 . S
C475 H467 0.930 . S
C475 C476 1.355 . S
C475 C477 1.415 . S
C476 C475 1.355 . S
C476 C478 1.419 . S
C477 C472 1.425 . S
C477 C474 1.409 . S
C477 C475 1.415 . S
C478 H468 0.930 . S
C478 C476 1.419 . S
C478 C479 1.362 . S
C479 H469 0.930 . S
C479 C472 1.409 . S
C479 C478 1.362 . S
H480 C486 0.930 . S
H481 C489 0.930 . S
H482 C490 0.930 . S
H483 C491 0.930 . S
H484 C494 0.930 . S
H485 C495 0.930 . S
C486 H480 0.930 . S
C486 C487 1.355 . S
C486 C488 1.415 . S
C487 C486 1.355 . S
C487 C489 1.419 . S
C488 C486 1.415 . S
C488 C493 1.425 . S
C488 C495 1.409 . S
C489 H481 0.930 . S
C489 C487 1.419 . S
C489 C490 1.362 . S
C490 H482 0.930 . S
C490 C489 1.362 . S
C490 C493 1.409 . S
C491 H483 0.930 . S
C491 C492 1.355 . S
C491 C493 1.415 . S
C492 C491 1.355 . S
C492 C494 1.419 . S
C493 C488 1.425 . S
C493 C490 1.409 . S
C493 C491 1.415 . S
C494 H484 0.930 . S
C494 C492 1.419 . S
C494 C495 1.362 . S
C495 H485 0.930 . S
C495 C488 1.409 . S
C495 C494 1.362 . S
H496 C502 0.930 . S
H497 C505 0.930 . S
H498 C506 0.930 . S
H499 C507 0.930 . S
H500 C510 0.930 . S
H501 C511 0.930 . S
C502 H496 0.930 . S
C502 C503 1.355 . S
C502 C504 1.415 . S
C503 C502 1.355 . S
C503 C505 1.419 . S
C504 C502 1.415 . S
C504 C509 1.425 . S
C504 C511 1.409 . S
C505 H497 0.930 . S
C505 C503 1.419 . S
C505 C506 1.362 . S
C506 H498 0.930 . S
C506 C505 1.362 . S
C506 C509 1.409 . S
C507 H499 0.930 . S
C507 C508 1.355 . S
C507 C509 1.415 . S
C508 C507 1.355 . S
C508 C510 1.419 . S
C509 C504 1.425 . S
C509 C506 1.409 . S
C509 C507 1.415 . S
C510 H500 0.930 . S
C510 C508 1.419 . S
C510 C511 1.362 . S
C511 H501 0.930 . S
C511 C504 1.409 . S
C511 C510 1.362 . S
H512 C518 0.930 . S
H513 C521 0.930 . S
H514 C522 0.930 . S
H515 C523 0.930 . S
H516 C526 0.930 . S
H517 C527 0.930 . S
C518 H512 0.930 . S
C518 C519 1.355 . S
C518 C520 1.415 . S
C519 C518 1.355 . S
C519 C521 1.419 . S
C520 C518 1.415 . S
C520 C525 1.425 . S
C520 C527 1.409 . S
C521 H513 0.930 . S
C521 C519 1.419 . S
C521 C522 1.362 . S
C522 H514 0.930 . S
C522 C521 1.362 . S
C522 C525 1.409 . S
C523 H515 0.930 . S
C523 C524 1.355 . S
C523 C525 1.415 . S
C524 C523 1.355 . S
C524 C526 1.419 . S
C525 C520 1.425 . S
C525 C522 1.409 . S
C525 C523 1.415 . S
C526 H516 0.930 . S
C526 C524 1.419 . S
C526 C527 1.362 . S
C527 H517 0.930 . S
C527 C520 1.409 . S
C527 C526 1.362 . S
H528 C534 0.930 . S
H529 C537 0.930 . S
H530 C538 0.930 . S
H531 C539 0.930 . S
H532 C542 0.930 . S
H533 C543 0.930 . S
C534 H528 0.930 . S
C534 C535 1.355 . S
C534 C536 1.415 . S
C535 C534 1.355 . S
C535 C537 1.419 . S
C536 C534 1.415 . S
C536 C541 1.425 . S
C536 C543 1.409 . S
C537 H529 0.930 . S
C537 C535 1.419 . S
C537 C538 1.362 . S
C538 H530 0.930 . S
C538 C537 1.362 . S
C538 C541 1.409 . S
C539 H531 0.930 . S
C539 C540 1.355 . S
C539 C541 1.415 . S
C540 C539 1.355 . S
C540 C542 1.419 . S
C541 C536 1.425 . S
C541 C538 1.409 . S
C541 C539 1.415 . S
C542 H532 0.930 . S
C542 C540 1.419 . S
C542 C543 1.362 . S
C543 H533 0.930 . S
C543 C536 1.409 . S
C543 C542 1.362 . S
H544 C550 0.930 . S
H545 C553 0.930 . S
H546 C554 0.930 . S
H547 C555 0.930 . S
H548 C558 0.930 . S
H549 C559 0.930 . S
C550 H544 0.930 . S
C550 C551 1.355 . S
C550 C552 1.415 . S
C551 C550 1.355 . S
C551 C553 1.419 . S
C552 C550 1.415 . S
C552 C557 1.425 . S
C552 C559 1.409 . S
C553 H545 0.930 . S
C553 C551 1.419 . S
C553 C554 1.362 . S
C554 H546 0.930 . S
C554 C553 1.362 . S
C554 C557 1.409 . S
C555 H547 0.930 . S
C555 C556 1.355 . S
C555 C557 1.415 . S
C556 C555 1.355 . S
C556 C558 1.419 . S
C557 C552 1.425 . S
C557 C554 1.409 . S
C557 C555 1.415 . S
C558 H548 0.930 . S
C558 C556 1.419 . S
C558 C559 1.362 . S
C559 H549 0.930 . S
C559 C552 1.409 . S
C559 C558 1.362 . S
H560 C566 0.930 . S
H561 C569 0.930 . S
H562 C570 0.930 . S
H563 C571 0.930 . S
H564 C574 0.930 . S
H565 C575 0.930 . S
C566 H560 0.930 . S
C566 C567 1.355 . S
C566 C568 1.415 . S
C567 C566 1.355 . S
C567 C569 1.419 . S
C568 C566 1.415 . S
C568 C573 1.425 . S
C568 C575 1.409 . S
C569 H561 0.930 . S
C569 C567 1.419 . S
C569 C570 1.362 . S
C570 H562 0.930 . S
C570 C569 1.362 . S
C570 C573 1.409 . S
C571 H563 0.930 . S
C571 C572 1.355 . S
C571 C573 1.415 . S
C572 C571 1.355 . S
C572 C574 1.419 . S
C573 C568 1.425 . S
C573 C570 1.409 . S
C573 C571 1.415 . S
C574 H564 0.930 . S
C574 C572 1.419 . S
C574 C575 1.362 . S
C575 H565 0.930 . S
C575 C568 1.409 . S
C575 C574 1.362 . S
H576 C582 0.930 . S
H577 C585 0.930 . S
H578 C586 0.930 . S
H579 C587 0.930 . S
H580 C590 0.930 . S
H581 C591 0.930 . S
C582 H576 0.930 . S
C582 C583 1.355 . S
C582 C584 1.415 . S
C583 C582 1.355 . S
C583 C585 1.419 . S
C584 C582 1.415 . S
C584 C589 1.425 . S
C584 C591 1.409 . S
C585 H577 0.930 . S
C585 C583 1.419 . S
C585 C586 1.362 . S
C586 H578 0.930 . S
C586 C585 1.362 . S
C586 C589 1.409 . S
C587 H579 0.930 . S
C587 C588 1.355 . S
C587 C589 1.415 . S
C588 C587 1.355 . S
C588 C590 1.419 . S
C589 C584 1.425 . S
C589 C586 1.409 . S
C589 C587 1.415 . S
C590 H580 0.930 . S
C590 C588 1.419 . S
C590 C591 1.362 . S
C591 H581 0.930 . S
C591 C584 1.409 . S
C591 C590 1.362 . S
H592 C598 0.930 . S
H593 C601 0.930 . S
H594 C602 0.930 . S
H595 C603 0.930 . S
H596 C606 0.930 . S
H597 C607 0.930 . S
C598 H592 0.930 . S
C598 C599 1.355 . S
C598 C600 1.415 . S
C599 C598 1.355 . S
C599 C601 1.419 . S
C600 C598 1.415 . S
C600 C605 1.425 . S
C600 C607 1.409 . S
C601 H593 0.930 . S
C601 C599 1.419 . S
C601 C602 1.362 . S
C602 H594 0.930 . S
C602 C601 1.362 . S
C602 C605 1.409 . S
C603 H595 0.930 . S
C603 C604 1.355 . S
C603 C605 1.415 . S
C604 C603 1.355 . S
C604 C606 1.419 . S
C605 C600 1.425 . S
C605 C602 1.409 . S
C605 C603 1.415 . S
C606 H596 0.930 . S
C606 C604 1.419 . S
C606 C607 1.362 . S
C607 H597 0.930 . S
C607 C600 1.409 . S
C607 C606 1.362 . S
H608 C614 0.930 . S
H609 C617 0.930 . S
H610 C618 0.930 . S
H611 C619 0.930 . S
H612 C622 0.930 . S
H613 C623 0.930 . S
C614 H608 0.930 . S
C614 C615 1.355 . S
C614 C616 1.415 . S
C615 C614 1.355 . S
C615 C617 1.419 . S
C616 C614 1.415 . S
C616 C621 1.425 . S
C616 C623 1.409 . S
C617 H609 0.930 . S
C617 C615 1.419 . S
C617 C618 1.362 . S
C618 H610 0.930 . S
C618 C617 1.362 . S
C618 C621 1.409 . S
C619 H611 0.930 . S
C619 C620 1.355 . S
C619 C621 1.415 . S
C620 C619 1.355 . S
C620 C622 1.419 . S
C621 C616 1.425 . S
C621 C618 1.409 . S
C621 C619 1.415 . S
C622 H612 0.930 . S
C622 C620 1.419 . S
C622 C623 1.362 . S
C623 H613 0.930 . S
C623 C616 1.409 . S
C623 C622 1.362 . S
H624 C630 0.930 . S
H625 C633 0.930 . S
H626 C634 0.930 . S
H627 C635 0.930 . S
H628 C638 0.930 . S
H629 C639 0.930 . S
C630 H624 0.930 . S
C630 C631 1.355 . S
C630 C632 1.415 . S
C631 C630 1.355 . S
C631 C633 1.419 . S
C632 C630 1.415 . S
C632 C637 1.425 . S
C632 C639 1.409 . S
C633 H625 0.930 . S
C633 C631 1.419 . S
C633 C634 1.362 . S
C634 H626 0.930 . S
C634 C633 1.362 . S
C634 C637 1.409 . S
C635 H627 0.930 . S
C635 C636 1.355 . S
C635 C637 1.415 . S
C636 C635 1.355 . S
C636 C638 1.419 . S
C637 C632 1.425 . S
C637 C634 1.409 . S
C637 C635 1.415 . S
C638 H628 0.930 . S
C638 C636 1.419 . S
C638 C639 1.362 . S
C639 H629 0.930 . S
C639 C632 1.409 . S
C639 C638 1.362 . S
H640 C646 0.930 . S
H641 C649 0.930 . S
H642 C650 0.930 . S
H643 C651 0.930 . S
H644 C654 0.930 . S
H645 C655 0.930 . S
C646 H640 0.930 . S
C646 C647 1.355 . S
C646 C648 1.415 . S
C647 C646 1.355 . S
C647 C649 1.419 . S
C648 C646 1.415 . S
C648 C653 1.425 . S
C648 C655 1.409 . S
C649 H641 0.930 . S
C649 C647 1.419 . S
C649 C650 1.362 . S
C650 H642 0.930 . S
C650 C649 1.362 . S
C650 C653 1.409 . S
C651 H643 0.930 . S
C651 C652 1.355 . S
C651 C653 1.415 . S
C652 C651 1.355 . S
C652 C654 1.419 . S
C653 C648 1.425 . S
C653 C650 1.409 . S
C653 C651 1.415 . S
C654 H644 0.930 . S
C654 C652 1.419 . S
C654 C655 1.362 . S
C655 H645 0.930 . S
C655 C648 1.409 . S
C655 C654 1.362 . S
H656 C662 0.930 . S
H657 C665 0.930 . S
H658 C666 0.930 . S
H659 C667 0.930 . S
H660 C670 0.930 . S
H661 C671 0.930 . S
C662 H656 0.930 . S
C662 C663 1.355 . S
C662 C664 1.415 . S
C663 C662 1.355 . S
C663 C665 1.419 . S
C664 C662 1.415 . S
C664 C669 1.425 . S
C664 C671 1.409 . S
C665 H657 0.930 . S
C665 C663 1.419 . S
C665 C666 1.362 . S
C666 H658 0.930 . S
C666 C665 1.362 . S
C666 C669 1.409 . S
C667 H659 0.930 . S
C667 C668 1.355 . S
C667 C669 1.415 . S
C668 C667 1.355 . S
C668 C670 1.419 . S
C669 C664 1.425 . S
C669 C666 1.409 . S
C669 C667 1.415 . S
C670 H660 0.930 . S
C670 C668 1.419 . S
C670 C671 1.362 . S
C671 H661 0.930 . S
C671 C664 1.409 . S
C671 C670 1.362 . S
H672 C678 0.930 . S
H673 C681 0.930 . S
H674 C682 0.930 . S
H675 C683 0.930 . S
H676 C686 0.930 . S
H677 C687 0.930 . S
C678 H672 0.930 . S
C678 C679 1.355 . S
C678 C680 1.415 . S
C679 C678 1.355 . S
C679 C681 1.419 . S
C680 C678 1.415 . S
C680 C685 1.425 . S
C680 C687 1.409 . S
C681 H673 0.930 . S
C681 C679 1.419 . S
C681 C682 1.362 . S
C682 H674 0.930 . S
C682 C681 1.362 . S
C682 C685 1.409 . S
C683 H675 0.930 . S
C683 C684 1.355 . S
C683 C685 1.415 . S
C684 C683 1.355 . S
C684 C686 1.419 . S
C685 C680 1.425 . S
C685 C682 1.409 . S
C685 C683 1.415 . S
C686 H676 0.930 . S
C686 C684 1.419 . S
C686 C687 1.362 . S
C687 H677 0.930 . S
C687 C680 1.409 . S
C687 C686 1.362 . S
H688 C694 0.930 . S
H689 C697 0.930 . S
H690 C698 0.930 . S
H691 C699 0.930 . S
H692 C702 0.930 . S
H693 C703 0.930 . S
C694 H688 0.930 . S
C694 C695 1.355 . S
C694 C696 1.415 . S
C695 C694 1.355 . S
C695 C697 1.419 . S
C696 C694 1.415 . S
C696 C701 1.425 . S
C696 C703 1.409 . S
C697 H689 0.930 . S
C697 C695 1.419 . S
C697 C698 1.362 . S
C698 H690 0.930 . S
C698 C697 1.362 . S
C698 C701 1.409 . S
C699 H691 0.930 . S
C699 C700 1.355 . S
C699 C701 1.415 . S
C700 C699 1.355 . S
C700 C702 1.419 . S
C701 C696 1.425 . S
C701 C698 1.409 . S
C701 C699 1.415 . S
C702 H692 0.930 . S
C702 C700 1.419 . S
C702 C703 1.362 . S
C703 H693 0.930 . S
C703 C696 1.409 . S
C703 C702 1.362 . S
H704 C710 0.930 . S
H705 C713 0.930 . S
H706 C714 0.930 . S
H707 C715 0.930 . S
H708 C718 0.930 . S
H709 C719 0.930 . S
C710 H704 0.930 . S
C710 C711 1.355 . S
C710 C712 1.415 . S
C711 C710 1.355 . S
C711 C713 1.419 . S
C712 C710 1.415 . S
C712 C717 1.425 . S
C712 C719 1.409 . S
C713 H705 0.930 . S
C713 C711 1.419 . S
C713 C714 1.362 . S
C714 H706 0.930 . S
C714 C713 1.362 . S
C714 C717 1.409 . S
C715 H707 0.930 . S
C715 C716 1.355 . S
C715 C717 1.415 . S
C716 C715 1.355 . S
C716 C718 1.419 . S
C717 C712 1.425 . S
C717 C714 1.409 . S
C717 C715 1.415 . S
C718 H708 0.930 . S
C718 C716 1.419 . S
C718 C719 1.362 . S
C719 H709 0.930 . S
C719 C712 1.409 . S
C719 C718 1.362 . S
H720 C726 0.930 . S
H721 C729 0.930 . S
H722 C730 0.930 . S
H723 C731 0.930 . S
H724 C734 0.930 . S
H725 C735 0.930 . S
C726 H720 0.930 . S
C726 C727 1.355 . S
C726 C728 1.415 . S
C727 C726 1.355 . S
C727 C729 1.419 . S
C728 C726 1.415 . S
C728 C733 1.425 . S
C728 C735 1.409 . S
C729 H721 0.930 . S
C729 C727 1.419 . S
C729 C730 1.362 . S
C730 H722 0.930 . S
C730 C729 1.362 . S
C730 C733 1.409 . S
C731 H723 0.930 . S
C731 C732 1.355 . S
C731 C733 1.415 . S
C732 C731 1.355 . S
C732 C734 1.419 . S
C733 C728 1.425 . S
C733 C730 1.409 . S
C733 C731 1.415 . S
C734 H724 0.930 . S
C734 C732 1.419 . S
C734 C735 1.362 . S
C735 H725 0.930 . S
C735 C728 1.409 . S
C735 C734 1.362 . S
H736 C742 0.930 . S
H737 C745 0.930 . S
H738 C746 0.930 . S
H739 C747 0.930 . S
H740 C750 0.930 . S
H741 C751 0.930 . S
C742 H736 0.930 . S
C742 C743 1.355 . S
C742 C744 1.415 1_554 S
C743 C742 1.355 . S
C743 C745 1.419 . S
C744 C742 1.415 1_556 S
C744 C749 1.425 . S
C744 C751 1.409 . S
C745 H737 0.930 . S
C745 C743 1.419 . S
C745 C746 1.362 1_554 S
C746 H738 0.930 . S
C746 C745 1.362 1_556 S
C746 C749 1.409 . S
C747 H739 0.930 . S
C747 C748 1.355 . S
C747 C749 1.415 . S
C748 C747 1.355 . S
C748 C750 1.419 . S
C749 C744 1.425 . S
C749 C746 1.409 . S
C749 C747 1.415 . S
C750 H740 0.930 . S
C750 C748 1.419 . S
C750 C751 1.362 . S
C751 H741 0.930 . S
C751 C744 1.409 . S
C751 C750 1.362 . S
H752 C758 0.930 . S
H753 C761 0.930 . S
H754 C762 0.930 . S
H755 C763 0.930 . S
H756 C766 0.930 . S
H757 C767 0.930 . S
C758 H752 0.930 . S
C758 C759 1.355 . S
C758 C760 1.415 . S
C759 C758 1.355 . S
C759 C761 1.419 . S
C760 C758 1.415 . S
C760 C765 1.425 . S
C760 C767 1.409 . S
C761 H753 0.930 . S
C761 C759 1.419 . S
C761 C762 1.362 . S
C762 H754 0.930 . S
C762 C761 1.362 . S
C762 C765 1.409 . S
C763 H755 0.930 . S
C763 C764 1.355 . S
C763 C765 1.415 . S
C764 C763 1.355 . S
C764 C766 1.419 . S
C765 C760 1.425 . S
C765 C762 1.409 . S
C765 C763 1.415 . S
C766 H756 0.930 . S
C766 C764 1.419 . S
C766 C767 1.362 . S
C767 H757 0.930 . S
C767 C760 1.409 . S
C767 C766 1.362 . S
H768 C774 0.930 . S
H769 C777 0.930 . S
H770 C778 0.930 . S
H771 C779 0.930 . S
H772 C782 0.930 . S
H773 C783 0.930 . S
C774 H768 0.930 . S
C774 C775 1.355 . S
C774 C776 1.415 . S
C775 C774 1.355 . S
C775 C777 1.419 . S
C776 C774 1.415 . S
C776 C781 1.425 . S
C776 C783 1.409 . S
C777 H769 0.930 . S
C777 C775 1.419 . S
C777 C778 1.362 . S
C778 H770 0.930 . S
C778 C777 1.362 . S
C778 C781 1.409 . S
C779 H771 0.930 . S
C779 C780 1.355 . S
C779 C781 1.415 1_556 S
C780 C779 1.355 . S
C780 C782 1.419 . S
C781 C776 1.425 . S
C781 C778 1.409 . S
C781 C779 1.415 1_554 S
C782 H772 0.930 . S
C782 C780 1.419 . S
C782 C783 1.362 1_556 S
C783 H773 0.930 . S
C783 C776 1.409 . S
C783 C782 1.362 1_554 S
H784 C790 0.930 . S
H785 C793 0.930 . S
H786 C794 0.930 . S
H787 C795 0.930 . S
H788 C798 0.930 . S
H789 C799 0.930 . S
C790 H784 0.930 . S
C790 C791 1.355 . S
C790 C792 1.415 . S
C791 C790 1.355 . S
C791 C793 1.419 . S
C792 C790 1.415 . S
C792 C797 1.425 . S
C792 C799 1.409 . S
C793 H785 0.930 . S
C793 C791 1.419 . S
C793 C794 1.362 . S
C794 H786 0.930 . S
C794 C793 1.362 . S
C794 C797 1.409 . S
C795 H787 0.930 . S
C795 C796 1.355 . S
C795 C797 1.415 . S
C796 C795 1.355 . S
C796 C798 1.419 . S
C797 C792 1.425 . S
C797 C794 1.409 . S
C797 C795 1.415 . S
C798 H788 0.930 . S
C798 C796 1.419 . S
C798 C799 1.362 . S
C799 H789 0.930 . S
C799 C792 1.409 . S
C799 C798 1.362 . S
H800 C806 0.930 . S
H801 C809 0.930 . S
H802 C810 0.930 . S
H803 C811 0.930 . S
H804 C814 0.930 . S
H805 C815 0.930 . S
C806 H800 0.930 . S
C806 C807 1.355 . S
C806 C808 1.415 1_655 S
C807 C806 1.355 . S
C807 C809 1.419 . S
C808 C806 1.415 1_455 S
C808 C813 1.425 . S
C808 C815 1.409 . S
C809 H801 0.930 . S
C809 C807 1.419 . S
C809 C810 1.362 1_655 S
C810 H802 0.930 . S
C810 C809 1.362 1_455 S
C810 C813 1.409 . S
C811 H803 0.930 . S
C811 C812 1.355 . S
C811 C813 1.415 . S
C812 C811 1.355 . S
C812 C814 1.419 . S
C813 C808 1.425 . S
C813 C810 1.409 . S
C813 C811 1.415 . S
C814 H804 0.930 . S
C814 C812 1.419 . S
C814 C815 1.362 . S
C815 H805 0.930 . S
C815 C808 1.409 . S
C815 C814 1.362 . S
H816 C822 0.930 . S
H817 C825 0.930 . S
H818 C826 0.930 . S
H819 C827 0.930 . S
H820 C830 0.930 . S
H821 C831 0.930 . S
C822 H816 0.930 . S
C822 C823 1.355 . S
C822 C824 1.415 1_455 S
C823 C822 1.355 . S
C823 C825 1.419 . S
C824 C822 1.415 1_655 S
C824 C829 1.425 . S
C824 C831 1.409 . S
C825 H817 0.930 . S
C825 C823 1.419 . S
C825 C826 1.362 1_455 S
C826 H818 0.930 . S
C826 C825 1.362 1_655 S
C826 C829 1.409 . S
C827 H819 0.930 . S
C827 C828 1.355 . S
C827 C829 1.415 . S
C828 C827 1.355 . S
C828 C830 1.419 . S
C829 C824 1.425 . S
C829 C826 1.409 . S
C829 C827 1.415 . S
C830 H820 0.930 . S
C830 C828 1.419 . S
C830 C831 1.362 . S
C831 H821 0.930 . S
C831 C824 1.409 . S
C831 C830 1.362 . S
H832 C838 0.930 . S
H833 C841 0.930 . S
H834 C842 0.930 . S
H835 C843 0.930 . S
H836 C846 0.930 . S
H837 C847 0.930 . S
C838 H832 0.930 . S
C838 C839 1.355 . S
C838 C840 1.415 . S
C839 C838 1.355 . S
C839 C841 1.419 . S
C840 C838 1.415 . S
C840 C845 1.425 . S
C840 C847 1.409 . S
C841 H833 0.930 . S
C841 C839 1.419 . S
C841 C842 1.362 . S
C842 H834 0.930 . S
C842 C841 1.362 . S
C842 C845 1.409 . S
C843 H835 0.930 . S
C843 C844 1.355 . S
C843 C845 1.415 . S
C844 C843 1.355 . S
C844 C846 1.419 . S
C845 C840 1.425 . S
C845 C842 1.409 . S
C845 C843 1.415 . S
C846 H836 0.930 . S
C846 C844 1.419 . S
C846 C847 1.362 . S
C847 H837 0.930 . S
C847 C840 1.409 . S
C847 C846 1.362 . S
H848 C854 0.930 . S
H849 C857 0.930 . S
H850 C858 0.930 . S
H851 C859 0.930 . S
H852 C862 0.930 . S
H853 C863 0.930 . S
C854 H848 0.930 . S
C854 C855 1.355 . S
C854 C856 1.415 . S
C855 C854 1.355 . S
C855 C857 1.419 . S
C856 C854 1.415 . S
C856 C861 1.425 . S
C856 C863 1.409 . S
C857 H849 0.930 . S
C857 C855 1.419 . S
C857 C858 1.362 . S
C858 H850 0.930 . S
C858 C857 1.362 . S
C858 C861 1.409 . S
C859 H851 0.930 . S
C859 C860 1.355 . S
C859 C861 1.415 . S
C860 C859 1.355 . S
C860 C862 1.419 . S
C861 C856 1.425 . S
C861 C858 1.409 . S
C861 C859 1.415 . S
C862 H852 0.930 . S
C862 C860 1.419 . S
C862 C863 1.362 . S
C863 H853 0.930 . S
C863 C856 1.409 . S
C863 C862 1.362 . S
H864 C870 0.930 . S
H865 C873 0.928 1_565 S
H866 C874 0.930 . S
H867 C875 0.930 . S
H868 C878 0.930 . S
H869 C879 0.930 . S
C870 H864 0.930 . S
C870 C871 1.355 . S
C870 C872 1.415 1_565 S
C871 C870 1.355 . S
C871 C873 1.416 1_565 S
C872 C870 1.415 1_545 S
C872 C877 1.425 . S
C872 C879 1.409 . S
C873 H865 0.928 1_545 S
C873 C871 1.416 1_545 S
C873 C874 1.367 . S
C874 H866 0.930 . S
C874 C873 1.367 . S
C874 C877 1.409 . S
C875 H867 0.930 . S
C875 C876 1.355 . S
C875 C877 1.415 . S
C876 C875 1.355 . S
C876 C878 1.419 . S
C877 C872 1.425 . S
C877 C874 1.409 . S
C877 C875 1.415 . S
C878 H868 0.930 . S
C878 C876 1.419 . S
C878 C879 1.362 . S
C879 H869 0.930 . S
C879 C872 1.409 . S
C879 C878 1.362 . S
H880 C886 0.930 . S
H881 C889 0.930 . S
H882 C890 0.930 . S
H883 C891 0.930 . S
H884 C894 0.930 . S
H885 C895 0.930 . S
C886 H880 0.930 . S
C886 C887 1.355 1_565 S
C886 C888 1.415 . S
C887 C886 1.355 1_545 S
C887 C889 1.419 . S
C888 C886 1.415 . S
C888 C893 1.425 . S
C888 C895 1.409 . S
C889 H881 0.930 . S
C889 C887 1.419 . S
C889 C890 1.362 1_545 S
C890 H882 0.930 . S
C890 C889 1.362 1_565 S
C890 C893 1.409 . S
C891 H883 0.930 . S
C891 C892 1.355 . S
C891 C893 1.415 . S
C892 C891 1.355 . S
C892 C894 1.419 . S
C893 C888 1.425 . S
C893 C890 1.409 . S
C893 C891 1.415 . S
C894 H884 0.930 . S
C894 C892 1.419 . S
C894 C895 1.362 . S
C895 H885 0.930 . S
C895 C888 1.409 . S
C895 C894 1.362 . S
H896 C902 0.930 . S
H897 C905 0.930 . S
H898 C906 0.930 . S
H899 C907 0.930 . S
H900 C910 0.930 . S
H901 C911 0.930 . S
C902 H896 0.930 . S
C902 C903 1.355 . S
C902 C904 1.415 . S
C903 C902 1.355 . S
C903 C905 1.419 . S
C904 C902 1.415 . S
C904 C909 1.425 . S
C904 C911 1.409 . S
C905 H897 0.930 . S
C905 C903 1.419 . S
C905 C906 1.362 . S
C906 H898 0.930 . S
C906 C905 1.362 . S
C906 C909 1.409 . S
C907 H899 0.930 . S
C907 C908 1.355 . S
C907 C909 1.415 . S
C908 C907 1.355 . S
C908 C910 1.419 . S
C909 C904 1.425 . S
C909 C906 1.409 . S
C909 C907 1.415 . S
C910 H900 0.930 . S
C910 C908 1.419 . S
C910 C911 1.362 . S
C911 H901 0.930 . S
C911 C904 1.409 . S
C911 C910 1.362 . S
H912 C918 0.930 . S
H913 C921 0.930 . S
H914 C922 0.930 . S
H915 C923 0.930 . S
H916 C926 0.930 . S
H917 C927 0.930 . S
C918 H912 0.930 . S
C918 C919 1.355 . S
C918 C920 1.415 . S
C919 C918 1.355 . S
C919 C921 1.419 . S
C920 C918 1.415 . S
C920 C925 1.425 . S
C920 C927 1.409 . S
C921 H913 0.930 . S
C921 C919 1.419 . S
C921 C922 1.362 . S
C922 H914 0.930 . S
C922 C921 1.362 . S
C922 C925 1.409 . S
C923 H915 0.930 . S
C923 C924 1.355 . S
C923 C925 1.415 . S
C924 C923 1.355 . S
C924 C926 1.419 . S
C925 C920 1.425 . S
C925 C922 1.409 . S
C925 C923 1.415 . S
C926 H916 0.930 . S
C926 C924 1.419 . S
C926 C927 1.362 . S
C927 H917 0.930 . S
C927 C920 1.409 . S
C927 C926 1.362 . S
H928 C934 0.930 . S
H929 C937 0.930 . S
H930 C938 0.930 . S
H931 C939 0.930 . S
H932 C942 0.930 . S
H933 C943 0.930 . S
C934 H928 0.930 . S
C934 C935 1.355 . S
C934 C936 1.415 1_556 S
C935 C934 1.355 . S
C935 C937 1.419 . S
C936 C934 1.415 1_554 S
C936 C941 1.425 . S
C936 C943 1.409 . S
C937 H929 0.930 . S
C937 C935 1.419 . S
C937 C938 1.362 1_556 S
C938 H930 0.930 . S
C938 C937 1.362 1_554 S
C938 C941 1.409 . S
C939 H931 0.930 . S
C939 C940 1.355 . S
C939 C941 1.415 . S
C940 C939 1.355 . S
C940 C942 1.419 . S
C941 C936 1.425 . S
C941 C938 1.409 . S
C941 C939 1.415 . S
C942 H932 0.930 . S
C942 C940 1.419 . S
C942 C943 1.362 . S
C943 H933 0.930 . S
C943 C936 1.409 . S
C943 C942 1.362 . S
H944 C950 0.930 . S
H945 C953 0.930 . S
H946 C954 0.930 . S
H947 C955 0.930 . S
H948 C958 0.930 . S
H949 C959 0.930 . S
C950 H944 0.930 . S
C950 C951 1.355 . S
C950 C952 1.415 . S
C951 C950 1.355 . S
C951 C953 1.419 . S
C952 C950 1.415 . S
C952 C957 1.425 . S
C952 C959 1.409 . S
C953 H945 0.930 . S
C953 C951 1.419 . S
C953 C954 1.362 . S
C954 H946 0.930 . S
C954 C953 1.362 . S
C954 C957 1.409 . S
C955 H947 0.930 . S
C955 C956 1.355 . S
C955 C957 1.415 . S
C956 C955 1.355 . S
C956 C958 1.419 . S
C957 C952 1.425 . S
C957 C954 1.409 . S
C957 C955 1.415 . S
C958 H948 0.930 . S
C958 C956 1.419 . S
C958 C959 1.362 . S
C959 H949 0.930 . S
C959 C952 1.409 . S
C959 C958 1.362 . S
H960 C966 0.930 . S
H961 C969 0.930 . S
H962 C970 0.930 . S
H963 C971 0.930 . S
H964 C974 0.930 . S
H965 C975 0.930 . S
C966 H960 0.930 . S
C966 C967 1.355 . S
C966 C968 1.415 1_554 S
C967 C966 1.355 . S
C967 C969 1.419 . S
C968 C966 1.415 1_556 S
C968 C973 1.425 . S
C968 C975 1.409 . S
C969 H961 0.930 . S
C969 C967 1.419 . S
C969 C970 1.362 1_554 S
C970 H962 0.930 . S
C970 C969 1.362 1_556 S
C970 C973 1.409 . S
C971 H963 0.930 . S
C971 C972 1.355 . S
C971 C973 1.415 . S
C972 C971 1.355 . S
C972 C974 1.419 . S
C973 C968 1.425 . S
C973 C970 1.409 . S
C973 C971 1.415 . S
C974 H964 0.930 . S
C974 C972 1.419 . S
C974 C975 1.362 . S
C975 H965 0.930 . S
C975 C968 1.409 . S
C975 C974 1.362 . S
H976 C982 0.930 . S
H977 C985 0.930 . S
H978 C986 0.930 . S
H979 C987 0.930 . S
H980 C990 0.930 . S
H981 C991 0.930 . S
C982 H976 0.930 . S
C982 C983 1.355 . S
C982 C984 1.415 . S
C983 C982 1.355 . S
C983 C985 1.419 . S
C984 C982 1.415 . S
C984 C989 1.425 . S
C984 C991 1.409 . S
C985 H977 0.930 . S
C985 C983 1.419 . S
C985 C986 1.362 . S
C986 H978 0.930 . S
C986 C985 1.362 . S
C986 C989 1.409 . S
C987 H979 0.930 . S
C987 C988 1.355 . S
C987 C989 1.415 . S
C988 C987 1.355 . S
C988 C990 1.419 . S
C989 C984 1.425 . S
C989 C986 1.409 . S
C989 C987 1.415 . S
C990 H980 0.930 . S
C990 C988 1.419 . S
C990 C991 1.362 . S
C991 H981 0.930 . S
C991 C984 1.409 . S
C991 C990 1.362 . S
H992 C998 0.930 . S
H993 C1001 0.930 . S
H994 C1002 0.930 . S
H995 C1003 0.930 . S
H996 C1006 0.930 . S
H997 C1007 0.930 . S
C998 H992 0.930 . S
C998 C999 1.355 . S
C998 C1000 1.415 . S
C999 C998 1.355 . S
C999 C1001 1.419 . S
C1000 C998 1.415 . S
C1000 C1005 1.425 . S
C1000 C1007 1.409 . S
C1001 H993 0.930 . S
C1001 C999 1.419 . S
C1001 C1002 1.362 . S
C1002 H994 0.930 . S
C1002 C1001 1.362 . S
C1002 C1005 1.409 . S
C1003 H995 0.930 . S
C1003 C1004 1.355 1_655 S
C1003 C1005 1.415 . S
C1004 C1003 1.355 1_455 S
C1004 C1006 1.419 . S
C1005 C1000 1.425 . S
C1005 C1002 1.409 . S
C1005 C1003 1.415 . S
C1006 H996 0.930 . S
C1006 C1004 1.419 . S
C1006 C1007 1.362 1_455 S
C1007 H997 0.930 . S
C1007 C1000 1.409 . S
C1007 C1006 1.362 1_655 S
H1008 C1014 0.930 . S
H1009 C1017 0.930 . S
H1010 C1018 0.930 . S
H1011 C1019 0.930 . S
H1012 C1022 0.930 . S
H1013 C1023 0.930 . S
C1014 H1008 0.930 . S
C1014 C1015 1.355 . S
C1014 C1016 1.415 . S
C1015 C1014 1.355 . S
C1015 C1017 1.419 . S
C1016 C1014 1.415 . S
C1016 C1021 1.425 . S
C1016 C1023 1.409 . S
C1017 H1009 0.930 . S
C1017 C1015 1.419 . S
C1017 C1018 1.362 . S
C1018 H1010 0.930 . S
C1018 C1017 1.362 . S
C1018 C1021 1.409 . S
C1019 H1011 0.930 . S
C1019 C1020 1.355 . S
C1019 C1021 1.415 1_655 S
C1020 C1019 1.355 . S
C1020 C1022 1.419 . S
C1021 C1016 1.425 . S
C1021 C1018 1.409 . S
C1021 C1019 1.415 1_455 S
C1022 H1012 0.930 . S
C1022 C1020 1.419 . S
C1022 C1023 1.362 1_655 S
C1023 H1013 0.930 . S
C1023 C1016 1.409 . S
C1023 C1022 1.362 1_455 S
H1024 C1030 0.930 . S
H1025 C1033 0.930 . S
H1026 C1034 0.930 . S
H1027 C1035 0.930 . S
H1028 C1038 0.930 . S
H1029 C1039 0.930 . S
C1030 H1024 0.930 . S
C1030 C1031 1.355 . S
C1030 C1032 1.415 . S
C1031 C1030 1.355 . S
C1031 C1033 1.419 . S
C1032 C1030 1.415 . S
C1032 C1037 1.425 . S
C1032 C1039 1.409 . S
C1033 H1025 0.930 . S
C1033 C1031 1.419 . S
C1033 C1034 1.362 . S
C1034 H1026 0.930 . S
C1034 C1033 1.362 . S
C1034 C1037 1.409 . S
C1035 H1027 0.930 . S
C1035 C1036 1.355 . S
C1035 C1037 1.415 . S
C1036 C1035 1.355 . S
C1036 C1038 1.419 . S
C1037 C1032 1.425 . S
C1037 C1034 1.409 . S
C1037 C1035 1.415 . S
C1038 H1028 0.930 . S
C1038 C1036 1.419 . S
C1038 C1039 1.362 . S
C1039 H1029 0.930 . S
C1039 C1032 1.409 . S
C1039 C1038 1.362 . S
H1040 C1046 0.930 . S
H1041 C1049 0.930 . S
H1042 C1050 0.930 . S
H1043 C1051 0.930 . S
H1044 C1054 0.930 . S
H1045 C1055 0.930 . S
C1046 H1040 0.930 . S
C1046 C1047 1.355 . S
C1046 C1048 1.415 . S
C1047 C1046 1.355 . S
C1047 C1049 1.419 . S
C1048 C1046 1.415 . S
C1048 C1053 1.425 . S
C1048 C1055 1.409 . S
C1049 H1041 0.930 . S
C1049 C1047 1.419 . S
C1049 C1050 1.362 . S
C1050 H1042 0.930 . S
C1050 C1049 1.362 . S
C1050 C1053 1.409 . S
C1051 H1043 0.930 . S
C1051 C1052 1.355 . S
C1051 C1053 1.415 . S
C1052 C1051 1.355 . S
C1052 C1054 1.419 . S
C1053 C1048 1.425 . S
C1053 C1050 1.409 . S
C1053 C1051 1.415 . S
C1054 H1044 0.930 . S
C1054 C1052 1.419 . S
C1054 C1055 1.362 . S
C1055 H1045 0.930 . S
C1055 C1048 1.409 . S
C1055 C1054 1.362 . S
H1056 C1062 0.930 . S
H1057 C1065 0.930 . S
H1058 C1066 0.930 . S
H1059 C1067 0.930 . S
H1060 C1070 0.933 . S
H1061 C1071 0.930 . S
C1062 H1056 0.930 . S
C1062 C1063 1.355 . S
C1062 C1064 1.415 . S
C1063 C1062 1.355 . S
C1063 C1065 1.419 . S
C1064 C1062 1.415 . S
C1064 C1069 1.425 . S
C1064 C1071 1.409 . S
C1065 H1057 0.930 . S
C1065 C1063 1.419 . S
C1065 C1066 1.362 . S
C1066 H1058 0.930 . S
C1066 C1065 1.362 . S
C1066 C1069 1.409 . S
C1067 H1059 0.930 . S
C1067 C1068 1.355 . S
C1067 C1069 1.415 1_545 S
C1068 C1067 1.355 . S
C1068 C1070 1.423 . S
C1069 C1064 1.425 . S
C1069 C1066 1.409 . S
C1069 C1067 1.415 1_565 S
C1070 H1060 0.933 . S
C1070 C1068 1.423 . S
C1070 C1071 1.354 1_545 S
C1071 H1061 0.930 . S
C1071 C1064 1.409 . S
C1071 C1070 1.354 1_565 S
H1072 C1078 0.930 . S
H1073 C1081 0.930 . S
H1074 C1082 0.930 . S
H1075 C1083 0.930 . S
H1076 C1086 0.930 . S
H1077 C1087 0.930 . S
C1078 H1072 0.930 . S
C1078 C1079 1.355 . S
C1078 C1080 1.415 1_565 S
C1079 C1078 1.355 . S
C1079 C1081 1.419 . S
C1080 C1078 1.415 1_545 S
C1080 C1085 1.425 . S
C1080 C1087 1.409 . S
C1081 H1073 0.930 . S
C1081 C1079 1.419 . S
C1081 C1082 1.362 1_565 S
C1082 H1074 0.930 . S
C1082 C1081 1.362 1_545 S
C1082 C1085 1.409 . S
C1083 H1075 0.930 . S
C1083 C1084 1.355 . S
C1083 C1085 1.415 . S
C1084 C1083 1.355 . S
C1084 C1086 1.419 . S
C1085 C1080 1.425 . S
C1085 C1082 1.409 . S
C1085 C1083 1.415 . S
C1086 H1076 0.930 . S
C1086 C1084 1.419 . S
C1086 C1087 1.362 . S
C1087 H1077 0.930 . S
C1087 C1080 1.409 . S
C1087 C1086 1.362 . S
H1088 C1094 0.930 . S
H1089 C1097 0.930 . S
H1090 C1098 0.930 . S
H1091 C1099 0.930 . S
H1092 C1102 0.930 . S
H1093 C1103 0.930 . S
C1094 H1088 0.930 . S
C1094 C1095 1.355 . S
C1094 C1096 1.415 . S
C1095 C1094 1.355 . S
C1095 C1097 1.419 . S
C1096 C1094 1.415 . S
C1096 C1101 1.425 . S
C1096 C1103 1.409 . S
C1097 H1089 0.930 . S
C1097 C1095 1.419 . S
C1097 C1098 1.362 . S
C1098 H1090 0.930 . S
C1098 C1097 1.362 . S
C1098 C1101 1.409 . S
C1099 H1091 0.930 . S
C1099 C1100 1.355 . S
C1099 C1101 1.415 . S
C1100 C1099 1.355 . S
C1100 C1102 1.419 . S
C1101 C1096 1.425 . S
C1101 C1098 1.409 . S
C1101 C1099 1.415 . S
C1102 H1092 0.930 . S
C1102 C1100 1.419 . S
C1102 C1103 1.362 . S
C1103 H1093 0.930 . S
C1103 C1096 1.409 . S
C1103 C1102 1.362 . S
C343 C117 1.090 . S
C348 C0 1.129 . S
C359 C14 1.136 . S
C364 C159 1.079 . S
C375 C28 1.114 . S
C380 C131 1.103 . S
C391 C42 1.111 . S
C396 C145 1.090 . S
C407 C56 1.181 . S
C412 C5 1.136 . S
C423 C19 1.187 . S
C428 C70 1.096 . S
C439 C84 1.118 . S
C444 C33 1.179 . S
C455 C47 1.153 . S
C460 C98 1.140 . S
C471 C61 1.096 . S
C476 C112 1.146 . S
C487 C89 1.146 . S
C492 C126 1.064 . S
C503 C140 1.069 . S
C508 C103 1.142 . S
C519 C75 1.148 . S
C524 C154 1.065 . S
C535 C285 1.106 . S
C540 C173 1.158 . S
C551 C187 1.098 . S
C556 C327 1.133 . S
C567 C201 1.101 . S
C572 C299 1.130 . S
C583 C313 1.106 . S
C588 C215 1.141 . S
C599 C224 1.120 . S
C604 C168 1.053 . S
C615 C182 1.101 . S
C620 C238 1.073 . S
C631 C196 1.055 . S
C636 C252 1.114 . S
C647 C266 1.041 . S
C652 C210 1.121 . S
C663 C280 1.087 . S
C668 C229 1.124 . S
C679 C257 1.109 . S
C684 C294 1.110 . S
C695 C271 1.118 . S
C700 C308 1.126 . S
C711 C322 1.115 . S
C716 C243 1.126 . S
C727 C319 1.428 . S
C732 C9 1.413 . S
C743 C305 1.429 . S
C748 C23 1.428 . S
C759 C333 1.415 . S
C764 C37 1.393 . S
C775 C51 1.392 . S
C780 C291 1.411 . S
C791 C65 1.432 . S
C796 C191 1.441 . S
C807 C177 1.445 . S
C812 C79 1.433 . S
C823 C219 1.445 . S
C828 C93 1.441 . S
C839 C205 1.441 . S
C844 C107 1.440 . S
C855 C121 1.379 . S
C860 C263 1.375 . S
C871 C235 1.398 . S
C876 C135 1.391 . S
C887 C249 1.377 . S
C892 C149 1.366 . S
C903 C277 1.398 . S
C908 C163 1.391 . S
C919 C151 1.414 . S
C924 C179 1.422 . S
C935 C137 1.424 . S
C940 C193 1.429 . S
C951 C207 1.427 . S
C956 C165 1.428 . S
C967 C123 1.416 . S
C972 C221 1.423 . S
C983 C233 1.383 . S
C988 C25 1.391 . S
C999 C247 1.385 . S
C1004 C11 1.390 . S
C1015 C261 1.394 . S
C1020 C53 1.411 . S
C1031 C275 1.407 . S
C1036 C39 1.397 . S
C1047 C289 1.475 . S
C1052 C95 1.468 . S
C1063 C303 1.456 . S
C1068 C67 1.472 . S
C1079 C81 1.457 . S
C1084 C317 1.441 . S
C1095 C331 1.448 . S
C1100 C109 1.466 . S
