# Generated by pormake.
# Topology umm, (4)-cn, num edge types: 1
# Building blocks:
#     Node 0, Type 0, BuildingBlock: CEKHIL_clean_sbu_0, # of connection points: 4
#     Node 1, Type 0, BuildingBlock: CEKHIL_clean_sbu_0, # of connection points: 4
#     Node 2, Type 0, BuildingBlock: CEKHIL_clean_sbu_0, # of connection points: 4
#     Node 3, Type 0, BuildingBlock: CEKHIL_clean_sbu_0, # of connection points: 4
#     Node 4, Type 0, BuildingBlock: CEKHIL_clean_sbu_0, # of connection points: 4
#     Node 5, Type 0, BuildingBlock: CEKHIL_clean_sbu_0, # of connection points: 4
#     Node 6, Type 0, BuildingBlock: CEKHIL_clean_sbu_0, # of connection points: 4
#     Node 7, Type 0, BuildingBlock: CEKHIL_clean_sbu_0, # of connection points: 4
#     Node 8, Type 0, BuildingBlock: CEKHIL_clean_sbu_0, # of connection points: 4
#     Node 9, Type 0, BuildingBlock: CEKHIL_clean_sbu_0, # of connection points: 4
#     Node 10, Type 0, BuildingBlock: CEKHIL_clean_sbu_0, # of connection points: 4
#     Node 11, Type 0, BuildingBlock: CEKHIL_clean_sbu_0, # of connection points: 4
#     Edge 12, Type (0, 0), BuildingBlock: KIFKEQ_clean_linker_1, # of connection points: 2
#     Edge 13, Type (0, 0), BuildingBlock: KIFKEQ_clean_linker_1, # of connection points: 2
#     Edge 14, Type (0, 0), BuildingBlock: KIFKEQ_clean_linker_1, # of connection points: 2
#     Edge 15, Type (0, 0), BuildingBlock: KIFKEQ_clean_linker_1, # of connection points: 2
#     Edge 16, Type (0, 0), BuildingBlock: KIFKEQ_clean_linker_1, # of connection points: 2
#     Edge 17, Type (0, 0), BuildingBlock: KIFKEQ_clean_linker_1, # of connection points: 2
#     Edge 18, Type (0, 0), BuildingBlock: KIFKEQ_clean_linker_1, # of connection points: 2
#     Edge 19, Type (0, 0), BuildingBlock: KIFKEQ_clean_linker_1, # of connection points: 2
#     Edge 20, Type (0, 0), BuildingBlock: KIFKEQ_clean_linker_1, # of connection points: 2
#     Edge 21, Type (0, 0), BuildingBlock: KIFKEQ_clean_linker_1, # of connection points: 2
#     Edge 22, Type (0, 0), BuildingBlock: KIFKEQ_clean_linker_1, # of connection points: 2
#     Edge 23, Type (0, 0), BuildingBlock: KIFKEQ_clean_linker_1, # of connection points: 2
#     Edge 24, Type (0, 0), BuildingBlock: KIFKEQ_clean_linker_1, # of connection points: 2
#     Edge 25, Type (0, 0), BuildingBlock: KIFKEQ_clean_linker_1, # of connection points: 2
#     Edge 26, Type (0, 0), BuildingBlock: KIFKEQ_clean_linker_1, # of connection points: 2
#     Edge 27, Type (0, 0), BuildingBlock: KIFKEQ_clean_linker_1, # of connection points: 2
#     Edge 28, Type (0, 0), BuildingBlock: KIFKEQ_clean_linker_1, # of connection points: 2
#     Edge 29, Type (0, 0), BuildingBlock: KIFKEQ_clean_linker_1, # of connection points: 2
#     Edge 30, Type (0, 0), BuildingBlock: KIFKEQ_clean_linker_1, # of connection points: 2
#     Edge 31, Type (0, 0), BuildingBlock: KIFKEQ_clean_linker_1, # of connection points: 2
#     Edge 32, Type (0, 0), BuildingBlock: KIFKEQ_clean_linker_1, # of connection points: 2
#     Edge 33, Type (0, 0), BuildingBlock: KIFKEQ_clean_linker_1, # of connection points: 2
#     Edge 34, Type (0, 0), BuildingBlock: KIFKEQ_clean_linker_1, # of connection points: 2
#     Edge 35, Type (0, 0), BuildingBlock: KIFKEQ_clean_linker_1, # of connection points: 2
# Relax obj value: 0.135
# Max RMSD: 0.386
# Mean RMSD: 0.251
data_MOF--net-umm--node1-CEKHIL_clean_sbu_0--edge1-KIFKEQ_clean_linker_1
_symmetry_space_group_name_H-M    P1
_symmetry_Int_Tables_number       1
_symmetry_cell_setting            triclinic
loop_
_symmetry_equiv_pos_as_xyz
'x, y, z'
_cell_length_a     57.236156
_cell_length_b     53.347028
_cell_length_c     27.775626
_cell_angle_alpha  90.066355
_cell_angle_beta   89.954196
_cell_angle_gamma 117.97213
loop_
_atom_site_label
_atom_site_type_symbol
_atom_site_fract_x
_atom_site_fract_y
_atom_site_fract_z
_atom_type_partial_charge
Co0 Co 0.37996 0.51691 0.06299 0.0
O1 O 0.34536 0.51361 0.07021 0.0
O2 O 0.35367 0.48342 0.02848 0.0
C3 C 0.3915 0.52695 0.14058 0.0
O4 O 0.41473 0.51477 0.05112 0.0
Co5 Co 0.42683 0.57691 0.08148 0.0
O6 O 0.44687 0.55512 0.08315 0.0
C7 C 0.39836 0.56573 0.9902 0.0
C8 C 0.33644 0.49133 0.04321 0.0
C9 C 0.43898 0.53049 0.06498 0.0
O10 O 0.38518 0.53964 0.00276 0.0
O11 O 0.41538 0.58496 0.01749 0.0
O12 O 0.37762 0.50072 0.12685 0.0
O13 O 0.39525 0.54586 0.10825 0.0
Co14 Co 0.86503 0.38101 0.41236 0.0
O15 O 0.8322 0.34681 0.41927 0.0
O16 O 0.86739 0.34895 0.38278 0.0
C17 C 0.86706 0.39604 0.48878 0.0
O18 O 0.90264 0.41356 0.40124 0.0
Co19 Co 0.86296 0.43793 0.42421 0.0
O20 O 0.90194 0.45446 0.41962 0.0
C21 C 0.84396 0.4059 0.33445 0.0
C22 C 0.84286 0.33366 0.39628 0.0
C23 C 0.91427 0.44082 0.40718 0.0
O24 O 0.85279 0.38904 0.34895 0.0
O25 O 0.84392 0.42551 0.36099 0.0
O26 O 0.87492 0.37744 0.47825 0.0
O27 O 0.85563 0.40226 0.45417 0.0
Co28 Co 0.44979 0.84341 0.75644 0.0
O29 O 0.44524 0.80549 0.76061 0.0
O30 O 0.47881 0.84163 0.72456 0.0
C31 C 0.44021 0.84781 0.83306 0.0
O32 O 0.46205 0.88541 0.74703 0.0
Co33 Co 0.40253 0.85562 0.76999 0.0
O34 O 0.42972 0.89609 0.76746 0.0
C35 C 0.40719 0.83 0.67974 0.0
C36 C 0.46701 0.81487 0.73589 0.0
C37 C 0.4534 0.90337 0.75458 0.0
O38 O 0.42987 0.83358 0.69394 0.0
O39 O 0.39201 0.83591 0.70588 0.0
O40 O 0.46364 0.85158 0.82136 0.0
O41 O 0.42256 0.83841 0.79924 0.0
Co42 Co 0.64608 0.49139 0.05764 0.0
O43 O 0.68068 0.49493 0.06654 0.0
O44 O 0.67267 0.52503 0.02406 0.0
C45 C 0.63345 0.48112 0.1348 0.0
O46 O 0.61144 0.49338 0.04389 0.0
Co47 Co 0.59938 0.43107 0.07417 0.0
O48 O 0.57812 0.45134 0.06795 0.0
C49 C 0.62924 0.44279 0.98447 0.0
C50 C 0.68982 0.51725 0.03964 0.0
C51 C 0.58656 0.47652 0.05195 0.0
O52 O 0.64185 0.4689 -0.00267 0.0
O53 O 0.61214 0.42333 0.01125 0.0
O54 O 0.6474 0.50737 0.12134 0.0
O55 O 0.63028 0.46228 0.1026 0.0
Co56 Co 0.16253 0.62481 0.41287 0.0
O57 O 0.19555 0.65885 0.41977 0.0
O58 O 0.16078 0.6568 0.38192 0.0
C59 C 0.15979 0.61042 0.48977 0.0
O60 O 0.12474 0.59257 0.40137 0.0
Co61 Co 0.16307 0.5672 0.42786 0.0
O62 O 0.12425 0.55144 0.42253 0.0
C63 C 0.1825 0.5977 0.33671 0.0
C64 C 0.18524 0.67201 0.39582 0.0
C65 C 0.11254 0.5654 0.40839 0.0
O66 O 0.17517 0.61597 0.35048 0.0
O67 O 0.18102 0.57752 0.36353 0.0
O68 O 0.15229 0.62915 0.47816 0.0
O69 O 0.17123 0.60359 0.45593 0.0
Co70 Co 0.5805 0.17209 0.76266 0.0
O71 O 0.58384 0.20957 0.76604 0.0
O72 O 0.55147 0.17273 0.729 0.0
C73 C 0.58914 0.16805 0.83994 0.0
O74 O 0.56945 0.13033 0.75349 0.0
Co75 Co 0.62837 0.16136 0.77945 0.0
O76 O 0.60201 0.12058 0.77612 0.0
C77 C 0.62422 0.18609 0.68791 0.0
C78 C 0.56238 0.19949 0.7403 0.0
C79 C 0.57846 0.11279 0.76187 0.0
O80 O 0.60134 0.18239 0.70114 0.0
O81 O 0.63925 0.18046 0.71492 0.0
O82 O 0.56569 0.1636 0.82688 0.0
O83 O 0.60731 0.17788 0.80702 0.0
Co84 Co 0.44883 0.60397 0.55935 0.0
O85 O 0.44446 0.63743 0.55511 0.0
O86 O 0.47783 0.63483 0.59142 0.0
C87 C 0.43944 0.58999 0.48269 0.0
O88 O 0.4609 0.57417 0.56895 0.0
Co89 Co 0.40146 0.54429 0.54542 0.0
O90 O 0.42851 0.53101 0.54844 0.0
C91 C 0.4061 0.57442 0.63589 0.0
C92 C 0.46618 0.64985 0.57997 0.0
C93 C 0.45218 0.5475 0.56151 0.0
O94 O 0.42876 0.59374 0.62171 0.0
O95 O 0.39095 0.55326 0.60968 0.0
O96 O 0.46286 0.60975 0.49456 0.0
O97 O 0.42168 0.58167 0.51633 0.0
Co98 Co 0.86454 0.47694 0.90273 0.0
O99 O 0.83178 0.47837 0.89721 0.0
O100 O 0.86718 0.51123 0.93366 0.0
C101 C 0.86594 0.46458 0.82565 0.0
O102 O 0.90216 0.48171 0.9124 0.0
Co103 Co 0.8619 0.41783 0.88808 0.0
O104 O 0.90092 0.44108 0.88601 0.0
C105 C 0.84396 0.4302 0.97963 0.0
C106 C 0.84261 0.50207 0.92066 0.0
C107 C 0.91369 0.46659 0.90112 0.0
O108 O 0.85255 0.45602 0.96568 0.0
O109 O 0.84384 0.41077 0.9524 0.0
O110 O 0.87408 0.49102 0.83697 0.0
O111 O 0.85466 0.44661 0.86001 0.0
Co112 Co 0.37957 0.85836 0.25315 0.0
O113 O 0.34469 0.82732 0.24617 0.0
O114 O 0.35389 0.86604 0.28822 0.0
C115 C 0.39089 0.85992 0.17544 0.0
O116 O 0.41461 0.89504 0.265 0.0
Co117 Co 0.4258 0.84461 0.23389 0.0
O118 O 0.44648 0.88653 0.23315 0.0
C119 C 0.39762 0.8275 0.32552 0.0
C120 C 0.33628 0.84097 0.27356 0.0
C121 C 0.43885 0.90341 0.25146 0.0
O122 O 0.3846 0.84054 0.31312 0.0
O123 O 0.41445 0.82518 0.29803 0.0
O124 O 0.37735 0.8725 0.18952 0.0
O125 O 0.3944 0.84448 0.2075 0.0
Co126 Co 0.57886 0.40628 0.55525 0.0
O127 O 0.58223 0.37221 0.55102 0.0
O128 O 0.54976 0.37615 0.58836 0.0
C129 C 0.58771 0.4196 0.47823 0.0
O130 O 0.5678 0.43685 0.5652 0.0
Co131 Co 0.62682 0.46524 0.53984 0.0
O132 O 0.60049 0.47951 0.54345 0.0
C133 C 0.62243 0.43549 0.63051 0.0
C134 C 0.56074 0.36049 0.57669 0.0
C135 C 0.57688 0.46353 0.55736 0.0
O136 O 0.59952 0.41642 0.61693 0.0
O137 O 0.6376 0.45644 0.60395 0.0
O138 O 0.56422 0.40039 0.49097 0.0
O139 O 0.6058 0.42779 0.51126 0.0
Co140 Co 0.1624 0.53305 0.90514 0.0
O141 O 0.19521 0.53174 0.89897 0.0
O142 O 0.16022 0.49921 0.93685 0.0
C143 C 0.1602 0.54443 0.82787 0.0
O144 O 0.12471 0.52806 0.91569 0.0
Co145 Co 0.16421 0.5917 0.88864 0.0
O146 O 0.12528 0.56825 0.88883 0.0
C147 C 0.18258 0.58058 0.98076 0.0
C148 C 0.18468 0.50831 0.92316 0.0
C149 C 0.11288 0.54294 0.90486 0.0
O150 O 0.17504 0.55486 0.96728 0.0
O151 O 0.18148 0.59936 0.95358 0.0
O152 O 0.15228 0.51814 0.83993 0.0
O153 O 0.17171 0.56284 0.86157 0.0
Co154 Co 0.64577 0.15028 0.25987 0.0
O155 O 0.68074 0.18092 0.25136 0.0
O156 O 0.67166 0.14213 0.29293 0.0
C157 C 0.63334 0.1488 0.18281 0.0
O158 O 0.61072 0.11392 0.27311 0.0
Co159 Co 0.59985 0.16492 0.2441 0.0
O160 O 0.57799 0.12326 0.24871 0.0
C161 C 0.6299 0.18238 0.33375 0.0
C162 C 0.6893 0.16704 0.27776 0.0
C163 C 0.58599 0.10616 0.26453 0.0
O164 O 0.64204 0.1685 0.32065 0.0
O165 O 0.61306 0.18521 0.30713 0.0
O166 O 0.64674 0.13587 0.19579 0.0
O167 O 0.63055 0.16446 0.21546 0.0
H168 H 0.38044 0.49153 0.2177 0.0
H169 H 0.42332 0.57972 0.17605 0.0
H170 H 0.39338 0.50483 0.30151 0.0
H171 H 0.43603 0.59298 0.25963 0.0
H172 H 0.47323 0.60519 0.40664 0.0
H173 H 0.46331 0.58798 0.32407 0.0
H174 H 0.38265 0.53114 0.36494 0.0
H175 H 0.39266 0.54816 0.44793 0.0
C176 C 0.39278 0.51371 0.22642 0.0
C177 C 0.4008 0.53463 0.19048 0.0
C178 C 0.40005 0.52131 0.27436 0.0
C179 C 0.41564 0.54993 0.28706 0.0
C180 C 0.42423 0.57072 0.25083 0.0
C181 C 0.41683 0.56315 0.20303 0.0
C182 C 0.45342 0.58889 0.3981 0.0
C183 C 0.43362 0.57821 0.43356 0.0
C184 C 0.44774 0.57912 0.35081 0.0
C185 C 0.42218 0.5584 0.33804 0.0
C186 C 0.40259 0.547 0.37386 0.0
C187 C 0.40825 0.55686 0.42124 0.0
H188 H 0.88645 0.3827 0.56882 0.0
H189 H 0.85414 0.4367 0.51875 0.0
H190 H 0.8888 0.40066 0.65051 0.0
H191 H 0.85626 0.45447 0.60052 0.0
H192 H 0.8851 0.49791 0.74597 0.0
H193 H 0.88806 0.48287 0.66411 0.0
H194 H 0.85619 0.39615 0.71294 0.0
H195 H 0.85345 0.41121 0.79479 0.0
C196 C 0.87998 0.39851 0.57524 0.0
C197 C 0.86996 0.40819 0.5375 0.0
C198 C 0.8812 0.40868 0.62203 0.0
C199 C 0.87259 0.42886 0.63196 0.0
C200 C 0.86326 0.43911 0.59392 0.0
C201 C 0.8619 0.42882 0.54716 0.0
C202 C 0.87888 0.47567 0.73924 0.0
C203 C 0.86892 0.4557 0.77668 0.0
C204 C 0.88047 0.46705 0.69236 0.0
C205 C 0.87229 0.43833 0.68209 0.0
C206 C 0.8629 0.41848 0.71982 0.0
C207 C 0.86117 0.42707 0.76663 0.0
H208 H 0.47358 0.86566 0.90974 0.0
H209 H 0.39338 0.84264 0.86743 0.0
H210 H 0.46325 0.87209 -0.00753 0.0
H211 H 0.38297 0.84882 0.95057 0.0
H212 H 0.38042 0.88507 0.0989 0.0
H213 H 0.39367 0.8854 0.0151 0.0
H214 H 0.43533 0.83893 0.05582 0.0
H215 H 0.42229 0.83878 0.13939 0.0
C216 C 0.45377 0.86209 0.91808 0.0
C217 C 0.43419 0.85336 0.88229 0.0
C218 C 0.44786 0.86569 0.96547 0.0
C219 C 0.42228 0.86074 0.97798 0.0
C220 C 0.40292 0.85297 0.94186 0.0
C221 C 0.40882 0.84925 0.89439 0.0
C222 C 0.3926 0.87515 0.08993 0.0
C223 C 0.40026 0.86179 0.12554 0.0
C224 C 0.40004 0.87521 0.042 0.0
C225 C 0.41547 0.86214 0.02898 0.0
C226 C 0.42366 0.84943 0.06488 0.0
C227 C 0.41608 0.8492 0.11268 0.0
H228 H 0.64435 0.51658 0.21185 0.0
H229 H 0.60202 0.42826 0.17052 0.0
H230 H 0.63204 0.50337 0.29585 0.0
H231 H 0.58988 0.41508 0.25439 0.0
H232 H 0.55348 0.40355 0.40282 0.0
H233 H 0.56282 0.42008 0.31984 0.0
H234 H 0.64369 0.47741 0.35862 0.0
H235 H 0.63429 0.46104 0.44201 0.0
C236 C 0.63224 0.49438 0.22067 0.0
C237 C 0.62422 0.47341 0.18476 0.0
C238 C 0.62534 0.48684 0.26873 0.0
C239 C 0.61011 0.45821 0.28162 0.0
C240 C 0.60145 0.43734 0.24544 0.0
C241 C 0.60849 0.44486 0.19747 0.0
C242 C 0.57322 0.4198 0.39373 0.0
C243 C 0.59324 0.43084 0.42875 0.0
C244 C 0.57857 0.42917 0.3462 0.0
C245 C 0.604 0.44987 0.33275 0.0
C246 C 0.62384 0.46157 0.36807 0.0
C247 C 0.61852 0.45208 0.41568 0.0
H248 H 0.14008 0.62462 0.56865 0.0
H249 H 0.17164 0.56935 0.52131 0.0
H250 H 0.13694 0.607 0.65078 0.0
H251 H 0.16876 0.55198 0.60342 0.0
H252 H 0.14018 0.51018 0.74932 0.0
H253 H 0.13678 0.52442 0.66714 0.0
H254 H 0.16929 0.61167 0.71367 0.0
H255 H 0.17244 0.59743 0.79578 0.0
C256 C 0.1462 0.60859 0.57575 0.0
C257 C 0.15627 0.59848 0.5387 0.0
C258 C 0.1445 0.59861 0.62277 0.0
C259 C 0.15271 0.57821 0.63356 0.0
C260 C 0.16204 0.5675 0.59614 0.0
C261 C 0.16385 0.57758 0.54919 0.0
C262 C 0.14641 0.53236 0.74202 0.0
C263 C 0.15673 0.55274 0.77884 0.0
C264 C 0.14456 0.54051 0.69497 0.0
C265 C 0.15286 0.56916 0.68395 0.0
C266 C 0.16249 0.5894 0.72113 0.0
C267 C 0.16446 0.58127 0.76809 0.0
H268 H 0.60296 0.17156 0.14807 0.0
H269 H 0.64361 0.12436 0.10492 0.0
H270 H 0.59119 0.17368 0.06436 0.0
H271 H 0.63167 0.12635 0.0211 0.0
H272 H 0.63532 0.17249 0.87621 0.0
H273 H 0.64432 0.16481 0.95943 0.0
H274 H 0.56378 0.1424 -0.00183 0.0
H275 H 0.55484 0.15027 0.91534 0.0
C276 C 0.60914 0.1614 0.12074 0.0
C277 C 0.6243 0.14793 0.13291 0.0
C278 C 0.60231 0.1625 0.07287 0.0
C279 C 0.61062 0.15028 0.03624 0.0
C280 C 0.62527 0.13622 0.04857 0.0
C281 C 0.63194 0.13495 0.09653 0.0
C282 C 0.61954 0.1658 0.9025 0.0
C283 C 0.59447 0.16221 0.88945 0.0
C284 C 0.62463 0.16123 0.95 0.0
C285 C 0.60476 0.15313 0.98525 0.0
C286 C 0.57955 0.14897 0.97187 0.0
C287 C 0.57443 0.15339 0.92442 0.0
H288 H 0.31639 0.47004 0.95375 0.0
H289 H 0.29433 0.48644 0.09414 0.0
H290 H 0.27424 0.46406 0.92118 0.0
H291 H 0.25274 0.48098 0.06206 0.0
H292 H 0.17775 0.47093 -0.00271 0.0
H293 H 0.20972 0.45544 0.02473 0.0
H294 H 0.26095 0.49998 0.90555 0.0
H295 H 0.22917 0.51485 0.87824 0.0
C296 C 0.30211 0.47122 0.978 0.0
C297 C 0.30866 0.47879 0.02641 0.0
C298 C 0.27809 0.46819 0.9593 0.0
C299 C 0.26016 0.4725 0.98878 0.0
C300 C 0.2658 0.47731 0.03818 0.0
C301 C 0.28977 0.48054 0.05664 0.0
C302 C 0.19554 0.47672 0.97642 0.0
C303 C 0.20104 0.49437 0.93593 0.0
C304 C 0.21396 0.46802 -0.00777 0.0
C305 C 0.23811 0.47657 0.96757 0.0
C306 C 0.24257 0.4926 0.92526 0.0
C307 C 0.22437 0.50142 0.90981 0.0
H308 H 0.84937 0.30304 0.32209 0.0
H309 H 0.79887 0.29561 0.44253 0.0
H310 H 0.81693 0.25555 0.29464 0.0
H311 H 0.76662 0.24889 0.41526 0.0
H312 H 0.73145 0.20415 0.22648 0.0
H313 H 0.77374 0.23929 0.25827 0.0
H314 H 0.75255 0.19943 0.3981 0.0
H315 H 0.70973 0.16425 0.36586 0.0
C316 C 0.83171 0.291 0.34333 0.0
C317 C 0.82654 0.30319 0.38412 0.0
C318 C 0.81303 0.26387 0.32751 0.0
C319 C 0.78897 0.24834 0.3525 0.0
C320 C 0.78493 0.25987 0.39527 0.0
C321 C 0.80338 0.28691 0.41072 0.0
C322 C 0.73621 0.20226 0.26362 0.0
C323 C 0.71723 0.18156 0.29377 0.0
C324 C 0.76058 0.22242 0.2819 0.0
C325 C 0.76652 0.22258 0.33102 0.0
C326 C 0.74847 0.2002 0.36022 0.0
C327 C 0.72405 0.1798 0.3417 0.0
H328 H 0.457 0.76363 0.77257 0.0
H329 H 0.49641 0.82137 0.65539 0.0
H330 H 0.46499 0.72736 0.73329 0.0
H331 H 0.50384 0.78473 0.61556 0.0
H332 H 0.49597 0.673 0.66001 0.0
H333 H 0.50386 0.71731 0.69968 0.0
H334 H 0.4646 0.73557 0.58269 0.0
H335 H 0.45616 0.69107 0.54355 0.0
C336 C 0.46788 0.76873 0.73897 0.0
C337 C 0.47602 0.79516 0.71685 0.0
C338 C 0.47257 0.74809 0.71668 0.0
C339 C 0.48501 0.7534 0.67153 0.0
C340 C 0.49428 0.78029 0.65047 0.0
C341 C 0.4901 0.80118 0.6733 0.0
C342 C 0.48965 0.68686 0.64223 0.0
C343 C 0.47534 0.67866 0.59893 0.0
C344 C 0.4941 0.71208 0.66496 0.0
C345 C 0.48485 0.72969 0.64406 0.0
C346 C 0.47216 0.72243 0.59916 0.0
C347 C 0.46721 0.69695 0.57696 0.0
H348 H 0.71089 0.54019 0.95151 0.0
H349 H 0.73137 0.52092 0.09101 0.0
H350 H 0.75342 0.5469 0.91963 0.0
H351 H 0.77335 0.52711 0.05956 0.0
H352 H 0.79893 0.49676 0.87451 0.0
H353 H 0.76692 0.51127 0.90211 0.0
H354 H 0.81683 0.55362 0.02399 0.0
H355 H 0.84905 0.53852 -0.00383 0.0
C356 C 0.72488 0.53849 0.97578 0.0
C357 C 0.71777 0.52992 0.02366 0.0
C358 C 0.74913 0.54197 0.95745 0.0
C359 C 0.76675 0.5371 0.98679 0.0
C360 C 0.76054 0.53123 0.03583 0.0
C361 C 0.73634 0.52757 0.05391 0.0
C362 C 0.80341 0.50968 0.90671 0.0
C363 C 0.82642 0.51621 0.93345 0.0
C364 C 0.78508 0.51829 0.92236 0.0
C365 C 0.78907 0.53354 0.96552 0.0
C366 C 0.81296 0.54165 0.99081 0.0
C367 C 0.83153 0.53319 0.97478 0.0
H368 H 0.23067 0.70958 0.43918 0.0
H369 H 0.17764 0.70306 0.32379 0.0
H370 H 0.26231 0.75652 0.41184 0.0
H371 H 0.20948 0.75076 0.29637 0.0
H372 H 0.2934 0.80421 0.22354 0.0
H373 H 0.25199 0.76808 0.25677 0.0
H374 H 0.27549 0.80609 0.39767 0.0
H375 H 0.31741 0.84228 0.36393 0.0
C376 C 0.2255 0.71847 0.40845 0.0
C377 C 0.20175 0.70241 0.38329 0.0
C378 C 0.24361 0.74564 0.39301 0.0
C379 C 0.23862 0.75756 0.3517 0.0
C380 C 0.2141 0.74216 0.3281 0.0
C381 C 0.19578 0.71488 0.34389 0.0
C382 C 0.28929 0.80549 0.26131 0.0
C383 C 0.30867 0.82599 0.29118 0.0
C384 C 0.26545 0.78475 0.28043 0.0
C385 C 0.26046 0.78378 0.33012 0.0
C386 C 0.27885 0.80593 0.35932 0.0
C387 C 0.30273 0.82692 0.33997 0.0
H388 H 0.5324 0.19093 0.65995 0.0
H389 H 0.57139 0.25097 0.77462 0.0
H390 H 0.52377 0.22618 0.61836 0.0
H391 H 0.56227 0.28589 0.73351 0.0
H392 H 0.53132 0.33874 0.6576 0.0
H393 H 0.52359 0.29511 0.69927 0.0
H394 H 0.56157 0.27448 0.58275 0.0
H395 H 0.56979 0.31828 0.54156 0.0
C396 C 0.53839 0.21133 0.67693 0.0
C397 C 0.55273 0.21841 0.72024 0.0
C398 C 0.5335 0.23143 0.6531 0.0
C399 C 0.54236 0.2586 0.67287 0.0
C400 C 0.555 0.26494 0.71786 0.0
C401 C 0.56036 0.24507 0.74118 0.0
C402 C 0.53735 0.32448 0.64033 0.0
C403 C 0.55131 0.33186 0.5966 0.0
C404 C 0.53299 0.29964 0.66421 0.0
C405 C 0.54201 0.28161 0.6441 0.0
C406 C 0.55419 0.28796 0.59868 0.0
C407 C 0.55903 0.31304 0.5753 0.0
H408 H 0.43921 0.4885 0.00588 0.0
H409 H 0.48614 0.55155 0.11157 0.0
H410 H 0.47568 0.477 -0.00566 0.0
H411 H 0.52184 0.53993 0.10074 0.0
H412 H 0.59185 0.53088 0.0495 0.0
H413 H 0.55605 0.54389 0.04676 0.0
H414 H 0.4987 0.45534 0.0344 0.0
H415 H 0.53412 0.44259 0.03579 0.0
C416 C 0.4571 0.49971 0.0269 0.0
C417 C 0.45963 0.52104 0.05944 0.0
C418 C 0.47809 0.49322 0.02024 0.0
C419 C 0.50205 0.50787 0.04606 0.0
C420 C 0.50419 0.52876 0.07911 0.0
C421 C 0.48342 0.53521 0.08565 0.0
C422 C 0.57165 0.51432 0.04525 0.0
C423 C 0.56596 0.4857 0.0435 0.0
C424 C 0.55104 0.52168 0.04414 0.0
C425 C 0.52428 0.50062 0.04101 0.0
C426 C 0.51889 0.4722 0.03657 0.0
C427 C 0.53935 0.46489 0.03783 0.0
H428 H 0.94075 0.49558 0.37725 0.0
H429 H 0.95335 0.42523 0.4208 0.0
H430 H 0.98818 0.52592 0.37166 0.0
H431 H 1.00115 0.45598 0.41748 0.0
H432 H 0.08603 0.5112 0.37613 0.0
H433 H 0.03858 0.48106 0.37013 0.0
H434 H 0.02584 0.55075 0.41872 0.0
H435 H 0.0737 0.58132 0.42243 0.0
C436 C 0.95374 0.48658 0.38571 0.0
C437 C 0.94325 0.45796 0.39965 0.0
C438 C 0.98105 0.50413 0.38291 0.0
C439 C 0.9988 0.49374 0.39467 0.0
C440 C 0.98825 0.46482 0.40749 0.0
C441 C 0.9608 0.44709 0.40955 0.0
C442 C 0.07308 0.52019 0.38503 0.0
C443 C 0.08363 0.54866 0.39993 0.0
C444 C 0.04576 0.50276 0.38204 0.0
C445 C 0.02807 0.51311 0.3946 0.0
C446 C 0.03869 0.54194 0.40817 0.0
C447 C 0.06617 0.55958 0.41041 0.0
H448 H 0.59099 0.07115 0.73615 0.0
H449 H 0.52523 0.08575 0.77423 0.0
H450 H 0.56094 0.02059 0.72751 0.0
H451 H 0.4954 0.03521 0.76897 0.0
H452 H 0.44265 0.9456 0.72525 0.0
H453 H 0.47328 0.99616 0.72035 0.0
H454 H 0.53641 0.98013 0.77191 0.0
H455 H 0.50608 0.92955 0.77336 0.0
C456 C 0.5701 0.06344 0.74303 0.0
C457 C 0.5604 0.08227 0.75585 0.0
C458 C 0.55285 0.03443 0.7384 0.0
C459 C 0.52562 0.02358 0.74773 0.0
C460 C 0.51605 0.04266 0.76039 0.0
C461 C 0.53319 0.07168 0.76384 0.0
C462 C 0.46316 0.953 0.73507 0.0
C463 C 0.47204 0.93379 0.74977 0.0
C464 C 0.48073 0.982 0.73264 0.0
C465 C 0.5074 0.99248 0.74619 0.0
C466 C 0.51623 0.973 0.7603 0.0
C467 C 0.4988 0.94396 0.7615 0.0
H468 H 0.50496 0.57414 0.54368 0.0
H469 H 0.44105 0.49437 0.59108 0.0
H470 H 0.53516 0.55394 0.54623 0.0
H471 H 0.47153 0.47449 0.59707 0.0
H472 H 0.52369 0.43704 0.54449 0.0
H473 H 0.49389 0.45761 0.54918 0.0
H474 H 0.55929 0.53807 0.59158 0.0
H475 H 0.58933 0.51769 0.58354 0.0
C476 C 0.49754 0.5524 0.5556 0.0
C477 C 0.47069 0.53571 0.56682 0.0
C478 C 0.51489 0.54082 0.55746 0.0
C479 C 0.50589 0.51245 0.5717 0.0
C480 C 0.47912 0.49615 0.58471 0.0
C481 C 0.46163 0.50755 0.58165 0.0
C482 C 0.53162 0.4591 0.55501 0.0
C483 C 0.5588 0.47585 0.56338 0.0
C484 C 0.5145 0.4709 0.55811 0.0
C485 C 0.52405 0.49961 0.5708 0.0
C486 C 0.55123 0.5161 0.58064 0.0
C487 C 0.56847 0.50442 0.57636 0.0
H488 H 0.08413 0.5715 0.89642 0.0
H489 H 0.0751 0.48797 0.92692 0.0
H490 H 0.03679 0.55327 0.90015 0.0
H491 H 0.02707 0.46968 0.93197 0.0
H492 H 0.94365 0.44193 0.87175 0.0
H493 H 0.99087 0.45962 0.87858 0.0
H494 H 0.99814 0.53507 0.94943 0.0
H495 H 0.95035 0.51747 0.94159 0.0
C496 C 0.07209 0.54917 0.90439 0.0
C497 C 0.08367 0.53116 0.91086 0.0
C498 C 0.04474 0.53877 0.90704 0.0
C499 C 0.02789 0.50997 0.91632 0.0
C500 C 0.03939 0.49196 0.92411 0.0
C501 C 0.06696 0.50244 0.92149 0.0
C502 C 0.95513 0.46231 0.88902 0.0
C503 C 0.94295 0.47829 0.906 0.0
C504 C 0.98238 0.47234 0.89333 0.0
C505 C 0.9985 0.49871 0.91483 0.0
C506 C 0.98641 0.51473 0.93221 0.0
C507 C 0.95897 0.50466 0.9278 0.0
H508 H 0.48776 0.92868 0.21053 0.0
H509 H 0.43776 0.9465 0.30613 0.0
H510 H 0.52313 0.97639 0.22117 0.0
H511 H 0.47391 0.99484 0.31755 0.0
H512 H 0.53293 0.08709 0.27308 0.0
H513 H 0.49773 0.03864 0.27483 0.0
H514 H 0.55567 0.00828 0.27623 0.0
H515 H 0.59132 0.05734 0.27308 0.0
C516 C 0.48427 0.94272 0.23425 0.0
C517 C 0.4597 0.9335 0.25757 0.0
C518 C 0.50485 0.97019 0.2407 0.0
C519 C 0.50171 0.98956 0.27075 0.0
C520 C 0.47707 0.98056 0.29393 0.0
C521 C 0.45628 0.95285 0.28737 0.0
C522 C 0.53835 0.07017 0.27406 0.0
C523 C 0.56513 0.07626 0.27218 0.0
C524 C 0.51799 0.04224 0.27557 0.0
C525 C 0.52366 0.01935 0.27524 0.0
C526 C 0.55049 0.02536 0.27567 0.0
C527 C 0.571 0.0535 0.27427 0.0
H528 H 0.42217 0.62169 0.69161 0.0
H529 H 0.3733 0.5307 0.69388 0.0
H530 H 0.41545 0.62374 0.77779 0.0
H531 H 0.36759 0.53243 0.78031 0.0
H532 H 0.43472 0.60738 0.93315 0.0
H533 H 0.43201 0.61215 0.84658 0.0
H534 H 0.35105 0.54509 0.84804 0.0
H535 H 0.35436 0.53949 0.93435 0.0
C536 C 0.40978 0.60214 0.71054 0.0
C537 C 0.3985 0.57598 0.68617 0.0
C538 C 0.40606 0.60328 0.76 0.0
C539 C 0.39136 0.57824 0.78637 0.0
C540 C 0.3788 0.55225 0.76132 0.0
C541 C 0.38216 0.55117 0.71168 0.0
C542 C 0.41619 0.59412 0.91508 0.0
C543 C 0.39493 0.57281 0.94027 0.0
C544 C 0.41453 0.59689 0.86536 0.0
C545 C 0.3914 0.57868 0.83997 0.0
C546 C 0.3694 0.55894 0.86609 0.0
C547 C 0.37123 0.55586 0.91561 0.0
H548 H 0.82072 0.43449 0.28988 0.0
H549 H 0.84918 0.37367 0.26284 0.0
H550 H 0.81349 0.43663 0.20388 0.0
H551 H 0.84295 0.37665 0.17717 0.0
H552 H 0.82212 0.37808 0.02384 0.0
H553 H 0.81484 0.36826 0.10976 0.0
H554 H 0.84187 0.45742 0.13719 0.0
H555 H 0.84816 0.46703 0.05166 0.0
C556 C 0.82521 0.42138 0.26572 0.0
C557 C 0.8359 0.40422 0.28332 0.0
C558 C 0.82119 0.42273 0.21634 0.0
C559 C 0.82798 0.40714 0.18338 0.0
C560 C 0.83722 0.38876 0.20133 0.0
C561 C 0.841 0.38721 0.25067 0.0
C562 C 0.82608 0.39551 0.04815 0.0
C563 C 0.83607 0.42341 0.03078 0.0
C564 C 0.82203 0.3899 0.09749 0.0
C565 C 0.82807 0.41208 0.13061 0.0
C566 C 0.8367 0.43971 0.11289 0.0
C567 C 0.84052 0.44528 0.06363 0.0
H568 H 0.42318 0.79856 0.62472 0.0
H569 H 0.37424 0.84027 0.62143 0.0
H570 H 0.41599 0.78883 0.53885 0.0
H571 H 0.36807 0.83188 0.53525 0.0
H572 H 0.4342 0.8227 0.38222 0.0
H573 H 0.43202 0.8161 0.46899 0.0
H574 H 0.3511 0.8018 0.46859 0.0
H575 H 0.35389 0.80985 0.38203 0.0
C576 C 0.41069 0.80545 0.60563 0.0
C577 C 0.3995 0.82047 0.62962 0.0
C578 C 0.4067 0.80002 0.55633 0.0
C579 C 0.39181 0.80993 0.52973 0.0
C580 C 0.3794 0.82357 0.55443 0.0
C581 C 0.38304 0.82857 0.60393 0.0
C582 C 0.41578 0.81749 0.40058 0.0
C583 C 0.39438 0.81722 0.37558 0.0
C584 C 0.41443 0.81359 0.45043 0.0
C585 C 0.39149 0.80887 0.47615 0.0
C586 C 0.36933 0.80619 0.45027 0.0
C587 C 0.37084 0.81058 0.4006 0.0
H588 H 0.60719 0.38809 0.68529 0.0
H589 H 0.655 0.47921 0.68882 0.0
H590 H 0.61406 0.3858 0.77132 0.0
H591 H 0.6608 0.47724 0.77518 0.0
H592 H 0.67346 0.47007 0.92935 0.0
H593 H 0.67734 0.46494 0.84301 0.0
H594 H 0.59705 0.39645 0.84023 0.0
H595 H 0.59382 0.40076 0.92676 0.0
C596 C 0.6194 0.40763 0.70448 0.0
C597 C 0.63032 0.43388 0.68053 0.0
C598 C 0.6232 0.40634 0.75387 0.0
C599 C 0.63757 0.43135 0.78061 0.0
C600 C 0.64984 0.45746 0.75592 0.0
C601 C 0.64643 0.45867 0.70632 0.0
C602 C 0.65689 0.45348 0.91031 0.0
C603 C 0.63321 0.436 0.9346 0.0
C604 C 0.65903 0.45068 0.86076 0.0
C605 C 0.63736 0.43068 0.83424 0.0
C606 C 0.6143 0.41194 0.85928 0.0
C607 C 0.61234 0.41443 0.90901 0.0
H608 H 0.17926 0.6214 0.03487 0.0
H609 H 0.20359 0.55613 0.04141 0.0
H610 H 0.18524 0.62826 0.12114 0.0
H611 H 0.21123 0.56412 0.12766 0.0
H612 H 0.17943 0.55371 0.28246 0.0
H613 H 0.18541 0.55296 0.19623 0.0
H614 H 0.21101 0.64318 0.18982 0.0
H615 H 0.20338 0.6434 0.27611 0.0
C616 C 0.18666 0.60909 0.05462 0.0
C617 C 0.19064 0.58799 0.03149 0.0
C618 C 0.19028 0.61314 0.10427 0.0
C619 C 0.19848 0.59654 0.13189 0.0
C620 C 0.20421 0.57677 0.10797 0.0
C621 C 0.20003 0.57231 0.05844 0.0
C622 C 0.18675 0.57348 0.26277 0.0
C623 C 0.19062 0.59853 0.28597 0.0
C624 C 0.19038 0.57313 0.21312 0.0
C625 C 0.19846 0.59797 0.18553 0.0
C626 C 0.20408 0.62346 0.20949 0.0
C627 C 0.19992 0.62367 0.25906 0.0
H628 H 0.60992 0.21852 0.63205 0.0
H629 H 0.65601 0.17358 0.63033 0.0
H630 H 0.61672 0.22676 0.54577 0.0
H631 H 0.66166 0.18035 0.54378 0.0
H632 H 0.67399 0.19831 0.38878 0.0
H633 H 0.67837 0.2081 0.47489 0.0
H634 H 0.59901 0.19855 0.47778 0.0
H635 H 0.59534 0.1903 0.39147 0.0
C636 C 0.62174 0.21064 0.61319 0.0
C637 C 0.6322 0.19512 0.63772 0.0
C638 C 0.62549 0.21518 0.56366 0.0
C639 C 0.6393 0.20377 0.53737 0.0
C640 C 0.65114 0.18976 0.56263 0.0
C641 C 0.64781 0.18571 0.61237 0.0
C642 C 0.65773 0.19896 0.40779 0.0
C643 C 0.63419 0.19324 0.3836 0.0
C644 C 0.66016 0.20436 0.45722 0.0
C645 C 0.63889 0.2036 0.48373 0.0
C646 C 0.61598 0.19965 0.45875 0.0
C647 C 0.61375 0.19476 0.40914 0.0
loop_
_geom_bond_atom_site_label_1
_geom_bond_atom_site_label_2
_geom_bond_distance
_geom_bond_site_symmetry_2
_ccdc_geom_bond_type
Co0 O1 2.216 . S
Co0 O2 2.091 . S
Co0 O4 2.004 . S
Co0 O10 2.021 . S
Co0 O12 2.137 . S
Co0 O13 2.244 . S
O1 Co0 2.216 . S
O1 C8 1.247 . S
O2 Co0 2.091 . S
O2 C8 1.261 . S
C3 O12 1.247 . S
C3 O13 1.272 . S
O4 Co0 2.004 . S
O4 C9 1.259 . S
Co5 O6 2.061 . S
Co5 O11 2.052 . S
Co5 O13 2.135 . S
O6 Co5 2.061 . S
O6 C9 1.235 . S
C7 O10 1.238 1_556 S
C7 O11 1.241 1_556 S
C8 O1 1.247 . S
C8 O2 1.261 . S
C9 O4 1.259 . S
C9 O6 1.235 . S
O10 Co0 2.021 . S
O10 C7 1.238 1_554 S
O11 Co5 2.052 . S
O11 C7 1.241 1_554 S
O12 Co0 2.137 . S
O12 C3 1.247 . S
O13 Co0 2.244 . S
O13 C3 1.272 . S
O13 Co5 2.135 . S
Co14 O15 2.216 . S
Co14 O16 2.091 . S
Co14 O18 2.004 . S
Co14 O24 2.021 . S
Co14 O26 2.137 . S
Co14 O27 2.244 . S
O15 Co14 2.216 . S
O15 C22 1.247 . S
O16 Co14 2.091 . S
O16 C22 1.261 . S
C17 O26 1.247 . S
C17 O27 1.272 . S
O18 Co14 2.004 . S
O18 C23 1.259 . S
Co19 O20 2.061 . S
Co19 O25 2.052 . S
Co19 O27 2.135 . S
O20 Co19 2.061 . S
O20 C23 1.235 . S
C21 O24 1.238 . S
C21 O25 1.241 . S
C22 O15 1.247 . S
C22 O16 1.261 . S
C23 O18 1.259 . S
C23 O20 1.235 . S
O24 Co14 2.021 . S
O24 C21 1.238 . S
O25 Co19 2.052 . S
O25 C21 1.241 . S
O26 Co14 2.137 . S
O26 C17 1.247 . S
O27 Co14 2.244 . S
O27 C17 1.272 . S
O27 Co19 2.135 . S
Co28 O29 2.216 . S
Co28 O30 2.091 . S
Co28 O32 2.004 . S
Co28 O38 2.021 . S
Co28 O40 2.137 . S
Co28 O41 2.244 . S
O29 Co28 2.216 . S
O29 C36 1.247 . S
O30 Co28 2.091 . S
O30 C36 1.261 . S
C31 O40 1.247 . S
C31 O41 1.272 . S
O32 Co28 2.004 . S
O32 C37 1.259 . S
Co33 O34 2.061 . S
Co33 O39 2.052 . S
Co33 O41 2.135 . S
O34 Co33 2.061 . S
O34 C37 1.235 . S
C35 O38 1.238 . S
C35 O39 1.241 . S
C36 O29 1.247 . S
C36 O30 1.261 . S
C37 O32 1.259 . S
C37 O34 1.235 . S
O38 Co28 2.021 . S
O38 C35 1.238 . S
O39 Co33 2.052 . S
O39 C35 1.241 . S
O40 Co28 2.137 . S
O40 C31 1.247 . S
O41 Co28 2.244 . S
O41 C31 1.272 . S
O41 Co33 2.135 . S
Co42 O43 2.216 . S
Co42 O44 2.091 . S
Co42 O46 2.004 . S
Co42 O52 2.021 . S
Co42 O54 2.137 . S
Co42 O55 2.244 . S
O43 Co42 2.216 . S
O43 C50 1.247 . S
O44 Co42 2.091 . S
O44 C50 1.261 . S
C45 O54 1.247 . S
C45 O55 1.272 . S
O46 Co42 2.004 . S
O46 C51 1.259 . S
Co47 O48 2.061 . S
Co47 O53 2.052 . S
Co47 O55 2.135 . S
O48 Co47 2.061 . S
O48 C51 1.235 . S
C49 O52 1.238 1_556 S
C49 O53 1.241 1_556 S
C50 O43 1.247 . S
C50 O44 1.261 . S
C51 O46 1.259 . S
C51 O48 1.235 . S
O52 Co42 2.021 . S
O52 C49 1.238 1_554 S
O53 Co47 2.052 . S
O53 C49 1.241 1_554 S
O54 Co42 2.137 . S
O54 C45 1.247 . S
O55 Co42 2.244 . S
O55 C45 1.272 . S
O55 Co47 2.135 . S
Co56 O57 2.216 . S
Co56 O58 2.091 . S
Co56 O60 2.004 . S
Co56 O66 2.021 . S
Co56 O68 2.137 . S
Co56 O69 2.244 . S
O57 Co56 2.216 . S
O57 C64 1.247 . S
O58 Co56 2.091 . S
O58 C64 1.261 . S
C59 O68 1.247 . S
C59 O69 1.272 . S
O60 Co56 2.004 . S
O60 C65 1.259 . S
Co61 O62 2.061 . S
Co61 O67 2.052 . S
Co61 O69 2.135 . S
O62 Co61 2.061 . S
O62 C65 1.235 . S
C63 O66 1.238 . S
C63 O67 1.241 . S
C64 O57 1.247 . S
C64 O58 1.261 . S
C65 O60 1.259 . S
C65 O62 1.235 . S
O66 Co56 2.021 . S
O66 C63 1.238 . S
O67 Co61 2.052 . S
O67 C63 1.241 . S
O68 Co56 2.137 . S
O68 C59 1.247 . S
O69 Co56 2.244 . S
O69 C59 1.272 . S
O69 Co61 2.135 . S
Co70 O71 2.216 . S
Co70 O72 2.091 . S
Co70 O74 2.004 . S
Co70 O80 2.021 . S
Co70 O82 2.137 . S
Co70 O83 2.244 . S
O71 Co70 2.216 . S
O71 C78 1.247 . S
O72 Co70 2.091 . S
O72 C78 1.261 . S
C73 O82 1.247 . S
C73 O83 1.272 . S
O74 Co70 2.004 . S
O74 C79 1.259 . S
Co75 O76 2.061 . S
Co75 O81 2.052 . S
Co75 O83 2.135 . S
O76 Co75 2.061 . S
O76 C79 1.235 . S
C77 O80 1.238 . S
C77 O81 1.241 . S
C78 O71 1.247 . S
C78 O72 1.261 . S
C79 O74 1.259 . S
C79 O76 1.235 . S
O80 Co70 2.021 . S
O80 C77 1.238 . S
O81 Co75 2.052 . S
O81 C77 1.241 . S
O82 Co70 2.137 . S
O82 C73 1.247 . S
O83 Co70 2.244 . S
O83 C73 1.272 . S
O83 Co75 2.135 . S
Co84 O85 2.216 . S
Co84 O86 2.091 . S
Co84 O88 2.004 . S
Co84 O94 2.021 . S
Co84 O96 2.137 . S
Co84 O97 2.244 . S
O85 Co84 2.216 . S
O85 C92 1.247 . S
O86 Co84 2.091 . S
O86 C92 1.261 . S
C87 O96 1.247 . S
C87 O97 1.272 . S
O88 Co84 2.004 . S
O88 C93 1.259 . S
Co89 O90 2.061 . S
Co89 O95 2.052 . S
Co89 O97 2.135 . S
O90 Co89 2.061 . S
O90 C93 1.235 . S
C91 O94 1.238 . S
C91 O95 1.241 . S
C92 O85 1.247 . S
C92 O86 1.261 . S
C93 O88 1.259 . S
C93 O90 1.235 . S
O94 Co84 2.021 . S
O94 C91 1.238 . S
O95 Co89 2.052 . S
O95 C91 1.241 . S
O96 Co84 2.137 . S
O96 C87 1.247 . S
O97 Co84 2.244 . S
O97 C87 1.272 . S
O97 Co89 2.135 . S
Co98 O99 2.216 . S
Co98 O100 2.091 . S
Co98 O102 2.004 . S
Co98 O108 2.021 . S
Co98 O110 2.137 . S
Co98 O111 2.244 . S
O99 Co98 2.216 . S
O99 C106 1.247 . S
O100 Co98 2.091 . S
O100 C106 1.261 . S
C101 O110 1.247 . S
C101 O111 1.272 . S
O102 Co98 2.004 . S
O102 C107 1.259 . S
Co103 O104 2.061 . S
Co103 O109 2.052 . S
Co103 O111 2.135 . S
O104 Co103 2.061 . S
O104 C107 1.235 . S
C105 O108 1.238 1_554 S
C105 O109 1.241 1_554 S
C106 O99 1.247 . S
C106 O100 1.261 . S
C107 O102 1.259 . S
C107 O104 1.235 . S
O108 Co98 2.021 . S
O108 C105 1.238 1_556 S
O109 Co103 2.052 . S
O109 C105 1.241 1_556 S
O110 Co98 2.137 . S
O110 C101 1.247 . S
O111 Co98 2.244 . S
O111 C101 1.272 . S
O111 Co103 2.135 . S
Co112 O113 2.216 . S
Co112 O114 2.091 . S
Co112 O116 2.004 . S
Co112 O122 2.021 . S
Co112 O124 2.137 . S
Co112 O125 2.244 . S
O113 Co112 2.216 . S
O113 C120 1.247 . S
O114 Co112 2.091 . S
O114 C120 1.261 . S
C115 O124 1.247 . S
C115 O125 1.272 . S
O116 Co112 2.004 . S
O116 C121 1.259 . S
Co117 O118 2.061 . S
Co117 O123 2.052 . S
Co117 O125 2.135 . S
O118 Co117 2.061 . S
O118 C121 1.235 . S
C119 O122 1.238 . S
C119 O123 1.241 . S
C120 O113 1.247 . S
C120 O114 1.261 . S
C121 O116 1.259 . S
C121 O118 1.235 . S
O122 Co112 2.021 . S
O122 C119 1.238 . S
O123 Co117 2.052 . S
O123 C119 1.241 . S
O124 Co112 2.137 . S
O124 C115 1.247 . S
O125 Co112 2.244 . S
O125 C115 1.272 . S
O125 Co117 2.135 . S
Co126 O127 2.216 . S
Co126 O128 2.091 . S
Co126 O130 2.004 . S
Co126 O136 2.021 . S
Co126 O138 2.137 . S
Co126 O139 2.244 . S
O127 Co126 2.216 . S
O127 C134 1.247 . S
O128 Co126 2.091 . S
O128 C134 1.261 . S
C129 O138 1.247 . S
C129 O139 1.272 . S
O130 Co126 2.004 . S
O130 C135 1.259 . S
Co131 O132 2.061 . S
Co131 O137 2.052 . S
Co131 O139 2.135 . S
O132 Co131 2.061 . S
O132 C135 1.235 . S
C133 O136 1.238 . S
C133 O137 1.241 . S
C134 O127 1.247 . S
C134 O128 1.261 . S
C135 O130 1.259 . S
C135 O132 1.235 . S
O136 Co126 2.021 . S
O136 C133 1.238 . S
O137 Co131 2.052 . S
O137 C133 1.241 . S
O138 Co126 2.137 . S
O138 C129 1.247 . S
O139 Co126 2.244 . S
O139 C129 1.272 . S
O139 Co131 2.135 . S
Co140 O141 2.216 . S
Co140 O142 2.091 . S
Co140 O144 2.004 . S
Co140 O150 2.021 . S
Co140 O152 2.137 . S
Co140 O153 2.244 . S
O141 Co140 2.216 . S
O141 C148 1.247 . S
O142 Co140 2.091 . S
O142 C148 1.261 . S
C143 O152 1.247 . S
C143 O153 1.272 . S
O144 Co140 2.004 . S
O144 C149 1.259 . S
Co145 O146 2.061 . S
Co145 O151 2.052 . S
Co145 O153 2.135 . S
O146 Co145 2.061 . S
O146 C149 1.235 . S
C147 O150 1.238 1_554 S
C147 O151 1.241 1_554 S
C148 O141 1.247 . S
C148 O142 1.261 . S
C149 O144 1.259 . S
C149 O146 1.235 . S
O150 Co140 2.021 . S
O150 C147 1.238 1_556 S
O151 Co145 2.052 . S
O151 C147 1.241 1_556 S
O152 Co140 2.137 . S
O152 C143 1.247 . S
O153 Co140 2.244 . S
O153 C143 1.272 . S
O153 Co145 2.135 . S
Co154 O155 2.216 . S
Co154 O156 2.091 . S
Co154 O158 2.004 . S
Co154 O164 2.021 . S
Co154 O166 2.137 . S
Co154 O167 2.244 . S
O155 Co154 2.216 . S
O155 C162 1.247 . S
O156 Co154 2.091 . S
O156 C162 1.261 . S
C157 O166 1.247 . S
C157 O167 1.272 . S
O158 Co154 2.004 . S
O158 C163 1.259 . S
Co159 O160 2.061 . S
Co159 O165 2.052 . S
Co159 O167 2.135 . S
O160 Co159 2.061 . S
O160 C163 1.235 . S
C161 O164 1.238 . S
C161 O165 1.241 . S
C162 O155 1.247 . S
C162 O156 1.261 . S
C163 O158 1.259 . S
C163 O160 1.235 . S
O164 Co154 2.021 . S
O164 C161 1.238 . S
O165 Co159 2.052 . S
O165 C161 1.241 . S
O166 Co154 2.137 . S
O166 C157 1.247 . S
O167 Co154 2.244 . S
O167 C157 1.272 . S
O167 Co159 2.135 . S
H168 C176 0.950 . S
H169 C181 0.950 . S
H170 C178 0.950 . S
H171 C180 0.950 . S
H172 C182 0.950 . S
H173 C184 0.950 . S
H174 C186 0.950 . S
H175 C187 0.950 . S
C176 H168 0.950 . S
C176 C177 1.386 . S
C176 C178 1.391 . S
C177 C176 1.386 . S
C177 C181 1.393 . S
C178 H170 0.950 . S
C178 C176 1.391 . S
C178 C179 1.400 . S
C179 C178 1.400 . S
C179 C180 1.398 . S
C179 C185 1.491 . S
C180 H171 0.950 . S
C180 C179 1.398 . S
C180 C181 1.391 . S
C181 H169 0.950 . S
C181 C177 1.393 . S
C181 C180 1.391 . S
C182 H172 0.950 . S
C182 C183 1.386 . S
C182 C184 1.391 . S
C183 C182 1.386 . S
C183 C187 1.393 . S
C184 H173 0.950 . S
C184 C182 1.391 . S
C184 C185 1.400 . S
C185 C179 1.491 . S
C185 C184 1.400 . S
C185 C186 1.398 . S
C186 H174 0.950 . S
C186 C185 1.398 . S
C186 C187 1.391 . S
C187 H175 0.950 . S
C187 C183 1.393 . S
C187 C186 1.391 . S
H188 C196 0.950 . S
H189 C201 0.950 . S
H190 C198 0.950 . S
H191 C200 0.950 . S
H192 C202 0.950 . S
H193 C204 0.950 . S
H194 C206 0.950 . S
H195 C207 0.950 . S
C196 H188 0.950 . S
C196 C197 1.386 . S
C196 C198 1.391 . S
C197 C196 1.386 . S
C197 C201 1.393 . S
C198 H190 0.950 . S
C198 C196 1.391 . S
C198 C199 1.400 . S
C199 C198 1.400 . S
C199 C200 1.398 . S
C199 C205 1.491 . S
C200 H191 0.950 . S
C200 C199 1.398 . S
C200 C201 1.391 . S
C201 H189 0.950 . S
C201 C197 1.393 . S
C201 C200 1.391 . S
C202 H192 0.950 . S
C202 C203 1.386 . S
C202 C204 1.391 . S
C203 C202 1.386 . S
C203 C207 1.393 . S
C204 H193 0.950 . S
C204 C202 1.391 . S
C204 C205 1.400 . S
C205 C199 1.491 . S
C205 C204 1.400 . S
C205 C206 1.398 . S
C206 H194 0.950 . S
C206 C205 1.398 . S
C206 C207 1.391 . S
C207 H195 0.950 . S
C207 C203 1.393 . S
C207 C206 1.391 . S
H208 C216 0.950 . S
H209 C221 0.950 . S
H210 C218 0.950 . S
H211 C220 0.950 . S
H212 C222 0.950 . S
H213 C224 0.950 . S
H214 C226 0.950 . S
H215 C227 0.950 . S
C216 H208 0.950 . S
C216 C217 1.386 . S
C216 C218 1.391 . S
C217 C216 1.386 . S
C217 C221 1.393 . S
C218 H210 0.950 . S
C218 C216 1.391 . S
C218 C219 1.400 . S
C219 C218 1.400 . S
C219 C220 1.398 . S
C219 C225 1.491 1_556 S
C220 H211 0.950 . S
C220 C219 1.398 . S
C220 C221 1.391 . S
C221 H209 0.950 . S
C221 C217 1.393 . S
C221 C220 1.391 . S
C222 H212 0.950 . S
C222 C223 1.386 . S
C222 C224 1.391 . S
C223 C222 1.386 . S
C223 C227 1.393 . S
C224 H213 0.950 . S
C224 C222 1.391 . S
C224 C225 1.400 . S
C225 C219 1.491 1_554 S
C225 C224 1.400 . S
C225 C226 1.398 . S
C226 H214 0.950 . S
C226 C225 1.398 . S
C226 C227 1.391 . S
C227 H215 0.950 . S
C227 C223 1.393 . S
C227 C226 1.391 . S
H228 C236 0.950 . S
H229 C241 0.950 . S
H230 C238 0.950 . S
H231 C240 0.950 . S
H232 C242 0.950 . S
H233 C244 0.950 . S
H234 C246 0.950 . S
H235 C247 0.950 . S
C236 H228 0.950 . S
C236 C237 1.386 . S
C236 C238 1.391 . S
C237 C236 1.386 . S
C237 C241 1.393 . S
C238 H230 0.950 . S
C238 C236 1.391 . S
C238 C239 1.400 . S
C239 C238 1.400 . S
C239 C240 1.398 . S
C239 C245 1.491 . S
C240 H231 0.950 . S
C240 C239 1.398 . S
C240 C241 1.391 . S
C241 H229 0.950 . S
C241 C237 1.393 . S
C241 C240 1.391 . S
C242 H232 0.950 . S
C242 C243 1.386 . S
C242 C244 1.391 . S
C243 C242 1.386 . S
C243 C247 1.393 . S
C244 H233 0.950 . S
C244 C242 1.391 . S
C244 C245 1.400 . S
C245 C239 1.491 . S
C245 C244 1.400 . S
C245 C246 1.398 . S
C246 H234 0.950 . S
C246 C245 1.398 . S
C246 C247 1.391 . S
C247 H235 0.950 . S
C247 C243 1.393 . S
C247 C246 1.391 . S
H248 C256 0.950 . S
H249 C261 0.950 . S
H250 C258 0.950 . S
H251 C260 0.950 . S
H252 C262 0.950 . S
H253 C264 0.950 . S
H254 C266 0.950 . S
H255 C267 0.950 . S
C256 H248 0.950 . S
C256 C257 1.386 . S
C256 C258 1.391 . S
C257 C256 1.386 . S
C257 C261 1.393 . S
C258 H250 0.950 . S
C258 C256 1.391 . S
C258 C259 1.400 . S
C259 C258 1.400 . S
C259 C260 1.398 . S
C259 C265 1.491 . S
C260 H251 0.950 . S
C260 C259 1.398 . S
C260 C261 1.391 . S
C261 H249 0.950 . S
C261 C257 1.393 . S
C261 C260 1.391 . S
C262 H252 0.950 . S
C262 C263 1.386 . S
C262 C264 1.391 . S
C263 C262 1.386 . S
C263 C267 1.393 . S
C264 H253 0.950 . S
C264 C262 1.391 . S
C264 C265 1.400 . S
C265 C259 1.491 . S
C265 C264 1.400 . S
C265 C266 1.398 . S
C266 H254 0.950 . S
C266 C265 1.398 . S
C266 C267 1.391 . S
C267 H255 0.950 . S
C267 C263 1.393 . S
C267 C266 1.391 . S
H268 C276 0.950 . S
H269 C281 0.950 . S
H270 C278 0.950 . S
H271 C280 0.950 . S
H272 C282 0.950 . S
H273 C284 0.950 . S
H274 C286 0.950 . S
H275 C287 0.950 . S
C276 H268 0.950 . S
C276 C277 1.386 . S
C276 C278 1.391 . S
C277 C276 1.386 . S
C277 C281 1.393 . S
C278 H270 0.950 . S
C278 C276 1.391 . S
C278 C279 1.400 . S
C279 C278 1.400 . S
C279 C280 1.398 . S
C279 C285 1.491 1_554 S
C280 H271 0.950 . S
C280 C279 1.398 . S
C280 C281 1.391 . S
C281 H269 0.950 . S
C281 C277 1.393 . S
C281 C280 1.391 . S
C282 H272 0.950 . S
C282 C283 1.386 . S
C282 C284 1.391 . S
C283 C282 1.386 . S
C283 C287 1.393 . S
C284 H273 0.950 . S
C284 C282 1.391 . S
C284 C285 1.400 . S
C285 C279 1.491 1_556 S
C285 C284 1.400 . S
C285 C286 1.398 . S
C286 H274 0.950 . S
C286 C285 1.398 . S
C286 C287 1.391 . S
C287 H275 0.950 . S
C287 C283 1.393 . S
C287 C286 1.391 . S
H288 C296 0.950 . S
H289 C301 0.950 . S
H290 C298 0.950 . S
H291 C300 0.950 . S
H292 C302 0.950 . S
H293 C304 0.950 . S
H294 C306 0.950 . S
H295 C307 0.950 . S
C296 H288 0.950 . S
C296 C297 1.386 . S
C296 C298 1.391 . S
C297 C296 1.386 . S
C297 C301 1.393 . S
C298 H290 0.950 . S
C298 C296 1.391 . S
C298 C299 1.400 . S
C299 C298 1.400 . S
C299 C300 1.398 . S
C299 C305 1.491 1_554 S
C300 H291 0.950 . S
C300 C299 1.398 . S
C300 C301 1.391 . S
C301 H289 0.950 . S
C301 C297 1.393 . S
C301 C300 1.391 . S
C302 H292 0.950 . S
C302 C303 1.386 . S
C302 C304 1.391 . S
C303 C302 1.386 . S
C303 C307 1.393 . S
C304 H293 0.950 . S
C304 C302 1.391 . S
C304 C305 1.400 . S
C305 C299 1.491 1_556 S
C305 C304 1.400 . S
C305 C306 1.398 . S
C306 H294 0.950 . S
C306 C305 1.398 . S
C306 C307 1.391 . S
C307 H295 0.950 . S
C307 C303 1.393 . S
C307 C306 1.391 . S
H308 C316 0.950 . S
H309 C321 0.950 . S
H310 C318 0.950 . S
H311 C320 0.950 . S
H312 C322 0.950 . S
H313 C324 0.950 . S
H314 C326 0.950 . S
H315 C327 0.950 . S
C316 H308 0.950 . S
C316 C317 1.386 . S
C316 C318 1.391 . S
C317 C316 1.386 . S
C317 C321 1.393 . S
C318 H310 0.950 . S
C318 C316 1.391 . S
C318 C319 1.400 . S
C319 C318 1.400 . S
C319 C320 1.398 . S
C319 C325 1.491 . S
C320 H311 0.950 . S
C320 C319 1.398 . S
C320 C321 1.391 . S
C321 H309 0.950 . S
C321 C317 1.393 . S
C321 C320 1.391 . S
C322 H312 0.950 . S
C322 C323 1.386 . S
C322 C324 1.391 . S
C323 C322 1.386 . S
C323 C327 1.393 . S
C324 H313 0.950 . S
C324 C322 1.391 . S
C324 C325 1.400 . S
C325 C319 1.491 . S
C325 C324 1.400 . S
C325 C326 1.398 . S
C326 H314 0.950 . S
C326 C325 1.398 . S
C326 C327 1.391 . S
C327 H315 0.950 . S
C327 C323 1.393 . S
C327 C326 1.391 . S
H328 C336 0.950 . S
H329 C341 0.950 . S
H330 C338 0.950 . S
H331 C340 0.950 . S
H332 C342 0.950 . S
H333 C344 0.950 . S
H334 C346 0.950 . S
H335 C347 0.950 . S
C336 H328 0.950 . S
C336 C337 1.386 . S
C336 C338 1.391 . S
C337 C336 1.386 . S
C337 C341 1.393 . S
C338 H330 0.950 . S
C338 C336 1.391 . S
C338 C339 1.400 . S
C339 C338 1.400 . S
C339 C340 1.398 . S
C339 C345 1.491 . S
C340 H331 0.950 . S
C340 C339 1.398 . S
C340 C341 1.391 . S
C341 H329 0.950 . S
C341 C337 1.393 . S
C341 C340 1.391 . S
C342 H332 0.950 . S
C342 C343 1.386 . S
C342 C344 1.391 . S
C343 C342 1.386 . S
C343 C347 1.393 . S
C344 H333 0.950 . S
C344 C342 1.391 . S
C344 C345 1.400 . S
C345 C339 1.491 . S
C345 C344 1.400 . S
C345 C346 1.398 . S
C346 H334 0.950 . S
C346 C345 1.398 . S
C346 C347 1.391 . S
C347 H335 0.950 . S
C347 C343 1.393 . S
C347 C346 1.391 . S
H348 C356 0.950 . S
H349 C361 0.950 . S
H350 C358 0.950 1_556 S
H351 C360 0.950 . S
H352 C362 0.950 . S
H353 C364 0.950 1_554 S
H354 C366 0.950 . S
H355 C367 0.950 . S
C356 H348 0.950 . S
C356 C357 1.386 . S
C356 C358 1.391 . S
C357 C356 1.386 . S
C357 C361 1.393 . S
C358 H350 0.950 1_554 S
C358 C356 1.391 . S
C358 C359 1.400 . S
C359 C358 1.400 . S
C359 C360 1.398 . S
C359 C365 1.491 1_554 S
C360 H351 0.950 . S
C360 C359 1.398 . S
C360 C361 1.391 . S
C361 H349 0.950 . S
C361 C357 1.393 . S
C361 C360 1.391 . S
C362 H352 0.950 . S
C362 C363 1.386 . S
C362 C364 1.391 . S
C363 C362 1.386 . S
C363 C367 1.393 . S
C364 H353 0.950 1_556 S
C364 C362 1.391 . S
C364 C365 1.400 . S
C365 C359 1.491 1_556 S
C365 C364 1.400 . S
C365 C366 1.398 . S
C366 H354 0.950 . S
C366 C365 1.398 . S
C366 C367 1.391 . S
C367 H355 0.950 . S
C367 C363 1.393 . S
C367 C366 1.391 . S
H368 C376 0.950 . S
H369 C381 0.950 . S
H370 C378 0.950 . S
H371 C380 0.950 . S
H372 C382 0.950 . S
H373 C384 0.950 . S
H374 C386 0.950 . S
H375 C387 0.950 . S
C376 H368 0.950 . S
C376 C377 1.386 . S
C376 C378 1.391 . S
C377 C376 1.386 . S
C377 C381 1.393 . S
C378 H370 0.950 . S
C378 C376 1.391 . S
C378 C379 1.400 . S
C379 C378 1.400 . S
C379 C380 1.398 . S
C379 C385 1.491 . S
C380 H371 0.950 . S
C380 C379 1.398 . S
C380 C381 1.391 . S
C381 H369 0.950 . S
C381 C377 1.393 . S
C381 C380 1.391 . S
C382 H372 0.950 . S
C382 C383 1.386 . S
C382 C384 1.391 . S
C383 C382 1.386 . S
C383 C387 1.393 . S
C384 H373 0.950 . S
C384 C382 1.391 . S
C384 C385 1.400 . S
C385 C379 1.491 . S
C385 C384 1.400 . S
C385 C386 1.398 . S
C386 H374 0.950 . S
C386 C385 1.398 . S
C386 C387 1.391 . S
C387 H375 0.950 . S
C387 C383 1.393 . S
C387 C386 1.391 . S
H388 C396 0.950 . S
H389 C401 0.950 . S
H390 C398 0.950 . S
H391 C400 0.950 . S
H392 C402 0.950 . S
H393 C404 0.950 . S
H394 C406 0.950 . S
H395 C407 0.950 . S
C396 H388 0.950 . S
C396 C397 1.386 . S
C396 C398 1.391 . S
C397 C396 1.386 . S
C397 C401 1.393 . S
C398 H390 0.950 . S
C398 C396 1.391 . S
C398 C399 1.400 . S
C399 C398 1.400 . S
C399 C400 1.398 . S
C399 C405 1.491 . S
C400 H391 0.950 . S
C400 C399 1.398 . S
C400 C401 1.391 . S
C401 H389 0.950 . S
C401 C397 1.393 . S
C401 C400 1.391 . S
C402 H392 0.950 . S
C402 C403 1.386 . S
C402 C404 1.391 . S
C403 C402 1.386 . S
C403 C407 1.393 . S
C404 H393 0.950 . S
C404 C402 1.391 . S
C404 C405 1.400 . S
C405 C399 1.491 . S
C405 C404 1.400 . S
C405 C406 1.398 . S
C406 H394 0.950 . S
C406 C405 1.398 . S
C406 C407 1.391 . S
C407 H395 0.950 . S
C407 C403 1.393 . S
C407 C406 1.391 . S
H408 C416 0.950 . S
H409 C421 0.950 . S
H410 C418 0.950 . S
H411 C420 0.950 . S
H412 C422 0.950 . S
H413 C424 0.950 . S
H414 C426 0.950 . S
H415 C427 0.950 . S
C416 H408 0.950 . S
C416 C417 1.386 . S
C416 C418 1.391 . S
C417 C416 1.386 . S
C417 C421 1.393 . S
C418 H410 0.950 . S
C418 C416 1.391 . S
C418 C419 1.400 . S
C419 C418 1.400 . S
C419 C420 1.398 . S
C419 C425 1.491 . S
C420 H411 0.950 . S
C420 C419 1.398 . S
C420 C421 1.391 . S
C421 H409 0.950 . S
C421 C417 1.393 . S
C421 C420 1.391 . S
C422 H412 0.950 . S
C422 C423 1.386 . S
C422 C424 1.391 . S
C423 C422 1.386 . S
C423 C427 1.393 . S
C424 H413 0.950 . S
C424 C422 1.391 . S
C424 C425 1.400 . S
C425 C419 1.491 . S
C425 C424 1.400 . S
C425 C426 1.398 . S
C426 H414 0.950 . S
C426 C425 1.398 . S
C426 C427 1.391 . S
C427 H415 0.950 . S
C427 C423 1.393 . S
C427 C426 1.391 . S
H428 C436 0.950 . S
H429 C441 0.950 . S
H430 C438 0.950 . S
H431 C440 0.950 . S
H432 C442 0.950 . S
H433 C444 0.950 . S
H434 C446 0.950 . S
H435 C447 0.950 . S
C436 H428 0.950 . S
C436 C437 1.386 . S
C436 C438 1.391 . S
C437 C436 1.386 . S
C437 C441 1.393 . S
C438 H430 0.950 . S
C438 C436 1.391 . S
C438 C439 1.400 . S
C439 C438 1.400 . S
C439 C440 1.398 . S
C439 C445 1.491 1_655 S
C440 H431 0.950 . S
C440 C439 1.398 . S
C440 C441 1.391 . S
C441 H429 0.950 . S
C441 C437 1.393 . S
C441 C440 1.391 . S
C442 H432 0.950 . S
C442 C443 1.386 . S
C442 C444 1.391 . S
C443 C442 1.386 . S
C443 C447 1.393 . S
C444 H433 0.950 . S
C444 C442 1.391 . S
C444 C445 1.400 . S
C445 C439 1.491 1_455 S
C445 C444 1.400 . S
C445 C446 1.398 . S
C446 H434 0.950 . S
C446 C445 1.398 . S
C446 C447 1.391 . S
C447 H435 0.950 . S
C447 C443 1.393 . S
C447 C446 1.391 . S
H448 C456 0.950 . S
H449 C461 0.950 . S
H450 C458 0.950 . S
H451 C460 0.950 . S
H452 C462 0.950 . S
H453 C464 0.950 . S
H454 C466 0.950 . S
H455 C467 0.950 . S
C456 H448 0.950 . S
C456 C457 1.386 . S
C456 C458 1.391 . S
C457 C456 1.386 . S
C457 C461 1.393 . S
C458 H450 0.950 . S
C458 C456 1.391 . S
C458 C459 1.400 . S
C459 C458 1.400 . S
C459 C460 1.398 . S
C459 C465 1.491 1_545 S
C460 H451 0.950 . S
C460 C459 1.398 . S
C460 C461 1.391 . S
C461 H449 0.950 . S
C461 C457 1.393 . S
C461 C460 1.391 . S
C462 H452 0.950 . S
C462 C463 1.386 . S
C462 C464 1.391 . S
C463 C462 1.386 . S
C463 C467 1.393 . S
C464 H453 0.950 . S
C464 C462 1.391 . S
C464 C465 1.400 . S
C465 C459 1.491 1_565 S
C465 C464 1.400 . S
C465 C466 1.398 . S
C466 H454 0.950 . S
C466 C465 1.398 . S
C466 C467 1.391 . S
C467 H455 0.950 . S
C467 C463 1.393 . S
C467 C466 1.391 . S
H468 C476 0.950 . S
H469 C481 0.950 . S
H470 C478 0.950 . S
H471 C480 0.950 . S
H472 C482 0.950 . S
H473 C484 0.950 . S
H474 C486 0.950 . S
H475 C487 0.950 . S
C476 H468 0.950 . S
C476 C477 1.386 . S
C476 C478 1.391 . S
C477 C476 1.386 . S
C477 C481 1.393 . S
C478 H470 0.950 . S
C478 C476 1.391 . S
C478 C479 1.400 . S
C479 C478 1.400 . S
C479 C480 1.398 . S
C479 C485 1.491 . S
C480 H471 0.950 . S
C480 C479 1.398 . S
C480 C481 1.391 . S
C481 H469 0.950 . S
C481 C477 1.393 . S
C481 C480 1.391 . S
C482 H472 0.950 . S
C482 C483 1.386 . S
C482 C484 1.391 . S
C483 C482 1.386 . S
C483 C487 1.393 . S
C484 H473 0.950 . S
C484 C482 1.391 . S
C484 C485 1.400 . S
C485 C479 1.491 . S
C485 C484 1.400 . S
C485 C486 1.398 . S
C486 H474 0.950 . S
C486 C485 1.398 . S
C486 C487 1.391 . S
C487 H475 0.950 . S
C487 C483 1.393 . S
C487 C486 1.391 . S
H488 C496 0.949 . S
H489 C501 0.950 . S
H490 C498 0.943 1_554 S
H491 C500 0.950 . S
H492 C502 0.950 . S
H493 C504 0.950 . S
H494 C506 0.950 1_554 S
H495 C507 0.950 1_554 S
C496 H488 0.949 . S
C496 C497 1.386 . S
C496 C498 1.391 . S
C497 C496 1.386 . S
C497 C501 1.393 . S
C498 H490 0.943 1_556 S
C498 C496 1.391 . S
C498 C499 1.400 . S
C499 C498 1.400 . S
C499 C500 1.398 . S
C499 C505 1.491 1_455 S
C500 H491 0.950 . S
C500 C499 1.398 . S
C500 C501 1.391 . S
C501 H489 0.950 . S
C501 C497 1.393 . S
C501 C500 1.391 . S
C502 H492 0.950 . S
C502 C503 1.386 . S
C502 C504 1.391 . S
C503 C502 1.386 . S
C503 C507 1.393 . S
C504 H493 0.950 . S
C504 C502 1.391 . S
C504 C505 1.400 . S
C505 C499 1.491 1_655 S
C505 C504 1.400 . S
C505 C506 1.398 . S
C506 H494 0.950 1_556 S
C506 C505 1.398 . S
C506 C507 1.391 . S
C507 H495 0.950 1_556 S
C507 C503 1.393 . S
C507 C506 1.391 . S
H508 C516 0.950 . S
H509 C521 0.950 . S
H510 C518 0.950 . S
H511 C520 0.950 . S
H512 C522 0.950 . S
H513 C524 0.950 . S
H514 C526 0.950 . S
H515 C527 0.950 . S
C516 H508 0.950 . S
C516 C517 1.386 . S
C516 C518 1.391 . S
C517 C516 1.386 . S
C517 C521 1.393 . S
C518 H510 0.950 . S
C518 C516 1.391 . S
C518 C519 1.400 . S
C519 C518 1.400 . S
C519 C520 1.398 1_565 S
C519 C525 1.491 1_565 S
C520 H511 0.950 . S
C520 C519 1.398 1_545 S
C520 C521 1.391 1_545 S
C521 H509 0.950 . S
C521 C517 1.393 . S
C521 C520 1.391 1_565 S
C522 H512 0.950 . S
C522 C523 1.386 . S
C522 C524 1.391 . S
C523 C522 1.386 . S
C523 C527 1.393 . S
C524 H513 0.950 . S
C524 C522 1.391 . S
C524 C525 1.400 . S
C525 C519 1.491 1_545 S
C525 C524 1.400 . S
C525 C526 1.398 1_545 S
C526 H514 0.950 . S
C526 C525 1.398 1_565 S
C526 C527 1.391 1_565 S
C527 H515 0.950 . S
C527 C523 1.393 . S
C527 C526 1.391 1_545 S
H528 C536 0.950 . S
H529 C541 0.950 . S
H530 C538 0.950 . S
H531 C540 0.950 . S
H532 C542 0.950 . S
H533 C544 0.950 . S
H534 C546 0.950 . S
H535 C547 0.950 . S
C536 H528 0.950 . S
C536 C537 1.386 . S
C536 C538 1.391 . S
C537 C536 1.386 . S
C537 C541 1.393 . S
C538 H530 0.950 . S
C538 C536 1.391 . S
C538 C539 1.400 . S
C539 C538 1.400 . S
C539 C540 1.398 . S
C539 C545 1.491 . S
C540 H531 0.950 . S
C540 C539 1.398 . S
C540 C541 1.391 . S
C541 H529 0.950 . S
C541 C537 1.393 . S
C541 C540 1.391 . S
C542 H532 0.950 . S
C542 C543 1.386 . S
C542 C544 1.391 . S
C543 C542 1.386 . S
C543 C547 1.393 . S
C544 H533 0.950 . S
C544 C542 1.391 . S
C544 C545 1.400 . S
C545 C539 1.491 . S
C545 C544 1.400 . S
C545 C546 1.398 . S
C546 H534 0.950 . S
C546 C545 1.398 . S
C546 C547 1.391 . S
C547 H535 0.950 . S
C547 C543 1.393 . S
C547 C546 1.391 . S
H548 C556 0.950 . S
H549 C561 0.950 . S
H550 C558 0.950 . S
H551 C560 0.950 . S
H552 C562 0.950 . S
H553 C564 0.950 . S
H554 C566 0.950 . S
H555 C567 0.950 . S
C556 H548 0.950 . S
C556 C557 1.386 . S
C556 C558 1.391 . S
C557 C556 1.386 . S
C557 C561 1.393 . S
C558 H550 0.950 . S
C558 C556 1.391 . S
C558 C559 1.400 . S
C559 C558 1.400 . S
C559 C560 1.398 . S
C559 C565 1.491 . S
C560 H551 0.950 . S
C560 C559 1.398 . S
C560 C561 1.391 . S
C561 H549 0.950 . S
C561 C557 1.393 . S
C561 C560 1.391 . S
C562 H552 0.950 . S
C562 C563 1.386 . S
C562 C564 1.391 . S
C563 C562 1.386 . S
C563 C567 1.393 . S
C564 H553 0.950 . S
C564 C562 1.391 . S
C564 C565 1.400 . S
C565 C559 1.491 . S
C565 C564 1.400 . S
C565 C566 1.398 . S
C566 H554 0.950 . S
C566 C565 1.398 . S
C566 C567 1.391 . S
C567 H555 0.950 . S
C567 C563 1.393 . S
C567 C566 1.391 . S
H568 C576 0.950 . S
H569 C581 0.950 . S
H570 C578 0.950 . S
H571 C580 0.950 . S
H572 C582 0.950 . S
H573 C584 0.950 . S
H574 C586 0.950 . S
H575 C587 0.950 . S
C576 H568 0.950 . S
C576 C577 1.386 . S
C576 C578 1.391 . S
C577 C576 1.386 . S
C577 C581 1.393 . S
C578 H570 0.950 . S
C578 C576 1.391 . S
C578 C579 1.400 . S
C579 C578 1.400 . S
C579 C580 1.398 . S
C579 C585 1.491 . S
C580 H571 0.950 . S
C580 C579 1.398 . S
C580 C581 1.391 . S
C581 H569 0.950 . S
C581 C577 1.393 . S
C581 C580 1.391 . S
C582 H572 0.950 . S
C582 C583 1.386 . S
C582 C584 1.391 . S
C583 C582 1.386 . S
C583 C587 1.393 . S
C584 H573 0.950 . S
C584 C582 1.391 . S
C584 C585 1.400 . S
C585 C579 1.491 . S
C585 C584 1.400 . S
C585 C586 1.398 . S
C586 H574 0.950 . S
C586 C585 1.398 . S
C586 C587 1.391 . S
C587 H575 0.950 . S
C587 C583 1.393 . S
C587 C586 1.391 . S
H588 C596 0.950 . S
H589 C601 0.950 . S
H590 C598 0.950 . S
H591 C600 0.950 . S
H592 C602 0.950 . S
H593 C604 0.950 . S
H594 C606 0.950 . S
H595 C607 0.950 . S
C596 H588 0.950 . S
C596 C597 1.386 . S
C596 C598 1.391 . S
C597 C596 1.386 . S
C597 C601 1.393 . S
C598 H590 0.950 . S
C598 C596 1.391 . S
C598 C599 1.400 . S
C599 C598 1.400 . S
C599 C600 1.398 . S
C599 C605 1.491 . S
C600 H591 0.950 . S
C600 C599 1.398 . S
C600 C601 1.391 . S
C601 H589 0.950 . S
C601 C597 1.393 . S
C601 C600 1.391 . S
C602 H592 0.950 . S
C602 C603 1.386 . S
C602 C604 1.391 . S
C603 C602 1.386 . S
C603 C607 1.393 . S
C604 H593 0.950 . S
C604 C602 1.391 . S
C604 C605 1.400 . S
C605 C599 1.491 . S
C605 C604 1.400 . S
C605 C606 1.398 . S
C606 H594 0.950 . S
C606 C605 1.398 . S
C606 C607 1.391 . S
C607 H595 0.950 . S
C607 C603 1.393 . S
C607 C606 1.391 . S
H608 C616 0.950 . S
H609 C621 0.950 . S
H610 C618 0.950 . S
H611 C620 0.950 . S
H612 C622 0.950 . S
H613 C624 0.950 . S
H614 C626 0.950 . S
H615 C627 0.950 . S
C616 H608 0.950 . S
C616 C617 1.386 . S
C616 C618 1.391 . S
C617 C616 1.386 . S
C617 C621 1.393 . S
C618 H610 0.950 . S
C618 C616 1.391 . S
C618 C619 1.400 . S
C619 C618 1.400 . S
C619 C620 1.398 . S
C619 C625 1.491 . S
C620 H611 0.950 . S
C620 C619 1.398 . S
C620 C621 1.391 . S
C621 H609 0.950 . S
C621 C617 1.393 . S
C621 C620 1.391 . S
C622 H612 0.950 . S
C622 C623 1.386 . S
C622 C624 1.391 . S
C623 C622 1.386 . S
C623 C627 1.393 . S
C624 H613 0.950 . S
C624 C622 1.391 . S
C624 C625 1.400 . S
C625 C619 1.491 . S
C625 C624 1.400 . S
C625 C626 1.398 . S
C626 H614 0.950 . S
C626 C625 1.398 . S
C626 C627 1.391 . S
C627 H615 0.950 . S
C627 C623 1.393 . S
C627 C626 1.391 . S
H628 C636 0.950 . S
H629 C641 0.950 . S
H630 C638 0.950 . S
H631 C640 0.950 . S
H632 C642 0.950 . S
H633 C644 0.950 . S
H634 C646 0.950 . S
H635 C647 0.950 . S
C636 H628 0.950 . S
C636 C637 1.386 . S
C636 C638 1.391 . S
C637 C636 1.386 . S
C637 C641 1.393 . S
C638 H630 0.950 . S
C638 C636 1.391 . S
C638 C639 1.400 . S
C639 C638 1.400 . S
C639 C640 1.398 . S
C639 C645 1.491 . S
C640 H631 0.950 . S
C640 C639 1.398 . S
C640 C641 1.391 . S
C641 H629 0.950 . S
C641 C637 1.393 . S
C641 C640 1.391 . S
C642 H632 0.950 . S
C642 C643 1.386 . S
C642 C644 1.391 . S
C643 C642 1.386 . S
C643 C647 1.393 . S
C644 H633 0.950 . S
C644 C642 1.391 . S
C644 C645 1.400 . S
C645 C639 1.491 . S
C645 C644 1.400 . S
C645 C646 1.398 . S
C646 H634 0.950 . S
C646 C645 1.398 . S
C646 C647 1.391 . S
C647 H635 0.950 . S
C647 C643 1.393 . S
C647 C646 1.391 . S
C177 C3 1.507 . S
C183 C87 1.502 . S
C197 C17 1.455 . S
C203 C101 1.464 . S
C217 C31 1.498 . S
C223 C115 1.510 . S
C237 C45 1.507 . S
C243 C129 1.503 . S
C257 C59 1.463 . S
C263 C143 1.465 . S
C277 C157 1.520 . S
C283 C73 1.506 . S
C297 C8 1.500 . S
C303 C148 1.578 . S
C317 C22 1.588 . S
C323 C162 1.506 . S
C337 C36 1.556 . S
C343 C92 1.555 . S
C357 C50 1.505 . S
C363 C106 1.587 . S
C377 C64 1.578 . S
C383 C120 1.498 . S
C397 C78 1.557 . S
C403 C134 1.559 . S
C417 C9 1.882 . S
C423 C51 1.882 . S
C437 C23 1.365 . S
C443 C65 1.366 . S
C457 C79 1.204 . S
C463 C37 1.206 . S
C477 C93 1.202 . S
C483 C135 1.200 . S
C497 C149 1.348 . S
C503 C107 1.349 . S
C517 C121 1.912 . S
C523 C163 1.912 . S
C537 C91 0.733 . S
C543 C7 0.742 . S
C557 C21 0.728 . S
C563 C105 0.739 . S
C577 C35 0.732 . S
C583 C119 0.743 . S
C597 C133 0.746 . S
C603 C49 0.725 . S
C617 C147 0.709 . S
C623 C63 0.734 . S
C637 C77 0.755 . S
C643 C161 0.727 . S
