# Generated by pormake.
# Topology whw, (6)-cn, num edge types: 1
# Building blocks:
#     Node 0, Type 0, BuildingBlock: KUMBOL_clean_sbu_0, # of connection points: 6
#     Node 1, Type 0, BuildingBlock: KUMBOL_clean_sbu_0, # of connection points: 6
#     Node 2, Type 0, BuildingBlock: KUMBOL_clean_sbu_0, # of connection points: 6
#     Node 3, Type 0, BuildingBlock: KUMBOL_clean_sbu_0, # of connection points: 6
#     Node 4, Type 0, BuildingBlock: KUMBOL_clean_sbu_0, # of connection points: 6
#     Node 5, Type 0, BuildingBlock: KUMBOL_clean_sbu_0, # of connection points: 6
#     Node 6, Type 0, BuildingBlock: KUMBOL_clean_sbu_0, # of connection points: 6
#     Node 7, Type 0, BuildingBlock: KUMBOL_clean_sbu_0, # of connection points: 6
#     Node 8, Type 0, BuildingBlock: KUMBOL_clean_sbu_0, # of connection points: 6
#     Node 9, Type 0, BuildingBlock: KUMBOL_clean_sbu_0, # of connection points: 6
#     Node 10, Type 0, BuildingBlock: KUMBOL_clean_sbu_0, # of connection points: 6
#     Node 11, Type 0, BuildingBlock: KUMBOL_clean_sbu_0, # of connection points: 6
#     Node 12, Type 0, BuildingBlock: KUMBOL_clean_sbu_0, # of connection points: 6
#     Node 13, Type 0, BuildingBlock: KUMBOL_clean_sbu_0, # of connection points: 6
#     Node 14, Type 0, BuildingBlock: KUMBOL_clean_sbu_0, # of connection points: 6
#     Node 15, Type 0, BuildingBlock: KUMBOL_clean_sbu_0, # of connection points: 6
#     Edge 16, Type (0, 0), BuildingBlock: XUDNAN_clean_linker_2, # of connection points: 2
#     Edge 17, Type (0, 0), BuildingBlock: XUDNAN_clean_linker_2, # of connection points: 2
#     Edge 18, Type (0, 0), BuildingBlock: XUDNAN_clean_linker_2, # of connection points: 2
#     Edge 19, Type (0, 0), BuildingBlock: XUDNAN_clean_linker_2, # of connection points: 2
#     Edge 20, Type (0, 0), BuildingBlock: XUDNAN_clean_linker_2, # of connection points: 2
#     Edge 21, Type (0, 0), BuildingBlock: XUDNAN_clean_linker_2, # of connection points: 2
#     Edge 22, Type (0, 0), BuildingBlock: XUDNAN_clean_linker_2, # of connection points: 2
#     Edge 23, Type (0, 0), BuildingBlock: XUDNAN_clean_linker_2, # of connection points: 2
#     Edge 24, Type (0, 0), BuildingBlock: XUDNAN_clean_linker_2, # of connection points: 2
#     Edge 25, Type (0, 0), BuildingBlock: XUDNAN_clean_linker_2, # of connection points: 2
#     Edge 26, Type (0, 0), BuildingBlock: XUDNAN_clean_linker_2, # of connection points: 2
#     Edge 27, Type (0, 0), BuildingBlock: XUDNAN_clean_linker_2, # of connection points: 2
#     Edge 28, Type (0, 0), BuildingBlock: XUDNAN_clean_linker_2, # of connection points: 2
#     Edge 29, Type (0, 0), BuildingBlock: XUDNAN_clean_linker_2, # of connection points: 2
#     Edge 30, Type (0, 0), BuildingBlock: XUDNAN_clean_linker_2, # of connection points: 2
#     Edge 31, Type (0, 0), BuildingBlock: XUDNAN_clean_linker_2, # of connection points: 2
#     Edge 32, Type (0, 0), BuildingBlock: XUDNAN_clean_linker_2, # of connection points: 2
#     Edge 33, Type (0, 0), BuildingBlock: XUDNAN_clean_linker_2, # of connection points: 2
#     Edge 34, Type (0, 0), BuildingBlock: XUDNAN_clean_linker_2, # of connection points: 2
#     Edge 35, Type (0, 0), BuildingBlock: XUDNAN_clean_linker_2, # of connection points: 2
#     Edge 36, Type (0, 0), BuildingBlock: XUDNAN_clean_linker_2, # of connection points: 2
#     Edge 37, Type (0, 0), BuildingBlock: XUDNAN_clean_linker_2, # of connection points: 2
#     Edge 38, Type (0, 0), BuildingBlock: XUDNAN_clean_linker_2, # of connection points: 2
#     Edge 39, Type (0, 0), BuildingBlock: XUDNAN_clean_linker_2, # of connection points: 2
#     Edge 40, Type (0, 0), BuildingBlock: XUDNAN_clean_linker_2, # of connection points: 2
#     Edge 41, Type (0, 0), BuildingBlock: XUDNAN_clean_linker_2, # of connection points: 2
#     Edge 42, Type (0, 0), BuildingBlock: XUDNAN_clean_linker_2, # of connection points: 2
#     Edge 43, Type (0, 0), BuildingBlock: XUDNAN_clean_linker_2, # of connection points: 2
#     Edge 44, Type (0, 0), BuildingBlock: XUDNAN_clean_linker_2, # of connection points: 2
#     Edge 45, Type (0, 0), BuildingBlock: XUDNAN_clean_linker_2, # of connection points: 2
#     Edge 46, Type (0, 0), BuildingBlock: XUDNAN_clean_linker_2, # of connection points: 2
#     Edge 47, Type (0, 0), BuildingBlock: XUDNAN_clean_linker_2, # of connection points: 2
#     Edge 48, Type (0, 0), BuildingBlock: XUDNAN_clean_linker_2, # of connection points: 2
#     Edge 49, Type (0, 0), BuildingBlock: XUDNAN_clean_linker_2, # of connection points: 2
#     Edge 50, Type (0, 0), BuildingBlock: XUDNAN_clean_linker_2, # of connection points: 2
#     Edge 51, Type (0, 0), BuildingBlock: XUDNAN_clean_linker_2, # of connection points: 2
#     Edge 52, Type (0, 0), BuildingBlock: XUDNAN_clean_linker_2, # of connection points: 2
#     Edge 53, Type (0, 0), BuildingBlock: XUDNAN_clean_linker_2, # of connection points: 2
#     Edge 54, Type (0, 0), BuildingBlock: XUDNAN_clean_linker_2, # of connection points: 2
#     Edge 55, Type (0, 0), BuildingBlock: XUDNAN_clean_linker_2, # of connection points: 2
#     Edge 56, Type (0, 0), BuildingBlock: XUDNAN_clean_linker_2, # of connection points: 2
#     Edge 57, Type (0, 0), BuildingBlock: XUDNAN_clean_linker_2, # of connection points: 2
#     Edge 58, Type (0, 0), BuildingBlock: XUDNAN_clean_linker_2, # of connection points: 2
#     Edge 59, Type (0, 0), BuildingBlock: XUDNAN_clean_linker_2, # of connection points: 2
#     Edge 60, Type (0, 0), BuildingBlock: XUDNAN_clean_linker_2, # of connection points: 2
#     Edge 61, Type (0, 0), BuildingBlock: XUDNAN_clean_linker_2, # of connection points: 2
#     Edge 62, Type (0, 0), BuildingBlock: XUDNAN_clean_linker_2, # of connection points: 2
#     Edge 63, Type (0, 0), BuildingBlock: XUDNAN_clean_linker_2, # of connection points: 2
# Relax obj value: 0.324
# Max RMSD: 0.266
# Mean RMSD: 0.222
data_MOF--net-whw--node1-KUMBOL_clean_sbu_0--edge1-XUDNAN_clean_linker_2
_symmetry_space_group_name_H-M    P1
_symmetry_Int_Tables_number       1
_symmetry_cell_setting            triclinic
loop_
_symmetry_equiv_pos_as_xyz
'x, y, z'
_cell_length_a     47.752739
_cell_length_b     47.137917
_cell_length_c     31.712953
_cell_angle_alpha  101.22493
_cell_angle_beta   89.108914
_cell_angle_gamma 116.26772
loop_
_atom_site_label
_atom_site_type_symbol
_atom_site_fract_x
_atom_site_fract_y
_atom_site_fract_z
_atom_type_partial_charge
Gd0 Gd 0.00096 0.11598 0.23209 0.0
Gd1 Gd 0.0763 0.16212 0.21018 0.0
C2 C 0.14632 0.15857 0.30302 0.0
C3 C 0.18747 0.21365 0.31442 0.0
C4 C 0.13849 0.19843 0.27323 0.0
C5 C 0.12768 0.16676 0.27825 0.0
C6 C 0.16876 0.22201 0.2907 0.0
C7 C 0.17604 0.18219 0.32129 0.0
C8 C 0.13519 0.12655 0.30739 0.0
C9 C 0.10688 0.10321 0.28568 0.0
N10 N 0.0998 0.14378 0.2575 0.0
C11 C 0.08999 0.11206 0.25986 0.0
H12 H 0.06909 0.09314 0.24249 0.0
C13 C 0.13108 0.23619 0.24125 0.0
N14 N 0.12033 0.20586 0.24924 0.0
C15 C 0.16111 0.26012 0.25736 0.0
C16 C 0.17987 0.25314 0.28264 0.0
H17 H 0.11687 0.24152 0.22083 0.0
H18 H 0.1907 0.17617 0.33995 0.0
H19 H 0.95769 0.15801 0.23842 0.0
H20 H 0.14868 0.11944 0.32643 0.0
H21 H 0.09837 0.07815 0.28789 0.0
H22 H 0.21077 0.23146 0.32793 0.0
H23 H 0.98265 0.03577 0.21161 0.0
H24 H 0.88825 0.11509 0.1335 0.0
H25 H 0.91576 0.15866 0.19667 0.0
H26 H 0.89273 0.01682 0.07329 0.0
H27 H 0.16989 0.28389 0.24998 0.0
H28 H 0.20307 0.27179 0.29519 0.0
H29 H 0.8807 0.06297 0.08662 0.0
H30 H 0.95264 0.98678 0.15699 0.0
N31 N 0.96052 0.11927 0.19361 0.0
C32 C 0.90845 0.11598 0.14993 0.0
C33 C 0.92402 0.14073 0.1854 0.0
C34 C 0.91771 0.09149 0.13781 0.0
C35 C 0.94399 0.09348 0.16074 0.0
C36 C 0.94915 0.14122 0.20792 0.0
N37 N 0.97209 0.06689 0.18078 0.0
C38 C 0.95055 0.06701 0.15339 0.0
C39 C 0.95252 0.00932 0.15454 0.0
C40 C 0.93377 0.01012 0.12222 0.0
C41 C 0.97018 0.03755 0.18489 0.0
C42 C 0.93116 0.03859 0.12287 0.0
H43 H 0.91924 0.98793 0.09949 0.0
O44 O 0.98837 0.08146 0.27457 0.0
O45 O 0.05068 0.13956 0.26377 0.0
O46 O 0.05691 0.11594 0.15982 0.0
O47 O 0.02536 0.08536 0.20356 0.0
O48 O 0.0173 0.14492 0.30149 0.0
O49 O 0.95443 0.09566 0.25232 0.0
O50 O 0.10794 0.18943 0.16663 0.0
O51 O 0.02676 0.13812 0.17604 0.0
O52 O 0.00858 0.16795 0.25104 0.0
O53 O 0.06256 0.19937 0.24893 0.0
O54 O 0.05451 0.18703 0.179 0.0
O55 O 0.1032 0.14197 0.17109 0.0
C56 C 0.04708 0.1533 0.30165 0.0
C57 C 0.90743 0.03825 0.09711 0.0
C58 C 0.90048 0.06449 0.10489 0.0
C59 C 0.95912 0.07622 0.27197 0.0
C60 C 0.94 0.0674 0.30732 0.0
C61 C 0.91421 0.03667 0.30085 0.0
C62 C 0.94383 0.09076 0.34403 0.0
C63 C 0.92187 0.08324 0.37447 0.0
C64 C 0.8922 0.0293 0.33146 0.0
C65 C 0.89601 0.05259 0.3684 0.0
C66 C 0.0409 0.08757 0.16876 0.0
C67 C 0.02825 0.16278 0.16172 0.0
C68 C 0.11648 0.16675 0.15295 0.0
C69 C 0.14861 0.17561 0.14159 0.0
C70 C 0.1745 0.18879 0.17195 0.0
C71 C 0.15275 0.16883 0.09792 0.0
C72 C 0.18247 0.17545 0.08388 0.0
C73 C 0.20437 0.19534 0.1581 0.0
C74 C 0.20843 0.18864 0.11403 0.0
C75 C 0.03416 0.19616 0.25882 0.0
H76 H 0.91059 0.01882 0.27152 0.0
H77 H 0.96342 0.11474 0.34854 0.0
H78 H 0.8721 0.00576 0.32636 0.0
H79 H 0.87891 0.04683 0.3922 0.0
H80 H 0.17175 0.19377 0.20592 0.0
H81 H 0.13265 0.15854 0.07443 0.0
H82 H 0.22439 0.20575 0.18153 0.0
H83 H 0.23166 0.19436 0.1035 0.0
Gd84 Gd 0.16381 0.73188 0.46555 0.0
Gd85 Gd 0.16615 0.79396 0.39678 0.0
C86 C 0.22271 0.90255 0.44889 0.0
C87 C 0.1819 0.91876 0.46903 0.0
C88 C 0.16814 0.86225 0.43815 0.0
C89 C 0.19981 0.87002 0.43548 0.0
C90 C 0.15903 0.88698 0.45309 0.0
C91 C 0.21364 0.9265 0.46705 0.0
C92 C 0.25408 0.91044 0.44221 0.0
C93 C 0.26194 0.88658 0.42079 0.0
N94 N 0.20814 0.84656 0.41676 0.0
C95 C 0.23861 0.85482 0.40759 0.0
H96 H 0.24557 0.83746 0.38981 0.0
C97 C 0.11573 0.82526 0.41288 0.0
N98 N 0.14627 0.83151 0.42155 0.0
C99 C 0.10564 0.84878 0.42774 0.0
C100 C 0.12727 0.87958 0.44895 0.0
H101 H 0.09885 0.80147 0.3961 0.0
H102 H 0.23098 0.95142 0.47797 0.0
H103 H 0.09114 0.67662 0.42926 0.0
H104 H 0.27224 0.93508 0.45214 0.0
H105 H 0.28601 0.89266 0.41412 0.0
H106 H 0.17525 0.93787 0.48115 0.0
H107 H 0.2369 0.74592 0.49218 0.0
H108 H 0.09147 0.58532 0.38152 0.0
H109 H 0.06291 0.61831 0.39487 0.0
H110 H 0.19847 0.60856 0.4112 0.0
H111 H 0.08126 0.84323 0.42244 0.0
H112 H 0.11945 0.89794 0.4599 0.0
H113 H 0.14223 0.58185 0.3875 0.0
H114 H 0.26931 0.71649 0.48401 0.0
N115 N 0.1353 0.67641 0.43418 0.0
C116 C 0.10392 0.61072 0.39675 0.0
C117 C 0.0877 0.62936 0.40436 0.0
C118 C 0.13599 0.62508 0.40907 0.0
C119 C 0.15113 0.65836 0.42831 0.0
C120 C 0.10376 0.66227 0.4237 0.0
N121 N 0.19601 0.70535 0.45992 0.0
C122 C 0.18259 0.67337 0.44134 0.0
C123 C 0.24495 0.70411 0.47168 0.0
C124 C 0.23174 0.6715 0.45099 0.0
C125 C 0.22656 0.72068 0.47635 0.0
C126 C 0.20009 0.6556 0.43589 0.0
H127 H 0.24602 0.65874 0.4474 0.0
O128 O 0.16937 0.73877 0.53627 0.0
O129 O 0.17819 0.78275 0.45874 0.0
O130 O 0.21021 0.78846 0.40415 0.0
O131 O 0.19903 0.73686 0.41475 0.0
O132 O 0.20349 0.77677 0.50461 0.0
O133 O 0.12412 0.70888 0.50428 0.0
O134 O 0.13364 0.78583 0.34189 0.0
O135 O 0.1487 0.74238 0.406 0.0
O136 O 0.12181 0.73707 0.44817 0.0
O137 O 0.13124 0.78862 0.44648 0.0
O138 O 0.14898 0.74875 0.34373 0.0
O139 O 0.18336 0.81096 0.3376 0.0
C140 C 0.19996 0.79828 0.48837 0.0
C141 C 0.18538 0.62258 0.416 0.0
C142 C 0.15336 0.60735 0.40258 0.0
C143 C 0.14029 0.71969 0.54139 0.0
C144 C 0.13416 0.69607 0.57146 0.0
C145 C 0.15176 0.67864 0.56747 0.0
C146 C 0.11202 0.69091 0.60456 0.0
C147 C 0.10876 0.66924 0.63315 0.0
C148 C 0.14864 0.65772 0.59489 0.0
C149 C 0.12775 0.65326 0.62717 0.0
C150 C 0.21318 0.7614 0.39463 0.0
C151 C 0.14335 0.72786 0.36714 0.0
C152 C 0.15568 0.8011 0.31789 0.0
C153 C 0.15147 0.82459 0.29444 0.0
C154 C 0.16006 0.85597 0.31799 0.0
C155 C 0.14065 0.81738 0.24927 0.0
C156 C 0.13826 0.84152 0.22919 0.0
C157 C 0.15825 0.87939 0.29896 0.0
C158 C 0.14775 0.87245 0.25565 0.0
C159 C 0.11681 0.76249 0.46211 0.0
H160 H 0.16835 0.68139 0.54303 0.0
H161 H 0.09777 0.70368 0.60813 0.0
H162 H 0.16267 0.64472 0.59107 0.0
H163 H 0.1261 0.63663 0.64746 0.0
H164 H 0.16889 0.86276 0.3514 0.0
H165 H 0.13414 0.79337 0.23021 0.0
H166 H 0.16551 0.90356 0.31802 0.0
H167 H 0.14792 0.89213 0.2427 0.0
Gd168 Gd 0.63278 0.92103 0.64292 0.0
Gd169 Gd 0.55815 0.866 0.59601 0.0
C170 C 0.48151 0.87311 0.67994 0.0
C171 C 0.44564 0.81631 0.67308 0.0
C172 C 0.49701 0.8323 0.64484 0.0
C173 C 0.50309 0.86461 0.65643 0.0
C174 C 0.46756 0.80786 0.6514 0.0
C175 C 0.45294 0.84884 0.68831 0.0
C176 C 0.489 0.90577 0.69405 0.0
C177 C 0.51738 0.92913 0.68477 0.0
N178 N 0.5298 0.88757 0.64467 0.0
C179 C 0.53745 0.91969 0.66012 0.0
H180 H 0.55977 0.93853 0.65615 0.0
C181 C 0.51189 0.79292 0.60838 0.0
N182 N 0.51879 0.8246 0.62428 0.0
C183 C 0.48203 0.76831 0.61066 0.0
C184 C 0.46014 0.77562 0.63357 0.0
H185 H 0.52836 0.78668 0.59008 0.0
H186 H 0.43604 0.855 0.70583 0.0
H187 H 0.65469 0.85928 0.60472 0.0
H188 H 0.47324 0.91319 0.71261 0.0
H189 H 0.52393 0.95455 0.69669 0.0
H190 H 0.42304 0.79784 0.67853 0.0
H191 H 0.64862 0.99873 0.64032 0.0
H192 H 0.74124 0.90002 0.54979 0.0
H193 H 0.69821 0.85376 0.57201 0.0
H194 H 0.76178 0.00913 0.55533 0.0
H195 H 0.47619 0.74356 0.59543 0.0
H196 H 0.43737 0.75627 0.63648 0.0
H197 H 0.76466 0.95759 0.54403 0.0
H198 H 0.68891 0.04543 0.61769 0.0
N199 N 0.67157 0.90977 0.60419 0.0
C200 C 0.72185 0.90298 0.56467 0.0
C201 C 0.69777 0.87695 0.57745 0.0
C202 C 0.72046 0.9324 0.57071 0.0
C203 C 0.69448 0.93502 0.58999 0.0
C204 C 0.67291 0.88069 0.59711 0.0
N205 N 0.66726 0.96588 0.61334 0.0
C206 C 0.69236 0.96382 0.59493 0.0
C207 C 0.68998 0.02253 0.61032 0.0
C208 C 0.71519 0.02035 0.59024 0.0
C209 C 0.6666 0.99534 0.62234 0.0
C210 C 0.71683 0.99098 0.58265 0.0
H211 H 0.73365 0.04169 0.58174 0.0
O212 O 0.63966 0.96326 0.69038 0.0
O213 O 0.58184 0.89927 0.65886 0.0
O214 O 0.56068 0.90926 0.57664 0.0
O215 O 0.60922 0.94558 0.61147 0.0
O216 O 0.61361 0.90199 0.70349 0.0
O217 O 0.67251 0.94284 0.69168 0.0
O218 O 0.54386 0.82501 0.54114 0.0
O219 O 0.60928 0.8818 0.58246 0.0
O220 O 0.62918 0.87567 0.65721 0.0
O221 O 0.57925 0.83866 0.62459 0.0
O222 O 0.58082 0.88233 0.53542 0.0
O223 O 0.51261 0.84627 0.5634 0.0
C224 C 0.58397 0.89233 0.6959 0.0
C225 C 0.74278 0.98847 0.56446 0.0
C226 C 0.74448 0.95919 0.55824 0.0
C227 C 0.66406 0.96483 0.71059 0.0
C228 C 0.66542 0.97336 0.75828 0.0
C229 C 0.65631 0.99731 0.77696 0.0
C230 C 0.67701 0.95986 0.78542 0.0
C231 C 0.67969 0.97062 0.83065 0.0
C232 C 0.65828 0.00739 0.82155 0.0
C233 C 0.66995 0.99424 0.84826 0.0
C234 C 0.58381 0.93841 0.58705 0.0
C235 C 0.60868 0.88574 0.54335 0.0
C236 C 0.51692 0.82511 0.53461 0.0
C237 C 0.50577 0.82181 0.49061 0.0
C238 C 0.49965 0.79354 0.46 0.0
C239 C 0.49843 0.84545 0.47999 0.0
C240 C 0.48398 0.84022 0.43966 0.0
C241 C 0.48608 0.78882 0.41904 0.0
C242 C 0.47786 0.81182 0.40898 0.0
C243 C 0.60561 0.8464 0.64775 0.0
H244 H 0.64772 0.00845 0.75694 0.0
H245 H 0.68468 0.94184 0.77155 0.0
H246 H 0.65103 0.02573 0.83545 0.0
H247 H 0.67138 1.0026 0.88286 0.0
H248 H 0.50512 0.7751 0.46791 0.0
H249 H 0.50373 0.86783 0.50294 0.0
H250 H 0.48219 0.76749 0.39501 0.0
H251 H 0.4677 0.80803 0.37682 0.0
Gd252 Gd 0.4423 0.25856 0.92831 0.0
Gd253 Gd 0.37043 0.19376 0.93323 0.0
C254 C 0.34218 0.10819 0.81721 0.0
C255 C 0.3034 0.11421 0.77648 0.0
C256 C 0.32926 0.15247 0.84389 0.0
C257 C 0.34698 0.1363 0.84835 0.0
C258 C 0.30584 0.14005 0.80929 0.0
C259 C 0.32176 0.09848 0.78026 0.0
C260 C 0.3555 0.08869 0.82597 0.0
C261 C 0.37014 0.09525 0.86662 0.0
N262 N 0.36453 0.14453 0.88626 0.0
C263 C 0.37312 0.12236 0.89702 0.0
H264 H 0.38165 0.12456 0.92941 0.0
C265 C 0.30665 0.18465 0.88091 0.0
N266 N 0.33092 0.17647 0.87697 0.0
C267 C 0.28306 0.17297 0.84771 0.0
C268 C 0.28334 0.15156 0.8109 0.0
H269 H 0.30533 0.20032 0.90989 0.0
H270 H 0.31811 0.07718 0.75609 0.0
H271 H 0.38449 0.28132 0.96593 0.0
H272 H 0.35226 0.06699 0.80298 0.0
H273 H 0.37813 0.07876 0.8752 0.0
H274 H 0.28581 0.10473 0.74957 0.0
H275 H 0.51025 0.26052 0.96242 0.0
H276 H 0.4341 0.3786 1.03524 0.0
H277 H 0.38432 0.3314 1.0042 0.0
H278 H 0.54068 0.39567 1.04427 0.0
H279 H 0.26417 0.17973 0.85115 0.0
H280 H 0.2646 0.14206 0.78556 0.0
H281 H 0.49269 0.40297 1.04732 0.0
H282 H 0.56048 0.30331 0.99952 0.0
N283 N 0.43371 0.29818 0.9771 0.0
C284 C 0.43425 0.35612 1.0194 0.0
C285 C 0.40613 0.32957 1.00189 0.0
C286 C 0.4622 0.35328 1.01657 0.0
C287 C 0.461 0.32324 0.99654 0.0
C288 C 0.40635 0.30093 0.97999 0.0
N289 N 0.48563 0.28888 0.97887 0.0
C290 C 0.48777 0.3185 0.99716 0.0
C291 C 0.54012 0.30779 0.99933 0.0
C292 C 0.54297 0.33866 1.01651 0.0
C293 C 0.51132 0.28323 0.97955 0.0
C294 C 0.51671 0.34446 1.01511 0.0
H295 H 0.56554 0.35788 1.03055 0.0
O296 O 0.48538 0.27869 0.89504 0.0
O297 O 0.40589 0.21395 0.88284 0.0
O298 O 0.40672 0.17921 0.94542 0.0
O299 O 0.45332 0.22649 0.96304 0.0
O300 O 0.4512 0.22044 0.88259 0.0
O301 O 0.45557 0.3029 0.90749 0.0
O302 O 0.33504 0.19666 0.97568 0.0
O303 O 0.40662 0.24153 0.97545 0.0
O304 O 0.40648 0.2585 0.88147 0.0
O305 O 0.36147 0.23286 0.91352 0.0
O306 O 0.38752 0.20308 1.00404 0.0
O307 O 0.33404 0.15023 0.94836 0.0
C308 C 0.4238 0.20272 0.86182 0.0
C309 C 0.51854 0.37531 1.03105 0.0
C310 C 0.4912 0.37949 1.03283 0.0
C311 C 0.48167 0.30425 0.89299 0.0
C312 C 0.49106 0.31946 0.85597 0.0
C313 C 0.52166 0.3438 0.85653 0.0
C314 C 0.46832 0.31447 0.82449 0.0
C315 C 0.47595 0.3333 0.7932 0.0
C316 C 0.52963 0.36246 0.82506 0.0
C317 C 0.50687 0.35733 0.79346 0.0
C318 C 0.43545 0.19538 0.96229 0.0
C319 C 0.40707 0.2334 1.01217 0.0
C320 C 0.32263 0.16583 0.97601 0.0
C321 C 0.31815 0.15708 1.0185 0.0
C322 C 0.29338 0.15861 1.0414 0.0
C323 C 0.33851 0.14747 1.0366 0.0
C324 C 0.3347 0.14048 0.07793 0.0
C325 C 0.2889 0.15074 0.08195 0.0
C326 C 0.30938 0.14178 0.10017 0.0
C327 C 0.37651 0.25041 0.88557 0.0
H328 H 0.53892 0.34937 0.88241 0.0
H329 H 0.44424 0.29693 0.82556 0.0
H330 H 0.55329 0.38132 0.82567 0.0
H331 H 0.51344 0.37195 0.7692 0.0
H332 H 0.27746 0.16583 1.02785 0.0
H333 H 0.35771 0.14617 1.01906 0.0
H334 H 0.2696 0.15174 0.09942 0.0
H335 H 0.30528 0.1357 0.13166 0.0
Gd336 Gd 3e-05 0.8321 0.888 0.0
Gd337 Gd 0.0772 0.88739 0.86611 0.0
C338 C 0.15899 0.93031 0.96895 0.0
C339 C 0.16992 0.9868 0.98685 0.0
C340 C 0.12678 0.94847 0.93397 0.0
C341 C 0.13341 0.9235 0.9401 0.0
C342 C 0.14583 0.98054 0.95634 0.0
C343 C 0.17645 0.96175 0.99317 0.0
C344 C 0.16763 0.90582 0.97074 0.0
C345 C 0.15199 0.87592 0.94276 0.0
N346 N 0.11712 0.89345 0.91494 0.0
C347 C 0.12697 0.87031 0.91471 0.0
H348 H 0.11557 0.8473 0.8932 0.0
C349 C 0.10201 0.96722 0.88968 0.0
N350 N 0.1041 0.94213 0.90302 0.0
C351 C 0.11994 0.99916 0.91151 0.0
C352 C 0.14152 0.00579 0.94553 0.0
H353 H 0.08552 0.96229 0.86304 0.0
H354 H 0.19601 0.96725 1.01548 0.0
H355 H 0.00642 0.9016 0.86306 0.0
H356 H 0.18719 0.91017 0.99223 0.0
H357 H 0.15916 0.8571 0.94272 0.0
H358 H 0.18459 0.01123 1.00437 0.0
H359 H 0.96114 0.75242 0.87567 0.0
H360 H 0.93229 0.87513 0.76743 0.0
H361 H 0.97816 0.91723 0.81509 0.0
H362 H 0.87644 0.76016 0.74928 0.0
H363 H 0.11731 0.01869 0.90181 0.0
H364 H 0.15575 0.03066 0.96191 0.0
H365 H 0.89471 0.81662 0.74292 0.0
H366 H 0.91055 0.709 0.83917 0.0
N367 N 0.97807 0.85108 0.84111 0.0
C368 C 0.94496 0.86807 0.78791 0.0
C369 C 0.97083 0.89193 0.8148 0.0
C370 C 0.93518 0.83545 0.7886 0.0
C371 C 0.95247 0.82744 0.81574 0.0
C372 C 0.98688 0.88302 0.8419 0.0
N373 N 0.95996 0.78764 0.84402 0.0
C374 C 0.94276 0.79511 0.81811 0.0
C375 C 0.9199 0.73286 0.83195 0.0
C376 C 0.90353 0.73926 0.80204 0.0
C377 C 0.94848 0.7574 0.8524 0.0
C378 C 0.9147 0.77072 0.79508 0.0
H379 H 0.8817 0.72002 0.78574 0.0
O380 O 0.96561 0.80357 0.92876 0.0
O381 O 0.04983 0.85999 0.91763 0.0
O382 O 0.07228 0.83677 0.84722 0.0
O383 O 0.01919 0.80005 0.84809 0.0
O384 O 0.02321 0.81456 0.93202 0.0
O385 O 0.96277 0.84358 0.90705 0.0
O386 O 0.09562 0.91612 0.8177 0.0
O387 O 0.02804 0.85471 0.83836 0.0
O388 O 0.01646 0.87858 0.93816 0.0
O389 O 0.05593 0.91729 0.90826 0.0
O390 O 0.05595 0.87639 0.7954 0.0
O391 O 0.11782 0.88728 0.83533 0.0
C392 C 0.05084 0.8394 0.93869 0.0
C393 C 0.89789 0.77867 0.76743 0.0
C394 C 0.90825 0.81086 0.76391 0.0
C395 C 0.94862 0.81864 0.92474 0.0
C396 C 0.92922 0.82295 0.95835 0.0
C397 C 0.89806 0.79983 0.95797 0.0
C398 C 0.94168 0.85071 0.99063 0.0
C399 C 0.92644 0.85131 1.02828 0.0
C400 C 0.88031 0.80384 0.99197 0.0
C401 C 0.89465 0.82918 1.02772 0.0
C402 C 0.0482 0.80767 0.8358 0.0
C403 C 0.02866 0.85363 0.79779 0.0
C404 C 0.11794 0.90713 0.81144 0.0
C405 C 0.1481 0.93003 0.80009 0.0
C406 C 0.17074 0.95584 0.82988 0.0
C407 C 0.15491 0.92336 0.75764 0.0
C408 C 0.18515 0.93983 0.74492 0.0
C409 C 0.20033 0.97435 0.81663 0.0
C410 C 0.20776 0.96613 0.77445 0.0
C411 C 0.03606 0.90905 0.93845 0.0
H412 H 0.88772 0.77878 0.93184 0.0
H413 H 0.96588 0.86828 0.99047 0.0
H414 H 0.8563 0.78598 0.99219 0.0
H415 H 0.88209 0.82907 0.05648 0.0
H416 H 0.16581 0.96131 0.86306 0.0
H417 H 0.13679 0.90368 0.73487 0.0
H418 H 0.21794 0.99428 0.83953 0.0
H419 H 0.23134 0.97938 0.76561 0.0
Gd420 Gd 0.41081 0.71476 0.20564 0.0
Gd421 Gd 0.41827 0.77293 0.12791 0.0
C422 C 0.47101 0.88073 0.19021 0.0
C423 C 0.42989 0.89787 0.19198 0.0
C424 C 0.41835 0.84198 0.16139 0.0
C425 C 0.44893 0.8489 0.17131 0.0
C426 C 0.40873 0.8667 0.16993 0.0
C427 C 0.46106 0.90489 0.20208 0.0
C428 C 0.50259 0.88757 0.19476 0.0
C429 C 0.51145 0.86308 0.17999 0.0
N430 N 0.4576 0.82494 0.15948 0.0
C431 C 0.48852 0.83179 0.16224 0.0
H432 H 0.49551 0.8131 0.15079 0.0
C433 C 0.37084 0.80586 0.1202 0.0
N434 N 0.39888 0.8118 0.13941 0.0
C435 C 0.3601 0.82951 0.12785 0.0
C436 C 0.3788 0.85981 0.15383 0.0
H437 H 0.35637 0.78238 0.10011 0.0
H438 H 0.47752 0.92932 0.21748 0.0
H439 H 0.3297 0.68252 0.1978 0.0
H440 H 0.52033 0.91182 0.20839 0.0
H441 H 0.53587 0.86822 0.1825 0.0
H442 H 0.42279 0.91704 0.19957 0.0
H443 H 0.47034 0.69536 0.21364 0.0
H444 H 0.2921 0.5814 0.15096 0.0
H445 H 0.28484 0.63017 0.17853 0.0
H446 H 0.38174 0.56202 0.13193 0.0
H447 H 0.3374 0.82432 0.11379 0.0
H448 H 0.37053 0.87814 0.15954 0.0
H449 H 0.32828 0.55672 0.13134 0.0
H450 H 0.48115 0.64854 0.19065 0.0
N451 N 0.3642 0.66538 0.18496 0.0
C452 C 0.31242 0.60469 0.16047 0.0
C453 C 0.30824 0.6321 0.17618 0.0
C454 C 0.34275 0.60764 0.15723 0.0
C455 C 0.36859 0.63858 0.17024 0.0
C456 C 0.33434 0.66226 0.18775 0.0
N457 N 0.42329 0.67098 0.18572 0.0
C458 C 0.39888 0.64156 0.16997 0.0
C459 C 0.45807 0.64636 0.18373 0.0
C460 C 0.43404 0.61673 0.16327 0.0
C461 C 0.45199 0.67304 0.19612 0.0
C462 C 0.4038 0.61373 0.15754 0.0
H463 H 0.43869 0.59592 0.15425 0.0
O464 O 0.44058 0.72211 0.26304 0.0
O465 O 0.42687 0.76472 0.1925 0.0
O466 O 0.45607 0.75648 0.13046 0.0
O467 O 0.43719 0.70643 0.15027 0.0
O468 O 0.45171 0.76173 0.2409 0.0
O469 O 0.39075 0.70114 0.26608 0.0
O470 O 0.40653 0.76973 0.05957 0.0
O471 O 0.40046 0.72328 0.14075 0.0
O472 O 0.37329 0.73117 0.21323 0.0
O473 O 0.37682 0.76722 0.16787 0.0
O474 O 0.37485 0.72923 0.09518 0.0
O475 O 0.45432 0.78794 0.08114 0.0
C476 C 0.44851 0.78176 0.22138 0.0
C477 C 0.37828 0.58347 0.14218 0.0
C478 C 0.34783 0.58043 0.14207 0.0
C479 C 0.41766 0.70908 0.28696 0.0
C480 C 0.41993 0.68539 0.3124 0.0
C481 C 0.4098 0.65333 0.29039 0.0
C482 C 0.43245 0.6936 0.35715 0.0
C483 C 0.43588 0.67008 0.37763 0.0
C484 C 0.41263 0.63055 0.30986 0.0
C485 C 0.42556 0.63873 0.35224 0.0
C486 C 0.45796 0.72957 0.1334 0.0
C487 C 0.37714 0.70782 0.1133 0.0
C488 C 0.43536 0.7836 1.04886 0.0
C489 C 0.44411 0.81121 1.02428 0.0
C490 C 0.43194 0.83332 1.03803 0.0
C491 C 0.46353 0.81628 0.9878 0.0
C492 C 0.46993 0.84309 0.96662 0.0
C493 C 0.43761 0.85868 1.01749 0.0
C494 C 0.45607 0.86342 0.98261 0.0
C495 C 0.36318 0.74928 0.19701 0.0
H496 H 0.3995 0.64567 0.25762 0.0
H497 H 0.43959 0.71786 0.3755 0.0
H498 H 0.40462 0.606 0.29171 0.0
H499 H 0.42678 0.6198 0.36559 0.0
H500 H 0.41758 0.83095 0.06497 0.0
H501 H 0.47379 0.80006 0.97664 0.0
H502 H 0.4276 0.8751 1.02894 0.0
H503 H 0.45977 0.88367 0.96806 0.0
Gd504 Gd 0.53427 0.1504 0.50052 0.0
Gd505 Gd 0.45495 0.09599 0.46423 0.0
C506 C 0.36827 0.06394 0.53862 0.0
C507 C 0.35012 0.00578 0.52503 0.0
C508 C 0.40024 0.04042 0.50115 0.0
C509 C 0.39545 0.06749 0.51728 0.0
C510 C 0.3775 0.00931 0.50487 0.0
C511 C 0.34559 0.033 0.54202 0.0
C512 C 0.36435 0.09156 0.55541 0.0
C513 C 0.38714 0.12179 0.55072 0.0
N514 N 0.41684 0.09707 0.51142 0.0
C515 C 0.41319 0.12411 0.5282 0.0
H516 H 0.43018 0.14776 0.52471 0.0
C517 C 0.43078 0.01777 0.4618 0.0
N518 N 0.42647 0.04429 0.48048 0.0
C519 C 0.40926 0.98672 0.46565 0.0
C520 C 0.38243 0.98243 0.48712 0.0
H521 H 0.45069 0.02083 0.44308 0.0
H522 H 0.32431 0.02984 0.5575 0.0
H523 H 0.53426 0.07994 0.44313 0.0
H524 H 0.34385 0.08981 0.57207 0.0
H525 H 0.38443 0.14333 0.56389 0.0
H526 H 0.3322 0.98204 0.52748 0.0
H527 H 0.55908 0.22976 0.50767 0.0
H528 H 0.61962 0.10897 0.38135 0.0
H529 H 0.57081 0.06591 0.39938 0.0
H530 H 0.66436 0.2245 0.41345 0.0
H531 H 0.41297 0.96602 0.45103 0.0
H532 H 0.36539 0.95821 0.48914 0.0
H533 H 0.65518 0.16808 0.38934 0.0
H534 H 0.60551 0.27457 0.4902 0.0
N535 N 0.56049 0.13092 0.4473 0.0
C536 C 0.60308 0.11538 0.39948 0.0
C537 C 0.57561 0.09102 0.40967 0.0
C538 C 0.60912 0.14774 0.4132 0.0
C539 C 0.58657 0.15485 0.43594 0.0
C540 C 0.55486 0.09922 0.43459 0.0
N541 N 0.56912 0.19314 0.47027 0.0
C542 C 0.59121 0.18681 0.44829 0.0
C543 C 0.60138 0.25008 0.47699 0.0
C544 C 0.6238 0.24406 0.4536 0.0
C545 C 0.57433 0.22437 0.48556 0.0
C546 C 0.61924 0.2122 0.43972 0.0
H547 H 0.64507 0.26422 0.44789 0.0
O548 O 0.56852 0.18896 0.55042 0.0
O549 O 0.48585 0.12884 0.52418 0.0
O550 O 0.45845 0.14496 0.46436 0.0
O551 O 0.51137 0.18039 0.48611 0.0
O552 O 0.5199 0.16464 0.56731 0.0
O553 O 0.5743 0.14617 0.52069 0.0
O554 O 0.43189 0.05767 0.40986 0.0
O555 O 0.50162 0.12853 0.43952 0.0
O556 O 0.52469 0.10208 0.51268 0.0
O557 O 0.47076 0.07317 0.50889 0.0
O558 O 0.48052 0.08125 0.40927 0.0
O559 O 0.41644 0.09549 0.42565 0.0
C560 C 0.49028 0.14531 0.5636 0.0
C561 C 0.64251 0.20523 0.41951 0.0
C562 C 0.63732 0.17308 0.40588 0.0
C563 C 0.58655 0.17439 0.54695 0.0
C564 C 0.60396 0.17565 0.58484 0.0
C565 C 0.63507 0.19928 0.59446 0.0
C566 C 0.59166 0.15018 0.60656 0.0
C567 C 0.61002 0.14833 0.63883 0.0
C568 C 0.65378 0.1975 0.62612 0.0
C569 C 0.6414 0.17231 0.64835 0.0
C570 C 0.48212 0.1742 0.47519 0.0
C571 C 0.50254 0.109 0.40597 0.0
C572 C 0.41136 0.06731 0.40183 0.0
C573 C 0.39708 0.05553 0.35751 0.0
C574 C 0.373 0.02372 0.34767 0.0
C575 C 0.4098 0.07195 0.32414 0.0
C576 C 0.39804 0.05644 0.28098 0.0
C577 C 0.36184 0.00817 0.30511 0.0
C578 C 0.37428 0.02433 0.27189 0.0
C579 C 0.49909 0.07693 0.51777 0.0
H580 H 0.64509 0.21847 0.57662 0.0
H581 H 0.56785 0.13161 0.59775 0.0
H582 H 0.67788 0.21571 0.63356 0.0
H583 H 0.65619 0.17244 0.67394 0.0
H584 H 0.36355 0.01043 0.37301 0.0
H585 H 0.42867 0.09636 0.33158 0.0
H586 H 0.34343 0.98354 0.29787 0.0
H587 H 0.36441 0.01208 0.23916 0.0
Gd588 Gd 0.21406 0.32352 0.66611 0.0
Gd589 Gd 0.14936 0.25377 0.68334 0.0
C590 C 0.12013 0.15552 0.59367 0.0
C591 C 0.06333 0.13304 0.58965 0.0
C592 C 0.09544 0.18744 0.63083 0.0
C593 C 0.12238 0.1842 0.62054 0.0
C594 C 0.06569 0.16224 0.61451 0.0
C595 C 0.09049 0.12971 0.57921 0.0
C596 C 0.14769 0.15409 0.58073 0.0
C597 C 0.1765 0.18106 0.5938 0.0
N598 N 0.15065 0.21038 0.63295 0.0
C599 C 0.17757 0.20905 0.62013 0.0
H600 H 0.20001 0.22948 0.62959 0.0
C601 C 0.07315 0.22249 0.6591 0.0
N602 N 0.09867 0.2167 0.65262 0.0
C603 C 0.04308 0.19786 0.64469 0.0
C604 C 0.03931 0.16758 0.62243 0.0
H605 H 0.076 0.24575 0.67696 0.0
H606 H 0.08834 0.10743 0.55881 0.0
H607 H 0.16483 0.35847 0.70374 0.0
H608 H 0.14695 0.13256 0.55997 0.0
H609 H 0.19795 0.18033 0.58358 0.0
H610 H 0.04066 0.11328 0.57716 0.0
H611 H 0.28196 0.32023 0.69203 0.0
H612 H 0.22108 0.44798 0.78817 0.0
H613 H 0.17098 0.40984 0.74635 0.0
H614 H 0.31576 0.44198 0.81618 0.0
H615 H 0.02278 0.2021 0.65098 0.0
H616 H 0.016 0.14872 0.61081 0.0
H617 H 0.2747 0.45959 0.814 0.0
H618 H 0.32806 0.35061 0.74212 0.0
N619 N 0.21211 0.36729 0.7163 0.0
C620 C 0.21888 0.42553 0.76821 0.0
C621 C 0.19064 0.40415 0.74457 0.0
C622 C 0.24337 0.41692 0.7677 0.0
C623 C 0.23925 0.38711 0.74148 0.0
C624 C 0.18757 0.37507 0.71908 0.0
N625 N 0.25773 0.34781 0.7185 0.0
C626 C 0.26212 0.37664 0.74368 0.0
C627 C 0.3094 0.35783 0.74381 0.0
C628 C 0.31333 0.38631 0.77136 0.0
C629 C 0.28206 0.33959 0.7165 0.0
C630 C 0.29002 0.39651 0.77081 0.0
H631 H 0.33498 0.40091 0.79164 0.0
O632 O 0.25518 0.33106 0.63 0.0
O633 O 0.18018 0.27272 0.63145 0.0
O634 O 0.19372 0.25863 0.71624 0.0
O635 O 0.2298 0.28615 0.67289 0.0
O636 O 0.19668 0.30605 0.59353 0.0
O637 O 0.24108 0.36943 0.64876 0.0
O638 O 0.11352 0.22931 0.72493 0.0
O639 O 0.18361 0.30323 0.72159 0.0
O640 O 0.17468 0.33009 0.64214 0.0
O641 O 0.13138 0.28065 0.64628 0.0
O642 O 0.13554 0.28914 0.72398 0.0
O643 O 0.15954 0.23068 0.72891 0.0
C644 C 0.17786 0.27589 0.59191 0.0
C645 C 0.2944 0.42645 0.79564 0.0
C646 C 0.27116 0.43662 0.79408 0.0
C647 C 0.26154 0.36099 0.63008 0.0
C648 C 0.27281 0.37345 0.59138 0.0
C649 C 0.30503 0.39197 0.58956 0.0
C650 C 0.25161 0.37142 0.55972 0.0
C651 C 0.26222 0.38926 0.52732 0.0
C652 C 0.31594 0.40906 0.55671 0.0
C653 C 0.29471 0.40813 0.52606 0.0
C654 C 0.22206 0.26926 0.70309 0.0
C655 C 0.16283 0.31013 0.74238 0.0
C656 C 0.13124 0.21898 0.74129 0.0
C657 C 0.11808 0.18514 0.74568 0.0
C658 C 0.08816 0.16135 0.72813 0.0
C659 C 0.13569 0.17763 0.77223 0.0
C660 C 0.12288 0.14795 0.78502 0.0
C661 C 0.07628 0.13049 0.73769 0.0
C662 C 0.09336 0.12388 0.76667 0.0
C663 C 0.14483 0.30951 0.63505 0.0
H664 H 0.32162 0.39417 0.61442 0.0
H665 H 0.22678 0.357 0.56155 0.0
H666 H 0.34081 0.42394 0.55587 0.0
H667 H 0.30377 0.42301 0.50233 0.0
H668 H 0.07372 0.16672 0.70821 0.0
H669 H 0.15845 0.19633 0.78684 0.0
H670 H 0.05309 0.11227 0.72453 0.0
H671 H 0.08272 0.10099 0.77689 0.0
Gd672 Gd 0.91435 0.2219 0.71484 0.0
Gd673 Gd 0.92258 0.27929 0.63631 0.0
C674 C 0.96725 0.38775 0.69554 0.0
C675 C 0.92335 0.4003 0.69123 0.0
C676 C 0.91686 0.34581 0.66255 0.0
C677 C 0.94763 0.35534 0.67548 0.0
C678 C 0.90462 0.36846 0.6687 0.0
C679 C 0.95465 0.40993 0.70469 0.0
C680 C -0.00096 0.39699 0.70477 0.0
C681 C 0.01065 0.37439 0.69247 0.0
N682 N 0.95874 0.33309 0.66678 0.0
C683 C 0.99008 0.34247 0.67308 0.0
H684 H -0.00079 0.32521 0.66418 0.0
C685 C 0.87117 0.306 0.62027 0.0
N686 N 0.89958 0.31488 0.64109 0.0
C687 C 0.85797 0.32761 0.6252 0.0
C688 C 0.87446 0.35874 0.65047 0.0
H689 H 0.8583 0.2818 0.6011 0.0
H690 H 0.96915 0.43478 0.7209 0.0
H691 H 0.83715 0.19109 0.67543 0.0
H692 H 0.0149 0.42161 0.72031 0.0
H693 H 0.03532 0.38137 0.69848 0.0
H694 H 0.91419 0.41792 0.69709 0.0
H695 H 0.97445 0.20469 0.72716 0.0
H696 H 0.79641 0.08858 0.6543 0.0
H697 H 0.79159 0.13876 0.65569 0.0
H698 H 0.88286 0.0669 0.67849 0.0
H699 H 0.83503 0.32017 0.60982 0.0
H700 H 0.86419 0.3754 0.65436 0.0
H701 H 0.8306 0.06211 0.6625 0.0
H702 H 0.98391 0.15677 0.72136 0.0
N703 N 0.86852 0.17231 0.68949 0.0
C704 C 0.81672 0.11183 0.66427 0.0
C705 C 0.81391 0.14007 0.66504 0.0
C706 C 0.8459 0.11387 0.675 0.0
C707 C 0.87169 0.14477 0.68776 0.0
C708 C 0.84012 0.1701 0.67725 0.0
N709 N 0.92603 0.17736 0.70564 0.0
C710 C 0.90131 0.1474 0.69604 0.0
C711 C 0.96062 0.15376 0.71376 0.0
C712 C 0.93579 0.12286 0.70153 0.0
C713 C 0.95519 0.18083 0.71656 0.0
C714 C 0.90565 0.11933 0.69289 0.0
H715 H 0.94006 0.1019 0.69933 0.0
O716 O 0.9412 0.22923 0.7752 0.0
O717 O 0.92859 0.27146 0.70215 0.0
O718 O 0.96291 0.26787 0.64484 0.0
O719 O 0.9504 0.22058 0.67113 0.0
O720 O 0.9554 0.26838 0.74912 0.0
O721 O 0.89136 0.21168 0.77443 0.0
O722 O 0.9123 0.27111 0.56627 0.0
O723 O 0.90804 0.22971 0.64744 0.0
O724 O 0.87583 0.23698 0.72019 0.0
O725 O 0.88045 0.2732 0.67462 0.0
O726 O 0.88043 0.23514 0.6032 0.0
O727 O 0.95985 0.29576 0.59157 0.0
C728 C 0.95102 0.28799 0.73003 0.0
C729 C 0.87992 0.08868 0.68114 0.0
C730 C 0.85015 0.08596 0.67218 0.0
C731 C 0.9168 0.21726 0.79699 0.0
C732 C 0.91519 0.1921 0.82226 0.0
C733 C 0.89435 0.15966 0.80562 0.0
C734 C 0.93369 0.19932 0.86221 0.0
C735 C 0.93125 0.17406 0.88406 0.0
C736 C 0.89259 0.13513 0.82544 0.0
C737 C 0.91079 0.14205 0.86344 0.0
C738 C 0.96857 0.24413 0.65266 0.0
C739 C 0.88576 0.21416 0.61825 0.0
C740 C 0.94124 0.28658 0.55689 0.0
C741 C 0.94801 0.31032 0.52669 0.0
C742 C 0.93211 0.32949 0.53231 0.0
C743 C 0.96907 0.31413 0.49218 0.0
C744 C 0.97306 0.33645 0.4642 0.0
C745 C 0.93576 0.3508 0.50538 0.0
C746 C 0.95565 0.35413 0.47202 0.0
C747 C 0.86613 0.25509 0.70322 0.0
H748 H 0.87921 0.15299 0.77677 0.0
H749 H 0.94945 0.22428 0.87618 0.0
H750 H 0.87687 0.11023 0.81099 0.0
H751 H 0.90888 0.12165 0.87617 0.0
H752 H 0.91648 0.32793 0.55776 0.0
H753 H 0.98226 0.30026 0.48752 0.0
H754 H 0.92308 0.36521 0.51066 0.0
H755 H 0.95803 0.37148 0.45255 0.0
Gd756 Gd 0.71679 0.82971 0.16799 0.0
Gd757 Gd 0.65518 0.7573 0.18537 0.0
C758 C 0.62979 0.66343 0.08654 0.0
C759 C 0.57306 0.63672 0.08637 0.0
C760 C 0.60308 0.6908 0.12978 0.0
C761 C 0.63066 0.6906 0.11573 0.0
C762 C 0.57394 0.66455 0.11347 0.0
C763 C 0.60096 0.63609 0.07317 0.0
C764 C 0.65775 0.66496 0.07047 0.0
C765 C 0.6854 0.69359 0.08194 0.0
N766 N 0.65798 0.71809 0.12785 0.0
C767 C 0.68507 0.7201 0.11036 0.0
H768 H 0.70685 0.74194 0.1185 0.0
C769 C 0.57837 0.72243 0.16273 0.0
N770 N 0.60484 0.71863 0.15468 0.0
C771 C 0.54888 0.69699 0.14721 0.0
C772 C 0.54663 0.66775 0.12312 0.0
H773 H 0.58006 0.74473 0.1823 0.0
H774 H 0.5999 0.61484 0.05123 0.0
H775 H 0.6983 0.88389 0.13216 0.0
H776 H 0.6581 0.64453 1.04826 0.0
H777 H 0.70706 0.69526 0.069 0.0
H778 H 0.5509 0.61602 0.07416 0.0
H779 H 0.78563 0.83328 0.19945 0.0
H780 H 0.73776 0.97244 0.22681 0.0
H781 H 0.7048 0.93939 0.1594 0.0
H782 H 0.81259 0.96 0.30951 0.0
H783 H 0.52789 0.69979 0.15415 0.0
H784 H 0.52376 0.64817 0.11104 0.0
H785 H 0.7775 0.97959 0.28373 0.0
H786 H 0.83034 0.86792 0.25335 0.0
N787 N 0.72437 0.88412 0.1864 0.0
C788 C 0.73438 0.94782 0.21561 0.0
C789 C 0.71587 0.9293 0.17745 0.0
C790 C 0.7505 0.93535 0.23672 0.0
C791 C 0.74521 0.90308 0.2209 0.0
C792 C 0.71212 0.89782 0.1623 0.0
N793 N 0.76189 0.86257 0.21582 0.0
C794 C 0.76479 0.89197 0.23594 0.0
C795 C 0.81177 0.8747 0.24955 0.0
C796 C 0.81331 0.90336 0.27425 0.0
C797 C 0.7863 0.85505 0.21931 0.0
C798 C 0.79032 0.91295 0.26644 0.0
H799 H 0.83337 0.9189 0.29713 0.0
O800 O 0.74084 0.80757 0.12417 0.0
O801 O 0.68182 0.78005 0.1324 0.0
O802 O 0.70147 0.75503 0.19366 0.0
O803 O 0.72976 0.8088 0.21841 0.0
O804 O 0.68949 0.81764 0.10216 0.0
O805 O 0.75483 0.85906 0.13406 0.0
O806 O 0.62132 0.7225 0.21957 0.0
O807 O 0.68806 0.80732 0.2233 0.0
O808 O 0.67641 0.84014 0.17288 0.0
O809 O 0.63463 0.78774 0.16138 0.0
O810 O 0.64068 0.7906 0.23128 0.0
O811 O 0.67011 0.74551 0.24097 0.0
C812 C 0.67406 0.7865 0.09759 0.0
C813 C 0.79352 0.94382 0.28542 0.0
C814 C 0.77353 0.95497 0.27069 0.0
C815 C 0.75624 0.8341 0.10972 0.0
C816 C 0.75311 0.83174 0.06244 0.0
C817 C 0.75688 0.80723 1.03375 0.0
C818 C 0.74546 0.85334 1.04555 0.0
C819 C 0.74153 0.8504 1.00069 0.0
C820 C 0.753 0.80417 0.98923 0.0
C821 C 0.74541 0.82554 0.97277 0.0
C822 C 0.72747 0.77955 0.21295 0.0
C823 C 0.66791 0.81413 0.24608 0.0
C824 C 0.64272 0.7229 0.24475 0.0
C825 C 0.64155 0.6914 0.24612 0.0
C826 C 0.64763 0.67311 0.20993 0.0
C827 C 0.63486 0.67958 0.28407 0.0
C828 C 0.6336 0.64941 0.28541 0.0
C829 C 0.64559 0.6428 0.21091 0.0
C830 C 0.63874 0.63097 0.24869 0.0
C831 C 0.64716 0.81954 0.16195 0.0
H832 H 0.76271 0.79035 1.04578 0.0
H833 H 0.74204 0.87217 0.0672 0.0
H834 H 0.75601 0.7852 0.96734 0.0
H835 H 0.74307 0.82292 0.93812 0.0
H836 H 0.65455 0.6824 0.18125 0.0
H837 H 0.63072 0.69378 0.31251 0.0
H838 H 0.64956 0.62859 0.18244 0.0
H839 H 0.63713 0.60738 0.2492 0.0
Gd840 Gd 0.65833 0.22557 0.96071 0.0
Gd841 Gd 0.66193 0.28768 0.89149 0.0
C842 C 0.71596 0.39671 0.94852 0.0
C843 C 0.6743 0.41311 0.95363 0.0
C844 C 0.6624 0.35679 0.92497 0.0
C845 C 0.69396 0.36441 0.93089 0.0
C846 C 0.6525 0.3813 0.93535 0.0
C847 C 0.70589 0.42075 0.96036 0.0
C848 C 0.74764 0.40423 0.95318 0.0
C849 C 0.757 0.38019 0.93918 0.0
N850 N 0.70323 0.34064 0.91885 0.0
C851 C 0.73466 0.3487 0.9215 0.0
H852 H 0.74365 0.33168 0.90978 0.0
C853 C 0.61132 0.31848 0.89567 0.0
N854 N 0.64146 0.32564 0.90803 0.0
C855 C 0.60051 0.34184 0.90566 0.0
C856 C 0.62103 0.37331 0.92616 0.0
H857 H 0.59528 0.29433 0.87891 0.0
H858 H 0.7225 0.44553 0.97402 0.0
H859 H 0.58576 0.16728 0.92712 0.0
H860 H 0.76513 0.42868 0.96661 0.0
H861 H 0.78161 0.38597 0.94153 0.0
H862 H 0.66702 0.43211 0.96207 0.0
H863 H 0.73173 0.24224 0.99069 0.0
H864 H 0.5906 0.0785 0.87811 0.0
H865 H 0.55965 0.10906 0.89349 0.0
H866 H 0.69888 0.10652 0.90741 0.0
H867 H 0.57635 0.33543 0.89736 0.0
H868 H 0.61255 0.39142 0.93366 0.0
H869 H 0.64268 0.07774 0.88347 0.0
H870 H 0.76598 0.21485 0.98308 0.0
N871 N 0.63137 0.16986 0.92995 0.0
C872 C 0.60223 0.10402 0.893 0.0
C873 C 0.58466 0.12121 0.90173 0.0
C874 C 0.63449 0.11983 0.90442 0.0
C875 C 0.6485 0.15316 0.92335 0.0
C876 C 0.59961 0.15421 0.92073 0.0
N877 N 0.69217 0.20105 0.95648 0.0
C878 C 0.67994 0.16926 0.93704 0.0
C879 C 0.74184 0.2018 0.96982 0.0
C880 C 0.72993 0.16947 0.94821 0.0
C881 C 0.72241 0.2172 0.97421 0.0
C882 C 0.6985 0.15263 0.93202 0.0
H883 H 0.745 0.15759 0.94494 0.0
O884 O 0.66301 0.23462 1.03161 0.0
O885 O 0.67121 0.27622 0.9552 0.0
O886 O 0.70494 0.28162 0.9048 0.0
O887 O 0.69394 0.22955 0.9103 0.0
O888 O 0.69597 0.27064 1.00265 0.0
O889 O 0.61891 0.20095 0.99884 0.0
O890 O 0.63329 0.27759 0.83169 0.0
O891 O 0.64385 0.23628 0.90073 0.0
O892 O 0.61556 0.22788 0.93898 0.0
O893 O 0.61946 0.2762 0.93018 0.0
O894 O 0.64964 0.24306 0.83847 0.0
O895 O 0.68317 0.30666 0.83494 0.0
C896 C 0.6908 0.29171 0.98776 0.0
C897 C 0.68496 0.11968 0.91187 0.0
C898 C 0.65297 0.10328 0.89827 0.0
C899 C 0.63447 0.21406 1.03639 0.0
C900 C 0.63013 0.19244 0.06845 0.0
C901 C 0.64926 0.17674 0.06645 0.0
C902 C 0.60827 0.18776 0.10168 0.0
C903 C 0.60656 0.16807 0.13228 0.0
C904 C 0.64768 0.15774 0.09597 0.0
C905 C 0.62686 0.15358 0.12831 0.0
C906 C 0.70867 0.25523 0.8926 0.0
C907 C 0.64166 0.22204 0.86227 0.0
C908 C 0.65663 0.29516 0.81131 0.0
C909 C 0.65163 0.31787 0.78737 0.0
C910 C 0.65853 0.34903 0.81039 0.0
C911 C 0.64042 0.30961 0.74243 0.0
C912 C 0.63509 0.33213 0.72263 0.0
C913 C 0.65301 0.37065 0.79167 0.0
C914 C 0.64125 0.3623 0.74878 0.0
C915 C 0.60819 0.25198 0.95031 0.0
H916 H 0.6658 0.17937 1.04195 0.0
H917 H 0.59289 0.19922 0.10363 0.0
H918 H 0.6628 0.14597 0.0937 0.0
H919 H 0.62627 0.13834 0.15021 0.0
H920 H 0.66862 0.35702 0.84316 0.0
H921 H 0.63576 0.28607 0.72333 0.0
H922 H 0.65829 0.39442 0.8106 0.0
H923 H 0.63796 0.38023 0.73551 0.0
Gd924 Gd 0.93624 0.7519 0.42724 0.0
Gd925 Gd 0.86624 0.68314 0.43025 0.0
C926 C 0.84178 0.60992 0.30126 0.0
C927 C 0.79902 0.61524 0.26942 0.0
C928 C 0.82476 0.64867 0.33967 0.0
C929 C 0.84496 0.63443 0.33746 0.0
C930 C 0.80094 0.63827 0.30611 0.0
C931 C 0.81942 0.60116 0.26697 0.0
C932 C 0.85983 0.59337 0.30145 0.0
C933 C 0.87928 0.60009 0.33784 0.0
N934 N 0.86546 0.64208 0.37207 0.0
C935 C 0.88139 0.62402 0.37314 0.0
H936 H 0.89521 0.62656 0.40117 0.0
C937 C 0.80202 0.67841 0.38295 0.0
N938 N 0.82605 0.66993 0.37627 0.0
C939 C 0.77859 0.66937 0.35035 0.0
C940 C 0.77837 0.6497 0.31141 0.0
H941 H 0.80072 0.69244 0.41353 0.0
H942 H 0.81679 0.58243 0.23916 0.0
H943 H 0.88124 0.77549 0.47362 0.0
H944 H 0.85782 0.57433 0.27447 0.0
H945 H 0.89227 0.58635 0.33914 0.0
H946 H 0.78092 0.6071 0.24352 0.0
H947 H 0.00574 0.75365 0.45411 0.0
H948 H 0.93384 0.87378 0.53795 0.0
H949 H 0.88295 0.82643 0.51218 0.0
H950 H 0.03997 0.88935 0.53848 0.0
H951 H 0.76034 0.67709 0.35568 0.0
H952 H 0.75972 0.64212 0.2865 0.0
H953 H -0.00752 0.89737 0.54614 0.0
H954 H 0.05767 0.79661 0.48589 0.0
N955 N 0.93077 0.79251 0.478 0.0
C956 C 0.9333 0.85115 0.52128 0.0
C957 C 0.90453 0.82446 0.50691 0.0
C958 C 0.96098 0.84809 0.515 0.0
C959 C 0.95894 0.81795 0.49369 0.0
C960 C 0.90368 0.79533 0.48483 0.0
N961 N 0.98239 0.78294 0.47282 0.0
C962 C 0.98551 0.81289 0.49136 0.0
C963 C 0.03746 0.8013 0.48801 0.0
C964 C 0.04118 0.83242 0.50571 0.0
C965 C 0.00783 0.77678 0.47104 0.0
C966 C 0.01507 0.83859 0.50747 0.0
H967 H 0.06426 0.85146 0.51802 0.0
O968 O 0.97754 0.77836 0.39561 0.0
O969 O 0.9019 0.70631 0.38158 0.0
O970 O 0.90313 0.67147 0.44924 0.0
O971 O 0.94839 0.72094 0.46295 0.0
O972 O 0.94881 0.71785 0.37888 0.0
O973 O 0.93865 0.7923 0.40195 0.0
O974 O 0.82396 0.67245 0.46385 0.0
O975 O 0.90028 0.73191 0.47223 0.0
O976 O 0.89711 0.74991 0.38464 0.0
O977 O 0.85643 0.72443 0.4238 0.0
O978 O 0.87948 0.69527 0.50293 0.0
O979 O 0.83983 0.63555 0.44456 0.0
C980 C 0.92132 0.69782 0.35986 0.0
C981 C 0.01746 0.86932 0.52596 0.0
C982 C 0.99043 0.87392 0.53024 0.0
C983 C 0.96735 0.79957 0.39251 0.0
C984 C 0.98496 0.82656 0.3728 0.0
C985 C 0.00645 0.85646 0.39761 0.0
C986 C 0.97352 0.82464 0.3321 0.0
C987 C 0.98307 0.85244 0.31582 0.0
C988 C 0.01595 0.88454 0.38123 0.0
C989 C 0.00405 0.88261 0.34029 0.0
C990 C 0.93201 0.68993 0.4648 0.0
C991 C 0.89946 0.72534 0.51011 0.0
C992 C 0.81988 0.6435 0.46582 0.0
C993 C 0.81299 0.63467 0.50816 0.0
C994 C 0.78257 0.62601 0.52102 0.0
C995 C 0.83627 0.63622 0.53666 0.0
C996 C 0.82941 0.63107 0.57857 0.0
C997 C 0.77545 0.61959 0.56198 0.0
C998 C 0.79877 0.62246 0.59081 0.0
C999 C 0.86832 0.74242 0.39515 0.0
H1000 H 0.01468 0.85835 0.43004 0.0
H1001 H 0.95652 0.8015 0.31327 0.0
H1002 H 0.03224 0.90773 0.40032 0.0
H1003 H 0.01191 0.90422 0.32716 0.0
H1004 H 0.76437 0.62452 0.49943 0.0
H1005 H 0.85973 0.64223 0.52692 0.0
H1006 H 0.75189 0.61286 0.57167 0.0
H1007 H 0.79286 0.61784 0.62273 0.0
Gd1008 Gd 0.50274 0.62115 0.74177 0.0
Gd1009 Gd 0.57908 0.67357 0.71577 0.0
C1010 C 0.65174 0.66742 0.79882 0.0
C1011 C 0.68866 0.72429 0.8206 0.0
C1012 C 0.63879 0.70852 0.7817 0.0
C1013 C 0.63151 0.67587 0.77801 0.0
C1014 C 0.66794 0.73287 0.80172 0.0
C1015 C 0.68024 0.69177 0.82016 0.0
C1016 C 0.64293 0.6347 0.79729 0.0
C1017 C 0.61461 0.61126 0.77531 0.0
N1018 N 0.60493 0.65254 0.75408 0.0
C1019 C 0.59583 0.62058 0.75374 0.0
H1020 H 0.57369 0.60206 0.73837 0.0
C1021 C 0.62471 0.74815 0.76664 0.0
N1022 N 0.61802 0.71646 0.76422 0.0
C1023 C 0.65355 0.7729 0.78528 0.0
C1024 C 0.6756 0.76522 0.80181 0.0
H1025 H 0.6087 0.75431 0.75144 0.0
H1026 H 0.69618 0.68565 0.83589 0.0
H1027 H 0.46215 0.66394 0.73656 0.0
H1028 H 0.65767 0.6273 0.81335 0.0
H1029 H 0.60724 0.58592 0.77483 0.0
H1030 H 0.71103 0.74273 0.83646 0.0
H1031 H 0.4907 0.54375 0.73155 0.0
H1032 H 0.38794 0.61068 0.63748 0.0
H1033 H 0.41696 0.65901 0.69484 0.0
H1034 H 0.38949 0.50872 0.5988 0.0
H1035 H 0.65903 0.79782 0.78572 0.0
H1036 H 0.69809 0.78453 0.816 0.0
H1037 H 0.37848 0.55506 0.60105 0.0
H1038 H 0.45706 0.48994 0.68691 0.0
N1039 N 0.46073 0.61974 0.7018 0.0
C1040 C 0.40822 0.61289 0.65534 0.0
C1041 C 0.4244 0.64009 0.68784 0.0
C1042 C 0.41709 0.58789 0.64827 0.0
C1043 C 0.44366 0.59183 0.67259 0.0
C1044 C 0.45037 0.6429 0.71129 0.0
N1045 N 0.47337 0.56878 0.69852 0.0
C1046 C 0.45013 0.56562 0.67092 0.0
C1047 C 0.45522 0.51105 0.68149 0.0
C1048 C 0.4334 0.50787 0.65002 0.0
C1049 C 0.47428 0.54158 0.70658 0.0
C1050 C 0.42984 0.53504 0.64543 0.0
H1051 H 0.41815 0.48404 0.63127 0.0
O1052 O 0.48537 0.58799 0.78545 0.0
O1053 O 0.55357 0.65018 0.7667 0.0
O1054 O 0.57121 0.62577 0.67413 0.0
O1055 O 0.52143 0.59263 0.69208 0.0
O1056 O 0.52585 0.6265 0.80804 0.0
O1057 O 0.46552 0.62144 0.78096 0.0
O1058 O 0.60016 0.71308 0.68095 0.0
O1059 O 0.52664 0.65743 0.69786 0.0
O1060 O 0.50941 0.67121 0.76988 0.0
O1061 O 0.56265 0.70341 0.76572 0.0
O1062 O 0.5548 0.65889 0.6482 0.0
O1063 O 0.62467 0.68584 0.69387 0.0
C1064 C 0.55374 0.64858 0.8067 0.0
C1065 C 0.40504 0.53193 0.61876 0.0
C1066 C 0.39874 0.55832 0.62009 0.0
C1067 C 0.46475 0.59826 0.79858 0.0
C1068 C 0.43409 0.575 0.80806 0.0
C1069 C 0.41132 0.55117 0.77647 0.0
C1070 C 0.42651 0.5804 0.85034 0.0
C1071 C 0.39547 0.5654 0.86102 0.0
C1072 C 0.38084 0.5335 0.78773 0.0
C1073 C 0.37268 0.54098 0.82967 0.0
C1074 C 0.54601 0.59768 0.66892 0.0
C1075 C 0.52635 0.65279 0.65604 0.0
C1076 C 0.626 0.70982 0.67795 0.0
C1077 C 0.64125 0.71214 0.63809 0.0
C1078 C 0.66987 0.739 0.63677 0.0
C1079 C 0.63071 0.68489 0.60473 0.0
C1080 C 0.64823 0.68429 0.56919 0.0
C1081 C 0.68777 0.73854 0.60168 0.0
C1082 C 0.67704 0.71137 0.5679 0.0
C1083 C 0.53555 0.69798 0.78275 0.0
H1084 H 0.41676 0.54673 0.74338 0.0
H1085 H 0.4447 0.59851 0.87447 0.0
H1086 H 0.36314 0.51512 0.76342 0.0
H1087 H 0.34848 0.52884 0.83684 0.0
H1088 H 0.67883 0.75974 0.66348 0.0
H1089 H 0.60915 0.66376 0.60714 0.0
H1090 H 0.71 0.7592 0.60069 0.0
H1091 H 0.69087 0.712 0.54041 0.0
Gd1092 Gd 0.13763 0.42734 0.1404 0.0
Gd1093 Gd 0.06049 0.36704 0.10142 0.0
C1094 C 0.97892 0.3575 0.18168 0.0
C1095 C 0.94863 0.29906 0.16883 0.0
C1096 C 0.0011 0.32305 0.1445 0.0
C1097 C 0.00345 0.3537 0.15994 0.0
C1098 C 0.97382 0.29541 0.14943 0.0
C1099 C 0.95117 0.33005 0.1849 0.0
C1100 C 0.9829 0.38876 0.19932 0.0
C1101 C 0.01067 0.41526 0.19463 0.0
N1102 N 0.02991 0.37974 0.1541 0.0
C1103 C 0.03372 0.41029 0.17123 0.0
H1104 H 0.05458 0.43106 0.16782 0.0
C1105 C 0.02341 0.29054 0.10709 0.0
N1106 N 0.02523 0.32031 0.12393 0.0
C1107 C -0.00291 0.26245 0.11189 0.0
C1108 C 0.97224 0.26488 0.13335 0.0
H1109 H 0.04139 0.28844 0.08749 0.0
H1110 H 0.93185 0.33252 0.20074 0.0
H1111 H 0.16309 0.3719 0.08621 0.0
H1112 H 0.96479 0.39268 0.21672 0.0
H1113 H 0.01414 0.43959 0.20832 0.0
H1114 H 0.92728 0.27809 0.17224 0.0
H1115 H 0.13974 0.50239 0.14344 0.0
H1116 H 0.24356 0.42441 1.02476 0.0
H1117 H 0.20687 0.37395 1.04579 0.0
H1118 H 0.2485 0.52901 1.04132 0.0
H1119 H -0.00447 0.23892 0.09783 0.0
H1120 H 0.95167 0.24305 0.1364 0.0
H1121 H 0.25903 0.48188 1.0239 0.0
H1122 H 0.17094 0.5508 0.1168 0.0
N1123 N 0.17352 0.42177 0.0905 0.0
C1124 C 0.22405 0.42396 1.04304 0.0
C1125 C 0.20348 0.3955 0.05494 0.0
C1126 C 0.21889 0.4513 0.05397 0.0
C1127 C 0.19296 0.44954 0.07766 0.0
C1128 C 0.17846 0.39479 0.07879 0.0
N1129 N 0.1615 0.4742 0.10944 0.0
C1130 C 0.18649 0.47608 0.0866 0.0
C1131 C 0.17517 0.52978 0.10719 0.0
C1132 C 0.20032 0.53171 0.08335 0.0
C1133 C 0.15644 0.50124 0.12077 0.0
C1134 C 0.20653 0.50499 0.07321 0.0
H1135 H 0.21534 0.55425 0.07392 0.0
O1136 O 0.17039 0.47335 0.17854 0.0
O1137 O 0.08936 0.39721 0.16137 0.0
O1138 O 0.07223 0.4131 0.07838 0.0
O1139 O 0.10494 0.44918 0.136 0.0
O1140 O 0.12059 0.42909 0.20846 0.0
O1141 O 0.17293 0.42978 0.18559 0.0
O1142 O 0.0295 0.32998 1.04719 0.0
O1143 O 0.1079 0.39543 0.07621 0.0
O1144 O 0.13783 0.38115 0.14421 0.0
O1145 O 0.08521 0.34269 0.12798 0.0
O1146 O 0.08386 0.34539 0.05277 0.0
O1147 O 0.02512 0.37491 0.07256 0.0
C1148 C 0.09258 0.40605 0.20277 0.0
C1149 C 0.23274 0.50687 0.05109 0.0
C1150 C 0.23884 0.48011 1.0414 0.0
C1151 C 0.18191 0.46055 0.20171 0.0
C1152 C 0.18157 0.47064 0.24882 0.0
C1153 C 0.18097 0.50021 0.26629 0.0
C1154 C 0.17887 0.44965 0.27611 0.0
C1155 C 0.17525 0.45774 0.32012 0.0
C1156 C 0.17684 0.50807 0.30993 0.0
C1157 C 0.17382 0.48688 0.33679 0.0
C1158 C 0.08574 0.44236 0.10234 0.0
C1159 C 0.10829 0.37133 1.0482 0.0
C1160 C 0.01397 0.34674 1.04616 0.0
C1161 C 0.98852 0.33786 1.01417 0.0
C1162 C 0.96525 0.30588 1.00158 0.0
C1163 C 0.98776 0.36215 0.99594 0.0
C1164 C 0.96482 0.35463 0.96348 0.0
C1165 C 0.94123 0.29842 0.97052 0.0
C1166 C 0.94107 0.32264 0.95124 0.0
C1167 C 0.11527 0.3516 0.13832 0.0
H1168 H 0.18302 0.51698 0.24606 0.0
H1169 H 0.17937 0.42683 0.26319 0.0
H1170 H 0.17617 0.53074 0.32299 0.0
H1171 H 0.17153 0.49381 0.37081 0.0
H1172 H 0.96565 0.28689 1.01573 0.0
H1173 H 0.00641 0.38669 1.00482 0.0
H1174 H 0.92336 0.2737 0.96034 0.0
H1175 H 0.92361 0.31602 0.92503 0.0
Gd1176 Gd 0.50855 0.34416 0.39336 0.0
Gd1177 Gd 0.58453 0.39699 0.37025 0.0
C1178 C 0.66447 0.40653 0.4593 0.0
C1179 C 0.67122 0.45221 0.51601 0.0
C1180 C 0.63165 0.43332 0.45596 0.0
C1181 C 0.63939 0.40851 0.43893 0.0
C1182 C 0.6493 0.45678 0.49292 0.0
C1183 C 0.67876 0.427 0.49925 0.0
C1184 C 0.67626 0.38594 0.43733 0.0
C1185 C 0.66503 0.37019 0.39477 0.0
N1186 N 0.62621 0.39 0.3991 0.0
C1187 C 0.64071 0.37345 0.37561 0.0
H1188 H 0.63369 0.36266 0.34182 0.0
C1189 C 0.61457 0.46908 0.43671 0.0
N1190 N 0.61178 0.43832 0.43163 0.0
C1191 C 0.63107 0.49281 0.47304 0.0
C1192 C 0.64736 0.48608 0.50248 0.0
H1193 H 0.60404 0.47556 0.41262 0.0
H1194 H 0.69746 0.42521 0.51567 0.0
H1195 H 0.50644 0.40627 0.35732 0.0
H1196 H 0.69543 0.38378 0.45185 0.0
H1197 H 0.67541 0.35591 0.37643 0.0
H1198 H 0.68443 0.46962 0.54484 0.0
H1199 H 0.4687 0.26772 0.40274 0.0
H1200 H 0.43336 0.3662 0.25558 0.0
H1201 H 0.47678 0.41375 0.30094 0.0
H1202 H 0.38237 0.25374 0.25986 0.0
H1203 H 0.63202 0.51657 0.47753 0.0
H1204 H 0.66092 0.50486 0.53001 0.0
H1205 H 0.39858 0.30639 0.24 0.0
H1206 H 0.41819 0.22069 0.37328 0.0
N1207 N 0.48162 0.35489 0.34183 0.0
C1208 C 0.44654 0.36276 0.27995 0.0
C1209 C 0.47102 0.38967 0.30548 0.0
C1210 C 0.43851 0.33187 0.28738 0.0
C1211 C 0.45659 0.32864 0.31923 0.0
C1212 C 0.48786 0.38534 0.33725 0.0
N1213 N 0.46572 0.29623 0.3604 0.0
C1214 C 0.44816 0.29862 0.32923 0.0
C1215 C 0.42673 0.24221 0.3599 0.0
C1216 C 0.41003 0.24306 0.32481 0.0
C1217 C 0.45522 0.26885 0.37658 0.0
C1218 C 0.42052 0.2716 0.30924 0.0
H1219 H 0.38852 0.22199 0.31102 0.0
O1220 O 0.4777 0.32351 0.44281 0.0
O1221 O 0.55853 0.37057 0.42238 0.0
O1222 O 0.57947 0.34606 0.34715 0.0
O1223 O 0.52724 0.31041 0.35663 0.0
O1224 O 0.53215 0.32252 0.42878 0.0
O1225 O 0.484 0.36897 0.42714 0.0
O1226 O 0.5924 0.43251 0.33015 0.0
O1227 O 0.53451 0.36877 0.34204 0.0
O1228 O 0.53063 0.38995 0.44322 0.0
O1229 O 0.5584 0.42576 0.40267 0.0
O1230 O 0.56752 0.37039 0.29916 0.0
O1231 O 0.63085 0.42585 0.35417 0.0
C1232 C 0.55947 0.34761 0.43821 0.0
C1233 C 0.40334 0.27441 0.27611 0.0
C1234 C 0.41249 0.30442 0.26492 0.0
C1235 C 0.47055 0.34768 0.45084 0.0
C1236 C 0.43954 0.34314 0.46424 0.0
C1237 C 0.42207 0.35522 0.44465 0.0
C1238 C 0.43068 0.33289 0.50294 0.0
C1239 C 0.40565 0.33607 0.52321 0.0
C1240 C 0.3968 0.358 0.46463 0.0
C1241 C 0.38889 0.34897 0.50425 0.0
C1242 C 0.55558 0.31661 0.34236 0.0
C1243 C 0.53747 0.35861 0.30207 0.0
C1244 C 0.62262 0.44209 0.33275 0.0
C1245 C 0.64028 0.4499 0.29547 0.0
C1246 C 0.66311 0.48188 0.2979 0.0
C1247 C 0.63922 0.42527 0.26192 0.0
C1248 C 0.66116 0.43268 0.23118 0.0
C1249 C 0.68492 0.48919 0.26699 0.0
C1250 C 0.68403 0.46461 0.23366 0.0
C1251 C 0.5433 0.41964 0.4375 0.0
H1252 H 0.42878 0.36388 0.41506 0.0
H1253 H 0.44465 0.32452 0.51893 0.0
H1254 H 0.38396 0.36813 0.45005 0.0
H1255 H 0.36999 0.35224 0.5202 0.0
H1256 H 0.66477 0.50096 0.3246 0.0
H1257 H 0.62193 0.40044 0.26026 0.0
H1258 H 0.7027 0.51381 0.26911 0.0
H1259 H 0.70082 0.47049 0.20948 0.0
Gd1260 Gd 0.0235 0.63923 0.99954 0.0
Gd1261 Gd 0.94856 0.58754 0.95916 0.0
C1262 C 0.86895 0.57722 1.04765 0.0
C1263 C 0.85033 0.52217 0.05707 0.0
C1264 C 0.89601 0.54597 1.01663 0.0
C1265 C 0.89319 0.57463 1.02331 0.0
C1266 C 0.87418 0.51936 1.03306 0.0
C1267 C 0.84781 0.55103 0.06449 0.0
C1268 C 0.86593 0.6058 0.05368 0.0
C1269 C 0.88642 0.63093 1.0354 0.0
N1270 N 0.91303 0.59935 1.00491 0.0
C1271 C 0.90964 0.62733 1.01098 0.0
H1272 H 0.92484 0.64801 0.99861 0.0
C1273 C 0.91899 0.51367 0.98072 0.0
N1274 N 0.91861 0.5432 0.99203 0.0
C1275 C 0.89838 0.48717 0.997 0.0
C1276 C 0.87597 0.49004 1.0235 0.0
H1277 H 0.93467 0.50973 0.95805 0.0
H1278 H 0.82898 0.55267 0.08269 0.0
H1279 H 0.02187 0.56747 0.94386 0.0
H1280 H 0.84772 0.60863 0.07218 0.0
H1281 H 0.88439 0.6533 1.0401 0.0
H1282 H 0.83334 0.50191 0.06945 0.0
H1283 H 0.05128 0.71922 1.00368 0.0
H1284 H 0.10995 0.59316 0.89052 0.0
H1285 H 0.05881 0.55148 0.90479 0.0
H1286 H 0.15715 0.70852 0.91719 0.0
H1287 H 0.89928 0.46424 0.98806 0.0
H1288 H 0.8595 0.46916 1.03526 0.0
H1289 H 0.14736 0.65165 0.89884 0.0
H1290 H 0.09553 0.76107 0.97711 0.0
N1291 N 0.04959 0.61805 0.94817 0.0
C1292 C 0.09322 0.60041 0.90654 0.0
C1293 C 0.06436 0.57683 0.9144 0.0
C1294 C 0.10028 0.63306 0.91969 0.0
C1295 C 0.07756 0.64131 0.93999 0.0
C1296 C 0.04312 0.58607 0.93622 0.0
N1297 N 0.06189 0.68133 0.97244 0.0
C1298 C 0.08366 0.67369 0.95193 0.0
C1299 C 0.09304 0.73697 0.97076 0.0
C1300 C 0.11594 0.7299 0.95049 0.0
C1301 C 0.06698 0.71272 0.98381 0.0
C1302 C 0.11186 0.69806 0.94197 0.0
H1303 H 0.1367 0.74918 0.94186 0.0
O1304 O 0.06374 0.67325 1.04582 0.0
O1305 O 0.9752 0.61824 1.02512 0.0
O1306 O 0.95284 0.6347 0.94831 0.0
O1307 O 0.0048 0.66926 0.9743 0.0
O1308 O 0.00461 0.6676 1.04738 0.0
O1309 O 0.05191 0.62147 1.02591 0.0
O1310 O 0.93569 0.54486 0.9084 0.0
O1311 O -0.00183 0.6065 0.93694 0.0
O1312 O 0.00257 0.60014 1.03643 0.0
O1313 O 0.97582 0.56192 0.97817 0.0
O1314 O 0.96533 0.60844 0.89907 0.0
O1315 O 0.9037 0.56631 0.92173 0.0
C1316 C 0.97725 0.64438 0.05108 0.0
C1317 C 0.13505 0.68997 0.92399 0.0
C1318 C 0.12944 0.65757 0.9135 0.0
C1319 C 0.07192 0.65017 1.04588 0.0
C1320 C 0.09775 0.65341 0.0731 0.0
C1321 C 0.12824 0.6774 0.07182 0.0
C1322 C 0.09235 0.62943 0.09623 0.0
C1323 C 0.11642 0.63119 0.12263 0.0
C1324 C 0.15308 0.67765 0.09485 0.0
C1325 C 0.14724 0.65503 0.12074 0.0
C1326 C 0.97697 0.66363 0.95801 0.0
C1327 C -0.00543 0.61484 0.90164 0.0
C1328 C 0.90895 0.54364 0.89751 0.0
C1329 C 0.90026 0.53604 0.85107 0.0
C1330 C 0.88552 0.50349 0.8298 0.0
C1331 C 0.90635 0.56035 0.82778 0.0
C1332 C 0.89732 0.55227 0.78326 0.0
C1333 C 0.87654 0.49519 0.78582 0.0
C1334 C 0.88214 0.51927 0.76272 0.0
C1335 C 0.99032 0.56999 1.01657 0.0
H1336 H 0.13287 0.69519 0.05219 0.0
H1337 H 0.06873 0.61046 0.09593 0.0
H1338 H 0.17673 0.69603 0.09378 0.0
H1339 H 0.16654 0.65754 0.14109 0.0
H1340 H 0.88076 0.48447 0.84734 0.0
H1341 H 0.91807 0.58543 0.84438 0.0
H1342 H 0.86478 0.46996 0.76968 0.0
H1343 H 0.87368 0.51179 0.72902 0.0
H1344 H 0.17266 0.20923 1.03264 0.0
H1345 H 0.19528 0.12976 1.03118 0.0
H1346 H 0.18629 0.11495 0.95111 0.0
H1347 H 0.10945 0.16645 0.95667 0.0
H1348 H 0.11581 0.20067 0.93363 0.0
H1349 H 0.12878 0.20691 0.98902 0.0
H1350 H 0.185 0.24546 0.9732 0.0
H1351 H 0.17219 0.23861 0.91743 0.0
H1352 H 0.20437 0.23103 0.93129 0.0
H1353 H 0.16711 0.10513 0.87127 0.0
H1354 H 0.1432 0.10379 0.80097 0.0
H1355 H 0.13295 0.18933 0.85981 0.0
C1356 C 0.17704 0.18959 1.01518 0.0
C1357 C 0.18544 0.1711 1.03729 0.0
C1358 C 0.18973 0.14467 1.01414 0.0
C1359 C 0.1844 0.136 0.96891 0.0
C1360 C 0.17487 0.15413 0.94799 0.0
C1361 C 0.17152 0.18057 0.97065 0.0
C1362 C 0.1581 0.19438 0.94224 0.0
C1363 C 0.12617 0.19193 0.95625 0.0
C1364 C 0.18132 0.22944 0.94094 0.0
C1365 C 0.1543 0.17166 0.89992 0.0
C1366 C 0.16389 0.14845 0.90331 0.0
C1367 C 0.16003 0.12354 0.86818 0.0
C1368 C 0.14626 0.12273 0.82866 0.0
C1369 C 0.13676 0.14671 0.82528 0.0
C1370 C 0.14074 0.17114 0.86142 0.0
H1371 H 0.10592 0.87004 0.19306 0.0
H1372 H 0.14571 0.80303 0.1545 0.0
H1373 H 0.13311 0.80064 0.0778 0.0
H1374 H 0.04315 0.83635 0.11417 0.0
H1375 H 0.04632 0.87437 0.10509 0.0
H1376 H 0.05992 0.87221 0.15645 0.0
H1377 H 0.11449 0.91769 0.14956 0.0
H1378 H 0.10087 0.92002 0.09818 0.0
H1379 H 0.13494 0.91327 0.10239 0.0
H1380 H 0.1203 0.8108 1.00361 0.0
H1381 H 0.08977 0.81127 0.94131 0.0
H1382 H 0.06002 0.87482 1.02574 0.0
C1383 C 0.11254 0.85505 0.16882 0.0
C1384 C 0.12748 0.83694 0.18135 0.0
C1385 C 0.13434 0.81711 0.14718 0.0
C1386 C 0.1276 0.81601 0.10305 0.0
C1387 C 0.1139 0.83497 0.09237 0.0
C1388 C 0.10611 0.85383 0.12452 0.0
C1389 C 0.09036 0.87093 0.10453 0.0
C1390 C 0.05797 0.86297 0.12106 0.0
C1391 C 0.1114 0.90766 0.11427 0.0
C1392 C 0.08802 0.85684 0.05603 0.0
C1393 C 0.10318 0.83744 0.04995 0.0
C1394 C 0.10578 0.82311 1.0083 0.0
C1395 C 0.0895 0.82496 0.97271 0.0
C1396 C 0.07315 0.84414 0.97696 0.0
C1397 C 0.07291 0.86067 1.02003 0.0
H1398 H 0.50292 0.83344 0.25712 0.0
H1399 H 0.40322 0.80055 0.24394 0.0
H1400 H 0.40761 0.84582 0.29909 0.0
H1401 H 0.52691 0.85229 0.33872 0.0
H1402 H 0.55685 0.89376 0.35321 0.0
H1403 H 0.54804 0.87353 0.29789 0.0
H1404 H 0.54017 0.92042 0.28247 0.0
H1405 H 0.54602 0.93991 0.3386 0.0
H1406 H 0.51072 0.93055 0.30738 0.0
H1407 H 0.41684 0.86352 0.37419 0.0
H1408 H 0.43003 0.84672 0.43598 0.0
H1409 H 0.52709 0.88903 0.41114 0.0
C1410 C 0.48257 0.83749 0.26413 0.0
C1411 C 0.45283 0.81362 0.24593 0.0
C1412 C 0.42628 0.8185 0.25644 0.0
C1413 C 0.42871 0.84483 0.28771 0.0
C1414 C 0.4581 0.86682 0.30802 0.0
C1415 C 0.48512 0.86523 0.2936 0.0
C1416 C 0.51278 0.88847 0.3251 0.0
C1417 C 0.53748 0.87608 0.32901 0.0
C1418 C 0.52826 0.92176 0.3126 0.0
C1419 C 0.49551 0.89077 0.36516 0.0
C1420 C 0.46407 0.88186 0.35381 0.0
C1421 C 0.44127 0.87108 0.38312 0.0
C1422 C 0.44879 0.86163 0.4187 0.0
C1423 C 0.47946 0.86603 0.4263 0.0
C1424 C 0.50357 0.88572 0.40429 0.0
H1425 H 0.41145 0.14343 0.79952 0.0
H1426 H 0.44417 0.246 0.80924 0.0
H1427 H 0.45931 0.24061 0.73438 0.0
H1428 H 0.46769 0.13145 0.73601 0.0
H1429 H 0.44195 0.09418 0.69996 0.0
H1430 H 0.43064 0.10486 0.75289 0.0
H1431 H 0.3793 0.09961 0.71907 0.0
H1432 H 0.39046 0.08883 0.6659 0.0
H1433 H 0.38107 0.12238 0.67876 0.0
H1434 H 0.47333 0.22503 0.65699 0.0
H1435 H 0.48867 0.20231 0.58931 0.0
H1436 H 0.44911 0.1084 0.62363 0.0
C1437 C 0.42047 0.1646 0.78542 0.0
C1438 C 0.42499 0.19539 0.81159 0.0
C1439 C 0.43872 0.22211 0.79088 0.0
C1440 C 0.44773 0.21921 0.7478 0.0
C1441 C 0.44277 0.18897 0.72322 0.0
C1442 C 0.42905 0.16189 0.74109 0.0
C1443 C 0.42698 0.13236 0.70688 0.0
C1444 C 0.44278 0.11467 0.72504 0.0
C1445 C 0.39241 0.10939 0.6918 0.0
C1446 C 0.44427 0.14746 0.669 0.0
C1447 C 0.45188 0.18007 0.67888 0.0
C1448 C 0.46711 0.19946 0.64936 0.0
C1449 C 0.47553 0.18599 0.61004 0.0
C1450 C 0.46968 0.15294 0.59848 0.0
C1451 C 0.45335 0.13341 0.62928 0.0
H1452 H 0.94619 0.87409 0.28051 0.0
H1453 H 0.00127 0.8211 0.25124 0.0
H1454 H -0.00388 0.8211 0.17434 0.0
H1455 H 0.89257 0.83024 0.17674 0.0
H1456 H 0.88862 0.86595 0.17293 0.0
H1457 H 0.89392 0.85843 0.22504 0.0
H1458 H 0.94128 0.91539 0.24282 0.0
H1459 H 0.93795 0.92208 0.18949 0.0
H1460 H 0.97416 0.92465 0.21008 0.0
H1461 H -0.0074 0.83336 0.10667 0.0
H1462 H 0.97709 0.84146 1.04006 0.0
H1463 H 0.91851 0.88187 0.10775 0.0
C1464 C 0.95668 0.86225 0.25745 0.0
C1465 C 0.97506 0.84864 0.27079 0.0
C1466 C 0.98781 0.83227 0.24075 0.0
C1467 C 0.98507 0.83221 0.19739 0.0
C1468 C 0.96889 0.84797 0.18531 0.0
C1469 C 0.95336 0.86111 0.21357 0.0
C1470 C 0.93658 0.87521 0.1906 0.0
C1471 C 0.90081 0.85632 0.19138 0.0
C1472 C 0.94821 0.9115 0.20938 0.0
C1473 C 0.94676 0.86939 0.1457 0.0
C1474 C 0.96583 0.85422 0.14424 0.0
C1475 C 0.97819 0.84571 0.10713 0.0
C1476 C 0.96913 0.8507 0.06931 0.0
C1477 C 0.94608 0.86203 0.06865 0.0
C1478 C 0.9362 0.87338 0.1076 0.0
H1479 H 0.91527 0.13569 0.9475 0.0
H1480 H 0.98983 0.2238 0.92054 0.0
H1481 H 0.02121 0.22826 0.98518 0.0
H1482 H 0.92491 0.15848 0.0655 0.0
H1483 H 0.91386 0.11681 0.0665 0.0
H1484 H 0.90033 0.12633 1.02168 0.0
H1485 H 0.9244 0.09072 0.97611 0.0
H1486 H 0.94132 0.08681 1.02378 0.0
H1487 H 0.96605 0.10405 0.98292 0.0
H1488 H 0.04751 0.21862 1.04833 0.0
H1489 H 0.06228 0.20509 0.11222 0.0
H1490 H 0.97057 0.12379 0.10248 0.0
C1491 C 0.93842 0.15583 0.95416 0.0
C1492 C 0.9498 0.17906 0.9268 0.0
C1493 C 0.97993 0.20547 0.93965 0.0
C1494 C -0.00176 0.208 0.97649 0.0
C1495 C 0.98661 0.18396 1.00116 0.0
C1496 C 0.95718 0.15858 0.99066 0.0
C1497 C 0.94973 0.13631 1.02306 0.0
C1498 C 0.92053 0.13451 1.0456 0.0
C1499 C 0.94508 0.10246 1.00009 0.0
C1500 C 0.9794 0.15333 0.05449 0.0
C1501 C 0.00052 0.18028 1.04009 0.0
C1502 C 0.03048 0.1984 0.06064 0.0
C1503 C 0.03859 0.19034 0.09777 0.0
C1504 C 0.01718 0.16455 0.11659 0.0
C1505 C 0.98726 0.14493 0.09256 0.0
H1506 H 0.66283 0.17817 0.83298 0.0
H1507 H 0.57951 0.19143 0.84927 0.0
H1508 H 0.54869 0.13919 0.80138 0.0
H1509 H 0.66704 0.16403 0.74641 0.0
H1510 H 0.67379 0.12871 0.73022 0.0
H1511 H 0.68253 0.15013 0.78503 0.0
H1512 H 0.6488 0.09804 0.80837 0.0
H1513 H 0.63687 0.07542 0.75373 0.0
H1514 H 0.60777 0.07532 0.79064 0.0
H1515 H 0.5357 0.10948 0.73209 0.0
H1516 H 0.55024 0.12575 0.66448 0.0
H1517 H 0.63633 0.11793 0.67692 0.0
C1518 C 0.63763 0.16834 0.82823 0.0
C1519 C 0.62305 0.18769 0.84514 0.0
C1520 C 0.59064 0.17614 0.83736 0.0
C1521 C 0.57294 0.14613 0.81054 0.0
C1522 C 0.58807 0.12818 0.79065 0.0
C1523 C 0.61976 0.13817 0.80083 0.0
C1524 C 0.63227 0.12044 0.76684 0.0
C1525 C 0.66583 0.14219 0.75635 0.0
C1526 C 0.6313 0.09053 0.78076 0.0
C1527 C 0.60732 0.10978 0.73033 0.0
C1528 C 0.5799 0.10962 0.74651 0.0
C1529 C 0.55704 0.10976 0.7197 0.0
C1530 C 0.56548 0.11902 0.68057 0.0
C1531 C 0.59536 0.12463 0.66672 0.0
C1532 C 0.61396 0.11492 0.68849 0.0
H1533 H 0.61842 0.90414 0.46281 0.0
H1534 H 0.63132 0.83936 0.53106 0.0
H1535 H 0.65312 0.81955 0.46718 0.0
H1536 H 0.59165 0.84613 0.36072 0.0
H1537 H 0.60919 0.87617 0.32832 0.0
H1538 H 0.59811 0.88712 0.38137 0.0
H1539 H 0.65452 0.93246 0.40175 0.0
H1540 H 0.66589 0.92076 0.34923 0.0
H1541 H 0.6868 0.92226 0.39709 0.0
H1542 H 0.6713 0.80353 0.39082 0.0
H1543 H 0.67967 0.79149 0.31389 0.0
H1544 H 0.65374 0.86412 0.29039 0.0
C1545 C 0.62675 0.88648 0.46494 0.0
C1546 C 0.62514 0.87553 0.50472 0.0
C1547 C 0.63458 0.85072 0.5037 0.0
C1548 C 0.64645 0.83862 0.46654 0.0
C1549 C 0.64835 0.85047 0.4286 0.0
C1550 C 0.63836 0.87372 0.42747 0.0
C1551 C 0.64057 0.88058 0.38156 0.0
C1552 C 0.60794 0.87197 0.36174 0.0
C1553 C 0.66329 0.91614 0.38247 0.0
C1554 C 0.65354 0.85792 0.35698 0.0
C1555 C 0.65801 0.84089 0.38498 0.0
C1556 C 0.66864 0.81768 0.3695 0.0
C1557 C 0.67443 0.8115 0.32524 0.0
C1558 C 0.67045 0.8284 0.29508 0.0
C1559 C 0.65923 0.85182 0.31204 0.0
H1560 H 0.67054 0.63876 0.33843 0.0
H1561 H 0.57871 0.6337 0.32098 0.0
H1562 H 0.56582 0.61843 0.39103 0.0
H1563 H 0.64329 0.57472 0.4176 0.0
H1564 H 0.68039 0.59797 0.44901 0.0
H1565 H 0.67855 0.59352 0.39115 0.0
H1566 H 0.70625 0.65578 0.39926 0.0
H1567 H 0.70903 0.65994 0.45641 0.0
H1568 H 0.69046 0.6799 0.43294 0.0
H1569 H 0.56755 0.62032 0.46511 0.0
H1570 H 0.58707 0.65169 0.53787 0.0
H1571 H 0.67865 0.65638 0.51531 0.0
C1572 C 0.64726 0.6327 0.34893 0.0
C1573 C 0.62518 0.63648 0.32458 0.0
C1574 C 0.59547 0.63017 0.33925 0.0
C1575 C 0.58785 0.62095 0.37863 0.0
C1576 C 0.61028 0.61826 0.40303 0.0
C1577 C 0.63955 0.62392 0.38882 0.0
C1578 C 0.66177 0.62738 0.4253 0.0
C1579 C 0.66625 0.59657 0.42046 0.0
C1580 C 0.69368 0.65758 0.42865 0.0
C1581 C 0.64261 0.62991 0.4631 0.0
C1582 C 0.61197 0.62113 0.44907 0.0
C1583 C 0.59119 0.62667 0.47667 0.0
C1584 C 0.6026 0.64464 0.51823 0.0
C1585 C 0.63466 0.65705 0.5317 0.0
C1586 C 0.65416 0.64738 0.50516 0.0
H1587 H 0.58689 0.34062 0.68743 0.0
H1588 H 0.66155 0.31494 0.64943 0.0
H1589 H 0.65287 0.31954 0.57446 0.0
H1590 H 0.53609 0.29687 0.58533 0.0
H1591 H 0.52233 0.32704 0.58731 0.0
H1592 H 0.53367 0.31986 0.63662 0.0
H1593 H 0.57255 0.38068 0.65896 0.0
H1594 H 0.5619 0.38785 0.6092 0.0
H1595 H 0.6023 0.39894 0.62371 0.0
H1596 H 0.6384 0.33242 0.50304 0.0
H1597 H 0.61286 0.33967 0.44173 0.0
H1598 H 0.54727 0.35697 0.52486 0.0
C1599 C 0.60101 0.3352 0.66317 0.0
C1600 C 0.62491 0.32705 0.67506 0.0
C1601 C 0.64282 0.32059 0.64178 0.0
C1602 C 0.63826 0.32364 0.59895 0.0
C1603 C 0.61538 0.33295 0.58898 0.0
C1604 C 0.59646 0.33772 0.6201 0.0
C1605 C 0.57305 0.34687 0.60109 0.0
C1606 C 0.53928 0.32113 0.60268 0.0
C1607 C 0.57773 0.38058 0.62466 0.0
C1608 C 0.58187 0.34705 0.55455 0.0
C1609 C 0.60662 0.33933 0.54835 0.0
C1610 C 0.61888 0.33819 0.50805 0.0
C1611 C 0.60461 0.34314 0.47317 0.0
C1612 C 0.57902 0.35074 0.47795 0.0
C1613 C 0.56765 0.35265 0.51982 0.0
H1614 H 0.01748 0.38369 0.92669 0.0
H1615 H 0.92417 0.37521 0.93609 0.0
H1616 H 0.92609 0.3906 0.86641 0.0
H1617 H 0.0323 0.43382 0.81968 0.0
H1618 H 0.05538 0.41331 0.7995 0.0
H1619 H 0.06089 0.43333 0.85553 0.0
H1620 H 0.05217 0.38055 0.87772 0.0
H1621 H 0.04708 0.36117 0.82233 0.0
H1622 H 0.01686 0.34378 0.85751 0.0
H1623 H 0.91945 0.36401 0.79474 0.0
H1624 H 0.91079 0.31465 0.7439 0.0
H1625 H 0.0063 0.33307 0.76983 0.0
C1626 C -0.00147 0.38737 0.91468 0.0
C1627 C 0.97043 0.37754 0.93522 0.0
C1628 C 0.9457 0.38224 0.92005 0.0
C1629 C 0.94693 0.39131 0.8805 0.0
C1630 C 0.97223 0.39372 0.85587 0.0
C1631 C -0.00081 0.39466 0.87394 0.0
C1632 C 0.01848 0.38724 0.83896 0.0
C1633 C 0.04318 0.4188 0.82777 0.0
C1634 C 0.03442 0.36687 0.84983 0.0
C1635 C -0.00708 0.36943 0.80285 0.0
C1636 C 0.96816 0.37727 0.81096 0.0
C1637 C 0.93908 0.35873 0.78756 0.0
C1638 C 0.93409 0.3302 0.75898 0.0
C1639 C 0.95828 0.32078 0.75281 0.0
C1640 C 0.9881 0.34094 0.77375 0.0
H1641 H 0.9349 0.64936 0.30731 0.0
H1642 H 0.90905 0.72505 0.29699 0.0
H1643 H 0.91782 0.71769 0.21925 0.0
H1644 H -0.00608 0.6641 0.23382 0.0
H1645 H 0.98287 0.62251 0.20857 0.0
H1646 H 0.97339 0.63247 0.26293 0.0
H1647 H 0.91508 0.59353 0.24096 0.0
H1648 H 0.92421 0.58332 0.18637 0.0
H1649 H 0.89542 0.59826 0.19672 0.0
H1650 H 0.93584 0.7061 0.14165 0.0
H1651 H 0.95507 0.68866 0.07371 0.0
H1652 H 0.96439 0.61514 0.12693 0.0
C1653 C 0.92994 0.66368 0.2885 0.0
C1654 C 0.92004 0.68738 0.30974 0.0
C1655 C 0.91537 0.70606 0.28281 0.0
C1656 C 0.92072 0.70217 0.23804 0.0
C1657 C 0.93039 0.67882 0.21848 0.0
C1658 C 0.93418 0.65924 0.24278 0.0
C1659 C 0.94398 0.63537 0.21318 0.0
C1660 C 0.97541 0.63882 0.23068 0.0
C1661 C 0.91815 0.60054 0.20908 0.0
C1662 C 0.94687 0.64563 0.16914 0.0
C1663 C 0.93876 0.6708 0.17327 0.0
C1664 C 0.94125 0.68582 0.13835 0.0
C1665 C 0.95211 0.67539 0.0991 0.0
C1666 C 0.95994 0.64905 0.09227 0.0
C1667 C 0.95723 0.63413 0.12888 0.0
H1668 H 0.4199 0.37866 0.5996 0.0
H1669 H 0.38137 0.27667 0.54191 0.0
H1670 H 0.38259 0.2643 0.61371 0.0
H1671 H 0.47517 0.38216 0.66229 0.0
H1672 H 0.47405 0.41023 0.70907 0.0
H1673 H 0.46004 0.41038 0.65712 0.0
H1674 H 0.40666 0.40208 0.68703 0.0
H1675 H 0.42062 0.40128 0.73911 0.0
H1676 H 0.38509 0.36808 0.71177 0.0
H1677 H 0.39886 0.26354 0.68492 0.0
H1678 H 0.43325 0.2746 0.74877 0.0
H1679 H 0.46423 0.37754 0.76216 0.0
C1680 C 0.41002 0.35369 0.60284 0.0
C1681 C 0.39939 0.32838 0.56602 0.0
C1682 C 0.38847 0.29605 0.57027 0.0
C1683 C 0.38897 0.28888 0.61088 0.0
C1684 C 0.40058 0.31439 0.64674 0.0
C1685 C 0.41087 0.34627 0.64325 0.0
C1686 C 0.42823 0.36945 0.68496 0.0
C1687 C 0.46131 0.39447 0.67786 0.0
C1688 C 0.40899 0.3862 0.70702 0.0
C1689 C 0.4294 0.34581 0.71017 0.0
C1690 C 0.41176 0.31414 0.68853 0.0
C1691 C 0.41212 0.28815 0.70268 0.0
C1692 C 0.43195 0.29467 0.73881 0.0
C1693 C 0.45168 0.32693 0.75972 0.0
C1694 C 0.44945 0.3527 0.74632 0.0
H1695 H 0.52557 0.63627 0.56647 0.0
H1696 H 0.4805 0.67776 0.66099 0.0
H1697 H 0.45458 0.68746 0.60389 0.0
H1698 H 0.54018 0.692 0.49527 0.0
H1699 H 0.53266 0.66139 0.447 0.0
H1700 H 0.54638 0.65728 0.497 0.0
H1701 H 0.49809 0.6007 0.48819 0.0
H1702 H 0.48427 0.60599 0.43913 0.0
H1703 H 0.45931 0.59779 0.4829 0.0
H1704 H 0.43637 0.6988 0.53097 0.0
H1705 H 0.4226 0.69988 0.45606 0.0
H1706 H 0.47812 0.65048 0.4078 0.0
C1707 C 0.50985 0.64696 0.5756 0.0
C1708 C 0.50526 0.65505 0.62051 0.0
C1709 C 0.48443 0.66945 0.62877 0.0
C1710 C 0.46978 0.67605 0.59556 0.0
C1711 C 0.47564 0.66853 0.55237 0.0
C1712 C 0.49486 0.65362 0.54242 0.0
C1713 C 0.4971 0.64727 0.49341 0.0
C1714 C 0.5311 0.66556 0.48249 0.0
C1715 C 0.48392 0.61077 0.47481 0.0
C1716 C 0.47653 0.66103 0.47725 0.0
C1717 C 0.46455 0.6737 0.51172 0.0
C1718 C 0.44564 0.68852 0.50417 0.0
C1719 C 0.43811 0.68944 0.46105 0.0
C1720 C 0.44897 0.6754 0.42466 0.0
C1721 C 0.46898 0.6615 0.43399 0.0
H1722 H 0.08651 0.68821 0.331 0.0
H1723 H 0.17709 0.69273 0.35519 0.0
H1724 H 0.16173 0.64114 0.3064 0.0
H1725 H 0.03905 0.59276 0.28147 0.0
H1726 H 0.02137 0.60241 0.24006 0.0
H1727 H 0.02905 0.62597 0.29443 0.0
H1728 H 0.06046 0.67827 0.26649 0.0
H1729 H 0.05248 0.65534 0.21287 0.0
H1730 H 0.0926 0.68129 0.23392 0.0
H1731 H 0.14922 0.60624 0.23862 0.0
H1732 H 0.1488 0.60549 0.16118 0.0
H1733 H 0.06584 0.62084 0.16828 0.0
C1734 C 0.10205 0.67688 0.32752 0.0
C1735 C 0.13217 0.69347 0.34873 0.0
C1736 C 0.15326 0.67987 0.34155 0.0
C1737 C 0.14451 0.65012 0.31345 0.0
C1738 C 0.11535 0.63521 0.29009 0.0
C1739 C 0.0943 0.64839 0.29675 0.0
C1740 C 0.07062 0.63615 0.25837 0.0
C1741 C 0.0381 0.61291 0.26926 0.0
C1742 C 0.06909 0.66442 0.24195 0.0
C1743 C 0.08454 0.61817 0.22693 0.0
C1744 C 0.1087 0.61555 0.24686 0.0
C1745 C 0.13006 0.60762 0.22289 0.0
C1746 C 0.12981 0.60731 0.17873 0.0
C1747 C 0.10809 0.61452 0.15932 0.0
C1748 C 0.08291 0.61551 0.18246 0.0
H1749 H 0.11861 0.28529 0.80172 0.0
H1750 H 0.2099 0.36419 0.8009 0.0
H1751 H 0.20411 0.39207 0.87213 0.0
H1752 H 0.07812 0.32275 0.86637 0.0
H1753 H 0.062 0.29298 0.89939 0.0
H1754 H 0.07136 0.28164 0.84543 0.0
H1755 H 0.10704 0.26035 0.87468 0.0
H1756 H 0.09737 0.2712 0.92865 0.0
H1757 H 0.13777 0.28663 0.91635 0.0
H1758 H 0.17993 0.41545 0.94297 0.0
H1759 H 0.15409 0.42132 1.01044 0.0
H1760 H 0.09115 0.31915 0.97868 0.0
C1761 C 0.13756 0.3086 0.81607 0.0
C1762 C 0.16371 0.324 0.7916 0.0
C1763 C 0.18824 0.3533 0.8147 0.0
C1764 C 0.18525 0.36907 0.85656 0.0
C1765 C 0.15839 0.35417 0.87819 0.0
C1766 C 0.13605 0.32336 0.85955 0.0
C1767 C 0.1122 0.30985 0.89226 0.0
C1768 C 0.07895 0.3013 0.8748 0.0
C1769 C 0.11368 0.28025 0.90365 0.0
C1770 C 0.12361 0.33826 0.9314 0.0
C1771 C 0.14963 0.36418 0.92224 0.0
C1772 C 0.16101 0.39437 0.95122 0.0
C1773 C 0.14664 0.39755 0.99067 0.0
C1774 C 0.12264 0.37041 1.00381 0.0
C1775 C 0.11072 0.34051 0.97218 0.0
H1776 H 0.14445 0.35233 0.21218 0.0
H1777 H 0.10204 0.29384 0.08663 0.0
H1778 H 0.06096 0.25474 0.12046 0.0
H1779 H 0.12185 0.28267 0.28619 0.0
H1780 H 0.12266 0.31665 0.32206 0.0
H1781 H 0.14877 0.32295 0.27955 0.0
H1782 H 0.11822 0.36008 0.27601 0.0
H1783 H 0.08672 0.33846 0.30656 0.0
H1784 H 0.07904 0.33859 0.25106 0.0
H1785 H 0.01718 0.23447 0.16464 0.0
H1786 H 0.98963 0.20246 0.21569 0.0
H1787 H 0.06842 0.25873 0.31066 0.0
C1788 C 0.12892 0.32928 0.19191 0.0
C1789 C 0.12309 0.32686 0.14754 0.0
C1790 C 0.10469 0.29635 0.12126 0.0
C1791 C 0.08089 0.27403 0.14011 0.0
C1792 C 0.08131 0.28068 0.18474 0.0
C1793 C 0.10685 0.30508 0.21085 0.0
C1794 C 0.09974 0.30722 0.25803 0.0
C1795 C 0.12487 0.30735 0.28779 0.0
C1796 C 0.09566 0.33794 0.27407 0.0
C1797 C 0.06838 0.27708 0.25337 0.0
C1798 C 0.0566 0.26635 0.21077 0.0
C1799 C 0.0268 0.24168 0.19771 0.0
C1800 C 0.01128 0.2235 0.22766 0.0
C1801 C 0.02939 0.22532 0.26377 0.0
C1802 C 0.0553 0.25544 0.28109 0.0
H1803 H 0.94888 0.64884 0.41859 0.0
H1804 H 0.94916 0.69528 0.54906 0.0
H1805 H -0.00155 0.69583 0.56786 0.0
H1806 H 0.03303 0.6434 0.43243 0.0
H1807 H 0.0431 0.66041 0.38466 0.0
H1808 H 0.00431 0.62912 0.38739 0.0
H1809 H 0.98225 0.6662 0.36812 0.0
H1810 H 0.02057 0.69768 0.36753 0.0
H1811 H -0.0063 0.70555 0.4025 0.0
H1812 H 0.05164 0.73018 0.56396 0.0
H1813 H 0.09937 0.77259 0.54238 0.0
H1814 H 0.06709 0.73043 0.40843 0.0
C1815 C 0.9593 0.65748 0.45143 0.0
C1816 C 0.94725 0.67373 0.48178 0.0
C1817 C 0.95913 0.6838 0.52499 0.0
C1818 C 0.98741 0.6842 0.53553 0.0
C1819 C 0.00476 0.6795 0.50134 0.0
C1820 C 0.99053 0.66502 0.45911 0.0
C1821 C 0.0136 0.67664 0.42563 0.0
C1822 C 0.02422 0.65089 0.40646 0.0
C1823 C 0.00176 0.68717 0.38898 0.0
C1824 C 0.03924 0.70489 0.45457 0.0
C1825 C 0.03545 0.70433 0.49769 0.0
C1826 C 0.05538 0.72994 0.53019 0.0
C1827 C 0.0814 0.75482 0.51805 0.0
C1828 C 0.0859 0.75426 0.47415 0.0
C1829 C 0.06317 0.73101 0.44231 0.0
H1830 H 0.49505 0.7179 0.76404 0.0
H1831 H 0.5706 0.74443 0.85708 0.0
H1832 H 0.60015 0.79683 0.83456 0.0
H1833 H 0.56247 0.73102 0.70446 0.0
H1834 H 0.53938 0.72589 0.65713 0.0
H1835 H 0.52158 0.70698 0.70181 0.0
H1836 H 0.50001 0.74326 0.66172 0.0
H1837 H 0.50781 0.7815 0.69637 0.0
H1838 H 0.48462 0.74391 0.71297 0.0
H1839 H 0.62743 0.8361 0.78315 0.0
H1840 H 0.6458 0.85971 0.71891 0.0
H1841 H 0.561 0.78533 0.64409 0.0
C1842 C 0.51688 0.7359 0.78176 0.0
C1843 C 0.53293 0.72629 0.80738 0.0
C1844 C 0.55994 0.75061 0.83299 0.0
C1845 C 0.57687 0.78011 0.8199 0.0
C1846 C 0.56531 0.78363 0.78208 0.0
C1847 C 0.53612 0.76084 0.76229 0.0
C1848 C 0.53526 0.75805 0.71444 0.0
C1849 C 0.53979 0.72862 0.69275 0.0
C1850 C 0.50527 0.75685 0.6955 0.0
C1851 C 0.5645 0.78728 0.71144 0.0
C1852 C 0.58261 0.8012 0.75019 0.0
C1853 C 0.61301 0.8258 0.75297 0.0
C1854 C 0.62358 0.83827 0.71592 0.0
C1855 C 0.60378 0.82527 0.67692 0.0
C1856 C 0.57566 0.79724 0.67396 0.0
H1857 H 0.5573 0.21981 0.89849 0.0
H1858 H 0.5926 0.25683 1.03201 0.0
H1859 H 0.54745 0.2113 0.05229 0.0
H1860 H 0.49135 0.19632 0.89009 0.0
H1861 H 0.47438 0.1556 0.85774 0.0
H1862 H 0.51437 0.18228 0.8544 0.0
H1863 H 0.53278 0.14318 0.87504 0.0
H1864 H 0.49234 0.11487 0.87548 0.0
H1865 H 0.5195 0.12579 0.9215 0.0
H1866 H 0.49448 0.17967 0.05815 0.0
H1867 H 0.45517 0.19695 1.04419 0.0
H1868 H 0.44231 0.14853 0.91164 0.0
C1869 C 0.55474 0.21802 0.93199 0.0
C1870 C 0.57736 0.24135 0.96387 0.0
C1871 C 0.57451 0.23929 1.00742 0.0
C1872 C 0.55013 0.21252 1.01866 0.0
C1873 C 0.52962 0.18766 0.98572 0.0
C1874 C 0.53256 0.18992 0.9429 0.0
C1875 C 0.50542 0.16322 0.9143 0.0
C1876 C 0.49574 0.17511 0.87712 0.0
C1877 C 0.51295 0.13507 0.89555 0.0
C1878 C 0.48228 0.15387 0.94833 0.0
C1879 C 0.49788 0.16465 0.9901 0.0
C1880 C 0.4831 0.17229 1.02594 0.0
C1881 C 0.46054 0.18214 1.01827 0.0
C1882 C 0.44834 0.17592 0.97588 0.0
C1883 C 0.45388 0.15484 0.94355 0.0
H1884 H 0.014 0.74915 0.7741 0.0
H1885 H 0.10303 0.80241 0.84669 0.0
H1886 H 0.08699 0.76373 0.89471 0.0
H1887 H 0.96839 0.72381 0.80358 0.0
H1888 H 0.94247 0.68394 0.81234 0.0
H1889 H 0.96264 0.6895 0.76396 0.0
H1890 H -0.00243 0.66457 0.76618 0.0
H1891 H 0.9708 0.64438 0.80382 0.0
H1892 H 0.01222 0.66424 0.81755 0.0
H1893 H 0.04488 0.75745 0.94905 0.0
H1894 H 0.00385 0.72816 0.99379 0.0
H1895 H 0.94911 0.65978 0.87904 0.0
C1896 C 0.03099 0.7509 0.79776 0.0
C1897 C 0.05608 0.78132 0.81577 0.0
C1898 C 0.08067 0.78127 0.8395 0.0
C1899 C 0.07209 0.75932 0.86643 0.0
C1900 C 0.04187 0.73419 0.85872 0.0
C1901 C 0.02398 0.72592 0.82022 0.0
C1902 C -0.00775 0.69727 0.82147 0.0
C1903 C 0.96473 0.69876 0.79939 0.0
C1904 C -0.00687 0.6656 0.80084 0.0
C1905 C -0.00836 0.70047 0.87004 0.0
C1906 C 0.02057 0.72276 0.89039 0.0
C1907 C 0.02391 0.7363 0.93421 0.0
C1908 C -0.00018 0.72053 0.959 0.0
C1909 C 0.9763 0.68954 0.93989 0.0
C1910 C 0.96877 0.68211 0.89477 0.0
H1911 H 0.62167 0.80967 0.08357 0.0
H1912 H 0.62988 0.85945 0.21513 0.0
H1913 H 0.57551 0.84971 0.20847 0.0
H1914 H 0.53315 0.81075 0.05421 0.0
H1915 H 0.5229 0.77172 1.01995 0.0
H1916 H 0.5609 0.80495 1.01866 0.0
H1917 H 0.58533 0.76767 1.03285 0.0
H1918 H 0.5475 0.73591 1.03718 0.0
H1919 H 0.57697 0.75147 0.08137 0.0
H1920 H 0.53674 0.79814 0.21525 0.0
H1921 H 0.49193 0.74577 0.20798 0.0
H1922 H 0.49725 0.72612 0.07005 0.0
C1923 C 0.6119 0.8205 0.1091 0.0
C1924 C 0.62765 0.83307 0.15024 0.0
C1925 C 0.61686 0.84868 0.18379 0.0
C1926 C 0.58602 0.8433 0.17998 0.0
C1927 C 0.56757 0.8216 0.14331 0.0
C1928 C 0.58037 0.81347 0.10561 0.0
C1929 C 0.55581 0.78367 0.07534 0.0
C1930 C 0.54238 0.79338 1.03998 0.0
C1931 C 0.56716 0.75825 0.0556 0.0
C1932 C 0.53211 0.77128 0.10688 0.0
C1933 C 0.53995 0.79295 0.14602 0.0
C1934 C 0.52802 0.78269 0.1836 0.0
C1935 C 0.50364 0.75185 0.17938 0.0
C1936 C 0.48946 0.73404 0.1379 0.0
C1937 C 0.50633 0.74118 0.10185 0.0
H1938 H 0.4515 0.1738 0.40318 0.0
H1939 H 0.50546 0.23673 0.52119 0.0
H1940 H 0.5445 0.27197 0.47926 0.0
H1941 H 0.51338 0.17768 0.35828 0.0
H1942 H 0.50335 0.1743 0.3021 0.0
H1943 H 0.47323 0.15752 0.3373 0.0
H1944 H 0.44627 0.19511 0.33059 0.0
H1945 H 0.47074 0.19975 0.28611 0.0
H1946 H 0.47286 0.23487 0.32063 0.0
H1947 H 0.58649 0.28222 0.4254 0.0
H1948 H 0.60812 0.31156 0.36765 0.0
H1949 H 0.52241 0.25333 0.2884 0.0
C1950 C 0.46983 0.19664 0.42037 0.0
C1951 C 0.47826 0.20113 0.46453 0.0
C1952 C 0.50062 0.23195 0.48657 0.0
C1953 C 0.52347 0.25142 0.46305 0.0
C1954 C 0.51999 0.24082 0.41848 0.0
C1955 C 0.49196 0.21707 0.39687 0.0
C1956 C 0.49535 0.21054 0.34863 0.0
C1957 C 0.49643 0.17802 0.33552 0.0
C1958 C 0.46958 0.21017 0.32028 0.0
C1959 C 0.52718 0.2385 0.3471 0.0
C1960 C 0.54261 0.25102 0.38778 0.0
C1961 C 0.57335 0.27482 0.39468 0.0
C1962 C 0.58526 0.2913 0.36155 0.0
C1963 C 0.56326 0.28907 0.33041 0.0
C1964 C 0.53757 0.25821 0.31657 0.0
H1965 H 0.10999 0.2763 0.56003 0.0
H1966 H 0.13987 0.36597 0.65259 0.0
H1967 H 0.08999 0.36595 0.63925 0.0
H1968 H 0.02668 0.2913 0.51968 0.0
H1969 H 0.00695 0.24788 0.50394 0.0
H1970 H 0.04419 0.27029 0.48369 0.0
H1971 H 0.06199 0.23156 0.56864 0.0
H1972 H 0.06596 0.23531 0.51283 0.0
H1973 H 0.02807 0.21336 0.53088 0.0
H1974 H 0.05718 0.32616 0.68271 0.0
H1975 H 0.01659 0.282 0.71095 0.0
H1976 H -0.00718 0.22036 0.58395 0.0
C1977 C 0.10612 0.2967 0.57485 0.0
C1978 C 0.12612 0.31887 0.61046 0.0
C1979 C 0.12319 0.34705 0.62783 0.0
C1980 C 0.09519 0.34775 0.61922 0.0
C1981 C 0.07123 0.3195 0.59535 0.0
C1982 C 0.07764 0.2972 0.56601 0.0
C1983 C 0.0474 0.26633 0.55083 0.0
C1984 C 0.03031 0.26917 0.5123 0.0
C1985 C 0.05117 0.23481 0.54032 0.0
C1986 C 0.03047 0.26847 0.59039 0.0
C1987 C 0.04501 0.29921 0.61625 0.0
C1988 C 0.0427 0.30349 0.6609 0.0
C1989 C 0.02109 0.27768 0.67725 0.0
C1990 C 0.00014 0.24966 0.64828 0.0
C1991 C 0.00721 0.24316 0.60567 0.0
H1992 H 0.05787 0.08016 0.08456 0.0
H1993 H 0.02661 0.02915 0.18935 0.0
H1994 H 0.02305 0.97948 0.14195 0.0
H1995 H 0.01154 0.01627 0.99788 0.0
H1996 H 0.04155 0.02464 0.96041 0.0
H1997 H 0.04236 0.05684 1.00243 0.0
H1998 H 0.09867 0.07027 1.02909 0.0
H1999 H 0.09798 0.03818 0.98689 0.0
H2000 H 0.10647 0.0388 1.04231 0.0
H2001 H 0.0205 0.9348 0.08353 0.0
H2002 H 0.0208 0.89757 1.01804 0.0
H2003 H 0.05589 0.97607 0.94891 0.0
C2004 C 0.05049 0.05857 0.09759 0.0
C2005 C 0.04142 0.0584 0.14056 0.0
C2006 C 0.03241 0.02973 0.15633 0.0
C2007 C 0.0307 1.00141 0.12969 0.0
C2008 C 0.03898 1.00213 0.08742 0.0
C2009 C 0.04919 0.03002 0.07145 0.0
C2010 C 0.05695 0.02386 1.02465 0.0
C2011 C 0.03689 0.03081 0.99458 0.0
C2012 C 0.0921 0.04398 1.02051 0.0
C2013 C 0.04822 0.98785 1.01641 0.0
C2014 C 0.03824 0.97613 0.05345 0.0
C2015 C 0.02831 0.94375 0.0544 0.0
C2016 C 0.02829 0.92264 1.01664 0.0
C2017 C 0.03784 0.93352 0.97771 0.0
C2018 C 0.04846 0.96687 0.97793 0.0
H2019 H 0.2391 0.71927 0.37017 0.0
H2020 H 0.22453 0.79542 0.33166 0.0
H2021 H 0.25239 0.79214 0.26813 0.0
H2022 H 0.31383 0.74575 0.34959 0.0
H2023 H 0.3134 0.70737 0.32683 0.0
H2024 H 0.28482 0.70901 0.36328 0.0
H2025 H 0.24045 0.66735 0.30553 0.0
H2026 H 0.26916 0.66609 0.26846 0.0
H2027 H 0.23883 0.67575 0.25281 0.0
H2028 H 0.28893 0.78876 0.2168 0.0
H2029 H 0.33426 0.78608 0.18232 0.0
H2030 H 0.32943 0.71614 0.25688 0.0
C2031 C 0.24123 0.73461 0.34772 0.0
C2032 C 0.22967 0.75771 0.35617 0.0
C2033 C 0.23318 0.77767 0.32638 0.0
C2034 C 0.24864 0.77566 0.28947 0.0
C2035 C 0.26048 0.75336 0.2824 0.0
C2036 C 0.25702 0.73305 0.31047 0.0
C2037 C 0.27627 0.71497 0.29849 0.0
C2038 C 0.29841 0.71962 0.33682 0.0
C2039 C 0.25491 0.6789 0.28025 0.0
C2040 C 0.29379 0.73155 0.26328 0.0
C2041 C 0.28296 0.7521 0.25273 0.0
C2042 C 0.29709 0.77193 0.2236 0.0
C2043 C 0.32307 0.77051 0.2044 0.0
C2044 C 0.33505 0.75017 0.21544 0.0
C2045 C 0.3202 0.73079 0.24567 0.0
H2046 H 0.49336 0.01707 0.48002 0.0
H2047 H 0.51738 0.08711 0.60078 0.0
H2048 H 0.54333 0.05902 0.63041 0.0
H2049 H 0.47984 0.9467 0.53554 0.0
H2050 H 0.4941 0.92788 0.49126 0.0
H2051 H 0.47356 0.9504 0.48137 0.0
H2052 H 0.52051 0.98541 0.44286 0.0
H2053 H 0.54174 0.96385 0.45365 0.0
H2054 H 0.55891 0.00724 0.47128 0.0
H2055 H 0.57599 0.0327 0.64092 0.0
H2056 H 0.59897 0.99548 0.64278 0.0
H2057 H 0.55048 0.93882 0.51798 0.0
C2058 C 0.50275 0.02548 0.51337 0.0
C2059 C 0.5036 0.0541 0.5385 0.0
C2060 C 0.51683 0.06521 0.58147 0.0
C2061 C 0.53178 0.04977 0.59828 0.0
C2062 C 0.53268 0.02306 0.57183 0.0
C2063 C 0.51719 0.00982 0.53114 0.0
C2064 C 0.52171 0.98049 0.51007 0.0
C2065 C 0.49044 0.94954 0.50422 0.0
C2066 C 0.53663 0.98454 0.46693 0.0
C2067 C 0.54397 0.98105 0.54417 0.0
C2068 C 0.55007 0.006 0.57929 0.0
C2069 C 0.57097 0.01259 0.61408 0.0
C2070 C 0.58457 0.9918 0.61433 0.0
C2071 C 0.5769 0.96464 0.58024 0.0
C2072 C 0.5569 0.95963 0.54426 0.0
H2073 H 0.32439 0.26177 0.8962 0.0
H2074 H 0.38601 0.24898 0.80053 0.0
H2075 H 0.35218 0.2503 0.74354 0.0
H2076 H 0.24901 0.21535 0.83145 0.0
H2077 H 0.23555 0.24431 0.85556 0.0
H2078 H 0.26424 0.23916 0.88525 0.0
H2079 H 0.29864 0.30229 0.8937 0.0
H2080 H 0.26983 0.30442 0.86009 0.0
H2081 H 0.3097 0.31854 0.84571 0.0
H2082 H 0.3107 0.25095 0.69618 0.0
H2083 H 0.26694 0.25577 0.66279 0.0
H2084 H 0.23234 0.26966 0.7885 0.0
C2085 C 0.33084 0.25954 0.86327 0.0
C2086 C 0.35799 0.2554 0.85286 0.0
C2087 C 0.3657 0.25268 0.80943 0.0
C2088 C 0.34642 0.25308 0.77674 0.0
C2089 C 0.31964 0.25673 0.78789 0.0
C2090 C 0.31203 0.26042 0.83019 0.0
C2091 C 0.28273 0.2657 0.83352 0.0
C2092 C 0.2564 0.23957 0.85266 0.0
C2093 C 0.2907 0.29976 0.85982 0.0
C2094 C 0.27425 0.26272 0.78631 0.0
C2095 C 0.29602 0.25781 0.76062 0.0
C2096 C 0.29354 0.2548 0.71603 0.0
C2097 C 0.26853 0.2574 0.69729 0.0
C2098 C 0.24608 0.26275 0.72291 0.0
C2099 C 0.24884 0.265 0.76799 0.0
H2100 H 0.73106 0.2109 0.8597 0.0
H2101 H 0.72899 0.29882 0.84121 0.0
H2102 H 0.758 0.29924 0.77832 0.0
H2103 H 0.80856 0.23932 0.84478 0.0
H2104 H 0.80771 0.20157 0.81762 0.0
H2105 H 0.7782 0.20145 0.85347 0.0
H2106 H 0.73629 0.1637 0.79215 0.0
H2107 H 0.76503 0.16509 0.75418 0.0
H2108 H 0.73512 0.1765 0.74231 0.0
H2109 H 0.79536 0.29846 0.7281 0.0
H2110 H 0.84233 0.29754 0.69661 0.0
H2111 H 0.82433 0.2121 0.74673 0.0
C2112 C 0.73603 0.22958 0.84152 0.0
C2113 C 0.72674 0.25422 0.85487 0.0
C2114 C 0.73468 0.27899 0.83124 0.0
C2115 C 0.7512 0.27946 0.79494 0.0
C2116 C 0.76053 0.25537 0.78283 0.0
C2117 C 0.75365 0.23099 0.80549 0.0
C2118 C 0.77229 0.21247 0.79098 0.0
C2119 C 0.79292 0.21382 0.82896 0.0
C2120 C 0.75085 0.17736 0.76854 0.0
C2121 C 0.79176 0.23168 0.75905 0.0
C2122 C 0.78383 0.25559 0.75377 0.0
C2123 C 0.80122 0.27911 0.73054 0.0
C2124 C 0.82789 0.27845 0.71269 0.0
C2125 C 0.83675 0.25452 0.71838 0.0
C2126 C 0.81798 0.23051 0.74108 0.0
H2127 H 0.86622 0.75127 0.31119 0.0
H2128 H 0.82407 0.75716 0.4328 0.0
H2129 H 0.7845 0.76729 0.39857 0.0
H2130 H 0.85151 0.81451 0.2744 0.0
H2131 H 0.84266 0.79326 0.21887 0.0
H2132 H 0.86974 0.78901 0.25313 0.0
H2133 H 0.83628 0.72681 0.23484 0.0
H2134 H 0.80886 0.73083 0.20096 0.0
H2135 H 0.79532 0.70971 0.24447 0.0
H2136 H 0.7481 0.77368 0.35246 0.0
H2137 H 0.71743 0.77923 0.29623 0.0
H2138 H 0.78037 0.76895 0.20168 0.0
C2139 C 0.84911 0.75556 0.33069 0.0
C2140 C 0.84823 0.7535 0.3748 0.0
C2141 C 0.82516 0.7586 0.39909 0.0
C2142 C 0.80255 0.76434 0.37991 0.0
C2143 C 0.80331 0.76519 0.33628 0.0
C2144 C 0.82609 0.76138 0.31185 0.0
C2145 C 0.82041 0.76249 0.26509 0.0
C2146 C 0.84771 0.79154 0.25212 0.0
C2147 C 0.81489 0.73056 0.23454 0.0
C2148 C 0.79065 0.76694 0.26724 0.0
C2149 C 0.78153 0.76852 0.30887 0.0
C2150 C 0.75499 0.77248 0.31974 0.0
C2151 C 0.73745 0.77534 0.28746 0.0
C2152 C 0.74591 0.7738 0.24454 0.0
C2153 C 0.77301 0.7696 0.23417 0.0
H2154 H 0.56489 0.59258 0.58465 0.0
H2155 H 0.52841 0.53828 0.6852 0.0
H2156 H 0.52319 0.48884 0.63601 0.0
H2157 H 0.51693 0.5281 0.49326 0.0
H2158 H 0.54824 0.53848 0.45782 0.0
H2159 H 0.5473 0.56904 0.50117 0.0
H2160 H 0.60406 0.58162 0.52885 0.0
H2161 H 0.60317 0.55052 0.48493 0.0
H2162 H 0.61085 0.54898 0.53974 0.0
H2163 H 0.52106 0.44574 0.57874 0.0
H2164 H 0.52319 0.40888 0.51546 0.0
H2165 H 0.56226 0.48756 0.44614 0.0
C2166 C 0.55603 0.57023 0.59619 0.0
C2167 C 0.54603 0.56911 0.6387 0.0
C2168 C 0.53479 0.53952 0.65254 0.0
C2169 C 0.53218 0.51133 0.62488 0.0
C2170 C 0.54147 0.51292 0.58323 0.0
C2171 C 0.55342 0.54144 0.56863 0.0
C2172 C 0.56176 0.53552 0.52188 0.0
C2173 C 0.54242 0.54325 0.49172 0.0
C2174 C 0.59706 0.55532 0.51866 0.0
C2175 C 0.55233 0.4992 0.51281 0.0
C2176 C 0.54078 0.48719 0.54915 0.0
C2177 C 0.53018 0.45483 0.55012 0.0
C2178 C 0.53145 0.43393 0.51332 0.0
C2179 C 0.54313 0.44482 0.4749 0.0
C2180 C 0.55359 0.47821 0.47473 0.0
H2181 H 0.00386 0.52056 0.97553 0.0
H2182 H -0.00271 0.57262 0.10123 0.0
H2183 H 0.02389 0.54789 0.13602 0.0
H2184 H -0.00822 0.44635 1.00754 0.0
H2185 H 0.02102 0.44096 0.97511 0.0
H2186 H 0.0001 0.46108 0.95805 0.0
H2187 H 0.05244 0.51024 0.95379 0.0
H2188 H 0.07362 0.4901 0.97 0.0
H2189 H 0.08059 0.52955 1.00006 0.0
H2190 H 0.0557 0.52274 0.15686 0.0
H2191 H 0.08122 0.48846 0.16459 0.0
H2192 H 0.065 0.44947 1.02658 0.0
C2193 C 0.00726 0.52598 1.01037 0.0
C2194 C -0.00142 0.54847 1.03577 0.0
C2195 C 0.00377 0.55535 0.08128 0.0
C2196 C 0.01913 0.54172 0.10133 0.0
C2197 C 0.02901 0.52109 0.07541 0.0
C2198 C 0.02276 0.51259 1.03109 0.0
C2199 C 0.03632 0.48994 1.01121 0.0
C2200 C 0.01064 0.45765 0.98649 0.0
C2201 C 0.06228 0.50592 0.98205 0.0
C2202 C 0.04978 0.48593 0.05142 0.0
C2203 C 0.04628 0.50515 0.08787 0.0
C2204 C 0.05805 0.50702 0.12871 0.0
C2205 C 0.0726 0.48756 0.13273 0.0
C2206 C 0.0744 0.46585 0.0963 0.0
C2207 C 0.06338 0.46549 0.05501 0.0
H2208 H 0.10354 0.21358 0.33485 0.0
H2209 H 0.03524 0.12662 0.37198 0.0
H2210 H 0.05897 0.14852 0.4468 0.0
H2211 H 0.17065 0.22457 0.40193 0.0
H2212 H 0.18767 0.26763 0.4228 0.0
H2213 H 0.16637 0.25116 0.37093 0.0
H2214 H 0.12733 0.27298 0.38799 0.0
H2215 H 0.14977 0.29437 0.4391 0.0
H2216 H 0.10831 0.26862 0.43751 0.0
H2217 H 0.08498 0.18481 0.52234 0.0
H2218 H 0.1185 0.22645 0.58456 0.0
H2219 H 0.18056 0.28198 0.5032 0.0
C2220 C 0.09461 0.1982 0.35792 0.0
C2221 C 0.0679 0.16672 0.34518 0.0
C2222 C 0.05596 0.14974 0.37896 0.0
C2223 C 0.06927 0.16232 0.42228 0.0
C2224 C 0.09544 0.19261 0.43339 0.0
C2225 C 0.10856 0.21025 0.40205 0.0
C2226 C 0.13679 0.2425 0.42409 0.0
C2227 C 0.1672 0.24657 0.40366 0.0
C2228 C 0.13016 0.27133 0.42204 0.0
C2229 C 0.13857 0.23906 0.47133 0.0
C2230 C 0.11335 0.21076 0.47609 0.0
C2231 C 0.10655 0.20496 0.51756 0.0
C2232 C 0.12669 0.22727 0.55376 0.0
C2233 C 0.15539 0.25368 0.55078 0.0
C2234 C 0.16045 0.26039 0.50792 0.0
H2235 H 0.16476 0.79588 0.55398 0.0
H2236 H 0.24188 0.86247 0.49593 0.0
H2237 H 0.24333 0.90863 0.55106 0.0
H2238 H 0.12624 0.8395 0.60113 0.0
H2239 H 0.12463 0.83039 0.65406 0.0
H2240 H 0.12491 0.80177 0.60796 0.0
H2241 H 0.17331 0.79971 0.63576 0.0
H2242 H 0.17288 0.82542 0.68555 0.0
H2243 H 0.20783 0.83674 0.65691 0.0
H2244 H 0.23402 0.947 0.61466 0.0
H2245 H 0.22357 0.9722 0.6858 0.0
H2246 H 0.16488 0.87633 0.70918 0.0
C2247 C 0.18129 0.82034 0.55216 0.0
C2248 C 0.20128 0.82645 0.51862 0.0
C2249 C 0.22446 0.85813 0.51907 0.0
C2250 C 0.22576 0.8842 0.55074 0.0
C2251 C 0.20527 0.87737 0.58334 0.0
C2252 C 0.18455 0.84589 0.58513 0.0
C2253 C 0.17041 0.84361 0.62777 0.0
C2254 C 0.13441 0.82797 0.62229 0.0
C2255 C 0.18179 0.8253 0.65298 0.0
C2256 C 0.18433 0.87898 0.64848 0.0
C2257 C 0.20417 0.89833 0.62262 0.0
C2258 C 0.2189 0.93202 0.63548 0.0
C2259 C 0.21302 0.9461 0.6759 0.0
C2260 C 0.19301 0.9263 0.70281 0.0
C2261 C 0.17938 0.89237 0.68897 0.0
H2262 H 0.46648 0.81109 0.87891 0.0
H2263 H 0.52196 0.90081 0.96926 0.0
H2264 H 0.55175 0.92432 0.91002 0.0
H2265 H 0.53082 0.81366 0.81927 0.0
H2266 H 0.50833 0.7967 0.76765 0.0
H2267 H 0.48937 0.78671 0.81558 0.0
H2268 H 0.44989 0.80743 0.79838 0.0
H2269 H 0.46777 0.81278 0.74844 0.0
H2270 H 0.46448 0.8462 0.7833 0.0
H2271 H 0.57476 0.93961 0.83695 0.0
H2272 H 0.59465 0.94128 0.76472 0.0
H2273 H 0.53048 0.84004 0.72098 0.0
C2274 C 0.48524 0.8355 0.88656 0.0
C2275 C 0.49181 0.85347 0.9301 0.0
C2276 C 0.5164 0.88578 0.93711 0.0
C2277 C 0.53333 0.89971 0.90313 0.0
C2278 C 0.52591 0.88158 0.86076 0.0
C2279 C 0.5026 0.85008 0.85265 0.0
C2280 C 0.50104 0.835 0.805 0.0
C2281 C 0.50783 0.80617 0.80186 0.0
C2282 C 0.46884 0.82482 0.78248 0.0
C2283 C 0.52717 0.86234 0.78693 0.0
C2284 C 0.54048 0.88949 0.81981 0.0
C2285 C 0.56436 0.9182 0.81143 0.0
C2286 C 0.57552 0.91902 0.76962 0.0
C2287 C 0.56393 0.89136 0.73515 0.0
C2288 C 0.53922 0.86237 0.74483 0.0
H2289 H 0.39923 0.11421 0.28233 0.0
H2290 H 0.41298 0.03753 0.19966 0.0
H2291 H 0.40969 0.05936 0.13605 0.0
H2292 H 0.3399 0.10437 0.21998 0.0
H2293 H 0.34692 0.14606 0.23002 0.0
H2294 H 0.361 0.13183 0.26938 0.0
H2295 H 0.41497 0.17683 0.26713 0.0
H2296 H 0.40425 0.19098 0.2245 0.0
H2297 H 0.4354 0.17906 0.21839 0.0
H2298 H 0.39103 0.08076 0.08104 0.0
H2299 H 0.36049 0.09994 1.04194 0.0
H2300 H 0.35899 0.16233 0.16104 0.0
C2301 C 0.40355 0.10328 0.25118 0.0
C2302 C 0.40672 0.07455 0.24583 0.0
C2303 C 0.41079 0.05983 0.20432 0.0
C2304 C 0.409 0.07211 0.16805 0.0
C2305 C 0.40329 0.09916 0.17399 0.0
C2306 C 0.4011 0.11484 0.21479 0.0
C2307 C 0.38826 0.13865 0.21241 0.0
C2308 C 0.3572 0.12966 0.2342 0.0
C2309 C 0.41228 0.17348 0.23167 0.0
C2310 C 0.38291 0.13354 0.16433 0.0
C2311 C 0.39192 0.11098 0.14235 0.0
C2312 C 0.38479 0.09916 0.09793 0.0
C2313 C 0.3674 0.11016 0.07596 0.0
C2314 C 0.35713 0.13242 0.09867 0.0
C2315 C 0.36629 0.14512 0.14291 0.0
H2316 H 0.94017 0.79336 0.55503 0.0
H2317 H 0.8988 0.69575 0.57561 0.0
H2318 H 0.92468 0.71621 0.64868 0.0
H2319 H 0.0193 0.81551 0.61965 0.0
H2320 H 0.02549 0.85701 0.63335 0.0
H2321 H 0.00427 0.83094 0.58348 0.0
H2322 H 0.95935 0.84768 0.60671 0.0
H2323 H 0.98057 0.86975 0.65826 0.0
H2324 H 0.94147 0.8374 0.65555 0.0
H2325 H 0.95943 0.74752 0.72044 0.0
H2326 H -0.00636 0.78556 0.78204 0.0
H2327 H 0.01489 0.86493 0.71841 0.0
C2328 C 0.93836 0.77567 0.5722 0.0
C2329 C 0.91866 0.74193 0.55513 0.0
C2330 C 0.91412 0.72141 0.58504 0.0
C2331 C 0.92899 0.73289 0.62746 0.0
C2332 C 0.94909 0.76575 0.64169 0.0
C2333 C 0.95407 0.78691 0.61478 0.0
C2334 C 0.97738 0.82122 0.63849 0.0
C2335 C 0.00857 0.83195 0.61763 0.0
C2336 C 0.96387 0.84545 0.63982 0.0
C2337 C 0.98248 0.81656 0.68357 0.0
C2338 C 0.96686 0.78403 0.68405 0.0
C2339 C 0.97089 0.77309 0.72017 0.0
C2340 C 0.99076 0.79557 0.75621 0.0
C2341 C 0.00623 0.82954 0.75842 0.0
C2342 C 0.0024 0.83967 0.72009 0.0
H2343 H 0.87424 0.20211 0.53017 0.0
H2344 H 0.90615 0.17223 0.6317 0.0
H2345 H 0.92474 0.14067 0.58064 0.0
H2346 H 0.85239 0.13353 0.44572 0.0
H2347 H 0.87054 0.15653 0.40518 0.0
H2348 H 0.85698 0.17421 0.45132 0.0
H2349 H 0.91247 0.22238 0.46753 0.0
H2350 H 0.92662 0.20407 0.42244 0.0
H2351 H 0.94569 0.21502 0.47576 0.0
H2352 H 0.94113 0.11443 0.52099 0.0
H2353 H 0.94439 0.08328 0.45081 0.0
H2354 H 0.90849 0.13441 0.38524 0.0
C2355 C 0.88409 0.18796 0.54154 0.0
C2356 C 0.88718 0.18809 0.58594 0.0
C2357 C 0.90116 0.1702 0.59881 0.0
C2358 C 0.91321 0.15348 0.56967 0.0
C2359 C 0.91205 0.15594 0.52717 0.0
C2360 C 0.89758 0.17227 0.51263 0.0
C2361 C 0.90042 0.17137 0.46492 0.0
C2362 C 0.86815 0.15806 0.44036 0.0
C2363 C 0.92261 0.2052 0.4572 0.0
C2364 C 0.91524 0.14849 0.45462 0.0
C2365 C 0.92339 0.1417 0.49174 0.0
C2366 C 0.93529 0.11959 0.49146 0.0
C2367 C 0.93696 0.10202 0.45182 0.0
C2368 C 0.92654 0.10678 0.41377 0.0
C2369 C 0.91685 0.13107 0.41457 0.0
H2370 H 0.6129 0.19765 0.22018 0.0
H2371 H 0.54893 0.11565 0.12489 0.0
H2372 H 0.51653 0.09261 0.18279 0.0
H2373 H 0.6093 0.15401 0.30474 0.0
H2374 H 0.61223 0.18828 0.34487 0.0
H2375 H 0.6283 0.19442 0.29427 0.0
H2376 H 0.59619 0.22581 0.29435 0.0
H2377 H 0.57502 0.21341 0.34026 0.0
H2378 H 0.55432 0.20458 0.2884 0.0
H2379 H 0.49292 0.07581 0.25396 0.0
H2380 H 0.47794 0.0693 0.32724 0.0
H2381 H 0.55382 0.1639 0.3789 0.0
C2382 C 0.59141 0.17545 0.21125 0.0
C2383 C 0.58313 0.15931 0.16691 0.0
C2384 C 0.55546 0.12941 0.15777 0.0
C2385 C 0.537 0.11583 0.19087 0.0
C2386 C 0.54604 0.13211 0.23408 0.0
C2387 C 0.57236 0.1616 0.24416 0.0
C2388 C 0.57715 0.17395 0.29317 0.0
C2389 C 0.60869 0.17775 0.31011 0.0
C2390 C 0.57551 0.20633 0.30484 0.0
C2391 C 0.54971 0.14678 0.30964 0.0
C2392 C 0.53227 0.12276 0.27467 0.0
C2393 C 0.50647 0.09481 0.28122 0.0
C2394 C 0.4981 0.09129 0.32373 0.0
C2395 C 0.51463 0.11555 0.36107 0.0
C2396 C 0.54116 0.14376 0.35292 0.0
H2397 H 0.66517 0.90729 0.83117 0.0
H2398 H 0.72479 0.00613 0.89685 0.0
H2399 H 0.74537 0.9862 0.94936 0.0
H2400 H 0.64609 0.87442 0.92726 0.0
H2401 H 0.64625 0.83678 0.9022 0.0
H2402 H 0.63648 0.85909 0.87 0.0
H2403 H 0.68047 0.85946 0.82043 0.0
H2404 H 0.69001 0.83713 0.85307 0.0
H2405 H 0.71988 0.87509 0.84401 0.0
H2406 H 0.75946 0.95554 0.99487 0.0
H2407 H 0.76819 0.91635 1.02761 0.0
H2408 H 0.69908 0.83747 0.93298 0.0
C2409 C 0.68281 0.92468 0.85634 0.0
C2410 C 0.69335 0.95824 0.86006 0.0
C2411 C 0.71618 0.98029 0.89373 0.0
C2412 C 0.72801 0.96922 0.92368 0.0
C2413 C 0.71673 0.93598 0.91967 0.0
C2414 C 0.69478 0.91403 0.88674 0.0
C2415 C 0.68651 0.8796 0.88988 0.0
C2416 C 0.65176 0.86142 0.89783 0.0
C2417 C 0.69471 0.86177 0.84941 0.0
C2418 C 0.70775 0.88563 0.92909 0.0
C2419 C 0.72474 0.91832 0.94605 0.0
C2420 C 0.74623 0.92985 0.98192 0.0
C2421 C 0.75092 0.90739 1.00045 0.0
C2422 C 0.73441 0.87376 0.9829 0.0
C2423 C 0.71228 0.86291 0.94702 0.0
H2424 H 0.6007 0.71732 0.84037 0.0
H2425 H 0.55492 0.62332 0.87449 0.0
H2426 H 0.57711 0.64843 0.94908 0.0
H2427 H 0.67313 0.74288 0.90331 0.0
H2428 H 0.68356 0.78345 0.93171 0.0
H2429 H 0.6633 0.76974 0.87969 0.0
H2430 H 0.61764 0.77762 0.8961 0.0
H2431 H 0.63443 0.79785 0.95022 0.0
H2432 H 0.59575 0.76435 0.94127 0.0
H2433 H 0.59196 0.68746 1.02492 0.0
H2434 H 0.61882 0.73263 0.0878 0.0
H2435 H 0.67451 0.79487 1.00936 0.0
C2436 C 0.59655 0.70149 0.8624 0.0
C2437 C 0.5758 0.66719 0.84903 0.0
C2438 C 0.5703 0.64907 0.88194 0.0
C2439 C 0.58276 0.66332 0.92521 0.0
C2440 C 0.60222 0.69651 0.93707 0.0
C2441 C 0.61051 0.71542 0.90645 0.0
C2442 C 0.63383 0.75046 0.92947 0.0
C2443 C 0.66533 0.76216 0.9097 0.0
C2444 C 0.6195 0.77391 0.92921 0.0
C2445 C 0.63816 0.74743 0.97611 0.0
C2446 C 0.61779 0.71652 0.97998 0.0
C2447 C 0.61117 0.70999 1.02101 0.0
C2448 C 0.62785 0.73442 0.05759 0.0
C2449 C 0.65373 0.76364 0.05556 0.0
C2450 C 0.6575 0.77117 1.01325 0.0
H2451 H 0.68998 0.39305 0.2209 0.0
H2452 H 0.62666 0.41817 0.15792 0.0
H2453 H 0.62849 0.38452 0.08906 0.0
H2454 H 0.73961 0.39543 0.14339 0.0
H2455 H 0.74363 0.35938 0.14511 0.0
H2456 H 0.73367 0.38007 0.19233 0.0
H2457 H 0.68352 0.32795 0.19672 0.0
H2458 H 0.69411 0.30672 0.15061 0.0
H2459 H 0.65624 0.3063 0.14977 0.0
H2460 H 0.6407 0.35494 1.02835 0.0
H2461 H 0.65632 0.32088 0.97672 0.0
H2462 H 0.71528 0.31631 0.07296 0.0
C2463 C 0.67594 0.39048 0.19263 0.0
C2464 C 0.65828 0.40796 0.19374 0.0
C2465 C 0.64016 0.40469 0.15691 0.0
C2466 C 0.6411 0.38577 0.11795 0.0
C2467 C 0.65997 0.37015 0.11706 0.0
C2468 C 0.67625 0.37113 0.15333 0.0
C2469 C 0.69514 0.3522 0.142 0.0
C2470 C 0.7301 0.37306 0.15657 0.0
C2471 C 0.68144 0.32149 0.1609 0.0
C2472 C 0.68932 0.34357 0.09329 0.0
C2473 C 0.66834 0.35365 0.0804 0.0
C2474 C 0.65763 0.34747 1.03794 0.0
C2475 C 0.6675 0.3291 1.00792 0.0
C2476 C 0.68863 0.31806 1.01895 0.0
C2477 C 0.70021 0.32578 0.06266 0.0
H2478 H 0.03714 0.34763 0.22041 0.0
H2479 H 0.1049 0.44506 0.28066 0.0
H2480 H 0.08523 0.43594 0.35056 0.0
H2481 H 0.97415 0.35033 0.28801 0.0
H2482 H 0.95719 0.30982 0.29806 0.0
H2483 H 0.97528 0.31745 0.24894 0.0
H2484 H 0.0346 0.30715 0.31174 0.0
H2485 H 0.01608 0.29761 0.25816 0.0
H2486 H -0.00682 0.2827 0.30172 0.0
H2487 H 0.06117 0.41642 0.41781 0.0
H2488 H 0.02842 0.39084 0.47351 0.0
H2489 H 0.97055 0.30718 0.37524 0.0
C2490 C 0.04677 0.36779 0.24745 0.0
C2491 C 0.07301 0.39767 0.24265 0.0
C2492 C 0.08541 0.42183 0.28142 0.0
C2493 C 0.07435 0.41687 0.32223 0.0
C2494 C 0.04975 0.38736 0.32596 0.0
C2495 C 0.03541 0.36326 0.28961 0.0
C2496 C 0.00846 0.33421 0.30414 0.0
C2497 C 0.97683 0.3277 0.28366 0.0
C2498 C 0.01344 0.30365 0.29318 0.0
C2499 C 0.01039 0.34578 0.35345 0.0
C2500 C 0.03486 0.37645 0.36514 0.0
C2501 C 0.04196 0.39236 0.40859 0.0
C2502 C 0.02332 0.3773 0.44049 0.0
C2503 C -0.00288 0.34621 0.43013 0.0
C2504 C 0.99085 0.33034 0.38533 0.0
H2505 H 0.90724 0.55183 0.69719 0.0
H2506 H 0.89495 0.61002 0.81344 0.0
H2507 H 0.89161 0.64658 0.77091 0.0
H2508 H 0.94484 0.61932 0.63295 0.0
H2509 H 0.9223 0.59193 0.58434 0.0
H2510 H 0.93534 0.57702 0.62441 0.0
H2511 H 0.87815 0.53482 0.62815 0.0
H2512 H 0.86494 0.54948 0.58843 0.0
H2513 H 0.84844 0.54836 0.63997 0.0
H2514 H 0.8775 0.66935 0.71716 0.0
H2515 H 0.84773 0.6721 0.65658 0.0
H2516 H 0.864 0.59737 0.57321 0.0
C2517 C 0.90466 0.57273 0.71399 0.0
C2518 C 0.90141 0.57778 0.75892 0.0
C2519 C 0.89828 0.60566 0.77939 0.0
C2520 C 0.8964 0.6268 0.75538 0.0
C2521 C 0.89792 0.62009 0.71088 0.0
C2522 C 0.90197 0.59365 0.69027 0.0
C2523 C 0.89594 0.58767 0.64176 0.0
C2524 C 0.92642 0.5944 0.61955 0.0
C2525 C 0.87034 0.55306 0.62356 0.0
C2526 C 0.88495 0.61293 0.6387 0.0
C2527 C 0.88785 0.63241 0.67881 0.0
C2528 C 0.87571 0.65476 0.68548 0.0
C2529 C 0.85871 0.65606 0.65101 0.0
C2530 C 0.85376 0.63497 0.61051 0.0
C2531 C 0.8682 0.61421 0.60372 0.0
H2532 H 0.5172 0.37097 0.22763 0.0
H2533 H 0.50258 0.29039 0.28595 0.0
H2534 H 0.46997 0.25247 0.22178 0.0
H2535 H 0.43695 0.33404 0.17183 0.0
H2536 H 0.45123 0.35099 0.12504 0.0
H2537 H 0.47224 0.37157 0.17723 0.0
H2538 H 0.52282 0.37072 0.14715 0.0
H2539 H 0.50072 0.35034 0.09615 0.0
H2540 H 0.52131 0.33257 0.11971 0.0
H2541 H 0.43806 0.22144 0.14609 0.0
H2542 H 0.41177 0.20237 0.07328 0.0
H2543 H 0.44193 0.30136 0.06218 0.0
C2544 C 0.50663 0.34537 0.22754 0.0
C2545 C 0.51299 0.33471 0.2641 0.0
C2546 C 0.49889 0.3005 0.26038 0.0
C2547 C 0.47981 0.27823 0.22314 0.0
C2548 C 0.47423 0.28966 0.18808 0.0
C2549 C 0.48685 0.32256 0.19045 0.0
C2550 C 0.47788 0.32853 0.14792 0.0
C2551 C 0.45842 0.34742 0.15599 0.0
C2552 C 0.50766 0.34668 0.12659 0.0
C2553 C 0.45831 0.29413 0.12069 0.0
C2554 C 0.45673 0.27208 0.14481 0.0
C2555 C 0.43994 0.23897 0.12726 0.0
C2556 C 0.42501 0.22825 0.08477 0.0
C2557 C 0.42646 0.24967 0.05747 0.0
C2558 C 0.44275 0.28354 0.07766 0.0
H2559 H 0.41561 0.70871 0.05283 0.0
H2560 H 0.33016 0.64493 0.09957 0.0
H2561 H 0.3285 0.59827 1.04538 0.0
H2562 H 0.37991 0.67288 0.94553 0.0
H2563 H 0.41696 0.68223 0.92261 0.0
H2564 H 0.41481 0.70774 0.97147 0.0
H2565 H 0.45738 0.6999 1.0091 0.0
H2566 H 0.4595 0.6734 0.9614 0.0
H2567 H 0.45159 0.65979 1.01163 0.0
H2568 H 0.33854 0.55911 0.98421 0.0
H2569 H 0.3513 0.5337 0.91519 0.0
H2570 H 0.42023 0.6289 0.90043 0.0
C2571 C 0.39725 0.6846 0.05268 0.0
C2572 C 0.37491 0.67919 0.08327 0.0
C2573 C 0.34929 0.64837 0.07948 0.0
C2574 C 0.3479 0.6221 1.04816 0.0
C2575 C 0.37099 0.62817 1.01893 0.0
C2576 C 0.39422 0.65913 1.01989 0.0
C2577 C 0.41184 0.66137 0.98007 0.0
C2578 C 0.40549 0.68227 0.95336 0.0
C2579 C 0.44717 0.67432 0.99126 0.0
C2580 C 0.39658 0.62626 0.95784 0.0
C2581 C 0.37327 0.60724 0.98056 0.0
C2582 C 0.35646 0.57383 0.9658 0.0
C2583 C 0.3637 0.55965 0.92658 0.0
C2584 C 0.38714 0.57912 0.90263 0.0
C2585 C 0.40309 0.61289 0.91845 0.0
H2586 H 0.11916 0.69131 0.7231 0.0
H2587 H 0.04668 0.62362 0.62409 0.0
H2588 H 0.01311 0.5992 0.68048 0.0
H2589 H 0.10601 0.63491 0.79385 0.0
H2590 H 0.11565 0.66677 0.84079 0.0
H2591 H 0.13201 0.67627 0.79138 0.0
H2592 H 0.11073 0.71806 0.80141 0.0
H2593 H 0.09028 0.70604 0.84796 0.0
H2594 H 0.06922 0.70475 0.80007 0.0
H2595 H 0.98778 0.57982 0.75092 0.0
H2596 H 0.9703 0.57416 0.82363 0.0
H2597 H 0.05532 0.65901 0.87826 0.0
C2598 C 0.09578 0.67207 0.7132 0.0
C2599 C 0.08553 0.66048 0.66828 0.0
C2600 C 0.05509 0.6341 0.65768 0.0
C2601 C 0.03591 0.6196 0.68986 0.0
C2602 C 0.04704 0.63125 0.7336 0.0
C2603 C 0.07604 0.65749 0.74513 0.0
C2604 C 0.08256 0.66576 0.79422 0.0
C2605 C 0.11074 0.66055 0.80564 0.0
C2606 C 0.08856 0.70075 0.81214 0.0
C2607 C 0.05227 0.64112 0.8094 0.0
C2608 C 0.03259 0.62061 0.77347 0.0
C2609 C 0.00329 0.596 0.77883 0.0
C2610 C -0.00662 0.59299 0.82098 0.0
C2611 C 0.01156 0.61486 0.85912 0.0
C2612 C 0.04173 0.63945 0.8522 0.0
H2613 H 0.21765 0.43476 0.32222 0.0
H2614 H 0.1371 0.43699 0.38479 0.0
H2615 H 0.14566 0.41034 0.43999 0.0
H2616 H 0.21051 0.3574 0.3476 0.0
H2617 H 0.25248 0.3742 0.35681 0.0
H2618 H 0.23572 0.38668 0.31777 0.0
H2619 H 0.26794 0.44658 0.35702 0.0
H2620 H 0.28441 0.43442 0.39648 0.0
H2621 H 0.26393 0.45838 0.4135 0.0
H2622 H 0.16935 0.39395 0.49481 0.0
H2623 H 0.20476 0.38782 0.5437 0.0
H2624 H 0.26838 0.39368 0.44261 0.0
C2625 C 0.20098 0.42835 0.34645 0.0
C2626 C 0.17657 0.43749 0.34923 0.0
C2627 C 0.15594 0.43002 0.38233 0.0
C2628 C 0.1605 0.41473 0.41349 0.0
C2629 C 0.18566 0.40709 0.41069 0.0
C2630 C 0.20535 0.4134 0.37768 0.0
C2631 C 0.23321 0.40733 0.38494 0.0
C2632 C 0.23294 0.37974 0.34968 0.0
C2633 C 0.26417 0.43852 0.38818 0.0
C2634 C 0.22672 0.3975 0.42786 0.0
C2635 C 0.19911 0.39723 0.44213 0.0
C2636 C 0.19046 0.393 0.4834 0.0
C2637 C 0.21078 0.38941 0.51091 0.0
C2638 C 0.23936 0.3899 0.49689 0.0
C2639 C 0.24682 0.39319 0.45441 0.0
loop_
_geom_bond_atom_site_label_1
_geom_bond_atom_site_label_2
_geom_bond_distance
_geom_bond_site_symmetry_2
_ccdc_geom_bond_type
Gd0 N31 2.661 . S
Gd0 N37 2.601 . S
Gd0 O44 2.545 . S
Gd0 O45 2.606 1_655 S
Gd0 O47 2.429 . S
Gd0 O48 2.545 1_655 S
Gd0 O49 2.412 . S
Gd0 O51 2.362 . S
Gd0 O52 2.324 1_655 S
Gd0 C59 2.828 . S
Gd1 N10 2.661 . S
Gd1 N14 2.601 . S
Gd1 O45 2.362 . S
Gd1 O46 2.324 . S
Gd1 O50 2.545 . S
Gd1 O51 2.606 1_455 S
Gd1 O53 2.429 . S
Gd1 O54 2.545 . S
Gd1 O55 2.412 . S
Gd1 C68 2.828 . S
C2 C5 1.417 . S
C2 C7 1.431 . S
C2 C8 1.412 . S
C3 C6 1.437 . S
C3 C7 1.317 . S
C3 H22 0.929 . S
C4 C5 1.426 . S
C4 C6 1.413 . S
C4 N14 1.359 . S
C5 C2 1.417 . S
C5 C4 1.426 . S
C5 N10 1.350 . S
C6 C3 1.437 . S
C6 C4 1.413 . S
C6 C16 1.391 . S
C7 C2 1.431 . S
C7 C3 1.317 . S
C7 H18 0.930 . S
C8 C2 1.412 . S
C8 C9 1.355 . S
C8 H20 0.930 . S
C9 C8 1.355 . S
C9 C11 1.402 . S
C9 H21 0.930 . S
N10 Gd1 2.661 . S
N10 C5 1.350 . S
N10 C11 1.307 . S
C11 C9 1.402 . S
C11 N10 1.307 . S
C11 H12 0.930 . S
H12 C11 0.930 . S
C13 N14 1.334 . S
C13 C15 1.394 . S
C13 H17 0.930 . S
N14 Gd1 2.601 . S
N14 C4 1.359 . S
N14 C13 1.334 . S
C15 C13 1.394 . S
C15 C16 1.359 . S
C15 H27 0.930 . S
C16 C6 1.391 . S
C16 C15 1.359 . S
C16 H28 0.929 . S
H17 C13 0.930 . S
H18 C7 0.930 . S
H19 C36 0.930 . S
H20 C8 0.930 . S
H21 C9 0.930 . S
H22 C3 0.929 . S
H23 C41 0.930 . S
H24 C32 0.930 . S
H25 C33 0.930 . S
H26 C57 0.929 . S
H27 C15 0.930 . S
H28 C16 0.929 . S
H29 C58 0.930 . S
H30 C39 0.930 . S
N31 Gd0 2.661 . S
N31 C35 1.350 . S
N31 C36 1.307 . S
C32 H24 0.930 . S
C32 C33 1.355 . S
C32 C34 1.412 . S
C33 H25 0.930 . S
C33 C32 1.355 . S
C33 C36 1.402 . S
C34 C32 1.412 . S
C34 C35 1.417 . S
C34 C58 1.431 . S
C35 N31 1.350 . S
C35 C34 1.417 . S
C35 C38 1.426 . S
C36 H19 0.930 . S
C36 N31 1.307 . S
C36 C33 1.402 . S
N37 Gd0 2.601 . S
N37 C38 1.359 . S
N37 C41 1.334 . S
C38 C35 1.426 . S
C38 N37 1.359 . S
C38 C42 1.413 . S
C39 H30 0.930 . S
C39 C40 1.359 . S
C39 C41 1.394 1_565 S
C40 C39 1.359 . S
C40 C42 1.391 1_565 S
C40 H43 0.929 . S
C41 H23 0.930 . S
C41 N37 1.334 . S
C41 C39 1.394 1_545 S
C42 C38 1.413 . S
C42 C40 1.391 1_545 S
C42 C57 1.437 . S
H43 C40 0.929 . S
O44 Gd0 2.545 . S
O44 C59 1.258 . S
O45 Gd0 2.606 1_455 S
O45 Gd1 2.362 . S
O45 C56 1.284 . S
O46 Gd1 2.324 . S
O46 C66 1.254 . S
O47 Gd0 2.429 . S
O47 C66 1.268 1_655 S
O48 Gd0 2.545 1_455 S
O48 C56 1.250 . S
O49 Gd0 2.412 . S
O49 C59 1.252 . S
O50 Gd1 2.545 . S
O50 C68 1.258 . S
O51 Gd0 2.362 . S
O51 Gd1 2.606 1_655 S
O51 C67 1.284 . S
O52 Gd0 2.324 1_455 S
O52 C75 1.254 . S
O53 Gd1 2.429 . S
O53 C75 1.268 . S
O54 Gd1 2.545 . S
O54 C67 1.243 1_455 S
O55 Gd1 2.412 . S
O55 C68 1.252 . S
C56 O45 1.284 . S
C56 O48 1.250 . S
C57 H26 0.929 . S
C57 C42 1.437 . S
C57 C58 1.317 . S
C58 H29 0.930 . S
C58 C34 1.431 . S
C58 C57 1.317 . S
C59 Gd0 2.828 . S
C59 O44 1.258 . S
C59 O49 1.252 . S
C59 C60 1.497 . S
C60 C59 1.497 . S
C60 C61 1.395 . S
C60 C62 1.380 . S
C61 C60 1.395 . S
C61 C64 1.398 . S
C61 H76 0.930 . S
C62 C60 1.380 . S
C62 C63 1.391 . S
C62 H77 0.930 . S
C63 C62 1.391 . S
C63 C65 1.387 . S
C64 C61 1.398 . S
C64 C65 1.380 . S
C64 H78 0.930 . S
C65 C63 1.387 . S
C65 C64 1.380 . S
C65 H79 0.930 . S
C66 O46 1.254 . S
C66 O47 1.268 1_455 S
C67 O51 1.284 . S
C67 O54 1.243 1_655 S
C68 Gd1 2.828 . S
C68 O50 1.258 . S
C68 O55 1.252 . S
C68 C69 1.497 . S
C69 C68 1.497 . S
C69 C70 1.395 . S
C69 C71 1.380 1_554 S
C70 C69 1.395 . S
C70 C73 1.398 1_554 S
C70 H80 0.930 . S
C71 C69 1.380 1_556 S
C71 C72 1.391 . S
C71 H81 0.938 . S
C72 C71 1.391 . S
C72 C74 1.387 . S
C73 C70 1.398 1_556 S
C73 C74 1.380 . S
C73 H82 0.930 . S
C74 C72 1.387 . S
C74 C73 1.380 . S
C74 H83 0.930 . S
C75 O52 1.254 . S
C75 O53 1.268 . S
H76 C61 0.930 . S
H77 C62 0.930 . S
H78 C64 0.930 . S
H79 C65 0.930 . S
H80 C70 0.930 . S
H81 C71 0.938 . S
H82 C73 0.930 . S
H83 C74 0.930 . S
Gd84 N115 2.661 . S
Gd84 N121 2.601 . S
Gd84 O128 2.545 . S
Gd84 O129 2.606 . S
Gd84 O131 2.429 . S
Gd84 O132 2.545 . S
Gd84 O133 2.412 . S
Gd84 O135 2.362 . S
Gd84 O136 2.324 . S
Gd84 C143 2.828 . S
Gd85 N94 2.661 . S
Gd85 N98 2.601 . S
Gd85 O129 2.362 . S
Gd85 O130 2.324 . S
Gd85 O134 2.545 . S
Gd85 O135 2.606 . S
Gd85 O137 2.429 . S
Gd85 O138 2.545 . S
Gd85 O139 2.412 . S
Gd85 C152 2.828 . S
C86 C89 1.417 . S
C86 C91 1.431 . S
C86 C92 1.412 . S
C87 C90 1.437 . S
C87 C91 1.317 . S
C87 H106 0.929 . S
C88 C89 1.426 . S
C88 C90 1.413 . S
C88 N98 1.359 . S
C89 C86 1.417 . S
C89 C88 1.426 . S
C89 N94 1.350 . S
C90 C87 1.437 . S
C90 C88 1.413 . S
C90 C100 1.391 . S
C91 C86 1.431 . S
C91 C87 1.317 . S
C91 H102 0.930 . S
C92 C86 1.412 . S
C92 C93 1.355 . S
C92 H104 0.930 . S
C93 C92 1.355 . S
C93 C95 1.402 . S
C93 H105 0.930 . S
N94 Gd85 2.661 . S
N94 C89 1.350 . S
N94 C95 1.307 . S
C95 C93 1.402 . S
C95 N94 1.307 . S
C95 H96 0.930 . S
H96 C95 0.930 . S
C97 N98 1.334 . S
C97 C99 1.394 . S
C97 H101 0.930 . S
N98 Gd85 2.601 . S
N98 C88 1.359 . S
N98 C97 1.334 . S
C99 C97 1.394 . S
C99 C100 1.359 . S
C99 H111 0.930 . S
C100 C90 1.391 . S
C100 C99 1.359 . S
C100 H112 0.929 . S
H101 C97 0.930 . S
H102 C91 0.930 . S
H103 C120 0.930 . S
H104 C92 0.930 . S
H105 C93 0.930 . S
H106 C87 0.929 . S
H107 C125 0.930 . S
H108 C116 0.930 . S
H109 C117 0.930 . S
H110 C141 0.929 . S
H111 C99 0.930 . S
H112 C100 0.929 . S
H113 C142 0.930 . S
H114 C123 0.930 . S
N115 Gd84 2.661 . S
N115 C119 1.350 . S
N115 C120 1.307 . S
C116 H108 0.930 . S
C116 C117 1.355 . S
C116 C118 1.412 . S
C117 H109 0.930 . S
C117 C116 1.355 . S
C117 C120 1.402 . S
C118 C116 1.412 . S
C118 C119 1.417 . S
C118 C142 1.431 . S
C119 N115 1.350 . S
C119 C118 1.417 . S
C119 C122 1.426 . S
C120 H103 0.930 . S
C120 N115 1.307 . S
C120 C117 1.402 . S
N121 Gd84 2.601 . S
N121 C122 1.359 . S
N121 C125 1.334 . S
C122 C119 1.426 . S
C122 N121 1.359 . S
C122 C126 1.413 . S
C123 H114 0.930 . S
C123 C124 1.359 . S
C123 C125 1.394 . S
C124 C123 1.359 . S
C124 C126 1.391 . S
C124 H127 0.929 . S
C125 H107 0.930 . S
C125 N121 1.334 . S
C125 C123 1.394 . S
C126 C122 1.413 . S
C126 C124 1.391 . S
C126 C141 1.437 . S
H127 C124 0.929 . S
O128 Gd84 2.545 . S
O128 C143 1.258 . S
O129 Gd84 2.606 . S
O129 Gd85 2.362 . S
O129 C140 1.284 . S
O130 Gd85 2.324 . S
O130 C150 1.254 . S
O131 Gd84 2.429 . S
O131 C150 1.268 . S
O132 Gd84 2.545 . S
O132 C140 1.250 . S
O133 Gd84 2.412 . S
O133 C143 1.252 . S
O134 Gd85 2.545 . S
O134 C152 1.258 . S
O135 Gd84 2.362 . S
O135 Gd85 2.606 . S
O135 C151 1.284 . S
O136 Gd84 2.324 . S
O136 C159 1.254 . S
O137 Gd85 2.429 . S
O137 C159 1.268 . S
O138 Gd85 2.545 . S
O138 C151 1.250 . S
O139 Gd85 2.412 . S
O139 C152 1.252 . S
C140 O129 1.284 . S
C140 O132 1.250 . S
C141 H110 0.929 . S
C141 C126 1.437 . S
C141 C142 1.317 . S
C142 H113 0.930 . S
C142 C118 1.431 . S
C142 C141 1.317 . S
C143 Gd84 2.828 . S
C143 O128 1.258 . S
C143 O133 1.252 . S
C143 C144 1.497 . S
C144 C143 1.497 . S
C144 C145 1.395 . S
C144 C146 1.380 . S
C145 C144 1.395 . S
C145 C148 1.398 . S
C145 H160 0.930 . S
C146 C144 1.380 . S
C146 C147 1.391 . S
C146 H161 0.930 . S
C147 C146 1.391 . S
C147 C149 1.387 . S
C148 C145 1.398 . S
C148 C149 1.380 . S
C148 H162 0.930 . S
C149 C147 1.387 . S
C149 C148 1.380 . S
C149 H163 0.930 . S
C150 O130 1.254 . S
C150 O131 1.268 . S
C151 O135 1.284 . S
C151 O138 1.250 . S
C152 Gd85 2.828 . S
C152 O134 1.258 . S
C152 O139 1.252 . S
C152 C153 1.497 . S
C153 C152 1.497 . S
C153 C154 1.395 . S
C153 C155 1.380 . S
C154 C153 1.395 . S
C154 C157 1.398 . S
C154 H164 0.930 . S
C155 C153 1.380 . S
C155 C156 1.391 . S
C155 H165 0.930 . S
C156 C155 1.391 . S
C156 C158 1.387 . S
C157 C154 1.398 . S
C157 C158 1.380 . S
C157 H166 0.930 . S
C158 C156 1.387 . S
C158 C157 1.380 . S
C158 H167 0.930 . S
C159 O136 1.254 . S
C159 O137 1.268 . S
H160 C145 0.930 . S
H161 C146 0.930 . S
H162 C148 0.930 . S
H163 C149 0.930 . S
H164 C154 0.930 . S
H165 C155 0.930 . S
H166 C157 0.930 . S
H167 C158 0.930 . S
Gd168 N199 2.661 . S
Gd168 N205 2.601 . S
Gd168 O212 2.545 . S
Gd168 O213 2.606 . S
Gd168 O215 2.429 . S
Gd168 O216 2.545 . S
Gd168 O217 2.412 . S
Gd168 O219 2.362 . S
Gd168 O220 2.324 . S
Gd168 C227 2.828 . S
Gd169 N178 2.661 . S
Gd169 N182 2.601 . S
Gd169 O213 2.362 . S
Gd169 O214 2.324 . S
Gd169 O218 2.545 . S
Gd169 O219 2.606 . S
Gd169 O221 2.429 . S
Gd169 O222 2.545 . S
Gd169 O223 2.412 . S
Gd169 C236 2.828 . S
C170 C173 1.417 . S
C170 C175 1.431 . S
C170 C176 1.412 . S
C171 C174 1.437 . S
C171 C175 1.317 . S
C171 H190 0.929 . S
C172 C173 1.426 . S
C172 C174 1.413 . S
C172 N182 1.359 . S
C173 C170 1.417 . S
C173 C172 1.426 . S
C173 N178 1.350 . S
C174 C171 1.437 . S
C174 C172 1.413 . S
C174 C184 1.391 . S
C175 C170 1.431 . S
C175 C171 1.317 . S
C175 H186 0.930 . S
C176 C170 1.412 . S
C176 C177 1.355 . S
C176 H188 0.930 . S
C177 C176 1.355 . S
C177 C179 1.402 . S
C177 H189 0.930 . S
N178 Gd169 2.661 . S
N178 C173 1.350 . S
N178 C179 1.307 . S
C179 C177 1.402 . S
C179 N178 1.307 . S
C179 H180 0.930 . S
H180 C179 0.930 . S
C181 N182 1.334 . S
C181 C183 1.394 . S
C181 H185 0.930 . S
N182 Gd169 2.601 . S
N182 C172 1.359 . S
N182 C181 1.334 . S
C183 C181 1.394 . S
C183 C184 1.359 . S
C183 H195 0.930 . S
C184 C174 1.391 . S
C184 C183 1.359 . S
C184 H196 0.929 . S
H185 C181 0.930 . S
H186 C175 0.930 . S
H187 C204 0.930 . S
H188 C176 0.930 . S
H189 C177 0.930 . S
H190 C171 0.929 . S
H191 C209 0.930 . S
H192 C200 0.930 . S
H193 C201 0.930 . S
H194 C225 0.929 . S
H195 C183 0.930 . S
H196 C184 0.929 . S
H197 C226 0.930 . S
H198 C207 0.930 . S
N199 Gd168 2.661 . S
N199 C203 1.350 . S
N199 C204 1.307 . S
C200 H192 0.930 . S
C200 C201 1.355 . S
C200 C202 1.412 . S
C201 H193 0.930 . S
C201 C200 1.355 . S
C201 C204 1.402 . S
C202 C200 1.412 . S
C202 C203 1.417 . S
C202 C226 1.431 . S
C203 N199 1.350 . S
C203 C202 1.417 . S
C203 C206 1.426 . S
C204 H187 0.930 . S
C204 N199 1.307 . S
C204 C201 1.402 . S
N205 Gd168 2.601 . S
N205 C206 1.359 . S
N205 C209 1.334 1_565 S
C206 C203 1.426 . S
C206 N205 1.359 . S
C206 C210 1.413 1_565 S
C207 H198 0.930 . S
C207 C208 1.359 . S
C207 C209 1.394 . S
C208 C207 1.359 . S
C208 C210 1.391 . S
C208 H211 0.929 . S
C209 H191 0.930 . S
C209 N205 1.334 1_545 S
C209 C207 1.394 . S
C210 C206 1.413 1_545 S
C210 C208 1.391 . S
C210 C225 1.437 . S
H211 C208 0.929 . S
O212 Gd168 2.545 . S
O212 C227 1.258 . S
O213 Gd168 2.606 . S
O213 Gd169 2.362 . S
O213 C224 1.284 . S
O214 Gd169 2.324 . S
O214 C234 1.254 . S
O215 Gd168 2.429 . S
O215 C234 1.268 . S
O216 Gd168 2.545 . S
O216 C224 1.250 . S
O217 Gd168 2.412 . S
O217 C227 1.252 . S
O218 Gd169 2.545 . S
O218 C236 1.258 . S
O219 Gd168 2.362 . S
O219 Gd169 2.606 . S
O219 C235 1.284 . S
O220 Gd168 2.324 . S
O220 C243 1.254 . S
O221 Gd169 2.429 . S
O221 C243 1.268 . S
O222 Gd169 2.545 . S
O222 C235 1.250 . S
O223 Gd169 2.412 . S
O223 C236 1.252 . S
C224 O213 1.284 . S
C224 O216 1.250 . S
C225 H194 0.929 . S
C225 C210 1.437 . S
C225 C226 1.317 1_545 S
C226 H197 0.930 . S
C226 C202 1.431 . S
C226 C225 1.317 1_565 S
C227 Gd168 2.828 . S
C227 O212 1.258 . S
C227 O217 1.252 . S
C227 C228 1.497 . S
C228 C227 1.497 . S
C228 C229 1.395 1_565 S
C228 C230 1.380 . S
C229 C228 1.395 1_545 S
C229 C232 1.398 . S
C229 H244 0.930 . S
C230 C228 1.380 . S
C230 C231 1.391 . S
C230 H245 0.930 . S
C231 C230 1.391 . S
C231 C233 1.387 . S
C232 C229 1.398 . S
C232 C233 1.380 1_545 S
C232 H246 0.930 . S
C233 C231 1.387 . S
C233 C232 1.380 1_565 S
C233 H247 0.930 . S
C234 O214 1.254 . S
C234 O215 1.268 . S
C235 O219 1.284 . S
C235 O222 1.250 . S
C236 Gd169 2.828 . S
C236 O218 1.258 . S
C236 O223 1.252 . S
C236 C237 1.497 . S
C237 C236 1.497 . S
C237 C238 1.395 . S
C237 C239 1.380 . S
C238 C237 1.395 . S
C238 C241 1.398 . S
C238 H248 0.930 . S
C239 C237 1.380 . S
C239 C240 1.391 . S
C239 H249 0.930 . S
C240 C239 1.391 . S
C240 C242 1.387 . S
C241 C238 1.398 . S
C241 C242 1.380 . S
C241 H250 0.930 . S
C242 C240 1.387 . S
C242 C241 1.380 . S
C242 H251 0.930 . S
C243 O220 1.254 . S
C243 O221 1.268 . S
H244 C229 0.930 . S
H245 C230 0.930 . S
H246 C232 0.930 . S
H247 C233 0.930 . S
H248 C238 0.930 . S
H249 C239 0.930 . S
H250 C241 0.930 . S
H251 C242 0.930 . S
Gd252 N283 2.661 . S
Gd252 N289 2.601 . S
Gd252 O296 2.545 . S
Gd252 O297 2.606 . S
Gd252 O299 2.429 . S
Gd252 O300 2.545 . S
Gd252 O301 2.412 . S
Gd252 O303 2.362 . S
Gd252 O304 2.324 . S
Gd252 C311 2.828 . S
Gd253 N262 2.661 . S
Gd253 N266 2.601 . S
Gd253 O297 2.362 . S
Gd253 O298 2.324 . S
Gd253 O302 2.545 . S
Gd253 O303 2.606 . S
Gd253 O305 2.429 . S
Gd253 O306 2.545 . S
Gd253 O307 2.412 . S
Gd253 C320 2.828 . S
C254 C257 1.417 . S
C254 C259 1.431 . S
C254 C260 1.412 . S
C255 C258 1.437 . S
C255 C259 1.317 . S
C255 H274 0.929 . S
C256 C257 1.426 . S
C256 C258 1.413 . S
C256 N266 1.359 . S
C257 C254 1.417 . S
C257 C256 1.426 . S
C257 N262 1.350 . S
C258 C255 1.437 . S
C258 C256 1.413 . S
C258 C268 1.391 . S
C259 C254 1.431 . S
C259 C255 1.317 . S
C259 H270 0.930 . S
C260 C254 1.412 . S
C260 C261 1.355 . S
C260 H272 0.930 . S
C261 C260 1.355 . S
C261 C263 1.402 . S
C261 H273 0.930 . S
N262 Gd253 2.661 . S
N262 C257 1.350 . S
N262 C263 1.307 . S
C263 C261 1.402 . S
C263 N262 1.307 . S
C263 H264 0.930 . S
H264 C263 0.930 . S
C265 N266 1.334 . S
C265 C267 1.394 . S
C265 H269 0.930 . S
N266 Gd253 2.601 . S
N266 C256 1.359 . S
N266 C265 1.334 . S
C267 C265 1.394 . S
C267 C268 1.359 . S
C267 H279 0.930 . S
C268 C258 1.391 . S
C268 C267 1.359 . S
C268 H280 0.929 . S
H269 C265 0.930 . S
H270 C259 0.930 . S
H271 C288 0.930 . S
H272 C260 0.930 . S
H273 C261 0.930 . S
H274 C255 0.929 . S
H275 C293 0.930 . S
H276 C284 0.930 . S
H277 C285 0.930 . S
H278 C309 0.929 . S
H279 C267 0.930 . S
H280 C268 0.929 . S
H281 C310 0.930 . S
H282 C291 0.930 . S
N283 Gd252 2.661 . S
N283 C287 1.350 . S
N283 C288 1.307 . S
C284 H276 0.930 . S
C284 C285 1.355 . S
C284 C286 1.412 . S
C285 H277 0.930 . S
C285 C284 1.355 . S
C285 C288 1.402 . S
C286 C284 1.412 . S
C286 C287 1.417 . S
C286 C310 1.431 . S
C287 N283 1.350 . S
C287 C286 1.417 . S
C287 C290 1.426 . S
C288 H271 0.930 . S
C288 N283 1.307 . S
C288 C285 1.402 . S
N289 Gd252 2.601 . S
N289 C290 1.359 . S
N289 C293 1.334 . S
C290 C287 1.426 . S
C290 N289 1.359 . S
C290 C294 1.413 . S
C291 H282 0.930 . S
C291 C292 1.359 . S
C291 C293 1.394 . S
C292 C291 1.359 . S
C292 C294 1.391 . S
C292 H295 0.929 . S
C293 H275 0.930 . S
C293 N289 1.334 . S
C293 C291 1.394 . S
C294 C290 1.413 . S
C294 C292 1.391 . S
C294 C309 1.437 . S
H295 C292 0.929 . S
O296 Gd252 2.545 . S
O296 C311 1.258 . S
O297 Gd252 2.606 . S
O297 Gd253 2.362 . S
O297 C308 1.284 . S
O298 Gd253 2.324 . S
O298 C318 1.254 . S
O299 Gd252 2.429 . S
O299 C318 1.268 . S
O300 Gd252 2.545 . S
O300 C308 1.250 . S
O301 Gd252 2.412 . S
O301 C311 1.252 . S
O302 Gd253 2.545 . S
O302 C320 1.258 . S
O303 Gd252 2.362 . S
O303 Gd253 2.606 . S
O303 C319 1.284 . S
O304 Gd252 2.324 . S
O304 C327 1.254 . S
O305 Gd253 2.429 . S
O305 C327 1.268 . S
O306 Gd253 2.545 . S
O306 C319 1.250 . S
O307 Gd253 2.412 . S
O307 C320 1.252 . S
C308 O297 1.284 . S
C308 O300 1.250 . S
C309 H278 0.929 . S
C309 C294 1.437 . S
C309 C310 1.317 . S
C310 H281 0.930 . S
C310 C286 1.431 . S
C310 C309 1.317 . S
C311 Gd252 2.828 . S
C311 O296 1.258 . S
C311 O301 1.252 . S
C311 C312 1.497 . S
C312 C311 1.497 . S
C312 C313 1.395 . S
C312 C314 1.380 . S
C313 C312 1.395 . S
C313 C316 1.398 . S
C313 H328 0.930 . S
C314 C312 1.380 . S
C314 C315 1.391 . S
C314 H329 0.930 . S
C315 C314 1.391 . S
C315 C317 1.387 . S
C316 C313 1.398 . S
C316 C317 1.380 . S
C316 H330 0.930 . S
C317 C315 1.387 . S
C317 C316 1.380 . S
C317 H331 0.930 . S
C318 O298 1.254 . S
C318 O299 1.268 . S
C319 O303 1.284 . S
C319 O306 1.250 . S
C320 Gd253 2.828 . S
C320 O302 1.258 . S
C320 O307 1.252 . S
C320 C321 1.497 . S
C321 C320 1.497 . S
C321 C322 1.395 . S
C321 C323 1.380 1_556 S
C322 C321 1.395 . S
C322 C325 1.398 1_556 S
C322 H332 0.930 . S
C323 C321 1.380 1_554 S
C323 C324 1.391 . S
C323 H333 0.930 . S
C324 C323 1.391 . S
C324 C326 1.387 . S
C325 C322 1.398 1_554 S
C325 C326 1.380 . S
C325 H334 0.930 . S
C326 C324 1.387 . S
C326 C325 1.380 . S
C326 H335 0.930 . S
C327 O304 1.254 . S
C327 O305 1.268 . S
H328 C313 0.930 . S
H329 C314 0.930 . S
H330 C316 0.930 . S
H331 C317 0.930 . S
H332 C322 0.930 . S
H333 C323 0.930 . S
H334 C325 0.930 . S
H335 C326 0.930 . S
Gd336 N367 2.661 1_455 S
Gd336 N373 2.601 1_455 S
Gd336 O380 2.545 . S
Gd336 O381 2.606 . S
Gd336 O383 2.429 . S
Gd336 O384 2.545 . S
Gd336 O385 2.412 . S
Gd336 O387 2.362 . S
Gd336 O388 2.324 . S
Gd336 C395 2.828 . S
Gd337 N346 2.661 . S
Gd337 N350 2.601 . S
Gd337 O381 2.362 . S
Gd337 O382 2.324 . S
Gd337 O386 2.545 . S
Gd337 O387 2.606 . S
Gd337 O389 2.429 . S
Gd337 O390 2.545 . S
Gd337 O391 2.412 . S
Gd337 C404 2.828 . S
C338 C341 1.417 . S
C338 C343 1.431 . S
C338 C344 1.412 . S
C339 C342 1.437 . S
C339 C343 1.317 . S
C339 H358 0.929 . S
C340 C341 1.426 . S
C340 C342 1.413 . S
C340 N350 1.359 . S
C341 C338 1.417 . S
C341 C340 1.426 . S
C341 N346 1.350 . S
C342 C339 1.437 . S
C342 C340 1.413 . S
C342 C352 1.391 1_565 S
C343 C338 1.431 . S
C343 C339 1.317 . S
C343 H354 0.930 . S
C344 C338 1.412 . S
C344 C345 1.355 . S
C344 H356 0.930 . S
C345 C344 1.355 . S
C345 C347 1.402 . S
C345 H357 0.930 . S
N346 Gd337 2.661 . S
N346 C341 1.350 . S
N346 C347 1.307 . S
C347 C345 1.402 . S
C347 N346 1.307 . S
C347 H348 0.930 . S
H348 C347 0.930 . S
C349 N350 1.334 . S
C349 C351 1.394 1_565 S
C349 H353 0.930 . S
N350 Gd337 2.601 . S
N350 C340 1.359 . S
N350 C349 1.334 . S
C351 C349 1.394 1_545 S
C351 C352 1.359 . S
C351 H363 0.930 . S
C352 C342 1.391 1_545 S
C352 C351 1.359 . S
C352 H364 0.929 . S
H353 C349 0.930 . S
H354 C343 0.930 . S
H355 C372 0.930 1_455 S
H356 C344 0.930 . S
H357 C345 0.930 . S
H358 C339 0.929 . S
H359 C377 0.960 . S
H360 C368 0.930 . S
H361 C369 0.930 . S
H362 C393 0.929 . S
H363 C351 0.930 . S
H364 C352 0.929 . S
H365 C394 0.930 . S
H366 C375 0.930 . S
N367 Gd336 2.661 1_655 S
N367 C371 1.350 . S
N367 C372 1.307 . S
C368 H360 0.930 . S
C368 C369 1.355 . S
C368 C370 1.412 . S
C369 H361 0.930 . S
C369 C368 1.355 . S
C369 C372 1.402 . S
C370 C368 1.412 . S
C370 C371 1.417 . S
C370 C394 1.431 . S
C371 N367 1.350 . S
C371 C370 1.417 . S
C371 C374 1.426 . S
C372 H355 0.930 1_655 S
C372 N367 1.307 . S
C372 C369 1.402 . S
N373 Gd336 2.601 1_655 S
N373 C374 1.359 . S
N373 C377 1.334 . S
C374 C371 1.426 . S
C374 N373 1.359 . S
C374 C378 1.413 . S
C375 H366 0.930 . S
C375 C376 1.359 . S
C375 C377 1.394 . S
C376 C375 1.359 . S
C376 C378 1.391 . S
C376 H379 0.929 . S
C377 H359 0.960 . S
C377 N373 1.334 . S
C377 C375 1.394 . S
C378 C374 1.413 . S
C378 C376 1.391 . S
C378 C393 1.437 . S
H379 C376 0.929 . S
O380 Gd336 2.545 . S
O380 C395 1.258 . S
O381 Gd336 2.606 . S
O381 Gd337 2.362 . S
O381 C392 1.284 . S
O382 Gd337 2.324 . S
O382 C402 1.254 . S
O383 Gd336 2.429 . S
O383 C402 1.268 . S
O384 Gd336 2.545 . S
O384 C392 1.250 . S
O385 Gd336 2.412 . S
O385 C395 1.252 . S
O386 Gd337 2.545 . S
O386 C404 1.258 . S
O387 Gd336 2.362 . S
O387 Gd337 2.606 . S
O387 C403 1.284 . S
O388 Gd336 2.324 . S
O388 C411 1.254 . S
O389 Gd337 2.429 . S
O389 C411 1.268 . S
O390 Gd337 2.545 . S
O390 C403 1.250 . S
O391 Gd337 2.412 . S
O391 C404 1.252 . S
C392 O381 1.284 . S
C392 O384 1.250 . S
C393 H362 0.929 . S
C393 C378 1.437 . S
C393 C394 1.317 . S
C394 H365 0.930 . S
C394 C370 1.431 . S
C394 C393 1.317 . S
C395 Gd336 2.828 . S
C395 O380 1.258 . S
C395 O385 1.252 . S
C395 C396 1.497 1_455 S
C396 C395 1.497 1_655 S
C396 C397 1.395 . S
C396 C398 1.380 1_556 S
C397 C396 1.395 . S
C397 C400 1.398 1_556 S
C397 H412 0.930 . S
C398 C396 1.380 1_554 S
C398 C399 1.391 . S
C398 H413 0.938 1_655 S
C399 C398 1.391 . S
C399 C401 1.387 . S
C400 C397 1.398 1_554 S
C400 C401 1.380 . S
C400 H414 0.930 . S
C401 C399 1.387 . S
C401 C400 1.380 . S
C401 H415 0.930 . S
C402 O382 1.254 . S
C402 O383 1.268 . S
C403 O387 1.284 . S
C403 O390 1.250 . S
C404 Gd337 2.828 . S
C404 O386 1.258 . S
C404 O391 1.252 . S
C404 C405 1.497 . S
C405 C404 1.497 . S
C405 C406 1.395 . S
C405 C407 1.380 . S
C406 C405 1.395 . S
C406 C409 1.398 . S
C406 H416 0.930 . S
C407 C405 1.380 . S
C407 C408 1.391 . S
C407 H417 0.930 . S
C408 C407 1.391 . S
C408 C410 1.387 . S
C409 C406 1.398 . S
C409 C410 1.380 . S
C409 H418 0.930 . S
C410 C408 1.387 . S
C410 C409 1.380 . S
C410 H419 0.930 . S
C411 O388 1.254 . S
C411 O389 1.268 . S
H412 C397 0.930 . S
H413 C398 0.938 1_455 S
H414 C400 0.930 . S
H415 C401 0.930 . S
H416 C406 0.930 . S
H417 C407 0.930 . S
H418 C409 0.930 . S
H419 C410 0.930 . S
Gd420 N451 2.661 . S
Gd420 N457 2.601 . S
Gd420 O464 2.545 . S
Gd420 O465 2.606 . S
Gd420 O467 2.429 . S
Gd420 O468 2.545 . S
Gd420 O469 2.412 . S
Gd420 O471 2.362 . S
Gd420 O472 2.324 . S
Gd420 C479 2.828 . S
Gd421 N430 2.661 . S
Gd421 N434 2.601 . S
Gd421 O465 2.362 . S
Gd421 O466 2.324 . S
Gd421 O470 2.545 . S
Gd421 O471 2.606 . S
Gd421 O473 2.429 . S
Gd421 O474 2.545 . S
Gd421 O475 2.412 . S
Gd421 C488 2.828 . S
C422 C425 1.417 . S
C422 C427 1.431 . S
C422 C428 1.412 . S
C423 C426 1.437 . S
C423 C427 1.317 . S
C423 H442 0.929 . S
C424 C425 1.426 . S
C424 C426 1.413 . S
C424 N434 1.359 . S
C425 C422 1.417 . S
C425 C424 1.426 . S
C425 N430 1.350 . S
C426 C423 1.437 . S
C426 C424 1.413 . S
C426 C436 1.391 . S
C427 C422 1.431 . S
C427 C423 1.317 . S
C427 H438 0.930 . S
C428 C422 1.412 . S
C428 C429 1.355 . S
C428 H440 0.930 . S
C429 C428 1.355 . S
C429 C431 1.402 . S
C429 H441 0.930 . S
N430 Gd421 2.661 . S
N430 C425 1.350 . S
N430 C431 1.307 . S
C431 C429 1.402 . S
C431 N430 1.307 . S
C431 H432 0.930 . S
H432 C431 0.930 . S
C433 N434 1.334 . S
C433 C435 1.394 . S
C433 H437 0.930 . S
N434 Gd421 2.601 . S
N434 C424 1.359 . S
N434 C433 1.334 . S
C435 C433 1.394 . S
C435 C436 1.359 . S
C435 H447 0.930 . S
C436 C426 1.391 . S
C436 C435 1.359 . S
C436 H448 0.929 . S
H437 C433 0.930 . S
H438 C427 0.930 . S
H439 C456 0.930 . S
H440 C428 0.930 . S
H441 C429 0.930 . S
H442 C423 0.929 . S
H443 C461 0.930 . S
H444 C452 0.930 . S
H445 C453 0.930 . S
H446 C477 0.929 . S
H447 C435 0.930 . S
H448 C436 0.929 . S
H449 C478 0.930 . S
H450 C459 0.930 . S
N451 Gd420 2.661 . S
N451 C455 1.350 . S
N451 C456 1.307 . S
C452 H444 0.930 . S
C452 C453 1.355 . S
C452 C454 1.412 . S
C453 H445 0.930 . S
C453 C452 1.355 . S
C453 C456 1.402 . S
C454 C452 1.412 . S
C454 C455 1.417 . S
C454 C478 1.431 . S
C455 N451 1.350 . S
C455 C454 1.417 . S
C455 C458 1.426 . S
C456 H439 0.930 . S
C456 N451 1.307 . S
C456 C453 1.402 . S
N457 Gd420 2.601 . S
N457 C458 1.359 . S
N457 C461 1.334 . S
C458 C455 1.426 . S
C458 N457 1.359 . S
C458 C462 1.413 . S
C459 H450 0.930 . S
C459 C460 1.359 . S
C459 C461 1.394 . S
C460 C459 1.359 . S
C460 C462 1.391 . S
C460 H463 0.929 . S
C461 H443 0.930 . S
C461 N457 1.334 . S
C461 C459 1.394 . S
C462 C458 1.413 . S
C462 C460 1.391 . S
C462 C477 1.437 . S
H463 C460 0.929 . S
O464 Gd420 2.545 . S
O464 C479 1.258 . S
O465 Gd420 2.606 . S
O465 Gd421 2.362 . S
O465 C476 1.284 . S
O466 Gd421 2.324 . S
O466 C486 1.254 . S
O467 Gd420 2.429 . S
O467 C486 1.268 . S
O468 Gd420 2.545 . S
O468 C476 1.250 . S
O469 Gd420 2.412 . S
O469 C479 1.252 . S
O470 Gd421 2.545 . S
O470 C488 1.258 . S
O471 Gd420 2.362 . S
O471 Gd421 2.606 . S
O471 C487 1.284 . S
O472 Gd420 2.324 . S
O472 C495 1.254 . S
O473 Gd421 2.429 . S
O473 C495 1.268 . S
O474 Gd421 2.545 . S
O474 C487 1.250 . S
O475 Gd421 2.412 . S
O475 C488 1.252 . S
C476 O465 1.284 . S
C476 O468 1.250 . S
C477 H446 0.929 . S
C477 C462 1.437 . S
C477 C478 1.317 . S
C478 H449 0.930 . S
C478 C454 1.431 . S
C478 C477 1.317 . S
C479 Gd420 2.828 . S
C479 O464 1.258 . S
C479 O469 1.252 . S
C479 C480 1.497 . S
C480 C479 1.497 . S
C480 C481 1.395 . S
C480 C482 1.380 . S
C481 C480 1.395 . S
C481 C484 1.398 . S
C481 H496 0.930 . S
C482 C480 1.380 . S
C482 C483 1.391 . S
C482 H497 0.930 . S
C483 C482 1.391 . S
C483 C485 1.387 . S
C484 C481 1.398 . S
C484 C485 1.380 . S
C484 H498 0.930 . S
C485 C483 1.387 . S
C485 C484 1.380 . S
C485 H499 0.930 . S
C486 O466 1.254 . S
C486 O467 1.268 . S
C487 O471 1.284 . S
C487 O474 1.250 . S
C488 Gd421 2.828 . S
C488 O470 1.258 . S
C488 O475 1.252 . S
C488 C489 1.497 . S
C489 C488 1.497 . S
C489 C490 1.398 . S
C489 C491 1.380 1_554 S
C490 C489 1.398 . S
C490 C493 1.389 1_554 S
C490 H500 0.936 . S
C491 C489 1.380 1_556 S
C491 C492 1.391 . S
C491 H501 0.930 . S
C492 C491 1.391 . S
C492 C494 1.387 . S
C493 C490 1.389 1_556 S
C493 C494 1.380 . S
C493 H502 0.930 . S
C494 C492 1.387 . S
C494 C493 1.380 . S
C494 H503 0.930 . S
C495 O472 1.254 . S
C495 O473 1.268 . S
H496 C481 0.930 . S
H497 C482 0.930 . S
H498 C484 0.930 . S
H499 C485 0.930 . S
H500 C490 0.936 . S
H501 C491 0.930 . S
H502 C493 0.930 . S
H503 C494 0.930 . S
Gd504 N535 2.661 . S
Gd504 N541 2.601 . S
Gd504 O548 2.545 . S
Gd504 O549 2.606 . S
Gd504 O551 2.429 . S
Gd504 O552 2.545 . S
Gd504 O553 2.412 . S
Gd504 O555 2.362 . S
Gd504 O556 2.324 . S
Gd504 C563 2.828 . S
Gd505 N514 2.661 . S
Gd505 N518 2.601 . S
Gd505 O549 2.362 . S
Gd505 O550 2.324 . S
Gd505 O554 2.545 . S
Gd505 O555 2.606 . S
Gd505 O557 2.429 . S
Gd505 O558 2.545 . S
Gd505 O559 2.412 . S
Gd505 C572 2.828 . S
C506 C509 1.417 . S
C506 C511 1.431 . S
C506 C512 1.412 . S
C507 C510 1.437 . S
C507 C511 1.317 1_565 S
C507 H526 0.929 . S
C508 C509 1.426 . S
C508 C510 1.413 1_545 S
C508 N518 1.359 . S
C509 C506 1.417 . S
C509 C508 1.426 . S
C509 N514 1.350 . S
C510 C507 1.437 . S
C510 C508 1.413 1_565 S
C510 C520 1.391 . S
C511 C506 1.431 . S
C511 C507 1.317 1_545 S
C511 H522 0.930 . S
C512 C506 1.412 . S
C512 C513 1.355 . S
C512 H524 0.930 . S
C513 C512 1.355 . S
C513 C515 1.402 . S
C513 H525 0.930 . S
N514 Gd505 2.661 . S
N514 C509 1.350 . S
N514 C515 1.307 . S
C515 C513 1.402 . S
C515 N514 1.307 . S
C515 H516 0.930 . S
H516 C515 0.930 . S
C517 N518 1.334 1_565 S
C517 C519 1.394 . S
C517 H521 0.930 . S
N518 Gd505 2.601 . S
N518 C508 1.359 . S
N518 C517 1.334 1_545 S
C519 C517 1.394 . S
C519 C520 1.359 . S
C519 H531 0.930 . S
C520 C510 1.391 . S
C520 C519 1.359 . S
C520 H532 0.929 . S
H521 C517 0.930 . S
H522 C511 0.930 . S
H523 C540 0.930 . S
H524 C512 0.930 . S
H525 C513 0.930 . S
H526 C507 0.929 . S
H527 C545 0.930 . S
H528 C536 0.930 . S
H529 C537 0.930 . S
H530 C561 0.929 . S
H531 C519 0.930 . S
H532 C520 0.929 . S
H533 C562 0.930 . S
H534 C543 0.930 . S
N535 Gd504 2.661 . S
N535 C539 1.350 . S
N535 C540 1.307 . S
C536 H528 0.930 . S
C536 C537 1.355 . S
C536 C538 1.412 . S
C537 H529 0.930 . S
C537 C536 1.355 . S
C537 C540 1.402 . S
C538 C536 1.412 . S
C538 C539 1.417 . S
C538 C562 1.431 . S
C539 N535 1.350 . S
C539 C538 1.417 . S
C539 C542 1.426 . S
C540 H523 0.930 . S
C540 N535 1.307 . S
C540 C537 1.402 . S
N541 Gd504 2.601 . S
N541 C542 1.359 . S
N541 C545 1.334 . S
C542 C539 1.426 . S
C542 N541 1.359 . S
C542 C546 1.413 . S
C543 H534 0.930 . S
C543 C544 1.359 . S
C543 C545 1.394 . S
C544 C543 1.359 . S
C544 C546 1.391 . S
C544 H547 0.929 . S
C545 H527 0.930 . S
C545 N541 1.334 . S
C545 C543 1.394 . S
C546 C542 1.413 . S
C546 C544 1.391 . S
C546 C561 1.437 . S
H547 C544 0.929 . S
O548 Gd504 2.545 . S
O548 C563 1.258 . S
O549 Gd504 2.606 . S
O549 Gd505 2.362 . S
O549 C560 1.284 . S
O550 Gd505 2.324 . S
O550 C570 1.254 . S
O551 Gd504 2.429 . S
O551 C570 1.268 . S
O552 Gd504 2.545 . S
O552 C560 1.250 . S
O553 Gd504 2.412 . S
O553 C563 1.252 . S
O554 Gd505 2.545 . S
O554 C572 1.258 . S
O555 Gd504 2.362 . S
O555 Gd505 2.606 . S
O555 C571 1.284 . S
O556 Gd504 2.324 . S
O556 C579 1.254 . S
O557 Gd505 2.429 . S
O557 C579 1.268 . S
O558 Gd505 2.545 . S
O558 C571 1.250 . S
O559 Gd505 2.412 . S
O559 C572 1.252 . S
C560 O549 1.284 . S
C560 O552 1.250 . S
C561 H530 0.929 . S
C561 C546 1.437 . S
C561 C562 1.317 . S
C562 H533 0.930 . S
C562 C538 1.431 . S
C562 C561 1.317 . S
C563 Gd504 2.828 . S
C563 O548 1.258 . S
C563 O553 1.252 . S
C563 C564 1.497 . S
C564 C563 1.497 . S
C564 C565 1.395 . S
C564 C566 1.380 . S
C565 C564 1.395 . S
C565 C568 1.398 . S
C565 H580 0.930 . S
C566 C564 1.380 . S
C566 C567 1.391 . S
C566 H581 0.930 . S
C567 C566 1.391 . S
C567 C569 1.387 . S
C568 C565 1.398 . S
C568 C569 1.380 . S
C568 H582 0.930 . S
C569 C567 1.387 . S
C569 C568 1.380 . S
C569 H583 0.930 . S
C570 O550 1.254 . S
C570 O551 1.268 . S
C571 O555 1.284 . S
C571 O558 1.250 . S
C572 Gd505 2.828 . S
C572 O554 1.258 . S
C572 O559 1.252 . S
C572 C573 1.497 . S
C573 C572 1.497 . S
C573 C574 1.395 1_545 S
C573 C575 1.380 . S
C574 C573 1.395 1_565 S
C574 C577 1.398 . S
C574 H584 0.930 . S
C575 C573 1.380 . S
C575 C576 1.391 . S
C575 H585 0.930 . S
C576 C575 1.391 . S
C576 C578 1.387 . S
C577 C574 1.398 . S
C577 C578 1.380 1_565 S
C577 H586 0.930 . S
C578 C576 1.387 . S
C578 C577 1.380 1_545 S
C578 H587 0.930 . S
C579 O556 1.254 . S
C579 O557 1.268 . S
H580 C565 0.930 . S
H581 C566 0.930 . S
H582 C568 0.930 . S
H583 C569 0.930 . S
H584 C574 0.930 . S
H585 C575 0.930 . S
H586 C577 0.930 . S
H587 C578 0.930 . S
Gd588 N619 2.661 . S
Gd588 N625 2.601 . S
Gd588 O632 2.545 . S
Gd588 O633 2.606 . S
Gd588 O635 2.429 . S
Gd588 O636 2.545 . S
Gd588 O637 2.412 . S
Gd588 O639 2.362 . S
Gd588 O640 2.324 . S
Gd588 C647 2.828 . S
Gd589 N598 2.661 . S
Gd589 N602 2.601 . S
Gd589 O633 2.362 . S
Gd589 O634 2.324 . S
Gd589 O638 2.545 . S
Gd589 O639 2.606 . S
Gd589 O641 2.429 . S
Gd589 O642 2.545 . S
Gd589 O643 2.412 . S
Gd589 C656 2.828 . S
C590 C593 1.417 . S
C590 C595 1.431 . S
C590 C596 1.412 . S
C591 C594 1.437 . S
C591 C595 1.317 . S
C591 H610 0.929 . S
C592 C593 1.426 . S
C592 C594 1.413 . S
C592 N602 1.359 . S
C593 C590 1.417 . S
C593 C592 1.426 . S
C593 N598 1.350 . S
C594 C591 1.437 . S
C594 C592 1.413 . S
C594 C604 1.391 . S
C595 C590 1.431 . S
C595 C591 1.317 . S
C595 H606 0.930 . S
C596 C590 1.412 . S
C596 C597 1.355 . S
C596 H608 0.930 . S
C597 C596 1.355 . S
C597 C599 1.402 . S
C597 H609 0.930 . S
N598 Gd589 2.661 . S
N598 C593 1.350 . S
N598 C599 1.307 . S
C599 C597 1.402 . S
C599 N598 1.307 . S
C599 H600 0.930 . S
H600 C599 0.930 . S
C601 N602 1.334 . S
C601 C603 1.394 . S
C601 H605 0.930 . S
N602 Gd589 2.601 . S
N602 C592 1.359 . S
N602 C601 1.334 . S
C603 C601 1.394 . S
C603 C604 1.359 . S
C603 H615 0.930 . S
C604 C594 1.391 . S
C604 C603 1.359 . S
C604 H616 0.929 . S
H605 C601 0.930 . S
H606 C595 0.930 . S
H607 C624 0.930 . S
H608 C596 0.930 . S
H609 C597 0.930 . S
H610 C591 0.929 . S
H611 C629 0.930 . S
H612 C620 0.930 . S
H613 C621 0.930 . S
H614 C645 0.929 . S
H615 C603 0.930 . S
H616 C604 0.929 . S
H617 C646 0.930 . S
H618 C627 0.930 . S
N619 Gd588 2.661 . S
N619 C623 1.350 . S
N619 C624 1.307 . S
C620 H612 0.930 . S
C620 C621 1.355 . S
C620 C622 1.412 . S
C621 H613 0.930 . S
C621 C620 1.355 . S
C621 C624 1.402 . S
C622 C620 1.412 . S
C622 C623 1.417 . S
C622 C646 1.431 . S
C623 N619 1.350 . S
C623 C622 1.417 . S
C623 C626 1.426 . S
C624 H607 0.930 . S
C624 N619 1.307 . S
C624 C621 1.402 . S
N625 Gd588 2.601 . S
N625 C626 1.359 . S
N625 C629 1.334 . S
C626 C623 1.426 . S
C626 N625 1.359 . S
C626 C630 1.413 . S
C627 H618 0.930 . S
C627 C628 1.359 . S
C627 C629 1.394 . S
C628 C627 1.359 . S
C628 C630 1.391 . S
C628 H631 0.929 . S
C629 H611 0.930 . S
C629 N625 1.334 . S
C629 C627 1.394 . S
C630 C626 1.413 . S
C630 C628 1.391 . S
C630 C645 1.437 . S
H631 C628 0.929 . S
O632 Gd588 2.545 . S
O632 C647 1.258 . S
O633 Gd588 2.606 . S
O633 Gd589 2.362 . S
O633 C644 1.284 . S
O634 Gd589 2.324 . S
O634 C654 1.254 . S
O635 Gd588 2.429 . S
O635 C654 1.268 . S
O636 Gd588 2.545 . S
O636 C644 1.250 . S
O637 Gd588 2.412 . S
O637 C647 1.252 . S
O638 Gd589 2.545 . S
O638 C656 1.258 . S
O639 Gd588 2.362 . S
O639 Gd589 2.606 . S
O639 C655 1.284 . S
O640 Gd588 2.324 . S
O640 C663 1.254 . S
O641 Gd589 2.429 . S
O641 C663 1.268 . S
O642 Gd589 2.545 . S
O642 C655 1.250 . S
O643 Gd589 2.412 . S
O643 C656 1.252 . S
C644 O633 1.284 . S
C644 O636 1.250 . S
C645 H614 0.929 . S
C645 C630 1.437 . S
C645 C646 1.317 . S
C646 H617 0.930 . S
C646 C622 1.431 . S
C646 C645 1.317 . S
C647 Gd588 2.828 . S
C647 O632 1.258 . S
C647 O637 1.252 . S
C647 C648 1.497 . S
C648 C647 1.497 . S
C648 C649 1.395 . S
C648 C650 1.380 . S
C649 C648 1.395 . S
C649 C652 1.398 . S
C649 H664 0.930 . S
C650 C648 1.380 . S
C650 C651 1.391 . S
C650 H665 0.930 . S
C651 C650 1.391 . S
C651 C653 1.387 . S
C652 C649 1.398 . S
C652 C653 1.380 . S
C652 H666 0.930 . S
C653 C651 1.387 . S
C653 C652 1.380 . S
C653 H667 0.930 . S
C654 O634 1.254 . S
C654 O635 1.268 . S
C655 O639 1.284 . S
C655 O642 1.250 . S
C656 Gd589 2.828 . S
C656 O638 1.258 . S
C656 O643 1.252 . S
C656 C657 1.497 . S
C657 C656 1.497 . S
C657 C658 1.395 . S
C657 C659 1.380 . S
C658 C657 1.395 . S
C658 C661 1.398 . S
C658 H668 0.930 . S
C659 C657 1.380 . S
C659 C660 1.391 . S
C659 H669 0.930 . S
C660 C659 1.391 . S
C660 C662 1.387 . S
C661 C658 1.398 . S
C661 C662 1.380 . S
C661 H670 0.930 . S
C662 C660 1.387 . S
C662 C661 1.380 . S
C662 H671 0.930 . S
C663 O640 1.254 . S
C663 O641 1.268 . S
H664 C649 0.930 . S
H665 C650 0.930 . S
H666 C652 0.930 . S
H667 C653 0.930 . S
H668 C658 0.930 . S
H669 C659 0.930 . S
H670 C661 0.930 . S
H671 C662 0.930 . S
Gd672 N703 2.661 . S
Gd672 N709 2.601 . S
Gd672 O716 2.545 . S
Gd672 O717 2.606 . S
Gd672 O719 2.429 . S
Gd672 O720 2.545 . S
Gd672 O721 2.412 . S
Gd672 O723 2.362 . S
Gd672 O724 2.324 . S
Gd672 C731 2.828 . S
Gd673 N682 2.661 . S
Gd673 N686 2.601 . S
Gd673 O717 2.362 . S
Gd673 O718 2.324 . S
Gd673 O722 2.545 . S
Gd673 O723 2.606 . S
Gd673 O725 2.429 . S
Gd673 O726 2.545 . S
Gd673 O727 2.412 . S
Gd673 C740 2.828 . S
C674 C677 1.417 . S
C674 C679 1.431 . S
C674 C680 1.412 1_655 S
C675 C678 1.437 . S
C675 C679 1.317 . S
C675 H694 0.929 . S
C676 C677 1.426 . S
C676 C678 1.413 . S
C676 N686 1.359 . S
C677 C674 1.417 . S
C677 C676 1.426 . S
C677 N682 1.350 . S
C678 C675 1.437 . S
C678 C676 1.413 . S
C678 C688 1.391 . S
C679 C674 1.431 . S
C679 C675 1.317 . S
C679 H690 0.930 . S
C680 C674 1.412 1_455 S
C680 C681 1.355 . S
C680 H692 0.930 . S
C681 C680 1.355 . S
C681 C683 1.402 . S
C681 H693 0.930 . S
N682 Gd673 2.661 . S
N682 C677 1.350 . S
N682 C683 1.307 1_655 S
C683 C681 1.402 . S
C683 N682 1.307 1_455 S
C683 H684 0.930 . S
H684 C683 0.930 . S
C685 N686 1.334 . S
C685 C687 1.394 . S
C685 H689 0.930 . S
N686 Gd673 2.601 . S
N686 C676 1.359 . S
N686 C685 1.334 . S
C687 C685 1.394 . S
C687 C688 1.359 . S
C687 H699 0.930 . S
C688 C678 1.391 . S
C688 C687 1.359 . S
C688 H700 0.929 . S
H689 C685 0.930 . S
H690 C679 0.930 . S
H691 C708 0.930 . S
H692 C680 0.930 . S
H693 C681 0.930 . S
H694 C675 0.929 . S
H695 C713 0.930 . S
H696 C704 0.930 . S
H697 C705 0.930 . S
H698 C729 0.929 . S
H699 C687 0.930 . S
H700 C688 0.929 . S
H701 C730 0.930 . S
H702 C711 0.930 1_455 S
N703 Gd672 2.661 . S
N703 C707 1.350 . S
N703 C708 1.307 . S
C704 H696 0.930 . S
C704 C705 1.355 . S
C704 C706 1.412 . S
C705 H697 0.930 . S
C705 C704 1.355 . S
C705 C708 1.402 . S
C706 C704 1.412 . S
C706 C707 1.417 . S
C706 C730 1.431 . S
C707 N703 1.350 . S
C707 C706 1.417 . S
C707 C710 1.426 . S
C708 H691 0.930 . S
C708 N703 1.307 . S
C708 C705 1.402 . S
N709 Gd672 2.601 . S
N709 C710 1.359 . S
N709 C713 1.334 . S
C710 C707 1.426 . S
C710 N709 1.359 . S
C710 C714 1.413 . S
C711 H702 0.930 1_655 S
C711 C712 1.359 . S
C711 C713 1.394 . S
C712 C711 1.359 . S
C712 C714 1.391 . S
C712 H715 0.929 . S
C713 H695 0.930 . S
C713 N709 1.334 . S
C713 C711 1.394 . S
C714 C710 1.413 . S
C714 C712 1.391 . S
C714 C729 1.437 . S
H715 C712 0.929 . S
O716 Gd672 2.545 . S
O716 C731 1.258 . S
O717 Gd672 2.606 . S
O717 Gd673 2.362 . S
O717 C728 1.284 . S
O718 Gd673 2.324 . S
O718 C738 1.254 . S
O719 Gd672 2.429 . S
O719 C738 1.268 . S
O720 Gd672 2.545 . S
O720 C728 1.250 . S
O721 Gd672 2.412 . S
O721 C731 1.252 . S
O722 Gd673 2.545 . S
O722 C740 1.258 . S
O723 Gd672 2.362 . S
O723 Gd673 2.606 . S
O723 C739 1.284 . S
O724 Gd672 2.324 . S
O724 C747 1.254 . S
O725 Gd673 2.429 . S
O725 C747 1.268 . S
O726 Gd673 2.545 . S
O726 C739 1.250 . S
O727 Gd673 2.412 . S
O727 C740 1.252 . S
C728 O717 1.284 . S
C728 O720 1.250 . S
C729 H698 0.929 . S
C729 C714 1.437 . S
C729 C730 1.317 . S
C730 H701 0.930 . S
C730 C706 1.431 . S
C730 C729 1.317 . S
C731 Gd672 2.828 . S
C731 O716 1.258 . S
C731 O721 1.252 . S
C731 C732 1.497 . S
C732 C731 1.497 . S
C732 C733 1.395 . S
C732 C734 1.380 . S
C733 C732 1.395 . S
C733 C736 1.398 . S
C733 H748 0.930 . S
C734 C732 1.380 . S
C734 C735 1.391 . S
C734 H749 0.930 . S
C735 C734 1.391 . S
C735 C737 1.387 . S
C736 C733 1.398 . S
C736 C737 1.380 . S
C736 H750 0.930 . S
C737 C735 1.387 . S
C737 C736 1.380 . S
C737 H751 0.930 . S
C738 O718 1.254 . S
C738 O719 1.268 . S
C739 O723 1.284 . S
C739 O726 1.250 . S
C740 Gd673 2.828 . S
C740 O722 1.258 . S
C740 O727 1.252 . S
C740 C741 1.497 . S
C741 C740 1.497 . S
C741 C742 1.395 . S
C741 C743 1.380 . S
C742 C741 1.395 . S
C742 C745 1.398 . S
C742 H752 0.930 . S
C743 C741 1.380 . S
C743 C744 1.391 . S
C743 H753 0.930 . S
C744 C743 1.391 . S
C744 C746 1.387 . S
C745 C742 1.398 . S
C745 C746 1.380 . S
C745 H754 0.930 . S
C746 C744 1.387 . S
C746 C745 1.380 . S
C746 H755 0.930 . S
C747 O724 1.254 . S
C747 O725 1.268 . S
H748 C733 0.930 . S
H749 C734 0.930 . S
H750 C736 0.930 . S
H751 C737 0.930 . S
H752 C742 0.930 . S
H753 C743 0.930 . S
H754 C745 0.930 . S
H755 C746 0.930 . S
Gd756 N787 2.661 . S
Gd756 N793 2.601 . S
Gd756 O800 2.545 . S
Gd756 O801 2.606 . S
Gd756 O803 2.429 . S
Gd756 O804 2.545 . S
Gd756 O805 2.412 . S
Gd756 O807 2.362 . S
Gd756 O808 2.324 . S
Gd756 C815 2.828 . S
Gd757 N766 2.661 . S
Gd757 N770 2.601 . S
Gd757 O801 2.362 . S
Gd757 O802 2.324 . S
Gd757 O806 2.545 . S
Gd757 O807 2.606 . S
Gd757 O809 2.429 . S
Gd757 O810 2.545 . S
Gd757 O811 2.412 . S
Gd757 C824 2.828 . S
C758 C761 1.417 . S
C758 C763 1.431 . S
C758 C764 1.412 . S
C759 C762 1.437 . S
C759 C763 1.317 . S
C759 H778 0.929 . S
C760 C761 1.426 . S
C760 C762 1.413 . S
C760 N770 1.359 . S
C761 C758 1.417 . S
C761 C760 1.426 . S
C761 N766 1.350 . S
C762 C759 1.437 . S
C762 C760 1.413 . S
C762 C772 1.391 . S
C763 C758 1.431 . S
C763 C759 1.317 . S
C763 H774 0.930 . S
C764 C758 1.412 . S
C764 C765 1.355 . S
C764 H776 0.930 . S
C765 C764 1.355 . S
C765 C767 1.402 . S
C765 H777 0.930 . S
N766 Gd757 2.661 . S
N766 C761 1.350 . S
N766 C767 1.307 . S
C767 C765 1.402 . S
C767 N766 1.307 . S
C767 H768 0.930 . S
H768 C767 0.930 . S
C769 N770 1.334 . S
C769 C771 1.394 . S
C769 H773 0.930 . S
N770 Gd757 2.601 . S
N770 C760 1.359 . S
N770 C769 1.334 . S
C771 C769 1.394 . S
C771 C772 1.359 . S
C771 H783 0.930 . S
C772 C762 1.391 . S
C772 C771 1.359 . S
C772 H784 0.929 . S
H773 C769 0.930 . S
H774 C763 0.930 . S
H775 C792 0.930 . S
H776 C764 0.930 . S
H777 C765 0.930 . S
H778 C759 0.929 . S
H779 C797 0.930 . S
H780 C788 0.930 . S
H781 C789 0.930 . S
H782 C813 0.929 . S
H783 C771 0.930 . S
H784 C772 0.929 . S
H785 C814 0.930 . S
H786 C795 0.930 . S
N787 Gd756 2.661 . S
N787 C791 1.350 . S
N787 C792 1.307 . S
C788 H780 0.930 . S
C788 C789 1.355 . S
C788 C790 1.412 . S
C789 H781 0.930 . S
C789 C788 1.355 . S
C789 C792 1.402 . S
C790 C788 1.412 . S
C790 C791 1.417 . S
C790 C814 1.431 . S
C791 N787 1.350 . S
C791 C790 1.417 . S
C791 C794 1.426 . S
C792 H775 0.930 . S
C792 N787 1.307 . S
C792 C789 1.402 . S
N793 Gd756 2.601 . S
N793 C794 1.359 . S
N793 C797 1.334 . S
C794 C791 1.426 . S
C794 N793 1.359 . S
C794 C798 1.413 . S
C795 H786 0.930 . S
C795 C796 1.359 . S
C795 C797 1.394 . S
C796 C795 1.359 . S
C796 C798 1.391 . S
C796 H799 0.929 . S
C797 H779 0.930 . S
C797 N793 1.334 . S
C797 C795 1.394 . S
C798 C794 1.413 . S
C798 C796 1.391 . S
C798 C813 1.437 . S
H799 C796 0.929 . S
O800 Gd756 2.545 . S
O800 C815 1.258 . S
O801 Gd756 2.606 . S
O801 Gd757 2.362 . S
O801 C812 1.284 . S
O802 Gd757 2.324 . S
O802 C822 1.254 . S
O803 Gd756 2.429 . S
O803 C822 1.268 . S
O804 Gd756 2.545 . S
O804 C812 1.250 . S
O805 Gd756 2.412 . S
O805 C815 1.252 . S
O806 Gd757 2.545 . S
O806 C824 1.258 . S
O807 Gd756 2.362 . S
O807 Gd757 2.606 . S
O807 C823 1.284 . S
O808 Gd756 2.324 . S
O808 C831 1.254 . S
O809 Gd757 2.429 . S
O809 C831 1.268 . S
O810 Gd757 2.545 . S
O810 C823 1.250 . S
O811 Gd757 2.412 . S
O811 C824 1.252 . S
C812 O801 1.284 . S
C812 O804 1.250 . S
C813 H782 0.929 . S
C813 C798 1.437 . S
C813 C814 1.317 . S
C814 H785 0.930 . S
C814 C790 1.431 . S
C814 C813 1.317 . S
C815 Gd756 2.828 . S
C815 O800 1.258 . S
C815 O805 1.252 . S
C815 C816 1.497 . S
C816 C815 1.497 . S
C816 C817 1.395 . S
C816 C818 1.380 1_554 S
C817 C816 1.395 . S
C817 C820 1.398 1_554 S
C817 H832 0.930 . S
C818 C816 1.380 1_556 S
C818 C819 1.391 . S
C818 H833 0.930 . S
C819 C818 1.391 . S
C819 C821 1.387 . S
C820 C817 1.398 1_556 S
C820 C821 1.380 . S
C820 H834 0.930 . S
C821 C819 1.387 . S
C821 C820 1.380 . S
C821 H835 0.930 . S
C822 O802 1.254 . S
C822 O803 1.268 . S
C823 O807 1.284 . S
C823 O810 1.250 . S
C824 Gd757 2.828 . S
C824 O806 1.258 . S
C824 O811 1.252 . S
C824 C825 1.497 . S
C825 C824 1.497 . S
C825 C826 1.395 . S
C825 C827 1.380 . S
C826 C825 1.395 . S
C826 C829 1.398 . S
C826 H836 0.930 . S
C827 C825 1.380 . S
C827 C828 1.391 . S
C827 H837 0.930 . S
C828 C827 1.391 . S
C828 C830 1.387 . S
C829 C826 1.398 . S
C829 C830 1.380 . S
C829 H838 0.930 . S
C830 C828 1.387 . S
C830 C829 1.380 . S
C830 H839 0.930 . S
C831 O808 1.254 . S
C831 O809 1.268 . S
H832 C817 0.930 . S
H833 C818 0.930 . S
H834 C820 0.930 . S
H835 C821 0.930 . S
H836 C826 0.930 . S
H837 C827 0.930 . S
H838 C829 0.930 . S
H839 C830 0.930 . S
Gd840 N871 2.661 . S
Gd840 N877 2.601 . S
Gd840 O884 2.545 . S
Gd840 O885 2.606 . S
Gd840 O887 2.429 . S
Gd840 O888 2.545 . S
Gd840 O889 2.412 . S
Gd840 O891 2.362 . S
Gd840 O892 2.324 . S
Gd840 C899 2.828 . S
Gd841 N850 2.661 . S
Gd841 N854 2.601 . S
Gd841 O885 2.362 . S
Gd841 O886 2.324 . S
Gd841 O890 2.545 . S
Gd841 O891 2.606 . S
Gd841 O893 2.429 . S
Gd841 O894 2.545 . S
Gd841 O895 2.412 . S
Gd841 C908 2.828 . S
C842 C845 1.417 . S
C842 C847 1.431 . S
C842 C848 1.412 . S
C843 C846 1.437 . S
C843 C847 1.317 . S
C843 H862 0.929 . S
C844 C845 1.426 . S
C844 C846 1.413 . S
C844 N854 1.359 . S
C845 C842 1.417 . S
C845 C844 1.426 . S
C845 N850 1.350 . S
C846 C843 1.437 . S
C846 C844 1.413 . S
C846 C856 1.391 . S
C847 C842 1.431 . S
C847 C843 1.317 . S
C847 H858 0.930 . S
C848 C842 1.412 . S
C848 C849 1.355 . S
C848 H860 0.930 . S
C849 C848 1.355 . S
C849 C851 1.402 . S
C849 H861 0.930 . S
N850 Gd841 2.661 . S
N850 C845 1.350 . S
N850 C851 1.307 . S
C851 C849 1.402 . S
C851 N850 1.307 . S
C851 H852 0.930 . S
H852 C851 0.930 . S
C853 N854 1.334 . S
C853 C855 1.394 . S
C853 H857 0.930 . S
N854 Gd841 2.601 . S
N854 C844 1.359 . S
N854 C853 1.334 . S
C855 C853 1.394 . S
C855 C856 1.359 . S
C855 H867 0.930 . S
C856 C846 1.391 . S
C856 C855 1.359 . S
C856 H868 0.929 . S
H857 C853 0.930 . S
H858 C847 0.930 . S
H859 C876 0.930 . S
H860 C848 0.930 . S
H861 C849 0.930 . S
H862 C843 0.929 . S
H863 C881 0.930 . S
H864 C872 0.930 . S
H865 C873 0.930 . S
H866 C897 0.929 . S
H867 C855 0.930 . S
H868 C856 0.929 . S
H869 C898 0.930 . S
H870 C879 0.930 . S
N871 Gd840 2.661 . S
N871 C875 1.350 . S
N871 C876 1.307 . S
C872 H864 0.930 . S
C872 C873 1.355 . S
C872 C874 1.412 . S
C873 H865 0.930 . S
C873 C872 1.355 . S
C873 C876 1.402 . S
C874 C872 1.412 . S
C874 C875 1.417 . S
C874 C898 1.431 . S
C875 N871 1.350 . S
C875 C874 1.417 . S
C875 C878 1.426 . S
C876 H859 0.930 . S
C876 N871 1.307 . S
C876 C873 1.402 . S
N877 Gd840 2.601 . S
N877 C878 1.359 . S
N877 C881 1.334 . S
C878 C875 1.426 . S
C878 N877 1.359 . S
C878 C882 1.413 . S
C879 H870 0.930 . S
C879 C880 1.359 . S
C879 C881 1.394 . S
C880 C879 1.359 . S
C880 C882 1.391 . S
C880 H883 0.929 . S
C881 H863 0.930 . S
C881 N877 1.334 . S
C881 C879 1.394 . S
C882 C878 1.413 . S
C882 C880 1.391 . S
C882 C897 1.437 . S
H883 C880 0.929 . S
O884 Gd840 2.545 . S
O884 C899 1.258 . S
O885 Gd840 2.606 . S
O885 Gd841 2.362 . S
O885 C896 1.284 . S
O886 Gd841 2.324 . S
O886 C906 1.254 . S
O887 Gd840 2.429 . S
O887 C906 1.268 . S
O888 Gd840 2.545 . S
O888 C896 1.250 . S
O889 Gd840 2.412 . S
O889 C899 1.252 . S
O890 Gd841 2.545 . S
O890 C908 1.258 . S
O891 Gd840 2.362 . S
O891 Gd841 2.606 . S
O891 C907 1.284 . S
O892 Gd840 2.324 . S
O892 C915 1.254 . S
O893 Gd841 2.429 . S
O893 C915 1.268 . S
O894 Gd841 2.545 . S
O894 C907 1.250 . S
O895 Gd841 2.412 . S
O895 C908 1.252 . S
C896 O885 1.284 . S
C896 O888 1.250 . S
C897 H866 0.929 . S
C897 C882 1.437 . S
C897 C898 1.317 . S
C898 H869 0.930 . S
C898 C874 1.431 . S
C898 C897 1.317 . S
C899 Gd840 2.828 . S
C899 O884 1.258 . S
C899 O889 1.252 . S
C899 C900 1.497 . S
C900 C899 1.497 . S
C900 C901 1.398 . S
C900 C902 1.380 1_556 S
C901 C900 1.398 . S
C901 C904 1.389 1_556 S
C901 H916 0.936 . S
C902 C900 1.380 1_554 S
C902 C903 1.391 . S
C902 H917 0.930 . S
C903 C902 1.391 . S
C903 C905 1.387 . S
C904 C901 1.389 1_554 S
C904 C905 1.380 . S
C904 H918 0.930 . S
C905 C903 1.387 . S
C905 C904 1.380 . S
C905 H919 0.930 . S
C906 O886 1.254 . S
C906 O887 1.268 . S
C907 O891 1.284 . S
C907 O894 1.250 . S
C908 Gd841 2.828 . S
C908 O890 1.258 . S
C908 O895 1.252 . S
C908 C909 1.497 . S
C909 C908 1.497 . S
C909 C910 1.395 . S
C909 C911 1.380 . S
C910 C909 1.395 . S
C910 C913 1.398 . S
C910 H920 0.930 . S
C911 C909 1.380 . S
C911 C912 1.391 . S
C911 H921 0.930 . S
C912 C911 1.391 . S
C912 C914 1.387 . S
C913 C910 1.398 . S
C913 C914 1.380 . S
C913 H922 0.930 . S
C914 C912 1.387 . S
C914 C913 1.380 . S
C914 H923 0.930 . S
C915 O892 1.254 . S
C915 O893 1.268 . S
H916 C901 0.936 . S
H917 C902 0.930 . S
H918 C904 0.930 . S
H919 C905 0.930 . S
H920 C910 0.930 . S
H921 C911 0.930 . S
H922 C913 0.930 . S
H923 C914 0.930 . S
Gd924 N955 2.661 . S
Gd924 N961 2.601 . S
Gd924 O968 2.545 . S
Gd924 O969 2.606 . S
Gd924 O971 2.429 . S
Gd924 O972 2.545 . S
Gd924 O973 2.412 . S
Gd924 O975 2.362 . S
Gd924 O976 2.324 . S
Gd924 C983 2.828 . S
Gd925 N934 2.661 . S
Gd925 N938 2.601 . S
Gd925 O969 2.362 . S
Gd925 O970 2.324 . S
Gd925 O974 2.545 . S
Gd925 O975 2.606 . S
Gd925 O977 2.429 . S
Gd925 O978 2.545 . S
Gd925 O979 2.412 . S
Gd925 C992 2.828 . S
C926 C929 1.417 . S
C926 C931 1.431 . S
C926 C932 1.412 . S
C927 C930 1.437 . S
C927 C931 1.317 . S
C927 H946 0.929 . S
C928 C929 1.426 . S
C928 C930 1.413 . S
C928 N938 1.359 . S
C929 C926 1.417 . S
C929 C928 1.426 . S
C929 N934 1.350 . S
C930 C927 1.437 . S
C930 C928 1.413 . S
C930 C940 1.391 . S
C931 C926 1.431 . S
C931 C927 1.317 . S
C931 H942 0.930 . S
C932 C926 1.412 . S
C932 C933 1.355 . S
C932 H944 0.930 . S
C933 C932 1.355 . S
C933 C935 1.402 . S
C933 H945 0.930 . S
N934 Gd925 2.661 . S
N934 C929 1.350 . S
N934 C935 1.307 . S
C935 C933 1.402 . S
C935 N934 1.307 . S
C935 H936 0.930 . S
H936 C935 0.930 . S
C937 N938 1.334 . S
C937 C939 1.394 . S
C937 H941 0.930 . S
N938 Gd925 2.601 . S
N938 C928 1.359 . S
N938 C937 1.334 . S
C939 C937 1.394 . S
C939 C940 1.359 . S
C939 H951 0.930 . S
C940 C930 1.391 . S
C940 C939 1.359 . S
C940 H952 0.929 . S
H941 C937 0.930 . S
H942 C931 0.930 . S
H943 C960 0.930 . S
H944 C932 0.930 . S
H945 C933 0.930 . S
H946 C927 0.929 . S
H947 C965 0.930 . S
H948 C956 0.930 . S
H949 C957 0.930 . S
H950 C981 0.929 . S
H951 C939 0.930 . S
H952 C940 0.929 . S
H953 C982 0.930 . S
H954 C963 0.930 . S
N955 Gd924 2.661 . S
N955 C959 1.350 . S
N955 C960 1.307 . S
C956 H948 0.930 . S
C956 C957 1.355 . S
C956 C958 1.412 . S
C957 H949 0.930 . S
C957 C956 1.355 . S
C957 C960 1.402 . S
C958 C956 1.412 . S
C958 C959 1.417 . S
C958 C982 1.431 . S
C959 N955 1.350 . S
C959 C958 1.417 . S
C959 C962 1.426 . S
C960 H943 0.930 . S
C960 N955 1.307 . S
C960 C957 1.402 . S
N961 Gd924 2.601 . S
N961 C962 1.359 . S
N961 C965 1.334 1_655 S
C962 C959 1.426 . S
C962 N961 1.359 . S
C962 C966 1.413 1_655 S
C963 H954 0.930 . S
C963 C964 1.359 . S
C963 C965 1.394 . S
C964 C963 1.359 . S
C964 C966 1.391 . S
C964 H967 0.929 . S
C965 H947 0.930 . S
C965 N961 1.334 1_455 S
C965 C963 1.394 . S
C966 C962 1.413 1_455 S
C966 C964 1.391 . S
C966 C981 1.437 . S
H967 C964 0.929 . S
O968 Gd924 2.545 . S
O968 C983 1.258 . S
O969 Gd924 2.606 . S
O969 Gd925 2.362 . S
O969 C980 1.284 . S
O970 Gd925 2.324 . S
O970 C990 1.254 . S
O971 Gd924 2.429 . S
O971 C990 1.268 . S
O972 Gd924 2.545 . S
O972 C980 1.250 . S
O973 Gd924 2.412 . S
O973 C983 1.252 . S
O974 Gd925 2.545 . S
O974 C992 1.258 . S
O975 Gd924 2.362 . S
O975 Gd925 2.606 . S
O975 C991 1.284 . S
O976 Gd924 2.324 . S
O976 C999 1.254 . S
O977 Gd925 2.429 . S
O977 C999 1.268 . S
O978 Gd925 2.545 . S
O978 C991 1.250 . S
O979 Gd925 2.412 . S
O979 C992 1.252 . S
C980 O969 1.284 . S
C980 O972 1.250 . S
C981 H950 0.929 . S
C981 C966 1.437 . S
C981 C982 1.317 1_455 S
C982 H953 0.930 . S
C982 C958 1.431 . S
C982 C981 1.317 1_655 S
C983 Gd924 2.828 . S
C983 O968 1.258 . S
C983 O973 1.252 . S
C983 C984 1.497 . S
C984 C983 1.497 . S
C984 C985 1.395 . S
C984 C986 1.380 . S
C985 C984 1.395 . S
C985 C988 1.398 . S
C985 H1000 0.930 1_655 S
C986 C984 1.380 . S
C986 C987 1.391 . S
C986 H1001 0.930 . S
C987 C986 1.391 . S
C987 C989 1.387 . S
C988 C985 1.398 . S
C988 C989 1.380 . S
C988 H1002 0.930 1_655 S
C989 C987 1.387 . S
C989 C988 1.380 . S
C989 H1003 0.930 . S
C990 O970 1.254 . S
C990 O971 1.268 . S
C991 O975 1.284 . S
C991 O978 1.250 . S
C992 Gd925 2.828 . S
C992 O974 1.258 . S
C992 O979 1.252 . S
C992 C993 1.497 . S
C993 C992 1.497 . S
C993 C994 1.395 . S
C993 C995 1.380 . S
C994 C993 1.395 . S
C994 C997 1.398 . S
C994 H1004 0.930 . S
C995 C993 1.380 . S
C995 C996 1.391 . S
C995 H1005 0.930 . S
C996 C995 1.391 . S
C996 C998 1.387 . S
C997 C994 1.398 . S
C997 C998 1.380 . S
C997 H1006 0.930 . S
C998 C996 1.387 . S
C998 C997 1.380 . S
C998 H1007 0.930 . S
C999 O976 1.254 . S
C999 O977 1.268 . S
H1000 C985 0.930 1_455 S
H1001 C986 0.930 . S
H1002 C988 0.930 1_455 S
H1003 C989 0.930 . S
H1004 C994 0.930 . S
H1005 C995 0.930 . S
H1006 C997 0.930 . S
H1007 C998 0.930 . S
Gd1008 N1039 2.661 . S
Gd1008 N1045 2.601 . S
Gd1008 O1052 2.545 . S
Gd1008 O1053 2.606 . S
Gd1008 O1055 2.429 . S
Gd1008 O1056 2.545 . S
Gd1008 O1057 2.412 . S
Gd1008 O1059 2.362 . S
Gd1008 O1060 2.324 . S
Gd1008 C1067 2.828 . S
Gd1009 N1018 2.661 . S
Gd1009 N1022 2.601 . S
Gd1009 O1053 2.362 . S
Gd1009 O1054 2.324 . S
Gd1009 O1058 2.545 . S
Gd1009 O1059 2.606 . S
Gd1009 O1061 2.429 . S
Gd1009 O1062 2.545 . S
Gd1009 O1063 2.412 . S
Gd1009 C1076 2.828 . S
C1010 C1013 1.417 . S
C1010 C1015 1.431 . S
C1010 C1016 1.412 . S
C1011 C1014 1.437 . S
C1011 C1015 1.317 . S
C1011 H1030 0.929 . S
C1012 C1013 1.426 . S
C1012 C1014 1.413 . S
C1012 N1022 1.359 . S
C1013 C1010 1.417 . S
C1013 C1012 1.426 . S
C1013 N1018 1.350 . S
C1014 C1011 1.437 . S
C1014 C1012 1.413 . S
C1014 C1024 1.391 . S
C1015 C1010 1.431 . S
C1015 C1011 1.317 . S
C1015 H1026 0.930 . S
C1016 C1010 1.412 . S
C1016 C1017 1.355 . S
C1016 H1028 0.930 . S
C1017 C1016 1.355 . S
C1017 C1019 1.402 . S
C1017 H1029 0.930 . S
N1018 Gd1009 2.661 . S
N1018 C1013 1.350 . S
N1018 C1019 1.307 . S
C1019 C1017 1.402 . S
C1019 N1018 1.307 . S
C1019 H1020 0.930 . S
H1020 C1019 0.930 . S
C1021 N1022 1.334 . S
C1021 C1023 1.394 . S
C1021 H1025 0.930 . S
N1022 Gd1009 2.601 . S
N1022 C1012 1.359 . S
N1022 C1021 1.334 . S
C1023 C1021 1.394 . S
C1023 C1024 1.359 . S
C1023 H1035 0.930 . S
C1024 C1014 1.391 . S
C1024 C1023 1.359 . S
C1024 H1036 0.929 . S
H1025 C1021 0.930 . S
H1026 C1015 0.930 . S
H1027 C1044 0.930 . S
H1028 C1016 0.930 . S
H1029 C1017 0.930 . S
H1030 C1011 0.929 . S
H1031 C1049 0.930 . S
H1032 C1040 0.930 . S
H1033 C1041 0.930 . S
H1034 C1065 0.929 . S
H1035 C1023 0.930 . S
H1036 C1024 0.929 . S
H1037 C1066 0.930 . S
H1038 C1047 0.930 . S
N1039 Gd1008 2.661 . S
N1039 C1043 1.350 . S
N1039 C1044 1.307 . S
C1040 H1032 0.930 . S
C1040 C1041 1.355 . S
C1040 C1042 1.412 . S
C1041 H1033 0.930 . S
C1041 C1040 1.355 . S
C1041 C1044 1.402 . S
C1042 C1040 1.412 . S
C1042 C1043 1.417 . S
C1042 C1066 1.431 . S
C1043 N1039 1.350 . S
C1043 C1042 1.417 . S
C1043 C1046 1.426 . S
C1044 H1027 0.930 . S
C1044 N1039 1.307 . S
C1044 C1041 1.402 . S
N1045 Gd1008 2.601 . S
N1045 C1046 1.359 . S
N1045 C1049 1.334 . S
C1046 C1043 1.426 . S
C1046 N1045 1.359 . S
C1046 C1050 1.413 . S
C1047 H1038 0.930 . S
C1047 C1048 1.359 . S
C1047 C1049 1.394 . S
C1048 C1047 1.359 . S
C1048 C1050 1.391 . S
C1048 H1051 0.929 . S
C1049 H1031 0.930 . S
C1049 N1045 1.334 . S
C1049 C1047 1.394 . S
C1050 C1046 1.413 . S
C1050 C1048 1.391 . S
C1050 C1065 1.437 . S
H1051 C1048 0.929 . S
O1052 Gd1008 2.545 . S
O1052 C1067 1.258 . S
O1053 Gd1008 2.606 . S
O1053 Gd1009 2.362 . S
O1053 C1064 1.284 . S
O1054 Gd1009 2.324 . S
O1054 C1074 1.254 . S
O1055 Gd1008 2.429 . S
O1055 C1074 1.268 . S
O1056 Gd1008 2.545 . S
O1056 C1064 1.250 . S
O1057 Gd1008 2.412 . S
O1057 C1067 1.252 . S
O1058 Gd1009 2.545 . S
O1058 C1076 1.258 . S
O1059 Gd1008 2.362 . S
O1059 Gd1009 2.606 . S
O1059 C1075 1.284 . S
O1060 Gd1008 2.324 . S
O1060 C1083 1.254 . S
O1061 Gd1009 2.429 . S
O1061 C1083 1.268 . S
O1062 Gd1009 2.545 . S
O1062 C1075 1.250 . S
O1063 Gd1009 2.412 . S
O1063 C1076 1.252 . S
C1064 O1053 1.284 . S
C1064 O1056 1.250 . S
C1065 H1034 0.929 . S
C1065 C1050 1.437 . S
C1065 C1066 1.317 . S
C1066 H1037 0.930 . S
C1066 C1042 1.431 . S
C1066 C1065 1.317 . S
C1067 Gd1008 2.828 . S
C1067 O1052 1.258 . S
C1067 O1057 1.252 . S
C1067 C1068 1.497 . S
C1068 C1067 1.497 . S
C1068 C1069 1.395 . S
C1068 C1070 1.380 . S
C1069 C1068 1.395 . S
C1069 C1072 1.398 . S
C1069 H1084 0.930 . S
C1070 C1068 1.380 . S
C1070 C1071 1.391 . S
C1070 H1085 0.930 . S
C1071 C1070 1.391 . S
C1071 C1073 1.387 . S
C1072 C1069 1.398 . S
C1072 C1073 1.380 . S
C1072 H1086 0.930 . S
C1073 C1071 1.387 . S
C1073 C1072 1.380 . S
C1073 H1087 0.930 . S
C1074 O1054 1.254 . S
C1074 O1055 1.268 . S
C1075 O1059 1.284 . S
C1075 O1062 1.250 . S
C1076 Gd1009 2.828 . S
C1076 O1058 1.258 . S
C1076 O1063 1.252 . S
C1076 C1077 1.497 . S
C1077 C1076 1.497 . S
C1077 C1078 1.395 . S
C1077 C1079 1.380 . S
C1078 C1077 1.395 . S
C1078 C1081 1.398 . S
C1078 H1088 0.930 . S
C1079 C1077 1.380 . S
C1079 C1080 1.391 . S
C1079 H1089 0.930 . S
C1080 C1079 1.391 . S
C1080 C1082 1.387 . S
C1081 C1078 1.398 . S
C1081 C1082 1.380 . S
C1081 H1090 0.930 . S
C1082 C1080 1.387 . S
C1082 C1081 1.380 . S
C1082 H1091 0.930 . S
C1083 O1060 1.254 . S
C1083 O1061 1.268 . S
H1084 C1069 0.930 . S
H1085 C1070 0.930 . S
H1086 C1072 0.930 . S
H1087 C1073 0.930 . S
H1088 C1078 0.930 . S
H1089 C1079 0.930 . S
H1090 C1081 0.930 . S
H1091 C1082 0.930 . S
Gd1092 N1123 2.661 . S
Gd1092 N1129 2.601 . S
Gd1092 O1136 2.545 . S
Gd1092 O1137 2.606 . S
Gd1092 O1139 2.429 . S
Gd1092 O1140 2.545 . S
Gd1092 O1141 2.412 . S
Gd1092 O1143 2.362 . S
Gd1092 O1144 2.324 . S
Gd1092 C1151 2.828 . S
Gd1093 N1102 2.661 . S
Gd1093 N1106 2.601 . S
Gd1093 O1137 2.362 . S
Gd1093 O1138 2.324 . S
Gd1093 O1142 2.545 . S
Gd1093 O1143 2.606 . S
Gd1093 O1145 2.429 . S
Gd1093 O1146 2.545 . S
Gd1093 O1147 2.412 . S
Gd1093 C1160 2.828 1_554 S
C1094 C1097 1.417 . S
C1094 C1099 1.431 . S
C1094 C1100 1.412 . S
C1095 C1098 1.437 . S
C1095 C1099 1.317 . S
C1095 H1114 0.929 . S
C1096 C1097 1.426 . S
C1096 C1098 1.413 . S
C1096 N1106 1.359 1_655 S
C1097 C1094 1.417 . S
C1097 C1096 1.426 . S
C1097 N1102 1.350 1_655 S
C1098 C1095 1.437 . S
C1098 C1096 1.413 . S
C1098 C1108 1.391 . S
C1099 C1094 1.431 . S
C1099 C1095 1.317 . S
C1099 H1110 0.930 . S
C1100 C1094 1.412 . S
C1100 C1101 1.355 . S
C1100 H1112 0.930 . S
C1101 C1100 1.355 . S
C1101 C1103 1.402 1_655 S
C1101 H1113 0.930 . S
N1102 Gd1093 2.661 . S
N1102 C1097 1.350 1_455 S
N1102 C1103 1.307 . S
C1103 C1101 1.402 1_455 S
C1103 N1102 1.307 . S
C1103 H1104 0.930 . S
H1104 C1103 0.930 . S
C1105 N1106 1.334 . S
C1105 C1107 1.394 1_455 S
C1105 H1109 0.930 . S
N1106 Gd1093 2.601 . S
N1106 C1096 1.359 1_455 S
N1106 C1105 1.334 . S
C1107 C1105 1.394 1_655 S
C1107 C1108 1.359 . S
C1107 H1119 0.930 . S
C1108 C1098 1.391 . S
C1108 C1107 1.359 . S
C1108 H1120 0.929 . S
H1109 C1105 0.930 . S
H1110 C1099 0.930 . S
H1111 C1128 0.930 . S
H1112 C1100 0.930 . S
H1113 C1101 0.930 . S
H1114 C1095 0.929 . S
H1115 C1133 0.930 . S
H1116 C1124 0.930 . S
H1117 C1125 0.930 . S
H1118 C1149 0.929 . S
H1119 C1107 0.930 . S
H1120 C1108 0.929 . S
H1121 C1150 0.930 . S
H1122 C1131 0.930 . S
N1123 Gd1092 2.661 . S
N1123 C1127 1.350 . S
N1123 C1128 1.307 . S
C1124 H1116 0.930 . S
C1124 C1125 1.355 . S
C1124 C1126 1.412 . S
C1125 H1117 0.930 . S
C1125 C1124 1.355 . S
C1125 C1128 1.402 . S
C1126 C1124 1.412 . S
C1126 C1127 1.417 . S
C1126 C1150 1.431 . S
C1127 N1123 1.350 . S
C1127 C1126 1.417 . S
C1127 C1130 1.426 . S
C1128 H1111 0.930 . S
C1128 N1123 1.307 . S
C1128 C1125 1.402 . S
N1129 Gd1092 2.601 . S
N1129 C1130 1.359 . S
N1129 C1133 1.334 . S
C1130 C1127 1.426 . S
C1130 N1129 1.359 . S
C1130 C1134 1.413 . S
C1131 H1122 0.930 . S
C1131 C1132 1.359 . S
C1131 C1133 1.394 . S
C1132 C1131 1.359 . S
C1132 C1134 1.391 . S
C1132 H1135 0.929 . S
C1133 H1115 0.930 . S
C1133 N1129 1.334 . S
C1133 C1131 1.394 . S
C1134 C1130 1.413 . S
C1134 C1132 1.391 . S
C1134 C1149 1.437 . S
H1135 C1132 0.929 . S
O1136 Gd1092 2.545 . S
O1136 C1151 1.258 . S
O1137 Gd1092 2.606 . S
O1137 Gd1093 2.362 . S
O1137 C1148 1.284 . S
O1138 Gd1093 2.324 . S
O1138 C1158 1.254 . S
O1139 Gd1092 2.429 . S
O1139 C1158 1.268 . S
O1140 Gd1092 2.545 . S
O1140 C1148 1.250 . S
O1141 Gd1092 2.412 . S
O1141 C1151 1.252 . S
O1142 Gd1093 2.545 . S
O1142 C1160 1.258 1_554 S
O1143 Gd1092 2.362 . S
O1143 Gd1093 2.606 . S
O1143 C1159 1.284 . S
O1144 Gd1092 2.324 . S
O1144 C1167 1.254 . S
O1145 Gd1093 2.429 . S
O1145 C1167 1.268 . S
O1146 Gd1093 2.545 . S
O1146 C1159 1.250 . S
O1147 Gd1093 2.412 . S
O1147 C1160 1.252 1_554 S
C1148 O1137 1.284 . S
C1148 O1140 1.250 . S
C1149 H1118 0.929 . S
C1149 C1134 1.437 . S
C1149 C1150 1.317 . S
C1150 H1121 0.930 . S
C1150 C1126 1.431 . S
C1150 C1149 1.317 . S
C1151 Gd1092 2.828 . S
C1151 O1136 1.258 . S
C1151 O1141 1.252 . S
C1151 C1152 1.497 . S
C1152 C1151 1.497 . S
C1152 C1153 1.395 . S
C1152 C1154 1.380 . S
C1153 C1152 1.395 . S
C1153 C1156 1.398 . S
C1153 H1168 0.930 . S
C1154 C1152 1.380 . S
C1154 C1155 1.391 . S
C1154 H1169 0.930 . S
C1155 C1154 1.391 . S
C1155 C1157 1.387 . S
C1156 C1153 1.398 . S
C1156 C1157 1.380 . S
C1156 H1170 0.930 . S
C1157 C1155 1.387 . S
C1157 C1156 1.380 . S
C1157 H1171 0.930 . S
C1158 O1138 1.254 . S
C1158 O1139 1.268 . S
C1159 O1143 1.284 . S
C1159 O1146 1.250 . S
C1160 Gd1093 2.828 1_556 S
C1160 O1142 1.258 1_556 S
C1160 O1147 1.252 1_556 S
C1160 C1161 1.497 . S
C1161 C1160 1.497 . S
C1161 C1162 1.395 1_455 S
C1161 C1163 1.380 . S
C1162 C1161 1.395 1_655 S
C1162 C1165 1.398 . S
C1162 H1172 0.930 . S
C1163 C1161 1.380 . S
C1163 C1164 1.391 1_455 S
C1163 H1173 0.930 . S
C1164 C1163 1.391 1_655 S
C1164 C1166 1.387 . S
C1165 C1162 1.398 . S
C1165 C1166 1.380 . S
C1165 H1174 0.930 . S
C1166 C1164 1.387 . S
C1166 C1165 1.380 . S
C1166 H1175 0.930 . S
C1167 O1144 1.254 . S
C1167 O1145 1.268 . S
H1168 C1153 0.930 . S
H1169 C1154 0.930 . S
H1170 C1156 0.930 . S
H1171 C1157 0.930 . S
H1172 C1162 0.930 . S
H1173 C1163 0.930 . S
H1174 C1165 0.930 . S
H1175 C1166 0.930 . S
Gd1176 N1207 2.661 . S
Gd1176 N1213 2.601 . S
Gd1176 O1220 2.545 . S
Gd1176 O1221 2.606 . S
Gd1176 O1223 2.429 . S
Gd1176 O1224 2.545 . S
Gd1176 O1225 2.412 . S
Gd1176 O1227 2.362 . S
Gd1176 O1228 2.324 . S
Gd1176 C1235 2.828 . S
Gd1177 N1186 2.661 . S
Gd1177 N1190 2.601 . S
Gd1177 O1221 2.362 . S
Gd1177 O1222 2.324 . S
Gd1177 O1226 2.545 . S
Gd1177 O1227 2.606 . S
Gd1177 O1229 2.429 . S
Gd1177 O1230 2.545 . S
Gd1177 O1231 2.412 . S
Gd1177 C1244 2.828 . S
C1178 C1181 1.417 . S
C1178 C1183 1.431 . S
C1178 C1184 1.412 . S
C1179 C1182 1.437 . S
C1179 C1183 1.317 . S
C1179 H1198 0.929 . S
C1180 C1181 1.426 . S
C1180 C1182 1.413 . S
C1180 N1190 1.359 . S
C1181 C1178 1.417 . S
C1181 C1180 1.426 . S
C1181 N1186 1.350 . S
C1182 C1179 1.437 . S
C1182 C1180 1.413 . S
C1182 C1192 1.391 . S
C1183 C1178 1.431 . S
C1183 C1179 1.317 . S
C1183 H1194 0.930 . S
C1184 C1178 1.412 . S
C1184 C1185 1.355 . S
C1184 H1196 0.930 . S
C1185 C1184 1.355 . S
C1185 C1187 1.402 . S
C1185 H1197 0.930 . S
N1186 Gd1177 2.661 . S
N1186 C1181 1.350 . S
N1186 C1187 1.307 . S
C1187 C1185 1.402 . S
C1187 N1186 1.307 . S
C1187 H1188 0.930 . S
H1188 C1187 0.930 . S
C1189 N1190 1.334 . S
C1189 C1191 1.394 . S
C1189 H1193 0.930 . S
N1190 Gd1177 2.601 . S
N1190 C1180 1.359 . S
N1190 C1189 1.334 . S
C1191 C1189 1.394 . S
C1191 C1192 1.359 . S
C1191 H1203 0.930 . S
C1192 C1182 1.391 . S
C1192 C1191 1.359 . S
C1192 H1204 0.929 . S
H1193 C1189 0.930 . S
H1194 C1183 0.930 . S
H1195 C1212 0.930 . S
H1196 C1184 0.930 . S
H1197 C1185 0.930 . S
H1198 C1179 0.929 . S
H1199 C1217 0.930 . S
H1200 C1208 0.930 . S
H1201 C1209 0.930 . S
H1202 C1233 0.929 . S
H1203 C1191 0.930 . S
H1204 C1192 0.929 . S
H1205 C1234 0.930 . S
H1206 C1215 0.930 . S
N1207 Gd1176 2.661 . S
N1207 C1211 1.350 . S
N1207 C1212 1.307 . S
C1208 H1200 0.930 . S
C1208 C1209 1.355 . S
C1208 C1210 1.412 . S
C1209 H1201 0.930 . S
C1209 C1208 1.355 . S
C1209 C1212 1.402 . S
C1210 C1208 1.412 . S
C1210 C1211 1.417 . S
C1210 C1234 1.431 . S
C1211 N1207 1.350 . S
C1211 C1210 1.417 . S
C1211 C1214 1.426 . S
C1212 H1195 0.930 . S
C1212 N1207 1.307 . S
C1212 C1209 1.402 . S
N1213 Gd1176 2.601 . S
N1213 C1214 1.359 . S
N1213 C1217 1.334 . S
C1214 C1211 1.426 . S
C1214 N1213 1.359 . S
C1214 C1218 1.413 . S
C1215 H1206 0.930 . S
C1215 C1216 1.359 . S
C1215 C1217 1.394 . S
C1216 C1215 1.359 . S
C1216 C1218 1.391 . S
C1216 H1219 0.929 . S
C1217 H1199 0.930 . S
C1217 N1213 1.334 . S
C1217 C1215 1.394 . S
C1218 C1214 1.413 . S
C1218 C1216 1.391 . S
C1218 C1233 1.437 . S
H1219 C1216 0.929 . S
O1220 Gd1176 2.545 . S
O1220 C1235 1.258 . S
O1221 Gd1176 2.606 . S
O1221 Gd1177 2.362 . S
O1221 C1232 1.284 . S
O1222 Gd1177 2.324 . S
O1222 C1242 1.254 . S
O1223 Gd1176 2.429 . S
O1223 C1242 1.268 . S
O1224 Gd1176 2.545 . S
O1224 C1232 1.250 . S
O1225 Gd1176 2.412 . S
O1225 C1235 1.252 . S
O1226 Gd1177 2.545 . S
O1226 C1244 1.258 . S
O1227 Gd1176 2.362 . S
O1227 Gd1177 2.606 . S
O1227 C1243 1.284 . S
O1228 Gd1176 2.324 . S
O1228 C1251 1.254 . S
O1229 Gd1177 2.429 . S
O1229 C1251 1.268 . S
O1230 Gd1177 2.545 . S
O1230 C1243 1.250 . S
O1231 Gd1177 2.412 . S
O1231 C1244 1.252 . S
C1232 O1221 1.284 . S
C1232 O1224 1.250 . S
C1233 H1202 0.929 . S
C1233 C1218 1.437 . S
C1233 C1234 1.317 . S
C1234 H1205 0.930 . S
C1234 C1210 1.431 . S
C1234 C1233 1.317 . S
C1235 Gd1176 2.828 . S
C1235 O1220 1.258 . S
C1235 O1225 1.252 . S
C1235 C1236 1.497 . S
C1236 C1235 1.497 . S
C1236 C1237 1.395 . S
C1236 C1238 1.380 . S
C1237 C1236 1.395 . S
C1237 C1240 1.398 . S
C1237 H1252 0.930 . S
C1238 C1236 1.380 . S
C1238 C1239 1.391 . S
C1238 H1253 0.930 . S
C1239 C1238 1.391 . S
C1239 C1241 1.387 . S
C1240 C1237 1.398 . S
C1240 C1241 1.380 . S
C1240 H1254 0.930 . S
C1241 C1239 1.387 . S
C1241 C1240 1.380 . S
C1241 H1255 0.930 . S
C1242 O1222 1.254 . S
C1242 O1223 1.268 . S
C1243 O1227 1.284 . S
C1243 O1230 1.250 . S
C1244 Gd1177 2.828 . S
C1244 O1226 1.258 . S
C1244 O1231 1.252 . S
C1244 C1245 1.497 . S
C1245 C1244 1.497 . S
C1245 C1246 1.395 . S
C1245 C1247 1.380 . S
C1246 C1245 1.395 . S
C1246 C1249 1.398 . S
C1246 H1256 0.930 . S
C1247 C1245 1.380 . S
C1247 C1248 1.391 . S
C1247 H1257 0.930 . S
C1248 C1247 1.391 . S
C1248 C1250 1.387 . S
C1249 C1246 1.398 . S
C1249 C1250 1.380 . S
C1249 H1258 0.930 . S
C1250 C1248 1.387 . S
C1250 C1249 1.380 . S
C1250 H1259 0.930 . S
C1251 O1228 1.254 . S
C1251 O1229 1.268 . S
H1252 C1237 0.930 . S
H1253 C1238 0.930 . S
H1254 C1240 0.930 . S
H1255 C1241 0.930 . S
H1256 C1246 0.930 . S
H1257 C1247 0.930 . S
H1258 C1249 0.930 . S
H1259 C1250 0.930 . S
Gd1260 N1291 2.661 . S
Gd1260 N1297 2.601 . S
Gd1260 O1304 2.545 . S
Gd1260 O1305 2.606 1_455 S
Gd1260 O1307 2.429 . S
Gd1260 O1308 2.545 . S
Gd1260 O1309 2.412 . S
Gd1260 O1311 2.362 . S
Gd1260 O1312 2.324 . S
Gd1260 C1319 2.828 1_556 S
Gd1261 N1270 2.661 . S
Gd1261 N1274 2.601 . S
Gd1261 O1305 2.362 . S
Gd1261 O1306 2.324 . S
Gd1261 O1310 2.545 . S
Gd1261 O1311 2.606 1_655 S
Gd1261 O1313 2.429 . S
Gd1261 O1314 2.545 . S
Gd1261 O1315 2.412 . S
Gd1261 C1328 2.828 . S
C1262 C1265 1.417 . S
C1262 C1267 1.431 . S
C1262 C1268 1.412 . S
C1263 C1266 1.437 . S
C1263 C1267 1.317 . S
C1263 H1282 0.929 . S
C1264 C1265 1.426 . S
C1264 C1266 1.413 . S
C1264 N1274 1.359 . S
C1265 C1262 1.417 . S
C1265 C1264 1.426 . S
C1265 N1270 1.350 . S
C1266 C1263 1.437 . S
C1266 C1264 1.413 . S
C1266 C1276 1.391 . S
C1267 C1262 1.431 . S
C1267 C1263 1.317 . S
C1267 H1278 0.930 . S
C1268 C1262 1.412 . S
C1268 C1269 1.355 . S
C1268 H1280 0.930 . S
C1269 C1268 1.355 . S
C1269 C1271 1.402 . S
C1269 H1281 0.930 . S
N1270 Gd1261 2.661 . S
N1270 C1265 1.350 . S
N1270 C1271 1.307 . S
C1271 C1269 1.402 . S
C1271 N1270 1.307 . S
C1271 H1272 0.930 . S
H1272 C1271 0.930 . S
C1273 N1274 1.334 . S
C1273 C1275 1.394 . S
C1273 H1277 0.930 . S
N1274 Gd1261 2.601 . S
N1274 C1264 1.359 . S
N1274 C1273 1.334 . S
C1275 C1273 1.394 . S
C1275 C1276 1.359 . S
C1275 H1287 0.930 . S
C1276 C1266 1.391 . S
C1276 C1275 1.359 . S
C1276 H1288 0.929 . S
H1277 C1273 0.930 . S
H1278 C1267 0.930 . S
H1279 C1296 0.930 . S
H1280 C1268 0.930 . S
H1281 C1269 0.930 . S
H1282 C1263 0.929 . S
H1283 C1301 0.930 . S
H1284 C1292 0.930 . S
H1285 C1293 0.930 . S
H1286 C1317 0.929 . S
H1287 C1275 0.930 . S
H1288 C1276 0.929 . S
H1289 C1318 0.930 . S
H1290 C1299 0.930 . S
N1291 Gd1260 2.661 . S
N1291 C1295 1.350 . S
N1291 C1296 1.307 . S
C1292 H1284 0.930 . S
C1292 C1293 1.355 . S
C1292 C1294 1.412 . S
C1293 H1285 0.930 . S
C1293 C1292 1.355 . S
C1293 C1296 1.402 . S
C1294 C1292 1.412 . S
C1294 C1295 1.417 . S
C1294 C1318 1.431 . S
C1295 N1291 1.350 . S
C1295 C1294 1.417 . S
C1295 C1298 1.426 . S
C1296 H1279 0.930 . S
C1296 N1291 1.307 . S
C1296 C1293 1.402 . S
N1297 Gd1260 2.601 . S
N1297 C1298 1.359 . S
N1297 C1301 1.334 . S
C1298 C1295 1.426 . S
C1298 N1297 1.359 . S
C1298 C1302 1.413 . S
C1299 H1290 0.930 . S
C1299 C1300 1.359 . S
C1299 C1301 1.394 . S
C1300 C1299 1.359 . S
C1300 C1302 1.391 . S
C1300 H1303 0.929 . S
C1301 H1283 0.930 . S
C1301 N1297 1.334 . S
C1301 C1299 1.394 . S
C1302 C1298 1.413 . S
C1302 C1300 1.391 . S
C1302 C1317 1.437 . S
H1303 C1300 0.929 . S
O1304 Gd1260 2.545 . S
O1304 C1319 1.258 1_556 S
O1305 Gd1260 2.606 1_655 S
O1305 Gd1261 2.362 . S
O1305 C1316 1.284 . S
O1306 Gd1261 2.324 . S
O1306 C1326 1.254 1_655 S
O1307 Gd1260 2.429 . S
O1307 C1326 1.268 . S
O1308 Gd1260 2.545 . S
O1308 C1316 1.250 1_455 S
O1309 Gd1260 2.412 . S
O1309 C1319 1.252 1_556 S
O1310 Gd1261 2.545 . S
O1310 C1328 1.258 . S
O1311 Gd1260 2.362 . S
O1311 Gd1261 2.606 1_455 S
O1311 C1327 1.284 . S
O1312 Gd1260 2.324 . S
O1312 C1335 1.254 1_455 S
O1313 Gd1261 2.429 . S
O1313 C1335 1.268 . S
O1314 Gd1261 2.545 . S
O1314 C1327 1.250 1_655 S
O1315 Gd1261 2.412 . S
O1315 C1328 1.252 . S
C1316 O1305 1.284 . S
C1316 O1308 1.250 1_655 S
C1317 H1286 0.929 . S
C1317 C1302 1.437 . S
C1317 C1318 1.317 . S
C1318 H1289 0.930 . S
C1318 C1294 1.431 . S
C1318 C1317 1.317 . S
C1319 Gd1260 2.828 1_554 S
C1319 O1304 1.258 1_554 S
C1319 O1309 1.252 1_554 S
C1319 C1320 1.497 . S
C1320 C1319 1.497 . S
C1320 C1321 1.395 . S
C1320 C1322 1.380 . S
C1321 C1320 1.395 . S
C1321 C1324 1.398 . S
C1321 H1336 0.930 . S
C1322 C1320 1.380 . S
C1322 C1323 1.391 . S
C1322 H1337 0.930 . S
C1323 C1322 1.391 . S
C1323 C1325 1.387 . S
C1324 C1321 1.398 . S
C1324 C1325 1.380 . S
C1324 H1338 0.930 . S
C1325 C1323 1.387 . S
C1325 C1324 1.380 . S
C1325 H1339 0.930 . S
C1326 O1306 1.254 1_455 S
C1326 O1307 1.268 . S
C1327 O1311 1.284 . S
C1327 O1314 1.250 1_455 S
C1328 Gd1261 2.828 . S
C1328 O1310 1.258 . S
C1328 O1315 1.252 . S
C1328 C1329 1.497 . S
C1329 C1328 1.497 . S
C1329 C1330 1.395 . S
C1329 C1331 1.380 . S
C1330 C1329 1.395 . S
C1330 C1333 1.398 . S
C1330 H1340 0.930 . S
C1331 C1329 1.380 . S
C1331 C1332 1.391 . S
C1331 H1341 0.930 . S
C1332 C1331 1.391 . S
C1332 C1334 1.387 . S
C1333 C1330 1.398 . S
C1333 C1334 1.380 . S
C1333 H1342 0.930 . S
C1334 C1332 1.387 . S
C1334 C1333 1.380 . S
C1334 H1343 0.930 . S
C1335 O1312 1.254 1_655 S
C1335 O1313 1.268 . S
H1336 C1321 0.930 . S
H1337 C1322 0.930 . S
H1338 C1324 0.930 . S
H1339 C1325 0.930 . S
H1340 C1330 0.930 . S
H1341 C1331 0.930 . S
H1342 C1333 0.930 . S
H1343 C1334 0.930 . S
H1344 C1356 0.930 . S
H1345 C1358 0.930 . S
H1346 C1359 0.930 . S
H1347 C1363 0.959 . S
H1348 C1363 0.959 . S
H1349 C1363 0.961 . S
H1350 C1364 0.960 . S
H1351 C1364 0.961 . S
H1352 C1364 0.959 . S
H1353 C1367 0.929 . S
H1354 C1368 0.931 . S
H1355 C1370 0.930 . S
C1356 H1344 0.930 . S
C1356 C1357 1.399 . S
C1356 C1361 1.399 . S
C1357 C1356 1.399 . S
C1357 C1358 1.376 . S
C1358 H1345 0.930 . S
C1358 C1357 1.376 . S
C1358 C1359 1.388 . S
C1359 H1346 0.930 . S
C1359 C1358 1.388 . S
C1359 C1360 1.390 . S
C1360 C1359 1.390 . S
C1360 C1361 1.394 . S
C1360 C1366 1.465 . S
C1361 C1356 1.399 . S
C1361 C1360 1.394 . S
C1361 C1362 1.516 . S
C1362 C1361 1.516 . S
C1362 C1363 1.502 . S
C1362 C1364 1.561 . S
C1362 C1365 1.526 . S
C1363 H1347 0.959 . S
C1363 H1348 0.959 . S
C1363 H1349 0.961 . S
C1363 C1362 1.502 . S
C1364 H1350 0.960 . S
C1364 H1351 0.961 . S
C1364 H1352 0.959 . S
C1364 C1362 1.561 . S
C1365 C1362 1.526 . S
C1365 C1366 1.396 . S
C1365 C1370 1.390 . S
C1366 C1360 1.465 . S
C1366 C1365 1.396 . S
C1366 C1367 1.399 . S
C1367 H1353 0.929 . S
C1367 C1366 1.399 . S
C1367 C1368 1.385 . S
C1368 H1354 0.931 . S
C1368 C1367 1.385 . S
C1368 C1369 1.389 . S
C1369 C1368 1.389 . S
C1369 C1370 1.387 . S
C1370 H1355 0.930 . S
C1370 C1365 1.390 . S
C1370 C1369 1.387 . S
H1371 C1383 0.930 . S
H1372 C1385 0.930 . S
H1373 C1386 0.930 . S
H1374 C1390 0.959 . S
H1375 C1390 0.959 . S
H1376 C1390 0.961 . S
H1377 C1391 0.960 . S
H1378 C1391 0.961 . S
H1379 C1391 0.959 . S
H1380 C1394 0.929 . S
H1381 C1395 0.931 . S
H1382 C1397 0.930 . S
C1383 H1371 0.930 . S
C1383 C1384 1.399 . S
C1383 C1388 1.399 . S
C1384 C1383 1.399 . S
C1384 C1385 1.376 . S
C1385 H1372 0.930 . S
C1385 C1384 1.376 . S
C1385 C1386 1.388 . S
C1386 H1373 0.930 . S
C1386 C1385 1.388 . S
C1386 C1387 1.390 . S
C1387 C1386 1.390 . S
C1387 C1388 1.394 . S
C1387 C1393 1.465 . S
C1388 C1383 1.399 . S
C1388 C1387 1.394 . S
C1388 C1389 1.516 . S
C1389 C1388 1.516 . S
C1389 C1390 1.502 . S
C1389 C1391 1.561 . S
C1389 C1392 1.526 . S
C1390 H1374 0.959 . S
C1390 H1375 0.959 . S
C1390 H1376 0.961 . S
C1390 C1389 1.502 . S
C1391 H1377 0.960 . S
C1391 H1378 0.961 . S
C1391 H1379 0.959 . S
C1391 C1389 1.561 . S
C1392 C1389 1.526 . S
C1392 C1393 1.396 . S
C1392 C1397 1.390 . S
C1393 C1387 1.465 . S
C1393 C1392 1.396 . S
C1393 C1394 1.399 1_554 S
C1394 H1380 0.929 . S
C1394 C1393 1.399 1_556 S
C1394 C1395 1.385 . S
C1395 H1381 0.931 . S
C1395 C1394 1.385 . S
C1395 C1396 1.389 . S
C1396 C1395 1.389 . S
C1396 C1397 1.387 1_556 S
C1397 H1382 0.930 . S
C1397 C1392 1.390 . S
C1397 C1396 1.387 1_554 S
H1398 C1410 0.930 . S
H1399 C1412 0.930 . S
H1400 C1413 0.930 . S
H1401 C1417 0.959 . S
H1402 C1417 0.959 . S
H1403 C1417 0.961 . S
H1404 C1418 0.960 . S
H1405 C1418 0.961 . S
H1406 C1418 0.959 . S
H1407 C1421 0.929 . S
H1408 C1422 0.931 . S
H1409 C1424 0.930 . S
C1410 H1398 0.930 . S
C1410 C1411 1.399 . S
C1410 C1415 1.399 . S
C1411 C1410 1.399 . S
C1411 C1412 1.376 . S
C1412 H1399 0.930 . S
C1412 C1411 1.376 . S
C1412 C1413 1.388 . S
C1413 H1400 0.930 . S
C1413 C1412 1.388 . S
C1413 C1414 1.390 . S
C1414 C1413 1.390 . S
C1414 C1415 1.394 . S
C1414 C1420 1.465 . S
C1415 C1410 1.399 . S
C1415 C1414 1.394 . S
C1415 C1416 1.516 . S
C1416 C1415 1.516 . S
C1416 C1417 1.502 . S
C1416 C1418 1.561 . S
C1416 C1419 1.526 . S
C1417 H1401 0.959 . S
C1417 H1402 0.959 . S
C1417 H1403 0.961 . S
C1417 C1416 1.502 . S
C1418 H1404 0.960 . S
C1418 H1405 0.961 . S
C1418 H1406 0.959 . S
C1418 C1416 1.561 . S
C1419 C1416 1.526 . S
C1419 C1420 1.396 . S
C1419 C1424 1.390 . S
C1420 C1414 1.465 . S
C1420 C1419 1.396 . S
C1420 C1421 1.399 . S
C1421 H1407 0.929 . S
C1421 C1420 1.399 . S
C1421 C1422 1.385 . S
C1422 H1408 0.931 . S
C1422 C1421 1.385 . S
C1422 C1423 1.389 . S
C1423 C1422 1.389 . S
C1423 C1424 1.387 . S
C1424 H1409 0.930 . S
C1424 C1419 1.390 . S
C1424 C1423 1.387 . S
H1425 C1437 0.930 . S
H1426 C1439 0.930 . S
H1427 C1440 0.930 . S
H1428 C1444 0.959 . S
H1429 C1444 0.959 . S
H1430 C1444 0.961 . S
H1431 C1445 0.960 . S
H1432 C1445 0.961 . S
H1433 C1445 0.959 . S
H1434 C1448 0.929 . S
H1435 C1449 0.931 . S
H1436 C1451 0.930 . S
C1437 H1425 0.930 . S
C1437 C1438 1.399 . S
C1437 C1442 1.399 . S
C1438 C1437 1.399 . S
C1438 C1439 1.376 . S
C1439 H1426 0.930 . S
C1439 C1438 1.376 . S
C1439 C1440 1.388 . S
C1440 H1427 0.930 . S
C1440 C1439 1.388 . S
C1440 C1441 1.390 . S
C1441 C1440 1.390 . S
C1441 C1442 1.394 . S
C1441 C1447 1.465 . S
C1442 C1437 1.399 . S
C1442 C1441 1.394 . S
C1442 C1443 1.516 . S
C1443 C1442 1.516 . S
C1443 C1444 1.502 . S
C1443 C1445 1.561 . S
C1443 C1446 1.526 . S
C1444 H1428 0.959 . S
C1444 H1429 0.959 . S
C1444 H1430 0.961 . S
C1444 C1443 1.502 . S
C1445 H1431 0.960 . S
C1445 H1432 0.961 . S
C1445 H1433 0.959 . S
C1445 C1443 1.561 . S
C1446 C1443 1.526 . S
C1446 C1447 1.396 . S
C1446 C1451 1.390 . S
C1447 C1441 1.465 . S
C1447 C1446 1.396 . S
C1447 C1448 1.399 . S
C1448 H1434 0.929 . S
C1448 C1447 1.399 . S
C1448 C1449 1.385 . S
C1449 H1435 0.931 . S
C1449 C1448 1.385 . S
C1449 C1450 1.389 . S
C1450 C1449 1.389 . S
C1450 C1451 1.387 . S
C1451 H1436 0.930 . S
C1451 C1446 1.390 . S
C1451 C1450 1.387 . S
H1452 C1464 0.930 . S
H1453 C1466 0.930 . S
H1454 C1467 0.930 . S
H1455 C1471 0.959 . S
H1456 C1471 0.959 . S
H1457 C1471 0.961 . S
H1458 C1472 0.960 . S
H1459 C1472 0.961 . S
H1460 C1472 0.959 . S
H1461 C1475 0.929 1_455 S
H1462 C1476 0.931 . S
H1463 C1478 0.930 . S
C1464 H1452 0.930 . S
C1464 C1465 1.399 . S
C1464 C1469 1.399 . S
C1465 C1464 1.399 . S
C1465 C1466 1.376 . S
C1466 H1453 0.930 . S
C1466 C1465 1.376 . S
C1466 C1467 1.388 . S
C1467 H1454 0.930 . S
C1467 C1466 1.388 . S
C1467 C1468 1.390 . S
C1468 C1467 1.390 . S
C1468 C1469 1.394 . S
C1468 C1474 1.465 . S
C1469 C1464 1.399 . S
C1469 C1468 1.394 . S
C1469 C1470 1.516 . S
C1470 C1469 1.516 . S
C1470 C1471 1.502 . S
C1470 C1472 1.561 . S
C1470 C1473 1.526 . S
C1471 H1455 0.959 . S
C1471 H1456 0.959 . S
C1471 H1457 0.961 . S
C1471 C1470 1.502 . S
C1472 H1458 0.960 . S
C1472 H1459 0.961 . S
C1472 H1460 0.959 . S
C1472 C1470 1.561 . S
C1473 C1470 1.526 . S
C1473 C1474 1.396 . S
C1473 C1478 1.390 . S
C1474 C1468 1.465 . S
C1474 C1473 1.396 . S
C1474 C1475 1.399 . S
C1475 H1461 0.929 1_655 S
C1475 C1474 1.399 . S
C1475 C1476 1.385 1_655 S
C1476 H1462 0.931 . S
C1476 C1475 1.385 1_455 S
C1476 C1477 1.389 1_455 S
C1477 C1476 1.389 1_655 S
C1477 C1478 1.387 . S
C1478 H1463 0.930 . S
C1478 C1473 1.390 . S
C1478 C1477 1.387 . S
H1479 C1491 0.930 . S
H1480 C1493 0.930 . S
H1481 C1494 0.930 . S
H1482 C1498 0.959 . S
H1483 C1498 0.959 . S
H1484 C1498 0.961 . S
H1485 C1499 0.960 . S
H1486 C1499 0.961 . S
H1487 C1499 0.959 . S
H1488 C1502 0.928 . S
H1489 C1503 0.931 1_455 S
H1490 C1505 0.934 . S
C1491 H1479 0.930 . S
C1491 C1492 1.399 . S
C1491 C1496 1.399 . S
C1492 C1491 1.399 . S
C1492 C1493 1.376 . S
C1493 H1480 0.930 . S
C1493 C1492 1.376 . S
C1493 C1494 1.388 . S
C1494 H1481 0.930 . S
C1494 C1493 1.388 . S
C1494 C1495 1.390 . S
C1495 C1494 1.390 . S
C1495 C1496 1.394 . S
C1495 C1501 1.465 . S
C1496 C1491 1.399 . S
C1496 C1495 1.394 . S
C1496 C1497 1.516 . S
C1497 C1496 1.516 . S
C1497 C1498 1.502 . S
C1497 C1499 1.561 . S
C1497 C1500 1.526 . S
C1498 H1482 0.959 . S
C1498 H1483 0.959 . S
C1498 H1484 0.961 . S
C1498 C1497 1.502 . S
C1499 H1485 0.960 . S
C1499 H1486 0.961 . S
C1499 H1487 0.959 . S
C1499 C1497 1.561 . S
C1500 C1497 1.526 . S
C1500 C1501 1.396 . S
C1500 C1505 1.382 1_556 S
C1501 C1495 1.465 . S
C1501 C1500 1.396 . S
C1501 C1502 1.399 . S
C1502 H1488 0.928 . S
C1502 C1501 1.399 . S
C1502 C1503 1.385 1_556 S
C1503 H1489 0.931 1_655 S
C1503 C1502 1.385 1_554 S
C1503 C1504 1.389 . S
C1504 C1503 1.389 . S
C1504 C1505 1.390 . S
C1505 H1490 0.934 . S
C1505 C1500 1.382 1_554 S
C1505 C1504 1.390 . S
H1506 C1518 0.930 . S
H1507 C1520 0.930 . S
H1508 C1521 0.930 . S
H1509 C1525 0.959 . S
H1510 C1525 0.959 . S
H1511 C1525 0.961 . S
H1512 C1526 0.960 . S
H1513 C1526 0.961 . S
H1514 C1526 0.959 . S
H1515 C1529 0.929 . S
H1516 C1530 0.931 . S
H1517 C1532 0.930 . S
C1518 H1506 0.930 . S
C1518 C1519 1.399 . S
C1518 C1523 1.399 . S
C1519 C1518 1.399 . S
C1519 C1520 1.376 . S
C1520 H1507 0.930 . S
C1520 C1519 1.376 . S
C1520 C1521 1.388 . S
C1521 H1508 0.930 . S
C1521 C1520 1.388 . S
C1521 C1522 1.390 . S
C1522 C1521 1.390 . S
C1522 C1523 1.394 . S
C1522 C1528 1.465 . S
C1523 C1518 1.399 . S
C1523 C1522 1.394 . S
C1523 C1524 1.516 . S
C1524 C1523 1.516 . S
C1524 C1525 1.502 . S
C1524 C1526 1.561 . S
C1524 C1527 1.526 . S
C1525 H1509 0.959 . S
C1525 H1510 0.959 . S
C1525 H1511 0.961 . S
C1525 C1524 1.502 . S
C1526 H1512 0.960 . S
C1526 H1513 0.961 . S
C1526 H1514 0.959 . S
C1526 C1524 1.561 . S
C1527 C1524 1.526 . S
C1527 C1528 1.396 . S
C1527 C1532 1.390 . S
C1528 C1522 1.465 . S
C1528 C1527 1.396 . S
C1528 C1529 1.399 . S
C1529 H1515 0.929 . S
C1529 C1528 1.399 . S
C1529 C1530 1.385 . S
C1530 H1516 0.931 . S
C1530 C1529 1.385 . S
C1530 C1531 1.389 . S
C1531 C1530 1.389 . S
C1531 C1532 1.387 . S
C1532 H1517 0.930 . S
C1532 C1527 1.390 . S
C1532 C1531 1.387 . S
H1533 C1545 0.930 . S
H1534 C1547 0.930 . S
H1535 C1548 0.930 . S
H1536 C1552 0.959 . S
H1537 C1552 0.959 . S
H1538 C1552 0.961 . S
H1539 C1553 0.960 . S
H1540 C1553 0.961 . S
H1541 C1553 0.959 . S
H1542 C1556 0.929 . S
H1543 C1557 0.931 . S
H1544 C1559 0.930 . S
C1545 H1533 0.930 . S
C1545 C1546 1.399 . S
C1545 C1550 1.399 . S
C1546 C1545 1.399 . S
C1546 C1547 1.376 . S
C1547 H1534 0.930 . S
C1547 C1546 1.376 . S
C1547 C1548 1.388 . S
C1548 H1535 0.930 . S
C1548 C1547 1.388 . S
C1548 C1549 1.390 . S
C1549 C1548 1.390 . S
C1549 C1550 1.394 . S
C1549 C1555 1.465 . S
C1550 C1545 1.399 . S
C1550 C1549 1.394 . S
C1550 C1551 1.516 . S
C1551 C1550 1.516 . S
C1551 C1552 1.502 . S
C1551 C1553 1.561 . S
C1551 C1554 1.526 . S
C1552 H1536 0.959 . S
C1552 H1537 0.959 . S
C1552 H1538 0.961 . S
C1552 C1551 1.502 . S
C1553 H1539 0.960 . S
C1553 H1540 0.961 . S
C1553 H1541 0.959 . S
C1553 C1551 1.561 . S
C1554 C1551 1.526 . S
C1554 C1555 1.396 . S
C1554 C1559 1.390 . S
C1555 C1549 1.465 . S
C1555 C1554 1.396 . S
C1555 C1556 1.399 . S
C1556 H1542 0.929 . S
C1556 C1555 1.399 . S
C1556 C1557 1.385 . S
C1557 H1543 0.931 . S
C1557 C1556 1.385 . S
C1557 C1558 1.389 . S
C1558 C1557 1.389 . S
C1558 C1559 1.387 . S
C1559 H1544 0.930 . S
C1559 C1554 1.390 . S
C1559 C1558 1.387 . S
H1560 C1572 0.930 . S
H1561 C1574 0.930 . S
H1562 C1575 0.930 . S
H1563 C1579 0.959 . S
H1564 C1579 0.959 . S
H1565 C1579 0.961 . S
H1566 C1580 0.960 . S
H1567 C1580 0.961 . S
H1568 C1580 0.959 . S
H1569 C1583 0.929 . S
H1570 C1584 0.931 . S
H1571 C1586 0.930 . S
C1572 H1560 0.930 . S
C1572 C1573 1.399 . S
C1572 C1577 1.399 . S
C1573 C1572 1.399 . S
C1573 C1574 1.376 . S
C1574 H1561 0.930 . S
C1574 C1573 1.376 . S
C1574 C1575 1.388 . S
C1575 H1562 0.930 . S
C1575 C1574 1.388 . S
C1575 C1576 1.390 . S
C1576 C1575 1.390 . S
C1576 C1577 1.394 . S
C1576 C1582 1.465 . S
C1577 C1572 1.399 . S
C1577 C1576 1.394 . S
C1577 C1578 1.516 . S
C1578 C1577 1.516 . S
C1578 C1579 1.502 . S
C1578 C1580 1.561 . S
C1578 C1581 1.526 . S
C1579 H1563 0.959 . S
C1579 H1564 0.959 . S
C1579 H1565 0.961 . S
C1579 C1578 1.502 . S
C1580 H1566 0.960 . S
C1580 H1567 0.961 . S
C1580 H1568 0.959 . S
C1580 C1578 1.561 . S
C1581 C1578 1.526 . S
C1581 C1582 1.396 . S
C1581 C1586 1.390 . S
C1582 C1576 1.465 . S
C1582 C1581 1.396 . S
C1582 C1583 1.399 . S
C1583 H1569 0.929 . S
C1583 C1582 1.399 . S
C1583 C1584 1.385 . S
C1584 H1570 0.931 . S
C1584 C1583 1.385 . S
C1584 C1585 1.389 . S
C1585 C1584 1.389 . S
C1585 C1586 1.387 . S
C1586 H1571 0.930 . S
C1586 C1581 1.390 . S
C1586 C1585 1.387 . S
H1587 C1599 0.930 . S
H1588 C1601 0.930 . S
H1589 C1602 0.930 . S
H1590 C1606 0.959 . S
H1591 C1606 0.959 . S
H1592 C1606 0.961 . S
H1593 C1607 0.960 . S
H1594 C1607 0.961 . S
H1595 C1607 0.959 . S
H1596 C1610 0.929 . S
H1597 C1611 0.931 . S
H1598 C1613 0.930 . S
C1599 H1587 0.930 . S
C1599 C1600 1.399 . S
C1599 C1604 1.399 . S
C1600 C1599 1.399 . S
C1600 C1601 1.376 . S
C1601 H1588 0.930 . S
C1601 C1600 1.376 . S
C1601 C1602 1.388 . S
C1602 H1589 0.930 . S
C1602 C1601 1.388 . S
C1602 C1603 1.390 . S
C1603 C1602 1.390 . S
C1603 C1604 1.394 . S
C1603 C1609 1.465 . S
C1604 C1599 1.399 . S
C1604 C1603 1.394 . S
C1604 C1605 1.516 . S
C1605 C1604 1.516 . S
C1605 C1606 1.502 . S
C1605 C1607 1.561 . S
C1605 C1608 1.526 . S
C1606 H1590 0.959 . S
C1606 H1591 0.959 . S
C1606 H1592 0.961 . S
C1606 C1605 1.502 . S
C1607 H1593 0.960 . S
C1607 H1594 0.961 . S
C1607 H1595 0.959 . S
C1607 C1605 1.561 . S
C1608 C1605 1.526 . S
C1608 C1609 1.396 . S
C1608 C1613 1.390 . S
C1609 C1603 1.465 . S
C1609 C1608 1.396 . S
C1609 C1610 1.399 . S
C1610 H1596 0.929 . S
C1610 C1609 1.399 . S
C1610 C1611 1.385 . S
C1611 H1597 0.931 . S
C1611 C1610 1.385 . S
C1611 C1612 1.389 . S
C1612 C1611 1.389 . S
C1612 C1613 1.387 . S
C1613 H1598 0.930 . S
C1613 C1608 1.390 . S
C1613 C1612 1.387 . S
H1614 C1626 0.930 . S
H1615 C1628 0.930 . S
H1616 C1629 0.930 . S
H1617 C1633 0.959 . S
H1618 C1633 0.959 . S
H1619 C1633 0.961 . S
H1620 C1634 0.960 . S
H1621 C1634 0.961 . S
H1622 C1634 0.959 . S
H1623 C1637 0.929 . S
H1624 C1638 0.931 . S
H1625 C1640 0.930 . S
C1626 H1614 0.930 . S
C1626 C1627 1.399 1_455 S
C1626 C1631 1.399 1_455 S
C1627 C1626 1.399 1_655 S
C1627 C1628 1.376 . S
C1628 H1615 0.930 . S
C1628 C1627 1.376 . S
C1628 C1629 1.388 . S
C1629 H1616 0.930 . S
C1629 C1628 1.388 . S
C1629 C1630 1.390 . S
C1630 C1629 1.390 . S
C1630 C1631 1.394 . S
C1630 C1636 1.465 . S
C1631 C1626 1.399 1_655 S
C1631 C1630 1.394 . S
C1631 C1632 1.516 1_655 S
C1632 C1631 1.516 1_455 S
C1632 C1633 1.502 . S
C1632 C1634 1.561 . S
C1632 C1635 1.526 1_455 S
C1633 H1617 0.959 . S
C1633 H1618 0.959 . S
C1633 H1619 0.961 . S
C1633 C1632 1.502 . S
C1634 H1620 0.960 . S
C1634 H1621 0.961 . S
C1634 H1622 0.959 . S
C1634 C1632 1.561 . S
C1635 C1632 1.526 1_655 S
C1635 C1636 1.396 . S
C1635 C1640 1.390 . S
C1636 C1630 1.465 . S
C1636 C1635 1.396 . S
C1636 C1637 1.399 . S
C1637 H1623 0.929 . S
C1637 C1636 1.399 . S
C1637 C1638 1.385 . S
C1638 H1624 0.931 . S
C1638 C1637 1.385 . S
C1638 C1639 1.389 . S
C1639 C1638 1.389 . S
C1639 C1640 1.387 . S
C1640 H1625 0.930 . S
C1640 C1635 1.390 . S
C1640 C1639 1.387 . S
H1641 C1653 0.930 . S
H1642 C1655 0.930 . S
H1643 C1656 0.930 . S
H1644 C1660 0.959 . S
H1645 C1660 0.959 . S
H1646 C1660 0.961 . S
H1647 C1661 0.960 . S
H1648 C1661 0.961 . S
H1649 C1661 0.959 . S
H1650 C1664 0.929 . S
H1651 C1665 0.931 . S
H1652 C1667 0.930 . S
C1653 H1641 0.930 . S
C1653 C1654 1.399 . S
C1653 C1658 1.399 . S
C1654 C1653 1.399 . S
C1654 C1655 1.376 . S
C1655 H1642 0.930 . S
C1655 C1654 1.376 . S
C1655 C1656 1.388 . S
C1656 H1643 0.930 . S
C1656 C1655 1.388 . S
C1656 C1657 1.390 . S
C1657 C1656 1.390 . S
C1657 C1658 1.394 . S
C1657 C1663 1.465 . S
C1658 C1653 1.399 . S
C1658 C1657 1.394 . S
C1658 C1659 1.516 . S
C1659 C1658 1.516 . S
C1659 C1660 1.502 . S
C1659 C1661 1.561 . S
C1659 C1662 1.526 . S
C1660 H1644 0.959 . S
C1660 H1645 0.959 . S
C1660 H1646 0.961 . S
C1660 C1659 1.502 . S
C1661 H1647 0.960 . S
C1661 H1648 0.961 . S
C1661 H1649 0.959 . S
C1661 C1659 1.561 . S
C1662 C1659 1.526 . S
C1662 C1663 1.396 . S
C1662 C1667 1.390 . S
C1663 C1657 1.465 . S
C1663 C1662 1.396 . S
C1663 C1664 1.399 . S
C1664 H1650 0.929 . S
C1664 C1663 1.399 . S
C1664 C1665 1.385 . S
C1665 H1651 0.931 . S
C1665 C1664 1.385 . S
C1665 C1666 1.389 . S
C1666 C1665 1.389 . S
C1666 C1667 1.387 . S
C1667 H1652 0.930 . S
C1667 C1662 1.390 . S
C1667 C1666 1.387 . S
H1668 C1680 0.930 . S
H1669 C1682 0.930 . S
H1670 C1683 0.930 . S
H1671 C1687 0.959 . S
H1672 C1687 0.959 . S
H1673 C1687 0.961 . S
H1674 C1688 0.960 . S
H1675 C1688 0.961 . S
H1676 C1688 0.959 . S
H1677 C1691 0.929 . S
H1678 C1692 0.931 . S
H1679 C1694 0.930 . S
C1680 H1668 0.930 . S
C1680 C1681 1.399 . S
C1680 C1685 1.399 . S
C1681 C1680 1.399 . S
C1681 C1682 1.376 . S
C1682 H1669 0.930 . S
C1682 C1681 1.376 . S
C1682 C1683 1.388 . S
C1683 H1670 0.930 . S
C1683 C1682 1.388 . S
C1683 C1684 1.390 . S
C1684 C1683 1.390 . S
C1684 C1685 1.394 . S
C1684 C1690 1.465 . S
C1685 C1680 1.399 . S
C1685 C1684 1.394 . S
C1685 C1686 1.516 . S
C1686 C1685 1.516 . S
C1686 C1687 1.502 . S
C1686 C1688 1.561 . S
C1686 C1689 1.526 . S
C1687 H1671 0.959 . S
C1687 H1672 0.959 . S
C1687 H1673 0.961 . S
C1687 C1686 1.502 . S
C1688 H1674 0.960 . S
C1688 H1675 0.961 . S
C1688 H1676 0.959 . S
C1688 C1686 1.561 . S
C1689 C1686 1.526 . S
C1689 C1690 1.396 . S
C1689 C1694 1.390 . S
C1690 C1684 1.465 . S
C1690 C1689 1.396 . S
C1690 C1691 1.399 . S
C1691 H1677 0.929 . S
C1691 C1690 1.399 . S
C1691 C1692 1.385 . S
C1692 H1678 0.931 . S
C1692 C1691 1.385 . S
C1692 C1693 1.389 . S
C1693 C1692 1.389 . S
C1693 C1694 1.387 . S
C1694 H1679 0.930 . S
C1694 C1689 1.390 . S
C1694 C1693 1.387 . S
H1695 C1707 0.930 . S
H1696 C1709 0.930 . S
H1697 C1710 0.930 . S
H1698 C1714 0.959 . S
H1699 C1714 0.959 . S
H1700 C1714 0.961 . S
H1701 C1715 0.960 . S
H1702 C1715 0.961 . S
H1703 C1715 0.959 . S
H1704 C1718 0.929 . S
H1705 C1719 0.931 . S
H1706 C1721 0.930 . S
C1707 H1695 0.930 . S
C1707 C1708 1.399 . S
C1707 C1712 1.399 . S
C1708 C1707 1.399 . S
C1708 C1709 1.376 . S
C1709 H1696 0.930 . S
C1709 C1708 1.376 . S
C1709 C1710 1.388 . S
C1710 H1697 0.930 . S
C1710 C1709 1.388 . S
C1710 C1711 1.390 . S
C1711 C1710 1.390 . S
C1711 C1712 1.394 . S
C1711 C1717 1.465 . S
C1712 C1707 1.399 . S
C1712 C1711 1.394 . S
C1712 C1713 1.516 . S
C1713 C1712 1.516 . S
C1713 C1714 1.502 . S
C1713 C1715 1.561 . S
C1713 C1716 1.526 . S
C1714 H1698 0.959 . S
C1714 H1699 0.959 . S
C1714 H1700 0.961 . S
C1714 C1713 1.502 . S
C1715 H1701 0.960 . S
C1715 H1702 0.961 . S
C1715 H1703 0.959 . S
C1715 C1713 1.561 . S
C1716 C1713 1.526 . S
C1716 C1717 1.396 . S
C1716 C1721 1.390 . S
C1717 C1711 1.465 . S
C1717 C1716 1.396 . S
C1717 C1718 1.399 . S
C1718 H1704 0.929 . S
C1718 C1717 1.399 . S
C1718 C1719 1.385 . S
C1719 H1705 0.931 . S
C1719 C1718 1.385 . S
C1719 C1720 1.389 . S
C1720 C1719 1.389 . S
C1720 C1721 1.387 . S
C1721 H1706 0.930 . S
C1721 C1716 1.390 . S
C1721 C1720 1.387 . S
H1722 C1734 0.930 . S
H1723 C1736 0.930 . S
H1724 C1737 0.930 . S
H1725 C1741 0.959 . S
H1726 C1741 0.959 . S
H1727 C1741 0.961 . S
H1728 C1742 0.960 . S
H1729 C1742 0.961 . S
H1730 C1742 0.959 . S
H1731 C1745 0.929 . S
H1732 C1746 0.931 . S
H1733 C1748 0.930 . S
C1734 H1722 0.930 . S
C1734 C1735 1.399 . S
C1734 C1739 1.399 . S
C1735 C1734 1.399 . S
C1735 C1736 1.376 . S
C1736 H1723 0.930 . S
C1736 C1735 1.376 . S
C1736 C1737 1.388 . S
C1737 H1724 0.930 . S
C1737 C1736 1.388 . S
C1737 C1738 1.390 . S
C1738 C1737 1.390 . S
C1738 C1739 1.394 . S
C1738 C1744 1.465 . S
C1739 C1734 1.399 . S
C1739 C1738 1.394 . S
C1739 C1740 1.516 . S
C1740 C1739 1.516 . S
C1740 C1741 1.502 . S
C1740 C1742 1.561 . S
C1740 C1743 1.526 . S
C1741 H1725 0.959 . S
C1741 H1726 0.959 . S
C1741 H1727 0.961 . S
C1741 C1740 1.502 . S
C1742 H1728 0.960 . S
C1742 H1729 0.961 . S
C1742 H1730 0.959 . S
C1742 C1740 1.561 . S
C1743 C1740 1.526 . S
C1743 C1744 1.396 . S
C1743 C1748 1.390 . S
C1744 C1738 1.465 . S
C1744 C1743 1.396 . S
C1744 C1745 1.399 . S
C1745 H1731 0.929 . S
C1745 C1744 1.399 . S
C1745 C1746 1.385 . S
C1746 H1732 0.931 . S
C1746 C1745 1.385 . S
C1746 C1747 1.389 . S
C1747 C1746 1.389 . S
C1747 C1748 1.387 . S
C1748 H1733 0.930 . S
C1748 C1743 1.390 . S
C1748 C1747 1.387 . S
H1749 C1761 0.930 . S
H1750 C1763 0.930 . S
H1751 C1764 0.930 . S
H1752 C1768 0.959 . S
H1753 C1768 0.959 . S
H1754 C1768 0.961 . S
H1755 C1769 0.960 . S
H1756 C1769 0.961 . S
H1757 C1769 0.959 . S
H1758 C1772 0.929 . S
H1759 C1773 0.931 . S
H1760 C1775 0.930 . S
C1761 H1749 0.930 . S
C1761 C1762 1.399 . S
C1761 C1766 1.399 . S
C1762 C1761 1.399 . S
C1762 C1763 1.376 . S
C1763 H1750 0.930 . S
C1763 C1762 1.376 . S
C1763 C1764 1.388 . S
C1764 H1751 0.930 . S
C1764 C1763 1.388 . S
C1764 C1765 1.390 . S
C1765 C1764 1.390 . S
C1765 C1766 1.394 . S
C1765 C1771 1.465 . S
C1766 C1761 1.399 . S
C1766 C1765 1.394 . S
C1766 C1767 1.516 . S
C1767 C1766 1.516 . S
C1767 C1768 1.502 . S
C1767 C1769 1.561 . S
C1767 C1770 1.526 . S
C1768 H1752 0.959 . S
C1768 H1753 0.959 . S
C1768 H1754 0.961 . S
C1768 C1767 1.502 . S
C1769 H1755 0.960 . S
C1769 H1756 0.961 . S
C1769 H1757 0.959 . S
C1769 C1767 1.561 . S
C1770 C1767 1.526 . S
C1770 C1771 1.396 . S
C1770 C1775 1.390 . S
C1771 C1765 1.465 . S
C1771 C1770 1.396 . S
C1771 C1772 1.399 . S
C1772 H1758 0.929 . S
C1772 C1771 1.399 . S
C1772 C1773 1.385 . S
C1773 H1759 0.931 . S
C1773 C1772 1.385 . S
C1773 C1774 1.389 . S
C1774 C1773 1.389 . S
C1774 C1775 1.387 . S
C1775 H1760 0.930 . S
C1775 C1770 1.390 . S
C1775 C1774 1.387 . S
H1776 C1788 0.930 . S
H1777 C1790 0.930 . S
H1778 C1791 0.930 . S
H1779 C1795 0.959 . S
H1780 C1795 0.959 . S
H1781 C1795 0.961 . S
H1782 C1796 0.960 . S
H1783 C1796 0.961 . S
H1784 C1796 0.959 . S
H1785 C1799 0.929 . S
H1786 C1800 0.931 . S
H1787 C1802 0.930 . S
C1788 H1776 0.930 . S
C1788 C1789 1.399 . S
C1788 C1793 1.399 . S
C1789 C1788 1.399 . S
C1789 C1790 1.376 . S
C1790 H1777 0.930 . S
C1790 C1789 1.376 . S
C1790 C1791 1.388 . S
C1791 H1778 0.930 . S
C1791 C1790 1.388 . S
C1791 C1792 1.390 . S
C1792 C1791 1.390 . S
C1792 C1793 1.394 . S
C1792 C1798 1.465 . S
C1793 C1788 1.399 . S
C1793 C1792 1.394 . S
C1793 C1794 1.516 . S
C1794 C1793 1.516 . S
C1794 C1795 1.502 . S
C1794 C1796 1.561 . S
C1794 C1797 1.526 . S
C1795 H1779 0.959 . S
C1795 H1780 0.959 . S
C1795 H1781 0.961 . S
C1795 C1794 1.502 . S
C1796 H1782 0.960 . S
C1796 H1783 0.961 . S
C1796 H1784 0.959 . S
C1796 C1794 1.561 . S
C1797 C1794 1.526 . S
C1797 C1798 1.396 . S
C1797 C1802 1.390 . S
C1798 C1792 1.465 . S
C1798 C1797 1.396 . S
C1798 C1799 1.399 . S
C1799 H1785 0.929 . S
C1799 C1798 1.399 . S
C1799 C1800 1.385 . S
C1800 H1786 0.931 . S
C1800 C1799 1.385 . S
C1800 C1801 1.389 . S
C1801 C1800 1.389 . S
C1801 C1802 1.387 . S
C1802 H1787 0.930 . S
C1802 C1797 1.390 . S
C1802 C1801 1.387 . S
H1803 C1815 0.930 . S
H1804 C1817 0.930 . S
H1805 C1818 0.921 1_455 S
H1806 C1822 0.959 . S
H1807 C1822 0.959 . S
H1808 C1822 0.961 1_655 S
H1809 C1823 0.960 . S
H1810 C1823 0.961 . S
H1811 C1823 0.959 . S
H1812 C1826 0.929 . S
H1813 C1827 0.931 . S
H1814 C1829 0.930 . S
C1815 H1803 0.930 . S
C1815 C1816 1.399 . S
C1815 C1820 1.399 1_655 S
C1816 C1815 1.399 . S
C1816 C1817 1.376 . S
C1817 H1804 0.930 . S
C1817 C1816 1.376 . S
C1817 C1818 1.420 . S
C1818 H1805 0.921 1_655 S
C1818 C1817 1.420 . S
C1818 C1819 1.368 1_655 S
C1819 C1818 1.368 1_455 S
C1819 C1820 1.394 . S
C1819 C1825 1.465 . S
C1820 C1815 1.399 1_455 S
C1820 C1819 1.394 . S
C1820 C1821 1.516 . S
C1821 C1820 1.516 . S
C1821 C1822 1.502 . S
C1821 C1823 1.561 . S
C1821 C1824 1.526 . S
C1822 H1806 0.959 . S
C1822 H1807 0.959 . S
C1822 H1808 0.961 1_455 S
C1822 C1821 1.502 . S
C1823 H1809 0.960 . S
C1823 H1810 0.961 . S
C1823 H1811 0.959 . S
C1823 C1821 1.561 . S
C1824 C1821 1.526 . S
C1824 C1825 1.396 . S
C1824 C1829 1.390 . S
C1825 C1819 1.465 . S
C1825 C1824 1.396 . S
C1825 C1826 1.399 . S
C1826 H1812 0.929 . S
C1826 C1825 1.399 . S
C1826 C1827 1.385 . S
C1827 H1813 0.931 . S
C1827 C1826 1.385 . S
C1827 C1828 1.389 . S
C1828 C1827 1.389 . S
C1828 C1829 1.387 . S
C1829 H1814 0.930 . S
C1829 C1824 1.390 . S
C1829 C1828 1.387 . S
H1830 C1842 0.930 . S
H1831 C1844 0.930 . S
H1832 C1845 0.930 . S
H1833 C1849 0.959 . S
H1834 C1849 0.959 . S
H1835 C1849 0.961 . S
H1836 C1850 0.960 . S
H1837 C1850 0.961 . S
H1838 C1850 0.959 . S
H1839 C1853 0.929 . S
H1840 C1854 0.931 . S
H1841 C1856 0.930 . S
C1842 H1830 0.930 . S
C1842 C1843 1.399 . S
C1842 C1847 1.399 . S
C1843 C1842 1.399 . S
C1843 C1844 1.376 . S
C1844 H1831 0.930 . S
C1844 C1843 1.376 . S
C1844 C1845 1.388 . S
C1845 H1832 0.930 . S
C1845 C1844 1.388 . S
C1845 C1846 1.390 . S
C1846 C1845 1.390 . S
C1846 C1847 1.394 . S
C1846 C1852 1.465 . S
C1847 C1842 1.399 . S
C1847 C1846 1.394 . S
C1847 C1848 1.516 . S
C1848 C1847 1.516 . S
C1848 C1849 1.502 . S
C1848 C1850 1.561 . S
C1848 C1851 1.526 . S
C1849 H1833 0.959 . S
C1849 H1834 0.959 . S
C1849 H1835 0.961 . S
C1849 C1848 1.502 . S
C1850 H1836 0.960 . S
C1850 H1837 0.961 . S
C1850 H1838 0.959 . S
C1850 C1848 1.561 . S
C1851 C1848 1.526 . S
C1851 C1852 1.396 . S
C1851 C1856 1.390 . S
C1852 C1846 1.465 . S
C1852 C1851 1.396 . S
C1852 C1853 1.399 . S
C1853 H1839 0.929 . S
C1853 C1852 1.399 . S
C1853 C1854 1.385 . S
C1854 H1840 0.931 . S
C1854 C1853 1.385 . S
C1854 C1855 1.389 . S
C1855 C1854 1.389 . S
C1855 C1856 1.387 . S
C1856 H1841 0.930 . S
C1856 C1851 1.390 . S
C1856 C1855 1.387 . S
H1857 C1869 0.930 . S
H1858 C1871 0.930 . S
H1859 C1872 0.930 . S
H1860 C1876 0.959 . S
H1861 C1876 0.959 . S
H1862 C1876 0.961 . S
H1863 C1877 0.960 . S
H1864 C1877 0.961 . S
H1865 C1877 0.959 . S
H1866 C1880 0.929 . S
H1867 C1881 0.931 . S
H1868 C1883 0.930 . S
C1869 H1857 0.930 . S
C1869 C1870 1.399 . S
C1869 C1874 1.399 . S
C1870 C1869 1.399 . S
C1870 C1871 1.376 . S
C1871 H1858 0.930 . S
C1871 C1870 1.376 . S
C1871 C1872 1.388 . S
C1872 H1859 0.930 . S
C1872 C1871 1.388 . S
C1872 C1873 1.390 . S
C1873 C1872 1.390 . S
C1873 C1874 1.394 . S
C1873 C1879 1.465 . S
C1874 C1869 1.399 . S
C1874 C1873 1.394 . S
C1874 C1875 1.516 . S
C1875 C1874 1.516 . S
C1875 C1876 1.502 . S
C1875 C1877 1.561 . S
C1875 C1878 1.526 . S
C1876 H1860 0.959 . S
C1876 H1861 0.959 . S
C1876 H1862 0.961 . S
C1876 C1875 1.502 . S
C1877 H1863 0.960 . S
C1877 H1864 0.961 . S
C1877 H1865 0.959 . S
C1877 C1875 1.561 . S
C1878 C1875 1.526 . S
C1878 C1879 1.396 . S
C1878 C1883 1.390 . S
C1879 C1873 1.465 . S
C1879 C1878 1.396 . S
C1879 C1880 1.399 . S
C1880 H1866 0.929 . S
C1880 C1879 1.399 . S
C1880 C1881 1.385 . S
C1881 H1867 0.931 . S
C1881 C1880 1.385 . S
C1881 C1882 1.389 . S
C1882 C1881 1.389 . S
C1882 C1883 1.387 . S
C1883 H1868 0.930 . S
C1883 C1878 1.390 . S
C1883 C1882 1.387 . S
H1884 C1896 0.930 . S
H1885 C1898 0.930 . S
H1886 C1899 0.930 . S
H1887 C1903 0.959 . S
H1888 C1903 0.959 . S
H1889 C1903 0.961 . S
H1890 C1904 0.960 . S
H1891 C1904 0.961 . S
H1892 C1904 0.959 . S
H1893 C1907 0.929 . S
H1894 C1908 0.931 . S
H1895 C1910 0.930 1_655 S
C1896 H1884 0.930 . S
C1896 C1897 1.399 . S
C1896 C1901 1.399 . S
C1897 C1896 1.399 . S
C1897 C1898 1.376 . S
C1898 H1885 0.930 . S
C1898 C1897 1.376 . S
C1898 C1899 1.388 . S
C1899 H1886 0.930 . S
C1899 C1898 1.388 . S
C1899 C1900 1.390 . S
C1900 C1899 1.390 . S
C1900 C1901 1.394 . S
C1900 C1906 1.465 . S
C1901 C1896 1.399 . S
C1901 C1900 1.394 . S
C1901 C1902 1.516 . S
C1902 C1901 1.516 . S
C1902 C1903 1.502 1_455 S
C1902 C1904 1.561 . S
C1902 C1905 1.526 . S
C1903 H1887 0.959 . S
C1903 H1888 0.959 . S
C1903 H1889 0.961 . S
C1903 C1902 1.502 1_655 S
C1904 H1890 0.960 . S
C1904 H1891 0.961 . S
C1904 H1892 0.959 . S
C1904 C1902 1.561 . S
C1905 C1902 1.526 . S
C1905 C1906 1.396 . S
C1905 C1910 1.390 . S
C1906 C1900 1.465 . S
C1906 C1905 1.396 . S
C1906 C1907 1.399 . S
C1907 H1893 0.929 . S
C1907 C1906 1.399 . S
C1907 C1908 1.385 . S
C1908 H1894 0.931 . S
C1908 C1907 1.385 . S
C1908 C1909 1.389 . S
C1909 C1908 1.389 . S
C1909 C1910 1.387 . S
C1910 H1895 0.930 1_455 S
C1910 C1905 1.390 . S
C1910 C1909 1.387 . S
H1911 C1923 0.930 . S
H1912 C1925 0.930 . S
H1913 C1926 0.930 . S
H1914 C1930 0.959 . S
H1915 C1930 0.959 . S
H1916 C1930 0.961 . S
H1917 C1931 0.950 1_556 S
H1918 C1931 0.961 1_556 S
H1919 C1931 0.959 . S
H1920 C1934 0.929 . S
H1921 C1935 0.931 . S
H1922 C1937 0.930 . S
C1923 H1911 0.930 . S
C1923 C1924 1.399 . S
C1923 C1928 1.399 . S
C1924 C1923 1.399 . S
C1924 C1925 1.376 . S
C1925 H1912 0.930 . S
C1925 C1924 1.376 . S
C1925 C1926 1.388 . S
C1926 H1913 0.930 . S
C1926 C1925 1.388 . S
C1926 C1927 1.390 . S
C1927 C1926 1.390 . S
C1927 C1928 1.394 . S
C1927 C1933 1.465 . S
C1928 C1923 1.399 . S
C1928 C1927 1.394 . S
C1928 C1929 1.516 . S
C1929 C1928 1.516 . S
C1929 C1930 1.502 . S
C1929 C1931 1.561 . S
C1929 C1932 1.526 . S
C1930 H1914 0.959 . S
C1930 H1915 0.959 . S
C1930 H1916 0.961 . S
C1930 C1929 1.502 . S
C1931 H1917 0.950 1_554 S
C1931 H1918 0.961 1_554 S
C1931 H1919 0.959 . S
C1931 C1929 1.561 . S
C1932 C1929 1.526 . S
C1932 C1933 1.396 . S
C1932 C1937 1.390 . S
C1933 C1927 1.465 . S
C1933 C1932 1.396 . S
C1933 C1934 1.399 . S
C1934 H1920 0.929 . S
C1934 C1933 1.399 . S
C1934 C1935 1.385 . S
C1935 H1921 0.931 . S
C1935 C1934 1.385 . S
C1935 C1936 1.389 . S
C1936 C1935 1.389 . S
C1936 C1937 1.387 . S
C1937 H1922 0.930 . S
C1937 C1932 1.390 . S
C1937 C1936 1.387 . S
H1938 C1950 0.930 . S
H1939 C1952 0.930 . S
H1940 C1953 0.930 . S
H1941 C1957 0.959 . S
H1942 C1957 0.959 . S
H1943 C1957 0.961 . S
H1944 C1958 0.960 . S
H1945 C1958 0.961 . S
H1946 C1958 0.959 . S
H1947 C1961 0.929 . S
H1948 C1962 0.931 . S
H1949 C1964 0.930 . S
C1950 H1938 0.930 . S
C1950 C1951 1.399 . S
C1950 C1955 1.399 . S
C1951 C1950 1.399 . S
C1951 C1952 1.376 . S
C1952 H1939 0.930 . S
C1952 C1951 1.376 . S
C1952 C1953 1.388 . S
C1953 H1940 0.930 . S
C1953 C1952 1.388 . S
C1953 C1954 1.390 . S
C1954 C1953 1.390 . S
C1954 C1955 1.394 . S
C1954 C1960 1.465 . S
C1955 C1950 1.399 . S
C1955 C1954 1.394 . S
C1955 C1956 1.516 . S
C1956 C1955 1.516 . S
C1956 C1957 1.502 . S
C1956 C1958 1.561 . S
C1956 C1959 1.526 . S
C1957 H1941 0.959 . S
C1957 H1942 0.959 . S
C1957 H1943 0.961 . S
C1957 C1956 1.502 . S
C1958 H1944 0.960 . S
C1958 H1945 0.961 . S
C1958 H1946 0.959 . S
C1958 C1956 1.561 . S
C1959 C1956 1.526 . S
C1959 C1960 1.396 . S
C1959 C1964 1.390 . S
C1960 C1954 1.465 . S
C1960 C1959 1.396 . S
C1960 C1961 1.399 . S
C1961 H1947 0.929 . S
C1961 C1960 1.399 . S
C1961 C1962 1.385 . S
C1962 H1948 0.931 . S
C1962 C1961 1.385 . S
C1962 C1963 1.389 . S
C1963 C1962 1.389 . S
C1963 C1964 1.387 . S
C1964 H1949 0.930 . S
C1964 C1959 1.390 . S
C1964 C1963 1.387 . S
H1965 C1977 0.930 . S
H1966 C1979 0.930 . S
H1967 C1980 0.930 . S
H1968 C1984 0.959 . S
H1969 C1984 0.959 . S
H1970 C1984 0.961 . S
H1971 C1985 0.960 . S
H1972 C1985 0.961 . S
H1973 C1985 0.959 . S
H1974 C1988 0.929 . S
H1975 C1989 0.934 . S
H1976 C1991 0.930 1_655 S
C1977 H1965 0.930 . S
C1977 C1978 1.399 . S
C1977 C1982 1.399 . S
C1978 C1977 1.399 . S
C1978 C1979 1.376 . S
C1979 H1966 0.930 . S
C1979 C1978 1.376 . S
C1979 C1980 1.388 . S
C1980 H1967 0.930 . S
C1980 C1979 1.388 . S
C1980 C1981 1.390 . S
C1981 C1980 1.390 . S
C1981 C1982 1.394 . S
C1981 C1987 1.465 . S
C1982 C1977 1.399 . S
C1982 C1981 1.394 . S
C1982 C1983 1.516 . S
C1983 C1982 1.516 . S
C1983 C1984 1.502 . S
C1983 C1985 1.561 . S
C1983 C1986 1.526 . S
C1984 H1968 0.959 . S
C1984 H1969 0.959 . S
C1984 H1970 0.961 . S
C1984 C1983 1.502 . S
C1985 H1971 0.960 . S
C1985 H1972 0.961 . S
C1985 H1973 0.959 . S
C1985 C1983 1.561 . S
C1986 C1983 1.526 . S
C1986 C1987 1.396 . S
C1986 C1991 1.390 . S
C1987 C1981 1.465 . S
C1987 C1986 1.396 . S
C1987 C1988 1.399 . S
C1988 H1974 0.929 . S
C1988 C1987 1.399 . S
C1988 C1989 1.385 . S
C1989 H1975 0.934 . S
C1989 C1988 1.385 . S
C1989 C1990 1.389 1_455 S
C1990 C1989 1.389 1_655 S
C1990 C1991 1.387 1_655 S
C1991 H1976 0.930 1_455 S
C1991 C1986 1.390 . S
C1991 C1990 1.387 1_455 S
H1992 C2004 0.930 . S
H1993 C2006 0.930 . S
H1994 C2007 0.930 . S
H1995 C2011 0.959 . S
H1996 C2011 0.959 . S
H1997 C2011 0.961 . S
H1998 C2012 0.960 1_554 S
H1999 C2012 0.961 . S
H2000 C2012 0.959 1_554 S
H2001 C2015 0.929 1_554 S
H2002 C2016 0.931 . S
H2003 C2018 0.930 1_545 S
C2004 H1992 0.930 . S
C2004 C2005 1.399 . S
C2004 C2009 1.399 . S
C2005 C2004 1.399 . S
C2005 C2006 1.376 . S
C2006 H1993 0.930 . S
C2006 C2005 1.376 . S
C2006 C2007 1.388 1_545 S
C2007 H1994 0.930 . S
C2007 C2006 1.388 1_565 S
C2007 C2008 1.390 . S
C2008 C2007 1.390 . S
C2008 C2009 1.394 1_565 S
C2008 C2014 1.465 1_554 S
C2009 C2004 1.399 . S
C2009 C2008 1.394 1_545 S
C2009 C2010 1.516 1_554 S
C2010 C2009 1.516 1_556 S
C2010 C2011 1.502 . S
C2010 C2012 1.561 . S
C2010 C2013 1.523 . S
C2011 H1995 0.959 . S
C2011 H1996 0.959 . S
C2011 H1997 0.961 . S
C2011 C2010 1.502 . S
C2012 H1998 0.960 1_556 S
C2012 H1999 0.961 . S
C2012 H2000 0.959 1_556 S
C2012 C2010 1.561 . S
C2013 C2010 1.523 . S
C2013 C2014 1.398 1_545 S
C2013 C2018 1.390 1_545 S
C2014 C2008 1.465 1_556 S
C2014 C2013 1.398 1_565 S
C2014 C2015 1.399 . S
C2015 H2001 0.929 1_556 S
C2015 C2014 1.399 . S
C2015 C2016 1.385 . S
C2016 H2002 0.931 . S
C2016 C2015 1.385 . S
C2016 C2017 1.389 . S
C2017 C2016 1.389 . S
C2017 C2018 1.387 . S
C2018 H2003 0.930 1_565 S
C2018 C2013 1.390 1_565 S
C2018 C2017 1.387 . S
H2019 C2031 0.930 . S
H2020 C2033 0.930 . S
H2021 C2034 0.930 . S
H2022 C2038 0.959 . S
H2023 C2038 0.959 . S
H2024 C2038 0.961 . S
H2025 C2039 0.960 . S
H2026 C2039 0.961 . S
H2027 C2039 0.959 . S
H2028 C2042 0.929 . S
H2029 C2043 0.931 . S
H2030 C2045 0.930 . S
C2031 H2019 0.930 . S
C2031 C2032 1.399 . S
C2031 C2036 1.399 . S
C2032 C2031 1.399 . S
C2032 C2033 1.376 . S
C2033 H2020 0.930 . S
C2033 C2032 1.376 . S
C2033 C2034 1.388 . S
C2034 H2021 0.930 . S
C2034 C2033 1.388 . S
C2034 C2035 1.390 . S
C2035 C2034 1.390 . S
C2035 C2036 1.394 . S
C2035 C2041 1.465 . S
C2036 C2031 1.399 . S
C2036 C2035 1.394 . S
C2036 C2037 1.516 . S
C2037 C2036 1.516 . S
C2037 C2038 1.502 . S
C2037 C2039 1.561 . S
C2037 C2040 1.526 . S
C2038 H2022 0.959 . S
C2038 H2023 0.959 . S
C2038 H2024 0.961 . S
C2038 C2037 1.502 . S
C2039 H2025 0.960 . S
C2039 H2026 0.961 . S
C2039 H2027 0.959 . S
C2039 C2037 1.561 . S
C2040 C2037 1.526 . S
C2040 C2041 1.396 . S
C2040 C2045 1.390 . S
C2041 C2035 1.465 . S
C2041 C2040 1.396 . S
C2041 C2042 1.399 . S
C2042 H2028 0.929 . S
C2042 C2041 1.399 . S
C2042 C2043 1.385 . S
C2043 H2029 0.931 . S
C2043 C2042 1.385 . S
C2043 C2044 1.389 . S
C2044 C2043 1.389 . S
C2044 C2045 1.387 . S
C2045 H2030 0.930 . S
C2045 C2040 1.390 . S
C2045 C2044 1.387 . S
H2046 C2058 0.930 . S
H2047 C2060 0.930 . S
H2048 C2061 0.930 . S
H2049 C2065 0.959 . S
H2050 C2065 0.959 . S
H2051 C2065 0.961 . S
H2052 C2066 0.960 . S
H2053 C2066 0.961 . S
H2054 C2066 0.959 . S
H2055 C2069 0.929 . S
H2056 C2070 0.931 . S
H2057 C2072 0.930 . S
C2058 H2046 0.930 . S
C2058 C2059 1.399 1_565 S
C2058 C2063 1.399 . S
C2059 C2058 1.399 1_545 S
C2059 C2060 1.376 . S
C2060 H2047 0.930 . S
C2060 C2059 1.376 . S
C2060 C2061 1.388 . S
C2061 H2048 0.930 . S
C2061 C2060 1.388 . S
C2061 C2062 1.390 . S
C2062 C2061 1.390 . S
C2062 C2063 1.394 1_545 S
C2062 C2068 1.465 . S
C2063 C2058 1.399 . S
C2063 C2062 1.394 1_565 S
C2063 C2064 1.516 . S
C2064 C2063 1.516 . S
C2064 C2065 1.502 . S
C2064 C2066 1.561 . S
C2064 C2067 1.526 . S
C2065 H2049 0.959 . S
C2065 H2050 0.959 . S
C2065 H2051 0.961 . S
C2065 C2064 1.502 . S
C2066 H2052 0.960 . S
C2066 H2053 0.961 . S
C2066 H2054 0.959 . S
C2066 C2064 1.561 . S
C2067 C2064 1.526 . S
C2067 C2068 1.396 1_565 S
C2067 C2072 1.390 . S
C2068 C2062 1.465 . S
C2068 C2067 1.396 1_545 S
C2068 C2069 1.399 . S
C2069 H2055 0.929 . S
C2069 C2068 1.399 . S
C2069 C2070 1.385 . S
C2070 H2056 0.931 . S
C2070 C2069 1.385 . S
C2070 C2071 1.389 1_545 S
C2071 C2070 1.389 1_565 S
C2071 C2072 1.387 . S
C2072 H2057 0.930 . S
C2072 C2067 1.390 . S
C2072 C2071 1.387 . S
H2073 C2085 0.930 . S
H2074 C2087 0.930 . S
H2075 C2088 0.930 . S
H2076 C2092 0.959 . S
H2077 C2092 0.959 . S
H2078 C2092 0.961 . S
H2079 C2093 0.960 . S
H2080 C2093 0.961 . S
H2081 C2093 0.959 . S
H2082 C2096 0.929 . S
H2083 C2097 0.931 . S
H2084 C2099 0.930 . S
C2085 H2073 0.930 . S
C2085 C2086 1.399 . S
C2085 C2090 1.399 . S
C2086 C2085 1.399 . S
C2086 C2087 1.376 . S
C2087 H2074 0.930 . S
C2087 C2086 1.376 . S
C2087 C2088 1.388 . S
C2088 H2075 0.930 . S
C2088 C2087 1.388 . S
C2088 C2089 1.390 . S
C2089 C2088 1.390 . S
C2089 C2090 1.394 . S
C2089 C2095 1.465 . S
C2090 C2085 1.399 . S
C2090 C2089 1.394 . S
C2090 C2091 1.516 . S
C2091 C2090 1.516 . S
C2091 C2092 1.502 . S
C2091 C2093 1.561 . S
C2091 C2094 1.526 . S
C2092 H2076 0.959 . S
C2092 H2077 0.959 . S
C2092 H2078 0.961 . S
C2092 C2091 1.502 . S
C2093 H2079 0.960 . S
C2093 H2080 0.961 . S
C2093 H2081 0.959 . S
C2093 C2091 1.561 . S
C2094 C2091 1.526 . S
C2094 C2095 1.396 . S
C2094 C2099 1.390 . S
C2095 C2089 1.465 . S
C2095 C2094 1.396 . S
C2095 C2096 1.399 . S
C2096 H2082 0.929 . S
C2096 C2095 1.399 . S
C2096 C2097 1.385 . S
C2097 H2083 0.931 . S
C2097 C2096 1.385 . S
C2097 C2098 1.389 . S
C2098 C2097 1.389 . S
C2098 C2099 1.387 . S
C2099 H2084 0.930 . S
C2099 C2094 1.390 . S
C2099 C2098 1.387 . S
H2100 C2112 0.930 . S
H2101 C2114 0.930 . S
H2102 C2115 0.930 . S
H2103 C2119 0.959 . S
H2104 C2119 0.959 . S
H2105 C2119 0.961 . S
H2106 C2120 0.960 . S
H2107 C2120 0.961 . S
H2108 C2120 0.959 . S
H2109 C2123 0.929 . S
H2110 C2124 0.931 . S
H2111 C2126 0.930 . S
C2112 H2100 0.930 . S
C2112 C2113 1.399 . S
C2112 C2117 1.399 . S
C2113 C2112 1.399 . S
C2113 C2114 1.376 . S
C2114 H2101 0.930 . S
C2114 C2113 1.376 . S
C2114 C2115 1.388 . S
C2115 H2102 0.930 . S
C2115 C2114 1.388 . S
C2115 C2116 1.390 . S
C2116 C2115 1.390 . S
C2116 C2117 1.394 . S
C2116 C2122 1.465 . S
C2117 C2112 1.399 . S
C2117 C2116 1.394 . S
C2117 C2118 1.516 . S
C2118 C2117 1.516 . S
C2118 C2119 1.502 . S
C2118 C2120 1.561 . S
C2118 C2121 1.526 . S
C2119 H2103 0.959 . S
C2119 H2104 0.959 . S
C2119 H2105 0.961 . S
C2119 C2118 1.502 . S
C2120 H2106 0.960 . S
C2120 H2107 0.961 . S
C2120 H2108 0.959 . S
C2120 C2118 1.561 . S
C2121 C2118 1.526 . S
C2121 C2122 1.396 . S
C2121 C2126 1.390 . S
C2122 C2116 1.465 . S
C2122 C2121 1.396 . S
C2122 C2123 1.399 . S
C2123 H2109 0.929 . S
C2123 C2122 1.399 . S
C2123 C2124 1.385 . S
C2124 H2110 0.931 . S
C2124 C2123 1.385 . S
C2124 C2125 1.389 . S
C2125 C2124 1.389 . S
C2125 C2126 1.387 . S
C2126 H2111 0.930 . S
C2126 C2121 1.390 . S
C2126 C2125 1.387 . S
H2127 C2139 0.930 . S
H2128 C2141 0.930 . S
H2129 C2142 0.930 . S
H2130 C2146 0.959 . S
H2131 C2146 0.959 . S
H2132 C2146 0.961 . S
H2133 C2147 0.960 . S
H2134 C2147 0.961 . S
H2135 C2147 0.959 . S
H2136 C2150 0.929 . S
H2137 C2151 0.931 . S
H2138 C2153 0.930 . S
C2139 H2127 0.930 . S
C2139 C2140 1.399 . S
C2139 C2144 1.399 . S
C2140 C2139 1.399 . S
C2140 C2141 1.376 . S
C2141 H2128 0.930 . S
C2141 C2140 1.376 . S
C2141 C2142 1.388 . S
C2142 H2129 0.930 . S
C2142 C2141 1.388 . S
C2142 C2143 1.390 . S
C2143 C2142 1.390 . S
C2143 C2144 1.394 . S
C2143 C2149 1.465 . S
C2144 C2139 1.399 . S
C2144 C2143 1.394 . S
C2144 C2145 1.516 . S
C2145 C2144 1.516 . S
C2145 C2146 1.502 . S
C2145 C2147 1.561 . S
C2145 C2148 1.526 . S
C2146 H2130 0.959 . S
C2146 H2131 0.959 . S
C2146 H2132 0.961 . S
C2146 C2145 1.502 . S
C2147 H2133 0.960 . S
C2147 H2134 0.961 . S
C2147 H2135 0.959 . S
C2147 C2145 1.561 . S
C2148 C2145 1.526 . S
C2148 C2149 1.396 . S
C2148 C2153 1.390 . S
C2149 C2143 1.465 . S
C2149 C2148 1.396 . S
C2149 C2150 1.399 . S
C2150 H2136 0.929 . S
C2150 C2149 1.399 . S
C2150 C2151 1.385 . S
C2151 H2137 0.931 . S
C2151 C2150 1.385 . S
C2151 C2152 1.389 . S
C2152 C2151 1.389 . S
C2152 C2153 1.387 . S
C2153 H2138 0.930 . S
C2153 C2148 1.390 . S
C2153 C2152 1.387 . S
H2154 C2166 0.930 . S
H2155 C2168 0.930 . S
H2156 C2169 0.930 . S
H2157 C2173 0.959 . S
H2158 C2173 0.959 . S
H2159 C2173 0.961 . S
H2160 C2174 0.960 . S
H2161 C2174 0.961 . S
H2162 C2174 0.959 . S
H2163 C2177 0.929 . S
H2164 C2178 0.931 . S
H2165 C2180 0.930 . S
C2166 H2154 0.930 . S
C2166 C2167 1.399 . S
C2166 C2171 1.399 . S
C2167 C2166 1.399 . S
C2167 C2168 1.376 . S
C2168 H2155 0.930 . S
C2168 C2167 1.376 . S
C2168 C2169 1.388 . S
C2169 H2156 0.930 . S
C2169 C2168 1.388 . S
C2169 C2170 1.390 . S
C2170 C2169 1.390 . S
C2170 C2171 1.394 . S
C2170 C2176 1.465 . S
C2171 C2166 1.399 . S
C2171 C2170 1.394 . S
C2171 C2172 1.516 . S
C2172 C2171 1.516 . S
C2172 C2173 1.502 . S
C2172 C2174 1.561 . S
C2172 C2175 1.526 . S
C2173 H2157 0.959 . S
C2173 H2158 0.959 . S
C2173 H2159 0.961 . S
C2173 C2172 1.502 . S
C2174 H2160 0.960 . S
C2174 H2161 0.961 . S
C2174 H2162 0.959 . S
C2174 C2172 1.561 . S
C2175 C2172 1.526 . S
C2175 C2176 1.396 . S
C2175 C2180 1.390 . S
C2176 C2170 1.465 . S
C2176 C2175 1.396 . S
C2176 C2177 1.399 . S
C2177 H2163 0.929 . S
C2177 C2176 1.399 . S
C2177 C2178 1.385 . S
C2178 H2164 0.931 . S
C2178 C2177 1.385 . S
C2178 C2179 1.389 . S
C2179 C2178 1.389 . S
C2179 C2180 1.387 . S
C2180 H2165 0.930 . S
C2180 C2175 1.390 . S
C2180 C2179 1.387 . S
H2181 C2193 0.930 . S
H2182 C2195 0.929 . S
H2183 C2196 0.930 . S
H2184 C2200 0.959 . S
H2185 C2200 0.959 . S
H2186 C2200 0.961 . S
H2187 C2201 0.960 . S
H2188 C2201 0.961 . S
H2189 C2201 0.959 . S
H2190 C2204 0.929 . S
H2191 C2205 0.931 . S
H2192 C2207 0.930 . S
C2193 H2181 0.930 . S
C2193 C2194 1.399 . S
C2193 C2198 1.399 . S
C2194 C2193 1.399 . S
C2194 C2195 1.377 1_455 S
C2195 H2182 0.929 . S
C2195 C2194 1.377 1_655 S
C2195 C2196 1.389 1_656 S
C2196 H2183 0.930 . S
C2196 C2195 1.389 1_454 S
C2196 C2197 1.390 . S
C2197 C2196 1.390 . S
C2197 C2198 1.394 1_554 S
C2197 C2203 1.465 . S
C2198 C2193 1.399 . S
C2198 C2197 1.394 1_556 S
C2198 C2199 1.516 . S
C2199 C2198 1.516 . S
C2199 C2200 1.502 . S
C2199 C2201 1.561 . S
C2199 C2202 1.526 1_556 S
C2200 H2184 0.959 . S
C2200 H2185 0.959 . S
C2200 H2186 0.961 . S
C2200 C2199 1.502 . S
C2201 H2187 0.960 . S
C2201 H2188 0.961 . S
C2201 H2189 0.959 . S
C2201 C2199 1.561 . S
C2202 C2199 1.526 1_554 S
C2202 C2203 1.396 . S
C2202 C2207 1.390 . S
C2203 C2197 1.465 . S
C2203 C2202 1.396 . S
C2203 C2204 1.399 . S
C2204 H2190 0.929 . S
C2204 C2203 1.399 . S
C2204 C2205 1.385 . S
C2205 H2191 0.931 . S
C2205 C2204 1.385 . S
C2205 C2206 1.389 . S
C2206 C2205 1.389 . S
C2206 C2207 1.387 . S
C2207 H2192 0.930 . S
C2207 C2202 1.390 . S
C2207 C2206 1.387 . S
H2208 C2220 0.930 . S
H2209 C2222 0.930 . S
H2210 C2223 0.930 . S
H2211 C2227 0.959 . S
H2212 C2227 0.959 . S
H2213 C2227 0.961 . S
H2214 C2228 0.960 . S
H2215 C2228 0.961 . S
H2216 C2228 0.959 . S
H2217 C2231 0.929 . S
H2218 C2232 0.931 . S
H2219 C2234 0.930 . S
C2220 H2208 0.930 . S
C2220 C2221 1.399 . S
C2220 C2225 1.399 . S
C2221 C2220 1.399 . S
C2221 C2222 1.376 . S
C2222 H2209 0.930 . S
C2222 C2221 1.376 . S
C2222 C2223 1.388 . S
C2223 H2210 0.930 . S
C2223 C2222 1.388 . S
C2223 C2224 1.390 . S
C2224 C2223 1.390 . S
C2224 C2225 1.394 . S
C2224 C2230 1.465 . S
C2225 C2220 1.399 . S
C2225 C2224 1.394 . S
C2225 C2226 1.516 . S
C2226 C2225 1.516 . S
C2226 C2227 1.502 . S
C2226 C2228 1.561 . S
C2226 C2229 1.526 . S
C2227 H2211 0.959 . S
C2227 H2212 0.959 . S
C2227 H2213 0.961 . S
C2227 C2226 1.502 . S
C2228 H2214 0.960 . S
C2228 H2215 0.961 . S
C2228 H2216 0.959 . S
C2228 C2226 1.561 . S
C2229 C2226 1.526 . S
C2229 C2230 1.396 . S
C2229 C2234 1.390 . S
C2230 C2224 1.465 . S
C2230 C2229 1.396 . S
C2230 C2231 1.399 . S
C2231 H2217 0.929 . S
C2231 C2230 1.399 . S
C2231 C2232 1.385 . S
C2232 H2218 0.931 . S
C2232 C2231 1.385 . S
C2232 C2233 1.389 . S
C2233 C2232 1.389 . S
C2233 C2234 1.387 . S
C2234 H2219 0.930 . S
C2234 C2229 1.390 . S
C2234 C2233 1.387 . S
H2235 C2247 0.930 . S
H2236 C2249 0.930 . S
H2237 C2250 0.930 . S
H2238 C2254 0.959 . S
H2239 C2254 0.959 . S
H2240 C2254 0.961 . S
H2241 C2255 0.960 . S
H2242 C2255 0.961 . S
H2243 C2255 0.959 . S
H2244 C2258 0.929 . S
H2245 C2259 0.931 . S
H2246 C2261 0.930 . S
C2247 H2235 0.930 . S
C2247 C2248 1.399 . S
C2247 C2252 1.399 . S
C2248 C2247 1.399 . S
C2248 C2249 1.376 . S
C2249 H2236 0.930 . S
C2249 C2248 1.376 . S
C2249 C2250 1.388 . S
C2250 H2237 0.930 . S
C2250 C2249 1.388 . S
C2250 C2251 1.390 . S
C2251 C2250 1.390 . S
C2251 C2252 1.394 . S
C2251 C2257 1.465 . S
C2252 C2247 1.399 . S
C2252 C2251 1.394 . S
C2252 C2253 1.516 . S
C2253 C2252 1.516 . S
C2253 C2254 1.502 . S
C2253 C2255 1.561 . S
C2253 C2256 1.526 . S
C2254 H2238 0.959 . S
C2254 H2239 0.959 . S
C2254 H2240 0.961 . S
C2254 C2253 1.502 . S
C2255 H2241 0.960 . S
C2255 H2242 0.961 . S
C2255 H2243 0.959 . S
C2255 C2253 1.561 . S
C2256 C2253 1.526 . S
C2256 C2257 1.396 . S
C2256 C2261 1.390 . S
C2257 C2251 1.465 . S
C2257 C2256 1.396 . S
C2257 C2258 1.399 . S
C2258 H2244 0.929 . S
C2258 C2257 1.399 . S
C2258 C2259 1.385 . S
C2259 H2245 0.931 . S
C2259 C2258 1.385 . S
C2259 C2260 1.389 . S
C2260 C2259 1.389 . S
C2260 C2261 1.387 . S
C2261 H2246 0.930 . S
C2261 C2256 1.390 . S
C2261 C2260 1.387 . S
H2262 C2274 0.930 . S
H2263 C2276 0.930 . S
H2264 C2277 0.930 . S
H2265 C2281 0.959 . S
H2266 C2281 0.959 . S
H2267 C2281 0.961 . S
H2268 C2282 0.960 . S
H2269 C2282 0.961 . S
H2270 C2282 0.959 . S
H2271 C2285 0.929 . S
H2272 C2286 0.931 . S
H2273 C2288 0.930 . S
C2274 H2262 0.930 . S
C2274 C2275 1.399 . S
C2274 C2279 1.399 . S
C2275 C2274 1.399 . S
C2275 C2276 1.376 . S
C2276 H2263 0.930 . S
C2276 C2275 1.376 . S
C2276 C2277 1.388 . S
C2277 H2264 0.930 . S
C2277 C2276 1.388 . S
C2277 C2278 1.390 . S
C2278 C2277 1.390 . S
C2278 C2279 1.394 . S
C2278 C2284 1.465 . S
C2279 C2274 1.399 . S
C2279 C2278 1.394 . S
C2279 C2280 1.516 . S
C2280 C2279 1.516 . S
C2280 C2281 1.502 . S
C2280 C2282 1.561 . S
C2280 C2283 1.526 . S
C2281 H2265 0.959 . S
C2281 H2266 0.959 . S
C2281 H2267 0.961 . S
C2281 C2280 1.502 . S
C2282 H2268 0.960 . S
C2282 H2269 0.961 . S
C2282 H2270 0.959 . S
C2282 C2280 1.561 . S
C2283 C2280 1.526 . S
C2283 C2284 1.396 . S
C2283 C2288 1.390 . S
C2284 C2278 1.465 . S
C2284 C2283 1.396 . S
C2284 C2285 1.399 . S
C2285 H2271 0.929 . S
C2285 C2284 1.399 . S
C2285 C2286 1.385 . S
C2286 H2272 0.931 . S
C2286 C2285 1.385 . S
C2286 C2287 1.389 . S
C2287 C2286 1.389 . S
C2287 C2288 1.387 . S
C2288 H2273 0.930 . S
C2288 C2283 1.390 . S
C2288 C2287 1.387 . S
H2289 C2301 0.930 . S
H2290 C2303 0.930 . S
H2291 C2304 0.930 . S
H2292 C2308 0.959 . S
H2293 C2308 0.959 . S
H2294 C2308 0.961 . S
H2295 C2309 0.960 . S
H2296 C2309 0.961 . S
H2297 C2309 0.959 . S
H2298 C2312 0.929 . S
H2299 C2313 0.931 . S
H2300 C2315 0.930 . S
C2301 H2289 0.930 . S
C2301 C2302 1.399 . S
C2301 C2306 1.399 . S
C2302 C2301 1.399 . S
C2302 C2303 1.376 . S
C2303 H2290 0.930 . S
C2303 C2302 1.376 . S
C2303 C2304 1.388 . S
C2304 H2291 0.930 . S
C2304 C2303 1.388 . S
C2304 C2305 1.390 . S
C2305 C2304 1.390 . S
C2305 C2306 1.394 . S
C2305 C2311 1.465 . S
C2306 C2301 1.399 . S
C2306 C2305 1.394 . S
C2306 C2307 1.516 . S
C2307 C2306 1.516 . S
C2307 C2308 1.502 . S
C2307 C2309 1.561 . S
C2307 C2310 1.526 . S
C2308 H2292 0.959 . S
C2308 H2293 0.959 . S
C2308 H2294 0.961 . S
C2308 C2307 1.502 . S
C2309 H2295 0.960 . S
C2309 H2296 0.961 . S
C2309 H2297 0.959 . S
C2309 C2307 1.561 . S
C2310 C2307 1.526 . S
C2310 C2311 1.396 . S
C2310 C2315 1.390 . S
C2311 C2305 1.465 . S
C2311 C2310 1.396 . S
C2311 C2312 1.399 . S
C2312 H2298 0.929 . S
C2312 C2311 1.399 . S
C2312 C2313 1.385 . S
C2313 H2299 0.931 . S
C2313 C2312 1.385 . S
C2313 C2314 1.389 . S
C2314 C2313 1.389 . S
C2314 C2315 1.387 . S
C2315 H2300 0.930 . S
C2315 C2310 1.390 . S
C2315 C2314 1.387 . S
H2316 C2328 0.930 . S
H2317 C2330 0.930 . S
H2318 C2331 0.930 . S
H2319 C2335 0.959 . S
H2320 C2335 0.959 . S
H2321 C2335 0.961 . S
H2322 C2336 0.960 . S
H2323 C2336 0.955 1_455 S
H2324 C2336 0.959 . S
H2325 C2339 0.929 . S
H2326 C2340 0.931 . S
H2327 C2342 0.930 . S
C2328 H2316 0.930 . S
C2328 C2329 1.399 . S
C2328 C2333 1.399 . S
C2329 C2328 1.399 . S
C2329 C2330 1.376 . S
C2330 H2317 0.930 . S
C2330 C2329 1.376 . S
C2330 C2331 1.388 . S
C2331 H2318 0.930 . S
C2331 C2330 1.388 . S
C2331 C2332 1.390 . S
C2332 C2331 1.390 . S
C2332 C2333 1.394 . S
C2332 C2338 1.465 . S
C2333 C2328 1.399 . S
C2333 C2332 1.394 . S
C2333 C2334 1.516 . S
C2334 C2333 1.516 . S
C2334 C2335 1.502 1_655 S
C2334 C2336 1.561 . S
C2334 C2337 1.526 . S
C2335 H2319 0.959 . S
C2335 H2320 0.959 . S
C2335 H2321 0.961 . S
C2335 C2334 1.502 1_455 S
C2336 H2322 0.960 . S
C2336 H2323 0.955 1_655 S
C2336 H2324 0.959 . S
C2336 C2334 1.561 . S
C2337 C2334 1.526 . S
C2337 C2338 1.396 . S
C2337 C2342 1.390 1_655 S
C2338 C2332 1.465 . S
C2338 C2337 1.396 . S
C2338 C2339 1.399 . S
C2339 H2325 0.929 . S
C2339 C2338 1.399 . S
C2339 C2340 1.385 . S
C2340 H2326 0.931 . S
C2340 C2339 1.385 . S
C2340 C2341 1.389 1_655 S
C2341 C2340 1.389 1_455 S
C2341 C2342 1.387 . S
C2342 H2327 0.930 . S
C2342 C2337 1.390 1_455 S
C2342 C2341 1.387 . S
H2343 C2355 0.930 . S
H2344 C2357 0.930 . S
H2345 C2358 0.930 . S
H2346 C2362 0.959 . S
H2347 C2362 0.959 . S
H2348 C2362 0.961 . S
H2349 C2363 0.960 . S
H2350 C2363 0.961 . S
H2351 C2363 0.959 . S
H2352 C2366 0.929 . S
H2353 C2367 0.931 . S
H2354 C2369 0.930 . S
C2355 H2343 0.930 . S
C2355 C2356 1.399 . S
C2355 C2360 1.399 . S
C2356 C2355 1.399 . S
C2356 C2357 1.376 . S
C2357 H2344 0.930 . S
C2357 C2356 1.376 . S
C2357 C2358 1.388 . S
C2358 H2345 0.930 . S
C2358 C2357 1.388 . S
C2358 C2359 1.390 . S
C2359 C2358 1.390 . S
C2359 C2360 1.394 . S
C2359 C2365 1.465 . S
C2360 C2355 1.399 . S
C2360 C2359 1.394 . S
C2360 C2361 1.516 . S
C2361 C2360 1.516 . S
C2361 C2362 1.502 . S
C2361 C2363 1.561 . S
C2361 C2364 1.526 . S
C2362 H2346 0.959 . S
C2362 H2347 0.959 . S
C2362 H2348 0.961 . S
C2362 C2361 1.502 . S
C2363 H2349 0.960 . S
C2363 H2350 0.961 . S
C2363 H2351 0.959 . S
C2363 C2361 1.561 . S
C2364 C2361 1.526 . S
C2364 C2365 1.396 . S
C2364 C2369 1.390 . S
C2365 C2359 1.465 . S
C2365 C2364 1.396 . S
C2365 C2366 1.399 . S
C2366 H2352 0.929 . S
C2366 C2365 1.399 . S
C2366 C2367 1.385 . S
C2367 H2353 0.931 . S
C2367 C2366 1.385 . S
C2367 C2368 1.389 . S
C2368 C2367 1.389 . S
C2368 C2369 1.387 . S
C2369 H2354 0.930 . S
C2369 C2364 1.390 . S
C2369 C2368 1.387 . S
H2370 C2382 0.930 . S
H2371 C2384 0.930 . S
H2372 C2385 0.930 . S
H2373 C2389 0.959 . S
H2374 C2389 0.959 . S
H2375 C2389 0.961 . S
H2376 C2390 0.960 . S
H2377 C2390 0.961 . S
H2378 C2390 0.959 . S
H2379 C2393 0.929 . S
H2380 C2394 0.931 . S
H2381 C2396 0.930 . S
C2382 H2370 0.930 . S
C2382 C2383 1.399 . S
C2382 C2387 1.399 . S
C2383 C2382 1.399 . S
C2383 C2384 1.376 . S
C2384 H2371 0.930 . S
C2384 C2383 1.376 . S
C2384 C2385 1.388 . S
C2385 H2372 0.930 . S
C2385 C2384 1.388 . S
C2385 C2386 1.390 . S
C2386 C2385 1.390 . S
C2386 C2387 1.394 . S
C2386 C2392 1.465 . S
C2387 C2382 1.399 . S
C2387 C2386 1.394 . S
C2387 C2388 1.516 . S
C2388 C2387 1.516 . S
C2388 C2389 1.502 . S
C2388 C2390 1.561 . S
C2388 C2391 1.526 . S
C2389 H2373 0.959 . S
C2389 H2374 0.959 . S
C2389 H2375 0.961 . S
C2389 C2388 1.502 . S
C2390 H2376 0.960 . S
C2390 H2377 0.961 . S
C2390 H2378 0.959 . S
C2390 C2388 1.561 . S
C2391 C2388 1.526 . S
C2391 C2392 1.396 . S
C2391 C2396 1.390 . S
C2392 C2386 1.465 . S
C2392 C2391 1.396 . S
C2392 C2393 1.399 . S
C2393 H2379 0.929 . S
C2393 C2392 1.399 . S
C2393 C2394 1.385 . S
C2394 H2380 0.931 . S
C2394 C2393 1.385 . S
C2394 C2395 1.389 . S
C2395 C2394 1.389 . S
C2395 C2396 1.387 . S
C2396 H2381 0.930 . S
C2396 C2391 1.390 . S
C2396 C2395 1.387 . S
H2397 C2409 0.930 . S
H2398 C2411 0.965 . S
H2399 C2412 0.930 . S
H2400 C2416 0.959 . S
H2401 C2416 0.959 . S
H2402 C2416 0.961 . S
H2403 C2417 0.960 . S
H2404 C2417 0.961 . S
H2405 C2417 0.959 . S
H2406 C2420 0.929 . S
H2407 C2421 0.931 . S
H2408 C2423 0.930 . S
C2409 H2397 0.930 . S
C2409 C2410 1.399 . S
C2409 C2414 1.399 . S
C2410 C2409 1.399 . S
C2410 C2411 1.376 . S
C2411 H2398 0.965 . S
C2411 C2410 1.376 . S
C2411 C2412 1.388 . S
C2412 H2399 0.930 . S
C2412 C2411 1.388 . S
C2412 C2413 1.390 . S
C2413 C2412 1.390 . S
C2413 C2414 1.394 . S
C2413 C2419 1.465 . S
C2414 C2409 1.399 . S
C2414 C2413 1.394 . S
C2414 C2415 1.516 . S
C2415 C2414 1.516 . S
C2415 C2416 1.502 . S
C2415 C2417 1.561 . S
C2415 C2418 1.526 . S
C2416 H2400 0.959 . S
C2416 H2401 0.959 . S
C2416 H2402 0.961 . S
C2416 C2415 1.502 . S
C2417 H2403 0.960 . S
C2417 H2404 0.961 . S
C2417 H2405 0.959 . S
C2417 C2415 1.561 . S
C2418 C2415 1.526 . S
C2418 C2419 1.396 . S
C2418 C2423 1.390 . S
C2419 C2413 1.465 . S
C2419 C2418 1.396 . S
C2419 C2420 1.399 . S
C2420 H2406 0.929 . S
C2420 C2419 1.399 . S
C2420 C2421 1.385 . S
C2421 H2407 0.931 . S
C2421 C2420 1.385 . S
C2421 C2422 1.389 . S
C2422 C2421 1.389 . S
C2422 C2423 1.387 . S
C2423 H2408 0.930 . S
C2423 C2418 1.390 . S
C2423 C2422 1.387 . S
H2424 C2436 0.930 . S
H2425 C2438 0.930 . S
H2426 C2439 0.930 . S
H2427 C2443 0.959 . S
H2428 C2443 0.959 . S
H2429 C2443 0.961 . S
H2430 C2444 0.960 . S
H2431 C2444 0.961 . S
H2432 C2444 0.959 . S
H2433 C2447 0.929 . S
H2434 C2448 0.931 . S
H2435 C2450 0.930 . S
C2436 H2424 0.930 . S
C2436 C2437 1.399 . S
C2436 C2441 1.399 . S
C2437 C2436 1.399 . S
C2437 C2438 1.376 . S
C2438 H2425 0.930 . S
C2438 C2437 1.376 . S
C2438 C2439 1.388 . S
C2439 H2426 0.930 . S
C2439 C2438 1.388 . S
C2439 C2440 1.390 . S
C2440 C2439 1.390 . S
C2440 C2441 1.394 . S
C2440 C2446 1.465 . S
C2441 C2436 1.399 . S
C2441 C2440 1.394 . S
C2441 C2442 1.516 . S
C2442 C2441 1.516 . S
C2442 C2443 1.502 . S
C2442 C2444 1.561 . S
C2442 C2445 1.526 . S
C2443 H2427 0.959 . S
C2443 H2428 0.959 . S
C2443 H2429 0.961 . S
C2443 C2442 1.502 . S
C2444 H2430 0.960 . S
C2444 H2431 0.961 . S
C2444 H2432 0.959 . S
C2444 C2442 1.561 . S
C2445 C2442 1.526 . S
C2445 C2446 1.396 . S
C2445 C2450 1.390 . S
C2446 C2440 1.465 . S
C2446 C2445 1.396 . S
C2446 C2447 1.399 . S
C2447 H2433 0.929 . S
C2447 C2446 1.399 . S
C2447 C2448 1.385 . S
C2448 H2434 0.931 . S
C2448 C2447 1.385 . S
C2448 C2449 1.389 . S
C2449 C2448 1.389 . S
C2449 C2450 1.387 . S
C2450 H2435 0.930 . S
C2450 C2445 1.390 . S
C2450 C2449 1.387 . S
H2451 C2463 0.930 . S
H2452 C2465 0.930 . S
H2453 C2466 0.930 . S
H2454 C2470 0.959 . S
H2455 C2470 0.959 . S
H2456 C2470 0.961 . S
H2457 C2471 0.960 . S
H2458 C2471 0.961 . S
H2459 C2471 0.959 . S
H2460 C2474 0.929 . S
H2461 C2475 0.931 . S
H2462 C2477 0.930 1_554 S
C2463 H2451 0.930 . S
C2463 C2464 1.399 . S
C2463 C2468 1.399 . S
C2464 C2463 1.399 . S
C2464 C2465 1.376 . S
C2465 H2452 0.930 . S
C2465 C2464 1.376 . S
C2465 C2466 1.388 . S
C2466 H2453 0.930 . S
C2466 C2465 1.388 . S
C2466 C2467 1.390 . S
C2467 C2466 1.390 . S
C2467 C2468 1.394 . S
C2467 C2473 1.465 . S
C2468 C2463 1.399 . S
C2468 C2467 1.394 . S
C2468 C2469 1.516 . S
C2469 C2468 1.516 . S
C2469 C2470 1.502 . S
C2469 C2471 1.561 . S
C2469 C2472 1.526 . S
C2470 H2454 0.959 . S
C2470 H2455 0.959 . S
C2470 H2456 0.961 . S
C2470 C2469 1.502 . S
C2471 H2457 0.960 . S
C2471 H2458 0.961 . S
C2471 H2459 0.959 . S
C2471 C2469 1.561 . S
C2472 C2469 1.526 . S
C2472 C2473 1.396 . S
C2472 C2477 1.390 1_554 S
C2473 C2467 1.465 . S
C2473 C2472 1.396 . S
C2473 C2474 1.399 1_554 S
C2474 H2460 0.929 . S
C2474 C2473 1.399 1_556 S
C2474 C2475 1.385 . S
C2475 H2461 0.931 . S
C2475 C2474 1.385 . S
C2475 C2476 1.389 . S
C2476 C2475 1.389 . S
C2476 C2477 1.387 . S
C2477 H2462 0.930 1_556 S
C2477 C2472 1.390 1_556 S
C2477 C2476 1.387 . S
H2478 C2490 0.930 . S
H2479 C2492 0.930 . S
H2480 C2493 0.930 . S
H2481 C2497 0.959 . S
H2482 C2497 0.959 . S
H2483 C2497 0.961 . S
H2484 C2498 0.960 . S
H2485 C2498 0.961 . S
H2486 C2498 0.959 . S
H2487 C2501 0.929 . S
H2488 C2502 0.931 . S
H2489 C2504 0.930 . S
C2490 H2478 0.930 . S
C2490 C2491 1.399 . S
C2490 C2495 1.399 . S
C2491 C2490 1.399 . S
C2491 C2492 1.376 . S
C2492 H2479 0.930 . S
C2492 C2491 1.376 . S
C2492 C2493 1.388 . S
C2493 H2480 0.930 . S
C2493 C2492 1.388 . S
C2493 C2494 1.390 . S
C2494 C2493 1.390 . S
C2494 C2495 1.394 . S
C2494 C2500 1.465 . S
C2495 C2490 1.399 . S
C2495 C2494 1.394 . S
C2495 C2496 1.516 . S
C2496 C2495 1.516 . S
C2496 C2497 1.502 1_455 S
C2496 C2498 1.561 . S
C2496 C2499 1.526 . S
C2497 H2481 0.959 . S
C2497 H2482 0.959 . S
C2497 H2483 0.961 . S
C2497 C2496 1.502 1_655 S
C2498 H2484 0.960 . S
C2498 H2485 0.961 . S
C2498 H2486 0.959 . S
C2498 C2496 1.561 . S
C2499 C2496 1.526 . S
C2499 C2500 1.396 . S
C2499 C2504 1.390 1_455 S
C2500 C2494 1.465 . S
C2500 C2499 1.396 . S
C2500 C2501 1.399 . S
C2501 H2487 0.929 . S
C2501 C2500 1.399 . S
C2501 C2502 1.385 . S
C2502 H2488 0.931 . S
C2502 C2501 1.385 . S
C2502 C2503 1.389 1_455 S
C2503 C2502 1.389 1_655 S
C2503 C2504 1.387 . S
C2504 H2489 0.930 . S
C2504 C2499 1.390 1_655 S
C2504 C2503 1.387 . S
H2505 C2517 0.930 . S
H2506 C2519 0.930 . S
H2507 C2520 0.930 . S
H2508 C2524 0.959 . S
H2509 C2524 0.959 . S
H2510 C2524 0.961 . S
H2511 C2525 0.960 . S
H2512 C2525 0.961 . S
H2513 C2525 0.959 . S
H2514 C2528 0.929 . S
H2515 C2529 0.931 . S
H2516 C2531 0.930 . S
C2517 H2505 0.930 . S
C2517 C2518 1.399 . S
C2517 C2522 1.399 . S
C2518 C2517 1.399 . S
C2518 C2519 1.376 . S
C2519 H2506 0.930 . S
C2519 C2518 1.376 . S
C2519 C2520 1.388 . S
C2520 H2507 0.930 . S
C2520 C2519 1.388 . S
C2520 C2521 1.390 . S
C2521 C2520 1.390 . S
C2521 C2522 1.394 . S
C2521 C2527 1.465 . S
C2522 C2517 1.399 . S
C2522 C2521 1.394 . S
C2522 C2523 1.516 . S
C2523 C2522 1.516 . S
C2523 C2524 1.502 . S
C2523 C2525 1.561 . S
C2523 C2526 1.526 . S
C2524 H2508 0.959 . S
C2524 H2509 0.959 . S
C2524 H2510 0.961 . S
C2524 C2523 1.502 . S
C2525 H2511 0.960 . S
C2525 H2512 0.961 . S
C2525 H2513 0.959 . S
C2525 C2523 1.561 . S
C2526 C2523 1.526 . S
C2526 C2527 1.396 . S
C2526 C2531 1.390 . S
C2527 C2521 1.465 . S
C2527 C2526 1.396 . S
C2527 C2528 1.399 . S
C2528 H2514 0.929 . S
C2528 C2527 1.399 . S
C2528 C2529 1.385 . S
C2529 H2515 0.931 . S
C2529 C2528 1.385 . S
C2529 C2530 1.389 . S
C2530 C2529 1.389 . S
C2530 C2531 1.387 . S
C2531 H2516 0.930 . S
C2531 C2526 1.390 . S
C2531 C2530 1.387 . S
H2532 C2544 0.930 . S
H2533 C2546 0.930 . S
H2534 C2547 0.930 . S
H2535 C2551 0.959 . S
H2536 C2551 0.959 . S
H2537 C2551 0.961 . S
H2538 C2552 0.960 . S
H2539 C2552 0.961 . S
H2540 C2552 0.959 . S
H2541 C2555 0.929 . S
H2542 C2556 0.931 . S
H2543 C2558 0.930 . S
C2544 H2532 0.930 . S
C2544 C2545 1.399 . S
C2544 C2549 1.399 . S
C2545 C2544 1.399 . S
C2545 C2546 1.376 . S
C2546 H2533 0.930 . S
C2546 C2545 1.376 . S
C2546 C2547 1.388 . S
C2547 H2534 0.930 . S
C2547 C2546 1.388 . S
C2547 C2548 1.390 . S
C2548 C2547 1.390 . S
C2548 C2549 1.394 . S
C2548 C2554 1.465 . S
C2549 C2544 1.399 . S
C2549 C2548 1.394 . S
C2549 C2550 1.516 . S
C2550 C2549 1.516 . S
C2550 C2551 1.502 . S
C2550 C2552 1.561 . S
C2550 C2553 1.526 . S
C2551 H2535 0.959 . S
C2551 H2536 0.959 . S
C2551 H2537 0.961 . S
C2551 C2550 1.502 . S
C2552 H2538 0.960 . S
C2552 H2539 0.961 . S
C2552 H2540 0.959 . S
C2552 C2550 1.561 . S
C2553 C2550 1.526 . S
C2553 C2554 1.396 . S
C2553 C2558 1.390 . S
C2554 C2548 1.465 . S
C2554 C2553 1.396 . S
C2554 C2555 1.399 . S
C2555 H2541 0.929 . S
C2555 C2554 1.399 . S
C2555 C2556 1.385 . S
C2556 H2542 0.931 . S
C2556 C2555 1.385 . S
C2556 C2557 1.389 . S
C2557 C2556 1.389 . S
C2557 C2558 1.387 . S
C2558 H2543 0.930 . S
C2558 C2553 1.390 . S
C2558 C2557 1.387 . S
H2559 C2571 0.930 . S
H2560 C2573 0.930 . S
H2561 C2574 0.930 . S
H2562 C2578 0.959 . S
H2563 C2578 0.959 . S
H2564 C2578 0.961 . S
H2565 C2579 0.960 . S
H2566 C2579 0.961 . S
H2567 C2579 0.959 . S
H2568 C2582 0.929 . S
H2569 C2583 0.931 . S
H2570 C2585 0.930 . S
C2571 H2559 0.930 . S
C2571 C2572 1.399 . S
C2571 C2576 1.399 1_554 S
C2572 C2571 1.399 . S
C2572 C2573 1.376 . S
C2573 H2560 0.930 . S
C2573 C2572 1.376 . S
C2573 C2574 1.388 . S
C2574 H2561 0.930 . S
C2574 C2573 1.388 . S
C2574 C2575 1.390 1_554 S
C2575 C2574 1.390 1_556 S
C2575 C2576 1.394 . S
C2575 C2581 1.465 . S
C2576 C2571 1.399 1_556 S
C2576 C2575 1.394 . S
C2576 C2577 1.516 . S
C2577 C2576 1.516 . S
C2577 C2578 1.502 . S
C2577 C2579 1.561 . S
C2577 C2580 1.526 . S
C2578 H2562 0.959 . S
C2578 H2563 0.959 . S
C2578 H2564 0.961 . S
C2578 C2577 1.502 . S
C2579 H2565 0.960 . S
C2579 H2566 0.961 . S
C2579 H2567 0.959 . S
C2579 C2577 1.561 . S
C2580 C2577 1.526 . S
C2580 C2581 1.396 . S
C2580 C2585 1.390 . S
C2581 C2575 1.465 . S
C2581 C2580 1.396 . S
C2581 C2582 1.399 . S
C2582 H2568 0.929 . S
C2582 C2581 1.399 . S
C2582 C2583 1.385 . S
C2583 H2569 0.931 . S
C2583 C2582 1.385 . S
C2583 C2584 1.389 . S
C2584 C2583 1.389 . S
C2584 C2585 1.387 . S
C2585 H2570 0.930 . S
C2585 C2580 1.390 . S
C2585 C2584 1.387 . S
H2586 C2598 0.930 . S
H2587 C2600 0.930 . S
H2588 C2601 0.930 . S
H2589 C2605 0.959 . S
H2590 C2605 0.959 . S
H2591 C2605 0.961 . S
H2592 C2606 0.960 . S
H2593 C2606 0.961 . S
H2594 C2606 0.959 . S
H2595 C2609 0.929 . S
H2596 C2610 0.931 . S
H2597 C2612 0.930 . S
C2598 H2586 0.930 . S
C2598 C2599 1.399 . S
C2598 C2603 1.399 . S
C2599 C2598 1.399 . S
C2599 C2600 1.376 . S
C2600 H2587 0.930 . S
C2600 C2599 1.376 . S
C2600 C2601 1.388 . S
C2601 H2588 0.930 . S
C2601 C2600 1.388 . S
C2601 C2602 1.390 . S
C2602 C2601 1.390 . S
C2602 C2603 1.394 . S
C2602 C2608 1.465 . S
C2603 C2598 1.399 . S
C2603 C2602 1.394 . S
C2603 C2604 1.516 . S
C2604 C2603 1.516 . S
C2604 C2605 1.502 . S
C2604 C2606 1.561 . S
C2604 C2607 1.526 . S
C2605 H2589 0.959 . S
C2605 H2590 0.959 . S
C2605 H2591 0.961 . S
C2605 C2604 1.502 . S
C2606 H2592 0.960 . S
C2606 H2593 0.961 . S
C2606 H2594 0.959 . S
C2606 C2604 1.561 . S
C2607 C2604 1.526 . S
C2607 C2608 1.396 . S
C2607 C2612 1.390 . S
C2608 C2602 1.465 . S
C2608 C2607 1.396 . S
C2608 C2609 1.399 . S
C2609 H2595 0.929 . S
C2609 C2608 1.399 . S
C2609 C2610 1.385 . S
C2610 H2596 0.931 . S
C2610 C2609 1.385 . S
C2610 C2611 1.389 . S
C2611 C2610 1.389 . S
C2611 C2612 1.387 . S
C2612 H2597 0.930 . S
C2612 C2607 1.390 . S
C2612 C2611 1.387 . S
H2613 C2625 0.930 . S
H2614 C2627 0.930 . S
H2615 C2628 0.930 . S
H2616 C2632 0.959 . S
H2617 C2632 0.959 . S
H2618 C2632 0.961 . S
H2619 C2633 0.960 . S
H2620 C2633 0.961 . S
H2621 C2633 0.959 . S
H2622 C2636 0.929 . S
H2623 C2637 0.931 . S
H2624 C2639 0.930 . S
C2625 H2613 0.930 . S
C2625 C2626 1.399 . S
C2625 C2630 1.399 . S
C2626 C2625 1.399 . S
C2626 C2627 1.376 . S
C2627 H2614 0.930 . S
C2627 C2626 1.376 . S
C2627 C2628 1.388 . S
C2628 H2615 0.930 . S
C2628 C2627 1.388 . S
C2628 C2629 1.390 . S
C2629 C2628 1.390 . S
C2629 C2630 1.394 . S
C2629 C2635 1.465 . S
C2630 C2625 1.399 . S
C2630 C2629 1.394 . S
C2630 C2631 1.516 . S
C2631 C2630 1.516 . S
C2631 C2632 1.502 . S
C2631 C2633 1.561 . S
C2631 C2634 1.526 . S
C2632 H2616 0.959 . S
C2632 H2617 0.959 . S
C2632 H2618 0.961 . S
C2632 C2631 1.502 . S
C2633 H2619 0.960 . S
C2633 H2620 0.961 . S
C2633 H2621 0.959 . S
C2633 C2631 1.561 . S
C2634 C2631 1.526 . S
C2634 C2635 1.396 . S
C2634 C2639 1.390 . S
C2635 C2629 1.465 . S
C2635 C2634 1.396 . S
C2635 C2636 1.399 . S
C2636 H2622 0.929 . S
C2636 C2635 1.399 . S
C2636 C2637 1.385 . S
C2637 H2623 0.931 . S
C2637 C2636 1.385 . S
C2637 C2638 1.389 . S
C2638 C2637 1.389 . S
C2638 C2639 1.387 . S
C2639 H2624 0.930 . S
C2639 C2634 1.390 . S
C2639 C2638 1.387 . S
C1357 C72 0.985 . S
C1369 C660 0.877 . S
C1384 C156 2.399 . S
C1396 C392 2.711 . S
C1411 C476 0.581 . S
C1423 C240 0.625 . S
C1438 C308 3.063 . S
C1450 C560 3.100 . S
C1465 C987 0.745 . S
C1477 C399 0.870 . S
C1492 C735 2.319 . S
C1504 C67 2.696 . S
C1519 C907 0.469 . S
C1531 C567 0.645 . S
C1546 C235 3.128 . S
C1558 C823 3.082 . S
C1573 C828 0.795 . S
C1585 C1080 0.880 . S
C1600 C912 2.395 . S
C1612 C1232 2.737 . S
C1627 C1164 0.623 . S
C1639 C728 0.581 . S
C1654 C980 3.080 . S
C1666 C1316 3.114 1_554 S
C1681 C1239 0.798 . S
C1693 C315 0.917 . S
C1708 C1075 2.736 . S
C1720 C483 2.402 . S
C1735 C151 0.681 . S
C1747 C1323 0.841 . S
C1762 C655 3.117 . S
C1774 C1159 3.152 1_556 S
C1789 C1167 0.832 . S
C1801 C75 0.673 . S
C1816 C990 0.648 . S
C1828 C159 0.664 . S
C1843 C1083 0.913 . S
C1855 C243 0.908 . S
C1870 C915 0.625 . S
C1882 C318 0.657 . S
C1897 C402 0.735 . S
C1909 C1326 0.833 . S
C1924 C831 0.426 . S
C1936 C486 0.408 . S
C1951 C570 0.839 . S
C1963 C1242 0.678 . S
C1978 C663 0.391 . S
C1990 C738 0.401 . S
C2005 C66 1.956 . S
C2017 C411 1.944 . S
C2032 C150 1.400 . S
C2044 C495 1.414 . S
C2059 C579 1.287 . S
C2071 C234 1.396 . S
C2086 C327 1.283 . S
C2098 C654 1.298 . S
C2113 C906 1.400 . S
C2125 C747 1.416 . S
C2140 C999 1.334 . S
C2152 C822 1.268 . S
C2167 C1074 1.956 . S
C2179 C1251 1.944 . S
C2194 C1335 1.335 1_455 S
C2206 C1158 1.338 . S
C2221 C56 2.889 . S
C2233 C644 2.885 . S
C2248 C140 0.852 . S
C2260 C408 0.753 . S
C2275 C492 2.103 . S
C2287 C224 2.125 . S
C2302 C576 0.480 . S
C2314 C324 0.495 . S
C2329 C991 2.855 . S
C2341 C403 2.926 . S
C2356 C739 0.841 . S
C2368 C63 0.782 . S
C2383 C903 2.131 . S
C2395 C571 2.107 . S
C2410 C231 0.355 . S
C2422 C819 0.403 . S
C2437 C1064 2.892 . S
C2449 C812 2.896 1_556 S
C2464 C1248 0.815 . S
C2476 C896 0.839 . S
C2491 C1148 2.096 . S
C2503 C744 2.126 . S
C2518 C1332 0.412 . S
C2530 C996 0.545 . S
C2545 C1243 2.901 . S
C2557 C319 2.852 1_554 S
C2572 C487 0.860 . S
C2584 C1071 0.756 . S
C2599 C147 2.138 . S
C2611 C1327 2.100 . S
C2626 C1155 0.523 . S
C2638 C651 0.626 . S
