# Generated by pormake.
# Topology afi, (4)-cn, num edge types: 1
# Building blocks:
#     Node 0, Type 0, BuildingBlock: QUQFOY_clean_sbu_1, # of connection points: 4
#     Node 1, Type 0, BuildingBlock: QUQFOY_clean_sbu_1, # of connection points: 4
#     Node 2, Type 0, BuildingBlock: QUQFOY_clean_sbu_1, # of connection points: 4
#     Node 3, Type 0, BuildingBlock: QUQFOY_clean_sbu_1, # of connection points: 4
#     Node 4, Type 0, BuildingBlock: QUQFOY_clean_sbu_1, # of connection points: 4
#     Node 5, Type 0, BuildingBlock: QUQFOY_clean_sbu_1, # of connection points: 4
#     Node 6, Type 0, BuildingBlock: QUQFOY_clean_sbu_1, # of connection points: 4
#     Node 7, Type 0, BuildingBlock: QUQFOY_clean_sbu_1, # of connection points: 4
#     Node 8, Type 0, BuildingBlock: QUQFOY_clean_sbu_1, # of connection points: 4
#     Node 9, Type 0, BuildingBlock: QUQFOY_clean_sbu_1, # of connection points: 4
#     Node 10, Type 0, BuildingBlock: QUQFOY_clean_sbu_1, # of connection points: 4
#     Node 11, Type 0, BuildingBlock: QUQFOY_clean_sbu_1, # of connection points: 4
#     Node 12, Type 0, BuildingBlock: QUQFOY_clean_sbu_1, # of connection points: 4
#     Node 13, Type 0, BuildingBlock: QUQFOY_clean_sbu_1, # of connection points: 4
#     Node 14, Type 0, BuildingBlock: QUQFOY_clean_sbu_1, # of connection points: 4
#     Node 15, Type 0, BuildingBlock: QUQFOY_clean_sbu_1, # of connection points: 4
#     Node 16, Type 0, BuildingBlock: QUQFOY_clean_sbu_1, # of connection points: 4
#     Node 17, Type 0, BuildingBlock: QUQFOY_clean_sbu_1, # of connection points: 4
#     Node 18, Type 0, BuildingBlock: QUQFOY_clean_sbu_1, # of connection points: 4
#     Node 19, Type 0, BuildingBlock: QUQFOY_clean_sbu_1, # of connection points: 4
#     Node 20, Type 0, BuildingBlock: QUQFOY_clean_sbu_1, # of connection points: 4
#     Node 21, Type 0, BuildingBlock: QUQFOY_clean_sbu_1, # of connection points: 4
#     Node 22, Type 0, BuildingBlock: QUQFOY_clean_sbu_1, # of connection points: 4
#     Node 23, Type 0, BuildingBlock: QUQFOY_clean_sbu_1, # of connection points: 4
#     Edge 24, Type (0, 0), BuildingBlock: ZUJKAS_clean_linker_0, # of connection points: 2
#     Edge 25, Type (0, 0), BuildingBlock: ZUJKAS_clean_linker_0, # of connection points: 2
#     Edge 26, Type (0, 0), BuildingBlock: ZUJKAS_clean_linker_0, # of connection points: 2
#     Edge 27, Type (0, 0), BuildingBlock: ZUJKAS_clean_linker_0, # of connection points: 2
#     Edge 28, Type (0, 0), BuildingBlock: ZUJKAS_clean_linker_0, # of connection points: 2
#     Edge 29, Type (0, 0), BuildingBlock: ZUJKAS_clean_linker_0, # of connection points: 2
#     Edge 30, Type (0, 0), BuildingBlock: ZUJKAS_clean_linker_0, # of connection points: 2
#     Edge 31, Type (0, 0), BuildingBlock: ZUJKAS_clean_linker_0, # of connection points: 2
#     Edge 32, Type (0, 0), BuildingBlock: ZUJKAS_clean_linker_0, # of connection points: 2
#     Edge 33, Type (0, 0), BuildingBlock: ZUJKAS_clean_linker_0, # of connection points: 2
#     Edge 34, Type (0, 0), BuildingBlock: ZUJKAS_clean_linker_0, # of connection points: 2
#     Edge 35, Type (0, 0), BuildingBlock: ZUJKAS_clean_linker_0, # of connection points: 2
#     Edge 36, Type (0, 0), BuildingBlock: ZUJKAS_clean_linker_0, # of connection points: 2
#     Edge 37, Type (0, 0), BuildingBlock: ZUJKAS_clean_linker_0, # of connection points: 2
#     Edge 38, Type (0, 0), BuildingBlock: ZUJKAS_clean_linker_0, # of connection points: 2
#     Edge 39, Type (0, 0), BuildingBlock: ZUJKAS_clean_linker_0, # of connection points: 2
#     Edge 40, Type (0, 0), BuildingBlock: ZUJKAS_clean_linker_0, # of connection points: 2
#     Edge 41, Type (0, 0), BuildingBlock: ZUJKAS_clean_linker_0, # of connection points: 2
#     Edge 42, Type (0, 0), BuildingBlock: ZUJKAS_clean_linker_0, # of connection points: 2
#     Edge 43, Type (0, 0), BuildingBlock: ZUJKAS_clean_linker_0, # of connection points: 2
#     Edge 44, Type (0, 0), BuildingBlock: ZUJKAS_clean_linker_0, # of connection points: 2
#     Edge 45, Type (0, 0), BuildingBlock: ZUJKAS_clean_linker_0, # of connection points: 2
#     Edge 46, Type (0, 0), BuildingBlock: ZUJKAS_clean_linker_0, # of connection points: 2
#     Edge 47, Type (0, 0), BuildingBlock: ZUJKAS_clean_linker_0, # of connection points: 2
#     Edge 48, Type (0, 0), BuildingBlock: ZUJKAS_clean_linker_0, # of connection points: 2
#     Edge 49, Type (0, 0), BuildingBlock: ZUJKAS_clean_linker_0, # of connection points: 2
#     Edge 50, Type (0, 0), BuildingBlock: ZUJKAS_clean_linker_0, # of connection points: 2
#     Edge 51, Type (0, 0), BuildingBlock: ZUJKAS_clean_linker_0, # of connection points: 2
#     Edge 52, Type (0, 0), BuildingBlock: ZUJKAS_clean_linker_0, # of connection points: 2
#     Edge 53, Type (0, 0), BuildingBlock: ZUJKAS_clean_linker_0, # of connection points: 2
#     Edge 54, Type (0, 0), BuildingBlock: ZUJKAS_clean_linker_0, # of connection points: 2
#     Edge 55, Type (0, 0), BuildingBlock: ZUJKAS_clean_linker_0, # of connection points: 2
#     Edge 56, Type (0, 0), BuildingBlock: ZUJKAS_clean_linker_0, # of connection points: 2
#     Edge 57, Type (0, 0), BuildingBlock: ZUJKAS_clean_linker_0, # of connection points: 2
#     Edge 58, Type (0, 0), BuildingBlock: ZUJKAS_clean_linker_0, # of connection points: 2
#     Edge 59, Type (0, 0), BuildingBlock: ZUJKAS_clean_linker_0, # of connection points: 2
#     Edge 60, Type (0, 0), BuildingBlock: ZUJKAS_clean_linker_0, # of connection points: 2
#     Edge 61, Type (0, 0), BuildingBlock: ZUJKAS_clean_linker_0, # of connection points: 2
#     Edge 62, Type (0, 0), BuildingBlock: ZUJKAS_clean_linker_0, # of connection points: 2
#     Edge 63, Type (0, 0), BuildingBlock: ZUJKAS_clean_linker_0, # of connection points: 2
#     Edge 64, Type (0, 0), BuildingBlock: ZUJKAS_clean_linker_0, # of connection points: 2
#     Edge 65, Type (0, 0), BuildingBlock: ZUJKAS_clean_linker_0, # of connection points: 2
#     Edge 66, Type (0, 0), BuildingBlock: ZUJKAS_clean_linker_0, # of connection points: 2
#     Edge 67, Type (0, 0), BuildingBlock: ZUJKAS_clean_linker_0, # of connection points: 2
#     Edge 68, Type (0, 0), BuildingBlock: ZUJKAS_clean_linker_0, # of connection points: 2
#     Edge 69, Type (0, 0), BuildingBlock: ZUJKAS_clean_linker_0, # of connection points: 2
#     Edge 70, Type (0, 0), BuildingBlock: ZUJKAS_clean_linker_0, # of connection points: 2
#     Edge 71, Type (0, 0), BuildingBlock: ZUJKAS_clean_linker_0, # of connection points: 2
# Relax obj value: 0.130
# Max RMSD: 0.171
# Mean RMSD: 0.171
data_MOF--net-afi--node1-QUQFOY_clean_sbu_1--edge1-ZUJKAS_clean_linker_0
_symmetry_space_group_name_H-M    P1
_symmetry_Int_Tables_number       1
_symmetry_cell_setting            triclinic
loop_
_symmetry_equiv_pos_as_xyz
'x, y, z'
_cell_length_a     88.013977
_cell_length_b     88.00074
_cell_length_c     57.382025
_cell_angle_alpha  89.994851
_cell_angle_beta   90.00769
_cell_angle_gamma 119.99944
loop_
_atom_site_label
_atom_site_type_symbol
_atom_site_fract_x
_atom_site_fract_y
_atom_site_fract_z
_atom_type_partial_charge
O0 O 0.4798 0.12927 0.21823 0.0
Cd1 Cd 0.45491 0.12444 0.21014 0.0
Cd2 Cd 0.46171 0.11017 0.17041 0.0
O3 O 0.48621 0.12059 0.18547 0.0
O4 O 0.45037 0.13717 0.23541 0.0
O5 O 0.45141 0.1441 0.19825 0.0
C6 C 0.44952 0.14718 0.21975 0.0
C7 C 0.46051 0.11378 0.13007 0.0
C8 C 0.49055 0.1272 0.20574 0.0
C9 C 0.43219 0.08567 0.20238 0.0
O10 O 0.44191 0.08733 0.18506 0.0
O11 O 0.43453 0.09903 0.21382 0.0
O12 O 0.46481 0.10293 0.13865 0.0
O13 O 0.45682 0.12275 0.14449 0.0
O14 O 0.35104 0.48018 0.2147 0.0
Cd15 Cd 0.33106 0.45462 0.21077 0.0
Cd16 Cd 0.35124 0.45706 0.17106 0.0
O17 O 0.36786 0.48142 0.18537 0.0
O18 O 0.31483 0.45224 0.23649 0.0
O19 O 0.30719 0.44951 0.19944 0.0
C20 C 0.30313 0.44954 0.22106 0.0
C21 C 0.34652 0.45612 0.13074 0.0
C22 C 0.36511 0.48846 0.20301 0.0
C23 C 0.34465 0.4291 0.20627 0.0
O24 O 0.35099 0.43576 0.18649 0.0
O25 O 0.3365 0.43487 0.21834 0.0
O26 O 0.36104 0.45839 0.13932 0.0
O27 O 0.33441 0.4542 0.14515 0.0
O28 O 0.87177 0.35209 0.21621 0.0
Cd29 Cd 0.87666 0.33174 0.21161 0.0
Cd30 Cd 0.89261 0.35054 0.17043 0.0
O31 O 0.88491 0.36729 0.18461 0.0
O32 O 0.86271 0.31507 0.2369 0.0
O33 O 0.85779 0.30824 0.19956 0.0
C34 C 0.85367 0.30374 0.22108 0.0
C35 C 0.88859 0.34568 0.1301 0.0
C36 C 0.87653 0.3655 0.20341 0.0
C37 C 0.91528 0.34486 0.20493 0.0
O38 O 0.91418 0.35075 0.18515 0.0
O39 O 0.90187 0.33696 0.21796 0.0
O40 O 0.90076 0.36028 0.13857 0.0
O41 O 0.87857 0.33356 0.14463 0.0
O42 O 0.52213 0.87246 0.21758 0.0
Cd43 Cd 0.54708 0.8772 0.21014 0.0
Cd44 Cd 0.54094 0.89208 0.17035 0.0
O45 O 0.51635 0.88194 0.18502 0.0
O46 O 0.55114 0.86429 0.23565 0.0
O47 O 0.55059 0.85748 0.19852 0.0
C48 C 0.55215 0.8543 0.2201 0.0
C49 C 0.54262 0.88857 0.13009 0.0
C50 C 0.51166 0.87496 0.20505 0.0
C51 C 0.57037 0.91602 0.2028 0.0
O52 O 0.56092 0.91465 0.18528 0.0
O53 O 0.56761 0.90251 0.21422 0.0
O54 O 0.53844 0.89957 0.13847 0.0
O55 O 0.54582 0.87934 0.14468 0.0
O56 O 0.65115 0.52616 0.22037 0.0
Cd57 Cd 0.67159 0.55016 0.20968 0.0
Cd58 Cd 0.65052 0.54236 0.17054 0.0
O59 O 0.6363 0.5186 0.18736 0.0
O60 O 0.69045 0.55623 0.23314 0.0
O61 O 0.69303 0.55074 0.19615 0.0
C62 C 0.69961 0.55462 0.21687 0.0
C63 C 0.65511 0.54222 0.1303 0.0
C64 C 0.6383 0.51504 0.20822 0.0
C65 C 0.65665 0.57351 0.19946 0.0
O66 O 0.64791 0.5629 0.18321 0.0
O67 O 0.66781 0.57148 0.21104 0.0
O68 O 0.64 0.53818 0.13878 0.0
O69 O 0.6678 0.54621 0.14478 0.0
O70 O 0.12901 0.64991 0.21492 0.0
Cd71 Cd 0.12422 0.67038 0.21019 0.0
Cd72 Cd 0.10712 0.65038 0.17012 0.0
O73 O 0.11452 0.63357 0.18465 0.0
O74 O 0.13807 0.68659 0.23594 0.0
O75 O 0.14349 0.69399 0.19885 0.0
C76 C 0.14741 0.6981 0.2205 0.0
C77 C 0.11095 0.65538 0.12982 0.0
C78 C 0.12356 0.63598 0.20299 0.0
C79 C 0.08536 0.6572 0.20463 0.0
O80 O 0.08593 0.65053 0.18523 0.0
O81 O 0.09914 0.6656 0.21691 0.0
O82 O 0.09875 0.64077 0.13826 0.0
O83 O 0.12119 0.66735 0.14436 0.0
O84 O 0.87485 0.52545 0.29087 0.0
Cd85 Cd 0.87865 0.54975 0.30011 0.0
Cd86 Cd 0.8927 0.5434 0.34006 0.0
O87 O 0.88397 0.51953 0.32365 0.0
O88 O 0.86567 0.55515 0.27614 0.0
O89 O 0.85812 0.55108 0.31338 0.0
C90 C 0.85519 0.55428 0.2924 0.0
C91 C 0.88782 0.54313 0.38031 0.0
C92 C 0.87759 0.51508 0.30326 0.0
C93 C 0.91707 0.57398 0.30964 0.0
O94 O 0.91542 0.56447 0.32721 0.0
O95 O 0.9038 0.57077 0.29731 0.0
O96 O 0.8994 0.53978 0.37191 0.0
O97 O 0.87877 0.5466 0.36575 0.0
O98 O 0.35077 0.8734 0.29201 0.0
Cd99 Cd 0.33082 0.87834 0.3003 0.0
Cd100 Cd 0.35142 0.89197 0.3404 0.0
O101 O 0.36533 0.88142 0.32522 0.0
O102 O 0.31315 0.86552 0.2755 0.0
O103 O 0.30787 0.85884 0.31284 0.0
C104 C 0.30254 0.85563 0.29148 0.0
C105 C 0.34665 0.88801 0.38074 0.0
C106 C 0.36332 0.87511 0.3048 0.0
C107 C 0.34694 0.91701 0.30877 0.0
O108 O 0.35478 0.91507 0.32616 0.0
O109 O 0.33598 0.90381 0.297 0.0
O110 O 0.36181 0.89885 0.37219 0.0
O111 O 0.33394 0.87931 0.36629 0.0
O112 O 0.4817 0.35282 0.29633 0.0
Cd113 Cd 0.45643 0.33245 0.3006 0.0
Cd114 Cd 0.45902 0.35086 0.34188 0.0
O115 O 0.48357 0.36775 0.32813 0.0
O116 O 0.45391 0.31588 0.27529 0.0
O117 O 0.45181 0.30896 0.31261 0.0
C118 C 0.45161 0.30454 0.29109 0.0
C119 C 0.45793 0.34551 0.38208 0.0
C120 C 0.49029 0.36611 0.30936 0.0
C121 C 0.43088 0.3455 0.30725 0.0
O122 O 0.43778 0.35124 0.32712 0.0
O123 O 0.43645 0.33769 0.29415 0.0
O124 O 0.46041 0.36021 0.37393 0.0
O125 O 0.45589 0.33356 0.3673 0.0
O126 O 0.12866 0.47964 0.29687 0.0
Cd127 Cd 0.1237 0.45437 0.30177 0.0
Cd128 Cd 0.10599 0.45689 0.34099 0.0
O129 O 0.11309 0.48097 0.32615 0.0
O130 O 0.13801 0.45196 0.27673 0.0
O131 O 0.14264 0.44991 0.3141 0.0
C132 C 0.147 0.44972 0.29265 0.0
C133 C 0.1104 0.45631 0.38122 0.0
C134 C 0.12265 0.48785 0.30828 0.0
C135 C 0.08477 0.4284 0.30638 0.0
O136 O 0.08501 0.43524 0.32599 0.0
O137 O 0.0987 0.4342 0.29433 0.0
O138 O 0.09789 0.45831 0.37296 0.0
O139 O 0.12051 0.45451 0.36653 0.0
O140 O 0.65044 0.12661 0.29243 0.0
Cd141 Cd 0.67086 0.12228 0.30027 0.0
Cd142 Cd 0.65055 0.10836 0.3406 0.0
O143 O 0.6363 0.11875 0.32596 0.0
O144 O 0.68807 0.13524 0.27504 0.0
O145 O 0.69379 0.14222 0.31224 0.0
C146 C 0.69879 0.14538 0.29075 0.0
C147 C 0.65567 0.11188 0.38089 0.0
C148 C 0.638 0.12487 0.30547 0.0
C149 C 0.65543 0.08372 0.30862 0.0
O150 O 0.64745 0.08547 0.32599 0.0
O151 O 0.66628 0.09701 0.29693 0.0
O152 O 0.64047 0.10103 0.37246 0.0
O153 O 0.66818 0.12097 0.36634 0.0
O154 O 0.52194 0.6496 0.29377 0.0
Cd155 Cd 0.54723 0.66979 0.29976 0.0
Cd156 Cd 0.5429 0.64859 0.33896 0.0
O157 O 0.51851 0.63296 0.32437 0.0
O158 O 0.5504 0.68678 0.2747 0.0
O159 O 0.55136 0.69307 0.31209 0.0
C160 C 0.55216 0.69784 0.29062 0.0
C161 C 0.54444 0.6537 0.37921 0.0
C162 C 0.51263 0.63579 0.30563 0.0
C163 C 0.57185 0.65535 0.30519 0.0
O164 O 0.56352 0.64757 0.32356 0.0
O165 O 0.56773 0.66514 0.29376 0.0
O166 O 0.54122 0.63881 0.37079 0.0
O167 O 0.54678 0.66589 0.36466 0.0
O168 O 0.52176 0.87206 0.79355 0.0
Cd169 Cd 0.54688 0.87684 0.79918 0.0
Cd170 Cd 0.54265 0.89217 0.84032 0.0
O171 O 0.51798 0.88314 0.82608 0.0
O172 O 0.55008 0.86359 0.77336 0.0
O173 O 0.55104 0.85746 0.81045 0.0
C174 C 0.55184 0.85395 0.78878 0.0
C175 C 0.544 0.88856 0.88065 0.0
C176 C 0.51223 0.87555 0.80656 0.0
C177 C 0.57137 0.91559 0.80652 0.0
O178 O 0.56338 0.91431 0.82552 0.0
O179 O 0.56701 0.90214 0.79395 0.0
O180 O 0.54064 0.90011 0.87214 0.0
O181 O 0.54663 0.87887 0.86617 0.0
O182 O 0.64968 0.52321 0.79253 0.0
Cd183 Cd 0.67 0.54793 0.80088 0.0
Cd184 Cd 0.64913 0.54118 0.84064 0.0
O185 O 0.63481 0.51676 0.82547 0.0
O186 O 0.68752 0.55232 0.77604 0.0
O187 O 0.69278 0.5509 0.81337 0.0
C188 C 0.69805 0.55286 0.792 0.0
C189 C 0.65418 0.5423 0.8809 0.0
C190 C 0.6369 0.51246 0.80508 0.0
C191 C 0.65468 0.57119 0.80928 0.0
O192 O 0.64643 0.5613 0.8264 0.0
O193 O 0.66555 0.56872 0.79768 0.0
O194 O 0.63901 0.53813 0.87251 0.0
O195 O 0.6667 0.54582 0.86631 0.0
O196 O 0.12808 0.64983 0.79269 0.0
Cd197 Cd 0.1237 0.67036 0.79908 0.0
Cd198 Cd 0.10886 0.65063 0.84005 0.0
O199 O 0.11809 0.63523 0.82565 0.0
O200 O 0.13687 0.68694 0.77333 0.0
O201 O 0.14337 0.6937 0.81044 0.0
C202 C 0.14674 0.69815 0.78878 0.0
C203 C 0.11251 0.6557 0.88038 0.0
C204 C 0.12508 0.63696 0.80572 0.0
C205 C 0.08506 0.65592 0.80681 0.0
O206 O 0.0865 0.6488 0.82534 0.0
O207 O 0.09847 0.66554 0.79444 0.0
O208 O 0.10109 0.64072 0.87193 0.0
O209 O 0.12208 0.66802 0.86583 0.0
O210 O 0.47817 0.12796 0.79419 0.0
Cd211 Cd 0.45293 0.12264 0.80116 0.0
Cd212 Cd 0.45844 0.10655 0.84036 0.0
O213 O 0.48251 0.11536 0.82477 0.0
O214 O 0.44904 0.1358 0.77584 0.0
O215 O 0.44888 0.14196 0.81308 0.0
C216 C 0.4476 0.14544 0.79154 0.0
C217 C 0.45807 0.11093 0.88061 0.0
C218 C 0.48787 0.1238 0.80575 0.0
C219 C 0.42888 0.08356 0.80785 0.0
O220 O 0.43766 0.0845 0.82593 0.0
O221 O 0.43255 0.09726 0.79619 0.0
O222 O 0.46123 0.09922 0.87221 0.0
O223 O 0.45499 0.12027 0.86604 0.0
O224 O 0.35229 0.4797 0.79577 0.0
Cd225 Cd 0.33212 0.45433 0.80149 0.0
Cd226 Cd 0.35304 0.45868 0.84114 0.0
O227 O 0.36888 0.48293 0.82636 0.0
O228 O 0.31558 0.45114 0.77579 0.0
O229 O 0.30855 0.45005 0.81292 0.0
C230 C 0.30419 0.44928 0.79127 0.0
C231 C 0.3479 0.45763 0.88136 0.0
C232 C 0.36611 0.48889 0.80766 0.0
C233 C 0.34655 0.4297 0.80766 0.0
O234 O 0.35405 0.43794 0.8262 0.0
O235 O 0.33698 0.43391 0.79587 0.0
O236 O 0.36276 0.46063 0.87307 0.0
O237 O 0.33573 0.45514 0.86669 0.0
O238 O 0.87307 0.35127 0.79363 0.0
Cd239 Cd 0.87784 0.33098 0.79997 0.0
Cd240 Cd 0.89319 0.35099 0.84044 0.0
O241 O 0.8847 0.36683 0.82552 0.0
O242 O 0.86455 0.31415 0.77452 0.0
O243 O 0.85842 0.30766 0.81176 0.0
C244 C 0.8549 0.30302 0.79018 0.0
C245 C 0.88892 0.34599 0.88071 0.0
C246 C 0.87692 0.36466 0.80609 0.0
C247 C 0.91657 0.34517 0.80737 0.0
O248 O 0.9153 0.35212 0.82616 0.0
O249 O 0.90311 0.33596 0.79487 0.0
O250 O 0.90074 0.36084 0.87238 0.0
O251 O 0.87936 0.33374 0.86607 0.0
O252 O 0.12896 0.47819 0.71879 0.0
Cd253 Cd 0.12433 0.45336 0.71113 0.0
Cd254 Cd 0.1095 0.45917 0.67109 0.0
O255 O 0.11874 0.48347 0.68654 0.0
O256 O 0.1377 0.4493 0.73597 0.0
O257 O 0.1438 0.44986 0.69855 0.0
C258 C 0.14739 0.4483 0.71994 0.0
C259 C 0.11342 0.45872 0.63068 0.0
C260 C 0.12589 0.48835 0.70646 0.0
C261 C 0.08564 0.42949 0.70343 0.0
O262 O 0.08709 0.43841 0.68526 0.0
O263 O 0.09906 0.43298 0.7156 0.0
O264 O 0.10198 0.46213 0.63943 0.0
O265 O 0.12281 0.45549 0.64497 0.0
O266 O 0.6493 0.13105 0.71376 0.0
Cd267 Cd 0.66904 0.12509 0.71063 0.0
Cd268 Cd 0.64982 0.10789 0.67043 0.0
O269 O 0.63299 0.11569 0.68394 0.0
O270 O 0.68565 0.13945 0.73573 0.0
O271 O 0.69284 0.14319 0.69845 0.0
C272 C 0.6972 0.14787 0.71987 0.0
C273 C 0.65523 0.11146 0.63021 0.0
C274 C 0.63548 0.12542 0.70156 0.0
C275 C 0.65531 0.08609 0.70633 0.0
O276 O 0.64968 0.08672 0.68615 0.0
O277 O 0.66309 0.09983 0.71881 0.0
O278 O 0.64052 0.09936 0.63851 0.0
O279 O 0.66711 0.12171 0.64486 0.0
O280 O 0.52244 0.65004 0.71434 0.0
Cd281 Cd 0.54778 0.67012 0.70827 0.0
Cd282 Cd 0.54329 0.64916 0.66884 0.0
O283 O 0.51899 0.63349 0.6836 0.0
O284 O 0.55123 0.68723 0.73331 0.0
O285 O 0.55197 0.69341 0.6959 0.0
C286 C 0.55295 0.69826 0.71736 0.0
C287 C 0.54457 0.65421 0.62857 0.0
C288 C 0.51314 0.63626 0.70241 0.0
C289 C 0.57218 0.65544 0.70243 0.0
O290 O 0.56387 0.64792 0.68394 0.0
O291 O 0.56813 0.66519 0.7141 0.0
O292 O 0.54135 0.63932 0.63699 0.0
O293 O 0.54707 0.66645 0.64314 0.0
O294 O 0.87218 0.52212 0.71707 0.0
Cd295 Cd 0.87702 0.54723 0.71086 0.0
Cd296 Cd 0.89217 0.54254 0.67004 0.0
O297 O 0.88359 0.5182 0.68497 0.0
O298 O 0.86384 0.55077 0.73645 0.0
O299 O 0.85766 0.5513 0.69928 0.0
C300 C 0.85419 0.55236 0.72089 0.0
C301 C 0.88794 0.54308 0.62972 0.0
C302 C 0.87592 0.51258 0.70445 0.0
C303 C 0.91576 0.57166 0.70315 0.0
O304 O 0.91437 0.56346 0.6843 0.0
O305 O 0.90237 0.56744 0.71578 0.0
O306 O 0.89971 0.54002 0.63818 0.0
O307 O 0.87845 0.54596 0.64425 0.0
O308 O 0.35093 0.87377 0.71855 0.0
Cd309 Cd 0.33077 0.87826 0.70964 0.0
Cd310 Cd 0.35214 0.89261 0.67036 0.0
O311 O 0.3666 0.88296 0.6863 0.0
O312 O 0.31303 0.86525 0.73431 0.0
O313 O 0.30803 0.85846 0.69699 0.0
C314 C 0.30259 0.85523 0.7183 0.0
C315 C 0.34722 0.88811 0.63013 0.0
C316 C 0.36411 0.87626 0.70654 0.0
C317 C 0.34608 0.91692 0.70116 0.0
O318 O 0.35442 0.91537 0.6841 0.0
O319 O 0.33527 0.90354 0.71277 0.0
O320 O 0.36233 0.89935 0.63846 0.0
O321 O 0.33469 0.87924 0.64476 0.0
O322 O 0.47716 0.35068 0.72004 0.0
Cd323 Cd 0.45252 0.33006 0.71207 0.0
Cd324 Cd 0.45883 0.34994 0.67142 0.0
O325 O 0.48328 0.36463 0.68637 0.0
O326 O 0.44833 0.31268 0.73703 0.0
O327 O 0.44973 0.30733 0.69972 0.0
C328 C 0.44785 0.30213 0.72112 0.0
C329 C 0.45796 0.34481 0.63119 0.0
C330 C 0.48775 0.36314 0.70693 0.0
C331 C 0.42892 0.34482 0.70274 0.0
O332 O 0.43864 0.35268 0.68532 0.0
O333 O 0.43161 0.33433 0.71492 0.0
O334 O 0.46189 0.35994 0.63947 0.0
O335 O 0.45445 0.33234 0.64586 0.0
H336 H 0.40374 0.07632 0.23057 0.0
H337 H 0.38466 0.04756 0.24816 0.0
H338 H 0.41322 0.02659 0.21221 0.0
H339 H 0.43167 0.05497 0.1937 0.0
H340 H 0.38001 0.00327 0.21276 0.0
H341 H 0.39941 0.0298 0.30232 0.0
H342 H 0.38882 0.03944 0.28639 0.0
H343 H 0.40976 0.04281 0.27679 0.0
C344 C 0.40578 0.0655 0.2262 0.0
C345 C 0.41929 0.06794 0.21089 0.0
C346 C 0.39498 0.04911 0.23645 0.0
C347 C 0.39782 0.03502 0.2321 0.0
C348 C 0.41081 0.03727 0.21599 0.0
H349 H 0.37738 0.9474 0.31763 0.0
H350 H 0.38768 0.97593 0.29938 0.0
C351 C 0.42136 0.05352 0.20538 0.0
C352 C 0.38779 0.01807 0.2447 0.0
H353 H 0.37846 0.99975 0.29905 0.0
C354 C 0.37962 0.00249 0.23164 0.0
C355 C 0.38746 0.01705 0.26937 0.0
C356 C 0.39697 0.03314 0.28456 0.0
C357 C 0.37158 0.98596 0.24244 0.0
C358 C 0.37101 0.98495 0.26711 0.0
C359 C 0.37875 1.00052 0.28017 0.0
C360 C 0.36386 0.96795 0.27968 0.0
C361 C 0.36465 0.96985 0.22722 0.0
C362 C 0.34679 0.95407 0.27537 0.0
C363 C 0.341 0.93759 0.28545 0.0
C364 C 0.35198 0.93485 0.30057 0.0
C365 C 0.36859 0.94908 0.3061 0.0
C366 C 0.3745 0.96542 0.29564 0.0
H367 H 0.37036 0.9731 0.20941 0.0
H368 H 0.36756 0.96 0.23489 0.0
H369 H 0.35022 0.96381 0.2255 0.0
H370 H 0.3381 0.95584 0.26379 0.0
H371 H 0.32805 0.92692 0.28108 0.0
H372 H 0.41941 0.34302 0.26239 0.0
H373 H 0.40051 0.35355 0.24686 0.0
H374 H 0.3925 0.36694 0.31632 0.0
H375 H 0.41192 0.35701 0.33194 0.0
H376 H 0.36692 0.34591 0.25309 0.0
H377 H 0.41275 0.41361 0.28379 0.0
H378 H 0.41824 0.39644 0.28464 0.0
H379 H 0.40443 0.39768 0.30679 0.0
C380 C 0.41349 0.34802 0.27443 0.0
C381 C 0.4174 0.34943 0.29838 0.0
C382 C 0.40266 0.35403 0.2655 0.0
C383 C 0.39545 0.36144 0.28035 0.0
C384 C 0.39835 0.36175 0.30446 0.0
H385 H 0.33844 0.41639 0.25085 0.0
H386 H 0.34838 0.39773 0.26896 0.0
C387 C 0.40937 0.35597 0.31338 0.0
C388 C 0.38575 0.3697 0.27039 0.0
H389 H 0.38645 0.40876 0.26624 0.0
C390 C 0.37116 0.35964 0.25601 0.0
C391 C 0.39141 0.38768 0.27402 0.0
C392 C 0.40766 0.39954 0.28795 0.0
C393 C 0.36205 0.36708 0.24527 0.0
C394 C 0.36769 0.38498 0.24906 0.0
C395 C 0.3821 0.39498 0.2636 0.0
C396 C 0.35941 0.39397 0.23732 0.0
C397 C 0.34648 0.35584 0.22996 0.0
C398 C 0.36213 0.39779 0.21344 0.0
C399 C 0.35661 0.40858 0.20303 0.0
C400 C 0.34825 0.4157 0.21635 0.0
C401 C 0.34482 0.41112 0.24005 0.0
C402 C 0.35048 0.40046 0.25047 0.0
H403 H 0.34189 0.34164 0.23206 0.0
H404 H 0.33547 0.35818 0.23397 0.0
H405 H 0.35019 0.35945 0.21145 0.0
H406 H 0.36921 0.39306 0.20309 0.0
H407 H 0.35945 0.41182 0.18475 0.0
H408 H 0.92414 0.34213 0.24975 0.0
H409 H 0.95352 0.35257 0.26538 0.0
H410 H 0.97511 0.36629 0.19605 0.0
H411 H 0.9458 0.35647 0.18033 0.0
H412 H 0.97947 0.34499 0.25922 0.0
H413 H 0.00146 0.4128 0.22889 0.0
H414 H 0.97881 0.39565 0.22786 0.0
H415 H 0.99394 0.39697 0.20577 0.0
C416 C 0.9351 0.34719 0.23776 0.0
C417 C 0.93266 0.34872 0.21382 0.0
C418 C 0.95191 0.35315 0.24674 0.0
C419 C 0.96657 0.36062 0.23197 0.0
C420 C 0.96404 0.36105 0.20786 0.0
H421 H 0.0784 0.41528 0.26202 0.0
H422 H 0.04985 0.39653 0.24386 0.0
C423 C 0.94726 0.35533 0.19888 0.0
C424 C 0.9845 0.36884 0.24202 0.0
H425 H 0.02286 0.40788 0.24647 0.0
C426 C 0.98897 0.35872 0.25638 0.0
C427 C 0.99684 0.38683 0.23851 0.0
C428 C 0.9925 0.39875 0.22462 0.0
C429 C 0.00548 0.36613 0.26723 0.0
C430 C 0.01776 0.38403 0.26355 0.0
C431 C 0.0134 0.39408 0.24902 0.0
C432 C 0.03498 0.39298 0.27538 0.0
C433 C 0.00976 0.35485 0.28255 0.0
C434 C 0.03603 0.39693 0.2992 0.0
C435 C 0.05231 0.40778 0.30964 0.0
C436 C 0.06783 0.41483 0.29639 0.0
C437 C 0.06674 0.41007 0.27276 0.0
C438 C 0.05044 0.39936 0.26233 0.0
H439 H 1.00008 0.34067 0.28052 0.0
H440 H 0.02306 0.35709 0.27847 0.0
H441 H 0.00975 0.35853 0.30105 0.0
H442 H 0.02419 0.39227 0.30948 0.0
H443 H 0.05267 0.41115 0.32786 0.0
H444 H 0.57234 0.94732 0.19336 0.0
H445 H 0.59172 0.97567 0.21126 0.0
H446 H 0.61803 0.95311 0.24914 0.0
H447 H 0.59803 0.9244 0.23207 0.0
H448 H 0.61095 0.97126 0.27739 0.0
H449 H 0.64073 0.01268 0.20001 0.0
H450 H 0.61734 0.00189 0.19771 0.0
H451 H 0.62817 0.98908 0.19811 0.0
C452 C 0.58246 0.94844 0.20516 0.0
C453 C 0.58367 0.93362 0.21127 0.0
C454 C 0.59365 0.96473 0.21529 0.0
C455 C 0.60662 0.96668 0.23124 0.0
C456 C 0.6082 0.95198 0.23681 0.0
H457 H 0.67453 0.07451 0.28027 0.0
H458 H 0.66531 0.04556 0.26364 0.0
C459 C 0.59678 0.93559 0.22701 0.0
C460 C 0.61738 0.98365 0.24359 0.0
H461 H 0.64031 0.02793 0.23502 0.0
C462 C 0.61765 0.98363 0.26808 0.0
C463 C 0.62652 0.99984 0.2316 0.0
C464 C 0.62834 0.00084 0.20541 0.0
C465 C 0.62594 0.99934 0.28084 0.0
C466 C 0.6336 0.01555 0.26882 0.0
C467 C 0.63419 0.01555 0.24435 0.0
C468 C 0.64012 0.0326 0.28108 0.0
C469 C 0.62637 0.99829 0.30706 0.0
C470 C 0.62917 0.03497 0.29668 0.0
C471 C 0.63457 0.0514 0.30659 0.0
C472 C 0.65084 0.06594 0.30058 0.0
C473 C 0.66192 0.06354 0.28523 0.0
C474 C 0.65664 0.04701 0.27568 0.0
H475 H 0.62646 0.98624 0.31265 0.0
H476 H 0.63805 0.00986 0.31456 0.0
H477 H 0.61438 0.9976 0.3144 0.0
H478 H 0.61613 0.02429 0.30057 0.0
H479 H 0.62562 0.05286 0.31808 0.0
H480 H 0.57623 0.62753 0.31523 0.0
H481 H 0.5961 0.61958 0.29657 0.0
H482 H 0.61838 0.66711 0.25575 0.0
H483 H 0.59778 0.67472 0.27361 0.0
H484 H 0.61205 0.64155 0.22877 0.0
H485 H 0.64612 0.63466 0.30488 0.0
H486 H 0.62296 0.62106 0.30897 0.0
H487 H 0.63253 0.64458 0.30712 0.0
C488 C 0.58557 0.63647 0.30259 0.0
C489 C 0.58546 0.65178 0.29594 0.0
C490 C 0.59706 0.63197 0.29203 0.0
C491 C 0.60907 0.64291 0.27508 0.0
C492 C 0.60932 0.65849 0.26887 0.0
H493 H 0.67692 0.60318 0.22507 0.0
H494 H 0.66833 0.62367 0.24074 0.0
C495 C 0.59756 0.66284 0.27911 0.0
C496 C 0.62012 0.63721 0.26243 0.0
H497 H 0.64473 0.6176 0.27072 0.0
C498 C 0.61949 0.63665 0.23796 0.0
C499 C 0.63028 0.63122 0.27422 0.0
C500 C 0.63317 0.63312 0.30023 0.0
C501 C 0.62777 0.62926 0.22511 0.0
C502 C 0.6363 0.62155 0.23707 0.0
C503 C 0.63791 0.62315 0.26144 0.0
C504 C 0.6425 0.61067 0.22501 0.0
C505 C 0.62715 0.62977 0.19885 0.0
C506 C 0.631 0.59668 0.21064 0.0
C507 C 0.63603 0.58523 0.20125 0.0
C508 C 0.65249 0.58718 0.2066 0.0
C509 C 0.66415 0.60135 0.22063 0.0
C510 C 0.65923 0.61304 0.22964 0.0
H511 H 0.62688 0.64163 0.19283 0.0
H512 H 0.6386 0.62973 0.19077 0.0
H513 H 0.61495 0.61816 0.19256 0.0
H514 H 0.6178 0.59413 0.20742 0.0
H515 H 0.62664 0.5743 0.19079 0.0
H516 H 0.05309 0.63883 0.18398 0.0
H517 H 0.02453 0.6292 0.2019 0.0
H518 H 0.05 0.65717 0.26479 0.0
H519 H 0.07866 0.66704 0.24698 0.0
H520 H 0.01411 0.60848 0.24169 0.0
H521 H 0.01081 0.66919 0.25572 0.0
H522 H 0.02595 0.66808 0.23546 0.0
H523 H 0.03056 0.67022 0.26616 0.0
C524 C 0.05267 0.64326 0.20145 0.0
C525 C 0.0682 0.65363 0.21409 0.0
C526 C 0.03632 0.63774 0.21166 0.0
C527 C 0.03515 0.64255 0.23462 0.0
C528 C 0.0506 0.65355 0.24692 0.0
H529 H 0.94875 0.58211 0.32883 0.0
H530 H 0.97781 0.60058 0.31185 0.0
C531 C 0.06698 0.6591 0.23672 0.0
C532 C 0.0179 0.63441 0.2465 0.0
H533 H 0.98902 0.64329 0.27474 0.0
C534 C 0.00859 0.61609 0.24882 0.0
C535 C 0.01074 0.64439 0.25573 0.0
C536 C 0.01993 0.66405 0.25301 0.0
C537 C 0.9924 0.60745 0.26034 0.0
C538 C 0.98543 0.61743 0.27007 0.0
C539 C 0.99455 0.63574 0.26749 0.0
C540 C 0.96837 0.60877 0.28234 0.0
C541 C 0.98277 0.58768 0.2618 0.0
C542 C 0.95357 0.60791 0.27186 0.0
C543 C 0.93692 0.59736 0.28149 0.0
C544 C 0.93481 0.58752 0.30182 0.0
C545 C 0.94986 0.5894 0.3131 0.0
C546 C 0.96648 0.59993 0.30342 0.0
H547 H 0.98821 0.58183 0.24957 0.0
H548 H 0.9839 0.58367 0.27976 0.0
H549 H 0.96861 0.58216 0.25791 0.0
H550 H 0.9548 0.6147 0.2556 0.0
H551 H 0.92564 0.59631 0.27241 0.0
H552 H 0.58727 0.92374 0.76379 0.0
H553 H 0.6058 0.95297 0.74733 0.0
H554 H 0.60409 0.97642 0.81247 0.0
H555 H 0.58537 0.94723 0.82916 0.0
H556 H 0.59179 0.97888 0.74924 0.0
H557 H 0.65798 0.00286 0.78791 0.0
H558 H 0.64265 0.97976 0.78355 0.0
H559 H 0.639 0.99142 0.80644 0.0
C560 C 0.59108 0.93507 0.77483 0.0
C561 C 0.58471 0.93312 0.79778 0.0
C562 C 0.60169 0.95176 0.76536 0.0
C563 C 0.60634 0.96677 0.77874 0.0
C564 C 0.60075 0.96494 0.80198 0.0
H565 H 0.65692 0.07806 0.75197 0.0
H566 H 0.64618 0.04893 0.76879 0.0
C567 C 0.59001 0.94825 0.81144 0.0
C568 C 0.61525 0.98425 0.76761 0.0
H569 H 0.65408 0.02288 0.76478 0.0
C570 C 0.60544 0.98849 0.75247 0.0
C571 C 0.63295 0.99673 0.77219 0.0
C572 C 0.6439 0.99257 0.78833 0.0
C573 C 0.61278 0.00508 0.742 0.0
C574 C 0.63063 0.01756 0.74621 0.0
C575 C 0.64046 0.01326 0.76139 0.0
C576 C 0.63902 0.03534 0.73569 0.0
C577 C 0.60112 0.00923 0.72723 0.0
C578 C 0.63921 0.03747 0.71142 0.0
C579 C 0.64511 0.05407 0.70175 0.0
C580 C 0.65129 0.06892 0.71618 0.0
C581 C 0.65221 0.06689 0.74037 0.0
C582 C 0.64607 0.05024 0.75003 0.0
H583 H 0.587 1.00027 0.7311 0.0
H584 H 0.60412 0.02295 0.73001 0.0
H585 H 0.60328 0.00761 0.70857 0.0
H586 H 0.6343 0.0262 0.69996 0.0
H587 H 0.64445 0.05521 0.68303 0.0
H588 H 0.67489 0.60038 0.78288 0.0
H589 H 0.6665 0.6209 0.76677 0.0
H590 H 0.61596 0.59192 0.80023 0.0
H591 H 0.62465 0.57208 0.81734 0.0
H592 H 0.64304 0.61518 0.73685 0.0
H593 H 0.62566 0.63963 0.81477 0.0
H594 H 0.63709 0.62744 0.81681 0.0
H595 H 0.61345 0.61616 0.81493 0.0
C596 C 0.66215 0.59866 0.78721 0.0
C597 C 0.65047 0.58469 0.80148 0.0
C598 C 0.65734 0.61037 0.77796 0.0
C599 C 0.64069 0.6082 0.78255 0.0
C600 C 0.62911 0.59433 0.79705 0.0
H601 H 0.57598 0.62735 0.69199 0.0
H602 H 0.59529 0.61866 0.71064 0.0
C603 C 0.63405 0.58287 0.8067 0.0
C604 C 0.6347 0.61926 0.77048 0.0
H605 H 0.61121 0.64006 0.77879 0.0
C606 C 0.6364 0.62092 0.74612 0.0
C607 C 0.62641 0.62722 0.78245 0.0
C608 C 0.62576 0.62768 0.8087 0.0
C609 C 0.62912 0.62934 0.73336 0.0
C610 C 0.61921 0.63562 0.74513 0.0
C611 C 0.61847 0.63495 0.7696 0.0
C612 C 0.60854 0.64179 0.73247 0.0
C613 C 0.63216 0.63133 0.70738 0.0
C614 C 0.60913 0.6575 0.73885 0.0
C615 C 0.59768 0.66227 0.72861 0.0
C616 C 0.58556 0.65151 0.71161 0.0
C617 C 0.58535 0.63607 0.70476 0.0
C618 C 0.59652 0.63115 0.71532 0.0
H619 H 0.64501 0.63259 0.70281 0.0
H620 H 0.62183 0.61942 0.6985 0.0
H621 H 0.63185 0.64298 0.70055 0.0
H622 H 0.61821 0.6659 0.75211 0.0
H623 H 0.59814 0.67423 0.73427 0.0
H624 H 0.92388 0.5909 0.74342 0.0
H625 H 0.95298 0.60928 0.76026 0.0
H626 H 0.97663 0.60082 0.69952 0.0
H627 H 0.94759 0.58228 0.68256 0.0
H628 H 0.98635 0.59209 0.74141 0.0
H629 H 0.99424 0.65867 0.74609 0.0
H630 H 0.97397 0.64149 0.7579 0.0
H631 H 0.97835 0.64167 0.7273 0.0
C632 C 0.93527 0.59323 0.73339 0.0
C633 C 0.93337 0.585 0.71168 0.0
C634 C 0.95191 0.60383 0.74302 0.0
C635 C 0.96696 0.60651 0.73107 0.0
C636 C 0.96516 0.59896 0.70897 0.0
H637 H 0.07697 0.66807 0.76747 0.0
H638 H 0.04794 0.65718 0.75021 0.0
C639 C 0.94854 0.58837 0.69931 0.0
C640 C 0.98433 0.61547 0.74266 0.0
H641 H 0.01503 0.65419 0.76716 0.0
C642 C 0.99265 0.60569 0.74694 0.0
C643 C 0.99252 0.63322 0.74979 0.0
C644 C 0.98442 0.64446 0.74489 0.0
C645 C 0.00887 0.6131 0.7584 0.0
C646 C 0.01687 0.6307 0.76608 0.0
C647 C 0.00872 0.64062 0.7615 0.0
C648 C 0.034 0.63904 0.7782 0.0
C649 C 0.01744 0.60209 0.76194 0.0
C650 C 0.03567 0.63289 0.80007 0.0
C651 C 0.05223 0.63906 0.81001 0.0
C652 C 0.06743 0.6515 0.79823 0.0
C653 C 0.06557 0.65841 0.77697 0.0
C654 C 0.04899 0.65224 0.76707 0.0
H655 H 0.01146 0.59019 0.75075 0.0
H656 H 0.0317 0.60981 0.7581 0.0
H657 H 0.01585 0.59778 0.78039 0.0
H658 H 0.0242 0.62286 0.80905 0.0
H659 H 0.05315 0.63353 0.82646 0.0
H660 H 0.40221 0.07612 0.77714 0.0
H661 H 0.38201 0.04765 0.75959 0.0
H662 H 0.40604 0.02371 0.79956 0.0
H663 H 0.42552 0.05178 0.81795 0.0
H664 H 0.38895 0.0291 0.73221 0.0
H665 H 0.35654 0.98751 0.80851 0.0
H666 H 0.36953 0.01107 0.81079 0.0
H667 H 0.37981 0.99774 0.81213 0.0
C668 C 0.40288 0.06467 0.78256 0.0
C669 C 0.41539 0.06617 0.79904 0.0
C670 C 0.39136 0.04842 0.77248 0.0
C671 C 0.39224 0.03339 0.7785 0.0
C672 C 0.4046 0.03489 0.79518 0.0
H673 H 0.37582 0.94802 0.69265 0.0
H674 H 0.38444 0.97646 0.70993 0.0
C675 C 0.41587 0.05103 0.80558 0.0
C676 C 0.3815 0.01656 0.76587 0.0
H677 H 0.3581 0.97225 0.77402 0.0
C678 C 0.3819 0.01669 0.74138 0.0
C679 C 0.37188 1.00032 0.77764 0.0
C680 C 0.36925 0.99919 0.80371 0.0
C681 C 0.37389 0.00105 0.72848 0.0
C682 C 0.36588 0.98477 0.74038 0.0
C683 C 0.36453 0.98466 0.76479 0.0
C684 C 0.35988 0.96779 0.72815 0.0
C685 C 0.37419 0.00223 0.70223 0.0
C686 C 0.34332 0.95321 0.73294 0.0
C687 C 0.33855 0.93675 0.72357 0.0
C688 C 0.35017 0.93459 0.70898 0.0
C689 C 0.36646 0.9493 0.70354 0.0
C690 C 0.37136 0.96565 0.7133 0.0
H691 H 0.37411 0.01423 0.69641 0.0
H692 H 0.38645 0.00312 0.6956 0.0
H693 H 0.3628 0.99063 0.69427 0.0
H694 H 0.33424 0.95448 0.74441 0.0
H695 H 0.3259 0.92564 0.72808 0.0
H696 H 0.3274 0.40357 0.7762 0.0
H697 H 0.33528 0.38307 0.75869 0.0
H698 H 0.38276 0.40592 0.79967 0.0
H699 H 0.37451 0.42566 0.81802 0.0
H700 H 0.36078 0.38932 0.73187 0.0
H701 H 0.36829 0.35617 0.80856 0.0
H702 H 0.35819 0.36961 0.81056 0.0
H703 H 0.38173 0.37938 0.81237 0.0
C704 C 0.33932 0.40393 0.78182 0.0
C705 C 0.35027 0.41614 0.79861 0.0
C706 C 0.34384 0.39223 0.77177 0.0
C707 C 0.35948 0.39267 0.77813 0.0
C708 C 0.37032 0.40481 0.79503 0.0
H709 H 0.42801 0.37471 0.69365 0.0
H710 H 0.40834 0.38373 0.71041 0.0
C711 C 0.36564 0.41623 0.80542 0.0
C712 C 0.36535 0.38166 0.7657 0.0
H713 H 0.38543 0.35755 0.77449 0.0
C714 C 0.36584 0.38207 0.74122 0.0
C715 C 0.37154 0.37175 0.77768 0.0
C716 C 0.3697 0.36904 0.80372 0.0
C717 C 0.37332 0.37381 0.72854 0.0
C718 C 0.38123 0.36554 0.74068 0.0
C719 C 0.37973 0.36417 0.76507 0.0
C720 C 0.39212 0.3593 0.72875 0.0
C721 C 0.37266 0.37412 0.70227 0.0
C722 C 0.38992 0.34268 0.73381 0.0
C723 C 0.40155 0.3377 0.72478 0.0
C724 C 0.41545 0.34914 0.71023 0.0
C725 C 0.41726 0.36549 0.70451 0.0
C726 C 0.4059 0.37061 0.71396 0.0
H727 H 0.3607 0.3742 0.69624 0.0
H728 H 0.38416 0.38632 0.69574 0.0
H729 H 0.37277 0.36265 0.69442 0.0
H730 H 0.37946 0.33372 0.74523 0.0
H731 H 0.39984 0.32502 0.7295 0.0
H732 H 0.05374 0.42067 0.68433 0.0
H733 H 0.02482 0.40244 0.70184 0.0
H734 H 0.04849 0.39038 0.75939 0.0
H735 H 0.07749 0.40849 0.74202 0.0
H736 H 0.01508 0.36105 0.74199 0.0
H737 H 0.01318 0.42195 0.76172 0.0
H738 H 0.01736 0.41923 0.73179 0.0
H739 H 0.03315 0.42221 0.75376 0.0
C740 C 0.05281 0.4139 0.7005 0.0
C741 C 0.06799 0.41624 0.71191 0.0
C742 C 0.03627 0.40353 0.7105 0.0
C743 C 0.03461 0.39532 0.73205 0.0
C744 C 0.04955 0.39668 0.74277 0.0
H745 H 0.94845 0.36569 0.82824 0.0
H746 H 0.97744 0.37595 0.81129 0.0
C747 C 0.06611 0.40708 0.73281 0.0
C748 C 0.01755 0.3866 0.74435 0.0
H749 H 0.98771 0.39506 0.77036 0.0
C750 C 0.00905 0.36843 0.74824 0.0
C751 C 0.00994 0.39637 0.75281 0.0
C752 C 0.0189 0.41604 0.75004 0.0
C753 C 0.99287 0.35969 0.75997 0.0
C754 C 0.98504 0.36942 0.76783 0.0
C755 C 0.99373 0.38763 0.76428 0.0
C756 C 0.96765 0.36109 0.77937 0.0
C757 C 0.9844 0.34021 0.76411 0.0
C758 C 0.95254 0.34907 0.76722 0.0
C759 C 0.93592 0.34315 0.77686 0.0
C760 C 0.93411 0.34928 0.79877 0.0
C761 C 0.94933 0.36072 0.81133 0.0
C762 C 0.96593 0.36662 0.80167 0.0
H763 H 0.99405 0.33561 0.76268 0.0
H764 H 0.97816 0.33662 0.78158 0.0
H765 H 0.97405 0.33317 0.75082 0.0
H766 H 0.95354 0.34488 0.74983 0.0
H767 H 0.92449 0.33437 0.76668 0.0
H768 H 0.44464 0.15588 0.26355 0.0
H769 H 0.44266 0.18141 0.2756 0.0
H770 H 0.44749 0.19807 0.20398 0.0
H771 H 0.44932 0.17235 0.19166 0.0
H772 H 0.4685 0.21633 0.2683 0.0
H773 H 0.40527 0.20165 0.22779 0.0
H774 H 0.41151 0.18514 0.23179 0.0
H775 H 0.42068 0.20061 0.20826 0.0
C776 C 0.44509 0.16484 0.25028 0.0
C777 C 0.44714 0.16207 0.22662 0.0
C778 C 0.44397 0.17945 0.25723 0.0
C779 C 0.44476 0.19154 0.24068 0.0
C780 C 0.44654 0.18872 0.21699 0.0
H781 H 0.45091 0.29231 0.24725 0.0
H782 H 0.44869 0.26453 0.23602 0.0
C783 C 0.44766 0.17407 0.20999 0.0
C784 C 0.44478 0.2076 0.2485 0.0
H785 H 0.42248 0.22998 0.24435 0.0
C786 C 0.45838 0.21928 0.26319 0.0
C787 C 0.43158 0.21139 0.24176 0.0
C788 C 0.41633 0.19899 0.22669 0.0
C789 C 0.45937 0.23487 0.27095 0.0
C790 C 0.44618 0.23869 0.2642 0.0
C791 C 0.43253 0.22697 0.24958 0.0
C792 C 0.44675 0.25515 0.27135 0.0
C793 C 0.4748 0.24734 0.28574 0.0
C794 C 0.44608 0.25897 0.29497 0.0
C795 C 0.44741 0.27493 0.3015 0.0
C796 C 0.44932 0.28726 0.28448 0.0
C797 C 0.44951 0.28314 0.26082 0.0
C798 C 0.44821 0.26725 0.25434 0.0
H799 H 0.48575 0.24452 0.28472 0.0
H800 H 0.47976 0.26115 0.28033 0.0
H801 H 0.47059 0.24602 0.30422 0.0
H802 H 0.44462 0.24966 0.30835 0.0
H803 H 0.44711 0.27766 0.31984 0.0
H804 H 0.17 0.44646 0.32171 0.0
H805 H 0.19572 0.44427 0.31043 0.0
H806 H 0.18382 0.446 0.23791 0.0
H807 H 0.15809 0.44798 0.24894 0.0
H808 H 0.19301 0.42031 0.24822 0.0
H809 H 0.24113 0.48567 0.28415 0.0
H810 H 0.22484 0.47096 0.30442 0.0
H811 H 0.21832 0.47896 0.27979 0.0
C812 C 0.17283 0.44629 0.30338 0.0
C813 C 0.16207 0.44752 0.28624 0.0
C814 C 0.18756 0.44513 0.29696 0.0
C815 C 0.19179 0.44523 0.27334 0.0
C816 C 0.18081 0.44597 0.25623 0.0
H817 H 0.27645 0.44668 0.19319 0.0
H818 H 0.24882 0.44452 0.20579 0.0
C819 C 0.16613 0.44714 0.2626 0.0
C820 C 0.20782 0.44491 0.26626 0.0
H821 H 0.25253 0.46862 0.26852 0.0
C822 C 0.20604 0.43084 0.25266 0.0
C823 C 0.22477 0.45873 0.272 0.0
C824 C 0.22748 0.47453 0.28572 0.0
C825 C 0.2208 0.43012 0.24488 0.0
C826 C 0.23775 0.44398 0.25054 0.0
C827 C 0.23951 0.458 0.26423 0.0
C828 C 0.25392 0.44425 0.24265 0.0
C829 C 0.21812 0.41439 0.23103 0.0
C830 C 0.26602 0.44501 0.25917 0.0
C831 C 0.28181 0.44638 0.25205 0.0
C832 C 0.28589 0.44708 0.22823 0.0
C833 C 0.27365 0.44607 0.21166 0.0
C834 C 0.25782 0.44474 0.21883 0.0
H835 H 0.20467 0.40303 0.23333 0.0
H836 H 0.22002 0.41784 0.21225 0.0
H837 H 0.22775 0.41036 0.23619 0.0
H838 H 0.2633 0.44471 0.27763 0.0
H839 H 0.29093 0.44711 0.26529 0.0
H840 H 0.72364 0.171 0.31889 0.0
H841 H 0.75093 0.19711 0.30662 0.0
H842 H 0.73993 0.17993 0.23513 0.0
H843 H 0.71269 0.15402 0.24709 0.0
H844 H 0.7804 0.20018 0.28076 0.0
H845 H 0.74607 0.22958 0.23387 0.0
H846 H 0.73508 0.21186 0.25449 0.0
H847 H 0.73952 0.20748 0.22544 0.0
C848 C 0.72709 0.17275 0.30058 0.0
C849 C 0.71592 0.16052 0.28395 0.0
C850 C 0.74267 0.18765 0.29361 0.0
C851 C 0.74726 0.19057 0.26993 0.0
C852 C 0.73644 0.17809 0.25343 0.0
H853 H 0.83107 0.27702 0.1923 0.0
H854 H 0.80589 0.24878 0.20382 0.0
C855 C 0.72091 0.16324 0.26034 0.0
C856 C 0.76319 0.2068 0.26232 0.0
H857 H 0.77691 0.24376 0.2295 0.0
C858 C 0.77967 0.20976 0.26961 0.0
C859 C 0.76216 0.2192 0.2477 0.0
C860 C 0.74477 0.21701 0.24004 0.0
C861 C 0.7952 0.22472 0.2624 0.0
C862 C 0.79415 0.23717 0.24788 0.0
C863 C 0.77767 0.23415 0.24052 0.0
C864 C 0.80993 0.25379 0.24087 0.0
C865 C 0.81258 0.22693 0.2701 0.0
C866 C 0.82045 0.26598 0.25786 0.0
C867 C 0.83479 0.28205 0.25136 0.0
C868 C 0.83885 0.28634 0.22769 0.0
C869 C 0.82833 0.27409 0.21066 0.0
C870 C 0.81395 0.25796 0.21721 0.0
H871 H 0.81137 0.21419 0.27523 0.0
H872 H 0.82255 0.23286 0.25606 0.0
H873 H 0.81737 0.23575 0.28546 0.0
H874 H 0.81736 0.26322 0.27619 0.0
H875 H 0.84256 0.29122 0.26493 0.0
H876 H 0.55287 0.8293 0.1922 0.0
H877 H 0.55463 0.80356 0.2048 0.0
H878 H 0.55833 0.81991 0.27639 0.0
H879 H 0.55645 0.84546 0.2641 0.0
H880 H 0.58105 0.80145 0.23223 0.0
H881 H 0.51592 0.76948 0.27571 0.0
H882 H 0.52261 0.78728 0.25522 0.0
H883 H 0.53058 0.79169 0.28468 0.0
C884 C 0.55414 0.82745 0.21061 0.0
C885 C 0.55438 0.83935 0.22716 0.0
C886 C 0.55515 0.81276 0.21776 0.0
C887 C 0.55631 0.80972 0.24154 0.0
C888 C 0.5571 0.82186 0.258 0.0
H889 H 0.55467 0.72383 0.31959 0.0
H890 H 0.55716 0.75186 0.30817 0.0
C891 C 0.5561 0.83649 0.2509 0.0
C892 C 0.55647 0.79374 0.2493 0.0
H893 H 0.53333 0.75622 0.28111 0.0
C894 C 0.57061 0.79151 0.24286 0.0
C895 C 0.54286 0.78088 0.26326 0.0
C896 C 0.52704 0.78231 0.27 0.0
C897 C 0.5716 0.77682 0.25026 0.0
C898 C 0.55793 0.7639 0.26409 0.0
C899 C 0.54384 0.76619 0.27062 0.0
C900 C 0.55752 0.74748 0.27111 0.0
C901 C 0.58741 0.77539 0.2435 0.0
C902 C 0.55681 0.73573 0.25407 0.0
C903 C 0.5554 0.71978 0.26052 0.0
C904 C 0.55454 0.71518 0.28416 0.0
C905 C 0.55536 0.72702 0.30124 0.0
C906 C 0.55677 0.74302 0.29475 0.0
H907 H 0.59879 0.78841 0.23898 0.0
H908 H 0.59132 0.76954 0.25779 0.0
H909 H 0.58416 0.76682 0.22795 0.0
H910 H 0.55695 0.73871 0.23573 0.0
H911 H 0.55471 0.71094 0.24689 0.0
H912 H 0.71321 0.53496 0.20019 0.0
H913 H 0.73976 0.53524 0.21372 0.0
H914 H 0.75161 0.57926 0.25846 0.0
H915 H 0.72437 0.57802 0.24632 0.0
H916 H 0.77231 0.55576 0.21218 0.0
H917 H 0.75489 0.5488 0.30552 0.0
H918 H 0.73979 0.54714 0.28315 0.0
H919 H 0.75624 0.56833 0.29396 0.0
C920 C 0.72157 0.54471 0.21285 0.0
C921 C 0.71674 0.55635 0.22242 0.0
C922 C 0.73672 0.54486 0.22063 0.0
C923 C 0.74748 0.55691 0.23774 0.0
C924 C 0.74318 0.56931 0.24609 0.0
H925 H 0.85378 0.57671 0.26124 0.0
H926 H 0.8279 0.57808 0.24892 0.0
C927 C 0.72775 0.56877 0.2389 0.0
C928 C 0.76316 0.55652 0.24675 0.0
H929 H 0.78462 0.55727 0.29673 0.0
C930 C 0.77489 0.55593 0.23069 0.0
C931 C 0.76642 0.55631 0.27092 0.0
C932 C 0.75355 0.55497 0.28933 0.0
C933 C 0.78981 0.55535 0.23803 0.0
C934 C 0.79373 0.55642 0.26217 0.0
C935 C 0.78187 0.55677 0.27823 0.0
C936 C 0.80978 0.55676 0.27116 0.0
C937 C 0.80079 0.55297 0.21975 0.0
C938 C 0.80856 0.54529 0.28909 0.0
C939 C 0.82352 0.54509 0.29693 0.0
C940 C 0.83988 0.5561 0.28661 0.0
C941 C 0.84123 0.56795 0.26925 0.0
C942 C 0.8264 0.56855 0.26198 0.0
H943 H 0.7929 0.54629 0.20402 0.0
H944 H 0.81156 0.56603 0.2142 0.0
H945 H 0.80658 0.54515 0.22648 0.0
H946 H 0.79595 0.53614 0.29665 0.0
H947 H 0.82216 0.53579 0.31028 0.0
H948 H 0.17082 0.72511 0.19266 0.0
H949 H 0.19637 0.75276 0.20527 0.0
H950 H 0.18318 0.73742 0.27709 0.0
H951 H 0.15784 0.70985 0.26477 0.0
H952 H 0.19814 0.77972 0.23577 0.0
H953 H 0.23435 0.7481 0.27106 0.0
H954 H 0.2159 0.73694 0.25154 0.0
H955 H 0.21236 0.7392 0.28187 0.0
C956 C 0.17335 0.72766 0.21113 0.0
C957 C 0.16238 0.71523 0.2277 0.0
C958 C 0.18792 0.74345 0.21829 0.0
C959 C 0.19179 0.74697 0.24209 0.0
C960 C 0.1806 0.7348 0.25863 0.0
H961 H 0.27779 0.83061 0.32031 0.0
H962 H 0.24996 0.80485 0.30887 0.0
C963 C 0.16607 0.71907 0.25153 0.0
C964 C 0.20759 0.76328 0.24978 0.0
H965 H 0.24636 0.77839 0.27883 0.0
C966 C 0.20873 0.77947 0.24511 0.0
C967 C 0.22132 0.76287 0.26205 0.0
C968 C 0.22107 0.74587 0.26679 0.0
C969 C 0.22317 0.79529 0.2527 0.0
C970 C 0.23693 0.79487 0.26491 0.0
C971 C 0.23574 0.77866 0.26961 0.0
C972 C 0.25307 0.8111 0.27207 0.0
C973 C 0.22343 0.81228 0.24794 0.0
C974 C 0.26401 0.8231 0.25519 0.0
C975 C 0.27985 0.83778 0.26165 0.0
C976 C 0.28515 0.84069 0.28514 0.0
C977 C 0.27406 0.82877 0.3021 0.0
C978 C 0.25818 0.81405 0.29559 0.0
H979 H 0.21003 0.81007 0.24466 0.0
H980 H 0.2293 0.82155 0.26274 0.0
H981 H 0.23146 0.81852 0.23218 0.0
H982 H 0.26053 0.82089 0.23691 0.0
H983 H 0.28811 0.84665 0.24812 0.0
H984 H 0.55392 0.72361 0.68848 0.0
H985 H 0.55624 0.75155 0.69997 0.0
H986 H 0.55936 0.73981 0.77218 0.0
H987 H 0.55723 0.71209 0.76094 0.0
H988 H 0.53281 0.7553 0.72935 0.0
H989 H 0.60024 0.79013 0.76571 0.0
H990 H 0.59247 0.77111 0.74713 0.0
H991 H 0.58666 0.76854 0.77749 0.0
C992 C 0.55533 0.72709 0.70677 0.0
C993 C 0.55542 0.71564 0.72379 0.0
C994 C 0.55663 0.74304 0.7133 0.0
C995 C 0.55822 0.74786 0.7369 0.0
C996 C 0.55852 0.73654 0.75385 0.0
H997 H 0.55463 0.83002 0.81651 0.0
H998 H 0.55662 0.80443 0.80376 0.0
C999 C 0.55718 0.72062 0.74737 0.0
C1000 C 0.5584 0.76413 0.74403 0.0
H1001 H 0.58216 0.80255 0.77391 0.0
C1002 C 0.54367 0.76572 0.73889 0.0
C1003 C 0.57252 0.77761 0.75666 0.0
C1004 C 0.58895 0.77689 0.76192 0.0
C1005 C 0.54252 0.78027 0.74646 0.0
C1006 C 0.5566 0.79372 0.75916 0.0
C1007 C 0.57137 0.79218 0.76424 0.0
C1008 C 0.55629 0.8096 0.76695 0.0
C1009 C 0.52604 0.78094 0.74128 0.0
C1010 C 0.55585 0.82114 0.75048 0.0
C1011 C 0.55473 0.83569 0.75767 0.0
C1012 C 0.55409 0.83905 0.78151 0.0
C1013 C 0.55504 0.82775 0.79803 0.0
C1014 C 0.55619 0.81316 0.79078 0.0
H1015 H 0.51492 0.76782 0.73656 0.0
H1016 H 0.52215 0.78602 0.7565 0.0
H1017 H 0.52852 0.78991 0.72637 0.0
H1018 H 0.55624 0.81879 0.73201 0.0
H1019 H 0.55414 0.84418 0.74447 0.0
H1020 H 0.71166 0.5563 0.74839 0.0
H1021 H 0.7392 0.55794 0.73732 0.0
H1022 H 0.7513 0.5562 0.80976 0.0
H1023 H 0.7235 0.55423 0.82105 0.0
H1024 H 0.77369 0.58201 0.74826 0.0
H1025 H 0.75504 0.51561 0.78145 0.0
H1026 H 0.73935 0.52296 0.77809 0.0
H1027 H 0.75389 0.52996 0.80275 0.0
C1028 C 0.72017 0.55631 0.76203 0.0
C1029 C 0.71532 0.55499 0.78562 0.0
C1030 C 0.73593 0.55728 0.75564 0.0
C1031 C 0.74716 0.5569 0.77268 0.0
C1032 C 0.74264 0.55614 0.79631 0.0
H1033 H 0.84443 0.55508 0.76503 0.0
H1034 H 0.81909 0.55737 0.77717 0.0
C1035 C 0.72681 0.55512 0.80274 0.0
C1036 C 0.76341 0.55704 0.76552 0.0
H1037 H 0.78393 0.53283 0.7671 0.0
C1038 C 0.77595 0.57127 0.75236 0.0
C1039 C 0.76625 0.54295 0.77078 0.0
C1040 C 0.75287 0.52692 0.78385 0.0
C1041 C 0.79139 0.57188 0.7446 0.0
C1042 C 0.79421 0.5578 0.7499 0.0
C1043 C 0.78171 0.54362 0.76311 0.0
C1044 C 0.81012 0.5575 0.74213 0.0
C1045 C 0.80467 0.58771 0.73113 0.0
C1046 C 0.8135 0.55684 0.71834 0.0
C1047 C 0.82802 0.55552 0.71128 0.0
C1048 C 0.83934 0.55475 0.72794 0.0
C1049 C 0.83599 0.55564 0.75173 0.0
C1050 C 0.8215 0.55694 0.75873 0.0
H1051 H 0.80253 0.59905 0.73322 0.0
H1052 H 0.81823 0.5917 0.73681 0.0
H1053 H 0.80355 0.58437 0.71232 0.0
H1054 H 0.80468 0.55695 0.70525 0.0
H1055 H 0.8302 0.55478 0.69284 0.0
H1056 H 0.27774 0.8305 0.68924 0.0
H1057 H 0.2498 0.80479 0.70047 0.0
H1058 H 0.26066 0.82003 0.77267 0.0
H1059 H 0.28832 0.84576 0.76167 0.0
H1060 H 0.24553 0.77779 0.72951 0.0
H1061 H 0.21058 0.81024 0.76577 0.0
H1062 H 0.22992 0.8217 0.74781 0.0
H1063 H 0.23193 0.81809 0.77823 0.0
C1064 C 0.27406 0.82849 0.70747 0.0
C1065 C 0.28523 0.8402 0.72455 0.0
C1066 C 0.25811 0.81379 0.71386 0.0
C1067 C 0.25303 0.81065 0.73737 0.0
C1068 C 0.26411 0.82241 0.75439 0.0
H1069 H 0.17096 0.7246 0.81658 0.0
H1070 H 0.1966 0.75214 0.80389 0.0
C1071 C 0.27999 0.83706 0.74805 0.0
C1072 C 0.23673 0.79452 0.74438 0.0
H1073 H 0.19829 0.77975 0.77425 0.0
C1074 C 0.23512 0.77821 0.73909 0.0
C1075 C 0.22323 0.79512 0.75703 0.0
C1076 C 0.22388 0.81222 0.76237 0.0
C1077 C 0.22054 0.76248 0.74653 0.0
C1078 C 0.20712 0.76308 0.75932 0.0
C1079 C 0.20866 0.77937 0.76453 0.0
C1080 C 0.19125 0.74687 0.76707 0.0
C1081 C 0.21982 0.74534 0.74112 0.0
C1082 C 0.1796 0.73503 0.75058 0.0
C1083 C 0.16501 0.71938 0.75774 0.0
C1084 C 0.16172 0.71526 0.78157 0.0
C1085 C 0.17316 0.72737 0.79811 0.0
C1086 C 0.18779 0.74309 0.7909 0.0
H1087 H 0.23289 0.74732 0.73619 0.0
H1088 H 0.21482 0.73632 0.7563 0.0
H1089 H 0.21074 0.73889 0.72629 0.0
H1090 H 0.18188 0.73786 0.73213 0.0
H1091 H 0.15641 0.71041 0.74452 0.0
H1092 H 0.44471 0.28871 0.7648 0.0
H1093 H 0.44301 0.26115 0.77594 0.0
H1094 H 0.44427 0.24876 0.7035 0.0
H1095 H 0.4463 0.27657 0.69215 0.0
H1096 H 0.41872 0.22669 0.76529 0.0
H1097 H 0.48475 0.24469 0.73141 0.0
H1098 H 0.4776 0.26054 0.73481 0.0
H1099 H 0.47039 0.24591 0.71023 0.0
C1100 C 0.44459 0.28013 0.75118 0.0
C1101 C 0.44578 0.28491 0.72757 0.0
C1102 C 0.44359 0.26436 0.75761 0.0
C1103 C 0.4438 0.25304 0.74059 0.0
C1104 C 0.44446 0.25749 0.71694 0.0
H1105 H 0.44446 0.1552 0.74758 0.0
H1106 H 0.44235 0.1807 0.73574 0.0
C1107 C 0.44551 0.27333 0.71048 0.0
C1108 C 0.44355 0.23673 0.74776 0.0
H1109 H 0.46737 0.21581 0.74577 0.0
C1110 C 0.42935 0.2243 0.76105 0.0
C1111 C 0.4575 0.23371 0.74231 0.0
C1112 C 0.47351 0.24697 0.7291 0.0
C1113 C 0.42861 0.20878 0.76875 0.0
C1114 C 0.44253 0.20577 0.76324 0.0
C1115 C 0.4567 0.21817 0.74992 0.0
C1116 C 0.44266 0.18975 0.77086 0.0
C1117 C 0.41281 0.19561 0.78237 0.0
C1118 C 0.4435 0.18635 0.79461 0.0
C1119 C 0.44472 0.17172 0.8015 0.0
C1120 C 0.44521 0.16034 0.78471 0.0
C1121 C 0.44412 0.16369 0.76098 0.0
C1122 C 0.44292 0.17827 0.75414 0.0
H1123 H 0.40157 0.19795 0.78053 0.0
H1124 H 0.4086 0.18203 0.77658 0.0
H1125 H 0.41628 0.19665 0.80112 0.0
H1126 H 0.44362 0.19522 0.80778 0.0
H1127 H 0.44562 0.16954 0.81989 0.0
H1128 H 0.15766 0.44493 0.7635 0.0
H1129 H 0.18358 0.44328 0.77447 0.0
H1130 H 0.19717 0.44479 0.70197 0.0
H1131 H 0.1713 0.44674 0.69077 0.0
H1132 H 0.19399 0.41906 0.76326 0.0
H1133 H 0.24151 0.48563 0.7303 0.0
H1134 H 0.21847 0.47822 0.73388 0.0
H1135 H 0.22593 0.47126 0.70909 0.0
C1136 C 0.16611 0.44486 0.74983 0.0
C1137 C 0.16249 0.44611 0.72625 0.0
C1138 C 0.18091 0.44388 0.75616 0.0
C1139 C 0.19243 0.44419 0.73907 0.0
C1140 C 0.18861 0.44488 0.71545 0.0
H1141 H 0.292 0.44693 0.74704 0.0
H1142 H 0.26433 0.44448 0.73472 0.0
C1143 C 0.17378 0.44589 0.70908 0.0
C1144 C 0.20859 0.4441 0.74617 0.0
H1145 H 0.2533 0.46857 0.74481 0.0
C1146 C 0.20697 0.42987 0.75924 0.0
C1147 C 0.22549 0.45828 0.741 0.0
C1148 C 0.22804 0.4743 0.72798 0.0
C1149 C 0.22183 0.42933 0.76702 0.0
C1150 C 0.23871 0.44352 0.76186 0.0
C1151 C 0.24032 0.4577 0.74871 0.0
C1152 C 0.25495 0.44394 0.76971 0.0
C1153 C 0.21936 0.41348 0.78036 0.0
C1154 C 0.25885 0.44442 0.79354 0.0
C1155 C 0.27472 0.44583 0.80069 0.0
C1156 C 0.28696 0.44686 0.78411 0.0
C1157 C 0.28288 0.44617 0.76029 0.0
C1158 C 0.26706 0.44478 0.75318 0.0
H1159 H 0.20595 0.40207 0.77804 0.0
H1160 H 0.22907 0.40966 0.77476 0.0
H1161 H 0.22139 0.4167 0.79921 0.0
H1162 H 0.2498 0.44411 0.80658 0.0
H1163 H 0.27752 0.44641 0.81916 0.0
H1164 H 0.83006 0.27741 0.81831 0.0
H1165 H 0.80436 0.24984 0.80601 0.0
H1166 H 0.82038 0.26219 0.73424 0.0
H1167 H 0.84586 0.28975 0.74627 0.0
H1168 H 0.78569 0.25271 0.74167 0.0
H1169 H 0.80078 0.20435 0.78181 0.0
H1170 H 0.80157 0.22052 0.80165 0.0
H1171 H 0.81713 0.22719 0.77818 0.0
C1172 C 0.8282 0.27415 0.79994 0.0
C1173 C 0.83999 0.28577 0.78328 0.0
C1174 C 0.81357 0.25835 0.79295 0.0
C1175 C 0.81058 0.25389 0.76923 0.0
C1176 C 0.82247 0.26536 0.75264 0.0
H1177 H 0.7242 0.16963 0.69085 0.0
H1178 H 0.75237 0.19507 0.70201 0.0
C1179 C 0.83704 0.28111 0.75958 0.0
C1180 C 0.79454 0.2378 0.76145 0.0
H1181 H 0.77223 0.19311 0.76579 0.0
C1182 C 0.7828 0.23966 0.7468 0.0
C1183 C 0.79082 0.22082 0.7682 0.0
C1184 C 0.8033 0.21801 0.78316 0.0
C1185 C 0.76721 0.22502 0.73913 0.0
C1186 C 0.76343 0.20804 0.74596 0.0
C1187 C 0.77521 0.20616 0.76051 0.0
C1188 C 0.74692 0.19213 0.73903 0.0
C1189 C 0.75467 0.22788 0.72435 0.0
C1190 C 0.7348 0.18178 0.75617 0.0
C1191 C 0.7188 0.16725 0.74988 0.0
C1192 C 0.71462 0.16272 0.72629 0.0
C1193 C 0.72699 0.17283 0.70914 0.0
C1194 C 0.74304 0.18741 0.71548 0.0
H1195 H 0.75759 0.2417 0.72508 0.0
H1196 H 0.7558 0.22473 0.70593 0.0
H1197 H 0.74091 0.21917 0.73003 0.0
H1198 H 0.73756 0.18517 0.77444 0.0
H1199 H 0.7096 0.15971 0.76355 0.0
H1200 H 0.45205 0.13547 0.10566 0.0
H1201 H 0.45154 0.13851 0.06316 0.0
H1202 H 0.46707 0.09952 0.05428 0.0
H1203 H 0.46778 0.09653 0.09643 0.0
H1204 H 0.48674 0.13007 0.02752 0.0
H1205 H 0.41489 0.10325 0.01688 0.0
H1206 H 0.42598 0.12089 0.03741 0.0
H1207 H 0.42423 0.10002 0.04314 0.0
C1208 C 0.4553 0.12751 0.09463 0.0
C1209 C 0.45993 0.11573 0.10446 0.0
C1210 C 0.45492 0.1292 0.07036 0.0
C1211 C 0.45909 0.1191 0.05556 0.0
C1212 C 0.46377 0.10741 0.06537 0.0
H1213 H 0.46561 0.09402 0.91446 0.0
H1214 H 0.46617 0.09816 0.95652 0.0
C1215 C 0.46414 0.10571 0.08951 0.0
C1216 C 0.45905 0.12078 0.02982 0.0
H1217 H 0.43205 0.11177 0.98274 0.0
C1218 C 0.47481 0.12622 0.01774 0.0
C1219 C 0.44348 0.11585 0.01709 0.0
C1220 C 0.42612 0.10955 0.02918 0.0
C1221 C 0.47536 0.12642 0.9933 0.0
C1222 C 0.45968 0.12078 0.98056 0.0
C1223 C 0.44403 0.11605 0.99258 0.0
C1224 C 0.45908 0.11839 0.95492 0.0
C1225 C 0.49271 0.13247 0.9813 0.0
C1226 C 0.45447 0.1281 0.94002 0.0
C1227 C 0.45411 0.12575 0.91581 0.0
C1228 C 0.45818 0.11351 0.90617 0.0
C1229 C 0.46249 0.10363 0.92124 0.0
C1230 C 0.4629 0.10603 0.94532 0.0
H1231 H 0.50393 0.14099 0.99283 0.0
H1232 H 0.49386 0.12086 0.97659 0.0
H1233 H 0.49371 0.13979 0.96506 0.0
H1234 H 0.45134 0.13762 0.94712 0.0
H1235 H 0.45067 0.13351 0.90468 0.0
H1236 H 0.37149 0.46269 0.91547 0.0
H1237 H 0.36751 0.46231 0.95754 0.0
H1238 H 0.31446 0.4515 0.94757 0.0
H1239 H 0.31828 0.45169 0.90514 0.0
H1240 H 0.35882 0.48411 0.98367 0.0
H1241 H 0.30922 0.41336 0.99438 0.0
H1242 H 0.32233 0.42182 0.96833 0.0
H1243 H 0.30432 0.42551 0.97342 0.0
C1244 C 0.35892 0.46015 0.92213 0.0
C1245 C 0.34518 0.45718 0.90691 0.0
C1246 C 0.35668 0.45996 0.94623 0.0
C1247 C 0.34065 0.45672 0.9557 0.0
C1248 C 0.32686 0.45376 0.94062 0.0
H1249 H 0.31737 0.45087 0.1063 0.0
H1250 H 0.31428 0.45152 0.06378 0.0
C1251 C 0.32909 0.45396 0.9164 0.0
C1252 C 0.33879 0.45691 0.98139 0.0
H1253 H 0.31888 0.43054 0.02846 0.0
C1254 C 0.34996 0.47243 0.99345 0.0
C1255 C 0.32715 0.44169 0.99411 0.0
C1256 C 0.31512 0.42458 0.98202 0.0
C1257 C 0.35017 0.47305 0.01789 0.0
C1258 C 0.3391 0.45765 0.03063 0.0
C1259 C 0.32737 0.4423 0.01862 0.0
C1260 C 0.34062 0.45694 0.0563 0.0
C1261 C 0.36243 0.49014 0.02988 0.0
C1262 C 0.3563 0.45943 0.06609 0.0
C1263 C 0.35808 0.45902 0.09021 0.0
C1264 C 0.34418 0.45605 0.10513 0.0
C1265 C 0.32834 0.45326 0.09529 0.0
C1266 C 0.32655 0.45361 0.07103 0.0
H1267 H 0.36611 0.50156 0.01825 0.0
H1268 H 0.35639 0.49181 0.04596 0.0
H1269 H 0.37463 0.49017 0.03485 0.0
H1270 H 0.36721 0.46169 0.05502 0.0
H1271 H 0.37044 0.46114 0.09715 0.0
H1272 H 0.90716 0.36979 0.91473 0.0
H1273 H 0.90343 0.36596 0.95681 0.0
H1274 H 0.86156 0.3127 0.94704 0.0
H1275 H 0.86531 0.31637 0.90461 0.0
H1276 H 0.87279 0.35709 0.98271 0.0
H1277 H 0.89454 0.30803 0.99432 0.0
H1278 H 0.89918 0.32103 0.96816 0.0
H1279 H 0.87753 0.3029 0.97322 0.0
C1280 C 0.89718 0.35721 0.92145 0.0
C1281 C 0.88655 0.34336 0.90627 0.0
C1282 C 0.89506 0.35506 0.94554 0.0
C1283 C 0.88234 0.33901 0.95508 0.0
C1284 C 0.87165 0.32512 0.94005 0.0
H1285 H 0.86489 0.31629 0.10585 0.0
H1286 H 0.86117 0.313 0.06334 0.0
C1287 C 0.87375 0.32726 0.91582 0.0
C1288 C 0.88022 0.33724 0.98077 0.0
H1289 H 0.88681 0.31771 0.02819 0.0
C1290 C 0.87569 0.34836 0.99264 0.0
C1291 C 0.8839 0.32576 0.99369 0.0
C1292 C 0.88918 0.3138 0.98182 0.0
C1293 C 0.87522 0.34867 0.01706 0.0
C1294 C 0.87966 0.33776 0.03001 0.0
C1295 C 0.88345 0.32608 0.01819 0.0
C1296 C 0.88184 0.33942 0.05569 0.0
C1297 C 0.87019 0.36085 0.02883 0.0
C1298 C 0.89488 0.35523 0.06539 0.0
C1299 C 0.89706 0.35713 0.0895 0.0
C1300 C 0.88627 0.34323 0.10451 0.0
C1301 C 0.87336 0.32727 0.09477 0.0
C1302 C 0.87122 0.32536 0.07052 0.0
H1303 H 0.86236 0.36434 0.01708 0.0
H1304 H 0.86251 0.35486 0.04495 0.0
H1305 H 0.88228 0.37317 0.03371 0.0
H1306 H 0.90344 0.36614 0.05425 0.0
H1307 H 0.9072 0.36958 0.09636 0.0
H1308 H 0.55011 0.86604 0.10606 0.0
H1309 H 0.55243 0.86404 0.0636 0.0
H1310 H 0.53996 0.90519 0.05411 0.0
H1311 H 0.53771 0.90734 0.09617 0.0
H1312 H 0.52642 0.85736 0.0282 0.0
H1313 H 0.58606 0.92248 0.01737 0.0
H1314 H 0.57933 0.91156 0.04524 0.0
H1315 H 0.56905 0.92322 0.03371 0.0
C1316 C 0.5479 0.87467 0.0949 0.0
C1317 C 0.54383 0.88692 0.10452 0.0
C1318 C 0.54921 0.8735 0.07068 0.0
C1319 C 0.54664 0.88467 0.05575 0.0
C1320 C 0.54233 0.89669 0.06532 0.0
H1321 H 0.53905 0.90743 0.91436 0.0
H1322 H 0.54047 0.90488 0.95649 0.0
C1323 C 0.54097 0.89783 0.08941 0.0
C1324 C 0.54816 0.88378 0.0301 0.0
H1325 H 0.5694 0.90917 0.98287 0.0
C1326 C 0.53599 0.86855 0.01824 0.0
C1327 C 0.56071 0.89839 0.0172 0.0
C1328 C 0.57465 0.91479 0.02902 0.0
C1329 C 0.53539 0.86792 0.99373 0.0
C1330 C 0.54747 0.88284 0.98086 0.0
C1331 C 0.5601 0.89777 0.99277 0.0
C1332 C 0.5464 0.88382 0.95513 0.0
C1333 C 0.52132 0.85167 0.98182 0.0
C1334 C 0.54933 0.87285 0.94029 0.0
C1335 C 0.54851 0.87426 0.91602 0.0
C1336 C 0.5448 0.88672 0.90625 0.0
C1337 C 0.54192 0.89768 0.92124 0.0
C1338 C 0.54275 0.89626 0.94537 0.0
H1339 H 0.51116 0.84256 0.99425 0.0
H1340 H 0.51484 0.85523 0.96796 0.0
H1341 H 0.52738 0.84462 0.97347 0.0
H1342 H 0.55243 0.86334 0.94745 0.0
H1343 H 0.55085 0.86568 0.90495 0.0
H1344 H 0.63062 0.53481 0.09655 0.0
H1345 H 0.63461 0.53627 0.05442 0.0
H1346 H 0.68918 0.55213 0.06355 0.0
H1347 H 0.68529 0.5506 0.10606 0.0
H1348 H 0.65861 0.5667 0.02863 0.0
H1349 H 0.67072 0.51087 0.01606 0.0
H1350 H 0.66073 0.51335 0.0422 0.0
H1351 H 0.68386 0.5271 0.0375 0.0
C1352 C 0.64348 0.53851 0.08969 0.0
C1353 C 0.65764 0.54258 0.10471 0.0
C1354 C 0.64573 0.53935 0.06557 0.0
C1355 C 0.66214 0.54418 0.05585 0.0
C1356 C 0.67634 0.54814 0.07071 0.0
H1357 H 0.68437 0.5504 0.90493 0.0
H1358 H 0.68852 0.55226 0.94742 0.0
C1359 C 0.67411 0.54733 0.09497 0.0
C1360 C 0.66426 0.54558 0.03016 0.0
H1361 H 0.67007 0.52584 0.98239 0.0
C1362 C 0.66128 0.55787 0.01853 0.0
C1363 C 0.66788 0.53414 0.01704 0.0
C1364 C 0.6709 0.52052 0.02871 0.0
C1365 C 0.66133 0.55873 0.99411 0.0
C1366 C 0.66413 0.54676 0.98095 0.0
C1367 C 0.66787 0.53495 0.99254 0.0
C1368 C 0.66181 0.54543 0.95528 0.0
C1369 C 0.65817 0.57232 0.98261 0.0
C1370 C 0.64536 0.54066 0.94569 0.0
C1371 C 0.64296 0.53957 0.92159 0.0
C1372 C 0.65694 0.54315 0.90647 0.0
C1373 C 0.67337 0.54763 0.9161 0.0
C1374 C 0.67575 0.54868 0.94034 0.0
H1375 H 0.66147 0.58354 0.99446 0.0
H1376 H 0.66601 0.5774 0.9664 0.0
H1377 H 0.64408 0.56627 0.97798 0.0
H1378 H 0.63433 0.53775 0.9569 0.0
H1379 H 0.6301 0.53598 0.91482 0.0
H1380 H 0.13592 0.68526 0.90456 0.0
H1381 H 0.13821 0.68935 0.94704 0.0
H1382 H 0.09547 0.63647 0.95629 0.0
H1383 H 0.09302 0.63229 0.91417 0.0
H1384 H 0.09239 0.66274 0.98202 0.0
H1385 H 0.15718 0.66702 0.99463 0.0
H1386 H 0.15591 0.68122 0.97311 0.0
H1387 H 0.14429 0.65794 0.96853 0.0
C1388 C 0.12706 0.6745 0.91567 0.0
C1389 C 0.11431 0.65844 0.90596 0.0
C1390 C 0.12844 0.67683 0.93992 0.0
C1391 C 0.1171 0.66315 0.9548 0.0
C1392 C 0.10437 0.64718 0.94512 0.0
H1393 H 0.09082 0.63242 0.09596 0.0
H1394 H 0.09342 0.63663 0.05388 0.0
C1395 C 0.10301 0.64482 0.92101 0.0
C1396 C 0.11803 0.66535 0.9805 0.0
H1397 H 0.14253 0.66824 0.02828 0.0
C1398 C 0.10343 0.66411 0.99213 0.0
C1399 C 0.13249 0.66727 0.99363 0.0
C1400 C 0.14836 0.66834 0.98197 0.0
C1401 C 0.10269 0.66427 0.01655 0.0
C1402 C 0.11679 0.66536 0.02973 0.0
C1403 C 0.13172 0.66735 0.01813 0.0
C1404 C 0.1156 0.66303 0.05542 0.0
C1405 C 0.08671 0.66309 0.02803 0.0
C1406 C 0.12753 0.67631 0.07032 0.0
C1407 C 0.12612 0.67392 0.09456 0.0
C1408 C 0.11284 0.65813 0.10423 0.0
C1409 C 0.10114 0.64479 0.08916 0.0
C1410 C 0.10254 0.6472 0.06505 0.0
H1411 H 0.07985 0.66772 0.01622 0.0
H1412 H 0.07737 0.6492 0.0325 0.0
H1413 H 0.09026 0.67094 0.04433 0.0
H1414 H 0.1378 0.68858 0.06321 0.0
H1415 H 0.13539 0.68442 0.10569 0.0
H1416 H 0.86518 0.55014 0.60549 0.0
H1417 H 0.8613 0.5496 0.563 0.0
H1418 H 0.90141 0.53565 0.55388 0.0
H1419 H 0.90531 0.53606 0.59597 0.0
H1420 H 0.88713 0.56936 0.52777 0.0
H1421 H 0.85929 0.49772 0.51687 0.0
H1422 H 0.86014 0.50766 0.54474 0.0
H1423 H 0.87933 0.50798 0.53331 0.0
C1424 C 0.87313 0.54691 0.59441 0.0
C1425 C 0.88548 0.54305 0.60414 0.0
C1426 C 0.8709 0.54663 0.57017 0.0
C1427 C 0.88087 0.5423 0.55534 0.0
C1428 C 0.89334 0.53868 0.56502 0.0
H1429 H 0.90481 0.5357 0.41416 0.0
H1430 H 0.9011 0.53568 0.45625 0.0
C1431 C 0.89561 0.53901 0.58913 0.0
C1432 C 0.87864 0.54183 0.52966 0.0
H1433 H 0.87032 0.51522 0.48241 0.0
C1434 C 0.88316 0.55748 0.51781 0.0
C1435 C 0.87342 0.52629 0.51675 0.0
C1436 C 0.8676 0.50891 0.52856 0.0
C1437 C 0.88356 0.55822 0.4933 0.0
C1438 C 0.87907 0.54282 0.48041 0.0
C1439 C 0.87384 0.52703 0.49231 0.0
C1440 C 0.88105 0.54303 0.4547 0.0
C1441 C 0.88964 0.57561 0.48141 0.0
C1442 C 0.8709 0.54705 0.43976 0.0
C1443 C 0.873 0.54707 0.41552 0.0
C1444 C 0.88525 0.54303 0.40587 0.0
C1445 C 0.89527 0.5389 0.42095 0.0
C1446 C 0.89316 0.53886 0.44506 0.0
H1447 H 0.8956 0.58676 0.49387 0.0
H1448 H 0.8994 0.57783 0.46763 0.0
H1449 H 0.87826 0.57553 0.47297 0.0
H1450 H 0.86128 0.55003 0.44682 0.0
H1451 H 0.86504 0.55025 0.40438 0.0
H1452 H 0.3717 0.90442 0.59613 0.0
H1453 H 0.36774 0.9008 0.55405 0.0
H1454 H 0.31305 0.86267 0.5638 0.0
H1455 H 0.31687 0.86631 0.60623 0.0
H1456 H 0.35578 0.86938 0.52801 0.0
H1457 H 0.31253 0.89823 0.51677 0.0
H1458 H 0.32536 0.90162 0.54282 0.0
H1459 H 0.30582 0.88094 0.5379 0.0
C1460 C 0.35878 0.89528 0.58941 0.0
C1461 C 0.34458 0.88568 0.60458 0.0
C1462 C 0.35656 0.89322 0.56531 0.0
C1463 C 0.34008 0.88161 0.55578 0.0
C1464 C 0.32583 0.8719 0.57079 0.0
H1465 H 0.31635 0.86681 0.40513 0.0
H1466 H 0.31297 0.86307 0.44762 0.0
C1467 C 0.32805 0.87393 0.59502 0.0
C1468 C 0.33815 0.87963 0.53008 0.0
H1469 H 0.3207 0.88907 0.48282 0.0
C1470 C 0.34798 0.87352 0.51814 0.0
C1471 C 0.32787 0.88494 0.51725 0.0
C1472 C 0.31735 0.89192 0.52922 0.0
C1473 C 0.34817 0.87302 0.49371 0.0
C1474 C 0.33853 0.87908 0.48084 0.0
C1475 C 0.3281 0.88448 0.49274 0.0
C1476 C 0.3403 0.88123 0.45515 0.0
C1477 C 0.35888 0.8662 0.48186 0.0
C1478 C 0.35667 0.89289 0.44538 0.0
C1479 C 0.35863 0.89507 0.42127 0.0
C1480 C 0.34421 0.88569 0.40633 0.0
C1481 C 0.32772 0.87417 0.41615 0.0
C1482 C 0.32576 0.87203 0.44039 0.0
H1483 H 0.36103 0.85736 0.49351 0.0
H1484 H 0.3524 0.85898 0.46564 0.0
H1485 H 0.37192 0.87743 0.47719 0.0
H1486 H 0.36799 0.9004 0.45645 0.0
H1487 H 0.3715 0.90413 0.41436 0.0
H1488 H 0.46473 0.36892 0.59714 0.0
H1489 H 0.46449 0.36499 0.55508 0.0
H1490 H 0.45052 0.31096 0.56491 0.0
H1491 H 0.45054 0.31473 0.60734 0.0
H1492 H 0.48515 0.35486 0.52924 0.0
H1493 H 0.41374 0.30806 0.51758 0.0
H1494 H 0.42252 0.32087 0.54381 0.0
H1495 H 0.42509 0.30217 0.53859 0.0
C1496 C 0.46153 0.35615 0.59045 0.0
C1497 C 0.45762 0.34212 0.60564 0.0
C1498 C 0.46142 0.35394 0.56636 0.0
C1499 C 0.45733 0.33766 0.55685 0.0
C1500 C 0.45344 0.32357 0.57189 0.0
H1501 H 0.45162 0.31568 0.40572 0.0
H1502 H 0.4519 0.31191 0.44816 0.0
C1503 C 0.45355 0.32577 0.59611 0.0
C1504 C 0.45759 0.33583 0.53116 0.0
H1505 H 0.43117 0.31726 0.48372 0.0
C1506 C 0.47338 0.3465 0.5193 0.0
C1507 C 0.44225 0.32483 0.51823 0.0
C1508 C 0.42488 0.31339 0.53008 0.0
C1509 C 0.47413 0.34688 0.49488 0.0
C1510 C 0.45864 0.3365 0.48194 0.0
C1511 C 0.44301 0.32522 0.49373 0.0
C1512 C 0.45818 0.33842 0.45631 0.0
C1513 C 0.49147 0.35863 0.48309 0.0
C1514 C 0.46129 0.35444 0.44694 0.0
C1515 C 0.46109 0.35661 0.42288 0.0
C1516 C 0.45771 0.34277 0.4076 0.0
C1517 C 0.45433 0.32661 0.41702 0.0
C1518 C 0.45447 0.32442 0.44122 0.0
H1519 H 0.5027 0.36175 0.49482 0.0
H1520 H 0.49287 0.35246 0.46697 0.0
H1521 H 0.49216 0.37117 0.47822 0.0
H1522 H 0.46388 0.36532 0.4583 0.0
H1523 H 0.46367 0.36922 0.41628 0.0
H1524 H 0.13601 0.4517 0.60593 0.0
H1525 H 0.13928 0.4519 0.56337 0.0
H1526 H 0.09872 0.46535 0.55517 0.0
H1527 H 0.09548 0.46534 0.59733 0.0
H1528 H 0.11381 0.43183 0.52905 0.0
H1529 H 0.13925 0.50291 0.51654 0.0
H1530 H 0.13885 0.49351 0.54467 0.0
H1531 H 0.11933 0.49249 0.53319 0.0
C1532 C 0.12785 0.45476 0.59503 0.0
C1533 C 0.11557 0.45862 0.60505 0.0
C1534 C 0.12972 0.45485 0.57074 0.0
C1535 C 0.11947 0.45895 0.55613 0.0
C1536 C 0.10705 0.46254 0.56611 0.0
H1537 H 0.09196 0.46148 0.41536 0.0
H1538 H 0.09613 0.46192 0.45742 0.0
C1539 C 0.10516 0.46243 0.59027 0.0
C1540 C 0.12127 0.45914 0.53038 0.0
H1541 H 0.12779 0.4848 0.48256 0.0
C1542 C 0.11717 0.44347 0.51884 0.0
C1543 C 0.12573 0.47436 0.51713 0.0
C1544 C 0.13121 0.49182 0.52851 0.0
C1545 C 0.11643 0.44239 0.49436 0.0
C1546 C 0.12008 0.45743 0.48118 0.0
C1547 C 0.1249 0.47326 0.49272 0.0
C1548 C 0.11768 0.45676 0.45553 0.0
C1549 C 0.11091 0.42501 0.48278 0.0
C1550 C 0.12849 0.45377 0.44044 0.0
C1551 C 0.12616 0.45355 0.41623 0.0
C1552 C 0.11298 0.4563 0.40676 0.0
C1553 C 0.10221 0.45927 0.42201 0.0
C1554 C 0.10459 0.45955 0.44609 0.0
H1555 H 0.10593 0.41406 0.49554 0.0
H1556 H 0.10054 0.42202 0.46962 0.0
H1557 H 0.12234 0.4257 0.47361 0.0
H1558 H 0.13883 0.45182 0.44737 0.0
H1559 H 0.1347 0.45128 0.40497 0.0
H1560 H 0.68553 0.13465 0.40507 0.0
H1561 H 0.68968 0.13671 0.44757 0.0
H1562 H 0.63628 0.09503 0.45677 0.0
H1563 H 0.63202 0.09285 0.41468 0.0
H1564 H 0.66936 0.14283 0.48279 0.0
H1565 H 0.66602 0.07865 0.49379 0.0
H1566 H 0.67032 0.0897 0.466 0.0
H1567 H 0.64826 0.07749 0.47697 0.0
C1568 C 0.6747 0.12592 0.41617 0.0
C1569 C 0.65847 0.11353 0.40647 0.0
C1570 C 0.67709 0.12712 0.44042 0.0
C1571 C 0.66336 0.11584 0.45527 0.0
C1572 C 0.64713 0.10365 0.44561 0.0
H1573 H 0.63224 0.09178 0.59615 0.0
H1574 H 0.63664 0.09449 0.55409 0.0
C1575 C 0.64471 0.10249 0.42151 0.0
C1576 C 0.66566 0.11677 0.48093 0.0
H1577 H 0.66204 0.0916 0.52818 0.0
C1578 C 0.66808 0.13178 0.49277 0.0
C1579 C 0.664 0.10233 0.49385 0.0
C1580 C 0.66217 0.08618 0.48203 0.0
C1581 C 0.66787 0.13232 0.51728 0.0
C1582 C 0.66546 0.11756 0.53017 0.0
C1583 C 0.66381 0.10287 0.51828 0.0
C1584 C 0.66315 0.11643 0.55587 0.0
C1585 C 0.66931 0.14829 0.52914 0.0
C1586 C 0.67666 0.12783 0.57093 0.0
C1587 C 0.67418 0.12633 0.59515 0.0
C1588 C 0.65816 0.11335 0.60466 0.0
C1589 C 0.64474 0.10194 0.58946 0.0
C1590 C 0.64723 0.10345 0.56537 0.0
H1591 H 0.66785 0.15713 0.51666 0.0
H1592 H 0.65919 0.14437 0.54294 0.0
H1593 H 0.68238 0.15579 0.53754 0.0
H1594 H 0.68917 0.13776 0.56397 0.0
H1595 H 0.68479 0.13527 0.60638 0.0
H1596 H 0.5501 0.68313 0.40331 0.0
H1597 H 0.55214 0.68738 0.44578 0.0
H1598 H 0.543 0.63485 0.45515 0.0
H1599 H 0.54106 0.63053 0.41307 0.0
H1600 H 0.52669 0.66716 0.48095 0.0
H1601 H 0.58831 0.66546 0.49231 0.0
H1602 H 0.5812 0.66903 0.46434 0.0
H1603 H 0.57199 0.64718 0.47594 0.0
C1604 C 0.54858 0.67252 0.41444 0.0
C1605 C 0.54552 0.65653 0.40478 0.0
C1606 C 0.54973 0.67496 0.43867 0.0
C1607 C 0.54801 0.66153 0.45357 0.0
C1608 C 0.54472 0.64551 0.44396 0.0
H1609 H 0.54057 0.63083 0.59469 0.0
H1610 H 0.54213 0.63502 0.55259 0.0
C1611 C 0.54352 0.64305 0.41986 0.0
C1612 C 0.54932 0.6639 0.47924 0.0
H1613 H 0.57111 0.66091 0.52667 0.0
C1614 C 0.53656 0.66612 0.49099 0.0
C1615 C 0.56226 0.66259 0.49226 0.0
C1616 C 0.57683 0.66111 0.48058 0.0
C1617 C 0.53582 0.66603 0.51549 0.0
C1618 C 0.5483 0.6639 0.52847 0.0
C1619 C 0.56149 0.66245 0.51668 0.0
C1620 C 0.54714 0.66169 0.55417 0.0
C1621 C 0.5212 0.66732 0.52731 0.0
C1622 C 0.54952 0.67536 0.56911 0.0
C1623 C 0.54864 0.67301 0.59335 0.0
C1624 C 0.54541 0.65696 0.603 0.0
C1625 C 0.54306 0.64335 0.5879 0.0
C1626 C 0.54397 0.64572 0.56379 0.0
H1627 H 0.51099 0.66599 0.51476 0.0
H1628 H 0.51491 0.65703 0.54089 0.0
H1629 H 0.52669 0.68028 0.53599 0.0
H1630 H 0.55223 0.68788 0.56204 0.0
H1631 H 0.55057 0.68376 0.6045 0.0
H1632 H 0.50205 0.13656 0.25054 0.0
H1633 H 0.52898 0.14004 0.26785 0.0
H1634 H 0.54488 0.13043 0.20099 0.0
H1635 H 0.5179 0.12679 0.18343 0.0
H1636 H 0.53749 0.11118 0.2641 0.0
H1637 H 0.58931 0.17541 0.22927 0.0
H1638 H 0.56664 0.16988 0.23187 0.0
H1639 H 0.57313 0.16044 0.20898 0.0
C1640 C 0.51137 0.13545 0.23938 0.0
C1641 C 0.50776 0.13131 0.21559 0.0
C1642 C 0.52675 0.13745 0.24934 0.0
C1643 C 0.53891 0.1356 0.23565 0.0
C1644 C 0.53571 0.1321 0.21176 0.0
H1645 H 0.63318 0.13106 0.26014 0.0
H1646 H 0.60943 0.13466 0.24423 0.0
C1647 C 0.52025 0.12996 0.2018 0.0
C1648 C 0.5541 0.13568 0.24676 0.0
H1649 H 0.59879 0.15845 0.25014 0.0
C1650 C 0.5509 0.12156 0.26124 0.0
C1651 C 0.57151 0.14917 0.24271 0.0
C1652 C 0.57548 0.16469 0.22748 0.0
C1653 C 0.56473 0.12033 0.27143 0.0
C1654 C 0.58222 0.13391 0.2676 0.0
C1655 C 0.58539 0.14812 0.25319 0.0
C1656 C 0.59738 0.13319 0.27765 0.0
C1657 C 0.56045 0.10415 0.28545 0.0
C1658 C 0.59882 0.13171 0.30182 0.0
C1659 C 0.61226 0.12942 0.31097 0.0
C1660 C 0.62472 0.12891 0.29614 0.0
C1661 C 0.62378 0.13135 0.27206 0.0
C1662 C 0.61021 0.13342 0.26291 0.0
H1663 H 0.54716 0.09307 0.28132 0.0
H1664 H 0.57016 0.09984 0.28222 0.0
H1665 H 0.56072 0.10714 0.30428 0.0
H1666 H 0.58935 0.132 0.31358 0.0
H1667 H 0.61274 0.12781 0.32962 0.0
H1668 H 0.49187 0.64022 0.27408 0.0
H1669 H 0.46424 0.61753 0.25716 0.0
H1670 H 0.46738 0.57827 0.29865 0.0
H1671 H 0.49446 0.60096 0.31639 0.0
H1672 H 0.45845 0.59151 0.23087 0.0
H1673 H 0.4175 0.5636 0.30923 0.0
H1674 H 0.43821 0.58384 0.31012 0.0
H1675 H 0.43745 0.56302 0.31222 0.0
C1676 C 0.48648 0.62678 0.27989 0.0
C1677 C 0.49528 0.62238 0.29668 0.0
C1678 C 0.47071 0.61382 0.27018 0.0
C1679 C 0.46351 0.59619 0.27688 0.0
C1680 C 0.47228 0.59182 0.29372 0.0
H1681 H 0.40023 0.50475 0.19406 0.0
H1682 H 0.42326 0.53211 0.21083 0.0
C1683 C 0.48786 0.6048 0.30375 0.0
C1684 C 0.44761 0.5822 0.26507 0.0
H1685 H 0.40863 0.54486 0.27528 0.0
C1686 C 0.44743 0.58147 0.2406 0.0
C1687 C 0.433 0.56926 0.27762 0.0
C1688 C 0.43146 0.57009 0.30373 0.0
C1689 C 0.43345 0.56778 0.22843 0.0
C1690 C 0.41957 0.55404 0.24109 0.0
C1691 C 0.41937 0.5552 0.2655 0.0
C1692 C 0.40548 0.53804 0.22958 0.0
C1693 C 0.43373 0.56832 0.20214 0.0
C1694 C 0.38777 0.53195 0.23491 0.0
C1695 C 0.3746 0.51603 0.22582 0.0
C1696 C 0.37885 0.50599 0.21099 0.0
C1697 C 0.39652 0.51232 0.20516 0.0
C1698 C 0.40971 0.52805 0.21463 0.0
H1699 H 0.44109 0.58204 0.19565 0.0
H1700 H 0.4405 0.56141 0.19553 0.0
H1701 H 0.42027 0.56191 0.19476 0.0
H1702 H 0.38415 0.53937 0.24645 0.0
H1703 H 0.36109 0.5115 0.23061 0.0
H1704 H 0.86401 0.50125 0.26038 0.0
H1705 H 0.861 0.47455 0.24288 0.0
H1706 H 0.88075 0.46391 0.30587 0.0
H1707 H 0.88394 0.49063 0.32351 0.0
H1708 H 0.89806 0.46327 0.26499 0.0
H1709 H 0.82569 0.42234 0.25601 0.0
H1710 H 0.83509 0.44419 0.24444 0.0
H1711 H 0.83603 0.44109 0.27523 0.0
C1712 C 0.86751 0.49313 0.27065 0.0
C1713 C 0.87426 0.49812 0.29336 0.0
C1714 C 0.86569 0.47782 0.26064 0.0
C1715 C 0.8705 0.46719 0.27316 0.0
C1716 C 0.8769 0.47192 0.29596 0.0
H1717 H 0.85822 0.36564 0.24189 0.0
H1718 H 0.85595 0.39026 0.2575 0.0
C1719 C 0.87869 0.48719 0.30602 0.0
C1720 C 0.87007 0.45182 0.26195 0.0
H1721 H 0.84279 0.41179 0.23756 0.0
C1722 C 0.88598 0.452 0.25901 0.0
C1723 C 0.85427 0.43713 0.2543 0.0
C1724 C 0.83675 0.43602 0.25779 0.0
C1725 C 0.88656 0.43792 0.24848 0.0
C1726 C 0.87081 0.42337 0.24041 0.0
C1727 C 0.85485 0.42308 0.24354 0.0
C1728 C 0.8707 0.40806 0.22956 0.0
C1729 C 0.90397 0.43856 0.24647 0.0
C1730 C 0.87931 0.40979 0.20832 0.0
C1731 C 0.88065 0.39575 0.19931 0.0
C1732 C 0.87338 0.37971 0.21142 0.0
C1733 C 0.86407 0.37782 0.23218 0.0
C1734 C 0.86271 0.39186 0.24112 0.0
H1735 H 0.91414 0.44887 0.2578 0.0
H1736 H 0.90263 0.42571 0.25119 0.0
H1737 H 0.90861 0.44151 0.22817 0.0
H1738 H 0.88535 0.42215 0.19899 0.0
H1739 H 0.88783 0.39764 0.18323 0.0
H1740 H 0.48547 0.87781 0.18322 0.0
H1741 H 0.45834 0.87394 0.20063 0.0
H1742 H 0.47164 0.85921 0.26582 0.0
H1743 H 0.49873 0.86292 0.24869 0.0
H1744 H 0.42956 0.84099 0.23074 0.0
H1745 H 0.46699 0.90629 0.27393 0.0
H1746 H 0.47476 0.90108 0.24766 0.0
H1747 H 0.47577 0.89167 0.27491 0.0
C1748 C 0.48254 0.87352 0.20117 0.0
C1749 C 0.49436 0.87081 0.2146 0.0
C1750 C 0.46702 0.87128 0.21104 0.0
C1751 C 0.46312 0.86638 0.23447 0.0
C1752 C 0.4745 0.86302 0.24769 0.0
H1753 H 0.3896 0.87355 0.32823 0.0
H1754 H 0.4127 0.86912 0.31173 0.0
C1755 C 0.48997 0.86517 0.23784 0.0
C1756 C 0.44784 0.86603 0.24562 0.0
H1757 H 0.43666 0.89013 0.28075 0.0
C1758 C 0.43103 0.85168 0.24172 0.0
C1759 C 0.44994 0.87997 0.25999 0.0
C1760 C 0.46779 0.89572 0.26441 0.0
C1761 C 0.41616 0.85087 0.25202 0.0
C1762 C 0.4182 0.86502 0.26607 0.0
C1763 C 0.4351 0.87928 0.27004 0.0
C1764 C 0.40307 0.86569 0.27631 0.0
C1765 C 0.39847 0.83478 0.24806 0.0
C1766 C 0.38987 0.86507 0.26193 0.0
C1767 C 0.37656 0.86744 0.27134 0.0
C1768 C 0.37635 0.87078 0.29528 0.0
C1769 C 0.38939 0.87104 0.30972 0.0
C1770 C 0.40261 0.86851 0.30032 0.0
H1771 H 0.39977 0.82321 0.24349 0.0
H1772 H 0.39001 0.83156 0.26373 0.0
H1773 H 0.39183 0.83724 0.23332 0.0
H1774 H 0.39019 0.86337 0.24328 0.0
H1775 H 0.3668 0.86729 0.25968 0.0
H1776 H 0.63815 0.50287 0.25226 0.0
H1777 H 0.61479 0.47639 0.27071 0.0
H1778 H 0.5849 0.46284 0.20696 0.0
H1779 H 0.60808 0.48927 0.18837 0.0
H1780 H 0.56652 0.46339 0.24733 0.0
H1781 H 0.5991 0.42381 0.26059 0.0
H1782 H 0.61112 0.44614 0.27063 0.0
H1783 H 0.60708 0.44173 0.24003 0.0
C1784 C 0.62672 0.49415 0.24204 0.0
C1785 C 0.62498 0.49824 0.21883 0.0
C1786 C 0.61343 0.47897 0.2526 0.0
C1787 C 0.59821 0.46761 0.24013 0.0
C1788 C 0.59659 0.47143 0.21684 0.0
H1789 H 0.50925 0.36627 0.27148 0.0
H1790 H 0.53634 0.39092 0.25633 0.0
C1791 C 0.60987 0.48655 0.20625 0.0
C1792 C 0.58338 0.45242 0.25176 0.0
H1793 H 0.57099 0.41295 0.27764 0.0
C1794 C 0.56748 0.45236 0.25398 0.0
C1795 C 0.58471 0.43805 0.26029 0.0
C1796 C 0.60136 0.43727 0.25766 0.0
C1797 C 0.55284 0.43831 0.26457 0.0
C1798 C 0.55422 0.42404 0.27338 0.0
C1799 C 0.57008 0.42402 0.27107 0.0
C1800 C 0.53897 0.4087 0.28408 0.0
C1801 C 0.53588 0.43865 0.2658 0.0
C1802 C 0.5318 0.41043 0.30506 0.0
C1803 C 0.51631 0.39637 0.31381 0.0
C1804 C 0.50773 0.38034 0.30168 0.0
C1805 C 0.51544 0.37845 0.28119 0.0
C1806 C 0.53095 0.3925 0.27252 0.0
H1807 H 0.53605 0.44888 0.25426 0.0
H1808 H 0.5246 0.42571 0.26084 0.0
H1809 H 0.53375 0.44151 0.28396 0.0
H1810 H 0.53795 0.42281 0.31435 0.0
H1811 H 0.51079 0.39826 0.32967 0.0
H1812 H 0.10455 0.60099 0.19319 0.0
H1813 H 0.10716 0.57733 0.21148 0.0
H1814 H 0.15234 0.61541 0.25009 0.0
H1815 H 0.14924 0.6391 0.2327 0.0
H1816 H 0.13085 0.56781 0.21252 0.0
H1817 H 0.12261 0.58568 0.30236 0.0
H1818 H 0.11947 0.59589 0.27702 0.0
H1819 H 0.14124 0.60303 0.28781 0.0
C1820 C 0.11512 0.60433 0.20546 0.0
C1821 C 0.12657 0.62189 0.21172 0.0
C1822 C 0.11659 0.59079 0.21593 0.0
C1823 C 0.12966 0.59454 0.23266 0.0
C1824 C 0.14176 0.61214 0.23788 0.0
H1825 H 0.14895 0.51079 0.2796 0.0
H1826 H 0.15231 0.53767 0.2622 0.0
C1827 C 0.14008 0.62568 0.22776 0.0
C1828 C 0.13032 0.57997 0.24483 0.0
H1829 H 0.12969 0.56314 0.2987 0.0
C1830 C 0.13059 0.56679 0.23137 0.0
C1831 C 0.1297 0.57847 0.26945 0.0
C1832 C 0.12805 0.59142 0.285 0.0
C1833 C 0.1301 0.5521 0.24176 0.0
C1834 C 0.13006 0.5509 0.26639 0.0
C1835 C 0.12994 0.56416 0.27985 0.0
C1836 C 0.12913 0.53553 0.27853 0.0
C1837 C 0.12891 0.53773 0.22614 0.0
C1838 C 0.11564 0.52596 0.29463 0.0
C1839 C 0.11399 0.51088 0.30512 0.0
C1840 C 0.1257 0.50495 0.29949 0.0
C1841 C 0.13959 0.51491 0.28405 0.0
C1842 C 0.14143 0.53019 0.27392 0.0
H1843 H 0.12392 0.53824 0.20854 0.0
H1844 H 0.14217 0.53938 0.22396 0.0
H1845 H 0.12014 0.52456 0.23371 0.0
H1846 H 0.10605 0.52987 0.29861 0.0
H1847 H 0.10313 0.50348 0.31691 0.0
H1848 H 0.48718 0.87914 0.83036 0.0
H1849 H 0.45948 0.87522 0.81514 0.0
H1850 H 0.4704 0.86026 0.74837 0.0
H1851 H 0.49782 0.86371 0.76352 0.0
H1852 H 0.45611 0.8936 0.78003 0.0
H1853 H 0.41983 0.82297 0.75738 0.0
H1854 H 0.4391 0.83244 0.77568 0.0
H1855 H 0.44124 0.83429 0.74445 0.0
C1856 C 0.48356 0.87473 0.81255 0.0
C1857 C 0.49474 0.87173 0.79818 0.0
C1858 C 0.46772 0.8725 0.80388 0.0
C1859 C 0.46273 0.86721 0.78071 0.0
C1860 C 0.47372 0.86391 0.76647 0.0
H1861 H 0.39423 0.88045 0.68646 0.0
H1862 H 0.41727 0.87682 0.70503 0.0
C1863 C 0.48949 0.86602 0.77514 0.0
C1864 C 0.44687 0.86662 0.77083 0.0
H1865 H 0.40903 0.84077 0.74061 0.0
C1866 C 0.44574 0.88198 0.77167 0.0
C1867 C 0.43331 0.85144 0.75991 0.0
C1868 C 0.43331 0.8343 0.75949 0.0
C1869 C 0.43168 0.8827 0.76133 0.0
C1870 C 0.41847 0.86773 0.74983 0.0
C1871 C 0.41933 0.85225 0.74933 0.0
C1872 C 0.4038 0.86817 0.73804 0.0
C1873 C 0.43105 0.8995 0.76239 0.0
C1874 C 0.38855 0.86421 0.75045 0.0
C1875 C 0.37537 0.86627 0.73995 0.0
C1876 C 0.37725 0.87238 0.71686 0.0
C1877 C 0.39235 0.87576 0.70426 0.0
C1878 C 0.40552 0.87368 0.7148 0.0
H1879 H 0.44227 0.90996 0.77227 0.0
H1880 H 0.43118 0.9043 0.74445 0.0
H1881 H 0.41864 0.89699 0.77079 0.0
H1882 H 0.38709 0.85998 0.76845 0.0
H1883 H 0.36392 0.86353 0.75016 0.0
H1884 H 0.6095 0.48499 0.82769 0.0
H1885 H 0.5862 0.45784 0.81043 0.0
H1886 H 0.61085 0.47399 0.74309 0.0
H1887 H 0.63427 0.50111 0.76011 0.0
H1888 H 0.57337 0.46465 0.74746 0.0
H1889 H 0.58747 0.4139 0.78204 0.0
H1890 H 0.58841 0.42992 0.8024 0.0
H1891 H 0.60421 0.43671 0.7793 0.0
C1892 C 0.61012 0.48267 0.80928 0.0
C1893 C 0.62373 0.49526 0.79528 0.0
C1894 C 0.59684 0.46712 0.79948 0.0
C1895 C 0.59692 0.46391 0.77556 0.0
C1896 C 0.61066 0.47622 0.76164 0.0
H1897 H 0.51563 0.38864 0.68262 0.0
H1898 H 0.54301 0.41247 0.69846 0.0
C1899 C 0.62402 0.4917 0.77142 0.0
C1900 C 0.58188 0.4485 0.7647 0.0
H1901 H 0.56071 0.4038 0.7617 0.0
C1902 C 0.57063 0.45133 0.75039 0.0
C1903 C 0.57834 0.43121 0.76884 0.0
C1904 C 0.59026 0.42763 0.78386 0.0
C1905 C 0.55563 0.43726 0.74044 0.0
C1906 C 0.55212 0.4199 0.74435 0.0
C1907 C 0.56347 0.4171 0.7586 0.0
C1908 C 0.53637 0.40451 0.73445 0.0
C1909 C 0.54339 0.44114 0.72654 0.0
C1910 C 0.52396 0.3916 0.7493 0.0
C1911 C 0.50843 0.37779 0.74026 0.0
C1912 C 0.50498 0.37668 0.71619 0.0
C1913 C 0.51777 0.38923 0.70127 0.0
C1914 C 0.53339 0.40292 0.71031 0.0
H1915 H 0.54534 0.45434 0.73062 0.0
H1916 H 0.54601 0.44084 0.70769 0.0
H1917 H 0.52946 0.43122 0.72997 0.0
H1918 H 0.52605 0.3925 0.76797 0.0
H1919 H 0.49888 0.36833 0.75225 0.0
H1920 H 0.13409 0.63323 0.76139 0.0
H1921 H 0.1369 0.60898 0.7457 0.0
H1922 H 0.12745 0.58557 0.81405 0.0
H1923 H 0.12407 0.60955 0.82982 0.0
H1924 H 0.15844 0.59592 0.75468 0.0
H1925 H 0.08959 0.54626 0.77604 0.0
H1926 H 0.09771 0.56951 0.77816 0.0
H1927 H 0.10227 0.55828 0.8009 0.0
C1928 C 0.13271 0.62299 0.77317 0.0
C1929 C 0.12864 0.62323 0.79683 0.0
C1930 C 0.13434 0.60914 0.76415 0.0
C1931 C 0.132 0.59527 0.77859 0.0
C1932 C 0.12883 0.5959 0.80246 0.0
H1933 H 0.13705 0.50098 0.75046 0.0
H1934 H 0.14015 0.5278 0.76769 0.0
C1935 C 0.12701 0.60967 0.81147 0.0
C1936 C 0.13234 0.57994 0.76842 0.0
H1937 H 0.10749 0.53557 0.76084 0.0
C1938 C 0.1473 0.58273 0.75603 0.0
C1939 C 0.11771 0.56274 0.76999 0.0
C1940 C 0.10084 0.55899 0.78178 0.0
C1941 C 0.14805 0.56875 0.74538 0.0
C1942 C 0.13353 0.55163 0.74725 0.0
C1943 C 0.11862 0.54878 0.75964 0.0
C1944 C 0.13337 0.53644 0.73612 0.0
C1945 C 0.16428 0.57223 0.73217 0.0
C1946 C 0.1287 0.53261 0.71261 0.0
C1947 C 0.12679 0.51723 0.70268 0.0
C1948 C 0.12957 0.50547 0.71616 0.0
C1949 C 0.13483 0.50973 0.73955 0.0
C1950 C 0.13661 0.52504 0.74947 0.0
H1951 H 0.17491 0.58613 0.73353 0.0
H1952 H 0.16921 0.56365 0.73889 0.0
H1953 H 0.16096 0.56895 0.7135 0.0
H1954 H 0.12606 0.54128 0.70213 0.0
H1955 H 0.12276 0.51438 0.68463 0.0
H1956 H 0.60039 0.10624 0.6926 0.0
H1957 H 0.5772 0.1104 0.70916 0.0
H1958 H 0.61607 0.1575 0.7437 0.0
H1959 H 0.63929 0.15284 0.72814 0.0
H1960 H 0.59217 0.13872 0.77301 0.0
H1961 H 0.55814 0.14137 0.69379 0.0
H1962 H 0.55914 0.12154 0.69403 0.0
H1963 H 0.57914 0.14247 0.69256 0.0
C1964 C 0.60401 0.11765 0.70339 0.0
C1965 C 0.62165 0.12922 0.70906 0.0
C1966 C 0.59073 0.1201 0.71273 0.0
C1967 C 0.59484 0.13446 0.72737 0.0
C1968 C 0.61253 0.14635 0.73242 0.0
H1969 H 0.50763 0.14857 0.77317 0.0
H1970 H 0.53514 0.15379 0.75548 0.0
C1971 C 0.6258 0.1437 0.72349 0.0
C1972 C 0.58068 0.13617 0.73902 0.0
H1973 H 0.54118 0.13358 0.7294 0.0
C1974 C 0.58117 0.13789 0.76339 0.0
C1975 C 0.56644 0.13546 0.72656 0.0
C1976 C 0.5658 0.13532 0.70028 0.0
C1977 C 0.56753 0.13815 0.7757 0.0
C1978 C 0.5526 0.1359 0.7634 0.0
C1979 C 0.55246 0.13499 0.73894 0.0
C1980 C 0.53671 0.13376 0.7755 0.0
C1981 C 0.56939 0.14094 0.80173 0.0
C1982 C 0.52844 0.12083 0.79274 0.0
C1983 C 0.51294 0.11808 0.8032 0.0
C1984 C 0.5051 0.12787 0.79618 0.0
C1985 C 0.51337 0.14082 0.77895 0.0
C1986 C 0.52907 0.14379 0.7688 0.0
H1987 H 0.58341 0.14877 0.80687 0.0
H1988 H 0.56246 0.14777 0.80808 0.0
H1989 H 0.56379 0.12803 0.81057 0.0
H1990 H 0.5337 0.11249 0.79769 0.0
H1991 H 0.50676 0.10783 0.81618 0.0
H1992 H 0.36173 0.5109 0.77832 0.0
H1993 H 0.38467 0.53829 0.76109 0.0
H1994 H 0.42408 0.53246 0.7983 0.0
H1995 H 0.40118 0.50571 0.81654 0.0
H1996 H 0.4327 0.56511 0.79824 0.0
H1997 H 0.41429 0.54041 0.70782 0.0
H1998 H 0.39697 0.54119 0.72319 0.0
H1999 H 0.40445 0.52656 0.73285 0.0
C2000 C 0.3753 0.51559 0.78295 0.0
C2001 C 0.37969 0.50612 0.79865 0.0
C2002 C 0.38841 0.53114 0.77293 0.0
C2003 C 0.40617 0.5372 0.77783 0.0
C2004 C 0.41049 0.52804 0.79411 0.0
H2005 H 0.49609 0.60124 0.69313 0.0
H2006 H 0.46944 0.57831 0.71149 0.0
C2007 C 0.39739 0.51274 0.80455 0.0
C2008 C 0.42038 0.55283 0.7658 0.0
H2009 H 0.43685 0.56986 0.71211 0.0
C2010 C 0.4336 0.56615 0.7794 0.0
C2011 C 0.42169 0.55411 0.74118 0.0
C2012 C 0.4087 0.53973 0.7254 0.0
C2013 C 0.44827 0.58045 0.76916 0.0
C2014 C 0.44938 0.58193 0.74455 0.0
C2015 C 0.43594 0.56882 0.73096 0.0
C2016 C 0.46496 0.59617 0.73248 0.0
C2017 C 0.46278 0.59329 0.7849 0.0
C2018 C 0.47113 0.61392 0.73764 0.0
C2019 C 0.48664 0.62705 0.72753 0.0
C2020 C 0.49593 0.62269 0.71151 0.0
C2021 C 0.4892 0.60501 0.70536 0.0
C2022 C 0.47395 0.59189 0.71588 0.0
H2023 H 0.4622 0.58757 0.80237 0.0
H2024 H 0.47589 0.59753 0.77725 0.0
H2025 H 0.46141 0.60504 0.78741 0.0
H2026 H 0.46412 0.61763 0.74974 0.0
H2027 H 0.49142 0.64059 0.73236 0.0
H2028 H 0.85995 0.364 0.76581 0.0
H2029 H 0.85713 0.38793 0.74877 0.0
H2030 H 0.88311 0.42033 0.80849 0.0
H2031 H 0.88613 0.39653 0.82569 0.0
H2032 H 0.84172 0.40804 0.7661 0.0
H2033 H 0.91369 0.44816 0.7516 0.0
H2034 H 0.90288 0.42501 0.75821 0.0
H2035 H 0.90717 0.44065 0.781 0.0
C2036 C 0.86493 0.37615 0.77547 0.0
C2037 C 0.87344 0.3784 0.79703 0.0
C2038 C 0.86326 0.38979 0.7657 0.0
C2039 C 0.87015 0.40595 0.77722 0.0
C2040 C 0.87795 0.40801 0.79919 0.0
H2041 H 0.85971 0.49645 0.74521 0.0
H2042 H 0.85684 0.46957 0.76178 0.0
C2043 C 0.8796 0.39437 0.80902 0.0
C2044 C 0.86993 0.42089 0.76571 0.0
H2045 H 0.89682 0.46152 0.74284 0.0
C2046 C 0.85374 0.41975 0.76099 0.0
C2047 C 0.88564 0.43599 0.75875 0.0
C2048 C 0.90335 0.43756 0.76243 0.0
C2049 C 0.85288 0.43351 0.74984 0.0
C2050 C 0.86862 0.4488 0.74345 0.0
C2051 C 0.88477 0.44979 0.74785 0.0
C2052 C 0.86877 0.4641 0.73242 0.0
C2053 C 0.83516 0.4315 0.74471 0.0
C2054 C 0.87645 0.46995 0.71041 0.0
C2055 C 0.87818 0.48536 0.70089 0.0
C2056 C 0.8724 0.4953 0.71333 0.0
C2057 C 0.86428 0.48912 0.73513 0.0
C2058 C 0.86253 0.47369 0.7446 0.0
H2059 H 0.82457 0.41754 0.74525 0.0
H2060 H 0.83216 0.43878 0.75801 0.0
H2061 H 0.83506 0.43701 0.72733 0.0
H2062 H 0.88142 0.46275 0.70079 0.0
H2063 H 0.88451 0.48972 0.6841 0.0
loop_
_geom_bond_atom_site_label_1
_geom_bond_atom_site_label_2
_geom_bond_distance
_geom_bond_site_symmetry_2
_ccdc_geom_bond_type
O0 Cd1 2.223 . S
O0 C8 1.315 . S
Cd1 O0 2.223 . S
Cd1 O4 2.297 . S
Cd1 O5 2.439 . S
Cd1 O11 2.240 . S
Cd2 O3 2.240 . S
Cd2 O10 2.223 . S
Cd2 O12 2.297 . S
Cd2 O13 2.439 . S
O3 Cd2 2.240 . S
O3 C8 1.279 . S
O4 Cd1 2.297 . S
O4 C6 1.247 . S
O5 Cd1 2.439 . S
O5 C6 1.208 . S
C6 O4 1.247 . S
C6 O5 1.208 . S
C7 O12 1.247 . S
C7 O13 1.208 . S
C8 O0 1.315 . S
C8 O3 1.279 . S
C9 O10 1.315 . S
C9 O11 1.279 . S
O10 Cd2 2.223 . S
O10 C9 1.315 . S
O11 Cd1 2.240 . S
O11 C9 1.279 . S
O12 Cd2 2.297 . S
O12 C7 1.247 . S
O13 Cd2 2.439 . S
O13 C7 1.208 . S
O14 Cd15 2.223 . S
O14 C22 1.315 . S
Cd15 O14 2.223 . S
Cd15 O18 2.297 . S
Cd15 O19 2.439 . S
Cd15 O25 2.240 . S
Cd16 O17 2.240 . S
Cd16 O24 2.223 . S
Cd16 O26 2.297 . S
Cd16 O27 2.439 . S
O17 Cd16 2.240 . S
O17 C22 1.279 . S
O18 Cd15 2.297 . S
O18 C20 1.247 . S
O19 Cd15 2.439 . S
O19 C20 1.208 . S
C20 O18 1.247 . S
C20 O19 1.208 . S
C21 O26 1.247 . S
C21 O27 1.208 . S
C22 O14 1.315 . S
C22 O17 1.279 . S
C23 O24 1.315 . S
C23 O25 1.279 . S
O24 Cd16 2.223 . S
O24 C23 1.315 . S
O25 Cd15 2.240 . S
O25 C23 1.279 . S
O26 Cd16 2.297 . S
O26 C21 1.247 . S
O27 Cd16 2.439 . S
O27 C21 1.208 . S
O28 Cd29 2.223 . S
O28 C36 1.315 . S
Cd29 O28 2.223 . S
Cd29 O32 2.297 . S
Cd29 O33 2.439 . S
Cd29 O39 2.240 . S
Cd30 O31 2.240 . S
Cd30 O38 2.223 . S
Cd30 O40 2.297 . S
Cd30 O41 2.439 . S
O31 Cd30 2.240 . S
O31 C36 1.279 . S
O32 Cd29 2.297 . S
O32 C34 1.247 . S
O33 Cd29 2.439 . S
O33 C34 1.208 . S
C34 O32 1.247 . S
C34 O33 1.208 . S
C35 O40 1.247 . S
C35 O41 1.208 . S
C36 O28 1.315 . S
C36 O31 1.279 . S
C37 O38 1.315 . S
C37 O39 1.279 . S
O38 Cd30 2.223 . S
O38 C37 1.315 . S
O39 Cd29 2.240 . S
O39 C37 1.279 . S
O40 Cd30 2.297 . S
O40 C35 1.247 . S
O41 Cd30 2.439 . S
O41 C35 1.208 . S
O42 Cd43 2.223 . S
O42 C50 1.315 . S
Cd43 O42 2.223 . S
Cd43 O46 2.297 . S
Cd43 O47 2.439 . S
Cd43 O53 2.240 . S
Cd44 O45 2.240 . S
Cd44 O52 2.223 . S
Cd44 O54 2.297 . S
Cd44 O55 2.439 . S
O45 Cd44 2.240 . S
O45 C50 1.279 . S
O46 Cd43 2.297 . S
O46 C48 1.247 . S
O47 Cd43 2.439 . S
O47 C48 1.208 . S
C48 O46 1.247 . S
C48 O47 1.208 . S
C49 O54 1.247 . S
C49 O55 1.208 . S
C50 O42 1.315 . S
C50 O45 1.279 . S
C51 O52 1.315 . S
C51 O53 1.279 . S
O52 Cd44 2.223 . S
O52 C51 1.315 . S
O53 Cd43 2.240 . S
O53 C51 1.279 . S
O54 Cd44 2.297 . S
O54 C49 1.247 . S
O55 Cd44 2.439 . S
O55 C49 1.208 . S
O56 Cd57 2.223 . S
O56 C64 1.315 . S
Cd57 O56 2.223 . S
Cd57 O60 2.297 . S
Cd57 O61 2.439 . S
Cd57 O67 2.240 . S
Cd58 O59 2.240 . S
Cd58 O66 2.223 . S
Cd58 O68 2.297 . S
Cd58 O69 2.439 . S
O59 Cd58 2.240 . S
O59 C64 1.279 . S
O60 Cd57 2.297 . S
O60 C62 1.247 . S
O61 Cd57 2.439 . S
O61 C62 1.208 . S
C62 O60 1.247 . S
C62 O61 1.208 . S
C63 O68 1.247 . S
C63 O69 1.208 . S
C64 O56 1.315 . S
C64 O59 1.279 . S
C65 O66 1.315 . S
C65 O67 1.279 . S
O66 Cd58 2.223 . S
O66 C65 1.315 . S
O67 Cd57 2.240 . S
O67 C65 1.279 . S
O68 Cd58 2.297 . S
O68 C63 1.247 . S
O69 Cd58 2.439 . S
O69 C63 1.208 . S
O70 Cd71 2.223 . S
O70 C78 1.315 . S
Cd71 O70 2.223 . S
Cd71 O74 2.297 . S
Cd71 O75 2.439 . S
Cd71 O81 2.240 . S
Cd72 O73 2.240 . S
Cd72 O80 2.223 . S
Cd72 O82 2.297 . S
Cd72 O83 2.439 . S
O73 Cd72 2.240 . S
O73 C78 1.279 . S
O74 Cd71 2.297 . S
O74 C76 1.247 . S
O75 Cd71 2.439 . S
O75 C76 1.208 . S
C76 O74 1.247 . S
C76 O75 1.208 . S
C77 O82 1.247 . S
C77 O83 1.208 . S
C78 O70 1.315 . S
C78 O73 1.279 . S
C79 O80 1.315 . S
C79 O81 1.279 . S
O80 Cd72 2.223 . S
O80 C79 1.315 . S
O81 Cd71 2.240 . S
O81 C79 1.279 . S
O82 Cd72 2.297 . S
O82 C77 1.247 . S
O83 Cd72 2.439 . S
O83 C77 1.208 . S
O84 Cd85 2.223 . S
O84 C92 1.315 . S
Cd85 O84 2.223 . S
Cd85 O88 2.297 . S
Cd85 O89 2.439 . S
Cd85 O95 2.240 . S
Cd86 O87 2.240 . S
Cd86 O94 2.223 . S
Cd86 O96 2.297 . S
Cd86 O97 2.439 . S
O87 Cd86 2.240 . S
O87 C92 1.279 . S
O88 Cd85 2.297 . S
O88 C90 1.247 . S
O89 Cd85 2.439 . S
O89 C90 1.208 . S
C90 O88 1.247 . S
C90 O89 1.208 . S
C91 O96 1.247 . S
C91 O97 1.208 . S
C92 O84 1.315 . S
C92 O87 1.279 . S
C93 O94 1.315 . S
C93 O95 1.279 . S
O94 Cd86 2.223 . S
O94 C93 1.315 . S
O95 Cd85 2.240 . S
O95 C93 1.279 . S
O96 Cd86 2.297 . S
O96 C91 1.247 . S
O97 Cd86 2.439 . S
O97 C91 1.208 . S
O98 Cd99 2.223 . S
O98 C106 1.315 . S
Cd99 O98 2.223 . S
Cd99 O102 2.297 . S
Cd99 O103 2.439 . S
Cd99 O109 2.240 . S
Cd100 O101 2.240 . S
Cd100 O108 2.223 . S
Cd100 O110 2.297 . S
Cd100 O111 2.439 . S
O101 Cd100 2.240 . S
O101 C106 1.279 . S
O102 Cd99 2.297 . S
O102 C104 1.247 . S
O103 Cd99 2.439 . S
O103 C104 1.208 . S
C104 O102 1.247 . S
C104 O103 1.208 . S
C105 O110 1.247 . S
C105 O111 1.208 . S
C106 O98 1.315 . S
C106 O101 1.279 . S
C107 O108 1.315 . S
C107 O109 1.279 . S
O108 Cd100 2.223 . S
O108 C107 1.315 . S
O109 Cd99 2.240 . S
O109 C107 1.279 . S
O110 Cd100 2.297 . S
O110 C105 1.247 . S
O111 Cd100 2.439 . S
O111 C105 1.208 . S
O112 Cd113 2.223 . S
O112 C120 1.315 . S
Cd113 O112 2.223 . S
Cd113 O116 2.297 . S
Cd113 O117 2.439 . S
Cd113 O123 2.240 . S
Cd114 O115 2.240 . S
Cd114 O122 2.223 . S
Cd114 O124 2.297 . S
Cd114 O125 2.439 . S
O115 Cd114 2.240 . S
O115 C120 1.279 . S
O116 Cd113 2.297 . S
O116 C118 1.247 . S
O117 Cd113 2.439 . S
O117 C118 1.208 . S
C118 O116 1.247 . S
C118 O117 1.208 . S
C119 O124 1.247 . S
C119 O125 1.208 . S
C120 O112 1.315 . S
C120 O115 1.279 . S
C121 O122 1.315 . S
C121 O123 1.279 . S
O122 Cd114 2.223 . S
O122 C121 1.315 . S
O123 Cd113 2.240 . S
O123 C121 1.279 . S
O124 Cd114 2.297 . S
O124 C119 1.247 . S
O125 Cd114 2.439 . S
O125 C119 1.208 . S
O126 Cd127 2.223 . S
O126 C134 1.315 . S
Cd127 O126 2.223 . S
Cd127 O130 2.297 . S
Cd127 O131 2.439 . S
Cd127 O137 2.240 . S
Cd128 O129 2.240 . S
Cd128 O136 2.223 . S
Cd128 O138 2.297 . S
Cd128 O139 2.439 . S
O129 Cd128 2.240 . S
O129 C134 1.279 . S
O130 Cd127 2.297 . S
O130 C132 1.247 . S
O131 Cd127 2.439 . S
O131 C132 1.208 . S
C132 O130 1.247 . S
C132 O131 1.208 . S
C133 O138 1.247 . S
C133 O139 1.208 . S
C134 O126 1.315 . S
C134 O129 1.279 . S
C135 O136 1.315 . S
C135 O137 1.279 . S
O136 Cd128 2.223 . S
O136 C135 1.315 . S
O137 Cd127 2.240 . S
O137 C135 1.279 . S
O138 Cd128 2.297 . S
O138 C133 1.247 . S
O139 Cd128 2.439 . S
O139 C133 1.208 . S
O140 Cd141 2.223 . S
O140 C148 1.315 . S
Cd141 O140 2.223 . S
Cd141 O144 2.297 . S
Cd141 O145 2.439 . S
Cd141 O151 2.240 . S
Cd142 O143 2.240 . S
Cd142 O150 2.223 . S
Cd142 O152 2.297 . S
Cd142 O153 2.439 . S
O143 Cd142 2.240 . S
O143 C148 1.279 . S
O144 Cd141 2.297 . S
O144 C146 1.247 . S
O145 Cd141 2.439 . S
O145 C146 1.208 . S
C146 O144 1.247 . S
C146 O145 1.208 . S
C147 O152 1.247 . S
C147 O153 1.208 . S
C148 O140 1.315 . S
C148 O143 1.279 . S
C149 O150 1.315 . S
C149 O151 1.279 . S
O150 Cd142 2.223 . S
O150 C149 1.315 . S
O151 Cd141 2.240 . S
O151 C149 1.279 . S
O152 Cd142 2.297 . S
O152 C147 1.247 . S
O153 Cd142 2.439 . S
O153 C147 1.208 . S
O154 Cd155 2.223 . S
O154 C162 1.315 . S
Cd155 O154 2.223 . S
Cd155 O158 2.297 . S
Cd155 O159 2.439 . S
Cd155 O165 2.240 . S
Cd156 O157 2.240 . S
Cd156 O164 2.223 . S
Cd156 O166 2.297 . S
Cd156 O167 2.439 . S
O157 Cd156 2.240 . S
O157 C162 1.279 . S
O158 Cd155 2.297 . S
O158 C160 1.247 . S
O159 Cd155 2.439 . S
O159 C160 1.208 . S
C160 O158 1.247 . S
C160 O159 1.208 . S
C161 O166 1.247 . S
C161 O167 1.208 . S
C162 O154 1.315 . S
C162 O157 1.279 . S
C163 O164 1.315 . S
C163 O165 1.279 . S
O164 Cd156 2.223 . S
O164 C163 1.315 . S
O165 Cd155 2.240 . S
O165 C163 1.279 . S
O166 Cd156 2.297 . S
O166 C161 1.247 . S
O167 Cd156 2.439 . S
O167 C161 1.208 . S
O168 Cd169 2.223 . S
O168 C176 1.315 . S
Cd169 O168 2.223 . S
Cd169 O172 2.297 . S
Cd169 O173 2.439 . S
Cd169 O179 2.240 . S
Cd170 O171 2.240 . S
Cd170 O178 2.223 . S
Cd170 O180 2.297 . S
Cd170 O181 2.439 . S
O171 Cd170 2.240 . S
O171 C176 1.279 . S
O172 Cd169 2.297 . S
O172 C174 1.247 . S
O173 Cd169 2.439 . S
O173 C174 1.208 . S
C174 O172 1.247 . S
C174 O173 1.208 . S
C175 O180 1.247 . S
C175 O181 1.208 . S
C176 O168 1.315 . S
C176 O171 1.279 . S
C177 O178 1.315 . S
C177 O179 1.279 . S
O178 Cd170 2.223 . S
O178 C177 1.315 . S
O179 Cd169 2.240 . S
O179 C177 1.279 . S
O180 Cd170 2.297 . S
O180 C175 1.247 . S
O181 Cd170 2.439 . S
O181 C175 1.208 . S
O182 Cd183 2.223 . S
O182 C190 1.315 . S
Cd183 O182 2.223 . S
Cd183 O186 2.297 . S
Cd183 O187 2.439 . S
Cd183 O193 2.240 . S
Cd184 O185 2.240 . S
Cd184 O192 2.223 . S
Cd184 O194 2.297 . S
Cd184 O195 2.439 . S
O185 Cd184 2.240 . S
O185 C190 1.279 . S
O186 Cd183 2.297 . S
O186 C188 1.247 . S
O187 Cd183 2.439 . S
O187 C188 1.208 . S
C188 O186 1.247 . S
C188 O187 1.208 . S
C189 O194 1.247 . S
C189 O195 1.208 . S
C190 O182 1.315 . S
C190 O185 1.279 . S
C191 O192 1.315 . S
C191 O193 1.279 . S
O192 Cd184 2.223 . S
O192 C191 1.315 . S
O193 Cd183 2.240 . S
O193 C191 1.279 . S
O194 Cd184 2.297 . S
O194 C189 1.247 . S
O195 Cd184 2.439 . S
O195 C189 1.208 . S
O196 Cd197 2.223 . S
O196 C204 1.315 . S
Cd197 O196 2.223 . S
Cd197 O200 2.297 . S
Cd197 O201 2.439 . S
Cd197 O207 2.240 . S
Cd198 O199 2.240 . S
Cd198 O206 2.223 . S
Cd198 O208 2.297 . S
Cd198 O209 2.439 . S
O199 Cd198 2.240 . S
O199 C204 1.279 . S
O200 Cd197 2.297 . S
O200 C202 1.247 . S
O201 Cd197 2.439 . S
O201 C202 1.208 . S
C202 O200 1.247 . S
C202 O201 1.208 . S
C203 O208 1.247 . S
C203 O209 1.208 . S
C204 O196 1.315 . S
C204 O199 1.279 . S
C205 O206 1.315 . S
C205 O207 1.279 . S
O206 Cd198 2.223 . S
O206 C205 1.315 . S
O207 Cd197 2.240 . S
O207 C205 1.279 . S
O208 Cd198 2.297 . S
O208 C203 1.247 . S
O209 Cd198 2.439 . S
O209 C203 1.208 . S
O210 Cd211 2.223 . S
O210 C218 1.315 . S
Cd211 O210 2.223 . S
Cd211 O214 2.297 . S
Cd211 O215 2.439 . S
Cd211 O221 2.240 . S
Cd212 O213 2.240 . S
Cd212 O220 2.223 . S
Cd212 O222 2.297 . S
Cd212 O223 2.439 . S
O213 Cd212 2.240 . S
O213 C218 1.279 . S
O214 Cd211 2.297 . S
O214 C216 1.247 . S
O215 Cd211 2.439 . S
O215 C216 1.208 . S
C216 O214 1.247 . S
C216 O215 1.208 . S
C217 O222 1.247 . S
C217 O223 1.208 . S
C218 O210 1.315 . S
C218 O213 1.279 . S
C219 O220 1.315 . S
C219 O221 1.279 . S
O220 Cd212 2.223 . S
O220 C219 1.315 . S
O221 Cd211 2.240 . S
O221 C219 1.279 . S
O222 Cd212 2.297 . S
O222 C217 1.247 . S
O223 Cd212 2.439 . S
O223 C217 1.208 . S
O224 Cd225 2.223 . S
O224 C232 1.315 . S
Cd225 O224 2.223 . S
Cd225 O228 2.297 . S
Cd225 O229 2.439 . S
Cd225 O235 2.240 . S
Cd226 O227 2.240 . S
Cd226 O234 2.223 . S
Cd226 O236 2.297 . S
Cd226 O237 2.439 . S
O227 Cd226 2.240 . S
O227 C232 1.279 . S
O228 Cd225 2.297 . S
O228 C230 1.247 . S
O229 Cd225 2.439 . S
O229 C230 1.208 . S
C230 O228 1.247 . S
C230 O229 1.208 . S
C231 O236 1.247 . S
C231 O237 1.208 . S
C232 O224 1.315 . S
C232 O227 1.279 . S
C233 O234 1.315 . S
C233 O235 1.279 . S
O234 Cd226 2.223 . S
O234 C233 1.315 . S
O235 Cd225 2.240 . S
O235 C233 1.279 . S
O236 Cd226 2.297 . S
O236 C231 1.247 . S
O237 Cd226 2.439 . S
O237 C231 1.208 . S
O238 Cd239 2.223 . S
O238 C246 1.315 . S
Cd239 O238 2.223 . S
Cd239 O242 2.297 . S
Cd239 O243 2.439 . S
Cd239 O249 2.240 . S
Cd240 O241 2.240 . S
Cd240 O248 2.223 . S
Cd240 O250 2.297 . S
Cd240 O251 2.439 . S
O241 Cd240 2.240 . S
O241 C246 1.279 . S
O242 Cd239 2.297 . S
O242 C244 1.247 . S
O243 Cd239 2.439 . S
O243 C244 1.208 . S
C244 O242 1.247 . S
C244 O243 1.208 . S
C245 O250 1.247 . S
C245 O251 1.208 . S
C246 O238 1.315 . S
C246 O241 1.279 . S
C247 O248 1.315 . S
C247 O249 1.279 . S
O248 Cd240 2.223 . S
O248 C247 1.315 . S
O249 Cd239 2.240 . S
O249 C247 1.279 . S
O250 Cd240 2.297 . S
O250 C245 1.247 . S
O251 Cd240 2.439 . S
O251 C245 1.208 . S
O252 Cd253 2.223 . S
O252 C260 1.315 . S
Cd253 O252 2.223 . S
Cd253 O256 2.297 . S
Cd253 O257 2.439 . S
Cd253 O263 2.240 . S
Cd254 O255 2.240 . S
Cd254 O262 2.223 . S
Cd254 O264 2.297 . S
Cd254 O265 2.439 . S
O255 Cd254 2.240 . S
O255 C260 1.279 . S
O256 Cd253 2.297 . S
O256 C258 1.247 . S
O257 Cd253 2.439 . S
O257 C258 1.208 . S
C258 O256 1.247 . S
C258 O257 1.208 . S
C259 O264 1.247 . S
C259 O265 1.208 . S
C260 O252 1.315 . S
C260 O255 1.279 . S
C261 O262 1.315 . S
C261 O263 1.279 . S
O262 Cd254 2.223 . S
O262 C261 1.315 . S
O263 Cd253 2.240 . S
O263 C261 1.279 . S
O264 Cd254 2.297 . S
O264 C259 1.247 . S
O265 Cd254 2.439 . S
O265 C259 1.208 . S
O266 Cd267 2.223 . S
O266 C274 1.315 . S
Cd267 O266 2.223 . S
Cd267 O270 2.297 . S
Cd267 O271 2.439 . S
Cd267 O277 2.240 . S
Cd268 O269 2.240 . S
Cd268 O276 2.223 . S
Cd268 O278 2.297 . S
Cd268 O279 2.439 . S
O269 Cd268 2.240 . S
O269 C274 1.279 . S
O270 Cd267 2.297 . S
O270 C272 1.247 . S
O271 Cd267 2.439 . S
O271 C272 1.208 . S
C272 O270 1.247 . S
C272 O271 1.208 . S
C273 O278 1.247 . S
C273 O279 1.208 . S
C274 O266 1.315 . S
C274 O269 1.279 . S
C275 O276 1.315 . S
C275 O277 1.279 . S
O276 Cd268 2.223 . S
O276 C275 1.315 . S
O277 Cd267 2.240 . S
O277 C275 1.279 . S
O278 Cd268 2.297 . S
O278 C273 1.247 . S
O279 Cd268 2.439 . S
O279 C273 1.208 . S
O280 Cd281 2.223 . S
O280 C288 1.315 . S
Cd281 O280 2.223 . S
Cd281 O284 2.297 . S
Cd281 O285 2.439 . S
Cd281 O291 2.240 . S
Cd282 O283 2.240 . S
Cd282 O290 2.223 . S
Cd282 O292 2.297 . S
Cd282 O293 2.439 . S
O283 Cd282 2.240 . S
O283 C288 1.279 . S
O284 Cd281 2.297 . S
O284 C286 1.247 . S
O285 Cd281 2.439 . S
O285 C286 1.208 . S
C286 O284 1.247 . S
C286 O285 1.208 . S
C287 O292 1.247 . S
C287 O293 1.208 . S
C288 O280 1.315 . S
C288 O283 1.279 . S
C289 O290 1.315 . S
C289 O291 1.279 . S
O290 Cd282 2.223 . S
O290 C289 1.315 . S
O291 Cd281 2.240 . S
O291 C289 1.279 . S
O292 Cd282 2.297 . S
O292 C287 1.247 . S
O293 Cd282 2.439 . S
O293 C287 1.208 . S
O294 Cd295 2.223 . S
O294 C302 1.315 . S
Cd295 O294 2.223 . S
Cd295 O298 2.297 . S
Cd295 O299 2.439 . S
Cd295 O305 2.240 . S
Cd296 O297 2.240 . S
Cd296 O304 2.223 . S
Cd296 O306 2.297 . S
Cd296 O307 2.439 . S
O297 Cd296 2.240 . S
O297 C302 1.279 . S
O298 Cd295 2.297 . S
O298 C300 1.247 . S
O299 Cd295 2.439 . S
O299 C300 1.208 . S
C300 O298 1.247 . S
C300 O299 1.208 . S
C301 O306 1.247 . S
C301 O307 1.208 . S
C302 O294 1.315 . S
C302 O297 1.279 . S
C303 O304 1.315 . S
C303 O305 1.279 . S
O304 Cd296 2.223 . S
O304 C303 1.315 . S
O305 Cd295 2.240 . S
O305 C303 1.279 . S
O306 Cd296 2.297 . S
O306 C301 1.247 . S
O307 Cd296 2.439 . S
O307 C301 1.208 . S
O308 Cd309 2.223 . S
O308 C316 1.315 . S
Cd309 O308 2.223 . S
Cd309 O312 2.297 . S
Cd309 O313 2.439 . S
Cd309 O319 2.240 . S
Cd310 O311 2.240 . S
Cd310 O318 2.223 . S
Cd310 O320 2.297 . S
Cd310 O321 2.439 . S
O311 Cd310 2.240 . S
O311 C316 1.279 . S
O312 Cd309 2.297 . S
O312 C314 1.247 . S
O313 Cd309 2.439 . S
O313 C314 1.208 . S
C314 O312 1.247 . S
C314 O313 1.208 . S
C315 O320 1.247 . S
C315 O321 1.208 . S
C316 O308 1.315 . S
C316 O311 1.279 . S
C317 O318 1.315 . S
C317 O319 1.279 . S
O318 Cd310 2.223 . S
O318 C317 1.315 . S
O319 Cd309 2.240 . S
O319 C317 1.279 . S
O320 Cd310 2.297 . S
O320 C315 1.247 . S
O321 Cd310 2.439 . S
O321 C315 1.208 . S
O322 Cd323 2.223 . S
O322 C330 1.315 . S
Cd323 O322 2.223 . S
Cd323 O326 2.297 . S
Cd323 O327 2.439 . S
Cd323 O333 2.240 . S
Cd324 O325 2.240 . S
Cd324 O332 2.223 . S
Cd324 O334 2.297 . S
Cd324 O335 2.439 . S
O325 Cd324 2.240 . S
O325 C330 1.279 . S
O326 Cd323 2.297 . S
O326 C328 1.247 . S
O327 Cd323 2.439 . S
O327 C328 1.208 . S
C328 O326 1.247 . S
C328 O327 1.208 . S
C329 O334 1.247 . S
C329 O335 1.208 . S
C330 O322 1.315 . S
C330 O325 1.279 . S
C331 O332 1.315 . S
C331 O333 1.279 . S
O332 Cd324 2.223 . S
O332 C331 1.315 . S
O333 Cd323 2.240 . S
O333 C331 1.279 . S
O334 Cd324 2.297 . S
O334 C329 1.247 . S
O335 Cd324 2.439 . S
O335 C329 1.208 . S
H336 C344 0.929 . S
H337 C346 0.930 . S
H338 C348 0.930 . S
H339 C351 0.929 . S
H340 C354 0.930 . S
H341 C356 0.960 . S
H342 C356 0.960 . S
H343 C356 0.960 . S
C344 H336 0.929 . S
C344 C345 1.377 . S
C344 C346 1.384 . S
C345 C344 1.377 . S
C345 C351 1.390 . S
C346 H337 0.930 . S
C346 C344 1.384 . S
C346 C347 1.372 . S
C347 C346 1.372 . S
C347 C348 1.400 . S
C347 C352 1.490 . S
C348 H338 0.930 . S
C348 C347 1.400 . S
C348 C351 1.386 . S
H349 C365 0.930 . S
H350 C366 0.931 . S
C351 H339 0.929 . S
C351 C345 1.390 . S
C351 C348 1.386 . S
C352 C347 1.490 . S
C352 C354 1.395 . S
C352 C355 1.403 . S
H353 C359 0.930 . S
C354 H340 0.930 . S
C354 C352 1.395 . S
C354 C357 1.403 1_545 S
C355 C352 1.403 . S
C355 C356 1.524 . S
C355 C359 1.400 1_545 S
C356 H341 0.960 . S
C356 H342 0.960 . S
C356 H343 0.960 . S
C356 C355 1.524 . S
C357 C354 1.403 1_565 S
C357 C358 1.392 . S
C357 C361 1.495 . S
C358 C357 1.392 . S
C358 C359 1.385 . S
C358 C360 1.478 . S
C359 H353 0.930 . S
C359 C355 1.400 1_565 S
C359 C358 1.385 . S
C360 C358 1.478 . S
C360 C362 1.381 . S
C360 C366 1.383 . S
C361 C357 1.495 . S
C361 H367 0.959 . S
C361 H368 0.961 . S
C361 H369 0.960 . S
C362 C360 1.381 . S
C362 C363 1.394 . S
C362 H370 0.930 . S
C363 C362 1.394 . S
C363 C364 1.383 . S
C363 H371 0.929 . S
C364 C363 1.383 . S
C364 C365 1.377 . S
C365 H349 0.930 . S
C365 C364 1.377 . S
C365 C366 1.379 . S
C366 H350 0.931 . S
C366 C360 1.383 . S
C366 C365 1.379 . S
H367 C361 0.959 . S
H368 C361 0.961 . S
H369 C361 0.960 . S
H370 C362 0.930 . S
H371 C363 0.929 . S
H372 C380 0.929 . S
H373 C382 0.930 . S
H374 C384 0.930 . S
H375 C387 0.929 . S
H376 C390 0.930 . S
H377 C392 0.960 . S
H378 C392 0.960 . S
H379 C392 0.960 . S
C380 H372 0.929 . S
C380 C381 1.377 . S
C380 C382 1.384 . S
C381 C380 1.377 . S
C381 C387 1.390 . S
C382 H373 0.930 . S
C382 C380 1.384 . S
C382 C383 1.372 . S
C383 C382 1.372 . S
C383 C384 1.400 . S
C383 C388 1.490 . S
C384 H374 0.930 . S
C384 C383 1.400 . S
C384 C387 1.386 . S
H385 C401 0.930 . S
H386 C402 0.931 . S
C387 H375 0.929 . S
C387 C381 1.390 . S
C387 C384 1.386 . S
C388 C383 1.490 . S
C388 C390 1.395 . S
C388 C391 1.403 . S
H389 C395 0.930 . S
C390 H376 0.930 . S
C390 C388 1.395 . S
C390 C393 1.403 . S
C391 C388 1.403 . S
C391 C392 1.524 . S
C391 C395 1.400 . S
C392 H377 0.960 . S
C392 H378 0.960 . S
C392 H379 0.960 . S
C392 C391 1.524 . S
C393 C390 1.403 . S
C393 C394 1.392 . S
C393 C397 1.495 . S
C394 C393 1.392 . S
C394 C395 1.385 . S
C394 C396 1.478 . S
C395 H389 0.930 . S
C395 C391 1.400 . S
C395 C394 1.385 . S
C396 C394 1.478 . S
C396 C398 1.381 . S
C396 C402 1.383 . S
C397 C393 1.495 . S
C397 H403 0.959 . S
C397 H404 0.961 . S
C397 H405 0.960 . S
C398 C396 1.381 . S
C398 C399 1.394 . S
C398 H406 0.930 . S
C399 C398 1.394 . S
C399 C400 1.383 . S
C399 H407 0.929 . S
C400 C399 1.383 . S
C400 C401 1.377 . S
C401 H385 0.930 . S
C401 C400 1.377 . S
C401 C402 1.379 . S
C402 H386 0.931 . S
C402 C396 1.383 . S
C402 C401 1.379 . S
H403 C397 0.959 . S
H404 C397 0.961 . S
H405 C397 0.960 . S
H406 C398 0.930 . S
H407 C399 0.929 . S
H408 C416 0.929 . S
H409 C418 0.930 . S
H410 C420 0.930 . S
H411 C423 0.929 . S
H412 C426 0.930 . S
H413 C428 0.920 1_455 S
H414 C428 1.016 . S
H415 C428 0.959 . S
C416 H408 0.929 . S
C416 C417 1.377 . S
C416 C418 1.384 . S
C417 C416 1.377 . S
C417 C423 1.390 . S
C418 H409 0.930 . S
C418 C416 1.384 . S
C418 C419 1.372 . S
C419 C418 1.372 . S
C419 C420 1.400 . S
C419 C424 1.490 . S
C420 H410 0.930 . S
C420 C419 1.400 . S
C420 C423 1.386 . S
H421 C437 0.930 . S
H422 C438 0.931 . S
C423 H411 0.929 . S
C423 C417 1.390 . S
C423 C420 1.386 . S
C424 C419 1.490 . S
C424 C426 1.395 . S
C424 C427 1.403 . S
H425 C431 0.930 . S
C426 H412 0.930 . S
C426 C424 1.395 . S
C426 C429 1.432 . S
C427 C424 1.403 . S
C427 C428 1.513 . S
C427 C431 1.400 1_655 S
C428 H413 0.920 1_655 S
C428 H414 1.016 . S
C428 H415 0.959 . S
C428 C427 1.513 . S
C429 C426 1.432 . S
C429 C430 1.372 1_655 S
C429 C433 1.500 . S
C430 C429 1.372 1_455 S
C430 C431 1.385 . S
C430 C432 1.478 . S
C431 H425 0.930 . S
C431 C427 1.400 1_455 S
C431 C430 1.385 . S
C432 C430 1.478 . S
C432 C434 1.381 . S
C432 C438 1.383 . S
C433 C429 1.500 . S
C433 H439 0.999 . S
C433 H440 0.907 1_655 S
C433 H441 0.965 1_655 S
C434 C432 1.381 . S
C434 C435 1.394 . S
C434 H442 0.930 . S
C435 C434 1.394 . S
C435 C436 1.383 . S
C435 H443 0.929 . S
C436 C435 1.383 . S
C436 C437 1.377 . S
C437 H421 0.930 . S
C437 C436 1.377 . S
C437 C438 1.379 . S
C438 H422 0.931 . S
C438 C432 1.383 . S
C438 C437 1.379 . S
H439 C433 0.999 . S
H440 C433 0.907 1_455 S
H441 C433 0.965 1_455 S
H442 C434 0.930 . S
H443 C435 0.929 . S
H444 C452 0.929 . S
H445 C454 0.930 . S
H446 C456 0.930 . S
H447 C459 0.929 . S
H448 C462 0.930 . S
H449 C464 0.960 1_545 S
H450 C464 0.960 . S
H451 C464 0.960 . S
C452 H444 0.929 . S
C452 C453 1.377 . S
C452 C454 1.384 . S
C453 C452 1.377 . S
C453 C459 1.390 . S
C454 H445 0.930 . S
C454 C452 1.384 . S
C454 C455 1.372 . S
C455 C454 1.372 . S
C455 C456 1.400 . S
C455 C460 1.490 . S
C456 H446 0.930 . S
C456 C455 1.400 . S
C456 C459 1.386 . S
H457 C473 0.930 . S
H458 C474 0.931 . S
C459 H447 0.929 . S
C459 C453 1.390 . S
C459 C456 1.386 . S
C460 C455 1.490 . S
C460 C462 1.395 . S
C460 C463 1.403 . S
H461 C467 0.930 . S
C462 H448 0.930 . S
C462 C460 1.395 . S
C462 C465 1.403 1_565 S
C463 C460 1.403 . S
C463 C464 1.524 . S
C463 C467 1.400 1_565 S
C464 H449 0.960 1_565 S
C464 H450 0.960 . S
C464 H451 0.960 . S
C464 C463 1.524 . S
C465 C462 1.403 1_545 S
C465 C466 1.392 . S
C465 C469 1.495 . S
C466 C465 1.392 . S
C466 C467 1.385 . S
C466 C468 1.478 . S
C467 H461 0.930 . S
C467 C463 1.400 1_545 S
C467 C466 1.385 . S
C468 C466 1.478 . S
C468 C470 1.381 . S
C468 C474 1.383 . S
C469 C465 1.495 . S
C469 H475 0.959 1_545 S
C469 H476 0.961 . S
C469 H477 0.960 . S
C470 C468 1.381 . S
C470 C471 1.394 . S
C470 H478 0.930 . S
C471 C470 1.394 . S
C471 C472 1.383 . S
C471 H479 0.929 . S
C472 C471 1.383 . S
C472 C473 1.377 . S
C473 H457 0.930 . S
C473 C472 1.377 . S
C473 C474 1.379 . S
C474 H458 0.931 . S
C474 C468 1.383 . S
C474 C473 1.379 . S
H475 C469 0.959 1_565 S
H476 C469 0.961 . S
H477 C469 0.960 . S
H478 C470 0.930 . S
H479 C471 0.929 . S
H480 C488 0.929 . S
H481 C490 0.930 . S
H482 C492 0.930 . S
H483 C495 0.929 . S
H484 C498 0.930 . S
H485 C500 0.960 . S
H486 C500 0.960 . S
H487 C500 0.960 . S
C488 H480 0.929 . S
C488 C489 1.377 . S
C488 C490 1.384 . S
C489 C488 1.377 . S
C489 C495 1.390 . S
C490 H481 0.930 . S
C490 C488 1.384 . S
C490 C491 1.372 . S
C491 C490 1.372 . S
C491 C492 1.400 . S
C491 C496 1.490 . S
C492 H482 0.930 . S
C492 C491 1.400 . S
C492 C495 1.386 . S
H493 C509 0.930 . S
H494 C510 0.931 . S
C495 H483 0.929 . S
C495 C489 1.390 . S
C495 C492 1.386 . S
C496 C491 1.490 . S
C496 C498 1.395 . S
C496 C499 1.403 . S
H497 C503 0.930 . S
C498 H484 0.930 . S
C498 C496 1.395 . S
C498 C501 1.403 . S
C499 C496 1.403 . S
C499 C500 1.524 . S
C499 C503 1.400 . S
C500 H485 0.960 . S
C500 H486 0.960 . S
C500 H487 0.960 . S
C500 C499 1.524 . S
C501 C498 1.403 . S
C501 C502 1.392 . S
C501 C505 1.495 . S
C502 C501 1.392 . S
C502 C503 1.385 . S
C502 C504 1.478 . S
C503 H497 0.930 . S
C503 C499 1.400 . S
C503 C502 1.385 . S
C504 C502 1.478 . S
C504 C506 1.381 . S
C504 C510 1.383 . S
C505 C501 1.495 . S
C505 H511 0.959 . S
C505 H512 0.961 . S
C505 H513 0.960 . S
C506 C504 1.381 . S
C506 C507 1.394 . S
C506 H514 0.930 . S
C507 C506 1.394 . S
C507 C508 1.383 . S
C507 H515 0.929 . S
C508 C507 1.383 . S
C508 C509 1.377 . S
C509 H493 0.930 . S
C509 C508 1.377 . S
C509 C510 1.379 . S
C510 H494 0.931 . S
C510 C504 1.383 . S
C510 C509 1.379 . S
H511 C505 0.959 . S
H512 C505 0.961 . S
H513 C505 0.960 . S
H514 C506 0.930 . S
H515 C507 0.929 . S
H516 C524 0.929 . S
H517 C526 0.930 . S
H518 C528 0.930 . S
H519 C531 0.929 . S
H520 C534 0.930 . S
H521 C536 0.960 . S
H522 C536 0.960 . S
H523 C536 0.960 . S
C524 H516 0.929 . S
C524 C525 1.377 . S
C524 C526 1.384 . S
C525 C524 1.377 . S
C525 C531 1.390 . S
C526 H517 0.930 . S
C526 C524 1.384 . S
C526 C527 1.372 . S
C527 C526 1.372 . S
C527 C528 1.400 . S
C527 C532 1.490 . S
C528 H518 0.930 . S
C528 C527 1.400 . S
C528 C531 1.386 . S
H529 C545 0.930 . S
H530 C546 0.931 . S
C531 H519 0.929 . S
C531 C525 1.390 . S
C531 C528 1.386 . S
C532 C527 1.490 . S
C532 C534 1.395 . S
C532 C535 1.403 . S
H533 C539 0.930 . S
C534 H520 0.930 . S
C534 C532 1.395 . S
C534 C537 1.403 1_455 S
C535 C532 1.403 . S
C535 C536 1.524 . S
C535 C539 1.400 1_455 S
C536 H521 0.960 . S
C536 H522 0.960 . S
C536 H523 0.960 . S
C536 C535 1.524 . S
C537 C534 1.403 1_655 S
C537 C538 1.392 . S
C537 C541 1.495 . S
C538 C537 1.392 . S
C538 C539 1.385 . S
C538 C540 1.478 . S
C539 H533 0.930 . S
C539 C535 1.400 1_655 S
C539 C538 1.385 . S
C540 C538 1.478 . S
C540 C542 1.381 . S
C540 C546 1.383 . S
C541 C537 1.495 . S
C541 H547 0.959 . S
C541 H548 0.961 . S
C541 H549 0.960 . S
C542 C540 1.381 . S
C542 C543 1.394 . S
C542 H550 0.930 . S
C543 C542 1.394 . S
C543 C544 1.383 . S
C543 H551 0.929 . S
C544 C543 1.383 . S
C544 C545 1.377 . S
C545 H529 0.930 . S
C545 C544 1.377 . S
C545 C546 1.379 . S
C546 H530 0.931 . S
C546 C540 1.383 . S
C546 C545 1.379 . S
H547 C541 0.959 . S
H548 C541 0.961 . S
H549 C541 0.960 . S
H550 C542 0.930 . S
H551 C543 0.929 . S
H552 C560 0.929 . S
H553 C562 0.930 . S
H554 C564 0.930 . S
H555 C567 0.929 . S
H556 C570 0.930 . S
H557 C572 0.960 . S
H558 C572 0.960 1_565 S
H559 C572 0.960 1_565 S
C560 H552 0.929 . S
C560 C561 1.377 . S
C560 C562 1.384 . S
C561 C560 1.377 . S
C561 C567 1.390 . S
C562 H553 0.930 . S
C562 C560 1.384 . S
C562 C563 1.372 . S
C563 C562 1.372 . S
C563 C564 1.400 . S
C563 C568 1.490 . S
C564 H554 0.930 . S
C564 C563 1.400 . S
C564 C567 1.386 . S
H565 C581 0.930 . S
H566 C582 0.931 . S
C567 H555 0.929 . S
C567 C561 1.390 . S
C567 C564 1.386 . S
C568 C563 1.490 . S
C568 C570 1.395 . S
C568 C571 1.421 . S
H569 C575 0.930 . S
C570 H556 0.930 . S
C570 C568 1.395 . S
C570 C573 1.403 . S
C571 C568 1.421 . S
C571 C572 1.523 1_565 S
C571 C575 1.382 1_565 S
C572 H557 0.960 . S
C572 H558 0.960 1_545 S
C572 H559 0.960 1_545 S
C572 C571 1.523 1_545 S
C573 C570 1.403 . S
C573 C574 1.392 1_565 S
C573 C577 1.495 . S
C574 C573 1.392 1_545 S
C574 C575 1.385 . S
C574 C576 1.478 . S
C575 H569 0.930 . S
C575 C571 1.382 1_545 S
C575 C574 1.385 . S
C576 C574 1.478 . S
C576 C578 1.381 . S
C576 C582 1.383 . S
C577 C573 1.495 . S
C577 H583 0.959 . S
C577 H584 0.961 1_565 S
C577 H585 0.960 1_565 S
C578 C576 1.381 . S
C578 C579 1.394 . S
C578 H586 0.930 . S
C579 C578 1.394 . S
C579 C580 1.383 . S
C579 H587 0.929 . S
C580 C579 1.383 . S
C580 C581 1.377 . S
C581 H565 0.930 . S
C581 C580 1.377 . S
C581 C582 1.379 . S
C582 H566 0.931 . S
C582 C576 1.383 . S
C582 C581 1.379 . S
H583 C577 0.959 . S
H584 C577 0.961 1_545 S
H585 C577 0.960 1_545 S
H586 C578 0.930 . S
H587 C579 0.929 . S
H588 C596 0.929 . S
H589 C598 0.930 . S
H590 C600 0.930 . S
H591 C603 0.929 . S
H592 C606 0.930 . S
H593 C608 0.960 . S
H594 C608 0.960 . S
H595 C608 0.960 . S
C596 H588 0.929 . S
C596 C597 1.377 . S
C596 C598 1.384 . S
C597 C596 1.377 . S
C597 C603 1.390 . S
C598 H589 0.930 . S
C598 C596 1.384 . S
C598 C599 1.372 . S
C599 C598 1.372 . S
C599 C600 1.400 . S
C599 C604 1.490 . S
C600 H590 0.930 . S
C600 C599 1.400 . S
C600 C603 1.386 . S
H601 C617 0.930 . S
H602 C618 0.931 . S
C603 H591 0.929 . S
C603 C597 1.390 . S
C603 C600 1.386 . S
C604 C599 1.490 . S
C604 C606 1.395 . S
C604 C607 1.403 . S
H605 C611 0.930 . S
C606 H592 0.930 . S
C606 C604 1.395 . S
C606 C609 1.403 . S
C607 C604 1.403 . S
C607 C608 1.524 . S
C607 C611 1.400 . S
C608 H593 0.960 . S
C608 H594 0.960 . S
C608 H595 0.960 . S
C608 C607 1.524 . S
C609 C606 1.403 . S
C609 C610 1.392 . S
C609 C613 1.495 . S
C610 C609 1.392 . S
C610 C611 1.385 . S
C610 C612 1.478 . S
C611 H605 0.930 . S
C611 C607 1.400 . S
C611 C610 1.385 . S
C612 C610 1.478 . S
C612 C614 1.381 . S
C612 C618 1.383 . S
C613 C609 1.495 . S
C613 H619 0.959 . S
C613 H620 0.961 . S
C613 H621 0.960 . S
C614 C612 1.381 . S
C614 C615 1.394 . S
C614 H622 0.930 . S
C615 C614 1.394 . S
C615 C616 1.383 . S
C615 H623 0.929 . S
C616 C615 1.383 . S
C616 C617 1.377 . S
C617 H601 0.930 . S
C617 C616 1.377 . S
C617 C618 1.379 . S
C618 H602 0.931 . S
C618 C612 1.383 . S
C618 C617 1.379 . S
H619 C613 0.959 . S
H620 C613 0.961 . S
H621 C613 0.960 . S
H622 C614 0.930 . S
H623 C615 0.929 . S
H624 C632 0.929 . S
H625 C634 0.930 . S
H626 C636 0.930 . S
H627 C639 0.929 . S
H628 C642 0.930 . S
H629 C644 0.960 1_455 S
H630 C644 0.960 . S
H631 C644 0.960 . S
C632 H624 0.929 . S
C632 C633 1.377 . S
C632 C634 1.384 . S
C633 C632 1.377 . S
C633 C639 1.390 . S
C634 H625 0.930 . S
C634 C632 1.384 . S
C634 C635 1.372 . S
C635 C634 1.372 . S
C635 C636 1.400 . S
C635 C640 1.490 . S
C636 H626 0.930 . S
C636 C635 1.400 . S
C636 C639 1.386 . S
H637 C653 0.930 . S
H638 C654 0.931 . S
C639 H627 0.929 . S
C639 C633 1.390 . S
C639 C636 1.386 . S
C640 C635 1.490 . S
C640 C642 1.395 . S
C640 C643 1.403 . S
H641 C647 0.930 . S
C642 H628 0.930 . S
C642 C640 1.395 . S
C642 C645 1.403 1_655 S
C643 C640 1.403 . S
C643 C644 1.524 . S
C643 C647 1.400 1_655 S
C644 H629 0.960 1_655 S
C644 H630 0.960 . S
C644 H631 0.960 . S
C644 C643 1.524 . S
C645 C642 1.403 1_455 S
C645 C646 1.392 . S
C645 C649 1.495 . S
C646 C645 1.392 . S
C646 C647 1.385 . S
C646 C648 1.478 . S
C647 H641 0.930 . S
C647 C643 1.400 1_455 S
C647 C646 1.385 . S
C648 C646 1.478 . S
C648 C650 1.381 . S
C648 C654 1.383 . S
C649 C645 1.495 . S
C649 H655 0.959 1_455 S
C649 H656 0.961 . S
C649 H657 0.960 . S
C650 C648 1.381 . S
C650 C651 1.394 . S
C650 H658 0.930 . S
C651 C650 1.394 . S
C651 C652 1.383 . S
C651 H659 0.929 . S
C652 C651 1.383 . S
C652 C653 1.377 . S
C653 H637 0.930 . S
C653 C652 1.377 . S
C653 C654 1.379 . S
C654 H638 0.931 . S
C654 C648 1.383 . S
C654 C653 1.379 . S
H655 C649 0.959 1_655 S
H656 C649 0.961 . S
H657 C649 0.960 . S
H658 C650 0.930 . S
H659 C651 0.929 . S
H660 C668 0.929 . S
H661 C670 0.930 . S
H662 C672 0.930 . S
H663 C675 0.929 . S
H664 C678 0.930 . S
H665 C680 0.960 1_565 S
H666 C680 0.960 . S
H667 C680 0.960 . S
C668 H660 0.929 . S
C668 C669 1.377 . S
C668 C670 1.384 . S
C669 C668 1.377 . S
C669 C675 1.390 . S
C670 H661 0.930 . S
C670 C668 1.384 . S
C670 C671 1.372 . S
C671 C670 1.372 . S
C671 C672 1.400 . S
C671 C676 1.490 . S
C672 H662 0.930 . S
C672 C671 1.400 . S
C672 C675 1.386 . S
H673 C689 0.930 . S
H674 C690 0.931 . S
C675 H663 0.929 . S
C675 C669 1.390 . S
C675 C672 1.386 . S
C676 C671 1.490 . S
C676 C678 1.395 . S
C676 C679 1.403 . S
H677 C683 0.930 . S
C678 H664 0.930 . S
C678 C676 1.395 . S
C678 C681 1.403 1_545 S
C679 C676 1.403 . S
C679 C680 1.524 . S
C679 C683 1.400 1_545 S
C680 H665 0.960 1_545 S
C680 H666 0.960 . S
C680 H667 0.960 . S
C680 C679 1.524 . S
C681 C678 1.403 1_565 S
C681 C682 1.392 . S
C681 C685 1.495 . S
C682 C681 1.392 . S
C682 C683 1.385 . S
C682 C684 1.478 . S
C683 H677 0.930 . S
C683 C679 1.400 1_565 S
C683 C682 1.385 . S
C684 C682 1.478 . S
C684 C686 1.381 . S
C684 C690 1.383 . S
C685 C681 1.495 . S
C685 H691 0.959 1_565 S
C685 H692 0.961 . S
C685 H693 0.960 . S
C686 C684 1.381 . S
C686 C687 1.394 . S
C686 H694 0.930 . S
C687 C686 1.394 . S
C687 C688 1.383 . S
C687 H695 0.929 . S
C688 C687 1.383 . S
C688 C689 1.377 . S
C689 H673 0.930 . S
C689 C688 1.377 . S
C689 C690 1.379 . S
C690 H674 0.931 . S
C690 C684 1.383 . S
C690 C689 1.379 . S
H691 C685 0.959 1_545 S
H692 C685 0.961 . S
H693 C685 0.960 . S
H694 C686 0.930 . S
H695 C687 0.929 . S
H696 C704 0.929 . S
H697 C706 0.930 . S
H698 C708 0.930 . S
H699 C711 0.929 . S
H700 C714 0.930 . S
H701 C716 0.960 . S
H702 C716 0.960 . S
H703 C716 0.960 . S
C704 H696 0.929 . S
C704 C705 1.377 . S
C704 C706 1.384 . S
C705 C704 1.377 . S
C705 C711 1.390 . S
C706 H697 0.930 . S
C706 C704 1.384 . S
C706 C707 1.372 . S
C707 C706 1.372 . S
C707 C708 1.400 . S
C707 C712 1.490 . S
C708 H698 0.930 . S
C708 C707 1.400 . S
C708 C711 1.386 . S
H709 C725 0.930 . S
H710 C726 0.931 . S
C711 H699 0.929 . S
C711 C705 1.390 . S
C711 C708 1.386 . S
C712 C707 1.490 . S
C712 C714 1.395 . S
C712 C715 1.403 . S
H713 C719 0.930 . S
C714 H700 0.930 . S
C714 C712 1.395 . S
C714 C717 1.403 . S
C715 C712 1.403 . S
C715 C716 1.524 . S
C715 C719 1.400 . S
C716 H701 0.960 . S
C716 H702 0.960 . S
C716 H703 0.960 . S
C716 C715 1.524 . S
C717 C714 1.403 . S
C717 C718 1.392 . S
C717 C721 1.495 . S
C718 C717 1.392 . S
C718 C719 1.385 . S
C718 C720 1.478 . S
C719 H713 0.930 . S
C719 C715 1.400 . S
C719 C718 1.385 . S
C720 C718 1.478 . S
C720 C722 1.381 . S
C720 C726 1.383 . S
C721 C717 1.495 . S
C721 H727 0.959 . S
C721 H728 0.961 . S
C721 H729 0.960 . S
C722 C720 1.381 . S
C722 C723 1.394 . S
C722 H730 0.930 . S
C723 C722 1.394 . S
C723 C724 1.383 . S
C723 H731 0.929 . S
C724 C723 1.383 . S
C724 C725 1.377 . S
C725 H709 0.930 . S
C725 C724 1.377 . S
C725 C726 1.379 . S
C726 H710 0.931 . S
C726 C720 1.383 . S
C726 C725 1.379 . S
H727 C721 0.959 . S
H728 C721 0.961 . S
H729 C721 0.960 . S
H730 C722 0.930 . S
H731 C723 0.929 . S
H732 C740 0.929 . S
H733 C742 0.930 . S
H734 C744 0.930 . S
H735 C747 0.929 . S
H736 C750 0.930 . S
H737 C752 0.960 . S
H738 C752 0.960 . S
H739 C752 0.960 . S
C740 H732 0.929 . S
C740 C741 1.377 . S
C740 C742 1.384 . S
C741 C740 1.377 . S
C741 C747 1.390 . S
C742 H733 0.930 . S
C742 C740 1.384 . S
C742 C743 1.372 . S
C743 C742 1.372 . S
C743 C744 1.400 . S
C743 C748 1.490 . S
C744 H734 0.930 . S
C744 C743 1.400 . S
C744 C747 1.386 . S
H745 C761 0.930 . S
H746 C762 0.931 . S
C747 H735 0.929 . S
C747 C741 1.390 . S
C747 C744 1.386 . S
C748 C743 1.490 . S
C748 C750 1.395 . S
C748 C751 1.403 . S
H749 C755 0.930 . S
C750 H736 0.930 . S
C750 C748 1.395 . S
C750 C753 1.403 1_455 S
C751 C748 1.403 . S
C751 C752 1.524 . S
C751 C755 1.400 1_455 S
C752 H737 0.960 . S
C752 H738 0.960 . S
C752 H739 0.960 . S
C752 C751 1.524 . S
C753 C750 1.403 1_655 S
C753 C754 1.392 . S
C753 C757 1.495 . S
C754 C753 1.392 . S
C754 C755 1.385 . S
C754 C756 1.478 . S
C755 H749 0.930 . S
C755 C751 1.400 1_655 S
C755 C754 1.385 . S
C756 C754 1.478 . S
C756 C758 1.381 . S
C756 C762 1.383 . S
C757 C753 1.495 . S
C757 H763 0.959 . S
C757 H764 0.961 . S
C757 H765 0.960 . S
C758 C756 1.381 . S
C758 C759 1.394 . S
C758 H766 0.930 . S
C759 C758 1.394 . S
C759 C760 1.383 . S
C759 H767 0.929 . S
C760 C759 1.383 . S
C760 C761 1.377 . S
C761 H745 0.930 . S
C761 C760 1.377 . S
C761 C762 1.379 . S
C762 H746 0.931 . S
C762 C756 1.383 . S
C762 C761 1.379 . S
H763 C757 0.959 . S
H764 C757 0.961 . S
H765 C757 0.960 . S
H766 C758 0.930 . S
H767 C759 0.929 . S
H768 C776 0.929 . S
H769 C778 0.930 . S
H770 C780 0.930 . S
H771 C783 0.929 . S
H772 C786 0.930 . S
H773 C788 0.960 . S
H774 C788 0.960 . S
H775 C788 0.960 . S
C776 H768 0.929 . S
C776 C777 1.377 . S
C776 C778 1.384 . S
C777 C776 1.377 . S
C777 C783 1.390 . S
C778 H769 0.930 . S
C778 C776 1.384 . S
C778 C779 1.372 . S
C779 C778 1.372 . S
C779 C780 1.400 . S
C779 C784 1.490 . S
C780 H770 0.930 . S
C780 C779 1.400 . S
C780 C783 1.386 . S
H781 C797 0.930 . S
H782 C798 0.931 . S
C783 H771 0.929 . S
C783 C777 1.390 . S
C783 C780 1.386 . S
C784 C779 1.490 . S
C784 C786 1.395 . S
C784 C787 1.403 . S
H785 C791 0.930 . S
C786 H772 0.930 . S
C786 C784 1.395 . S
C786 C789 1.403 . S
C787 C784 1.403 . S
C787 C788 1.524 . S
C787 C791 1.400 . S
C788 H773 0.960 . S
C788 H774 0.960 . S
C788 H775 0.960 . S
C788 C787 1.524 . S
C789 C786 1.403 . S
C789 C790 1.392 . S
C789 C793 1.495 . S
C790 C789 1.392 . S
C790 C791 1.385 . S
C790 C792 1.478 . S
C791 H785 0.930 . S
C791 C787 1.400 . S
C791 C790 1.385 . S
C792 C790 1.478 . S
C792 C794 1.381 . S
C792 C798 1.383 . S
C793 C789 1.495 . S
C793 H799 0.959 . S
C793 H800 0.961 . S
C793 H801 0.960 . S
C794 C792 1.381 . S
C794 C795 1.394 . S
C794 H802 0.930 . S
C795 C794 1.394 . S
C795 C796 1.383 . S
C795 H803 0.929 . S
C796 C795 1.383 . S
C796 C797 1.377 . S
C797 H781 0.930 . S
C797 C796 1.377 . S
C797 C798 1.379 . S
C798 H782 0.931 . S
C798 C792 1.383 . S
C798 C797 1.379 . S
H799 C793 0.959 . S
H800 C793 0.961 . S
H801 C793 0.960 . S
H802 C794 0.930 . S
H803 C795 0.929 . S
H804 C812 0.929 . S
H805 C814 0.930 . S
H806 C816 0.930 . S
H807 C819 0.929 . S
H808 C822 0.930 . S
H809 C824 0.960 . S
H810 C824 0.960 . S
H811 C824 0.960 . S
C812 H804 0.929 . S
C812 C813 1.377 . S
C812 C814 1.384 . S
C813 C812 1.377 . S
C813 C819 1.390 . S
C814 H805 0.930 . S
C814 C812 1.384 . S
C814 C815 1.372 . S
C815 C814 1.372 . S
C815 C816 1.400 . S
C815 C820 1.490 . S
C816 H806 0.930 . S
C816 C815 1.400 . S
C816 C819 1.386 . S
H817 C833 0.930 . S
H818 C834 0.931 . S
C819 H807 0.929 . S
C819 C813 1.390 . S
C819 C816 1.386 . S
C820 C815 1.490 . S
C820 C822 1.395 . S
C820 C823 1.403 . S
H821 C827 0.930 . S
C822 H808 0.930 . S
C822 C820 1.395 . S
C822 C825 1.403 . S
C823 C820 1.403 . S
C823 C824 1.524 . S
C823 C827 1.400 . S
C824 H809 0.960 . S
C824 H810 0.960 . S
C824 H811 0.960 . S
C824 C823 1.524 . S
C825 C822 1.403 . S
C825 C826 1.392 . S
C825 C829 1.495 . S
C826 C825 1.392 . S
C826 C827 1.385 . S
C826 C828 1.478 . S
C827 H821 0.930 . S
C827 C823 1.400 . S
C827 C826 1.385 . S
C828 C826 1.478 . S
C828 C830 1.381 . S
C828 C834 1.383 . S
C829 C825 1.495 . S
C829 H835 0.959 . S
C829 H836 0.961 . S
C829 H837 0.960 . S
C830 C828 1.381 . S
C830 C831 1.394 . S
C830 H838 0.930 . S
C831 C830 1.394 . S
C831 C832 1.383 . S
C831 H839 0.929 . S
C832 C831 1.383 . S
C832 C833 1.377 . S
C833 H817 0.930 . S
C833 C832 1.377 . S
C833 C834 1.379 . S
C834 H818 0.931 . S
C834 C828 1.383 . S
C834 C833 1.379 . S
H835 C829 0.959 . S
H836 C829 0.961 . S
H837 C829 0.960 . S
H838 C830 0.930 . S
H839 C831 0.929 . S
H840 C848 0.929 . S
H841 C850 0.930 . S
H842 C852 0.930 . S
H843 C855 0.929 . S
H844 C858 0.930 . S
H845 C860 0.960 . S
H846 C860 0.960 . S
H847 C860 0.960 . S
C848 H840 0.929 . S
C848 C849 1.377 . S
C848 C850 1.384 . S
C849 C848 1.377 . S
C849 C855 1.390 . S
C850 H841 0.930 . S
C850 C848 1.384 . S
C850 C851 1.372 . S
C851 C850 1.372 . S
C851 C852 1.400 . S
C851 C856 1.490 . S
C852 H842 0.930 . S
C852 C851 1.400 . S
C852 C855 1.386 . S
H853 C869 0.930 . S
H854 C870 0.931 . S
C855 H843 0.929 . S
C855 C849 1.390 . S
C855 C852 1.386 . S
C856 C851 1.490 . S
C856 C858 1.395 . S
C856 C859 1.403 . S
H857 C863 0.930 . S
C858 H844 0.930 . S
C858 C856 1.395 . S
C858 C861 1.403 . S
C859 C856 1.403 . S
C859 C860 1.524 . S
C859 C863 1.400 . S
C860 H845 0.960 . S
C860 H846 0.960 . S
C860 H847 0.960 . S
C860 C859 1.524 . S
C861 C858 1.403 . S
C861 C862 1.392 . S
C861 C865 1.495 . S
C862 C861 1.392 . S
C862 C863 1.385 . S
C862 C864 1.478 . S
C863 H857 0.930 . S
C863 C859 1.400 . S
C863 C862 1.385 . S
C864 C862 1.478 . S
C864 C866 1.381 . S
C864 C870 1.383 . S
C865 C861 1.495 . S
C865 H871 0.959 . S
C865 H872 0.961 . S
C865 H873 0.960 . S
C866 C864 1.381 . S
C866 C867 1.394 . S
C866 H874 0.930 . S
C867 C866 1.394 . S
C867 C868 1.383 . S
C867 H875 0.929 . S
C868 C867 1.383 . S
C868 C869 1.377 . S
C869 H853 0.930 . S
C869 C868 1.377 . S
C869 C870 1.379 . S
C870 H854 0.931 . S
C870 C864 1.383 . S
C870 C869 1.379 . S
H871 C865 0.959 . S
H872 C865 0.961 . S
H873 C865 0.960 . S
H874 C866 0.930 . S
H875 C867 0.929 . S
H876 C884 0.929 . S
H877 C886 0.930 . S
H878 C888 0.930 . S
H879 C891 0.929 . S
H880 C894 0.930 . S
H881 C896 0.960 . S
H882 C896 0.960 . S
H883 C896 0.960 . S
C884 H876 0.929 . S
C884 C885 1.377 . S
C884 C886 1.384 . S
C885 C884 1.377 . S
C885 C891 1.390 . S
C886 H877 0.930 . S
C886 C884 1.384 . S
C886 C887 1.372 . S
C887 C886 1.372 . S
C887 C888 1.400 . S
C887 C892 1.490 . S
C888 H878 0.930 . S
C888 C887 1.400 . S
C888 C891 1.386 . S
H889 C905 0.930 . S
H890 C906 0.931 . S
C891 H879 0.929 . S
C891 C885 1.390 . S
C891 C888 1.386 . S
C892 C887 1.490 . S
C892 C894 1.395 . S
C892 C895 1.403 . S
H893 C899 0.930 . S
C894 H880 0.930 . S
C894 C892 1.395 . S
C894 C897 1.403 . S
C895 C892 1.403 . S
C895 C896 1.524 . S
C895 C899 1.400 . S
C896 H881 0.960 . S
C896 H882 0.960 . S
C896 H883 0.960 . S
C896 C895 1.524 . S
C897 C894 1.403 . S
C897 C898 1.392 . S
C897 C901 1.495 . S
C898 C897 1.392 . S
C898 C899 1.385 . S
C898 C900 1.478 . S
C899 H893 0.930 . S
C899 C895 1.400 . S
C899 C898 1.385 . S
C900 C898 1.478 . S
C900 C902 1.381 . S
C900 C906 1.383 . S
C901 C897 1.495 . S
C901 H907 0.959 . S
C901 H908 0.961 . S
C901 H909 0.960 . S
C902 C900 1.381 . S
C902 C903 1.394 . S
C902 H910 0.930 . S
C903 C902 1.394 . S
C903 C904 1.383 . S
C903 H911 0.929 . S
C904 C903 1.383 . S
C904 C905 1.377 . S
C905 H889 0.930 . S
C905 C904 1.377 . S
C905 C906 1.379 . S
C906 H890 0.931 . S
C906 C900 1.383 . S
C906 C905 1.379 . S
H907 C901 0.959 . S
H908 C901 0.961 . S
H909 C901 0.960 . S
H910 C902 0.930 . S
H911 C903 0.929 . S
H912 C920 0.929 . S
H913 C922 0.930 . S
H914 C924 0.930 . S
H915 C927 0.929 . S
H916 C930 0.930 . S
H917 C932 0.960 . S
H918 C932 0.960 . S
H919 C932 0.960 . S
C920 H912 0.929 . S
C920 C921 1.377 . S
C920 C922 1.384 . S
C921 C920 1.377 . S
C921 C927 1.390 . S
C922 H913 0.930 . S
C922 C920 1.384 . S
C922 C923 1.372 . S
C923 C922 1.372 . S
C923 C924 1.400 . S
C923 C928 1.490 . S
C924 H914 0.930 . S
C924 C923 1.400 . S
C924 C927 1.386 . S
H925 C941 0.930 . S
H926 C942 0.931 . S
C927 H915 0.929 . S
C927 C921 1.390 . S
C927 C924 1.386 . S
C928 C923 1.490 . S
C928 C930 1.395 . S
C928 C931 1.403 . S
H929 C935 0.930 . S
C930 H916 0.930 . S
C930 C928 1.395 . S
C930 C933 1.403 . S
C931 C928 1.403 . S
C931 C932 1.524 . S
C931 C935 1.400 . S
C932 H917 0.960 . S
C932 H918 0.960 . S
C932 H919 0.960 . S
C932 C931 1.524 . S
C933 C930 1.403 . S
C933 C934 1.392 . S
C933 C937 1.495 . S
C934 C933 1.392 . S
C934 C935 1.385 . S
C934 C936 1.478 . S
C935 H929 0.930 . S
C935 C931 1.400 . S
C935 C934 1.385 . S
C936 C934 1.478 . S
C936 C938 1.381 . S
C936 C942 1.383 . S
C937 C933 1.495 . S
C937 H943 0.959 . S
C937 H944 0.961 . S
C937 H945 0.960 . S
C938 C936 1.381 . S
C938 C939 1.394 . S
C938 H946 0.930 . S
C939 C938 1.394 . S
C939 C940 1.383 . S
C939 H947 0.929 . S
C940 C939 1.383 . S
C940 C941 1.377 . S
C941 H925 0.930 . S
C941 C940 1.377 . S
C941 C942 1.379 . S
C942 H926 0.931 . S
C942 C936 1.383 . S
C942 C941 1.379 . S
H943 C937 0.959 . S
H944 C937 0.961 . S
H945 C937 0.960 . S
H946 C938 0.930 . S
H947 C939 0.929 . S
H948 C956 0.929 . S
H949 C958 0.930 . S
H950 C960 0.930 . S
H951 C963 0.929 . S
H952 C966 0.930 . S
H953 C968 0.960 . S
H954 C968 0.960 . S
H955 C968 0.960 . S
C956 H948 0.929 . S
C956 C957 1.377 . S
C956 C958 1.384 . S
C957 C956 1.377 . S
C957 C963 1.390 . S
C958 H949 0.930 . S
C958 C956 1.384 . S
C958 C959 1.372 . S
C959 C958 1.372 . S
C959 C960 1.400 . S
C959 C964 1.490 . S
C960 H950 0.930 . S
C960 C959 1.400 . S
C960 C963 1.386 . S
H961 C977 0.930 . S
H962 C978 0.931 . S
C963 H951 0.929 . S
C963 C957 1.390 . S
C963 C960 1.386 . S
C964 C959 1.490 . S
C964 C966 1.395 . S
C964 C967 1.403 . S
H965 C971 0.930 . S
C966 H952 0.930 . S
C966 C964 1.395 . S
C966 C969 1.403 . S
C967 C964 1.403 . S
C967 C968 1.524 . S
C967 C971 1.400 . S
C968 H953 0.960 . S
C968 H954 0.960 . S
C968 H955 0.960 . S
C968 C967 1.524 . S
C969 C966 1.403 . S
C969 C970 1.392 . S
C969 C973 1.495 . S
C970 C969 1.392 . S
C970 C971 1.385 . S
C970 C972 1.478 . S
C971 H965 0.930 . S
C971 C967 1.400 . S
C971 C970 1.385 . S
C972 C970 1.478 . S
C972 C974 1.381 . S
C972 C978 1.383 . S
C973 C969 1.495 . S
C973 H979 0.959 . S
C973 H980 0.961 . S
C973 H981 0.960 . S
C974 C972 1.381 . S
C974 C975 1.394 . S
C974 H982 0.930 . S
C975 C974 1.394 . S
C975 C976 1.383 . S
C975 H983 0.929 . S
C976 C975 1.383 . S
C976 C977 1.377 . S
C977 H961 0.930 . S
C977 C976 1.377 . S
C977 C978 1.379 . S
C978 H962 0.931 . S
C978 C972 1.383 . S
C978 C977 1.379 . S
H979 C973 0.959 . S
H980 C973 0.961 . S
H981 C973 0.960 . S
H982 C974 0.930 . S
H983 C975 0.929 . S
H984 C992 0.929 . S
H985 C994 0.930 . S
H986 C996 0.930 . S
H987 C999 0.929 . S
H988 C1002 0.930 . S
H989 C1004 0.960 . S
H990 C1004 0.960 . S
H991 C1004 0.960 . S
C992 H984 0.929 . S
C992 C993 1.377 . S
C992 C994 1.384 . S
C993 C992 1.377 . S
C993 C999 1.390 . S
C994 H985 0.930 . S
C994 C992 1.384 . S
C994 C995 1.372 . S
C995 C994 1.372 . S
C995 C996 1.400 . S
C995 C1000 1.490 . S
C996 H986 0.930 . S
C996 C995 1.400 . S
C996 C999 1.386 . S
H997 C1013 0.930 . S
H998 C1014 0.931 . S
C999 H987 0.929 . S
C999 C993 1.390 . S
C999 C996 1.386 . S
C1000 C995 1.490 . S
C1000 C1002 1.395 . S
C1000 C1003 1.403 . S
H1001 C1007 0.930 . S
C1002 H988 0.930 . S
C1002 C1000 1.395 . S
C1002 C1005 1.403 . S
C1003 C1000 1.403 . S
C1003 C1004 1.524 . S
C1003 C1007 1.400 . S
C1004 H989 0.960 . S
C1004 H990 0.960 . S
C1004 H991 0.960 . S
C1004 C1003 1.524 . S
C1005 C1002 1.403 . S
C1005 C1006 1.392 . S
C1005 C1009 1.495 . S
C1006 C1005 1.392 . S
C1006 C1007 1.385 . S
C1006 C1008 1.478 . S
C1007 H1001 0.930 . S
C1007 C1003 1.400 . S
C1007 C1006 1.385 . S
C1008 C1006 1.478 . S
C1008 C1010 1.381 . S
C1008 C1014 1.383 . S
C1009 C1005 1.495 . S
C1009 H1015 0.959 . S
C1009 H1016 0.961 . S
C1009 H1017 0.960 . S
C1010 C1008 1.381 . S
C1010 C1011 1.394 . S
C1010 H1018 0.930 . S
C1011 C1010 1.394 . S
C1011 C1012 1.383 . S
C1011 H1019 0.929 . S
C1012 C1011 1.383 . S
C1012 C1013 1.377 . S
C1013 H997 0.930 . S
C1013 C1012 1.377 . S
C1013 C1014 1.379 . S
C1014 H998 0.931 . S
C1014 C1008 1.383 . S
C1014 C1013 1.379 . S
H1015 C1009 0.959 . S
H1016 C1009 0.961 . S
H1017 C1009 0.960 . S
H1018 C1010 0.930 . S
H1019 C1011 0.929 . S
H1020 C1028 0.929 . S
H1021 C1030 0.930 . S
H1022 C1032 0.930 . S
H1023 C1035 0.929 . S
H1024 C1038 0.930 . S
H1025 C1040 0.960 . S
H1026 C1040 0.960 . S
H1027 C1040 0.960 . S
C1028 H1020 0.929 . S
C1028 C1029 1.377 . S
C1028 C1030 1.384 . S
C1029 C1028 1.377 . S
C1029 C1035 1.390 . S
C1030 H1021 0.930 . S
C1030 C1028 1.384 . S
C1030 C1031 1.372 . S
C1031 C1030 1.372 . S
C1031 C1032 1.400 . S
C1031 C1036 1.490 . S
C1032 H1022 0.930 . S
C1032 C1031 1.400 . S
C1032 C1035 1.386 . S
H1033 C1049 0.930 . S
H1034 C1050 0.931 . S
C1035 H1023 0.929 . S
C1035 C1029 1.390 . S
C1035 C1032 1.386 . S
C1036 C1031 1.490 . S
C1036 C1038 1.395 . S
C1036 C1039 1.403 . S
H1037 C1043 0.930 . S
C1038 H1024 0.930 . S
C1038 C1036 1.395 . S
C1038 C1041 1.403 . S
C1039 C1036 1.403 . S
C1039 C1040 1.524 . S
C1039 C1043 1.400 . S
C1040 H1025 0.960 . S
C1040 H1026 0.960 . S
C1040 H1027 0.960 . S
C1040 C1039 1.524 . S
C1041 C1038 1.403 . S
C1041 C1042 1.392 . S
C1041 C1045 1.495 . S
C1042 C1041 1.392 . S
C1042 C1043 1.385 . S
C1042 C1044 1.478 . S
C1043 H1037 0.930 . S
C1043 C1039 1.400 . S
C1043 C1042 1.385 . S
C1044 C1042 1.478 . S
C1044 C1046 1.381 . S
C1044 C1050 1.383 . S
C1045 C1041 1.495 . S
C1045 H1051 0.959 . S
C1045 H1052 0.961 . S
C1045 H1053 0.960 . S
C1046 C1044 1.381 . S
C1046 C1047 1.394 . S
C1046 H1054 0.930 . S
C1047 C1046 1.394 . S
C1047 C1048 1.383 . S
C1047 H1055 0.929 . S
C1048 C1047 1.383 . S
C1048 C1049 1.377 . S
C1049 H1033 0.930 . S
C1049 C1048 1.377 . S
C1049 C1050 1.379 . S
C1050 H1034 0.931 . S
C1050 C1044 1.383 . S
C1050 C1049 1.379 . S
H1051 C1045 0.959 . S
H1052 C1045 0.961 . S
H1053 C1045 0.960 . S
H1054 C1046 0.930 . S
H1055 C1047 0.929 . S
H1056 C1064 0.929 . S
H1057 C1066 0.930 . S
H1058 C1068 0.930 . S
H1059 C1071 0.929 . S
H1060 C1074 0.930 . S
H1061 C1076 0.960 . S
H1062 C1076 0.960 . S
H1063 C1076 0.960 . S
C1064 H1056 0.929 . S
C1064 C1065 1.377 . S
C1064 C1066 1.384 . S
C1065 C1064 1.377 . S
C1065 C1071 1.390 . S
C1066 H1057 0.930 . S
C1066 C1064 1.384 . S
C1066 C1067 1.372 . S
C1067 C1066 1.372 . S
C1067 C1068 1.400 . S
C1067 C1072 1.490 . S
C1068 H1058 0.930 . S
C1068 C1067 1.400 . S
C1068 C1071 1.386 . S
H1069 C1085 0.930 . S
H1070 C1086 0.931 . S
C1071 H1059 0.929 . S
C1071 C1065 1.390 . S
C1071 C1068 1.386 . S
C1072 C1067 1.490 . S
C1072 C1074 1.395 . S
C1072 C1075 1.403 . S
H1073 C1079 0.930 . S
C1074 H1060 0.930 . S
C1074 C1072 1.395 . S
C1074 C1077 1.403 . S
C1075 C1072 1.403 . S
C1075 C1076 1.524 . S
C1075 C1079 1.400 . S
C1076 H1061 0.960 . S
C1076 H1062 0.960 . S
C1076 H1063 0.960 . S
C1076 C1075 1.524 . S
C1077 C1074 1.403 . S
C1077 C1078 1.392 . S
C1077 C1081 1.495 . S
C1078 C1077 1.392 . S
C1078 C1079 1.385 . S
C1078 C1080 1.478 . S
C1079 H1073 0.930 . S
C1079 C1075 1.400 . S
C1079 C1078 1.385 . S
C1080 C1078 1.478 . S
C1080 C1082 1.381 . S
C1080 C1086 1.383 . S
C1081 C1077 1.495 . S
C1081 H1087 0.959 . S
C1081 H1088 0.961 . S
C1081 H1089 0.960 . S
C1082 C1080 1.381 . S
C1082 C1083 1.394 . S
C1082 H1090 0.930 . S
C1083 C1082 1.394 . S
C1083 C1084 1.383 . S
C1083 H1091 0.929 . S
C1084 C1083 1.383 . S
C1084 C1085 1.377 . S
C1085 H1069 0.930 . S
C1085 C1084 1.377 . S
C1085 C1086 1.379 . S
C1086 H1070 0.931 . S
C1086 C1080 1.383 . S
C1086 C1085 1.379 . S
H1087 C1081 0.959 . S
H1088 C1081 0.961 . S
H1089 C1081 0.960 . S
H1090 C1082 0.930 . S
H1091 C1083 0.929 . S
H1092 C1100 0.929 . S
H1093 C1102 0.930 . S
H1094 C1104 0.930 . S
H1095 C1107 0.929 . S
H1096 C1110 0.930 . S
H1097 C1112 0.960 . S
H1098 C1112 0.960 . S
H1099 C1112 0.960 . S
C1100 H1092 0.929 . S
C1100 C1101 1.377 . S
C1100 C1102 1.384 . S
C1101 C1100 1.377 . S
C1101 C1107 1.390 . S
C1102 H1093 0.930 . S
C1102 C1100 1.384 . S
C1102 C1103 1.372 . S
C1103 C1102 1.372 . S
C1103 C1104 1.400 . S
C1103 C1108 1.490 . S
C1104 H1094 0.930 . S
C1104 C1103 1.400 . S
C1104 C1107 1.386 . S
H1105 C1121 0.930 . S
H1106 C1122 0.931 . S
C1107 H1095 0.929 . S
C1107 C1101 1.390 . S
C1107 C1104 1.386 . S
C1108 C1103 1.490 . S
C1108 C1110 1.395 . S
C1108 C1111 1.403 . S
H1109 C1115 0.930 . S
C1110 H1096 0.930 . S
C1110 C1108 1.395 . S
C1110 C1113 1.403 . S
C1111 C1108 1.403 . S
C1111 C1112 1.524 . S
C1111 C1115 1.400 . S
C1112 H1097 0.960 . S
C1112 H1098 0.960 . S
C1112 H1099 0.960 . S
C1112 C1111 1.524 . S
C1113 C1110 1.403 . S
C1113 C1114 1.392 . S
C1113 C1117 1.495 . S
C1114 C1113 1.392 . S
C1114 C1115 1.385 . S
C1114 C1116 1.478 . S
C1115 H1109 0.930 . S
C1115 C1111 1.400 . S
C1115 C1114 1.385 . S
C1116 C1114 1.478 . S
C1116 C1118 1.381 . S
C1116 C1122 1.383 . S
C1117 C1113 1.495 . S
C1117 H1123 0.959 . S
C1117 H1124 0.961 . S
C1117 H1125 0.960 . S
C1118 C1116 1.381 . S
C1118 C1119 1.394 . S
C1118 H1126 0.930 . S
C1119 C1118 1.394 . S
C1119 C1120 1.383 . S
C1119 H1127 0.929 . S
C1120 C1119 1.383 . S
C1120 C1121 1.377 . S
C1121 H1105 0.930 . S
C1121 C1120 1.377 . S
C1121 C1122 1.379 . S
C1122 H1106 0.931 . S
C1122 C1116 1.383 . S
C1122 C1121 1.379 . S
H1123 C1117 0.959 . S
H1124 C1117 0.961 . S
H1125 C1117 0.960 . S
H1126 C1118 0.930 . S
H1127 C1119 0.929 . S
H1128 C1136 0.929 . S
H1129 C1138 0.930 . S
H1130 C1140 0.930 . S
H1131 C1143 0.929 . S
H1132 C1146 0.930 . S
H1133 C1148 0.960 . S
H1134 C1148 0.960 . S
H1135 C1148 0.960 . S
C1136 H1128 0.929 . S
C1136 C1137 1.377 . S
C1136 C1138 1.384 . S
C1137 C1136 1.377 . S
C1137 C1143 1.390 . S
C1138 H1129 0.930 . S
C1138 C1136 1.384 . S
C1138 C1139 1.372 . S
C1139 C1138 1.372 . S
C1139 C1140 1.400 . S
C1139 C1144 1.490 . S
C1140 H1130 0.930 . S
C1140 C1139 1.400 . S
C1140 C1143 1.386 . S
H1141 C1157 0.930 . S
H1142 C1158 0.931 . S
C1143 H1131 0.929 . S
C1143 C1137 1.390 . S
C1143 C1140 1.386 . S
C1144 C1139 1.490 . S
C1144 C1146 1.395 . S
C1144 C1147 1.403 . S
H1145 C1151 0.930 . S
C1146 H1132 0.930 . S
C1146 C1144 1.395 . S
C1146 C1149 1.403 . S
C1147 C1144 1.403 . S
C1147 C1148 1.524 . S
C1147 C1151 1.400 . S
C1148 H1133 0.960 . S
C1148 H1134 0.960 . S
C1148 H1135 0.960 . S
C1148 C1147 1.524 . S
C1149 C1146 1.403 . S
C1149 C1150 1.392 . S
C1149 C1153 1.495 . S
C1150 C1149 1.392 . S
C1150 C1151 1.385 . S
C1150 C1152 1.478 . S
C1151 H1145 0.930 . S
C1151 C1147 1.400 . S
C1151 C1150 1.385 . S
C1152 C1150 1.478 . S
C1152 C1154 1.381 . S
C1152 C1158 1.383 . S
C1153 C1149 1.495 . S
C1153 H1159 0.959 . S
C1153 H1160 0.961 . S
C1153 H1161 0.960 . S
C1154 C1152 1.381 . S
C1154 C1155 1.394 . S
C1154 H1162 0.930 . S
C1155 C1154 1.394 . S
C1155 C1156 1.383 . S
C1155 H1163 0.929 . S
C1156 C1155 1.383 . S
C1156 C1157 1.377 . S
C1157 H1141 0.930 . S
C1157 C1156 1.377 . S
C1157 C1158 1.379 . S
C1158 H1142 0.931 . S
C1158 C1152 1.383 . S
C1158 C1157 1.379 . S
H1159 C1153 0.959 . S
H1160 C1153 0.961 . S
H1161 C1153 0.960 . S
H1162 C1154 0.930 . S
H1163 C1155 0.929 . S
H1164 C1172 0.929 . S
H1165 C1174 0.930 . S
H1166 C1176 0.930 . S
H1167 C1179 0.929 . S
H1168 C1182 0.930 . S
H1169 C1184 0.960 . S
H1170 C1184 0.960 . S
H1171 C1184 0.960 . S
C1172 H1164 0.929 . S
C1172 C1173 1.377 . S
C1172 C1174 1.384 . S
C1173 C1172 1.377 . S
C1173 C1179 1.390 . S
C1174 H1165 0.930 . S
C1174 C1172 1.384 . S
C1174 C1175 1.372 . S
C1175 C1174 1.372 . S
C1175 C1176 1.400 . S
C1175 C1180 1.490 . S
C1176 H1166 0.930 . S
C1176 C1175 1.400 . S
C1176 C1179 1.386 . S
H1177 C1193 0.930 . S
H1178 C1194 0.931 . S
C1179 H1167 0.929 . S
C1179 C1173 1.390 . S
C1179 C1176 1.386 . S
C1180 C1175 1.490 . S
C1180 C1182 1.395 . S
C1180 C1183 1.403 . S
H1181 C1187 0.930 . S
C1182 H1168 0.930 . S
C1182 C1180 1.395 . S
C1182 C1185 1.403 . S
C1183 C1180 1.403 . S
C1183 C1184 1.524 . S
C1183 C1187 1.400 . S
C1184 H1169 0.960 . S
C1184 H1170 0.960 . S
C1184 H1171 0.960 . S
C1184 C1183 1.524 . S
C1185 C1182 1.403 . S
C1185 C1186 1.392 . S
C1185 C1189 1.495 . S
C1186 C1185 1.392 . S
C1186 C1187 1.385 . S
C1186 C1188 1.478 . S
C1187 H1181 0.930 . S
C1187 C1183 1.400 . S
C1187 C1186 1.385 . S
C1188 C1186 1.478 . S
C1188 C1190 1.381 . S
C1188 C1194 1.383 . S
C1189 C1185 1.495 . S
C1189 H1195 0.959 . S
C1189 H1196 0.961 . S
C1189 H1197 0.960 . S
C1190 C1188 1.381 . S
C1190 C1191 1.394 . S
C1190 H1198 0.930 . S
C1191 C1190 1.394 . S
C1191 C1192 1.383 . S
C1191 H1199 0.929 . S
C1192 C1191 1.383 . S
C1192 C1193 1.377 . S
C1193 H1177 0.930 . S
C1193 C1192 1.377 . S
C1193 C1194 1.379 . S
C1194 H1178 0.931 . S
C1194 C1188 1.383 . S
C1194 C1193 1.379 . S
H1195 C1189 0.959 . S
H1196 C1189 0.961 . S
H1197 C1189 0.960 . S
H1198 C1190 0.930 . S
H1199 C1191 0.929 . S
H1200 C1208 0.929 . S
H1201 C1210 0.930 . S
H1202 C1212 0.930 . S
H1203 C1215 0.929 . S
H1204 C1218 0.930 . S
H1205 C1220 0.960 . S
H1206 C1220 0.960 . S
H1207 C1220 0.960 . S
C1208 H1200 0.929 . S
C1208 C1209 1.377 . S
C1208 C1210 1.384 . S
C1209 C1208 1.377 . S
C1209 C1215 1.390 . S
C1210 H1201 0.930 . S
C1210 C1208 1.384 . S
C1210 C1211 1.372 . S
C1211 C1210 1.372 . S
C1211 C1212 1.400 . S
C1211 C1216 1.490 . S
C1212 H1202 0.930 . S
C1212 C1211 1.400 . S
C1212 C1215 1.386 . S
H1213 C1229 0.930 . S
H1214 C1230 0.931 . S
C1215 H1203 0.929 . S
C1215 C1209 1.390 . S
C1215 C1212 1.386 . S
C1216 C1211 1.490 . S
C1216 C1218 1.395 . S
C1216 C1219 1.403 . S
H1217 C1223 0.930 . S
C1218 H1204 0.930 . S
C1218 C1216 1.395 . S
C1218 C1221 1.403 1_554 S
C1219 C1216 1.403 . S
C1219 C1220 1.524 . S
C1219 C1223 1.400 1_554 S
C1220 H1205 0.960 . S
C1220 H1206 0.960 . S
C1220 H1207 0.960 . S
C1220 C1219 1.524 . S
C1221 C1218 1.403 1_556 S
C1221 C1222 1.392 . S
C1221 C1225 1.495 . S
C1222 C1221 1.392 . S
C1222 C1223 1.385 . S
C1222 C1224 1.478 . S
C1223 H1217 0.930 . S
C1223 C1219 1.400 1_556 S
C1223 C1222 1.385 . S
C1224 C1222 1.478 . S
C1224 C1226 1.381 . S
C1224 C1230 1.383 . S
C1225 C1221 1.495 . S
C1225 H1231 0.959 . S
C1225 H1232 0.961 . S
C1225 H1233 0.960 . S
C1226 C1224 1.381 . S
C1226 C1227 1.394 . S
C1226 H1234 0.930 . S
C1227 C1226 1.394 . S
C1227 C1228 1.383 . S
C1227 H1235 0.929 . S
C1228 C1227 1.383 . S
C1228 C1229 1.377 . S
C1229 H1213 0.930 . S
C1229 C1228 1.377 . S
C1229 C1230 1.379 . S
C1230 H1214 0.931 . S
C1230 C1224 1.383 . S
C1230 C1229 1.379 . S
H1231 C1225 0.959 . S
H1232 C1225 0.961 . S
H1233 C1225 0.960 . S
H1234 C1226 0.930 . S
H1235 C1227 0.929 . S
H1236 C1244 0.929 . S
H1237 C1246 0.930 . S
H1238 C1248 0.930 . S
H1239 C1251 0.929 . S
H1240 C1254 0.930 . S
H1241 C1256 0.960 . S
H1242 C1256 0.960 . S
H1243 C1256 0.960 . S
C1244 H1236 0.929 . S
C1244 C1245 1.377 . S
C1244 C1246 1.384 . S
C1245 C1244 1.377 . S
C1245 C1251 1.390 . S
C1246 H1237 0.930 . S
C1246 C1244 1.384 . S
C1246 C1247 1.372 . S
C1247 C1246 1.372 . S
C1247 C1248 1.400 . S
C1247 C1252 1.490 . S
C1248 H1238 0.930 . S
C1248 C1247 1.400 . S
C1248 C1251 1.386 . S
H1249 C1265 0.930 . S
H1250 C1266 0.931 . S
C1251 H1239 0.929 . S
C1251 C1245 1.390 . S
C1251 C1248 1.386 . S
C1252 C1247 1.490 . S
C1252 C1254 1.395 . S
C1252 C1255 1.403 . S
H1253 C1259 0.930 . S
C1254 H1240 0.930 . S
C1254 C1252 1.395 . S
C1254 C1257 1.403 1_556 S
C1255 C1252 1.403 . S
C1255 C1256 1.524 . S
C1255 C1259 1.400 1_556 S
C1256 H1241 0.960 . S
C1256 H1242 0.960 . S
C1256 H1243 0.960 . S
C1256 C1255 1.524 . S
C1257 C1254 1.403 1_554 S
C1257 C1258 1.392 . S
C1257 C1261 1.495 . S
C1258 C1257 1.392 . S
C1258 C1259 1.385 . S
C1258 C1260 1.478 . S
C1259 H1253 0.930 . S
C1259 C1255 1.400 1_554 S
C1259 C1258 1.385 . S
C1260 C1258 1.478 . S
C1260 C1262 1.381 . S
C1260 C1266 1.383 . S
C1261 C1257 1.495 . S
C1261 H1267 0.959 . S
C1261 H1268 0.961 . S
C1261 H1269 0.960 . S
C1262 C1260 1.381 . S
C1262 C1263 1.394 . S
C1262 H1270 0.930 . S
C1263 C1262 1.394 . S
C1263 C1264 1.383 . S
C1263 H1271 0.929 . S
C1264 C1263 1.383 . S
C1264 C1265 1.377 . S
C1265 H1249 0.930 . S
C1265 C1264 1.377 . S
C1265 C1266 1.379 . S
C1266 H1250 0.931 . S
C1266 C1260 1.383 . S
C1266 C1265 1.379 . S
H1267 C1261 0.959 . S
H1268 C1261 0.961 . S
H1269 C1261 0.960 . S
H1270 C1262 0.930 . S
H1271 C1263 0.929 . S
H1272 C1280 0.929 . S
H1273 C1282 0.930 . S
H1274 C1284 0.930 . S
H1275 C1287 0.929 . S
H1276 C1290 0.930 . S
H1277 C1292 0.960 . S
H1278 C1292 0.960 . S
H1279 C1292 0.960 . S
C1280 H1272 0.929 . S
C1280 C1281 1.377 . S
C1280 C1282 1.384 . S
C1281 C1280 1.377 . S
C1281 C1287 1.390 . S
C1282 H1273 0.930 . S
C1282 C1280 1.384 . S
C1282 C1283 1.372 . S
C1283 C1282 1.372 . S
C1283 C1284 1.400 . S
C1283 C1288 1.490 . S
C1284 H1274 0.930 . S
C1284 C1283 1.400 . S
C1284 C1287 1.386 . S
H1285 C1301 0.930 . S
H1286 C1302 0.931 . S
C1287 H1275 0.929 . S
C1287 C1281 1.390 . S
C1287 C1284 1.386 . S
C1288 C1283 1.490 . S
C1288 C1290 1.395 . S
C1288 C1291 1.403 . S
H1289 C1295 0.930 . S
C1290 H1276 0.930 . S
C1290 C1288 1.395 . S
C1290 C1293 1.403 1_556 S
C1291 C1288 1.403 . S
C1291 C1292 1.524 . S
C1291 C1295 1.400 1_556 S
C1292 H1277 0.960 . S
C1292 H1278 0.960 . S
C1292 H1279 0.960 . S
C1292 C1291 1.524 . S
C1293 C1290 1.403 1_554 S
C1293 C1294 1.392 . S
C1293 C1297 1.495 . S
C1294 C1293 1.392 . S
C1294 C1295 1.385 . S
C1294 C1296 1.478 . S
C1295 H1289 0.930 . S
C1295 C1291 1.400 1_554 S
C1295 C1294 1.385 . S
C1296 C1294 1.478 . S
C1296 C1298 1.381 . S
C1296 C1302 1.383 . S
C1297 C1293 1.495 . S
C1297 H1303 0.959 . S
C1297 H1304 0.961 . S
C1297 H1305 0.960 . S
C1298 C1296 1.381 . S
C1298 C1299 1.394 . S
C1298 H1306 0.930 . S
C1299 C1298 1.394 . S
C1299 C1300 1.383 . S
C1299 H1307 0.929 . S
C1300 C1299 1.383 . S
C1300 C1301 1.377 . S
C1301 H1285 0.930 . S
C1301 C1300 1.377 . S
C1301 C1302 1.379 . S
C1302 H1286 0.931 . S
C1302 C1296 1.383 . S
C1302 C1301 1.379 . S
H1303 C1297 0.959 . S
H1304 C1297 0.961 . S
H1305 C1297 0.960 . S
H1306 C1298 0.930 . S
H1307 C1299 0.929 . S
H1308 C1316 0.929 . S
H1309 C1318 0.930 . S
H1310 C1320 0.930 . S
H1311 C1323 0.929 . S
H1312 C1326 0.930 . S
H1313 C1328 0.960 . S
H1314 C1328 0.960 . S
H1315 C1328 0.960 . S
C1316 H1308 0.929 . S
C1316 C1317 1.377 . S
C1316 C1318 1.384 . S
C1317 C1316 1.377 . S
C1317 C1323 1.390 . S
C1318 H1309 0.930 . S
C1318 C1316 1.384 . S
C1318 C1319 1.372 . S
C1319 C1318 1.372 . S
C1319 C1320 1.400 . S
C1319 C1324 1.490 . S
C1320 H1310 0.930 . S
C1320 C1319 1.400 . S
C1320 C1323 1.386 . S
H1321 C1337 0.930 . S
H1322 C1338 0.931 . S
C1323 H1311 0.929 . S
C1323 C1317 1.390 . S
C1323 C1320 1.386 . S
C1324 C1319 1.490 . S
C1324 C1326 1.395 . S
C1324 C1327 1.403 . S
H1325 C1331 0.930 . S
C1326 H1312 0.930 . S
C1326 C1324 1.395 . S
C1326 C1329 1.403 1_554 S
C1327 C1324 1.403 . S
C1327 C1328 1.524 . S
C1327 C1331 1.400 1_554 S
C1328 H1313 0.960 . S
C1328 H1314 0.960 . S
C1328 H1315 0.960 . S
C1328 C1327 1.524 . S
C1329 C1326 1.403 1_556 S
C1329 C1330 1.392 . S
C1329 C1333 1.495 . S
C1330 C1329 1.392 . S
C1330 C1331 1.385 . S
C1330 C1332 1.478 . S
C1331 H1325 0.930 . S
C1331 C1327 1.400 1_556 S
C1331 C1330 1.385 . S
C1332 C1330 1.478 . S
C1332 C1334 1.381 . S
C1332 C1338 1.383 . S
C1333 C1329 1.495 . S
C1333 H1339 0.959 . S
C1333 H1340 0.961 . S
C1333 H1341 0.960 . S
C1334 C1332 1.381 . S
C1334 C1335 1.394 . S
C1334 H1342 0.930 . S
C1335 C1334 1.394 . S
C1335 C1336 1.383 . S
C1335 H1343 0.929 . S
C1336 C1335 1.383 . S
C1336 C1337 1.377 . S
C1337 H1321 0.930 . S
C1337 C1336 1.377 . S
C1337 C1338 1.379 . S
C1338 H1322 0.931 . S
C1338 C1332 1.383 . S
C1338 C1337 1.379 . S
H1339 C1333 0.959 . S
H1340 C1333 0.961 . S
H1341 C1333 0.960 . S
H1342 C1334 0.930 . S
H1343 C1335 0.929 . S
H1344 C1352 0.929 . S
H1345 C1354 0.930 . S
H1346 C1356 0.930 . S
H1347 C1359 0.929 . S
H1348 C1362 0.930 . S
H1349 C1364 0.960 . S
H1350 C1364 0.960 . S
H1351 C1364 0.960 . S
C1352 H1344 0.929 . S
C1352 C1353 1.377 . S
C1352 C1354 1.384 . S
C1353 C1352 1.377 . S
C1353 C1359 1.390 . S
C1354 H1345 0.930 . S
C1354 C1352 1.384 . S
C1354 C1355 1.372 . S
C1355 C1354 1.372 . S
C1355 C1356 1.400 . S
C1355 C1360 1.490 . S
C1356 H1346 0.930 . S
C1356 C1355 1.400 . S
C1356 C1359 1.386 . S
H1357 C1373 0.930 . S
H1358 C1374 0.931 . S
C1359 H1347 0.929 . S
C1359 C1353 1.390 . S
C1359 C1356 1.386 . S
C1360 C1355 1.490 . S
C1360 C1362 1.395 . S
C1360 C1363 1.403 . S
H1361 C1367 0.930 . S
C1362 H1348 0.930 . S
C1362 C1360 1.395 . S
C1362 C1365 1.403 1_554 S
C1363 C1360 1.403 . S
C1363 C1364 1.524 . S
C1363 C1367 1.400 1_554 S
C1364 H1349 0.960 . S
C1364 H1350 0.960 . S
C1364 H1351 0.960 . S
C1364 C1363 1.524 . S
C1365 C1362 1.403 1_556 S
C1365 C1366 1.392 . S
C1365 C1369 1.495 . S
C1366 C1365 1.392 . S
C1366 C1367 1.385 . S
C1366 C1368 1.478 . S
C1367 H1361 0.930 . S
C1367 C1363 1.400 1_556 S
C1367 C1366 1.385 . S
C1368 C1366 1.478 . S
C1368 C1370 1.381 . S
C1368 C1374 1.383 . S
C1369 C1365 1.495 . S
C1369 H1375 0.959 . S
C1369 H1376 0.961 . S
C1369 H1377 0.960 . S
C1370 C1368 1.381 . S
C1370 C1371 1.394 . S
C1370 H1378 0.930 . S
C1371 C1370 1.394 . S
C1371 C1372 1.383 . S
C1371 H1379 0.929 . S
C1372 C1371 1.383 . S
C1372 C1373 1.377 . S
C1373 H1357 0.930 . S
C1373 C1372 1.377 . S
C1373 C1374 1.379 . S
C1374 H1358 0.931 . S
C1374 C1368 1.383 . S
C1374 C1373 1.379 . S
H1375 C1369 0.959 . S
H1376 C1369 0.961 . S
H1377 C1369 0.960 . S
H1378 C1370 0.930 . S
H1379 C1371 0.929 . S
H1380 C1388 0.929 . S
H1381 C1390 0.930 . S
H1382 C1392 0.930 . S
H1383 C1395 0.929 . S
H1384 C1398 0.930 . S
H1385 C1400 0.960 . S
H1386 C1400 0.960 . S
H1387 C1400 0.960 . S
C1388 H1380 0.929 . S
C1388 C1389 1.377 . S
C1388 C1390 1.384 . S
C1389 C1388 1.377 . S
C1389 C1395 1.390 . S
C1390 H1381 0.930 . S
C1390 C1388 1.384 . S
C1390 C1391 1.372 . S
C1391 C1390 1.372 . S
C1391 C1392 1.400 . S
C1391 C1396 1.490 . S
C1392 H1382 0.930 . S
C1392 C1391 1.400 . S
C1392 C1395 1.386 . S
H1393 C1409 0.930 . S
H1394 C1410 0.931 . S
C1395 H1383 0.929 . S
C1395 C1389 1.390 . S
C1395 C1392 1.386 . S
C1396 C1391 1.490 . S
C1396 C1398 1.395 . S
C1396 C1399 1.403 . S
H1397 C1403 0.930 . S
C1398 H1384 0.930 . S
C1398 C1396 1.395 . S
C1398 C1401 1.403 1_556 S
C1399 C1396 1.403 . S
C1399 C1400 1.524 . S
C1399 C1403 1.400 1_556 S
C1400 H1385 0.960 . S
C1400 H1386 0.960 . S
C1400 H1387 0.960 . S
C1400 C1399 1.524 . S
C1401 C1398 1.403 1_554 S
C1401 C1402 1.392 . S
C1401 C1405 1.495 . S
C1402 C1401 1.392 . S
C1402 C1403 1.385 . S
C1402 C1404 1.478 . S
C1403 H1397 0.930 . S
C1403 C1399 1.400 1_554 S
C1403 C1402 1.385 . S
C1404 C1402 1.478 . S
C1404 C1406 1.381 . S
C1404 C1410 1.383 . S
C1405 C1401 1.495 . S
C1405 H1411 0.959 . S
C1405 H1412 0.961 . S
C1405 H1413 0.960 . S
C1406 C1404 1.381 . S
C1406 C1407 1.394 . S
C1406 H1414 0.930 . S
C1407 C1406 1.394 . S
C1407 C1408 1.383 . S
C1407 H1415 0.929 . S
C1408 C1407 1.383 . S
C1408 C1409 1.377 . S
C1409 H1393 0.930 . S
C1409 C1408 1.377 . S
C1409 C1410 1.379 . S
C1410 H1394 0.931 . S
C1410 C1404 1.383 . S
C1410 C1409 1.379 . S
H1411 C1405 0.959 . S
H1412 C1405 0.961 . S
H1413 C1405 0.960 . S
H1414 C1406 0.930 . S
H1415 C1407 0.929 . S
H1416 C1424 0.929 . S
H1417 C1426 0.930 . S
H1418 C1428 0.930 . S
H1419 C1431 0.929 . S
H1420 C1434 0.930 . S
H1421 C1436 0.960 . S
H1422 C1436 0.960 . S
H1423 C1436 0.960 . S
C1424 H1416 0.929 . S
C1424 C1425 1.377 . S
C1424 C1426 1.384 . S
C1425 C1424 1.377 . S
C1425 C1431 1.390 . S
C1426 H1417 0.930 . S
C1426 C1424 1.384 . S
C1426 C1427 1.372 . S
C1427 C1426 1.372 . S
C1427 C1428 1.400 . S
C1427 C1432 1.490 . S
C1428 H1418 0.930 . S
C1428 C1427 1.400 . S
C1428 C1431 1.386 . S
H1429 C1445 0.930 . S
H1430 C1446 0.931 . S
C1431 H1419 0.929 . S
C1431 C1425 1.390 . S
C1431 C1428 1.386 . S
C1432 C1427 1.490 . S
C1432 C1434 1.395 . S
C1432 C1435 1.403 . S
H1433 C1439 0.930 . S
C1434 H1420 0.930 . S
C1434 C1432 1.395 . S
C1434 C1437 1.403 . S
C1435 C1432 1.403 . S
C1435 C1436 1.524 . S
C1435 C1439 1.400 . S
C1436 H1421 0.960 . S
C1436 H1422 0.960 . S
C1436 H1423 0.960 . S
C1436 C1435 1.524 . S
C1437 C1434 1.403 . S
C1437 C1438 1.392 . S
C1437 C1441 1.495 . S
C1438 C1437 1.392 . S
C1438 C1439 1.385 . S
C1438 C1440 1.478 . S
C1439 H1433 0.930 . S
C1439 C1435 1.400 . S
C1439 C1438 1.385 . S
C1440 C1438 1.478 . S
C1440 C1442 1.381 . S
C1440 C1446 1.383 . S
C1441 C1437 1.495 . S
C1441 H1447 0.959 . S
C1441 H1448 0.961 . S
C1441 H1449 0.960 . S
C1442 C1440 1.381 . S
C1442 C1443 1.394 . S
C1442 H1450 0.930 . S
C1443 C1442 1.394 . S
C1443 C1444 1.383 . S
C1443 H1451 0.929 . S
C1444 C1443 1.383 . S
C1444 C1445 1.377 . S
C1445 H1429 0.930 . S
C1445 C1444 1.377 . S
C1445 C1446 1.379 . S
C1446 H1430 0.931 . S
C1446 C1440 1.383 . S
C1446 C1445 1.379 . S
H1447 C1441 0.959 . S
H1448 C1441 0.961 . S
H1449 C1441 0.960 . S
H1450 C1442 0.930 . S
H1451 C1443 0.929 . S
H1452 C1460 0.929 . S
H1453 C1462 0.930 . S
H1454 C1464 0.930 . S
H1455 C1467 0.929 . S
H1456 C1470 0.930 . S
H1457 C1472 0.960 . S
H1458 C1472 0.960 . S
H1459 C1472 0.960 . S
C1460 H1452 0.929 . S
C1460 C1461 1.377 . S
C1460 C1462 1.384 . S
C1461 C1460 1.377 . S
C1461 C1467 1.390 . S
C1462 H1453 0.930 . S
C1462 C1460 1.384 . S
C1462 C1463 1.372 . S
C1463 C1462 1.372 . S
C1463 C1464 1.400 . S
C1463 C1468 1.490 . S
C1464 H1454 0.930 . S
C1464 C1463 1.400 . S
C1464 C1467 1.386 . S
H1465 C1481 0.930 . S
H1466 C1482 0.931 . S
C1467 H1455 0.929 . S
C1467 C1461 1.390 . S
C1467 C1464 1.386 . S
C1468 C1463 1.490 . S
C1468 C1470 1.395 . S
C1468 C1471 1.403 . S
H1469 C1475 0.930 . S
C1470 H1456 0.930 . S
C1470 C1468 1.395 . S
C1470 C1473 1.403 . S
C1471 C1468 1.403 . S
C1471 C1472 1.524 . S
C1471 C1475 1.400 . S
C1472 H1457 0.960 . S
C1472 H1458 0.960 . S
C1472 H1459 0.960 . S
C1472 C1471 1.524 . S
C1473 C1470 1.403 . S
C1473 C1474 1.392 . S
C1473 C1477 1.495 . S
C1474 C1473 1.392 . S
C1474 C1475 1.385 . S
C1474 C1476 1.478 . S
C1475 H1469 0.930 . S
C1475 C1471 1.400 . S
C1475 C1474 1.385 . S
C1476 C1474 1.478 . S
C1476 C1478 1.381 . S
C1476 C1482 1.383 . S
C1477 C1473 1.495 . S
C1477 H1483 0.959 . S
C1477 H1484 0.961 . S
C1477 H1485 0.960 . S
C1478 C1476 1.381 . S
C1478 C1479 1.394 . S
C1478 H1486 0.930 . S
C1479 C1478 1.394 . S
C1479 C1480 1.383 . S
C1479 H1487 0.929 . S
C1480 C1479 1.383 . S
C1480 C1481 1.377 . S
C1481 H1465 0.930 . S
C1481 C1480 1.377 . S
C1481 C1482 1.379 . S
C1482 H1466 0.931 . S
C1482 C1476 1.383 . S
C1482 C1481 1.379 . S
H1483 C1477 0.959 . S
H1484 C1477 0.961 . S
H1485 C1477 0.960 . S
H1486 C1478 0.930 . S
H1487 C1479 0.929 . S
H1488 C1496 0.929 . S
H1489 C1498 0.930 . S
H1490 C1500 0.930 . S
H1491 C1503 0.929 . S
H1492 C1506 0.930 . S
H1493 C1508 0.960 . S
H1494 C1508 0.960 . S
H1495 C1508 0.960 . S
C1496 H1488 0.929 . S
C1496 C1497 1.377 . S
C1496 C1498 1.384 . S
C1497 C1496 1.377 . S
C1497 C1503 1.390 . S
C1498 H1489 0.930 . S
C1498 C1496 1.384 . S
C1498 C1499 1.372 . S
C1499 C1498 1.372 . S
C1499 C1500 1.400 . S
C1499 C1504 1.490 . S
C1500 H1490 0.930 . S
C1500 C1499 1.400 . S
C1500 C1503 1.386 . S
H1501 C1517 0.930 . S
H1502 C1518 0.931 . S
C1503 H1491 0.929 . S
C1503 C1497 1.390 . S
C1503 C1500 1.386 . S
C1504 C1499 1.490 . S
C1504 C1506 1.395 . S
C1504 C1507 1.403 . S
H1505 C1511 0.930 . S
C1506 H1492 0.930 . S
C1506 C1504 1.395 . S
C1506 C1509 1.403 . S
C1507 C1504 1.403 . S
C1507 C1508 1.524 . S
C1507 C1511 1.400 . S
C1508 H1493 0.960 . S
C1508 H1494 0.960 . S
C1508 H1495 0.960 . S
C1508 C1507 1.524 . S
C1509 C1506 1.403 . S
C1509 C1510 1.392 . S
C1509 C1513 1.495 . S
C1510 C1509 1.392 . S
C1510 C1511 1.385 . S
C1510 C1512 1.478 . S
C1511 H1505 0.930 . S
C1511 C1507 1.400 . S
C1511 C1510 1.385 . S
C1512 C1510 1.478 . S
C1512 C1514 1.381 . S
C1512 C1518 1.383 . S
C1513 C1509 1.495 . S
C1513 H1519 0.959 . S
C1513 H1520 0.961 . S
C1513 H1521 0.960 . S
C1514 C1512 1.381 . S
C1514 C1515 1.394 . S
C1514 H1522 0.930 . S
C1515 C1514 1.394 . S
C1515 C1516 1.383 . S
C1515 H1523 0.929 . S
C1516 C1515 1.383 . S
C1516 C1517 1.377 . S
C1517 H1501 0.930 . S
C1517 C1516 1.377 . S
C1517 C1518 1.379 . S
C1518 H1502 0.931 . S
C1518 C1512 1.383 . S
C1518 C1517 1.379 . S
H1519 C1513 0.959 . S
H1520 C1513 0.961 . S
H1521 C1513 0.960 . S
H1522 C1514 0.930 . S
H1523 C1515 0.929 . S
H1524 C1532 0.929 . S
H1525 C1534 0.930 . S
H1526 C1536 0.930 . S
H1527 C1539 0.929 . S
H1528 C1542 0.930 . S
H1529 C1544 0.960 . S
H1530 C1544 0.960 . S
H1531 C1544 0.960 . S
C1532 H1524 0.929 . S
C1532 C1533 1.377 . S
C1532 C1534 1.384 . S
C1533 C1532 1.377 . S
C1533 C1539 1.390 . S
C1534 H1525 0.930 . S
C1534 C1532 1.384 . S
C1534 C1535 1.372 . S
C1535 C1534 1.372 . S
C1535 C1536 1.400 . S
C1535 C1540 1.490 . S
C1536 H1526 0.930 . S
C1536 C1535 1.400 . S
C1536 C1539 1.386 . S
H1537 C1553 0.930 . S
H1538 C1554 0.931 . S
C1539 H1527 0.929 . S
C1539 C1533 1.390 . S
C1539 C1536 1.386 . S
C1540 C1535 1.490 . S
C1540 C1542 1.395 . S
C1540 C1543 1.403 . S
H1541 C1547 0.930 . S
C1542 H1528 0.930 . S
C1542 C1540 1.395 . S
C1542 C1545 1.403 . S
C1543 C1540 1.403 . S
C1543 C1544 1.524 . S
C1543 C1547 1.400 . S
C1544 H1529 0.960 . S
C1544 H1530 0.960 . S
C1544 H1531 0.960 . S
C1544 C1543 1.524 . S
C1545 C1542 1.403 . S
C1545 C1546 1.392 . S
C1545 C1549 1.495 . S
C1546 C1545 1.392 . S
C1546 C1547 1.385 . S
C1546 C1548 1.478 . S
C1547 H1541 0.930 . S
C1547 C1543 1.400 . S
C1547 C1546 1.385 . S
C1548 C1546 1.478 . S
C1548 C1550 1.381 . S
C1548 C1554 1.383 . S
C1549 C1545 1.495 . S
C1549 H1555 0.959 . S
C1549 H1556 0.961 . S
C1549 H1557 0.960 . S
C1550 C1548 1.381 . S
C1550 C1551 1.394 . S
C1550 H1558 0.930 . S
C1551 C1550 1.394 . S
C1551 C1552 1.383 . S
C1551 H1559 0.929 . S
C1552 C1551 1.383 . S
C1552 C1553 1.377 . S
C1553 H1537 0.930 . S
C1553 C1552 1.377 . S
C1553 C1554 1.379 . S
C1554 H1538 0.931 . S
C1554 C1548 1.383 . S
C1554 C1553 1.379 . S
H1555 C1549 0.959 . S
H1556 C1549 0.961 . S
H1557 C1549 0.960 . S
H1558 C1550 0.930 . S
H1559 C1551 0.929 . S
H1560 C1568 0.929 . S
H1561 C1570 0.930 . S
H1562 C1572 0.930 . S
H1563 C1575 0.929 . S
H1564 C1578 0.930 . S
H1565 C1580 0.960 . S
H1566 C1580 0.960 . S
H1567 C1580 0.960 . S
C1568 H1560 0.929 . S
C1568 C1569 1.377 . S
C1568 C1570 1.384 . S
C1569 C1568 1.377 . S
C1569 C1575 1.390 . S
C1570 H1561 0.930 . S
C1570 C1568 1.384 . S
C1570 C1571 1.372 . S
C1571 C1570 1.372 . S
C1571 C1572 1.400 . S
C1571 C1576 1.490 . S
C1572 H1562 0.930 . S
C1572 C1571 1.400 . S
C1572 C1575 1.386 . S
H1573 C1589 0.930 . S
H1574 C1590 0.931 . S
C1575 H1563 0.929 . S
C1575 C1569 1.390 . S
C1575 C1572 1.386 . S
C1576 C1571 1.490 . S
C1576 C1578 1.395 . S
C1576 C1579 1.403 . S
H1577 C1583 0.930 . S
C1578 H1564 0.930 . S
C1578 C1576 1.395 . S
C1578 C1581 1.403 . S
C1579 C1576 1.403 . S
C1579 C1580 1.524 . S
C1579 C1583 1.400 . S
C1580 H1565 0.960 . S
C1580 H1566 0.960 . S
C1580 H1567 0.960 . S
C1580 C1579 1.524 . S
C1581 C1578 1.403 . S
C1581 C1582 1.392 . S
C1581 C1585 1.495 . S
C1582 C1581 1.392 . S
C1582 C1583 1.385 . S
C1582 C1584 1.478 . S
C1583 H1577 0.930 . S
C1583 C1579 1.400 . S
C1583 C1582 1.385 . S
C1584 C1582 1.478 . S
C1584 C1586 1.381 . S
C1584 C1590 1.383 . S
C1585 C1581 1.495 . S
C1585 H1591 0.959 . S
C1585 H1592 0.961 . S
C1585 H1593 0.960 . S
C1586 C1584 1.381 . S
C1586 C1587 1.394 . S
C1586 H1594 0.930 . S
C1587 C1586 1.394 . S
C1587 C1588 1.383 . S
C1587 H1595 0.929 . S
C1588 C1587 1.383 . S
C1588 C1589 1.377 . S
C1589 H1573 0.930 . S
C1589 C1588 1.377 . S
C1589 C1590 1.379 . S
C1590 H1574 0.931 . S
C1590 C1584 1.383 . S
C1590 C1589 1.379 . S
H1591 C1585 0.959 . S
H1592 C1585 0.961 . S
H1593 C1585 0.960 . S
H1594 C1586 0.930 . S
H1595 C1587 0.929 . S
H1596 C1604 0.929 . S
H1597 C1606 0.930 . S
H1598 C1608 0.930 . S
H1599 C1611 0.929 . S
H1600 C1614 0.930 . S
H1601 C1616 0.960 . S
H1602 C1616 0.960 . S
H1603 C1616 0.960 . S
C1604 H1596 0.929 . S
C1604 C1605 1.377 . S
C1604 C1606 1.384 . S
C1605 C1604 1.377 . S
C1605 C1611 1.390 . S
C1606 H1597 0.930 . S
C1606 C1604 1.384 . S
C1606 C1607 1.372 . S
C1607 C1606 1.372 . S
C1607 C1608 1.400 . S
C1607 C1612 1.490 . S
C1608 H1598 0.930 . S
C1608 C1607 1.400 . S
C1608 C1611 1.386 . S
H1609 C1625 0.930 . S
H1610 C1626 0.931 . S
C1611 H1599 0.929 . S
C1611 C1605 1.390 . S
C1611 C1608 1.386 . S
C1612 C1607 1.490 . S
C1612 C1614 1.395 . S
C1612 C1615 1.403 . S
H1613 C1619 0.930 . S
C1614 H1600 0.930 . S
C1614 C1612 1.395 . S
C1614 C1617 1.403 . S
C1615 C1612 1.403 . S
C1615 C1616 1.524 . S
C1615 C1619 1.400 . S
C1616 H1601 0.960 . S
C1616 H1602 0.960 . S
C1616 H1603 0.960 . S
C1616 C1615 1.524 . S
C1617 C1614 1.403 . S
C1617 C1618 1.392 . S
C1617 C1621 1.495 . S
C1618 C1617 1.392 . S
C1618 C1619 1.385 . S
C1618 C1620 1.478 . S
C1619 H1613 0.930 . S
C1619 C1615 1.400 . S
C1619 C1618 1.385 . S
C1620 C1618 1.478 . S
C1620 C1622 1.381 . S
C1620 C1626 1.383 . S
C1621 C1617 1.495 . S
C1621 H1627 0.959 . S
C1621 H1628 0.961 . S
C1621 H1629 0.960 . S
C1622 C1620 1.381 . S
C1622 C1623 1.394 . S
C1622 H1630 0.930 . S
C1623 C1622 1.394 . S
C1623 C1624 1.383 . S
C1623 H1631 0.929 . S
C1624 C1623 1.383 . S
C1624 C1625 1.377 . S
C1625 H1609 0.930 . S
C1625 C1624 1.377 . S
C1625 C1626 1.379 . S
C1626 H1610 0.931 . S
C1626 C1620 1.383 . S
C1626 C1625 1.379 . S
H1627 C1621 0.959 . S
H1628 C1621 0.961 . S
H1629 C1621 0.960 . S
H1630 C1622 0.930 . S
H1631 C1623 0.929 . S
H1632 C1640 0.929 . S
H1633 C1642 0.930 . S
H1634 C1644 0.930 . S
H1635 C1647 0.929 . S
H1636 C1650 0.930 . S
H1637 C1652 0.960 . S
H1638 C1652 0.960 . S
H1639 C1652 0.960 . S
C1640 H1632 0.929 . S
C1640 C1641 1.377 . S
C1640 C1642 1.384 . S
C1641 C1640 1.377 . S
C1641 C1647 1.390 . S
C1642 H1633 0.930 . S
C1642 C1640 1.384 . S
C1642 C1643 1.372 . S
C1643 C1642 1.372 . S
C1643 C1644 1.400 . S
C1643 C1648 1.490 . S
C1644 H1634 0.930 . S
C1644 C1643 1.400 . S
C1644 C1647 1.386 . S
H1645 C1661 0.930 . S
H1646 C1662 0.931 . S
C1647 H1635 0.929 . S
C1647 C1641 1.390 . S
C1647 C1644 1.386 . S
C1648 C1643 1.490 . S
C1648 C1650 1.395 . S
C1648 C1651 1.403 . S
H1649 C1655 0.930 . S
C1650 H1636 0.930 . S
C1650 C1648 1.395 . S
C1650 C1653 1.403 . S
C1651 C1648 1.403 . S
C1651 C1652 1.524 . S
C1651 C1655 1.400 . S
C1652 H1637 0.960 . S
C1652 H1638 0.960 . S
C1652 H1639 0.960 . S
C1652 C1651 1.524 . S
C1653 C1650 1.403 . S
C1653 C1654 1.392 . S
C1653 C1657 1.495 . S
C1654 C1653 1.392 . S
C1654 C1655 1.385 . S
C1654 C1656 1.478 . S
C1655 H1649 0.930 . S
C1655 C1651 1.400 . S
C1655 C1654 1.385 . S
C1656 C1654 1.478 . S
C1656 C1658 1.381 . S
C1656 C1662 1.383 . S
C1657 C1653 1.495 . S
C1657 H1663 0.959 . S
C1657 H1664 0.961 . S
C1657 H1665 0.960 . S
C1658 C1656 1.381 . S
C1658 C1659 1.394 . S
C1658 H1666 0.930 . S
C1659 C1658 1.394 . S
C1659 C1660 1.383 . S
C1659 H1667 0.929 . S
C1660 C1659 1.383 . S
C1660 C1661 1.377 . S
C1661 H1645 0.930 . S
C1661 C1660 1.377 . S
C1661 C1662 1.379 . S
C1662 H1646 0.931 . S
C1662 C1656 1.383 . S
C1662 C1661 1.379 . S
H1663 C1657 0.959 . S
H1664 C1657 0.961 . S
H1665 C1657 0.960 . S
H1666 C1658 0.930 . S
H1667 C1659 0.929 . S
H1668 C1676 0.929 . S
H1669 C1678 0.930 . S
H1670 C1680 0.930 . S
H1671 C1683 0.929 . S
H1672 C1686 0.930 . S
H1673 C1688 0.960 . S
H1674 C1688 0.960 . S
H1675 C1688 0.960 . S
C1676 H1668 0.929 . S
C1676 C1677 1.377 . S
C1676 C1678 1.384 . S
C1677 C1676 1.377 . S
C1677 C1683 1.390 . S
C1678 H1669 0.930 . S
C1678 C1676 1.384 . S
C1678 C1679 1.372 . S
C1679 C1678 1.372 . S
C1679 C1680 1.400 . S
C1679 C1684 1.490 . S
C1680 H1670 0.930 . S
C1680 C1679 1.400 . S
C1680 C1683 1.386 . S
H1681 C1697 0.930 . S
H1682 C1698 0.931 . S
C1683 H1671 0.929 . S
C1683 C1677 1.390 . S
C1683 C1680 1.386 . S
C1684 C1679 1.490 . S
C1684 C1686 1.395 . S
C1684 C1687 1.403 . S
H1685 C1691 0.930 . S
C1686 H1672 0.930 . S
C1686 C1684 1.395 . S
C1686 C1689 1.403 . S
C1687 C1684 1.403 . S
C1687 C1688 1.524 . S
C1687 C1691 1.400 . S
C1688 H1673 0.960 . S
C1688 H1674 0.960 . S
C1688 H1675 0.960 . S
C1688 C1687 1.524 . S
C1689 C1686 1.403 . S
C1689 C1690 1.392 . S
C1689 C1693 1.495 . S
C1690 C1689 1.392 . S
C1690 C1691 1.385 . S
C1690 C1692 1.478 . S
C1691 H1685 0.930 . S
C1691 C1687 1.400 . S
C1691 C1690 1.385 . S
C1692 C1690 1.478 . S
C1692 C1694 1.381 . S
C1692 C1698 1.383 . S
C1693 C1689 1.495 . S
C1693 H1699 0.959 . S
C1693 H1700 0.961 . S
C1693 H1701 0.960 . S
C1694 C1692 1.381 . S
C1694 C1695 1.394 . S
C1694 H1702 0.930 . S
C1695 C1694 1.394 . S
C1695 C1696 1.383 . S
C1695 H1703 0.929 . S
C1696 C1695 1.383 . S
C1696 C1697 1.377 . S
C1697 H1681 0.930 . S
C1697 C1696 1.377 . S
C1697 C1698 1.379 . S
C1698 H1682 0.931 . S
C1698 C1692 1.383 . S
C1698 C1697 1.379 . S
H1699 C1693 0.959 . S
H1700 C1693 0.961 . S
H1701 C1693 0.960 . S
H1702 C1694 0.930 . S
H1703 C1695 0.929 . S
H1704 C1712 0.929 . S
H1705 C1714 0.930 . S
H1706 C1716 0.930 . S
H1707 C1719 0.929 . S
H1708 C1722 0.930 . S
H1709 C1724 0.960 . S
H1710 C1724 0.960 . S
H1711 C1724 0.960 . S
C1712 H1704 0.929 . S
C1712 C1713 1.377 . S
C1712 C1714 1.384 . S
C1713 C1712 1.377 . S
C1713 C1719 1.390 . S
C1714 H1705 0.930 . S
C1714 C1712 1.384 . S
C1714 C1715 1.372 . S
C1715 C1714 1.372 . S
C1715 C1716 1.400 . S
C1715 C1720 1.490 . S
C1716 H1706 0.930 . S
C1716 C1715 1.400 . S
C1716 C1719 1.386 . S
H1717 C1733 0.930 . S
H1718 C1734 0.931 . S
C1719 H1707 0.929 . S
C1719 C1713 1.390 . S
C1719 C1716 1.386 . S
C1720 C1715 1.490 . S
C1720 C1722 1.395 . S
C1720 C1723 1.403 . S
H1721 C1727 0.930 . S
C1722 H1708 0.930 . S
C1722 C1720 1.395 . S
C1722 C1725 1.403 . S
C1723 C1720 1.403 . S
C1723 C1724 1.524 . S
C1723 C1727 1.400 . S
C1724 H1709 0.960 . S
C1724 H1710 0.960 . S
C1724 H1711 0.960 . S
C1724 C1723 1.524 . S
C1725 C1722 1.403 . S
C1725 C1726 1.392 . S
C1725 C1729 1.495 . S
C1726 C1725 1.392 . S
C1726 C1727 1.385 . S
C1726 C1728 1.478 . S
C1727 H1721 0.930 . S
C1727 C1723 1.400 . S
C1727 C1726 1.385 . S
C1728 C1726 1.478 . S
C1728 C1730 1.381 . S
C1728 C1734 1.383 . S
C1729 C1725 1.495 . S
C1729 H1735 0.959 . S
C1729 H1736 0.961 . S
C1729 H1737 0.960 . S
C1730 C1728 1.381 . S
C1730 C1731 1.394 . S
C1730 H1738 0.930 . S
C1731 C1730 1.394 . S
C1731 C1732 1.383 . S
C1731 H1739 0.929 . S
C1732 C1731 1.383 . S
C1732 C1733 1.377 . S
C1733 H1717 0.930 . S
C1733 C1732 1.377 . S
C1733 C1734 1.379 . S
C1734 H1718 0.931 . S
C1734 C1728 1.383 . S
C1734 C1733 1.379 . S
H1735 C1729 0.959 . S
H1736 C1729 0.961 . S
H1737 C1729 0.960 . S
H1738 C1730 0.930 . S
H1739 C1731 0.929 . S
H1740 C1748 0.929 . S
H1741 C1750 0.930 . S
H1742 C1752 0.930 . S
H1743 C1755 0.929 . S
H1744 C1758 0.930 . S
H1745 C1760 0.960 . S
H1746 C1760 0.960 . S
H1747 C1760 0.960 . S
C1748 H1740 0.929 . S
C1748 C1749 1.377 . S
C1748 C1750 1.384 . S
C1749 C1748 1.377 . S
C1749 C1755 1.390 . S
C1750 H1741 0.930 . S
C1750 C1748 1.384 . S
C1750 C1751 1.372 . S
C1751 C1750 1.372 . S
C1751 C1752 1.400 . S
C1751 C1756 1.490 . S
C1752 H1742 0.930 . S
C1752 C1751 1.400 . S
C1752 C1755 1.386 . S
H1753 C1769 0.930 . S
H1754 C1770 0.931 . S
C1755 H1743 0.929 . S
C1755 C1749 1.390 . S
C1755 C1752 1.386 . S
C1756 C1751 1.490 . S
C1756 C1758 1.395 . S
C1756 C1759 1.403 . S
H1757 C1763 0.930 . S
C1758 H1744 0.930 . S
C1758 C1756 1.395 . S
C1758 C1761 1.403 . S
C1759 C1756 1.403 . S
C1759 C1760 1.524 . S
C1759 C1763 1.400 . S
C1760 H1745 0.960 . S
C1760 H1746 0.960 . S
C1760 H1747 0.960 . S
C1760 C1759 1.524 . S
C1761 C1758 1.403 . S
C1761 C1762 1.392 . S
C1761 C1765 1.495 . S
C1762 C1761 1.392 . S
C1762 C1763 1.385 . S
C1762 C1764 1.478 . S
C1763 H1757 0.930 . S
C1763 C1759 1.400 . S
C1763 C1762 1.385 . S
C1764 C1762 1.478 . S
C1764 C1766 1.381 . S
C1764 C1770 1.383 . S
C1765 C1761 1.495 . S
C1765 H1771 0.959 . S
C1765 H1772 0.961 . S
C1765 H1773 0.960 . S
C1766 C1764 1.381 . S
C1766 C1767 1.394 . S
C1766 H1774 0.930 . S
C1767 C1766 1.394 . S
C1767 C1768 1.383 . S
C1767 H1775 0.929 . S
C1768 C1767 1.383 . S
C1768 C1769 1.377 . S
C1769 H1753 0.930 . S
C1769 C1768 1.377 . S
C1769 C1770 1.379 . S
C1770 H1754 0.931 . S
C1770 C1764 1.383 . S
C1770 C1769 1.379 . S
H1771 C1765 0.959 . S
H1772 C1765 0.961 . S
H1773 C1765 0.960 . S
H1774 C1766 0.930 . S
H1775 C1767 0.929 . S
H1776 C1784 0.929 . S
H1777 C1786 0.930 . S
H1778 C1788 0.930 . S
H1779 C1791 0.929 . S
H1780 C1794 0.930 . S
H1781 C1796 0.960 . S
H1782 C1796 0.960 . S
H1783 C1796 0.960 . S
C1784 H1776 0.929 . S
C1784 C1785 1.377 . S
C1784 C1786 1.384 . S
C1785 C1784 1.377 . S
C1785 C1791 1.390 . S
C1786 H1777 0.930 . S
C1786 C1784 1.384 . S
C1786 C1787 1.372 . S
C1787 C1786 1.372 . S
C1787 C1788 1.400 . S
C1787 C1792 1.490 . S
C1788 H1778 0.930 . S
C1788 C1787 1.400 . S
C1788 C1791 1.386 . S
H1789 C1805 0.930 . S
H1790 C1806 0.931 . S
C1791 H1779 0.929 . S
C1791 C1785 1.390 . S
C1791 C1788 1.386 . S
C1792 C1787 1.490 . S
C1792 C1794 1.395 . S
C1792 C1795 1.403 . S
H1793 C1799 0.930 . S
C1794 H1780 0.930 . S
C1794 C1792 1.395 . S
C1794 C1797 1.403 . S
C1795 C1792 1.403 . S
C1795 C1796 1.524 . S
C1795 C1799 1.400 . S
C1796 H1781 0.960 . S
C1796 H1782 0.960 . S
C1796 H1783 0.960 . S
C1796 C1795 1.524 . S
C1797 C1794 1.403 . S
C1797 C1798 1.392 . S
C1797 C1801 1.495 . S
C1798 C1797 1.392 . S
C1798 C1799 1.385 . S
C1798 C1800 1.478 . S
C1799 H1793 0.930 . S
C1799 C1795 1.400 . S
C1799 C1798 1.385 . S
C1800 C1798 1.478 . S
C1800 C1802 1.381 . S
C1800 C1806 1.383 . S
C1801 C1797 1.495 . S
C1801 H1807 0.959 . S
C1801 H1808 0.961 . S
C1801 H1809 0.960 . S
C1802 C1800 1.381 . S
C1802 C1803 1.394 . S
C1802 H1810 0.930 . S
C1803 C1802 1.394 . S
C1803 C1804 1.383 . S
C1803 H1811 0.929 . S
C1804 C1803 1.383 . S
C1804 C1805 1.377 . S
C1805 H1789 0.930 . S
C1805 C1804 1.377 . S
C1805 C1806 1.379 . S
C1806 H1790 0.931 . S
C1806 C1800 1.383 . S
C1806 C1805 1.379 . S
H1807 C1801 0.959 . S
H1808 C1801 0.961 . S
H1809 C1801 0.960 . S
H1810 C1802 0.930 . S
H1811 C1803 0.929 . S
H1812 C1820 0.929 . S
H1813 C1822 0.930 . S
H1814 C1824 0.930 . S
H1815 C1827 0.929 . S
H1816 C1830 0.930 . S
H1817 C1832 0.960 . S
H1818 C1832 0.960 . S
H1819 C1832 0.960 . S
C1820 H1812 0.929 . S
C1820 C1821 1.377 . S
C1820 C1822 1.384 . S
C1821 C1820 1.377 . S
C1821 C1827 1.390 . S
C1822 H1813 0.930 . S
C1822 C1820 1.384 . S
C1822 C1823 1.372 . S
C1823 C1822 1.372 . S
C1823 C1824 1.400 . S
C1823 C1828 1.490 . S
C1824 H1814 0.930 . S
C1824 C1823 1.400 . S
C1824 C1827 1.386 . S
H1825 C1841 0.930 . S
H1826 C1842 0.931 . S
C1827 H1815 0.929 . S
C1827 C1821 1.390 . S
C1827 C1824 1.386 . S
C1828 C1823 1.490 . S
C1828 C1830 1.395 . S
C1828 C1831 1.403 . S
H1829 C1835 0.930 . S
C1830 H1816 0.930 . S
C1830 C1828 1.395 . S
C1830 C1833 1.403 . S
C1831 C1828 1.403 . S
C1831 C1832 1.524 . S
C1831 C1835 1.400 . S
C1832 H1817 0.960 . S
C1832 H1818 0.960 . S
C1832 H1819 0.960 . S
C1832 C1831 1.524 . S
C1833 C1830 1.403 . S
C1833 C1834 1.392 . S
C1833 C1837 1.495 . S
C1834 C1833 1.392 . S
C1834 C1835 1.385 . S
C1834 C1836 1.478 . S
C1835 H1829 0.930 . S
C1835 C1831 1.400 . S
C1835 C1834 1.385 . S
C1836 C1834 1.478 . S
C1836 C1838 1.381 . S
C1836 C1842 1.383 . S
C1837 C1833 1.495 . S
C1837 H1843 0.959 . S
C1837 H1844 0.961 . S
C1837 H1845 0.960 . S
C1838 C1836 1.381 . S
C1838 C1839 1.394 . S
C1838 H1846 0.930 . S
C1839 C1838 1.394 . S
C1839 C1840 1.383 . S
C1839 H1847 0.929 . S
C1840 C1839 1.383 . S
C1840 C1841 1.377 . S
C1841 H1825 0.930 . S
C1841 C1840 1.377 . S
C1841 C1842 1.379 . S
C1842 H1826 0.931 . S
C1842 C1836 1.383 . S
C1842 C1841 1.379 . S
H1843 C1837 0.959 . S
H1844 C1837 0.961 . S
H1845 C1837 0.960 . S
H1846 C1838 0.930 . S
H1847 C1839 0.929 . S
H1848 C1856 0.929 . S
H1849 C1858 0.930 . S
H1850 C1860 0.930 . S
H1851 C1863 0.929 . S
H1852 C1866 0.930 . S
H1853 C1868 0.960 . S
H1854 C1868 0.960 . S
H1855 C1868 0.960 . S
C1856 H1848 0.929 . S
C1856 C1857 1.377 . S
C1856 C1858 1.384 . S
C1857 C1856 1.377 . S
C1857 C1863 1.390 . S
C1858 H1849 0.930 . S
C1858 C1856 1.384 . S
C1858 C1859 1.372 . S
C1859 C1858 1.372 . S
C1859 C1860 1.400 . S
C1859 C1864 1.490 . S
C1860 H1850 0.930 . S
C1860 C1859 1.400 . S
C1860 C1863 1.386 . S
H1861 C1877 0.930 . S
H1862 C1878 0.931 . S
C1863 H1851 0.929 . S
C1863 C1857 1.390 . S
C1863 C1860 1.386 . S
C1864 C1859 1.490 . S
C1864 C1866 1.395 . S
C1864 C1867 1.403 . S
H1865 C1871 0.930 . S
C1866 H1852 0.930 . S
C1866 C1864 1.395 . S
C1866 C1869 1.403 . S
C1867 C1864 1.403 . S
C1867 C1868 1.524 . S
C1867 C1871 1.400 . S
C1868 H1853 0.960 . S
C1868 H1854 0.960 . S
C1868 H1855 0.960 . S
C1868 C1867 1.524 . S
C1869 C1866 1.403 . S
C1869 C1870 1.392 . S
C1869 C1873 1.495 . S
C1870 C1869 1.392 . S
C1870 C1871 1.385 . S
C1870 C1872 1.478 . S
C1871 H1865 0.930 . S
C1871 C1867 1.400 . S
C1871 C1870 1.385 . S
C1872 C1870 1.478 . S
C1872 C1874 1.381 . S
C1872 C1878 1.383 . S
C1873 C1869 1.495 . S
C1873 H1879 0.959 . S
C1873 H1880 0.961 . S
C1873 H1881 0.960 . S
C1874 C1872 1.381 . S
C1874 C1875 1.394 . S
C1874 H1882 0.930 . S
C1875 C1874 1.394 . S
C1875 C1876 1.383 . S
C1875 H1883 0.929 . S
C1876 C1875 1.383 . S
C1876 C1877 1.377 . S
C1877 H1861 0.930 . S
C1877 C1876 1.377 . S
C1877 C1878 1.379 . S
C1878 H1862 0.931 . S
C1878 C1872 1.383 . S
C1878 C1877 1.379 . S
H1879 C1873 0.959 . S
H1880 C1873 0.961 . S
H1881 C1873 0.960 . S
H1882 C1874 0.930 . S
H1883 C1875 0.929 . S
H1884 C1892 0.929 . S
H1885 C1894 0.930 . S
H1886 C1896 0.930 . S
H1887 C1899 0.929 . S
H1888 C1902 0.930 . S
H1889 C1904 0.960 . S
H1890 C1904 0.960 . S
H1891 C1904 0.960 . S
C1892 H1884 0.929 . S
C1892 C1893 1.377 . S
C1892 C1894 1.384 . S
C1893 C1892 1.377 . S
C1893 C1899 1.390 . S
C1894 H1885 0.930 . S
C1894 C1892 1.384 . S
C1894 C1895 1.372 . S
C1895 C1894 1.372 . S
C1895 C1896 1.400 . S
C1895 C1900 1.490 . S
C1896 H1886 0.930 . S
C1896 C1895 1.400 . S
C1896 C1899 1.386 . S
H1897 C1913 0.930 . S
H1898 C1914 0.931 . S
C1899 H1887 0.929 . S
C1899 C1893 1.390 . S
C1899 C1896 1.386 . S
C1900 C1895 1.490 . S
C1900 C1902 1.395 . S
C1900 C1903 1.403 . S
H1901 C1907 0.930 . S
C1902 H1888 0.930 . S
C1902 C1900 1.395 . S
C1902 C1905 1.403 . S
C1903 C1900 1.403 . S
C1903 C1904 1.524 . S
C1903 C1907 1.400 . S
C1904 H1889 0.960 . S
C1904 H1890 0.960 . S
C1904 H1891 0.960 . S
C1904 C1903 1.524 . S
C1905 C1902 1.403 . S
C1905 C1906 1.392 . S
C1905 C1909 1.495 . S
C1906 C1905 1.392 . S
C1906 C1907 1.385 . S
C1906 C1908 1.478 . S
C1907 H1901 0.930 . S
C1907 C1903 1.400 . S
C1907 C1906 1.385 . S
C1908 C1906 1.478 . S
C1908 C1910 1.381 . S
C1908 C1914 1.383 . S
C1909 C1905 1.495 . S
C1909 H1915 0.959 . S
C1909 H1916 0.961 . S
C1909 H1917 0.960 . S
C1910 C1908 1.381 . S
C1910 C1911 1.394 . S
C1910 H1918 0.930 . S
C1911 C1910 1.394 . S
C1911 C1912 1.383 . S
C1911 H1919 0.929 . S
C1912 C1911 1.383 . S
C1912 C1913 1.377 . S
C1913 H1897 0.930 . S
C1913 C1912 1.377 . S
C1913 C1914 1.379 . S
C1914 H1898 0.931 . S
C1914 C1908 1.383 . S
C1914 C1913 1.379 . S
H1915 C1909 0.959 . S
H1916 C1909 0.961 . S
H1917 C1909 0.960 . S
H1918 C1910 0.930 . S
H1919 C1911 0.929 . S
H1920 C1928 0.929 . S
H1921 C1930 0.930 . S
H1922 C1932 0.930 . S
H1923 C1935 0.929 . S
H1924 C1938 0.930 . S
H1925 C1940 0.960 . S
H1926 C1940 0.960 . S
H1927 C1940 0.960 . S
C1928 H1920 0.929 . S
C1928 C1929 1.377 . S
C1928 C1930 1.384 . S
C1929 C1928 1.377 . S
C1929 C1935 1.390 . S
C1930 H1921 0.930 . S
C1930 C1928 1.384 . S
C1930 C1931 1.372 . S
C1931 C1930 1.372 . S
C1931 C1932 1.400 . S
C1931 C1936 1.490 . S
C1932 H1922 0.930 . S
C1932 C1931 1.400 . S
C1932 C1935 1.386 . S
H1933 C1949 0.930 . S
H1934 C1950 0.931 . S
C1935 H1923 0.929 . S
C1935 C1929 1.390 . S
C1935 C1932 1.386 . S
C1936 C1931 1.490 . S
C1936 C1938 1.395 . S
C1936 C1939 1.403 . S
H1937 C1943 0.930 . S
C1938 H1924 0.930 . S
C1938 C1936 1.395 . S
C1938 C1941 1.403 . S
C1939 C1936 1.403 . S
C1939 C1940 1.524 . S
C1939 C1943 1.400 . S
C1940 H1925 0.960 . S
C1940 H1926 0.960 . S
C1940 H1927 0.960 . S
C1940 C1939 1.524 . S
C1941 C1938 1.403 . S
C1941 C1942 1.392 . S
C1941 C1945 1.495 . S
C1942 C1941 1.392 . S
C1942 C1943 1.385 . S
C1942 C1944 1.478 . S
C1943 H1937 0.930 . S
C1943 C1939 1.400 . S
C1943 C1942 1.385 . S
C1944 C1942 1.478 . S
C1944 C1946 1.381 . S
C1944 C1950 1.383 . S
C1945 C1941 1.495 . S
C1945 H1951 0.959 . S
C1945 H1952 0.961 . S
C1945 H1953 0.960 . S
C1946 C1944 1.381 . S
C1946 C1947 1.394 . S
C1946 H1954 0.930 . S
C1947 C1946 1.394 . S
C1947 C1948 1.383 . S
C1947 H1955 0.929 . S
C1948 C1947 1.383 . S
C1948 C1949 1.377 . S
C1949 H1933 0.930 . S
C1949 C1948 1.377 . S
C1949 C1950 1.379 . S
C1950 H1934 0.931 . S
C1950 C1944 1.383 . S
C1950 C1949 1.379 . S
H1951 C1945 0.959 . S
H1952 C1945 0.961 . S
H1953 C1945 0.960 . S
H1954 C1946 0.930 . S
H1955 C1947 0.929 . S
H1956 C1964 0.929 . S
H1957 C1966 0.930 . S
H1958 C1968 0.930 . S
H1959 C1971 0.929 . S
H1960 C1974 0.930 . S
H1961 C1976 0.960 . S
H1962 C1976 0.960 . S
H1963 C1976 0.960 . S
C1964 H1956 0.929 . S
C1964 C1965 1.377 . S
C1964 C1966 1.384 . S
C1965 C1964 1.377 . S
C1965 C1971 1.390 . S
C1966 H1957 0.930 . S
C1966 C1964 1.384 . S
C1966 C1967 1.372 . S
C1967 C1966 1.372 . S
C1967 C1968 1.400 . S
C1967 C1972 1.490 . S
C1968 H1958 0.930 . S
C1968 C1967 1.400 . S
C1968 C1971 1.386 . S
H1969 C1985 0.930 . S
H1970 C1986 0.931 . S
C1971 H1959 0.929 . S
C1971 C1965 1.390 . S
C1971 C1968 1.386 . S
C1972 C1967 1.490 . S
C1972 C1974 1.395 . S
C1972 C1975 1.403 . S
H1973 C1979 0.930 . S
C1974 H1960 0.930 . S
C1974 C1972 1.395 . S
C1974 C1977 1.403 . S
C1975 C1972 1.403 . S
C1975 C1976 1.524 . S
C1975 C1979 1.400 . S
C1976 H1961 0.960 . S
C1976 H1962 0.960 . S
C1976 H1963 0.960 . S
C1976 C1975 1.524 . S
C1977 C1974 1.403 . S
C1977 C1978 1.392 . S
C1977 C1981 1.495 . S
C1978 C1977 1.392 . S
C1978 C1979 1.385 . S
C1978 C1980 1.478 . S
C1979 H1973 0.930 . S
C1979 C1975 1.400 . S
C1979 C1978 1.385 . S
C1980 C1978 1.478 . S
C1980 C1982 1.381 . S
C1980 C1986 1.383 . S
C1981 C1977 1.495 . S
C1981 H1987 0.959 . S
C1981 H1988 0.961 . S
C1981 H1989 0.960 . S
C1982 C1980 1.381 . S
C1982 C1983 1.394 . S
C1982 H1990 0.930 . S
C1983 C1982 1.394 . S
C1983 C1984 1.383 . S
C1983 H1991 0.929 . S
C1984 C1983 1.383 . S
C1984 C1985 1.377 . S
C1985 H1969 0.930 . S
C1985 C1984 1.377 . S
C1985 C1986 1.379 . S
C1986 H1970 0.931 . S
C1986 C1980 1.383 . S
C1986 C1985 1.379 . S
H1987 C1981 0.959 . S
H1988 C1981 0.961 . S
H1989 C1981 0.960 . S
H1990 C1982 0.930 . S
H1991 C1983 0.929 . S
H1992 C2000 0.929 . S
H1993 C2002 0.930 . S
H1994 C2004 0.930 . S
H1995 C2007 0.929 . S
H1996 C2010 0.930 . S
H1997 C2012 0.960 . S
H1998 C2012 0.960 . S
H1999 C2012 0.960 . S
C2000 H1992 0.929 . S
C2000 C2001 1.377 . S
C2000 C2002 1.384 . S
C2001 C2000 1.377 . S
C2001 C2007 1.390 . S
C2002 H1993 0.930 . S
C2002 C2000 1.384 . S
C2002 C2003 1.372 . S
C2003 C2002 1.372 . S
C2003 C2004 1.400 . S
C2003 C2008 1.490 . S
C2004 H1994 0.930 . S
C2004 C2003 1.400 . S
C2004 C2007 1.386 . S
H2005 C2021 0.930 . S
H2006 C2022 0.931 . S
C2007 H1995 0.929 . S
C2007 C2001 1.390 . S
C2007 C2004 1.386 . S
C2008 C2003 1.490 . S
C2008 C2010 1.395 . S
C2008 C2011 1.403 . S
H2009 C2015 0.930 . S
C2010 H1996 0.930 . S
C2010 C2008 1.395 . S
C2010 C2013 1.403 . S
C2011 C2008 1.403 . S
C2011 C2012 1.524 . S
C2011 C2015 1.400 . S
C2012 H1997 0.960 . S
C2012 H1998 0.960 . S
C2012 H1999 0.960 . S
C2012 C2011 1.524 . S
C2013 C2010 1.403 . S
C2013 C2014 1.392 . S
C2013 C2017 1.495 . S
C2014 C2013 1.392 . S
C2014 C2015 1.385 . S
C2014 C2016 1.478 . S
C2015 H2009 0.930 . S
C2015 C2011 1.400 . S
C2015 C2014 1.385 . S
C2016 C2014 1.478 . S
C2016 C2018 1.381 . S
C2016 C2022 1.383 . S
C2017 C2013 1.495 . S
C2017 H2023 0.959 . S
C2017 H2024 0.961 . S
C2017 H2025 0.960 . S
C2018 C2016 1.381 . S
C2018 C2019 1.394 . S
C2018 H2026 0.930 . S
C2019 C2018 1.394 . S
C2019 C2020 1.383 . S
C2019 H2027 0.929 . S
C2020 C2019 1.383 . S
C2020 C2021 1.377 . S
C2021 H2005 0.930 . S
C2021 C2020 1.377 . S
C2021 C2022 1.379 . S
C2022 H2006 0.931 . S
C2022 C2016 1.383 . S
C2022 C2021 1.379 . S
H2023 C2017 0.959 . S
H2024 C2017 0.961 . S
H2025 C2017 0.960 . S
H2026 C2018 0.930 . S
H2027 C2019 0.929 . S
H2028 C2036 0.929 . S
H2029 C2038 0.930 . S
H2030 C2040 0.930 . S
H2031 C2043 0.929 . S
H2032 C2046 0.930 . S
H2033 C2048 0.960 . S
H2034 C2048 0.960 . S
H2035 C2048 0.960 . S
C2036 H2028 0.929 . S
C2036 C2037 1.377 . S
C2036 C2038 1.384 . S
C2037 C2036 1.377 . S
C2037 C2043 1.390 . S
C2038 H2029 0.930 . S
C2038 C2036 1.384 . S
C2038 C2039 1.372 . S
C2039 C2038 1.372 . S
C2039 C2040 1.400 . S
C2039 C2044 1.490 . S
C2040 H2030 0.930 . S
C2040 C2039 1.400 . S
C2040 C2043 1.386 . S
H2041 C2057 0.930 . S
H2042 C2058 0.931 . S
C2043 H2031 0.929 . S
C2043 C2037 1.390 . S
C2043 C2040 1.386 . S
C2044 C2039 1.490 . S
C2044 C2046 1.395 . S
C2044 C2047 1.403 . S
H2045 C2051 0.930 . S
C2046 H2032 0.930 . S
C2046 C2044 1.395 . S
C2046 C2049 1.403 . S
C2047 C2044 1.403 . S
C2047 C2048 1.524 . S
C2047 C2051 1.400 . S
C2048 H2033 0.960 . S
C2048 H2034 0.960 . S
C2048 H2035 0.960 . S
C2048 C2047 1.524 . S
C2049 C2046 1.403 . S
C2049 C2050 1.392 . S
C2049 C2053 1.495 . S
C2050 C2049 1.392 . S
C2050 C2051 1.385 . S
C2050 C2052 1.478 . S
C2051 H2045 0.930 . S
C2051 C2047 1.400 . S
C2051 C2050 1.385 . S
C2052 C2050 1.478 . S
C2052 C2054 1.381 . S
C2052 C2058 1.383 . S
C2053 C2049 1.495 . S
C2053 H2059 0.959 . S
C2053 H2060 0.961 . S
C2053 H2061 0.960 . S
C2054 C2052 1.381 . S
C2054 C2055 1.394 . S
C2054 H2062 0.930 . S
C2055 C2054 1.394 . S
C2055 C2056 1.383 . S
C2055 H2063 0.929 . S
C2056 C2055 1.383 . S
C2056 C2057 1.377 . S
C2057 H2041 0.930 . S
C2057 C2056 1.377 . S
C2057 C2058 1.379 . S
C2058 H2042 0.931 . S
C2058 C2052 1.383 . S
C2058 C2057 1.379 . S
H2059 C2053 0.959 . S
H2060 C2053 0.961 . S
H2061 C2053 0.960 . S
H2062 C2054 0.930 . S
H2063 C2055 0.929 . S
C345 C9 1.844 . S
C364 C107 1.844 . S
C381 C121 1.841 . S
C400 C23 1.841 . S
C417 C37 1.841 . S
C436 C135 1.842 . S
C453 C51 1.842 . S
C472 C149 1.832 . S
C489 C163 1.841 . S
C508 C65 1.835 . S
C525 C79 1.844 . S
C544 C93 1.833 . S
C561 C177 1.844 . S
C580 C275 1.836 . S
C597 C191 1.843 . S
C616 C289 1.842 . S
C633 C303 1.845 . S
C652 C205 1.831 . S
C669 C219 1.843 . S
C688 C317 1.843 . S
C705 C233 1.844 . S
C724 C331 1.840 . S
C741 C261 1.841 . S
C760 C247 1.847 . S
C777 C6 1.496 . S
C796 C118 1.503 . S
C813 C132 1.503 . S
C832 C20 1.506 . S
C849 C146 1.500 . S
C868 C34 1.482 . S
C885 C48 1.504 . S
C904 C160 1.478 . S
C921 C62 1.499 . S
C940 C90 1.486 . S
C957 C76 1.505 . S
C976 C104 1.481 . S
C993 C286 1.504 . S
C1012 C174 1.512 . S
C1029 C188 1.504 . S
C1048 C300 1.514 . S
C1065 C314 1.503 . S
C1084 C202 1.511 . S
C1101 C328 1.501 . S
C1120 C216 1.500 . S
C1137 C258 1.497 . S
C1156 C230 1.481 . S
C1173 C244 1.504 . S
C1192 C272 1.513 . S
C1209 C7 1.577 . S
C1228 C217 1.545 . S
C1245 C231 1.579 . S
C1264 C21 1.551 . S
C1281 C245 1.576 . S
C1300 C35 1.546 . S
C1317 C49 1.577 . S
C1336 C175 1.582 . S
C1353 C63 1.569 . S
C1372 C189 1.570 . S
C1389 C203 1.577 . S
C1408 C77 1.581 . S
C1425 C301 1.571 . S
C1444 C91 1.595 . S
C1461 C315 1.578 . S
C1480 C105 1.547 . S
C1497 C329 1.578 . S
C1516 C119 1.549 . S
C1533 C259 1.573 . S
C1552 C133 1.595 . S
C1569 C147 1.579 . S
C1588 C273 1.567 . S
C1605 C161 1.578 . S
C1624 C287 1.549 . S
C1641 C8 1.305 . S
C1660 C148 1.306 . S
C1677 C162 1.306 . S
C1696 C22 1.305 . S
C1713 C92 1.305 . S
C1732 C36 1.303 . S
C1749 C50 1.305 . S
C1768 C106 1.299 . S
C1785 C64 1.305 . S
C1804 C120 1.303 . S
C1821 C78 1.305 . S
C1840 C134 1.300 . S
C1857 C176 1.305 . S
C1876 C316 1.299 . S
C1893 C190 1.306 . S
C1912 C330 1.306 . S
C1929 C204 1.306 . S
C1948 C260 1.306 . S
C1965 C274 1.306 . S
C1984 C218 1.306 . S
C2001 C232 1.304 . S
C2020 C288 1.299 . S
C2037 C246 1.305 . S
C2056 C302 1.302 . S
