# Generated by pormake.
# Topology whz, (6)-cn, num edge types: 1
# Building blocks:
#     Node 0, Type 0, BuildingBlock: HISSIN_clean_sbu_0, # of connection points: 6
#     Node 1, Type 0, BuildingBlock: HISSIN_clean_sbu_0, # of connection points: 6
#     Node 2, Type 0, BuildingBlock: HISSIN_clean_sbu_0, # of connection points: 6
#     Node 3, Type 0, BuildingBlock: HISSIN_clean_sbu_0, # of connection points: 6
#     Node 4, Type 0, BuildingBlock: HISSIN_clean_sbu_0, # of connection points: 6
#     Node 5, Type 0, BuildingBlock: HISSIN_clean_sbu_0, # of connection points: 6
#     Node 6, Type 0, BuildingBlock: HISSIN_clean_sbu_0, # of connection points: 6
#     Node 7, Type 0, BuildingBlock: HISSIN_clean_sbu_0, # of connection points: 6
#     Node 8, Type 0, BuildingBlock: HISSIN_clean_sbu_0, # of connection points: 6
#     Node 9, Type 0, BuildingBlock: HISSIN_clean_sbu_0, # of connection points: 6
#     Node 10, Type 0, BuildingBlock: HISSIN_clean_sbu_0, # of connection points: 6
#     Node 11, Type 0, BuildingBlock: HISSIN_clean_sbu_0, # of connection points: 6
#     Node 12, Type 0, BuildingBlock: HISSIN_clean_sbu_0, # of connection points: 6
#     Node 13, Type 0, BuildingBlock: HISSIN_clean_sbu_0, # of connection points: 6
#     Node 14, Type 0, BuildingBlock: HISSIN_clean_sbu_0, # of connection points: 6
#     Node 15, Type 0, BuildingBlock: HISSIN_clean_sbu_0, # of connection points: 6
#     Edge 16, Type (0, 0), BuildingBlock: UVAHIK_clean_linker_0, # of connection points: 2
#     Edge 17, Type (0, 0), BuildingBlock: UVAHIK_clean_linker_0, # of connection points: 2
#     Edge 18, Type (0, 0), BuildingBlock: UVAHIK_clean_linker_0, # of connection points: 2
#     Edge 19, Type (0, 0), BuildingBlock: UVAHIK_clean_linker_0, # of connection points: 2
#     Edge 20, Type (0, 0), BuildingBlock: UVAHIK_clean_linker_0, # of connection points: 2
#     Edge 21, Type (0, 0), BuildingBlock: UVAHIK_clean_linker_0, # of connection points: 2
#     Edge 22, Type (0, 0), BuildingBlock: UVAHIK_clean_linker_0, # of connection points: 2
#     Edge 23, Type (0, 0), BuildingBlock: UVAHIK_clean_linker_0, # of connection points: 2
#     Edge 24, Type (0, 0), BuildingBlock: UVAHIK_clean_linker_0, # of connection points: 2
#     Edge 25, Type (0, 0), BuildingBlock: UVAHIK_clean_linker_0, # of connection points: 2
#     Edge 26, Type (0, 0), BuildingBlock: UVAHIK_clean_linker_0, # of connection points: 2
#     Edge 27, Type (0, 0), BuildingBlock: UVAHIK_clean_linker_0, # of connection points: 2
#     Edge 28, Type (0, 0), BuildingBlock: UVAHIK_clean_linker_0, # of connection points: 2
#     Edge 29, Type (0, 0), BuildingBlock: UVAHIK_clean_linker_0, # of connection points: 2
#     Edge 30, Type (0, 0), BuildingBlock: UVAHIK_clean_linker_0, # of connection points: 2
#     Edge 31, Type (0, 0), BuildingBlock: UVAHIK_clean_linker_0, # of connection points: 2
#     Edge 32, Type (0, 0), BuildingBlock: UVAHIK_clean_linker_0, # of connection points: 2
#     Edge 33, Type (0, 0), BuildingBlock: UVAHIK_clean_linker_0, # of connection points: 2
#     Edge 34, Type (0, 0), BuildingBlock: UVAHIK_clean_linker_0, # of connection points: 2
#     Edge 35, Type (0, 0), BuildingBlock: UVAHIK_clean_linker_0, # of connection points: 2
#     Edge 36, Type (0, 0), BuildingBlock: UVAHIK_clean_linker_0, # of connection points: 2
#     Edge 37, Type (0, 0), BuildingBlock: UVAHIK_clean_linker_0, # of connection points: 2
#     Edge 38, Type (0, 0), BuildingBlock: UVAHIK_clean_linker_0, # of connection points: 2
#     Edge 39, Type (0, 0), BuildingBlock: UVAHIK_clean_linker_0, # of connection points: 2
#     Edge 40, Type (0, 0), BuildingBlock: UVAHIK_clean_linker_0, # of connection points: 2
#     Edge 41, Type (0, 0), BuildingBlock: UVAHIK_clean_linker_0, # of connection points: 2
#     Edge 42, Type (0, 0), BuildingBlock: UVAHIK_clean_linker_0, # of connection points: 2
#     Edge 43, Type (0, 0), BuildingBlock: UVAHIK_clean_linker_0, # of connection points: 2
#     Edge 44, Type (0, 0), BuildingBlock: UVAHIK_clean_linker_0, # of connection points: 2
#     Edge 45, Type (0, 0), BuildingBlock: UVAHIK_clean_linker_0, # of connection points: 2
#     Edge 46, Type (0, 0), BuildingBlock: UVAHIK_clean_linker_0, # of connection points: 2
#     Edge 47, Type (0, 0), BuildingBlock: UVAHIK_clean_linker_0, # of connection points: 2
#     Edge 48, Type (0, 0), BuildingBlock: UVAHIK_clean_linker_0, # of connection points: 2
#     Edge 49, Type (0, 0), BuildingBlock: UVAHIK_clean_linker_0, # of connection points: 2
#     Edge 50, Type (0, 0), BuildingBlock: UVAHIK_clean_linker_0, # of connection points: 2
#     Edge 51, Type (0, 0), BuildingBlock: UVAHIK_clean_linker_0, # of connection points: 2
#     Edge 52, Type (0, 0), BuildingBlock: UVAHIK_clean_linker_0, # of connection points: 2
#     Edge 53, Type (0, 0), BuildingBlock: UVAHIK_clean_linker_0, # of connection points: 2
#     Edge 54, Type (0, 0), BuildingBlock: UVAHIK_clean_linker_0, # of connection points: 2
#     Edge 55, Type (0, 0), BuildingBlock: UVAHIK_clean_linker_0, # of connection points: 2
#     Edge 56, Type (0, 0), BuildingBlock: UVAHIK_clean_linker_0, # of connection points: 2
#     Edge 57, Type (0, 0), BuildingBlock: UVAHIK_clean_linker_0, # of connection points: 2
#     Edge 58, Type (0, 0), BuildingBlock: UVAHIK_clean_linker_0, # of connection points: 2
#     Edge 59, Type (0, 0), BuildingBlock: UVAHIK_clean_linker_0, # of connection points: 2
#     Edge 60, Type (0, 0), BuildingBlock: UVAHIK_clean_linker_0, # of connection points: 2
#     Edge 61, Type (0, 0), BuildingBlock: UVAHIK_clean_linker_0, # of connection points: 2
#     Edge 62, Type (0, 0), BuildingBlock: UVAHIK_clean_linker_0, # of connection points: 2
#     Edge 63, Type (0, 0), BuildingBlock: UVAHIK_clean_linker_0, # of connection points: 2
# Relax obj value: 0.627
# Max RMSD: 0.303
# Mean RMSD: 0.303
data_MOF--net-whz--node1-HISSIN_clean_sbu_0--edge1-UVAHIK_clean_linker_0
_symmetry_space_group_name_H-M    P1
_symmetry_Int_Tables_number       1
_symmetry_cell_setting            triclinic
loop_
_symmetry_equiv_pos_as_xyz
'x, y, z'
_cell_length_a     45.094637
_cell_length_b     45.283805
_cell_length_c     87.913561
_cell_angle_alpha  90.110023
_cell_angle_beta   89.940518
_cell_angle_gamma 90.022116
loop_
_atom_site_label
_atom_site_type_symbol
_atom_site_fract_x
_atom_site_fract_y
_atom_site_fract_z
_atom_type_partial_charge
Eu0 Eu 0.32204 0.19185 0.16763 0.0
Eu1 Eu 0.31692 0.15947 0.13415 0.0
C2 C 0.346 0.1276 0.16387 0.0
C3 C 0.32643 0.25155 0.19762 0.0
C4 C 0.3506 0.26512 0.20481 0.0
C5 C 0.29939 0.29792 0.19889 0.0
C6 C 0.3491 0.29476 0.20917 0.0
C7 C 0.30103 0.26837 0.1944 0.0
C8 C 0.3232 0.31136 0.20657 0.0
C9 C 0.32836 0.22015 0.19326 0.0
O10 O 0.27136 0.15649 0.14464 0.0
O11 O 0.28642 0.15641 0.16957 0.0
C12 C 0.26635 0.15051 0.15907 0.0
O13 O 0.28822 0.21888 0.15574 0.0
O14 O 0.30463 0.12211 0.11937 0.0
O15 O 0.32849 0.15932 0.10997 0.0
O16 O 0.29511 0.20489 0.13074 0.0
C17 C 0.28322 0.22235 0.1412 0.0
O18 O 0.35132 0.21614 0.15109 0.0
O19 O 0.36438 0.17539 0.13771 0.0
O20 O 0.32804 0.12397 0.15213 0.0
O21 O 0.30378 0.20711 0.18921 0.0
O22 O 0.35055 0.21307 0.18447 0.0
O23 O 0.35372 0.15408 0.16813 0.0
C24 C 0.30114 0.12957 0.09229 0.0
C25 C 0.27942 0.14912 0.08682 0.0
C26 C 0.29852 0.10264 0.06822 0.0
C27 C 0.26746 0.14548 0.07211 0.0
C28 C 0.31025 0.10617 0.08289 0.0
C29 C 0.27719 0.1224 0.06249 0.0
C30 C 0.31628 0.13376 0.10719 0.0
C31 C 0.37101 0.2018 0.14297 0.0
H32 H 0.37059 0.25269 0.20719 0.0
H33 H 0.27894 0.30981 0.19688 0.0
H34 H 0.36804 0.30452 0.21484 0.0
H35 H 0.28218 0.25863 0.18864 0.0
H36 H 0.2721 0.16747 0.0938 0.0
H37 H 0.30626 0.08433 0.06134 0.0
H38 H 0.25122 0.16126 0.06812 0.0
H39 H 0.32697 0.09079 0.0868 0.0
Eu40 Eu 0.58249 0.55551 0.41567 0.0
Eu41 Eu 0.6207 0.55469 0.38352 0.0
C42 C 0.64763 0.58106 0.41533 0.0
C43 C 0.5181 0.55876 0.44326 0.0
C44 C 0.50425 0.58566 0.44688 0.0
C45 C 0.47069 0.53378 0.44614 0.0
C46 C 0.47401 0.58654 0.45032 0.0
C47 C 0.50088 0.53291 0.44265 0.0
C48 C 0.45703 0.56049 0.45035 0.0
C49 C 0.55038 0.55782 0.44027 0.0
O50 O 0.62163 0.50814 0.39253 0.0
O51 O 0.61767 0.51978 0.4178 0.0
C52 C 0.6256 0.50134 0.40692 0.0
O53 O 0.55411 0.52773 0.40075 0.0
O54 O 0.65925 0.54185 0.36963 0.0
O55 O 0.62536 0.56995 0.36005 0.0
O56 O 0.57555 0.53491 0.37714 0.0
C57 C 0.55421 0.52453 0.38597 0.0
O58 O 0.56195 0.58901 0.39999 0.0
O59 O 0.60459 0.60174 0.38785 0.0
O60 O 0.65356 0.56527 0.403 0.0
O61 O 0.56115 0.53329 0.43473 0.0
O62 O 0.56189 0.58111 0.43386 0.0
O63 O 0.62029 0.58649 0.41933 0.0
C64 C 0.65369 0.54124 0.34242 0.0
C65 C 0.63313 0.5207 0.33668 0.0
C66 C 0.68087 0.53805 0.31841 0.0
C67 C 0.63639 0.50905 0.32187 0.0
C68 C 0.67767 0.54951 0.33316 0.0
C69 C 0.66014 0.51785 0.31241 0.0
C70 C 0.65004 0.55575 0.35753 0.0
C71 C 0.57787 0.6087 0.39273 0.0
H72 H 0.51691 0.60598 0.44736 0.0
H73 H 0.45847 0.5132 0.44633 0.0
H74 H 0.46411 0.60749 0.45344 0.0
H75 H 0.5108 0.5118 0.43986 0.0
H76 H 0.61433 0.51403 0.34354 0.0
H77 H 0.69973 0.54504 0.31168 0.0
H78 H 0.61983 0.49373 0.3177 0.0
H79 H 0.69385 0.56531 0.33729 0.0
Eu80 Eu 0.24213 0.82013 0.66231 0.0
Eu81 Eu 0.23031 0.86138 0.63236 0.0
C82 C 0.21857 0.88577 0.66714 0.0
C83 C 0.25448 0.74923 0.68555 0.0
C84 C 0.22712 0.73508 0.68789 0.0
C85 C 0.2798 0.7028 0.69026 0.0
C86 C 0.22622 0.70513 0.69179 0.0
C87 C 0.28069 0.73264 0.68643 0.0
C88 C 0.25264 0.68886 0.69342 0.0
C89 C 0.25677 0.78128 0.6828 0.0
O90 O 0.27231 0.88105 0.64146 0.0
O91 O 0.2857 0.84439 0.65818 0.0
C92 C 0.29144 0.86914 0.65088 0.0
O93 O 0.23675 0.79316 0.64124 0.0
O94 O 0.23098 0.90142 0.61821 0.0
O95 O 0.21489 0.86032 0.60882 0.0
O96 O 0.26352 0.82439 0.62729 0.0
C97 C 0.25638 0.79709 0.63064 0.0
O98 O 0.1921 0.8199 0.66049 0.0
O99 O 0.18875 0.83341 0.63535 0.0
O100 O 0.2091 0.88604 0.6528 0.0
O101 O 0.27391 0.789 0.67153 0.0
O102 O 0.23279 0.79745 0.68374 0.0
O103 O 0.23629 0.86507 0.67222 0.0
C104 C 0.23495 0.89462 0.59113 0.0
C105 C 0.26392 0.8857 0.58744 0.0
C106 C 0.22932 0.91343 0.56527 0.0
C107 C 0.27545 0.89054 0.57274 0.0
C108 C 0.21792 0.90866 0.57992 0.0
C109 C 0.25823 0.9043 0.56134 0.0
C110 C 0.22106 0.88792 0.6061 0.0
C111 C 0.17679 0.82247 0.64782 0.0
H112 H 0.20652 0.74727 0.68713 0.0
H113 H 0.30061 0.69119 0.69167 0.0
H114 H 0.20494 0.69496 0.69407 0.0
H115 H 0.30206 0.74304 0.68466 0.0
H116 H 0.27749 0.87467 0.59585 0.0
H117 H 0.215 0.92355 0.55689 0.0
H118 H 0.29791 0.88348 0.57033 0.0
H119 H 0.1954 0.91547 0.58241 0.0
Eu120 Eu 0.96012 0.47817 0.91391 0.0
Eu121 Eu 0.92222 0.47048 0.88232 0.0
C122 C 0.89279 0.45978 0.91555 0.0
C123 C 1.01723 0.46331 0.94405 0.0
C124 C 0.02291 0.43546 0.93762 0.0
C125 C 0.04947 0.45141 0.96511 0.0
C126 C 0.04101 0.41523 0.94522 0.0
C127 C 0.0313 0.4715 0.95756 0.0
C128 C 0.05375 0.42268 0.9593 0.0
C129 C 0.99419 0.48241 0.9377 0.0
O130 O 0.90631 0.51381 0.89189 0.0
O131 O 0.94409 0.52461 0.90863 0.0
C132 C 0.92 0.53225 0.90109 0.0
O133 O 0.99034 0.47233 0.89399 0.0
O134 O 0.88345 0.47624 0.8674 0.0
O135 O 0.92313 0.45539 0.85872 0.0
O136 O 0.96266 0.50005 0.87843 0.0
C137 C 0.98898 0.4917 0.88311 0.0
O138 O 0.95744 0.42874 0.91072 0.0
O139 O 0.94779 0.42755 0.8851 0.0
O140 O 0.89489 0.44878 0.90159 0.0
O141 O 1.00028 0.49509 0.92473 0.0
O142 O 0.96751 0.47126 0.93804 0.0
O143 O 0.91239 0.47869 0.92058 0.0
C144 C 0.89357 0.48115 0.84043 0.0
C145 C 0.87097 0.50202 0.8379 0.0
C146 C 0.90736 0.48545 0.81357 0.0
C147 C 0.86663 0.5144 0.82339 0.0
C148 C 0.91169 0.47312 0.82803 0.0
C149 C 0.88461 0.50612 0.81093 0.0
C150 C 0.89694 0.46572 0.8554 0.0
C151 C 0.95652 0.41444 0.89769 0.0
H152 H 1.01221 0.4289 0.92712 0.0
H153 H 0.05844 0.45779 0.97606 0.0
H154 H 0.04399 0.39339 0.94041 0.0
H155 H 0.02702 0.49287 0.96267 0.0
H156 H 0.85625 0.50844 0.84706 0.0
H157 H 0.92202 0.47875 0.80443 0.0
H158 H 0.84864 0.52994 0.82186 0.0
H159 H 0.92909 0.45688 0.82944 0.0
Eu160 Eu 0.72202 0.86461 0.92017 0.0
Eu161 Eu 0.71889 0.83493 0.88599 0.0
C162 C 0.75816 0.80363 0.91165 0.0
C163 C 0.73639 0.89278 0.96239 0.0
C164 C 0.76064 0.87552 0.96702 0.0
C165 C 0.73746 0.91778 0.98701 0.0
C166 C 0.77319 0.87941 0.98157 0.0
C167 C 0.72511 0.91397 0.97251 0.0
C168 C 0.7617 0.90057 0.99187 0.0
C169 C 0.72113 0.88841 0.94756 0.0
O170 O 0.68707 0.80948 0.90082 0.0
O171 O 0.67495 0.84778 0.91643 0.0
C172 C 0.66802 0.82249 0.90992 0.0
O173 O 0.71116 0.90056 0.90235 0.0
O174 O 0.70006 0.80378 0.86959 0.0
O175 O 0.73162 0.83659 0.86212 0.0
O176 O 0.68428 0.86983 0.88763 0.0
C177 C 0.69221 0.8966 0.89108 0.0
O178 O 0.7685 0.86869 0.91108 0.0
O179 O 0.75531 0.86977 0.88592 0.0
O180 O 0.75431 0.8085 0.8971 0.0
O181 O 0.73146 0.90182 0.93554 0.0
O182 O 0.71105 0.86212 0.94438 0.0
O183 O 0.74452 0.81923 0.92234 0.0
C184 C 0.69263 0.82563 0.84562 0.0
C185 C 0.67197 0.84843 0.84784 0.0
C186 C 0.67981 0.82415 0.81892 0.0
C187 C 0.65577 0.85955 0.83557 0.0
C188 C 0.69607 0.81321 0.83117 0.0
C189 C 0.65988 0.84783 0.82093 0.0
C190 C 0.71245 0.81666 0.85797 0.0
C191 C 0.77465 0.87496 0.89684 0.0
H192 H 0.76971 0.85893 0.95944 0.0
H193 H 0.7274 0.93385 0.99454 0.0
H194 H 0.79201 0.86591 0.98471 0.0
H195 H 0.70622 0.92736 0.96929 0.0
H196 H 0.66904 0.85816 0.85898 0.0
H197 H 0.68395 0.81499 0.80773 0.0
H198 H 0.6405 0.87763 0.83746 0.0
H199 H 0.7121 0.79576 0.82924 0.0
Eu200 Eu 0.42685 0.47525 0.66982 0.0
Eu201 Eu 0.45648 0.47135 0.63573 0.0
C202 C 0.49036 0.50847 0.662 0.0
C203 C 0.39885 0.49191 0.71188 0.0
C204 C 0.42157 0.49189 0.72286 0.0
C205 C 0.36643 0.51585 0.73059 0.0
C206 C 0.41671 0.5034 0.73751 0.0
C207 C 0.37131 0.50431 0.71593 0.0
C208 C 0.38893 0.51519 0.74172 0.0
C209 C 0.40224 0.47588 0.69706 0.0
O210 O 0.48412 0.44127 0.65027 0.0
O211 O 0.44641 0.42907 0.66645 0.0
C212 C 0.47199 0.42267 0.6599 0.0
O213 O 0.39033 0.46333 0.65232 0.0
O214 O 0.46938 0.44439 0.61624 0.0
O215 O 0.47121 0.492 0.61465 0.0
O216 O 0.42146 0.43689 0.63767 0.0
C217 C 0.39449 0.44437 0.64111 0.0
O218 O 0.42379 0.5212 0.66021 0.0
O219 O 0.42022 0.50621 0.63548 0.0
O220 O 0.48763 0.50175 0.64754 0.0
O221 O 0.38958 0.48659 0.68492 0.0
O222 O 0.42765 0.46347 0.69393 0.0
O223 O 0.4717 0.49884 0.67255 0.0
C224 C 0.45172 0.46618 0.59396 0.0
C225 C 0.42089 0.46621 0.59617 0.0
C226 C 0.4441 0.46755 0.56674 0.0
C227 C 0.40175 0.46714 0.58374 0.0
C228 C 0.46327 0.46658 0.57921 0.0
C229 C 0.41309 0.46811 0.56887 0.0
C230 C 0.47135 0.46707 0.6072 0.0
C231 C 0.41629 0.52649 0.64604 0.0
H232 H 0.44295 0.48217 0.7203 0.0
H233 H 0.34488 0.52508 0.73324 0.0
H234 H 0.43454 0.50206 0.74572 0.0
H235 H 0.35318 0.5044 0.70786 0.0
H236 H 0.41166 0.46609 0.60754 0.0
H237 H 0.45365 0.46891 0.55546 0.0
H238 H 0.37812 0.46751 0.5858 0.0
H239 H 0.48702 0.46678 0.57736 0.0
Eu240 Eu 0.8171 0.1672 0.41993 0.0
Eu241 Eu 0.81264 0.20653 0.38864 0.0
C242 C 0.78339 0.23087 0.41928 0.0
C243 C 0.80888 0.13455 0.46113 0.0
C244 C 0.78444 0.15123 0.46609 0.0
C245 C 0.81218 0.11261 0.48641 0.0
C246 C 0.77397 0.1486 0.48113 0.0
C247 C 0.82252 0.11521 0.47142 0.0
C248 C 0.78782 0.12935 0.49157 0.0
C249 C 0.82129 0.13728 0.44554 0.0
O250 O 0.84817 0.22667 0.40356 0.0
O251 O 0.86333 0.18368 0.41432 0.0
C252 C 0.8691 0.21081 0.40994 0.0
O253 O 0.82813 0.13554 0.40007 0.0
O254 O 0.78708 0.22553 0.37006 0.0
O255 O 0.83427 0.23381 0.37146 0.0
O256 O 0.84321 0.16972 0.3824 0.0
C257 C 0.84106 0.14234 0.38698 0.0
O258 O 0.76956 0.16504 0.41196 0.0
O259 O 0.7793 0.16914 0.38655 0.0
O260 O 0.78131 0.22879 0.40452 0.0
O261 O 0.80474 0.12924 0.43409 0.0
O262 O 0.83647 0.16106 0.44252 0.0
O263 O 0.79981 0.21261 0.42738 0.0
C264 C 0.80386 0.2734 0.36318 0.0
C265 C 0.82775 0.29313 0.36165 0.0
C266 C 0.76971 0.31444 0.35987 0.0
C267 C 0.82266 0.32312 0.359 0.0
C268 C 0.77478 0.2845 0.36254 0.0
C269 C 0.79357 0.33399 0.3577 0.0
C270 C 0.80925 0.2414 0.36516 0.0
C271 C 0.76178 0.16071 0.39772 0.0
H272 H 0.77364 0.16645 0.45838 0.0
H273 H 0.82319 0.09721 0.49392 0.0
H274 H 0.75536 0.16208 0.48466 0.0
H275 H 0.8414 0.10208 0.46787 0.0
H276 H 0.85042 0.2853 0.36216 0.0
H277 H 0.74702 0.3219 0.35864 0.0
H278 H 0.84151 0.33764 0.35745 0.0
H279 H 0.75585 0.26994 0.36366 0.0
Eu280 Eu 0.11785 0.55253 0.17155 0.0
Eu281 Eu 0.08225 0.54614 0.13927 0.0
C282 C 0.05773 0.5148 0.16855 0.0
C283 C 0.14933 0.53975 0.21288 0.0
C284 C 0.12706 0.54039 0.22412 0.0
C285 C 0.18157 0.51437 0.2311 0.0
C286 C 0.13202 0.52837 0.23863 0.0
C287 C 0.1766 0.52644 0.21658 0.0
C288 C 0.15945 0.51537 0.24244 0.0
C289 C 0.14553 0.55529 0.19797 0.0
O290 O 0.06017 0.58455 0.15143 0.0
O291 O 0.09908 0.59819 0.16677 0.0
C292 C 0.07366 0.60431 0.16004 0.0
O293 O 0.14933 0.56656 0.15202 0.0
O294 O 0.08135 0.54714 0.11455 0.0
O295 O 0.04161 0.53488 0.12699 0.0
O296 O 0.11365 0.58355 0.13588 0.0
C297 C 0.14152 0.5816 0.13974 0.0
O298 O 0.12399 0.50521 0.16379 0.0
O299 O 0.12111 0.51452 0.13833 0.0
O300 O 0.06566 0.51023 0.15448 0.0
O301 O 0.15689 0.5433 0.18577 0.0
O302 O 0.12015 0.56795 0.19513 0.0
O303 O 0.07122 0.53508 0.17677 0.0
C304 C 0.05357 0.50683 0.10522 0.0
C305 C 0.02604 0.4956 0.10062 0.0
C306 C 0.07781 0.46387 0.09421 0.0
C307 C 0.0244 0.46875 0.09276 0.0
C308 C 0.07938 0.49043 0.1022 0.0
C309 C 0.05034 0.45278 0.08923 0.0
C310 C 0.05524 0.5347 0.11388 0.0
C311 C 0.1295 0.49754 0.14963 0.0
H312 H 0.1059 0.55078 0.22185 0.0
H313 H 0.20284 0.50426 0.23341 0.0
H314 H 0.11451 0.53011 0.24702 0.0
H315 H 0.19438 0.52582 0.2083 0.0
H316 H 1.00581 0.50759 0.10311 0.0
H317 H 0.09832 0.45259 0.09152 0.0
H318 H 1.00282 0.46067 0.08932 0.0
H319 H 0.10095 0.49822 0.10586 0.0
Eu320 Eu 0.81573 0.71367 0.66664 0.0
Eu321 Eu 0.81683 0.67767 0.6341 0.0
C322 C 0.84319 0.65018 0.66592 0.0
C323 C 0.79514 0.77143 0.6958 0.0
C324 C 0.80786 0.79765 0.70119 0.0
C325 C 0.74624 0.79338 0.69844 0.0
C326 C 0.78997 0.82154 0.70525 0.0
C327 C 0.76421 0.76959 0.69421 0.0
C328 C 0.7589 0.81957 0.70415 0.0
C329 C 0.81466 0.74736 0.69072 0.0
O330 O 0.76987 0.67376 0.6428 0.0
O331 O 0.77968 0.67871 0.66829 0.0
C332 C 0.76225 0.66998 0.65712 0.0
O333 O 0.77968 0.7336 0.65287 0.0
O334 O 0.80465 0.64017 0.61945 0.0
O335 O 0.83207 0.67522 0.61047 0.0
O336 O 0.799 0.72439 0.6293 0.0
C337 C 0.78116 0.73947 0.63837 0.0
O338 O 0.85198 0.73275 0.65189 0.0
O339 O 0.86446 0.69113 0.63893 0.0
O340 O 0.82777 0.64466 0.65339 0.0
O341 O 0.80375 0.72064 0.69049 0.0
O342 O 0.83007 0.75327 0.67858 0.0
O343 O 0.84814 0.67731 0.67036 0.0
C344 C 0.80287 0.6481 0.59221 0.0
C345 C 0.81249 0.66514 0.57975 0.0
C346 C 0.76992 0.62135 0.57482 0.0
C347 C 0.80114 0.66029 0.56507 0.0
C348 C 0.78132 0.62619 0.58951 0.0
C349 C 0.77989 0.63808 0.56229 0.0
C350 C 0.81777 0.65086 0.6074 0.0
C351 C 0.87187 0.71687 0.64471 0.0
H352 H 0.83173 0.79973 0.70215 0.0
H353 H 0.72242 0.79089 0.69763 0.0
H354 H 0.80052 0.84152 0.70934 0.0
H355 H 0.75391 0.74977 0.68975 0.0
H356 H 0.82933 0.68195 0.58127 0.0
H357 H 0.75392 0.60379 0.57322 0.0
H358 H 0.80916 0.67399 0.55586 0.0
H359 H 0.77374 0.6122 0.59871 0.0
Eu360 Eu 0.08489 0.06314 0.91824 0.0
Eu361 Eu 0.11413 0.06059 0.88384 0.0
C362 C 0.14816 0.08754 0.91305 0.0
C363 C 0.09 0.06661 0.96016 0.0
C364 C 0.12077 0.06549 0.95799 0.0
C365 C 0.0977 0.06881 0.9874 0.0
C366 C 0.1399 0.06604 0.97043 0.0
C367 C 0.0785 0.06832 0.97491 0.0
C368 C 0.12876 0.06783 0.98532 0.0
C369 C 0.07041 0.06603 0.94689 0.0
O370 O 0.1152 1.01378 0.89233 0.0
O371 O 0.11896 0.02612 0.91746 0.0
C372 C 0.12247 1.00693 0.90634 0.0
O373 O 0.04961 0.03919 0.90547 0.0
O374 O 0.15135 0.05069 0.86843 0.0
O375 O 0.11214 0.07245 0.85975 0.0
O376 O 0.06865 0.03883 0.88092 0.0
C377 C 0.04761 0.03268 0.89095 0.0
O378 O 0.05877 0.09555 0.90437 0.0
O379 O 0.09683 0.10737 0.88834 0.0
O380 O 0.15113 0.06913 0.9015 0.0
O381 O 0.07237 0.08914 0.93812 0.0
O382 O 0.07062 0.04141 0.93914 0.0
O383 O 0.12169 0.09599 0.91696 0.0
C384 C 0.14187 0.04612 0.84155 0.0
C385 C 0.1201 0.02741 0.83532 0.0
C386 C 0.17074 0.04042 0.8182 0.0
C387 C 0.12361 1.01544 0.82059 0.0
C388 C 0.1673 0.05216 0.83287 0.0
C389 C 0.14883 0.02215 0.8117 0.0
C390 C 0.1381 0.06144 0.85646 0.0
C391 C 0.07153 0.11426 0.89505 0.0
H392 H 0.12998 0.06401 0.94664 0.0
H393 H 0.08805 0.06924 0.99867 0.0
H394 H 0.16341 0.06493 0.96834 0.0
H395 H 0.05476 0.06901 0.97676 0.0
H396 H 0.10017 0.02246 0.84172 0.0
H397 H 0.19071 0.04574 0.81192 0.0
H398 H 0.10617 1.00161 0.81602 0.0
H399 H 0.18442 0.06653 0.83736 0.0
Eu400 Eu 0.7255 0.32264 0.16867 0.0
Eu401 Eu 0.72883 0.35269 0.13443 0.0
C402 C 0.70114 0.38609 0.16378 0.0
C403 C 0.71927 0.32603 0.21064 0.0
C404 C 0.71781 0.35676 0.20887 0.0
C405 C 0.71575 0.33225 0.23795 0.0
C406 C 0.7152 0.37512 0.22154 0.0
C407 C 0.71824 0.31382 0.22522 0.0
C408 C 0.714 0.3632 0.23626 0.0
C409 C 0.72162 0.30718 0.19713 0.0
O410 O 0.77524 0.35764 0.1433 0.0
O411 O 0.76306 0.35637 0.16865 0.0
C412 C 0.78174 0.36297 0.15761 0.0
O413 O 0.75003 0.28784 0.1559 0.0
O414 O 0.73638 0.39026 0.11902 0.0
O415 O 0.71841 0.34933 0.1102 0.0
O416 O 0.75335 0.30855 0.13184 0.0
C417 C 0.75861 0.287 0.14165 0.0
O418 O 0.69254 0.29738 0.15457 0.0
O419 O 0.68179 0.33539 0.13846 0.0
O420 O 0.71944 0.38927 0.15218 0.0
O421 O 0.6989 0.30839 0.18801 0.0
O422 O 0.74673 0.30889 0.18981 0.0
O423 O 0.69288 0.35969 0.16774 0.0
C424 C 0.74261 0.38104 0.09218 0.0
C425 C 0.76196 0.36021 0.08563 0.0
C426 C 0.74751 0.4111 0.06926 0.0
C427 C 0.77393 0.36482 0.071 0.0
C428 C 0.73573 0.40653 0.08385 0.0
C429 C 0.76677 0.39032 0.06251 0.0
C430 C 0.72726 0.37603 0.10698 0.0
C431 C 0.67425 0.31037 0.14511 0.0
H432 H 0.71872 0.36653 0.19765 0.0
H433 H 0.71576 0.32218 0.24911 0.0
H434 H 0.71408 0.39863 0.21979 0.0
H435 H 0.71953 0.29012 0.22677 0.0
H436 H 0.76757 0.34025 0.09175 0.0
H437 H 0.74082 0.43071 0.06315 0.0
H438 H 0.78891 0.34842 0.06638 0.0
H439 H 0.72056 0.42276 0.0885 0.0
Eu440 Eu 0.45431 0.96116 0.41897 0.0
Eu441 Eu 0.42677 0.96444 0.38444 0.0
C442 C 0.39174 0.93637 0.41305 0.0
C443 C 0.44888 0.95629 0.46102 0.0
C444 C 0.41801 0.95663 0.4591 0.0
C445 C 0.44212 0.95788 0.48832 0.0
C446 C 0.39927 0.95793 0.47171 0.0
C447 C 0.46087 0.95653 0.47567 0.0
C448 C 0.41105 0.95897 0.48649 0.0
C449 C 0.46823 0.95705 0.44765 0.0
O450 O 0.42338 1.01083 0.39355 0.0
O451 O 0.41886 0.99705 0.41847 0.0
C452 C 0.41535 0.01677 0.4076 0.0
O453 O 0.48683 0.99043 0.40739 0.0
O454 O 0.38977 0.97311 0.36879 0.0
O455 O 0.43018 0.95318 0.36028 0.0
O456 O 0.4717 0.98809 0.38225 0.0
C457 C 0.49016 0.9973 0.393 0.0
O458 O 0.48197 0.92974 0.40507 0.0
O459 O 0.44481 0.91796 0.38854 0.0
O460 O 0.38894 0.95491 0.40159 0.0
O461 O 0.46609 0.93432 0.43862 0.0
O462 O 0.46814 0.98193 0.44021 0.0
O463 O 0.41821 0.92785 0.41682 0.0
C464 C 0.39886 0.97653 0.34184 0.0
C465 C 0.41565 1.00066 0.33666 0.0
C466 C 0.3734 0.97524 0.31736 0.0
C467 C 0.41128 1.01198 0.32189 0.0
C468 C 0.37768 0.96412 0.33206 0.0
C469 C 0.39011 0.99936 0.31195 0.0
C470 C 0.40363 0.96255 0.35693 0.0
C471 C 0.46988 0.91114 0.39541 0.0
H472 H 0.40844 0.9566 0.44781 0.0
H473 H 0.45207 0.95932 0.4995 0.0
H474 H 0.37563 0.95876 0.46986 0.0
H475 H 0.48468 0.95644 0.47732 0.0
H476 H 0.43222 1.01059 0.34397 0.0
H477 H 0.35736 0.96435 0.31011 0.0
H478 H 0.42441 0.03075 0.31832 0.0
H479 H 0.36466 0.94529 0.33571 0.0
Eu480 Eu 0.22941 0.35669 0.42043 0.0
Eu481 Eu 0.22486 0.32844 0.38592 0.0
C482 C 0.2561 0.29007 0.41252 0.0
C483 C 0.2448 0.38339 0.46296 0.0
C484 C 0.2499 0.3592 0.47265 0.0
C485 C 0.26181 0.41618 0.48333 0.0
C486 C 0.26052 0.3635 0.48755 0.0
C487 C 0.25121 0.41186 0.46847 0.0
C488 C 0.26624 0.39212 0.49324 0.0
C489 C 0.22952 0.38002 0.44796 0.0
O490 O 0.19136 0.30302 0.39953 0.0
O491 O 0.18196 0.34 0.41663 0.0
C492 C 0.17366 0.3157 0.40944 0.0
O493 O 0.22044 0.39401 0.40311 0.0
O494 O 0.19791 0.31866 0.36597 0.0
O495 O 0.2456 0.3139 0.36476 0.0
O496 O 0.19216 0.36508 0.38821 0.0
C497 C 0.20127 0.39133 0.39188 0.0
O498 O 0.27612 0.35844 0.41138 0.0
O499 O 0.26239 0.36205 0.38645 0.0
O500 O 0.24819 0.29221 0.39819 0.0
O501 O 0.24044 0.39324 0.43602 0.0
O502 O 0.21762 0.35458 0.44454 0.0
O503 O 0.25136 0.31121 0.42268 0.0
C504 C 0.22152 0.33606 0.34413 0.0
C505 C 0.22658 0.36622 0.34666 0.0
C506 C 0.21738 0.34561 0.31713 0.0
C507 C 0.2272 0.38595 0.33451 0.0
C508 C 0.2168 0.32583 0.32933 0.0
C509 C 0.22251 0.37604 0.31955 0.0
C510 C 0.2209 0.31577 0.3571 0.0
C511 C 0.28225 0.36568 0.39726 0.0
H512 H 0.24508 0.33694 0.46887 0.0
H513 H 0.26549 0.43858 0.48722 0.0
H514 H 0.26407 0.34431 0.49463 0.0
H515 H 0.24708 0.431 0.46141 0.0
H516 H 0.23027 0.37448 0.35808 0.0
H517 H 0.21462 0.33677 0.30577 0.0
H518 H 0.23153 0.40893 0.33687 0.0
H519 H 0.21294 0.30258 0.32719 0.0
Eu520 Eu 0.9287 0.96366 0.17057 0.0
Eu521 Eu 0.96557 0.96313 0.13809 0.0
C522 C 0.99608 0.99124 0.16801 0.0
C523 C 0.89878 0.97678 0.21221 0.0
C524 C 0.89052 1.00647 0.21442 0.0
C525 C 0.90039 0.97081 0.23985 0.0
C526 C 0.88713 0.01811 0.22919 0.0
C527 C 0.90372 0.95921 0.22513 0.0
C528 C 0.89185 1.00041 0.24216 0.0
C529 C 0.90027 0.96291 0.19678 0.0
O530 O 0.98538 0.92763 0.15285 0.0
O531 O 0.94305 0.91623 0.16567 0.0
C532 C 0.96919 0.90842 0.16031 0.0
O533 O 0.89503 0.9555 0.15121 0.0
O534 O 0.98322 0.98631 0.1184 0.0
O535 O 0.98839 0.93887 0.12006 0.0
O536 O 0.92668 0.93352 0.13429 0.0
C537 C 0.89976 0.93998 0.13865 0.0
O538 O 0.9298 1.01082 0.16235 0.0
O539 O 0.93116 0.9998 0.137 0.0
O540 O 0.99533 0.98919 0.15318 0.0
O541 O 0.89162 0.97808 0.18496 0.0
O542 O 0.92324 0.94646 0.19368 0.0
O543 O 0.97475 0.98107 0.17689 0.0
C544 C 0.0288 0.96586 0.1099 0.0
C545 C 0.04528 0.94112 0.10526 0.0
C546 C 0.07322 0.99603 0.10773 0.0
C547 C 0.07536 0.94388 0.10169 0.0
C548 C 0.04324 0.99323 0.11138 0.0
C549 C 0.08952 0.97153 0.10254 0.0
C550 C 0.99675 0.96294 0.11315 0.0
C551 C 0.92496 0.01828 0.14814 0.0
H552 H 0.88638 0.02068 0.20476 0.0
H553 H 0.90377 0.95623 0.24944 0.0
H554 H 0.8809 0.04108 0.23042 0.0
H555 H 0.90966 0.93616 0.22385 0.0
H556 H 0.03477 0.9197 0.10414 0.0
H557 H 0.08318 0.01777 0.10825 0.0
H558 H 0.08733 0.92451 0.09785 0.0
H559 H 0.03128 1.01276 0.115 0.0
Eu560 Eu 0.31197 0.66949 0.91962 0.0
Eu561 Eu 0.31555 0.69536 0.88467 0.0
C562 C 0.27974 0.73249 0.91031 0.0
C563 C 0.29585 0.64611 0.96246 0.0
C564 C 0.27744 0.62185 0.96581 0.0
C565 C 0.29019 0.6624 0.9889 0.0
C566 C 0.26571 0.61784 0.98049 0.0
C567 C 0.30187 0.66642 0.97421 0.0
C568 C 0.27221 0.63783 0.99236 0.0
C569 C 0.31175 0.64806 0.94751 0.0
O570 O 0.34694 0.72359 0.89831 0.0
O571 O 0.35856 0.68756 0.91548 0.0
C572 C 0.36543 0.71216 0.90824 0.0
O573 O 0.32274 0.63133 0.90297 0.0
O574 O 0.34241 0.70598 0.86477 0.0
O575 O 0.2946 0.70767 0.86325 0.0
O576 O 0.34975 0.66036 0.88753 0.0
C577 C 0.34183 0.63404 0.89168 0.0
O578 O 0.26568 0.66578 0.91031 0.0
O579 O 0.27997 0.65974 0.88556 0.0
O580 O 0.28609 0.72824 0.8959 0.0
O581 O 0.30103 0.63408 0.93574 0.0
O582 O 0.32399 0.6731 0.94369 0.0
O583 O 0.28918 0.71472 0.92125 0.0
C584 C 0.3205 0.68711 0.84271 0.0
C585 C 0.31628 0.65675 0.84499 0.0
C586 C 0.32653 0.67821 0.81571 0.0
C587 C 0.31699 0.63723 0.83269 0.0
C588 C 0.32572 0.69775 0.82804 0.0
C589 C 0.32226 0.64761 0.81787 0.0
C590 C 0.31956 0.70732 0.85575 0.0
C591 C 0.26 0.6568 0.8964 0.0
H592 H 0.27276 0.60539 0.95719 0.0
H593 H 0.29543 0.67857 0.99758 0.0
H594 H 0.25234 0.59844 0.98265 0.0
H595 H 0.31627 0.68516 0.97219 0.0
H596 H 0.31223 0.64818 0.8563 0.0
H597 H 0.32978 0.68728 0.80445 0.0
H598 H 0.31337 0.61403 0.83481 0.0
H599 H 0.32892 0.72116 0.8261 0.0
Eu600 Eu 0.62542 0.06688 0.66967 0.0
Eu601 Eu 0.59474 0.0735 0.63587 0.0
C602 C 0.55939 0.0391 0.66251 0.0
C603 C 0.64976 0.0508 0.71228 0.0
C604 C 0.65875 0.02142 0.71476 0.0
C605 C 0.64534 0.05711 0.73983 0.0
C606 C 0.66106 1.01008 0.72964 0.0
C607 C 0.643 0.06836 0.72503 0.0
C608 C 0.6546 0.02784 0.74244 0.0
C609 C 0.64995 0.06471 0.69687 0.0
O610 O 0.57034 0.10361 0.6519 0.0
O611 O 0.61052 0.11467 0.66629 0.0
C612 C 0.58463 0.12228 0.6606 0.0
O613 O 0.66212 0.07651 0.65201 0.0
O614 O 0.58024 0.05548 0.61414 0.0
O615 O 0.57628 0.10247 0.61845 0.0
O616 O 0.6333 0.10431 0.63647 0.0
C617 C 0.65949 0.09518 0.64055 0.0
O618 O 0.62569 0.02132 0.65924 0.0
O619 O 0.6286 0.03638 0.63443 0.0
O620 O 0.56295 0.04434 0.64797 0.0
O621 O 0.65952 0.0497 0.68516 0.0
O622 O 0.62788 0.08196 0.69331 0.0
O623 O 0.57885 0.04739 0.67294 0.0
C624 C 0.53688 0.07957 0.60548 0.0
C625 C 0.52462 0.10301 0.59723 0.0
C626 C 0.48885 0.05523 0.60558 0.0
C627 C 0.49476 0.10241 0.59299 0.0
C628 C 0.51856 0.05603 0.60996 0.0
C629 C 0.47668 0.07813 0.59678 0.0
C630 C 0.56841 0.0804 0.60982 0.0
C631 C 0.63263 1.01609 0.64495 0.0
H632 H 0.66439 1.00727 0.70525 0.0
H633 H 0.64068 0.07179 0.74927 0.0
H634 H 0.66793 0.98734 0.73108 0.0
H635 H 0.63656 0.09122 0.72357 0.0
H636 H 0.53822 0.12167 0.59394 0.0
H637 H 0.47585 0.03598 0.60855 0.0
H638 H 0.48602 0.1207 0.58647 0.0
H639 H 0.52726 0.03791 0.61663 0.0
C640 C 0.3301 0.34672 0.22812 0.0
C641 C 0.31961 0.34127 0.21336 0.0
C642 C 0.322 0.37231 0.23587 0.0
C643 C 0.25729 0.41957 0.23794 0.0
H644 H 0.29913 0.43913 0.27499 0.0
C645 C 0.24501 0.42062 0.30667 0.0
C646 C 0.22495 0.39676 0.30641 0.0
C647 C 0.2518 0.43595 0.29333 0.0
C648 C 0.28675 0.43504 0.26467 0.0
H649 H 0.29498 0.36008 0.19453 0.0
H650 H 0.28044 0.40488 0.20821 0.0
H651 H 0.3268 0.42531 0.25271 0.0
H652 H 0.19222 0.37439 0.29247 0.0
H653 H 0.20584 0.39867 0.26922 0.0
H654 H 0.2172 0.42936 0.24989 0.0
C655 C 0.29464 0.38904 0.21385 0.0
C656 C 0.30288 0.42665 0.25183 0.0
C657 C 0.30285 0.3633 0.20605 0.0
C658 C 0.20911 0.39136 0.29295 0.0
C659 C 0.21649 0.40608 0.27956 0.0
C660 C 0.24115 0.42897 0.25065 0.0
C661 C 0.30309 0.39325 0.2291 0.0
C662 C 0.28815 0.41549 0.23898 0.0
C663 C 0.23963 0.42703 0.27932 0.0
C664 C 0.25552 0.43318 0.26471 0.0
H665 H 0.34271 0.33022 0.23423 0.0
H666 H 0.32862 0.37425 0.24766 0.0
H667 H 0.24509 0.41216 0.22804 0.0
H668 H 0.25728 0.42619 0.31684 0.0
H669 H 0.26851 0.45308 0.29385 0.0
C670 C 0.39958 0.45797 0.54175 0.0
C671 C 0.39299 0.47176 0.55564 0.0
C672 C 0.38431 0.46569 0.52858 0.0
C673 C 0.35299 0.48512 0.50073 0.0
H674 H 0.34883 0.57046 0.50007 0.0
C675 C 0.40481 0.54089 0.45145 0.0
C676 C 0.42681 0.56005 0.45705 0.0
C677 C 0.37991 0.53417 0.46031 0.0
C678 C 0.34969 0.54656 0.49998 0.0
H679 H 0.36283 0.5021 0.56691 0.0
H680 H 0.33514 0.51442 0.5441 0.0
H681 H 0.3446 0.54485 0.524 0.0
H682 H 0.43801 0.59002 0.47544 0.0
H683 H 0.39579 0.57816 0.49082 0.0
H684 H 0.36253 0.4871 0.47707 0.0
C685 C 0.35301 0.49857 0.5432 0.0
C686 C 0.34682 0.53166 0.51379 0.0
C687 C 0.36869 0.49119 0.55636 0.0
C688 C 0.42157 0.57513 0.47074 0.0
C689 C 0.39694 0.56829 0.47961 0.0
C690 C 0.35693 0.50009 0.48701 0.0
C691 C 0.36166 0.48714 0.52897 0.0
C692 C 0.35142 0.50094 0.5145 0.0
C693 C 0.37685 0.54616 0.47502 0.0
C694 C 0.35842 0.53115 0.48681 0.0
H695 H 0.41763 0.44228 0.54089 0.0
H696 H 0.39201 0.4563 0.51797 0.0
H697 H 0.35471 0.46128 0.5007 0.0
H698 H 0.40785 0.52956 0.4407 0.0
H699 H 0.3644 0.51781 0.45613 0.0
C700 C 0.27341 0.63759 0.69654 0.0
C701 C 0.25269 0.65934 0.70078 0.0
C702 C 0.27935 0.61376 0.7062 0.0
C703 C 0.25963 0.58466 0.7452 0.0
H704 H 0.34476 0.58836 0.75037 0.0
C705 C 0.33955 0.63271 0.7918 0.0
C706 C 0.32183 0.62706 0.80461 0.0
C707 C 0.33527 0.61702 0.77832 0.0
C708 C 0.3209 0.58712 0.74917 0.0
H709 H 0.21956 0.67121 0.71758 0.0
H710 H 0.22994 0.63073 0.73433 0.0
H711 H 0.32356 0.59736 0.72558 0.0
H712 H 0.28849 0.59732 0.81381 0.0
H713 H 0.28226 0.569 0.79064 0.0
H714 H 0.25656 0.57871 0.76909 0.0
C715 C 0.24163 0.63131 0.72357 0.0
C716 C 0.30863 0.59173 0.73477 0.0
C717 C 0.23561 0.65489 0.71391 0.0
C718 C 0.30227 0.60282 0.80414 0.0
C719 C 0.2984 0.58669 0.79071 0.0
C720 C 0.2718 0.58113 0.75967 0.0
C721 C 0.26487 0.61143 0.72034 0.0
C722 C 0.27765 0.59345 0.73296 0.0
C723 C 0.3134 0.59486 0.77731 0.0
C724 C 0.30242 0.58525 0.76204 0.0
H725 H 0.28644 0.64006 0.68626 0.0
H726 H 0.29675 0.59844 0.70307 0.0
H727 H 0.23573 0.584 0.74404 0.0
H728 H 0.35586 0.65026 0.79192 0.0
H729 H 0.34762 0.62416 0.76844 0.0
C730 C 0.053 0.37246 0.97117 0.0
C731 C 0.06728 0.39981 0.9692 0.0
C732 C 0.05875 0.35538 0.98407 0.0
C733 C 0.04605 0.35163 1.01728 0.0
H734 H 0.11022 0.37149 0.04468 0.0
C735 C 0.03 0.42587 0.06665 0.0
C736 C 0.04935 0.42636 0.07915 0.0
C737 C 0.03276 0.40424 0.05546 0.0
C738 C 0.09216 0.36481 0.03733 0.0
H739 H 0.10268 0.42781 0.97749 0.0
H740 H 0.11169 0.39926 1.00017 0.0
H741 H 0.12082 0.36257 1.01797 0.0
H742 H 0.08471 0.40243 0.09049 0.0
H743 H 0.0901 0.36506 0.07057 0.0
H744 H 1.01727 0.3552 0.03653 0.0
C745 C 0.09604 0.39055 0.99199 0.0
C746 C 0.09821 0.36004 1.02192 0.0
C747 C 0.09061 0.40734 0.97901 0.0
C748 C 0.06994 0.40318 0.08079 0.0
C749 C 0.07291 0.38162 0.06946 0.0
C750 C 0.0401 0.35592 0.0327 0.0
C751 C 0.07838 0.3657 0.99533 0.0
C752 C 0.07482 0.35638 1.0115 0.0
C753 C 0.05506 0.3826 0.0564 0.0
C754 C 0.06267 0.36536 0.04255 0.0
H755 H 0.03518 0.36569 0.96369 0.0
H756 H 0.04556 0.33573 0.98596 0.0
H757 H 0.02732 0.34831 1.00979 0.0
H758 H 1.01412 0.44344 0.06484 0.0
H759 H 0.01892 0.40608 0.04544 0.0
C760 C 0.64712 0.8926 0.80547 0.0
C761 C 0.64611 0.86179 0.80742 0.0
C762 C 0.6422 0.90496 0.79111 0.0
C763 C 0.63206 0.88193 0.75 0.0
H764 H 0.70458 0.92698 0.74588 0.0
C765 C 0.74762 0.85757 0.72395 0.0
C766 C 0.73974 0.84351 0.7103 0.0
C767 C 0.72779 0.87633 0.73129 0.0
C768 C 0.68404 0.91466 0.7467 0.0
H769 H 0.63443 0.8204 0.79663 0.0
H770 H 0.62735 0.84127 0.77171 0.0
H771 H 0.67818 0.92762 0.7697 0.0
H772 H 0.70587 0.84058 0.69285 0.0
H773 H 0.67081 0.87321 0.70588 0.0
H774 H 0.64093 0.86487 0.72782 0.0
C775 C 0.6317 0.85636 0.781 0.0
C776 C 0.6684 0.91549 0.76039 0.0
C777 C 0.63624 0.84412 0.79533 0.0
C778 C 0.71233 0.85053 0.70356 0.0
C779 C 0.69232 0.86937 0.71096 0.0
C780 C 0.64836 0.88019 0.73649 0.0
C781 C 0.63676 0.88667 0.77843 0.0
C782 C 0.64384 0.89684 0.76269 0.0
C783 C 0.69937 0.88154 0.72525 0.0
C784 C 0.6761 0.89424 0.73535 0.0
H785 H 0.6543 0.90691 0.81465 0.0
H786 H 0.64527 0.92851 0.78972 0.0
H787 H 0.61227 0.86854 0.75107 0.0
H788 H 0.76831 0.8525 0.72961 0.0
H789 H 0.73404 0.88464 0.74239 0.0
C790 C 0.72657 0.41043 0.25016 0.0
C791 C 0.71203 0.3829 0.24982 0.0
C792 C 0.72803 0.42686 0.26362 0.0
C793 C 0.75294 0.43948 0.29461 0.0
H794 H 0.70623 0.41265 0.32883 0.0
C795 C 0.8041 0.37383 0.33898 0.0
C796 C 0.78787 0.36401 0.35161 0.0
C797 C 0.79366 0.39708 0.33016 0.0
C798 C 0.71951 0.42139 0.31963 0.0
H799 H 0.68449 0.35307 0.26295 0.0
H800 H 0.68896 0.37994 0.28644 0.0
H801 H 0.68367 0.41583 0.30408 0.0
H802 H 0.75073 0.37402 0.36641 0.0
H803 H 0.73264 0.41519 0.35113 0.0
H804 H 0.78865 0.44545 0.31024 0.0
C805 C 0.69892 0.38956 0.27641 0.0
C806 C 0.70658 0.42262 0.30523 0.0
C807 C 0.69692 0.37353 0.26291 0.0
C808 C 0.76321 0.38059 0.35644 0.0
C809 C 0.75285 0.40417 0.34765 0.0
C810 C 0.76555 0.4393 0.30911 0.0
C811 C 0.71561 0.41587 0.27717 0.0
C812 C 0.72416 0.42822 0.29232 0.0
C813 C 0.76666 0.41119 0.33374 0.0
C814 C 0.7501 0.42667 0.3214 0.0
H815 H 0.73823 0.41871 0.24028 0.0
H816 H 0.74014 0.4475 0.26352 0.0
H817 H 0.76718 0.44511 0.28515 0.0
H818 H 0.8232 0.36164 0.33491 0.0
H819 H 0.80523 0.40147 0.31961 0.0
C820 C 0.12662 0.96268 0.08198 0.0
C821 C 0.11955 0.97597 0.09594 0.0
C822 C 0.15076 0.97255 0.07352 0.0
C823 C 0.1848 0.04417 0.06753 0.0
H824 H 0.20529 1.00164 0.03081 0.0
C825 C 0.17569 0.05061 0.99826 0.0
C826 C 0.14921 0.06711 0.99865 0.0
C827 C 0.19221 0.04612 1.0115 0.0
C828 C 0.20075 1.01438 0.04097 0.0
H829 H 0.13489 1.00694 0.11306 0.0
H830 H 0.1773 0.02427 0.09824 0.0
H831 H 0.20118 0.97526 0.05448 0.0
H832 H 0.122 0.09533 1.01293 0.0
H833 H 0.14864 0.08535 0.03601 0.0
H834 H 0.18439 0.0833 0.05406 0.0
C835 C 0.16365 1.00675 0.09362 0.0
C836 C 0.198 0.99897 0.05462 0.0
C837 C 0.1393 0.99687 0.1021 0.0
C838 C 0.14141 0.08132 1.01228 0.0
C839 C 0.15736 0.07612 1.02557 0.0
C840 C 0.18857 0.05977 0.05398 0.0
C841 C 0.16853 0.99604 0.07879 0.0
C842 C 0.18645 1.01312 0.06758 0.0
C843 C 0.18217 0.05717 1.02555 0.0
C844 C 0.19301 0.04449 0.04021 0.0
H845 H 0.11192 0.94663 0.07681 0.0
H846 H 0.15335 0.9637 0.06215 0.0
H847 H 0.17692 0.05624 0.07738 0.0
H848 H 0.1829 0.03956 0.98798 0.0
H849 H 0.21182 0.03241 1.01082 0.0
C850 C 0.3678 0.98417 0.49902 0.0
C851 C 0.39151 0.96408 0.49986 0.0
C852 C 0.35363 0.99397 0.51224 0.0
C853 C 0.36158 0.99091 0.55512 0.0
H854 H 0.36387 0.07567 0.54958 0.0
C855 C 0.44191 0.08294 0.57483 0.0
C856 C 0.44664 0.07472 0.59002 0.0
C857 C 0.41644 0.074 0.56719 0.0
C858 C 0.3628 0.05204 0.55142 0.0
H859 H 0.41602 0.93541 0.51502 0.0
H860 H 0.39337 0.95391 0.53797 0.0
H861 H 0.35151 0.0444 0.52835 0.0
H862 H 0.42643 0.05375 0.60965 0.0
H863 H 0.38196 0.03754 0.59613 0.0
H864 H 0.37717 0.99872 0.57768 0.0
C865 C 0.38491 0.96199 0.52725 0.0
C866 C 0.35531 0.03385 0.5392 0.0
C867 C 0.39853 0.95168 0.51402 0.0
C868 C 0.42385 0.05976 0.59781 0.0
C869 C 0.39827 0.05062 0.5901 0.0
C870 C 0.36998 1.00912 0.56723 0.0
C871 C 0.36356 0.98472 0.52664 0.0
C872 C 0.35753 1.00291 0.54051 0.0
C873 C 0.39497 0.05643 0.57449 0.0
C874 C 0.37345 0.03967 0.56499 0.0
H875 H 0.36153 0.99405 0.4883 0.0
H876 H 0.33643 1.0105 0.51117 0.0
H877 H 0.36167 0.96724 0.55685 0.0
H878 H 0.45896 0.09415 0.56836 0.0
H879 H 0.41512 0.07862 0.55513 0.0
C880 C 0.18874 0.07024 0.93061 0.0
C881 C 0.17204 0.09345 0.92436 0.0
C882 C 0.20371 0.07397 0.94457 0.0
C883 C 0.19944 0.12279 0.97927 0.0
H884 H 0.26612 0.07602 0.9928 0.0
C885 C 0.23581 0.1236 0.04287 0.0
C886 C 0.26589 0.11915 0.04645 0.0
C887 C 0.22543 0.12016 0.02787 0.0
C888 C 0.24774 0.08972 0.98925 0.0
H889 H 0.15985 0.13928 0.92728 0.0
H890 H 0.18702 0.14636 0.95087 0.0
H891 H 0.24972 0.07246 0.96653 0.0
H892 H 0.30869 0.10836 0.03668 0.0
H893 H 0.291 0.10307 1.01074 0.0
H894 H 0.19799 0.14088 1.00172 0.0
C895 C 0.18783 0.12485 0.94551 0.0
C896 C 0.23798 0.0873 0.97409 0.0
C897 C 0.17265 0.121 0.93174 0.0
C898 C 0.28526 0.11143 0.0345 0.0
C899 C 0.27497 0.10824 1.01951 0.0
C900 C 0.20942 0.12551 0.99434 0.0
C901 C 0.20241 0.10105 0.95261 0.0
C902 C 0.21373 0.10394 0.96876 0.0
C903 C 0.2448 0.11239 1.01586 0.0
C904 C 0.23384 0.1091 0.99966 0.0
H905 H 0.18809 0.04852 0.92544 0.0
H906 H 0.21438 0.0549 0.94954 0.0
H907 H 0.18007 0.13534 0.976 0.0
H908 H 0.22009 0.12925 0.05172 0.0
H909 H 0.202 0.12324 1.02582 0.0
C910 C 0.65673 0.47709 0.29254 0.0
C911 C 0.66322 0.5066 0.29633 0.0
C912 C 0.66026 0.46661 0.27756 0.0
C913 C 0.69506 0.48678 0.2396 0.0
H914 H 0.64734 0.42124 0.22552 0.0
C915 C 0.71781 0.42613 0.18177 0.0
C916 C 0.69468 0.41004 0.17496 0.0
C917 C 0.71321 0.44132 0.1956 0.0
C918 C 0.66053 0.44002 0.22901 0.0
H919 H 0.67749 0.54843 0.28686 0.0
H920 H 0.68295 0.53063 0.26095 0.0
H921 H 0.64023 0.44006 0.25097 0.0
H922 H 0.6482 0.39891 0.17683 0.0
H923 H 0.63958 0.42671 0.20011 0.0
H924 H 0.71451 0.48738 0.21734 0.0
C925 C 0.67615 0.51501 0.26957 0.0
C926 C 0.65687 0.45052 0.24394 0.0
C927 C 0.67288 0.52538 0.28456 0.0
C928 C 0.66643 0.41132 0.1817 0.0
C929 C 0.66169 0.42685 0.19531 0.0
C930 C 0.69839 0.47656 0.22456 0.0
C931 C 0.67017 0.48532 0.26574 0.0
C932 C 0.67405 0.47412 0.2496 0.0
C933 C 0.68525 0.44101 0.20294 0.0
C934 C 0.68114 0.45299 0.21892 0.0
H935 H 0.64948 0.4618 0.30123 0.0
H936 H 0.65571 0.44353 0.2754 0.0
H937 H 0.70939 0.50447 0.2434 0.0
H938 H 0.74004 0.42488 0.17714 0.0
H939 H 0.73218 0.45151 0.20101 0.0
C940 C 0.26153 0.93312 0.53656 0.0
C941 C 0.26976 0.90841 0.54534 0.0
C942 C 0.27091 0.93616 0.52138 0.0
C943 C 0.30214 0.89218 0.48876 0.0
H944 H 0.31985 0.96919 0.47194 0.0
C945 C 0.37021 0.90492 0.43353 0.0
C946 C 0.36784 0.93033 0.42442 0.0
C947 C 0.35374 0.90191 0.44694 0.0
C948 C 0.31459 0.94746 0.47627 0.0
H949 H 0.29507 0.86769 0.54467 0.0
H950 H 0.31219 0.87345 0.5186 0.0
H951 H 0.30186 0.96519 0.49794 0.0
H952 H 0.3451 0.97215 0.42215 0.0
H953 H 0.31525 0.96649 0.44533 0.0
H954 H 0.31471 0.87439 0.46713 0.0
C955 C 0.2978 0.89028 0.52331 0.0
C956 C 0.30432 0.94514 0.49135 0.0
C957 C 0.28831 0.88718 0.53847 0.0
C958 C 0.34707 0.952 0.42869 0.0
C959 C 0.33038 0.94895 0.4422 0.0
C960 C 0.31233 0.89449 0.4737 0.0
C961 C 0.289 0.91464 0.51441 0.0
C962 C 0.29853 0.9174 0.49799 0.0
C963 C 0.33404 0.92415 0.45179 0.0
C964 C 0.31949 0.92211 0.46727 0.0
H965 H 0.24773 0.9503 0.54139 0.0
H966 H 0.2634 0.95519 0.51503 0.0
H967 H 0.29699 0.87044 0.49312 0.0
H968 H 0.38627 0.88795 0.43074 0.0
H969 H 0.35794 0.88272 0.45393 0.0
C970 C 0.83042 0.60537 0.68166 0.0
C971 C 0.85119 0.62676 0.67707 0.0
C972 C 0.83465 0.58928 0.69521 0.0
C973 C 0.87484 0.5969 0.73216 0.0
H974 H 0.8481 0.51689 0.73949 0.0
C975 C 0.87126 0.54835 0.79323 0.0
C976 C 0.87962 0.51865 0.79527 0.0
C977 C 0.86728 0.56014 0.77859 0.0
C978 C 0.85591 0.53921 0.73766 0.0
H979 H 0.89355 0.64653 0.68256 0.0
H980 H 0.90158 0.61787 0.70558 0.0
H981 H 0.84374 0.53808 0.71402 0.0
H982 H 0.88941 0.478 0.78316 0.0
H983 H 0.88312 0.49863 0.75778 0.0
H984 H 0.88746 0.59803 0.75562 0.0
C985 C 0.88152 0.61399 0.69912 0.0
C986 C 0.85312 0.5515 0.72302 0.0
C987 C 0.87717 0.63014 0.68574 0.0
C988 C 0.88344 0.50107 0.78215 0.0
C989 C 0.87942 0.51285 0.76752 0.0
C990 C 0.87758 0.58467 0.74674 0.0
C991 C 0.8598 0.59419 0.70446 0.0
C992 C 0.86269 0.58053 0.72001 0.0
C993 C 0.87146 0.54266 0.76547 0.0
C994 C 0.86819 0.55562 0.74978 0.0
H995 H 0.80986 0.6027 0.67544 0.0
H996 H 0.81734 0.57433 0.69889 0.0
H997 H 0.88198 0.61949 0.7305 0.0
H998 H 0.86828 0.56276 0.80295 0.0
H999 H 0.86075 0.58306 0.77759 0.0
C1000 C 0.85776 0.95643 0.12187 0.0
C1001 C 0.87596 0.93364 0.12739 0.0
C1002 C 0.84181 0.95281 0.10822 0.0
C1003 C 0.81517 0.89699 0.07992 0.0
H1004 H 0.82515 0.96009 0.05067 0.0
C1005 C 0.78542 0.8804 1.01599 0.0
C1006 C 0.77436 0.90454 1.00764 0.0
C1007 C 0.79619 0.88409 0.0309 0.0
C1008 C 0.82157 0.94235 0.05869 0.0
H1009 H 0.89061 0.88885 0.12326 0.0
H1010 H 0.86204 0.88208 0.09995 0.0
H1011 H 0.84373 0.96622 0.07648 0.0
H1012 H 0.76697 0.95188 1.00871 0.0
H1013 H 0.78443 0.95803 0.03461 0.0
H1014 H 0.79281 0.87314 0.06226 0.0
C1015 C 0.86005 0.90281 0.10603 0.0
C1016 C 0.83233 0.94593 0.07358 0.0
C1017 C 0.87636 0.90662 0.11947 0.0
C1018 C 0.77475 0.93253 1.01471 0.0
C1019 C 0.78529 0.93618 0.02963 0.0
C1020 C 0.80411 0.89351 0.06507 0.0
C1021 C 0.84333 0.92615 0.0999 0.0
C1022 C 0.82956 0.9232 0.0844 0.0
C1023 C 0.79615 0.91203 0.03804 0.0
C1024 C 0.80736 0.91601 0.05411 0.0
H1025 H 0.85758 0.97776 0.12748 0.0
H1026 H 0.829 0.97121 0.10392 0.0
H1027 H 0.81236 0.87908 0.08794 0.0
H1028 H 0.78533 0.85841 1.01114 0.0
H1029 H 0.80475 0.86491 0.03676 0.0
C1030 C 0.32609 0.59303 0.87402 0.0
C1031 C 0.34878 0.61008 0.88063 0.0
C1032 C 0.33066 0.5787 0.85994 0.0
C1033 C 0.37829 0.58842 0.82557 0.0
H1034 H 0.34136 0.51635 0.81128 0.0
C1035 C 0.40565 0.54041 0.76604 0.0
C1036 C 0.38331 0.52585 0.75772 0.0
C1037 C 0.4009 0.54935 0.78115 0.0
C1038 C 0.35162 0.53673 0.815 0.0
H1039 H 0.39461 0.62342 0.87826 0.0
H1040 H 0.40291 0.59782 0.85429 0.0
H1041 H 0.33496 0.53165 0.83778 0.0
H1042 H 0.33815 0.50954 0.75912 0.0
H1043 H 0.32973 0.52555 0.78527 0.0
H1044 H 0.39453 0.59395 0.8029 0.0
C1045 C 0.3813 0.59604 0.85959 0.0
C1046 C 0.34799 0.54547 0.83028 0.0
C1047 C 0.37672 0.61031 0.87353 0.0
C1048 C 0.35591 0.52084 0.76502 0.0
C1049 C 0.35118 0.52971 0.78017 0.0
C1050 C 0.38189 0.57973 0.81037 0.0
C1051 C 0.35796 0.58128 0.85215 0.0
C1052 C 0.36159 0.57131 0.83587 0.0
C1053 C 0.37363 0.5441 0.78853 0.0
C1054 C 0.36885 0.55362 0.8048 0.0
H1055 H 0.30408 0.59302 0.87897 0.0
H1056 H 0.31206 0.56762 0.85464 0.0
H1057 H 0.3882 0.60907 0.82915 0.0
H1058 H 0.42694 0.54505 0.76086 0.0
H1059 H 0.41898 0.55997 0.78712 0.0
C1060 C 0.74669 0.12704 0.51127 0.0
C1061 C 0.77715 0.12664 0.50773 0.0
C1062 C 0.73681 0.12394 0.52635 0.0
C1063 C 0.76103 0.09883 0.56508 0.0
H1064 H 0.69161 0.14242 0.57809 0.0
C1065 C 0.69911 0.07709 0.6227 0.0
C1066 C 0.68368 0.10075 0.62941 0.0
C1067 C 0.7141 0.08084 0.60876 0.0
C1068 C 0.71129 0.1303 0.57481 0.0
H1069 H 0.82104 0.12329 0.51767 0.0
H1070 H 0.80392 0.11813 0.54382 0.0
H1071 H 0.70973 0.14801 0.55227 0.0
H1072 H 0.67361 0.14725 0.62731 0.0
H1073 H 0.70088 0.15425 0.60366 0.0
H1074 H 0.76279 0.08154 0.5878 0.0
C1075 C 0.78753 0.12019 0.5349 0.0
C1076 C 0.72145 0.13317 0.55979 0.0
C1077 C 0.79739 0.12321 0.51982 0.0
C1078 C 0.68552 0.12865 0.6225 0.0
C1079 C 0.70072 0.1325 0.60874 0.0
C1080 C 0.75085 0.09598 0.58015 0.0
C1081 C 0.75705 0.12047 0.53844 0.0
C1082 C 0.74644 0.11744 0.55462 0.0
C1083 C 0.7141 0.1084 0.60125 0.0
C1084 C 0.7258 0.11172 0.58528 0.0
H1085 H 0.73034 0.12916 0.50232 0.0
H1086 H 0.71316 0.12378 0.52847 0.0
H1087 H 0.78013 0.08604 0.56157 0.0
H1088 H 0.69746 0.05514 0.62752 0.0
H1089 H 0.72397 0.06166 0.60342 0.0
C1090 C 0.21825 0.43212 0.37435 0.0
C1091 C 0.19521 0.41493 0.38051 0.0
C1092 C 0.21452 0.44663 0.36028 0.0
C1093 C 0.16844 0.4377 0.32517 0.0
H1094 H 0.20721 0.50933 0.31168 0.0
C1095 C 0.14215 0.48978 0.26655 0.0
C1096 C 0.16501 0.50353 0.25822 0.0
C1097 C 0.14685 0.47976 0.28146 0.0
C1098 C 0.19645 0.48908 0.31519 0.0
H1099 H 0.14955 0.40159 0.37737 0.0
H1100 H 0.1427 0.4274 0.35343 0.0
H1101 H 0.21239 0.49343 0.33813 0.0
H1102 H 0.21115 0.51701 0.25942 0.0
H1103 H 0.21942 0.49905 0.28525 0.0
H1104 H 0.15266 0.43312 0.30233 0.0
C1105 C 0.164 0.42913 0.35904 0.0
C1106 C 0.19937 0.47998 0.33044 0.0
C1107 C 0.16774 0.41469 0.37296 0.0
C1108 C 0.19295 0.50642 0.26531 0.0
C1109 C 0.19763 0.49642 0.28027 0.0
C1110 C 0.16545 0.44682 0.31002 0.0
C1111 C 0.18774 0.44406 0.35203 0.0
C1112 C 0.18505 0.45431 0.33575 0.0
C1113 C 0.17459 0.48307 0.28864 0.0
C1114 C 0.17911 0.47281 0.30477 0.0
H1115 H 0.2399 0.43223 0.37967 0.0
H1116 H 0.23341 0.45784 0.35534 0.0
H1117 H 0.15801 0.41716 0.3285 0.0
H1118 H 0.12046 0.48662 0.26153 0.0
H1119 H 0.1284 0.46986 0.28747 0.0
C1120 C 0.78759 0.63415 0.53368 0.0
C1121 C 0.76863 0.63211 0.54641 0.0
C1122 C 0.77711 0.62862 0.51888 0.0
C1123 C 0.70708 0.62522 0.49622 0.0
H1124 H 0.75608 0.58606 0.46605 0.0
C1125 C 0.66731 0.61718 0.43421 0.0
C1126 C 0.67067 0.59005 0.42659 0.0
C1127 C 0.68239 0.62301 0.44781 0.0
C1128 C 0.74201 0.59692 0.47432 0.0
H1129 H 0.72338 0.62257 0.55319 0.0
H1130 H 0.70532 0.61255 0.52758 0.0
H1131 H 0.77507 0.59372 0.49183 0.0
H1132 H 0.6936 0.54812 0.42711 0.0
H1133 H 0.72021 0.55825 0.45093 0.0
H1134 H 0.67381 0.62793 0.47896 0.0
C1135 C 0.72835 0.61875 0.529 0.0
C1136 C 0.75303 0.6016 0.48914 0.0
C1137 C 0.73884 0.62419 0.5438 0.0
C1138 C 0.69105 0.56952 0.43248 0.0
C1139 C 0.70609 0.57529 0.44625 0.0
C1140 C 0.69614 0.62064 0.48147 0.0
C1141 C 0.74725 0.62096 0.51625 0.0
C1142 C 0.73571 0.61581 0.50036 0.0
C1143 C 0.70108 0.60172 0.45444 0.0
C1144 C 0.71339 0.60652 0.47021 0.0
H1145 H 0.81076 0.63975 0.53514 0.0
H1146 H 0.7924 0.63084 0.50944 0.0
H1147 H 0.69306 0.63652 0.50437 0.0
H1148 H 0.65163 0.63339 0.43005 0.0
H1149 H 0.67849 0.64395 0.45344 0.0
C1150 C 0.16439 0.02899 0.78422 0.0
C1151 C 0.15232 1.01081 0.79566 0.0
C1152 C 0.16885 0.01839 0.76937 0.0
C1153 C 0.14937 0.95653 0.74247 0.0
H1154 H 0.22007 0.98312 0.72148 0.0
C1155 C 0.17916 0.91581 0.68088 0.0
C1156 C 0.20908 0.90809 0.67868 0.0
C1157 C 0.17025 0.93131 0.69409 0.0
C1158 C 0.20022 0.9753 0.72712 0.0
H1159 H 0.13513 0.96697 0.80006 0.0
H1160 H 0.14324 0.94832 0.77427 0.0
H1161 H 0.20868 1.00242 0.74659 0.0
H1162 H 0.25308 0.91162 0.68835 0.0
H1163 H 0.23793 0.93856 0.71092 0.0
H1164 H 0.14168 0.9285 0.72311 0.0
C1165 C 0.14889 0.97107 0.77673 0.0
C1166 C 0.19343 0.98673 0.74157 0.0
C1167 C 0.14427 0.98177 0.79161 0.0
C1168 C 0.22989 0.91747 0.68958 0.0
C1169 C 0.22113 0.93304 0.7026 0.0
C1170 C 0.15621 0.94505 0.72797 0.0
C1171 C 0.16156 0.98911 0.76537 0.0
C1172 C 0.16803 0.9774 0.7496 0.0
C1173 C 0.1911 0.93969 0.70531 0.0
C1174 C 0.18199 0.95395 0.72013 0.0
H1175 H 0.17027 0.05168 0.78671 0.0
H1176 H 0.17793 0.03337 0.76099 0.0
H1177 H 0.1294 0.94898 0.74808 0.0
H1178 H 0.16249 0.90845 0.67286 0.0
H1179 H 0.14695 0.93622 0.69565 0.0
C1180 C 0.78344 0.37181 0.03643 0.0
C1181 C 0.77891 0.39537 0.0467 0.0
C1182 C 0.79397 0.37689 1.02156 0.0
C1183 C 0.83205 0.43467 0.99787 0.0
H1184 H 0.80461 0.38788 0.96367 0.0
C1185 C 0.85876 0.47117 0.93703 0.0
C1186 C 0.87033 0.44996 0.92693 0.0
C1187 C 0.84504 0.46281 0.95064 0.0
C1188 C 0.81265 0.40103 0.97311 0.0
H1189 H 0.7828 0.44293 0.04906 0.0
H1190 H 0.79992 0.45178 1.02333 0.0
H1191 H 0.7868 0.37676 0.98939 0.0
H1192 H 0.87514 0.40304 0.92298 0.0
H1193 H 0.85058 0.3882 0.94682 0.0
H1194 H 0.85759 0.45912 0.98168 0.0
C1195 C 0.79582 0.42919 0.02674 0.0
C1196 C 0.80251 0.3946 0.98792 0.0
C1197 C 0.78547 0.42411 0.04157 0.0
C1198 C 0.86592 0.41992 0.93034 0.0
C1199 C 0.85209 0.41146 0.9441 0.0
C1200 C 0.84194 0.44119 0.98313 0.0
C1201 C 0.80035 0.40571 1.01644 0.0
C1202 C 0.81182 0.41154 1.00057 0.0
C1203 C 0.84257 0.43289 0.95473 0.0
C1204 C 0.8322 0.42475 0.97046 0.0
H1205 H 0.77841 0.34936 0.03976 0.0
H1206 H 0.79737 0.3581 1.01413 0.0
H1207 H 0.84059 0.44778 1.0072 0.0
H1208 H 0.8619 0.49449 0.9348 0.0
H1209 H 0.83738 0.47997 0.95829 0.0
C1210 C 0.32944 0.08656 0.18112 0.0
C1211 C 0.35252 0.10369 0.17496 0.0
C1212 C 0.33348 0.07119 0.19489 0.0
C1213 C 0.39061 0.04546 0.22288 0.0
H1214 H 0.32839 0.0579 0.25263 0.0
C1215 C 0.40946 0.02141 0.28723 0.0
C1216 C 0.38557 1.01072 0.29599 0.0
C1217 C 0.40524 0.03089 0.27215 0.0
C1218 C 0.34589 0.05369 0.24448 0.0
H1219 H 0.39824 0.11688 0.17803 0.0
H1220 H 0.40562 0.08945 0.20156 0.0
H1221 H 0.32139 0.07457 0.22656 0.0
H1222 H 0.33812 1.00263 0.29547 0.0
H1223 H 0.33105 0.018 0.2693 0.0
H1224 H 0.41513 0.02453 0.24072 0.0
C1225 C 0.38437 0.08777 0.1959 0.0
C1226 C 0.34181 0.0633 0.22943 0.0
C1227 C 0.38021 0.10342 0.18232 0.0
C1228 C 0.35729 1.01018 0.28916 0.0
C1229 C 0.35311 0.01949 0.27408 0.0
C1230 C 0.39461 0.03563 0.2379 0.0
C1231 C 0.36078 0.07231 0.20271 0.0
C1232 C 0.36421 0.05962 0.21842 0.0
C1233 C 0.377 0.02994 0.26526 0.0
C1234 C 0.37245 0.03982 0.24903 0.0
H1235 H 0.30763 0.0869 0.17597 0.0
H1236 H 0.31486 0.05929 0.19969 0.0
H1237 H 0.40827 0.04192 0.21472 0.0
H1238 H 0.43165 0.02199 0.2919 0.0
H1239 H 0.42423 0.03918 0.26595 0.0
C1240 C 0.34956 0.45625 0.62487 0.0
C1241 C 0.37128 0.43609 0.62975 0.0
C1242 C 0.33344 0.45106 0.61135 0.0
C1243 C 0.31811 0.39256 0.58144 0.0
H1244 H 0.30446 0.45977 0.55521 0.0
C1245 C 0.26493 0.37925 0.52138 0.0
C1246 C 0.27596 0.39698 0.50948 0.0
C1247 C 0.27353 0.38415 0.53655 0.0
C1248 C 0.30835 0.44066 0.56231 0.0
H1249 H 0.39204 0.39417 0.62452 0.0
H1250 H 0.36459 0.38526 0.60134 0.0
H1251 H 0.32314 0.46756 0.58091 0.0
H1252 H 0.3053 0.43372 0.50457 0.0
H1253 H 0.32016 0.44208 0.53085 0.0
H1254 H 0.30421 0.36561 0.5627 0.0
C1255 C 0.3593 0.40487 0.60785 0.0
C1256 C 0.31871 0.44517 0.57723 0.0
C1257 C 0.37522 0.41002 0.62125 0.0
C1258 C 0.2959 0.41978 0.51332 0.0
C1259 C 0.30445 0.42467 0.52849 0.0
C1260 C 0.30779 0.38806 0.56655 0.0
C1261 C 0.33861 0.42558 0.60239 0.0
C1262 C 0.32436 0.42115 0.587 0.0
C1263 C 0.29345 0.40697 0.54039 0.0
C1264 C 0.30313 0.41199 0.55662 0.0
H1265 H 0.34637 0.47686 0.63092 0.0
H1266 H 0.31752 0.46747 0.60772 0.0
H1267 H 0.32143 0.37339 0.58857 0.0
H1268 H 0.24911 0.36184 0.51905 0.0
H1269 H 0.2641 0.37025 0.54532 0.0
C1270 C 0.90612 1.00363 0.27006 0.0
C1271 C 0.88751 1.01243 0.25801 0.0
C1272 C 0.90174 1.01431 0.28491 0.0
C1273 C 0.84549 0.05081 0.31011 0.0
H1274 H 0.91399 0.06956 0.33489 0.0
C1275 C 0.83277 0.09507 0.37222 0.0
C1276 C 0.85072 0.11952 0.37578 0.0
C1277 C 0.83814 0.0783 0.35895 0.0
C1278 C 0.89454 0.06449 0.32817 0.0
H1279 H 0.84935 0.0395 0.25251 0.0
H1280 H 0.84214 0.05853 0.27823 0.0
H1281 H 0.92099 0.04943 0.30944 0.0
H1282 H 0.88916 0.14455 0.36859 0.0
H1283 H 0.89882 0.11537 0.3459 0.0
H1284 H 0.81908 0.06681 0.32871 0.0
C1285 C 0.85999 0.04302 0.27623 0.0
C1286 C 0.89856 0.05261 0.31354 0.0
C1287 C 0.8644 0.03238 0.26136 0.0
C1288 C 0.87509 0.12566 0.36629 0.0
C1289 C 0.88062 0.10884 0.35321 0.0
C1290 C 0.84146 0.06264 0.32478 0.0
C1291 C 0.87858 0.03417 0.28827 0.0
C1292 C 0.87413 0.04587 0.30417 0.0
C1293 C 0.86177 0.08541 0.34904 0.0
C1294 C 0.86593 0.07005 0.33398 0.0
H1295 H 0.92436 0.9886 0.26801 0.0
H1296 H 0.91641 1.00665 0.2938 0.0
H1297 H 0.82605 0.04556 0.30341 0.0
H1298 H 0.81349 0.09008 0.37911 0.0
H1299 H 0.82331 0.06023 0.35625 0.0
C1300 C 0.18683 0.57438 0.12321 0.0
C1301 C 0.16327 0.5923 0.12822 0.0
C1302 C 0.2016 0.58059 0.10942 0.0
C1303 C 0.18705 0.61943 0.07273 0.0
H1304 H 0.2697 0.60327 0.06407 0.0
C1305 C 0.23246 0.62091 1.01089 0.0
C1306 C 0.26091 0.63274 1.00828 0.0
C1307 C 0.22198 0.61605 1.02574 0.0
C1308 C 0.24659 0.60814 0.06628 0.0
H1309 H 0.13818 0.63182 0.12319 0.0
H1310 H 0.16444 0.6433 0.09974 0.0
H1311 H 0.25054 0.59622 0.08986 0.0
H1312 H 0.30075 0.6481 1.01964 0.0
H1313 H 0.28233 0.64022 0.04541 0.0
H1314 H 0.18302 0.63172 0.04932 0.0
C1315 C 0.17109 0.62392 0.10607 0.0
C1316 C 0.2355 0.60378 0.0811 0.0
C1317 C 0.15629 0.6176 0.11969 0.0
C1318 C 0.27858 0.63937 1.02108 0.0
C1319 C 0.26812 0.63445 0.03594 0.0
C1320 C 0.19807 0.6237 0.05797 0.0
C1321 C 0.19315 0.60489 0.10034 0.0
C1322 C 0.20554 0.60951 0.08459 0.0
C1323 C 0.23959 0.6228 0.03854 0.0
C1324 C 0.22801 0.61813 0.05445 0.0
H1325 H 0.19233 0.55437 0.12932 0.0
H1326 H 0.21839 0.56533 0.10545 0.0
H1327 H 0.16374 0.62361 0.07477 0.0
H1328 H 0.218 0.61569 1.00144 0.0
H1329 H 0.20005 0.60671 0.02716 0.0
C1330 C 0.63842 0.02534 0.77007 0.0
C1331 C 0.65798 0.01637 0.75844 0.0
C1332 C 0.64204 1.01556 0.7851 0.0
C1333 C 0.69688 0.97853 0.81135 0.0
H1334 H 0.62712 0.96896 0.83657 0.0
C1335 C 0.70731 0.9393 0.87427 0.0
C1336 C 0.68548 0.91955 0.87945 0.0
C1337 C 0.70356 0.95461 0.86044 0.0
C1338 C 0.64697 0.97117 0.82974 0.0
H1339 H 0.69703 0.98985 0.75388 0.0
H1340 H 0.70295 0.97232 0.77985 0.0
H1341 H 0.62175 0.9858 0.81063 0.0
H1342 H 0.642 0.90168 0.87454 0.0
H1343 H 0.63548 0.92777 0.85079 0.0
H1344 H 0.72188 0.96209 0.83024 0.0
C1345 C 0.68489 0.98732 0.77745 0.0
C1346 C 0.6439 0.98144 0.81477 0.0
C1347 C 0.68124 0.9971 0.76239 0.0
C1348 C 0.65915 0.91697 0.87099 0.0
C1349 C 0.65544 0.93206 0.85724 0.0
C1350 C 0.69991 0.96782 0.82628 0.0
C1351 C 0.66528 0.99625 0.7891 0.0
C1352 C 0.66878 0.98535 0.80525 0.0
C1353 C 0.6779 0.9505 0.85143 0.0
C1354 C 0.67499 0.96381 0.83576 0.0
H1355 H 0.62002 0.0399 0.76758 0.0
H1356 H 0.62669 0.02362 0.79361 0.0
H1357 H 0.71678 0.98154 0.80463 0.0
H1358 H 0.72809 0.94143 0.88035 0.0
H1359 H 0.72121 0.96903 0.85664 0.0
C1360 C 0.4105 0.23864 0.15014 0.0
C1361 C 0.40165 0.21412 0.14137 0.0
C1362 C 0.43977 0.24909 0.14963 0.0
C1363 C 0.5088 0.24975 0.12669 0.0
H1364 H 0.54664 0.26734 0.16525 0.0
C1365 C 0.62385 0.30945 0.13232 0.0
C1366 C 0.64363 0.29808 0.14322 0.0
C1367 C 0.5946 0.29875 0.13126 0.0
C1368 C 0.5365 0.26246 0.15437 0.0
H1369 H 0.41688 0.18191 0.12486 0.0
H1370 H 0.46793 0.20053 0.12377 0.0
H1371 H 0.49542 0.24995 0.16483 0.0
H1372 H 0.64783 0.26611 0.16146 0.0
H1373 H 0.59711 0.24789 0.15971 0.0
H1374 H 0.55002 0.26249 0.11626 0.0
C1375 C 0.4521 0.21159 0.1311 0.0
C1376 C 0.50697 0.2527 0.15412 0.0
C1377 C 0.42283 0.20084 0.13176 0.0
C1378 C 0.6334 0.27549 0.1529 0.0
C1379 C 0.60414 0.26511 0.15197 0.0
C1380 C 0.53828 0.25996 0.12693 0.0
C1381 C 0.4611 0.23561 0.14021 0.0
C1382 C 0.49267 0.24612 0.1403 0.0
C1383 C 0.58421 0.27671 0.14123 0.0
C1384 C 0.55261 0.2663 0.14079 0.0
H1385 H 0.39496 0.24948 0.15771 0.0
H1386 H 0.44574 0.26783 0.15667 0.0
H1387 H 0.49848 0.24507 0.11583 0.0
H1388 H 0.63085 0.32684 0.12467 0.0
H1389 H 0.57985 0.30832 0.12289 0.0
C1390 C 0.58088 0.66084 0.38231 0.0
C1391 C 0.56642 0.63962 0.39137 0.0
C1392 C 0.57069 0.69022 0.3818 0.0
C1393 C 0.5284 0.74482 0.40449 0.0
H1394 H 0.52151 0.78858 0.36679 0.0
C1395 C 0.50491 0.87081 0.4037 0.0
C1396 C 0.48292 0.88092 0.39361 0.0
C1397 C 0.51571 0.84179 0.40282 0.0
C1398 C 0.52325 0.77666 0.37742 0.0
H1399 H 0.52962 0.63302 0.40694 0.0
H1400 H 0.51227 0.68395 0.40617 0.0
H1401 H 0.5388 0.73722 0.36632 0.0
H1402 H 0.45572 0.86821 0.37436 0.0
H1403 H 0.47497 0.81771 0.37265 0.0
H1404 H 0.51303 0.78412 0.41563 0.0
C1405 C 0.53149 0.67795 0.39944 0.0
C1406 C 0.53339 0.74726 0.37716 0.0
C1407 C 0.54137 0.64859 0.39979 0.0
C1408 C 0.47263 0.86129 0.38233 0.0
C1409 C 0.48376 0.83232 0.38131 0.0
C1410 C 0.51872 0.77426 0.40478 0.0
C1411 C 0.54608 0.69927 0.39053 0.0
C1412 C 0.53592 0.73085 0.39069 0.0
C1413 C 0.50516 0.82201 0.39169 0.0
C1414 C 0.51587 0.79062 0.39125 0.0
H1415 H 0.60023 0.65482 0.3757 0.0
H1416 H 0.58259 0.70604 0.37488 0.0
H1417 H 0.53029 0.73303 0.41515 0.0
H1418 H 0.51341 0.88514 0.41256 0.0
H1419 H 0.53241 0.8348 0.41089 0.0
C1420 C 0.91344 0.74776 0.65518 0.0
C1421 C 0.9032 0.72757 0.64417 0.0
C1422 C 0.94307 0.75715 0.6553 0.0
C1423 C 1.00792 0.77024 0.63165 0.0
H1424 H 0.05349 0.7619 0.66873 0.0
C1425 C 0.13282 0.80239 0.63348 0.0
C1426 C 0.14553 0.8116 0.6473 0.0
C1427 C 0.10368 0.79149 0.63294 0.0
C1428 C 0.04116 0.76508 0.65832 0.0
H1429 H 0.91626 0.70183 0.62447 0.0
H1430 H 0.96795 0.71927 0.62434 0.0
H1431 H 1.00229 0.74493 0.66793 0.0
H1432 H 0.13712 0.81712 0.67137 0.0
H1433 H 0.08601 0.79987 0.6704 0.0
H1434 H 0.04585 0.79172 0.62215 0.0
C1435 C 0.95293 0.72741 0.63301 0.0
C1436 C 1.01172 0.75499 0.65785 0.0
C1437 C 0.92337 0.71739 0.63311 0.0
C1438 C 0.12814 0.80999 0.66055 0.0
C1439 C 0.09873 0.79975 0.65997 0.0
C1440 C 0.03714 0.78101 0.63219 0.0
C1441 C 0.9632 0.74718 0.64422 0.0
C1442 C 0.99475 0.75737 0.64451 0.0
C1443 C 0.08592 0.79007 0.64616 0.0
C1444 C 0.05443 0.7786 0.64554 0.0
H1445 H 0.89865 0.75594 0.66394 0.0
H1446 H 0.95022 0.77249 0.66403 0.0
H1447 H 0.99531 0.7727 0.62124 0.0
H1448 H 0.14564 0.80299 0.62306 0.0
H1449 H 0.09538 0.78375 0.6221 0.0
C1450 C 0.97896 0.36936 0.91003 0.0
C1451 C 0.96701 0.38311 0.89706 0.0
C1452 C 0.9899 0.34037 0.90933 0.0
C1453 C 1.01625 0.28267 0.88196 0.0
H1454 H 1.00535 0.23064 0.91645 0.0
C1455 C 0.07419 0.16753 0.88637 0.0
C1456 C 0.05856 0.1445 0.89353 0.0
C1457 C 0.06276 0.19644 0.88618 0.0
C1458 C 1.00842 0.24468 0.90662 0.0
H1459 H 0.95709 0.37661 0.87315 0.0
H1460 H 0.97561 0.32605 0.87199 0.0
H1461 H 0.98546 0.28051 0.91733 0.0
H1462 H 1.01795 0.13395 0.90561 0.0
H1463 H 0.99795 0.18375 0.90503 0.0
H1464 H 0.03868 0.24651 0.87113 0.0
C1465 C 0.97703 0.33785 0.88269 0.0
C1466 C 0.9973 0.27359 0.90722 0.0
C1467 C 0.96614 0.36688 0.88339 0.0
C1468 C 0.03083 0.15105 0.90009 0.0
C1469 C 0.0194 0.17982 0.89987 0.0
C1470 C 0.02738 0.2537 0.88135 0.0
C1471 C 0.98918 0.32412 0.89564 0.0
C1472 C 1.00101 0.2931 0.89491 0.0
C1473 C 0.03534 0.20312 0.89312 0.0
C1474 C 0.0236 0.23419 0.89367 0.0
H1475 H 0.98024 0.38109 0.92076 0.0
H1476 H 0.99944 0.33091 0.91951 0.0
H1477 H 0.01993 0.297 0.8723 0.0
H1478 H 0.09565 0.16343 0.88125 0.0
H1479 H 0.07588 0.21371 0.88097 0.0
C1480 C 0.62822 0.78635 0.90218 0.0
C1481 C 0.63742 0.81004 0.91145 0.0
C1482 C 0.59892 0.77598 0.90266 0.0
C1483 C 0.53032 0.77447 0.92609 0.0
H1484 H 0.49191 0.75779 0.88758 0.0
C1485 C 0.41562 0.71477 0.92104 0.0
C1486 C 0.39567 0.72533 0.91 0.0
C1487 C 0.4447 0.72588 0.92195 0.0
C1488 C 0.50218 0.76248 0.89845 0.0
H1489 H 0.62274 0.84081 0.92881 0.0
H1490 H 0.57168 0.82245 0.92977 0.0
H1491 H 0.5431 0.7752 0.8879 0.0
H1492 H 0.39092 0.7564 0.8914 0.0
H1493 H 0.44139 0.77553 0.89295 0.0
H1494 H 0.48925 0.76168 0.93662 0.0
C1495 C 0.58725 0.81192 0.9221 0.0
C1496 C 0.53172 0.7722 0.89864 0.0
C1497 C 0.61656 0.82253 0.92151 0.0
C1498 C 0.40552 0.74766 0.90007 0.0
C1499 C 0.43463 0.75852 0.90088 0.0
C1500 C 0.50081 0.7644 0.92591 0.0
C1501 C 0.57789 0.78875 0.91251 0.0
C1502 C 0.54627 0.77837 0.91245 0.0
C1503 C 0.45476 0.74763 0.91174 0.0
C1504 C 0.48627 0.75835 0.91207 0.0
H1505 H 0.64352 0.77611 0.89427 0.0
H1506 H 0.59272 0.75785 0.89526 0.0
H1507 H 0.5408 0.77881 0.93695 0.0
H1508 H 0.40892 0.6976 0.92888 0.0
H1509 H 0.45957 0.7168 0.9304 0.0
C1510 C 0.50908 0.3836 0.65239 0.0
C1511 C 0.48565 0.39279 0.6619 0.0
C1512 C 0.52048 0.35484 0.65328 0.0
C1513 C 0.52629 0.28851 0.67783 0.0
H1514 H 0.5385 0.24736 0.63962 0.0
C1515 C 0.58595 0.17354 0.67235 0.0
C1516 C 0.57274 0.15295 0.66242 0.0
C1517 C 0.57539 0.20278 0.67322 0.0
C1518 C 0.53517 0.25845 0.65041 0.0
H1519 H 0.45657 0.37875 0.68015 0.0
H1520 H 0.47683 0.32863 0.68185 0.0
H1521 H 0.52042 0.29812 0.63953 0.0
H1522 H 0.5377 0.14726 0.64575 0.0
H1523 H 0.51975 0.19786 0.64717 0.0
H1524 H 0.54119 0.24863 0.68867 0.0
C1525 C 0.48628 0.3438 0.67366 0.0
C1526 C 0.52502 0.28771 0.65036 0.0
C1527 C 0.47458 0.37254 0.67264 0.0
C1528 C 0.54852 0.16234 0.65355 0.0
C1529 C 0.53828 0.19152 0.65428 0.0
C1530 C 0.53689 0.25927 0.67788 0.0
C1531 C 0.50908 0.33439 0.66381 0.0
C1532 C 0.52029 0.30318 0.66405 0.0
C1533 C 0.55167 0.21227 0.66402 0.0
C1534 C 0.54126 0.24375 0.66416 0.0
H1535 H 0.51827 0.39842 0.64396 0.0
H1536 H 0.53827 0.34857 0.64564 0.0
H1537 H 0.52309 0.29976 0.68859 0.0
H1538 H 0.60463 0.16717 0.67934 0.0
H1539 H 0.58634 0.21818 0.68081 0.0
C1540 C 0.12334 0.31491 0.42241 0.0
C1541 C 0.14269 0.30417 0.41109 0.0
C1542 C 0.09377 0.30502 0.42322 0.0
C1543 C 0.03438 0.27323 0.39922 0.0
H1544 H 0.99685 0.25098 0.43721 0.0
C1545 C 0.90815 0.24869 0.40344 0.0
C1546 C 0.8998 0.22303 0.41138 0.0
C1547 C 0.93741 0.25926 0.40403 0.0
C1548 C 1.00701 0.25708 0.4265 0.0
H1549 H 0.14575 0.27423 0.39184 0.0
H1550 H 0.09451 0.25748 0.39316 0.0
H1551 H 0.04857 0.2678 0.43715 0.0
H1552 H 0.91586 0.18885 0.42651 0.0
H1553 H 0.96673 0.20759 0.42774 0.0
H1554 H 0.99296 0.26265 0.38855 0.0
C1555 C 0.10213 0.27355 0.40142 0.0
C1556 C 0.0366 0.26694 0.42648 0.0
C1557 C 0.13169 0.28306 0.40074 0.0
C1558 C 0.92142 0.20865 0.42023 0.0
C1559 C 0.9506 0.21948 0.421 0.0
C1560 C 1.00472 0.26384 0.39927 0.0
C1561 C 0.08264 0.28451 0.41258 0.0
C1562 C 0.05079 0.27491 0.41282 0.0
C1563 C 0.95912 0.24474 0.41275 0.0
C1564 C 0.99063 0.25544 0.41288 0.0
H1565 H 0.13095 0.33117 0.43057 0.0
H1566 H 0.07937 0.31404 0.43193 0.0
H1567 H 0.04444 0.27942 0.3885 0.0
H1568 H 0.89221 0.26037 0.39648 0.0
H1569 H 0.94304 0.27892 0.39765 0.0
C1570 C 0.07192 0.65521 0.17203 0.0
C1571 C 0.06099 0.63482 0.16128 0.0
C1572 C 0.06093 0.68426 0.17267 0.0
C1573 C 0.02459 0.74102 0.14887 0.0
H1574 H 1.00736 0.78025 0.18712 0.0
C1575 C 1.00395 0.86734 0.15271 0.0
C1576 C 0.97982 0.87717 0.16157 0.0
C1577 C 1.01322 0.83778 0.15313 0.0
C1578 C 1.01195 0.7696 0.17633 0.0
H1579 H 0.02959 0.62942 0.14281 0.0
H1580 H 1.01082 0.67997 0.1438 0.0
H1581 H 0.02424 0.72878 0.18706 0.0
H1582 H 0.94694 0.86323 0.17806 0.0
H1583 H 0.96354 0.81167 0.179 0.0
H1584 H 1.01264 0.78182 0.13812 0.0
C1585 C 0.0279 0.67347 0.15177 0.0
C1586 C 0.02187 0.74013 0.1763 0.0
C1587 C 0.03857 0.64434 0.15128 0.0
C1588 C 0.96559 0.85656 0.17109 0.0
C1589 C 0.97519 0.82698 0.17167 0.0
C1590 C 1.01513 0.77057 0.14891 0.0
C1591 C 0.03901 0.69394 0.16242 0.0
C1592 C 0.02828 0.72537 0.16256 0.0
C1593 C 0.99895 0.81708 0.16255 0.0
C1594 C 1.00866 0.78534 0.16263 0.0
H1595 H 0.08915 0.64879 0.17993 0.0
H1596 H 0.07018 0.69939 0.18096 0.0
H1597 H 0.02951 0.73056 0.13807 0.0
H1598 H 1.01549 0.88241 0.1452 0.0
H1599 H 0.03178 0.83114 0.14608 0.0
C1600 C 0.24112 0.25506 0.14797 0.0
C1601 C 0.26287 0.247 0.13727 0.0
C1602 C 0.22459 0.28081 0.14627 0.0
C1603 C 0.22725 0.35446 0.12835 0.0
H1604 H 0.14797 0.35919 0.14538 0.0
C1605 C 0.15631 0.46297 0.1318 0.0
C1606 C 0.14433 0.46888 0.1463 0.0
C1607 C 0.1699 0.43575 0.12864 0.0
C1608 C 0.1701 0.35825 0.14059 0.0
H1609 H 0.28338 0.25926 0.11593 0.0
H1610 H 0.25383 0.30463 0.11272 0.0
H1611 H 0.17153 0.31121 0.14218 0.0
H1612 H 0.13713 0.4506 0.16878 0.0
H1613 H 0.16023 0.40303 0.16316 0.0
H1614 H 0.22538 0.40181 0.12672 0.0
C1615 C 0.24997 0.29092 0.12261 0.0
C1616 C 0.18371 0.33072 0.13877 0.0
C1617 C 0.26666 0.26478 0.12432 0.0
C1618 C 0.14618 0.44688 0.15752 0.0
C1619 C 0.15927 0.41953 0.15428 0.0
C1620 C 0.21337 0.38209 0.12997 0.0
C1621 C 0.22902 0.2995 0.13373 0.0
C1622 C 0.21288 0.32842 0.13311 0.0
C1623 C 0.17128 0.41362 0.13981 0.0
C1624 C 0.18497 0.38431 0.13652 0.0
H1625 H 0.23749 0.24187 0.15808 0.0
H1626 H 0.20921 0.28664 0.15525 0.0
H1627 H 0.24974 0.35372 0.12405 0.0
H1628 H 0.15529 0.47942 0.12289 0.0
H1629 H 0.17886 0.4318 0.11739 0.0
C1630 C 0.33348 0.38272 0.40473 0.0
C1631 C 0.31119 0.38006 0.39362 0.0
C1632 C 0.36037 0.39692 0.40142 0.0
C1633 C 0.39418 0.45127 0.37505 0.0
H1634 H 0.46804 0.42191 0.39172 0.0
C1635 C 0.50021 0.52262 0.38096 0.0
C1636 C 0.52811 0.50912 0.37964 0.0
C1637 C 0.47413 0.50598 0.37973 0.0
C1638 C 0.44772 0.43026 0.38678 0.0
H1639 H 0.30002 0.39028 0.37021 0.0
H1640 H 0.34685 0.41494 0.36446 0.0
H1641 H 0.4223 0.39421 0.3957 0.0
H1642 H 0.55072 0.46772 0.37575 0.0
H1643 H 0.50512 0.43847 0.37329 0.0
H1644 H 0.41961 0.48745 0.36623 0.0
C1645 C 0.34347 0.4062 0.37579 0.0
C1646 C 0.42135 0.41453 0.38925 0.0
C1647 C 0.31663 0.39186 0.37907 0.0
C1648 C 0.52947 0.4788 0.37637 0.0
C1649 C 0.50333 0.46202 0.37525 0.0
C1650 C 0.42054 0.46709 0.37265 0.0
C1651 C 0.36572 0.40901 0.38692 0.0
C1652 C 0.39412 0.42497 0.38358 0.0
C1653 C 0.47531 0.47524 0.3774 0.0
C1654 C 0.44766 0.45699 0.37862 0.0
H1655 H 0.33014 0.37398 0.41606 0.0
H1656 H 0.37676 0.39896 0.41035 0.0
H1657 H 0.37368 0.46016 0.37058 0.0
H1658 H 0.49859 0.5458 0.38396 0.0
H1659 H 0.45312 0.51695 0.38165 0.0
C1660 C 0.26164 0.74292 0.62679 0.0
C1661 C 0.27455 0.77115 0.62619 0.0
C1662 C 0.27911 0.71749 0.62595 0.0
C1663 C 0.31952 0.6656 0.61898 0.0
H1664 H 0.38929 0.66611 0.64468 0.0
C1665 C 0.39255 0.56109 0.62718 0.0
C1666 C 0.40236 0.55531 0.64207 0.0
C1667 C 0.37914 0.58814 0.62355 0.0
C1668 C 0.36983 0.66553 0.63748 0.0
H1669 H 0.31596 0.79483 0.62364 0.0
H1670 H 0.34676 0.75017 0.62207 0.0
H1671 H 0.36196 0.71187 0.64046 0.0
H1672 H 0.40585 0.57379 0.66479 0.0
H1673 H 0.38231 0.62058 0.65853 0.0
H1674 H 0.32668 0.61909 0.61645 0.0
C1675 C 0.32297 0.7478 0.62326 0.0
C1676 C 0.35438 0.69191 0.63488 0.0
C1677 C 0.30533 0.77339 0.62395 0.0
C1678 C 0.39863 0.57739 0.65319 0.0
C1679 C 0.3853 0.60441 0.64957 0.0
C1680 C 0.33501 0.63925 0.62154 0.0
C1681 C 0.31011 0.71951 0.62461 0.0
C1682 C 0.32867 0.69223 0.62582 0.0
C1683 C 0.37526 0.61018 0.63471 0.0
C1684 C 0.36009 0.63871 0.63104 0.0
H1685 H 0.238 0.74046 0.62862 0.0
H1686 H 0.26837 0.69624 0.62721 0.0
H1687 H 0.29999 0.66501 0.61182 0.0
H1688 H 0.39511 0.54468 0.61829 0.0
H1689 H 0.37199 0.59184 0.61196 0.0
C1690 C 0.04413 0.49467 0.88245 0.0
C1691 C 1.01665 0.50792 0.87926 0.0
C1692 C 0.07033 0.51111 0.88211 0.0
C1693 C 0.10571 0.58124 0.87004 0.0
H1694 H 0.15469 0.56729 0.90555 0.0
C1695 C 0.22419 0.63165 0.87846 0.0
C1696 C 0.23132 0.64164 0.89319 0.0
C1697 C 0.1975 0.61656 0.87569 0.0
C1698 C 0.14126 0.57164 0.8956 0.0
H1699 H 0.99542 0.54859 0.87228 0.0
H1700 H 0.04151 0.57755 0.87164 0.0
H1701 H 0.10957 0.53879 0.90195 0.0
H1702 H 0.21543 0.64401 0.91647 0.0
H1703 H 0.16926 0.61784 0.91166 0.0
H1704 H 0.13761 0.61442 0.86383 0.0
C1705 C 0.04266 0.55427 0.87438 0.0
C1706 C 0.11548 0.55501 0.89343 0.0
C1707 C 1.01625 0.53768 0.8747 0.0
C1708 C 0.21087 0.63655 0.905 0.0
C1709 C 0.18437 0.62137 0.90225 0.0
C1710 C 0.13178 0.5978 0.87216 0.0
C1711 C 0.06987 0.54138 0.87862 0.0
C1712 C 0.09734 0.55948 0.88063 0.0
C1713 C 0.17741 0.61091 0.8876 0.0
C1714 C 0.14981 0.59327 0.88502 0.0
H1715 H 0.04529 0.47172 0.88587 0.0
H1716 H 0.09092 0.50025 0.88506 0.0
H1717 H 0.09231 0.58521 0.86004 0.0
H1718 H 0.23937 0.63518 0.86908 0.0
H1719 H 0.19297 0.60864 0.8643 0.0
C1720 C 0.77245 0.75681 0.92539 0.0
C1721 C 0.77964 0.78006 0.91549 0.0
C1722 C 0.79037 0.73134 0.92591 0.0
C1723 C 0.84122 0.69083 0.90038 0.0
H1724 H 0.85901 0.64229 0.93547 0.0
C1725 C 0.88362 0.5717 0.89389 0.0
C1726 C 0.90666 0.56203 0.90344 0.0
C1727 C 0.86965 0.59883 0.8964 0.0
C1728 C 0.85441 0.65575 0.92558 0.0
H1729 H 0.81223 0.79612 0.89941 0.0
H1730 H 0.84367 0.75259 0.90064 0.0
H1731 H 0.83253 0.68924 0.93887 0.0
H1732 H 0.93298 0.57361 0.9232 0.0
H1733 H 0.90852 0.62126 0.92755 0.0
H1734 H 0.86289 0.6577 0.88706 0.0
C1735 C 0.82392 0.7533 0.90766 0.0
C1736 C 0.839 0.6825 0.92752 0.0
C1737 C 0.80604 0.77839 0.90705 0.0
C1738 C 0.91545 0.5804 0.91556 0.0
C1739 C 0.90125 0.60759 0.91815 0.0
C1740 C 0.85636 0.66418 0.89845 0.0
C1741 C 0.81574 0.72889 0.91657 0.0
C1742 C 0.83228 0.70043 0.91492 0.0
C1743 C 0.87818 0.61715 0.90857 0.0
C1744 C 0.86307 0.64617 0.91097 0.0
H1745 H 0.75206 0.75744 0.93191 0.0
H1746 H 0.78341 0.71295 0.93291 0.0
H1747 H 0.83607 0.70373 0.89037 0.0
H1748 H 0.87611 0.5582 0.88446 0.0
H1749 H 0.85176 0.60525 0.88889 0.0
C1750 C 0.71131 0.65359 0.64933 0.0
C1751 C 0.73329 0.6557 0.66062 0.0
C1752 C 0.68411 0.63997 0.65239 0.0
C1753 C 0.64758 0.58492 0.67661 0.0
H1754 H 0.57586 0.62173 0.6615 0.0
C1755 C 0.53088 0.52757 0.67961 0.0
C1756 C 0.51523 0.52881 0.66579 0.0
C1757 C 0.55641 0.54512 0.6818 0.0
C1758 C 0.59564 0.61103 0.66578 0.0
H1759 H 0.74385 0.64473 0.68399 0.0
H1760 H 0.69629 0.6204 0.68926 0.0
H1761 H 0.62293 0.64784 0.65961 0.0
H1762 H 0.51332 0.55046 0.64381 0.0
H1763 H 0.55697 0.58044 0.64756 0.0
H1764 H 0.6203 0.54754 0.6822 0.0
C1765 C 0.7002 0.62955 0.67806 0.0
C1766 C 0.62265 0.62605 0.66468 0.0
C1767 C 0.72736 0.64364 0.67506 0.0
C1768 C 0.5249 0.54871 0.65456 0.0
C1769 C 0.54992 0.56623 0.65678 0.0
C1770 C 0.62045 0.56971 0.67759 0.0
C1771 C 0.67817 0.6277 0.66677 0.0
C1772 C 0.64911 0.61291 0.6697 0.0
C1773 C 0.56633 0.56454 0.67032 0.0
C1774 C 0.59425 0.58224 0.67176 0.0
H1775 H 0.71504 0.66261 0.63809 0.0
H1776 H 0.66781 0.63862 0.64337 0.0
H1777 H 0.66757 0.57417 0.68057 0.0
H1778 H 0.52406 0.51238 0.68844 0.0
H1779 H 0.56846 0.54336 0.6924 0.0
C1780 C 0.7358 0.25466 0.42618 0.0
C1781 C 0.7669 0.25558 0.42625 0.0
C1782 C 0.71917 0.28069 0.42738 0.0
C1783 C 0.72326 0.36227 0.43463 0.0
H1784 H 0.65935 0.36425 0.40518 0.0
C1785 C 0.64759 0.46562 0.4259 0.0
C1786 C 0.64028 0.47279 0.41079 0.0
C1787 C 0.66208 0.43898 0.42934 0.0
C1788 C 0.67718 0.36421 0.41342 0.0
H1789 H 0.80505 0.28426 0.428 0.0
H1790 H 0.77619 0.32984 0.43016 0.0
H1791 H 0.68624 0.31855 0.40939 0.0
H1792 H 0.64269 0.45728 0.38744 0.0
H1793 H 0.66789 0.4113 0.39338 0.0
H1794 H 0.71467 0.40839 0.43821 0.0
C1795 C 0.76446 0.30901 0.42954 0.0
C1796 C 0.69239 0.33776 0.41603 0.0
C1797 C 0.78108 0.28286 0.42843 0.0
C1798 C 0.64778 0.45257 0.39923 0.0
C1799 C 0.66213 0.426 0.40266 0.0
C1800 C 0.70793 0.3888 0.43204 0.0
C1801 C 0.73328 0.3084 0.42837 0.0
C1802 C 0.71584 0.33638 0.42658 0.0
C1803 C 0.66951 0.41875 0.41775 0.0
C1804 C 0.6849 0.39023 0.42125 0.0
H1805 H 0.72435 0.23399 0.42413 0.0
H1806 H 0.69524 0.2792 0.42675 0.0
H1807 H 0.74105 0.36208 0.44289 0.0
H1808 H 0.64225 0.48064 0.43511 0.0
H1809 H 0.66716 0.43409 0.4411 0.0
C1810 C 0.8254 0.39416 0.1499 0.0
C1811 C 0.80993 0.37864 0.16127 0.0
C1812 C 0.85146 0.40965 0.15333 0.0
C1813 C 0.9144 0.41188 0.17949 0.0
H1814 H 0.92517 0.49169 0.16449 0.0
C1815 C 0.0283 0.46845 0.17025 0.0
C1816 C 0.03136 0.49847 0.17404 0.0
C1817 C 1.00103 0.45405 0.17189 0.0
C1818 C 0.9224 0.46956 0.16892 0.0
H1819 H 0.8101 0.36711 0.1852 0.0
H1820 H 0.85619 0.39352 0.19108 0.0
H1821 H 0.87784 0.46634 0.16051 0.0
H1822 H 1.00843 0.5368 0.18287 0.0
H1823 H 0.96031 0.51169 0.1855 0.0
H1824 H 0.95942 0.4147 0.18735 0.0
C1825 C 0.84786 0.39386 0.17953 0.0
C1826 C 0.89539 0.45494 0.16651 0.0
C1827 C 0.82142 0.3788 0.17616 0.0
C1828 C 1.00684 0.51351 0.18015 0.0
C1829 C 0.97925 0.49923 0.18147 0.0
C1830 C 0.94163 0.42632 0.18165 0.0
C1831 C 0.86307 0.40965 0.16817 0.0
C1832 C 0.89115 0.42581 0.17162 0.0
C1833 C 0.9759 0.4695 0.17701 0.0
C1834 C 0.94606 0.45524 0.17626 0.0
H1835 H 0.81718 0.39468 0.13833 0.0
H1836 H 0.86279 0.42134 0.14429 0.0
H1837 H 0.91189 0.38942 0.1835 0.0
H1838 H 0.04675 0.45645 0.16532 0.0
H1839 H 0.9992 0.43126 0.16824 0.0
C1840 C 0.73621 0.77063 0.64102 0.0
C1841 C 0.76251 0.76444 0.63303 0.0
C1842 C 0.7208 0.79691 0.6387 0.0
C1843 C 0.73223 0.87381 0.62587 0.0
H1844 H 0.64747 0.87784 0.63317 0.0
C1845 C 0.66377 0.98401 0.62771 0.0
C1846 C 0.6462 0.98719 0.64086 0.0
C1847 C 0.67746 0.95692 0.6243 0.0
C1848 C 0.67115 0.8771 0.63109 0.0
H1849 H 0.79254 0.7806 0.61573 0.0
H1850 H 0.76507 0.82681 0.61134 0.0
H1851 H 0.67135 0.82994 0.6302 0.0
H1852 H 0.6289 0.96421 0.66058 0.0
H1853 H 0.65205 0.91694 0.65443 0.0
H1854 H 0.73166 0.92127 0.62674 0.0
C1855 C 0.75665 0.81125 0.61962 0.0
C1856 C 0.68494 0.8496 0.62943 0.0
C1857 C 0.7722 0.78462 0.62196 0.0
C1858 C 0.64228 0.96256 0.65037 0.0
C1859 C 0.65544 0.93542 0.64681 0.0
C1860 C 0.71828 0.90143 0.62731 0.0
C1861 C 0.73103 0.81801 0.62822 0.0
C1862 C 0.71585 0.84744 0.62731 0.0
C1863 C 0.67332 0.93227 0.63379 0.0
C1864 C 0.68771 0.90333 0.63039 0.0
H1865 H 0.72809 0.75559 0.64965 0.0
H1866 H 0.7016 0.80122 0.64576 0.0
H1867 H 0.75605 0.87318 0.62437 0.0
H1868 H 0.6674 1.00259 0.6202 0.0
H1869 H 0.69106 0.95515 0.61418 0.0
C1870 C 0.82727 0.88781 0.90345 0.0
C1871 C 0.80347 0.88921 0.89315 0.0
C1872 C 0.85423 0.90182 0.90021 0.0
C1873 C 0.88544 0.964 0.87907 0.0
H1874 H 0.96101 0.92672 0.88771 0.0
C1875 C 0.99276 0.02811 0.8922 0.0
C1876 C 0.01978 0.01809 0.88612 0.0
C1877 C 0.96657 1.01229 0.88986 0.0
C1878 C 0.94013 0.93731 0.88503 0.0
H1879 H 0.78949 0.9064 0.8713 0.0
H1880 H 0.83645 0.93139 0.8658 0.0
H1881 H 0.91508 0.89821 0.89007 0.0
H1882 H 0.04054 0.98396 0.87254 0.0
H1883 H 0.99447 0.95561 0.86871 0.0
H1884 H 0.91039 1.0034 0.87461 0.0
C1885 C 0.83423 0.91924 0.87634 0.0
C1886 C 0.9138 0.92108 0.88653 0.0
C1887 C 0.80738 0.90482 0.87947 0.0
C1888 C 0.01993 0.99232 0.8772 0.0
C1889 C 0.99367 0.97602 0.87513 0.0
C1890 C 0.91172 0.98034 0.87779 0.0
C1891 C 0.85797 0.91796 0.88669 0.0
C1892 C 0.88611 0.93436 0.8838 0.0
C1893 C 0.96677 0.98567 0.88164 0.0
C1894 C 0.93934 0.96733 0.88099 0.0
H1895 H 0.82507 0.87588 0.91406 0.0
H1896 H 0.87194 0.90065 0.9085 0.0
H1897 H 0.8645 0.97494 0.87696 0.0
H1898 H 0.99205 0.04787 0.89916 0.0
H1899 H 0.94635 0.0202 0.89515 0.0
C1900 C 0.90936 0.06952 0.15595 0.0
C1901 C 0.91062 0.04722 0.14479 0.0
C1902 C 0.89476 0.09628 0.15309 0.0
C1903 C 0.83505 0.12832 0.13 0.0
H1904 H 0.86752 0.2034 0.14327 0.0
C1905 C 0.76414 0.23233 0.14152 0.0
C1906 C 0.77491 0.26005 0.13693 0.0
C1907 C 0.7813 0.20685 0.1397 0.0
C1908 C 0.85828 0.18268 0.13933 0.0
H1909 H 0.8975 0.03585 0.12179 0.0
H1910 H 0.87164 0.08239 0.11689 0.0
H1911 H 0.89711 0.15833 0.14579 0.0
H1912 H 0.81199 0.28279 0.12662 0.0
H1913 H 0.84255 0.23804 0.12367 0.0
H1914 H 0.79585 0.15251 0.12401 0.0
C1915 C 0.8821 0.07916 0.12785 0.0
C1916 C 0.87512 0.1568 0.14091 0.0
C1917 C 0.89709 0.05253 0.13063 0.0
C1918 C 0.80298 0.26164 0.13003 0.0
C1919 C 0.82054 0.2361 0.12851 0.0
C1920 C 0.81805 0.15412 0.12863 0.0
C1921 C 0.88065 0.10135 0.13906 0.0
C1922 C 0.8636 0.12922 0.13643 0.0
C1923 C 0.81003 0.20845 0.13354 0.0
C1924 C 0.8293 0.18159 0.13343 0.0
H1925 H 0.91952 0.06625 0.16697 0.0
H1926 H 0.89384 0.11272 0.16204 0.0
H1927 H 0.82539 0.10748 0.12651 0.0
H1928 H 0.74268 0.23051 0.147 0.0
H1929 H 0.7726 0.18605 0.14383 0.0
C1930 C 0.52581 0.0362 0.40109 0.0
C1931 C 0.51545 0.01739 0.3895 0.0
C1932 C 0.55082 0.05379 0.39899 0.0
C1933 C 0.62032 0.05947 0.37738 0.0
H1934 H 0.62276 0.13645 0.39677 0.0
C1935 C 0.72665 0.1343 0.37988 0.0
C1936 C 0.73292 0.14605 0.39438 0.0
C1937 C 0.69955 0.11996 0.37702 0.0
C1938 C 0.62252 0.11499 0.39131 0.0
H1939 H 0.52318 1.00297 0.36634 0.0
H1940 H 0.5676 0.03403 0.3626 0.0
H1941 H 0.57594 0.10991 0.39503 0.0
H1942 H 0.71535 0.15206 0.41715 0.0
H1943 H 0.66829 0.12758 0.41212 0.0
H1944 H 0.66725 0.06464 0.37388 0.0
C1945 C 0.55606 0.03486 0.3734 0.0
C1946 C 0.59563 0.09972 0.3903 0.0
C1947 C 0.53053 0.01725 0.37548 0.0
C1948 C 0.71136 0.14332 0.40585 0.0
C1949 C 0.68424 0.1294 0.40294 0.0
C1950 C 0.64734 0.07492 0.37831 0.0
C1951 C 0.56655 0.0533 0.3852 0.0
C1952 C 0.59426 0.07133 0.38377 0.0
C1953 C 0.67793 0.1175 0.38851 0.0
C1954 C 0.64889 0.10249 0.38571 0.0
H1955 H 0.51472 0.03716 0.41202 0.0
H1956 H 0.55833 0.06721 0.40844 0.0
H1957 H 0.62017 0.03762 0.37234 0.0
H1958 H 0.7428 0.13589 0.3708 0.0
H1959 H 0.69537 0.11112 0.36577 0.0
C1960 C 0.26097 0.2354 0.41049 0.0
C1961 C 0.2709 0.26207 0.41693 0.0
C1962 C 0.27676 0.20916 0.41259 0.0
C1963 C 0.35187 0.18193 0.41803 0.0
H1964 H 0.31309 0.10677 0.42529 0.0
C1965 C 0.40309 0.06925 0.40074 0.0
C1966 C 0.40067 0.04553 0.41098 0.0
C1967 C 0.38869 0.09611 0.40361 0.0
C1968 C 0.32435 0.12757 0.42339 0.0
H1969 H 0.30498 0.28204 0.43088 0.0
H1970 H 0.33324 0.23595 0.43431 0.0
H1971 H 0.28465 0.15262 0.42726 0.0
H1972 H 0.38116 0.03164 0.43235 0.0
H1973 H 0.35553 0.07842 0.43722 0.0
H1974 H 0.39133 0.15679 0.41364 0.0
C1975 C 0.31291 0.23546 0.42776 0.0
C1976 C 0.30801 0.15384 0.42444 0.0
C1977 C 0.29665 0.26176 0.42592 0.0
C1978 C 0.38358 0.04945 0.42424 0.0
C1979 C 0.36877 0.07622 0.42699 0.0
C1980 C 0.36812 0.15561 0.41674 0.0
C1981 C 0.30329 0.20892 0.42095 0.0
C1982 C 0.32146 0.18134 0.42158 0.0
C1983 C 0.3711 0.09989 0.4167 0.0
C1984 C 0.35447 0.12805 0.41922 0.0
H1985 H 0.24123 0.23496 0.40347 0.0
H1986 H 0.26883 0.18926 0.40707 0.0
H1987 H 0.36285 0.20269 0.41563 0.0
H1988 H 0.41611 0.06708 0.39043 0.0
H1989 H 0.39073 0.11374 0.39536 0.0
C1990 C 0.05075 0.99313 0.1705 0.0
C1991 C 0.02303 1.00512 0.17436 0.0
C1992 C 0.07681 1.00934 0.17266 0.0
C1993 C 0.10212 0.08601 0.17261 0.0
H1994 H 0.17795 0.05164 0.18348 0.0
C1995 C 0.21402 0.13549 0.15306 0.0
C1996 C 0.23789 0.136 0.16335 0.0
C1997 C 0.18745 0.12116 0.15674 0.0
C1998 C 0.15694 0.06173 0.18057 0.0
H1999 H 1.00076 0.04328 0.18378 0.0
H2000 H 0.04652 0.07193 0.18761 0.0
H2001 H 0.13242 0.02308 0.18699 0.0
H2002 H 0.25234 0.12176 0.18567 0.0
H2003 H 0.20595 0.0964 0.19205 0.0
H2004 H 0.12668 0.12435 0.16581 0.0
C2005 C 0.04808 0.04977 0.18303 0.0
C2006 C 0.13084 0.04527 0.18249 0.0
C2007 C 0.02193 0.03327 0.18105 0.0
C2008 C 0.23439 0.12191 0.17749 0.0
C2009 C 0.20786 0.10722 0.18111 0.0
C2010 C 0.12823 0.10234 0.17054 0.0
C2011 C 0.07578 0.03827 0.17848 0.0
C2012 C 0.10311 0.05701 0.17831 0.0
C2013 C 0.18404 0.10664 0.17077 0.0
C2014 C 0.15605 0.09025 0.17426 0.0
H2015 H 0.0521 0.97172 0.165 0.0
H2016 H 0.09759 0.99988 0.16884 0.0
H2017 H 0.08125 0.09568 0.16911 0.0
H2018 H 0.21584 0.14612 0.14207 0.0
H2019 H 0.16977 0.12086 0.14842 0.0
C2020 C 0.13637 0.95554 0.89823 0.0
C2021 C 0.13628 0.97769 0.90946 0.0
C2022 C 0.14973 0.92817 0.90096 0.0
C2023 C 0.20636 0.89103 0.92438 0.0
H2024 H 0.16838 0.82022 0.90901 0.0
C2025 C 0.2612 0.77364 0.9276 0.0
C2026 C 0.26024 0.75819 0.91372 0.0
C2027 C 0.24418 0.79948 0.92966 0.0
C2028 C 0.17936 0.83976 0.91337 0.0
H2029 H 0.15039 0.98829 0.93242 0.0
H2030 H 0.1739 0.94042 0.93713 0.0
H2031 H 0.14265 0.86738 0.90746 0.0
H2032 H 0.23964 0.7571 0.89141 0.0
H2033 H 0.21046 0.80129 0.89496 0.0
H2034 H 0.24349 0.8633 0.92988 0.0
C2035 C 0.16359 0.94434 0.9262 0.0
C2036 C 0.1646 0.86684 0.91244 0.0
C2037 C 0.14995 0.97171 0.92352 0.0
C2038 C 0.2412 0.76849 0.90223 0.0
C2039 C 0.22414 0.79382 0.90431 0.0
C2040 C 0.22124 0.86381 0.92527 0.0
C2041 C 0.16357 0.92217 0.91496 0.0
C2042 C 0.17818 0.89298 0.91756 0.0
C2043 C 0.22552 0.80991 0.91796 0.0
C2044 C 0.20823 0.83796 0.91937 0.0
H2045 H 0.12612 0.95931 0.88727 0.0
H2046 H 0.14965 0.91183 0.89195 0.0
H2047 H 0.21751 0.91073 0.92841 0.0
H2048 H 0.2757 0.76632 0.93666 0.0
H2049 H 0.24567 0.81131 0.94034 0.0
C2050 C 0.32651 0.91104 0.64568 0.0
C2051 C 0.32023 0.88463 0.65345 0.0
C2052 C 0.35305 0.92625 0.6482 0.0
C2053 C 0.41536 0.93557 0.67544 0.0
H2054 H 0.45239 0.97288 0.64062 0.0
C2055 C 0.53064 0.99828 0.6755 0.0
C2056 C 0.53133 0.02392 0.66652 0.0
C2057 C 0.50504 0.98037 0.67578 0.0
C2058 C 0.44225 0.96281 0.65052 0.0
H2059 H 0.33727 0.85371 0.6701 0.0
H2060 H 0.3839 0.88021 0.67437 0.0
H2061 H 0.40851 0.94262 0.637 0.0
H2062 H 0.50532 0.05207 0.65176 0.0
H2063 H 0.46104 0.0216 0.6525 0.0
H2064 H 0.44962 0.956 0.6889 0.0
C2065 C 0.36802 0.88923 0.6664 0.0
C2066 C 0.41698 0.94544 0.64843 0.0
C2067 C 0.34134 0.87391 0.66386 0.0
C2068 C 0.50549 0.03236 0.65875 0.0
C2069 C 0.48017 1.01472 0.65905 0.0
C2070 C 0.44091 0.95298 0.67752 0.0
C2071 C 0.37428 0.91558 0.65854 0.0
C2072 C 0.40273 0.93206 0.66088 0.0
C2073 C 0.47993 0.98789 0.66703 0.0
C2074 C 0.45425 0.96735 0.6651 0.0
H2075 H 0.31083 0.92021 0.63765 0.0
H2076 H 0.35671 0.94673 0.64213 0.0
H2077 H 0.40497 0.92568 0.6853 0.0
H2078 H 0.55038 0.99107 0.68144 0.0
H2079 H 0.50551 0.95986 0.68208 0.0
loop_
_geom_bond_atom_site_label_1
_geom_bond_atom_site_label_2
_geom_bond_distance
_geom_bond_site_symmetry_2
_ccdc_geom_bond_type
Eu0 C9 2.828 . S
Eu0 O11 2.392 . S
Eu0 O13 2.418 . S
Eu0 O18 2.373 . S
Eu0 O21 2.488 . S
Eu0 O22 2.471 . S
Eu0 O23 2.349 . S
Eu1 O10 2.373 . S
Eu1 O14 2.488 . S
Eu1 O15 2.471 . S
Eu1 O16 2.349 . S
Eu1 O19 2.392 . S
Eu1 O20 2.418 . S
Eu1 C30 2.828 . S
C2 O20 1.244 . S
C2 O23 1.265 . S
C3 C4 1.379 . S
C3 C7 1.373 . S
C3 C9 1.505 . S
C4 C3 1.379 . S
C4 C6 1.369 . S
C4 H32 0.930 . S
C5 C7 1.383 . S
C5 C8 1.382 . S
C5 H33 0.930 . S
C6 C4 1.369 . S
C6 C8 1.392 . S
C6 H34 0.930 . S
C7 C3 1.373 . S
C7 C5 1.383 . S
C7 H35 0.931 . S
C8 C5 1.382 . S
C8 C6 1.392 . S
C9 Eu0 2.828 . S
C9 C3 1.505 . S
C9 O21 1.249 . S
C9 O22 1.244 . S
O10 Eu1 2.373 . S
O10 C12 1.258 . S
O11 Eu0 2.392 . S
O11 C12 1.242 . S
C12 O10 1.258 . S
C12 O11 1.242 . S
O13 Eu0 2.418 . S
O13 C17 1.244 . S
O14 Eu1 2.488 . S
O14 C30 1.249 . S
O15 Eu1 2.471 . S
O15 C30 1.244 . S
O16 Eu1 2.349 . S
O16 C17 1.265 . S
C17 O13 1.244 . S
C17 O16 1.265 . S
O18 Eu0 2.373 . S
O18 C31 1.258 . S
O19 Eu1 2.392 . S
O19 C31 1.242 . S
O20 Eu1 2.418 . S
O20 C2 1.244 . S
O21 Eu0 2.488 . S
O21 C9 1.249 . S
O22 Eu0 2.471 . S
O22 C9 1.244 . S
O23 Eu0 2.349 . S
O23 C2 1.265 . S
C24 C25 1.379 . S
C24 C28 1.373 . S
C24 C30 1.505 . S
C25 C24 1.379 . S
C25 C27 1.369 . S
C25 H36 0.930 . S
C26 C28 1.383 . S
C26 C29 1.382 . S
C26 H37 0.930 . S
C27 C25 1.369 . S
C27 C29 1.392 . S
C27 H38 0.930 . S
C28 C24 1.373 . S
C28 C26 1.383 . S
C28 H39 0.931 . S
C29 C26 1.382 . S
C29 C27 1.392 . S
C30 Eu1 2.828 . S
C30 O14 1.249 . S
C30 O15 1.244 . S
C30 C24 1.505 . S
C31 O18 1.258 . S
C31 O19 1.242 . S
H32 C4 0.930 . S
H33 C5 0.930 . S
H34 C6 0.930 . S
H35 C7 0.931 . S
H36 C25 0.930 . S
H37 C26 0.930 . S
H38 C27 0.930 . S
H39 C28 0.931 . S
Eu40 C49 2.828 . S
Eu40 O51 2.392 . S
Eu40 O53 2.418 . S
Eu40 O58 2.373 . S
Eu40 O61 2.488 . S
Eu40 O62 2.471 . S
Eu40 O63 2.349 . S
Eu41 O50 2.373 . S
Eu41 O54 2.488 . S
Eu41 O55 2.471 . S
Eu41 O56 2.349 . S
Eu41 O59 2.392 . S
Eu41 O60 2.418 . S
Eu41 C70 2.828 . S
C42 O60 1.244 . S
C42 O63 1.265 . S
C43 C44 1.379 . S
C43 C47 1.373 . S
C43 C49 1.505 . S
C44 C43 1.379 . S
C44 C46 1.369 . S
C44 H72 0.930 . S
C45 C47 1.383 . S
C45 C48 1.382 . S
C45 H73 0.930 . S
C46 C44 1.369 . S
C46 C48 1.392 . S
C46 H74 0.930 . S
C47 C43 1.373 . S
C47 C45 1.383 . S
C47 H75 0.931 . S
C48 C45 1.382 . S
C48 C46 1.392 . S
C49 Eu40 2.828 . S
C49 C43 1.505 . S
C49 O61 1.249 . S
C49 O62 1.244 . S
O50 Eu41 2.373 . S
O50 C52 1.258 . S
O51 Eu40 2.392 . S
O51 C52 1.242 . S
C52 O50 1.258 . S
C52 O51 1.242 . S
O53 Eu40 2.418 . S
O53 C57 1.244 . S
O54 Eu41 2.488 . S
O54 C70 1.249 . S
O55 Eu41 2.471 . S
O55 C70 1.244 . S
O56 Eu41 2.349 . S
O56 C57 1.265 . S
C57 O53 1.244 . S
C57 O56 1.265 . S
O58 Eu40 2.373 . S
O58 C71 1.258 . S
O59 Eu41 2.392 . S
O59 C71 1.242 . S
O60 Eu41 2.418 . S
O60 C42 1.244 . S
O61 Eu40 2.488 . S
O61 C49 1.249 . S
O62 Eu40 2.471 . S
O62 C49 1.244 . S
O63 Eu40 2.349 . S
O63 C42 1.265 . S
C64 C65 1.379 . S
C64 C68 1.373 . S
C64 C70 1.505 . S
C65 C64 1.379 . S
C65 C67 1.369 . S
C65 H76 0.930 . S
C66 C68 1.383 . S
C66 C69 1.382 . S
C66 H77 0.930 . S
C67 C65 1.369 . S
C67 C69 1.392 . S
C67 H78 0.930 . S
C68 C64 1.373 . S
C68 C66 1.383 . S
C68 H79 0.931 . S
C69 C66 1.382 . S
C69 C67 1.392 . S
C70 Eu41 2.828 . S
C70 O54 1.249 . S
C70 O55 1.244 . S
C70 C64 1.505 . S
C71 O58 1.258 . S
C71 O59 1.242 . S
H72 C44 0.930 . S
H73 C45 0.930 . S
H74 C46 0.930 . S
H75 C47 0.931 . S
H76 C65 0.930 . S
H77 C66 0.930 . S
H78 C67 0.930 . S
H79 C68 0.931 . S
Eu80 C89 2.828 . S
Eu80 O91 2.392 . S
Eu80 O93 2.418 . S
Eu80 O98 2.373 . S
Eu80 O101 2.488 . S
Eu80 O102 2.471 . S
Eu80 O103 2.349 . S
Eu81 O90 2.373 . S
Eu81 O94 2.488 . S
Eu81 O95 2.471 . S
Eu81 O96 2.349 . S
Eu81 O99 2.392 . S
Eu81 O100 2.418 . S
Eu81 C110 2.828 . S
C82 O100 1.244 . S
C82 O103 1.265 . S
C83 C84 1.379 . S
C83 C87 1.373 . S
C83 C89 1.505 . S
C84 C83 1.379 . S
C84 C86 1.369 . S
C84 H112 0.930 . S
C85 C87 1.383 . S
C85 C88 1.382 . S
C85 H113 0.930 . S
C86 C84 1.369 . S
C86 C88 1.392 . S
C86 H114 0.930 . S
C87 C83 1.373 . S
C87 C85 1.383 . S
C87 H115 0.931 . S
C88 C85 1.382 . S
C88 C86 1.392 . S
C89 Eu80 2.828 . S
C89 C83 1.505 . S
C89 O101 1.249 . S
C89 O102 1.244 . S
O90 Eu81 2.373 . S
O90 C92 1.258 . S
O91 Eu80 2.392 . S
O91 C92 1.242 . S
C92 O90 1.258 . S
C92 O91 1.242 . S
O93 Eu80 2.418 . S
O93 C97 1.244 . S
O94 Eu81 2.488 . S
O94 C110 1.249 . S
O95 Eu81 2.471 . S
O95 C110 1.244 . S
O96 Eu81 2.349 . S
O96 C97 1.265 . S
C97 O93 1.244 . S
C97 O96 1.265 . S
O98 Eu80 2.373 . S
O98 C111 1.258 . S
O99 Eu81 2.392 . S
O99 C111 1.242 . S
O100 Eu81 2.418 . S
O100 C82 1.244 . S
O101 Eu80 2.488 . S
O101 C89 1.249 . S
O102 Eu80 2.471 . S
O102 C89 1.244 . S
O103 Eu80 2.349 . S
O103 C82 1.265 . S
C104 C105 1.379 . S
C104 C108 1.373 . S
C104 C110 1.505 . S
C105 C104 1.379 . S
C105 C107 1.369 . S
C105 H116 0.930 . S
C106 C108 1.383 . S
C106 C109 1.382 . S
C106 H117 0.930 . S
C107 C105 1.369 . S
C107 C109 1.392 . S
C107 H118 0.930 . S
C108 C104 1.373 . S
C108 C106 1.383 . S
C108 H119 0.931 . S
C109 C106 1.382 . S
C109 C107 1.392 . S
C110 Eu81 2.828 . S
C110 O94 1.249 . S
C110 O95 1.244 . S
C110 C104 1.505 . S
C111 O98 1.258 . S
C111 O99 1.242 . S
H112 C84 0.930 . S
H113 C85 0.930 . S
H114 C86 0.930 . S
H115 C87 0.931 . S
H116 C105 0.930 . S
H117 C106 0.930 . S
H118 C107 0.930 . S
H119 C108 0.931 . S
Eu120 C129 2.828 . S
Eu120 O131 2.392 . S
Eu120 O133 2.418 . S
Eu120 O138 2.373 . S
Eu120 O141 2.488 . S
Eu120 O142 2.471 . S
Eu120 O143 2.349 . S
Eu121 O130 2.373 . S
Eu121 O134 2.488 . S
Eu121 O135 2.471 . S
Eu121 O136 2.349 . S
Eu121 O139 2.392 . S
Eu121 O140 2.418 . S
Eu121 C150 2.828 . S
C122 O140 1.244 . S
C122 O143 1.265 . S
C123 C124 1.379 . S
C123 C127 1.373 . S
C123 C129 1.505 . S
C124 C123 1.379 . S
C124 C126 1.369 . S
C124 H152 0.930 . S
C125 C127 1.383 . S
C125 C128 1.382 . S
C125 H153 0.930 1_655 S
C126 C124 1.369 . S
C126 C128 1.392 . S
C126 H154 0.930 . S
C127 C123 1.373 . S
C127 C125 1.383 . S
C127 H155 0.931 . S
C128 C125 1.382 . S
C128 C126 1.392 . S
C129 Eu120 2.828 . S
C129 C123 1.505 . S
C129 O141 1.249 . S
C129 O142 1.244 . S
O130 Eu121 2.373 . S
O130 C132 1.258 . S
O131 Eu120 2.392 . S
O131 C132 1.242 . S
C132 O130 1.258 . S
C132 O131 1.242 . S
O133 Eu120 2.418 . S
O133 C137 1.244 . S
O134 Eu121 2.488 . S
O134 C150 1.249 . S
O135 Eu121 2.471 . S
O135 C150 1.244 . S
O136 Eu121 2.349 . S
O136 C137 1.265 . S
C137 O133 1.244 . S
C137 O136 1.265 . S
O138 Eu120 2.373 . S
O138 C151 1.258 . S
O139 Eu121 2.392 . S
O139 C151 1.242 . S
O140 Eu121 2.418 . S
O140 C122 1.244 . S
O141 Eu120 2.488 . S
O141 C129 1.249 . S
O142 Eu120 2.471 . S
O142 C129 1.244 . S
O143 Eu120 2.349 . S
O143 C122 1.265 . S
C144 C145 1.379 . S
C144 C148 1.373 . S
C144 C150 1.505 . S
C145 C144 1.379 . S
C145 C147 1.369 . S
C145 H156 0.930 . S
C146 C148 1.383 . S
C146 C149 1.382 . S
C146 H157 0.930 . S
C147 C145 1.369 . S
C147 C149 1.392 . S
C147 H158 0.930 . S
C148 C144 1.373 . S
C148 C146 1.383 . S
C148 H159 0.931 . S
C149 C146 1.382 . S
C149 C147 1.392 . S
C150 Eu121 2.828 . S
C150 O134 1.249 . S
C150 O135 1.244 . S
C150 C144 1.505 . S
C151 O138 1.258 . S
C151 O139 1.242 . S
H152 C124 0.930 . S
H153 C125 0.930 1_455 S
H154 C126 0.930 . S
H155 C127 0.931 . S
H156 C145 0.930 . S
H157 C146 0.930 . S
H158 C147 0.930 . S
H159 C148 0.931 . S
Eu160 C169 2.828 . S
Eu160 O171 2.392 . S
Eu160 O173 2.418 . S
Eu160 O178 2.373 . S
Eu160 O181 2.488 . S
Eu160 O182 2.471 . S
Eu160 O183 2.349 . S
Eu161 O170 2.373 . S
Eu161 O174 2.488 . S
Eu161 O175 2.471 . S
Eu161 O176 2.349 . S
Eu161 O179 2.392 . S
Eu161 O180 2.418 . S
Eu161 C190 2.828 . S
C162 O180 1.244 . S
C162 O183 1.265 . S
C163 C164 1.379 . S
C163 C167 1.373 . S
C163 C169 1.505 . S
C164 C163 1.379 . S
C164 C166 1.369 . S
C164 H192 0.930 . S
C165 C167 1.383 . S
C165 C168 1.382 . S
C165 H193 0.930 . S
C166 C164 1.369 . S
C166 C168 1.392 . S
C166 H194 0.930 . S
C167 C163 1.373 . S
C167 C165 1.383 . S
C167 H195 0.931 . S
C168 C165 1.382 . S
C168 C166 1.392 . S
C169 Eu160 2.828 . S
C169 C163 1.505 . S
C169 O181 1.249 . S
C169 O182 1.244 . S
O170 Eu161 2.373 . S
O170 C172 1.258 . S
O171 Eu160 2.392 . S
O171 C172 1.242 . S
C172 O170 1.258 . S
C172 O171 1.242 . S
O173 Eu160 2.418 . S
O173 C177 1.244 . S
O174 Eu161 2.488 . S
O174 C190 1.249 . S
O175 Eu161 2.471 . S
O175 C190 1.244 . S
O176 Eu161 2.349 . S
O176 C177 1.265 . S
C177 O173 1.244 . S
C177 O176 1.265 . S
O178 Eu160 2.373 . S
O178 C191 1.258 . S
O179 Eu161 2.392 . S
O179 C191 1.242 . S
O180 Eu161 2.418 . S
O180 C162 1.244 . S
O181 Eu160 2.488 . S
O181 C169 1.249 . S
O182 Eu160 2.471 . S
O182 C169 1.244 . S
O183 Eu160 2.349 . S
O183 C162 1.265 . S
C184 C185 1.379 . S
C184 C188 1.373 . S
C184 C190 1.505 . S
C185 C184 1.379 . S
C185 C187 1.369 . S
C185 H196 0.930 . S
C186 C188 1.383 . S
C186 C189 1.382 . S
C186 H197 0.930 . S
C187 C185 1.369 . S
C187 C189 1.392 . S
C187 H198 0.930 . S
C188 C184 1.373 . S
C188 C186 1.383 . S
C188 H199 0.931 . S
C189 C186 1.382 . S
C189 C187 1.392 . S
C190 Eu161 2.828 . S
C190 O174 1.249 . S
C190 O175 1.244 . S
C190 C184 1.505 . S
C191 O178 1.258 . S
C191 O179 1.242 . S
H192 C164 0.930 . S
H193 C165 0.930 . S
H194 C166 0.930 . S
H195 C167 0.931 . S
H196 C185 0.930 . S
H197 C186 0.930 . S
H198 C187 0.930 . S
H199 C188 0.931 . S
Eu200 C209 2.828 . S
Eu200 O211 2.392 . S
Eu200 O213 2.418 . S
Eu200 O218 2.373 . S
Eu200 O221 2.488 . S
Eu200 O222 2.471 . S
Eu200 O223 2.349 . S
Eu201 O210 2.373 . S
Eu201 O214 2.488 . S
Eu201 O215 2.471 . S
Eu201 O216 2.349 . S
Eu201 O219 2.392 . S
Eu201 O220 2.418 . S
Eu201 C230 2.828 . S
C202 O220 1.244 . S
C202 O223 1.265 . S
C203 C204 1.379 . S
C203 C207 1.373 . S
C203 C209 1.505 . S
C204 C203 1.379 . S
C204 C206 1.369 . S
C204 H232 0.930 . S
C205 C207 1.383 . S
C205 C208 1.382 . S
C205 H233 0.930 . S
C206 C204 1.369 . S
C206 C208 1.392 . S
C206 H234 0.930 . S
C207 C203 1.373 . S
C207 C205 1.383 . S
C207 H235 0.931 . S
C208 C205 1.382 . S
C208 C206 1.392 . S
C209 Eu200 2.828 . S
C209 C203 1.505 . S
C209 O221 1.249 . S
C209 O222 1.244 . S
O210 Eu201 2.373 . S
O210 C212 1.258 . S
O211 Eu200 2.392 . S
O211 C212 1.242 . S
C212 O210 1.258 . S
C212 O211 1.242 . S
O213 Eu200 2.418 . S
O213 C217 1.244 . S
O214 Eu201 2.488 . S
O214 C230 1.249 . S
O215 Eu201 2.471 . S
O215 C230 1.244 . S
O216 Eu201 2.349 . S
O216 C217 1.265 . S
C217 O213 1.244 . S
C217 O216 1.265 . S
O218 Eu200 2.373 . S
O218 C231 1.258 . S
O219 Eu201 2.392 . S
O219 C231 1.242 . S
O220 Eu201 2.418 . S
O220 C202 1.244 . S
O221 Eu200 2.488 . S
O221 C209 1.249 . S
O222 Eu200 2.471 . S
O222 C209 1.244 . S
O223 Eu200 2.349 . S
O223 C202 1.265 . S
C224 C225 1.379 . S
C224 C228 1.373 . S
C224 C230 1.505 . S
C225 C224 1.379 . S
C225 C227 1.369 . S
C225 H236 0.930 . S
C226 C228 1.383 . S
C226 C229 1.382 . S
C226 H237 0.930 . S
C227 C225 1.369 . S
C227 C229 1.392 . S
C227 H238 0.930 . S
C228 C224 1.373 . S
C228 C226 1.383 . S
C228 H239 0.931 . S
C229 C226 1.382 . S
C229 C227 1.392 . S
C230 Eu201 2.828 . S
C230 O214 1.249 . S
C230 O215 1.244 . S
C230 C224 1.505 . S
C231 O218 1.258 . S
C231 O219 1.242 . S
H232 C204 0.930 . S
H233 C205 0.930 . S
H234 C206 0.930 . S
H235 C207 0.931 . S
H236 C225 0.930 . S
H237 C226 0.930 . S
H238 C227 0.930 . S
H239 C228 0.931 . S
Eu240 C249 2.828 . S
Eu240 O251 2.392 . S
Eu240 O253 2.418 . S
Eu240 O258 2.373 . S
Eu240 O261 2.488 . S
Eu240 O262 2.471 . S
Eu240 O263 2.349 . S
Eu241 O250 2.373 . S
Eu241 O254 2.488 . S
Eu241 O255 2.471 . S
Eu241 O256 2.349 . S
Eu241 O259 2.392 . S
Eu241 O260 2.418 . S
Eu241 C270 2.828 . S
C242 O260 1.244 . S
C242 O263 1.265 . S
C243 C244 1.379 . S
C243 C247 1.373 . S
C243 C249 1.505 . S
C244 C243 1.379 . S
C244 C246 1.369 . S
C244 H272 0.930 . S
C245 C247 1.383 . S
C245 C248 1.382 . S
C245 H273 0.930 . S
C246 C244 1.369 . S
C246 C248 1.392 . S
C246 H274 0.930 . S
C247 C243 1.373 . S
C247 C245 1.383 . S
C247 H275 0.931 . S
C248 C245 1.382 . S
C248 C246 1.392 . S
C249 Eu240 2.828 . S
C249 C243 1.505 . S
C249 O261 1.249 . S
C249 O262 1.244 . S
O250 Eu241 2.373 . S
O250 C252 1.258 . S
O251 Eu240 2.392 . S
O251 C252 1.242 . S
C252 O250 1.258 . S
C252 O251 1.242 . S
O253 Eu240 2.418 . S
O253 C257 1.244 . S
O254 Eu241 2.488 . S
O254 C270 1.249 . S
O255 Eu241 2.471 . S
O255 C270 1.244 . S
O256 Eu241 2.349 . S
O256 C257 1.265 . S
C257 O253 1.244 . S
C257 O256 1.265 . S
O258 Eu240 2.373 . S
O258 C271 1.258 . S
O259 Eu241 2.392 . S
O259 C271 1.242 . S
O260 Eu241 2.418 . S
O260 C242 1.244 . S
O261 Eu240 2.488 . S
O261 C249 1.249 . S
O262 Eu240 2.471 . S
O262 C249 1.244 . S
O263 Eu240 2.349 . S
O263 C242 1.265 . S
C264 C265 1.379 . S
C264 C268 1.373 . S
C264 C270 1.505 . S
C265 C264 1.379 . S
C265 C267 1.369 . S
C265 H276 0.930 . S
C266 C268 1.383 . S
C266 C269 1.382 . S
C266 H277 0.930 . S
C267 C265 1.369 . S
C267 C269 1.392 . S
C267 H278 0.930 . S
C268 C264 1.373 . S
C268 C266 1.383 . S
C268 H279 0.931 . S
C269 C266 1.382 . S
C269 C267 1.392 . S
C270 Eu241 2.828 . S
C270 O254 1.249 . S
C270 O255 1.244 . S
C270 C264 1.505 . S
C271 O258 1.258 . S
C271 O259 1.242 . S
H272 C244 0.930 . S
H273 C245 0.930 . S
H274 C246 0.930 . S
H275 C247 0.931 . S
H276 C265 0.930 . S
H277 C266 0.930 . S
H278 C267 0.930 . S
H279 C268 0.931 . S
Eu280 C289 2.828 . S
Eu280 O291 2.392 . S
Eu280 O293 2.418 . S
Eu280 O298 2.373 . S
Eu280 O301 2.488 . S
Eu280 O302 2.471 . S
Eu280 O303 2.349 . S
Eu281 O290 2.373 . S
Eu281 O294 2.488 . S
Eu281 O295 2.471 . S
Eu281 O296 2.349 . S
Eu281 O299 2.392 . S
Eu281 O300 2.418 . S
Eu281 C310 2.828 . S
C282 O300 1.244 . S
C282 O303 1.265 . S
C283 C284 1.379 . S
C283 C287 1.373 . S
C283 C289 1.505 . S
C284 C283 1.379 . S
C284 C286 1.369 . S
C284 H312 0.930 . S
C285 C287 1.383 . S
C285 C288 1.382 . S
C285 H313 0.930 . S
C286 C284 1.369 . S
C286 C288 1.392 . S
C286 H314 0.930 . S
C287 C283 1.373 . S
C287 C285 1.383 . S
C287 H315 0.931 . S
C288 C285 1.382 . S
C288 C286 1.392 . S
C289 Eu280 2.828 . S
C289 C283 1.505 . S
C289 O301 1.249 . S
C289 O302 1.244 . S
O290 Eu281 2.373 . S
O290 C292 1.258 . S
O291 Eu280 2.392 . S
O291 C292 1.242 . S
C292 O290 1.258 . S
C292 O291 1.242 . S
O293 Eu280 2.418 . S
O293 C297 1.244 . S
O294 Eu281 2.488 . S
O294 C310 1.249 . S
O295 Eu281 2.471 . S
O295 C310 1.244 . S
O296 Eu281 2.349 . S
O296 C297 1.265 . S
C297 O293 1.244 . S
C297 O296 1.265 . S
O298 Eu280 2.373 . S
O298 C311 1.258 . S
O299 Eu281 2.392 . S
O299 C311 1.242 . S
O300 Eu281 2.418 . S
O300 C282 1.244 . S
O301 Eu280 2.488 . S
O301 C289 1.249 . S
O302 Eu280 2.471 . S
O302 C289 1.244 . S
O303 Eu280 2.349 . S
O303 C282 1.265 . S
C304 C305 1.379 . S
C304 C308 1.373 . S
C304 C310 1.505 . S
C305 C304 1.379 . S
C305 C307 1.369 . S
C305 H316 0.930 . S
C306 C308 1.383 . S
C306 C309 1.382 . S
C306 H317 0.930 1_455 S
C307 C305 1.369 . S
C307 C309 1.392 . S
C307 H318 0.930 . S
C308 C304 1.373 . S
C308 C306 1.383 . S
C308 H319 0.931 . S
C309 C306 1.382 . S
C309 C307 1.392 . S
C310 Eu281 2.828 . S
C310 O294 1.249 . S
C310 O295 1.244 . S
C310 C304 1.505 . S
C311 O298 1.258 . S
C311 O299 1.242 . S
H312 C284 0.930 . S
H313 C285 0.930 . S
H314 C286 0.930 . S
H315 C287 0.931 . S
H316 C305 0.930 . S
H317 C306 0.930 1_655 S
H318 C307 0.930 . S
H319 C308 0.931 . S
Eu320 C329 2.828 . S
Eu320 O331 2.392 . S
Eu320 O333 2.418 . S
Eu320 O338 2.373 . S
Eu320 O341 2.488 . S
Eu320 O342 2.471 . S
Eu320 O343 2.349 . S
Eu321 O330 2.373 . S
Eu321 O334 2.488 . S
Eu321 O335 2.471 . S
Eu321 O336 2.349 . S
Eu321 O339 2.392 . S
Eu321 O340 2.418 . S
Eu321 C350 2.828 . S
C322 O340 1.244 . S
C322 O343 1.265 . S
C323 C324 1.379 . S
C323 C327 1.373 . S
C323 C329 1.505 . S
C324 C323 1.379 . S
C324 C326 1.369 . S
C324 H352 0.930 . S
C325 C327 1.383 . S
C325 C328 1.382 . S
C325 H353 0.930 . S
C326 C324 1.369 . S
C326 C328 1.392 . S
C326 H354 0.930 . S
C327 C323 1.373 . S
C327 C325 1.383 . S
C327 H355 0.931 . S
C328 C325 1.382 . S
C328 C326 1.392 . S
C329 Eu320 2.828 . S
C329 C323 1.505 . S
C329 O341 1.249 . S
C329 O342 1.244 . S
O330 Eu321 2.373 . S
O330 C332 1.258 . S
O331 Eu320 2.392 . S
O331 C332 1.242 . S
C332 O330 1.258 . S
C332 O331 1.242 . S
O333 Eu320 2.418 . S
O333 C337 1.244 . S
O334 Eu321 2.488 . S
O334 C350 1.249 . S
O335 Eu321 2.471 . S
O335 C350 1.244 . S
O336 Eu321 2.349 . S
O336 C337 1.265 . S
C337 O333 1.244 . S
C337 O336 1.265 . S
O338 Eu320 2.373 . S
O338 C351 1.258 . S
O339 Eu321 2.392 . S
O339 C351 1.242 . S
O340 Eu321 2.418 . S
O340 C322 1.244 . S
O341 Eu320 2.488 . S
O341 C329 1.249 . S
O342 Eu320 2.471 . S
O342 C329 1.244 . S
O343 Eu320 2.349 . S
O343 C322 1.265 . S
C344 C345 1.379 . S
C344 C348 1.373 . S
C344 C350 1.505 . S
C345 C344 1.379 . S
C345 C347 1.369 . S
C345 H356 0.930 . S
C346 C348 1.383 . S
C346 C349 1.382 . S
C346 H357 0.930 . S
C347 C345 1.369 . S
C347 C349 1.392 . S
C347 H358 0.930 . S
C348 C344 1.373 . S
C348 C346 1.383 . S
C348 H359 0.931 . S
C349 C346 1.382 . S
C349 C347 1.392 . S
C350 Eu321 2.828 . S
C350 O334 1.249 . S
C350 O335 1.244 . S
C350 C344 1.505 . S
C351 O338 1.258 . S
C351 O339 1.242 . S
H352 C324 0.930 . S
H353 C325 0.930 . S
H354 C326 0.930 . S
H355 C327 0.931 . S
H356 C345 0.930 . S
H357 C346 0.930 . S
H358 C347 0.930 . S
H359 C348 0.931 . S
Eu360 C369 2.828 . S
Eu360 O371 2.392 1_545 S
Eu360 O373 2.418 . S
Eu360 O378 2.373 . S
Eu360 O381 2.488 . S
Eu360 O382 2.471 . S
Eu360 O383 2.349 . S
Eu361 O370 2.374 . S
Eu361 O374 2.488 . S
Eu361 O375 2.471 . S
Eu361 O376 2.349 . S
Eu361 O379 2.392 . S
Eu361 O380 2.418 . S
Eu361 C390 2.828 . S
C362 O380 1.244 . S
C362 O383 1.265 . S
C363 C364 1.379 . S
C363 C367 1.373 . S
C363 C369 1.505 . S
C364 C363 1.379 . S
C364 C366 1.369 . S
C364 H392 0.930 . S
C365 C367 1.383 . S
C365 C368 1.382 . S
C365 H393 0.930 1_455 S
C366 C364 1.369 . S
C366 C368 1.392 . S
C366 H394 0.930 . S
C367 C363 1.373 . S
C367 C365 1.383 . S
C367 H395 0.931 . S
C368 C365 1.382 . S
C368 C366 1.392 . S
C369 Eu360 2.828 . S
C369 C363 1.505 . S
C369 O381 1.249 . S
C369 O382 1.244 . S
O370 Eu361 2.374 . S
O370 C372 1.257 1_545 S
O371 Eu360 2.392 1_565 S
O371 C372 1.242 . S
C372 O370 1.257 1_565 S
C372 O371 1.242 . S
O373 Eu360 2.418 . S
O373 C377 1.244 . S
O374 Eu361 2.488 . S
O374 C390 1.249 . S
O375 Eu361 2.471 . S
O375 C390 1.244 . S
O376 Eu361 2.349 . S
O376 C377 1.265 . S
C377 O373 1.244 . S
C377 O376 1.265 . S
O378 Eu360 2.373 . S
O378 C391 1.258 . S
O379 Eu361 2.392 . S
O379 C391 1.242 . S
O380 Eu361 2.418 . S
O380 C362 1.244 . S
O381 Eu360 2.488 . S
O381 C369 1.249 . S
O382 Eu360 2.471 . S
O382 C369 1.244 . S
O383 Eu360 2.349 . S
O383 C362 1.265 . S
C384 C385 1.379 1_545 S
C384 C388 1.373 . S
C384 C390 1.505 . S
C385 C384 1.379 1_565 S
C385 C387 1.369 . S
C385 H396 0.930 . S
C386 C388 1.383 . S
C386 C389 1.382 1_545 S
C386 H397 0.930 . S
C387 C385 1.369 . S
C387 C389 1.392 . S
C387 H398 0.930 . S
C388 C384 1.373 . S
C388 C386 1.383 . S
C388 H399 0.931 . S
C389 C386 1.382 1_565 S
C389 C387 1.392 . S
C390 Eu361 2.828 . S
C390 O374 1.249 . S
C390 O375 1.244 . S
C390 C384 1.505 . S
C391 O378 1.258 . S
C391 O379 1.242 . S
H392 C364 0.930 . S
H393 C365 0.930 1_655 S
H394 C366 0.930 . S
H395 C367 0.931 . S
H396 C385 0.930 . S
H397 C386 0.930 . S
H398 C387 0.930 . S
H399 C388 0.931 . S
Eu400 C409 2.828 . S
Eu400 O411 2.392 . S
Eu400 O413 2.418 . S
Eu400 O418 2.373 . S
Eu400 O421 2.488 . S
Eu400 O422 2.471 . S
Eu400 O423 2.349 . S
Eu401 O410 2.373 . S
Eu401 O414 2.488 . S
Eu401 O415 2.471 . S
Eu401 O416 2.349 . S
Eu401 O419 2.392 . S
Eu401 O420 2.418 . S
Eu401 C430 2.828 . S
C402 O420 1.244 . S
C402 O423 1.265 . S
C403 C404 1.379 . S
C403 C407 1.373 . S
C403 C409 1.505 . S
C404 C403 1.379 . S
C404 C406 1.369 . S
C404 H432 0.930 . S
C405 C407 1.383 . S
C405 C408 1.382 . S
C405 H433 0.930 . S
C406 C404 1.369 . S
C406 C408 1.392 . S
C406 H434 0.930 . S
C407 C403 1.373 . S
C407 C405 1.383 . S
C407 H435 0.931 . S
C408 C405 1.382 . S
C408 C406 1.392 . S
C409 Eu400 2.828 . S
C409 C403 1.505 . S
C409 O421 1.249 . S
C409 O422 1.244 . S
O410 Eu401 2.373 . S
O410 C412 1.258 . S
O411 Eu400 2.392 . S
O411 C412 1.242 . S
C412 O410 1.258 . S
C412 O411 1.242 . S
O413 Eu400 2.418 . S
O413 C417 1.244 . S
O414 Eu401 2.488 . S
O414 C430 1.249 . S
O415 Eu401 2.471 . S
O415 C430 1.244 . S
O416 Eu401 2.349 . S
O416 C417 1.265 . S
C417 O413 1.244 . S
C417 O416 1.265 . S
O418 Eu400 2.373 . S
O418 C431 1.258 . S
O419 Eu401 2.392 . S
O419 C431 1.242 . S
O420 Eu401 2.418 . S
O420 C402 1.244 . S
O421 Eu400 2.488 . S
O421 C409 1.249 . S
O422 Eu400 2.471 . S
O422 C409 1.244 . S
O423 Eu400 2.349 . S
O423 C402 1.265 . S
C424 C425 1.379 . S
C424 C428 1.373 . S
C424 C430 1.505 . S
C425 C424 1.379 . S
C425 C427 1.369 . S
C425 H436 0.930 . S
C426 C428 1.383 . S
C426 C429 1.382 . S
C426 H437 0.930 . S
C427 C425 1.369 . S
C427 C429 1.392 . S
C427 H438 0.930 . S
C428 C424 1.373 . S
C428 C426 1.383 . S
C428 H439 0.931 . S
C429 C426 1.382 . S
C429 C427 1.392 . S
C430 Eu401 2.828 . S
C430 O414 1.249 . S
C430 O415 1.244 . S
C430 C424 1.505 . S
C431 O418 1.258 . S
C431 O419 1.242 . S
H432 C404 0.930 . S
H433 C405 0.930 . S
H434 C406 0.930 . S
H435 C407 0.931 . S
H436 C425 0.930 . S
H437 C426 0.930 . S
H438 C427 0.930 . S
H439 C428 0.931 . S
Eu440 C449 2.828 . S
Eu440 O451 2.392 1_565 S
Eu440 O453 2.418 . S
Eu440 O458 2.373 . S
Eu440 O461 2.488 . S
Eu440 O462 2.471 . S
Eu440 O463 2.349 . S
Eu441 O450 2.374 . S
Eu441 O454 2.488 . S
Eu441 O455 2.471 . S
Eu441 O456 2.349 . S
Eu441 O459 2.392 . S
Eu441 O460 2.418 . S
Eu441 C470 2.828 . S
C442 O460 1.244 . S
C442 O463 1.265 . S
C443 C444 1.379 . S
C443 C447 1.373 . S
C443 C449 1.505 . S
C444 C443 1.379 . S
C444 C446 1.369 . S
C444 H472 0.930 . S
C445 C447 1.383 . S
C445 C448 1.382 . S
C445 H473 0.930 . S
C446 C444 1.369 . S
C446 C448 1.392 . S
C446 H474 0.930 . S
C447 C443 1.373 . S
C447 C445 1.383 . S
C447 H475 0.931 . S
C448 C445 1.382 . S
C448 C446 1.392 . S
C449 Eu440 2.828 . S
C449 C443 1.505 . S
C449 O461 1.249 . S
C449 O462 1.244 . S
O450 Eu441 2.374 . S
O450 C452 1.257 1_565 S
O451 Eu440 2.392 1_545 S
O451 C452 1.242 . S
C452 O450 1.257 1_545 S
C452 O451 1.242 . S
O453 Eu440 2.418 . S
O453 C457 1.244 . S
O454 Eu441 2.488 . S
O454 C470 1.249 . S
O455 Eu441 2.471 . S
O455 C470 1.244 . S
O456 Eu441 2.349 . S
O456 C457 1.265 . S
C457 O453 1.244 . S
C457 O456 1.265 . S
O458 Eu440 2.373 . S
O458 C471 1.258 . S
O459 Eu441 2.392 . S
O459 C471 1.242 . S
O460 Eu441 2.418 . S
O460 C442 1.244 . S
O461 Eu440 2.488 . S
O461 C449 1.249 . S
O462 Eu440 2.471 . S
O462 C449 1.244 . S
O463 Eu440 2.349 . S
O463 C442 1.265 . S
C464 C465 1.379 1_565 S
C464 C468 1.373 . S
C464 C470 1.505 . S
C465 C464 1.379 1_545 S
C465 C467 1.369 . S
C465 H476 0.930 . S
C466 C468 1.383 . S
C466 C469 1.382 1_565 S
C466 H477 0.930 . S
C467 C465 1.369 . S
C467 C469 1.392 . S
C467 H478 0.930 . S
C468 C464 1.373 . S
C468 C466 1.383 . S
C468 H479 0.931 . S
C469 C466 1.382 1_545 S
C469 C467 1.392 . S
C470 Eu441 2.828 . S
C470 O454 1.249 . S
C470 O455 1.244 . S
C470 C464 1.505 . S
C471 O458 1.258 . S
C471 O459 1.242 . S
H472 C444 0.930 . S
H473 C445 0.930 . S
H474 C446 0.930 . S
H475 C447 0.931 . S
H476 C465 0.930 . S
H477 C466 0.930 . S
H478 C467 0.930 . S
H479 C468 0.931 . S
Eu480 C489 2.828 . S
Eu480 O491 2.392 . S
Eu480 O493 2.418 . S
Eu480 O498 2.373 . S
Eu480 O501 2.488 . S
Eu480 O502 2.471 . S
Eu480 O503 2.349 . S
Eu481 O490 2.373 . S
Eu481 O494 2.488 . S
Eu481 O495 2.471 . S
Eu481 O496 2.349 . S
Eu481 O499 2.392 . S
Eu481 O500 2.418 . S
Eu481 C510 2.828 . S
C482 O500 1.244 . S
C482 O503 1.265 . S
C483 C484 1.379 . S
C483 C487 1.373 . S
C483 C489 1.505 . S
C484 C483 1.379 . S
C484 C486 1.369 . S
C484 H512 0.930 . S
C485 C487 1.383 . S
C485 C488 1.382 . S
C485 H513 0.930 . S
C486 C484 1.369 . S
C486 C488 1.392 . S
C486 H514 0.930 . S
C487 C483 1.373 . S
C487 C485 1.383 . S
C487 H515 0.931 . S
C488 C485 1.382 . S
C488 C486 1.392 . S
C489 Eu480 2.828 . S
C489 C483 1.505 . S
C489 O501 1.249 . S
C489 O502 1.244 . S
O490 Eu481 2.373 . S
O490 C492 1.258 . S
O491 Eu480 2.392 . S
O491 C492 1.242 . S
C492 O490 1.258 . S
C492 O491 1.242 . S
O493 Eu480 2.418 . S
O493 C497 1.244 . S
O494 Eu481 2.488 . S
O494 C510 1.249 . S
O495 Eu481 2.471 . S
O495 C510 1.244 . S
O496 Eu481 2.349 . S
O496 C497 1.265 . S
C497 O493 1.244 . S
C497 O496 1.265 . S
O498 Eu480 2.373 . S
O498 C511 1.258 . S
O499 Eu481 2.392 . S
O499 C511 1.242 . S
O500 Eu481 2.418 . S
O500 C482 1.244 . S
O501 Eu480 2.488 . S
O501 C489 1.249 . S
O502 Eu480 2.471 . S
O502 C489 1.244 . S
O503 Eu480 2.349 . S
O503 C482 1.265 . S
C504 C505 1.379 . S
C504 C508 1.373 . S
C504 C510 1.505 . S
C505 C504 1.379 . S
C505 C507 1.369 . S
C505 H516 0.930 . S
C506 C508 1.383 . S
C506 C509 1.382 . S
C506 H517 0.930 . S
C507 C505 1.369 . S
C507 C509 1.392 . S
C507 H518 0.930 . S
C508 C504 1.373 . S
C508 C506 1.383 . S
C508 H519 0.931 . S
C509 C506 1.382 . S
C509 C507 1.392 . S
C510 Eu481 2.828 . S
C510 O494 1.249 . S
C510 O495 1.244 . S
C510 C504 1.505 . S
C511 O498 1.258 . S
C511 O499 1.242 . S
H512 C484 0.930 . S
H513 C485 0.930 . S
H514 C486 0.930 . S
H515 C487 0.931 . S
H516 C505 0.930 . S
H517 C506 0.930 . S
H518 C507 0.930 . S
H519 C508 0.931 . S
Eu520 C529 2.828 . S
Eu520 O531 2.392 . S
Eu520 O533 2.418 . S
Eu520 O538 2.374 . S
Eu520 O541 2.488 . S
Eu520 O542 2.471 . S
Eu520 O543 2.349 . S
Eu521 O530 2.373 . S
Eu521 O534 2.488 . S
Eu521 O535 2.471 . S
Eu521 O536 2.349 . S
Eu521 O539 2.392 1_565 S
Eu521 O540 2.418 . S
Eu521 C550 2.828 . S
C522 O540 1.244 . S
C522 O543 1.265 . S
C523 C524 1.379 1_565 S
C523 C527 1.373 . S
C523 C529 1.505 . S
C524 C523 1.379 1_545 S
C524 C526 1.369 . S
C524 H552 0.930 . S
C525 C527 1.383 . S
C525 C528 1.382 1_565 S
C525 H553 0.930 . S
C526 C524 1.369 . S
C526 C528 1.392 . S
C526 H554 0.930 . S
C527 C523 1.373 . S
C527 C525 1.383 . S
C527 H555 0.931 . S
C528 C525 1.382 1_545 S
C528 C526 1.392 . S
C529 Eu520 2.828 . S
C529 C523 1.505 . S
C529 O541 1.249 . S
C529 O542 1.244 . S
O530 Eu521 2.373 . S
O530 C532 1.258 . S
O531 Eu520 2.392 . S
O531 C532 1.242 . S
C532 O530 1.258 . S
C532 O531 1.242 . S
O533 Eu520 2.418 . S
O533 C537 1.244 . S
O534 Eu521 2.488 . S
O534 C550 1.249 . S
O535 Eu521 2.471 . S
O535 C550 1.244 . S
O536 Eu521 2.349 . S
O536 C537 1.265 . S
C537 O533 1.244 . S
C537 O536 1.265 . S
O538 Eu520 2.374 . S
O538 C551 1.257 1_565 S
O539 Eu521 2.392 1_545 S
O539 C551 1.242 . S
O540 Eu521 2.418 . S
O540 C522 1.244 . S
O541 Eu520 2.488 . S
O541 C529 1.249 . S
O542 Eu520 2.471 . S
O542 C529 1.244 . S
O543 Eu520 2.349 . S
O543 C522 1.265 . S
C544 C545 1.379 . S
C544 C548 1.373 . S
C544 C550 1.505 . S
C545 C544 1.379 . S
C545 C547 1.369 . S
C545 H556 0.930 . S
C546 C548 1.383 . S
C546 C549 1.382 . S
C546 H557 0.930 1_655 S
C547 C545 1.369 . S
C547 C549 1.392 . S
C547 H558 0.930 . S
C548 C544 1.373 . S
C548 C546 1.383 . S
C548 H559 0.931 . S
C549 C546 1.382 . S
C549 C547 1.392 . S
C550 Eu521 2.828 . S
C550 O534 1.249 . S
C550 O535 1.244 . S
C550 C544 1.505 . S
C551 O538 1.257 1_545 S
C551 O539 1.242 . S
H552 C524 0.930 . S
H553 C525 0.930 . S
H554 C526 0.930 . S
H555 C527 0.931 . S
H556 C545 0.930 . S
H557 C546 0.930 1_455 S
H558 C547 0.930 . S
H559 C548 0.931 . S
Eu560 C569 2.828 . S
Eu560 O571 2.392 . S
Eu560 O573 2.418 . S
Eu560 O578 2.373 . S
Eu560 O581 2.488 . S
Eu560 O582 2.471 . S
Eu560 O583 2.349 . S
Eu561 O570 2.373 . S
Eu561 O574 2.488 . S
Eu561 O575 2.471 . S
Eu561 O576 2.349 . S
Eu561 O579 2.392 . S
Eu561 O580 2.418 . S
Eu561 C590 2.828 . S
C562 O580 1.244 . S
C562 O583 1.265 . S
C563 C564 1.379 . S
C563 C567 1.373 . S
C563 C569 1.505 . S
C564 C563 1.379 . S
C564 C566 1.369 . S
C564 H592 0.930 . S
C565 C567 1.383 . S
C565 C568 1.382 . S
C565 H593 0.930 . S
C566 C564 1.369 . S
C566 C568 1.392 . S
C566 H594 0.930 . S
C567 C563 1.373 . S
C567 C565 1.383 . S
C567 H595 0.931 . S
C568 C565 1.382 . S
C568 C566 1.392 . S
C569 Eu560 2.828 . S
C569 C563 1.505 . S
C569 O581 1.249 . S
C569 O582 1.244 . S
O570 Eu561 2.373 . S
O570 C572 1.258 . S
O571 Eu560 2.392 . S
O571 C572 1.242 . S
C572 O570 1.258 . S
C572 O571 1.242 . S
O573 Eu560 2.418 . S
O573 C577 1.244 . S
O574 Eu561 2.488 . S
O574 C590 1.249 . S
O575 Eu561 2.471 . S
O575 C590 1.244 . S
O576 Eu561 2.349 . S
O576 C577 1.265 . S
C577 O573 1.244 . S
C577 O576 1.265 . S
O578 Eu560 2.373 . S
O578 C591 1.258 . S
O579 Eu561 2.392 . S
O579 C591 1.242 . S
O580 Eu561 2.418 . S
O580 C562 1.244 . S
O581 Eu560 2.488 . S
O581 C569 1.249 . S
O582 Eu560 2.471 . S
O582 C569 1.244 . S
O583 Eu560 2.349 . S
O583 C562 1.265 . S
C584 C585 1.379 . S
C584 C588 1.373 . S
C584 C590 1.505 . S
C585 C584 1.379 . S
C585 C587 1.369 . S
C585 H596 0.930 . S
C586 C588 1.383 . S
C586 C589 1.382 . S
C586 H597 0.930 . S
C587 C585 1.369 . S
C587 C589 1.392 . S
C587 H598 0.930 . S
C588 C584 1.373 . S
C588 C586 1.383 . S
C588 H599 0.931 . S
C589 C586 1.382 . S
C589 C587 1.392 . S
C590 Eu561 2.828 . S
C590 O574 1.249 . S
C590 O575 1.244 . S
C590 C584 1.505 . S
C591 O578 1.258 . S
C591 O579 1.242 . S
H592 C564 0.930 . S
H593 C565 0.930 . S
H594 C566 0.930 . S
H595 C567 0.931 . S
H596 C585 0.930 . S
H597 C586 0.930 . S
H598 C587 0.930 . S
H599 C588 0.931 . S
Eu600 C609 2.828 . S
Eu600 O611 2.392 . S
Eu600 O613 2.418 . S
Eu600 O618 2.374 . S
Eu600 O621 2.488 . S
Eu600 O622 2.471 . S
Eu600 O623 2.349 . S
Eu601 O610 2.373 . S
Eu601 O614 2.488 . S
Eu601 O615 2.471 . S
Eu601 O616 2.349 . S
Eu601 O619 2.392 1_545 S
Eu601 O620 2.418 . S
Eu601 C630 2.828 . S
C602 O620 1.244 . S
C602 O623 1.265 . S
C603 C604 1.379 1_545 S
C603 C607 1.373 . S
C603 C609 1.505 . S
C604 C603 1.379 1_565 S
C604 C606 1.369 . S
C604 H632 0.930 . S
C605 C607 1.383 . S
C605 C608 1.382 1_545 S
C605 H633 0.930 . S
C606 C604 1.369 . S
C606 C608 1.392 . S
C606 H634 0.930 . S
C607 C603 1.373 . S
C607 C605 1.383 . S
C607 H635 0.931 . S
C608 C605 1.382 1_565 S
C608 C606 1.392 . S
C609 Eu600 2.828 . S
C609 C603 1.505 . S
C609 O621 1.249 . S
C609 O622 1.244 . S
O610 Eu601 2.373 . S
O610 C612 1.258 . S
O611 Eu600 2.392 . S
O611 C612 1.242 . S
C612 O610 1.258 . S
C612 O611 1.242 . S
O613 Eu600 2.418 . S
O613 C617 1.244 . S
O614 Eu601 2.488 . S
O614 C630 1.249 . S
O615 Eu601 2.471 . S
O615 C630 1.244 . S
O616 Eu601 2.349 . S
O616 C617 1.265 . S
C617 O613 1.244 . S
C617 O616 1.265 . S
O618 Eu600 2.374 . S
O618 C631 1.257 1_545 S
O619 Eu601 2.392 1_565 S
O619 C631 1.242 . S
O620 Eu601 2.418 . S
O620 C602 1.244 . S
O621 Eu600 2.488 . S
O621 C609 1.249 . S
O622 Eu600 2.471 . S
O622 C609 1.244 . S
O623 Eu600 2.349 . S
O623 C602 1.265 . S
C624 C625 1.379 . S
C624 C628 1.373 . S
C624 C630 1.505 . S
C625 C624 1.379 . S
C625 C627 1.369 . S
C625 H636 0.930 . S
C626 C628 1.383 . S
C626 C629 1.382 . S
C626 H637 0.930 . S
C627 C625 1.369 . S
C627 C629 1.392 . S
C627 H638 0.930 . S
C628 C624 1.373 . S
C628 C626 1.383 . S
C628 H639 0.931 . S
C629 C626 1.382 . S
C629 C627 1.392 . S
C630 Eu601 2.828 . S
C630 O614 1.249 . S
C630 O615 1.244 . S
C630 C624 1.505 . S
C631 O618 1.257 1_565 S
C631 O619 1.242 . S
H632 C604 0.930 . S
H633 C605 0.930 . S
H634 C606 0.930 . S
H635 C607 0.931 . S
H636 C625 0.930 . S
H637 C626 0.930 . S
H638 C627 0.930 . S
H639 C628 0.931 . S
C640 C641 1.349 . S
C640 C642 1.327 . S
C640 H665 0.950 . S
C641 C640 1.349 . S
C641 C657 1.349 . S
C642 C640 1.327 . S
C642 C661 1.429 . S
C642 H666 0.950 . S
C643 C660 1.574 . S
C643 C662 1.368 . S
C643 H667 0.949 . S
H644 C648 0.949 . S
C645 C646 1.349 . S
C645 C647 1.327 . S
C645 H668 0.950 . S
C646 C645 1.349 . S
C646 C658 1.349 . S
C647 C645 1.327 . S
C647 C663 1.429 . S
C647 H669 0.950 . S
C648 H644 0.949 . S
C648 C656 1.574 . S
C648 C664 1.368 . S
H649 C657 0.950 . S
H650 C655 0.950 . S
H651 C656 0.949 . S
H652 C658 0.950 . S
H653 C659 0.950 . S
H654 C660 0.949 . S
C655 H650 0.950 . S
C655 C657 1.327 . S
C655 C661 1.429 . S
C656 C648 1.574 . S
C656 H651 0.949 . S
C656 C662 1.368 . S
C657 C641 1.349 . S
C657 H649 0.950 . S
C657 C655 1.327 . S
C658 C646 1.349 . S
C658 H652 0.950 . S
C658 C659 1.327 . S
C659 H653 0.950 . S
C659 C658 1.327 . S
C659 C663 1.429 . S
C660 C643 1.574 . S
C660 H654 0.949 . S
C660 C664 1.368 . S
C661 C642 1.429 . S
C661 C655 1.429 . S
C661 C662 1.523 . S
C662 C643 1.368 . S
C662 C656 1.368 . S
C662 C661 1.523 . S
C663 C647 1.429 . S
C663 C659 1.429 . S
C663 C664 1.523 . S
C664 C648 1.368 . S
C664 C660 1.368 . S
C664 C663 1.523 . S
H665 C640 0.950 . S
H666 C642 0.950 . S
H667 C643 0.949 . S
H668 C645 0.950 . S
H669 C647 0.950 . S
C670 C671 1.349 . S
C670 C672 1.327 . S
C670 H695 0.950 . S
C671 C670 1.349 . S
C671 C687 1.349 . S
C672 C670 1.327 . S
C672 C691 1.429 . S
C672 H696 0.950 . S
C673 C690 1.574 . S
C673 C692 1.368 . S
C673 H697 0.949 . S
H674 C678 0.949 . S
C675 C676 1.349 . S
C675 C677 1.327 . S
C675 H698 0.950 . S
C676 C675 1.349 . S
C676 C688 1.349 . S
C677 C675 1.327 . S
C677 C693 1.429 . S
C677 H699 0.950 . S
C678 H674 0.949 . S
C678 C686 1.574 . S
C678 C694 1.368 . S
H679 C687 0.950 . S
H680 C685 0.950 . S
H681 C686 0.949 . S
H682 C688 0.950 . S
H683 C689 0.950 . S
H684 C690 0.949 . S
C685 H680 0.950 . S
C685 C687 1.327 . S
C685 C691 1.429 . S
C686 C678 1.574 . S
C686 H681 0.949 . S
C686 C692 1.368 . S
C687 C671 1.349 . S
C687 H679 0.950 . S
C687 C685 1.327 . S
C688 C676 1.349 . S
C688 H682 0.950 . S
C688 C689 1.327 . S
C689 H683 0.950 . S
C689 C688 1.327 . S
C689 C693 1.429 . S
C690 C673 1.574 . S
C690 H684 0.949 . S
C690 C694 1.368 . S
C691 C672 1.429 . S
C691 C685 1.429 . S
C691 C692 1.523 . S
C692 C673 1.368 . S
C692 C686 1.368 . S
C692 C691 1.523 . S
C693 C677 1.429 . S
C693 C689 1.429 . S
C693 C694 1.523 . S
C694 C678 1.368 . S
C694 C690 1.368 . S
C694 C693 1.523 . S
H695 C670 0.950 . S
H696 C672 0.950 . S
H697 C673 0.949 . S
H698 C675 0.950 . S
H699 C677 0.950 . S
C700 C701 1.349 . S
C700 C702 1.327 . S
C700 H725 0.950 . S
C701 C700 1.349 . S
C701 C717 1.349 . S
C702 C700 1.327 . S
C702 C721 1.429 . S
C702 H726 0.950 . S
C703 C720 1.574 . S
C703 C722 1.368 . S
C703 H727 0.949 . S
H704 C708 0.949 . S
C705 C706 1.349 . S
C705 C707 1.327 . S
C705 H728 0.950 . S
C706 C705 1.349 . S
C706 C718 1.349 . S
C707 C705 1.327 . S
C707 C723 1.429 . S
C707 H729 0.950 . S
C708 H704 0.949 . S
C708 C716 1.574 . S
C708 C724 1.368 . S
H709 C717 0.950 . S
H710 C715 0.950 . S
H711 C716 0.949 . S
H712 C718 0.950 . S
H713 C719 0.950 . S
H714 C720 0.949 . S
C715 H710 0.950 . S
C715 C717 1.327 . S
C715 C721 1.429 . S
C716 C708 1.574 . S
C716 H711 0.949 . S
C716 C722 1.368 . S
C717 C701 1.349 . S
C717 H709 0.950 . S
C717 C715 1.327 . S
C718 C706 1.349 . S
C718 H712 0.950 . S
C718 C719 1.327 . S
C719 H713 0.950 . S
C719 C718 1.327 . S
C719 C723 1.429 . S
C720 C703 1.574 . S
C720 H714 0.949 . S
C720 C724 1.368 . S
C721 C702 1.429 . S
C721 C715 1.429 . S
C721 C722 1.523 . S
C722 C703 1.368 . S
C722 C716 1.368 . S
C722 C721 1.523 . S
C723 C707 1.429 . S
C723 C719 1.429 . S
C723 C724 1.523 . S
C724 C708 1.368 . S
C724 C720 1.368 . S
C724 C723 1.523 . S
H725 C700 0.950 . S
H726 C702 0.950 . S
H727 C703 0.949 . S
H728 C705 0.950 . S
H729 C707 0.950 . S
C730 C731 1.349 . S
C730 C732 1.327 . S
C730 H755 0.950 . S
C731 C730 1.349 . S
C731 C747 1.349 . S
C732 C730 1.327 . S
C732 C751 1.429 . S
C732 H756 0.950 . S
C733 C750 1.567 1_655 S
C733 C752 1.368 . S
C733 H757 0.949 . S
H734 C738 0.949 . S
C735 C736 1.349 . S
C735 C737 1.327 . S
C735 H758 0.950 . S
C736 C735 1.349 . S
C736 C748 1.349 . S
C737 C735 1.327 . S
C737 C753 1.429 . S
C737 H759 0.950 . S
C738 H734 0.949 . S
C738 C746 1.567 1_455 S
C738 C754 1.368 . S
H739 C747 0.950 . S
H740 C745 0.950 . S
H741 C746 0.951 . S
H742 C748 0.950 . S
H743 C749 0.950 . S
H744 C750 0.951 . S
C745 H740 0.950 . S
C745 C747 1.327 . S
C745 C751 1.429 . S
C746 C738 1.567 1_655 S
C746 H741 0.951 . S
C746 C752 1.374 1_554 S
C747 C731 1.349 . S
C747 H739 0.950 . S
C747 C745 1.327 . S
C748 C736 1.349 . S
C748 H742 0.950 . S
C748 C749 1.327 . S
C749 H743 0.950 . S
C749 C748 1.327 . S
C749 C753 1.429 . S
C750 C733 1.567 1_455 S
C750 H744 0.951 . S
C750 C754 1.374 1_556 S
C751 C732 1.429 . S
C751 C745 1.429 . S
C751 C752 1.523 . S
C752 C733 1.368 . S
C752 C746 1.374 1_556 S
C752 C751 1.523 . S
C753 C737 1.429 . S
C753 C749 1.429 . S
C753 C754 1.523 . S
C754 C738 1.368 . S
C754 C750 1.374 1_554 S
C754 C753 1.523 . S
H755 C730 0.950 . S
H756 C732 0.950 . S
H757 C733 0.949 . S
H758 C735 0.950 . S
H759 C737 0.950 . S
C760 C761 1.349 . S
C760 C762 1.327 . S
C760 H785 0.950 . S
C761 C760 1.349 . S
C761 C777 1.349 . S
C762 C760 1.327 . S
C762 C781 1.429 . S
C762 H786 0.950 . S
C763 C780 1.574 . S
C763 C782 1.368 . S
C763 H787 0.949 . S
H764 C768 0.949 . S
C765 C766 1.349 . S
C765 C767 1.327 . S
C765 H788 0.950 . S
C766 C765 1.349 . S
C766 C778 1.349 . S
C767 C765 1.327 . S
C767 C783 1.429 . S
C767 H789 0.950 . S
C768 H764 0.949 . S
C768 C776 1.574 . S
C768 C784 1.368 . S
H769 C777 0.950 . S
H770 C775 0.950 . S
H771 C776 0.949 . S
H772 C778 0.950 . S
H773 C779 0.950 . S
H774 C780 0.949 . S
C775 H770 0.950 . S
C775 C777 1.327 . S
C775 C781 1.429 . S
C776 C768 1.574 . S
C776 H771 0.949 . S
C776 C782 1.368 . S
C777 C761 1.349 . S
C777 H769 0.950 . S
C777 C775 1.327 . S
C778 C766 1.349 . S
C778 H772 0.950 . S
C778 C779 1.327 . S
C779 H773 0.950 . S
C779 C778 1.327 . S
C779 C783 1.429 . S
C780 C763 1.574 . S
C780 H774 0.949 . S
C780 C784 1.368 . S
C781 C762 1.429 . S
C781 C775 1.429 . S
C781 C782 1.523 . S
C782 C763 1.368 . S
C782 C776 1.368 . S
C782 C781 1.523 . S
C783 C767 1.429 . S
C783 C779 1.429 . S
C783 C784 1.523 . S
C784 C768 1.368 . S
C784 C780 1.368 . S
C784 C783 1.523 . S
H785 C760 0.950 . S
H786 C762 0.950 . S
H787 C763 0.949 . S
H788 C765 0.950 . S
H789 C767 0.950 . S
C790 C791 1.349 . S
C790 C792 1.327 . S
C790 H815 0.950 . S
C791 C790 1.349 . S
C791 C807 1.349 . S
C792 C790 1.327 . S
C792 C811 1.429 . S
C792 H816 0.950 . S
C793 C810 1.574 . S
C793 C812 1.368 . S
C793 H817 0.949 . S
H794 C798 0.949 . S
C795 C796 1.349 . S
C795 C797 1.327 . S
C795 H818 0.950 . S
C796 C795 1.349 . S
C796 C808 1.349 . S
C797 C795 1.327 . S
C797 C813 1.429 . S
C797 H819 0.950 . S
C798 H794 0.949 . S
C798 C806 1.574 . S
C798 C814 1.368 . S
H799 C807 0.950 . S
H800 C805 0.950 . S
H801 C806 0.949 . S
H802 C808 0.950 . S
H803 C809 0.950 . S
H804 C810 0.949 . S
C805 H800 0.950 . S
C805 C807 1.327 . S
C805 C811 1.429 . S
C806 C798 1.574 . S
C806 H801 0.949 . S
C806 C812 1.368 . S
C807 C791 1.349 . S
C807 H799 0.950 . S
C807 C805 1.327 . S
C808 C796 1.349 . S
C808 H802 0.950 . S
C808 C809 1.327 . S
C809 H803 0.950 . S
C809 C808 1.327 . S
C809 C813 1.429 . S
C810 C793 1.574 . S
C810 H804 0.949 . S
C810 C814 1.368 . S
C811 C792 1.429 . S
C811 C805 1.429 . S
C811 C812 1.523 . S
C812 C793 1.368 . S
C812 C806 1.368 . S
C812 C811 1.523 . S
C813 C797 1.429 . S
C813 C809 1.429 . S
C813 C814 1.523 . S
C814 C798 1.368 . S
C814 C810 1.368 . S
C814 C813 1.523 . S
H815 C790 0.950 . S
H816 C792 0.950 . S
H817 C793 0.949 . S
H818 C795 0.950 . S
H819 C797 0.950 . S
C820 C821 1.349 . S
C820 C822 1.327 . S
C820 H845 0.950 . S
C821 C820 1.349 . S
C821 C837 1.349 . S
C822 C820 1.327 . S
C822 C841 1.429 . S
C822 H846 0.950 . S
C823 C840 1.574 1_565 S
C823 C842 1.368 1_455 S
C823 H847 0.949 . S
H824 C828 0.949 . S
C825 C826 1.349 . S
C825 C827 1.327 . S
C825 H848 0.950 . S
C826 C825 1.349 . S
C826 C838 1.349 . S
C827 C825 1.327 . S
C827 C843 1.429 . S
C827 H849 0.950 . S
C828 H824 0.949 . S
C828 C836 1.574 1_545 S
C828 C844 1.368 1_655 S
H829 C837 0.950 1_455 S
H830 C835 0.950 . S
H831 C836 0.949 . S
H832 C838 0.950 1_655 S
H833 C839 0.950 . S
H834 C840 0.949 . S
C835 H830 0.950 . S
C835 C837 1.327 1_455 S
C835 C841 1.429 1_455 S
C836 C828 1.574 1_565 S
C836 H831 0.949 . S
C836 C842 1.368 1_556 S
C837 C821 1.349 . S
C837 H829 0.950 1_655 S
C837 C835 1.327 1_655 S
C838 C826 1.349 . S
C838 H832 0.950 1_455 S
C838 C839 1.327 1_455 S
C839 H833 0.950 . S
C839 C838 1.327 1_655 S
C839 C843 1.429 1_655 S
C840 C823 1.574 1_545 S
C840 H834 0.949 . S
C840 C844 1.368 1_554 S
C841 C822 1.429 . S
C841 C835 1.429 1_655 S
C841 C842 1.523 . S
C842 C823 1.368 1_655 S
C842 C836 1.368 1_554 S
C842 C841 1.523 . S
C843 C827 1.429 . S
C843 C839 1.429 1_455 S
C843 C844 1.523 . S
C844 C828 1.368 1_455 S
C844 C840 1.368 1_556 S
C844 C843 1.523 . S
H845 C820 0.950 . S
H846 C822 0.950 . S
H847 C823 0.949 . S
H848 C825 0.950 . S
H849 C827 0.950 . S
C850 C851 1.349 . S
C850 C852 1.327 . S
C850 H875 0.950 . S
C851 C850 1.349 . S
C851 C867 1.349 . S
C852 C850 1.327 . S
C852 C871 1.429 . S
C852 H876 0.950 . S
C853 C870 1.574 1_565 S
C853 C872 1.368 . S
C853 H877 0.949 . S
H854 C858 0.949 . S
C855 C856 1.349 . S
C855 C857 1.327 . S
C855 H878 0.950 . S
C856 C855 1.349 . S
C856 C868 1.349 . S
C857 C855 1.327 . S
C857 C873 1.429 . S
C857 H879 0.950 . S
C858 H854 0.949 . S
C858 C866 1.574 1_545 S
C858 C874 1.368 . S
H859 C867 0.950 . S
H860 C865 0.950 . S
H861 C866 0.949 . S
H862 C868 0.950 . S
H863 C869 0.950 . S
H864 C870 0.949 . S
C865 H860 0.950 . S
C865 C867 1.327 . S
C865 C871 1.429 . S
C866 C858 1.574 1_565 S
C866 H861 0.949 . S
C866 C872 1.368 . S
C867 C851 1.349 . S
C867 H859 0.950 . S
C867 C865 1.327 . S
C868 C856 1.349 . S
C868 H862 0.950 . S
C868 C869 1.327 . S
C869 H863 0.950 . S
C869 C868 1.327 . S
C869 C873 1.429 . S
C870 C853 1.574 1_545 S
C870 H864 0.949 . S
C870 C874 1.368 . S
C871 C852 1.429 . S
C871 C865 1.429 . S
C871 C872 1.523 . S
C872 C853 1.368 . S
C872 C866 1.368 . S
C872 C871 1.523 . S
C873 C857 1.429 . S
C873 C869 1.429 . S
C873 C874 1.523 . S
C874 C858 1.368 . S
C874 C870 1.368 . S
C874 C873 1.523 . S
H875 C850 0.950 . S
H876 C852 0.950 . S
H877 C853 0.949 . S
H878 C855 0.950 . S
H879 C857 0.950 . S
C880 C881 1.349 . S
C880 C882 1.327 . S
C880 H905 0.950 . S
C881 C880 1.349 . S
C881 C897 1.349 . S
C882 C880 1.327 . S
C882 C901 1.429 . S
C882 H906 0.950 . S
C883 C900 1.574 . S
C883 C902 1.368 . S
C883 H907 0.949 . S
H884 C888 0.949 . S
C885 C886 1.349 . S
C885 C887 1.327 . S
C885 H908 0.950 . S
C886 C885 1.349 . S
C886 C898 1.349 . S
C887 C885 1.327 . S
C887 C903 1.429 . S
C887 H909 0.950 . S
C888 H884 0.949 . S
C888 C896 1.574 . S
C888 C904 1.368 . S
H889 C897 0.950 . S
H890 C895 0.950 . S
H891 C896 0.949 . S
H892 C898 0.950 . S
H893 C899 0.950 . S
H894 C900 0.949 . S
C895 H890 0.950 . S
C895 C897 1.327 . S
C895 C901 1.429 . S
C896 C888 1.574 . S
C896 H891 0.949 . S
C896 C902 1.368 . S
C897 C881 1.349 . S
C897 H889 0.950 . S
C897 C895 1.327 . S
C898 C886 1.349 . S
C898 H892 0.950 . S
C898 C899 1.327 . S
C899 H893 0.950 . S
C899 C898 1.327 . S
C899 C903 1.429 . S
C900 C883 1.574 . S
C900 H894 0.949 . S
C900 C904 1.368 . S
C901 C882 1.429 . S
C901 C895 1.429 . S
C901 C902 1.523 . S
C902 C883 1.368 . S
C902 C896 1.368 . S
C902 C901 1.523 . S
C903 C887 1.429 . S
C903 C899 1.429 . S
C903 C904 1.523 1_554 S
C904 C888 1.368 . S
C904 C900 1.368 . S
C904 C903 1.523 1_556 S
H905 C880 0.950 . S
H906 C882 0.950 . S
H907 C883 0.949 . S
H908 C885 0.950 . S
H909 C887 0.950 . S
C910 C911 1.349 . S
C910 C912 1.327 . S
C910 H935 0.950 . S
C911 C910 1.349 . S
C911 C927 1.349 . S
C912 C910 1.327 . S
C912 C931 1.429 . S
C912 H936 0.950 . S
C913 C930 1.574 . S
C913 C932 1.368 . S
C913 H937 0.949 . S
H914 C918 0.949 . S
C915 C916 1.349 . S
C915 C917 1.327 . S
C915 H938 0.950 . S
C916 C915 1.349 . S
C916 C928 1.349 . S
C917 C915 1.327 . S
C917 C933 1.429 . S
C917 H939 0.950 . S
C918 H914 0.949 . S
C918 C926 1.574 . S
C918 C934 1.368 . S
H919 C927 0.950 . S
H920 C925 0.950 . S
H921 C926 0.949 . S
H922 C928 0.950 . S
H923 C929 0.950 . S
H924 C930 0.949 . S
C925 H920 0.950 . S
C925 C927 1.327 . S
C925 C931 1.429 . S
C926 C918 1.574 . S
C926 H921 0.949 . S
C926 C932 1.368 . S
C927 C911 1.349 . S
C927 H919 0.950 . S
C927 C925 1.327 . S
C928 C916 1.349 . S
C928 H922 0.950 . S
C928 C929 1.327 . S
C929 H923 0.950 . S
C929 C928 1.327 . S
C929 C933 1.429 . S
C930 C913 1.574 . S
C930 H924 0.949 . S
C930 C934 1.368 . S
C931 C912 1.429 . S
C931 C925 1.429 . S
C931 C932 1.523 . S
C932 C913 1.368 . S
C932 C926 1.368 . S
C932 C931 1.523 . S
C933 C917 1.429 . S
C933 C929 1.429 . S
C933 C934 1.523 . S
C934 C918 1.368 . S
C934 C930 1.368 . S
C934 C933 1.523 . S
H935 C910 0.950 . S
H936 C912 0.950 . S
H937 C913 0.949 . S
H938 C915 0.950 . S
H939 C917 0.950 . S
C940 C941 1.349 . S
C940 C942 1.327 . S
C940 H965 0.950 . S
C941 C940 1.349 . S
C941 C957 1.349 . S
C942 C940 1.327 . S
C942 C961 1.429 . S
C942 H966 0.950 . S
C943 C960 1.574 . S
C943 C962 1.368 . S
C943 H967 0.949 . S
H944 C948 0.949 . S
C945 C946 1.349 . S
C945 C947 1.327 . S
C945 H968 0.950 . S
C946 C945 1.349 . S
C946 C958 1.349 . S
C947 C945 1.327 . S
C947 C963 1.429 . S
C947 H969 0.950 . S
C948 H944 0.949 . S
C948 C956 1.574 . S
C948 C964 1.368 . S
H949 C957 0.950 . S
H950 C955 0.950 . S
H951 C956 0.949 . S
H952 C958 0.950 . S
H953 C959 0.950 . S
H954 C960 0.949 . S
C955 H950 0.950 . S
C955 C957 1.327 . S
C955 C961 1.429 . S
C956 C948 1.574 . S
C956 H951 0.949 . S
C956 C962 1.368 . S
C957 C941 1.349 . S
C957 H949 0.950 . S
C957 C955 1.327 . S
C958 C946 1.349 . S
C958 H952 0.950 . S
C958 C959 1.327 . S
C959 H953 0.950 . S
C959 C958 1.327 . S
C959 C963 1.429 . S
C960 C943 1.574 . S
C960 H954 0.949 . S
C960 C964 1.368 . S
C961 C942 1.429 . S
C961 C955 1.429 . S
C961 C962 1.523 . S
C962 C943 1.368 . S
C962 C956 1.368 . S
C962 C961 1.523 . S
C963 C947 1.429 . S
C963 C959 1.429 . S
C963 C964 1.523 . S
C964 C948 1.368 . S
C964 C960 1.368 . S
C964 C963 1.523 . S
H965 C940 0.950 . S
H966 C942 0.950 . S
H967 C943 0.949 . S
H968 C945 0.950 . S
H969 C947 0.950 . S
C970 C971 1.349 . S
C970 C972 1.327 . S
C970 H995 0.950 . S
C971 C970 1.349 . S
C971 C987 1.349 . S
C972 C970 1.327 . S
C972 C991 1.429 . S
C972 H996 0.950 . S
C973 C990 1.574 . S
C973 C992 1.368 . S
C973 H997 0.949 . S
H974 C978 0.949 . S
C975 C976 1.349 . S
C975 C977 1.327 . S
C975 H998 0.950 . S
C976 C975 1.349 . S
C976 C988 1.349 . S
C977 C975 1.327 . S
C977 C993 1.429 . S
C977 H999 0.950 . S
C978 H974 0.949 . S
C978 C986 1.574 . S
C978 C994 1.368 . S
H979 C987 0.950 . S
H980 C985 0.950 . S
H981 C986 0.949 . S
H982 C988 0.950 . S
H983 C989 0.950 . S
H984 C990 0.949 . S
C985 H980 0.950 . S
C985 C987 1.327 . S
C985 C991 1.429 . S
C986 C978 1.574 . S
C986 H981 0.949 . S
C986 C992 1.368 . S
C987 C971 1.349 . S
C987 H979 0.950 . S
C987 C985 1.327 . S
C988 C976 1.349 . S
C988 H982 0.950 . S
C988 C989 1.327 . S
C989 H983 0.950 . S
C989 C988 1.327 . S
C989 C993 1.429 . S
C990 C973 1.574 . S
C990 H984 0.949 . S
C990 C994 1.368 . S
C991 C972 1.429 . S
C991 C985 1.429 . S
C991 C992 1.523 . S
C992 C973 1.368 . S
C992 C986 1.368 . S
C992 C991 1.523 . S
C993 C977 1.429 . S
C993 C989 1.429 . S
C993 C994 1.523 . S
C994 C978 1.368 . S
C994 C990 1.368 . S
C994 C993 1.523 . S
H995 C970 0.950 . S
H996 C972 0.950 . S
H997 C973 0.949 . S
H998 C975 0.950 . S
H999 C977 0.950 . S
C1000 C1001 1.349 . S
C1000 C1002 1.327 . S
C1000 H1025 0.950 . S
C1001 C1000 1.349 . S
C1001 C1017 1.349 . S
C1002 C1000 1.327 . S
C1002 C1021 1.429 . S
C1002 H1026 0.950 . S
C1003 C1020 1.574 . S
C1003 C1022 1.368 . S
C1003 H1027 0.949 . S
H1004 C1008 0.949 . S
C1005 C1006 1.349 . S
C1005 C1007 1.327 . S
C1005 H1028 0.950 . S
C1006 C1005 1.349 . S
C1006 C1018 1.349 . S
C1007 C1005 1.327 . S
C1007 C1023 1.429 . S
C1007 H1029 0.950 . S
C1008 H1004 0.949 . S
C1008 C1016 1.574 . S
C1008 C1024 1.368 . S
H1009 C1017 0.950 . S
H1010 C1015 0.950 . S
H1011 C1016 0.949 . S
H1012 C1018 0.950 . S
H1013 C1019 0.950 . S
H1014 C1020 0.949 . S
C1015 H1010 0.950 . S
C1015 C1017 1.327 . S
C1015 C1021 1.429 . S
C1016 C1008 1.574 . S
C1016 H1011 0.949 . S
C1016 C1022 1.368 . S
C1017 C1001 1.349 . S
C1017 H1009 0.950 . S
C1017 C1015 1.327 . S
C1018 C1006 1.349 . S
C1018 H1012 0.950 . S
C1018 C1019 1.327 . S
C1019 H1013 0.950 . S
C1019 C1018 1.327 . S
C1019 C1023 1.429 . S
C1020 C1003 1.574 . S
C1020 H1014 0.949 . S
C1020 C1024 1.368 . S
C1021 C1002 1.429 . S
C1021 C1015 1.429 . S
C1021 C1022 1.523 . S
C1022 C1003 1.368 . S
C1022 C1016 1.368 . S
C1022 C1021 1.523 . S
C1023 C1007 1.429 . S
C1023 C1019 1.429 . S
C1023 C1024 1.523 1_556 S
C1024 C1008 1.368 . S
C1024 C1020 1.368 . S
C1024 C1023 1.523 1_554 S
H1025 C1000 0.950 . S
H1026 C1002 0.950 . S
H1027 C1003 0.949 . S
H1028 C1005 0.950 . S
H1029 C1007 0.950 . S
C1030 C1031 1.349 . S
C1030 C1032 1.327 . S
C1030 H1055 0.950 . S
C1031 C1030 1.349 . S
C1031 C1047 1.349 . S
C1032 C1030 1.327 . S
C1032 C1051 1.429 . S
C1032 H1056 0.950 . S
C1033 C1050 1.574 . S
C1033 C1052 1.368 . S
C1033 H1057 0.949 . S
H1034 C1038 0.949 . S
C1035 C1036 1.349 . S
C1035 C1037 1.327 . S
C1035 H1058 0.950 . S
C1036 C1035 1.349 . S
C1036 C1048 1.349 . S
C1037 C1035 1.327 . S
C1037 C1053 1.429 . S
C1037 H1059 0.950 . S
C1038 H1034 0.949 . S
C1038 C1046 1.574 . S
C1038 C1054 1.368 . S
H1039 C1047 0.950 . S
H1040 C1045 0.950 . S
H1041 C1046 0.949 . S
H1042 C1048 0.950 . S
H1043 C1049 0.950 . S
H1044 C1050 0.949 . S
C1045 H1040 0.950 . S
C1045 C1047 1.327 . S
C1045 C1051 1.429 . S
C1046 C1038 1.574 . S
C1046 H1041 0.949 . S
C1046 C1052 1.368 . S
C1047 C1031 1.349 . S
C1047 H1039 0.950 . S
C1047 C1045 1.327 . S
C1048 C1036 1.349 . S
C1048 H1042 0.950 . S
C1048 C1049 1.327 . S
C1049 H1043 0.950 . S
C1049 C1048 1.327 . S
C1049 C1053 1.429 . S
C1050 C1033 1.574 . S
C1050 H1044 0.949 . S
C1050 C1054 1.368 . S
C1051 C1032 1.429 . S
C1051 C1045 1.429 . S
C1051 C1052 1.523 . S
C1052 C1033 1.368 . S
C1052 C1046 1.368 . S
C1052 C1051 1.523 . S
C1053 C1037 1.429 . S
C1053 C1049 1.429 . S
C1053 C1054 1.523 . S
C1054 C1038 1.368 . S
C1054 C1050 1.368 . S
C1054 C1053 1.523 . S
H1055 C1030 0.950 . S
H1056 C1032 0.950 . S
H1057 C1033 0.949 . S
H1058 C1035 0.950 . S
H1059 C1037 0.950 . S
C1060 C1061 1.349 . S
C1060 C1062 1.327 . S
C1060 H1085 0.950 . S
C1061 C1060 1.349 . S
C1061 C1077 1.349 . S
C1062 C1060 1.327 . S
C1062 C1081 1.429 . S
C1062 H1086 0.950 . S
C1063 C1080 1.574 . S
C1063 C1082 1.368 . S
C1063 H1087 0.949 . S
H1064 C1068 0.949 . S
C1065 C1066 1.349 . S
C1065 C1067 1.327 . S
C1065 H1088 0.950 . S
C1066 C1065 1.349 . S
C1066 C1078 1.349 . S
C1067 C1065 1.327 . S
C1067 C1083 1.429 . S
C1067 H1089 0.950 . S
C1068 H1064 0.949 . S
C1068 C1076 1.574 . S
C1068 C1084 1.368 . S
H1069 C1077 0.950 . S
H1070 C1075 0.950 . S
H1071 C1076 0.949 . S
H1072 C1078 0.950 . S
H1073 C1079 0.950 . S
H1074 C1080 0.949 . S
C1075 H1070 0.950 . S
C1075 C1077 1.327 . S
C1075 C1081 1.429 . S
C1076 C1068 1.574 . S
C1076 H1071 0.949 . S
C1076 C1082 1.368 . S
C1077 C1061 1.349 . S
C1077 H1069 0.950 . S
C1077 C1075 1.327 . S
C1078 C1066 1.349 . S
C1078 H1072 0.950 . S
C1078 C1079 1.327 . S
C1079 H1073 0.950 . S
C1079 C1078 1.327 . S
C1079 C1083 1.429 . S
C1080 C1063 1.574 . S
C1080 H1074 0.949 . S
C1080 C1084 1.368 . S
C1081 C1062 1.429 . S
C1081 C1075 1.429 . S
C1081 C1082 1.523 . S
C1082 C1063 1.368 . S
C1082 C1076 1.368 . S
C1082 C1081 1.523 . S
C1083 C1067 1.429 . S
C1083 C1079 1.429 . S
C1083 C1084 1.523 . S
C1084 C1068 1.368 . S
C1084 C1080 1.368 . S
C1084 C1083 1.523 . S
H1085 C1060 0.950 . S
H1086 C1062 0.950 . S
H1087 C1063 0.949 . S
H1088 C1065 0.950 . S
H1089 C1067 0.950 . S
C1090 C1091 1.349 . S
C1090 C1092 1.327 . S
C1090 H1115 0.950 . S
C1091 C1090 1.349 . S
C1091 C1107 1.349 . S
C1092 C1090 1.327 . S
C1092 C1111 1.429 . S
C1092 H1116 0.950 . S
C1093 C1110 1.574 . S
C1093 C1112 1.368 . S
C1093 H1117 0.949 . S
H1094 C1098 0.949 . S
C1095 C1096 1.349 . S
C1095 C1097 1.327 . S
C1095 H1118 0.950 . S
C1096 C1095 1.349 . S
C1096 C1108 1.349 . S
C1097 C1095 1.327 . S
C1097 C1113 1.429 . S
C1097 H1119 0.950 . S
C1098 H1094 0.949 . S
C1098 C1106 1.574 . S
C1098 C1114 1.368 . S
H1099 C1107 0.950 . S
H1100 C1105 0.950 . S
H1101 C1106 0.949 . S
H1102 C1108 0.950 . S
H1103 C1109 0.950 . S
H1104 C1110 0.949 . S
C1105 H1100 0.950 . S
C1105 C1107 1.327 . S
C1105 C1111 1.429 . S
C1106 C1098 1.574 . S
C1106 H1101 0.949 . S
C1106 C1112 1.368 . S
C1107 C1091 1.349 . S
C1107 H1099 0.950 . S
C1107 C1105 1.327 . S
C1108 C1096 1.349 . S
C1108 H1102 0.950 . S
C1108 C1109 1.327 . S
C1109 H1103 0.950 . S
C1109 C1108 1.327 . S
C1109 C1113 1.429 . S
C1110 C1093 1.574 . S
C1110 H1104 0.949 . S
C1110 C1114 1.368 . S
C1111 C1092 1.429 . S
C1111 C1105 1.429 . S
C1111 C1112 1.523 . S
C1112 C1093 1.368 . S
C1112 C1106 1.368 . S
C1112 C1111 1.523 . S
C1113 C1097 1.429 . S
C1113 C1109 1.429 . S
C1113 C1114 1.523 . S
C1114 C1098 1.368 . S
C1114 C1110 1.368 . S
C1114 C1113 1.523 . S
H1115 C1090 0.950 . S
H1116 C1092 0.950 . S
H1117 C1093 0.949 . S
H1118 C1095 0.950 . S
H1119 C1097 0.950 . S
C1120 C1121 1.349 . S
C1120 C1122 1.327 . S
C1120 H1145 0.950 . S
C1121 C1120 1.349 . S
C1121 C1137 1.349 . S
C1122 C1120 1.327 . S
C1122 C1141 1.429 . S
C1122 H1146 0.950 . S
C1123 C1140 1.574 . S
C1123 C1142 1.368 . S
C1123 H1147 0.949 . S
H1124 C1128 0.949 . S
C1125 C1126 1.349 . S
C1125 C1127 1.327 . S
C1125 H1148 0.950 . S
C1126 C1125 1.349 . S
C1126 C1138 1.349 . S
C1127 C1125 1.327 . S
C1127 C1143 1.429 . S
C1127 H1149 0.950 . S
C1128 H1124 0.949 . S
C1128 C1136 1.574 . S
C1128 C1144 1.368 . S
H1129 C1137 0.950 . S
H1130 C1135 0.950 . S
H1131 C1136 0.949 . S
H1132 C1138 0.950 . S
H1133 C1139 0.950 . S
H1134 C1140 0.949 . S
C1135 H1130 0.950 . S
C1135 C1137 1.327 . S
C1135 C1141 1.429 . S
C1136 C1128 1.574 . S
C1136 H1131 0.949 . S
C1136 C1142 1.368 . S
C1137 C1121 1.349 . S
C1137 H1129 0.950 . S
C1137 C1135 1.327 . S
C1138 C1126 1.349 . S
C1138 H1132 0.950 . S
C1138 C1139 1.327 . S
C1139 H1133 0.950 . S
C1139 C1138 1.327 . S
C1139 C1143 1.429 . S
C1140 C1123 1.574 . S
C1140 H1134 0.949 . S
C1140 C1144 1.368 . S
C1141 C1122 1.429 . S
C1141 C1135 1.429 . S
C1141 C1142 1.523 . S
C1142 C1123 1.368 . S
C1142 C1136 1.368 . S
C1142 C1141 1.523 . S
C1143 C1127 1.429 . S
C1143 C1139 1.429 . S
C1143 C1144 1.523 . S
C1144 C1128 1.368 . S
C1144 C1140 1.368 . S
C1144 C1143 1.523 . S
H1145 C1120 0.950 . S
H1146 C1122 0.950 . S
H1147 C1123 0.949 . S
H1148 C1125 0.950 . S
H1149 C1127 0.950 . S
C1150 C1151 1.349 . S
C1150 C1152 1.327 . S
C1150 H1175 0.950 1_565 S
C1151 C1150 1.349 . S
C1151 C1167 1.349 . S
C1152 C1150 1.327 . S
C1152 C1171 1.429 . S
C1152 H1176 0.950 1_565 S
C1153 C1170 1.574 . S
C1153 C1172 1.368 . S
C1153 H1177 0.949 . S
H1154 C1158 0.949 . S
C1155 C1156 1.349 . S
C1155 C1157 1.327 . S
C1155 H1178 0.950 . S
C1156 C1155 1.349 . S
C1156 C1168 1.349 . S
C1157 C1155 1.327 . S
C1157 C1173 1.429 . S
C1157 H1179 0.950 . S
C1158 H1154 0.949 . S
C1158 C1166 1.574 . S
C1158 C1174 1.368 . S
H1159 C1167 0.950 . S
H1160 C1165 0.950 . S
H1161 C1166 0.949 . S
H1162 C1168 0.950 . S
H1163 C1169 0.950 . S
H1164 C1170 0.949 . S
C1165 H1160 0.950 . S
C1165 C1167 1.327 . S
C1165 C1171 1.429 . S
C1166 C1158 1.574 . S
C1166 H1161 0.949 . S
C1166 C1172 1.368 . S
C1167 C1151 1.349 . S
C1167 H1159 0.950 . S
C1167 C1165 1.327 . S
C1168 C1156 1.349 . S
C1168 H1162 0.950 . S
C1168 C1169 1.327 . S
C1169 H1163 0.950 . S
C1169 C1168 1.327 . S
C1169 C1173 1.429 . S
C1170 C1153 1.574 . S
C1170 H1164 0.949 . S
C1170 C1174 1.368 . S
C1171 C1152 1.429 . S
C1171 C1165 1.429 . S
C1171 C1172 1.523 . S
C1172 C1153 1.368 . S
C1172 C1166 1.368 . S
C1172 C1171 1.523 . S
C1173 C1157 1.429 . S
C1173 C1169 1.429 . S
C1173 C1174 1.523 . S
C1174 C1158 1.368 . S
C1174 C1170 1.368 . S
C1174 C1173 1.523 . S
H1175 C1150 0.950 1_545 S
H1176 C1152 0.950 1_545 S
H1177 C1153 0.949 . S
H1178 C1155 0.950 . S
H1179 C1157 0.950 . S
C1180 C1181 1.349 . S
C1180 C1182 1.327 . S
C1180 H1205 0.950 . S
C1181 C1180 1.349 . S
C1181 C1197 1.349 . S
C1182 C1180 1.327 . S
C1182 C1201 1.429 . S
C1182 H1206 0.950 . S
C1183 C1200 1.574 . S
C1183 C1202 1.368 . S
C1183 H1207 0.949 . S
H1184 C1188 0.949 . S
C1185 C1186 1.349 . S
C1185 C1187 1.327 . S
C1185 H1208 0.950 . S
C1186 C1185 1.349 . S
C1186 C1198 1.349 . S
C1187 C1185 1.327 . S
C1187 C1203 1.429 . S
C1187 H1209 0.950 . S
C1188 H1184 0.949 . S
C1188 C1196 1.574 . S
C1188 C1204 1.368 . S
H1189 C1197 0.950 . S
H1190 C1195 0.950 . S
H1191 C1196 0.949 . S
H1192 C1198 0.950 . S
H1193 C1199 0.950 . S
H1194 C1200 0.949 . S
C1195 H1190 0.950 . S
C1195 C1197 1.327 . S
C1195 C1201 1.429 . S
C1196 C1188 1.574 . S
C1196 H1191 0.949 . S
C1196 C1202 1.368 . S
C1197 C1181 1.349 . S
C1197 H1189 0.950 . S
C1197 C1195 1.327 . S
C1198 C1186 1.349 . S
C1198 H1192 0.950 . S
C1198 C1199 1.327 . S
C1199 H1193 0.950 . S
C1199 C1198 1.327 . S
C1199 C1203 1.429 . S
C1200 C1183 1.574 . S
C1200 H1194 0.949 . S
C1200 C1204 1.368 . S
C1201 C1182 1.429 . S
C1201 C1195 1.429 . S
C1201 C1202 1.523 1_554 S
C1202 C1183 1.368 . S
C1202 C1196 1.368 . S
C1202 C1201 1.523 1_556 S
C1203 C1187 1.429 . S
C1203 C1199 1.429 . S
C1203 C1204 1.523 . S
C1204 C1188 1.368 . S
C1204 C1200 1.368 . S
C1204 C1203 1.523 . S
H1205 C1180 0.950 . S
H1206 C1182 0.950 . S
H1207 C1183 0.949 . S
H1208 C1185 0.950 . S
H1209 C1187 0.950 . S
C1210 C1211 1.349 . S
C1210 C1212 1.327 . S
C1210 H1235 0.950 . S
C1211 C1210 1.349 . S
C1211 C1227 1.349 . S
C1212 C1210 1.327 . S
C1212 C1231 1.429 . S
C1212 H1236 0.950 . S
C1213 C1230 1.574 . S
C1213 C1232 1.368 . S
C1213 H1237 0.949 . S
H1214 C1218 0.949 . S
C1215 C1216 1.349 . S
C1215 C1217 1.327 . S
C1215 H1238 0.950 1_545 S
C1216 C1215 1.349 . S
C1216 C1228 1.349 . S
C1217 C1215 1.327 . S
C1217 C1233 1.429 . S
C1217 H1239 0.950 . S
C1218 H1214 0.949 . S
C1218 C1226 1.574 . S
C1218 C1234 1.368 . S
H1219 C1227 0.950 . S
H1220 C1225 0.950 . S
H1221 C1226 0.949 . S
H1222 C1228 0.950 . S
H1223 C1229 0.950 . S
H1224 C1230 0.949 . S
C1225 H1220 0.950 . S
C1225 C1227 1.327 . S
C1225 C1231 1.429 . S
C1226 C1218 1.574 . S
C1226 H1221 0.949 . S
C1226 C1232 1.368 . S
C1227 C1211 1.349 . S
C1227 H1219 0.950 . S
C1227 C1225 1.327 . S
C1228 C1216 1.349 . S
C1228 H1222 0.950 . S
C1228 C1229 1.327 . S
C1229 H1223 0.950 . S
C1229 C1228 1.327 . S
C1229 C1233 1.429 . S
C1230 C1213 1.574 . S
C1230 H1224 0.949 . S
C1230 C1234 1.368 . S
C1231 C1212 1.429 . S
C1231 C1225 1.429 . S
C1231 C1232 1.523 . S
C1232 C1213 1.368 . S
C1232 C1226 1.368 . S
C1232 C1231 1.523 . S
C1233 C1217 1.429 . S
C1233 C1229 1.429 . S
C1233 C1234 1.523 . S
C1234 C1218 1.368 . S
C1234 C1230 1.368 . S
C1234 C1233 1.523 . S
H1235 C1210 0.950 . S
H1236 C1212 0.950 . S
H1237 C1213 0.949 . S
H1238 C1215 0.950 1_565 S
H1239 C1217 0.950 . S
C1240 C1241 1.349 . S
C1240 C1242 1.327 . S
C1240 H1265 0.950 . S
C1241 C1240 1.349 . S
C1241 C1257 1.349 . S
C1242 C1240 1.327 . S
C1242 C1261 1.429 . S
C1242 H1266 0.950 . S
C1243 C1260 1.574 . S
C1243 C1262 1.368 . S
C1243 H1267 0.949 . S
H1244 C1248 0.949 . S
C1245 C1246 1.349 . S
C1245 C1247 1.327 . S
C1245 H1268 0.950 . S
C1246 C1245 1.349 . S
C1246 C1258 1.349 . S
C1247 C1245 1.327 . S
C1247 C1263 1.429 . S
C1247 H1269 0.950 . S
C1248 H1244 0.949 . S
C1248 C1256 1.574 . S
C1248 C1264 1.368 . S
H1249 C1257 0.950 . S
H1250 C1255 0.950 . S
H1251 C1256 0.949 . S
H1252 C1258 0.950 . S
H1253 C1259 0.950 . S
H1254 C1260 0.949 . S
C1255 H1250 0.950 . S
C1255 C1257 1.327 . S
C1255 C1261 1.429 . S
C1256 C1248 1.574 . S
C1256 H1251 0.949 . S
C1256 C1262 1.368 . S
C1257 C1241 1.349 . S
C1257 H1249 0.950 . S
C1257 C1255 1.327 . S
C1258 C1246 1.349 . S
C1258 H1252 0.950 . S
C1258 C1259 1.327 . S
C1259 H1253 0.950 . S
C1259 C1258 1.327 . S
C1259 C1263 1.429 . S
C1260 C1243 1.574 . S
C1260 H1254 0.949 . S
C1260 C1264 1.368 . S
C1261 C1242 1.429 . S
C1261 C1255 1.429 . S
C1261 C1262 1.523 . S
C1262 C1243 1.368 . S
C1262 C1256 1.368 . S
C1262 C1261 1.523 . S
C1263 C1247 1.429 . S
C1263 C1259 1.429 . S
C1263 C1264 1.523 . S
C1264 C1248 1.368 . S
C1264 C1260 1.368 . S
C1264 C1263 1.523 . S
H1265 C1240 0.950 . S
H1266 C1242 0.950 . S
H1267 C1243 0.949 . S
H1268 C1245 0.950 . S
H1269 C1247 0.950 . S
C1270 C1271 1.349 . S
C1270 C1272 1.327 . S
C1270 H1295 0.950 1_545 S
C1271 C1270 1.349 . S
C1271 C1287 1.349 . S
C1272 C1270 1.327 . S
C1272 C1291 1.429 . S
C1272 H1296 0.950 1_545 S
C1273 C1290 1.574 . S
C1273 C1292 1.368 . S
C1273 H1297 0.949 . S
H1274 C1278 0.949 . S
C1275 C1276 1.349 . S
C1275 C1277 1.327 . S
C1275 H1298 0.950 . S
C1276 C1275 1.349 . S
C1276 C1288 1.349 . S
C1277 C1275 1.327 . S
C1277 C1293 1.429 . S
C1277 H1299 0.950 . S
C1278 H1274 0.949 . S
C1278 C1286 1.574 . S
C1278 C1294 1.368 . S
H1279 C1287 0.950 . S
H1280 C1285 0.950 . S
H1281 C1286 0.949 . S
H1282 C1288 0.950 . S
H1283 C1289 0.950 . S
H1284 C1290 0.949 . S
C1285 H1280 0.950 . S
C1285 C1287 1.327 . S
C1285 C1291 1.429 . S
C1286 C1278 1.574 . S
C1286 H1281 0.949 . S
C1286 C1292 1.368 . S
C1287 C1271 1.349 . S
C1287 H1279 0.950 . S
C1287 C1285 1.327 . S
C1288 C1276 1.349 . S
C1288 H1282 0.950 . S
C1288 C1289 1.327 . S
C1289 H1283 0.950 . S
C1289 C1288 1.327 . S
C1289 C1293 1.429 . S
C1290 C1273 1.574 . S
C1290 H1284 0.949 . S
C1290 C1294 1.368 . S
C1291 C1272 1.429 . S
C1291 C1285 1.429 . S
C1291 C1292 1.523 . S
C1292 C1273 1.368 . S
C1292 C1286 1.368 . S
C1292 C1291 1.523 . S
C1293 C1277 1.429 . S
C1293 C1289 1.429 . S
C1293 C1294 1.523 . S
C1294 C1278 1.368 . S
C1294 C1290 1.368 . S
C1294 C1293 1.523 . S
H1295 C1270 0.950 1_565 S
H1296 C1272 0.950 1_565 S
H1297 C1273 0.949 . S
H1298 C1275 0.950 . S
H1299 C1277 0.950 . S
C1300 C1301 1.349 . S
C1300 C1302 1.327 . S
C1300 H1325 0.950 . S
C1301 C1300 1.349 . S
C1301 C1317 1.349 . S
C1302 C1300 1.327 . S
C1302 C1321 1.429 . S
C1302 H1326 0.950 . S
C1303 C1320 1.574 . S
C1303 C1322 1.368 . S
C1303 H1327 0.949 . S
H1304 C1308 0.949 . S
C1305 C1306 1.349 . S
C1305 C1307 1.327 . S
C1305 H1328 0.950 . S
C1306 C1305 1.349 . S
C1306 C1318 1.349 . S
C1307 C1305 1.327 . S
C1307 C1323 1.429 . S
C1307 H1329 0.950 . S
C1308 H1304 0.949 . S
C1308 C1316 1.574 . S
C1308 C1324 1.368 . S
H1309 C1317 0.950 . S
H1310 C1315 0.950 . S
H1311 C1316 0.949 . S
H1312 C1318 0.950 . S
H1313 C1319 0.950 . S
H1314 C1320 0.949 . S
C1315 H1310 0.950 . S
C1315 C1317 1.327 . S
C1315 C1321 1.429 . S
C1316 C1308 1.574 . S
C1316 H1311 0.949 . S
C1316 C1322 1.368 . S
C1317 C1301 1.349 . S
C1317 H1309 0.950 . S
C1317 C1315 1.327 . S
C1318 C1306 1.349 . S
C1318 H1312 0.950 . S
C1318 C1319 1.327 . S
C1319 H1313 0.950 . S
C1319 C1318 1.327 . S
C1319 C1323 1.429 . S
C1320 C1303 1.574 . S
C1320 H1314 0.949 . S
C1320 C1324 1.368 . S
C1321 C1302 1.429 . S
C1321 C1315 1.429 . S
C1321 C1322 1.523 . S
C1322 C1303 1.368 . S
C1322 C1316 1.368 . S
C1322 C1321 1.523 . S
C1323 C1307 1.429 . S
C1323 C1319 1.429 . S
C1323 C1324 1.523 1_556 S
C1324 C1308 1.368 . S
C1324 C1320 1.368 . S
C1324 C1323 1.523 1_554 S
H1325 C1300 0.950 . S
H1326 C1302 0.950 . S
H1327 C1303 0.949 . S
H1328 C1305 0.950 . S
H1329 C1307 0.950 . S
C1330 C1331 1.365 . S
C1330 C1332 1.333 . S
C1330 H1355 0.928 1_565 S
C1331 C1330 1.365 . S
C1331 C1347 1.349 . S
C1332 C1330 1.333 . S
C1332 C1351 1.429 . S
C1332 H1356 0.950 1_565 S
C1333 C1350 1.574 . S
C1333 C1352 1.368 . S
C1333 H1357 0.949 . S
H1334 C1338 0.949 . S
C1335 C1336 1.349 . S
C1335 C1337 1.327 . S
C1335 H1358 0.950 . S
C1336 C1335 1.349 . S
C1336 C1348 1.349 . S
C1337 C1335 1.327 . S
C1337 C1353 1.429 . S
C1337 H1359 0.950 . S
C1338 H1334 0.949 . S
C1338 C1346 1.574 . S
C1338 C1354 1.368 . S
H1339 C1347 0.950 . S
H1340 C1345 0.950 . S
H1341 C1346 0.949 . S
H1342 C1348 0.950 . S
H1343 C1349 0.950 . S
H1344 C1350 0.949 . S
C1345 H1340 0.950 . S
C1345 C1347 1.327 . S
C1345 C1351 1.429 . S
C1346 C1338 1.574 . S
C1346 H1341 0.949 . S
C1346 C1352 1.368 . S
C1347 C1331 1.349 . S
C1347 H1339 0.950 . S
C1347 C1345 1.327 . S
C1348 C1336 1.349 . S
C1348 H1342 0.950 . S
C1348 C1349 1.327 . S
C1349 H1343 0.950 . S
C1349 C1348 1.327 . S
C1349 C1353 1.429 . S
C1350 C1333 1.574 . S
C1350 H1344 0.949 . S
C1350 C1354 1.368 . S
C1351 C1332 1.429 . S
C1351 C1345 1.429 . S
C1351 C1352 1.523 . S
C1352 C1333 1.368 . S
C1352 C1346 1.368 . S
C1352 C1351 1.523 . S
C1353 C1337 1.429 . S
C1353 C1349 1.429 . S
C1353 C1354 1.523 . S
C1354 C1338 1.368 . S
C1354 C1350 1.368 . S
C1354 C1353 1.523 . S
H1355 C1330 0.928 1_545 S
H1356 C1332 0.950 1_545 S
H1357 C1333 0.949 . S
H1358 C1335 0.950 . S
H1359 C1337 0.950 . S
C1360 C1361 1.349 . S
C1360 C1362 1.327 . S
C1360 H1385 0.950 . S
C1361 C1360 1.349 . S
C1361 C1377 1.349 . S
C1362 C1360 1.327 . S
C1362 C1381 1.429 . S
C1362 H1386 0.950 . S
C1363 C1380 1.574 . S
C1363 C1382 1.368 . S
C1363 H1387 0.949 . S
H1364 C1368 0.949 . S
C1365 C1366 1.349 . S
C1365 C1367 1.327 . S
C1365 H1388 0.950 . S
C1366 C1365 1.349 . S
C1366 C1378 1.349 . S
C1367 C1365 1.327 . S
C1367 C1383 1.429 . S
C1367 H1389 0.950 . S
C1368 H1364 0.949 . S
C1368 C1376 1.574 . S
C1368 C1384 1.368 . S
H1369 C1377 0.950 . S
H1370 C1375 0.950 . S
H1371 C1376 0.949 . S
H1372 C1378 0.950 . S
H1373 C1379 0.950 . S
H1374 C1380 0.949 . S
C1375 H1370 0.950 . S
C1375 C1377 1.327 . S
C1375 C1381 1.429 . S
C1376 C1368 1.574 . S
C1376 H1371 0.949 . S
C1376 C1382 1.368 . S
C1377 C1361 1.349 . S
C1377 H1369 0.950 . S
C1377 C1375 1.327 . S
C1378 C1366 1.349 . S
C1378 H1372 0.950 . S
C1378 C1379 1.327 . S
C1379 H1373 0.950 . S
C1379 C1378 1.327 . S
C1379 C1383 1.429 . S
C1380 C1363 1.574 . S
C1380 H1374 0.949 . S
C1380 C1384 1.368 . S
C1381 C1362 1.429 . S
C1381 C1375 1.429 . S
C1381 C1382 1.523 . S
C1382 C1363 1.368 . S
C1382 C1376 1.368 . S
C1382 C1381 1.523 . S
C1383 C1367 1.429 . S
C1383 C1379 1.429 . S
C1383 C1384 1.523 . S
C1384 C1368 1.368 . S
C1384 C1380 1.368 . S
C1384 C1383 1.523 . S
H1385 C1360 0.950 . S
H1386 C1362 0.950 . S
H1387 C1363 0.949 . S
H1388 C1365 0.950 . S
H1389 C1367 0.950 . S
C1390 C1391 1.349 . S
C1390 C1392 1.327 . S
C1390 H1415 0.950 . S
C1391 C1390 1.349 . S
C1391 C1407 1.349 . S
C1392 C1390 1.327 . S
C1392 C1411 1.429 . S
C1392 H1416 0.950 . S
C1393 C1410 1.574 . S
C1393 C1412 1.368 . S
C1393 H1417 0.949 . S
H1394 C1398 0.949 . S
C1395 C1396 1.349 . S
C1395 C1397 1.327 . S
C1395 H1418 0.950 . S
C1396 C1395 1.349 . S
C1396 C1408 1.349 . S
C1397 C1395 1.327 . S
C1397 C1413 1.429 . S
C1397 H1419 0.950 . S
C1398 H1394 0.949 . S
C1398 C1406 1.574 . S
C1398 C1414 1.368 . S
H1399 C1407 0.950 . S
H1400 C1405 0.950 . S
H1401 C1406 0.949 . S
H1402 C1408 0.950 . S
H1403 C1409 0.950 . S
H1404 C1410 0.949 . S
C1405 H1400 0.950 . S
C1405 C1407 1.327 . S
C1405 C1411 1.429 . S
C1406 C1398 1.574 . S
C1406 H1401 0.949 . S
C1406 C1412 1.368 . S
C1407 C1391 1.349 . S
C1407 H1399 0.950 . S
C1407 C1405 1.327 . S
C1408 C1396 1.349 . S
C1408 H1402 0.950 . S
C1408 C1409 1.327 . S
C1409 H1403 0.950 . S
C1409 C1408 1.327 . S
C1409 C1413 1.429 . S
C1410 C1393 1.574 . S
C1410 H1404 0.949 . S
C1410 C1414 1.368 . S
C1411 C1392 1.429 . S
C1411 C1405 1.429 . S
C1411 C1412 1.523 . S
C1412 C1393 1.368 . S
C1412 C1406 1.368 . S
C1412 C1411 1.523 . S
C1413 C1397 1.429 . S
C1413 C1409 1.429 . S
C1413 C1414 1.523 . S
C1414 C1398 1.368 . S
C1414 C1410 1.368 . S
C1414 C1413 1.523 . S
H1415 C1390 0.950 . S
H1416 C1392 0.950 . S
H1417 C1393 0.949 . S
H1418 C1395 0.950 . S
H1419 C1397 0.950 . S
C1420 C1421 1.349 . S
C1420 C1422 1.327 . S
C1420 H1445 0.950 . S
C1421 C1420 1.349 . S
C1421 C1437 1.349 . S
C1422 C1420 1.327 . S
C1422 C1441 1.429 . S
C1422 H1446 0.950 . S
C1423 C1440 1.574 1_655 S
C1423 C1442 1.368 . S
C1423 H1447 0.949 . S
H1424 C1428 0.949 . S
C1425 C1426 1.349 . S
C1425 C1427 1.327 . S
C1425 H1448 0.950 . S
C1426 C1425 1.349 . S
C1426 C1438 1.349 . S
C1427 C1425 1.327 . S
C1427 C1443 1.429 . S
C1427 H1449 0.950 . S
C1428 H1424 0.949 . S
C1428 C1436 1.574 1_455 S
C1428 C1444 1.368 . S
H1429 C1437 0.950 . S
H1430 C1435 0.950 . S
H1431 C1436 0.949 . S
H1432 C1438 0.950 . S
H1433 C1439 0.950 . S
H1434 C1440 0.949 . S
C1435 H1430 0.950 . S
C1435 C1437 1.327 . S
C1435 C1441 1.429 . S
C1436 C1428 1.574 1_655 S
C1436 H1431 0.949 . S
C1436 C1442 1.368 . S
C1437 C1421 1.349 . S
C1437 H1429 0.950 . S
C1437 C1435 1.327 . S
C1438 C1426 1.349 . S
C1438 H1432 0.950 . S
C1438 C1439 1.327 . S
C1439 H1433 0.950 . S
C1439 C1438 1.327 . S
C1439 C1443 1.429 . S
C1440 C1423 1.574 1_455 S
C1440 H1434 0.949 . S
C1440 C1444 1.368 . S
C1441 C1422 1.429 . S
C1441 C1435 1.429 . S
C1441 C1442 1.523 . S
C1442 C1423 1.368 . S
C1442 C1436 1.368 . S
C1442 C1441 1.523 . S
C1443 C1427 1.429 . S
C1443 C1439 1.429 . S
C1443 C1444 1.523 . S
C1444 C1428 1.368 . S
C1444 C1440 1.368 . S
C1444 C1443 1.523 . S
H1445 C1420 0.950 . S
H1446 C1422 0.950 . S
H1447 C1423 0.949 . S
H1448 C1425 0.950 . S
H1449 C1427 0.950 . S
C1450 C1451 1.349 . S
C1450 C1452 1.327 . S
C1450 H1475 0.950 . S
C1451 C1450 1.349 . S
C1451 C1467 1.349 . S
C1452 C1450 1.327 . S
C1452 C1471 1.429 . S
C1452 H1476 0.950 . S
C1453 C1470 1.574 . S
C1453 C1472 1.368 1_455 S
C1453 H1477 0.949 . S
H1454 C1458 0.949 . S
C1455 C1456 1.349 . S
C1455 C1457 1.327 . S
C1455 H1478 0.950 . S
C1456 C1455 1.349 . S
C1456 C1468 1.349 . S
C1457 C1455 1.327 . S
C1457 C1473 1.429 . S
C1457 H1479 0.950 . S
C1458 H1454 0.949 . S
C1458 C1466 1.574 . S
C1458 C1474 1.368 1_655 S
H1459 C1467 0.950 . S
H1460 C1465 0.950 . S
H1461 C1466 0.949 . S
H1462 C1468 0.950 . S
H1463 C1469 0.950 . S
H1464 C1470 0.949 . S
C1465 H1460 0.950 . S
C1465 C1467 1.327 . S
C1465 C1471 1.429 . S
C1466 C1458 1.574 . S
C1466 H1461 0.949 . S
C1466 C1472 1.368 . S
C1467 C1451 1.349 . S
C1467 H1459 0.950 . S
C1467 C1465 1.327 . S
C1468 C1456 1.349 . S
C1468 H1462 0.950 . S
C1468 C1469 1.327 . S
C1469 H1463 0.950 . S
C1469 C1468 1.327 . S
C1469 C1473 1.429 . S
C1470 C1453 1.574 . S
C1470 H1464 0.949 . S
C1470 C1474 1.368 . S
C1471 C1452 1.429 . S
C1471 C1465 1.429 . S
C1471 C1472 1.523 . S
C1472 C1453 1.368 1_655 S
C1472 C1466 1.368 . S
C1472 C1471 1.523 . S
C1473 C1457 1.429 . S
C1473 C1469 1.429 . S
C1473 C1474 1.523 . S
C1474 C1458 1.368 1_455 S
C1474 C1470 1.368 . S
C1474 C1473 1.523 . S
H1475 C1450 0.950 . S
H1476 C1452 0.950 . S
H1477 C1453 0.949 . S
H1478 C1455 0.950 . S
H1479 C1457 0.950 . S
C1480 C1481 1.349 . S
C1480 C1482 1.327 . S
C1480 H1505 0.950 . S
C1481 C1480 1.349 . S
C1481 C1497 1.349 . S
C1482 C1480 1.327 . S
C1482 C1501 1.429 . S
C1482 H1506 0.950 . S
C1483 C1500 1.574 . S
C1483 C1502 1.368 . S
C1483 H1507 0.949 . S
H1484 C1488 0.949 . S
C1485 C1486 1.349 . S
C1485 C1487 1.327 . S
C1485 H1508 0.950 . S
C1486 C1485 1.349 . S
C1486 C1498 1.349 . S
C1487 C1485 1.327 . S
C1487 C1503 1.429 . S
C1487 H1509 0.950 . S
C1488 H1484 0.949 . S
C1488 C1496 1.574 . S
C1488 C1504 1.368 . S
H1489 C1497 0.950 . S
H1490 C1495 0.950 . S
H1491 C1496 0.949 . S
H1492 C1498 0.950 . S
H1493 C1499 0.950 . S
H1494 C1500 0.949 . S
C1495 H1490 0.950 . S
C1495 C1497 1.327 . S
C1495 C1501 1.429 . S
C1496 C1488 1.574 . S
C1496 H1491 0.949 . S
C1496 C1502 1.368 . S
C1497 C1481 1.349 . S
C1497 H1489 0.950 . S
C1497 C1495 1.327 . S
C1498 C1486 1.349 . S
C1498 H1492 0.950 . S
C1498 C1499 1.327 . S
C1499 H1493 0.950 . S
C1499 C1498 1.327 . S
C1499 C1503 1.429 . S
C1500 C1483 1.574 . S
C1500 H1494 0.949 . S
C1500 C1504 1.368 . S
C1501 C1482 1.429 . S
C1501 C1495 1.429 . S
C1501 C1502 1.523 . S
C1502 C1483 1.368 . S
C1502 C1496 1.368 . S
C1502 C1501 1.523 . S
C1503 C1487 1.429 . S
C1503 C1499 1.429 . S
C1503 C1504 1.523 . S
C1504 C1488 1.368 . S
C1504 C1500 1.368 . S
C1504 C1503 1.523 . S
H1505 C1480 0.950 . S
H1506 C1482 0.950 . S
H1507 C1483 0.949 . S
H1508 C1485 0.950 . S
H1509 C1487 0.950 . S
C1510 C1511 1.349 . S
C1510 C1512 1.327 . S
C1510 H1535 0.950 . S
C1511 C1510 1.349 . S
C1511 C1527 1.349 . S
C1512 C1510 1.327 . S
C1512 C1531 1.429 . S
C1512 H1536 0.950 . S
C1513 C1530 1.574 . S
C1513 C1532 1.368 . S
C1513 H1537 0.949 . S
H1514 C1518 0.949 . S
C1515 C1516 1.349 . S
C1515 C1517 1.327 . S
C1515 H1538 0.950 . S
C1516 C1515 1.349 . S
C1516 C1528 1.349 . S
C1517 C1515 1.327 . S
C1517 C1533 1.429 . S
C1517 H1539 0.950 . S
C1518 H1514 0.949 . S
C1518 C1526 1.574 . S
C1518 C1534 1.368 . S
H1519 C1527 0.950 . S
H1520 C1525 0.950 . S
H1521 C1526 0.949 . S
H1522 C1528 0.950 . S
H1523 C1529 0.950 . S
H1524 C1530 0.949 . S
C1525 H1520 0.950 . S
C1525 C1527 1.327 . S
C1525 C1531 1.429 . S
C1526 C1518 1.574 . S
C1526 H1521 0.949 . S
C1526 C1532 1.368 . S
C1527 C1511 1.349 . S
C1527 H1519 0.950 . S
C1527 C1525 1.327 . S
C1528 C1516 1.349 . S
C1528 H1522 0.950 . S
C1528 C1529 1.327 . S
C1529 H1523 0.950 . S
C1529 C1528 1.327 . S
C1529 C1533 1.429 . S
C1530 C1513 1.574 . S
C1530 H1524 0.949 . S
C1530 C1534 1.368 . S
C1531 C1512 1.429 . S
C1531 C1525 1.429 . S
C1531 C1532 1.523 . S
C1532 C1513 1.368 . S
C1532 C1526 1.368 . S
C1532 C1531 1.523 . S
C1533 C1517 1.429 . S
C1533 C1529 1.429 . S
C1533 C1534 1.523 . S
C1534 C1518 1.368 . S
C1534 C1530 1.368 . S
C1534 C1533 1.523 . S
H1535 C1510 0.950 . S
H1536 C1512 0.950 . S
H1537 C1513 0.949 . S
H1538 C1515 0.950 . S
H1539 C1517 0.950 . S
C1540 C1541 1.349 . S
C1540 C1542 1.327 . S
C1540 H1565 0.950 . S
C1541 C1540 1.349 . S
C1541 C1557 1.349 . S
C1542 C1540 1.327 . S
C1542 C1561 1.429 . S
C1542 H1566 0.950 . S
C1543 C1560 1.574 1_455 S
C1543 C1562 1.368 . S
C1543 H1567 0.949 . S
H1544 C1548 0.949 . S
C1545 C1546 1.349 . S
C1545 C1547 1.327 . S
C1545 H1568 0.950 . S
C1546 C1545 1.349 . S
C1546 C1558 1.349 . S
C1547 C1545 1.327 . S
C1547 C1563 1.429 . S
C1547 H1569 0.950 . S
C1548 H1544 0.949 . S
C1548 C1556 1.574 1_655 S
C1548 C1564 1.368 . S
H1549 C1557 0.950 . S
H1550 C1555 0.950 . S
H1551 C1556 0.949 . S
H1552 C1558 0.950 . S
H1553 C1559 0.950 . S
H1554 C1560 0.949 . S
C1555 H1550 0.950 . S
C1555 C1557 1.327 . S
C1555 C1561 1.429 . S
C1556 C1548 1.574 1_455 S
C1556 H1551 0.949 . S
C1556 C1562 1.368 . S
C1557 C1541 1.349 . S
C1557 H1549 0.950 . S
C1557 C1555 1.327 . S
C1558 C1546 1.349 . S
C1558 H1552 0.950 . S
C1558 C1559 1.327 . S
C1559 H1553 0.950 . S
C1559 C1558 1.327 . S
C1559 C1563 1.429 . S
C1560 C1543 1.574 1_655 S
C1560 H1554 0.949 . S
C1560 C1564 1.368 . S
C1561 C1542 1.429 . S
C1561 C1555 1.429 . S
C1561 C1562 1.523 . S
C1562 C1543 1.368 . S
C1562 C1556 1.368 . S
C1562 C1561 1.523 . S
C1563 C1547 1.429 . S
C1563 C1559 1.429 . S
C1563 C1564 1.523 . S
C1564 C1548 1.368 . S
C1564 C1560 1.368 . S
C1564 C1563 1.523 . S
H1565 C1540 0.950 . S
H1566 C1542 0.950 . S
H1567 C1543 0.949 . S
H1568 C1545 0.950 . S
H1569 C1547 0.950 . S
C1570 C1571 1.349 . S
C1570 C1572 1.327 . S
C1570 H1595 0.950 . S
C1571 C1570 1.349 . S
C1571 C1587 1.349 . S
C1572 C1570 1.327 . S
C1572 C1591 1.429 . S
C1572 H1596 0.950 . S
C1573 C1590 1.574 . S
C1573 C1592 1.368 1_655 S
C1573 H1597 0.949 . S
H1574 C1578 0.949 . S
C1575 C1576 1.349 . S
C1575 C1577 1.327 . S
C1575 H1598 0.950 . S
C1576 C1575 1.349 . S
C1576 C1588 1.349 . S
C1577 C1575 1.327 . S
C1577 C1593 1.429 . S
C1577 H1599 0.950 . S
C1578 H1574 0.949 . S
C1578 C1586 1.574 . S
C1578 C1594 1.368 1_455 S
H1579 C1587 0.950 . S
H1580 C1585 0.950 . S
H1581 C1586 0.949 . S
H1582 C1588 0.950 . S
H1583 C1589 0.950 . S
H1584 C1590 0.949 . S
C1585 H1580 0.950 . S
C1585 C1587 1.327 . S
C1585 C1591 1.429 . S
C1586 C1578 1.574 . S
C1586 H1581 0.949 . S
C1586 C1592 1.368 . S
C1587 C1571 1.349 . S
C1587 H1579 0.950 . S
C1587 C1585 1.327 . S
C1588 C1576 1.349 . S
C1588 H1582 0.950 . S
C1588 C1589 1.327 . S
C1589 H1583 0.950 . S
C1589 C1588 1.327 . S
C1589 C1593 1.429 . S
C1590 C1573 1.574 . S
C1590 H1584 0.949 . S
C1590 C1594 1.368 . S
C1591 C1572 1.429 . S
C1591 C1585 1.429 . S
C1591 C1592 1.523 . S
C1592 C1573 1.368 1_455 S
C1592 C1586 1.368 . S
C1592 C1591 1.523 . S
C1593 C1577 1.429 . S
C1593 C1589 1.429 . S
C1593 C1594 1.523 . S
C1594 C1578 1.368 1_655 S
C1594 C1590 1.368 . S
C1594 C1593 1.523 . S
H1595 C1570 0.950 . S
H1596 C1572 0.950 . S
H1597 C1573 0.949 . S
H1598 C1575 0.950 . S
H1599 C1577 0.950 . S
C1600 C1601 1.349 . S
C1600 C1602 1.327 . S
C1600 H1625 0.950 . S
C1601 C1600 1.349 . S
C1601 C1617 1.349 . S
C1602 C1600 1.327 . S
C1602 C1621 1.429 . S
C1602 H1626 0.950 . S
C1603 C1620 1.574 . S
C1603 C1622 1.368 . S
C1603 H1627 0.949 . S
H1604 C1608 0.949 . S
C1605 C1606 1.349 . S
C1605 C1607 1.327 . S
C1605 H1628 0.950 . S
C1606 C1605 1.349 . S
C1606 C1618 1.349 . S
C1607 C1605 1.327 . S
C1607 C1623 1.429 . S
C1607 H1629 0.950 . S
C1608 H1604 0.949 . S
C1608 C1616 1.574 . S
C1608 C1624 1.368 . S
H1609 C1617 0.950 . S
H1610 C1615 0.950 . S
H1611 C1616 0.949 . S
H1612 C1618 0.950 . S
H1613 C1619 0.950 . S
H1614 C1620 0.949 . S
C1615 H1610 0.950 . S
C1615 C1617 1.327 . S
C1615 C1621 1.429 . S
C1616 C1608 1.574 . S
C1616 H1611 0.949 . S
C1616 C1622 1.368 . S
C1617 C1601 1.349 . S
C1617 H1609 0.950 . S
C1617 C1615 1.327 . S
C1618 C1606 1.349 . S
C1618 H1612 0.950 . S
C1618 C1619 1.327 . S
C1619 H1613 0.950 . S
C1619 C1618 1.327 . S
C1619 C1623 1.429 . S
C1620 C1603 1.574 . S
C1620 H1614 0.949 . S
C1620 C1624 1.368 . S
C1621 C1602 1.429 . S
C1621 C1615 1.429 . S
C1621 C1622 1.523 . S
C1622 C1603 1.368 . S
C1622 C1616 1.368 . S
C1622 C1621 1.523 . S
C1623 C1607 1.429 . S
C1623 C1619 1.429 . S
C1623 C1624 1.523 . S
C1624 C1608 1.368 . S
C1624 C1620 1.368 . S
C1624 C1623 1.523 . S
H1625 C1600 0.950 . S
H1626 C1602 0.950 . S
H1627 C1603 0.949 . S
H1628 C1605 0.950 . S
H1629 C1607 0.950 . S
C1630 C1631 1.349 . S
C1630 C1632 1.327 . S
C1630 H1655 0.950 . S
C1631 C1630 1.349 . S
C1631 C1647 1.349 . S
C1632 C1630 1.327 . S
C1632 C1651 1.429 . S
C1632 H1656 0.950 . S
C1633 C1650 1.574 . S
C1633 C1652 1.368 . S
C1633 H1657 0.949 . S
H1634 C1638 0.949 . S
C1635 C1636 1.349 . S
C1635 C1637 1.327 . S
C1635 H1658 0.950 . S
C1636 C1635 1.349 . S
C1636 C1648 1.349 . S
C1637 C1635 1.327 . S
C1637 C1653 1.429 . S
C1637 H1659 0.950 . S
C1638 H1634 0.949 . S
C1638 C1646 1.574 . S
C1638 C1654 1.368 . S
H1639 C1647 0.950 . S
H1640 C1645 0.950 . S
H1641 C1646 0.949 . S
H1642 C1648 0.950 . S
H1643 C1649 0.950 . S
H1644 C1650 0.949 . S
C1645 H1640 0.950 . S
C1645 C1647 1.327 . S
C1645 C1651 1.429 . S
C1646 C1638 1.574 . S
C1646 H1641 0.949 . S
C1646 C1652 1.368 . S
C1647 C1631 1.349 . S
C1647 H1639 0.950 . S
C1647 C1645 1.327 . S
C1648 C1636 1.349 . S
C1648 H1642 0.950 . S
C1648 C1649 1.327 . S
C1649 H1643 0.950 . S
C1649 C1648 1.327 . S
C1649 C1653 1.429 . S
C1650 C1633 1.574 . S
C1650 H1644 0.949 . S
C1650 C1654 1.368 . S
C1651 C1632 1.429 . S
C1651 C1645 1.429 . S
C1651 C1652 1.523 . S
C1652 C1633 1.368 . S
C1652 C1646 1.368 . S
C1652 C1651 1.523 . S
C1653 C1637 1.429 . S
C1653 C1649 1.429 . S
C1653 C1654 1.523 . S
C1654 C1638 1.368 . S
C1654 C1650 1.368 . S
C1654 C1653 1.523 . S
H1655 C1630 0.950 . S
H1656 C1632 0.950 . S
H1657 C1633 0.949 . S
H1658 C1635 0.950 . S
H1659 C1637 0.950 . S
C1660 C1661 1.349 . S
C1660 C1662 1.327 . S
C1660 H1685 0.950 . S
C1661 C1660 1.349 . S
C1661 C1677 1.349 . S
C1662 C1660 1.327 . S
C1662 C1681 1.429 . S
C1662 H1686 0.950 . S
C1663 C1680 1.574 . S
C1663 C1682 1.368 . S
C1663 H1687 0.949 . S
H1664 C1668 0.949 . S
C1665 C1666 1.349 . S
C1665 C1667 1.327 . S
C1665 H1688 0.950 . S
C1666 C1665 1.349 . S
C1666 C1678 1.349 . S
C1667 C1665 1.327 . S
C1667 C1683 1.429 . S
C1667 H1689 0.950 . S
C1668 H1664 0.949 . S
C1668 C1676 1.574 . S
C1668 C1684 1.368 . S
H1669 C1677 0.950 . S
H1670 C1675 0.950 . S
H1671 C1676 0.949 . S
H1672 C1678 0.950 . S
H1673 C1679 0.950 . S
H1674 C1680 0.949 . S
C1675 H1670 0.950 . S
C1675 C1677 1.327 . S
C1675 C1681 1.429 . S
C1676 C1668 1.574 . S
C1676 H1671 0.949 . S
C1676 C1682 1.368 . S
C1677 C1661 1.349 . S
C1677 H1669 0.950 . S
C1677 C1675 1.327 . S
C1678 C1666 1.349 . S
C1678 H1672 0.950 . S
C1678 C1679 1.327 . S
C1679 H1673 0.950 . S
C1679 C1678 1.327 . S
C1679 C1683 1.429 . S
C1680 C1663 1.574 . S
C1680 H1674 0.949 . S
C1680 C1684 1.368 . S
C1681 C1662 1.429 . S
C1681 C1675 1.429 . S
C1681 C1682 1.523 . S
C1682 C1663 1.368 . S
C1682 C1676 1.368 . S
C1682 C1681 1.523 . S
C1683 C1667 1.429 . S
C1683 C1679 1.429 . S
C1683 C1684 1.523 . S
C1684 C1668 1.368 . S
C1684 C1680 1.368 . S
C1684 C1683 1.523 . S
H1685 C1660 0.950 . S
H1686 C1662 0.950 . S
H1687 C1663 0.949 . S
H1688 C1665 0.950 . S
H1689 C1667 0.950 . S
C1690 C1691 1.349 . S
C1690 C1692 1.327 1_655 S
C1690 H1715 0.950 . S
C1691 C1690 1.349 . S
C1691 C1707 1.349 . S
C1692 C1690 1.327 1_455 S
C1692 C1711 1.429 . S
C1692 H1716 0.950 . S
C1693 C1710 1.574 . S
C1693 C1712 1.368 . S
C1693 H1717 0.949 . S
H1694 C1698 0.949 . S
C1695 C1696 1.349 . S
C1695 C1697 1.327 . S
C1695 H1718 0.950 . S
C1696 C1695 1.349 . S
C1696 C1708 1.349 . S
C1697 C1695 1.327 . S
C1697 C1713 1.429 . S
C1697 H1719 0.950 . S
C1698 H1694 0.949 . S
C1698 C1706 1.574 . S
C1698 C1714 1.368 . S
H1699 C1707 0.950 . S
H1700 C1705 0.950 . S
H1701 C1706 0.949 . S
H1702 C1708 0.950 . S
H1703 C1709 0.950 . S
H1704 C1710 0.949 . S
C1705 H1700 0.950 . S
C1705 C1707 1.325 1_455 S
C1705 C1711 1.430 . S
C1706 C1698 1.574 . S
C1706 H1701 0.949 . S
C1706 C1712 1.368 . S
C1707 C1691 1.349 . S
C1707 H1699 0.950 . S
C1707 C1705 1.325 1_655 S
C1708 C1696 1.349 . S
C1708 H1702 0.950 . S
C1708 C1709 1.327 . S
C1709 H1703 0.950 . S
C1709 C1708 1.327 . S
C1709 C1713 1.429 . S
C1710 C1693 1.574 . S
C1710 H1704 0.949 . S
C1710 C1714 1.368 . S
C1711 C1692 1.429 . S
C1711 C1705 1.430 . S
C1711 C1712 1.523 . S
C1712 C1693 1.368 . S
C1712 C1706 1.368 . S
C1712 C1711 1.523 . S
C1713 C1697 1.429 . S
C1713 C1709 1.429 . S
C1713 C1714 1.523 . S
C1714 C1698 1.368 . S
C1714 C1710 1.368 . S
C1714 C1713 1.523 . S
H1715 C1690 0.950 . S
H1716 C1692 0.950 . S
H1717 C1693 0.949 . S
H1718 C1695 0.950 . S
H1719 C1697 0.950 . S
C1720 C1721 1.349 . S
C1720 C1722 1.327 . S
C1720 H1745 0.950 . S
C1721 C1720 1.349 . S
C1721 C1737 1.349 . S
C1722 C1720 1.327 . S
C1722 C1741 1.429 . S
C1722 H1746 0.950 . S
C1723 C1740 1.574 . S
C1723 C1742 1.368 . S
C1723 H1747 0.949 . S
H1724 C1728 0.949 . S
C1725 C1726 1.349 . S
C1725 C1727 1.327 . S
C1725 H1748 0.950 . S
C1726 C1725 1.349 . S
C1726 C1738 1.349 . S
C1727 C1725 1.327 . S
C1727 C1743 1.429 . S
C1727 H1749 0.950 . S
C1728 H1724 0.949 . S
C1728 C1736 1.574 . S
C1728 C1744 1.368 . S
H1729 C1737 0.950 . S
H1730 C1735 0.950 . S
H1731 C1736 0.949 . S
H1732 C1738 0.950 . S
H1733 C1739 0.950 . S
H1734 C1740 0.949 . S
C1735 H1730 0.950 . S
C1735 C1737 1.327 . S
C1735 C1741 1.429 . S
C1736 C1728 1.574 . S
C1736 H1731 0.949 . S
C1736 C1742 1.368 . S
C1737 C1721 1.349 . S
C1737 H1729 0.950 . S
C1737 C1735 1.327 . S
C1738 C1726 1.349 . S
C1738 H1732 0.950 . S
C1738 C1739 1.327 . S
C1739 H1733 0.950 . S
C1739 C1738 1.327 . S
C1739 C1743 1.429 . S
C1740 C1723 1.574 . S
C1740 H1734 0.949 . S
C1740 C1744 1.368 . S
C1741 C1722 1.429 . S
C1741 C1735 1.429 . S
C1741 C1742 1.523 . S
C1742 C1723 1.368 . S
C1742 C1736 1.368 . S
C1742 C1741 1.523 . S
C1743 C1727 1.429 . S
C1743 C1739 1.429 . S
C1743 C1744 1.523 . S
C1744 C1728 1.368 . S
C1744 C1740 1.368 . S
C1744 C1743 1.523 . S
H1745 C1720 0.950 . S
H1746 C1722 0.950 . S
H1747 C1723 0.949 . S
H1748 C1725 0.950 . S
H1749 C1727 0.950 . S
C1750 C1751 1.349 . S
C1750 C1752 1.327 . S
C1750 H1775 0.950 . S
C1751 C1750 1.349 . S
C1751 C1767 1.349 . S
C1752 C1750 1.327 . S
C1752 C1771 1.429 . S
C1752 H1776 0.950 . S
C1753 C1770 1.574 . S
C1753 C1772 1.368 . S
C1753 H1777 0.949 . S
H1754 C1758 0.949 . S
C1755 C1756 1.349 . S
C1755 C1757 1.327 . S
C1755 H1778 0.950 . S
C1756 C1755 1.349 . S
C1756 C1768 1.349 . S
C1757 C1755 1.327 . S
C1757 C1773 1.429 . S
C1757 H1779 0.950 . S
C1758 H1754 0.949 . S
C1758 C1766 1.574 . S
C1758 C1774 1.368 . S
H1759 C1767 0.950 . S
H1760 C1765 0.950 . S
H1761 C1766 0.949 . S
H1762 C1768 0.950 . S
H1763 C1769 0.950 . S
H1764 C1770 0.949 . S
C1765 H1760 0.950 . S
C1765 C1767 1.327 . S
C1765 C1771 1.429 . S
C1766 C1758 1.574 . S
C1766 H1761 0.949 . S
C1766 C1772 1.368 . S
C1767 C1751 1.349 . S
C1767 H1759 0.950 . S
C1767 C1765 1.327 . S
C1768 C1756 1.349 . S
C1768 H1762 0.950 . S
C1768 C1769 1.327 . S
C1769 H1763 0.950 . S
C1769 C1768 1.327 . S
C1769 C1773 1.429 . S
C1770 C1753 1.574 . S
C1770 H1764 0.949 . S
C1770 C1774 1.368 . S
C1771 C1752 1.429 . S
C1771 C1765 1.429 . S
C1771 C1772 1.523 . S
C1772 C1753 1.368 . S
C1772 C1766 1.368 . S
C1772 C1771 1.523 . S
C1773 C1757 1.429 . S
C1773 C1769 1.429 . S
C1773 C1774 1.523 . S
C1774 C1758 1.368 . S
C1774 C1770 1.368 . S
C1774 C1773 1.523 . S
H1775 C1750 0.950 . S
H1776 C1752 0.950 . S
H1777 C1753 0.949 . S
H1778 C1755 0.950 . S
H1779 C1757 0.950 . S
C1780 C1781 1.349 . S
C1780 C1782 1.327 . S
C1780 H1805 0.950 . S
C1781 C1780 1.349 . S
C1781 C1797 1.349 . S
C1782 C1780 1.327 . S
C1782 C1801 1.429 . S
C1782 H1806 0.950 . S
C1783 C1800 1.574 . S
C1783 C1802 1.368 . S
C1783 H1807 0.949 . S
H1784 C1788 0.949 . S
C1785 C1786 1.349 . S
C1785 C1787 1.327 . S
C1785 H1808 0.950 . S
C1786 C1785 1.349 . S
C1786 C1798 1.349 . S
C1787 C1785 1.327 . S
C1787 C1803 1.429 . S
C1787 H1809 0.950 . S
C1788 H1784 0.949 . S
C1788 C1796 1.574 . S
C1788 C1804 1.368 . S
H1789 C1797 0.950 . S
H1790 C1795 0.950 . S
H1791 C1796 0.949 . S
H1792 C1798 0.950 . S
H1793 C1799 0.950 . S
H1794 C1800 0.949 . S
C1795 H1790 0.950 . S
C1795 C1797 1.327 . S
C1795 C1801 1.429 . S
C1796 C1788 1.574 . S
C1796 H1791 0.949 . S
C1796 C1802 1.368 . S
C1797 C1781 1.349 . S
C1797 H1789 0.950 . S
C1797 C1795 1.327 . S
C1798 C1786 1.349 . S
C1798 H1792 0.950 . S
C1798 C1799 1.327 . S
C1799 H1793 0.950 . S
C1799 C1798 1.327 . S
C1799 C1803 1.429 . S
C1800 C1783 1.574 . S
C1800 H1794 0.949 . S
C1800 C1804 1.368 . S
C1801 C1782 1.429 . S
C1801 C1795 1.429 . S
C1801 C1802 1.523 . S
C1802 C1783 1.368 . S
C1802 C1796 1.368 . S
C1802 C1801 1.523 . S
C1803 C1787 1.429 . S
C1803 C1799 1.429 . S
C1803 C1804 1.523 . S
C1804 C1788 1.368 . S
C1804 C1800 1.368 . S
C1804 C1803 1.523 . S
H1805 C1780 0.950 . S
H1806 C1782 0.950 . S
H1807 C1783 0.949 . S
H1808 C1785 0.950 . S
H1809 C1787 0.950 . S
C1810 C1811 1.349 . S
C1810 C1812 1.327 . S
C1810 H1835 0.950 . S
C1811 C1810 1.349 . S
C1811 C1827 1.349 . S
C1812 C1810 1.327 . S
C1812 C1831 1.429 . S
C1812 H1836 0.950 . S
C1813 C1830 1.574 . S
C1813 C1832 1.368 . S
C1813 H1837 0.949 . S
H1814 C1818 0.949 . S
C1815 C1816 1.349 . S
C1815 C1817 1.300 1_455 S
C1815 H1838 0.950 . S
C1816 C1815 1.349 . S
C1816 C1828 1.349 . S
C1817 C1815 1.300 1_655 S
C1817 C1833 1.449 . S
C1817 H1839 0.957 . S
C1818 H1814 0.949 . S
C1818 C1826 1.574 . S
C1818 C1834 1.368 . S
H1819 C1827 0.950 . S
H1820 C1825 0.950 . S
H1821 C1826 0.949 . S
H1822 C1828 0.950 . S
H1823 C1829 0.950 . S
H1824 C1830 0.949 . S
C1825 H1820 0.950 . S
C1825 C1827 1.327 . S
C1825 C1831 1.429 . S
C1826 C1818 1.574 . S
C1826 H1821 0.949 . S
C1826 C1832 1.368 . S
C1827 C1811 1.349 . S
C1827 H1819 0.950 . S
C1827 C1825 1.327 . S
C1828 C1816 1.349 . S
C1828 H1822 0.950 . S
C1828 C1829 1.327 1_455 S
C1829 H1823 0.950 . S
C1829 C1828 1.327 1_655 S
C1829 C1833 1.429 . S
C1830 C1813 1.574 . S
C1830 H1824 0.949 . S
C1830 C1834 1.368 . S
C1831 C1812 1.429 . S
C1831 C1825 1.429 . S
C1831 C1832 1.523 . S
C1832 C1813 1.368 . S
C1832 C1826 1.368 . S
C1832 C1831 1.523 . S
C1833 C1817 1.449 . S
C1833 C1829 1.429 . S
C1833 C1834 1.523 . S
C1834 C1818 1.368 . S
C1834 C1830 1.368 . S
C1834 C1833 1.523 . S
H1835 C1810 0.950 . S
H1836 C1812 0.950 . S
H1837 C1813 0.949 . S
H1838 C1815 0.950 . S
H1839 C1817 0.957 . S
C1840 C1841 1.349 . S
C1840 C1842 1.327 . S
C1840 H1865 0.950 . S
C1841 C1840 1.349 . S
C1841 C1857 1.349 . S
C1842 C1840 1.327 . S
C1842 C1861 1.429 . S
C1842 H1866 0.950 . S
C1843 C1860 1.574 . S
C1843 C1862 1.368 . S
C1843 H1867 0.949 . S
H1844 C1848 0.949 . S
C1845 C1846 1.349 . S
C1845 C1847 1.327 . S
C1845 H1868 0.950 . S
C1846 C1845 1.349 . S
C1846 C1858 1.349 . S
C1847 C1845 1.327 . S
C1847 C1863 1.429 . S
C1847 H1869 0.950 . S
C1848 H1844 0.949 . S
C1848 C1856 1.574 . S
C1848 C1864 1.368 . S
H1849 C1857 0.950 . S
H1850 C1855 0.950 . S
H1851 C1856 0.949 . S
H1852 C1858 0.950 . S
H1853 C1859 0.950 . S
H1854 C1860 0.949 . S
C1855 H1850 0.950 . S
C1855 C1857 1.327 . S
C1855 C1861 1.429 . S
C1856 C1848 1.574 . S
C1856 H1851 0.949 . S
C1856 C1862 1.368 . S
C1857 C1841 1.349 . S
C1857 H1849 0.950 . S
C1857 C1855 1.327 . S
C1858 C1846 1.349 . S
C1858 H1852 0.950 . S
C1858 C1859 1.327 . S
C1859 H1853 0.950 . S
C1859 C1858 1.327 . S
C1859 C1863 1.429 . S
C1860 C1843 1.574 . S
C1860 H1854 0.949 . S
C1860 C1864 1.368 . S
C1861 C1842 1.429 . S
C1861 C1855 1.429 . S
C1861 C1862 1.523 . S
C1862 C1843 1.368 . S
C1862 C1856 1.368 . S
C1862 C1861 1.523 . S
C1863 C1847 1.429 . S
C1863 C1859 1.429 . S
C1863 C1864 1.523 . S
C1864 C1848 1.368 . S
C1864 C1860 1.368 . S
C1864 C1863 1.523 . S
H1865 C1840 0.950 . S
H1866 C1842 0.950 . S
H1867 C1843 0.949 . S
H1868 C1845 0.950 . S
H1869 C1847 0.950 . S
C1870 C1871 1.349 . S
C1870 C1872 1.327 . S
C1870 H1895 0.950 . S
C1871 C1870 1.349 . S
C1871 C1887 1.349 . S
C1872 C1870 1.327 . S
C1872 C1891 1.429 . S
C1872 H1896 0.950 . S
C1873 C1890 1.574 . S
C1873 C1892 1.368 . S
C1873 H1897 0.949 . S
H1874 C1878 0.949 . S
C1875 C1876 1.349 1_545 S
C1875 C1877 1.327 1_445 S
C1875 H1898 0.950 . S
C1876 C1875 1.349 1_565 S
C1876 C1888 1.349 . S
C1877 C1875 1.327 1_665 S
C1877 C1893 1.429 . S
C1877 H1899 0.950 . S
C1878 H1874 0.949 . S
C1878 C1886 1.574 . S
C1878 C1894 1.368 . S
H1879 C1887 0.950 . S
H1880 C1885 0.950 . S
H1881 C1886 0.949 . S
H1882 C1888 0.950 . S
H1883 C1889 0.950 . S
H1884 C1890 0.949 . S
C1885 H1880 0.950 . S
C1885 C1887 1.327 . S
C1885 C1891 1.429 . S
C1886 C1878 1.574 . S
C1886 H1881 0.949 . S
C1886 C1892 1.368 . S
C1887 C1871 1.349 . S
C1887 H1879 0.950 . S
C1887 C1885 1.327 . S
C1888 C1876 1.349 . S
C1888 H1882 0.950 . S
C1888 C1889 1.327 1_455 S
C1889 H1883 0.950 . S
C1889 C1888 1.327 1_655 S
C1889 C1893 1.429 . S
C1890 C1873 1.574 . S
C1890 H1884 0.949 . S
C1890 C1894 1.368 . S
C1891 C1872 1.429 . S
C1891 C1885 1.429 . S
C1891 C1892 1.523 . S
C1892 C1873 1.368 . S
C1892 C1886 1.368 . S
C1892 C1891 1.523 . S
C1893 C1877 1.429 . S
C1893 C1889 1.429 . S
C1893 C1894 1.523 . S
C1894 C1878 1.368 . S
C1894 C1890 1.368 . S
C1894 C1893 1.523 . S
H1895 C1870 0.950 . S
H1896 C1872 0.950 . S
H1897 C1873 0.949 . S
H1898 C1875 0.950 . S
H1899 C1877 0.950 . S
C1900 C1901 1.349 . S
C1900 C1902 1.327 . S
C1900 H1925 0.950 . S
C1901 C1900 1.349 . S
C1901 C1917 1.349 . S
C1902 C1900 1.327 . S
C1902 C1921 1.429 . S
C1902 H1926 0.950 . S
C1903 C1920 1.574 . S
C1903 C1922 1.368 . S
C1903 H1927 0.949 . S
H1904 C1908 0.949 . S
C1905 C1906 1.349 . S
C1905 C1907 1.327 . S
C1905 H1928 0.950 . S
C1906 C1905 1.349 . S
C1906 C1918 1.349 . S
C1907 C1905 1.327 . S
C1907 C1923 1.429 . S
C1907 H1929 0.950 . S
C1908 H1904 0.949 . S
C1908 C1916 1.574 . S
C1908 C1924 1.368 . S
H1909 C1917 0.950 . S
H1910 C1915 0.950 . S
H1911 C1916 0.949 . S
H1912 C1918 0.950 . S
H1913 C1919 0.950 . S
H1914 C1920 0.949 . S
C1915 H1910 0.950 . S
C1915 C1917 1.327 . S
C1915 C1921 1.429 . S
C1916 C1908 1.574 . S
C1916 H1911 0.949 . S
C1916 C1922 1.368 . S
C1917 C1901 1.349 . S
C1917 H1909 0.950 . S
C1917 C1915 1.327 . S
C1918 C1906 1.349 . S
C1918 H1912 0.950 . S
C1918 C1919 1.327 . S
C1919 H1913 0.950 . S
C1919 C1918 1.327 . S
C1919 C1923 1.429 . S
C1920 C1903 1.574 . S
C1920 H1914 0.949 . S
C1920 C1924 1.368 . S
C1921 C1902 1.429 . S
C1921 C1915 1.429 . S
C1921 C1922 1.523 . S
C1922 C1903 1.368 . S
C1922 C1916 1.368 . S
C1922 C1921 1.523 . S
C1923 C1907 1.429 . S
C1923 C1919 1.429 . S
C1923 C1924 1.523 . S
C1924 C1908 1.368 . S
C1924 C1920 1.368 . S
C1924 C1923 1.523 . S
H1925 C1900 0.950 . S
H1926 C1902 0.950 . S
H1927 C1903 0.949 . S
H1928 C1905 0.950 . S
H1929 C1907 0.950 . S
C1930 C1931 1.349 1_565 S
C1930 C1932 1.327 1_565 S
C1930 H1955 0.950 . S
C1931 C1930 1.349 1_545 S
C1931 C1947 1.349 . S
C1932 C1930 1.327 1_545 S
C1932 C1951 1.429 . S
C1932 H1956 0.950 1_545 S
C1933 C1950 1.574 . S
C1933 C1952 1.368 . S
C1933 H1957 0.949 . S
H1934 C1938 0.949 . S
C1935 C1936 1.349 . S
C1935 C1937 1.327 . S
C1935 H1958 0.950 . S
C1936 C1935 1.349 . S
C1936 C1948 1.349 . S
C1937 C1935 1.327 . S
C1937 C1953 1.429 . S
C1937 H1959 0.950 . S
C1938 H1934 0.949 . S
C1938 C1946 1.574 . S
C1938 C1954 1.368 . S
H1939 C1947 0.950 . S
H1940 C1945 0.950 . S
H1941 C1946 0.949 . S
H1942 C1948 0.950 . S
H1943 C1949 0.950 . S
H1944 C1950 0.949 . S
C1945 H1940 0.950 . S
C1945 C1947 1.327 . S
C1945 C1951 1.429 . S
C1946 C1938 1.574 . S
C1946 H1941 0.949 . S
C1946 C1952 1.368 . S
C1947 C1931 1.349 . S
C1947 H1939 0.950 . S
C1947 C1945 1.327 . S
C1948 C1936 1.349 . S
C1948 H1942 0.950 . S
C1948 C1949 1.327 . S
C1949 H1943 0.950 . S
C1949 C1948 1.327 . S
C1949 C1953 1.429 . S
C1950 C1933 1.574 . S
C1950 H1944 0.949 . S
C1950 C1954 1.368 . S
C1951 C1932 1.429 . S
C1951 C1945 1.429 . S
C1951 C1952 1.523 . S
C1952 C1933 1.368 . S
C1952 C1946 1.368 . S
C1952 C1951 1.523 . S
C1953 C1937 1.429 . S
C1953 C1949 1.429 . S
C1953 C1954 1.523 . S
C1954 C1938 1.368 . S
C1954 C1950 1.368 . S
C1954 C1953 1.523 . S
H1955 C1930 0.950 . S
H1956 C1932 0.950 1_565 S
H1957 C1933 0.949 . S
H1958 C1935 0.950 . S
H1959 C1937 0.950 . S
C1960 C1961 1.349 . S
C1960 C1962 1.327 . S
C1960 H1985 0.950 . S
C1961 C1960 1.349 . S
C1961 C1977 1.349 . S
C1962 C1960 1.327 . S
C1962 C1981 1.429 . S
C1962 H1986 0.950 . S
C1963 C1980 1.574 . S
C1963 C1982 1.368 . S
C1963 H1987 0.949 . S
H1964 C1968 0.949 . S
C1965 C1966 1.349 . S
C1965 C1967 1.327 . S
C1965 H1988 0.950 . S
C1966 C1965 1.349 . S
C1966 C1978 1.349 . S
C1967 C1965 1.327 . S
C1967 C1983 1.429 . S
C1967 H1989 0.950 . S
C1968 H1964 0.949 . S
C1968 C1976 1.574 . S
C1968 C1984 1.368 . S
H1969 C1977 0.950 . S
H1970 C1975 0.950 . S
H1971 C1976 0.949 . S
H1972 C1978 0.950 . S
H1973 C1979 0.950 . S
H1974 C1980 0.949 . S
C1975 H1970 0.950 . S
C1975 C1977 1.327 . S
C1975 C1981 1.429 . S
C1976 C1968 1.574 . S
C1976 H1971 0.949 . S
C1976 C1982 1.368 . S
C1977 C1961 1.349 . S
C1977 H1969 0.950 . S
C1977 C1975 1.327 . S
C1978 C1966 1.349 . S
C1978 H1972 0.950 . S
C1978 C1979 1.327 . S
C1979 H1973 0.950 . S
C1979 C1978 1.327 . S
C1979 C1983 1.429 . S
C1980 C1963 1.574 . S
C1980 H1974 0.949 . S
C1980 C1984 1.368 . S
C1981 C1962 1.429 . S
C1981 C1975 1.429 . S
C1981 C1982 1.523 . S
C1982 C1963 1.368 . S
C1982 C1976 1.368 . S
C1982 C1981 1.523 . S
C1983 C1967 1.429 . S
C1983 C1979 1.429 . S
C1983 C1984 1.523 . S
C1984 C1968 1.368 . S
C1984 C1980 1.368 . S
C1984 C1983 1.523 . S
H1985 C1960 0.950 . S
H1986 C1962 0.950 . S
H1987 C1963 0.949 . S
H1988 C1965 0.950 . S
H1989 C1967 0.950 . S
C1990 C1991 1.349 1_565 S
C1990 C1992 1.327 1_665 S
C1990 H2015 0.950 . S
C1991 C1990 1.349 1_545 S
C1991 C2007 1.349 . S
C1992 C1990 1.327 1_445 S
C1992 C2011 1.429 . S
C1992 H2016 0.950 . S
C1993 C2010 1.574 . S
C1993 C2012 1.368 . S
C1993 H2017 0.949 . S
H1994 C1998 0.949 . S
C1995 C1996 1.349 . S
C1995 C1997 1.327 . S
C1995 H2018 0.950 . S
C1996 C1995 1.349 . S
C1996 C2008 1.349 . S
C1997 C1995 1.327 . S
C1997 C2013 1.429 . S
C1997 H2019 0.950 . S
C1998 H1994 0.949 . S
C1998 C2006 1.574 . S
C1998 C2014 1.368 . S
H1999 C2007 0.950 . S
H2000 C2005 0.950 . S
H2001 C2006 0.949 . S
H2002 C2008 0.950 . S
H2003 C2009 0.950 . S
H2004 C2010 0.949 . S
C2005 H2000 0.950 . S
C2005 C2007 1.327 1_455 S
C2005 C2011 1.429 . S
C2006 C1998 1.574 . S
C2006 H2001 0.949 . S
C2006 C2012 1.368 . S
C2007 C1991 1.349 . S
C2007 H1999 0.950 . S
C2007 C2005 1.327 1_655 S
C2008 C1996 1.349 . S
C2008 H2002 0.950 . S
C2008 C2009 1.327 . S
C2009 H2003 0.950 . S
C2009 C2008 1.327 . S
C2009 C2013 1.429 . S
C2010 C1993 1.574 . S
C2010 H2004 0.949 . S
C2010 C2014 1.368 . S
C2011 C1992 1.429 . S
C2011 C2005 1.429 . S
C2011 C2012 1.523 . S
C2012 C1993 1.368 . S
C2012 C2006 1.368 . S
C2012 C2011 1.523 . S
C2013 C1997 1.429 . S
C2013 C2009 1.429 . S
C2013 C2014 1.523 . S
C2014 C1998 1.368 . S
C2014 C2010 1.368 . S
C2014 C2013 1.523 . S
H2015 C1990 0.950 . S
H2016 C1992 0.950 . S
H2017 C1993 0.949 . S
H2018 C1995 0.950 . S
H2019 C1997 0.950 . S
C2020 C2021 1.349 . S
C2020 C2022 1.327 . S
C2020 H2045 0.950 . S
C2021 C2020 1.349 . S
C2021 C2037 1.349 . S
C2022 C2020 1.327 . S
C2022 C2041 1.429 . S
C2022 H2046 0.950 . S
C2023 C2040 1.574 . S
C2023 C2042 1.368 . S
C2023 H2047 0.949 . S
H2024 C2028 0.949 . S
C2025 C2026 1.349 . S
C2025 C2027 1.327 . S
C2025 H2048 0.950 . S
C2026 C2025 1.349 . S
C2026 C2038 1.349 . S
C2027 C2025 1.327 . S
C2027 C2043 1.429 . S
C2027 H2049 0.950 . S
C2028 H2024 0.949 . S
C2028 C2036 1.574 . S
C2028 C2044 1.368 . S
H2029 C2037 0.950 . S
H2030 C2035 0.950 . S
H2031 C2036 0.949 . S
H2032 C2038 0.950 . S
H2033 C2039 0.950 . S
H2034 C2040 0.949 . S
C2035 H2030 0.950 . S
C2035 C2037 1.327 . S
C2035 C2041 1.429 . S
C2036 C2028 1.574 . S
C2036 H2031 0.949 . S
C2036 C2042 1.368 . S
C2037 C2021 1.349 . S
C2037 H2029 0.950 . S
C2037 C2035 1.327 . S
C2038 C2026 1.349 . S
C2038 H2032 0.950 . S
C2038 C2039 1.327 . S
C2039 H2033 0.950 . S
C2039 C2038 1.327 . S
C2039 C2043 1.429 . S
C2040 C2023 1.574 . S
C2040 H2034 0.949 . S
C2040 C2044 1.368 . S
C2041 C2022 1.429 . S
C2041 C2035 1.429 . S
C2041 C2042 1.523 . S
C2042 C2023 1.368 . S
C2042 C2036 1.368 . S
C2042 C2041 1.523 . S
C2043 C2027 1.429 . S
C2043 C2039 1.429 . S
C2043 C2044 1.523 . S
C2044 C2028 1.368 . S
C2044 C2040 1.368 . S
C2044 C2043 1.523 . S
H2045 C2020 0.950 . S
H2046 C2022 0.950 . S
H2047 C2023 0.949 . S
H2048 C2025 0.950 . S
H2049 C2027 0.950 . S
C2050 C2051 1.349 . S
C2050 C2052 1.327 . S
C2050 H2075 0.950 . S
C2051 C2050 1.349 . S
C2051 C2067 1.349 . S
C2052 C2050 1.327 . S
C2052 C2071 1.429 . S
C2052 H2076 0.950 . S
C2053 C2070 1.574 . S
C2053 C2072 1.368 . S
C2053 H2077 0.949 . S
H2054 C2058 0.949 . S
C2055 C2056 1.349 . S
C2055 C2057 1.327 . S
C2055 H2078 0.950 . S
C2056 C2055 1.349 . S
C2056 C2068 1.349 1_565 S
C2057 C2055 1.327 . S
C2057 C2073 1.429 . S
C2057 H2079 0.950 . S
C2058 H2054 0.949 . S
C2058 C2066 1.574 . S
C2058 C2074 1.368 . S
H2059 C2067 0.950 . S
H2060 C2065 0.950 . S
H2061 C2066 0.949 . S
H2062 C2068 0.950 . S
H2063 C2069 0.950 1_545 S
H2064 C2070 0.949 . S
C2065 H2060 0.950 . S
C2065 C2067 1.327 . S
C2065 C2071 1.429 . S
C2066 C2058 1.574 . S
C2066 H2061 0.949 . S
C2066 C2072 1.368 . S
C2067 C2051 1.349 . S
C2067 H2059 0.950 . S
C2067 C2065 1.327 . S
C2068 C2056 1.349 1_545 S
C2068 H2062 0.950 . S
C2068 C2069 1.327 1_545 S
C2069 H2063 0.950 1_565 S
C2069 C2068 1.327 1_565 S
C2069 C2073 1.429 . S
C2070 C2053 1.574 . S
C2070 H2064 0.949 . S
C2070 C2074 1.368 . S
C2071 C2052 1.429 . S
C2071 C2065 1.429 . S
C2071 C2072 1.523 . S
C2072 C2053 1.368 . S
C2072 C2066 1.368 . S
C2072 C2071 1.523 . S
C2073 C2057 1.429 . S
C2073 C2069 1.429 . S
C2073 C2074 1.523 . S
C2074 C2058 1.368 . S
C2074 C2070 1.368 . S
C2074 C2073 1.523 . S
H2075 C2050 0.950 . S
H2076 C2052 0.950 . S
H2077 C2053 0.949 . S
H2078 C2055 0.950 . S
H2079 C2057 0.950 . S
C641 C8 1.359 . S
C646 C509 1.359 . S
C671 C229 1.359 . S
C676 C48 1.359 . S
C701 C88 1.359 . S
C706 C589 1.359 . S
C731 C128 1.359 . S
C736 C309 1.359 . S
C761 C189 1.359 . S
C766 C328 1.359 . S
C791 C408 1.359 . S
C796 C269 1.359 . S
C821 C549 1.359 . S
C826 C368 1.359 . S
C851 C448 1.359 . S
C856 C629 1.359 . S
C881 C362 1.989 . S
C886 C29 1.960 . S
C911 C69 1.960 . S
C916 C402 1.989 . S
C941 C109 1.960 . S
C946 C442 1.989 . S
C971 C322 1.989 . S
C976 C149 1.960 . S
C1001 C537 1.989 . S
C1006 C168 1.960 . S
C1031 C577 1.989 . S
C1036 C208 1.960 . S
C1061 C248 1.960 . S
C1066 C617 1.989 . S
C1091 C497 1.989 . S
C1096 C288 1.960 . S
C1121 C349 1.960 . S
C1126 C42 1.989 . S
C1151 C389 1.960 . S
C1156 C82 1.989 . S
C1181 C429 1.959 . S
C1186 C122 1.989 . S
C1211 C2 1.989 . S
C1216 C469 1.960 . S
C1241 C217 1.989 . S
C1246 C488 1.959 . S
C1271 C528 1.960 . S
C1276 C257 1.989 . S
C1301 C297 1.989 . S
C1306 C568 1.959 . S
C1331 C608 1.960 . S
C1336 C177 1.989 . S
C1361 C31 3.324 . S
C1366 C431 3.324 . S
C1391 C71 3.324 . S
C1396 C471 3.324 . S
C1421 C351 3.324 . S
C1426 C111 3.324 . S
C1451 C151 3.324 . S
C1456 C391 3.324 . S
C1481 C172 3.324 . S
C1486 C572 3.324 . S
C1511 C212 3.324 . S
C1516 C612 3.324 . S
C1541 C492 3.324 . S
C1546 C252 3.324 . S
C1571 C292 3.324 . S
C1576 C532 3.324 . S
C1601 C17 1.730 . S
C1606 C311 1.939 . S
C1631 C511 1.938 . S
C1636 C57 1.729 . S
C1661 C97 1.730 . S
C1666 C231 1.939 . S
C1691 C137 1.729 . S
C1696 C591 1.938 . S
C1721 C162 1.730 . S
C1726 C132 1.939 . S
C1751 C332 1.938 . S
C1756 C202 1.729 . S
C1781 C242 1.730 . S
C1786 C52 1.939 . S
C1811 C412 1.938 . S
C1816 C282 1.729 . S
C1841 C337 1.729 . S
C1846 C631 1.938 . S
C1871 C191 1.938 . S
C1876 C377 1.729 1_565 S
C1901 C551 1.938 . S
C1906 C417 1.729 . S
C1931 C457 1.729 1_545 S
C1936 C271 1.938 . S
C1961 C482 1.729 . S
C1966 C452 1.938 . S
C1991 C522 1.729 1_545 S
C1996 C12 1.938 . S
C2021 C372 1.938 . S
C2026 C562 1.729 . S
C2051 C92 1.938 . S
C2056 C602 1.729 1_565 S
