# Generated by pormake.
# Topology wjd, (6)-cn, num edge types: 1
# Building blocks:
#     Node 0, Type 0, BuildingBlock: PAMTUU_clean_sbu_0, # of connection points: 6
#     Node 1, Type 0, BuildingBlock: PAMTUU_clean_sbu_0, # of connection points: 6
#     Node 2, Type 0, BuildingBlock: PAMTUU_clean_sbu_0, # of connection points: 6
#     Node 3, Type 0, BuildingBlock: PAMTUU_clean_sbu_0, # of connection points: 6
#     Node 4, Type 0, BuildingBlock: PAMTUU_clean_sbu_0, # of connection points: 6
#     Node 5, Type 0, BuildingBlock: PAMTUU_clean_sbu_0, # of connection points: 6
#     Node 6, Type 0, BuildingBlock: PAMTUU_clean_sbu_0, # of connection points: 6
#     Node 7, Type 0, BuildingBlock: PAMTUU_clean_sbu_0, # of connection points: 6
#     Node 8, Type 0, BuildingBlock: PAMTUU_clean_sbu_0, # of connection points: 6
#     Node 9, Type 0, BuildingBlock: PAMTUU_clean_sbu_0, # of connection points: 6
#     Node 10, Type 0, BuildingBlock: PAMTUU_clean_sbu_0, # of connection points: 6
#     Node 11, Type 0, BuildingBlock: PAMTUU_clean_sbu_0, # of connection points: 6
#     Edge 12, Type (0, 0), BuildingBlock: EZIPEK_clean_linker_0, # of connection points: 2
#     Edge 13, Type (0, 0), BuildingBlock: EZIPEK_clean_linker_0, # of connection points: 2
#     Edge 14, Type (0, 0), BuildingBlock: EZIPEK_clean_linker_0, # of connection points: 2
#     Edge 15, Type (0, 0), BuildingBlock: EZIPEK_clean_linker_0, # of connection points: 2
#     Edge 16, Type (0, 0), BuildingBlock: EZIPEK_clean_linker_0, # of connection points: 2
#     Edge 17, Type (0, 0), BuildingBlock: EZIPEK_clean_linker_0, # of connection points: 2
#     Edge 18, Type (0, 0), BuildingBlock: EZIPEK_clean_linker_0, # of connection points: 2
#     Edge 19, Type (0, 0), BuildingBlock: EZIPEK_clean_linker_0, # of connection points: 2
#     Edge 20, Type (0, 0), BuildingBlock: EZIPEK_clean_linker_0, # of connection points: 2
#     Edge 21, Type (0, 0), BuildingBlock: EZIPEK_clean_linker_0, # of connection points: 2
#     Edge 22, Type (0, 0), BuildingBlock: EZIPEK_clean_linker_0, # of connection points: 2
#     Edge 23, Type (0, 0), BuildingBlock: EZIPEK_clean_linker_0, # of connection points: 2
#     Edge 24, Type (0, 0), BuildingBlock: EZIPEK_clean_linker_0, # of connection points: 2
#     Edge 25, Type (0, 0), BuildingBlock: EZIPEK_clean_linker_0, # of connection points: 2
#     Edge 26, Type (0, 0), BuildingBlock: EZIPEK_clean_linker_0, # of connection points: 2
#     Edge 27, Type (0, 0), BuildingBlock: EZIPEK_clean_linker_0, # of connection points: 2
#     Edge 28, Type (0, 0), BuildingBlock: EZIPEK_clean_linker_0, # of connection points: 2
#     Edge 29, Type (0, 0), BuildingBlock: EZIPEK_clean_linker_0, # of connection points: 2
#     Edge 30, Type (0, 0), BuildingBlock: EZIPEK_clean_linker_0, # of connection points: 2
#     Edge 31, Type (0, 0), BuildingBlock: EZIPEK_clean_linker_0, # of connection points: 2
#     Edge 32, Type (0, 0), BuildingBlock: EZIPEK_clean_linker_0, # of connection points: 2
#     Edge 33, Type (0, 0), BuildingBlock: EZIPEK_clean_linker_0, # of connection points: 2
#     Edge 34, Type (0, 0), BuildingBlock: EZIPEK_clean_linker_0, # of connection points: 2
#     Edge 35, Type (0, 0), BuildingBlock: EZIPEK_clean_linker_0, # of connection points: 2
#     Edge 36, Type (0, 0), BuildingBlock: EZIPEK_clean_linker_0, # of connection points: 2
#     Edge 37, Type (0, 0), BuildingBlock: EZIPEK_clean_linker_0, # of connection points: 2
#     Edge 38, Type (0, 0), BuildingBlock: EZIPEK_clean_linker_0, # of connection points: 2
#     Edge 39, Type (0, 0), BuildingBlock: EZIPEK_clean_linker_0, # of connection points: 2
#     Edge 40, Type (0, 0), BuildingBlock: EZIPEK_clean_linker_0, # of connection points: 2
#     Edge 41, Type (0, 0), BuildingBlock: EZIPEK_clean_linker_0, # of connection points: 2
#     Edge 42, Type (0, 0), BuildingBlock: EZIPEK_clean_linker_0, # of connection points: 2
#     Edge 43, Type (0, 0), BuildingBlock: EZIPEK_clean_linker_0, # of connection points: 2
#     Edge 44, Type (0, 0), BuildingBlock: EZIPEK_clean_linker_0, # of connection points: 2
#     Edge 45, Type (0, 0), BuildingBlock: EZIPEK_clean_linker_0, # of connection points: 2
#     Edge 46, Type (0, 0), BuildingBlock: EZIPEK_clean_linker_0, # of connection points: 2
#     Edge 47, Type (0, 0), BuildingBlock: EZIPEK_clean_linker_0, # of connection points: 2
# Relax obj value: 0.095
# Max RMSD: 0.232
# Mean RMSD: 0.232
data_MOF--net-wjd--node1-PAMTUU_clean_sbu_0--edge1-EZIPEK_clean_linker_0
_symmetry_space_group_name_H-M    P1
_symmetry_Int_Tables_number       1
_symmetry_cell_setting            triclinic
loop_
_symmetry_equiv_pos_as_xyz
'x, y, z'
_cell_length_a     31.65297
_cell_length_b     31.603841
_cell_length_c     39.008748
_cell_angle_alpha  90.200078
_cell_angle_beta   90.009657
_cell_angle_gamma 119.83825
loop_
_atom_site_label
_atom_site_type_symbol
_atom_site_fract_x
_atom_site_fract_y
_atom_site_fract_z
_atom_type_partial_charge
Tb0 Tb 0.34137 0.09211 0.13818 0.0
Tb1 Tb 0.41048 0.19901 0.09966 0.0
C2 C 0.40796 0.1874 0.18168 0.0
C3 C 0.22675 0.97672 0.15563 0.0
C4 C 0.12702 0.913 0.14089 0.0
C5 C 0.16313 0.91715 0.118 0.0
C6 C 0.21255 0.94879 0.12523 0.0
C7 C 0.19034 0.97222 0.17849 0.0
C8 C 0.14099 0.94081 0.17114 0.0
C9 C 0.27884 1.01144 0.16359 0.0
O10 O 0.29544 0.12116 0.11973 0.0
O11 O 0.35048 0.2026 0.12327 0.0
O12 O 0.36458 0.14651 0.05911 0.0
O13 O 0.34595 0.07419 0.0857 0.0
O14 O 0.41877 0.26157 0.0737 0.0
O15 O 0.48014 0.25142 0.08344 0.0
O16 O 0.44732 0.15689 0.09561 0.0
O17 O 0.41744 0.10785 0.14306 0.0
O18 O 0.372 0.1423 0.18049 0.0
O19 O 0.42982 0.21357 0.15427 0.0
C20 C 0.30553 0.1666 0.12348 0.0
O21 O 0.31153 1.01589 0.14129 0.0
O22 O 0.28819 0.05374 0.17557 0.0
C23 C 0.34797 0.09876 0.05834 0.0
C24 C 0.49645 0.33323 0.08362 0.0
C25 C 0.56639 0.43208 0.09731 0.0
C26 C 0.53488 0.41955 0.06895 0.0
C27 C 0.5004 0.37061 0.06213 0.0
C28 C 0.52597 0.34611 0.11319 0.0
C29 C 0.56068 0.39504 0.11988 0.0
C30 C 0.46609 0.28142 0.07268 0.0
C31 C 0.45213 0.13126 0.12006 0.0
H32 H 0.15302 0.89569 0.09462 0.0
H33 H 0.23949 0.95134 0.10698 0.0
H34 H 0.20008 0.99318 0.20209 0.0
H35 H 0.11367 0.93783 0.18922 0.0
H36 H 0.53877 0.44743 0.05108 0.0
H37 H 0.47833 0.36176 0.03914 0.0
H38 H 0.5238 0.3182 0.13032 0.0
H39 H 0.58466 0.40373 0.1418 0.0
Tb40 Tb 0.85299 0.66744 0.40169 0.0
Tb41 Tb 0.80907 0.73204 0.36614 0.0
C42 C 0.81931 0.73173 0.444 0.0
C43 C 0.89911 0.57903 0.41785 0.0
C44 C 0.91769 0.50215 0.40294 0.0
C45 C 0.94596 0.53799 0.4273 0.0
C46 C 0.93677 0.57605 0.43463 0.0
C47 C 0.8715 0.54394 0.39278 0.0
C48 C 0.88068 0.50566 0.38544 0.0
C49 C 0.88993 0.6192 0.42712 0.0
O50 O 0.78143 0.61413 0.38343 0.0
O51 O 0.74604 0.66253 0.38316 0.0
O52 O 0.80278 0.68186 0.32632 0.0
O53 O 0.86304 0.6671 0.34561 0.0
O54 O 0.76239 0.76122 0.36969 0.0
O55 O 0.81117 0.77834 0.32674 0.0
O56 O 0.88831 0.77113 0.3589 0.0
O57 O 0.90975 0.74323 0.40601 0.0
O58 O 0.81928 0.68987 0.44266 0.0
O59 O 0.83186 0.75997 0.41725 0.0
C60 C 0.74274 0.61911 0.38461 0.0
O61 O 0.9143 0.65946 0.41 0.0
O62 O 0.84493 0.60861 0.43185 0.0
C63 C 0.83515 0.66833 0.32081 0.0
C64 C 0.80288 0.84254 0.35004 0.0
C65 C 0.84305 0.94341 0.36187 0.0
C66 C 0.81949 0.9224 0.33071 0.0
C67 C 0.79953 0.87228 0.32485 0.0
C68 C 0.82724 0.86378 0.38098 0.0
C69 C 0.84695 0.91378 0.38691 0.0
C70 C 0.78275 0.78993 0.34354 0.0
C71 C 0.92128 0.7745 0.38096 0.0
H72 H 0.97433 0.53573 0.44129 0.0
H73 H 0.95869 0.60288 0.45389 0.0
H74 H 0.8425 0.54574 0.37932 0.0
H75 H 0.85815 0.47811 0.3668 0.0
H76 H 0.81599 0.94473 0.31116 0.0
H77 H 0.78138 0.85673 0.30071 0.0
H78 H 0.83082 0.84173 0.40068 0.0
H79 H 0.86477 0.92927 0.41115 0.0
Tb80 Tb 0.98367 0.26426 0.13809 0.0
Tb81 Tb 0.8748 0.2187 0.1015 0.0
C82 C 0.89404 0.2378 0.18338 0.0
C83 C 0.10033 0.268 0.15553 0.0
C84 C 0.16393 0.2308 0.14348 0.0
C85 C 0.17384 0.26516 0.1697 0.0
C86 C 0.14225 0.28354 0.1757 0.0
C87 C 0.09042 0.23371 0.12924 0.0
C88 C 0.1219 0.21519 0.12332 0.0
C89 C 0.06636 0.28636 0.16265 0.0
O90 O 0.94198 0.18487 0.14237 0.0
O91 O 0.90103 0.16796 0.09251 0.0
O92 O 0.92987 0.25921 0.06133 0.0
O93 O 0.9918 0.2513 0.08467 0.0
O94 O 0.80646 0.15525 0.09671 0.0
O95 O 0.82143 0.22072 0.06997 0.0
O96 O 0.89111 0.29116 0.1145 0.0
O97 O 0.97283 0.32794 0.12978 0.0
O98 O 0.9407 0.26727 0.17918 0.0
O99 O 0.86473 0.21228 0.1578 0.0
C100 C 0.92146 0.15519 0.11639 0.0
O101 O 0.05986 0.31027 0.13803 0.0
O102 O 1.02506 0.2551 0.17649 0.0
C103 C 0.97382 0.26405 0.05912 0.0
C104 C 0.73897 0.16849 0.08826 0.0
C105 C 0.64304 0.1489 0.10366 0.0
C106 C 0.66652 0.13101 0.12483 0.0
C107 C 0.71391 0.14061 0.11721 0.0
C108 C 0.71525 0.18629 0.0672 0.0
C109 C 0.66799 0.17681 0.07488 0.0
C110 C 0.78811 0.17663 0.07838 0.0
C111 C 0.9327 0.32991 0.12231 0.0
H112 H 0.20601 0.27766 0.18556 0.0
H113 H 0.15045 0.30974 0.19619 0.0
H114 H 0.05814 0.22102 0.11347 0.0
H115 H 0.11352 0.1887 0.10301 0.0
H116 H 0.64823 0.10983 0.14734 0.0
H117 H 0.73076 0.12598 0.13396 0.0
H118 H 0.73321 0.20739 0.04458 0.0
H119 H 0.65082 0.19136 0.05834 0.0
Tb120 Tb 0.40871 0.20054 0.40557 0.0
Tb121 Tb 0.34225 0.09333 0.36679 0.0
C122 C 0.34904 0.10055 0.44626 0.0
C123 C 0.49438 0.33449 0.42142 0.0
C124 C 0.56648 0.43153 0.40563 0.0
C125 C 0.53747 0.42141 0.43511 0.0
C126 C 0.50189 0.37334 0.44296 0.0
C127 C 0.52152 0.34497 0.3909 0.0
C128 C 0.55732 0.39302 0.38315 0.0
C129 C 0.46262 0.28343 0.43301 0.0
O130 O 0.44687 0.15982 0.40976 0.0
O131 O 0.41888 0.11082 0.36192 0.0
O132 O 0.37154 0.14364 0.32471 0.0
O133 O 0.42957 0.21485 0.35125 0.0
O134 O 0.31093 1.01673 0.36567 0.0
O135 O 0.29196 0.05382 0.32786 0.0
O136 O 0.29488 0.1205 0.38549 0.0
O137 O 0.34822 0.20208 0.38108 0.0
O138 O 0.36241 0.14758 0.4455 0.0
O139 O 0.35041 0.0773 0.41896 0.0
C140 C 0.45316 0.13512 0.3852 0.0
O141 O 0.41559 0.26406 0.42947 0.0
O142 O 0.47692 0.25267 0.42469 0.0
C143 C 0.40768 0.18864 0.32369 0.0
C144 C 0.22732 0.97862 0.34823 0.0
C145 C 0.12664 0.91571 0.36058 0.0
C146 C 0.16183 0.91044 0.37909 0.0
C147 C 0.21163 0.94147 0.37294 0.0
C148 C 0.19181 0.9838 0.32982 0.0
C149 C 0.14207 0.95272 0.33596 0.0
C150 C 0.28022 1.0119 0.34158 0.0
C151 C 0.30372 0.16536 0.38117 0.0
H152 H 0.54405 0.45045 0.45292 0.0
H153 H 0.48166 0.36628 0.46666 0.0
H154 H 0.51655 0.31578 0.37377 0.0
H155 H 0.57936 0.39986 0.36039 0.0
H156 H 0.15067 0.88177 0.39795 0.0
H157 H 0.2378 0.93617 0.38744 0.0
H158 H 0.20242 1.01178 0.31048 0.0
H159 H 0.11554 0.95712 0.32117 0.0
Tb160 Tb 0.81011 0.73547 0.13052 0.0
Tb161 Tb 0.85081 0.66747 0.09443 0.0
C162 C 0.8353 0.67062 0.17564 0.0
C163 C 0.80488 0.84726 0.14656 0.0
C164 C 0.84666 0.94846 0.13549 0.0
C165 C 0.80868 0.92457 0.15927 0.0
C166 C 0.78809 0.87427 0.1649 0.0
C167 C 0.84228 0.87111 0.12247 0.0
C168 C 0.86321 0.92128 0.11712 0.0
C169 C 0.78437 0.79456 0.15267 0.0
O170 O 0.8895 0.77265 0.13782 0.0
O171 O 0.90939 0.74252 0.09086 0.0
O172 O 0.81664 0.69008 0.05407 0.0
O173 O 0.83343 0.76186 0.07926 0.0
O174 O 0.91059 0.65795 0.084 0.0
O175 O 0.83935 0.60601 0.06532 0.0
O176 O 0.77978 0.61605 0.11409 0.0
O177 O 0.74572 0.66566 0.11485 0.0
O178 O 0.8046 0.68651 0.1708 0.0
O179 O 0.86133 0.66695 0.15042 0.0
C180 C 0.92201 0.77397 0.11611 0.0
O181 O 0.76497 0.7664 0.12599 0.0
O182 O 0.81238 0.78261 0.1696 0.0
C183 C 0.81847 0.73277 0.05278 0.0
C184 C 0.89292 0.5761 0.07987 0.0
C185 C 0.91353 0.50192 0.09921 0.0
C186 C 0.90644 0.50891 0.0646 0.0
C187 C 0.89629 0.54566 0.05504 0.0
C188 C 0.90011 0.56926 0.11457 0.0
C189 C 0.91044 0.53254 0.12414 0.0
C190 C 0.88436 0.61607 0.06888 0.0
C191 C 0.74157 0.62183 0.1136 0.0
H192 H 0.79533 0.94493 0.1736 0.0
H193 H 0.75921 0.85651 0.18357 0.0
H194 H 0.85522 0.85078 0.10781 0.0
H195 H 0.89228 0.93894 0.09857 0.0
H196 H 0.90835 0.48558 0.04498 0.0
H197 H 0.89122 0.55044 0.02815 0.0
H198 H 0.89791 0.5924 0.13421 0.0
H199 H 0.91549 0.52762 0.151 0.0
Tb200 Tb 0.87204 0.21794 0.40872 0.0
Tb201 Tb 0.98067 0.26012 0.37203 0.0
C202 C 0.97067 0.25363 0.44995 0.0
C203 C 0.73871 0.17391 0.42392 0.0
C204 C 0.64433 0.15405 0.40433 0.0
C205 C 0.65348 0.14462 0.43787 0.0
C206 C 0.70019 0.15441 0.44754 0.0
C207 C 0.72954 0.18271 0.39017 0.0
C208 C 0.68273 0.1729 0.38047 0.0
C209 C 0.78751 0.18318 0.43475 0.0
O210 O 0.88987 0.28839 0.38863 0.0
O211 O 0.9736 0.3242 0.38611 0.0
O212 O 0.9354 0.26397 0.33242 0.0
O213 O 0.86004 0.20621 0.35297 0.0
O214 O 0.05685 0.3041 0.37673 0.0
O215 O 1.02444 0.25961 0.33175 0.0
O216 O 0.93964 0.18104 0.36459 0.0
O217 O 0.89098 0.16087 0.4121 0.0
O218 O 0.92917 0.25411 0.44862 0.0
O219 O 0.98517 0.23862 0.42367 0.0
C220 C 0.93333 0.32717 0.38791 0.0
O221 O 0.8035 0.15738 0.41939 0.0
O222 O 0.82188 0.22849 0.43806 0.0
C223 C 0.88913 0.23234 0.32773 0.0
C224 C 0.09779 0.26563 0.35257 0.0
C225 C 0.16159 0.22801 0.36145 0.0
C226 C 0.11184 0.19644 0.35507 0.0
C227 C 0.08022 0.21507 0.35063 0.0
C228 C 0.14754 0.29708 0.35902 0.0
C229 C 0.17915 0.27845 0.36345 0.0
C230 C 0.06461 0.28587 0.34897 0.0
C231 C 0.90966 0.14855 0.38658 0.0
H232 H 0.62463 0.13055 0.45677 0.0
H233 H 0.70632 0.147 0.47361 0.0
H234 H 0.75862 0.19742 0.37144 0.0
H235 H 0.67662 0.18088 0.35455 0.0
H236 H 0.09751 0.1574 0.35359 0.0
H237 H 1.04203 0.18989 0.34578 0.0
H238 H 0.16191 0.33611 0.3608 0.0
H239 H 0.21738 0.30339 0.36845 0.0
Tb240 Tb 0.21524 0.39092 0.60088 0.0
Tb241 Tb 0.10969 0.32509 0.64047 0.0
C242 C 0.11438 0.33023 0.56018 0.0
C243 C 0.34918 0.48003 0.58429 0.0
C244 C 0.44478 0.55645 0.59905 0.0
C245 C 0.43655 0.5222 0.57315 0.0
C246 C 0.38929 0.48442 0.56589 0.0
C247 C 0.35733 0.51351 0.61085 0.0
C248 C 0.4048 0.55152 0.61811 0.0
C249 C 0.29967 0.44036 0.57493 0.0
O250 O 0.19593 0.44368 0.62026 0.0
O251 O 0.11344 0.39522 0.63036 0.0
O252 O 0.15883 0.37333 0.6793 0.0
O253 O 0.22956 0.38392 0.65516 0.0
O254 O 1.03396 0.29565 0.64417 0.0
O255 O 0.07238 0.27508 0.68007 0.0
O256 O 0.14912 0.28484 0.63842 0.0
O257 O 0.19211 0.31522 0.58956 0.0
O258 O 0.15876 0.36895 0.56055 0.0
O259 O 0.09524 0.3033 0.58741 0.0
C260 C 0.15236 0.43831 0.62509 0.0
O261 O 0.28417 0.39901 0.59068 0.0
O262 O 0.26523 0.45138 0.57181 0.0
C263 C 0.20442 0.38432 0.68194 0.0
C264 C 0.99631 0.21223 0.66012 0.0
C265 C 0.93336 0.1121 0.64627 0.0
C266 C 0.94645 0.12872 0.68017 0.0
C267 C 0.97758 0.17841 0.68703 0.0
C268 C 0.98402 0.19526 0.62612 0.0
C269 C 0.95257 0.1457 0.61931 0.0
C270 C 1.03 0.26454 0.66764 0.0
C271 C 0.17138 0.27969 0.61171 0.0
H272 H 0.46667 0.52547 0.55795 0.0
H273 H 0.38396 0.45893 0.54544 0.0
H274 H 0.32702 0.51069 0.62557 0.0
H275 H 0.41023 0.57775 0.638 0.0
H276 H 0.93183 0.10332 0.70131 0.0
H277 H 0.98694 0.19048 0.71337 0.0
H278 H 0.99854 0.22027 0.60476 0.0
H279 H 0.94287 0.13357 0.59301 0.0
Tb280 Tb 0.27359 0.96694 0.86977 0.0
Tb281 Tb 0.23121 0.85783 0.90542 0.0
C282 C 0.24473 0.87624 0.82424 0.0
C283 C 0.27908 0.08433 0.85637 0.0
C284 C 0.24034 0.14589 0.87095 0.0
C285 C 0.2642 0.15 0.83971 0.0
C286 C 0.28343 0.1194 0.83248 0.0
C287 C 0.25449 0.0798 0.88737 0.0
C288 C 0.23543 0.11042 0.89463 0.0
C289 C 0.29884 0.05165 0.84859 0.0
O290 O 0.19448 0.92621 0.86277 0.0
O291 O 0.17377 0.87613 0.90949 0.0
O292 O 0.26697 0.91455 0.94588 0.0
O293 O 0.2514 0.97055 0.92134 0.0
O294 O 0.17089 0.78877 0.91564 0.0
O295 O 0.24221 0.80713 0.93362 0.0
O296 O 0.30088 0.87551 0.88404 0.0
O297 O 0.33722 0.9593 0.88401 0.0
O298 O 0.27652 0.92256 0.82884 0.0
O299 O 0.21887 0.84717 0.8496 0.0
C300 C 0.16181 0.89588 0.88454 0.0
O301 O 0.3201 0.04269 0.87397 0.0
O302 O 0.26983 1.01199 0.83166 0.0
C303 C 0.26653 0.95618 0.9475 0.0
C304 C 0.18753 0.72322 0.91814 0.0
C305 C 0.1664 0.62723 0.90059 0.0
C306 C 0.1287 0.63803 0.90475 0.0
C307 C 0.13913 0.68537 0.91354 0.0
C308 C 0.22535 0.71247 0.9134 0.0
C309 C 0.21484 0.665 0.90467 0.0
C310 C 0.19718 0.77238 0.92968 0.0
C311 C 0.33989 0.91875 0.88467 0.0
H312 H 0.26845 0.1773 0.82119 0.0
H313 H 0.30185 0.12323 0.80832 0.0
H314 H 0.2502 0.05276 0.9061 0.0
H315 H 0.21727 0.10678 0.91888 0.0
H316 H 0.0911 0.60955 0.90181 0.0
H317 H 0.10914 0.69222 0.91726 0.0
H318 H 0.26301 0.74051 0.91689 0.0
H319 H 0.24452 0.65751 0.90164 0.0
Tb320 Tb 0.68391 0.83967 0.59553 0.0
Tb321 Tb 0.74948 0.79647 0.63189 0.0
C322 C 0.74804 0.80563 0.55414 0.0
C323 C 0.59309 0.88275 0.58143 0.0
C324 C 0.51933 0.90505 0.5993 0.0
C325 C 0.51565 0.87904 0.5691 0.0
C326 C 0.55216 0.8681 0.56025 0.0
C327 C 0.59646 0.90832 0.61194 0.0
C328 C 0.56005 0.91949 0.62069 0.0
C329 C 0.63292 0.87369 0.57024 0.0
O330 O 0.63145 0.76935 0.61574 0.0
O331 O 0.67881 0.73279 0.61682 0.0
O332 O 0.70135 0.79301 0.67225 0.0
O333 O 0.68357 0.85085 0.65138 0.0
O334 O 0.77953 0.75053 0.62739 0.0
O335 O 0.79692 0.79898 0.67074 0.0
O336 O 0.78702 0.87539 0.64037 0.0
O337 O 0.75962 0.89755 0.5932 0.0
O338 O 0.70581 0.80463 0.55524 0.0
O339 O 0.77665 0.82011 0.58082 0.0
C340 C 0.63573 0.73021 0.61552 0.0
O341 O 0.67532 0.89997 0.5846 0.0
O342 O 0.62258 0.82853 0.56655 0.0
C343 C 0.68649 0.82469 0.67675 0.0
C344 C 0.86119 0.79063 0.6473 0.0
C345 C 0.96214 0.82948 0.63614 0.0
C346 C 0.94088 0.8074 0.66753 0.0
C347 C 0.89085 0.78815 0.67304 0.0
C348 C 0.8826 0.81339 0.61606 0.0
C349 C 0.93258 0.83243 0.61048 0.0
C350 C 0.80848 0.77076 0.65358 0.0
C351 C 0.79031 0.90877 0.61881 0.0
H352 H 0.48466 0.86758 0.55218 0.0
H353 H 0.54872 0.84868 0.53653 0.0
H354 H 0.62753 0.92027 0.62884 0.0
H355 H 0.56374 0.93964 0.64407 0.0
H356 H 0.96301 0.80465 0.68762 0.0
H357 H 0.87529 0.77119 0.6974 0.0
H358 H 0.86068 0.81629 0.59588 0.0
H359 H 0.94815 0.84915 0.58607 0.0
Tb360 Tb 0.10823 0.32377 0.86444 0.0
Tb361 Tb 0.21071 0.39531 0.905 0.0
C362 C 0.20256 0.38592 0.82396 0.0
C363 C 0.99681 0.20807 0.84363 0.0
C364 C 0.93272 0.10842 0.85744 0.0
C365 C 0.94728 0.12427 0.82367 0.0
C366 C 0.97896 0.17373 0.81683 0.0
C367 C 0.98314 0.1919 0.87754 0.0
C368 C 0.95108 0.14254 0.88434 0.0
C369 C 1.03052 0.26017 0.83599 0.0
O370 O 0.15279 0.28862 0.86676 0.0
O371 O 0.18972 0.32043 0.91747 0.0
O372 O 0.15053 0.37656 0.94169 0.0
O373 O 0.09519 0.30323 0.91788 0.0
O374 O 0.27903 0.40567 0.91972 0.0
O375 O 0.25828 0.45901 0.93283 0.0
O376 O 0.19067 0.4444 0.88095 0.0
O377 O 0.10802 0.39235 0.87528 0.0
O378 O 0.1563 0.37262 0.82578 0.0
O379 O 0.22797 0.38821 0.85138 0.0
C380 C 0.17695 0.28709 0.89364 0.0
O381 O 1.03247 0.29193 0.85825 0.0
O382 O 0.07382 0.2709 0.82563 0.0
C383 C 0.10895 0.33461 0.94326 0.0
C384 C 0.34324 0.48773 0.92201 0.0
C385 C 0.43965 0.56099 0.90577 0.0
C386 C 0.42961 0.51408 0.91523 0.0
C387 C 0.38204 0.47798 0.92339 0.0
C388 C 0.35323 0.53461 0.91202 0.0
C389 C 0.40101 0.57086 0.90398 0.0
C390 C 0.29358 0.44894 0.93233 0.0
C391 C 0.14614 0.4368 0.87811 0.0
H392 H 0.93328 0.09847 0.80258 0.0
H393 H 0.98934 0.18524 0.79055 0.0
H394 H 0.99693 0.21739 0.8988 0.0
H395 H 0.94017 0.131 0.91053 0.0
H396 H 0.45881 0.50567 0.91685 0.0
H397 H 0.37562 0.44239 0.93118 0.0
H398 H 0.32434 0.54347 0.91074 0.0
H399 H 0.40797 0.60685 0.89679 0.0
Tb400 Tb 0.2419 0.86139 0.59951 0.0
Tb401 Tb 0.27925 0.96959 0.63621 0.0
C402 C 0.27439 0.95867 0.55671 0.0
C403 C 0.20213 0.72749 0.58749 0.0
C404 C 0.17931 0.63143 0.60551 0.0
C405 C 0.14888 0.6497 0.61568 0.0
C406 C 0.16009 0.69714 0.60676 0.0
C407 C 0.23278 0.70913 0.57771 0.0
C408 C 0.22159 0.6617 0.58674 0.0
C409 C 0.21206 0.77633 0.57525 0.0
O410 O 0.31401 0.88433 0.62002 0.0
O411 O 0.34595 0.96751 0.62351 0.0
O412 O 0.2809 0.92373 0.67677 0.0
O413 O 0.22467 0.84891 0.65438 0.0
O414 O 0.32456 0.04573 0.635 0.0
O415 O 0.2707 1.0118 0.67456 0.0
O416 O 0.19967 0.9283 0.63906 0.0
O417 O 0.18278 0.87699 0.59306 0.0
O418 O 0.27345 0.9164 0.55838 0.0
O419 O 0.26319 0.97618 0.58344 0.0
C420 C 0.35146 0.92884 0.62106 0.0
O421 O 0.18381 0.7922 0.5866 0.0
O422 O 0.25722 0.81146 0.57381 0.0
C423 C 0.24903 0.87721 0.68047 0.0
C424 C 0.28047 0.08464 0.65099 0.0
C425 C 0.23978 0.14388 0.6349 0.0
C426 C 0.26808 0.15292 0.66467 0.0
C427 C 0.28819 0.12334 0.67272 0.0
C428 C 0.2523 0.07586 0.62118 0.0
C429 C 0.23202 0.1051 0.61325 0.0
C430 C 0.30064 0.05267 0.65952 0.0
C431 C 0.16875 0.89692 0.61673 0.0
H432 H 0.11608 0.62696 0.63015 0.0
H433 H 0.13529 0.70966 0.61452 0.0
H434 H 0.26504 0.7312 0.56255 0.0
H435 H 0.24553 0.64829 0.5786 0.0
H436 H 0.27445 0.18272 0.68166 0.0
H437 H 0.30965 0.13063 0.69589 0.0
H438 H 0.24598 0.04635 0.60399 0.0
H439 H 0.21036 0.09759 0.59016 0.0
Tb440 Tb 0.74443 0.79389 0.86583 0.0
Tb441 Tb 0.67886 0.83711 0.90187 0.0
C442 C 0.68224 0.8233 0.82105 0.0
C443 C 0.85591 0.78949 0.84902 0.0
C444 C 0.95677 0.82999 0.86077 0.0
C445 C 0.93605 0.80762 0.82922 0.0
C446 C 0.88599 0.78755 0.82339 0.0
C447 C 0.87684 0.81261 0.88038 0.0
C448 C 0.92682 0.83254 0.88625 0.0
C449 C 0.80327 0.76904 0.84254 0.0
O450 O 0.78354 0.87295 0.85948 0.0
O451 O 0.75472 0.89417 0.90637 0.0
O452 O 0.70198 0.8052 0.94314 0.0
O453 O 0.77073 0.81417 0.91771 0.0
O454 O 0.67044 0.89796 0.91184 0.0
O455 O 0.61827 0.8271 0.93081 0.0
O456 O 0.62648 0.76475 0.88332 0.0
O457 O 0.67534 0.7298 0.88112 0.0
O458 O 0.69546 0.79042 0.8258 0.0
O459 O 0.68038 0.85011 0.84639 0.0
C460 C 0.78658 0.90572 0.88161 0.0
O461 O 0.77443 0.74779 0.86847 0.0
O462 O 0.79136 0.79753 0.82628 0.0
C463 C 0.74346 0.80479 0.94497 0.0
C464 C 0.58967 0.88233 0.91778 0.0
C465 C 0.51381 0.90189 0.90188 0.0
C466 C 0.54664 0.92701 0.92862 0.0
C467 C 0.58418 0.91734 0.93645 0.0
C468 C 0.55768 0.85799 0.89038 0.0
C469 C 0.51991 0.86763 0.88255 0.0
C470 C 0.62916 0.87247 0.92753 0.0
C471 C 0.63202 0.72626 0.88296 0.0
H472 H 0.95858 0.80512 0.80931 0.0
H473 H 0.87073 0.77036 0.79893 0.0
H474 H 0.85453 0.81505 0.90046 0.0
H475 H 0.94204 0.84939 0.9108 0.0
H476 H 0.54235 0.95319 0.94405 0.0
H477 H 0.6086 0.93677 0.95752 0.0
H478 H 0.56148 0.8311 0.87544 0.0
H479 H 0.49468 0.84748 0.86204 0.0
C480 C 0.19995 0.17838 0.16079 0.0
C481 C 0.19783 0.21139 0.13714 0.0
C482 C 0.25949 0.20673 0.10145 0.0
C483 C 0.26569 0.17849 0.12708 0.0
N484 N 0.24662 0.14281 0.18348 0.0
N485 N 0.23 0.26215 0.08709 0.0
C486 C 0.23697 0.16544 0.15731 0.0
C487 C 0.22866 0.22679 0.10792 0.0
N488 N 0.16586 0.15853 0.18616 0.0
N489 N 0.28218 0.21333 0.07051 0.0
H490 H 0.20811 0.2778 0.09093 0.0
H491 H 0.25557 0.27888 0.06769 0.0
H492 H 0.30462 0.19879 0.0648 0.0
H493 H 0.27528 0.22918 0.04947 0.0
H494 H 0.16228 0.13047 0.20199 0.0
H495 H 0.13826 0.1671 0.18948 0.0
H496 H 0.23093 0.1375 0.20768 0.0
H497 H 0.27336 0.13279 0.18196 0.0
C498 C 1.04278 0.89468 0.38203 0.0
C499 C 0.0736 0.88027 0.36536 0.0
C500 C 1.00554 0.79623 0.36148 0.0
C501 C 0.97361 0.81126 0.37553 0.0
N502 N 0.96014 0.87582 0.39545 0.0
N503 N 0.08175 0.81995 0.33253 0.0
C504 C 0.99172 0.86092 0.38455 0.0
C505 C 0.05423 0.83175 0.35323 0.0
N506 N 0.06262 0.94 0.39662 0.0
N507 N 0.98973 0.74782 0.35644 0.0
H508 H 0.11741 0.84497 0.3255 0.0
H509 H 0.06776 0.78675 0.31961 0.0
H510 H 0.95398 0.72062 0.3607 0.0
H511 H 1.01289 0.73434 0.35038 0.0
H512 H 1.04321 0.95107 0.41224 0.0
H513 H 0.0997 0.96547 0.39532 0.0
H514 H 0.96998 0.91227 0.3989 0.0
H515 H 0.92301 0.85178 0.39889 0.0
C516 C 0.92812 0.0866 0.14572 0.0
C517 C 0.91265 0.1036 0.11729 0.0
C518 C 0.85927 1.01893 0.09853 0.0
C519 C 0.86942 1.00199 0.12939 0.0
N520 N 0.91305 1.01915 0.18298 0.0
N521 N 0.88667 0.08546 0.05831 0.0
C522 C 0.90387 0.0357 0.15313 0.0
C523 C 0.88477 0.06968 0.09113 0.0
N524 N 0.96935 0.11828 0.16324 0.0
N525 N 0.82392 0.98672 0.07677 0.0
H526 H 0.91123 0.12108 0.05087 0.0
H527 H 0.87011 0.06204 0.0376 0.0
H528 H 0.80433 0.94923 0.0812 0.0
H529 H 0.81107 0.99763 0.05596 0.0
H530 H 0.98473 0.10782 0.18268 0.0
H531 H 0.99259 0.15366 0.15476 0.0
H532 H 0.93268 0.04195 0.2033 0.0
H533 H 0.89835 0.98219 0.18845 0.0
C534 C 0.24186 0.17093 0.34407 0.0
C535 C 0.26307 0.17571 0.37698 0.0
C536 C 0.21303 0.20877 0.39981 0.0
C537 C 0.19547 0.20839 0.36647 0.0
N538 N 0.19623 0.1942 0.30584 0.0
N539 N 0.27192 0.20165 0.43598 0.0
C540 C 0.21036 0.19042 0.33829 0.0
C541 C 0.24933 0.19517 0.40495 0.0
N542 N 0.25191 0.14774 0.31837 0.0
N543 N 0.193 0.22135 0.42607 0.0
H544 H 0.29679 0.18984 0.4409 0.0
H545 H 0.26834 0.22095 0.45635 0.0
H546 H 0.20032 0.2201 0.45198 0.0
H547 H 0.20032 0.2201 0.45198 0.0
H548 H 0.23407 0.13856 0.29481 0.0
H549 H 0.27584 0.13433 0.32145 0.0
H550 H 0.20982 0.18676 0.28374 0.0
H551 H 0.17333 0.20835 0.30076 0.0
C552 C 0.04427 0.89369 0.11864 0.0
C553 C 0.07456 0.87766 0.13398 0.0
C554 C 1.00643 0.79339 0.13391 0.0
C555 C 0.97481 0.8098 0.12142 0.0
N556 N 0.96264 0.87528 0.10232 0.0
N557 N 0.08336 0.81398 0.16089 0.0
C558 C 0.99349 0.86 0.11403 0.0
C559 C 0.05533 0.82796 0.1428 0.0
N560 N 0.06452 0.9408 0.10753 0.0
N561 N 0.9901 0.74458 0.13672 0.0
H562 H 0.11962 0.83791 0.16738 0.0
H563 H 0.06972 0.77969 0.17192 0.0
H564 H 0.95409 0.71799 0.13233 0.0
H565 H 1.01285 0.73016 0.14125 0.0
H566 H 0.04599 0.95402 0.09306 0.0
H567 H 0.10128 0.96639 0.11093 0.0
H568 H 0.97196 0.91172 0.10023 0.0
H569 H 0.92656 0.85103 0.09572 0.0
C570 C 0.82646 1.01165 0.37429 0.0
C571 C 0.8608 0.99592 0.36912 0.0
C572 C 0.92745 0.07944 0.37985 0.0
C573 C 0.89317 0.09598 0.38088 0.0
N574 N 0.81056 0.07866 0.37149 0.0
N575 N 0.94437 1.01559 0.3623 0.0
C576 C 0.84277 0.0623 0.37613 0.0
C577 C 0.91151 0.03005 0.37062 0.0
N578 N 0.77821 0.97817 0.37836 0.0
N579 N 0.97478 0.11034 0.38903 0.0
H580 H 0.93403 0.97977 0.35552 0.0
H581 H 0.98148 0.03981 0.35941 0.0
H582 H 0.98734 0.14629 0.39676 0.0
H583 H 1.00047 0.09918 0.39199 0.0
H584 H 0.75239 0.98759 0.38593 0.0
H585 H 0.76469 0.9406 0.37751 0.0
H586 H 0.77438 0.05604 0.36429 0.0
H587 H 0.82114 0.1155 0.37099 0.0
C588 C 0.17491 0.16743 0.64216 0.0
C589 C 0.21833 0.1751 0.62592 0.0
C590 C 0.2176 0.23804 0.58962 0.0
C591 C 0.18002 0.23686 0.61023 0.0
N592 N 0.10789 0.18422 0.64235 0.0
N593 N 0.28311 0.21965 0.58545 0.0
C594 C 0.15419 0.19679 0.63272 0.0
C595 C 0.24004 0.21069 0.5998 0.0
N596 N 0.15411 0.13281 0.66712 0.0
N597 N 0.2286 0.26111 0.55866 0.0
H598 H 0.30063 0.20022 0.59194 0.0
H599 H 0.3035 0.24908 0.5693 0.0
H600 H 0.20709 0.27376 0.54748 0.0
H601 H 0.25336 0.26021 0.54151 0.0
H602 H 0.12608 0.12939 0.68291 0.0
H603 H 0.16678 0.10903 0.67347 0.0
H604 H 0.08525 0.1534 0.65665 0.0
H605 H 0.08964 0.20111 0.63203 0.0
C606 C 0.07548 0.82933 0.87397 0.0
C607 C 0.10934 0.87975 0.87885 0.0
C608 C 1.04351 0.89844 0.86936 0.0
C609 C 1.00927 0.84768 0.86786 0.0
N610 N 0.9914 0.76483 0.87634 0.0
N611 N 0.12439 0.96187 0.88655 0.0
C612 C 1.02492 0.81316 0.8725 0.0
C613 C 0.09305 0.91429 0.87797 0.0
N614 N 0.09162 0.79699 0.86868 0.0
N615 N 1.02897 0.93142 0.86166 0.0
H616 H 0.16058 0.97455 0.89347 0.0
H617 H 0.11359 0.98784 0.88972 0.0
H618 H 0.99303 0.92112 0.85551 0.0
H619 H 0.05306 0.96859 0.85873 0.0
H620 H 0.06884 0.7608 0.86142 0.0
H621 H 0.12837 0.80751 0.86759 0.0
H622 H 1.00074 0.73882 0.88356 0.0
H623 H 0.9539 0.75137 0.87562 0.0
C624 C 0.87786 0.97648 0.62364 0.0
C625 C 0.8273 0.96099 0.62523 0.0
C626 C 0.84666 0.04406 0.64195 0.0
C627 C 0.89705 0.05992 0.63906 0.0
N628 N 0.96164 0.04366 0.62485 0.0
N629 N 0.763 0.98 0.63398 0.0
C630 C 0.91294 1.02672 0.6293 0.0
C631 C 0.81162 0.99488 0.63373 0.0
N632 N 0.8922 0.943 0.61679 0.0
N633 N 0.83234 0.07592 0.65357 0.0
H634 H 0.73597 0.9436 0.63221 0.0
H635 H 0.749 1.00359 0.63483 0.0
H636 H 0.85655 0.1128 0.65813 0.0
H637 H 0.79686 0.06575 0.66062 0.0
H638 H 0.92786 0.95001 0.61897 0.0
H639 H 0.86787 0.9069 0.61006 0.0
H640 H 0.97601 1.02316 0.61449 0.0
H641 H 0.98823 0.07965 0.63002 0.0
C642 C 0.15686 0.20037 0.88281 0.0
C643 C 0.19056 0.24774 0.89546 0.0
C644 C 0.25537 0.22607 0.89497 0.0
C645 C 0.22266 0.1804 0.87985 0.0
N646 N 0.14306 0.1238 0.85784 0.0
N647 N 0.26637 0.2967 0.92648 0.0
C648 C 0.17342 0.16724 0.87368 0.0
C649 C 0.23825 0.25818 0.90535 0.0
N650 N 0.10837 0.18614 0.88178 0.0
N651 N 0.30346 0.2395 0.89853 0.0
H652 H 0.25427 0.31804 0.93836 0.0
H653 H 0.29949 0.30338 0.93673 0.0
H654 H 0.31714 0.21629 0.89296 0.0
H655 H 0.33065 0.27487 0.90443 0.0
H656 H 0.08091 0.15116 0.8754 0.0
H657 H 0.09482 0.20811 0.89097 0.0
H658 H 0.10836 0.11392 0.84895 0.0
H659 H 0.15371 0.09836 0.85156 0.0
C660 C 0.0987 0.91404 0.61984 0.0
C661 C 0.11567 0.88002 0.62045 0.0
C662 C 1.03125 0.81304 0.62631 0.0
C663 C 1.01495 0.8473 0.62969 0.0
N664 N 1.03403 0.93109 0.63445 0.0
N665 N 0.0985 0.79791 0.63224 0.0
C666 C 0.04894 0.89808 0.62772 0.0
C667 C 0.08203 0.82967 0.62572 0.0
N668 N 0.12968 0.96125 0.61055 0.0
N669 N 0.99818 0.76449 0.62283 0.0
H670 H 0.13531 0.80873 0.63381 0.0
H671 H 0.07583 0.76196 0.63985 0.0
H672 H 0.96062 0.75077 0.62283 0.0
H673 H 1.008 0.73847 0.61657 0.0
H674 H 0.1185 0.9867 0.6063 0.0
H675 H 0.16591 0.97381 0.60397 0.0
H676 H 0.05794 0.9684 0.63705 0.0
H677 H 0.99802 0.92081 0.64025 0.0
C678 C 0.91033 1.02292 0.87503 0.0
C679 C 0.89556 0.05657 0.86437 0.0
C680 C 0.80962 0.99216 0.86697 0.0
C681 C 0.82429 0.95788 0.8764 0.0
N682 N 0.88795 0.93879 0.88711 0.0
N683 N 0.83242 0.07379 0.84763 0.0
C684 C 0.87455 0.97278 0.87973 0.0
C685 C 0.8455 0.04134 0.85982 0.0
N686 N 0.9586 0.03931 0.88119 0.0
N687 N 0.76116 0.97757 0.86466 0.0
H688 H 0.85721 0.11068 0.84385 0.0
H689 H 0.7975 0.06425 0.83949 0.0
H690 H 0.73391 0.94121 0.86561 0.0
H691 H 0.74741 1.00129 0.86285 0.0
H692 H 0.97195 1.0184 0.89225 0.0
H693 H 0.98576 0.07526 0.87681 0.0
H694 H 0.92358 0.94545 0.88622 0.0
H695 H 0.86288 0.90258 0.89282 0.0
C696 C 0.45626 0.19707 0.2714 0.0
C697 C 0.42413 0.20876 0.28884 0.0
C698 C 0.40005 0.22849 0.23397 0.0
C699 C 0.42464 0.20764 0.21659 0.0
N700 N 0.47873 0.1748 0.2176 0.0
N701 N 0.36831 0.23945 0.28809 0.0
C702 C 0.45463 0.19399 0.23498 0.0
C703 C 0.39774 0.22682 0.2705 0.0
N704 N 0.48703 0.18735 0.28992 0.0
N705 N 0.37796 0.24854 0.21528 0.0
H706 H 0.36793 0.24056 0.31483 0.0
H707 H 0.34351 0.24749 0.27656 0.0
H708 H 0.37947 0.24989 0.18855 0.0
H709 H 0.36162 0.26705 0.22596 0.0
H710 H 0.51436 0.18238 0.27921 0.0
H711 H 0.48748 0.18799 0.31659 0.0
H712 H 0.49666 0.15859 0.22926 0.0
H713 H 0.47915 0.17351 0.19095 0.0
C714 C 0.88376 0.69666 0.26634 0.0
C715 C 0.84311 0.65987 0.28438 0.0
C716 C 0.80312 0.62212 0.22975 0.0
C717 C 0.84253 0.66046 0.21179 0.0
N718 N 0.92489 0.72781 0.21214 0.0
N719 N 0.76995 0.58184 0.28429 0.0
C720 C 0.88463 0.69513 0.22987 0.0
C721 C 0.80476 0.62052 0.26628 0.0
N722 N 0.91961 0.73541 0.28389 0.0
N723 N 0.76342 0.58838 0.21178 0.0
H724 H 0.77091 0.58003 0.31098 0.0
H725 H 0.7426 0.55008 0.27304 0.0
H726 H 0.76265 0.58701 0.18504 0.0
H727 H 0.73087 0.56279 0.22304 0.0
H728 H 0.94679 0.76685 0.27234 0.0
H729 H 0.92074 0.7375 0.31047 0.0
H730 H 0.95869 0.75025 0.22342 0.0
H731 H 0.92555 0.73014 0.18558 0.0
C732 C 0.8863 0.27357 0.23937 0.0
C733 C 0.87615 0.23156 0.21946 0.0
C734 C 0.86043 0.18433 0.2726 0.0
C735 C 0.87097 0.22656 0.29196 0.0
N736 N 0.8765 0.30496 0.29383 0.0
N737 N 0.8417 0.14379 0.2173 0.0
C738 C 0.87743 0.26879 0.27517 0.0
C739 C 0.85837 0.1857 0.23609 0.0
N740 N 0.90775 0.31879 0.22481 0.0
N741 N 0.85649 0.14427 0.2888 0.0
H742 H 0.84192 0.14286 0.19067 0.0
H743 H 0.82378 0.10917 0.22818 0.0
H744 H 0.85736 0.14178 0.31535 0.0
H745 H 0.85552 0.11484 0.27598 0.0
H746 H 0.92078 0.35091 0.23899 0.0
H747 H 0.91677 0.32497 0.199 0.0
H748 H 0.87701 0.33517 0.28275 0.0
H749 H 0.86989 0.30181 0.32018 0.0
C750 C 0.24319 0.43456 0.73442 0.0
C751 C 0.22419 0.38931 0.71716 0.0
C752 C 0.21637 0.34851 0.772 0.0
C753 C 0.22333 0.39109 0.78914 0.0
N754 N 0.25015 0.47677 0.78821 0.0
N755 N 0.20013 0.3042 0.71815 0.0
C756 C 0.23975 0.43513 0.77082 0.0
C757 C 0.21397 0.34668 0.73557 0.0
N758 N 0.26481 0.47656 0.71582 0.0
N759 N 0.2119 0.31008 0.79075 0.0
H760 H 0.20228 0.30314 0.69153 0.0
H761 H 0.18608 0.27025 0.72976 0.0
H762 H 0.21539 0.31178 0.81736 0.0
H763 H 0.2096 0.27877 0.78009 0.0
H764 H 0.28251 0.51128 0.72671 0.0
H765 H 0.2686 0.47609 0.68924 0.0
H766 H 0.25721 0.50907 0.77632 0.0
H767 H 0.25031 0.47822 0.81496 0.0
C768 C 0.27021 0.85091 0.77062 0.0
C769 C 0.23537 0.85852 0.78827 0.0
C770 C 0.19874 0.86153 0.73358 0.0
C771 C 0.23644 0.85853 0.71608 0.0
N772 N 0.29439 0.83082 0.71657 0.0
N773 N 0.15859 0.85703 0.78764 0.0
C774 C 0.26786 0.84686 0.73424 0.0
C775 C 0.1967 0.85874 0.77002 0.0
N776 N 0.30659 0.84958 0.78855 0.0
N777 N 0.16624 0.86903 0.71532 0.0
H778 H 0.15648 0.85521 0.81426 0.0
H779 H 0.12727 0.85331 0.77611 0.0
H780 H 0.16451 0.86703 0.68868 0.0
H781 H 0.14172 0.87798 0.72627 0.0
H782 H 0.33641 0.84996 0.77695 0.0
H783 H 0.30778 0.85012 0.8153 0.0
H784 H 0.31535 0.81797 0.7283 0.0
H785 H 0.29116 0.82589 0.69001 0.0
C786 C 0.63614 0.79614 0.73032 0.0
C787 C 0.67687 0.83324 0.71266 0.0
C788 C 0.71409 0.87293 0.76737 0.0
C789 C 0.67518 0.83367 0.78499 0.0
N790 N 0.59235 0.76866 0.78425 0.0
N791 N 0.74793 0.91339 0.71326 0.0
C792 C 0.63386 0.79869 0.76668 0.0
C793 C 0.71339 0.87408 0.73088 0.0
N794 N 0.60066 0.75762 0.71238 0.0
N795 N 0.75302 0.90752 0.78547 0.0
H796 H 0.74916 0.91463 0.68664 0.0
H797 H 0.77291 0.94624 0.72472 0.0
H798 H 0.7532 0.90943 0.81208 0.0
H799 H 0.78565 0.93335 0.77441 0.0
H800 H 0.57306 0.72642 0.72393 0.0
H801 H 0.60009 0.7562 0.68564 0.0
H802 H 0.5594 0.74469 0.77247 0.0
H803 H 0.59001 0.77146 0.81079 0.0
C804 C 0.33759 1.01198 0.9862 0.0
C805 C 0.2875 0.9912 0.9772 0.0
C806 C 0.28237 0.05198 0.01456 0.0
C807 C 0.33074 0.06909 0.02611 0.0
N808 N 0.403 0.06188 0.02576 0.0
N809 N 0.21043 0.98742 0.98638 0.0
C810 C 0.35784 0.04799 0.01269 0.0
C811 C 0.25952 1.01041 0.99226 0.0
N812 N 0.36683 0.99951 0.96822 0.0
N813 N 0.25819 0.07544 0.0251 0.0
H814 H 0.19232 0.95613 0.97119 0.0
H815 H 0.18688 0.99632 0.99894 0.0
H816 H 0.2737 0.10533 0.04173 0.0
H817 H 0.2247 0.0682 0.0152 0.0
H818 H 0.4046 1.01764 0.97065 0.0
H819 H 0.35401 0.97366 0.9487 0.0
H820 H 0.42176 0.04321 0.02087 0.0
H821 H 0.42074 0.09073 0.04305 0.0
C822 C 0.83152 0.79538 0.48801 0.0
C823 C 0.80179 0.74755 0.47464 0.0
C824 C 0.73581 0.73721 0.51352 0.0
C825 C 0.76367 0.78685 0.52408 0.0
N826 N 0.8354 0.86549 0.51681 0.0
N827 N 0.72161 0.67652 0.47018 0.0
C828 C 0.81084 0.81653 0.50999 0.0
C829 C 0.75286 0.71938 0.48622 0.0
N830 N 0.8801 0.8202 0.48041 0.0
N831 N 0.69409 0.70611 0.53056 0.0
H832 H 0.73214 0.66195 0.45022 0.0
H833 H 0.68423 0.65755 0.47473 0.0
H834 H 0.68035 0.71714 0.55076 0.0
H835 H 0.6755 0.66848 0.5267 0.0
H836 H 0.9048 0.85316 0.49192 0.0
H837 H 0.89663 0.80539 0.46514 0.0
H838 H 0.86772 0.89002 0.50469 0.0
H839 H 0.82095 0.88238 0.53207 0.0
C840 C 1.02339 0.29909 0.96703 0.0
C841 C 0.0746 0.32206 0.97311 0.0
C842 C 0.05728 0.31998 0.03439 0.0
C843 C 1.00669 0.2871 0.02866 0.0
N844 N 0.9433 0.23978 0.98744 0.0
N845 N 0.13909 0.34639 0.01494 0.0
C846 C 0.99004 0.2751 0.99436 0.0
C847 C 0.09135 0.33044 0.00747 0.0
N848 N 1.00641 0.30253 0.93564 0.0
N849 N 0.07275 0.34354 0.06505 0.0
H850 H 0.16501 0.35215 0.99634 0.0
H851 H 0.15157 0.3487 0.04001 0.0
H852 H 0.04826 0.34114 0.08377 0.0
H853 H 0.10873 0.37042 0.06967 0.0
H854 H 0.96958 0.28925 0.93058 0.0
H855 H 1.02968 0.32466 0.91642 0.0
H856 H 0.93126 0.22696 0.96265 0.0
H857 H 0.91816 0.21997 0.00648 0.0
C858 C 0.35824 0.04698 0.48873 0.0
C859 C 0.33204 0.07026 0.47806 0.0
C860 C 0.26411 1.01503 0.51555 0.0
C861 C 0.28972 0.99011 0.52492 0.0
N862 N 0.35491 0.97405 0.51052 0.0
N863 N 0.25721 0.07243 0.47762 0.0
C864 C 0.33486 1.00351 0.5086 0.0
C865 C 0.28427 0.05343 0.49071 0.0
N866 N 0.40633 0.06718 0.48022 0.0
N867 N 0.21968 1.00104 0.52988 0.0
H868 H 0.27136 0.10146 0.46044 0.0
H869 H 0.22022 0.05815 0.48233 0.0
H870 H 0.20033 0.96872 0.54366 0.0
H871 H 0.20233 1.02163 0.52859 0.0
H872 H 0.42901 0.05506 0.49011 0.0
H873 H 0.42474 0.09944 0.46624 0.0
H874 H 0.38465 0.97954 0.49576 0.0
H875 H 0.33927 0.94117 0.52359 0.0
C876 C 0.83141 0.79075 0.00454 0.0
C877 C 0.79917 0.74824 0.02311 0.0
C878 C 0.72917 0.75199 0.99846 0.0
C879 C 0.76114 0.79155 0.97715 0.0
N880 N 0.84235 0.85884 0.96933 0.0
N881 N 0.71712 0.68413 0.03404 0.0
C882 C 0.81234 0.8137 0.98281 0.0
C883 C 0.74803 0.72766 0.0189 0.0
N884 N 0.88044 0.8081 0.00684 0.0
N885 N 0.68155 0.74 0.00172 0.0
H886 H 0.72924 0.66549 0.04938 0.0
H887 H 0.67999 0.66412 0.02863 0.0
H888 H 0.66692 0.75954 0.9904 0.0
H889 H 0.65788 0.71487 0.01948 0.0
H890 H 0.90622 0.83578 0.99151 0.0
H891 H 0.89524 0.79175 0.02223 0.0
H892 H 0.87954 0.87931 0.97417 0.0
H893 H 0.82892 0.87845 0.95624 0.0
C894 C 0.06854 0.3446 0.51205 0.0
C895 C 0.08315 0.31379 0.52846 0.0
C896 C 1.01834 0.24294 0.49737 0.0
C897 C 1.00503 0.27384 0.47984 0.0
N898 N 1.02282 0.3555 0.46639 0.0
N899 N 0.07967 0.23597 0.53027 0.0
C900 C 1.03158 0.32507 0.48612 0.0
C901 C 0.06016 0.26358 0.51918 0.0
N902 N 0.08863 0.39225 0.52198 0.0
N903 N 0.99005 0.19348 0.49386 0.0
H904 H 0.11142 0.25046 0.54498 0.0
H905 H 0.06771 0.20043 0.52198 0.0
H906 H 0.95897 0.17721 0.47842 0.0
H907 H 0.99456 0.16863 0.50863 0.0
H908 H 0.07516 0.41487 0.51448 0.0
H909 H 0.11743 0.40887 0.53926 0.0
H910 H 0.04509 0.39326 0.46611 0.0
H911 H 0.99473 0.34282 0.44856 0.0
C912 C 0.58957 0.18004 0.12721 0.0
C913 C 0.59345 0.14113 0.11242 0.0
C914 C 0.5036 0.09111 0.11114 0.0
C915 C 0.50003 0.13231 0.12172 0.0
N916 N 0.54064 0.21822 0.13603 0.0
N917 N 0.55474 0.06016 0.08833 0.0
C918 C 0.54333 0.17727 0.12888 0.0
C919 C 0.55054 0.09652 0.1042 0.0
N920 N 0.6302 0.21951 0.14032 0.0
N921 N 0.46207 0.04706 0.1072 0.0
H922 H 0.5883 0.06266 0.08343 0.0
H923 H 0.52542 1.02886 0.07811 0.0
H924 H 0.42737 0.0424 0.11087 0.0
H925 H 0.46187 1.01449 0.1027 0.0
H926 H 0.62908 0.24658 0.15493 0.0
H927 H 0.66473 0.22298 0.13942 0.0
H928 H 0.57085 0.25319 0.13672 0.0
H929 H 0.50787 0.21785 0.13912 0.0
C930 C 0.65557 0.55725 0.36767 0.0
C931 C 0.69501 0.57389 0.39121 0.0
C932 C 0.6512 0.49629 0.42245 0.0
C933 C 0.61022 0.48107 0.40065 0.0
N934 N 0.57014 0.50011 0.3558 0.0
N935 N 0.7248 0.56356 0.44577 0.0
C936 C 0.61143 0.51255 0.37422 0.0
C937 C 0.69107 0.54464 0.42001 0.0
N938 N 0.66104 0.58279 0.33824 0.0
N939 N 0.65316 0.46384 0.44461 0.0
H940 H 0.75413 0.59902 0.44545 0.0
H941 H 0.7209 0.54596 0.46906 0.0
H942 H 0.6252 0.42781 0.44703 0.0
H943 H 0.68447 0.47123 0.45817 0.0
H944 H 0.63582 0.56985 0.31827 0.0
H945 H 0.69266 0.61538 0.33259 0.0
H946 H 0.56705 0.52357 0.33861 0.0
H947 H 0.53756 0.46764 0.35979 0.0
C948 C 0.89094 0.37925 0.13401 0.0
C949 C 0.93242 0.37747 0.12118 0.0
C950 C 0.96577 0.46203 0.10082 0.0
C951 C 0.9215 0.46067 0.10921 0.0
N952 N 0.83862 0.41457 0.12898 0.0
N953 N 1.00417 0.4151 0.0852 0.0
C954 C 0.88335 0.41852 0.12475 0.0
C955 C 0.96888 0.41857 0.10303 0.0
N956 N 0.85847 0.3436 0.1553 0.0
N957 N 1.00496 0.50492 0.09062 0.0
H958 H 1.00587 0.38317 0.08357 0.0
H959 H 1.02841 0.4422 0.06872 0.0
H960 H 1.00379 0.53724 0.08853 0.0
H961 H 1.03964 0.50939 0.08749 0.0
H962 H 0.83172 0.34665 0.16883 0.0
H963 H 0.86025 0.31273 0.16198 0.0
H964 H 0.80762 0.38222 0.13594 0.0
H965 H 0.83118 0.44221 0.12256 0.0
C966 C 0.54461 0.18534 0.3849 0.0
C967 C 0.50207 0.13826 0.38412 0.0
C968 C 0.55439 0.10133 0.39019 0.0
C969 C 0.59568 0.14838 0.39536 0.0
N970 N 0.62876 0.23501 0.40255 0.0
N971 N 0.46611 0.05118 0.39008 0.0
C972 C 0.59045 0.19034 0.39381 0.0
C973 C 0.50686 0.09606 0.38745 0.0
N974 N 0.54149 0.22562 0.37648 0.0
N975 N 0.56074 0.06174 0.38757 0.0
H976 H 0.43093 0.04586 0.38828 0.0
H977 H 0.46701 1.01971 0.39656 0.0
H978 H 0.59483 0.06439 0.38979 0.0
H979 H 0.53309 1.02717 0.3804 0.0
H980 H 0.57173 0.25998 0.37265 0.0
H981 H 0.50887 0.22397 0.36999 0.0
H982 H 0.62546 0.26589 0.40625 0.0
H983 H 0.66313 0.24063 0.40908 0.0
C984 C 0.61162 0.51456 0.12738 0.0
C985 C 0.60932 0.48259 0.10076 0.0
C986 C 0.68792 0.54692 0.0789 0.0
C987 C 0.69334 0.57672 0.10786 0.0
N988 N 0.66246 0.58659 0.16194 0.0
N989 N 0.6499 0.46551 0.05488 0.0
C990 C 0.65553 0.56012 0.13263 0.0
C991 C 0.64867 0.49811 0.07745 0.0
N992 N 0.57155 0.50169 0.14728 0.0
N993 N 0.71982 0.56566 0.05217 0.0
H994 H 0.62245 0.42913 0.05313 0.0
H995 H 0.68035 0.47325 0.04015 0.0
H996 H 0.7488 0.6013 0.05192 0.0
H997 H 0.71464 0.54761 0.02882 0.0
H998 H 0.56902 0.52523 0.16482 0.0
H999 H 0.53921 0.46862 0.14422 0.0
H1000 H 0.63881 0.57387 0.18276 0.0
H1001 H 0.69382 0.62 0.16651 0.0
C1002 C 0.95001 0.45427 0.37065 0.0
C1003 C 0.92362 0.45832 0.39876 0.0
C1004 C 0.91367 0.38211 0.42247 0.0
C1005 C 0.93534 0.37509 0.39264 0.0
N1006 N 0.96943 0.40177 0.33636 0.0
N1007 N 0.87357 0.42232 0.44864 0.0
C1008 C 0.95262 0.41065 0.36624 0.0
C1009 C 0.90367 0.42121 0.42392 0.0
N1010 N 0.97322 0.49246 0.34853 0.0
N1011 N 0.90382 0.35208 0.45005 0.0
H1012 H 0.86539 0.45037 0.45081 0.0
H1013 H 0.8532 0.39335 0.46513 0.0
H1014 H 0.91072 0.32317 0.45025 0.0
H1015 H 0.89335 0.35863 0.47389 0.0
H1016 H 0.99723 0.49409 0.32965 0.0
H1017 H 0.97117 0.52431 0.35067 0.0
H1018 H 0.9772 0.42334 0.3146 0.0
H1019 H 0.97246 0.37072 0.3325 0.0
C1020 C 0.18721 0.57068 0.64305 0.0
C1021 C 0.16642 0.58015 0.61386 0.0
C1022 C 0.12185 0.49233 0.60023 0.0
C1023 C 0.14894 0.48407 0.62572 0.0
N1024 N 0.20088 0.51264 0.67522 0.0
N1025 N 0.11535 0.5508 0.56363 0.0
C1026 C 0.17958 0.52262 0.64838 0.0
C1027 C 0.13362 0.54108 0.59243 0.0
N1028 N 0.21366 0.60766 0.66578 0.0
N1029 N 0.08414 0.4537 0.58395 0.0
H1030 H 0.12215 0.58571 0.5574 0.0
H1031 H 0.09635 0.525 0.54462 0.0
H1032 H 0.07394 0.4176 0.58912 0.0
H1033 H 0.05974 0.45706 0.56785 0.0
H1034 H 0.22733 0.60332 0.68891 0.0
H1035 H 0.21998 0.64308 0.66238 0.0
H1036 H 0.22774 0.5389 0.69091 0.0
H1037 H 0.19098 0.47696 0.68186 0.0
C1038 C 0.39209 0.89522 0.91891 0.0
C1039 C 0.38728 0.91991 0.89001 0.0
C1040 C 0.46808 0.93688 0.87001 0.0
C1041 C 0.4701 0.90775 0.89697 0.0
N1042 N 0.42997 0.85205 0.94355 0.0
N1043 N 0.41793 0.95898 0.83557 0.0
C1044 C 0.43096 0.88499 0.92043 0.0
C1045 C 0.42472 0.93967 0.86494 0.0
N1046 N 0.36021 0.88274 0.94563 0.0
N1047 N 0.50792 0.96251 0.84964 0.0
H1048 H 0.38693 0.96181 0.83116 0.0
H1049 H 0.44123 0.96894 0.81459 0.0
H1050 H 0.53966 0.96047 0.85227 0.0
H1051 H 0.51084 0.98836 0.83189 0.0
H1052 H 0.36507 0.86986 0.96899 0.0
H1053 H 0.33145 0.8898 0.94586 0.0
H1054 H 0.39966 0.82987 0.95848 0.0
H1055 H 0.45768 0.84343 0.94565 0.0
C1056 C 0.57136 0.64614 0.6361 0.0
C1057 C 0.58963 0.68264 0.61033 0.0
C1058 C 0.51167 0.6382 0.57922 0.0
C1059 C 0.49458 0.60002 0.60359 0.0
N1060 N 0.51043 0.56376 0.65255 0.0
N1061 N 0.58071 0.70796 0.55375 0.0
C1062 C 0.52517 0.60284 0.63127 0.0
C1063 C 0.56075 0.67695 0.58084 0.0
N1064 N 0.59699 0.65382 0.66586 0.0
N1065 N 0.48038 0.6385 0.55515 0.0
H1066 H 0.61646 0.73667 0.5537 0.0
H1067 H 0.56351 0.70245 0.53006 0.0
H1068 H 0.44412 0.61093 0.55299 0.0
H1069 H 0.48896 0.66819 0.53934 0.0
H1070 H 0.58322 0.63146 0.68726 0.0
H1071 H 0.63092 0.68467 0.67007 0.0
H1072 H 0.53291 0.56129 0.67096 0.0
H1073 H 0.47667 0.53207 0.65007 0.0
C1074 C 0.16245 0.56277 0.85979 0.0
C1075 C 0.15506 0.57596 0.89321 0.0
C1076 C 0.12616 0.49181 0.91263 0.0
C1077 C 0.14013 0.48072 0.88075 0.0
N1078 N 0.17081 0.50451 0.82355 0.0
N1079 N 0.13369 0.55442 0.95246 0.0
C1080 C 0.15779 0.51589 0.85412 0.0
C1081 C 0.13736 0.54065 0.91981 0.0
N1082 N 0.17292 0.59478 0.83337 0.0
N1083 N 0.10226 0.4556 0.93612 0.0
H1084 H 0.1415 0.58966 0.95884 0.0
H1085 H 0.12661 0.53217 0.97377 0.0
H1086 H 0.09366 0.41966 0.93175 0.0
H1087 H 0.0868 0.45993 0.95846 0.0
H1088 H 0.17429 0.58611 0.80779 0.0
H1089 H 0.1767 0.62926 0.83672 0.0
H1090 H 0.1896 0.52984 0.8044 0.0
H1091 H 0.16403 0.46939 0.81782 0.0
C1092 C 0.43411 0.95843 0.59276 0.0
C1093 C 0.40122 0.93392 0.62008 0.0
C1094 C 0.44832 0.89414 0.63576 0.0
C1095 C 0.48072 0.91767 0.6081 0.0
N1096 N 0.51222 0.98184 0.56611 0.0
N1097 N 0.38877 0.89464 0.67456 0.0
C1098 C 0.47603 0.95294 0.58843 0.0
C1099 C 0.41205 0.90672 0.64373 0.0
N1100 N 0.42454 0.98552 0.5702 0.0
N1101 N 0.45063 0.85818 0.65355 0.0
H1102 H 0.36447 0.90642 0.6816 0.0
H1103 H 0.39795 0.87863 0.69435 0.0
H1104 H 0.47634 0.84753 0.64846 0.0
H1105 H 0.42452 0.83622 0.67146 0.0
H1106 H 0.4436 0.99938 0.54746 0.0
H1107 H 0.39601 0.9926 0.57348 0.0
H1108 H 0.51374 1.01152 0.55348 0.0
H1109 H 0.5433 0.97886 0.5625 0.0
C1110 C 0.55454 0.65605 0.85899 0.0
C1111 C 0.58711 0.67766 0.88695 0.0
C1112 C 0.52406 0.62168 0.92678 0.0
C1113 C 0.49102 0.60019 0.89897 0.0
N1114 N 0.47696 0.59009 0.83804 0.0
N1115 N 0.60793 0.67186 0.94527 0.0
C1116 C 0.50696 0.61538 0.86481 0.0
C1117 C 0.5734 0.65743 0.92016 0.0
N1118 N 0.56937 0.67464 0.82689 0.0
N1119 N 0.50775 0.6097 0.95972 0.0
H1120 H 0.64442 0.69723 0.94086 0.0
H1121 H 0.60157 0.655 0.96909 0.0
H1122 H 0.47191 0.58395 0.96577 0.0
H1123 H 0.52858 0.6281 0.98112 0.0
H1124 H 0.5464 0.66479 0.8057 0.0
H1125 H 0.60526 0.70123 0.8217 0.0
H1126 H 0.48737 0.59618 0.81244 0.0
H1127 H 0.44211 0.56032 0.84152 0.0
loop_
_geom_bond_atom_site_label_1
_geom_bond_atom_site_label_2
_geom_bond_distance
_geom_bond_site_symmetry_2
_ccdc_geom_bond_type
Tb0 C9 2.764 1_545 S
Tb0 O10 2.325 . S
Tb0 O13 2.303 . S
Tb0 O17 2.322 . S
Tb0 O18 2.349 . S
Tb0 O21 2.415 . S
Tb0 O22 2.399 . S
Tb1 O11 2.322 . S
Tb1 O12 2.349 . S
Tb1 O14 2.415 . S
Tb1 O15 2.399 . S
Tb1 O16 2.325 . S
Tb1 O19 2.303 . S
Tb1 C30 2.764 . S
C2 O18 1.261 . S
C2 O19 1.257 . S
C3 C6 1.358 . S
C3 C7 1.332 . S
C3 C9 1.504 . S
C4 C5 1.373 . S
C4 C8 1.308 . S
C5 C4 1.373 . S
C5 C6 1.429 . S
C5 H32 0.932 . S
C6 C3 1.358 . S
C6 C5 1.429 . S
C6 H33 0.930 . S
C7 C3 1.332 . S
C7 C8 1.394 . S
C7 H34 0.932 . S
C8 C4 1.308 . S
C8 C7 1.394 . S
C8 H35 0.929 . S
C9 Tb0 2.764 1_565 S
C9 C3 1.504 . S
C9 O21 1.239 1_565 S
C9 O22 1.263 1_565 S
O10 Tb0 2.325 . S
O10 C20 1.236 . S
O11 Tb1 2.322 . S
O11 C20 1.257 . S
O12 Tb1 2.349 . S
O12 C23 1.261 . S
O13 Tb0 2.303 . S
O13 C23 1.257 . S
O14 Tb1 2.415 . S
O14 C30 1.239 . S
O15 Tb1 2.399 . S
O15 C30 1.263 . S
O16 Tb1 2.325 . S
O16 C31 1.236 . S
O17 Tb0 2.322 . S
O17 C31 1.257 . S
O18 Tb0 2.349 . S
O18 C2 1.261 . S
O19 Tb1 2.303 . S
O19 C2 1.257 . S
C20 O10 1.236 . S
C20 O11 1.257 . S
O21 Tb0 2.415 . S
O21 C9 1.239 1_545 S
O22 Tb0 2.399 . S
O22 C9 1.263 1_545 S
C23 O12 1.261 . S
C23 O13 1.257 . S
C24 C27 1.358 . S
C24 C28 1.332 . S
C24 C30 1.504 . S
C25 C26 1.373 . S
C25 C29 1.308 . S
C26 C25 1.373 . S
C26 C27 1.429 . S
C26 H36 0.932 . S
C27 C24 1.358 . S
C27 C26 1.429 . S
C27 H37 0.930 . S
C28 C24 1.332 . S
C28 C29 1.394 . S
C28 H38 0.932 . S
C29 C25 1.308 . S
C29 C28 1.394 . S
C29 H39 0.929 . S
C30 Tb1 2.764 . S
C30 O14 1.239 . S
C30 O15 1.263 . S
C30 C24 1.504 . S
C31 O16 1.236 . S
C31 O17 1.257 . S
H32 C5 0.932 . S
H33 C6 0.930 . S
H34 C7 0.932 . S
H35 C8 0.929 . S
H36 C26 0.932 . S
H37 C27 0.930 . S
H38 C28 0.932 . S
H39 C29 0.929 . S
Tb40 C49 2.764 . S
Tb40 O50 2.325 . S
Tb40 O53 2.303 . S
Tb40 O57 2.322 . S
Tb40 O58 2.349 . S
Tb40 O61 2.415 . S
Tb40 O62 2.399 . S
Tb41 O51 2.322 . S
Tb41 O52 2.349 . S
Tb41 O54 2.415 . S
Tb41 O55 2.399 . S
Tb41 O56 2.325 . S
Tb41 O59 2.303 . S
Tb41 C70 2.764 . S
C42 O58 1.261 . S
C42 O59 1.257 . S
C43 C46 1.358 . S
C43 C47 1.332 . S
C43 C49 1.504 . S
C44 C45 1.373 . S
C44 C48 1.308 . S
C45 C44 1.373 . S
C45 C46 1.429 . S
C45 H72 0.932 . S
C46 C43 1.358 . S
C46 C45 1.429 . S
C46 H73 0.930 . S
C47 C43 1.332 . S
C47 C48 1.394 . S
C47 H74 0.932 . S
C48 C44 1.308 . S
C48 C47 1.394 . S
C48 H75 0.929 . S
C49 Tb40 2.764 . S
C49 C43 1.504 . S
C49 O61 1.239 . S
C49 O62 1.263 . S
O50 Tb40 2.325 . S
O50 C60 1.236 . S
O51 Tb41 2.322 . S
O51 C60 1.257 . S
O52 Tb41 2.349 . S
O52 C63 1.261 . S
O53 Tb40 2.303 . S
O53 C63 1.257 . S
O54 Tb41 2.415 . S
O54 C70 1.239 . S
O55 Tb41 2.399 . S
O55 C70 1.263 . S
O56 Tb41 2.325 . S
O56 C71 1.236 . S
O57 Tb40 2.322 . S
O57 C71 1.257 . S
O58 Tb40 2.349 . S
O58 C42 1.261 . S
O59 Tb41 2.303 . S
O59 C42 1.257 . S
C60 O50 1.236 . S
C60 O51 1.257 . S
O61 Tb40 2.415 . S
O61 C49 1.239 . S
O62 Tb40 2.399 . S
O62 C49 1.263 . S
C63 O52 1.261 . S
C63 O53 1.257 . S
C64 C67 1.358 . S
C64 C68 1.332 . S
C64 C70 1.504 . S
C65 C66 1.373 . S
C65 C69 1.308 . S
C66 C65 1.373 . S
C66 C67 1.429 . S
C66 H76 0.932 . S
C67 C64 1.358 . S
C67 C66 1.429 . S
C67 H77 0.930 . S
C68 C64 1.332 . S
C68 C69 1.394 . S
C68 H78 0.932 . S
C69 C65 1.308 . S
C69 C68 1.394 . S
C69 H79 0.929 . S
C70 Tb41 2.764 . S
C70 O54 1.239 . S
C70 O55 1.263 . S
C70 C64 1.504 . S
C71 O56 1.236 . S
C71 O57 1.257 . S
H72 C45 0.932 . S
H73 C46 0.930 . S
H74 C47 0.932 . S
H75 C48 0.929 . S
H76 C66 0.932 . S
H77 C67 0.930 . S
H78 C68 0.932 . S
H79 C69 0.929 . S
Tb80 C89 2.764 1_655 S
Tb80 O90 2.325 . S
Tb80 O93 2.303 . S
Tb80 O97 2.322 . S
Tb80 O98 2.349 . S
Tb80 O101 2.415 . S
Tb80 O102 2.399 . S
Tb81 O91 2.322 . S
Tb81 O92 2.349 . S
Tb81 O94 2.415 . S
Tb81 O95 2.399 . S
Tb81 O96 2.325 . S
Tb81 O99 2.303 . S
Tb81 C110 2.764 . S
C82 O98 1.261 . S
C82 O99 1.257 . S
C83 C86 1.358 . S
C83 C87 1.332 . S
C83 C89 1.504 . S
C84 C85 1.373 . S
C84 C88 1.308 . S
C85 C84 1.373 . S
C85 C86 1.429 . S
C85 H112 0.932 . S
C86 C83 1.358 . S
C86 C85 1.429 . S
C86 H113 0.930 . S
C87 C83 1.332 . S
C87 C88 1.394 . S
C87 H114 0.932 . S
C88 C84 1.308 . S
C88 C87 1.394 . S
C88 H115 0.929 . S
C89 Tb80 2.764 1_455 S
C89 C83 1.504 . S
C89 O101 1.239 1_455 S
C89 O102 1.263 1_455 S
O90 Tb80 2.325 . S
O90 C100 1.236 . S
O91 Tb81 2.322 . S
O91 C100 1.257 . S
O92 Tb81 2.349 . S
O92 C103 1.261 . S
O93 Tb80 2.303 . S
O93 C103 1.257 . S
O94 Tb81 2.415 . S
O94 C110 1.239 . S
O95 Tb81 2.399 . S
O95 C110 1.263 . S
O96 Tb81 2.325 . S
O96 C111 1.236 . S
O97 Tb80 2.322 . S
O97 C111 1.257 . S
O98 Tb80 2.349 . S
O98 C82 1.261 . S
O99 Tb81 2.303 . S
O99 C82 1.257 . S
C100 O90 1.236 . S
C100 O91 1.257 . S
O101 Tb80 2.415 . S
O101 C89 1.239 1_655 S
O102 Tb80 2.399 . S
O102 C89 1.263 1_655 S
C103 O92 1.261 . S
C103 O93 1.257 . S
C104 C107 1.358 . S
C104 C108 1.332 . S
C104 C110 1.504 . S
C105 C106 1.373 . S
C105 C109 1.308 . S
C106 C105 1.373 . S
C106 C107 1.429 . S
C106 H116 0.932 . S
C107 C104 1.358 . S
C107 C106 1.429 . S
C107 H117 0.930 . S
C108 C104 1.332 . S
C108 C109 1.394 . S
C108 H118 0.932 . S
C109 C105 1.308 . S
C109 C108 1.394 . S
C109 H119 0.929 . S
C110 Tb81 2.764 . S
C110 O94 1.239 . S
C110 O95 1.263 . S
C110 C104 1.504 . S
C111 O96 1.236 . S
C111 O97 1.257 . S
H112 C85 0.932 . S
H113 C86 0.930 . S
H114 C87 0.932 . S
H115 C88 0.929 . S
H116 C106 0.932 . S
H117 C107 0.930 . S
H118 C108 0.932 . S
H119 C109 0.929 . S
Tb120 C129 2.764 . S
Tb120 O130 2.325 . S
Tb120 O133 2.303 . S
Tb120 O137 2.322 . S
Tb120 O138 2.349 . S
Tb120 O141 2.415 . S
Tb120 O142 2.399 . S
Tb121 O131 2.322 . S
Tb121 O132 2.349 . S
Tb121 O134 2.415 . S
Tb121 O135 2.399 . S
Tb121 O136 2.325 . S
Tb121 O139 2.303 . S
Tb121 C150 2.764 1_545 S
C122 O138 1.261 . S
C122 O139 1.257 . S
C123 C126 1.358 . S
C123 C127 1.332 . S
C123 C129 1.504 . S
C124 C125 1.373 . S
C124 C128 1.308 . S
C125 C124 1.373 . S
C125 C126 1.429 . S
C125 H152 0.932 . S
C126 C123 1.358 . S
C126 C125 1.429 . S
C126 H153 0.930 . S
C127 C123 1.332 . S
C127 C128 1.394 . S
C127 H154 0.932 . S
C128 C124 1.308 . S
C128 C127 1.394 . S
C128 H155 0.929 . S
C129 Tb120 2.764 . S
C129 C123 1.504 . S
C129 O141 1.239 . S
C129 O142 1.263 . S
O130 Tb120 2.325 . S
O130 C140 1.236 . S
O131 Tb121 2.322 . S
O131 C140 1.257 . S
O132 Tb121 2.349 . S
O132 C143 1.261 . S
O133 Tb120 2.303 . S
O133 C143 1.257 . S
O134 Tb121 2.415 . S
O134 C150 1.239 1_545 S
O135 Tb121 2.399 . S
O135 C150 1.263 1_545 S
O136 Tb121 2.325 . S
O136 C151 1.236 . S
O137 Tb120 2.322 . S
O137 C151 1.257 . S
O138 Tb120 2.349 . S
O138 C122 1.261 . S
O139 Tb121 2.303 . S
O139 C122 1.257 . S
C140 O130 1.236 . S
C140 O131 1.257 . S
O141 Tb120 2.415 . S
O141 C129 1.239 . S
O142 Tb120 2.399 . S
O142 C129 1.263 . S
C143 O132 1.261 . S
C143 O133 1.257 . S
C144 C147 1.358 . S
C144 C148 1.332 . S
C144 C150 1.504 . S
C145 C146 1.373 . S
C145 C149 1.308 . S
C146 C145 1.373 . S
C146 C147 1.429 . S
C146 H156 0.932 . S
C147 C144 1.358 . S
C147 C146 1.429 . S
C147 H157 0.930 . S
C148 C144 1.332 . S
C148 C149 1.394 . S
C148 H158 0.932 . S
C149 C145 1.308 . S
C149 C148 1.394 . S
C149 H159 0.929 . S
C150 Tb121 2.764 1_565 S
C150 O134 1.239 1_565 S
C150 O135 1.263 1_565 S
C150 C144 1.504 . S
C151 O136 1.236 . S
C151 O137 1.257 . S
H152 C125 0.932 . S
H153 C126 0.930 . S
H154 C127 0.932 . S
H155 C128 0.929 . S
H156 C146 0.932 . S
H157 C147 0.930 . S
H158 C148 0.932 . S
H159 C149 0.929 . S
Tb160 C169 2.764 . S
Tb160 O170 2.325 . S
Tb160 O173 2.303 . S
Tb160 O177 2.322 . S
Tb160 O178 2.349 . S
Tb160 O181 2.415 . S
Tb160 O182 2.399 . S
Tb161 O171 2.322 . S
Tb161 O172 2.349 . S
Tb161 O174 2.415 . S
Tb161 O175 2.399 . S
Tb161 O176 2.325 . S
Tb161 O179 2.303 . S
Tb161 C190 2.764 . S
C162 O178 1.261 . S
C162 O179 1.257 . S
C163 C166 1.358 . S
C163 C167 1.332 . S
C163 C169 1.504 . S
C164 C165 1.373 . S
C164 C168 1.308 . S
C165 C164 1.373 . S
C165 C166 1.429 . S
C165 H192 0.932 . S
C166 C163 1.358 . S
C166 C165 1.429 . S
C166 H193 0.930 . S
C167 C163 1.332 . S
C167 C168 1.394 . S
C167 H194 0.932 . S
C168 C164 1.308 . S
C168 C167 1.394 . S
C168 H195 0.929 . S
C169 Tb160 2.764 . S
C169 C163 1.504 . S
C169 O181 1.239 . S
C169 O182 1.263 . S
O170 Tb160 2.325 . S
O170 C180 1.236 . S
O171 Tb161 2.322 . S
O171 C180 1.257 . S
O172 Tb161 2.349 . S
O172 C183 1.261 . S
O173 Tb160 2.303 . S
O173 C183 1.257 . S
O174 Tb161 2.415 . S
O174 C190 1.239 . S
O175 Tb161 2.399 . S
O175 C190 1.263 . S
O176 Tb161 2.325 . S
O176 C191 1.236 . S
O177 Tb160 2.322 . S
O177 C191 1.257 . S
O178 Tb160 2.349 . S
O178 C162 1.261 . S
O179 Tb161 2.303 . S
O179 C162 1.257 . S
C180 O170 1.236 . S
C180 O171 1.257 . S
O181 Tb160 2.415 . S
O181 C169 1.239 . S
O182 Tb160 2.399 . S
O182 C169 1.263 . S
C183 O172 1.261 . S
C183 O173 1.257 . S
C184 C187 1.358 . S
C184 C188 1.332 . S
C184 C190 1.504 . S
C185 C186 1.373 . S
C185 C189 1.308 . S
C186 C185 1.373 . S
C186 C187 1.429 . S
C186 H196 0.932 . S
C187 C184 1.358 . S
C187 C186 1.429 . S
C187 H197 0.930 . S
C188 C184 1.332 . S
C188 C189 1.394 . S
C188 H198 0.932 . S
C189 C185 1.308 . S
C189 C188 1.394 . S
C189 H199 0.929 . S
C190 Tb161 2.764 . S
C190 O174 1.239 . S
C190 O175 1.263 . S
C190 C184 1.504 . S
C191 O176 1.236 . S
C191 O177 1.257 . S
H192 C165 0.932 . S
H193 C166 0.930 . S
H194 C167 0.932 . S
H195 C168 0.929 . S
H196 C186 0.932 . S
H197 C187 0.930 . S
H198 C188 0.932 . S
H199 C189 0.929 . S
Tb200 C209 2.764 . S
Tb200 O210 2.325 . S
Tb200 O213 2.303 . S
Tb200 O217 2.322 . S
Tb200 O218 2.349 . S
Tb200 O221 2.415 . S
Tb200 O222 2.399 . S
Tb201 O211 2.322 . S
Tb201 O212 2.349 . S
Tb201 O214 2.415 . S
Tb201 O215 2.399 . S
Tb201 O216 2.325 . S
Tb201 O219 2.303 . S
Tb201 C230 2.764 1_655 S
C202 O218 1.261 . S
C202 O219 1.257 . S
C203 C206 1.358 . S
C203 C207 1.332 . S
C203 C209 1.504 . S
C204 C205 1.373 . S
C204 C208 1.308 . S
C205 C204 1.373 . S
C205 C206 1.429 . S
C205 H232 0.932 . S
C206 C203 1.358 . S
C206 C205 1.429 . S
C206 H233 0.930 . S
C207 C203 1.332 . S
C207 C208 1.394 . S
C207 H234 0.932 . S
C208 C204 1.308 . S
C208 C207 1.394 . S
C208 H235 0.929 . S
C209 Tb200 2.764 . S
C209 C203 1.504 . S
C209 O221 1.239 . S
C209 O222 1.263 . S
O210 Tb200 2.325 . S
O210 C220 1.236 . S
O211 Tb201 2.322 . S
O211 C220 1.257 . S
O212 Tb201 2.349 . S
O212 C223 1.261 . S
O213 Tb200 2.303 . S
O213 C223 1.257 . S
O214 Tb201 2.415 . S
O214 C230 1.239 1_655 S
O215 Tb201 2.399 . S
O215 C230 1.263 1_655 S
O216 Tb201 2.325 . S
O216 C231 1.236 . S
O217 Tb200 2.322 . S
O217 C231 1.257 . S
O218 Tb200 2.349 . S
O218 C202 1.261 . S
O219 Tb201 2.303 . S
O219 C202 1.257 . S
C220 O210 1.236 . S
C220 O211 1.257 . S
O221 Tb200 2.415 . S
O221 C209 1.239 . S
O222 Tb200 2.399 . S
O222 C209 1.263 . S
C223 O212 1.261 . S
C223 O213 1.257 . S
C224 C227 1.358 . S
C224 C228 1.332 . S
C224 C230 1.504 . S
C225 C226 1.373 . S
C225 C229 1.308 . S
C226 C225 1.373 . S
C226 C227 1.429 . S
C226 H236 0.932 . S
C227 C224 1.358 . S
C227 C226 1.429 . S
C227 H237 0.930 . S
C228 C224 1.332 . S
C228 C229 1.394 . S
C228 H238 0.932 . S
C229 C225 1.308 . S
C229 C228 1.394 . S
C229 H239 0.929 . S
C230 Tb201 2.764 1_455 S
C230 O214 1.239 1_455 S
C230 O215 1.263 1_455 S
C230 C224 1.504 . S
C231 O216 1.236 . S
C231 O217 1.257 . S
H232 C205 0.932 . S
H233 C206 0.930 . S
H234 C207 0.932 . S
H235 C208 0.929 . S
H236 C226 0.932 . S
H237 C227 0.930 . S
H238 C228 0.932 . S
H239 C229 0.929 . S
Tb240 C249 2.764 . S
Tb240 O250 2.325 . S
Tb240 O253 2.303 . S
Tb240 O257 2.322 . S
Tb240 O258 2.349 . S
Tb240 O261 2.415 . S
Tb240 O262 2.399 . S
Tb241 O251 2.322 . S
Tb241 O252 2.349 . S
Tb241 O254 2.415 . S
Tb241 O255 2.399 . S
Tb241 O256 2.325 . S
Tb241 O259 2.303 . S
Tb241 C270 2.764 1_455 S
C242 O258 1.261 . S
C242 O259 1.257 . S
C243 C246 1.358 . S
C243 C247 1.332 . S
C243 C249 1.504 . S
C244 C245 1.373 . S
C244 C248 1.308 . S
C245 C244 1.373 . S
C245 C246 1.429 . S
C245 H272 0.932 . S
C246 C243 1.358 . S
C246 C245 1.429 . S
C246 H273 0.930 . S
C247 C243 1.332 . S
C247 C248 1.394 . S
C247 H274 0.932 . S
C248 C244 1.308 . S
C248 C247 1.394 . S
C248 H275 0.929 . S
C249 Tb240 2.764 . S
C249 C243 1.504 . S
C249 O261 1.239 . S
C249 O262 1.263 . S
O250 Tb240 2.325 . S
O250 C260 1.236 . S
O251 Tb241 2.322 . S
O251 C260 1.257 . S
O252 Tb241 2.349 . S
O252 C263 1.261 . S
O253 Tb240 2.303 . S
O253 C263 1.257 . S
O254 Tb241 2.415 . S
O254 C270 1.239 1_455 S
O255 Tb241 2.399 . S
O255 C270 1.263 1_455 S
O256 Tb241 2.325 . S
O256 C271 1.236 . S
O257 Tb240 2.322 . S
O257 C271 1.257 . S
O258 Tb240 2.349 . S
O258 C242 1.261 . S
O259 Tb241 2.303 . S
O259 C242 1.257 . S
C260 O250 1.236 . S
C260 O251 1.257 . S
O261 Tb240 2.415 . S
O261 C249 1.239 . S
O262 Tb240 2.399 . S
O262 C249 1.263 . S
C263 O252 1.261 . S
C263 O253 1.257 . S
C264 C267 1.358 . S
C264 C268 1.332 . S
C264 C270 1.504 . S
C265 C266 1.373 . S
C265 C269 1.308 . S
C266 C265 1.373 . S
C266 C267 1.429 . S
C266 H276 0.932 . S
C267 C264 1.358 . S
C267 C266 1.429 . S
C267 H277 0.930 . S
C268 C264 1.332 . S
C268 C269 1.394 . S
C268 H278 0.932 . S
C269 C265 1.308 . S
C269 C268 1.394 . S
C269 H279 0.929 . S
C270 Tb241 2.764 1_655 S
C270 O254 1.239 1_655 S
C270 O255 1.263 1_655 S
C270 C264 1.504 . S
C271 O256 1.236 . S
C271 O257 1.257 . S
H272 C245 0.932 . S
H273 C246 0.930 . S
H274 C247 0.932 . S
H275 C248 0.929 . S
H276 C266 0.932 . S
H277 C267 0.930 . S
H278 C268 0.932 . S
H279 C269 0.929 . S
Tb280 C289 2.764 1_565 S
Tb280 O290 2.325 . S
Tb280 O293 2.303 . S
Tb280 O297 2.322 . S
Tb280 O298 2.349 . S
Tb280 O301 2.415 . S
Tb280 O302 2.399 . S
Tb281 O291 2.322 . S
Tb281 O292 2.349 . S
Tb281 O294 2.415 . S
Tb281 O295 2.399 . S
Tb281 O296 2.325 . S
Tb281 O299 2.303 . S
Tb281 C310 2.764 . S
C282 O298 1.261 . S
C282 O299 1.257 . S
C283 C286 1.358 . S
C283 C287 1.332 . S
C283 C289 1.504 . S
C284 C285 1.373 . S
C284 C288 1.308 . S
C285 C284 1.373 . S
C285 C286 1.429 . S
C285 H312 0.932 . S
C286 C283 1.358 . S
C286 C285 1.429 . S
C286 H313 0.930 . S
C287 C283 1.332 . S
C287 C288 1.394 . S
C287 H314 0.932 . S
C288 C284 1.308 . S
C288 C287 1.394 . S
C288 H315 0.929 . S
C289 Tb280 2.764 1_545 S
C289 C283 1.504 . S
C289 O301 1.239 1_545 S
C289 O302 1.263 1_545 S
O290 Tb280 2.325 . S
O290 C300 1.236 . S
O291 Tb281 2.322 . S
O291 C300 1.257 . S
O292 Tb281 2.349 . S
O292 C303 1.261 . S
O293 Tb280 2.303 . S
O293 C303 1.257 . S
O294 Tb281 2.415 . S
O294 C310 1.239 . S
O295 Tb281 2.399 . S
O295 C310 1.263 . S
O296 Tb281 2.325 . S
O296 C311 1.236 . S
O297 Tb280 2.322 . S
O297 C311 1.257 . S
O298 Tb280 2.349 . S
O298 C282 1.261 . S
O299 Tb281 2.303 . S
O299 C282 1.257 . S
C300 O290 1.236 . S
C300 O291 1.257 . S
O301 Tb280 2.415 . S
O301 C289 1.239 1_565 S
O302 Tb280 2.399 . S
O302 C289 1.263 1_565 S
C303 O292 1.261 . S
C303 O293 1.257 . S
C304 C307 1.358 . S
C304 C308 1.332 . S
C304 C310 1.504 . S
C305 C306 1.373 . S
C305 C309 1.308 . S
C306 C305 1.373 . S
C306 C307 1.429 . S
C306 H316 0.932 . S
C307 C304 1.358 . S
C307 C306 1.429 . S
C307 H317 0.930 . S
C308 C304 1.332 . S
C308 C309 1.394 . S
C308 H318 0.932 . S
C309 C305 1.308 . S
C309 C308 1.394 . S
C309 H319 0.929 . S
C310 Tb281 2.764 . S
C310 O294 1.239 . S
C310 O295 1.263 . S
C310 C304 1.504 . S
C311 O296 1.236 . S
C311 O297 1.257 . S
H312 C285 0.932 . S
H313 C286 0.930 . S
H314 C287 0.932 . S
H315 C288 0.929 . S
H316 C306 0.932 . S
H317 C307 0.930 . S
H318 C308 0.932 . S
H319 C309 0.929 . S
Tb320 C329 2.764 . S
Tb320 O330 2.325 . S
Tb320 O333 2.303 . S
Tb320 O337 2.322 . S
Tb320 O338 2.349 . S
Tb320 O341 2.415 . S
Tb320 O342 2.399 . S
Tb321 O331 2.322 . S
Tb321 O332 2.349 . S
Tb321 O334 2.415 . S
Tb321 O335 2.399 . S
Tb321 O336 2.325 . S
Tb321 O339 2.303 . S
Tb321 C350 2.764 . S
C322 O338 1.261 . S
C322 O339 1.257 . S
C323 C326 1.358 . S
C323 C327 1.332 . S
C323 C329 1.504 . S
C324 C325 1.373 . S
C324 C328 1.308 . S
C325 C324 1.373 . S
C325 C326 1.429 . S
C325 H352 0.932 . S
C326 C323 1.358 . S
C326 C325 1.429 . S
C326 H353 0.930 . S
C327 C323 1.332 . S
C327 C328 1.394 . S
C327 H354 0.932 . S
C328 C324 1.308 . S
C328 C327 1.394 . S
C328 H355 0.929 . S
C329 Tb320 2.764 . S
C329 C323 1.504 . S
C329 O341 1.239 . S
C329 O342 1.263 . S
O330 Tb320 2.325 . S
O330 C340 1.236 . S
O331 Tb321 2.322 . S
O331 C340 1.257 . S
O332 Tb321 2.349 . S
O332 C343 1.261 . S
O333 Tb320 2.303 . S
O333 C343 1.257 . S
O334 Tb321 2.415 . S
O334 C350 1.239 . S
O335 Tb321 2.399 . S
O335 C350 1.263 . S
O336 Tb321 2.325 . S
O336 C351 1.236 . S
O337 Tb320 2.322 . S
O337 C351 1.257 . S
O338 Tb320 2.349 . S
O338 C322 1.261 . S
O339 Tb321 2.303 . S
O339 C322 1.257 . S
C340 O330 1.236 . S
C340 O331 1.257 . S
O341 Tb320 2.415 . S
O341 C329 1.239 . S
O342 Tb320 2.399 . S
O342 C329 1.263 . S
C343 O332 1.261 . S
C343 O333 1.257 . S
C344 C347 1.358 . S
C344 C348 1.332 . S
C344 C350 1.504 . S
C345 C346 1.373 . S
C345 C349 1.308 . S
C346 C345 1.373 . S
C346 C347 1.429 . S
C346 H356 0.932 . S
C347 C344 1.358 . S
C347 C346 1.429 . S
C347 H357 0.930 . S
C348 C344 1.332 . S
C348 C349 1.394 . S
C348 H358 0.932 . S
C349 C345 1.308 . S
C349 C348 1.394 . S
C349 H359 0.929 . S
C350 Tb321 2.764 . S
C350 O334 1.239 . S
C350 O335 1.263 . S
C350 C344 1.504 . S
C351 O336 1.236 . S
C351 O337 1.257 . S
H352 C325 0.932 . S
H353 C326 0.930 . S
H354 C327 0.932 . S
H355 C328 0.929 . S
H356 C346 0.932 . S
H357 C347 0.930 . S
H358 C348 0.932 . S
H359 C349 0.929 . S
Tb360 C369 2.764 1_455 S
Tb360 O370 2.325 . S
Tb360 O373 2.303 . S
Tb360 O377 2.322 . S
Tb360 O378 2.349 . S
Tb360 O381 2.415 . S
Tb360 O382 2.399 . S
Tb361 O371 2.322 . S
Tb361 O372 2.349 . S
Tb361 O374 2.415 . S
Tb361 O375 2.399 . S
Tb361 O376 2.325 . S
Tb361 O379 2.303 . S
Tb361 C390 2.764 . S
C362 O378 1.261 . S
C362 O379 1.257 . S
C363 C366 1.358 . S
C363 C367 1.332 . S
C363 C369 1.504 . S
C364 C365 1.373 . S
C364 C368 1.308 . S
C365 C364 1.373 . S
C365 C366 1.429 . S
C365 H392 0.932 . S
C366 C363 1.358 . S
C366 C365 1.429 . S
C366 H393 0.930 . S
C367 C363 1.332 . S
C367 C368 1.394 . S
C367 H394 0.932 . S
C368 C364 1.308 . S
C368 C367 1.394 . S
C368 H395 0.929 . S
C369 Tb360 2.764 1_655 S
C369 C363 1.504 . S
C369 O381 1.239 1_655 S
C369 O382 1.263 1_655 S
O370 Tb360 2.325 . S
O370 C380 1.236 . S
O371 Tb361 2.322 . S
O371 C380 1.257 . S
O372 Tb361 2.349 . S
O372 C383 1.261 . S
O373 Tb360 2.303 . S
O373 C383 1.257 . S
O374 Tb361 2.415 . S
O374 C390 1.239 . S
O375 Tb361 2.399 . S
O375 C390 1.263 . S
O376 Tb361 2.325 . S
O376 C391 1.236 . S
O377 Tb360 2.322 . S
O377 C391 1.257 . S
O378 Tb360 2.349 . S
O378 C362 1.261 . S
O379 Tb361 2.303 . S
O379 C362 1.257 . S
C380 O370 1.236 . S
C380 O371 1.257 . S
O381 Tb360 2.415 . S
O381 C369 1.239 1_455 S
O382 Tb360 2.399 . S
O382 C369 1.263 1_455 S
C383 O372 1.261 . S
C383 O373 1.257 . S
C384 C387 1.358 . S
C384 C388 1.332 . S
C384 C390 1.504 . S
C385 C386 1.373 . S
C385 C389 1.308 . S
C386 C385 1.373 . S
C386 C387 1.429 . S
C386 H396 0.932 . S
C387 C384 1.358 . S
C387 C386 1.429 . S
C387 H397 0.930 . S
C388 C384 1.332 . S
C388 C389 1.394 . S
C388 H398 0.932 . S
C389 C385 1.308 . S
C389 C388 1.394 . S
C389 H399 0.929 . S
C390 Tb361 2.764 . S
C390 O374 1.239 . S
C390 O375 1.263 . S
C390 C384 1.504 . S
C391 O376 1.236 . S
C391 O377 1.257 . S
H392 C365 0.932 . S
H393 C366 0.930 . S
H394 C367 0.932 . S
H395 C368 0.929 . S
H396 C386 0.932 . S
H397 C387 0.930 . S
H398 C388 0.932 . S
H399 C389 0.929 . S
Tb400 C409 2.764 . S
Tb400 O410 2.325 . S
Tb400 O413 2.303 . S
Tb400 O417 2.322 . S
Tb400 O418 2.349 . S
Tb400 O421 2.415 . S
Tb400 O422 2.399 . S
Tb401 O411 2.322 . S
Tb401 O412 2.349 . S
Tb401 O414 2.415 . S
Tb401 O415 2.399 . S
Tb401 O416 2.325 . S
Tb401 O419 2.303 . S
Tb401 C430 2.764 1_565 S
C402 O418 1.261 . S
C402 O419 1.257 . S
C403 C406 1.358 . S
C403 C407 1.332 . S
C403 C409 1.504 . S
C404 C405 1.373 . S
C404 C408 1.308 . S
C405 C404 1.373 . S
C405 C406 1.429 . S
C405 H432 0.932 . S
C406 C403 1.358 . S
C406 C405 1.429 . S
C406 H433 0.930 . S
C407 C403 1.332 . S
C407 C408 1.394 . S
C407 H434 0.932 . S
C408 C404 1.308 . S
C408 C407 1.394 . S
C408 H435 0.929 . S
C409 Tb400 2.764 . S
C409 C403 1.504 . S
C409 O421 1.239 . S
C409 O422 1.263 . S
O410 Tb400 2.325 . S
O410 C420 1.236 . S
O411 Tb401 2.322 . S
O411 C420 1.257 . S
O412 Tb401 2.349 . S
O412 C423 1.261 . S
O413 Tb400 2.303 . S
O413 C423 1.257 . S
O414 Tb401 2.415 . S
O414 C430 1.239 1_565 S
O415 Tb401 2.399 . S
O415 C430 1.263 1_565 S
O416 Tb401 2.325 . S
O416 C431 1.236 . S
O417 Tb400 2.322 . S
O417 C431 1.257 . S
O418 Tb400 2.349 . S
O418 C402 1.261 . S
O419 Tb401 2.303 . S
O419 C402 1.257 . S
C420 O410 1.236 . S
C420 O411 1.257 . S
O421 Tb400 2.415 . S
O421 C409 1.239 . S
O422 Tb400 2.399 . S
O422 C409 1.263 . S
C423 O412 1.261 . S
C423 O413 1.257 . S
C424 C427 1.358 . S
C424 C428 1.332 . S
C424 C430 1.504 . S
C425 C426 1.373 . S
C425 C429 1.308 . S
C426 C425 1.373 . S
C426 C427 1.429 . S
C426 H436 0.932 . S
C427 C424 1.358 . S
C427 C426 1.429 . S
C427 H437 0.930 . S
C428 C424 1.332 . S
C428 C429 1.394 . S
C428 H438 0.932 . S
C429 C425 1.308 . S
C429 C428 1.394 . S
C429 H439 0.929 . S
C430 Tb401 2.764 1_545 S
C430 O414 1.239 1_545 S
C430 O415 1.263 1_545 S
C430 C424 1.504 . S
C431 O416 1.236 . S
C431 O417 1.257 . S
H432 C405 0.932 . S
H433 C406 0.930 . S
H434 C407 0.932 . S
H435 C408 0.929 . S
H436 C426 0.932 . S
H437 C427 0.930 . S
H438 C428 0.932 . S
H439 C429 0.929 . S
Tb440 C449 2.764 . S
Tb440 O450 2.325 . S
Tb440 O453 2.303 . S
Tb440 O457 2.322 . S
Tb440 O458 2.349 . S
Tb440 O461 2.415 . S
Tb440 O462 2.399 . S
Tb441 O451 2.322 . S
Tb441 O452 2.349 . S
Tb441 O454 2.415 . S
Tb441 O455 2.399 . S
Tb441 O456 2.325 . S
Tb441 O459 2.303 . S
Tb441 C470 2.764 . S
C442 O458 1.261 . S
C442 O459 1.257 . S
C443 C446 1.358 . S
C443 C447 1.332 . S
C443 C449 1.504 . S
C444 C445 1.373 . S
C444 C448 1.308 . S
C445 C444 1.373 . S
C445 C446 1.429 . S
C445 H472 0.932 . S
C446 C443 1.358 . S
C446 C445 1.429 . S
C446 H473 0.930 . S
C447 C443 1.332 . S
C447 C448 1.394 . S
C447 H474 0.932 . S
C448 C444 1.308 . S
C448 C447 1.394 . S
C448 H475 0.929 . S
C449 Tb440 2.764 . S
C449 C443 1.504 . S
C449 O461 1.239 . S
C449 O462 1.263 . S
O450 Tb440 2.325 . S
O450 C460 1.236 . S
O451 Tb441 2.322 . S
O451 C460 1.257 . S
O452 Tb441 2.349 . S
O452 C463 1.261 . S
O453 Tb440 2.303 . S
O453 C463 1.257 . S
O454 Tb441 2.415 . S
O454 C470 1.239 . S
O455 Tb441 2.399 . S
O455 C470 1.263 . S
O456 Tb441 2.325 . S
O456 C471 1.236 . S
O457 Tb440 2.322 . S
O457 C471 1.257 . S
O458 Tb440 2.349 . S
O458 C442 1.261 . S
O459 Tb441 2.303 . S
O459 C442 1.257 . S
C460 O450 1.236 . S
C460 O451 1.257 . S
O461 Tb440 2.415 . S
O461 C449 1.239 . S
O462 Tb440 2.399 . S
O462 C449 1.263 . S
C463 O452 1.261 . S
C463 O453 1.257 . S
C464 C467 1.358 . S
C464 C468 1.332 . S
C464 C470 1.504 . S
C465 C466 1.373 . S
C465 C469 1.308 . S
C466 C465 1.373 . S
C466 C467 1.429 . S
C466 H476 0.932 . S
C467 C464 1.358 . S
C467 C466 1.429 . S
C467 H477 0.930 . S
C468 C464 1.332 . S
C468 C469 1.394 . S
C468 H478 0.932 . S
C469 C465 1.308 . S
C469 C468 1.394 . S
C469 H479 0.929 . S
C470 Tb441 2.764 . S
C470 O454 1.239 . S
C470 O455 1.263 . S
C470 C464 1.504 . S
C471 O456 1.236 . S
C471 O457 1.257 . S
H472 C445 0.932 . S
H473 C446 0.930 . S
H474 C447 0.932 . S
H475 C448 0.929 . S
H476 C466 0.932 . S
H477 C467 0.930 . S
H478 C468 0.932 . S
H479 C469 0.929 . S
C480 C481 1.363 . S
C480 C486 1.379 . S
C480 N488 1.356 . S
C481 C480 1.363 . S
C481 C487 1.363 . S
C482 C483 1.363 . S
C482 C487 1.379 . S
C482 N489 1.356 . S
C483 C482 1.363 . S
C483 C486 1.363 . S
N484 C486 1.356 . S
N484 H496 0.984 . S
N484 H497 0.985 . S
N485 C487 1.356 . S
N485 H490 0.984 . S
N485 H491 0.985 . S
C486 C480 1.379 . S
C486 C483 1.363 . S
C486 N484 1.356 . S
C487 C481 1.363 . S
C487 C482 1.379 . S
C487 N485 1.356 . S
N488 C480 1.356 . S
N488 H494 0.984 . S
N488 H495 0.984 . S
N489 C482 1.356 . S
N489 H492 0.984 . S
N489 H493 0.985 . S
H490 N485 0.984 . S
H491 N485 0.985 . S
H492 N489 0.984 . S
H493 N489 0.985 . S
H494 N488 0.984 . S
H495 N488 0.984 . S
H496 N484 0.984 . S
H497 N484 0.985 . S
C498 C499 1.363 . S
C498 C504 1.379 1_455 S
C498 N506 1.356 . S
C499 C498 1.363 . S
C499 C505 1.363 1_455 S
C500 C501 1.363 . S
C500 C505 1.379 . S
C500 N507 1.356 . S
C501 C500 1.363 . S
C501 C504 1.363 . S
N502 C504 1.356 . S
N502 H514 0.984 . S
N502 H515 0.985 . S
N503 C505 1.356 1_455 S
N503 H508 0.984 . S
N503 H509 0.985 1_455 S
C504 C498 1.379 1_655 S
C504 C501 1.363 . S
C504 N502 1.356 . S
C505 C499 1.363 1_655 S
C505 C500 1.379 . S
C505 N503 1.356 1_655 S
N506 C498 1.356 . S
N506 H512 0.984 . S
N506 H513 0.984 . S
N507 C500 1.356 . S
N507 H510 0.984 . S
N507 H511 0.985 . S
H508 N503 0.984 . S
H509 N503 0.985 1_655 S
H510 N507 0.984 . S
H511 N507 0.985 . S
H512 N506 0.984 . S
H513 N506 0.984 . S
H514 N502 0.984 . S
H515 N502 0.985 . S
C516 C517 1.363 . S
C516 C522 1.379 . S
C516 N524 1.356 . S
C517 C516 1.363 . S
C517 C523 1.363 . S
C518 C519 1.363 . S
C518 C523 1.379 1_565 S
C518 N525 1.356 . S
C519 C518 1.363 . S
C519 C522 1.363 1_565 S
N520 C522 1.356 1_565 S
N520 H532 0.984 1_565 S
N520 H533 0.985 . S
N521 C523 1.356 . S
N521 H526 0.984 . S
N521 H527 0.985 . S
C522 C516 1.379 . S
C522 C519 1.363 1_545 S
C522 N520 1.356 1_545 S
C523 C517 1.363 . S
C523 C518 1.379 1_545 S
C523 N521 1.356 . S
N524 C516 1.356 . S
N524 H530 0.984 . S
N524 H531 0.984 . S
N525 C518 1.356 . S
N525 H528 0.984 . S
N525 H529 0.985 . S
H526 N521 0.984 . S
H527 N521 0.985 . S
H528 N525 0.984 . S
H529 N525 0.985 . S
H530 N524 0.984 . S
H531 N524 0.984 . S
H532 N520 0.984 1_545 S
H533 N520 0.985 . S
C534 C535 1.363 . S
C534 C540 1.379 . S
C534 N542 1.356 . S
C535 C534 1.363 . S
C535 C541 1.363 . S
C536 C537 1.363 . S
C536 C541 1.379 . S
C536 N543 1.356 . S
C537 C536 1.363 . S
C537 C540 1.363 . S
N538 C540 1.356 . S
N538 H550 0.984 . S
N538 H551 0.985 . S
N539 C541 1.356 . S
N539 H544 0.984 . S
N539 H545 0.985 . S
C540 C534 1.379 . S
C540 C537 1.363 . S
C540 N538 1.356 . S
C541 C535 1.363 . S
C541 C536 1.379 . S
C541 N539 1.356 . S
N542 C534 1.356 . S
N542 H548 0.984 . S
N542 H549 0.984 . S
N543 C536 1.356 . S
N543 H546 0.984 . S
N543 H547 0.985 . S
H544 N539 0.984 . S
H545 N539 0.985 . S
H546 N543 0.984 . S
H547 N543 0.985 . S
H548 N542 0.984 . S
H549 N542 0.984 . S
H550 N538 0.984 . S
H551 N538 0.985 . S
C552 C553 1.363 . S
C552 C558 1.379 1_455 S
C552 N560 1.356 . S
C553 C552 1.363 . S
C553 C559 1.363 1_455 S
C554 C555 1.363 . S
C554 C559 1.379 . S
C554 N561 1.356 . S
C555 C554 1.363 . S
C555 C558 1.363 . S
N556 C558 1.356 . S
N556 H568 0.984 . S
N556 H569 0.985 . S
N557 C559 1.356 1_455 S
N557 H562 0.984 . S
N557 H563 0.985 1_455 S
C558 C552 1.379 1_655 S
C558 C555 1.363 . S
C558 N556 1.356 . S
C559 C553 1.363 1_655 S
C559 C554 1.379 . S
C559 N557 1.356 1_655 S
N560 C552 1.356 . S
N560 H566 0.984 . S
N560 H567 0.984 . S
N561 C554 1.356 . S
N561 H564 0.984 . S
N561 H565 0.985 . S
H562 N557 0.984 . S
H563 N557 0.985 1_655 S
H564 N561 0.984 . S
H565 N561 0.985 . S
H566 N560 0.984 . S
H567 N560 0.984 . S
H568 N556 0.984 . S
H569 N556 0.985 . S
C570 C571 1.363 . S
C570 C576 1.379 1_565 S
C570 N578 1.356 . S
C571 C570 1.363 . S
C571 C577 1.363 1_565 S
C572 C573 1.363 . S
C572 C577 1.379 . S
C572 N579 1.356 . S
C573 C572 1.363 . S
C573 C576 1.363 . S
N574 C576 1.356 . S
N574 H586 0.984 . S
N574 H587 0.985 . S
N575 C577 1.356 1_565 S
N575 H580 0.984 . S
N575 H581 0.985 . S
C576 C570 1.379 1_545 S
C576 C573 1.363 . S
C576 N574 1.356 . S
C577 C571 1.363 1_545 S
C577 C572 1.379 . S
C577 N575 1.356 1_545 S
N578 C570 1.356 . S
N578 H584 0.984 . S
N578 H585 0.984 . S
N579 C572 1.356 . S
N579 H582 0.984 . S
N579 H583 0.985 . S
H580 N575 0.984 . S
H581 N575 0.985 . S
H582 N579 0.984 . S
H583 N579 0.985 . S
H584 N578 0.984 . S
H585 N578 0.984 . S
H586 N574 0.984 . S
H587 N574 0.985 . S
C588 C589 1.363 . S
C588 C594 1.379 . S
C588 N596 1.356 . S
C589 C588 1.363 . S
C589 C595 1.363 . S
C590 C591 1.363 . S
C590 C595 1.379 . S
C590 N597 1.356 . S
C591 C590 1.363 . S
C591 C594 1.363 . S
N592 C594 1.356 . S
N592 H604 0.984 . S
N592 H605 0.985 . S
N593 C595 1.356 . S
N593 H598 0.984 . S
N593 H599 0.985 . S
C594 C588 1.379 . S
C594 C591 1.363 . S
C594 N592 1.356 . S
C595 C589 1.363 . S
C595 C590 1.379 . S
C595 N593 1.356 . S
N596 C588 1.356 . S
N596 H602 0.984 . S
N596 H603 0.984 . S
N597 C590 1.356 . S
N597 H600 0.984 . S
N597 H601 0.985 . S
H598 N593 0.984 . S
H599 N593 0.985 . S
H600 N597 0.984 . S
H601 N597 0.985 . S
H602 N596 0.984 . S
H603 N596 0.984 . S
H604 N592 0.984 . S
H605 N592 0.985 . S
C606 C607 1.363 . S
C606 C612 1.379 1_455 S
C606 N614 1.356 . S
C607 C606 1.363 . S
C607 C613 1.363 . S
C608 C609 1.363 1_455 S
C608 C613 1.379 . S
C608 N615 1.356 1_455 S
C609 C608 1.363 1_655 S
C609 C612 1.363 . S
N610 C612 1.356 . S
N610 H622 0.984 . S
N610 H623 0.985 . S
N611 C613 1.356 . S
N611 H616 0.984 . S
N611 H617 0.985 . S
C612 C606 1.379 1_655 S
C612 C609 1.363 . S
C612 N610 1.356 . S
C613 C607 1.363 . S
C613 C608 1.379 . S
C613 N611 1.356 . S
N614 C606 1.356 . S
N614 H620 0.984 . S
N614 H621 0.984 . S
N615 C608 1.356 1_655 S
N615 H618 0.984 . S
N615 H619 0.985 . S
H616 N611 0.984 . S
H617 N611 0.985 . S
H618 N615 0.984 . S
H619 N615 0.985 . S
H620 N614 0.984 . S
H621 N614 0.984 . S
H622 N610 0.984 . S
H623 N610 0.985 . S
C624 C625 1.363 . S
C624 C630 1.379 1_565 S
C624 N632 1.356 . S
C625 C624 1.363 . S
C625 C631 1.363 . S
C626 C627 1.363 1_565 S
C626 C631 1.379 . S
C626 N633 1.356 1_565 S
C627 C626 1.363 1_545 S
C627 C630 1.363 . S
N628 C630 1.356 . S
N628 H640 0.984 . S
N628 H641 0.985 . S
N629 C631 1.356 . S
N629 H634 0.984 . S
N629 H635 0.985 . S
C630 C624 1.379 1_545 S
C630 C627 1.363 . S
C630 N628 1.356 . S
C631 C625 1.363 . S
C631 C626 1.379 . S
C631 N629 1.356 . S
N632 C624 1.356 . S
N632 H638 0.984 . S
N632 H639 0.984 . S
N633 C626 1.356 1_545 S
N633 H636 0.984 . S
N633 H637 0.985 . S
H634 N629 0.984 . S
H635 N629 0.985 . S
H636 N633 0.984 . S
H637 N633 0.985 . S
H638 N632 0.984 . S
H639 N632 0.984 . S
H640 N628 0.984 . S
H641 N628 0.985 . S
C642 C643 1.363 . S
C642 C648 1.379 . S
C642 N650 1.356 . S
C643 C642 1.363 . S
C643 C649 1.363 . S
C644 C645 1.363 . S
C644 C649 1.379 . S
C644 N651 1.356 . S
C645 C644 1.363 . S
C645 C648 1.363 . S
N646 C648 1.356 . S
N646 H658 0.984 . S
N646 H659 0.985 . S
N647 C649 1.356 . S
N647 H652 0.984 . S
N647 H653 0.985 . S
C648 C642 1.379 . S
C648 C645 1.363 . S
C648 N646 1.356 . S
C649 C643 1.363 . S
C649 C644 1.379 . S
C649 N647 1.356 . S
N650 C642 1.356 . S
N650 H656 0.984 . S
N650 H657 0.984 . S
N651 C644 1.356 . S
N651 H654 0.984 . S
N651 H655 0.985 . S
H652 N647 0.984 . S
H653 N647 0.985 . S
H654 N651 0.984 . S
H655 N651 0.985 . S
H656 N650 0.984 . S
H657 N650 0.984 . S
H658 N646 0.984 . S
H659 N646 0.985 . S
C660 C661 1.363 . S
C660 C666 1.379 1_455 S
C660 N668 1.356 . S
C661 C660 1.363 . S
C661 C667 1.363 . S
C662 C663 1.363 1_455 S
C662 C667 1.379 . S
C662 N669 1.356 1_455 S
C663 C662 1.363 1_655 S
C663 C666 1.363 . S
N664 C666 1.356 . S
N664 H676 0.984 . S
N664 H677 0.985 . S
N665 C667 1.356 . S
N665 H670 0.984 . S
N665 H671 0.985 . S
C666 C660 1.379 1_655 S
C666 C663 1.363 . S
C666 N664 1.356 . S
C667 C661 1.363 . S
C667 C662 1.379 . S
C667 N665 1.356 . S
N668 C660 1.356 . S
N668 H674 0.984 . S
N668 H675 0.984 . S
N669 C662 1.356 1_655 S
N669 H672 0.984 . S
N669 H673 0.985 . S
H670 N665 0.984 . S
H671 N665 0.985 . S
H672 N669 0.984 . S
H673 N669 0.985 . S
H674 N668 0.984 . S
H675 N668 0.984 . S
H676 N664 0.984 . S
H677 N664 0.985 . S
C678 C679 1.363 . S
C678 C684 1.379 1_545 S
C678 N686 1.356 . S
C679 C678 1.363 . S
C679 C685 1.363 1_545 S
C680 C681 1.363 . S
C680 C685 1.379 . S
C680 N687 1.356 . S
C681 C680 1.363 . S
C681 C684 1.363 . S
N682 C684 1.356 . S
N682 H694 0.984 . S
N682 H695 0.985 . S
N683 C685 1.356 1_545 S
N683 H688 0.984 . S
N683 H689 0.985 . S
C684 C678 1.379 1_565 S
C684 C681 1.363 . S
C684 N682 1.356 . S
C685 C679 1.363 1_565 S
C685 C680 1.379 . S
C685 N683 1.356 1_565 S
N686 C678 1.356 . S
N686 H692 0.984 . S
N686 H693 0.984 . S
N687 C680 1.356 . S
N687 H690 0.984 . S
N687 H691 0.985 . S
H688 N683 0.984 . S
H689 N683 0.985 . S
H690 N687 0.984 . S
H691 N687 0.985 . S
H692 N686 0.984 . S
H693 N686 0.984 . S
H694 N682 0.984 . S
H695 N682 0.985 . S
C696 C697 1.363 . S
C696 C702 1.379 . S
C696 N704 1.356 . S
C697 C696 1.363 . S
C697 C703 1.363 . S
C698 C699 1.363 . S
C698 C703 1.379 . S
C698 N705 1.356 . S
C699 C698 1.363 . S
C699 C702 1.363 . S
N700 C702 1.356 . S
N700 H712 0.984 . S
N700 H713 0.985 . S
N701 C703 1.356 . S
N701 H706 0.984 . S
N701 H707 0.985 . S
C702 C696 1.379 . S
C702 C699 1.363 . S
C702 N700 1.356 . S
C703 C697 1.363 . S
C703 C698 1.379 . S
C703 N701 1.356 . S
N704 C696 1.356 . S
N704 H710 0.984 . S
N704 H711 0.984 . S
N705 C698 1.356 . S
N705 H708 0.984 . S
N705 H709 0.985 . S
H706 N701 0.984 . S
H707 N701 0.985 . S
H708 N705 0.984 . S
H709 N705 0.985 . S
H710 N704 0.984 . S
H711 N704 0.984 . S
H712 N700 0.984 . S
H713 N700 0.985 . S
C714 C715 1.363 . S
C714 C720 1.379 . S
C714 N722 1.356 . S
C715 C714 1.363 . S
C715 C721 1.363 . S
C716 C717 1.363 . S
C716 C721 1.379 . S
C716 N723 1.356 . S
C717 C716 1.363 . S
C717 C720 1.363 . S
N718 C720 1.356 . S
N718 H730 0.984 . S
N718 H731 0.985 . S
N719 C721 1.356 . S
N719 H724 0.984 . S
N719 H725 0.985 . S
C720 C714 1.379 . S
C720 C717 1.363 . S
C720 N718 1.356 . S
C721 C715 1.363 . S
C721 C716 1.379 . S
C721 N719 1.356 . S
N722 C714 1.356 . S
N722 H728 0.984 . S
N722 H729 0.984 . S
N723 C716 1.356 . S
N723 H726 0.984 . S
N723 H727 0.985 . S
H724 N719 0.984 . S
H725 N719 0.985 . S
H726 N723 0.984 . S
H727 N723 0.985 . S
H728 N722 0.984 . S
H729 N722 0.984 . S
H730 N718 0.984 . S
H731 N718 0.985 . S
C732 C733 1.363 . S
C732 C738 1.379 . S
C732 N740 1.356 . S
C733 C732 1.363 . S
C733 C739 1.363 . S
C734 C735 1.363 . S
C734 C739 1.379 . S
C734 N741 1.356 . S
C735 C734 1.363 . S
C735 C738 1.363 . S
N736 C738 1.356 . S
N736 H748 0.984 . S
N736 H749 0.985 . S
N737 C739 1.356 . S
N737 H742 0.984 . S
N737 H743 0.985 . S
C738 C732 1.379 . S
C738 C735 1.363 . S
C738 N736 1.356 . S
C739 C733 1.363 . S
C739 C734 1.379 . S
C739 N737 1.356 . S
N740 C732 1.356 . S
N740 H746 0.984 . S
N740 H747 0.984 . S
N741 C734 1.356 . S
N741 H744 0.984 . S
N741 H745 0.985 . S
H742 N737 0.984 . S
H743 N737 0.985 . S
H744 N741 0.984 . S
H745 N741 0.985 . S
H746 N740 0.984 . S
H747 N740 0.984 . S
H748 N736 0.984 . S
H749 N736 0.985 . S
C750 C751 1.363 . S
C750 C756 1.379 . S
C750 N758 1.356 . S
C751 C750 1.363 . S
C751 C757 1.363 . S
C752 C753 1.363 . S
C752 C757 1.379 . S
C752 N759 1.356 . S
C753 C752 1.363 . S
C753 C756 1.363 . S
N754 C756 1.356 . S
N754 H766 0.984 . S
N754 H767 0.985 . S
N755 C757 1.356 . S
N755 H760 0.984 . S
N755 H761 0.985 . S
C756 C750 1.379 . S
C756 C753 1.363 . S
C756 N754 1.356 . S
C757 C751 1.363 . S
C757 C752 1.379 . S
C757 N755 1.356 . S
N758 C750 1.356 . S
N758 H764 0.984 . S
N758 H765 0.984 . S
N759 C752 1.356 . S
N759 H762 0.984 . S
N759 H763 0.985 . S
H760 N755 0.984 . S
H761 N755 0.985 . S
H762 N759 0.984 . S
H763 N759 0.985 . S
H764 N758 0.984 . S
H765 N758 0.984 . S
H766 N754 0.984 . S
H767 N754 0.985 . S
C768 C769 1.363 . S
C768 C774 1.379 . S
C768 N776 1.356 . S
C769 C768 1.363 . S
C769 C775 1.363 . S
C770 C771 1.363 . S
C770 C775 1.379 . S
C770 N777 1.356 . S
C771 C770 1.363 . S
C771 C774 1.363 . S
N772 C774 1.356 . S
N772 H784 0.984 . S
N772 H785 0.985 . S
N773 C775 1.356 . S
N773 H778 0.984 . S
N773 H779 0.985 . S
C774 C768 1.379 . S
C774 C771 1.363 . S
C774 N772 1.356 . S
C775 C769 1.363 . S
C775 C770 1.379 . S
C775 N773 1.356 . S
N776 C768 1.356 . S
N776 H782 0.984 . S
N776 H783 0.984 . S
N777 C770 1.356 . S
N777 H780 0.984 . S
N777 H781 0.985 . S
H778 N773 0.984 . S
H779 N773 0.985 . S
H780 N777 0.984 . S
H781 N777 0.985 . S
H782 N776 0.984 . S
H783 N776 0.984 . S
H784 N772 0.984 . S
H785 N772 0.985 . S
C786 C787 1.363 . S
C786 C792 1.379 . S
C786 N794 1.356 . S
C787 C786 1.363 . S
C787 C793 1.363 . S
C788 C789 1.363 . S
C788 C793 1.379 . S
C788 N795 1.356 . S
C789 C788 1.363 . S
C789 C792 1.363 . S
N790 C792 1.356 . S
N790 H802 0.984 . S
N790 H803 0.985 . S
N791 C793 1.356 . S
N791 H796 0.984 . S
N791 H797 0.985 . S
C792 C786 1.379 . S
C792 C789 1.363 . S
C792 N790 1.356 . S
C793 C787 1.363 . S
C793 C788 1.379 . S
C793 N791 1.356 . S
N794 C786 1.356 . S
N794 H800 0.984 . S
N794 H801 0.984 . S
N795 C788 1.356 . S
N795 H798 0.984 . S
N795 H799 0.985 . S
H796 N791 0.984 . S
H797 N791 0.985 . S
H798 N795 0.984 . S
H799 N795 0.985 . S
H800 N794 0.984 . S
H801 N794 0.984 . S
H802 N790 0.984 . S
H803 N790 0.985 . S
C804 C805 1.363 . S
C804 C810 1.379 1_565 S
C804 N812 1.356 . S
C805 C804 1.363 . S
C805 C811 1.363 1_556 S
C806 C807 1.363 . S
C806 C811 1.379 1_545 S
C806 N813 1.356 . S
C807 C806 1.363 . S
C807 C810 1.363 1_554 S
N808 C810 1.356 . S
N808 H820 0.984 . S
N808 H821 0.985 . S
N809 C811 1.356 . S
N809 H814 0.984 . S
N809 H815 0.985 . S
C810 C804 1.379 1_545 S
C810 C807 1.363 1_556 S
C810 N808 1.356 . S
C811 C805 1.363 1_554 S
C811 C806 1.379 1_565 S
C811 N809 1.356 . S
N812 C804 1.356 . S
N812 H818 0.984 . S
N812 H819 0.984 . S
N813 C806 1.356 . S
N813 H816 0.984 . S
N813 H817 0.985 . S
H814 N809 0.984 . S
H815 N809 0.985 . S
H816 N813 0.984 . S
H817 N813 0.985 . S
H818 N812 0.984 . S
H819 N812 0.984 . S
H820 N808 0.984 . S
H821 N808 0.985 . S
C822 C823 1.363 . S
C822 C828 1.379 . S
C822 N830 1.356 . S
C823 C822 1.363 . S
C823 C829 1.363 . S
C824 C825 1.363 . S
C824 C829 1.379 . S
C824 N831 1.356 . S
C825 C824 1.363 . S
C825 C828 1.363 . S
N826 C828 1.356 . S
N826 H838 0.984 . S
N826 H839 0.985 . S
N827 C829 1.356 . S
N827 H832 0.984 . S
N827 H833 0.985 . S
C828 C822 1.379 . S
C828 C825 1.363 . S
C828 N826 1.356 . S
C829 C823 1.363 . S
C829 C824 1.379 . S
C829 N827 1.356 . S
N830 C822 1.356 . S
N830 H836 0.984 . S
N830 H837 0.984 . S
N831 C824 1.356 . S
N831 H834 0.984 . S
N831 H835 0.985 . S
H832 N827 0.984 . S
H833 N827 0.985 . S
H834 N831 0.984 . S
H835 N831 0.985 . S
H836 N830 0.984 . S
H837 N830 0.984 . S
H838 N826 0.984 . S
H839 N826 0.985 . S
C840 C841 1.363 . S
C840 C846 1.379 1_455 S
C840 N848 1.356 . S
C841 C840 1.363 . S
C841 C847 1.363 1_556 S
C842 C843 1.363 . S
C842 C847 1.379 1_655 S
C842 N849 1.356 . S
C843 C842 1.363 . S
C843 C846 1.363 1_554 S
N844 C846 1.356 . S
N844 H856 0.984 . S
N844 H857 0.985 . S
N845 C847 1.356 . S
N845 H850 0.984 . S
N845 H851 0.985 . S
C846 C840 1.379 1_655 S
C846 C843 1.363 1_556 S
C846 N844 1.356 . S
C847 C841 1.363 1_554 S
C847 C842 1.379 1_455 S
C847 N845 1.356 . S
N848 C840 1.356 . S
N848 H854 0.984 . S
N848 H855 0.984 . S
N849 C842 1.356 . S
N849 H852 0.984 . S
N849 H853 0.985 . S
H850 N845 0.984 . S
H851 N845 0.985 . S
H852 N849 0.984 . S
H853 N849 0.985 . S
H854 N848 0.984 . S
H855 N848 0.984 . S
H856 N844 0.984 . S
H857 N844 0.985 . S
C858 C859 1.363 . S
C858 C864 1.379 1_545 S
C858 N866 1.356 . S
C859 C858 1.363 . S
C859 C865 1.363 . S
C860 C861 1.363 . S
C860 C865 1.379 1_565 S
C860 N867 1.356 . S
C861 C860 1.363 . S
C861 C864 1.363 . S
N862 C864 1.356 . S
N862 H874 0.984 . S
N862 H875 0.985 . S
N863 C865 1.356 . S
N863 H868 0.984 . S
N863 H869 0.985 . S
C864 C858 1.379 1_565 S
C864 C861 1.363 . S
C864 N862 1.356 . S
C865 C859 1.363 . S
C865 C860 1.379 1_545 S
C865 N863 1.356 . S
N866 C858 1.356 . S
N866 H872 0.984 . S
N866 H873 0.984 . S
N867 C860 1.356 . S
N867 H870 0.984 . S
N867 H871 0.985 . S
H868 N863 0.984 . S
H869 N863 0.985 . S
H870 N867 0.984 . S
H871 N867 0.985 . S
H872 N866 0.984 . S
H873 N866 0.984 . S
H874 N862 0.984 . S
H875 N862 0.985 . S
C876 C877 1.363 1_556 S
C876 C882 1.379 . S
C876 N884 1.356 . S
C877 C876 1.363 1_554 S
C877 C883 1.363 . S
C878 C879 1.363 1_554 S
C878 C883 1.379 . S
C878 N885 1.356 . S
C879 C878 1.363 1_556 S
C879 C882 1.363 . S
N880 C882 1.356 . S
N880 H892 0.984 . S
N880 H893 0.985 . S
N881 C883 1.356 . S
N881 H886 0.984 . S
N881 H887 0.985 . S
C882 C876 1.379 . S
C882 C879 1.363 . S
C882 N880 1.356 . S
C883 C877 1.363 . S
C883 C878 1.379 . S
C883 N881 1.356 . S
N884 C876 1.356 . S
N884 H890 0.984 . S
N884 H891 0.984 . S
N885 C878 1.356 . S
N885 H888 0.984 . S
N885 H889 0.985 . S
H886 N881 0.984 . S
H887 N881 0.985 . S
H888 N885 0.984 . S
H889 N885 0.985 . S
H890 N884 0.984 . S
H891 N884 0.984 . S
H892 N880 0.984 . S
H893 N880 0.985 . S
C894 C895 1.363 . S
C894 C900 1.379 1_455 S
C894 N902 1.356 . S
C895 C894 1.363 . S
C895 C901 1.363 . S
C896 C897 1.363 . S
C896 C901 1.379 1_655 S
C896 N903 1.356 . S
C897 C896 1.363 . S
C897 C900 1.363 . S
N898 C900 1.356 . S
N898 H910 0.984 . S
N898 H911 0.985 . S
N899 C901 1.356 . S
N899 H904 0.984 . S
N899 H905 0.985 . S
C900 C894 1.379 1_655 S
C900 C897 1.363 . S
C900 N898 1.356 . S
C901 C895 1.363 . S
C901 C896 1.379 1_455 S
C901 N899 1.356 . S
N902 C894 1.356 . S
N902 H908 0.984 . S
N902 H909 0.984 . S
N903 C896 1.356 . S
N903 H906 0.984 . S
N903 H907 0.985 . S
H904 N899 0.984 . S
H905 N899 0.985 . S
H906 N903 0.984 . S
H907 N903 0.985 . S
H908 N902 0.984 . S
H909 N902 0.984 . S
H910 N898 0.984 . S
H911 N898 0.985 . S
C912 C913 1.363 . S
C912 C918 1.379 . S
C912 N920 1.356 . S
C913 C912 1.363 . S
C913 C919 1.363 . S
C914 C915 1.363 . S
C914 C919 1.379 . S
C914 N921 1.356 . S
C915 C914 1.363 . S
C915 C918 1.363 . S
N916 C918 1.356 . S
N916 H928 0.984 . S
N916 H929 0.985 . S
N917 C919 1.356 . S
N917 H922 0.984 . S
N917 H923 0.985 . S
C918 C912 1.379 . S
C918 C915 1.363 . S
C918 N916 1.356 . S
C919 C913 1.363 . S
C919 C914 1.379 . S
C919 N917 1.356 . S
N920 C912 1.356 . S
N920 H926 0.984 . S
N920 H927 0.984 . S
N921 C914 1.356 . S
N921 H924 0.984 . S
N921 H925 0.985 . S
H922 N917 0.984 . S
H923 N917 0.985 . S
H924 N921 0.984 . S
H925 N921 0.985 . S
H926 N920 0.984 . S
H927 N920 0.984 . S
H928 N916 0.984 . S
H929 N916 0.985 . S
C930 C931 1.363 . S
C930 C936 1.379 . S
C930 N938 1.356 . S
C931 C930 1.363 . S
C931 C937 1.363 . S
C932 C933 1.363 . S
C932 C937 1.379 . S
C932 N939 1.356 . S
C933 C932 1.363 . S
C933 C936 1.363 . S
N934 C936 1.356 . S
N934 H946 0.984 . S
N934 H947 0.985 . S
N935 C937 1.356 . S
N935 H940 0.984 . S
N935 H941 0.985 . S
C936 C930 1.379 . S
C936 C933 1.363 . S
C936 N934 1.356 . S
C937 C931 1.363 . S
C937 C932 1.379 . S
C937 N935 1.356 . S
N938 C930 1.356 . S
N938 H944 0.984 . S
N938 H945 0.984 . S
N939 C932 1.356 . S
N939 H942 0.984 . S
N939 H943 0.985 . S
H940 N935 0.984 . S
H941 N935 0.985 . S
H942 N939 0.984 . S
H943 N939 0.985 . S
H944 N938 0.984 . S
H945 N938 0.984 . S
H946 N934 0.984 . S
H947 N934 0.985 . S
C948 C949 1.363 . S
C948 C954 1.379 . S
C948 N956 1.356 . S
C949 C948 1.363 . S
C949 C955 1.363 . S
C950 C951 1.363 . S
C950 C955 1.379 . S
C950 N957 1.356 . S
C951 C950 1.363 . S
C951 C954 1.363 . S
N952 C954 1.356 . S
N952 H964 0.984 . S
N952 H965 0.985 . S
N953 C955 1.356 . S
N953 H958 0.984 . S
N953 H959 0.985 . S
C954 C948 1.379 . S
C954 C951 1.363 . S
C954 N952 1.356 . S
C955 C949 1.363 . S
C955 C950 1.379 . S
C955 N953 1.356 . S
N956 C948 1.356 . S
N956 H962 0.984 . S
N956 H963 0.984 . S
N957 C950 1.356 . S
N957 H960 0.984 . S
N957 H961 0.985 . S
H958 N953 0.984 . S
H959 N953 0.985 . S
H960 N957 0.984 . S
H961 N957 0.985 . S
H962 N956 0.984 . S
H963 N956 0.984 . S
H964 N952 0.984 . S
H965 N952 0.985 . S
C966 C967 1.363 . S
C966 C972 1.379 . S
C966 N974 1.356 . S
C967 C966 1.363 . S
C967 C973 1.363 . S
C968 C969 1.363 . S
C968 C973 1.379 . S
C968 N975 1.356 . S
C969 C968 1.363 . S
C969 C972 1.363 . S
N970 C972 1.356 . S
N970 H982 0.984 . S
N970 H983 0.985 . S
N971 C973 1.356 . S
N971 H976 0.984 . S
N971 H977 0.985 . S
C972 C966 1.379 . S
C972 C969 1.363 . S
C972 N970 1.356 . S
C973 C967 1.363 . S
C973 C968 1.379 . S
C973 N971 1.356 . S
N974 C966 1.356 . S
N974 H980 0.984 . S
N974 H981 0.984 . S
N975 C968 1.356 . S
N975 H978 0.984 . S
N975 H979 0.985 . S
H976 N971 0.984 . S
H977 N971 0.985 . S
H978 N975 0.984 . S
H979 N975 0.985 . S
H980 N974 0.984 . S
H981 N974 0.984 . S
H982 N970 0.984 . S
H983 N970 0.985 . S
C984 C985 1.363 . S
C984 C990 1.379 . S
C984 N992 1.356 . S
C985 C984 1.363 . S
C985 C991 1.363 . S
C986 C987 1.363 . S
C986 C991 1.379 . S
C986 N993 1.356 . S
C987 C986 1.363 . S
C987 C990 1.363 . S
N988 C990 1.356 . S
N988 H1000 0.984 . S
N988 H1001 0.985 . S
N989 C991 1.356 . S
N989 H994 0.984 . S
N989 H995 0.985 . S
C990 C984 1.379 . S
C990 C987 1.363 . S
C990 N988 1.356 . S
C991 C985 1.363 . S
C991 C986 1.379 . S
C991 N989 1.356 . S
N992 C984 1.356 . S
N992 H998 0.984 . S
N992 H999 0.984 . S
N993 C986 1.356 . S
N993 H996 0.984 . S
N993 H997 0.985 . S
H994 N989 0.984 . S
H995 N989 0.985 . S
H996 N993 0.984 . S
H997 N993 0.985 . S
H998 N992 0.984 . S
H999 N992 0.984 . S
H1000 N988 0.984 . S
H1001 N988 0.985 . S
C1002 C1003 1.363 . S
C1002 C1008 1.379 . S
C1002 N1010 1.356 . S
C1003 C1002 1.363 . S
C1003 C1009 1.363 . S
C1004 C1005 1.363 . S
C1004 C1009 1.379 . S
C1004 N1011 1.356 . S
C1005 C1004 1.363 . S
C1005 C1008 1.363 . S
N1006 C1008 1.356 . S
N1006 H1018 0.984 . S
N1006 H1019 0.985 . S
N1007 C1009 1.356 . S
N1007 H1012 0.984 . S
N1007 H1013 0.985 . S
C1008 C1002 1.379 . S
C1008 C1005 1.363 . S
C1008 N1006 1.356 . S
C1009 C1003 1.363 . S
C1009 C1004 1.379 . S
C1009 N1007 1.356 . S
N1010 C1002 1.356 . S
N1010 H1016 0.984 . S
N1010 H1017 0.984 . S
N1011 C1004 1.356 . S
N1011 H1014 0.984 . S
N1011 H1015 0.985 . S
H1012 N1007 0.984 . S
H1013 N1007 0.985 . S
H1014 N1011 0.984 . S
H1015 N1011 0.985 . S
H1016 N1010 0.984 . S
H1017 N1010 0.984 . S
H1018 N1006 0.984 . S
H1019 N1006 0.985 . S
C1020 C1021 1.363 . S
C1020 C1026 1.379 . S
C1020 N1028 1.356 . S
C1021 C1020 1.363 . S
C1021 C1027 1.363 . S
C1022 C1023 1.363 . S
C1022 C1027 1.379 . S
C1022 N1029 1.356 . S
C1023 C1022 1.363 . S
C1023 C1026 1.363 . S
N1024 C1026 1.356 . S
N1024 H1036 0.984 . S
N1024 H1037 0.985 . S
N1025 C1027 1.356 . S
N1025 H1030 0.984 . S
N1025 H1031 0.985 . S
C1026 C1020 1.379 . S
C1026 C1023 1.363 . S
C1026 N1024 1.356 . S
C1027 C1021 1.363 . S
C1027 C1022 1.379 . S
C1027 N1025 1.356 . S
N1028 C1020 1.356 . S
N1028 H1034 0.984 . S
N1028 H1035 0.984 . S
N1029 C1022 1.356 . S
N1029 H1032 0.984 . S
N1029 H1033 0.985 . S
H1030 N1025 0.984 . S
H1031 N1025 0.985 . S
H1032 N1029 0.984 . S
H1033 N1029 0.985 . S
H1034 N1028 0.984 . S
H1035 N1028 0.984 . S
H1036 N1024 0.984 . S
H1037 N1024 0.985 . S
C1038 C1039 1.363 . S
C1038 C1044 1.379 . S
C1038 N1046 1.356 . S
C1039 C1038 1.363 . S
C1039 C1045 1.363 . S
C1040 C1041 1.363 . S
C1040 C1045 1.379 . S
C1040 N1047 1.356 . S
C1041 C1040 1.363 . S
C1041 C1044 1.363 . S
N1042 C1044 1.356 . S
N1042 H1054 0.984 . S
N1042 H1055 0.985 . S
N1043 C1045 1.356 . S
N1043 H1048 0.984 . S
N1043 H1049 0.985 . S
C1044 C1038 1.379 . S
C1044 C1041 1.363 . S
C1044 N1042 1.356 . S
C1045 C1039 1.363 . S
C1045 C1040 1.379 . S
C1045 N1043 1.356 . S
N1046 C1038 1.356 . S
N1046 H1052 0.984 . S
N1046 H1053 0.984 . S
N1047 C1040 1.356 . S
N1047 H1050 0.984 . S
N1047 H1051 0.985 . S
H1048 N1043 0.984 . S
H1049 N1043 0.985 . S
H1050 N1047 0.984 . S
H1051 N1047 0.985 . S
H1052 N1046 0.984 . S
H1053 N1046 0.984 . S
H1054 N1042 0.984 . S
H1055 N1042 0.985 . S
C1056 C1057 1.363 . S
C1056 C1062 1.379 . S
C1056 N1064 1.356 . S
C1057 C1056 1.363 . S
C1057 C1063 1.363 . S
C1058 C1059 1.363 . S
C1058 C1063 1.379 . S
C1058 N1065 1.356 . S
C1059 C1058 1.363 . S
C1059 C1062 1.363 . S
N1060 C1062 1.356 . S
N1060 H1072 0.984 . S
N1060 H1073 0.985 . S
N1061 C1063 1.356 . S
N1061 H1066 0.984 . S
N1061 H1067 0.985 . S
C1062 C1056 1.379 . S
C1062 C1059 1.363 . S
C1062 N1060 1.356 . S
C1063 C1057 1.363 . S
C1063 C1058 1.379 . S
C1063 N1061 1.356 . S
N1064 C1056 1.356 . S
N1064 H1070 0.984 . S
N1064 H1071 0.984 . S
N1065 C1058 1.356 . S
N1065 H1068 0.984 . S
N1065 H1069 0.985 . S
H1066 N1061 0.984 . S
H1067 N1061 0.985 . S
H1068 N1065 0.984 . S
H1069 N1065 0.985 . S
H1070 N1064 0.984 . S
H1071 N1064 0.984 . S
H1072 N1060 0.984 . S
H1073 N1060 0.985 . S
C1074 C1075 1.363 . S
C1074 C1080 1.379 . S
C1074 N1082 1.356 . S
C1075 C1074 1.363 . S
C1075 C1081 1.363 . S
C1076 C1077 1.363 . S
C1076 C1081 1.379 . S
C1076 N1083 1.356 . S
C1077 C1076 1.363 . S
C1077 C1080 1.363 . S
N1078 C1080 1.356 . S
N1078 H1090 0.984 . S
N1078 H1091 0.985 . S
N1079 C1081 1.356 . S
N1079 H1084 0.984 . S
N1079 H1085 0.985 . S
C1080 C1074 1.379 . S
C1080 C1077 1.363 . S
C1080 N1078 1.356 . S
C1081 C1075 1.363 . S
C1081 C1076 1.379 . S
C1081 N1079 1.356 . S
N1082 C1074 1.356 . S
N1082 H1088 0.984 . S
N1082 H1089 0.984 . S
N1083 C1076 1.356 . S
N1083 H1086 0.984 . S
N1083 H1087 0.985 . S
H1084 N1079 0.984 . S
H1085 N1079 0.985 . S
H1086 N1083 0.984 . S
H1087 N1083 0.985 . S
H1088 N1082 0.984 . S
H1089 N1082 0.984 . S
H1090 N1078 0.984 . S
H1091 N1078 0.985 . S
C1092 C1093 1.363 . S
C1092 C1098 1.379 . S
C1092 N1100 1.356 . S
C1093 C1092 1.363 . S
C1093 C1099 1.363 . S
C1094 C1095 1.363 . S
C1094 C1099 1.379 . S
C1094 N1101 1.356 . S
C1095 C1094 1.363 . S
C1095 C1098 1.363 . S
N1096 C1098 1.356 . S
N1096 H1108 0.984 . S
N1096 H1109 0.985 . S
N1097 C1099 1.356 . S
N1097 H1102 0.984 . S
N1097 H1103 0.985 . S
C1098 C1092 1.379 . S
C1098 C1095 1.363 . S
C1098 N1096 1.356 . S
C1099 C1093 1.363 . S
C1099 C1094 1.379 . S
C1099 N1097 1.356 . S
N1100 C1092 1.356 . S
N1100 H1106 0.984 . S
N1100 H1107 0.984 . S
N1101 C1094 1.356 . S
N1101 H1104 0.984 . S
N1101 H1105 0.985 . S
H1102 N1097 0.984 . S
H1103 N1097 0.985 . S
H1104 N1101 0.984 . S
H1105 N1101 0.985 . S
H1106 N1100 0.984 . S
H1107 N1100 0.984 . S
H1108 N1096 0.984 . S
H1109 N1096 0.985 . S
C1110 C1111 1.363 . S
C1110 C1116 1.379 . S
C1110 N1118 1.356 . S
C1111 C1110 1.363 . S
C1111 C1117 1.363 . S
C1112 C1113 1.363 . S
C1112 C1117 1.379 . S
C1112 N1119 1.356 . S
C1113 C1112 1.363 . S
C1113 C1116 1.363 . S
N1114 C1116 1.356 . S
N1114 H1126 0.984 . S
N1114 H1127 0.985 . S
N1115 C1117 1.356 . S
N1115 H1120 0.984 . S
N1115 H1121 0.985 . S
C1116 C1110 1.379 . S
C1116 C1113 1.363 . S
C1116 N1114 1.356 . S
C1117 C1111 1.363 . S
C1117 C1112 1.379 . S
C1117 N1115 1.356 . S
N1118 C1110 1.356 . S
N1118 H1124 0.984 . S
N1118 H1125 0.984 . S
N1119 C1112 1.356 . S
N1119 H1122 0.984 . S
N1119 H1123 0.985 . S
H1120 N1115 0.984 . S
H1121 N1115 0.985 . S
H1122 N1119 0.984 . S
H1123 N1119 0.985 . S
H1124 N1118 0.984 . S
H1125 N1118 0.984 . S
H1126 N1114 0.984 . S
H1127 N1114 0.985 . S
C481 C84 1.357 . S
C483 C20 1.345 . S
C499 C145 1.357 . S
C501 C71 1.345 . S
C517 C100 1.345 . S
C519 C164 1.357 . S
C535 C151 1.345 . S
C537 C225 1.357 . S
C553 C4 1.357 . S
C555 C180 1.345 . S
C571 C65 1.357 . S
C573 C231 1.345 . S
C589 C425 1.357 . S
C591 C271 1.345 . S
C607 C300 1.345 . S
C609 C444 1.357 . S
C625 C351 1.345 . S
C627 C265 1.357 . S
C643 C380 1.345 . S
C645 C284 1.357 . S
C661 C431 1.345 . S
C663 C345 1.357 . S
C679 C364 1.357 . S
C681 C460 1.345 . S
C697 C143 1.718 . S
C699 C2 1.718 . S
C715 C63 1.718 . S
C717 C162 1.718 . S
C733 C82 1.718 . S
C735 C223 1.718 . S
C751 C263 1.718 . S
C753 C362 1.718 . S
C769 C282 1.718 . S
C771 C423 1.718 . S
C787 C343 1.718 . S
C789 C442 1.718 . S
C805 C303 2.518 . S
C807 C23 2.518 . S
C823 C42 2.518 . S
C825 C322 2.518 . S
C841 C383 2.518 . S
C843 C103 2.518 . S
C859 C122 2.518 . S
C861 C402 2.518 . S
C877 C183 2.518 . S
C879 C463 2.518 . S
C895 C242 2.518 . S
C897 C202 2.518 . S
C913 C105 1.632 . S
C915 C31 1.625 . S
C931 C60 1.625 . S
C933 C124 1.632 . S
C949 C111 1.625 . S
C951 C185 1.633 . S
C967 C140 1.625 . S
C969 C204 1.632 . S
C985 C25 1.632 . S
C987 C191 1.625 . S
C1003 C44 1.633 . S
C1005 C220 1.625 . S
C1021 C404 1.632 . S
C1023 C260 1.625 . S
C1039 C311 1.625 . S
C1041 C465 1.633 . S
C1057 C340 1.625 . S
C1059 C244 1.632 . S
C1075 C305 1.632 . S
C1077 C391 1.625 . S
C1093 C420 1.625 . S
C1095 C324 1.632 . S
C1111 C471 1.625 . S
C1113 C385 1.632 . S
