# Generated by pormake.
# Topology qtz-x, (6)-cn, num edge types: 1
# Building blocks:
#     Node 0, Type 0, BuildingBlock: BETFEN_clean_sbu_0, # of connection points: 6
#     Node 1, Type 0, BuildingBlock: BETFEN_clean_sbu_0, # of connection points: 6
#     Node 2, Type 0, BuildingBlock: BETFEN_clean_sbu_0, # of connection points: 6
#     Edge 3, Type (0, 0), BuildingBlock: ZUJKAS_clean_linker_0, # of connection points: 2
#     Edge 4, Type (0, 0), BuildingBlock: ZUJKAS_clean_linker_0, # of connection points: 2
#     Edge 5, Type (0, 0), BuildingBlock: ZUJKAS_clean_linker_0, # of connection points: 2
#     Edge 6, Type (0, 0), BuildingBlock: ZUJKAS_clean_linker_0, # of connection points: 2
#     Edge 7, Type (0, 0), BuildingBlock: ZUJKAS_clean_linker_0, # of connection points: 2
#     Edge 8, Type (0, 0), BuildingBlock: ZUJKAS_clean_linker_0, # of connection points: 2
#     Edge 9, Type (0, 0), BuildingBlock: ZUJKAS_clean_linker_0, # of connection points: 2
#     Edge 10, Type (0, 0), BuildingBlock: ZUJKAS_clean_linker_0, # of connection points: 2
#     Edge 11, Type (0, 0), BuildingBlock: ZUJKAS_clean_linker_0, # of connection points: 2
# Relax obj value: 0.177
# Max RMSD: 0.236
# Mean RMSD: 0.219
data_MOF--net-qtz-x--node1-BETFEN_clean_sbu_0--edge1-ZUJKAS_clean_linker_0
_symmetry_space_group_name_H-M    P1
_symmetry_Int_Tables_number       1
_symmetry_cell_setting            triclinic
loop_
_symmetry_equiv_pos_as_xyz
'x, y, z'
_cell_length_a     19.070804
_cell_length_b     19.196772
_cell_length_c     66.262952
_cell_angle_alpha  73.26585
_cell_angle_beta   109.58524
_cell_angle_gamma 120.75724
loop_
_atom_site_label
_atom_site_type_symbol
_atom_site_fract_x
_atom_site_fract_y
_atom_site_fract_z
_atom_type_partial_charge
Pr0 Pr 0.98519 0.57851 0.18876 0.0
Pr1 Pr 0.15363 0.69742 0.1799 0.0
C2 C 0.85836 0.45533 0.20659 0.0
C3 C 0.84138 0.43209 0.22833 0.0
C4 C 0.89275 0.48461 0.24405 0.0
C5 C 0.87835 0.4615 0.26491 0.0
C6 C 0.81203 0.38538 0.27049 0.0
C7 C 0.76042 0.33322 0.25458 0.0
C8 C 0.7751 0.35637 0.23372 0.0
C9 C 1.01654 0.74133 0.18201 0.0
C10 C 0.14978 0.65091 0.22996 0.0
C11 C 0.28416 0.81506 0.16285 0.0
C12 C 0.31337 0.82146 0.1441 0.0
C13 C 0.30641 0.75175 0.13897 0.0
C14 C 0.32923 0.75671 0.12047 0.0
C15 C 0.35845 0.83119 0.10655 0.0
C16 C 0.36531 0.90093 0.1117 0.0
C17 C 0.34316 0.8961 0.13037 0.0
C18 C 0.12025 0.53403 0.18598 0.0
C19 C 0.98909 0.63278 0.13813 0.0
O20 O 0.92124 0.44824 0.20526 0.0
O21 O 0.85658 0.52302 0.19548 0.0
O22 O 0.06861 0.71522 0.19334 0.0
O23 O 0.94515 0.68268 0.17417 0.0
O24 O 0.18754 0.71291 0.21596 0.0
O25 O 0.07871 0.58734 0.22319 0.0
O26 O 0.21294 0.81709 0.15827 0.0
O27 O 0.29076 0.75983 0.17934 0.0
O28 O 0.06922 0.56141 0.17479 0.0
O29 O 0.19173 0.59172 0.19403 0.0
O30 O 0.9471 0.57104 0.15163 0.0
O31 O 0.06268 0.69254 0.14549 0.0
H32 H 0.94445 0.54332 0.24022 0.0
H33 H 0.92018 0.50276 0.27676 0.0
H34 H 0.70815 0.27468 0.25817 0.0
H35 H 0.73479 0.31501 0.22181 0.0
H36 H 0.28202 0.693 0.14908 0.0
H37 H 0.32194 0.70166 0.11675 0.0
H38 H 0.38799 0.9592 0.10132 0.0
H39 H 0.34817 0.95034 0.13393 0.0
Pr40 Pr 0.74154 0.14356 0.54011 0.0
Pr41 Pr 0.66534 0.95118 0.53011 0.0
C42 C 0.76018 0.2801 0.54967 0.0
C43 C 0.79296 0.31699 0.56954 0.0
C44 C 0.82101 0.40087 0.56842 0.0
C45 C 0.8501 0.43522 0.58741 0.0
C46 C 0.85137 0.386 0.60779 0.0
C47 C 0.82386 0.30198 0.60873 0.0
C48 C 0.79538 0.26802 0.5898 0.0
C49 C 0.86982 0.10271 0.54505 0.0
C50 C 0.71378 -0.01473 0.581 0.0
C51 C 0.64316 0.81985 0.51706 0.0
C52 C 0.59003 0.78205 0.49732 0.0
C53 C 0.51744 0.79101 0.4864 0.0
C54 C 0.47426 0.76742 0.4659 0.0
C55 C 0.50323 0.73514 0.45576 0.0
C56 C 0.57436 0.72351 0.4671 0.0
C57 C 0.61749 0.74702 0.48769 0.0
C58 C 0.53651 -0.00959 0.52567 0.0
C59 C 0.69977 0.11177 0.48956 0.0
O60 O 0.691 0.21091 0.54918 0.0
O61 O 0.81511 0.27998 0.54201 0.0
O62 O 0.79172 0.05847 0.54035 0.0
O63 O 0.88453 0.17336 0.54811 0.0
O64 O 0.70102 0.93519 0.56833 0.0
O65 O 0.72291 0.06093 0.57368 0.0
O66 O 0.70459 0.89317 0.51362 0.0
O67 O 0.60446 0.81372 0.53105 0.0
O68 O 0.61459 0.0354 0.53008 0.0
O69 O 0.52213 0.92004 0.52255 0.0
O70 O 0.71442 0.16256 0.50218 0.0
O71 O 0.68538 0.03467 0.49672 0.0
H72 H 0.82002 0.43966 0.55289 0.0
H73 H 0.87187 0.50031 0.58611 0.0
H74 H 0.82258 0.2619 0.62407 0.0
H75 H 0.77415 0.20319 0.59095 0.0
H76 H 0.49568 0.81899 0.49337 0.0
H77 H 0.41904 0.77606 0.4578 0.0
H78 H 0.59894 0.69967 0.4597 0.0
H79 H 0.67419 0.74091 0.4957 0.0
Pr80 Pr 0.71413 0.77407 0.85505 0.0
Pr81 Pr 0.8508 0.72643 0.86195 0.0
C82 C 0.5834 0.78543 0.85824 0.0
C83 C 0.5552 0.78449 0.87658 0.0
C84 C 0.53965 0.84837 0.87663 0.0
C85 C 0.52006 0.85234 0.89468 0.0
C86 C 0.5153 0.79219 0.91307 0.0
C87 C 0.52909 0.72719 0.91274 0.0
C88 C 0.54911 0.72353 0.89475 0.0
C89 C 0.87291 0.90588 0.85519 0.0
C90 C 0.81076 0.72506 0.9057 0.0
C91 C 0.98248 0.71539 0.85936 0.0
C92 C 1.00362 0.70339 0.84157 0.0
C93 C 1.02324 0.63948 0.8445 0.0
C94 C 0.03122 0.61971 0.82692 0.0
C95 C 1.01959 0.66354 0.80608 0.0
C96 C 1.00383 0.73 0.80342 0.0
C97 C 0.99598 0.74975 0.82098 0.0
C98 C 0.6918 0.59453 0.86168 0.0
C99 C 0.75297 0.77366 0.81099 0.0
O100 O 0.57821 0.71677 0.85637 0.0
O101 O 0.65287 0.84952 0.85448 0.0
O102 O 0.857 0.84029 0.86836 0.0
O103 O 0.80544 0.90622 0.84171 0.0
O104 O 0.87131 0.73575 0.89791 0.0
O105 O 0.74172 0.72692 0.89263 0.0
O106 O 0.98316 0.78544 0.8576 0.0
O107 O 0.91858 0.65275 0.86644 0.0
O108 O 0.70804 0.66023 0.84858 0.0
O109 O 0.75925 0.59378 0.87506 0.0
O110 O 0.69515 0.76962 0.81865 0.0
O111 O 0.81956 0.76675 0.82411 0.0
H112 H 0.54464 0.89639 0.86287 0.0
H113 H 0.51101 0.90389 0.89442 0.0
H114 H 0.52469 0.67907 0.92643 0.0
H115 H 0.56117 0.67363 0.89525 0.0
H116 H 0.02945 0.60297 0.86024 0.0
H117 H 0.04457 0.5689 0.82955 0.0
H118 H 0.99348 0.76442 0.78757 0.0
H119 H 0.98063 0.79931 0.81821 0.0
H120 H 0.90582 0.80292 0.16126 0.0
H121 H 0.92423 0.93876 0.16138 0.0
H122 H 0.17301 0.00242 0.20176 0.0
H123 H 0.15538 0.86696 0.20148 0.0
H124 H 0.95593 0.0074 0.19727 0.0
H125 H 0.2111 0.19685 0.15305 0.0
H126 H 0.14891 0.08758 0.15313 0.0
H127 H 0.23276 0.12763 0.17599 0.0
C128 C 0.9647 0.84614 0.17001 0.0
C129 C 0.02921 0.82449 0.18134 0.0
C130 C 0.97505 0.92361 0.1701 0.0
C131 C 0.05028 -0.019 0.18138 0.0
C132 C 0.11503 0.95964 0.19262 0.0
H133 H 0.22966 0.47077 0.20632 0.0
H134 H 0.20991 0.33499 0.20561 0.0
C135 C 0.10473 0.88214 0.19253 0.0
C136 C 0.05962 0.06197 0.18204 0.0
H137 H 0.17764 0.26795 0.16934 0.0
C138 C 1.0041 0.06441 0.19106 0.0
C139 C 0.12262 0.13619 0.17397 0.0
C140 C 0.18184 0.1373 0.16331 0.0
C141 C 1.01086 0.13917 0.19261 0.0
C142 C 0.07399 0.21338 0.18458 0.0
C143 C 0.12939 0.21094 0.17552 0.0
C144 C 0.08409 0.2944 0.18552 0.0
C145 C 0.95169 0.13808 0.20328 0.0
C146 C 1.01989 0.31667 0.17442 0.0
C147 C 0.03096 0.39418 0.17484 0.0
C148 C 0.10668 0.45087 0.18623 0.0
C149 C 0.17064 0.4283 0.19741 0.0
C150 C 0.15952 0.35086 0.19699 0.0
H151 H 0.92178 0.07827 0.21338 0.0
H152 H 0.98488 0.1873 0.21362 0.0
H153 H 0.90127 0.14865 0.19061 0.0
H154 H 0.96176 0.2746 0.16513 0.0
H155 H 0.98075 0.41012 0.16601 0.0
H156 H 0.37055 0.9123 0.50741 0.0
H157 H 0.25698 0.93046 0.51081 0.0
H158 H 0.43682 0.12172 0.54983 0.0
H159 H 0.54996 0.1015 0.54699 0.0
H160 H 0.22122 0.91818 0.55227 0.0
H161 H 0.28984 0.22119 0.50087 0.0
H162 H 0.32666 0.15437 0.4986 0.0
H163 H 0.37681 0.21167 0.52088 0.0
C164 C 0.38604 0.95896 0.5165 0.0
C165 C 0.46986 0.00751 0.52641 0.0
C166 C 0.32101 0.96908 0.51847 0.0
C167 C 0.33841 0.0282 0.53032 0.0
C168 C 0.42205 0.07694 0.5402 0.0
H169 H 0.03784 0.19697 0.55638 0.0
H170 H 0.14923 0.17428 0.55386 0.0
C171 C 0.48704 0.06633 0.53834 0.0
C172 C 0.26877 0.0367 0.53296 0.0
H173 H 0.18246 0.16667 0.51944 0.0
C174 C 0.21245 0.97237 0.54507 0.0
C175 C 0.25775 0.10753 0.52364 0.0
C176 C 0.31543 0.17765 0.51013 0.0
C177 C 0.14637 0.97766 0.54848 0.0
C178 C 0.13465 0.04832 0.53896 0.0
C179 C 0.19104 0.11244 0.52675 0.0
C180 C 0.06576 0.05829 0.54173 0.0
C181 C 0.09162 0.90853 0.56282 0.0
C182 C 0.98109 0.00038 0.53599 0.0
C183 C 0.91706 0.01276 0.5378 0.0
C184 C 0.93618 0.08403 0.54489 0.0
C185 C 1.02081 0.14135 0.55081 0.0
C186 C 0.08471 0.1286 0.54929 0.0
H187 H 0.12371 0.87238 0.5739 0.0
H188 H 0.07324 0.93179 0.5727 0.0
H189 H 0.03387 0.86643 0.55258 0.0
H190 H 0.96424 0.94645 0.52965 0.0
H191 H 0.85277 0.96758 0.5332 0.0
H192 H 0.91636 0.05172 0.82853 0.0
H193 H 0.05637 0.16828 0.82953 0.0
H194 H 0.15962 0.03513 0.88434 0.0
H195 H 1.0198 0.91791 0.88326 0.0
H196 H 0.16407 0.25942 0.86353 0.0
H197 H 0.30906 0.11053 0.84219 0.0
H198 H 0.19712 0.06795 0.8383 0.0
H199 H 0.26061 0.05552 0.86477 0.0
C200 C 0.96899 0.04722 0.84074 0.0
C201 C 0.95739 0.97583 0.8558 0.0
C202 C 0.04882 0.11381 0.8413 0.0
C203 C 0.11845 0.10993 0.85683 0.0
C204 C 0.10694 0.03879 0.87196 0.0
H205 H 0.64777 0.44873 0.88834 0.0
H206 H 0.50753 0.33251 0.88728 0.0
C207 C 0.02706 0.97212 0.87141 0.0
C208 C 0.20273 0.1812 0.85747 0.0
H209 H 0.40013 0.24179 0.85318 0.0
C210 C 0.21566 0.25577 0.86118 0.0
C211 C 0.26979 0.17609 0.85441 0.0
C212 C 0.25859 0.09848 0.8495 0.0
C213 C 0.29442 0.32514 0.86229 0.0
C214 C 0.36149 0.31999 0.85925 0.0
C215 C 0.34854 0.24544 0.85553 0.0
C216 C 0.44586 0.39115 0.85996 0.0
C217 C 0.30564 0.40277 0.86718 0.0
C218 C 0.45766 0.46235 0.84482 0.0
C219 C 0.53768 0.52881 0.8454 0.0
C220 C 0.60717 0.52483 0.86105 0.0
C221 C 0.59527 0.45341 0.87611 0.0
C222 C 0.51531 0.38704 0.87552 0.0
H223 H 0.25505 0.39081 0.87443 0.0
H224 H 0.36702 0.4332 0.87843 0.0
H225 H 0.30388 0.44582 0.85192 0.0
H226 H 0.40512 0.46618 0.83243 0.0
H227 H 0.54519 0.58303 0.83354 0.0
H228 H 0.58494 0.75544 0.95567 0.0
H229 H 0.55615 0.76456 0.98778 0.0
H230 H 0.38298 0.85729 0.94726 0.0
H231 H 0.40772 0.84403 0.91502 0.0
H232 H 0.58147 0.89593 1.00163 0.0
H233 H 0.24239 0.6768 0.98719 0.0
H234 H 0.31 0.68602 0.97193 0.0
H235 H 0.26977 0.75867 0.9652 0.0
C236 C 0.53937 0.77619 0.95352 0.0
C237 C 0.49802 0.79818 0.93268 0.0
C238 C 0.52361 0.78214 0.97194 0.0
C239 C 0.46633 0.8103 0.96997 0.0
C240 C 0.42594 0.83356 0.94922 0.0
H241 H 0.3138 0.90382 0.06571 0.0
H242 H 0.343 0.90387 0.03235 0.0
C243 C 0.44111 0.82701 0.93077 0.0
C244 C 0.4507 0.81715 0.98966 0.0
H245 H 0.29695 0.75415 1.01596 0.0
C246 C 0.51927 0.8647 1.00478 0.0
C247 C 0.36947 0.7764 0.99377 0.0
C248 C 0.29381 0.72097 0.97878 0.0
C249 C 0.50877 0.87297 1.0238 0.0
C250 C 0.42768 0.83237 0.02785 0.0
C251 C 0.35898 0.78553 1.01269 0.0
C252 C 0.4132 0.83548 0.0481 0.0
C253 C 0.58427 0.92556 0.03939 0.0
C254 C 0.44294 0.79688 0.06794 0.0
C255 C 0.42622 0.79655 0.08696 0.0
C256 C 0.3796 0.83505 0.08649 0.0
C257 C 0.35073 0.87454 0.06661 0.0
C258 C 0.36692 0.87422 0.04755 0.0
H259 H 0.63887 0.96611 0.03186 0.0
H260 H 0.56954 0.96398 0.04536 0.0
H261 H 0.60237 0.8855 0.05357 0.0
H262 H 0.47801 0.76588 0.06864 0.0
H263 H 0.44967 0.76604 0.10204 0.0
H264 H 0.73804 0.26826 0.46786 0.0
H265 H 0.75009 0.31878 0.43011 0.0
H266 H 0.68335 0.07675 0.4212 0.0
H267 H 0.66973 0.02547 0.45854 0.0
H268 H 0.8568 0.31919 0.4104 0.0
H269 H 0.52766 0.13679 0.36913 0.0
H270 H 0.55812 0.147 0.39744 0.0
H271 H 0.57167 0.07474 0.38881 0.0
C272 C 0.72485 0.22549 0.4578 0.0
C273 C 0.70257 0.14262 0.46633 0.0
C274 C 0.732 0.25458 0.43622 0.0
C275 C 0.71642 0.20138 0.42268 0.0
C276 C 0.69381 0.11869 0.43112 0.0
H277 H 0.76649 0.23317 0.29499 0.0
H278 H 0.74328 0.19256 0.33165 0.0
C279 C 0.68659 0.08957 0.45262 0.0
C280 C 0.72767 0.23262 0.40005 0.0
H281 H 0.62895 0.20149 0.34747 0.0
C282 C 0.80672 0.29415 0.39661 0.0
C283 C 0.66241 0.19977 0.38204 0.0
C284 C 0.57498 0.1365 0.38447 0.0
C285 C 0.82302 0.32175 0.37578 0.0
C286 C 0.75814 0.28782 0.35784 0.0
C287 C 0.67876 0.22722 0.36124 0.0
C288 C 0.77169 0.31317 0.33545 0.0
C289 C 0.91037 0.38501 0.37327 0.0
C290 C 0.79427 0.39428 0.32523 0.0
C291 C 0.80717 0.41768 0.30419 0.0
C292 C 0.79732 0.36031 0.29284 0.0
C293 C 0.7737 0.27883 0.30308 0.0
C294 C 0.7608 0.25554 0.32411 0.0
H295 H 0.95725 0.39015 0.38895 0.0
H296 H 0.9294 0.36998 0.36162 0.0
H297 H 0.91164 0.44571 0.36692 0.0
H298 H 0.80123 0.43945 0.33346 0.0
H299 H 0.82376 0.48055 0.29671 0.0
H300 H 0.84606 0.76163 0.78968 0.0
H301 H 0.83733 0.78881 0.75086 0.0
H302 H 0.6322 0.8424 0.73913 0.0
H303 H 0.64003 0.81442 0.77815 0.0
H304 H 0.60624 0.74627 0.71 0.0
H305 H 0.92011 0.01724 0.71585 0.0
H306 H 0.92069 0.92548 0.73262 0.0
H307 H 0.86764 0.97106 0.73793 0.0
C308 C 0.7992 0.77948 0.77893 0.0
C309 C 0.74451 0.78687 0.78717 0.0
C310 C 0.79439 0.79516 0.75666 0.0
C311 C 0.7352 0.81926 0.74203 0.0
C312 C 0.67876 0.82436 0.75009 0.0
H313 H 0.74152 0.07134 0.61176 0.0
H314 H 0.74518 0.02581 0.65012 0.0
C315 C 0.68338 0.80842 0.77243 0.0
C316 C 0.73313 0.84028 0.7184 0.0
H317 H 0.85093 0.972 0.68161 0.0
C318 C 0.65974 0.79555 0.70378 0.0
C319 C 0.80272 0.90508 0.71023 0.0
C320 C 0.88202 0.95807 0.72492 0.0
C321 C 0.65418 0.81368 0.68129 0.0
C322 C 0.72425 0.87767 0.67317 0.0
C323 C 0.79752 0.92236 0.68781 0.0
C324 C 0.72126 0.90344 0.64952 0.0
C325 C 0.57257 0.76577 0.66635 0.0
C326 C 0.70736 0.85013 0.63621 0.0
C327 C 0.70528 0.87623 0.61398 0.0
C328 C 0.71732 0.9563 0.60464 0.0
C329 C 0.73194 0.00935 0.61817 0.0
C330 C 0.73411 -0.01662 0.64025 0.0
H331 H 0.51983 0.73122 0.67467 0.0
H332 H 0.55685 0.80709 0.65209 0.0
H333 H 0.5787 0.72113 0.66041 0.0
H334 H 0.69876 0.78855 0.64303 0.0
H335 H 0.69411 0.83365 0.60416 0.0
H336 H 0.69887 0.69965 0.92773 0.0
H337 H 0.71375 0.67508 0.9669 0.0
H338 H 0.95738 0.69269 0.97697 0.0
H339 H 0.94261 0.71611 0.93782 0.0
H340 H 0.85973 0.56098 1.00327 0.0
H341 H 0.86178 0.8468 1.00762 0.0
H342 H 0.77188 0.78224 0.98946 0.0
H343 H 0.87391 0.83004 0.98383 0.0
C344 C 0.75575 0.69844 0.93824 0.0
C345 C 0.81975 0.71033 0.92954 0.0
C346 C 0.76428 0.6847 0.96068 0.0
C347 C 0.83717 0.68307 0.97494 0.0
C348 C 0.90064 0.69387 0.96631 0.0
H349 H 0.06084 0.75435 0.10703 0.0
H350 H 1.01447 0.75936 0.06795 0.0
C351 C 0.89217 0.70753 0.94388 0.0
C352 C 0.84787 0.67035 0.99884 0.0
H353 H 0.86664 0.75611 0.0402 0.0
C354 C 0.86073 0.60333 1.01135 0.0
C355 C 0.84957 0.72589 1.00939 0.0
C356 C 0.83927 0.80071 0.99696 0.0
C357 C 0.87648 0.59103 0.0341 0.0
C358 C 0.87849 0.64674 0.04464 0.0
C359 C 0.86428 0.71299 0.0321 0.0
C360 C 0.90347 0.64228 0.06864 0.0
C361 C 0.89416 0.5204 0.04671 0.0
C362 C 0.85594 0.57493 0.08222 0.0
C363 C 0.88248 0.57164 0.10484 0.0
C364 C 0.95693 0.6358 0.11425 0.0
C365 C 1.00323 0.70358 0.10049 0.0
C366 C 0.97675 0.70677 0.07804 0.0
H367 H 0.90556 0.49236 0.0364 0.0
H368 H 0.94959 0.54079 0.06041 0.0
H369 H 0.83949 0.47247 0.0535 0.0
H370 H 0.79841 0.52495 0.07533 0.0
H371 H 0.84524 0.51868 0.11492 0.0
H372 H 0.29335 0.77214 0.25004 0.0
H373 H 0.35035 0.77645 0.28891 0.0
H374 H 0.14486 0.53949 0.30217 0.0
H375 H 0.08687 0.53486 0.26333 0.0
H376 H 0.17455 0.65191 0.32611 0.0
H377 H 0.47007 0.64905 0.33208 0.0
H378 H 0.4544 0.72859 0.31199 0.0
H379 H 0.38348 0.62303 0.30873 0.0
C380 C 0.26047 0.72066 0.26119 0.0
C381 C 0.18565 0.65304 0.25353 0.0
C382 C 0.29345 0.72303 0.28343 0.0
C383 C 0.25263 0.65769 0.29845 0.0
C384 C 0.17771 0.59034 0.29087 0.0
H385 H 0.4708 0.6059 0.43789 0.0
H386 H 0.40632 0.58144 0.40014 0.0
C387 C 0.14469 0.58784 0.26864 0.0
C388 C 0.28651 0.661 0.32206 0.0
H389 H 0.46051 0.68292 0.3627 0.0
C390 C 0.23685 0.65811 0.33414 0.0
C391 C 0.36728 0.66777 0.3326 0.0
C392 C 0.42167 0.66648 0.32075 0.0
C393 C 0.26683 0.66453 0.35634 0.0
C394 C 0.34911 0.67533 0.36663 0.0
C395 C 0.39775 0.67547 0.35472 0.0
C396 C 0.38677 0.6891 0.38958 0.0
C397 C 0.21 0.65941 0.36858 0.0
C398 C 0.39813 0.75823 0.39609 0.0
C399 C 0.43523 0.77259 0.41755 0.0
C400 C 0.46212 0.7182 0.43302 0.0
C401 C 0.45123 0.64921 0.4264 0.0
C402 C 0.41411 0.63496 0.40486 0.0
H403 H 0.14298 0.62852 0.36013 0.0
H404 H 0.21859 0.62577 0.38519 0.0
H405 H 0.22542 0.72226 0.36992 0.0
H406 H 0.37944 0.80191 0.38446 0.0
H407 H 0.44448 0.8274 0.42191 0.0
H408 H 0.94609 0.50678 0.79764 0.0
H409 H 0.93006 0.46229 0.76464 0.0
H410 H 0.06639 0.71378 0.73752 0.0
H411 H 0.08515 0.75881 0.77079 0.0
H412 H 0.84688 0.50561 0.72396 0.0
H413 H 0.17531 0.59892 0.72471 0.0
H414 H 0.14369 0.59064 0.74847 0.0
H415 H 0.15931 0.67902 0.72805 0.0
C416 C 0.97466 0.55258 0.78491 0.0
C417 C 1.01717 0.63639 0.78689 0.0
C418 C 0.96482 0.52705 0.76599 0.0
C419 C 0.99762 0.58466 0.74872 0.0
C420 C 0.04174 0.66822 0.75079 0.0
H421 H 0.82 0.50093 0.61453 0.0
H422 H 0.85919 0.55272 0.64837 0.0
C423 C 0.05166 0.69388 0.76973 0.0
C424 C 0.98022 0.55754 0.72802 0.0
H425 H 0.07339 0.55691 0.6922 0.0
C426 C 0.89636 0.51657 0.71704 0.0
C427 C 0.04492 0.57135 0.71915 0.0
C428 C 0.13588 0.61172 0.73077 0.0
C429 C 0.87532 0.48968 0.69728 0.0
C430 C 0.94006 0.50565 0.68807 0.0
C431 C 0.02396 0.54568 0.69919 0.0
C432 C 0.92161 0.47906 0.6672 0.0
C433 C 0.7839 0.443 0.68669 0.0
C434 C 0.9467 0.42303 0.66638 0.0
C435 C 0.92562 0.3943 0.647 0.0
C436 C 0.87901 0.4211 0.62802 0.0
C437 C 0.85633 0.47933 0.62878 0.0
C438 C 0.87778 0.50828 0.64817 0.0
H439 H 0.74327 0.4179 0.69835 0.0
H440 H 0.76446 0.48492 0.6735 0.0
H441 H 0.77293 0.39163 0.67953 0.0
H442 H 0.98116 0.40023 0.68086 0.0
H443 H 0.94548 0.35069 0.64691 0.0
loop_
_geom_bond_atom_site_label_1
_geom_bond_atom_site_label_2
_geom_bond_distance
_geom_bond_site_symmetry_2
_ccdc_geom_bond_type
Pr0 C2 2.880 . S
Pr0 O20 2.562 . S
Pr0 O21 2.490 . S
Pr0 O22 2.695 1_655 S
Pr0 O23 2.512 . S
Pr0 O25 2.437 1_655 S
Pr0 O28 2.436 . S
Pr0 O30 2.438 . S
Pr1 C11 2.880 . S
Pr1 O22 2.436 . S
Pr1 O24 2.438 . S
Pr1 O26 2.562 . S
Pr1 O27 2.490 . S
Pr1 O28 2.695 1_455 S
Pr1 O29 2.512 . S
Pr1 O31 2.437 1_455 S
C2 Pr0 2.880 . S
C2 C3 1.491 . S
C2 O20 1.254 . S
C2 O21 1.225 . S
C3 C2 1.491 . S
C3 C4 1.392 . S
C3 C8 1.356 . S
C4 C3 1.392 . S
C4 C5 1.368 . S
C4 H32 0.929 . S
C5 C4 1.368 . S
C5 C6 1.386 . S
C5 H33 0.929 . S
C6 C5 1.386 . S
C6 C7 1.373 . S
C7 C6 1.373 . S
C7 C8 1.409 . S
C7 H34 0.931 . S
C8 C3 1.356 . S
C8 C7 1.409 . S
C8 H35 0.930 . S
C9 O22 1.270 1_655 S
C9 O23 1.248 . S
C10 O24 1.267 . S
C10 O25 1.278 . S
C11 Pr1 2.880 . S
C11 C12 1.491 . S
C11 O26 1.254 . S
C11 O27 1.225 . S
C12 C11 1.491 . S
C12 C13 1.392 . S
C12 C17 1.356 . S
C13 C12 1.392 . S
C13 C14 1.368 . S
C13 H36 0.929 . S
C14 C13 1.368 . S
C14 C15 1.386 . S
C14 H37 0.929 . S
C15 C14 1.386 . S
C15 C16 1.373 . S
C16 C15 1.373 . S
C16 C17 1.409 . S
C16 H38 0.931 . S
C17 C12 1.356 . S
C17 C16 1.409 . S
C17 H39 0.930 . S
C18 O28 1.270 1_455 S
C18 O29 1.248 . S
C19 O30 1.267 . S
C19 O31 1.278 . S
O20 Pr0 2.562 . S
O20 C2 1.254 . S
O21 Pr0 2.490 . S
O21 C2 1.225 . S
O22 Pr0 2.695 1_455 S
O22 Pr1 2.436 . S
O22 C9 1.270 1_455 S
O23 Pr0 2.512 . S
O23 C9 1.248 . S
O24 Pr1 2.438 . S
O24 C10 1.267 . S
O25 Pr0 2.437 1_455 S
O25 C10 1.278 . S
O26 Pr1 2.562 . S
O26 C11 1.254 . S
O27 Pr1 2.490 . S
O27 C11 1.225 . S
O28 Pr0 2.436 . S
O28 Pr1 2.695 1_655 S
O28 C18 1.270 1_655 S
O29 Pr1 2.512 . S
O29 C18 1.248 . S
O30 Pr0 2.438 . S
O30 C19 1.267 . S
O31 Pr1 2.437 1_655 S
O31 C19 1.278 . S
H32 C4 0.929 . S
H33 C5 0.929 . S
H34 C7 0.931 . S
H35 C8 0.930 . S
H36 C13 0.929 . S
H37 C14 0.929 . S
H38 C16 0.931 . S
H39 C17 0.930 . S
Pr40 C42 2.880 . S
Pr40 O60 2.562 . S
Pr40 O61 2.490 . S
Pr40 O62 2.695 1_545 S
Pr40 O63 2.512 . S
Pr40 O65 2.437 . S
Pr40 O68 2.436 . S
Pr40 O70 2.438 . S
Pr41 C51 2.880 . S
Pr41 O62 2.436 . S
Pr41 O64 2.438 . S
Pr41 O66 2.562 . S
Pr41 O67 2.490 . S
Pr41 O68 2.695 1_565 S
Pr41 O69 2.512 . S
Pr41 O71 2.437 1_565 S
C42 Pr40 2.880 . S
C42 C43 1.491 . S
C42 O60 1.254 . S
C42 O61 1.225 . S
C43 C42 1.491 . S
C43 C44 1.392 . S
C43 C48 1.356 . S
C44 C43 1.392 . S
C44 C45 1.368 . S
C44 H72 0.929 . S
C45 C44 1.368 . S
C45 C46 1.386 . S
C45 H73 0.929 . S
C46 C45 1.386 . S
C46 C47 1.373 . S
C47 C46 1.373 . S
C47 C48 1.409 . S
C47 H74 0.931 . S
C48 C43 1.356 . S
C48 C47 1.409 . S
C48 H75 0.930 . S
C49 O62 1.270 1_545 S
C49 O63 1.248 . S
C50 O64 1.267 . S
C50 O65 1.278 1_565 S
C51 Pr41 2.880 . S
C51 C52 1.491 . S
C51 O66 1.254 . S
C51 O67 1.225 . S
C52 C51 1.491 . S
C52 C53 1.392 . S
C52 C57 1.356 . S
C53 C52 1.392 . S
C53 C54 1.368 . S
C53 H76 0.929 . S
C54 C53 1.368 . S
C54 C55 1.386 . S
C54 H77 0.929 . S
C55 C54 1.386 . S
C55 C56 1.373 . S
C56 C55 1.373 . S
C56 C57 1.409 . S
C56 H78 0.931 . S
C57 C52 1.356 . S
C57 C56 1.409 . S
C57 H79 0.930 . S
C58 O68 1.270 1_565 S
C58 O69 1.248 . S
C59 O70 1.267 . S
C59 O71 1.278 . S
O60 Pr40 2.562 . S
O60 C42 1.254 . S
O61 Pr40 2.490 . S
O61 C42 1.225 . S
O62 Pr40 2.695 1_565 S
O62 Pr41 2.436 . S
O62 C49 1.270 1_565 S
O63 Pr40 2.512 . S
O63 C49 1.248 . S
O64 Pr41 2.438 . S
O64 C50 1.267 . S
O65 Pr40 2.437 . S
O65 C50 1.278 1_545 S
O66 Pr41 2.562 . S
O66 C51 1.254 . S
O67 Pr41 2.490 . S
O67 C51 1.225 . S
O68 Pr40 2.436 . S
O68 Pr41 2.695 1_545 S
O68 C58 1.270 1_545 S
O69 Pr41 2.512 . S
O69 C58 1.248 . S
O70 Pr40 2.438 . S
O70 C59 1.267 . S
O71 Pr41 2.437 1_545 S
O71 C59 1.278 . S
H72 C44 0.929 . S
H73 C45 0.929 . S
H74 C47 0.931 . S
H75 C48 0.930 . S
H76 C53 0.929 . S
H77 C54 0.929 . S
H78 C56 0.931 . S
H79 C57 0.930 . S
Pr80 C82 2.880 . S
Pr80 O100 2.562 . S
Pr80 O101 2.490 . S
Pr80 O102 2.695 . S
Pr80 O103 2.512 1_565 S
Pr80 O105 2.437 . S
Pr80 O108 2.436 . S
Pr80 O110 2.438 . S
Pr81 C91 2.880 . S
Pr81 O102 2.436 . S
Pr81 O104 2.438 . S
Pr81 O106 2.562 . S
Pr81 O107 2.490 . S
Pr81 O108 2.695 . S
Pr81 O109 2.512 . S
Pr81 O111 2.437 . S
C82 Pr80 2.880 . S
C82 C83 1.491 . S
C82 O100 1.254 . S
C82 O101 1.225 . S
C83 C82 1.491 . S
C83 C84 1.392 1_565 S
C83 C88 1.356 . S
C84 C83 1.392 1_545 S
C84 C85 1.368 . S
C84 H112 0.929 . S
C85 C84 1.368 . S
C85 C86 1.386 1_545 S
C85 H113 0.929 . S
C86 C85 1.386 1_565 S
C86 C87 1.373 . S
C87 C86 1.373 . S
C87 C88 1.409 . S
C87 H114 0.931 . S
C88 C83 1.356 . S
C88 C87 1.409 . S
C88 H115 0.930 . S
C89 O102 1.270 . S
C89 O103 1.248 1_565 S
C90 O104 1.267 . S
C90 O105 1.278 . S
C91 Pr81 2.880 . S
C91 C92 1.491 . S
C91 O106 1.254 . S
C91 O107 1.225 . S
C92 C91 1.491 . S
C92 C93 1.392 . S
C92 C97 1.356 . S
C93 C92 1.392 . S
C93 C94 1.368 . S
C93 H116 0.929 . S
C94 C93 1.368 . S
C94 C95 1.386 . S
C94 H117 0.929 . S
C95 C94 1.386 . S
C95 C96 1.373 . S
C96 C95 1.373 . S
C96 C97 1.409 . S
C96 H118 0.931 1_655 S
C97 C92 1.356 . S
C97 C96 1.409 . S
C97 H119 0.930 . S
C98 O108 1.270 . S
C98 O109 1.248 . S
C99 O110 1.267 . S
C99 O111 1.278 . S
O100 Pr80 2.562 . S
O100 C82 1.254 . S
O101 Pr80 2.490 . S
O101 C82 1.225 . S
O102 Pr80 2.695 . S
O102 Pr81 2.436 . S
O102 C89 1.270 . S
O103 Pr80 2.512 1_545 S
O103 C89 1.248 1_545 S
O104 Pr81 2.438 . S
O104 C90 1.267 . S
O105 Pr80 2.437 . S
O105 C90 1.278 . S
O106 Pr81 2.562 . S
O106 C91 1.254 . S
O107 Pr81 2.490 . S
O107 C91 1.225 . S
O108 Pr80 2.436 . S
O108 Pr81 2.695 . S
O108 C98 1.270 . S
O109 Pr81 2.512 . S
O109 C98 1.248 . S
O110 Pr80 2.438 . S
O110 C99 1.267 . S
O111 Pr81 2.437 . S
O111 C99 1.278 . S
H112 C84 0.929 . S
H113 C85 0.929 . S
H114 C87 0.931 . S
H115 C88 0.930 . S
H116 C93 0.929 . S
H117 C94 0.929 . S
H118 C96 0.931 1_455 S
H119 C97 0.930 . S
H120 C128 0.929 . S
H121 C130 0.930 1_545 S
H122 C132 0.930 . S
H123 C135 0.929 . S
H124 C138 0.930 . S
H125 C140 0.960 . S
H126 C140 0.960 . S
H127 C140 0.960 . S
C128 H120 0.929 . S
C128 C129 1.377 . S
C128 C130 1.384 . S
C129 C128 1.377 . S
C129 C135 1.390 1_455 S
C130 H121 0.930 1_565 S
C130 C128 1.384 . S
C130 C131 1.366 1_565 S
C131 C130 1.366 1_545 S
C131 C132 1.392 1_445 S
C131 C136 1.509 . S
C132 H122 0.930 . S
C132 C131 1.392 1_665 S
C132 C135 1.386 . S
H133 C149 0.930 . S
H134 C150 0.931 . S
C135 H123 0.929 . S
C135 C129 1.390 1_655 S
C135 C132 1.386 . S
C136 C131 1.509 . S
C136 C138 1.388 1_455 S
C136 C139 1.404 . S
H137 C143 0.930 . S
C138 H124 0.930 . S
C138 C136 1.388 1_655 S
C138 C141 1.403 . S
C139 C136 1.404 . S
C139 C140 1.524 . S
C139 C143 1.400 . S
C140 H125 0.960 . S
C140 H126 0.960 . S
C140 H127 0.960 . S
C140 C139 1.524 . S
C141 C138 1.403 . S
C141 C142 1.392 . S
C141 C145 1.495 . S
C142 C141 1.392 . S
C142 C143 1.385 1_655 S
C142 C144 1.478 . S
C143 H137 0.930 . S
C143 C139 1.400 . S
C143 C142 1.385 1_455 S
C144 C142 1.478 . S
C144 C146 1.381 1_655 S
C144 C150 1.383 . S
C145 C141 1.495 . S
C145 H151 0.959 . S
C145 H152 0.961 . S
C145 H153 0.960 . S
C146 C144 1.381 1_455 S
C146 C147 1.394 . S
C146 H154 0.930 . S
C147 C146 1.394 . S
C147 C148 1.383 1_455 S
C147 H155 0.929 . S
C148 C147 1.383 1_655 S
C148 C149 1.377 . S
C149 H133 0.930 . S
C149 C148 1.377 . S
C149 C150 1.379 . S
C150 H134 0.931 . S
C150 C144 1.383 . S
C150 C149 1.379 . S
H151 C145 0.959 . S
H152 C145 0.961 . S
H153 C145 0.960 . S
H154 C146 0.930 . S
H155 C147 0.929 . S
H156 C164 0.929 . S
H157 C166 0.930 . S
H158 C168 0.930 . S
H159 C171 0.929 . S
H160 C174 0.930 . S
H161 C176 0.960 . S
H162 C176 0.960 . S
H163 C176 0.960 . S
C164 H156 0.929 . S
C164 C165 1.377 1_565 S
C164 C166 1.384 . S
C165 C164 1.377 1_545 S
C165 C171 1.390 . S
C166 H157 0.930 . S
C166 C164 1.384 . S
C166 C167 1.372 1_565 S
C167 C166 1.372 1_545 S
C167 C168 1.400 . S
C167 C172 1.490 . S
C168 H158 0.930 . S
C168 C167 1.400 . S
C168 C171 1.386 . S
H169 C185 0.931 . S
H170 C186 0.931 . S
C171 H159 0.929 . S
C171 C165 1.390 . S
C171 C168 1.386 . S
C172 C167 1.490 . S
C172 C174 1.395 1_545 S
C172 C175 1.403 . S
H173 C179 0.930 . S
C174 H160 0.930 . S
C174 C172 1.395 1_565 S
C174 C177 1.403 . S
C175 C172 1.403 . S
C175 C176 1.524 . S
C175 C179 1.400 . S
C176 H161 0.960 . S
C176 H162 0.960 . S
C176 H163 0.960 . S
C176 C175 1.524 . S
C177 C174 1.403 . S
C177 C178 1.392 . S
C177 C181 1.495 . S
C178 C177 1.392 . S
C178 C179 1.385 1_565 S
C178 C180 1.478 . S
C179 H173 0.930 . S
C179 C175 1.400 . S
C179 C178 1.385 1_545 S
C180 C178 1.478 . S
C180 C182 1.381 1_455 S
C180 C186 1.383 . S
C181 C177 1.495 . S
C181 H187 0.959 . S
C181 H188 0.961 1_455 S
C181 H189 0.960 1_455 S
C182 C180 1.381 1_655 S
C182 C183 1.394 . S
C182 H190 0.930 . S
C183 C182 1.394 . S
C183 C184 1.383 . S
C183 H191 0.929 . S
C184 C183 1.383 . S
C184 C185 1.377 1_565 S
C185 H169 0.931 . S
C185 C184 1.377 1_545 S
C185 C186 1.377 1_645 S
C186 H170 0.931 . S
C186 C180 1.383 . S
C186 C185 1.377 1_465 S
H187 C181 0.959 . S
H188 C181 0.961 1_655 S
H189 C181 0.960 1_655 S
H190 C182 0.930 . S
H191 C183 0.929 . S
H192 C200 0.929 . S
H193 C202 0.930 . S
H194 C204 0.930 . S
H195 C207 0.929 . S
H196 C210 0.930 . S
H197 C212 0.960 . S
H198 C212 0.960 . S
H199 C212 0.960 . S
C200 H192 0.929 . S
C200 C201 1.377 1_455 S
C200 C202 1.384 . S
C201 C200 1.377 1_655 S
C201 C207 1.390 1_655 S
C202 H193 0.930 . S
C202 C200 1.384 . S
C202 C203 1.372 . S
C203 C202 1.372 . S
C203 C204 1.400 . S
C203 C208 1.490 . S
C204 H194 0.930 . S
C204 C203 1.400 . S
C204 C207 1.386 . S
H205 C221 0.930 . S
H206 C222 0.931 . S
C207 H195 0.929 . S
C207 C201 1.390 1_455 S
C207 C204 1.386 . S
C208 C203 1.490 . S
C208 C210 1.395 . S
C208 C211 1.403 . S
H209 C215 0.930 . S
C210 H196 0.930 . S
C210 C208 1.395 . S
C210 C213 1.403 . S
C211 C208 1.403 . S
C211 C212 1.524 . S
C211 C215 1.400 . S
C212 H197 0.960 . S
C212 H198 0.960 . S
C212 H199 0.960 . S
C212 C211 1.524 . S
C213 C210 1.403 . S
C213 C214 1.392 . S
C213 C217 1.495 . S
C214 C213 1.392 . S
C214 C215 1.385 . S
C214 C216 1.478 . S
C215 H209 0.930 . S
C215 C211 1.400 . S
C215 C214 1.385 . S
C216 C214 1.478 . S
C216 C218 1.381 . S
C216 C222 1.383 . S
C217 C213 1.495 . S
C217 H223 0.959 . S
C217 H224 0.961 . S
C217 H225 0.960 . S
C218 C216 1.381 . S
C218 C219 1.394 . S
C218 H226 0.930 . S
C219 C218 1.394 . S
C219 C220 1.383 . S
C219 H227 0.929 . S
C220 C219 1.383 . S
C220 C221 1.377 . S
C221 H205 0.930 . S
C221 C220 1.377 . S
C221 C222 1.379 . S
C222 H206 0.931 . S
C222 C216 1.383 . S
C222 C221 1.379 . S
H223 C217 0.959 . S
H224 C217 0.961 . S
H225 C217 0.960 . S
H226 C218 0.930 . S
H227 C219 0.929 . S
H228 C236 0.929 . S
H229 C238 0.930 . S
H230 C240 0.930 1_545 S
H231 C243 0.929 . S
H232 C246 0.930 . S
H233 C248 0.960 . S
H234 C248 0.960 . S
H235 C248 0.960 . S
C236 H228 0.929 . S
C236 C237 1.377 . S
C236 C238 1.384 . S
C237 C236 1.377 . S
C237 C243 1.390 1_565 S
C238 H229 0.930 . S
C238 C236 1.384 . S
C238 C239 1.372 . S
C239 C238 1.372 . S
C239 C240 1.400 . S
C239 C244 1.490 . S
C240 H230 0.930 1_565 S
C240 C239 1.400 . S
C240 C243 1.386 1_565 S
H241 C257 0.930 . S
H242 C258 0.931 . S
C243 H231 0.929 . S
C243 C237 1.390 1_545 S
C243 C240 1.386 1_545 S
C244 C239 1.490 . S
C244 C246 1.395 . S
C244 C247 1.403 . S
H245 C251 0.930 . S
C246 H232 0.930 . S
C246 C244 1.395 . S
C246 C249 1.403 1_556 S
C247 C244 1.403 . S
C247 C248 1.524 . S
C247 C251 1.400 . S
C248 H233 0.960 . S
C248 H234 0.960 . S
C248 H235 0.960 . S
C248 C247 1.524 . S
C249 C246 1.403 1_554 S
C249 C250 1.392 . S
C249 C253 1.495 . S
C250 C249 1.392 . S
C250 C251 1.385 1_554 S
C250 C252 1.478 . S
C251 H245 0.930 . S
C251 C247 1.400 . S
C251 C250 1.385 1_556 S
C252 C250 1.478 . S
C252 C254 1.381 . S
C252 C258 1.383 . S
C253 C249 1.495 . S
C253 H259 0.959 1_565 S
C253 H260 0.961 1_565 S
C253 H261 0.960 . S
C254 C252 1.381 . S
C254 C255 1.394 . S
C254 H262 0.930 . S
C255 C254 1.394 . S
C255 C256 1.383 . S
C255 H263 0.929 . S
C256 C255 1.383 . S
C256 C257 1.377 . S
C257 H241 0.930 . S
C257 C256 1.377 . S
C257 C258 1.379 . S
C258 H242 0.931 . S
C258 C252 1.383 . S
C258 C257 1.379 . S
H259 C253 0.959 1_545 S
H260 C253 0.961 1_545 S
H261 C253 0.960 . S
H262 C254 0.930 . S
H263 C255 0.929 . S
H264 C272 0.929 . S
H265 C274 0.930 . S
H266 C276 0.930 . S
H267 C279 0.929 . S
H268 C282 0.930 . S
H269 C284 0.960 . S
H270 C284 0.960 . S
H271 C284 0.960 . S
C272 H264 0.929 . S
C272 C273 1.377 . S
C272 C274 1.384 . S
C273 C272 1.377 . S
C273 C279 1.390 . S
C274 H265 0.930 . S
C274 C272 1.384 . S
C274 C275 1.372 . S
C275 C274 1.372 . S
C275 C276 1.400 . S
C275 C280 1.490 . S
C276 H266 0.930 . S
C276 C275 1.400 . S
C276 C279 1.386 . S
H277 C293 0.930 . S
H278 C294 0.931 . S
C279 H267 0.929 . S
C279 C273 1.390 . S
C279 C276 1.386 . S
C280 C275 1.490 . S
C280 C282 1.395 . S
C280 C283 1.403 . S
H281 C287 0.930 . S
C282 H268 0.930 . S
C282 C280 1.395 . S
C282 C285 1.403 . S
C283 C280 1.403 . S
C283 C284 1.524 . S
C283 C287 1.400 . S
C284 H269 0.960 . S
C284 H270 0.960 . S
C284 H271 0.960 . S
C284 C283 1.524 . S
C285 C282 1.403 . S
C285 C286 1.392 . S
C285 C289 1.495 . S
C286 C285 1.392 . S
C286 C287 1.385 . S
C286 C288 1.478 . S
C287 H281 0.930 . S
C287 C283 1.400 . S
C287 C286 1.385 . S
C288 C286 1.478 . S
C288 C290 1.381 . S
C288 C294 1.383 . S
C289 C285 1.495 . S
C289 H295 0.959 . S
C289 H296 0.961 . S
C289 H297 0.960 . S
C290 C288 1.381 . S
C290 C291 1.394 . S
C290 H298 0.930 . S
C291 C290 1.394 . S
C291 C292 1.383 . S
C291 H299 0.929 . S
C292 C291 1.383 . S
C292 C293 1.377 . S
C293 H277 0.930 . S
C293 C292 1.377 . S
C293 C294 1.379 . S
C294 H278 0.931 . S
C294 C288 1.383 . S
C294 C293 1.379 . S
H295 C289 0.959 . S
H296 C289 0.961 . S
H297 C289 0.960 . S
H298 C290 0.930 . S
H299 C291 0.929 . S
H300 C308 0.929 . S
H301 C310 0.930 . S
H302 C312 0.930 . S
H303 C315 0.929 . S
H304 C318 0.930 . S
H305 C320 0.960 . S
H306 C320 0.960 . S
H307 C320 0.960 . S
C308 H300 0.929 . S
C308 C309 1.377 . S
C308 C310 1.384 . S
C309 C308 1.377 . S
C309 C315 1.390 . S
C310 H301 0.930 . S
C310 C308 1.384 . S
C310 C311 1.372 . S
C311 C310 1.372 . S
C311 C312 1.400 . S
C311 C316 1.490 . S
C312 H302 0.930 . S
C312 C311 1.400 . S
C312 C315 1.386 . S
H313 C329 0.930 . S
H314 C330 0.931 . S
C315 H303 0.929 . S
C315 C309 1.390 . S
C315 C312 1.386 . S
C316 C311 1.490 . S
C316 C318 1.395 . S
C316 C319 1.403 . S
H317 C323 0.930 1_545 S
C318 H304 0.930 . S
C318 C316 1.395 . S
C318 C321 1.403 . S
C319 C316 1.403 . S
C319 C320 1.524 1_565 S
C319 C323 1.400 . S
C320 H305 0.960 . S
C320 H306 0.960 . S
C320 H307 0.960 . S
C320 C319 1.524 1_545 S
C321 C318 1.403 . S
C321 C322 1.392 . S
C321 C325 1.495 . S
C322 C321 1.392 . S
C322 C323 1.385 . S
C322 C324 1.478 . S
C323 H317 0.930 1_565 S
C323 C319 1.400 . S
C323 C322 1.385 . S
C324 C322 1.478 . S
C324 C326 1.381 . S
C324 C330 1.383 . S
C325 C321 1.495 . S
C325 H331 0.959 . S
C325 H332 0.961 . S
C325 H333 0.960 . S
C326 C324 1.381 . S
C326 C327 1.394 . S
C326 H334 0.930 . S
C327 C326 1.394 . S
C327 C328 1.383 . S
C327 H335 0.929 . S
C328 C327 1.383 . S
C328 C329 1.377 . S
C329 H313 0.930 . S
C329 C328 1.377 . S
C329 C330 1.379 . S
C330 H314 0.931 . S
C330 C324 1.383 . S
C330 C329 1.379 . S
H331 C325 0.959 . S
H332 C325 0.961 . S
H333 C325 0.960 . S
H334 C326 0.930 . S
H335 C327 0.929 . S
H336 C344 0.929 . S
H337 C346 0.930 . S
H338 C348 0.930 . S
H339 C351 0.929 . S
H340 C354 0.930 . S
H341 C356 0.960 . S
H342 C356 0.960 . S
H343 C356 0.960 . S
C344 H336 0.929 . S
C344 C345 1.377 . S
C344 C346 1.384 . S
C345 C344 1.377 . S
C345 C351 1.390 . S
C346 H337 0.930 . S
C346 C344 1.384 . S
C346 C347 1.372 . S
C347 C346 1.372 . S
C347 C348 1.400 . S
C347 C352 1.490 . S
C348 H338 0.930 . S
C348 C347 1.400 . S
C348 C351 1.386 . S
H349 C365 0.930 1_455 S
H350 C366 0.919 1_455 S
C351 H339 0.929 . S
C351 C345 1.390 . S
C351 C348 1.386 . S
C352 C347 1.490 . S
C352 C354 1.395 . S
C352 C355 1.403 . S
H353 C359 0.930 . S
C354 H340 0.930 . S
C354 C352 1.395 . S
C354 C357 1.403 1_556 S
C355 C352 1.403 . S
C355 C356 1.524 . S
C355 C359 1.400 1_556 S
C356 H341 0.960 . S
C356 H342 0.960 . S
C356 H343 0.960 . S
C356 C355 1.524 . S
C357 C354 1.403 1_554 S
C357 C358 1.392 . S
C357 C361 1.495 . S
C358 C357 1.392 . S
C358 C359 1.385 . S
C358 C360 1.478 . S
C359 H353 0.930 . S
C359 C355 1.400 1_554 S
C359 C358 1.385 . S
C360 C358 1.478 . S
C360 C362 1.381 . S
C360 C366 1.383 . S
C361 C357 1.495 . S
C361 H367 1.002 . S
C361 H368 0.961 . S
C361 H369 0.960 . S
C362 C360 1.381 . S
C362 C363 1.394 . S
C362 H370 0.930 . S
C363 C362 1.394 . S
C363 C364 1.383 . S
C363 H371 0.929 . S
C364 C363 1.383 . S
C364 C365 1.377 . S
C365 H349 0.930 1_655 S
C365 C364 1.377 . S
C365 C366 1.379 . S
C366 H350 0.919 1_655 S
C366 C360 1.383 . S
C366 C365 1.379 . S
H367 C361 1.002 . S
H368 C361 0.961 . S
H369 C361 0.960 . S
H370 C362 0.930 . S
H371 C363 0.929 . S
H372 C380 0.929 . S
H373 C382 0.930 . S
H374 C384 0.930 . S
H375 C387 0.929 . S
H376 C390 0.930 . S
H377 C392 0.960 . S
H378 C392 0.960 . S
H379 C392 0.960 . S
C380 H372 0.929 . S
C380 C381 1.377 . S
C380 C382 1.384 . S
C381 C380 1.377 . S
C381 C387 1.390 . S
C382 H373 0.930 . S
C382 C380 1.384 . S
C382 C383 1.372 . S
C383 C382 1.372 . S
C383 C384 1.400 . S
C383 C388 1.490 . S
C384 H374 0.930 . S
C384 C383 1.400 . S
C384 C387 1.386 . S
H385 C401 0.930 . S
H386 C402 0.931 . S
C387 H375 0.929 . S
C387 C381 1.390 . S
C387 C384 1.386 . S
C388 C383 1.490 . S
C388 C390 1.395 . S
C388 C391 1.403 . S
H389 C395 0.930 . S
C390 H376 0.930 . S
C390 C388 1.395 . S
C390 C393 1.403 . S
C391 C388 1.403 . S
C391 C392 1.524 . S
C391 C395 1.400 . S
C392 H377 0.960 . S
C392 H378 0.960 . S
C392 H379 0.960 . S
C392 C391 1.524 . S
C393 C390 1.403 . S
C393 C394 1.392 . S
C393 C397 1.495 . S
C394 C393 1.392 . S
C394 C395 1.385 . S
C394 C396 1.478 . S
C395 H389 0.930 . S
C395 C391 1.400 . S
C395 C394 1.385 . S
C396 C394 1.478 . S
C396 C398 1.381 . S
C396 C402 1.383 . S
C397 C393 1.495 . S
C397 H403 0.959 . S
C397 H404 0.961 . S
C397 H405 0.960 . S
C398 C396 1.381 . S
C398 C399 1.394 . S
C398 H406 0.930 . S
C399 C398 1.394 . S
C399 C400 1.383 . S
C399 H407 0.929 . S
C400 C399 1.383 . S
C400 C401 1.377 . S
C401 H385 0.930 . S
C401 C400 1.377 . S
C401 C402 1.379 . S
C402 H386 0.931 . S
C402 C396 1.383 . S
C402 C401 1.379 . S
H403 C397 0.959 . S
H404 C397 0.961 . S
H405 C397 0.960 . S
H406 C398 0.930 . S
H407 C399 0.929 . S
H408 C416 0.929 . S
H409 C418 0.930 . S
H410 C420 0.930 1_455 S
H411 C423 0.929 . S
H412 C426 0.930 . S
H413 C428 0.960 . S
H414 C428 0.960 . S
H415 C428 0.960 . S
C416 H408 0.929 . S
C416 C417 1.377 . S
C416 C418 1.384 . S
C417 C416 1.377 . S
C417 C423 1.390 1_655 S
C418 H409 0.930 . S
C418 C416 1.384 . S
C418 C419 1.372 . S
C419 C418 1.372 . S
C419 C420 1.400 . S
C419 C424 1.490 . S
C420 H410 0.930 1_655 S
C420 C419 1.400 . S
C420 C423 1.386 1_655 S
H421 C437 0.930 . S
H422 C438 0.931 . S
C423 H411 0.929 . S
C423 C417 1.390 1_455 S
C423 C420 1.386 1_455 S
C424 C419 1.490 . S
C424 C426 1.395 . S
C424 C427 1.403 . S
H425 C431 0.930 1_455 S
C426 H412 0.930 . S
C426 C424 1.395 . S
C426 C429 1.403 . S
C427 C424 1.403 . S
C427 C428 1.524 1_655 S
C427 C431 1.400 . S
C428 H413 0.960 . S
C428 H414 0.960 . S
C428 H415 0.960 . S
C428 C427 1.524 1_455 S
C429 C426 1.403 . S
C429 C430 1.392 . S
C429 C433 1.495 . S
C430 C429 1.392 . S
C430 C431 1.385 . S
C430 C432 1.478 . S
C431 H425 0.930 1_655 S
C431 C427 1.400 . S
C431 C430 1.385 . S
C432 C430 1.478 . S
C432 C434 1.381 . S
C432 C438 1.383 . S
C433 C429 1.495 . S
C433 H439 0.959 . S
C433 H440 0.961 . S
C433 H441 0.960 . S
C434 C432 1.381 . S
C434 C435 1.394 . S
C434 H442 0.930 . S
C435 C434 1.394 . S
C435 C436 1.383 . S
C435 H443 0.929 . S
C436 C435 1.383 . S
C436 C437 1.377 . S
C437 H421 0.930 . S
C437 C436 1.377 . S
C437 C438 1.379 . S
C438 H422 0.931 . S
C438 C432 1.383 . S
C438 C437 1.379 . S
H439 C433 0.959 . S
H440 C433 0.961 . S
H441 C433 0.960 . S
H442 C434 0.930 . S
H443 C435 0.929 . S
C129 C9 1.330 1_455 S
C148 C18 1.325 1_655 S
C165 C58 1.403 1_545 S
C184 C49 1.422 1_565 S
C201 C89 1.187 1_545 S
C220 C98 1.199 . S
C237 C86 0.891 . S
C256 C15 0.894 . S
C273 C59 1.798 . S
C292 C6 1.774 . S
C309 C99 2.261 . S
C328 C50 2.261 . S
C345 C90 2.188 . S
C364 C19 2.162 . S
C381 C10 1.492 . S
C400 C55 1.434 . S
C417 C95 0.886 . S
C436 C46 0.873 . S
