# Generated by pormake.
# Topology zga, (5)-cn, num edge types: 1
# Building blocks:
#     Node 0, Type 0, BuildingBlock: XOMCOT_clean_sbu_0, # of connection points: 5
#     Node 1, Type 0, BuildingBlock: XOMCOT_clean_sbu_0, # of connection points: 5
#     Node 2, Type 0, BuildingBlock: XOMCOT_clean_sbu_0, # of connection points: 5
#     Node 3, Type 0, BuildingBlock: XOMCOT_clean_sbu_0, # of connection points: 5
#     Node 4, Type 0, BuildingBlock: XOMCOT_clean_sbu_0, # of connection points: 5
#     Node 5, Type 0, BuildingBlock: XOMCOT_clean_sbu_0, # of connection points: 5
#     Node 6, Type 0, BuildingBlock: XOMCOT_clean_sbu_0, # of connection points: 5
#     Node 7, Type 0, BuildingBlock: XOMCOT_clean_sbu_0, # of connection points: 5
#     Node 8, Type 0, BuildingBlock: XOMCOT_clean_sbu_0, # of connection points: 5
#     Node 9, Type 0, BuildingBlock: XOMCOT_clean_sbu_0, # of connection points: 5
#     Node 10, Type 0, BuildingBlock: XOMCOT_clean_sbu_0, # of connection points: 5
#     Node 11, Type 0, BuildingBlock: XOMCOT_clean_sbu_0, # of connection points: 5
#     Node 12, Type 0, BuildingBlock: XOMCOT_clean_sbu_0, # of connection points: 5
#     Node 13, Type 0, BuildingBlock: XOMCOT_clean_sbu_0, # of connection points: 5
#     Node 14, Type 0, BuildingBlock: XOMCOT_clean_sbu_0, # of connection points: 5
#     Node 15, Type 0, BuildingBlock: XOMCOT_clean_sbu_0, # of connection points: 5
#     Edge 16, Type (0, 0), BuildingBlock: XIVTED_clean_linker_0, # of connection points: 2
#     Edge 17, Type (0, 0), BuildingBlock: XIVTED_clean_linker_0, # of connection points: 2
#     Edge 18, Type (0, 0), BuildingBlock: XIVTED_clean_linker_0, # of connection points: 2
#     Edge 19, Type (0, 0), BuildingBlock: XIVTED_clean_linker_0, # of connection points: 2
#     Edge 20, Type (0, 0), BuildingBlock: XIVTED_clean_linker_0, # of connection points: 2
#     Edge 21, Type (0, 0), BuildingBlock: XIVTED_clean_linker_0, # of connection points: 2
#     Edge 22, Type (0, 0), BuildingBlock: XIVTED_clean_linker_0, # of connection points: 2
#     Edge 23, Type (0, 0), BuildingBlock: XIVTED_clean_linker_0, # of connection points: 2
#     Edge 24, Type (0, 0), BuildingBlock: XIVTED_clean_linker_0, # of connection points: 2
#     Edge 25, Type (0, 0), BuildingBlock: XIVTED_clean_linker_0, # of connection points: 2
#     Edge 26, Type (0, 0), BuildingBlock: XIVTED_clean_linker_0, # of connection points: 2
#     Edge 27, Type (0, 0), BuildingBlock: XIVTED_clean_linker_0, # of connection points: 2
#     Edge 28, Type (0, 0), BuildingBlock: XIVTED_clean_linker_0, # of connection points: 2
#     Edge 29, Type (0, 0), BuildingBlock: XIVTED_clean_linker_0, # of connection points: 2
#     Edge 30, Type (0, 0), BuildingBlock: XIVTED_clean_linker_0, # of connection points: 2
#     Edge 31, Type (0, 0), BuildingBlock: XIVTED_clean_linker_0, # of connection points: 2
#     Edge 32, Type (0, 0), BuildingBlock: XIVTED_clean_linker_0, # of connection points: 2
#     Edge 33, Type (0, 0), BuildingBlock: XIVTED_clean_linker_0, # of connection points: 2
#     Edge 34, Type (0, 0), BuildingBlock: XIVTED_clean_linker_0, # of connection points: 2
#     Edge 35, Type (0, 0), BuildingBlock: XIVTED_clean_linker_0, # of connection points: 2
#     Edge 36, Type (0, 0), BuildingBlock: XIVTED_clean_linker_0, # of connection points: 2
#     Edge 37, Type (0, 0), BuildingBlock: XIVTED_clean_linker_0, # of connection points: 2
#     Edge 38, Type (0, 0), BuildingBlock: XIVTED_clean_linker_0, # of connection points: 2
#     Edge 39, Type (0, 0), BuildingBlock: XIVTED_clean_linker_0, # of connection points: 2
#     Edge 40, Type (0, 0), BuildingBlock: XIVTED_clean_linker_0, # of connection points: 2
#     Edge 41, Type (0, 0), BuildingBlock: XIVTED_clean_linker_0, # of connection points: 2
#     Edge 42, Type (0, 0), BuildingBlock: XIVTED_clean_linker_0, # of connection points: 2
#     Edge 43, Type (0, 0), BuildingBlock: XIVTED_clean_linker_0, # of connection points: 2
#     Edge 44, Type (0, 0), BuildingBlock: XIVTED_clean_linker_0, # of connection points: 2
#     Edge 45, Type (0, 0), BuildingBlock: XIVTED_clean_linker_0, # of connection points: 2
#     Edge 46, Type (0, 0), BuildingBlock: XIVTED_clean_linker_0, # of connection points: 2
#     Edge 47, Type (0, 0), BuildingBlock: XIVTED_clean_linker_0, # of connection points: 2
#     Edge 48, Type (0, 0), BuildingBlock: XIVTED_clean_linker_0, # of connection points: 2
#     Edge 49, Type (0, 0), BuildingBlock: XIVTED_clean_linker_0, # of connection points: 2
#     Edge 50, Type (0, 0), BuildingBlock: XIVTED_clean_linker_0, # of connection points: 2
#     Edge 51, Type (0, 0), BuildingBlock: XIVTED_clean_linker_0, # of connection points: 2
#     Edge 52, Type (0, 0), BuildingBlock: XIVTED_clean_linker_0, # of connection points: 2
#     Edge 53, Type (0, 0), BuildingBlock: XIVTED_clean_linker_0, # of connection points: 2
#     Edge 54, Type (0, 0), BuildingBlock: XIVTED_clean_linker_0, # of connection points: 2
#     Edge 55, Type (0, 0), BuildingBlock: XIVTED_clean_linker_0, # of connection points: 2
# Relax obj value: 0.027
# Max RMSD: 0.076
# Mean RMSD: 0.076
data_MOF--net-zga--node1-XOMCOT_clean_sbu_0--edge1-XIVTED_clean_linker_0
_symmetry_space_group_name_H-M    P1
_symmetry_Int_Tables_number       1
_symmetry_cell_setting            triclinic
loop_
_symmetry_equiv_pos_as_xyz
'x, y, z'
_cell_length_a     50.01843
_cell_length_b     105.05034
_cell_length_c     17.739412
_cell_angle_alpha  91.878376
_cell_angle_beta   89.94447
_cell_angle_gamma 89.964181
loop_
_atom_site_label
_atom_site_type_symbol
_atom_site_fract_x
_atom_site_fract_y
_atom_site_fract_z
_atom_type_partial_charge
Co0 Co 0.12918 0.54509 0.11774 0.0
C1 C 0.13562 0.54525 0.94996 0.0
C2 C 0.15511 0.52939 0.99902 0.0
C3 C 0.15735 0.5281 0.92186 0.0
N4 N 0.14204 0.54031 0.01707 0.0
N5 N 0.14496 0.53806 0.89101 0.0
H6 H 0.12338 0.55356 0.94355 0.0
H7 H 0.16149 0.52247 0.03915 0.0
C8 C 0.18773 0.53975 0.13925 0.0
O9 O 0.19319 0.54669 0.08086 0.0
N10 N 0.11609 0.54949 0.21765 0.0
C11 C 0.09876 0.55889 0.2361 0.0
C12 C 0.096 0.55956 0.31336 0.0
C13 C 0.12359 0.54453 0.28357 0.0
N14 N 0.11169 0.55056 0.34328 0.0
C15 C 0.12832 0.57064 0.06513 0.0
C16 C 0.1662 0.58063 0.16351 0.0
C17 C 0.15287 0.5889 0.11558 0.0
C18 C 0.13383 0.58368 0.06561 0.0
C19 C 0.1602 0.56759 0.16082 0.0
N20 N 0.14188 0.56263 0.11067 0.0
H21 H 0.11183 0.5672 0.03134 0.0
H22 H 0.16933 0.56166 0.2021 0.0
H23 H 0.08936 0.56505 0.19625 0.0
H24 H 0.13758 0.53674 0.28767 0.0
O25 O 0.09342 0.54703 0.0775 0.0
O26 O 0.11026 0.52909 0.11935 0.0
O27 O 0.16369 0.53888 0.1629 0.0
C28 C 0.09021 0.53497 0.08938 0.0
H29 H 0.16608 0.52008 0.89088 0.0
H30 H 0.08404 0.56647 0.34498 0.0
H31 H 0.18072 0.58424 0.2041 0.0
H32 H 0.12213 0.58971 0.02989 0.0
Co33 Co 0.12667 0.72845 0.14761 0.0
C34 C 0.13285 0.72848 0.31555 0.0
C35 C 0.15413 0.74372 0.26555 0.0
C36 C 0.15625 0.74512 0.34265 0.0
N37 N 0.14001 0.73309 0.24806 0.0
N38 N 0.14275 0.73555 0.37427 0.0
H39 H 0.11902 0.72076 0.32231 0.0
H40 H 0.16139 0.75038 0.2251 0.0
C41 C 0.18529 0.73333 0.12242 0.0
O42 O 0.191 0.72628 0.1801 0.0
N43 N 0.11311 0.72416 0.04794 0.0
C44 C 0.09531 0.71493 0.03037 0.0
C45 C 0.09277 0.71397 0.95309 0.0
C46 C 0.12106 0.72876 0.98136 0.0
N47 N 0.10905 0.72264 0.92224 0.0
C48 C 0.12661 0.70288 0.20094 0.0
C49 C 0.16329 0.6929 0.09859 0.0
C50 C 0.15082 0.68465 0.14833 0.0
C51 C 0.13237 0.68986 0.20028 0.0
C52 C 0.15703 0.70591 0.10142 0.0
N53 N 0.13937 0.71088 0.15353 0.0
H54 H 0.11057 0.70632 0.23652 0.0
H55 H 0.16548 0.71183 0.05891 0.0
H56 H 0.08542 0.70906 0.07088 0.0
H57 H 0.13602 0.7361 0.97612 0.0
O58 O 0.09107 0.72656 0.18931 0.0
O59 O 0.10786 0.7445 0.14741 0.0
O60 O 0.16106 0.73457 0.10113 0.0
C61 C 0.08792 0.73865 0.17814 0.0
H62 H 0.16635 0.75283 0.37283 0.0
H63 H 0.08006 0.70732 0.92214 0.0
H64 H 0.17735 0.68932 0.05655 0.0
H65 H 0.12131 0.68382 0.23757 0.0
Co66 Co 0.88382 0.47814 0.90632 0.0
C67 C 0.88024 0.47857 0.07299 0.0
C68 C 0.85615 0.49315 0.02509 0.0
C69 C 0.85483 0.49448 0.10239 0.0
N70 N 0.87197 0.48315 1.0067 0.0
N71 N 0.8701 0.48535 0.13263 0.0
H72 H 0.89432 0.4708 0.07726 0.0
H73 H 0.84693 0.49935 0.98526 0.0
C74 C 0.83334 0.48167 0.81018 0.0
O75 O 0.83787 0.4714 0.76778 0.0
N76 N 0.89627 0.47318 0.80564 0.0
C77 C 0.91235 0.46323 0.78783 0.0
C78 C 0.91621 0.46261 0.71118 0.0
C79 C 0.89161 0.47883 0.73944 0.0
N80 N 0.90286 0.4723 0.68036 0.0
C81 C 0.88945 0.45192 0.94337 0.0
C82 C 0.83804 0.44404 0.91031 0.0
C83 C 0.8575 0.43486 0.9252 0.0
C84 C 0.88317 0.43899 0.94501 0.0
C85 C 0.84504 0.45699 0.9116 0.0
N86 N 0.87103 0.46072 0.92194 0.0
H87 H 0.90969 0.4547 0.95651 0.0
H88 H 0.82942 0.46385 0.90397 0.0
H89 H 0.92102 0.45685 0.82745 0.0
H90 H 0.87954 0.4873 0.73439 0.0
O91 O 0.92005 0.47651 0.94365 0.0
O92 O 0.9027 0.49416 0.89995 0.0
O93 O 0.84856 0.48455 0.86601 0.0
C94 C 0.92309 0.48848 0.92938 0.0
H95 H 0.84372 0.50174 0.13373 0.0
H96 H 0.92804 0.45551 0.6807 0.0
H97 H 0.81766 0.44123 0.89772 0.0
H98 H 0.89866 0.43221 0.95833 0.0
Co99 Co 0.8873 0.29691 0.87014 0.0
C100 C 0.8837 0.29683 0.70339 0.0
C101 C 0.86169 0.28147 0.75064 0.0
C102 C 0.86049 0.28021 0.67335 0.0
N103 N 0.876 0.29194 0.76942 0.0
N104 N 0.87441 0.28983 0.64353 0.0
H105 H 0.89645 0.30509 0.69941 0.0
H106 H 0.85388 0.27482 0.79024 0.0
C107 C 0.83759 0.29219 0.96802 0.0
O108 O 0.84352 0.30133 0.0175 0.0
N109 N 0.89919 0.30169 0.97117 0.0
C110 C 0.91184 0.31251 0.99308 0.0
C111 C 0.91629 0.31236 0.0695 0.0
C112 C 0.89717 0.29487 0.03415 0.0
N113 N 0.90677 0.30133 0.09552 0.0
C114 C 0.89175 0.32304 0.82889 0.0
C115 C 0.84161 0.33107 0.87495 0.0
C116 C 0.86036 0.34019 0.85404 0.0
C117 C 0.88534 0.33598 0.82788 0.0
C118 C 0.84862 0.31814 0.87316 0.0
N119 N 0.87408 0.3143 0.85542 0.0
H120 H 0.9116 0.32019 0.81163 0.0
H121 H 0.83335 0.31142 0.8866 0.0
H122 H 0.91734 0.32012 0.95676 0.0
H123 H 0.88803 0.28554 0.03532 0.0
O124 O 0.92375 0.29874 0.83413 0.0
O125 O 0.90646 0.28095 0.87598 0.0
O126 O 0.8518 0.29035 0.90857 0.0
C127 C 0.92689 0.28674 0.84746 0.0
H128 H 0.85125 0.2724 0.64176 0.0
H129 H 0.92485 0.32005 0.10368 0.0
H130 H 0.82172 0.33391 0.89294 0.0
H131 H 0.90032 0.34272 0.8103 0.0
Co132 Co 0.1293 0.046 0.65545 0.0
C133 C 0.1351 0.04585 0.48733 0.0
C134 C 0.15615 0.03052 0.53712 0.0
C135 C 0.15808 0.02906 0.46002 0.0
N136 N 0.14234 0.04124 0.55475 0.0
N137 N 0.14474 0.03869 0.42855 0.0
H138 H 0.12135 0.05361 0.48071 0.0
H139 H 0.16328 0.02381 0.57747 0.0
C140 C 0.18767 0.04052 0.67931 0.0
O141 O 0.19348 0.04776 0.62252 0.0
N142 N 0.11596 0.05037 0.75529 0.0
C143 C 0.0984 0.05971 0.77295 0.0
C144 C 0.09579 0.06064 0.8502 0.0
C145 C 0.1237 0.04567 0.82177 0.0
N146 N 0.11179 0.05185 0.88092 0.0
C147 C 0.13108 0.07165 0.60227 0.0
C148 C 0.16678 0.08107 0.70891 0.0
C149 C 0.15522 0.08955 0.65896 0.0
C150 C 0.13739 0.08464 0.60451 0.0
C151 C 0.16021 0.06811 0.70401 0.0
N152 N 0.14291 0.06343 0.65019 0.0
H153 H 0.11528 0.06845 0.56525 0.0
H154 H 0.16799 0.06201 0.74656 0.0
H155 H 0.08872 0.06567 0.73252 0.0
H156 H 0.13844 0.03822 0.8269 0.0
O157 O 0.09368 0.0483 0.61443 0.0
O158 O 0.10981 0.03017 0.6557 0.0
O159 O 0.16345 0.03943 0.7011 0.0
C160 C 0.09 0.03624 0.62587 0.0
H161 H 0.16794 0.02127 0.42975 0.0
H162 H 0.08322 0.06737 0.88122 0.0
H163 H 0.18028 0.08446 0.75284 0.0
H164 H 0.12713 0.0909 0.56677 0.0
Co165 Co 0.13277 0.2285 0.66985 0.0
C166 C 0.13649 0.22894 0.83649 0.0
C167 C 0.16001 0.24368 0.78817 0.0
C168 C 0.16136 0.24504 0.86546 0.0
N169 N 0.14455 0.23356 0.77008 0.0
N170 N 0.14646 0.23581 0.89596 0.0
H171 H 0.12264 0.2211 0.84099 0.0
H172 H 0.16886 0.24996 0.74812 0.0
C173 C 0.18349 0.23119 0.57358 0.0
O174 O 0.17803 0.22097 0.5317 0.0
N175 N 0.12037 0.22353 0.56921 0.0
C176 C 0.10425 0.21362 0.55132 0.0
C177 C 0.10047 0.21301 0.47466 0.0
C178 C 0.12512 0.22918 0.50304 0.0
N179 N 0.11391 0.22268 0.44391 0.0
C180 C 0.12561 0.2025 0.7093 0.0
C181 C 0.17686 0.19385 0.68131 0.0
C182 C 0.15693 0.18499 0.6983 0.0
C183 C 0.13127 0.18956 0.71484 0.0
C184 C 0.17044 0.20685 0.67821 0.0
N185 N 0.1446 0.21095 0.68696 0.0
H186 H 0.10543 0.20556 0.72083 0.0
H187 H 0.18642 0.21346 0.66909 0.0
H188 H 0.09549 0.20724 0.59084 0.0
H189 H 0.13732 0.23761 0.49806 0.0
O190 O 0.09639 0.22735 0.70676 0.0
O191 O 0.11454 0.24474 0.66238 0.0
O192 O 0.16858 0.23439 0.62969 0.0
C193 C 0.09385 0.23931 0.69197 0.0
H194 H 0.17222 0.2524 0.89659 0.0
H195 H 0.08864 0.20593 0.44409 0.0
H196 H 0.19724 0.19076 0.67101 0.0
H197 H 0.11531 0.18311 0.72927 0.0
Co198 Co 0.88655 0.97957 0.413 0.0
C199 C 0.88138 0.97762 0.57898 0.0
C200 C 0.84841 0.98772 0.53199 0.0
C201 C 0.84552 0.98787 0.60891 0.0
N202 N 0.87088 0.98128 0.51296 0.0
N203 N 0.8664 0.98165 0.63869 0.0
H204 H 0.90022 0.97265 0.58341 0.0
H205 H 0.83522 0.99238 0.49349 0.0
C206 C 0.83272 0.98117 0.32893 0.0
O207 O 0.83436 0.9696 0.29898 0.0
N208 N 0.90265 0.97824 0.31218 0.0
C209 C 0.92834 0.97524 0.29531 0.0
C210 C 0.93185 0.97514 0.21845 0.0
C211 C 0.89131 0.98039 0.24459 0.0
N212 N 0.9085 0.97836 0.1867 0.0
C213 C 0.8957 0.95291 0.38618 0.0
C214 C 0.84585 0.94425 0.42771 0.0
C215 C 0.86495 0.93539 0.40097 0.0
C216 C 0.8902 0.93991 0.38097 0.0
C217 C 0.85207 0.95731 0.43078 0.0
N218 N 0.87651 0.96155 0.40748 0.0
H219 H 0.91573 0.95596 0.37434 0.0
H220 H 0.83712 0.96402 0.45115 0.0
H221 H 0.94372 0.97308 0.3357 0.0
H222 H 0.87103 0.98341 0.23677 0.0
O223 O 0.92162 0.97792 0.45807 0.0
O224 O 0.90277 0.99615 0.4277 0.0
O225 O 0.85163 0.98574 0.36987 0.0
C226 C 0.92321 0.99029 0.45584 0.0
H227 H 0.82946 0.99246 0.6403 0.0
H228 H 0.95022 0.97298 0.18837 0.0
H229 H 0.8262 0.94113 0.44494 0.0
H230 H 0.9059 0.93338 0.36287 0.0
Co231 Co 0.88439 0.79592 0.38544 0.0
C232 C 0.87823 0.79579 0.21743 0.0
C233 C 0.8587 0.78003 0.26744 0.0
C234 C 0.85668 0.77857 0.19036 0.0
N235 N 0.87169 0.79098 0.28486 0.0
N236 N 0.86909 0.78847 0.15873 0.0
H237 H 0.89099 0.80392 0.21072 0.0
H238 H 0.85209 0.77324 0.30802 0.0
C239 C 0.82576 0.79064 0.40658 0.0
O240 O 0.82043 0.79748 0.3477 0.0
N241 N 0.89731 0.8005 0.48527 0.0
C242 C 0.91478 0.80986 0.50295 0.0
C243 C 0.91718 0.81085 0.58024 0.0
C244 C 0.88942 0.79584 0.55175 0.0
N245 N 0.90116 0.80206 0.61094 0.0
C246 C 0.88566 0.82136 0.33135 0.0
C247 C 0.84702 0.83163 0.42655 0.0
C248 C 0.8607 0.83978 0.37854 0.0
C249 C 0.88022 0.83439 0.33045 0.0
C250 C 0.85313 0.81859 0.42569 0.0
N251 N 0.87179 0.81348 0.37694 0.0
H252 H 0.90229 0.8178 0.29834 0.0
H253 H 0.84368 0.81277 0.46703 0.0
H254 H 0.92462 0.81576 0.46249 0.0
H255 H 0.87477 0.78836 0.55683 0.0
O256 O 0.92023 0.7977 0.34529 0.0
O257 O 0.90327 0.77987 0.38814 0.0
O258 O 0.84974 0.78983 0.43068 0.0
C259 C 0.92336 0.78565 0.35766 0.0
H260 H 0.84736 0.77064 0.16022 0.0
H261 H 0.92969 0.81758 0.61132 0.0
H262 H 0.83206 0.83531 0.46568 0.0
H263 H 0.89229 0.84029 0.29481 0.0
Co264 Co 0.62773 0.5424 0.60202 0.0
C265 C 0.63311 0.54412 0.43558 0.0
C266 C 0.66638 0.53442 0.48379 0.0
C267 C 0.6695 0.53422 0.40695 0.0
N268 N 0.64359 0.54066 0.5021 0.0
N269 N 0.64845 0.54019 0.37631 0.0
H270 H 0.61411 0.54893 0.43049 0.0
H271 H 0.67972 0.52997 0.52273 0.0
C272 C 0.68185 0.54064 0.68505 0.0
O273 O 0.68113 0.55238 0.71297 0.0
N274 N 0.6115 0.54377 0.70278 0.0
C275 C 0.58551 0.54621 0.71914 0.0
C276 C 0.58199 0.54658 0.79604 0.0
C277 C 0.62308 0.54232 0.77086 0.0
N278 N 0.60566 0.54413 0.82845 0.0
C279 C 0.61879 0.56903 0.63045 0.0
C280 C 0.6683 0.57772 0.58611 0.0
C281 C 0.64936 0.58657 0.61381 0.0
C282 C 0.62427 0.58204 0.63535 0.0
C283 C 0.6621 0.56466 0.5833 0.0
N284 N 0.63783 0.56041 0.60776 0.0
H285 H 0.59888 0.56595 0.64369 0.0
H286 H 0.67696 0.55797 0.56223 0.0
H287 H 0.56995 0.54785 0.6784 0.0
H288 H 0.64373 0.53999 0.77929 0.0
O289 O 0.59274 0.54407 0.55637 0.0
O290 O 0.61153 0.52585 0.58716 0.0
O291 O 0.66246 0.53614 0.64577 0.0
C292 C 0.59117 0.5317 0.55859 0.0
H293 H 0.68591 0.52979 0.37627 0.0
H294 H 0.56337 0.54837 0.82569 0.0
H295 H 0.68783 0.58084 0.56785 0.0
H296 H 0.60868 0.58856 0.65434 0.0
Co297 Co 0.62969 0.72598 0.63627 0.0
C298 C 0.63579 0.72616 0.80433 0.0
C299 C 0.65527 0.74193 0.75422 0.0
C300 C 0.65729 0.74339 0.83131 0.0
N301 N 0.6423 0.73097 0.73687 0.0
N302 N 0.64492 0.73349 0.86298 0.0
H303 H 0.62306 0.71802 0.81111 0.0
H304 H 0.66187 0.74871 0.7136 0.0
C305 C 0.68832 0.73126 0.61535 0.0
O306 O 0.69362 0.72444 0.67433 0.0
N307 N 0.61685 0.72136 0.53642 0.0
C308 C 0.59946 0.71196 0.51869 0.0
C309 C 0.59708 0.71097 0.44139 0.0
C310 C 0.62471 0.72603 0.46996 0.0
N311 N 0.61303 0.71979 0.41074 0.0
C312 C 0.62841 0.70059 0.69084 0.0
C313 C 0.66708 0.69024 0.59599 0.0
C314 C 0.65341 0.68214 0.6443 0.0
C315 C 0.63387 0.68756 0.69217 0.0
C316 C 0.66098 0.70329 0.5965 0.0
N317 N 0.64231 0.70843 0.6451 0.0
H318 H 0.61175 0.70415 0.72365 0.0
H319 H 0.67045 0.70908 0.55507 0.0
H320 H 0.58965 0.70605 0.55913 0.0
H321 H 0.6393 0.73355 0.46494 0.0
O322 O 0.59384 0.72418 0.67622 0.0
O323 O 0.61074 0.74201 0.63328 0.0
O324 O 0.66435 0.73206 0.59114 0.0
C325 C 0.59066 0.73622 0.6637 0.0
H326 H 0.6666 0.75133 0.86142 0.0
H327 H 0.58462 0.70422 0.41028 0.0
H328 H 0.68203 0.68652 0.55697 0.0
H329 H 0.62181 0.68169 0.72799 0.0
Co330 Co 0.38589 0.47521 0.36065 0.0
C331 C 0.38011 0.47542 0.52882 0.0
C332 C 0.35929 0.4908 0.47889 0.0
C333 C 0.35734 0.49228 0.55599 0.0
N334 N 0.37298 0.48003 0.46137 0.0
N335 N 0.37054 0.48261 0.58754 0.0
H336 H 0.39371 0.4676 0.53553 0.0
H337 H 0.3522 0.4975 0.43844 0.0
C338 C 0.32742 0.48057 0.33775 0.0
O339 O 0.32177 0.47343 0.39514 0.0
N340 N 0.39907 0.47077 0.26077 0.0
C341 C 0.41661 0.46141 0.24305 0.0
C342 C 0.41917 0.46048 0.1658 0.0
C343 C 0.39131 0.47547 0.19433 0.0
N344 N 0.40319 0.46928 0.13514 0.0
C345 C 0.38484 0.44962 0.4147 0.0
C346 C 0.34866 0.43993 0.31023 0.0
C347 C 0.3606 0.43157 0.36024 0.0
C348 C 0.37869 0.43662 0.41352 0.0
C349 C 0.35506 0.45292 0.31412 0.0
N350 N 0.37259 0.45773 0.36696 0.0
H351 H 0.40084 0.45292 0.45076 0.0
H352 H 0.34696 0.45893 0.27161 0.0
H353 H 0.42632 0.45547 0.28347 0.0
H354 H 0.37661 0.48294 0.18927 0.0
O355 O 0.42161 0.47308 0.40121 0.0
O356 O 0.40511 0.4911 0.35939 0.0
O357 O 0.35156 0.4816 0.31524 0.0
C358 C 0.42507 0.48514 0.38922 0.0
H359 H 0.34755 0.50008 0.5862 0.0
H360 H 0.43173 0.45375 0.13472 0.0
H361 H 0.33497 0.43642 0.26711 0.0
H362 H 0.38925 0.43045 0.45118 0.0
Co363 Co 0.38587 0.29277 0.3483 0.0
C364 C 0.38231 0.29224 0.18162 0.0
C365 C 0.35923 0.27734 0.22999 0.0
C366 C 0.35792 0.27597 0.1527 0.0
N367 N 0.37439 0.28757 0.24805 0.0
N368 N 0.37254 0.2853 0.12218 0.0
H369 H 0.3959 0.30018 0.17709 0.0
H370 H 0.35054 0.27103 0.2701 0.0
C371 C 0.33512 0.28994 0.4441 0.0
O372 O 0.34046 0.30018 0.48594 0.0
N373 N 0.39797 0.29789 0.44897 0.0
C374 C 0.41363 0.30797 0.46694 0.0
C375 C 0.41734 0.30862 0.54364 0.0
C376 C 0.39342 0.29219 0.5151 0.0
N377 N 0.40432 0.29881 0.5743 0.0
C378 C 0.3926 0.31874 0.3074 0.0
C379 C 0.34125 0.32728 0.33524 0.0
C380 C 0.36103 0.33615 0.31736 0.0
C381 C 0.38673 0.33164 0.30096 0.0
C382 C 0.34787 0.3143 0.33916 0.0
N383 N 0.37375 0.31026 0.33039 0.0
H384 H 0.41282 0.31573 0.296 0.0
H385 H 0.33198 0.30767 0.34887 0.0
H386 H 0.42212 0.31443 0.42747 0.0
H387 H 0.38157 0.28366 0.52 0.0
O388 O 0.4223 0.29406 0.31203 0.0
O389 O 0.40444 0.27662 0.35655 0.0
O390 O 0.35009 0.28677 0.38803 0.0
C391 C 0.42509 0.28213 0.32723 0.0
H392 H 0.34726 0.26854 0.12158 0.0
H393 H 0.42884 0.31581 0.57428 0.0
H394 H 0.32084 0.33033 0.34552 0.0
H395 H 0.40257 0.33811 0.28589 0.0
Co396 Co 0.63026 0.04356 0.11454 0.0
C397 C 0.63415 0.04353 0.94833 0.0
C398 C 0.65866 0.02901 0.9953 0.0
C399 C 0.66011 0.02787 0.91793 0.0
N400 N 0.64248 0.03885 0.01424 0.0
N401 N 0.64458 0.03695 0.88834 0.0
H402 H 0.61979 0.05119 0.94456 0.0
H403 H 0.66802 0.02279 0.03474 0.0
C404 C 0.68083 0.04041 0.21065 0.0
O405 O 0.67591 0.05068 0.25273 0.0
N406 N 0.61748 0.0482 0.21523 0.0
C407 C 0.60085 0.05791 0.23379 0.0
C408 C 0.59698 0.05831 0.31045 0.0
C409 C 0.62245 0.04246 0.28087 0.0
N410 N 0.61087 0.0487 0.34038 0.0
C411 C 0.62362 0.0698 0.0801 0.0
C412 C 0.67511 0.07801 0.10876 0.0
C413 C 0.65529 0.08706 0.0944 0.0
C414 C 0.62952 0.08274 0.07732 0.0
C415 C 0.66843 0.06501 0.10897 0.0
N416 N 0.64247 0.06112 0.10028 0.0
H417 H 0.60337 0.06692 0.06816 0.0
H418 H 0.68429 0.05824 0.11593 0.0
H419 H 0.59182 0.06428 0.19475 0.0
H420 H 0.63499 0.03413 0.28524 0.0
O421 O 0.59413 0.04506 0.07671 0.0
O422 O 0.61172 0.02738 0.11922 0.0
O423 O 0.66566 0.03735 0.15502 0.0
C424 C 0.59128 0.03305 0.08991 0.0
H425 H 0.67146 0.02075 0.88611 0.0
H426 H 0.58482 0.0652 0.34158 0.0
H427 H 0.69556 0.08094 0.1192 0.0
H428 H 0.61369 0.08938 0.06459 0.0
Co429 Co 0.63333 0.22624 0.1452 0.0
C430 C 0.63129 0.23049 0.31328 0.0
C431 C 0.6714 0.23045 0.27061 0.0
C432 C 0.67231 0.23216 0.34779 0.0
N433 N 0.64567 0.22953 0.24844 0.0
N434 N 0.64709 0.23219 0.37477 0.0
H435 H 0.60975 0.22985 0.3159 0.0
H436 H 0.68858 0.22954 0.23382 0.0
C437 C 0.68135 0.2336 0.04537 0.0
O438 O 0.6728 0.22707 0.98589 0.0
N439 N 0.6204 0.22273 0.04311 0.0
C440 C 0.60933 0.21166 0.01863 0.0
C441 C 0.60302 0.21249 0.94358 0.0
C442 C 0.61938 0.23039 0.9832 0.0
N443 N 0.60971 0.22419 0.92078 0.0
C444 C 0.63382 0.201 0.20097 0.0
C445 C 0.67044 0.19057 0.09996 0.0
C446 C 0.65675 0.18243 0.14763 0.0
C447 C 0.63882 0.18786 0.20037 0.0
C448 C 0.66507 0.20363 0.10298 0.0
N449 N 0.64624 0.20869 0.15107 0.0
H450 H 0.61911 0.20494 0.23978 0.0
H451 H 0.67548 0.20941 0.06432 0.0
H452 H 0.60657 0.2034 0.05254 0.0
H453 H 0.62684 0.24007 0.9843 0.0
O454 O 0.59695 0.22389 0.18048 0.0
O455 O 0.61444 0.24228 0.14782 0.0
O456 O 0.669 0.2332 0.10861 0.0
C457 C 0.59385 0.23609 0.17241 0.0
H458 H 0.69027 0.23285 0.38163 0.0
H459 H 0.59545 0.20479 0.90756 0.0
H460 H 0.68485 0.18683 0.05933 0.0
H461 H 0.62777 0.18195 0.23838 0.0
Co462 Co 0.38579 0.97595 0.90218 0.0
C463 C 0.37983 0.97618 0.07033 0.0
C464 C 0.35996 0.99184 0.02033 0.0
C465 C 0.35798 0.99332 0.09743 0.0
N466 N 0.3731 0.98092 1.00287 0.0
N467 N 0.37058 0.98348 0.12902 0.0
H468 H 0.39287 0.96815 0.07709 0.0
H469 H 0.35324 0.99861 0.97981 0.0
C470 C 0.32739 0.98157 0.88018 0.0
O471 O 0.32177 0.97458 0.93821 0.0
N472 N 0.39872 0.97136 0.80225 0.0
C473 C 0.41596 0.96189 0.78444 0.0
C474 C 0.4184 0.96091 0.70715 0.0
C475 C 0.39101 0.97609 0.73583 0.0
N476 N 0.40263 0.96981 0.67656 0.0
C477 C 0.38527 0.95049 0.95627 0.0
C478 C 0.34787 0.94068 0.85581 0.0
C479 C 0.36061 0.93236 0.90467 0.0
C480 C 0.37937 0.93749 0.95576 0.0
C481 C 0.35426 0.95367 0.85854 0.0
N482 N 0.37236 0.95854 0.90958 0.0
H483 H 0.40162 0.95384 0.99089 0.0
H484 H 0.34562 0.95964 0.81658 0.0
H485 H 0.42558 0.9559 0.82481 0.0
H486 H 0.37653 0.98366 0.73084 0.0
O487 O 0.42144 0.97367 0.94244 0.0
O488 O 0.40539 0.99176 0.90032 0.0
O489 O 0.35149 0.98243 0.85699 0.0
C490 C 0.42517 0.9857 0.93042 0.0
H491 H 0.34856 1.00123 0.12761 0.0
H492 H 0.43074 0.9541 0.676 0.0
H493 H 0.33357 0.93714 0.81442 0.0
H494 H 0.39063 0.93141 0.9923 0.0
Co495 Co 0.38654 0.79292 0.87175 0.0
C496 C 0.38039 0.79286 0.70379 0.0
C497 C 0.35933 0.77755 0.75378 0.0
C498 C 0.35724 0.77614 0.67667 0.0
N499 N 0.3733 0.78822 0.77127 0.0
N500 N 0.37059 0.78576 0.64507 0.0
H501 H 0.39409 0.80063 0.69704 0.0
H502 H 0.35216 0.77087 0.79423 0.0
C503 C 0.32797 0.78791 0.89662 0.0
O504 O 0.32225 0.79494 0.83885 0.0
N505 N 0.40001 0.79726 0.97144 0.0
C506 C 0.4177 0.80654 0.98902 0.0
C507 C 0.42021 0.80751 0.06629 0.0
C508 C 0.39211 0.79264 0.03801 0.0
N509 N 0.40403 0.7988 0.09714 0.0
C510 C 0.38641 0.81847 0.81836 0.0
C511 C 0.34956 0.82838 0.92045 0.0
C512 C 0.36203 0.83666 0.87084 0.0
C513 C 0.38056 0.83148 0.81902 0.0
C514 C 0.35592 0.81538 0.91765 0.0
N515 N 0.37367 0.81045 0.86567 0.0
H516 H 0.40251 0.81506 0.7829 0.0
H517 H 0.34749 0.80946 0.96011 0.0
H518 H 0.42752 0.81243 0.94851 0.0
H519 H 0.37723 0.78526 0.04324 0.0
O520 O 0.42213 0.7949 0.8302 0.0
O521 O 0.40553 0.77691 0.87213 0.0
O522 O 0.35219 0.78672 0.9181 0.0
C523 C 0.42542 0.78281 0.84147 0.0
H524 H 0.34724 0.7684 0.64649 0.0
H525 H 0.43284 0.81419 0.09726 0.0
H526 H 0.33544 0.83194 0.96239 0.0
H527 H 0.39163 0.83754 0.78185 0.0
H528 H 0.33215 0.49646 0.21891 0.0
H529 H 0.18331 0.52418 0.25973 0.0
H530 H 0.27506 0.48353 0.38218 0.0
H531 H 0.23998 0.53668 0.09405 0.0
H532 H 0.21688 0.50955 0.30674 0.0
H533 H 0.29865 0.51116 0.17227 0.0
C534 C 0.31251 0.49663 0.24469 0.0
C535 C 0.30647 0.48871 0.30472 0.0
C536 C 0.22203 0.51552 0.26027 0.0
C537 C 0.26798 0.50569 0.25177 0.0
C538 C 0.20287 0.52393 0.23348 0.0
C539 C 0.20876 0.5317 0.17261 0.0
C540 C 0.24734 0.51481 0.22603 0.0
C541 C 0.2345 0.53091 0.14108 0.0
C542 C 0.29339 0.50508 0.21812 0.0
C543 C 0.28064 0.48941 0.33575 0.0
N544 N 0.25278 0.52259 0.16795 0.0
N545 N 0.26241 0.49777 0.30912 0.0
H546 H 0.07644 0.7639 0.16319 0.0
H547 H 0.93481 0.76039 0.37377 0.0
H548 H 0.04378 0.72926 0.24942 0.0
H549 H 0.96771 0.79498 0.28749 0.0
H550 H 0.97463 0.74885 0.32965 0.0
H551 H 0.03672 0.77541 0.20806 0.0
C552 C 0.06086 0.7587 0.19132 0.0
C553 C 0.06343 0.74559 0.20245 0.0
C554 C 0.97319 0.75897 0.32051 0.0
C555 C 0.01787 0.75874 0.25447 0.0
C556 C 0.95047 0.76558 0.34586 0.0
C557 C 0.94793 0.77868 0.3344 0.0
C558 C 0.99357 0.7655 0.28325 0.0
C559 C 0.96883 0.78489 0.29768 0.0
C560 C 0.03819 0.76529 0.2171 0.0
C561 C 0.04262 0.73936 0.23946 0.0
N562 N 0.99073 0.77824 0.27334 0.0
N563 N 0.02074 0.74599 0.2642 0.0
H564 H 0.33284 0.77234 0.01697 0.0
H565 H 0.18044 0.74889 1.00205 0.0
H566 H 0.27481 0.78602 0.85877 0.0
H567 H 0.23847 0.73518 0.16015 0.0
H568 H 0.21479 0.76237 0.94827 0.0
H569 H 0.2985 0.75885 0.07071 0.0
C570 C 0.31284 0.77258 0.99371 0.0
C571 C 0.30676 0.78036 0.93306 0.0
C572 C 0.22006 0.75639 0.99458 0.0
C573 C 0.26727 0.76478 0.9943 0.0
C574 C 0.20045 0.74864 0.02528 0.0
C575 C 0.20651 0.74086 0.08592 0.0
C576 C 0.24603 0.75642 0.02463 0.0
C577 C 0.23283 0.74099 0.11345 0.0
C578 C 0.29323 0.76482 0.02438 0.0
C579 C 0.28045 0.78021 0.90547 0.0
N580 N 0.25157 0.74867 0.08277 0.0
N581 N 0.26173 0.77253 0.93613 0.0
H582 H 0.93465 0.51364 0.90951 0.0
H583 H 0.07854 0.50981 0.10649 0.0
H584 H 0.96809 0.47914 0.99545 0.0
H585 H 0.04567 0.54445 0.02075 0.0
H586 H 0.0382 0.49845 0.06584 0.0
H587 H 0.97524 0.52508 0.94831 0.0
C588 C 0.95058 0.50846 0.93622 0.0
C589 C 0.94798 0.49541 0.94924 0.0
C590 C 0.03975 0.50854 0.05595 0.0
C591 C 0.99444 0.50846 0.9942 0.0
C592 C 0.06279 0.51504 0.07931 0.0
C593 C 0.06547 0.52811 0.06712 0.0
C594 C 0.01918 0.51513 0.02 0.0
C595 C 0.04442 0.53439 0.03143 0.0
C596 C 0.97373 0.515 0.95851 0.0
C597 C 0.96923 0.48919 0.98423 0.0
N598 N 0.02218 0.52784 0.00908 0.0
N599 N 0.99152 0.49577 1.00558 0.0
H600 H 0.82283 0.50533 0.87273 0.0
H601 H 0.68939 0.51599 0.63481 0.0
H602 H 0.79237 0.47786 0.70816 0.0
H603 H 0.72545 0.54535 0.77712 0.0
H604 H 0.72583 0.50166 0.66511 0.0
H605 H 0.78628 0.51967 0.84306 0.0
C606 C 0.80836 0.50224 0.83069 0.0
C607 C 0.81068 0.49028 0.79329 0.0
C608 C 0.72585 0.51124 0.68965 0.0
C609 C 0.76867 0.50682 0.75849 0.0
C610 C 0.70499 0.51947 0.67239 0.0
C611 C 0.70428 0.53197 0.70329 0.0
C612 C 0.74624 0.51543 0.73866 0.0
C613 C 0.72512 0.53583 0.75183 0.0
C614 C 0.78753 0.5105 0.81348 0.0
C615 C 0.79142 0.48695 0.73858 0.0
N616 N 0.7452 0.52759 0.76812 0.0
N617 N 0.77123 0.49517 0.72297 0.0
H618 H 0.08308 0.26462 0.67225 0.0
H619 H 0.93848 0.26162 0.86733 0.0
H620 H 0.04846 0.23034 0.75769 0.0
H621 H 0.972 0.29604 0.78056 0.0
H622 H 0.9789 0.25011 0.82835 0.0
H623 H 0.0427 0.27634 0.7109 0.0
C624 C 0.06694 0.25954 0.69881 0.0
C625 C 0.06915 0.24647 0.71168 0.0
C626 C 0.97748 0.26018 0.81793 0.0
C627 C 0.02294 0.25985 0.75652 0.0
C628 C 0.9544 0.26678 0.84038 0.0
C629 C 0.95185 0.27982 0.8273 0.0
C630 C 0.99825 0.26666 0.78197 0.0
C631 C 0.97313 0.28599 0.79193 0.0
C632 C 0.04392 0.26625 0.72103 0.0
C633 C 0.04764 0.2404 0.74653 0.0
N634 N 0.99541 0.27935 0.7704 0.0
N635 N 0.02551 0.24713 0.76779 0.0
H636 H 0.70431 0.24973 0.15267 0.0
H637 H 0.81402 0.27567 0.86603 0.0
H638 H 0.71267 0.23659 0.92065 0.0
H639 H 0.8072 0.28977 0.09647 0.0
H640 H 0.77687 0.26129 0.88673 0.0
H641 H 0.74209 0.26421 0.1354 0.0
C642 C 0.71416 0.24981 0.09828 0.0
C643 C 0.70523 0.24188 0.03805 0.0
C644 C 0.78341 0.26752 0.93294 0.0
C645 C 0.74837 0.25853 0.01783 0.0
C646 C 0.80474 0.27576 0.92114 0.0
C647 C 0.81393 0.28395 0.97963 0.0
C648 C 0.77099 0.26738 1.00394 0.0
C649 C 0.80076 0.28367 0.04961 0.0
C650 C 0.73568 0.25812 0.08843 0.0
C651 C 0.71875 0.24247 0.96883 0.0
N652 N 0.78 0.2755 0.0599 0.0
N653 N 0.73953 0.25064 0.96069 0.0
H654 H 0.33227 0.9975 0.76148 0.0
H655 H 0.1826 0.02438 0.79686 0.0
H656 H 0.27487 0.98436 0.92331 0.0
H657 H 0.2403 0.03786 0.63694 0.0
H658 H 0.21615 1.00977 0.84421 0.0
H659 H 0.29868 0.01207 0.71394 0.0
C660 C 0.31255 0.99759 0.78677 0.0
C661 C 0.30645 0.98966 0.84669 0.0
C662 C 0.22153 0.01595 0.79894 0.0
C663 C 0.26784 1.00648 0.79265 0.0
C664 C 0.20238 0.02434 0.77195 0.0
C665 C 0.20858 0.03239 0.71266 0.0
C666 C 0.24715 0.01553 0.76645 0.0
C667 C 0.23458 0.03187 0.68276 0.0
C668 C 0.29338 1.00597 0.75968 0.0
C669 C 0.28051 0.99026 0.87704 0.0
N670 N 0.25285 0.02356 0.70978 0.0
N671 N 0.26223 0.99855 0.84988 0.0
H672 H 0.21896 0.22844 0.45525 0.0
H673 H 0.29961 0.29266 0.56226 0.0
H674 H 0.2007 0.25294 0.64852 0.0
H675 H 0.31799 0.26819 0.36897 0.0
H676 H 0.26311 0.27829 0.59436 0.0
H677 H 0.25548 0.2428 0.42301 0.0
C678 C 0.22268 0.23677 0.49122 0.0
C679 C 0.20665 0.23942 0.55491 0.0
C680 C 0.2751 0.27609 0.54477 0.0
C681 C 0.24844 0.256 0.51792 0.0
C682 C 0.29593 0.28432 0.52625 0.0
C683 C 0.31198 0.28169 0.46263 0.0
C684 C 0.27021 0.26509 0.49945 0.0
C685 C 0.30622 0.27067 0.41844 0.0
C686 C 0.24352 0.24501 0.47262 0.0
C687 C 0.21245 0.25044 0.59904 0.0
N688 N 0.28591 0.2628 0.43769 0.0
N689 N 0.23277 0.2583 0.57971 0.0
H690 H 0.93276 0.01594 0.45277 0.0
H691 H 0.07807 0.01106 0.64013 0.0
H692 H 0.96836 0.98066 0.52016 0.0
H693 H 0.04497 0.04615 0.56128 0.0
H694 H 0.03731 0.99997 0.60069 0.0
H695 H 0.97287 0.02732 0.49599 0.0
C696 C 0.949 1.01058 0.47678 0.0
C697 C 0.94721 0.99732 0.48277 0.0
C698 C 0.03889 1.01009 0.59207 0.0
C699 C 0.99322 1.0103 0.53245 0.0
C700 C 0.06218 0.01645 0.61471 0.0
C701 C 0.06496 0.02957 0.604 0.0
C702 C 0.01809 0.01687 0.55841 0.0
C703 C 0.04368 0.03603 0.57065 0.0
C704 C 0.97191 0.01709 0.50141 0.0
C705 C 0.96887 0.99089 0.51435 0.0
N706 N 0.02116 0.02962 0.54899 0.0
N707 N 0.99095 0.99743 0.53795 0.0
H708 H 0.72125 0.04452 0.31395 0.0
H709 H 0.7898 0.97617 0.23503 0.0
H710 H 0.69253 0.01689 0.14779 0.0
H711 H 0.82366 1.00563 0.38105 0.0
H712 H 0.753 0.99062 0.20581 0.0
H713 H 0.75805 0.03008 0.34282 0.0
C714 C 0.7227 0.03546 0.28332 0.0
C715 C 0.70379 0.03199 0.22796 0.0
C716 C 0.7685 0.9939 0.24429 0.0
C717 C 0.74582 0.01533 0.26112 0.0
C718 C 0.78951 0.98564 0.26109 0.0
C719 C 0.80992 0.98964 0.31071 0.0
C720 C 0.76779 1.00625 0.27756 0.0
C721 C 0.80842 1.00206 0.34264 0.0
C722 C 0.74373 0.0272 0.29983 0.0
C723 C 0.70671 0.02007 0.19036 0.0
N724 N 0.78777 1.00988 0.32563 0.0
N725 N 0.72722 0.01219 0.20771 0.0
H726 H 0.74071 0.734 0.65954 0.0
H727 H 0.77336 0.78791 0.36253 0.0
H728 H 0.68396 0.74711 0.49605 0.0
H729 H 0.83016 0.77478 0.52579 0.0
H730 H 0.74019 0.77322 0.41164 0.0
H731 H 0.77388 0.7487 0.61044 0.0
C732 C 0.73525 0.73988 0.61293 0.0
C733 C 0.70943 0.73929 0.58201 0.0
C734 C 0.75989 0.77358 0.43692 0.0
C735 C 0.74733 0.75628 0.5259 0.0
C736 C 0.77882 0.78203 0.4091 0.0
C737 C 0.80465 0.78261 0.43994 0.0
C738 C 0.76676 0.76562 0.49608 0.0
C739 C 0.81054 0.77468 0.5001 0.0
C740 C 0.7542 0.74833 0.58512 0.0
C741 C 0.70357 0.74721 0.5218 0.0
N742 N 0.7918 0.76651 0.52595 0.0
N743 N 0.7223 0.75538 0.49596 0.0
H744 H 0.43718 0.7576 0.85658 0.0
H745 H 0.57904 0.76146 0.64751 0.0
H746 H 0.46951 0.79232 0.77055 0.0
H747 H 0.54631 0.7268 0.73332 0.0
H748 H 0.53904 0.77292 0.6912 0.0
H749 H 0.47708 0.7462 0.81211 0.0
C750 C 0.45273 0.76284 0.82857 0.0
C751 C 0.45 0.77594 0.81737 0.0
C752 C 0.54056 0.7628 0.70033 0.0
C753 C 0.49578 0.76292 0.76584 0.0
C754 C 0.56338 0.75624 0.67522 0.0
C755 C 0.56602 0.74314 0.68669 0.0
C756 C 0.52019 0.75623 0.73732 0.0
C757 C 0.54512 0.73689 0.72315 0.0
C758 C 0.4755 0.75632 0.80303 0.0
C759 C 0.47078 0.78223 0.78054 0.0
N760 N 0.52313 0.74349 0.74724 0.0
N761 N 0.49277 0.77566 0.75603 0.0
H762 H 0.58193 0.50605 0.56153 0.0
H763 H 0.43655 0.51036 0.37421 0.0
H764 H 0.54592 0.54122 0.49393 0.0
H765 H 0.47033 0.47546 0.4536 0.0
H766 H 0.47716 0.52164 0.41326 0.0
H767 H 0.54202 0.49455 0.51822 0.0
C768 C 0.56564 0.51136 0.53744 0.0
C769 C 0.56726 0.52463 0.53144 0.0
C770 C 0.47576 0.51151 0.42206 0.0
C771 C 0.52144 0.5115 0.48165 0.0
C772 C 0.45256 0.50505 0.39964 0.0
C773 C 0.45001 0.49193 0.41065 0.0
C774 C 0.49668 0.50483 0.45579 0.0
C775 C 0.47142 0.48557 0.44401 0.0
C776 C 0.54284 0.50478 0.51276 0.0
C777 C 0.54553 0.53099 0.49974 0.0
N778 N 0.49383 0.49208 0.46545 0.0
N779 N 0.52354 0.52438 0.47609 0.0
H780 H 0.43624 0.25679 0.34517 0.0
H781 H 0.58215 0.26132 0.15949 0.0
H782 H 0.47073 0.29149 0.2652 0.0
H783 H 0.54849 0.22616 0.23533 0.0
H784 H 0.54139 0.27244 0.199 0.0
H785 H 0.47716 0.24536 0.30765 0.0
C786 C 0.45245 0.26202 0.32008 0.0
C787 C 0.45005 0.27512 0.30834 0.0
C788 C 0.54284 0.26229 0.20697 0.0
C789 C 0.49687 0.2621 0.26489 0.0
C790 C 0.56614 0.25592 0.18427 0.0
C791 C 0.56874 0.24278 0.19396 0.0
C792 C 0.52187 0.25551 0.23986 0.0
C793 C 0.54731 0.2363 0.22657 0.0
C794 C 0.47578 0.25548 0.29849 0.0
C795 C 0.47167 0.28139 0.27539 0.0
N796 N 0.52479 0.24272 0.24842 0.0
N797 N 0.49409 0.27483 0.25478 0.0
H798 H 0.46945 0.97572 0.99787 0.0
H799 H 0.5463 0.04267 0.02594 0.0
H800 H 0.43767 1.0108 0.91499 0.0
H801 H 0.57978 1.00772 0.10558 0.0
H802 H 0.50611 0.03109 0.98684 0.0
H803 H 0.50991 0.98714 0.03846 0.0
C804 C 0.47103 0.98581 0.98794 0.0
C805 C 0.45017 0.99231 0.95288 0.0
C806 C 0.52219 0.02593 0.01298 0.0
C807 C 0.49632 1.00545 0.99955 0.0
C808 C 0.54515 0.03255 0.03551 0.0
C809 C 0.56644 0.02615 0.06913 0.0
C810 C 0.52041 0.01278 0.02403 0.0
C811 C 0.56383 0.01303 0.07994 0.0
C812 C 0.4941 0.99233 0.01127 0.0
C813 C 0.45325 1.00539 0.94168 0.0
N814 N 0.54125 1.00677 0.05737 0.0
N815 N 0.47585 0.01152 0.965 0.0
H816 H 0.07841 0.55687 0.4601 0.0
H817 H 0.17639 0.52991 0.77429 0.0
H818 H 0.15467 0.53935 0.40865 0.0
H819 H 0.10346 0.55037 0.82576 0.0
H820 H 0.16813 0.53261 0.63994 0.0
H821 H 0.08664 0.55396 0.59387 0.0
C822 C 0.09694 0.55245 0.47671 0.0
C823 C 0.11589 0.54841 0.42249 0.0
C824 C 0.15395 0.53654 0.68063 0.0
C825 C 0.12535 0.54492 0.57638 0.0
C826 C 0.15861 0.53495 0.7574 0.0
C827 C 0.14063 0.53992 0.81164 0.0
C828 C 0.13106 0.54311 0.65762 0.0
C829 C 0.11808 0.54651 0.7863 0.0
C830 C 0.10158 0.55074 0.55332 0.0
C831 C 0.13931 0.54251 0.44791 0.0
N832 N 0.11391 0.54788 0.71123 0.0
N833 N 0.14338 0.54097 0.52289 0.0
H834 H 0.10251 0.70522 0.80681 0.0
H835 H 0.14605 0.75346 0.48887 0.0
H836 H 0.12665 0.74406 0.85538 0.0
H837 H 0.12864 0.71371 0.44292 0.0
H838 H 0.13817 0.75033 0.62252 0.0
H839 H 0.1106 0.70836 0.67308 0.0
C840 C 0.10933 0.71445 0.78948 0.0
C841 C 0.11378 0.72441 0.84283 0.0
C842 C 0.1361 0.74228 0.58322 0.0
C843 C 0.1234 0.72803 0.68904 0.0
C844 C 0.14075 0.74404 0.50659 0.0
C845 C 0.13808 0.73383 0.45385 0.0
C846 C 0.12863 0.73022 0.60783 0.0
C847 C 0.13065 0.72191 0.48093 0.0
C848 C 0.11413 0.7162 0.71293 0.0
C849 C 0.12315 0.73607 0.81663 0.0
N850 N 0.12619 0.72045 0.55585 0.0
N851 N 0.12757 0.73756 0.7417 0.0
H852 H 0.90825 0.45484 0.56459 0.0
H853 H 0.86681 0.50332 0.24651 0.0
H854 H 0.88883 0.49433 0.6128 0.0
H855 H 0.88602 0.46376 0.20064 0.0
H856 H 0.8753 0.50035 0.38009 0.0
H857 H 0.90127 0.45817 0.4312 0.0
C858 C 0.90281 0.46428 0.54737 0.0
C859 C 0.89933 0.47434 0.60071 0.0
C860 C 0.87767 0.49232 0.34085 0.0
C861 C 0.89077 0.47816 0.44666 0.0
C862 C 0.87265 0.49398 0.26436 0.0
C863 C 0.87552 0.48375 0.2118 0.0
C864 C 0.88565 0.48034 0.36545 0.0
C865 C 0.88373 0.47194 0.23868 0.0
C866 C 0.89861 0.46614 0.47081 0.0
C867 C 0.89159 0.48626 0.5742 0.0
N868 N 0.88843 0.47056 0.31352 0.0
N869 N 0.88758 0.48783 0.49913 0.0
H870 H 0.86834 0.28662 0.15734 0.0
H871 H 0.91667 0.30208 0.58122 0.0
H872 H 0.9381 0.30915 0.21304 0.0
H873 H 0.84467 0.2813 0.52425 0.0
H874 H 0.92589 0.30412 0.44686 0.0
H875 H 0.8611 0.28336 0.29148 0.0
C876 C 0.88239 0.29073 0.19761 0.0
C877 C 0.90384 0.29821 0.17372 0.0
C878 C 0.90808 0.2991 0.46382 0.0
C879 C 0.89536 0.29471 0.32788 0.0
C880 C 0.90268 0.29802 0.54068 0.0
C881 C 0.87983 0.2915 0.56445 0.0
C882 C 0.89051 0.29363 0.41012 0.0
C883 C 0.86269 0.28626 0.50887 0.0
C884 C 0.87809 0.28896 0.27439 0.0
C885 C 0.92111 0.30346 0.22888 0.0
N886 N 0.86838 0.28744 0.43451 0.0
N887 N 0.91645 0.30165 0.30328 0.0
H888 H 0.14732 0.0207 0.31419 0.0
H889 H 0.10571 0.06929 0.99635 0.0
H890 H 0.13125 0.0606 0.35992 0.0
H891 H 0.12853 0.03026 0.94759 0.0
H892 H 0.11349 0.06607 0.13004 0.0
H893 H 0.13954 0.02387 0.18054 0.0
C894 C 0.14233 0.03016 0.2964 0.0
C895 C 0.14002 0.04041 0.34905 0.0
C896 C 0.1168 0.0582 0.09016 0.0
C897 C 0.13071 0.04405 0.19516 0.0
C898 C 0.11217 0.06001 0.01365 0.0
C899 C 0.11635 0.05002 0.96028 0.0
C900 C 0.12562 0.04629 0.114 0.0
C901 C 0.12526 0.03827 0.98639 0.0
C902 C 0.13774 0.03194 0.2198 0.0
C903 C 0.13297 0.05238 0.32196 0.0
N904 N 0.12953 0.03673 0.06132 0.0
N905 N 0.12858 0.05386 0.24707 0.0
H906 H 0.10884 0.2052 0.32822 0.0
H907 H 0.14935 0.25381 0.00979 0.0
H908 H 0.12787 0.24471 0.37638 0.0
H909 H 0.13122 0.21414 0.96425 0.0
H910 H 0.14103 0.25081 0.14346 0.0
H911 H 0.11586 0.20853 0.1948 0.0
C912 C 0.1142 0.21464 0.31096 0.0
C913 C 0.11754 0.22472 0.36428 0.0
C914 C 0.13886 0.24275 0.10426 0.0
C915 C 0.12615 0.22854 0.21023 0.0
C916 C 0.14379 0.24443 0.02771 0.0
C917 C 0.14116 0.23418 0.97521 0.0
C918 C 0.13122 0.23073 0.12898 0.0
C919 C 0.1333 0.22234 1.00222 0.0
C920 C 0.11843 0.2165 0.2344 0.0
C921 C 0.1252 0.23664 0.33777 0.0
N922 N 0.12868 0.22094 0.07711 0.0
N923 N 0.12923 0.23822 0.26269 0.0
H924 H 0.87168 0.99336 0.12074 0.0
H925 H 0.89947 0.9646 0.70454 0.0
H926 H 0.93199 0.9649 0.07131 0.0
H927 H 0.84794 0.99679 0.75475 0.0
H928 H 0.91042 0.96378 0.83868 0.0
H929 H 0.86118 0.99387 0.98669 0.0
C930 C 0.88267 0.98718 0.08173 0.0
C931 C 0.90273 0.97906 0.10739 0.0
C932 C 0.89668 0.971 0.82009 0.0
C933 C 0.89092 0.97965 0.95341 0.0
C934 C 0.89048 0.9715 0.74342 0.0
C935 C 0.87265 0.98075 0.7178 0.0
C936 C 0.88493 0.97978 0.87158 0.0
C937 C 0.86139 0.98934 0.77137 0.0
C938 C 0.87677 0.98753 1.00505 0.0
C939 C 0.91659 0.97141 0.05393 0.0
N940 N 0.86771 0.98864 0.84544 0.0
N941 N 0.91037 0.97185 0.97948 0.0
H942 H 0.86743 0.7705 0.04415 0.0
H943 H 0.90673 0.81953 0.72641 0.0
H944 H 0.88095 0.81061 0.09003 0.0
H945 H 0.8849 0.7804 0.67749 0.0
H946 H 0.899 0.81624 0.86016 0.0
H947 H 0.87486 0.77381 0.91052 0.0
C948 C 0.87177 0.78003 0.02643 0.0
C949 C 0.87348 0.79029 0.07915 0.0
C950 C 0.89589 0.80836 0.82023 0.0
C951 C 0.88243 0.7941 0.92518 0.0
C952 C 0.90049 0.81021 0.7437 0.0
C953 C 0.89658 0.80021 0.69028 0.0
C954 C 0.8874 0.7964 0.84401 0.0
C955 C 0.88795 0.78841 0.71634 0.0
C956 C 0.87617 0.78189 0.9498 0.0
C957 C 0.87971 0.80237 0.05205 0.0
N958 N 0.88374 0.78683 0.79126 0.0
N959 N 0.88396 0.80392 0.97713 0.0
H960 H 0.58023 0.55708 0.94266 0.0
H961 H 0.66899 0.52553 0.26074 0.0
H962 H 0.64415 0.53035 0.89639 0.0
H963 H 0.61405 0.5565 0.30874 0.0
H964 H 0.65871 0.52677 0.12778 0.0
H965 H 0.5905 0.55639 0.07734 0.0
C966 C 0.59632 0.55101 0.9608 0.0
C967 C 0.61134 0.54375 0.90802 0.0
C968 C 0.64894 0.53333 0.16727 0.0
C969 C 0.62332 0.54299 0.06201 0.0
C970 C 0.65495 0.5327 0.24367 0.0
C971 C 0.64255 0.54099 0.29684 0.0
C972 C 0.63022 0.54226 0.14313 0.0
C973 C 0.62398 0.54984 0.27031 0.0
C974 C 0.60229 0.5507 0.03764 0.0
C975 C 0.63224 0.53622 0.93476 0.0
N976 N 0.61836 0.55023 0.19534 0.0
N977 N 0.63754 0.53601 0.00978 0.0
H978 H 0.64653 0.75145 0.9776 0.0
H979 H 0.6076 0.70233 0.29521 0.0
H980 H 0.63323 0.71133 0.93166 0.0
H981 H 0.62913 0.7415 0.34429 0.0
H982 H 0.6153 0.70565 0.16148 0.0
H983 H 0.63916 0.74813 0.11126 0.0
C984 C 0.64225 0.74192 0.99532 0.0
C985 C 0.64058 0.73166 0.94258 0.0
C986 C 0.61836 0.71353 0.20144 0.0
C987 C 0.6317 0.72783 0.09655 0.0
C988 C 0.61377 0.71166 0.27796 0.0
C989 C 0.61761 0.72166 0.33142 0.0
C990 C 0.62676 0.72551 0.17771 0.0
C991 C 0.62614 0.73348 0.30541 0.0
C992 C 0.63788 0.74004 0.07195 0.0
C993 C 0.63443 0.71957 0.96965 0.0
N994 N 0.63034 0.73508 0.23049 0.0
N995 N 0.63021 0.71801 0.04457 0.0
H996 H 0.40917 0.45186 0.01959 0.0
H997 H 0.36807 0.50059 0.70198 0.0
H998 H 0.38656 0.4909 0.06864 0.0
H999 H 0.3837 0.46065 0.65615 0.0
H1000 H 0.37575 0.49738 0.83565 0.0
H1001 H 0.40143 0.45512 0.88593 0.0
C1002 C 0.40276 0.46116 1.00236 0.0
C1003 C 0.39864 0.47113 0.0558 0.0
C1004 C 0.37748 0.48931 0.79636 0.0
C1005 C 0.38941 0.47491 0.90211 0.0
C1006 C 0.37295 0.49111 0.71974 0.0
C1007 C 0.37517 0.48087 0.66706 0.0
C1008 C 0.38437 0.47717 0.82096 0.0
C1009 C 0.38205 0.46887 0.69413 0.0
C1010 C 0.39816 0.46299 0.92586 0.0
C1011 C 0.38979 0.4829 0.02977 0.0
N1012 N 0.3864 0.46737 0.76902 0.0
N1013 N 0.38555 0.48447 0.95486 0.0
H1014 H 0.37017 0.2673 1.00825 0.0
H1015 H 0.40859 0.31632 0.69006 0.0
H1016 H 0.38694 0.3071 0.054 0.0
H1017 H 0.3913 0.27663 0.64169 0.0
H1018 H 0.40173 0.3129 0.82344 0.0
H1019 H 0.37827 0.2704 0.87455 0.0
C1020 C 0.37539 0.27672 0.99036 0.0
C1021 C 0.37771 0.28698 0.04293 0.0
C1022 C 0.39951 0.30491 0.78381 0.0
C1023 C 0.38739 0.29055 0.88915 0.0
C1024 C 0.40365 0.30683 0.70726 0.0
C1025 C 0.40075 0.29673 0.6539 0.0
C1026 C 0.39233 0.2928 0.80791 0.0
C1027 C 0.39361 0.28473 0.68034 0.0
C1028 C 0.38019 0.27846 0.9138 0.0
C1029 C 0.38512 0.2989 0.01597 0.0
N1030 N 0.38967 0.2831 0.75541 0.0
N1031 N 0.38962 0.30035 0.94109 0.0
H1032 H 0.62566 0.02662 0.40565 0.0
H1033 H 0.628 0.0586 0.82245 0.0
H1034 H 0.60526 0.06588 0.45733 0.0
H1035 H 0.64831 0.01926 0.77316 0.0
H1036 H 0.61872 0.06127 0.68878 0.0
H1037 H 0.6336 0.02357 0.53996 0.0
C1038 C 0.62282 0.0346 0.44497 0.0
C1039 C 0.61465 0.04652 0.41968 0.0
C1040 C 0.62522 0.05205 0.70721 0.0
C1041 C 0.62362 0.04308 0.5738 0.0
C1042 C 0.6304 0.0505 0.78373 0.0
C1043 C 0.63905 0.03869 0.80944 0.0
C1044 C 0.62864 0.04171 0.65573 0.0
C1045 C 0.64211 0.02859 0.75611 0.0
C1046 C 0.62727 0.03284 0.52178 0.0
C1047 C 0.61107 0.05646 0.47377 0.0
N1048 N 0.63693 0.03033 0.68195 0.0
N1049 N 0.61562 0.05453 0.54797 0.0
H1050 H 0.57678 0.21683 0.80612 0.0
H1051 H 0.67388 0.24391 0.49073 0.0
H1052 H 0.6462 0.23982 0.85721 0.0
H1053 H 0.60236 0.22243 0.43936 0.0
H1054 H 0.66228 0.24387 0.62448 0.0
H1055 H 0.58363 0.22032 0.67186 0.0
C1056 C 0.59331 0.22273 0.78912 0.0
C1057 C 0.61104 0.22795 0.84317 0.0
C1058 C 0.649 0.23923 0.584 0.0
C1059 C 0.61919 0.23193 0.68896 0.0
C1060 C 0.65571 0.23919 0.50746 0.0
C1061 C 0.63925 0.23304 0.45337 0.0
C1062 C 0.62568 0.23303 0.60726 0.0
C1063 C 0.61563 0.22732 0.47867 0.0
C1064 C 0.59722 0.22473 0.71237 0.0
C1065 C 0.63193 0.23566 0.8178 0.0
N1066 N 0.6097 0.22736 0.55368 0.0
N1067 N 0.6356 0.23729 0.74259 0.0
H1068 H 0.40796 0.95233 0.56099 0.0
H1069 H 0.36888 1.00145 0.24356 0.0
H1070 H 0.38671 0.99155 0.61014 0.0
H1071 H 0.38258 0.96136 0.19761 0.0
H1072 H 0.37634 0.99815 0.3772 0.0
H1073 H 0.40028 0.95566 0.42734 0.0
C1074 C 0.40186 0.96168 0.54378 0.0
C1075 C 0.3981 0.97169 0.59725 0.0
C1076 C 0.37769 0.99007 0.33789 0.0
C1077 C 0.38896 0.97554 0.44359 0.0
C1078 C 0.37328 0.99193 0.26128 0.0
C1079 C 0.37503 0.98167 0.20856 0.0
C1080 C 0.384 0.97786 0.36246 0.0
C1081 C 0.38132 0.9696 0.2356 0.0
C1082 C 0.39729 0.96355 0.4673 0.0
C1083 C 0.38965 0.98353 0.57126 0.0
N1084 N 0.38558 0.96804 0.31049 0.0
N1085 N 0.38545 0.98513 0.49637 0.0
H1086 H 0.41034 0.81623 0.21256 0.0
H1087 H 0.36755 0.76784 0.53046 0.0
H1088 H 0.38674 0.77732 0.16397 0.0
H1089 H 0.38436 0.80765 0.57645 0.0
H1090 H 0.37536 0.77101 0.39681 0.0
H1091 H 0.40231 0.81307 0.34629 0.0
C1092 C 0.40365 0.80699 0.22989 0.0
C1093 C 0.39933 0.79701 0.17654 0.0
C1094 C 0.37732 0.77906 0.43612 0.0
C1095 C 0.38979 0.79336 0.33032 0.0
C1096 C 0.37271 0.77728 0.51274 0.0
C1097 C 0.37522 0.78749 0.5655 0.0
C1098 C 0.3846 0.79114 0.41152 0.0
C1099 C 0.38247 0.79944 0.53843 0.0
C1100 C 0.39889 0.80521 0.30644 0.0
C1101 C 0.39013 0.78532 0.20273 0.0
N1102 N 0.3869 0.80092 0.46352 0.0
N1103 N 0.38574 0.78381 0.27765 0.0
H1104 H 0.15928 0.60417 0.24331 0.0
H1105 H 0.15637 0.66935 0.0204 0.0
H1106 H 0.15543 0.60583 1.00082 0.0
H1107 H 0.15505 0.66777 0.26318 0.0
H1108 H 0.16043 0.64617 0.01222 0.0
H1109 H 0.16219 0.6274 0.25153 0.0
C1110 C 0.15943 0.60938 0.19167 0.0
C1111 C 0.157 0.60297 0.12121 0.0
C1112 C 0.15941 0.65089 0.06733 0.0
C1113 C 0.15996 0.6297 0.13037 0.0
C1114 C 0.1573 0.66417 0.07211 0.0
C1115 C 0.15529 0.67059 0.14265 0.0
C1116 C 0.15956 0.6439 0.13355 0.0
C1117 C 0.15617 0.66325 0.20754 0.0
C1118 C 0.16088 0.62269 0.19647 0.0
C1119 C 0.15689 0.61033 0.05641 0.0
N1120 N 0.15814 0.65034 0.20141 0.0
N1121 N 0.15823 0.62326 0.06257 0.0
H1122 H 0.84031 0.42174 0.7992 0.0
H1123 H 0.84354 0.35316 0.98115 0.0
H1124 H 0.86314 0.41655 0.03032 0.0
H1125 H 0.86505 0.35868 0.74916 0.0
H1126 H 0.83881 0.37635 0.99996 0.0
H1127 H 0.83735 0.39847 0.78034 0.0
C1128 C 0.84414 0.4157 0.84631 0.0
C1129 C 0.85191 0.42102 0.91645 0.0
C1130 C 0.84428 0.37245 0.9448 0.0
C1131 C 0.84848 0.39453 0.89545 0.0
C1132 C 0.84681 0.35926 0.9339 0.0
C1133 C 0.85471 0.35404 0.86351 0.0
C1134 C 0.84913 0.38046 0.88446 0.0
C1135 C 0.85902 0.36235 0.80433 0.0
C1136 C 0.84266 0.40246 0.83537 0.0
C1137 C 0.85706 0.41279 0.97545 0.0
N1138 N 0.85609 0.37516 0.81603 0.0
N1139 N 0.85519 0.39994 0.96372 0.0
H1140 H 0.15534 0.10432 0.78923 0.0
H1141 H 0.18095 0.17037 0.58668 0.0
H1142 H 0.16496 0.10675 0.54848 0.0
H1143 H 0.14399 0.16782 0.80529 0.0
H1144 H 0.18385 0.147 0.57819 0.0
H1145 H 0.15967 0.1275 0.80191 0.0
C1146 C 0.15875 0.10971 0.7391 0.0
C1147 C 0.15977 0.10356 0.66763 0.0
C1148 C 0.17534 0.15157 0.62828 0.0
C1149 C 0.16466 0.13017 0.68183 0.0
C1150 C 0.1739 0.1649 0.63343 0.0
C1151 C 0.16215 0.17103 0.6967 0.0
C1152 C 0.16532 0.14434 0.68733 0.0
C1153 C 0.15303 0.16347 0.75529 0.0
C1154 C 0.16102 0.12296 0.74636 0.0
C1155 C 0.16383 0.1111 0.60458 0.0
N1156 N 0.15479 0.15055 0.74919 0.0
N1157 N 0.16615 0.12399 0.61312 0.0
H1158 H 0.87445 0.91931 0.28021 0.0
H1159 H 0.84975 0.85563 0.50236 0.0
H1160 H 0.84311 0.91979 0.50671 0.0
H1161 H 0.86161 0.85632 0.26142 0.0
H1162 H 0.84655 0.87889 0.5063 0.0
H1163 H 0.86965 0.89617 0.27317 0.0
C1164 C 0.86637 0.91452 0.32836 0.0
C1165 C 0.85928 0.92148 0.39426 0.0
C1166 C 0.84962 0.87393 0.45252 0.0
C1167 C 0.85396 0.89487 0.387 0.0
C1168 C 0.8513 0.8606 0.45006 0.0
C1169 C 0.85621 0.85389 0.38145 0.0
C1170 C 0.85307 0.88066 0.38605 0.0
C1171 C 0.85842 0.86101 0.31592 0.0
C1172 C 0.86357 0.9013 0.32429 0.0
C1173 C 0.84871 0.91479 0.45473 0.0
N1174 N 0.85707 0.87394 0.31999 0.0
N1175 N 0.84667 0.90183 0.45003 0.0
H1176 H 0.65297 0.66584 0.76243 0.0
H1177 H 0.67159 0.60192 0.50744 0.0
H1178 H 0.66402 0.6661 0.52108 0.0
H1179 H 0.63967 0.60295 0.73341 0.0
H1180 H 0.67646 0.62523 0.51558 0.0
H1181 H 0.6555 0.64264 0.7565 0.0
C1182 C 0.65598 0.66105 0.70809 0.0
C1183 C 0.65792 0.66804 0.64204 0.0
C1184 C 0.66857 0.62033 0.56351 0.0
C1185 C 0.6612 0.6413 0.63508 0.0
C1186 C 0.66596 0.60703 0.55907 0.0
C1187 C 0.65504 0.60049 0.61966 0.0
C1188 C 0.66054 0.62711 0.62939 0.0
C1189 C 0.64788 0.60761 0.68502 0.0
C1190 C 0.65752 0.64777 0.70484 0.0
C1191 C 0.66254 0.66121 0.57363 0.0
N1192 N 0.65072 0.62048 0.68808 0.0
N1193 N 0.66386 0.64823 0.57187 0.0
H1194 H 0.35152 0.4147 0.47272 0.0
H1195 H 0.37296 0.35298 0.20776 0.0
H1196 H 0.36006 0.41643 0.23134 0.0
H1197 H 0.33773 0.35107 0.42892 0.0
H1198 H 0.36939 0.37624 0.21614 0.0
H1199 H 0.34766 0.39144 0.45978 0.0
C1200 C 0.35242 0.41019 0.41698 0.0
C1201 C 0.35611 0.41754 0.35302 0.0
C1202 C 0.36213 0.37075 0.26253 0.0
C1203 C 0.35195 0.39091 0.33785 0.0
C1204 C 0.36419 0.35747 0.25777 0.0
C1205 C 0.35562 0.35009 0.31773 0.0
C1206 C 0.35192 0.37675 0.3284 0.0
C1207 C 0.34438 0.3564 0.3812 0.0
C1208 C 0.35009 0.39693 0.4096 0.0
C1209 C 0.35698 0.41118 0.28213 0.0
N1210 N 0.34319 0.36938 0.38534 0.0
N1211 N 0.35522 0.39825 0.27655 0.0
H1212 H 0.6574 0.16805 0.01651 0.0
H1213 H 0.67823 0.10097 0.21057 0.0
H1214 H 0.66279 0.1647 0.25771 0.0
H1215 H 0.64374 0.10481 0.98991 0.0
H1216 H 0.68121 0.12432 0.22383 0.0
H1217 H 0.66068 0.14489 1.00142 0.0
C1218 C 0.65958 0.16245 0.06633 0.0
C1219 C 0.65985 0.16835 0.13854 0.0
C1220 C 0.67322 0.12003 0.17229 0.0
C1221 C 0.66356 0.14175 0.12153 0.0
C1222 C 0.67177 0.10673 0.16442 0.0
C1223 C 0.66071 0.10098 0.09906 0.0
C1224 C 0.66395 0.1276 0.11387 0.0
C1225 C 0.65229 0.10888 0.04133 0.0
C1226 C 0.66128 0.14922 0.05765 0.0
C1227 C 0.66231 0.16055 0.20107 0.0
N1228 N 0.65408 0.12176 0.05005 0.0
N1229 N 0.66414 0.14766 0.19115 0.0
H1230 H 0.35619 0.85192 0.99884 0.0
H1231 H 0.35478 0.91714 0.77654 0.0
H1232 H 0.35795 0.85356 0.7561 0.0
H1233 H 0.35692 0.91543 0.01919 0.0
H1234 H 0.35157 0.89392 0.76797 0.0
H1235 H 0.35215 0.87509 1.00719 0.0
C1236 C 0.35535 0.85711 0.94717 0.0
C1237 C 0.3575 0.85071 0.87659 0.0
C1238 C 0.35256 0.89862 0.82314 0.0
C1239 C 0.35326 0.8774 0.88591 0.0
C1240 C 0.35417 0.91192 0.82813 0.0
C1241 C 0.35622 0.9183 0.89875 0.0
C1242 C 0.35296 0.8916 0.88921 0.0
C1243 C 0.35577 0.91094 0.96349 0.0
C1244 C 0.35325 0.87039 0.95204 0.0
C1245 C 0.35674 0.85806 0.81177 0.0
N1246 N 0.3543 0.89801 0.95715 0.0
N1247 N 0.35479 0.87098 0.818 0.0
loop_
_geom_bond_atom_site_label_1
_geom_bond_atom_site_label_2
_geom_bond_distance
_geom_bond_site_symmetry_2
_ccdc_geom_bond_type
Co0 N4 2.148 . S
Co0 N10 2.128 . S
Co0 N20 2.194 . S
Co0 O25 2.351 . S
Co0 O26 2.155 . S
Co0 O27 2.096 . S
C1 N4 1.301 1_556 S
C1 N5 1.328 . S
C1 H6 0.930 . S
C2 C3 1.333 . S
C2 N4 1.317 1_556 S
C2 H7 0.930 1_556 S
C3 C2 1.333 . S
C3 N5 1.350 . S
C3 H29 0.931 . S
N4 Co0 2.148 . S
N4 C1 1.301 1_554 S
N4 C2 1.317 1_554 S
N5 C1 1.328 . S
N5 C3 1.350 . S
H6 C1 0.930 . S
H7 C2 0.930 1_554 S
C8 O9 1.224 . S
C8 O27 1.247 . S
O9 C8 1.224 . S
N10 Co0 2.128 . S
N10 C11 1.355 . S
N10 C13 1.311 . S
C11 N10 1.355 . S
C11 C12 1.363 . S
C11 H23 0.929 . S
C12 C11 1.363 . S
C12 N14 1.375 . S
C12 H30 0.931 . S
C13 N10 1.311 . S
C13 N14 1.347 . S
C13 H24 0.929 . S
N14 C12 1.375 . S
N14 C13 1.347 . S
C15 C18 1.365 . S
C15 N20 1.328 . S
C15 H21 0.929 . S
C16 C17 1.362 . S
C16 C19 1.378 . S
C16 H31 0.929 . S
C17 C16 1.362 . S
C17 C18 1.366 . S
C18 C15 1.365 . S
C18 C17 1.366 . S
C18 H32 0.930 . S
C19 C16 1.378 . S
C19 N20 1.315 . S
C19 H22 0.930 . S
N20 Co0 2.194 . S
N20 C15 1.328 . S
N20 C19 1.315 . S
H21 C15 0.929 . S
H22 C19 0.930 . S
H23 C11 0.929 . S
H24 C13 0.929 . S
O25 Co0 2.351 . S
O25 C28 1.244 . S
O26 Co0 2.155 . S
O26 C28 1.240 . S
O27 Co0 2.096 . S
O27 C8 1.247 . S
C28 O25 1.244 . S
C28 O26 1.240 . S
H29 C3 0.931 . S
H30 C12 0.931 . S
H31 C16 0.929 . S
H32 C18 0.930 . S
Co33 N37 2.148 . S
Co33 N43 2.128 . S
Co33 N53 2.194 . S
Co33 O58 2.351 . S
Co33 O59 2.155 . S
Co33 O60 2.096 . S
C34 N37 1.301 . S
C34 N38 1.328 . S
C34 H39 0.930 . S
C35 C36 1.333 . S
C35 N37 1.317 . S
C35 H40 0.930 . S
C36 C35 1.333 . S
C36 N38 1.350 . S
C36 H62 0.931 . S
N37 Co33 2.148 . S
N37 C34 1.301 . S
N37 C35 1.317 . S
N38 C34 1.328 . S
N38 C36 1.350 . S
H39 C34 0.930 . S
H40 C35 0.930 . S
C41 O42 1.224 . S
C41 O60 1.247 . S
O42 C41 1.224 . S
N43 Co33 2.128 . S
N43 C44 1.355 1_554 S
N43 C46 1.311 1_554 S
C44 N43 1.355 1_556 S
C44 C45 1.363 . S
C44 H56 0.929 1_556 S
C45 C44 1.363 . S
C45 N47 1.375 . S
C45 H63 0.931 . S
C46 N43 1.311 1_556 S
C46 N47 1.347 . S
C46 H57 0.929 . S
N47 C45 1.375 . S
N47 C46 1.347 . S
C48 C51 1.365 . S
C48 N53 1.328 . S
C48 H54 0.929 . S
C49 C50 1.362 . S
C49 C52 1.378 . S
C49 H64 0.929 . S
C50 C49 1.362 . S
C50 C51 1.366 . S
C51 C48 1.365 . S
C51 C50 1.366 . S
C51 H65 0.930 . S
C52 C49 1.378 . S
C52 N53 1.315 . S
C52 H55 0.930 . S
N53 Co33 2.194 . S
N53 C48 1.328 . S
N53 C52 1.315 . S
H54 C48 0.929 . S
H55 C52 0.930 . S
H56 C44 0.929 1_554 S
H57 C46 0.929 . S
O58 Co33 2.351 . S
O58 C61 1.244 . S
O59 Co33 2.155 . S
O59 C61 1.240 . S
O60 Co33 2.096 . S
O60 C41 1.247 . S
C61 O58 1.244 . S
C61 O59 1.240 . S
H62 C36 0.931 . S
H63 C45 0.931 . S
H64 C49 0.929 . S
H65 C51 0.930 . S
Co66 N70 2.148 . S
Co66 N76 2.128 . S
Co66 N86 2.194 . S
Co66 O91 2.351 . S
Co66 O92 2.155 . S
Co66 O93 2.096 . S
C67 N70 1.301 1_554 S
C67 N71 1.328 . S
C67 H72 0.930 . S
C68 C69 1.333 . S
C68 N70 1.317 1_554 S
C68 H73 0.930 1_554 S
C69 C68 1.333 . S
C69 N71 1.350 . S
C69 H95 0.931 . S
N70 Co66 2.148 . S
N70 C67 1.301 1_556 S
N70 C68 1.317 1_556 S
N71 C67 1.328 . S
N71 C69 1.350 . S
H72 C67 0.930 . S
H73 C68 0.930 1_556 S
C74 O75 1.224 . S
C74 O93 1.247 . S
O75 C74 1.224 . S
N76 Co66 2.128 . S
N76 C77 1.355 . S
N76 C79 1.311 . S
C77 N76 1.355 . S
C77 C78 1.363 . S
C77 H89 0.929 . S
C78 C77 1.363 . S
C78 N80 1.375 . S
C78 H96 0.931 . S
C79 N76 1.311 . S
C79 N80 1.347 . S
C79 H90 0.929 . S
N80 C78 1.375 . S
N80 C79 1.347 . S
C81 C84 1.365 . S
C81 N86 1.328 . S
C81 H87 0.929 . S
C82 C83 1.362 . S
C82 C85 1.378 . S
C82 H97 0.929 . S
C83 C82 1.362 . S
C83 C84 1.366 . S
C84 C81 1.365 . S
C84 C83 1.366 . S
C84 H98 0.930 . S
C85 C82 1.378 . S
C85 N86 1.315 . S
C85 H88 0.930 . S
N86 Co66 2.194 . S
N86 C81 1.328 . S
N86 C85 1.315 . S
H87 C81 0.929 . S
H88 C85 0.930 . S
H89 C77 0.929 . S
H90 C79 0.929 . S
O91 Co66 2.351 . S
O91 C94 1.244 . S
O92 Co66 2.155 . S
O92 C94 1.240 . S
O93 Co66 2.096 . S
O93 C74 1.247 . S
C94 O91 1.244 . S
C94 O92 1.240 . S
H95 C69 0.931 . S
H96 C78 0.931 . S
H97 C82 0.929 . S
H98 C84 0.930 . S
Co99 N103 2.148 . S
Co99 N109 2.128 . S
Co99 N119 2.194 . S
Co99 O124 2.351 . S
Co99 O125 2.155 . S
Co99 O126 2.096 . S
C100 N103 1.301 . S
C100 N104 1.328 . S
C100 H105 0.930 . S
C101 C102 1.333 . S
C101 N103 1.317 . S
C101 H106 0.930 . S
C102 C101 1.333 . S
C102 N104 1.350 . S
C102 H128 0.931 . S
N103 Co99 2.148 . S
N103 C100 1.301 . S
N103 C101 1.317 . S
N104 C100 1.328 . S
N104 C102 1.350 . S
H105 C100 0.930 . S
H106 C101 0.930 . S
C107 O108 1.224 . S
C107 O126 1.247 . S
O108 C107 1.224 . S
N109 Co99 2.128 . S
N109 C110 1.355 1_556 S
N109 C112 1.311 1_556 S
C110 N109 1.355 1_554 S
C110 C111 1.363 . S
C110 H122 0.929 1_554 S
C111 C110 1.363 . S
C111 N113 1.375 . S
C111 H129 0.931 . S
C112 N109 1.311 1_554 S
C112 N113 1.347 . S
C112 H123 0.929 . S
N113 C111 1.375 . S
N113 C112 1.347 . S
C114 C117 1.365 . S
C114 N119 1.328 . S
C114 H120 0.929 . S
C115 C116 1.362 . S
C115 C118 1.378 . S
C115 H130 0.929 . S
C116 C115 1.362 . S
C116 C117 1.366 . S
C117 C114 1.365 . S
C117 C116 1.366 . S
C117 H131 0.930 . S
C118 C115 1.378 . S
C118 N119 1.315 . S
C118 H121 0.930 . S
N119 Co99 2.194 . S
N119 C114 1.328 . S
N119 C118 1.315 . S
H120 C114 0.929 . S
H121 C118 0.930 . S
H122 C110 0.929 1_556 S
H123 C112 0.929 . S
O124 Co99 2.351 . S
O124 C127 1.244 . S
O125 Co99 2.155 . S
O125 C127 1.240 . S
O126 Co99 2.096 . S
O126 C107 1.247 . S
C127 O124 1.244 . S
C127 O125 1.240 . S
H128 C102 0.931 . S
H129 C111 0.931 . S
H130 C115 0.929 . S
H131 C117 0.930 . S
Co132 N136 2.148 . S
Co132 N142 2.128 . S
Co132 N152 2.194 . S
Co132 O157 2.351 . S
Co132 O158 2.155 . S
Co132 O159 2.096 . S
C133 N136 1.301 . S
C133 N137 1.328 . S
C133 H138 0.930 . S
C134 C135 1.333 . S
C134 N136 1.317 . S
C134 H139 0.930 . S
C135 C134 1.333 . S
C135 N137 1.350 . S
C135 H161 0.931 . S
N136 Co132 2.148 . S
N136 C133 1.301 . S
N136 C134 1.317 . S
N137 C133 1.328 . S
N137 C135 1.350 . S
H138 C133 0.930 . S
H139 C134 0.930 . S
C140 O141 1.224 . S
C140 O159 1.247 . S
O141 C140 1.224 . S
N142 Co132 2.128 . S
N142 C143 1.355 . S
N142 C145 1.311 . S
C143 N142 1.355 . S
C143 C144 1.363 . S
C143 H155 0.929 . S
C144 C143 1.363 . S
C144 N146 1.375 . S
C144 H162 0.931 . S
C145 N142 1.311 . S
C145 N146 1.347 . S
C145 H156 0.929 . S
N146 C144 1.375 . S
N146 C145 1.347 . S
C147 C150 1.365 . S
C147 N152 1.328 . S
C147 H153 0.929 . S
C148 C149 1.362 . S
C148 C151 1.378 . S
C148 H163 0.929 . S
C149 C148 1.362 . S
C149 C150 1.366 . S
C150 C147 1.365 . S
C150 C149 1.366 . S
C150 H164 0.930 . S
C151 C148 1.378 . S
C151 N152 1.315 . S
C151 H154 0.930 . S
N152 Co132 2.194 . S
N152 C147 1.328 . S
N152 C151 1.315 . S
H153 C147 0.929 . S
H154 C151 0.930 . S
H155 C143 0.929 . S
H156 C145 0.929 . S
O157 Co132 2.351 . S
O157 C160 1.244 . S
O158 Co132 2.155 . S
O158 C160 1.240 . S
O159 Co132 2.096 . S
O159 C140 1.247 . S
C160 O157 1.244 . S
C160 O158 1.240 . S
H161 C135 0.931 . S
H162 C144 0.931 . S
H163 C148 0.929 . S
H164 C150 0.930 . S
Co165 N169 2.148 . S
Co165 N175 2.128 . S
Co165 N185 2.194 . S
Co165 O190 2.351 . S
Co165 O191 2.155 . S
Co165 O192 2.096 . S
C166 N169 1.301 . S
C166 N170 1.328 . S
C166 H171 0.930 . S
C167 C168 1.333 . S
C167 N169 1.317 . S
C167 H172 0.930 . S
C168 C167 1.333 . S
C168 N170 1.350 . S
C168 H194 0.931 . S
N169 Co165 2.148 . S
N169 C166 1.301 . S
N169 C167 1.317 . S
N170 C166 1.328 . S
N170 C168 1.350 . S
H171 C166 0.930 . S
H172 C167 0.930 . S
C173 O174 1.224 . S
C173 O192 1.247 . S
O174 C173 1.224 . S
N175 Co165 2.128 . S
N175 C176 1.355 . S
N175 C178 1.311 . S
C176 N175 1.355 . S
C176 C177 1.363 . S
C176 H188 0.929 . S
C177 C176 1.363 . S
C177 N179 1.375 . S
C177 H195 0.931 . S
C178 N175 1.311 . S
C178 N179 1.347 . S
C178 H189 0.929 . S
N179 C177 1.375 . S
N179 C178 1.347 . S
C180 C183 1.365 . S
C180 N185 1.328 . S
C180 H186 0.929 . S
C181 C182 1.362 . S
C181 C184 1.378 . S
C181 H196 0.929 . S
C182 C181 1.362 . S
C182 C183 1.366 . S
C183 C180 1.365 . S
C183 C182 1.366 . S
C183 H197 0.930 . S
C184 C181 1.378 . S
C184 N185 1.315 . S
C184 H187 0.930 . S
N185 Co165 2.194 . S
N185 C180 1.328 . S
N185 C184 1.315 . S
H186 C180 0.929 . S
H187 C184 0.930 . S
H188 C176 0.929 . S
H189 C178 0.929 . S
O190 Co165 2.351 . S
O190 C193 1.244 . S
O191 Co165 2.155 . S
O191 C193 1.240 . S
O192 Co165 2.096 . S
O192 C173 1.247 . S
C193 O190 1.244 . S
C193 O191 1.240 . S
H194 C168 0.931 . S
H195 C177 0.931 . S
H196 C181 0.929 . S
H197 C183 0.930 . S
Co198 N202 2.148 . S
Co198 N208 2.128 . S
Co198 N218 2.194 . S
Co198 O223 2.351 . S
Co198 O224 2.155 . S
Co198 O225 2.096 . S
C199 N202 1.301 . S
C199 N203 1.328 . S
C199 H204 0.930 . S
C200 C201 1.333 . S
C200 N202 1.317 . S
C200 H205 0.930 . S
C201 C200 1.333 . S
C201 N203 1.350 . S
C201 H227 0.931 . S
N202 Co198 2.148 . S
N202 C199 1.301 . S
N202 C200 1.317 . S
N203 C199 1.328 . S
N203 C201 1.350 . S
H204 C199 0.930 . S
H205 C200 0.930 . S
C206 O207 1.224 . S
C206 O225 1.247 . S
O207 C206 1.224 . S
N208 Co198 2.128 . S
N208 C209 1.355 . S
N208 C211 1.311 . S
C209 N208 1.355 . S
C209 C210 1.363 . S
C209 H221 0.929 . S
C210 C209 1.363 . S
C210 N212 1.375 . S
C210 H228 0.931 . S
C211 N208 1.311 . S
C211 N212 1.347 . S
C211 H222 0.929 . S
N212 C210 1.375 . S
N212 C211 1.347 . S
C213 C216 1.365 . S
C213 N218 1.328 . S
C213 H219 0.929 . S
C214 C215 1.362 . S
C214 C217 1.378 . S
C214 H229 0.929 . S
C215 C214 1.362 . S
C215 C216 1.366 . S
C216 C213 1.365 . S
C216 C215 1.366 . S
C216 H230 0.930 . S
C217 C214 1.378 . S
C217 N218 1.315 . S
C217 H220 0.930 . S
N218 Co198 2.194 . S
N218 C213 1.328 . S
N218 C217 1.315 . S
H219 C213 0.929 . S
H220 C217 0.930 . S
H221 C209 0.929 . S
H222 C211 0.929 . S
O223 Co198 2.351 . S
O223 C226 1.244 . S
O224 Co198 2.155 . S
O224 C226 1.240 . S
O225 Co198 2.096 . S
O225 C206 1.247 . S
C226 O223 1.244 . S
C226 O224 1.240 . S
H227 C201 0.931 . S
H228 C210 0.931 . S
H229 C214 0.929 . S
H230 C216 0.930 . S
Co231 N235 2.148 . S
Co231 N241 2.128 . S
Co231 N251 2.194 . S
Co231 O256 2.351 . S
Co231 O257 2.155 . S
Co231 O258 2.096 . S
C232 N235 1.301 . S
C232 N236 1.328 . S
C232 H237 0.930 . S
C233 C234 1.333 . S
C233 N235 1.317 . S
C233 H238 0.930 . S
C234 C233 1.333 . S
C234 N236 1.350 . S
C234 H260 0.931 . S
N235 Co231 2.148 . S
N235 C232 1.301 . S
N235 C233 1.317 . S
N236 C232 1.328 . S
N236 C234 1.350 . S
H237 C232 0.930 . S
H238 C233 0.930 . S
C239 O240 1.224 . S
C239 O258 1.247 . S
O240 C239 1.224 . S
N241 Co231 2.128 . S
N241 C242 1.355 . S
N241 C244 1.311 . S
C242 N241 1.355 . S
C242 C243 1.363 . S
C242 H254 0.929 . S
C243 C242 1.363 . S
C243 N245 1.375 . S
C243 H261 0.931 . S
C244 N241 1.311 . S
C244 N245 1.347 . S
C244 H255 0.929 . S
N245 C243 1.375 . S
N245 C244 1.347 . S
C246 C249 1.365 . S
C246 N251 1.328 . S
C246 H252 0.929 . S
C247 C248 1.362 . S
C247 C250 1.378 . S
C247 H262 0.929 . S
C248 C247 1.362 . S
C248 C249 1.366 . S
C249 C246 1.365 . S
C249 C248 1.366 . S
C249 H263 0.930 . S
C250 C247 1.378 . S
C250 N251 1.315 . S
C250 H253 0.930 . S
N251 Co231 2.194 . S
N251 C246 1.328 . S
N251 C250 1.315 . S
H252 C246 0.929 . S
H253 C250 0.930 . S
H254 C242 0.929 . S
H255 C244 0.929 . S
O256 Co231 2.351 . S
O256 C259 1.244 . S
O257 Co231 2.155 . S
O257 C259 1.240 . S
O258 Co231 2.096 . S
O258 C239 1.247 . S
C259 O256 1.244 . S
C259 O257 1.240 . S
H260 C234 0.931 . S
H261 C243 0.931 . S
H262 C247 0.929 . S
H263 C249 0.930 . S
Co264 N268 2.148 . S
Co264 N274 2.128 . S
Co264 N284 2.194 . S
Co264 O289 2.351 . S
Co264 O290 2.155 . S
Co264 O291 2.096 . S
C265 N268 1.301 . S
C265 N269 1.328 . S
C265 H270 0.930 . S
C266 C267 1.333 . S
C266 N268 1.317 . S
C266 H271 0.930 . S
C267 C266 1.333 . S
C267 N269 1.350 . S
C267 H293 0.931 . S
N268 Co264 2.148 . S
N268 C265 1.301 . S
N268 C266 1.317 . S
N269 C265 1.328 . S
N269 C267 1.350 . S
H270 C265 0.930 . S
H271 C266 0.930 . S
C272 O273 1.224 . S
C272 O291 1.247 . S
O273 C272 1.224 . S
N274 Co264 2.128 . S
N274 C275 1.355 . S
N274 C277 1.311 . S
C275 N274 1.355 . S
C275 C276 1.363 . S
C275 H287 0.929 . S
C276 C275 1.363 . S
C276 N278 1.375 . S
C276 H294 0.931 . S
C277 N274 1.311 . S
C277 N278 1.347 . S
C277 H288 0.929 . S
N278 C276 1.375 . S
N278 C277 1.347 . S
C279 C282 1.365 . S
C279 N284 1.328 . S
C279 H285 0.929 . S
C280 C281 1.362 . S
C280 C283 1.378 . S
C280 H295 0.929 . S
C281 C280 1.362 . S
C281 C282 1.366 . S
C282 C279 1.365 . S
C282 C281 1.366 . S
C282 H296 0.930 . S
C283 C280 1.378 . S
C283 N284 1.315 . S
C283 H286 0.930 . S
N284 Co264 2.194 . S
N284 C279 1.328 . S
N284 C283 1.315 . S
H285 C279 0.929 . S
H286 C283 0.930 . S
H287 C275 0.929 . S
H288 C277 0.929 . S
O289 Co264 2.351 . S
O289 C292 1.244 . S
O290 Co264 2.155 . S
O290 C292 1.240 . S
O291 Co264 2.096 . S
O291 C272 1.247 . S
C292 O289 1.244 . S
C292 O290 1.240 . S
H293 C267 0.931 . S
H294 C276 0.931 . S
H295 C280 0.929 . S
H296 C282 0.930 . S
Co297 N301 2.148 . S
Co297 N307 2.128 . S
Co297 N317 2.194 . S
Co297 O322 2.351 . S
Co297 O323 2.155 . S
Co297 O324 2.096 . S
C298 N301 1.301 . S
C298 N302 1.328 . S
C298 H303 0.930 . S
C299 C300 1.333 . S
C299 N301 1.317 . S
C299 H304 0.930 . S
C300 C299 1.333 . S
C300 N302 1.350 . S
C300 H326 0.931 . S
N301 Co297 2.148 . S
N301 C298 1.301 . S
N301 C299 1.317 . S
N302 C298 1.328 . S
N302 C300 1.350 . S
H303 C298 0.930 . S
H304 C299 0.930 . S
C305 O306 1.224 . S
C305 O324 1.247 . S
O306 C305 1.224 . S
N307 Co297 2.128 . S
N307 C308 1.355 . S
N307 C310 1.311 . S
C308 N307 1.355 . S
C308 C309 1.363 . S
C308 H320 0.929 . S
C309 C308 1.363 . S
C309 N311 1.375 . S
C309 H327 0.931 . S
C310 N307 1.311 . S
C310 N311 1.347 . S
C310 H321 0.929 . S
N311 C309 1.375 . S
N311 C310 1.347 . S
C312 C315 1.365 . S
C312 N317 1.328 . S
C312 H318 0.929 . S
C313 C314 1.362 . S
C313 C316 1.378 . S
C313 H328 0.929 . S
C314 C313 1.362 . S
C314 C315 1.366 . S
C315 C312 1.365 . S
C315 C314 1.366 . S
C315 H329 0.930 . S
C316 C313 1.378 . S
C316 N317 1.315 . S
C316 H319 0.930 . S
N317 Co297 2.194 . S
N317 C312 1.328 . S
N317 C316 1.315 . S
H318 C312 0.929 . S
H319 C316 0.930 . S
H320 C308 0.929 . S
H321 C310 0.929 . S
O322 Co297 2.351 . S
O322 C325 1.244 . S
O323 Co297 2.155 . S
O323 C325 1.240 . S
O324 Co297 2.096 . S
O324 C305 1.247 . S
C325 O322 1.244 . S
C325 O323 1.240 . S
H326 C300 0.931 . S
H327 C309 0.931 . S
H328 C313 0.929 . S
H329 C315 0.930 . S
Co330 N334 2.148 . S
Co330 N340 2.128 . S
Co330 N350 2.194 . S
Co330 O355 2.351 . S
Co330 O356 2.155 . S
Co330 O357 2.096 . S
C331 N334 1.301 . S
C331 N335 1.328 . S
C331 H336 0.930 . S
C332 C333 1.333 . S
C332 N334 1.317 . S
C332 H337 0.930 . S
C333 C332 1.333 . S
C333 N335 1.350 . S
C333 H359 0.931 . S
N334 Co330 2.148 . S
N334 C331 1.301 . S
N334 C332 1.317 . S
N335 C331 1.328 . S
N335 C333 1.350 . S
H336 C331 0.930 . S
H337 C332 0.930 . S
C338 O339 1.224 . S
C338 O357 1.247 . S
O339 C338 1.224 . S
N340 Co330 2.128 . S
N340 C341 1.355 . S
N340 C343 1.311 . S
C341 N340 1.355 . S
C341 C342 1.363 . S
C341 H353 0.929 . S
C342 C341 1.363 . S
C342 N344 1.375 . S
C342 H360 0.931 . S
C343 N340 1.311 . S
C343 N344 1.347 . S
C343 H354 0.929 . S
N344 C342 1.375 . S
N344 C343 1.347 . S
C345 C348 1.365 . S
C345 N350 1.328 . S
C345 H351 0.929 . S
C346 C347 1.362 . S
C346 C349 1.378 . S
C346 H361 0.929 . S
C347 C346 1.362 . S
C347 C348 1.366 . S
C348 C345 1.365 . S
C348 C347 1.366 . S
C348 H362 0.930 . S
C349 C346 1.378 . S
C349 N350 1.315 . S
C349 H352 0.930 . S
N350 Co330 2.194 . S
N350 C345 1.328 . S
N350 C349 1.315 . S
H351 C345 0.929 . S
H352 C349 0.930 . S
H353 C341 0.929 . S
H354 C343 0.929 . S
O355 Co330 2.351 . S
O355 C358 1.244 . S
O356 Co330 2.155 . S
O356 C358 1.240 . S
O357 Co330 2.096 . S
O357 C338 1.247 . S
C358 O355 1.244 . S
C358 O356 1.240 . S
H359 C333 0.931 . S
H360 C342 0.931 . S
H361 C346 0.929 . S
H362 C348 0.930 . S
Co363 N367 2.148 . S
Co363 N373 2.128 . S
Co363 N383 2.194 . S
Co363 O388 2.351 . S
Co363 O389 2.155 . S
Co363 O390 2.096 . S
C364 N367 1.301 . S
C364 N368 1.328 . S
C364 H369 0.930 . S
C365 C366 1.333 . S
C365 N367 1.317 . S
C365 H370 0.930 . S
C366 C365 1.333 . S
C366 N368 1.350 . S
C366 H392 0.931 . S
N367 Co363 2.148 . S
N367 C364 1.301 . S
N367 C365 1.317 . S
N368 C364 1.328 . S
N368 C366 1.350 . S
H369 C364 0.930 . S
H370 C365 0.930 . S
C371 O372 1.224 . S
C371 O390 1.247 . S
O372 C371 1.224 . S
N373 Co363 2.128 . S
N373 C374 1.355 . S
N373 C376 1.311 . S
C374 N373 1.355 . S
C374 C375 1.363 . S
C374 H386 0.929 . S
C375 C374 1.363 . S
C375 N377 1.375 . S
C375 H393 0.931 . S
C376 N373 1.311 . S
C376 N377 1.347 . S
C376 H387 0.929 . S
N377 C375 1.375 . S
N377 C376 1.347 . S
C378 C381 1.365 . S
C378 N383 1.328 . S
C378 H384 0.929 . S
C379 C380 1.362 . S
C379 C382 1.378 . S
C379 H394 0.929 . S
C380 C379 1.362 . S
C380 C381 1.366 . S
C381 C378 1.365 . S
C381 C380 1.366 . S
C381 H395 0.930 . S
C382 C379 1.378 . S
C382 N383 1.315 . S
C382 H385 0.930 . S
N383 Co363 2.194 . S
N383 C378 1.328 . S
N383 C382 1.315 . S
H384 C378 0.929 . S
H385 C382 0.930 . S
H386 C374 0.929 . S
H387 C376 0.929 . S
O388 Co363 2.351 . S
O388 C391 1.244 . S
O389 Co363 2.155 . S
O389 C391 1.240 . S
O390 Co363 2.096 . S
O390 C371 1.247 . S
C391 O388 1.244 . S
C391 O389 1.240 . S
H392 C366 0.931 . S
H393 C375 0.931 . S
H394 C379 0.929 . S
H395 C381 0.930 . S
Co396 N400 2.148 . S
Co396 N406 2.128 . S
Co396 N416 2.194 . S
Co396 O421 2.351 . S
Co396 O422 2.155 . S
Co396 O423 2.096 . S
C397 N400 1.301 1_556 S
C397 N401 1.328 . S
C397 H402 0.930 . S
C398 C399 1.333 . S
C398 N400 1.317 1_556 S
C398 H403 0.930 1_556 S
C399 C398 1.333 . S
C399 N401 1.350 . S
C399 H425 0.931 . S
N400 Co396 2.148 . S
N400 C397 1.301 1_554 S
N400 C398 1.317 1_554 S
N401 C397 1.328 . S
N401 C399 1.350 . S
H402 C397 0.930 . S
H403 C398 0.930 1_554 S
C404 O405 1.224 . S
C404 O423 1.247 . S
O405 C404 1.224 . S
N406 Co396 2.128 . S
N406 C407 1.355 . S
N406 C409 1.311 . S
C407 N406 1.355 . S
C407 C408 1.363 . S
C407 H419 0.929 . S
C408 C407 1.363 . S
C408 N410 1.375 . S
C408 H426 0.931 . S
C409 N406 1.311 . S
C409 N410 1.347 . S
C409 H420 0.929 . S
N410 C408 1.375 . S
N410 C409 1.347 . S
C411 C414 1.365 . S
C411 N416 1.328 . S
C411 H417 0.929 . S
C412 C413 1.362 . S
C412 C415 1.378 . S
C412 H427 0.929 . S
C413 C412 1.362 . S
C413 C414 1.366 . S
C414 C411 1.365 . S
C414 C413 1.366 . S
C414 H428 0.930 . S
C415 C412 1.378 . S
C415 N416 1.315 . S
C415 H418 0.930 . S
N416 Co396 2.194 . S
N416 C411 1.328 . S
N416 C415 1.315 . S
H417 C411 0.929 . S
H418 C415 0.930 . S
H419 C407 0.929 . S
H420 C409 0.929 . S
O421 Co396 2.351 . S
O421 C424 1.244 . S
O422 Co396 2.155 . S
O422 C424 1.240 . S
O423 Co396 2.096 . S
O423 C404 1.247 . S
C424 O421 1.244 . S
C424 O422 1.240 . S
H425 C399 0.931 . S
H426 C408 0.931 . S
H427 C412 0.929 . S
H428 C414 0.930 . S
Co429 N433 2.148 . S
Co429 N439 2.128 . S
Co429 N449 2.194 . S
Co429 O454 2.351 . S
Co429 O455 2.155 . S
Co429 O456 2.096 . S
C430 N433 1.301 . S
C430 N434 1.328 . S
C430 H435 0.930 . S
C431 C432 1.333 . S
C431 N433 1.317 . S
C431 H436 0.930 . S
C432 C431 1.333 . S
C432 N434 1.350 . S
C432 H458 0.931 . S
N433 Co429 2.148 . S
N433 C430 1.301 . S
N433 C431 1.317 . S
N434 C430 1.328 . S
N434 C432 1.350 . S
H435 C430 0.930 . S
H436 C431 0.930 . S
C437 O438 1.224 . S
C437 O456 1.247 . S
O438 C437 1.224 . S
N439 Co429 2.128 . S
N439 C440 1.355 1_554 S
N439 C442 1.311 1_554 S
C440 N439 1.355 1_556 S
C440 C441 1.363 . S
C440 H452 0.929 1_556 S
C441 C440 1.363 . S
C441 N443 1.375 . S
C441 H459 0.931 . S
C442 N439 1.311 1_556 S
C442 N443 1.347 . S
C442 H453 0.929 . S
N443 C441 1.375 . S
N443 C442 1.347 . S
C444 C447 1.365 . S
C444 N449 1.328 . S
C444 H450 0.929 . S
C445 C446 1.362 . S
C445 C448 1.378 . S
C445 H460 0.929 . S
C446 C445 1.362 . S
C446 C447 1.366 . S
C447 C444 1.365 . S
C447 C446 1.366 . S
C447 H461 0.930 . S
C448 C445 1.378 . S
C448 N449 1.315 . S
C448 H451 0.930 . S
N449 Co429 2.194 . S
N449 C444 1.328 . S
N449 C448 1.315 . S
H450 C444 0.929 . S
H451 C448 0.930 . S
H452 C440 0.929 1_554 S
H453 C442 0.929 . S
O454 Co429 2.351 . S
O454 C457 1.244 . S
O455 Co429 2.155 . S
O455 C457 1.240 . S
O456 Co429 2.096 . S
O456 C437 1.247 . S
C457 O454 1.244 . S
C457 O455 1.240 . S
H458 C432 0.931 . S
H459 C441 0.931 . S
H460 C445 0.929 . S
H461 C447 0.930 . S
Co462 N466 2.148 . S
Co462 N472 2.128 . S
Co462 N482 2.194 . S
Co462 O487 2.351 . S
Co462 O488 2.155 . S
Co462 O489 2.096 . S
C463 N466 1.301 1_554 S
C463 N467 1.328 . S
C463 H468 0.930 . S
C464 C465 1.333 . S
C464 N466 1.317 1_554 S
C464 H469 0.930 1_554 S
C465 C464 1.333 . S
C465 N467 1.350 . S
C465 H491 0.931 . S
N466 Co462 2.148 . S
N466 C463 1.301 1_556 S
N466 C464 1.317 1_556 S
N467 C463 1.328 . S
N467 C465 1.350 . S
H468 C463 0.930 . S
H469 C464 0.930 1_556 S
C470 O471 1.224 . S
C470 O489 1.247 . S
O471 C470 1.224 . S
N472 Co462 2.128 . S
N472 C473 1.355 . S
N472 C475 1.311 . S
C473 N472 1.355 . S
C473 C474 1.363 . S
C473 H485 0.929 . S
C474 C473 1.363 . S
C474 N476 1.375 . S
C474 H492 0.931 . S
C475 N472 1.311 . S
C475 N476 1.347 . S
C475 H486 0.929 . S
N476 C474 1.375 . S
N476 C475 1.347 . S
C477 C480 1.365 . S
C477 N482 1.328 . S
C477 H483 0.929 . S
C478 C479 1.362 . S
C478 C481 1.378 . S
C478 H493 0.929 . S
C479 C478 1.362 . S
C479 C480 1.366 . S
C480 C477 1.365 . S
C480 C479 1.366 . S
C480 H494 0.930 . S
C481 C478 1.378 . S
C481 N482 1.315 . S
C481 H484 0.930 . S
N482 Co462 2.194 . S
N482 C477 1.328 . S
N482 C481 1.315 . S
H483 C477 0.929 . S
H484 C481 0.930 . S
H485 C473 0.929 . S
H486 C475 0.929 . S
O487 Co462 2.351 . S
O487 C490 1.244 . S
O488 Co462 2.155 . S
O488 C490 1.240 . S
O489 Co462 2.096 . S
O489 C470 1.247 . S
C490 O487 1.244 . S
C490 O488 1.240 . S
H491 C465 0.931 . S
H492 C474 0.931 . S
H493 C478 0.929 . S
H494 C480 0.930 . S
Co495 N499 2.148 . S
Co495 N505 2.128 . S
Co495 N515 2.194 . S
Co495 O520 2.351 . S
Co495 O521 2.155 . S
Co495 O522 2.096 . S
C496 N499 1.301 . S
C496 N500 1.328 . S
C496 H501 0.930 . S
C497 C498 1.333 . S
C497 N499 1.317 . S
C497 H502 0.930 . S
C498 C497 1.333 . S
C498 N500 1.350 . S
C498 H524 0.931 . S
N499 Co495 2.148 . S
N499 C496 1.301 . S
N499 C497 1.317 . S
N500 C496 1.328 . S
N500 C498 1.350 . S
H501 C496 0.930 . S
H502 C497 0.930 . S
C503 O504 1.224 . S
C503 O522 1.247 . S
O504 C503 1.224 . S
N505 Co495 2.128 . S
N505 C506 1.355 1_556 S
N505 C508 1.311 1_556 S
C506 N505 1.355 1_554 S
C506 C507 1.363 . S
C506 H518 0.929 1_554 S
C507 C506 1.363 . S
C507 N509 1.375 . S
C507 H525 0.931 . S
C508 N505 1.311 1_554 S
C508 N509 1.347 . S
C508 H519 0.929 . S
N509 C507 1.375 . S
N509 C508 1.347 . S
C510 C513 1.365 . S
C510 N515 1.328 . S
C510 H516 0.929 . S
C511 C512 1.362 . S
C511 C514 1.378 . S
C511 H526 0.929 . S
C512 C511 1.362 . S
C512 C513 1.366 . S
C513 C510 1.365 . S
C513 C512 1.366 . S
C513 H527 0.930 . S
C514 C511 1.378 . S
C514 N515 1.315 . S
C514 H517 0.930 . S
N515 Co495 2.194 . S
N515 C510 1.328 . S
N515 C514 1.315 . S
H516 C510 0.929 . S
H517 C514 0.930 . S
H518 C506 0.929 1_556 S
H519 C508 0.929 . S
O520 Co495 2.351 . S
O520 C523 1.244 . S
O521 Co495 2.155 . S
O521 C523 1.240 . S
O522 Co495 2.096 . S
O522 C503 1.247 . S
C523 O520 1.244 . S
C523 O521 1.240 . S
H524 C498 0.931 . S
H525 C507 0.931 . S
H526 C511 0.929 . S
H527 C513 0.930 . S
H528 C534 0.930 . S
H529 C538 0.930 . S
H530 C543 0.929 . S
H531 C541 0.929 . S
H532 C536 0.929 . S
H533 C542 0.929 . S
C534 H528 0.930 . S
C534 C535 1.367 . S
C534 C542 1.378 . S
C535 C534 1.367 . S
C535 C543 1.433 . S
C536 H532 0.929 . S
C536 C538 1.378 . S
C536 C540 1.350 . S
C537 C540 1.463 . S
C537 C542 1.350 . S
C537 N545 1.427 . S
C538 H529 0.930 . S
C538 C536 1.378 . S
C538 C539 1.367 . S
C539 C538 1.367 . S
C539 C541 1.433 . S
C540 C536 1.350 . S
C540 C537 1.463 . S
C540 N544 1.427 . S
C541 H531 0.929 . S
C541 C539 1.433 . S
C541 N544 1.384 . S
C542 H533 0.929 . S
C542 C534 1.378 . S
C542 C537 1.350 . S
C543 H530 0.929 . S
C543 C535 1.433 . S
C543 N545 1.384 . S
N544 C540 1.427 . S
N544 C541 1.384 . S
N545 C537 1.427 . S
N545 C543 1.384 . S
H546 C552 0.930 . S
H547 C556 0.930 . S
H548 C561 0.929 . S
H549 C559 0.929 . S
H550 C554 0.929 . S
H551 C560 0.929 . S
C552 H546 0.930 . S
C552 C553 1.367 . S
C552 C560 1.378 . S
C553 C552 1.367 . S
C553 C561 1.433 . S
C554 H550 0.929 . S
C554 C556 1.378 . S
C554 C558 1.350 . S
C555 C558 1.463 1_455 S
C555 C560 1.350 . S
C555 N563 1.427 . S
C556 H547 0.930 . S
C556 C554 1.378 . S
C556 C557 1.367 . S
C557 C556 1.367 . S
C557 C559 1.433 . S
C558 C554 1.350 . S
C558 C555 1.463 1_655 S
C558 N562 1.427 . S
C559 H549 0.929 . S
C559 C557 1.433 . S
C559 N562 1.384 . S
C560 H551 0.929 . S
C560 C552 1.378 . S
C560 C555 1.350 . S
C561 H548 0.929 . S
C561 C553 1.433 . S
C561 N563 1.384 . S
N562 C558 1.427 . S
N562 C559 1.384 . S
N563 C555 1.427 . S
N563 C561 1.384 . S
H564 C570 0.930 . S
H565 C574 0.930 . S
H566 C579 0.929 1_554 S
H567 C577 0.929 1_556 S
H568 C572 0.929 . S
H569 C578 0.929 . S
C570 H564 0.930 . S
C570 C571 1.367 . S
C570 C578 1.378 . S
C571 C570 1.367 . S
C571 C579 1.433 . S
C572 H568 0.929 . S
C572 C574 1.378 . S
C572 C576 1.350 . S
C573 C576 1.463 1_556 S
C573 C578 1.350 . S
C573 N581 1.427 1_556 S
C574 H565 0.930 . S
C574 C572 1.378 . S
C574 C575 1.367 . S
C575 C574 1.367 . S
C575 C577 1.433 . S
C576 C572 1.350 . S
C576 C573 1.463 1_554 S
C576 N580 1.427 1_554 S
C577 H567 0.929 1_554 S
C577 C575 1.433 . S
C577 N580 1.384 1_554 S
C578 H569 0.929 . S
C578 C570 1.378 . S
C578 C573 1.350 . S
C579 H566 0.929 1_556 S
C579 C571 1.433 . S
C579 N581 1.384 1_556 S
N580 C576 1.427 1_556 S
N580 C577 1.384 1_556 S
N581 C573 1.427 1_554 S
N581 C579 1.384 1_554 S
H582 C588 0.930 . S
H583 C592 0.930 . S
H584 C597 0.929 . S
H585 C595 0.929 . S
H586 C590 0.929 . S
H587 C596 0.929 . S
C588 H582 0.930 . S
C588 C589 1.367 . S
C588 C596 1.378 . S
C589 C588 1.367 . S
C589 C597 1.433 1_556 S
C590 H586 0.929 . S
C590 C592 1.378 . S
C590 C594 1.350 . S
C591 C594 1.463 1_656 S
C591 C596 1.350 . S
C591 N599 1.427 1_556 S
C592 H583 0.930 . S
C592 C590 1.378 . S
C592 C593 1.367 . S
C593 C592 1.367 . S
C593 C595 1.433 1_554 S
C594 C590 1.350 . S
C594 C591 1.463 1_454 S
C594 N598 1.427 1_554 S
C595 H585 0.929 . S
C595 C593 1.433 1_556 S
C595 N598 1.384 . S
C596 H587 0.929 . S
C596 C588 1.378 . S
C596 C591 1.350 . S
C597 H584 0.929 . S
C597 C589 1.433 1_554 S
C597 N599 1.384 . S
N598 C594 1.427 1_556 S
N598 C595 1.384 . S
N599 C591 1.427 1_554 S
N599 C597 1.384 . S
H600 C606 0.930 . S
H601 C610 0.930 . S
H602 C615 0.929 . S
H603 C613 0.929 . S
H604 C608 0.929 . S
H605 C614 0.929 . S
C606 H600 0.930 . S
C606 C607 1.367 . S
C606 C614 1.378 . S
C607 C606 1.367 . S
C607 C615 1.433 . S
C608 H604 0.929 . S
C608 C610 1.378 . S
C608 C612 1.350 . S
C609 C612 1.463 . S
C609 C614 1.350 . S
C609 N617 1.427 . S
C610 H601 0.930 . S
C610 C608 1.378 . S
C610 C611 1.367 . S
C611 C610 1.367 . S
C611 C613 1.433 . S
C612 C608 1.350 . S
C612 C609 1.463 . S
C612 N616 1.427 . S
C613 H603 0.929 . S
C613 C611 1.433 . S
C613 N616 1.384 . S
C614 H605 0.929 . S
C614 C606 1.378 . S
C614 C609 1.350 . S
C615 H602 0.929 . S
C615 C607 1.433 . S
C615 N617 1.384 . S
N616 C612 1.427 . S
N616 C613 1.384 . S
N617 C609 1.427 . S
N617 C615 1.384 . S
H618 C624 0.930 . S
H619 C628 0.930 . S
H620 C633 0.929 . S
H621 C631 0.929 . S
H622 C626 0.929 . S
H623 C632 0.929 . S
C624 H618 0.930 . S
C624 C625 1.367 . S
C624 C632 1.378 . S
C625 C624 1.367 . S
C625 C633 1.433 . S
C626 H622 0.929 . S
C626 C628 1.378 . S
C626 C630 1.350 . S
C627 C630 1.463 1_455 S
C627 C632 1.350 . S
C627 N635 1.427 . S
C628 H619 0.930 . S
C628 C626 1.378 . S
C628 C629 1.367 . S
C629 C628 1.367 . S
C629 C631 1.433 . S
C630 C626 1.350 . S
C630 C627 1.463 1_655 S
C630 N634 1.427 . S
C631 H621 0.929 . S
C631 C629 1.433 . S
C631 N634 1.384 . S
C632 H623 0.929 . S
C632 C624 1.378 . S
C632 C627 1.350 . S
C633 H620 0.929 . S
C633 C625 1.433 . S
C633 N635 1.384 . S
N634 C630 1.427 . S
N634 C631 1.384 . S
N635 C627 1.427 . S
N635 C633 1.384 . S
H636 C642 0.930 . S
H637 C646 0.930 . S
H638 C651 0.929 . S
H639 C649 0.929 . S
H640 C644 0.929 . S
H641 C650 0.929 . S
C642 H636 0.930 . S
C642 C643 1.367 . S
C642 C650 1.378 . S
C643 C642 1.367 . S
C643 C651 1.433 . S
C644 H640 0.929 . S
C644 C646 1.378 . S
C644 C648 1.350 . S
C645 C648 1.463 1_554 S
C645 C650 1.350 . S
C645 N653 1.427 . S
C646 H637 0.930 . S
C646 C644 1.378 . S
C646 C647 1.367 . S
C647 C646 1.367 . S
C647 C649 1.433 . S
C648 C644 1.350 . S
C648 C645 1.463 1_556 S
C648 N652 1.427 . S
C649 H639 0.929 . S
C649 C647 1.433 . S
C649 N652 1.384 . S
C650 H641 0.929 . S
C650 C642 1.378 . S
C650 C645 1.350 . S
C651 H638 0.929 . S
C651 C643 1.433 . S
C651 N653 1.384 . S
N652 C648 1.427 . S
N652 C649 1.384 . S
N653 C645 1.427 . S
N653 C651 1.384 . S
H654 C660 0.930 . S
H655 C664 0.930 . S
H656 C669 0.929 . S
H657 C667 0.929 . S
H658 C662 1.003 . S
H659 C668 1.003 . S
C660 H654 0.930 . S
C660 C661 1.367 . S
C660 C668 1.334 1_565 S
C661 C660 1.367 . S
C661 C669 1.433 . S
C662 H658 1.003 . S
C662 C664 1.334 1_565 S
C662 C666 1.324 1_565 S
C663 C666 1.463 1_565 S
C663 C668 1.324 1_565 S
C663 N671 1.427 . S
C664 H655 0.930 . S
C664 C662 1.334 1_545 S
C664 C665 1.367 . S
C665 C664 1.367 . S
C665 C667 1.433 . S
C666 C662 1.324 1_545 S
C666 C663 1.463 1_545 S
C666 N670 1.427 . S
C667 H657 0.929 . S
C667 C665 1.433 . S
C667 N670 1.384 . S
C668 H659 1.003 . S
C668 C660 1.334 1_545 S
C668 C663 1.324 1_545 S
C669 H656 0.929 . S
C669 C661 1.433 . S
C669 N671 1.384 . S
N670 C666 1.427 . S
N670 C667 1.384 . S
N671 C663 1.427 . S
N671 C669 1.384 . S
H672 C678 0.930 . S
H673 C682 0.930 . S
H674 C687 0.929 . S
H675 C685 0.929 . S
H676 C680 0.929 . S
H677 C686 0.929 . S
C678 H672 0.930 . S
C678 C679 1.367 . S
C678 C686 1.378 . S
C679 C678 1.367 . S
C679 C687 1.433 . S
C680 H676 0.929 . S
C680 C682 1.378 . S
C680 C684 1.350 . S
C681 C684 1.463 . S
C681 C686 1.350 . S
C681 N689 1.427 . S
C682 H673 0.930 . S
C682 C680 1.378 . S
C682 C683 1.367 . S
C683 C682 1.367 . S
C683 C685 1.433 . S
C684 C680 1.350 . S
C684 C681 1.463 . S
C684 N688 1.427 . S
C685 H675 0.929 . S
C685 C683 1.433 . S
C685 N688 1.384 . S
C686 H677 0.929 . S
C686 C678 1.378 . S
C686 C681 1.350 . S
C687 H674 0.929 . S
C687 C679 1.433 . S
C687 N689 1.384 . S
N688 C684 1.427 . S
N688 C685 1.384 . S
N689 C681 1.427 . S
N689 C687 1.384 . S
H690 C696 0.930 . S
H691 C700 0.930 . S
H692 C705 0.929 . S
H693 C703 0.929 . S
H694 C698 0.930 1_565 S
H695 C704 0.930 1_545 S
C696 H690 0.930 . S
C696 C697 1.367 . S
C696 C704 1.378 . S
C697 C696 1.367 . S
C697 C705 1.433 . S
C698 H694 0.930 1_545 S
C698 C700 1.378 . S
C698 C702 1.350 . S
C699 C702 1.463 1_665 S
C699 C704 1.350 . S
C699 N707 1.427 . S
C700 H691 0.930 . S
C700 C698 1.378 . S
C700 C701 1.367 . S
C701 C700 1.367 . S
C701 C703 1.433 . S
C702 C698 1.350 . S
C702 C699 1.463 1_445 S
C702 N706 1.427 . S
C703 H693 0.929 . S
C703 C701 1.433 . S
C703 N706 1.384 . S
C704 H695 0.930 1_565 S
C704 C696 1.378 . S
C704 C699 1.350 . S
C705 H692 0.929 . S
C705 C697 1.433 . S
C705 N707 1.384 . S
N706 C702 1.427 . S
N706 C703 1.384 . S
N707 C699 1.427 . S
N707 C705 1.384 . S
H708 C714 0.930 . S
H709 C718 0.930 . S
H710 C723 0.929 . S
H711 C721 0.929 . S
H712 C716 0.929 . S
H713 C722 0.929 . S
C714 H708 0.930 . S
C714 C715 1.367 . S
C714 C722 1.378 . S
C715 C714 1.367 . S
C715 C723 1.433 . S
C716 H712 0.929 . S
C716 C718 1.378 . S
C716 C720 1.350 . S
C717 C720 1.463 1_545 S
C717 C722 1.350 . S
C717 N725 1.401 1_545 S
C718 H709 0.930 . S
C718 C716 1.378 . S
C718 C719 1.367 . S
C719 C718 1.367 . S
C719 C721 1.433 . S
C720 C716 1.350 . S
C720 C717 1.463 1_565 S
C720 N724 1.401 1_565 S
C721 H711 0.929 . S
C721 C719 1.433 . S
C721 N724 1.343 1_565 S
C722 H713 0.929 . S
C722 C714 1.378 . S
C722 C717 1.350 . S
C723 H710 0.929 . S
C723 C715 1.433 . S
C723 N725 1.343 1_545 S
N724 C720 1.401 1_545 S
N724 C721 1.343 1_545 S
N725 C717 1.401 1_565 S
N725 C723 1.343 1_565 S
H726 C732 0.930 . S
H727 C736 0.930 . S
H728 C741 0.929 . S
H729 C739 0.929 . S
H730 C734 0.929 . S
H731 C740 0.929 . S
C732 H726 0.930 . S
C732 C733 1.367 . S
C732 C740 1.378 . S
C733 C732 1.367 . S
C733 C741 1.433 . S
C734 H730 0.929 . S
C734 C736 1.378 . S
C734 C738 1.350 . S
C735 C738 1.463 . S
C735 C740 1.350 . S
C735 N743 1.427 . S
C736 H727 0.930 . S
C736 C734 1.378 . S
C736 C737 1.367 . S
C737 C736 1.367 . S
C737 C739 1.433 . S
C738 C734 1.350 . S
C738 C735 1.463 . S
C738 N742 1.427 . S
C739 H729 0.929 . S
C739 C737 1.433 . S
C739 N742 1.384 . S
C740 H731 0.929 . S
C740 C732 1.378 . S
C740 C735 1.350 . S
C741 H728 0.929 . S
C741 C733 1.433 . S
C741 N743 1.384 . S
N742 C738 1.427 . S
N742 C739 1.384 . S
N743 C735 1.427 . S
N743 C741 1.384 . S
H744 C750 0.930 . S
H745 C754 0.930 . S
H746 C759 0.929 . S
H747 C757 0.929 . S
H748 C752 0.929 . S
H749 C758 0.929 . S
C750 H744 0.930 . S
C750 C751 1.367 . S
C750 C758 1.378 . S
C751 C750 1.367 . S
C751 C759 1.433 . S
C752 H748 0.929 . S
C752 C754 1.378 . S
C752 C756 1.350 . S
C753 C756 1.463 . S
C753 C758 1.350 . S
C753 N761 1.427 . S
C754 H745 0.930 . S
C754 C752 1.378 . S
C754 C755 1.367 . S
C755 C754 1.367 . S
C755 C757 1.433 . S
C756 C752 1.350 . S
C756 C753 1.463 . S
C756 N760 1.427 . S
C757 H747 0.929 . S
C757 C755 1.433 . S
C757 N760 1.384 . S
C758 H749 0.929 . S
C758 C750 1.378 . S
C758 C753 1.350 . S
C759 H746 0.929 . S
C759 C751 1.433 . S
C759 N761 1.384 . S
N760 C756 1.427 . S
N760 C757 1.384 . S
N761 C753 1.427 . S
N761 C759 1.384 . S
H762 C768 0.930 . S
H763 C772 0.930 . S
H764 C777 0.929 . S
H765 C775 0.929 . S
H766 C770 0.929 . S
H767 C776 0.929 . S
C768 H762 0.930 . S
C768 C769 1.367 . S
C768 C776 1.378 . S
C769 C768 1.367 . S
C769 C777 1.433 . S
C770 H766 0.929 . S
C770 C772 1.378 . S
C770 C774 1.350 . S
C771 C774 1.463 . S
C771 C776 1.350 . S
C771 N779 1.427 . S
C772 H763 0.930 . S
C772 C770 1.378 . S
C772 C773 1.367 . S
C773 C772 1.367 . S
C773 C775 1.433 . S
C774 C770 1.350 . S
C774 C771 1.463 . S
C774 N778 1.427 . S
C775 H765 0.929 . S
C775 C773 1.433 . S
C775 N778 1.384 . S
C776 H767 0.929 . S
C776 C768 1.378 . S
C776 C771 1.350 . S
C777 H764 0.929 . S
C777 C769 1.433 . S
C777 N779 1.384 . S
N778 C774 1.427 . S
N778 C775 1.384 . S
N779 C771 1.427 . S
N779 C777 1.384 . S
H780 C786 0.930 . S
H781 C790 0.930 . S
H782 C795 0.929 . S
H783 C793 0.929 . S
H784 C788 0.929 . S
H785 C794 0.929 . S
C786 H780 0.930 . S
C786 C787 1.367 . S
C786 C794 1.378 . S
C787 C786 1.367 . S
C787 C795 1.433 . S
C788 H784 0.929 . S
C788 C790 1.378 . S
C788 C792 1.350 . S
C789 C792 1.463 . S
C789 C794 1.350 . S
C789 N797 1.427 . S
C790 H781 0.930 . S
C790 C788 1.378 . S
C790 C791 1.367 . S
C791 C790 1.367 . S
C791 C793 1.433 . S
C792 C788 1.350 . S
C792 C789 1.463 . S
C792 N796 1.427 . S
C793 H783 0.929 . S
C793 C791 1.433 . S
C793 N796 1.384 . S
C794 H785 0.929 . S
C794 C786 1.378 . S
C794 C789 1.350 . S
C795 H782 0.929 . S
C795 C787 1.433 . S
C795 N797 1.384 . S
N796 C792 1.427 . S
N796 C793 1.384 . S
N797 C789 1.427 . S
N797 C795 1.384 . S
H798 C804 0.930 . S
H799 C808 0.930 . S
H800 C813 0.929 . S
H801 C811 0.929 . S
H802 C806 0.929 . S
H803 C812 0.929 . S
C804 H798 0.930 . S
C804 C805 1.367 1_554 S
C804 C812 1.378 . S
C805 C804 1.367 1_556 S
C805 C813 1.433 . S
C806 H802 0.929 . S
C806 C808 1.378 . S
C806 C810 1.350 1_556 S
C807 C810 1.463 1_566 S
C807 C812 1.350 1_556 S
C807 N815 1.419 1_565 S
C808 H799 0.930 . S
C808 C806 1.378 . S
C808 C809 1.367 1_556 S
C809 C808 1.367 1_554 S
C809 C811 1.433 . S
C810 C806 1.350 1_554 S
C810 C807 1.463 1_544 S
C810 N814 1.419 1_545 S
C811 H801 0.929 . S
C811 C809 1.433 . S
C811 N814 1.371 1_545 S
C812 H803 0.929 . S
C812 C804 1.378 . S
C812 C807 1.350 1_554 S
C813 H800 0.929 . S
C813 C805 1.433 . S
C813 N815 1.371 1_565 S
N814 C810 1.419 1_565 S
N814 C811 1.371 1_565 S
N815 C807 1.419 1_545 S
N815 C813 1.371 1_545 S
H816 C822 0.930 . S
H817 C826 0.930 . S
H818 C831 0.929 . S
H819 C829 0.929 . S
H820 C824 0.929 . S
H821 C830 0.929 . S
C822 H816 0.930 . S
C822 C823 1.367 . S
C822 C830 1.378 . S
C823 C822 1.367 . S
C823 C831 1.433 . S
C824 H820 0.929 . S
C824 C826 1.378 . S
C824 C828 1.350 . S
C825 C828 1.463 . S
C825 C830 1.350 . S
C825 N833 1.427 . S
C826 H817 0.930 . S
C826 C824 1.378 . S
C826 C827 1.367 . S
C827 C826 1.367 . S
C827 C829 1.433 . S
C828 C824 1.350 . S
C828 C825 1.463 . S
C828 N832 1.427 . S
C829 H819 0.929 . S
C829 C827 1.433 . S
C829 N832 1.384 . S
C830 H821 0.929 . S
C830 C822 1.378 . S
C830 C825 1.350 . S
C831 H818 0.929 . S
C831 C823 1.433 . S
C831 N833 1.384 . S
N832 C828 1.427 . S
N832 C829 1.384 . S
N833 C825 1.427 . S
N833 C831 1.384 . S
H834 C840 0.930 . S
H835 C844 0.930 . S
H836 C849 0.929 . S
H837 C847 0.929 . S
H838 C842 0.929 . S
H839 C848 0.929 . S
C840 H834 0.930 . S
C840 C841 1.367 . S
C840 C848 1.378 . S
C841 C840 1.367 . S
C841 C849 1.433 . S
C842 H838 0.929 . S
C842 C844 1.378 . S
C842 C846 1.350 . S
C843 C846 1.463 . S
C843 C848 1.350 . S
C843 N851 1.427 . S
C844 H835 0.930 . S
C844 C842 1.378 . S
C844 C845 1.367 . S
C845 C844 1.367 . S
C845 C847 1.433 . S
C846 C842 1.350 . S
C846 C843 1.463 . S
C846 N850 1.427 . S
C847 H837 0.929 . S
C847 C845 1.433 . S
C847 N850 1.384 . S
C848 H839 0.929 . S
C848 C840 1.378 . S
C848 C843 1.350 . S
C849 H836 0.929 . S
C849 C841 1.433 . S
C849 N851 1.384 . S
N850 C846 1.427 . S
N850 C847 1.384 . S
N851 C843 1.427 . S
N851 C849 1.384 . S
H852 C858 0.930 . S
H853 C862 0.930 . S
H854 C867 0.929 . S
H855 C865 0.929 . S
H856 C860 0.929 . S
H857 C866 0.929 . S
C858 H852 0.930 . S
C858 C859 1.367 . S
C858 C866 1.378 . S
C859 C858 1.367 . S
C859 C867 1.433 . S
C860 H856 0.929 . S
C860 C862 1.378 . S
C860 C864 1.350 . S
C861 C864 1.463 . S
C861 C866 1.350 . S
C861 N869 1.427 . S
C862 H853 0.930 . S
C862 C860 1.378 . S
C862 C863 1.367 . S
C863 C862 1.367 . S
C863 C865 1.433 . S
C864 C860 1.350 . S
C864 C861 1.463 . S
C864 N868 1.427 . S
C865 H855 0.929 . S
C865 C863 1.433 . S
C865 N868 1.384 . S
C866 H857 0.929 . S
C866 C858 1.378 . S
C866 C861 1.350 . S
C867 H854 0.929 . S
C867 C859 1.433 . S
C867 N869 1.384 . S
N868 C864 1.427 . S
N868 C865 1.384 . S
N869 C861 1.427 . S
N869 C867 1.384 . S
H870 C876 0.930 . S
H871 C880 0.930 . S
H872 C885 0.929 . S
H873 C883 0.929 . S
H874 C878 0.929 . S
H875 C884 0.929 . S
C876 H870 0.930 . S
C876 C877 1.367 . S
C876 C884 1.378 . S
C877 C876 1.367 . S
C877 C885 1.433 . S
C878 H874 0.929 . S
C878 C880 1.378 . S
C878 C882 1.350 . S
C879 C882 1.463 . S
C879 C884 1.350 . S
C879 N887 1.427 . S
C880 H871 0.930 . S
C880 C878 1.378 . S
C880 C881 1.367 . S
C881 C880 1.367 . S
C881 C883 1.433 . S
C882 C878 1.350 . S
C882 C879 1.463 . S
C882 N886 1.427 . S
C883 H873 0.929 . S
C883 C881 1.433 . S
C883 N886 1.384 . S
C884 H875 0.929 . S
C884 C876 1.378 . S
C884 C879 1.350 . S
C885 H872 0.929 . S
C885 C877 1.433 . S
C885 N887 1.384 . S
N886 C882 1.427 . S
N886 C883 1.384 . S
N887 C879 1.427 . S
N887 C885 1.384 . S
H888 C894 0.930 . S
H889 C898 0.930 . S
H890 C903 0.929 . S
H891 C901 0.929 . S
H892 C896 0.929 . S
H893 C902 0.929 . S
C894 H888 0.930 . S
C894 C895 1.367 . S
C894 C902 1.378 . S
C895 C894 1.367 . S
C895 C903 1.433 . S
C896 H892 0.929 . S
C896 C898 1.378 1_554 S
C896 C900 1.350 . S
C897 C900 1.463 . S
C897 C902 1.350 . S
C897 N905 1.427 . S
C898 H889 0.930 . S
C898 C896 1.378 1_556 S
C898 C899 1.367 . S
C899 C898 1.367 . S
C899 C901 1.433 . S
C900 C896 1.350 . S
C900 C897 1.463 . S
C900 N904 1.427 . S
C901 H891 0.929 . S
C901 C899 1.433 . S
C901 N904 1.384 1_556 S
C902 H893 0.929 . S
C902 C894 1.378 . S
C902 C897 1.350 . S
C903 H890 0.929 . S
C903 C895 1.433 . S
C903 N905 1.384 . S
N904 C900 1.427 . S
N904 C901 1.384 1_554 S
N905 C897 1.427 . S
N905 C903 1.384 . S
H906 C912 0.930 . S
H907 C916 0.930 . S
H908 C921 0.929 . S
H909 C919 0.929 . S
H910 C914 0.929 . S
H911 C920 0.929 . S
C912 H906 0.930 . S
C912 C913 1.367 . S
C912 C920 1.378 . S
C913 C912 1.367 . S
C913 C921 1.433 . S
C914 H910 0.929 . S
C914 C916 1.378 1_554 S
C914 C918 1.350 . S
C915 C918 1.463 . S
C915 C920 1.350 . S
C915 N923 1.427 . S
C916 H907 0.930 . S
C916 C914 1.378 1_556 S
C916 C917 1.367 . S
C917 C916 1.367 . S
C917 C919 1.433 . S
C918 C914 1.350 . S
C918 C915 1.463 . S
C918 N922 1.427 . S
C919 H909 0.929 . S
C919 C917 1.433 . S
C919 N922 1.384 1_556 S
C920 H911 0.929 . S
C920 C912 1.378 . S
C920 C915 1.350 . S
C921 H908 0.929 . S
C921 C913 1.433 . S
C921 N923 1.384 . S
N922 C918 1.427 . S
N922 C919 1.384 1_554 S
N923 C915 1.427 . S
N923 C921 1.384 . S
H924 C930 0.930 . S
H925 C934 0.930 . S
H926 C939 0.929 . S
H927 C937 0.929 . S
H928 C932 0.929 . S
H929 C938 0.929 . S
C930 H924 0.930 . S
C930 C931 1.367 . S
C930 C938 1.378 1_554 S
C931 C930 1.367 . S
C931 C939 1.433 . S
C932 H928 0.929 . S
C932 C934 1.378 . S
C932 C936 1.350 . S
C933 C936 1.463 . S
C933 C938 1.350 . S
C933 N941 1.427 . S
C934 H925 0.930 . S
C934 C932 1.378 . S
C934 C935 1.367 . S
C935 C934 1.367 . S
C935 C937 1.433 . S
C936 C932 1.350 . S
C936 C933 1.463 . S
C936 N940 1.427 . S
C937 H927 0.929 . S
C937 C935 1.433 . S
C937 N940 1.384 . S
C938 H929 0.929 . S
C938 C930 1.378 1_556 S
C938 C933 1.350 . S
C939 H926 0.929 . S
C939 C931 1.433 . S
C939 N941 1.384 1_554 S
N940 C936 1.427 . S
N940 C937 1.384 . S
N941 C933 1.427 . S
N941 C939 1.384 1_556 S
H942 C948 0.930 . S
H943 C952 0.930 . S
H944 C957 0.929 . S
H945 C955 0.929 . S
H946 C950 0.929 . S
H947 C956 0.929 . S
C948 H942 0.930 . S
C948 C949 1.367 . S
C948 C956 1.378 1_554 S
C949 C948 1.367 . S
C949 C957 1.433 . S
C950 H946 0.929 . S
C950 C952 1.378 . S
C950 C954 1.350 . S
C951 C954 1.463 . S
C951 C956 1.350 . S
C951 N959 1.427 . S
C952 H943 0.930 . S
C952 C950 1.378 . S
C952 C953 1.367 . S
C953 C952 1.367 . S
C953 C955 1.433 . S
C954 C950 1.350 . S
C954 C951 1.463 . S
C954 N958 1.427 . S
C955 H945 0.929 . S
C955 C953 1.433 . S
C955 N958 1.384 . S
C956 H947 0.929 . S
C956 C948 1.378 1_556 S
C956 C951 1.350 . S
C957 H944 0.929 . S
C957 C949 1.433 . S
C957 N959 1.384 1_554 S
N958 C954 1.427 . S
N958 C955 1.384 . S
N959 C951 1.427 . S
N959 C957 1.384 1_556 S
H960 C966 0.930 . S
H961 C970 0.930 . S
H962 C975 0.929 . S
H963 C973 0.929 . S
H964 C968 0.929 . S
H965 C974 0.929 . S
C966 H960 0.930 . S
C966 C967 1.367 . S
C966 C974 1.378 1_556 S
C967 C966 1.367 . S
C967 C975 1.433 . S
C968 H964 0.929 . S
C968 C970 1.378 . S
C968 C972 1.350 . S
C969 C972 1.463 . S
C969 C974 1.350 . S
C969 N977 1.427 . S
C970 H961 0.930 . S
C970 C968 1.378 . S
C970 C971 1.367 . S
C971 C970 1.367 . S
C971 C973 1.433 . S
C972 C968 1.350 . S
C972 C969 1.463 . S
C972 N976 1.427 . S
C973 H963 0.929 . S
C973 C971 1.433 . S
C973 N976 1.384 . S
C974 H965 0.929 . S
C974 C966 1.378 1_554 S
C974 C969 1.350 . S
C975 H962 0.929 . S
C975 C967 1.433 . S
C975 N977 1.384 1_556 S
N976 C972 1.427 . S
N976 C973 1.384 . S
N977 C969 1.427 . S
N977 C975 1.384 1_554 S
H978 C984 0.930 . S
H979 C988 0.930 . S
H980 C993 0.929 . S
H981 C991 0.929 . S
H982 C986 0.929 . S
H983 C992 0.929 . S
C984 H978 0.930 . S
C984 C985 1.367 . S
C984 C992 1.378 1_556 S
C985 C984 1.367 . S
C985 C993 1.433 . S
C986 H982 0.929 . S
C986 C988 1.378 . S
C986 C990 1.350 . S
C987 C990 1.463 . S
C987 C992 1.350 . S
C987 N995 1.427 . S
C988 H979 0.930 . S
C988 C986 1.378 . S
C988 C989 1.367 . S
C989 C988 1.367 . S
C989 C991 1.433 . S
C990 C986 1.350 . S
C990 C987 1.463 . S
C990 N994 1.427 . S
C991 H981 0.929 . S
C991 C989 1.433 . S
C991 N994 1.384 . S
C992 H983 0.929 . S
C992 C984 1.378 1_554 S
C992 C987 1.350 . S
C993 H980 0.929 . S
C993 C985 1.433 . S
C993 N995 1.384 1_556 S
N994 C990 1.427 . S
N994 C991 1.384 . S
N995 C987 1.427 . S
N995 C993 1.384 1_554 S
H996 C1002 0.930 . S
H997 C1006 0.930 . S
H998 C1011 0.929 . S
H999 C1009 0.929 . S
H1000 C1004 0.929 . S
H1001 C1010 0.929 . S
C1002 H996 0.930 . S
C1002 C1003 1.367 . S
C1002 C1010 1.378 1_554 S
C1003 C1002 1.367 . S
C1003 C1011 1.433 . S
C1004 H1000 0.929 . S
C1004 C1006 1.378 . S
C1004 C1008 1.350 . S
C1005 C1008 1.463 . S
C1005 C1010 1.350 . S
C1005 N1013 1.427 . S
C1006 H997 0.930 . S
C1006 C1004 1.378 . S
C1006 C1007 1.367 . S
C1007 C1006 1.367 . S
C1007 C1009 1.433 . S
C1008 C1004 1.350 . S
C1008 C1005 1.463 . S
C1008 N1012 1.427 . S
C1009 H999 0.929 . S
C1009 C1007 1.433 . S
C1009 N1012 1.384 . S
C1010 H1001 0.929 . S
C1010 C1002 1.378 1_556 S
C1010 C1005 1.350 . S
C1011 H998 0.929 . S
C1011 C1003 1.433 . S
C1011 N1013 1.384 1_554 S
N1012 C1008 1.427 . S
N1012 C1009 1.384 . S
N1013 C1005 1.427 . S
N1013 C1011 1.384 1_556 S
H1014 C1020 0.930 . S
H1015 C1024 0.930 . S
H1016 C1029 0.929 . S
H1017 C1027 0.929 . S
H1018 C1022 0.929 . S
H1019 C1028 0.929 . S
C1020 H1014 0.930 . S
C1020 C1021 1.367 . S
C1020 C1028 1.378 1_554 S
C1021 C1020 1.367 . S
C1021 C1029 1.433 . S
C1022 H1018 0.929 . S
C1022 C1024 1.378 . S
C1022 C1026 1.350 . S
C1023 C1026 1.463 . S
C1023 C1028 1.350 . S
C1023 N1031 1.427 . S
C1024 H1015 0.930 . S
C1024 C1022 1.378 . S
C1024 C1025 1.367 . S
C1025 C1024 1.367 . S
C1025 C1027 1.433 . S
C1026 C1022 1.350 . S
C1026 C1023 1.463 . S
C1026 N1030 1.427 . S
C1027 H1017 0.929 . S
C1027 C1025 1.433 . S
C1027 N1030 1.384 . S
C1028 H1019 0.929 . S
C1028 C1020 1.378 1_556 S
C1028 C1023 1.350 . S
C1029 H1016 0.929 . S
C1029 C1021 1.433 . S
C1029 N1031 1.384 1_554 S
N1030 C1026 1.427 . S
N1030 C1027 1.384 . S
N1031 C1023 1.427 . S
N1031 C1029 1.384 1_556 S
H1032 C1038 0.930 . S
H1033 C1042 0.930 . S
H1034 C1047 0.929 . S
H1035 C1045 0.929 . S
H1036 C1040 0.929 . S
H1037 C1046 0.929 . S
C1038 H1032 0.930 . S
C1038 C1039 1.367 . S
C1038 C1046 1.378 . S
C1039 C1038 1.367 . S
C1039 C1047 1.433 . S
C1040 H1036 0.929 . S
C1040 C1042 1.378 . S
C1040 C1044 1.350 . S
C1041 C1044 1.463 . S
C1041 C1046 1.350 . S
C1041 N1049 1.427 . S
C1042 H1033 0.930 . S
C1042 C1040 1.378 . S
C1042 C1043 1.367 . S
C1043 C1042 1.367 . S
C1043 C1045 1.433 . S
C1044 C1040 1.350 . S
C1044 C1041 1.463 . S
C1044 N1048 1.427 . S
C1045 H1035 0.929 . S
C1045 C1043 1.433 . S
C1045 N1048 1.384 . S
C1046 H1037 0.929 . S
C1046 C1038 1.378 . S
C1046 C1041 1.350 . S
C1047 H1034 0.929 . S
C1047 C1039 1.433 . S
C1047 N1049 1.384 . S
N1048 C1044 1.427 . S
N1048 C1045 1.384 . S
N1049 C1041 1.427 . S
N1049 C1047 1.384 . S
H1050 C1056 0.930 . S
H1051 C1060 0.930 . S
H1052 C1065 0.929 . S
H1053 C1063 0.929 . S
H1054 C1058 0.929 . S
H1055 C1064 0.929 . S
C1056 H1050 0.930 . S
C1056 C1057 1.367 . S
C1056 C1064 1.378 . S
C1057 C1056 1.367 . S
C1057 C1065 1.433 . S
C1058 H1054 0.929 . S
C1058 C1060 1.378 . S
C1058 C1062 1.350 . S
C1059 C1062 1.463 . S
C1059 C1064 1.350 . S
C1059 N1067 1.427 . S
C1060 H1051 0.930 . S
C1060 C1058 1.378 . S
C1060 C1061 1.367 . S
C1061 C1060 1.367 . S
C1061 C1063 1.433 . S
C1062 C1058 1.350 . S
C1062 C1059 1.463 . S
C1062 N1066 1.427 . S
C1063 H1053 0.929 . S
C1063 C1061 1.433 . S
C1063 N1066 1.384 . S
C1064 H1055 0.929 . S
C1064 C1056 1.378 . S
C1064 C1059 1.350 . S
C1065 H1052 0.929 . S
C1065 C1057 1.433 . S
C1065 N1067 1.384 . S
N1066 C1062 1.427 . S
N1066 C1063 1.384 . S
N1067 C1059 1.427 . S
N1067 C1065 1.384 . S
H1068 C1074 0.930 . S
H1069 C1078 0.930 . S
H1070 C1083 0.929 . S
H1071 C1081 0.929 . S
H1072 C1076 0.929 . S
H1073 C1082 0.929 . S
C1074 H1068 0.930 . S
C1074 C1075 1.367 . S
C1074 C1082 1.378 . S
C1075 C1074 1.367 . S
C1075 C1083 1.433 . S
C1076 H1072 0.929 . S
C1076 C1078 1.378 . S
C1076 C1080 1.350 . S
C1077 C1080 1.463 . S
C1077 C1082 1.350 . S
C1077 N1085 1.427 . S
C1078 H1069 0.930 . S
C1078 C1076 1.378 . S
C1078 C1079 1.367 . S
C1079 C1078 1.367 . S
C1079 C1081 1.433 . S
C1080 C1076 1.350 . S
C1080 C1077 1.463 . S
C1080 N1084 1.427 . S
C1081 H1071 0.929 . S
C1081 C1079 1.433 . S
C1081 N1084 1.384 . S
C1082 H1073 0.929 . S
C1082 C1074 1.378 . S
C1082 C1077 1.350 . S
C1083 H1070 0.929 . S
C1083 C1075 1.433 . S
C1083 N1085 1.384 . S
N1084 C1080 1.427 . S
N1084 C1081 1.384 . S
N1085 C1077 1.427 . S
N1085 C1083 1.384 . S
H1086 C1092 0.930 . S
H1087 C1096 0.930 . S
H1088 C1101 0.929 . S
H1089 C1099 0.929 . S
H1090 C1094 0.929 . S
H1091 C1100 0.929 . S
C1092 H1086 0.930 . S
C1092 C1093 1.367 . S
C1092 C1100 1.378 . S
C1093 C1092 1.367 . S
C1093 C1101 1.433 . S
C1094 H1090 0.929 . S
C1094 C1096 1.378 . S
C1094 C1098 1.350 . S
C1095 C1098 1.463 . S
C1095 C1100 1.350 . S
C1095 N1103 1.427 . S
C1096 H1087 0.930 . S
C1096 C1094 1.378 . S
C1096 C1097 1.367 . S
C1097 C1096 1.367 . S
C1097 C1099 1.433 . S
C1098 C1094 1.350 . S
C1098 C1095 1.463 . S
C1098 N1102 1.427 . S
C1099 H1089 0.929 . S
C1099 C1097 1.433 . S
C1099 N1102 1.384 . S
C1100 H1091 0.929 . S
C1100 C1092 1.378 . S
C1100 C1095 1.350 . S
C1101 H1088 0.929 . S
C1101 C1093 1.433 . S
C1101 N1103 1.384 . S
N1102 C1098 1.427 . S
N1102 C1099 1.384 . S
N1103 C1095 1.427 . S
N1103 C1101 1.384 . S
H1104 C1110 0.930 . S
H1105 C1114 0.930 . S
H1106 C1119 0.929 . S
H1107 C1117 0.929 . S
H1108 C1112 0.929 . S
H1109 C1118 0.929 . S
C1110 H1104 0.930 . S
C1110 C1111 1.367 . S
C1110 C1118 1.378 . S
C1111 C1110 1.367 . S
C1111 C1119 1.433 . S
C1112 H1108 0.929 . S
C1112 C1114 1.378 . S
C1112 C1116 1.350 . S
C1113 C1116 1.463 . S
C1113 C1118 1.350 . S
C1113 N1121 1.427 . S
C1114 H1105 0.930 . S
C1114 C1112 1.378 . S
C1114 C1115 1.367 . S
C1115 C1114 1.367 . S
C1115 C1117 1.433 . S
C1116 C1112 1.350 . S
C1116 C1113 1.463 . S
C1116 N1120 1.427 . S
C1117 H1107 0.929 . S
C1117 C1115 1.433 . S
C1117 N1120 1.384 . S
C1118 H1109 0.929 . S
C1118 C1110 1.378 . S
C1118 C1113 1.350 . S
C1119 H1106 0.929 . S
C1119 C1111 1.433 . S
C1119 N1121 1.384 . S
N1120 C1116 1.427 . S
N1120 C1117 1.384 . S
N1121 C1113 1.427 . S
N1121 C1119 1.384 . S
H1122 C1128 0.930 . S
H1123 C1132 0.930 . S
H1124 C1137 0.929 . S
H1125 C1135 0.929 . S
H1126 C1130 0.929 . S
H1127 C1136 0.929 . S
C1128 H1122 0.930 . S
C1128 C1129 1.367 . S
C1128 C1136 1.378 . S
C1129 C1128 1.367 . S
C1129 C1137 1.433 . S
C1130 H1126 0.929 . S
C1130 C1132 1.378 . S
C1130 C1134 1.350 . S
C1131 C1134 1.463 . S
C1131 C1136 1.350 . S
C1131 N1139 1.427 . S
C1132 H1123 0.930 . S
C1132 C1130 1.378 . S
C1132 C1133 1.367 . S
C1133 C1132 1.367 . S
C1133 C1135 1.433 . S
C1134 C1130 1.350 . S
C1134 C1131 1.463 . S
C1134 N1138 1.427 . S
C1135 H1125 0.929 . S
C1135 C1133 1.433 . S
C1135 N1138 1.384 . S
C1136 H1127 0.929 . S
C1136 C1128 1.378 . S
C1136 C1131 1.350 . S
C1137 H1124 0.929 . S
C1137 C1129 1.433 . S
C1137 N1139 1.384 . S
N1138 C1134 1.427 . S
N1138 C1135 1.384 . S
N1139 C1131 1.427 . S
N1139 C1137 1.384 . S
H1140 C1146 0.930 . S
H1141 C1150 0.930 . S
H1142 C1155 0.929 . S
H1143 C1153 0.929 . S
H1144 C1148 0.929 . S
H1145 C1154 0.929 . S
C1146 H1140 0.930 . S
C1146 C1147 1.367 . S
C1146 C1154 1.378 . S
C1147 C1146 1.367 . S
C1147 C1155 1.433 . S
C1148 H1144 0.929 . S
C1148 C1150 1.378 . S
C1148 C1152 1.350 . S
C1149 C1152 1.463 . S
C1149 C1154 1.350 . S
C1149 N1157 1.427 . S
C1150 H1141 0.930 . S
C1150 C1148 1.378 . S
C1150 C1151 1.367 . S
C1151 C1150 1.367 . S
C1151 C1153 1.433 . S
C1152 C1148 1.350 . S
C1152 C1149 1.463 . S
C1152 N1156 1.427 . S
C1153 H1143 0.929 . S
C1153 C1151 1.433 . S
C1153 N1156 1.384 . S
C1154 H1145 0.929 . S
C1154 C1146 1.378 . S
C1154 C1149 1.350 . S
C1155 H1142 0.929 . S
C1155 C1147 1.433 . S
C1155 N1157 1.384 . S
N1156 C1152 1.427 . S
N1156 C1153 1.384 . S
N1157 C1149 1.427 . S
N1157 C1155 1.384 . S
H1158 C1164 0.930 . S
H1159 C1168 0.930 . S
H1160 C1173 0.929 . S
H1161 C1171 0.929 . S
H1162 C1166 0.929 . S
H1163 C1172 0.929 . S
C1164 H1158 0.930 . S
C1164 C1165 1.367 . S
C1164 C1172 1.378 . S
C1165 C1164 1.367 . S
C1165 C1173 1.433 . S
C1166 H1162 0.929 . S
C1166 C1168 1.378 . S
C1166 C1170 1.350 . S
C1167 C1170 1.463 . S
C1167 C1172 1.350 . S
C1167 N1175 1.427 . S
C1168 H1159 0.930 . S
C1168 C1166 1.378 . S
C1168 C1169 1.367 . S
C1169 C1168 1.367 . S
C1169 C1171 1.433 . S
C1170 C1166 1.350 . S
C1170 C1167 1.463 . S
C1170 N1174 1.427 . S
C1171 H1161 0.929 . S
C1171 C1169 1.433 . S
C1171 N1174 1.384 . S
C1172 H1163 0.929 . S
C1172 C1164 1.378 . S
C1172 C1167 1.350 . S
C1173 H1160 0.929 . S
C1173 C1165 1.433 . S
C1173 N1175 1.384 . S
N1174 C1170 1.427 . S
N1174 C1171 1.384 . S
N1175 C1167 1.427 . S
N1175 C1173 1.384 . S
H1176 C1182 0.930 . S
H1177 C1186 0.930 . S
H1178 C1191 0.929 . S
H1179 C1189 0.929 . S
H1180 C1184 0.929 . S
H1181 C1190 0.929 . S
C1182 H1176 0.930 . S
C1182 C1183 1.367 . S
C1182 C1190 1.378 . S
C1183 C1182 1.367 . S
C1183 C1191 1.433 . S
C1184 H1180 0.929 . S
C1184 C1186 1.378 . S
C1184 C1188 1.350 . S
C1185 C1188 1.463 . S
C1185 C1190 1.350 . S
C1185 N1193 1.427 . S
C1186 H1177 0.930 . S
C1186 C1184 1.378 . S
C1186 C1187 1.367 . S
C1187 C1186 1.367 . S
C1187 C1189 1.433 . S
C1188 C1184 1.350 . S
C1188 C1185 1.463 . S
C1188 N1192 1.427 . S
C1189 H1179 0.929 . S
C1189 C1187 1.433 . S
C1189 N1192 1.384 . S
C1190 H1181 0.929 . S
C1190 C1182 1.378 . S
C1190 C1185 1.350 . S
C1191 H1178 0.929 . S
C1191 C1183 1.433 . S
C1191 N1193 1.384 . S
N1192 C1188 1.427 . S
N1192 C1189 1.384 . S
N1193 C1185 1.427 . S
N1193 C1191 1.384 . S
H1194 C1200 0.930 . S
H1195 C1204 0.930 . S
H1196 C1209 0.929 . S
H1197 C1207 0.929 . S
H1198 C1202 0.929 . S
H1199 C1208 0.929 . S
C1200 H1194 0.930 . S
C1200 C1201 1.367 . S
C1200 C1208 1.378 . S
C1201 C1200 1.367 . S
C1201 C1209 1.433 . S
C1202 H1198 0.929 . S
C1202 C1204 1.378 . S
C1202 C1206 1.350 . S
C1203 C1206 1.463 . S
C1203 C1208 1.350 . S
C1203 N1211 1.427 . S
C1204 H1195 0.930 . S
C1204 C1202 1.378 . S
C1204 C1205 1.367 . S
C1205 C1204 1.367 . S
C1205 C1207 1.433 . S
C1206 C1202 1.350 . S
C1206 C1203 1.463 . S
C1206 N1210 1.427 . S
C1207 H1197 0.929 . S
C1207 C1205 1.433 . S
C1207 N1210 1.384 . S
C1208 H1199 0.929 . S
C1208 C1200 1.378 . S
C1208 C1203 1.350 . S
C1209 H1196 0.929 . S
C1209 C1201 1.433 . S
C1209 N1211 1.384 . S
N1210 C1206 1.427 . S
N1210 C1207 1.384 . S
N1211 C1203 1.427 . S
N1211 C1209 1.384 . S
H1212 C1218 0.930 . S
H1213 C1222 0.930 . S
H1214 C1227 0.929 . S
H1215 C1225 0.929 . S
H1216 C1220 0.929 . S
H1217 C1226 0.929 . S
C1218 H1212 0.930 . S
C1218 C1219 1.367 . S
C1218 C1226 1.378 . S
C1219 C1218 1.367 . S
C1219 C1227 1.433 . S
C1220 H1216 0.929 . S
C1220 C1222 1.378 . S
C1220 C1224 1.350 . S
C1221 C1224 1.463 . S
C1221 C1226 1.350 . S
C1221 N1229 1.427 . S
C1222 H1213 0.930 . S
C1222 C1220 1.378 . S
C1222 C1223 1.367 . S
C1223 C1222 1.367 . S
C1223 C1225 1.433 . S
C1224 C1220 1.350 . S
C1224 C1221 1.463 . S
C1224 N1228 1.427 . S
C1225 H1215 0.929 . S
C1225 C1223 1.433 . S
C1225 N1228 1.384 . S
C1226 H1217 0.929 . S
C1226 C1218 1.378 . S
C1226 C1221 1.350 . S
C1227 H1214 0.929 . S
C1227 C1219 1.433 . S
C1227 N1229 1.384 . S
N1228 C1224 1.427 . S
N1228 C1225 1.384 . S
N1229 C1221 1.427 . S
N1229 C1227 1.384 . S
H1230 C1236 0.930 . S
H1231 C1240 0.930 . S
H1232 C1245 0.929 . S
H1233 C1243 0.929 . S
H1234 C1238 0.929 . S
H1235 C1244 0.929 . S
C1236 H1230 0.930 . S
C1236 C1237 1.367 . S
C1236 C1244 1.378 . S
C1237 C1236 1.367 . S
C1237 C1245 1.433 . S
C1238 H1234 0.929 . S
C1238 C1240 1.378 . S
C1238 C1242 1.350 . S
C1239 C1242 1.463 . S
C1239 C1244 1.350 . S
C1239 N1247 1.427 . S
C1240 H1231 0.930 . S
C1240 C1238 1.378 . S
C1240 C1241 1.367 . S
C1241 C1240 1.367 . S
C1241 C1243 1.433 . S
C1242 C1238 1.350 . S
C1242 C1239 1.463 . S
C1242 N1246 1.427 . S
C1243 H1233 0.929 . S
C1243 C1241 1.433 . S
C1243 N1246 1.384 . S
C1244 H1235 0.929 . S
C1244 C1236 1.378 . S
C1244 C1239 1.350 . S
C1245 H1232 0.929 . S
C1245 C1237 1.433 . S
C1245 N1247 1.384 . S
N1246 C1242 1.427 . S
N1246 C1243 1.384 . S
N1247 C1239 1.427 . S
N1247 C1245 1.384 . S
C535 C338 1.507 . S
C539 C8 1.507 . S
C553 C61 1.507 . S
C557 C259 1.507 . S
C571 C503 1.510 . S
C575 C41 1.510 . S
C589 C94 1.508 . S
C593 C28 1.508 . S
C607 C74 1.507 . S
C611 C272 1.507 . S
C625 C193 1.507 . S
C629 C127 1.507 . S
C643 C437 1.508 . S
C647 C107 1.508 . S
C661 C470 1.507 . S
C665 C140 1.507 . S
C679 C173 1.509 . S
C683 C371 1.509 . S
C697 C226 1.507 . S
C701 C160 1.507 . S
C715 C404 1.510 . S
C719 C206 1.510 . S
C733 C305 1.510 . S
C737 C239 1.510 . S
C751 C523 1.508 . S
C755 C325 1.508 . S
C769 C292 1.509 . S
C773 C358 1.509 . S
C787 C391 1.507 . S
C791 C457 1.507 . S
C805 C490 1.509 . S
C809 C424 1.509 . S
C823 N14 1.362 . S
C827 N5 1.367 . S
C841 N47 1.362 . S
C845 N38 1.368 . S
C859 N80 1.363 . S
C863 N71 1.369 . S
C877 N113 1.369 . S
C881 N104 1.374 . S
C895 N137 1.371 . S
C899 N146 1.366 . S
C913 N179 1.362 . S
C917 N170 1.368 . S
C931 N212 1.367 . S
C935 N203 1.372 . S
C949 N236 1.367 . S
C953 N245 1.362 . S
C967 N278 1.362 . S
C971 N269 1.367 . S
C985 N302 1.371 . S
C989 N311 1.365 . S
C1003 N344 1.365 . S
C1007 N335 1.370 . S
C1021 N368 1.367 . S
C1025 N377 1.361 . S
C1039 N410 1.370 . S
C1043 N401 1.374 . S
C1057 N443 1.361 . S
C1061 N434 1.367 . S
C1075 N476 1.365 . S
C1079 N467 1.371 . S
C1093 N509 1.366 . S
C1097 N500 1.371 . S
C1111 C17 1.500 . S
C1115 C50 1.499 . S
C1129 C83 1.500 . S
C1133 C116 1.500 . S
C1147 C149 1.500 . S
C1151 C182 1.500 . S
C1165 C215 1.500 . S
C1169 C248 1.500 . S
C1183 C314 1.497 . S
C1187 C281 1.497 . S
C1201 C347 1.497 . S
C1205 C380 1.497 . S
C1219 C446 1.500 . S
C1223 C413 1.500 . S
C1237 C512 1.500 . S
C1241 C479 1.500 . S
