# Generated by pormake.
# Topology twf-e, (6)-cn, num edge types: 1
# Building blocks:
#     Node 0, Type 0, BuildingBlock: KUMBOL_clean_sbu_1, # of connection points: 6
#     Node 1, Type 0, BuildingBlock: KUMBOL_clean_sbu_1, # of connection points: 6
#     Node 2, Type 0, BuildingBlock: KUMBOL_clean_sbu_1, # of connection points: 6
#     Node 3, Type 0, BuildingBlock: KUMBOL_clean_sbu_1, # of connection points: 6
#     Node 4, Type 0, BuildingBlock: KUMBOL_clean_sbu_1, # of connection points: 6
#     Node 5, Type 0, BuildingBlock: KUMBOL_clean_sbu_1, # of connection points: 6
#     Node 6, Type 0, BuildingBlock: KUMBOL_clean_sbu_1, # of connection points: 6
#     Node 7, Type 0, BuildingBlock: KUMBOL_clean_sbu_1, # of connection points: 6
#     Node 8, Type 0, BuildingBlock: KUMBOL_clean_sbu_1, # of connection points: 6
#     Node 9, Type 0, BuildingBlock: KUMBOL_clean_sbu_1, # of connection points: 6
#     Node 10, Type 0, BuildingBlock: KUMBOL_clean_sbu_1, # of connection points: 6
#     Node 11, Type 0, BuildingBlock: KUMBOL_clean_sbu_1, # of connection points: 6
#     Node 12, Type 0, BuildingBlock: KUMBOL_clean_sbu_1, # of connection points: 6
#     Node 13, Type 0, BuildingBlock: KUMBOL_clean_sbu_1, # of connection points: 6
#     Node 14, Type 0, BuildingBlock: KUMBOL_clean_sbu_1, # of connection points: 6
#     Node 15, Type 0, BuildingBlock: KUMBOL_clean_sbu_1, # of connection points: 6
#     Node 16, Type 0, BuildingBlock: KUMBOL_clean_sbu_1, # of connection points: 6
#     Node 17, Type 0, BuildingBlock: KUMBOL_clean_sbu_1, # of connection points: 6
#     Node 18, Type 0, BuildingBlock: KUMBOL_clean_sbu_1, # of connection points: 6
#     Node 19, Type 0, BuildingBlock: KUMBOL_clean_sbu_1, # of connection points: 6
#     Node 20, Type 0, BuildingBlock: KUMBOL_clean_sbu_1, # of connection points: 6
#     Node 21, Type 0, BuildingBlock: KUMBOL_clean_sbu_1, # of connection points: 6
#     Node 22, Type 0, BuildingBlock: KUMBOL_clean_sbu_1, # of connection points: 6
#     Node 23, Type 0, BuildingBlock: KUMBOL_clean_sbu_1, # of connection points: 6
#     Node 24, Type 0, BuildingBlock: KUMBOL_clean_sbu_1, # of connection points: 6
#     Node 25, Type 0, BuildingBlock: KUMBOL_clean_sbu_1, # of connection points: 6
#     Node 26, Type 0, BuildingBlock: KUMBOL_clean_sbu_1, # of connection points: 6
#     Node 27, Type 0, BuildingBlock: KUMBOL_clean_sbu_1, # of connection points: 6
#     Node 28, Type 0, BuildingBlock: KUMBOL_clean_sbu_1, # of connection points: 6
#     Node 29, Type 0, BuildingBlock: KUMBOL_clean_sbu_1, # of connection points: 6
#     Node 30, Type 0, BuildingBlock: KUMBOL_clean_sbu_1, # of connection points: 6
#     Node 31, Type 0, BuildingBlock: KUMBOL_clean_sbu_1, # of connection points: 6
#     Node 32, Type 0, BuildingBlock: KUMBOL_clean_sbu_1, # of connection points: 6
#     Node 33, Type 0, BuildingBlock: KUMBOL_clean_sbu_1, # of connection points: 6
#     Node 34, Type 0, BuildingBlock: KUMBOL_clean_sbu_1, # of connection points: 6
#     Node 35, Type 0, BuildingBlock: KUMBOL_clean_sbu_1, # of connection points: 6
#     Node 36, Type 0, BuildingBlock: KUMBOL_clean_sbu_1, # of connection points: 6
#     Node 37, Type 0, BuildingBlock: KUMBOL_clean_sbu_1, # of connection points: 6
#     Node 38, Type 0, BuildingBlock: KUMBOL_clean_sbu_1, # of connection points: 6
#     Node 39, Type 0, BuildingBlock: KUMBOL_clean_sbu_1, # of connection points: 6
#     Node 40, Type 0, BuildingBlock: KUMBOL_clean_sbu_1, # of connection points: 6
#     Node 41, Type 0, BuildingBlock: KUMBOL_clean_sbu_1, # of connection points: 6
#     Node 42, Type 0, BuildingBlock: KUMBOL_clean_sbu_1, # of connection points: 6
#     Node 43, Type 0, BuildingBlock: KUMBOL_clean_sbu_1, # of connection points: 6
#     Node 44, Type 0, BuildingBlock: KUMBOL_clean_sbu_1, # of connection points: 6
#     Node 45, Type 0, BuildingBlock: KUMBOL_clean_sbu_1, # of connection points: 6
#     Node 46, Type 0, BuildingBlock: KUMBOL_clean_sbu_1, # of connection points: 6
#     Node 47, Type 0, BuildingBlock: KUMBOL_clean_sbu_1, # of connection points: 6
#     Edge 48, Type (0, 0), BuildingBlock: KIFKEQ_clean_linker_1, # of connection points: 2
#     Edge 49, Type (0, 0), BuildingBlock: KIFKEQ_clean_linker_1, # of connection points: 2
#     Edge 50, Type (0, 0), BuildingBlock: KIFKEQ_clean_linker_1, # of connection points: 2
#     Edge 51, Type (0, 0), BuildingBlock: KIFKEQ_clean_linker_1, # of connection points: 2
#     Edge 52, Type (0, 0), BuildingBlock: KIFKEQ_clean_linker_1, # of connection points: 2
#     Edge 53, Type (0, 0), BuildingBlock: KIFKEQ_clean_linker_1, # of connection points: 2
#     Edge 54, Type (0, 0), BuildingBlock: KIFKEQ_clean_linker_1, # of connection points: 2
#     Edge 55, Type (0, 0), BuildingBlock: KIFKEQ_clean_linker_1, # of connection points: 2
#     Edge 56, Type (0, 0), BuildingBlock: KIFKEQ_clean_linker_1, # of connection points: 2
#     Edge 57, Type (0, 0), BuildingBlock: KIFKEQ_clean_linker_1, # of connection points: 2
#     Edge 58, Type (0, 0), BuildingBlock: KIFKEQ_clean_linker_1, # of connection points: 2
#     Edge 59, Type (0, 0), BuildingBlock: KIFKEQ_clean_linker_1, # of connection points: 2
#     Edge 60, Type (0, 0), BuildingBlock: KIFKEQ_clean_linker_1, # of connection points: 2
#     Edge 61, Type (0, 0), BuildingBlock: KIFKEQ_clean_linker_1, # of connection points: 2
#     Edge 62, Type (0, 0), BuildingBlock: KIFKEQ_clean_linker_1, # of connection points: 2
#     Edge 63, Type (0, 0), BuildingBlock: KIFKEQ_clean_linker_1, # of connection points: 2
#     Edge 64, Type (0, 0), BuildingBlock: KIFKEQ_clean_linker_1, # of connection points: 2
#     Edge 65, Type (0, 0), BuildingBlock: KIFKEQ_clean_linker_1, # of connection points: 2
#     Edge 66, Type (0, 0), BuildingBlock: KIFKEQ_clean_linker_1, # of connection points: 2
#     Edge 67, Type (0, 0), BuildingBlock: KIFKEQ_clean_linker_1, # of connection points: 2
#     Edge 68, Type (0, 0), BuildingBlock: KIFKEQ_clean_linker_1, # of connection points: 2
#     Edge 69, Type (0, 0), BuildingBlock: KIFKEQ_clean_linker_1, # of connection points: 2
#     Edge 70, Type (0, 0), BuildingBlock: KIFKEQ_clean_linker_1, # of connection points: 2
#     Edge 71, Type (0, 0), BuildingBlock: KIFKEQ_clean_linker_1, # of connection points: 2
#     Edge 72, Type (0, 0), BuildingBlock: KIFKEQ_clean_linker_1, # of connection points: 2
#     Edge 73, Type (0, 0), BuildingBlock: KIFKEQ_clean_linker_1, # of connection points: 2
#     Edge 74, Type (0, 0), BuildingBlock: KIFKEQ_clean_linker_1, # of connection points: 2
#     Edge 75, Type (0, 0), BuildingBlock: KIFKEQ_clean_linker_1, # of connection points: 2
#     Edge 76, Type (0, 0), BuildingBlock: KIFKEQ_clean_linker_1, # of connection points: 2
#     Edge 77, Type (0, 0), BuildingBlock: KIFKEQ_clean_linker_1, # of connection points: 2
#     Edge 78, Type (0, 0), BuildingBlock: KIFKEQ_clean_linker_1, # of connection points: 2
#     Edge 79, Type (0, 0), BuildingBlock: KIFKEQ_clean_linker_1, # of connection points: 2
#     Edge 80, Type (0, 0), BuildingBlock: KIFKEQ_clean_linker_1, # of connection points: 2
#     Edge 81, Type (0, 0), BuildingBlock: KIFKEQ_clean_linker_1, # of connection points: 2
#     Edge 82, Type (0, 0), BuildingBlock: KIFKEQ_clean_linker_1, # of connection points: 2
#     Edge 83, Type (0, 0), BuildingBlock: KIFKEQ_clean_linker_1, # of connection points: 2
#     Edge 84, Type (0, 0), BuildingBlock: KIFKEQ_clean_linker_1, # of connection points: 2
#     Edge 85, Type (0, 0), BuildingBlock: KIFKEQ_clean_linker_1, # of connection points: 2
#     Edge 86, Type (0, 0), BuildingBlock: KIFKEQ_clean_linker_1, # of connection points: 2
#     Edge 87, Type (0, 0), BuildingBlock: KIFKEQ_clean_linker_1, # of connection points: 2
#     Edge 88, Type (0, 0), BuildingBlock: KIFKEQ_clean_linker_1, # of connection points: 2
#     Edge 89, Type (0, 0), BuildingBlock: KIFKEQ_clean_linker_1, # of connection points: 2
#     Edge 90, Type (0, 0), BuildingBlock: KIFKEQ_clean_linker_1, # of connection points: 2
#     Edge 91, Type (0, 0), BuildingBlock: KIFKEQ_clean_linker_1, # of connection points: 2
#     Edge 92, Type (0, 0), BuildingBlock: KIFKEQ_clean_linker_1, # of connection points: 2
#     Edge 93, Type (0, 0), BuildingBlock: KIFKEQ_clean_linker_1, # of connection points: 2
#     Edge 94, Type (0, 0), BuildingBlock: KIFKEQ_clean_linker_1, # of connection points: 2
#     Edge 95, Type (0, 0), BuildingBlock: KIFKEQ_clean_linker_1, # of connection points: 2
#     Edge 96, Type (0, 0), BuildingBlock: KIFKEQ_clean_linker_1, # of connection points: 2
#     Edge 97, Type (0, 0), BuildingBlock: KIFKEQ_clean_linker_1, # of connection points: 2
#     Edge 98, Type (0, 0), BuildingBlock: KIFKEQ_clean_linker_1, # of connection points: 2
#     Edge 99, Type (0, 0), BuildingBlock: KIFKEQ_clean_linker_1, # of connection points: 2
#     Edge 100, Type (0, 0), BuildingBlock: KIFKEQ_clean_linker_1, # of connection points: 2
#     Edge 101, Type (0, 0), BuildingBlock: KIFKEQ_clean_linker_1, # of connection points: 2
#     Edge 102, Type (0, 0), BuildingBlock: KIFKEQ_clean_linker_1, # of connection points: 2
#     Edge 103, Type (0, 0), BuildingBlock: KIFKEQ_clean_linker_1, # of connection points: 2
#     Edge 104, Type (0, 0), BuildingBlock: KIFKEQ_clean_linker_1, # of connection points: 2
#     Edge 105, Type (0, 0), BuildingBlock: KIFKEQ_clean_linker_1, # of connection points: 2
#     Edge 106, Type (0, 0), BuildingBlock: KIFKEQ_clean_linker_1, # of connection points: 2
#     Edge 107, Type (0, 0), BuildingBlock: KIFKEQ_clean_linker_1, # of connection points: 2
#     Edge 108, Type (0, 0), BuildingBlock: KIFKEQ_clean_linker_1, # of connection points: 2
#     Edge 109, Type (0, 0), BuildingBlock: KIFKEQ_clean_linker_1, # of connection points: 2
#     Edge 110, Type (0, 0), BuildingBlock: KIFKEQ_clean_linker_1, # of connection points: 2
#     Edge 111, Type (0, 0), BuildingBlock: KIFKEQ_clean_linker_1, # of connection points: 2
#     Edge 112, Type (0, 0), BuildingBlock: KIFKEQ_clean_linker_1, # of connection points: 2
#     Edge 113, Type (0, 0), BuildingBlock: KIFKEQ_clean_linker_1, # of connection points: 2
#     Edge 114, Type (0, 0), BuildingBlock: KIFKEQ_clean_linker_1, # of connection points: 2
#     Edge 115, Type (0, 0), BuildingBlock: KIFKEQ_clean_linker_1, # of connection points: 2
#     Edge 116, Type (0, 0), BuildingBlock: KIFKEQ_clean_linker_1, # of connection points: 2
#     Edge 117, Type (0, 0), BuildingBlock: KIFKEQ_clean_linker_1, # of connection points: 2
#     Edge 118, Type (0, 0), BuildingBlock: KIFKEQ_clean_linker_1, # of connection points: 2
#     Edge 119, Type (0, 0), BuildingBlock: KIFKEQ_clean_linker_1, # of connection points: 2
#     Edge 120, Type (0, 0), BuildingBlock: KIFKEQ_clean_linker_1, # of connection points: 2
#     Edge 121, Type (0, 0), BuildingBlock: KIFKEQ_clean_linker_1, # of connection points: 2
#     Edge 122, Type (0, 0), BuildingBlock: KIFKEQ_clean_linker_1, # of connection points: 2
#     Edge 123, Type (0, 0), BuildingBlock: KIFKEQ_clean_linker_1, # of connection points: 2
#     Edge 124, Type (0, 0), BuildingBlock: KIFKEQ_clean_linker_1, # of connection points: 2
#     Edge 125, Type (0, 0), BuildingBlock: KIFKEQ_clean_linker_1, # of connection points: 2
#     Edge 126, Type (0, 0), BuildingBlock: KIFKEQ_clean_linker_1, # of connection points: 2
#     Edge 127, Type (0, 0), BuildingBlock: KIFKEQ_clean_linker_1, # of connection points: 2
#     Edge 128, Type (0, 0), BuildingBlock: KIFKEQ_clean_linker_1, # of connection points: 2
#     Edge 129, Type (0, 0), BuildingBlock: KIFKEQ_clean_linker_1, # of connection points: 2
#     Edge 130, Type (0, 0), BuildingBlock: KIFKEQ_clean_linker_1, # of connection points: 2
#     Edge 131, Type (0, 0), BuildingBlock: KIFKEQ_clean_linker_1, # of connection points: 2
#     Edge 132, Type (0, 0), BuildingBlock: KIFKEQ_clean_linker_1, # of connection points: 2
#     Edge 133, Type (0, 0), BuildingBlock: KIFKEQ_clean_linker_1, # of connection points: 2
#     Edge 134, Type (0, 0), BuildingBlock: KIFKEQ_clean_linker_1, # of connection points: 2
#     Edge 135, Type (0, 0), BuildingBlock: KIFKEQ_clean_linker_1, # of connection points: 2
#     Edge 136, Type (0, 0), BuildingBlock: KIFKEQ_clean_linker_1, # of connection points: 2
#     Edge 137, Type (0, 0), BuildingBlock: KIFKEQ_clean_linker_1, # of connection points: 2
#     Edge 138, Type (0, 0), BuildingBlock: KIFKEQ_clean_linker_1, # of connection points: 2
#     Edge 139, Type (0, 0), BuildingBlock: KIFKEQ_clean_linker_1, # of connection points: 2
#     Edge 140, Type (0, 0), BuildingBlock: KIFKEQ_clean_linker_1, # of connection points: 2
#     Edge 141, Type (0, 0), BuildingBlock: KIFKEQ_clean_linker_1, # of connection points: 2
#     Edge 142, Type (0, 0), BuildingBlock: KIFKEQ_clean_linker_1, # of connection points: 2
#     Edge 143, Type (0, 0), BuildingBlock: KIFKEQ_clean_linker_1, # of connection points: 2
#     Edge 144, Type (0, 0), BuildingBlock: KIFKEQ_clean_linker_1, # of connection points: 2
#     Edge 145, Type (0, 0), BuildingBlock: KIFKEQ_clean_linker_1, # of connection points: 2
#     Edge 146, Type (0, 0), BuildingBlock: KIFKEQ_clean_linker_1, # of connection points: 2
#     Edge 147, Type (0, 0), BuildingBlock: KIFKEQ_clean_linker_1, # of connection points: 2
#     Edge 148, Type (0, 0), BuildingBlock: KIFKEQ_clean_linker_1, # of connection points: 2
#     Edge 149, Type (0, 0), BuildingBlock: KIFKEQ_clean_linker_1, # of connection points: 2
#     Edge 150, Type (0, 0), BuildingBlock: KIFKEQ_clean_linker_1, # of connection points: 2
#     Edge 151, Type (0, 0), BuildingBlock: KIFKEQ_clean_linker_1, # of connection points: 2
#     Edge 152, Type (0, 0), BuildingBlock: KIFKEQ_clean_linker_1, # of connection points: 2
#     Edge 153, Type (0, 0), BuildingBlock: KIFKEQ_clean_linker_1, # of connection points: 2
#     Edge 154, Type (0, 0), BuildingBlock: KIFKEQ_clean_linker_1, # of connection points: 2
#     Edge 155, Type (0, 0), BuildingBlock: KIFKEQ_clean_linker_1, # of connection points: 2
#     Edge 156, Type (0, 0), BuildingBlock: KIFKEQ_clean_linker_1, # of connection points: 2
#     Edge 157, Type (0, 0), BuildingBlock: KIFKEQ_clean_linker_1, # of connection points: 2
#     Edge 158, Type (0, 0), BuildingBlock: KIFKEQ_clean_linker_1, # of connection points: 2
#     Edge 159, Type (0, 0), BuildingBlock: KIFKEQ_clean_linker_1, # of connection points: 2
#     Edge 160, Type (0, 0), BuildingBlock: KIFKEQ_clean_linker_1, # of connection points: 2
#     Edge 161, Type (0, 0), BuildingBlock: KIFKEQ_clean_linker_1, # of connection points: 2
#     Edge 162, Type (0, 0), BuildingBlock: KIFKEQ_clean_linker_1, # of connection points: 2
#     Edge 163, Type (0, 0), BuildingBlock: KIFKEQ_clean_linker_1, # of connection points: 2
#     Edge 164, Type (0, 0), BuildingBlock: KIFKEQ_clean_linker_1, # of connection points: 2
#     Edge 165, Type (0, 0), BuildingBlock: KIFKEQ_clean_linker_1, # of connection points: 2
#     Edge 166, Type (0, 0), BuildingBlock: KIFKEQ_clean_linker_1, # of connection points: 2
#     Edge 167, Type (0, 0), BuildingBlock: KIFKEQ_clean_linker_1, # of connection points: 2
#     Edge 168, Type (0, 0), BuildingBlock: KIFKEQ_clean_linker_1, # of connection points: 2
#     Edge 169, Type (0, 0), BuildingBlock: KIFKEQ_clean_linker_1, # of connection points: 2
#     Edge 170, Type (0, 0), BuildingBlock: KIFKEQ_clean_linker_1, # of connection points: 2
#     Edge 171, Type (0, 0), BuildingBlock: KIFKEQ_clean_linker_1, # of connection points: 2
#     Edge 172, Type (0, 0), BuildingBlock: KIFKEQ_clean_linker_1, # of connection points: 2
#     Edge 173, Type (0, 0), BuildingBlock: KIFKEQ_clean_linker_1, # of connection points: 2
#     Edge 174, Type (0, 0), BuildingBlock: KIFKEQ_clean_linker_1, # of connection points: 2
#     Edge 175, Type (0, 0), BuildingBlock: KIFKEQ_clean_linker_1, # of connection points: 2
#     Edge 176, Type (0, 0), BuildingBlock: KIFKEQ_clean_linker_1, # of connection points: 2
#     Edge 177, Type (0, 0), BuildingBlock: KIFKEQ_clean_linker_1, # of connection points: 2
#     Edge 178, Type (0, 0), BuildingBlock: KIFKEQ_clean_linker_1, # of connection points: 2
#     Edge 179, Type (0, 0), BuildingBlock: KIFKEQ_clean_linker_1, # of connection points: 2
#     Edge 180, Type (0, 0), BuildingBlock: KIFKEQ_clean_linker_1, # of connection points: 2
#     Edge 181, Type (0, 0), BuildingBlock: KIFKEQ_clean_linker_1, # of connection points: 2
#     Edge 182, Type (0, 0), BuildingBlock: KIFKEQ_clean_linker_1, # of connection points: 2
#     Edge 183, Type (0, 0), BuildingBlock: KIFKEQ_clean_linker_1, # of connection points: 2
#     Edge 184, Type (0, 0), BuildingBlock: KIFKEQ_clean_linker_1, # of connection points: 2
#     Edge 185, Type (0, 0), BuildingBlock: KIFKEQ_clean_linker_1, # of connection points: 2
#     Edge 186, Type (0, 0), BuildingBlock: KIFKEQ_clean_linker_1, # of connection points: 2
#     Edge 187, Type (0, 0), BuildingBlock: KIFKEQ_clean_linker_1, # of connection points: 2
#     Edge 188, Type (0, 0), BuildingBlock: KIFKEQ_clean_linker_1, # of connection points: 2
#     Edge 189, Type (0, 0), BuildingBlock: KIFKEQ_clean_linker_1, # of connection points: 2
#     Edge 190, Type (0, 0), BuildingBlock: KIFKEQ_clean_linker_1, # of connection points: 2
#     Edge 191, Type (0, 0), BuildingBlock: KIFKEQ_clean_linker_1, # of connection points: 2
# Relax obj value: 0.815
# Max RMSD: 0.295
# Mean RMSD: 0.257
data_MOF--net-twf-e--node1-KUMBOL_clean_sbu_1--edge1-KIFKEQ_clean_linker_1
_symmetry_space_group_name_H-M    P1
_symmetry_Int_Tables_number       1
_symmetry_cell_setting            triclinic
loop_
_symmetry_equiv_pos_as_xyz
'x, y, z'
_cell_length_a     68.157486
_cell_length_b     67.873328
_cell_length_c     68.140245
_cell_angle_alpha  93.027412
_cell_angle_beta   89.611815
_cell_angle_gamma 92.809513
loop_
_atom_site_label
_atom_site_type_symbol
_atom_site_fract_x
_atom_site_fract_y
_atom_site_fract_z
_atom_type_partial_charge
C0 C 1.0094 0.27004 0.43555 0.0
C1 C 0.99954 0.24903 0.46198 0.0
C2 C 1.01326 0.26269 0.45378 0.0
C3 C 0.98209 0.24328 0.452 0.0
C4 C 0.99181 0.26411 0.42548 0.0
C5 C 0.97822 0.25082 0.43385 0.0
N6 N 0.02313 0.2822 0.42717 0.0
C7 C 1.01965 0.28974 0.40936 0.0
C8 C 0.98857 0.27131 0.40699 0.0
C9 C 1.00252 0.28424 0.39895 0.0
Gd10 Gd 0.09781 0.26409 0.42926 0.0
Gd11 Gd 0.05139 0.291 0.4458 0.0
N12 N 0.03057 0.26816 0.46308 0.0
C13 C 1.00381 0.24114 0.47984 0.0
C14 C 0.03465 0.26005 0.48058 0.0
C15 C 1.02143 0.24664 0.48911 0.0
H16 H 0.04766 0.26378 0.48886 0.0
H17 H 0.02486 0.24062 0.50301 0.0
H18 H 0.12634 0.29488 0.40445 0.0
H19 H 0.02988 0.30011 0.40296 0.0
H20 H 0.16115 0.29786 0.39427 0.0
H21 H 0.99366 0.23067 0.48654 0.0
H22 H 0.97154 0.23279 0.45812 0.0
H23 H 0.09361 0.22901 0.46182 0.0
H24 H 0.97533 0.26699 0.39882 0.0
H25 H 1.00004 0.29008 0.38475 0.0
H26 H 0.19094 0.24597 0.42674 0.0
H27 H 0.96476 0.24605 0.42624 0.0
H28 H 0.15052 0.20682 0.4691 0.0
H29 H 0.11494 0.20544 0.47641 0.0
N30 N 0.11729 0.2457 0.44915 0.0
C31 C 0.13677 0.24655 0.44482 0.0
C32 C 0.10932 0.23063 0.4597 0.0
C33 C 0.14136 0.2178 0.46345 0.0
C34 C 0.1213 0.21701 0.46767 0.0
C35 C 0.1492 0.23221 0.45128 0.0
H36 H 0.17857 0.22135 0.44954 0.0
N37 N 0.13104 0.273 0.4249 0.0
C38 C 0.14393 0.26075 0.43237 0.0
C39 C 0.16986 0.27459 0.41219 0.0
C40 C 0.16351 0.26069 0.42561 0.0
C41 C 0.13693 0.28607 0.41121 0.0
C42 C 0.15652 0.28742 0.40504 0.0
O43 O 0.04942 0.26391 0.4247 0.0
O44 O 0.07073 0.24742 0.44101 0.0
O45 O 0.0863 0.23814 0.41159 0.0
O46 O 0.11575 0.24892 0.40672 0.0
O47 O 0.06959 0.28299 0.4739 0.0
O48 O 0.09837 0.26768 0.46485 0.0
O49 O 0.0986 0.29714 0.43007 0.0
O50 O 0.08048 0.30369 0.45702 0.0
O51 O 0.02828 0.30699 0.46021 0.0
O52 O 0.05001 0.32264 0.44287 0.0
O53 O 0.08775 0.28671 0.40433 0.0
O54 O 0.06116 0.3037 0.41638 0.0
C55 C 0.05389 0.24725 0.43193 0.0
C56 C 0.08602 0.27423 0.47922 0.0
C57 C 0.11112 0.21369 0.40815 0.0
C58 C 0.13756 0.18979 0.41112 0.0
C59 C 0.10337 0.17998 0.41743 0.0
C60 C 0.09743 0.19868 0.41335 0.0
C61 C 0.12311 0.17561 0.41638 0.0
C62 C 0.1315 0.20906 0.40694 0.0
C63 C 0.10354 0.23384 0.40456 0.0
C64 C 0.17587 0.24631 0.43184 0.0
C65 C 0.16879 0.23223 0.44477 0.0
H66 H 0.18488 0.27521 0.40689 0.0
C67 C 0.09605 0.30764 0.44636 0.0
C68 C 0.07415 0.30068 0.40212 0.0
C69 C 0.04133 0.33682 0.47342 0.0
C70 C 0.04264 0.33283 0.50819 0.0
C71 C 0.0308 0.363 0.49558 0.0
C72 C 0.03333 0.35529 0.47637 0.0
C73 C 0.03382 0.35103 0.51125 0.0
C74 C 0.04932 0.32776 0.48932 0.0
C75 C 0.0363 0.32412 0.45611 0.0
H76 H 0.09251 0.1687 0.42143 0.0
H77 H 0.08191 0.20137 0.41439 0.0
H78 H 0.12714 0.16085 0.41955 0.0
H79 H 0.14245 0.22024 0.40291 0.0
H80 H 0.02413 0.377 0.49825 0.0
H81 H 0.02764 0.36283 0.46416 0.0
H82 H 0.0269 0.35466 0.52506 0.0
H83 H 0.05601 0.31377 0.48677 0.0
C84 C 0.87019 0.97905 0.43214 0.0
C85 C 0.89372 0.96788 0.455 0.0
C86 C 0.88105 0.98233 0.44919 0.0
C87 C 0.89431 0.94975 0.44412 0.0
C88 C 0.87139 0.96122 0.42067 0.0
C89 C 0.88314 0.94642 0.42701 0.0
N90 N 0.85979 0.99397 0.42585 0.0
C91 C 0.85023 0.99214 0.40827 0.0
C92 C 0.86137 0.95912 0.40277 0.0
C93 C 0.85086 0.97473 0.39647 0.0
Gd94 Gd 0.88704 0.07001 0.44652 0.0
Gd95 Gd 0.8572 1.02186 0.44707 0.0
N96 N 0.88092 1.00047 0.45873 0.0
C97 C 0.90609 0.97233 0.47105 0.0
C98 C 0.8946 1.00541 0.4731 0.0
C99 C 0.90674 0.99128 0.47994 0.0
H100 H 0.89682 1.02025 0.47911 0.0
H101 H 0.91708 0.99525 0.49165 0.0
H102 H 0.8606 0.10739 0.43292 0.0
H103 H 0.84187 1.00399 0.40336 0.0
H104 H 0.8489 0.13887 0.44749 0.0
H105 H 0.91591 0.96157 0.47603 0.0
H106 H 0.90382 0.93844 0.44849 0.0
H107 H 0.92464 0.05822 0.47507 0.0
H108 H 0.86197 0.94568 0.39352 0.0
H109 H 0.8432 0.97335 0.38257 0.0
H110 H 0.87939 0.14563 0.51097 0.0
H111 H 0.88416 0.93258 0.41847 0.0
H112 H 0.92769 0.09928 0.52504 0.0
H113 H 0.94016 0.07012 0.50648 0.0
N114 N 0.90369 0.08053 0.47589 0.0
C115 C 0.89774 0.09754 0.4851 0.0
C116 C 0.9195 0.0713 0.4828 0.0
C117 C 0.92105 0.09434 0.51112 0.0
C118 C 0.92815 0.07787 0.50068 0.0
C119 C 0.90585 0.10456 0.50324 0.0
H120 H 0.90456 0.12716 0.52685 0.0
N121 N 0.87673 0.10109 0.45827 0.0
C122 C 0.88347 0.10784 0.47621 0.0
C123 C 0.86414 0.13663 0.47483 0.0
C124 C 0.8771 0.12563 0.48514 0.0
C125 C 0.86507 0.11237 0.44763 0.0
C126 C 0.8585 0.13021 0.45579 0.0
O127 O 0.88511 1.02055 0.42746 0.0
O128 O 0.9053 0.04091 0.44592 0.0
O129 O 0.91136 0.06991 0.42519 0.0
O130 O 0.90219 0.09742 0.43787 0.0
O131 O 0.86443 0.03146 0.48065 0.0
O132 O 0.88206 0.06125 0.48025 0.0
O133 O 0.8545 0.07252 0.44486 0.0
O134 O 0.84635 0.04823 0.46474 0.0
O135 O 0.83683 1.00023 0.45978 0.0
O136 O 0.82737 1.01781 0.43644 0.0
O137 O 0.86278 0.06763 0.41916 0.0
O138 O 0.84627 0.03718 0.41952 0.0
C139 C 0.90305 1.02439 0.43443 0.0
C140 C 0.87402 0.04663 0.49074 0.0
C141 C 0.93652 0.09549 0.43329 0.0
C142 C 0.96464 0.12053 0.43636 0.0
C143 C 0.96611 0.08837 0.45075 0.0
C144 C 0.94759 0.08254 0.44354 0.0
C145 C 0.97442 0.10704 0.4474 0.0
C146 C 0.94515 0.11475 0.42973 0.0
C147 C 0.91575 0.0889 0.42772 0.0
C148 C 0.88437 0.13217 0.50372 0.0
C149 C 0.89874 0.12167 0.51274 0.0
H150 H 0.85887 0.15036 0.48118 0.0
C151 C 0.84324 0.06571 0.45864 0.0
C152 C 0.84869 0.05438 0.41118 0.0
C153 C 0.80438 1.01135 0.46074 0.0
C154 C 0.79035 0.02622 0.49059 0.0
C155 C 0.76904 1.01048 0.46526 0.0
C156 C 0.78551 1.00546 0.45401 0.0
C157 C 0.77143 1.02038 0.48373 0.0
C158 C 0.80646 1.02307 0.47813 0.0
C159 C 0.82196 1.0056 0.44968 0.0
H160 H 0.97416 0.07827 0.45904 0.0
H161 H 0.94178 0.06782 0.4463 0.0
H162 H 0.9888 0.11088 0.45356 0.0
H163 H 0.93693 0.12492 0.42169 0.0
H164 H 0.75449 1.00563 0.46021 0.0
H165 H 0.78356 0.99686 0.44025 0.0
H166 H 0.75878 1.02199 0.49329 0.0
H167 H 0.821 0.02764 0.48315 0.0
C168 C 0.07671 0.8901 0.45238 0.0
C169 C 0.10154 0.86599 0.44838 0.0
C170 C 0.08345 0.87327 0.44299 0.0
C171 C 0.11229 0.87557 0.46383 0.0
C172 C 0.08763 0.90009 0.46769 0.0
C173 C 0.10527 0.89246 0.47368 0.0
N174 N 0.05995 0.89731 0.44576 0.0
C175 C 0.05403 0.9153 0.45287 0.0
C176 C 0.08087 0.91781 0.47598 0.0
C177 C 0.06415 0.9256 0.46831 0.0
Gd178 Gd 0.99335 0.85463 0.41991 0.0
Gd179 Gd 0.04209 0.87769 0.42178 0.0
N180 N 0.07298 0.86482 0.42767 0.0
C181 C 0.10869 0.84977 0.4376 0.0
C182 C 0.08043 0.84957 0.41647 0.0
C183 C 0.0982 0.8417 0.42139 0.0
H184 H 0.07269 0.84301 0.40388 0.0
H185 H 0.10376 0.82939 0.41267 0.0
H186 H 0.97064 0.85075 0.4636 0.0
H187 H 0.04142 0.92177 0.44684 0.0
H188 H 0.93995 0.86134 0.47938 0.0
H189 H 0.12251 0.8437 0.44136 0.0
H190 H 0.12638 0.87037 0.46765 0.0
H191 H 0.9918 0.86724 0.37339 0.0
H192 H 0.0888 0.9259 0.48782 0.0
H193 H 0.05913 0.93962 0.47417 0.0
H194 H 0.90661 0.89275 0.42853 0.0
H195 H 0.11393 0.89989 0.48539 0.0
H196 H 0.93701 0.894 0.36487 0.0
H197 H 0.96844 0.88222 0.35145 0.0
N198 N 0.9741 0.87174 0.39892 0.0
C199 C 0.9563 0.87668 0.40628 0.0
C200 C 0.97816 0.87264 0.37925 0.0
C201 C 0.94719 0.88752 0.3745 0.0
C202 C 0.96497 0.88097 0.36687 0.0
C203 C 0.94258 0.88525 0.39437 0.0
H204 H 0.9141 0.89802 0.39377 0.0
N205 N 0.96482 0.86356 0.43653 0.0
C206 C 0.95185 0.87312 0.42579 0.0
C207 C 0.92976 0.87486 0.45363 0.0
C208 C 0.93388 0.87888 0.43404 0.0
C209 C 0.96068 0.8591 0.45544 0.0
C210 C 0.94319 0.86485 0.46435 0.0
O211 O 0.03911 0.84452 0.42376 0.0
O212 O 1.01089 0.8394 0.44074 0.0
O213 O 0.97034 0.83146 0.42197 0.0
O214 O 0.98839 0.83339 0.39566 0.0
O215 O 0.04225 0.85352 0.39414 0.0
O216 O 1.01217 0.8375 0.39523 0.0
O217 O 0.99493 0.88724 0.41166 0.0
O218 O 1.017 0.89909 0.4332 0.0
O219 O 0.06502 0.89364 0.40653 0.0
O220 O 0.03438 0.89579 0.39783 0.0
O221 O 1.00389 0.86115 0.45483 0.0
O222 O 0.03488 0.8769 0.45501 0.0
C223 C 0.02873 0.83476 0.43662 0.0
C224 C 0.0299 0.83888 0.38668 0.0
C225 C 0.97797 0.80209 0.40398 0.0
C226 C 0.98822 0.77815 0.42545 0.0
C227 C 0.96403 0.76875 0.40024 0.0
C228 C 0.96419 0.78847 0.39517 0.0
C229 C 0.97571 0.76364 0.41588 0.0
C230 C 0.99269 0.79534 0.41568 0.0
C231 C 0.97483 0.82323 0.40474 0.0
C232 C 0.92048 0.88816 0.42242 0.0
C233 C 0.92474 0.89117 0.40261 0.0
H234 H 0.91612 0.87911 0.46052 0.0
C235 C 1.00038 0.90195 0.42389 0.0
C236 C 1.01975 0.86965 0.46521 0.0
C237 C 0.05654 0.92431 0.39558 0.0
C238 C 0.08006 0.95241 0.39277 0.0
C239 C 0.04516 0.95768 0.39605 0.0
C240 C 0.04116 0.93737 0.39688 0.0
C241 C 0.06446 0.96518 0.39387 0.0
C242 C 0.07606 0.932 0.3937 0.0
C243 C 0.05265 0.90271 0.39605 0.0
H244 H 0.95344 0.75803 0.39364 0.0
H245 H 0.9531 0.79322 0.38539 0.0
H246 H 0.9732 0.74933 0.42186 0.0
H247 H 1.00306 0.80612 0.42246 0.0
H248 H 0.03324 0.96766 0.39697 0.0
H249 H 0.02605 0.93194 0.39846 0.0
H250 H 0.06725 0.98097 0.39306 0.0
H251 H 0.08809 0.92211 0.3926 0.0
C252 C 0.27607 0.15238 0.39727 0.0
C253 C 0.26646 0.17218 0.426 0.0
C254 C 0.27702 0.15657 0.41737 0.0
C255 C 0.25539 0.1837 0.4141 0.0
C256 C 0.26575 0.16449 0.38514 0.0
C257 C 0.25527 0.18005 0.39369 0.0
N258 N 0.28533 0.13651 0.38954 0.0
C259 C 0.28666 0.13312 0.36961 0.0
C260 C 0.26618 0.16048 0.36478 0.0
C261 C 0.27691 0.14488 0.35697 0.0
Gd262 Gd 0.28106 0.06539 0.41268 0.0
Gd263 Gd 0.30183 0.11798 0.41179 0.0
N264 N 0.2885 0.14565 0.4284 0.0
C265 C 0.26715 0.1756 0.44637 0.0
C266 C 0.29059 0.15018 0.44807 0.0
C267 C 0.27903 0.16434 0.45745 0.0
H268 H 0.30068 0.14252 0.45676 0.0
H269 H 0.27915 0.16656 0.47322 0.0
H270 H 0.3177 0.03654 0.39639 0.0
H271 H 0.29488 0.12107 0.36346 0.0
H272 H 0.33236 1.00601 0.40493 0.0
H273 H 0.25868 0.18695 0.45368 0.0
H274 H 0.2471 0.19566 0.42053 0.0
H275 H 0.23749 0.06507 0.4346 0.0
H276 H 0.25845 0.16944 0.35497 0.0
H277 H 0.27761 0.14186 0.34124 0.0
H278 H 0.29118 0.98181 0.45666 0.0
H279 H 0.24695 0.18929 0.38465 0.0
H280 H 0.23246 1.016 0.47159 0.0
H281 H 0.21855 0.04569 0.45861 0.0
N282 N 0.26215 0.04704 0.43476 0.0
C283 C 0.26956 0.03035 0.44092 0.0
C284 C 0.24374 0.05225 0.44035 0.0
C285 C 0.24085 1.02453 0.46116 0.0
C286 C 0.23294 0.04126 0.45386 0.0
C287 C 0.25925 1.01868 0.45444 0.0
H288 H 0.25996 0.99239 0.47112 0.0
N289 N 0.29528 0.03521 0.41839 0.0
C290 C 0.28684 1.0243 0.43256 0.0
C291 C 0.31155 1.00014 0.42806 0.0
C292 C 0.29472 1.00651 0.43784 0.0
C293 C 0.3111 0.02846 0.40807 0.0
C294 C 0.31958 1.01101 0.41289 0.0
O295 O 0.27328 0.10854 0.39739 0.0
O296 O 0.26066 0.09077 0.42096 0.0
O297 O 0.26191 0.04278 0.39776 0.0
O298 O 0.26685 0.07131 0.38525 0.0
O299 O 0.29132 0.11013 0.44535 0.0
O300 O 0.27648 0.07847 0.44481 0.0
O301 O 0.31354 0.07242 0.41877 0.0
O302 O 0.31541 0.10217 0.43536 0.0
O303 O 0.31964 0.14452 0.40797 0.0
O304 O 0.33192 0.11593 0.40138 0.0
O305 O 0.30659 0.06684 0.38839 0.0
O306 O 0.31326 0.09986 0.38431 0.0
C307 C 0.25868 0.10528 0.40936 0.0
C308 C 0.28152 0.09534 0.45496 0.0
C309 C 0.23408 0.05688 0.38429 0.0
C310 C 0.20014 0.04288 0.38589 0.0
C311 C 0.20653 0.07836 0.38451 0.0
C312 C 0.22655 0.07562 0.38271 0.0
C313 C 0.19346 0.06221 0.38638 0.0
C314 C 0.22067 0.04034 0.38558 0.0
C315 C 0.25578 0.05498 0.38523 0.0
C316 C 0.28523 0.99539 0.45224 0.0
C317 C 0.26744 1.0014 0.46045 0.0
H318 H 0.31813 0.98661 0.43173 0.0
C319 C 0.32021 0.08375 0.43381 0.0
C320 C 0.31612 0.08118 0.37864 0.0
C321 C 0.35369 0.14372 0.40609 0.0
C322 C 0.36453 0.16623 0.43207 0.0
C323 C 0.37534 0.1717 0.3988 0.0
C324 C 0.36408 0.15488 0.39234 0.0
C325 C 0.37455 0.17812 0.4186 0.0
C326 C 0.35694 0.14754 0.42595 0.0
C327 C 0.33455 0.13502 0.40073 0.0
H328 H 0.20108 0.09305 0.38411 0.0
H329 H 0.23619 0.08827 0.38014 0.0
H330 H 0.17795 0.06487 0.38766 0.0
H331 H 0.22616 0.02565 0.38585 0.0
H332 H 0.38258 0.18099 0.38824 0.0
H333 H 0.36178 0.15188 0.37673 0.0
H334 H 0.38016 0.19286 0.42289 0.0
H335 H 0.34832 0.13884 0.43619 0.0
C336 C 0.9936 0.89309 0.65601 0.0
C337 C 0.96689 0.87324 0.6696 0.0
C338 C 0.98708 0.87686 0.66603 0.0
C339 C 0.95339 0.88627 0.66285 0.0
C340 C 0.98014 0.90622 0.64912 0.0
C341 C 0.95998 0.90271 0.65259 0.0
N342 N 1.0132 0.89613 0.65322 0.0
C343 C 1.02035 0.91235 0.64388 0.0
C344 C 0.98738 0.92248 0.63901 0.0
C345 C 1.00758 0.92549 0.63628 0.0
Gd346 Gd 0.08417 0.85511 0.66063 0.0
Gd347 Gd 0.03352 0.87755 0.67201 0.0
N348 N 1.0007 0.86569 0.67389 0.0
C349 C 0.96099 0.85726 0.68077 0.0
C350 C 0.99509 0.85094 0.6859 0.0
C351 C 0.97518 0.84607 0.68899 0.0
H352 H 1.00596 0.84281 0.69307 0.0
H353 H 0.97081 0.83407 0.69816 0.0
H354 H 0.09658 0.85094 0.6129 0.0
H355 H 0.03596 0.91547 0.64253 0.0
H356 H 0.11863 0.86838 0.58985 0.0
H357 H 0.94558 0.85387 0.68369 0.0
H358 H 0.93787 0.88402 0.66592 0.0
H359 H 0.10343 0.86383 0.70545 0.0
H360 H 0.97751 0.93283 0.63334 0.0
H361 H 1.01335 0.93818 0.62875 0.0
H362 H 0.15839 0.91313 0.63186 0.0
H363 H 0.9494 0.91268 0.64753 0.0
H364 H 0.15181 0.90625 0.7014 0.0
H365 H 0.13007 0.88488 0.72145 0.0
N366 N 0.10993 0.87357 0.67686 0.0
C367 C 0.12255 0.88403 0.66551 0.0
C368 C 0.11303 0.87298 0.69663 0.0
C369 C 0.14027 0.89694 0.69435 0.0
C370 C 0.12803 0.8849 0.70571 0.0
C371 C 0.13781 0.89638 0.67392 0.0
H372 H 0.16187 0.91728 0.66783 0.0
N373 N 0.10688 0.86813 0.63804 0.0
C374 C 0.12071 0.88151 0.64538 0.0
C375 C 0.13266 0.88721 0.61265 0.0
C376 C 0.1339 0.89156 0.63293 0.0
C377 C 0.10658 0.86274 0.61846 0.0
C378 C 0.1192 0.87243 0.60542 0.0
O379 O 0.03599 0.84436 0.66823 0.0
O380 O 0.05896 0.83997 0.64464 0.0
O381 O 0.10576 0.83384 0.6514 0.0
O382 O 0.08742 0.82919 0.6769 0.0
O383 O 0.04136 0.85448 0.69666 0.0
O384 O 0.07276 0.84425 0.69029 0.0
O385 O 0.08048 0.88331 0.67866 0.0
O386 O 0.05906 0.89688 0.66006 0.0
O387 O 0.04455 0.90121 0.69289 0.0
O388 O 1.01396 0.89203 0.69323 0.0
O389 O 0.06746 0.86265 0.63061 0.0
O390 O 0.03689 0.87603 0.63703 0.0
C391 C 0.04157 0.83539 0.6517 0.0
C392 C 0.05678 0.84375 0.70148 0.0
C393 C 0.09077 0.80224 0.65598 0.0
C394 C 0.07673 0.78341 0.62796 0.0
C395 C 0.08031 0.76792 0.659 0.0
C396 C 0.08889 0.78559 0.66728 0.0
C397 C 0.07475 0.76661 0.63918 0.0
C398 C 0.08283 0.80145 0.63725 0.0
C399 C 0.09893 0.82121 0.66397 0.0
C400 C 0.1483 0.90501 0.64118 0.0
C401 C 0.15031 0.90735 0.66166 0.0
H402 H 0.14251 0.89461 0.60255 0.0
C403 C 0.076 0.89841 0.66897 0.0
C404 C 0.05083 0.87045 0.62391 0.0
C405 C 1.02085 0.92686 0.69506 0.0
C406 C 0.99595 0.95223 0.69252 0.0
C407 C 0.03064 0.9605 0.68701 0.0
C408 C 0.03546 0.94129 0.69056 0.0
C409 C 1.01119 0.96592 0.68801 0.0
C410 C 1.00082 0.93249 0.69594 0.0
C411 C 0.02681 0.90609 0.69806 0.0
H412 H 0.07906 0.75495 0.66759 0.0
H413 H 0.09397 0.7863 0.68235 0.0
H414 H 0.07054 0.75233 0.63223 0.0
H415 H 0.08411 0.8146 0.62887 0.0
H416 H 0.04213 0.97135 0.68355 0.0
H417 H 0.05077 0.93774 0.68964 0.0
H418 H 1.00801 0.98105 0.68542 0.0
H419 H 0.98922 0.92173 0.69941 0.0
C420 C 0.23156 0.0437 0.6211 0.0
C421 C 0.25121 1.01499 0.62256 0.0
C422 C 0.24558 0.03348 0.63047 0.0
C423 C 0.24345 1.00757 0.60445 0.0
C424 C 0.22297 0.03586 0.60347 0.0
C425 C 0.22935 1.01798 0.59493 0.0
N426 N 0.2261 0.06128 0.6295 0.0
C427 C 0.21034 0.07041 0.6224 0.0
C428 C 0.20792 0.04603 0.5952 0.0
C429 C 0.20134 0.06315 0.60492 0.0
Gd430 Gd 0.27138 0.12131 0.65601 0.0
Gd431 Gd 0.24322 0.0728 0.65819 0.0
N432 N 0.25266 0.041 0.64803 0.0
C433 C 0.2639 1.00421 0.63345 0.0
C434 C 0.26404 0.03002 0.65926 0.0
C435 C 0.26997 1.01156 0.65207 0.0
H436 H 0.26877 0.03572 0.67368 0.0
H437 H 0.27933 1.0031 0.66084 0.0
H438 H 0.23303 0.12137 0.62222 0.0
H439 H 0.20533 0.08372 0.62979 0.0
H440 H 0.20913 0.14437 0.61246 0.0
H441 H 0.26858 0.98994 0.62788 0.0
H442 H 0.24782 0.99352 0.59799 0.0
H443 H 0.29112 0.14147 0.69697 0.0
H444 H 0.20094 0.04048 0.58164 0.0
H445 H 0.18936 0.07078 0.59891 0.0
H446 H 0.21756 0.19972 0.65867 0.0
H447 H 0.22312 1.01182 0.58122 0.0
H448 H 0.26474 0.19656 0.70996 0.0
H449 H 0.28846 0.17184 0.71818 0.0
N450 N 0.26833 0.14843 0.67779 0.0
C451 C 0.25534 0.16184 0.67278 0.0
C452 C 0.28027 0.15185 0.69368 0.0
C453 C 0.26562 0.18309 0.7008 0.0
C454 C 0.27898 0.16915 0.70555 0.0
C455 C 0.25363 0.17958 0.68425 0.0
H456 H 0.23871 0.20701 0.68744 0.0
N457 N 0.24592 0.14068 0.64495 0.0
C458 C 0.24354 0.1577 0.65625 0.0
C459 C 0.21727 0.16648 0.63512 0.0
C460 C 0.22938 0.17118 0.65135 0.0
C461 C 0.23308 0.13552 0.62995 0.0
C462 C 0.21892 0.14845 0.62459 0.0
O463 O 0.27578 0.07007 0.65929 0.0
O464 O 0.28408 0.09504 0.63981 0.0
O465 O 0.28626 0.14806 0.64658 0.0
O466 O 0.30331 0.12549 0.65809 0.0
O467 O 0.26804 0.07652 0.68469 0.0
O468 O 0.28397 0.10738 0.68368 0.0
O469 O 0.24421 0.12097 0.67709 0.0
O470 O 0.22423 0.10116 0.65829 0.0
O471 O 0.21986 0.07421 0.68043 0.0
O472 O 0.22777 0.04605 0.66796 0.0
O473 O 0.26503 0.11018 0.6226 0.0
O474 O 0.24854 0.07978 0.62431 0.0
C475 C 0.2875 0.07773 0.64624 0.0
C476 C 0.282 0.09014 0.69215 0.0
C477 C 0.314 0.1392 0.62879 0.0
C478 C 0.31164 0.13621 0.59306 0.0
C479 C 0.34349 0.13676 0.60906 0.0
C480 C 0.33447 0.13874 0.62755 0.0
C481 C 0.33207 0.13564 0.59192 0.0
C482 C 0.30285 0.13742 0.61156 0.0
C483 C 0.30354 0.14098 0.64764 0.0
C484 C 0.22806 0.18909 0.66248 0.0
C485 C 0.2401 0.19324 0.67888 0.0
H486 H 0.20634 0.17648 0.63084 0.0
C487 C 0.22607 0.11705 0.67057 0.0
C488 C 0.25645 0.09397 0.61328 0.0
C489 C 0.19379 0.04904 0.67438 0.0
C490 C 0.16643 1.0235 0.67123 0.0
C491 C 0.16102 0.05784 0.66517 0.0
C492 C 0.18067 0.0632 0.66912 0.0
C493 C 0.15396 0.03829 0.66628 0.0
C494 C 0.18653 0.02895 0.67527 0.0
C495 C 0.21492 0.05531 0.67841 0.0
H496 H 0.35932 0.1366 0.60803 0.0
H497 H 0.34337 0.13995 0.64071 0.0
H498 H 0.33885 0.13501 0.57772 0.0
H499 H 0.28712 0.13848 0.61243 0.0
H500 H 0.15113 0.06898 0.66124 0.0
H501 H 0.18558 0.07852 0.668 0.0
H502 H 0.13858 0.03466 0.66323 0.0
H503 H 0.19638 1.01774 0.67916 0.0
C504 C 0.17433 0.26225 0.69884 0.0
C505 C 0.19592 0.25709 0.67076 0.0
C506 C 0.17872 0.26471 0.67909 0.0
C507 C 0.20849 0.24687 0.68245 0.0
C508 C 0.18735 0.25284 0.71082 0.0
C509 C 0.20431 0.24491 0.70245 0.0
N510 N 0.15727 0.26916 0.70636 0.0
C511 C 0.15356 0.26942 0.72614 0.0
C512 C 0.18296 0.25179 0.73088 0.0
C513 C 0.16612 0.26034 0.73861 0.0
Gd514 Gd 0.09004 0.26681 0.68168 0.0
Gd515 Gd 0.13913 0.28708 0.68509 0.0
N516 N 0.16666 0.27533 0.66831 0.0
C517 C 0.20025 0.26038 0.65104 0.0
C518 C 0.17125 0.27933 0.64935 0.0
C519 C 0.18794 0.27167 0.64035 0.0
H520 H 0.16237 0.28879 0.64124 0.0
H521 H 0.19147 0.27474 0.62527 0.0
H522 H 0.06114 0.3051 0.69399 0.0
H523 H 0.14068 0.27633 0.73206 0.0
H524 H 0.0291 0.31651 0.68578 0.0
H525 H 0.2133 0.25469 0.64409 0.0
H526 H 0.22174 0.24081 0.67627 0.0
H527 H 0.09134 0.22141 0.6593 0.0
H528 H 0.19264 0.24472 0.74059 0.0
H529 H 0.16289 0.26004 0.75416 0.0
H530 H 1.00196 0.26601 0.64127 0.0
H531 H 0.21438 0.23736 0.71135 0.0
H532 H 0.04084 0.21119 0.62301 0.0
H533 H 0.07247 0.20047 0.63518 0.0
N534 N 0.072 0.24525 0.65938 0.0
C535 C 0.05441 0.25106 0.65333 0.0
C536 C 0.07818 0.22698 0.6535 0.0
C537 C 0.04947 0.22086 0.63315 0.0
C538 C 0.0673 0.21476 0.63999 0.0
C539 C 0.04257 0.23896 0.64021 0.0
H540 H 1.01434 0.23554 0.62565 0.0
N541 N 0.05926 0.27939 0.67438 0.0
C542 C 0.04776 0.26864 0.66121 0.0
C543 C 0.02222 0.29203 0.66527 0.0
C544 C 0.02886 0.2745 0.65653 0.0
C545 C 0.05254 0.29634 0.68332 0.0
C546 C 0.03413 0.30299 0.67875 0.0
O547 O 0.13539 0.25488 0.6941 0.0
O548 O 0.115 0.24492 0.67057 0.0
O549 O 0.09802 0.24996 0.70654 0.0
O550 O 0.06729 0.25236 0.6985 0.0
O551 O 0.12886 0.28113 0.64988 0.0
O552 O 0.09698 0.26746 0.64859 0.0
O553 O 0.09521 0.29988 0.68029 0.0
O554 O 0.12371 0.30399 0.66363 0.0
O555 O 0.16611 0.30513 0.68518 0.0
O556 O 0.14274 0.31246 0.70572 0.0
O557 O 0.08912 0.293 0.70719 0.0
O558 O 0.12127 0.30275 0.71179 0.0
C559 C 0.13042 0.2407 0.68113 0.0
C560 C 0.11287 0.2737 0.63894 0.0
C561 C 0.07546 0.222 0.71041 0.0
C562 C 0.05136 0.19446 0.71376 0.0
C563 C 0.08617 0.18846 0.71155 0.0
C564 C 0.09059 0.20864 0.71003 0.0
C565 C 0.0667 0.1814 0.71355 0.0
C566 C 0.05579 0.21472 0.71212 0.0
C567 C 0.07973 0.24347 0.70905 0.0
C568 C 1.01688 0.26234 0.64387 0.0
C569 C 0.02384 0.24482 0.63535 0.0
H570 H 1.00784 0.29709 0.66191 0.0
C571 C 0.1062 0.30961 0.66791 0.0
C572 C 0.10249 0.30462 0.71747 0.0
C573 C 0.16685 0.33737 0.69963 0.0
C574 C 0.18025 0.35986 0.67667 0.0
C575 C 0.19145 0.36255 0.71034 0.0
C576 C 0.17905 0.34619 0.71444 0.0
C577 C 0.1929 0.36871 0.69107 0.0
C578 C 0.16543 0.34618 0.68194 0.0
C579 C 0.16067 0.31658 0.70009 0.0
H580 H 0.0979 0.17826 0.7113 0.0
H581 H 0.10582 0.21373 0.70862 0.0
H582 H 0.06357 0.16572 0.71488 0.0
H583 H 0.04393 0.22482 0.71251 0.0
H584 H 0.2014 0.36899 0.7215 0.0
H585 H 0.18009 0.33957 0.72849 0.0
H586 H 0.20468 0.37906 0.68713 0.0
H587 H 0.15608 0.33876 0.67068 0.0
C588 C 0.85854 0.10676 0.65904 0.0
C589 C 0.83144 0.12843 0.65994 0.0
C590 C 0.84088 0.11226 0.66704 0.0
C591 C 0.83976 0.13842 0.64416 0.0
C592 C 0.86745 0.1172 0.64374 0.0
C593 C 0.85768 0.13275 0.63596 0.0
N594 N 0.86769 0.09206 0.66725 0.0
C595 C 0.88654 0.088 0.66207 0.0
C596 C 0.88627 0.11228 0.6374 0.0
C597 C 0.89601 0.09785 0.64688 0.0
Gd598 Gd 0.83456 1.02143 0.6959 0.0
Gd599 Gd 0.85037 0.07485 0.69132 0.0
N600 N 0.83373 0.10272 0.68275 0.0
C601 C 0.81439 0.1346 0.66944 0.0
C602 C 0.81759 0.10926 0.69263 0.0
C603 C 0.80756 0.1251 0.686 0.0
H604 H 0.81205 0.1022 0.70546 0.0
H605 H 0.79459 0.13 0.6937 0.0
H606 H 0.83098 0.99541 0.65218 0.0
H607 H 0.8941 0.07686 0.66939 0.0
H608 H 0.8496 0.9697 0.63424 0.0
H609 H 0.80675 0.14702 0.66445 0.0
H610 H 0.83282 0.15104 0.63877 0.0
H611 H 0.84559 1.01944 0.74327 0.0
H612 H 0.89362 0.11994 0.62567 0.0
H613 H 0.91075 0.09427 0.64247 0.0
H614 H 0.89108 0.94556 0.68313 0.0
H615 H 0.86422 0.14095 0.62417 0.0
H616 H 0.88557 0.97333 0.74905 0.0
H617 H 0.86607 1.00002 0.76419 0.0
N618 N 0.85395 1.00419 0.7167 0.0
C619 C 0.86334 0.98873 0.7083 0.0
C620 C 0.85406 1.00778 0.73662 0.0
C621 C 0.87653 0.98173 0.73987 0.0
C622 C 0.86559 0.99681 0.74847 0.0
C623 C 0.87532 0.97737 0.71958 0.0
H624 H 0.89517 0.95335 0.71861 0.0
N625 N 0.84726 0.99398 0.6786 0.0
C626 C 0.86042 0.9839 0.68851 0.0
C627 C 0.86661 0.96339 0.65932 0.0
C628 C 0.87028 0.96817 0.67921 0.0
C629 C 0.8424 0.98827 0.65967 0.0
C630 C 0.85259 0.97347 0.64954 0.0
O631 O 0.81791 0.06595 0.68668 0.0
O632 O 0.81948 0.03489 0.67261 0.0
O633 O 0.81873 0.99424 0.70229 0.0
O634 O 0.8048 1.02207 0.70742 0.0
O635 O 0.82514 0.07291 0.71568 0.0
O636 O 0.82317 0.04026 0.72322 0.0
O637 O 0.86224 0.03422 0.70907 0.0
O638 O 0.87196 0.05041 0.68343 0.0
O639 O 0.86785 0.1001 0.70412 0.0
O640 O 0.86637 0.07241 0.71856 0.0
O641 O 0.84326 0.02854 0.66112 0.0
O642 O 0.85402 0.06147 0.65955 0.0
C643 C 0.81095 0.05157 0.6745 0.0
C644 C 0.81781 0.05871 0.72707 0.0
C645 C 0.78473 0.99328 0.7032 0.0
C646 C 0.77101 0.97401 0.6759 0.0
C647 C 0.7615 0.96606 0.70895 0.0
C648 C 0.77424 0.98144 0.71631 0.0
C649 C 0.76064 0.96168 0.68868 0.0
C650 C 0.78112 0.99106 0.68327 0.0
C651 C 0.80326 1.00304 0.70905 0.0
C652 C 0.88321 0.95756 0.69009 0.0
C653 C 0.88556 0.962 0.71028 0.0
H654 H 0.87415 0.95165 0.65152 0.0
C655 C 0.87575 0.03724 0.69599 0.0
C656 C 0.85058 0.0439 0.65028 0.0
C657 C 0.89779 0.08976 0.71711 0.0
C658 C 0.93046 0.10674 0.71614 0.0
C659 C 0.92725 0.07095 0.71334 0.0
C660 C 0.90713 0.07175 0.71632 0.0
C661 C 0.93882 0.0883 0.71299 0.0
C662 C 0.90971 0.10751 0.71729 0.0
C663 C 0.87582 0.08957 0.71712 0.0
H664 H 0.75388 0.95641 0.71894 0.0
H665 H 0.77703 0.9831 0.73195 0.0
H666 H 0.75306 0.94816 0.68326 0.0
H667 H 0.78999 0.99998 0.67342 0.0
H668 H 0.93399 0.05682 0.71194 0.0
H669 H 0.89892 0.05818 0.71833 0.0
H670 H 0.95455 0.08726 0.71115 0.0
H671 H 0.903 0.12165 0.71896 0.0
C672 C 0.43088 0.9948 0.23054 0.0
C673 C 0.44485 0.96247 0.22792 0.0
C674 C 0.44655 0.98282 0.23333 0.0
C675 C 0.42686 0.95404 0.22095 0.0
C676 C 0.41324 0.98647 0.2222 0.0
C677 C 0.41108 0.966 0.21813 0.0
N678 N 0.43366 1.01472 0.23388 0.0
C679 C 0.42019 0.02693 0.22697 0.0
C680 C 0.39867 0.99903 0.21708 0.0
C681 C 0.4024 1.01937 0.219 0.0
Gd682 Gd 0.45697 0.06888 0.22214 0.0
Gd683 Gd 0.46347 1.02443 0.25055 0.0
N684 N 0.46402 0.99136 0.23951 0.0
C685 C 0.46153 0.95131 0.22886 0.0
C686 C 0.48059 0.98082 0.23945 0.0
C687 C 0.47955 0.96061 0.23433 0.0
H688 H 0.49461 0.98802 0.24345 0.0
H689 H 0.49264 0.95222 0.23457 0.0
H690 H 0.44807 0.10931 0.25163 0.0
H691 H 0.4233 0.04245 0.22661 0.0
H692 H 0.46403 0.14192 0.26043 0.0
H693 H 0.4608 0.93565 0.22477 0.0
H694 H 0.42522 0.93838 0.21695 0.0
H695 H 0.48036 0.05177 0.18184 0.0
H696 H 0.38498 0.99319 0.21058 0.0
H697 H 0.39178 0.02926 0.21389 0.0
H698 H 0.51955 0.14632 0.21699 0.0
H699 H 0.39755 0.95938 0.21196 0.0
H700 H 0.52733 0.0933 0.16864 0.0
H701 H 0.50856 0.06172 0.16097 0.0
N702 N 0.48366 0.0771 0.20149 0.0
C703 C 0.49285 0.09523 0.20504 0.0
C704 C 0.48849 0.06554 0.1853 0.0
C705 C 0.51493 0.08905 0.17779 0.0
C706 C 0.50441 0.07117 0.17345 0.0
C707 C 0.50906 0.10144 0.1936 0.0
H708 H 0.53144 0.12475 0.18974 0.0
N709 N 0.46993 0.10121 0.23055 0.0
C710 C 0.48609 0.10739 0.22035 0.0
C711 C 0.48761 0.13845 0.23953 0.0
C712 C 0.49544 0.12612 0.22465 0.0
C713 C 0.46159 0.11371 0.24432 0.0
C714 C 0.47045 0.13232 0.2492 0.0
O715 O 0.4705 1.01586 0.21823 0.0
O716 O 0.45233 0.03835 0.20329 0.0
O717 O 0.43436 0.06676 0.19936 0.0
O718 O 0.44516 0.09528 0.21058 0.0
O719 O 0.49582 0.03477 0.24229 0.0
O720 O 0.49141 0.06233 0.22459 0.0
O721 O 0.45597 0.07474 0.25427 0.0
O722 O 0.47843 0.05333 0.2612 0.0
O723 O 0.48097 1.00867 0.27068 0.0
O724 O 0.45163 1.01558 0.27872 0.0
O725 O 0.43223 0.06752 0.24909 0.0
O726 O 0.43554 0.03832 0.26462 0.0
C727 C 0.46087 1.02088 0.20261 0.0
C728 C 0.50365 0.04969 0.23221 0.0
C729 C 0.43806 0.09279 0.17647 0.0
C730 C 0.44099 0.11934 0.15282 0.0
C731 C 0.44257 0.08483 0.14153 0.0
C732 C 0.44018 0.07885 0.16069 0.0
C733 C 0.44287 0.10478 0.13761 0.0
C734 C 0.43869 0.11328 0.17243 0.0
C735 C 0.43507 0.08577 0.19686 0.0
C736 C 0.51205 0.13208 0.21376 0.0
C737 C 0.5188 0.11981 0.19822 0.0
H738 H 0.49445 0.15287 0.24336 0.0
C739 C 0.47013 0.06992 0.26525 0.0
C740 C 0.4259 0.05479 0.26313 0.0
C741 C 0.47608 1.0253 0.30154 0.0
C742 C 0.49784 0.05449 0.30888 0.0
C743 C 0.46791 0.04914 0.32785 0.0
C744 C 0.46331 0.03169 0.31656 0.0
C745 C 0.48481 0.06079 0.32373 0.0
C746 C 0.49391 0.03604 0.29899 0.0
C747 C 0.46881 1.01172 0.28516 0.0
H748 H 0.44406 0.07386 0.12957 0.0
H749 H 0.43993 0.0632 0.16309 0.0
H750 H 0.44455 0.10891 0.12252 0.0
H751 H 0.43705 0.12433 0.18432 0.0
H752 H 0.45784 0.05415 0.33919 0.0
H753 H 0.44932 1.02385 0.3188 0.0
H754 H 0.48741 0.07478 0.33189 0.0
H755 H 0.50427 0.03053 0.28817 0.0
C756 C 0.11886 0.46628 0.24844 0.0
C757 C 0.1418 0.45713 0.27284 0.0
C758 C 0.12339 0.45455 0.26345 0.0
C759 C 0.15495 0.47259 0.26765 0.0
C760 C 0.13247 0.48099 0.24222 0.0
C761 C 0.15028 0.48454 0.25236 0.0
N762 N 0.10168 0.46224 0.23891 0.0
C763 C 0.09801 0.47099 0.22175 0.0
C764 C 0.12808 0.49116 0.22558 0.0
C765 C 0.11094 0.48585 0.21506 0.0
Gd766 Gd 0.02985 0.44707 0.27782 0.0
Gd767 Gd 0.07886 0.4399 0.25317 0.0
N768 N 0.11028 0.43979 0.26798 0.0
C769 C 0.14664 0.44378 0.28676 0.0
C770 C 0.11537 0.42623 0.281 0.0
C771 C 0.13349 0.42805 0.29058 0.0
H772 H 0.10549 0.41411 0.28455 0.0
H773 H 0.1372 0.4174 0.30107 0.0
H774 H 1.01472 0.48452 0.25048 0.0
H775 H 0.08458 0.46709 0.21378 0.0
H776 H 0.98554 0.49224 0.23249 0.0
H777 H 0.16063 0.44521 0.29427 0.0
H778 H 0.169 0.47503 0.27494 0.0
H779 H 0.02768 0.39668 0.27807 0.0
H780 H 0.13812 0.50262 0.22036 0.0
H781 H 0.10763 0.49324 0.20188 0.0
H782 H 0.94349 0.43392 0.23462 0.0
H783 H 0.16082 0.496 0.24804 0.0
H784 H 0.97064 0.37637 0.25875 0.0
H785 H 1.00308 0.36972 0.2722 0.0
N786 N 1.00964 0.41906 0.26846 0.0
C787 C 0.99182 0.42302 0.26112 0.0
C788 C 1.01372 0.40014 0.27239 0.0
C789 C 0.98139 0.38847 0.26154 0.0
C790 C 0.99971 0.38464 0.26902 0.0
C791 C 0.97736 0.40775 0.25717 0.0
H792 H 0.94836 0.4005 0.24526 0.0
N793 N 1.00361 0.45615 0.25837 0.0
C794 C 0.98885 0.44207 0.2556 0.0
C795 C 0.97027 0.46449 0.23749 0.0
C796 C 0.97165 0.44601 0.24535 0.0
C797 C 1.00274 0.47375 0.24969 0.0
C798 C 0.9861 0.47821 0.23924 0.0
O799 O 0.07912 0.44516 0.28561 0.0
O800 O 0.05501 0.46643 0.28898 0.0
O801 O 1.0086 0.46345 0.29526 0.0
O802 O 1.01981 0.43668 0.30575 0.0
O803 O 0.07248 0.4145 0.27624 0.0
O804 O 0.04589 0.42354 0.29508 0.0
O805 O 0.03044 0.43042 0.24788 0.0
O806 O 0.05351 0.44962 0.23424 0.0
O807 O 0.0688 0.41172 0.23876 0.0
O808 O 0.09493 0.428 0.22863 0.0
O809 O 0.04266 0.47862 0.26669 0.0
O810 O 0.07236 0.47335 0.25106 0.0
C811 C 0.0725 0.46129 0.2935 0.0
C812 C 0.06054 0.41143 0.29183 0.0
C813 C 1.01546 0.46194 0.32925 0.0
C814 C 0.03177 0.4895 0.34795 0.0
C815 C 1.01345 0.4639 0.36487 0.0
C816 C 1.00863 0.45411 0.34681 0.0
C817 C 0.02457 0.48183 0.36545 0.0
C818 C 0.0279 0.47891 0.33002 0.0
C819 C 1.01006 0.45223 0.31016 0.0
C820 C 0.95686 0.43107 0.24227 0.0
C821 C 0.95966 0.41202 0.24827 0.0
H822 H 0.95742 0.468 0.22933 0.0
C823 C 0.03661 0.43957 0.23242 0.0
C824 C 0.05839 0.48567 0.25633 0.0
C825 C 0.09544 0.39433 0.22474 0.0
C826 C 0.11603 0.37546 0.20209 0.0
C827 C 0.12214 0.37666 0.23741 0.0
C828 C 0.1063 0.38862 0.24066 0.0
C829 C 0.12732 0.37053 0.21828 0.0
C830 C 0.0997 0.38704 0.20572 0.0
C831 C 0.08392 0.41182 0.2268 0.0
H832 H 1.00777 0.45807 0.37836 0.0
H833 H 0.99936 0.44068 0.34651 0.0
H834 H 0.02657 0.49024 0.37931 0.0
H835 H 0.03282 0.48516 0.3164 0.0
H836 H 0.13098 0.37287 0.24967 0.0
H837 H 0.1032 0.39428 0.25539 0.0
H838 H 0.14054 0.36246 0.21634 0.0
H839 H 0.09085 0.39151 0.19376 0.0
C840 C 0.7209 0.14293 0.27403 0.0
C841 C 0.69722 0.16782 0.26874 0.0
C842 C 0.70142 0.14851 0.27345 0.0
C843 C 0.71273 0.18177 0.26588 0.0
C844 C 0.7364 0.15667 0.27004 0.0
C845 C 0.73224 0.17624 0.2666 0.0
N846 N 0.7244 0.12347 0.27587 0.0
C847 C 0.74301 0.11691 0.27382 0.0
C848 C 0.75555 0.15011 0.26858 0.0
C849 C 0.75881 0.13012 0.27023 0.0
Gd850 Gd 0.7066 0.05861 0.25573 0.0
Gd851 Gd 0.69657 0.10405 0.28496 0.0
N852 N 0.68663 0.13458 0.2757 0.0
C853 C 0.67756 0.17229 0.26621 0.0
C854 C 0.66751 0.13863 0.27263 0.0
C855 C 0.66268 0.15757 0.26793 0.0
H856 H 0.65599 0.12743 0.27457 0.0
H857 H 0.6475 0.16082 0.26577 0.0
H858 H 0.73401 0.02818 0.28133 0.0
H859 H 0.74569 0.10145 0.27423 0.0
H860 H 0.72986 0.99537 0.29465 0.0
H861 H 0.67376 0.18694 0.26247 0.0
H862 H 0.70978 0.19675 0.26245 0.0
H863 H 0.68227 0.05545 0.21266 0.0
H864 H 0.76783 0.16023 0.26549 0.0
H865 H 0.77349 0.12484 0.26852 0.0
H866 H 0.67119 0.96694 0.26366 0.0
H867 H 0.744 0.18703 0.26368 0.0
H868 H 0.64581 1.0021 0.2108 0.0
H869 H 0.65655 0.03356 0.19625 0.0
N870 N 0.6856 0.03675 0.23642 0.0
C871 C 0.68096 1.01898 0.24368 0.0
C872 C 0.67787 0.04159 0.2189 0.0
C873 C 0.65711 1.01163 0.21798 0.0
C874 C 0.66321 0.02932 0.20967 0.0
C875 C 0.66643 1.00599 0.23491 0.0
H876 H 0.651 0.97741 0.23654 0.0
N877 N 0.70729 0.02558 0.2651 0.0
C878 C 0.69227 1.01315 0.25868 0.0
C879 C 0.70278 0.98787 0.27929 0.0
C880 C 0.68942 0.99405 0.26568 0.0
C881 C 0.7212 1.01905 0.27722 0.0
C882 C 0.71901 1.00026 0.28471 0.0
O883 O 0.70821 0.11035 0.25408 0.0
O884 O 0.69627 0.0836 0.23645 0.0
O885 O 0.73452 0.07191 0.24537 0.0
O886 O 0.72096 0.04493 0.23125 0.0
O887 O 0.66611 0.0928 0.26874 0.0
O888 O 0.67307 0.06371 0.25154 0.0
O889 O 0.69936 0.05477 0.28736 0.0
O890 O 0.67688 0.07767 0.29059 0.0
O891 O 0.68261 0.12439 0.3057 0.0
O892 O 0.70529 0.10617 0.31558 0.0
O893 O 0.72999 0.06212 0.28275 0.0
O894 O 0.72326 0.09051 0.30071 0.0
C895 C 0.70207 0.10248 0.23715 0.0
C896 C 0.66016 0.07725 0.25643 0.0
C897 C 0.75427 0.0487 0.22705 0.0
C898 C 0.76902 0.02716 0.20195 0.0
C899 C 0.77893 0.02648 0.2362 0.0
C900 C 0.76537 0.04065 0.24158 0.0
C901 C 0.78043 1.01938 0.21657 0.0
C902 C 0.75714 0.04287 0.20731 0.0
C903 C 0.73574 0.05784 0.23148 0.0
C904 C 0.67388 0.98154 0.25821 0.0
C905 C 0.66238 0.9875 0.24279 0.0
H906 H 0.70114 0.97331 0.28506 0.0
C907 C 0.68234 0.06001 0.29386 0.0
C908 C 0.73418 0.07474 0.29844 0.0
C909 C 0.67935 0.11214 0.33715 0.0
C910 C 0.64807 0.098 0.34817 0.0
C911 C 0.67158 0.11256 0.37194 0.0
C912 C 0.6846 0.11719 0.35668 0.0
C913 C 0.6531 0.10344 0.36769 0.0
C914 C 0.66157 0.10173 0.33312 0.0
C915 C 0.69178 0.1183 0.32077 0.0
H916 H 0.78736 1.02005 0.24741 0.0
H917 H 0.76285 0.04452 0.25699 0.0
H918 H 0.78973 1.00719 0.21312 0.0
H919 H 0.74835 0.04929 0.19631 0.0
H920 H 0.67545 0.11688 0.38699 0.0
H921 H 0.69847 0.12509 0.36005 0.0
H922 H 0.64248 0.10146 0.37941 0.0
H923 H 0.65729 0.09836 0.31795 0.0
C924 C 0.038 0.65175 0.21199 0.0
C925 C 1.00614 0.65172 0.22802 0.0
C926 C 0.02516 0.66036 0.22531 0.0
C927 C 1.00054 0.63395 0.21762 0.0
C928 C 0.03222 0.63425 0.20103 0.0
C929 C 1.01353 0.62525 0.20412 0.0
N930 N 0.05629 0.66045 0.20987 0.0
C931 C 0.06869 0.65338 0.1955 0.0
C932 C 0.04534 0.62635 0.1872 0.0
C933 C 0.06353 0.63611 0.18425 0.0
Gd934 Gd 0.10568 0.68688 0.26312 0.0
Gd935 Gd 0.06382 0.68946 0.23004 0.0
N936 N 0.03097 0.67762 0.23501 0.0
C937 C 0.99315 0.66139 0.24079 0.0
C938 C 1.01793 0.68761 0.24674 0.0
C939 C 0.99898 0.67957 0.24994 0.0
H940 H 0.02221 0.70184 0.25371 0.0
H941 H 0.98891 0.68741 0.2595 0.0
H942 H 0.1452 0.65914 0.26303 0.0
H943 H 0.08291 0.66061 0.19326 0.0
H944 H 0.18117 0.6646 0.25961 0.0
H945 H 0.97846 0.65519 0.24331 0.0
H946 H 0.98606 0.62701 0.21964 0.0
H947 H 0.08583 0.7225 0.23557 0.0
H948 H 0.04144 0.61291 0.17852 0.0
H949 H 0.07364 0.63029 0.17335 0.0
H950 H 0.18963 0.73136 0.23997 0.0
H951 H 1.0089 0.6117 0.19598 0.0
H952 H 0.1321 0.76431 0.22346 0.0
H953 H 0.09681 0.75406 0.2227 0.0
N954 N 0.11366 0.7155 0.24582 0.0
C955 C 0.13333 0.72014 0.24499 0.0
C956 C 0.10082 0.72712 0.23721 0.0
C957 C 0.12714 0.75058 0.22972 0.0
C958 C 0.10723 0.7449 0.22932 0.0
C959 C 0.14054 0.73792 0.23711 0.0
H960 H 0.16662 0.75584 0.2303 0.0
N961 N 0.13917 0.68844 0.25606 0.0
C962 C 0.14644 0.70622 0.25031 0.0
C963 C 0.17943 0.69485 0.25186 0.0
C964 C 0.16684 0.7099 0.24807 0.0
C965 C 0.15125 0.67341 0.259 0.0
C966 C 0.17157 0.67644 0.25706 0.0
O967 O 0.05535 0.69072 0.26151 0.0
O968 O 0.07751 0.66985 0.27023 0.0
O969 O 0.12009 0.67208 0.28627 0.0
O970 O 0.11495 0.70285 0.2903 0.0
O971 O 0.06172 0.71602 0.25698 0.0
O972 O 0.08826 0.71354 0.27734 0.0
O973 O 0.11857 0.67904 0.2321 0.0
O974 O 0.09487 0.6909 0.21259 0.0
O975 O 0.03905 0.70119 0.21521 0.0
O976 O 0.06821 0.71022 0.2066 0.0
O977 O 0.09795 0.65316 0.2534 0.0
O978 O 0.07055 0.65544 0.23398 0.0
C979 C 0.06002 0.67663 0.27229 0.0
C980 C 0.07215 0.72305 0.27337 0.0
C981 C 0.10954 0.68358 0.31732 0.0
C982 C 0.08374 0.66191 0.32914 0.0
C983 C 0.10919 0.67528 0.35139 0.0
C984 C 0.11879 0.68438 0.33562 0.0
C985 C 0.09249 0.6627 0.34777 0.0
C986 C 0.0904 0.67568 0.31595 0.0
C987 C 0.11995 0.68725 0.29877 0.0
C988 C 0.17398 0.72815 0.24151 0.0
C989 C 0.16087 0.74211 0.23603 0.0
H990 H 0.19519 0.69713 0.25031 0.0
C991 C 0.1132 0.68445 0.21451 0.0
C992 C 0.08367 0.64411 0.24209 0.0
C993 C 0.04406 0.70329 0.18144 0.0
C994 C 1.01971 0.6991 0.15469 0.0
C995 C 0.05031 0.68191 0.15263 0.0
C996 C 0.05643 0.69094 0.17046 0.0
C997 C 0.03212 0.68571 0.14494 0.0
C998 C 0.02559 0.70746 0.17343 0.0
C999 C 0.0496 0.70963 0.20199 0.0
H1000 H 0.11554 0.67641 0.36589 0.0
H1001 H 0.13327 0.69146 0.33749 0.0
H1002 H 0.08738 0.65282 0.35888 0.0
H1003 H 0.08264 0.67658 0.30264 0.0
H1004 H 0.05974 0.67182 0.14471 0.0
H1005 H 0.07073 0.68779 0.17592 0.0
H1006 H 0.02783 0.67809 0.13116 0.0
H1007 H 1.016 0.71716 0.18168 0.0
C1008 C 0.44886 0.12109 0.86463 0.0
C1009 C 0.44271 0.14913 0.84554 0.0
C1010 C 0.43927 0.12909 0.84952 0.0
C1011 C 0.45708 0.16058 0.85627 0.0
C1012 C 0.46222 0.13283 0.87646 0.0
C1013 C 0.46683 0.15244 0.87175 0.0
N1014 N 0.44367 0.10228 0.86885 0.0
C1015 C 0.44966 0.09497 0.88606 0.0
C1016 C 0.46979 0.1248 0.89315 0.0
C1017 C 0.46314 0.10593 0.8982 0.0
Gd1018 Gd 0.43475 0.03914 0.81566 0.0
Gd1019 Gd 0.42361 0.08372 0.84562 0.0
N1020 N 0.42517 0.11768 0.83995 0.0
C1021 C 0.43097 0.15723 0.83156 0.0
C1022 C 0.41283 0.12581 0.82725 0.0
C1023 C 0.41566 0.14562 0.82271 0.0
H1024 H 0.40098 0.11703 0.82029 0.0
H1025 H 0.4061 0.15187 0.81232 0.0
H1026 H 0.47201 1.01027 0.82331 0.0
H1027 H 0.44479 0.08034 0.88999 0.0
H1028 H 0.47667 0.97566 0.8309 0.0
H1029 H 0.43312 0.17257 0.82806 0.0
H1030 H 0.46017 0.17594 0.85325 0.0
H1031 H 0.38675 0.04794 0.83026 0.0
H1032 H 0.48013 0.13331 0.90263 0.0
H1033 H 0.46842 0.09979 0.91141 0.0
H1034 H 0.41137 0.94836 0.84026 0.0
H1035 H 0.47729 0.16164 0.88047 0.0
H1036 H 0.35943 0.99302 0.84443 0.0
H1037 H 0.35791 0.02886 0.8407 0.0
N1038 N 0.40561 1.0238 0.82832 0.0
C1039 C 0.4067 1.00394 0.83036 0.0
C1040 C 0.38825 0.03259 0.83204 0.0
C1041 C 0.37243 1.00142 0.83984 0.0
C1042 C 0.37154 1.02165 0.83787 0.0
C1043 C 0.39014 0.99234 0.83628 0.0
H1044 H 0.37923 0.96305 0.84342 0.0
N1045 N 0.44096 1.00714 0.82423 0.0
C1046 C 0.42485 0.99537 0.82813 0.0
C1047 C 0.44571 0.9682 0.83289 0.0
C1048 C 0.42684 0.97545 0.83238 0.0
C1049 C 0.45943 1.0005 0.82587 0.0
C1050 C 0.46206 0.98092 0.83001 0.0
O1051 O 0.42989 0.08854 0.81404 0.0
O1052 O 0.45283 0.06623 0.80954 0.0
O1053 O 0.45048 1.02044 0.79481 0.0
O1054 O 0.42508 0.03477 0.78531 0.0
O1055 O 0.40241 0.08167 0.81695 0.0
O1056 O 0.40691 0.05168 0.80091 0.0
O1057 O 0.43605 0.03013 0.84757 0.0
O1058 O 0.42713 0.05755 0.86598 0.0
O1059 O 0.3978 0.06841 0.85658 0.0
O1060 O 0.40257 0.10009 0.86288 0.0
O1061 O 0.46566 0.05288 0.82866 0.0
O1062 O 0.45752 0.07833 0.85072 0.0
C1063 C 0.44635 0.08344 0.80619 0.0
C1064 C 0.39719 0.06832 0.80219 0.0
C1065 C 0.45113 0.03203 0.76301 0.0
C1066 C 0.48214 0.04579 0.75085 0.0
C1067 C 0.45778 0.03104 0.728 0.0
C1068 C 0.4453 0.02657 0.74373 0.0
C1069 C 0.47647 0.04 0.73156 0.0
C1070 C 0.46877 0.043 0.76626 0.0
C1071 C 0.44006 1.02473 0.7799 0.0
C1072 C 0.41016 0.96375 0.8372 0.0
C1073 C 0.39186 0.97215 0.83909 0.0
H1074 H 0.44785 0.95303 0.83625 0.0
C1075 C 0.43172 0.03874 0.86472 0.0
C1076 C 0.47127 0.06675 0.84291 0.0
C1077 C 0.38802 0.08133 0.88775 0.0
C1078 C 0.38277 0.09612 0.92049 0.0
C1079 C 0.38426 0.06054 0.91562 0.0
C1080 C 0.38717 0.0625 0.89551 0.0
C1081 C 0.38213 0.07726 0.92811 0.0
C1082 C 0.3855 0.098 0.90031 0.0
C1083 C 0.39226 0.08399 0.86684 0.0
H1084 H 0.45352 0.02631 0.71315 0.0
H1085 H 0.43152 1.01828 0.74094 0.0
H1086 H 0.4869 0.04119 0.71957 0.0
H1087 H 0.47352 0.0466 0.78125 0.0
H1088 H 0.38387 0.04605 0.92156 0.0
H1089 H 0.38898 0.04931 0.88615 0.0
H1090 H 0.38027 0.07549 0.94373 0.0
H1091 H 0.38578 0.11253 0.89437 0.0
C1092 C 0.99654 0.42776 0.85828 0.0
C1093 C 0.96405 0.44099 0.857 0.0
C1094 C 0.98446 0.44282 0.85352 0.0
C1095 C 0.95574 0.4235 0.86423 0.0
C1096 C 0.98821 0.41065 0.86663 0.0
C1097 C 0.96778 0.40838 0.86904 0.0
N1098 N 1.01642 0.43053 0.85631 0.0
C1099 C 0.02851 0.41724 0.86351 0.0
C1100 C 1.00068 0.39659 0.87305 0.0
C1101 C 1.02093 0.40009 0.87179 0.0
Gd1102 Gd 0.06675 0.4548 0.8729 0.0
Gd1103 Gd 0.02621 0.45893 0.83931 0.0
N1104 N 0.99286 0.45994 0.84718 0.0
C1105 C 0.95263 0.4571 0.85382 0.0
C1106 C 0.98192 0.47598 0.84476 0.0
C1107 C 0.96165 0.47474 0.84798 0.0
H1108 H 0.98882 0.48972 0.84032 0.0
H1109 H 0.95294 0.48735 0.84605 0.0
H1110 H 0.1087 0.44416 0.84905 0.0
H1111 H 0.04395 0.41987 0.8635 0.0
H1112 H 0.14264 0.45806 0.84634 0.0
H1113 H 0.93692 0.45626 0.8564 0.0
H1114 H 0.94005 0.42177 0.86677 0.0
H1115 H 0.04665 0.48029 0.91137 0.0
H1116 H 0.99485 0.38333 0.87962 0.0
H1117 H 0.03075 0.38965 0.87736 0.0
H1118 H 0.14591 0.51272 0.89395 0.0
H1119 H 0.96119 0.39523 0.87521 0.0
H1120 H 0.08864 0.52478 0.93307 0.0
H1121 H 0.05561 0.50814 0.93459 0.0
N1122 N 0.074 0.48146 0.89601 0.0
C1123 C 0.09266 0.48958 0.89586 0.0
C1124 C 0.06106 0.48737 0.91037 0.0
C1125 C 0.08478 0.51252 0.92276 0.0
C1126 C 0.06612 0.50319 0.92364 0.0
C1127 C 0.09842 0.50559 0.90894 0.0
H1128 H 0.12229 0.52636 0.91785 0.0
N1129 N 0.10009 0.46598 0.87065 0.0
C1130 C 0.10603 0.48173 0.88264 0.0
C1131 C 0.13863 0.48141 0.86842 0.0
C1132 C 0.12545 0.4899 0.88182 0.0
C1133 C 0.11317 0.45719 0.85803 0.0
C1134 C 0.13249 0.4649 0.85657 0.0
O1135 O 1.01386 0.46808 0.87052 0.0
O1136 O 0.0354 0.45271 0.88948 0.0
O1137 O 0.06039 0.43153 0.89329 0.0
O1138 O 0.09032 0.44144 0.888 0.0
O1139 O 0.03695 0.49203 0.8476 0.0
O1140 O 0.06091 0.48929 0.87091 0.0
O1141 O 0.07567 0.45491 0.84148 0.0
O1142 O 0.05419 0.47558 0.83046 0.0
O1143 O 1.0117 0.47399 0.8165 0.0
O1144 O 1.01684 0.44312 0.81214 0.0
O1145 O 0.0701 0.42984 0.8449 0.0
O1146 O 0.04257 0.43114 0.82576 0.0
C1147 C 1.01794 0.46102 0.88783 0.0
C1148 C 0.0499 0.50086 0.86046 0.0
C1149 C 0.08271 0.434 0.92047 0.0
C1150 C 0.10581 0.43526 0.94819 0.0
C1151 C 0.07145 0.4425 0.95358 0.0
C1152 C 0.06765 0.43925 0.9336 0.0
C1153 C 0.09029 0.44056 0.96082 0.0
C1154 C 0.10193 0.43221 0.92785 0.0
C1155 C 0.07863 0.43133 0.89908 0.0
C1156 C 0.1311 0.50619 0.89443 0.0
C1157 C 0.11764 0.51397 0.90801 0.0
H1158 H 0.15362 0.48734 0.86726 0.0
C1159 C 0.07183 0.469 0.83025 0.0
C1160 C 0.05935 0.42237 0.82894 0.0
C1161 C 0.02233 0.46242 0.78508 0.0
C1162 C 0.04446 0.48329 0.76596 0.0
C1163 C 0.02775 0.45433 0.75037 0.0
C1164 C 1.01864 0.45001 0.76828 0.0
C1165 C 0.04013 0.47132 0.74903 0.0
C1166 C 0.03611 0.47822 0.78395 0.0
C1167 C 1.01221 0.45898 0.80387 0.0
H1168 H 0.05973 0.44664 0.96353 0.0
H1169 H 0.0529 0.44105 0.92844 0.0
H1170 H 0.09274 0.44344 0.97642 0.0
H1171 H 0.1137 0.42825 0.91784 0.0
H1172 H 0.02448 0.44498 0.73733 0.0
H1173 H 1.00848 0.43728 0.76893 0.0
H1174 H 0.04575 0.47544 0.73484 0.0
H1175 H 0.03916 0.48774 0.79687 0.0
C1176 C 0.63884 0.04733 0.89908 0.0
C1177 C 0.63741 1.01531 0.88143 0.0
C1178 C 0.64625 0.03442 0.88477 0.0
C1179 C 0.62067 1.00966 0.89229 0.0
C1180 C 0.62235 0.04156 0.91036 0.0
C1181 C 0.61317 1.02274 0.90673 0.0
N1182 N 0.64765 0.06576 0.90174 0.0
C1183 C 0.64192 0.07827 0.91686 0.0
C1184 C 0.61567 0.05483 0.92505 0.0
C1185 C 0.62566 0.07314 0.92848 0.0
Gd1186 Gd 0.67126 0.11738 0.85386 0.0
Gd1187 Gd 0.67513 0.07293 0.88157 0.0
N1188 N 0.66256 0.04027 0.87464 0.0
C1189 C 0.64593 1.00228 0.86762 0.0
C1190 C 0.67145 0.02725 0.86185 0.0
C1191 C 0.66321 1.00818 0.85803 0.0
H1192 H 0.68523 0.03152 0.85495 0.0
H1193 H 0.67026 0.99803 0.84777 0.0
H1194 H 0.63869 0.15252 0.8622 0.0
H1195 H 0.64961 0.09235 0.91973 0.0
H1196 H 0.63924 0.18765 0.87418 0.0
H1197 H 0.63958 0.98748 0.86464 0.0
H1198 H 0.61361 0.99509 0.88984 0.0
H1199 H 0.71106 0.09877 0.87804 0.0
H1200 H 0.60305 0.05094 0.93405 0.0
H1201 H 0.62086 0.0833 0.9401 0.0
H1202 H 0.70587 0.20218 0.89404 0.0
H1203 H 0.6004 1.01809 0.91517 0.0
H1204 H 0.74742 0.14819 0.89817 0.0
H1205 H 0.74171 0.11215 0.89273 0.0
N1206 N 0.70028 0.12672 0.87191 0.0
C1207 C 0.70235 0.14658 0.87639 0.0
C1208 C 0.71373 0.11445 0.87878 0.0
C1209 C 0.73414 0.14237 0.89085 0.0
C1210 C 0.73102 0.12204 0.88777 0.0
C1211 C 0.71944 0.15485 0.88589 0.0
H1212 H 0.734 0.18167 0.89838 0.0
N1213 N 0.66935 0.14994 0.86639 0.0
C1214 C 0.68642 0.15842 0.87376 0.0
C1215 C 0.67026 0.18907 0.88041 0.0
C1216 C 0.68732 0.17837 0.88077 0.0
C1217 C 0.65233 0.15988 0.86724 0.0
C1218 C 0.65262 0.17967 0.87396 0.0
O1219 O 0.67598 0.06672 0.84914 0.0
O1220 O 0.65534 0.08994 0.84121 0.0
O1221 O 0.66315 0.14044 0.83475 0.0
O1222 O 0.68144 0.11785 0.82348 0.0
O1223 O 0.70011 0.0732 0.85513 0.0
O1224 O 0.70009 0.10386 0.84196 0.0
O1225 O 0.66149 0.12482 0.88573 0.0
O1226 O 0.6802 0.10331 0.90073 0.0
O1227 O 0.69671 0.07595 0.90532 0.0
O1228 O 0.68764 0.04711 0.89351 0.0
O1229 O 0.63797 0.10641 0.85995 0.0
O1230 O 0.64085 0.07816 0.87686 0.0
C1231 C 0.66311 0.07303 0.83722 0.0
C1232 C 0.70787 0.08629 0.84218 0.0
C1233 C 0.65477 0.12463 0.80471 0.0
C1234 C 0.62139 0.11034 0.80088 0.0
C1235 C 0.64272 0.1147 0.77233 0.0
C1236 C 0.65778 0.12319 0.78441 0.0
C1237 C 0.62471 0.10829 0.78059 0.0
C1238 C 0.63724 0.1172 0.81245 0.0
C1239 C 0.66982 0.13143 0.81903 0.0
C1240 C 0.70484 0.1868 0.88885 0.0
C1241 C 0.72088 0.1751 0.89132 0.0
H1242 H 0.67041 0.20439 0.88577 0.0
C1243 C 0.67123 0.12051 0.90148 0.0
C1244 C 0.62923 0.09106 0.86895 0.0
C1245 C 0.69254 0.04975 0.92789 0.0
C1246 C 0.68891 1.02292 0.95102 0.0
C1247 C 0.68446 0.05701 0.96228 0.0
C1248 C 0.68824 0.06334 0.94342 0.0
C1249 C 0.68488 0.03706 0.96608 0.0
C1250 C 0.69266 0.02931 0.93178 0.0
C1251 C 0.69658 0.05695 0.90777 0.0
H1252 H 0.64494 0.11316 0.75659 0.0
H1253 H 0.67171 0.12796 0.7781 0.0
H1254 H 0.61357 0.10166 0.77127 0.0
H1255 H 0.63627 0.11676 0.82799 0.0
H1256 H 0.68124 0.06768 0.97408 0.0
H1257 H 0.68777 0.07897 0.94107 0.0
H1258 H 0.68202 0.0326 0.98091 0.0
H1259 H 0.69585 1.01854 0.92003 0.0
C1260 C 0.13604 0.72116 0.84443 0.0
C1261 C 0.15395 0.69781 0.86226 0.0
C1262 C 0.13817 0.70195 0.85003 0.0
C1263 C 0.16844 0.71263 0.86713 0.0
C1264 C 0.15004 0.73632 0.85026 0.0
C1265 C 0.16654 0.73181 0.86107 0.0
N1266 N 0.11913 0.7254 0.83532 0.0
C1267 C 0.11572 0.74443 0.83116 0.0
C1268 C 0.14663 0.75575 0.84588 0.0
C1269 C 0.12934 0.75982 0.8364 0.0
Gd1270 Gd 0.05114 0.70535 0.85083 0.0
Gd1271 Gd 0.09912 0.69774 0.82434 0.0
N1272 N 0.12353 0.68803 0.84571 0.0
C1273 C 0.15394 0.67938 0.87047 0.0
C1274 C 0.12287 0.67056 0.85476 0.0
C1275 C 0.13802 0.66599 0.86721 0.0
H1276 H 0.11075 0.65998 0.85274 0.0
H1277 H 0.13729 0.65216 0.8744 0.0
H1278 H 0.02329 0.73643 0.82724 0.0
H1279 H 0.10259 0.74805 0.82385 0.0
H1280 H 0.99031 0.73626 0.81302 0.0
H1281 H 0.16559 0.67576 0.8802 0.0
H1282 H 0.18073 0.70962 0.87633 0.0
H1283 H 0.04716 0.67621 0.88903 0.0
H1284 H 0.15702 0.76778 0.85013 0.0
H1285 H 0.12648 0.77484 0.83312 0.0
H1286 H 0.95744 0.67786 0.83681 0.0
H1287 H 0.17747 0.74325 0.86556 0.0
H1288 H 0.99135 0.64424 0.8857 0.0
H1289 H 0.02381 0.65068 0.90153 0.0
N1290 N 0.02834 0.68356 0.86603 0.0
C1291 C 1.01017 0.68122 0.85821 0.0
C1292 C 0.03295 0.67356 0.88216 0.0
C1293 C 1.00155 0.65541 0.88019 0.0
C1294 C 1.01981 0.65907 0.88921 0.0
C1295 C 0.99631 0.66695 0.86481 0.0
H1296 H 0.96669 0.65421 0.861 0.0
N1297 N 1.01851 0.70884 0.84047 0.0
C1298 C 1.005 0.69448 0.84494 0.0
C1299 C 0.98063 0.70882 0.82531 0.0
C1300 C 0.98576 0.69389 0.83741 0.0
C1301 C 1.01315 0.7242 0.8298 0.0
C1302 C 0.99429 0.72427 0.82182 0.0
O1303 O 0.09804 0.71364 0.85484 0.0
O1304 O 0.07612 0.69321 0.86806 0.0
O1305 O 0.06472 0.73282 0.86362 0.0
O1306 O 0.03898 0.71867 0.87706 0.0
O1307 O 0.08513 0.66584 0.83194 0.0
O1308 O 0.05811 0.67169 0.85194 0.0
O1309 O 0.04801 0.70083 0.81857 0.0
O1310 O 0.07277 0.68033 0.81214 0.0
O1311 O 0.1212 0.68141 0.80809 0.0
O1312 O 0.1108 0.70822 0.79697 0.0
O1313 O 0.05665 0.72955 0.82624 0.0
O1314 O 0.08371 0.72152 0.80755 0.0
C1315 C 0.09257 0.70375 0.87009 0.0
C1316 C 0.07053 0.65898 0.84375 0.0
C1317 C 0.04194 0.75255 0.88138 0.0
C1318 C 1.02061 0.77065 0.90391 0.0
C1319 C 0.02506 0.78035 0.87015 0.0
C1320 C 0.03753 0.76487 0.86633 0.0
C1321 C 1.01637 0.78306 0.8887 0.0
C1322 C 0.03412 0.75596 0.90019 0.0
C1323 C 0.05134 0.73391 0.87745 0.0
C1324 C 0.9722 0.6788 0.8427 0.0
C1325 C 0.97748 0.66532 0.85642 0.0
H1326 H 0.96602 0.70892 0.81916 0.0
C1327 C 0.05492 0.68567 0.80895 0.0
C1328 C 0.06877 0.73311 0.81085 0.0
C1329 C 0.11745 0.68316 0.7736 0.0
C1330 C 0.10458 0.65493 0.75323 0.0
C1331 C 0.12284 0.68188 0.7383 0.0
C1332 C 0.12541 0.69164 0.7568 0.0
C1333 C 0.11292 0.6633 0.73655 0.0
C1334 C 0.10613 0.66547 0.77152 0.0
C1335 C 0.12091 0.69276 0.79321 0.0
H1336 H 1.02145 0.78975 0.85849 0.0
H1337 H 0.04315 0.76216 0.85158 0.0
H1338 H 1.0058 0.79437 0.89081 0.0
H1339 H 0.03779 0.74628 0.91164 0.0
H1340 H 0.12937 0.68828 0.72544 0.0
H1341 H 0.13388 0.70557 0.75805 0.0
H1342 H 0.11255 0.6551 0.72247 0.0
H1343 H 0.09996 0.65898 0.78451 0.0
C1344 C 0.24183 0.44594 0.10708 0.0
C1345 C 0.21586 0.46874 0.10405 0.0
C1346 C 0.23013 0.45663 0.09536 0.0
C1347 C 0.21353 0.4698 0.12456 0.0
C1348 C 0.23856 0.44586 0.12746 0.0
C1349 C 0.22461 0.45812 0.13621 0.0
N1350 N 0.25547 0.43444 0.09839 0.0
C1351 C 0.26706 0.42328 0.10911 0.0
C1352 C 0.24925 0.43319 0.13839 0.0
C1353 C 0.26392 0.42224 0.12929 0.0
Gd1354 Gd 0.28072 0.43961 1.01654 0.0
Gd1355 Gd 0.25569 0.43206 0.06439 0.0
N1356 N 0.23205 0.45447 0.07551 0.0
C1357 C 0.2039 0.47892 0.09186 0.0
C1358 C 0.21968 0.46368 0.06357 0.0
C1359 C 0.20577 0.47629 0.07152 0.0
H1360 H 0.22094 0.46212 0.04791 0.0
H1361 H 0.19641 0.48387 0.06194 0.0
H1362 H 0.32574 0.4275 0.03182 0.0
H1363 H 0.27791 0.4143 0.10189 0.0
H1364 H 0.34986 0.4031 1.02286 0.0
H1365 H 0.19288 0.48847 0.09799 0.0
H1366 H 0.20272 0.4791 0.13149 0.0
H1367 H 0.2413 0.42658 0.98688 0.0
H1368 H 0.24656 0.43204 0.15393 0.0
H1369 H 0.27259 0.41284 0.13775 0.0
H1370 H 0.32033 0.36374 0.96983 0.0
H1371 H 0.22222 0.4586 0.15195 0.0
H1372 H 0.2533 0.37333 0.9547 0.0
H1373 H 0.23046 0.39931 0.96422 0.0
N1374 N 0.26802 0.41413 0.99452 0.0
C1375 C 0.2815 0.40088 0.98817 0.0
C1376 C 0.25037 0.41423 0.98514 0.0
C1377 C 0.25766 0.38473 0.96577 0.0
C1378 C 0.24463 0.3992 0.97129 0.0
C1379 C 0.27655 0.38581 0.9737 0.0
H1380 H 0.28708 0.36097 0.95605 0.0
N1381 N 0.30497 0.41663 1.0103 0.0
C1382 C 0.30059 0.40259 0.99572 0.0
C1383 C 0.333 0.39 0.99853 0.0
C1384 C 0.31467 0.38907 0.98932 0.0
C1385 C 0.32272 0.41731 1.01956 0.0
C1386 C 0.33663 0.4036 1.01428 0.0
O1387 O 0.25921 0.46647 0.06125 0.0
O1388 O 0.2696 0.47071 0.0293 0.0
O1389 O 0.30215 0.46014 1.00476 0.0
O1390 O 0.28178 0.44462 0.985 0.0
O1391 O 0.2375 0.42707 0.03672 0.0
O1392 O 0.24974 0.44902 1.01575 0.0
O1393 O 0.28453 0.40845 0.031 0.0
O1394 O 0.28334 0.41293 0.06426 0.0
O1395 O 0.24474 0.40457 0.05002 0.0
O1396 O 0.23743 0.41206 0.08135 0.0
O1397 O 0.30038 0.45023 0.04119 0.0
O1398 O 0.28744 0.43828 0.06996 0.0
C1399 C 0.26335 0.47852 0.04673 0.0
C1400 C 0.23486 0.43884 1.02259 0.0
C1401 C 0.31523 0.44556 0.97585 0.0
C1402 C 0.34937 0.43636 0.97697 0.0
C1403 C 0.32978 0.42781 0.94791 0.0
C1404 C 0.31351 0.43665 0.95684 0.0
C1405 C 0.34787 0.42804 0.95776 0.0
C1406 C 0.33297 0.44476 0.98571 0.0
C1407 C 0.29861 0.45426 0.98664 0.0
C1408 C 0.30969 0.37426 0.97486 0.0
C1409 C 0.29069 0.37257 0.96716 0.0
H1410 H 0.34396 0.37948 0.99445 0.0
C1411 C 0.29064 0.40325 0.04862 0.0
C1412 C 0.30118 0.44757 0.05997 0.0
C1413 C 0.22448 0.3806 0.06728 0.0
C1414 C 0.19702 0.36173 0.08136 0.0
C1415 C 0.21869 0.34604 0.05731 0.0
C1416 C 0.22961 0.36386 0.05583 0.0
C1417 C 0.2024 0.34495 0.06988 0.0
C1418 C 0.20845 0.3794 0.08009 0.0
C1419 C 0.23584 0.39935 0.06623 0.0
H1420 H 0.32852 0.42126 0.93312 0.0
H1421 H 0.29973 0.43651 0.949 0.0
H1422 H 0.36065 0.42242 0.95026 0.0
H1423 H 0.33469 0.45189 1.00022 0.0
H1424 H 0.22279 0.33306 0.04863 0.0
H1425 H 0.24216 0.3645 0.04599 0.0
H1426 H 0.19398 0.33106 0.07041 0.0
H1427 H 0.20509 0.39233 0.08926 0.0
C1428 C 0.26485 0.70159 0.1359 0.0
C1429 C 0.26666 0.67886 0.16225 0.0
C1430 C 0.26901 0.683 0.14231 0.0
C1431 C 0.2619 0.69407 0.17595 0.0
C1432 C 0.25879 0.71643 0.14951 0.0
C1433 C 0.25806 0.71281 0.16961 0.0
N1434 N 0.26469 0.70438 0.11623 0.0
C1435 C 0.2576 0.72107 0.10918 0.0
C1436 C 0.25273 0.73415 0.14242 0.0
C1437 C 0.2518 0.73632 0.12218 0.0
Gd1438 Gd 0.24609 0.68569 0.05244 0.0
Gd1439 Gd 0.27797 0.67874 0.09705 0.0
N1440 N 0.27326 0.66842 0.12876 0.0
C1441 C 0.2681 0.65933 0.16764 0.0
C1442 C 0.2736 0.64918 0.13364 0.0
C1443 C 0.27117 0.64437 0.15321 0.0
H1444 H 0.27626 0.63772 0.12248 0.0
H1445 H 0.27184 0.62918 0.15718 0.0
H1446 H 0.27537 0.69754 1.0141 0.0
H1447 H 0.25615 0.72255 0.09358 0.0
H1448 H 0.28468 0.68291 0.98161 0.0
H1449 H 0.26626 0.65556 0.18282 0.0
H1450 H 0.26037 0.69127 0.19141 0.0
H1451 H 0.20512 0.65996 0.0656 0.0
H1452 H 0.24799 0.74593 0.15244 0.0
H1453 H 0.24643 0.74967 0.11658 0.0
H1454 H 0.24408 0.62334 0.97416 0.0
H1455 H 0.2537 0.72416 0.18031 0.0
H1456 H 0.19414 0.61226 1.02272 0.0
H1457 H 0.18482 0.63066 0.05341 0.0
N1458 N 0.22595 0.65771 0.04228 0.0
C1459 C 0.23038 0.64873 0.02452 0.0
C1460 C 0.20917 0.65206 0.05211 0.0
C1461 C 0.20301 0.62514 0.02792 0.0
C1462 C 0.19771 0.63548 0.04528 0.0
C1463 C 0.21933 0.63189 1.01715 0.0
H1464 H 0.21657 0.60941 0.99339 0.0
N1465 N 0.25549 0.67355 1.0207 0.0
C1466 C 0.24594 0.65658 1.01371 0.0
C1467 C 0.26523 0.65714 0.98381 0.0
C1468 C 0.25074 0.6478 0.99518 0.0
C1469 C 0.26872 0.68339 1.00903 0.0
C1470 C 0.2739 0.67526 0.99056 0.0
O1471 O 0.24537 0.67648 0.10751 0.0
O1472 O 0.2272 0.68827 0.08254 0.0
O1473 O 0.23471 0.69671 0.02514 0.0
O1474 O 0.22166 0.70578 0.05228 0.0
O1475 O 0.26637 0.64625 0.08652 0.0
O1476 O 0.24684 0.65096 0.05968 0.0
O1477 O 0.27899 0.68486 0.04767 0.0
O1478 O 0.28365 0.66209 0.06923 0.0
O1479 O 0.30239 0.66785 0.11318 0.0
O1480 O 0.30746 0.69225 0.09469 0.0
O1481 O 0.27162 0.71349 0.05625 0.0
O1482 O 0.28902 0.70896 0.08448 0.0
C1483 C 0.22833 0.68239 0.10118 0.0
C1484 C 0.25428 0.63846 0.07225 0.0
C1485 C 0.19985 0.69956 0.02398 0.0
C1486 C 0.17585 0.6962 0.99594 0.0
C1487 C 0.16705 0.68436 0.0282 0.0
C1488 C 0.1854 0.69054 0.03576 0.0
C1489 C 0.16236 0.68709 1.00869 0.0
C1490 C 0.19487 0.70255 1.00377 0.0
C1491 C 0.21987 0.70509 0.03311 0.0
C1492 C 0.24042 0.63043 0.98825 0.0
C1493 C 0.22471 0.62253 0.99917 0.0
H1494 H 0.26934 0.65084 0.96951 0.0
C1495 C 0.28781 0.66913 0.05234 0.0
C1496 C 0.28667 0.71975 0.06892 0.0
C1497 C 0.33266 0.66997 0.09639 0.0
C1498 C 0.33957 0.63785 0.08247 0.0
C1499 C 0.36504 0.65774 0.10013 0.0
C1500 C 0.35134 0.67206 0.10487 0.0
C1501 C 0.35869 0.63984 0.09034 0.0
C1502 C 0.32937 0.65517 0.08171 0.0
C1503 C 0.31556 0.67961 0.10534 0.0
H1504 H 0.15626 0.67735 0.03763 0.0
H1505 H 0.18826 0.68811 0.05102 0.0
H1506 H 0.14785 0.68212 1.00354 0.0
H1507 H 0.20569 0.70941 0.99427 0.0
H1508 H 0.3797 0.65937 0.10618 0.0
H1509 H 0.35497 0.68403 0.11557 0.0
H1510 H 0.36803 0.62743 0.09055 0.0
H1511 H 0.31618 0.65487 0.07345 0.0
C1512 C 0.43601 0.26268 0.12926 0.0
C1513 C 0.46639 0.25845 0.14632 0.0
C1514 C 0.4558 0.26742 0.13178 0.0
C1515 C 0.45653 0.24541 0.1588 0.0
C1516 C 0.42592 0.24985 0.14193 0.0
C1517 C 0.4363 0.24125 0.15672 0.0
N1518 N 0.42667 0.27036 0.11415 0.0
C1519 C 0.40676 0.26718 0.11192 0.0
C1520 C 0.40571 0.24601 0.13931 0.0
C1521 C 0.39605 0.25488 0.12434 0.0
Gd1522 Gd 0.43981 0.26743 0.04198 0.0
Gd1523 Gd 0.44537 0.2925 0.09508 0.0
N1524 N 0.46482 0.28037 0.1197 0.0
C1525 C 0.48667 0.26241 0.14751 0.0
C1526 C 0.48457 0.28419 0.12081 0.0
C1527 C 0.49585 0.27499 0.13439 0.0
H1528 H 0.49176 0.29403 0.11093 0.0
H1529 H 0.51161 0.27766 0.13477 0.0
H1530 H 0.39806 0.27913 1.02034 0.0
H1531 H 0.39925 0.27381 0.10018 0.0
H1532 H 0.38623 0.28588 0.98761 0.0
H1533 H 0.49541 0.25557 0.15824 0.0
H1534 H 0.46444 0.23841 0.17006 0.0
H1535 H 0.47786 0.23917 0.03506 0.0
H1536 H 0.39745 0.23627 0.14877 0.0
H1537 H 0.38041 0.25212 0.12226 0.0
H1538 H 0.43706 0.26342 0.94454 0.0
H1539 H 0.42886 0.23122 0.16649 0.0
H1540 H 0.49064 0.23281 0.97373 0.0
H1541 H 0.49858 0.22637 1.00809 0.0
N1542 N 0.45975 0.25485 1.01649 0.0
C1543 C 0.45497 0.25816 0.99782 0.0
C1544 C 0.47475 0.24291 1.02023 0.0
C1545 C 0.48193 0.23907 0.98564 0.0
C1546 C 0.48643 0.23538 1.00496 0.0
C1547 C 0.46563 0.25002 0.98187 0.0
H1548 H 0.46685 0.24521 0.95055 0.0
N1549 N 0.42705 0.27282 1.01063 0.0
C1550 C 0.43806 0.26771 0.99475 0.0
C1551 C 0.41287 0.27748 0.97297 0.0
C1552 C 0.43124 0.26969 0.97548 0.0
C1553 C 0.40812 0.27802 1.0081 0.0
C1554 C 0.40105 0.28123 0.98939 0.0
O1555 O 0.43584 0.26118 0.08624 0.0
O1556 O 0.45514 0.24836 0.06317 0.0
O1557 O 0.41248 0.25907 0.05705 0.0
O1558 O 0.42974 0.23677 0.04246 0.0
O1559 O 0.47779 0.28512 0.08062 0.0
O1560 O 0.47396 0.27369 0.04758 0.0
O1561 O 0.44698 0.29273 0.06129 0.0
O1562 O 0.46211 0.31562 0.07758 0.0
O1563 O 0.4476 0.3164 0.11755 0.0
O1564 O 0.41937 0.30678 0.10479 0.0
O1565 O 0.41789 0.2939 0.04501 0.0
O1566 O 0.41726 0.30274 0.07844 0.0
C1567 C 0.44832 0.24781 0.08115 0.0
C1568 C 0.48584 0.27869 0.06305 0.0
C1569 C 0.39583 0.22898 0.04661 0.0
C1570 C 0.37873 0.20469 0.0245 0.0
C1571 C 0.36444 0.21406 0.05624 0.0
C1572 C 0.38061 0.22695 0.0604 0.0
C1573 C 0.36357 0.20278 0.03852 0.0
C1574 C 0.39455 0.2183 0.02848 0.0
C1575 C 0.41384 0.24041 0.05236 0.0
C1576 C 0.44214 0.26226 0.95944 0.0
C1577 C 0.45911 0.25209 0.96273 0.0
H1578 H 0.40714 0.27932 0.95843 0.0
C1579 C 0.45665 0.3096 0.06028 0.0
C1580 C 0.40968 0.30384 0.06045 0.0
C1581 C 0.42303 0.34 0.11281 0.0
C1582 C 0.43928 0.37113 0.11013 0.0
C1583 C 0.40749 0.36908 0.12623 0.0
C1584 C 0.40793 0.34842 0.12404 0.0
C1585 C 0.42371 0.38063 0.11976 0.0
C1586 C 0.43486 0.35232 0.10139 0.0
C1587 C 0.42881 0.31986 0.11604 0.0
H1588 H 0.35284 0.21234 0.06703 0.0
H1589 H 0.3815 0.23496 0.07458 0.0
H1590 H 0.35136 0.19214 0.03611 0.0
H1591 H 0.4062 0.22014 1.01774 0.0
H1592 H 0.39616 0.37584 0.13509 0.0
H1593 H 0.39754 0.33925 0.13205 0.0
H1594 H 0.4257 0.39583 0.12532 0.0
H1595 H 0.44597 0.34554 0.09222 0.0
C1596 C 0.90123 0.49478 0.07688 0.0
C1597 C 0.88239 0.49556 0.10728 0.0
C1598 C 0.88604 0.48708 0.08832 0.0
C1599 C 0.89414 0.51186 0.11451 0.0
C1600 C 0.91335 0.51086 0.08432 0.0
C1601 C 0.90965 0.51941 0.10312 0.0
N1602 N 0.90392 0.48677 0.05832 0.0
C1603 C 0.91957 0.49316 0.04718 0.0
C1604 C 0.92879 0.51799 0.07261 0.0
C1605 C 0.932 0.509 0.05404 0.0
Gd1606 Gd 0.85282 0.46527 1.00456 0.0
Gd1607 Gd 0.88326 0.45879 0.04908 0.0
N1608 N 0.87495 0.47118 0.08101 0.0
C1609 C 0.86712 0.48732 0.11851 0.0
C1610 C 0.8606 0.46254 0.09237 0.0
C1611 C 0.85629 0.47065 0.11107 0.0
H1612 H 0.85257 0.44921 0.08705 0.0
H1613 H 0.84473 0.46391 0.11982 0.0
H1614 H 0.85785 0.50237 0.97378 0.0
H1615 H 0.92225 0.4862 0.03288 0.0
H1616 H 0.86467 0.50584 0.93834 0.0
H1617 H 0.86379 0.49351 0.13307 0.0
H1618 H 0.89149 0.5186 0.12899 0.0
H1619 H 0.87643 0.42404 1.01664 0.0
H1620 H 0.93842 0.53031 0.07783 0.0
H1621 H 0.94411 0.51422 0.04503 0.0
H1622 H 0.88059 0.44069 0.91465 0.0
H1623 H 0.9187 0.53189 0.10899 0.0
H1624 H 0.89082 0.39334 0.96262 0.0
H1625 H 0.88915 0.39487 0.99891 0.0
N1626 N 0.86889 0.43803 0.99076 0.0
C1627 C 0.87084 0.43812 0.97083 0.0
C1628 C 0.87604 0.42314 1.00087 0.0
C1629 C 0.88465 0.40598 0.97034 0.0
C1630 C 0.88371 0.40676 0.99083 0.0
C1631 C 0.87872 0.422 0.96011 0.0
H1632 H 0.88714 0.4104 0.93121 0.0
N1633 N 0.86144 0.47136 0.97226 0.0
C1634 C 0.86703 0.45528 0.96132 0.0
C1635 C 0.86969 0.47491 0.93272 0.0
C1636 C 0.87116 0.45662 0.94114 0.0
C1637 C 0.86139 0.48955 0.96455 0.0
C1638 C 0.86522 0.49153 0.94458 0.0
O1639 O 0.8504 0.45972 0.05345 0.0
O1640 O 0.84273 0.48182 0.03176 0.0
O1641 O 0.8309 0.47869 0.98726 0.0
O1642 O 0.82424 0.45042 0.99915 0.0
O1643 O 0.85711 0.43123 0.04596 0.0
O1644 O 0.83964 0.436 1.01788 0.0
O1645 O 0.88557 0.47189 0.99574 0.0
O1646 O 0.90226 0.45587 1.0189 0.0
O1647 O 0.89414 0.44716 0.0764 0.0
O1648 O 0.90794 0.43896 0.04946 0.0
O1649 O 0.86114 0.49782 1.01616 0.0
O1650 O 0.88139 0.49352 0.04255 0.0
C1651 C 0.84065 0.47503 0.04913 0.0
C1652 C 0.84183 0.42511 0.03342 0.0
C1653 C 0.80065 0.47406 1.00388 0.0
C1654 C 0.7874 0.50162 0.02327 0.0
C1655 C 0.76995 0.46962 1.02187 0.0
C1656 C 0.78456 0.4619 1.00952 0.0
C1657 C 0.77117 0.48954 0.0285 0.0
C1658 C 0.80206 0.49371 1.01118 0.0
C1659 C 0.8171 0.46603 0.9923 0.0
C1660 C 0.87762 0.44004 0.93025 0.0
C1661 C 0.88137 0.42278 0.9397 0.0
H1662 H 0.87277 0.47651 0.91725 0.0
C1663 C 0.90208 0.46402 1.00115 0.0
C1664 C 0.87279 0.50581 0.03053 0.0
C1665 C 0.92923 0.44587 0.07806 0.0
C1666 C 0.9543 0.44873 0.10536 0.0
C1667 C 0.95952 0.46608 0.07505 0.0
C1668 C 0.94213 0.45774 0.0671 0.0
C1669 C 0.96536 0.46189 0.09382 0.0
C1670 C 0.93551 0.44121 0.09755 0.0
C1671 C 0.90945 0.4394 0.06866 0.0
H1672 H 0.75747 0.46023 0.02601 0.0
H1673 H 0.78338 0.44646 1.00454 0.0
H1674 H 0.7593 0.49562 0.03716 0.0
H1675 H 0.81428 0.50336 1.00676 0.0
H1676 H 0.96877 0.47577 0.06641 0.0
H1677 H 0.93872 0.46083 0.05214 0.0
H1678 H 0.97908 0.46883 0.09919 0.0
H1679 H 0.9262 0.43159 0.10619 0.0
C1680 C 0.67289 0.89525 0.09972 0.0
C1681 C 0.6915 0.88212 0.12566 0.0
C1682 C 0.68543 0.88154 0.10591 0.0
C1683 C 0.68391 0.89616 0.13916 0.0
C1684 C 0.66457 0.90883 0.11339 0.0
C1685 C 0.66995 0.909 0.13321 0.0
N1686 N 0.66996 0.89624 0.08017 0.0
C1687 C 0.65853 0.91047 0.07339 0.0
C1688 C 0.65205 0.92264 0.10657 0.0
C1689 C 0.649 0.92342 0.08644 0.0
Gd1690 Gd 0.68082 0.84769 1.0102 0.0
Gd1691 Gd 0.68923 0.87606 0.05916 0.0
N1692 N 0.69315 0.86886 0.09225 0.0
C1693 C 0.70545 0.86901 0.13109 0.0
C1694 C 0.7062 0.85549 0.09766 0.0
C1695 C 0.71242 0.85527 0.11713 0.0
H1696 H 0.71264 0.84547 0.08695 0.0
H1697 H 0.723 0.84486 0.12124 0.0
H1698 H 0.63425 0.8506 0.99433 0.0
H1699 H 0.65664 0.91213 0.05791 0.0
H1700 H 0.61699 0.86659 0.96842 0.0
H1701 H 0.7107 0.86917 0.14607 0.0
H1702 H 0.68882 0.8974 0.15419 0.0
H1703 H 0.72885 0.85842 1.00306 0.0
H1704 H 0.64523 0.93317 0.11663 0.0
H1705 H 0.63977 0.9344 0.08092 0.0
H1706 H 0.66846 0.89882 0.93185 0.0
H1707 H 0.66409 0.9196 0.14387 0.0
H1708 H 0.73495 0.89293 0.95236 0.0
H1709 H 0.75001 0.87613 0.97944 0.0
N1710 N 0.70217 0.86565 0.98968 0.0
C1711 C 0.69366 0.87356 0.97412 0.0
C1712 C 0.72222 0.86567 0.99121 0.0
C1713 C 0.72563 0.88505 0.96256 0.0
C1714 C 0.7342 0.87566 0.97788 0.0
C1715 C 0.70516 0.88398 0.96046 0.0
H1716 H 0.70446 0.90133 0.93472 0.0
N1717 N 0.66266 0.86132 0.9856 0.0
C1718 C 0.67333 0.87179 0.97235 0.0
C1719 C 0.64352 0.8791 0.95578 0.0
C1720 C 0.66402 0.88094 0.95708 0.0
C1721 C 0.64271 0.85929 0.98423 0.0
C1722 C 0.63284 0.86822 0.96941 0.0
O1723 O 0.68687 0.84351 0.06055 0.0
O1724 O 0.66549 0.83419 0.03572 0.0
O1725 O 0.67097 0.82374 0.98975 0.0
O1726 O 0.70136 0.82694 0.99825 0.0
O1727 O 0.71487 0.85359 0.05282 0.0
O1728 O 0.7069 0.83414 0.0251 0.0
O1729 O 0.6935 0.87859 1.01379 0.0
O1730 O 0.67372 0.8919 0.03551 0.0
O1731 O 0.70946 0.89621 0.07524 0.0
O1732 O 0.71214 0.89291 0.04359 0.0
O1733 O 0.64911 0.85336 0.02562 0.0
O1734 O 0.65461 0.87309 0.05445 0.0
C1735 C 0.67394 0.83101 0.05227 0.0
C1736 C 0.71898 0.83864 0.03991 0.0
C1737 C 0.68838 0.79531 0.99612 0.0
C1738 C 0.67432 0.77118 1.01788 0.0
C1739 C 0.69972 0.76203 0.99433 0.0
C1740 C 0.70037 0.78116 0.98738 0.0
C1741 C 0.68611 0.75678 1.00895 0.0
C1742 C 0.6778 0.7908 1.01283 0.0
C1743 C 0.68797 0.81551 0.98964 0.0
C1744 C 0.67539 0.89165 0.94363 0.0
C1745 C 0.6959 0.89309 0.94526 0.0
H1746 H 0.63582 0.88594 0.94428 0.0
C1747 C 0.68165 0.89253 1.0182 0.0
C1748 C 0.64191 0.864 0.04142 0.0
C1749 C 0.71942 0.92445 0.05961 0.0
C1750 C 0.73204 0.95506 0.0763 0.0
C1751 C 0.70576 0.95554 0.05235 0.0
C1752 C 0.70573 0.93504 0.04979 0.0
C1753 C 0.71867 0.96552 0.06569 0.0
C1754 C 0.73277 0.93455 0.07254 0.0
C1755 C 0.71784 0.90286 0.05959 0.0
H1756 H 0.70868 0.75092 0.98736 0.0
H1757 H 0.70998 0.78481 0.97525 0.0
H1758 H 0.68369 0.74139 1.01213 0.0
H1759 H 0.6698 0.8024 1.01989 0.0
H1760 H 0.6951 0.9636 0.04474 0.0
H1761 H 0.69446 0.92749 0.04091 0.0
H1762 H 0.7174 0.98127 0.06839 0.0
H1763 H 0.74297 0.92618 0.08049 0.0
C1764 C 0.84496 0.74651 0.11086 0.0
C1765 C 0.81103 0.75598 0.1089 0.0
C1766 C 0.82563 0.74234 0.10457 0.0
C1767 C 0.81621 0.77428 0.11846 0.0
C1768 C 0.84959 0.76413 0.12221 0.0
C1769 C 0.83544 0.77836 0.12509 0.0
N1770 N 0.85841 0.73231 0.10829 0.0
C1771 C 0.87442 0.73302 0.12045 0.0
C1772 C 0.86775 0.76627 0.13173 0.0
C1773 C 0.87985 0.7503 0.13152 0.0
Gd1774 Gd 0.87283 0.70995 0.03871 0.0
Gd1775 Gd 0.84774 0.70464 0.08769 0.0
N1776 N 0.82088 0.72458 0.09499 0.0
C1777 C 0.79149 0.75062 0.10408 0.0
C1778 C 0.80163 0.71888 0.09128 0.0
C1779 C 0.78673 0.73187 0.0956 0.0
H1780 H 0.79809 0.70493 0.08353 0.0
H1781 H 0.77165 0.72756 0.09194 0.0
H1782 H 0.90474 0.67373 0.03924 0.0
H1783 H 0.88309 0.7202 0.12145 0.0
H1784 H 0.92859 0.65804 1.0173 0.0
H1785 H 0.7799 0.76071 0.10721 0.0
H1786 H 0.80525 0.78507 0.12156 0.0
H1787 H 0.8426 0.73283 1.00856 0.0
H1788 H 0.87181 0.77955 0.1406 0.0
H1789 H 0.89313 0.75111 0.14021 0.0
H1790 H 0.92119 0.68897 0.95616 0.0
H1791 H 0.83892 0.79212 0.1334 0.0
H1792 H 0.86954 0.73401 0.95199 0.0
H1793 H 0.84315 0.74388 0.97502 0.0
N1794 N 0.86909 0.71734 1.00544 0.0
C1795 C 0.8829 0.71084 0.99262 0.0
C1796 C 0.85453 0.7286 0.9991 0.0
C1797 C 0.86958 0.72929 0.96693 0.0
C1798 C 0.85465 0.73485 0.97987 0.0
C1799 C 0.88371 0.71675 0.9731 0.0
H1800 H 0.89892 0.71363 0.94515 0.0
N1801 N 0.89394 0.69208 1.01759 0.0
C1802 C 0.89554 0.69738 0.99881 0.0
C1803 C 0.92131 0.67464 0.9925 0.0
C1804 C 0.90932 0.68898 0.98575 0.0
C1805 C 0.90569 0.6781 0.02428 0.0
C1806 C 0.91939 0.6691 1.01186 0.0
O1807 O 0.83091 0.72575 0.06869 0.0
O1808 O 0.84912 0.73442 0.04177 0.0
O1809 O 0.87904 0.73786 0.05565 0.0
O1810 O 0.90154 0.72395 0.03761 0.0
O1811 O 0.82726 0.69127 0.06423 0.0
O1812 O 0.84157 0.70008 0.03442 0.0
O1813 O 0.86687 0.67624 0.04205 0.0
O1814 O 0.86091 0.6738 0.07537 0.0
O1815 O 0.84063 0.67775 0.10255 0.0
O1816 O 0.84203 0.70483 0.11938 0.0
O1817 O 0.89014 0.69608 0.06219 0.0
O1818 O 0.87899 0.7163 0.08574 0.0
C1819 C 0.83375 0.73724 0.05375 0.0
C1820 C 0.82731 0.69218 0.04498 0.0
C1821 C 0.90281 0.75843 0.03899 0.0
C1822 C 0.92471 0.77565 1.01631 0.0
C1823 C 0.89836 0.79284 0.03291 0.0
C1824 C 0.8925 0.7757 0.04235 0.0
C1825 C 0.91431 0.79284 1.01987 0.0
C1826 C 0.91915 0.75874 0.02628 0.0
C1827 C 0.89667 0.73974 0.0479 0.0
C1828 C 0.91062 0.69512 0.96642 0.0
C1829 C 0.89797 0.70918 0.96016 0.0
H1830 H 0.93202 0.66775 0.9829 0.0
C1831 C 0.86481 0.66505 0.05744 0.0
C1832 C 0.8929 0.70546 0.07912 0.0
C1833 C 0.81332 0.68541 0.12233 0.0
C1834 C 0.78208 0.67755 0.10596 0.0
C1835 C 0.78392 0.70195 0.13313 0.0
C1836 C 0.80405 0.69902 0.13516 0.0
C1837 C 0.773 0.69159 0.11815 0.0
C1838 C 0.80189 0.67418 0.1087 0.0
C1839 C 0.83458 0.68706 0.11837 0.0
H1840 H 0.89031 0.8061 0.03546 0.0
H1841 H 0.87989 0.77592 0.0521 0.0
H1842 H 0.91823 0.8061 1.01228 0.0
H1843 H 0.9275 0.74562 0.02388 0.0
H1844 H 0.77704 0.71296 0.14255 0.0
H1845 H 0.81259 0.70835 0.14566 0.0
H1846 H 0.75781 0.69467 0.11595 0.0
H1847 H 0.80867 0.66325 0.09909 0.0
C1848 C 0.47129 0.88537 1.01209 0.0
C1849 C 0.46233 0.8609 0.9861 0.0
C1850 C 0.45885 0.87 1.00478 0.0
C1851 C 0.47935 0.86642 0.9756 0.0
C1852 C 0.48741 0.89217 1.00079 0.0
C1853 C 0.49182 0.88211 0.98289 0.0
N1854 N 0.46665 0.89472 0.0295 0.0
C1855 C 0.47609 0.91239 0.0352 0.0
C1856 C 0.49816 0.90929 1.00747 0.0
C1857 C 0.49218 0.9197 0.0245 0.0
Gd1858 Gd 0.44128 0.86059 0.09778 0.0
Gd1859 Gd 0.43834 0.88209 0.0457 0.0
N1860 N 0.4422 0.86547 1.01499 0.0
C1861 C 0.44806 0.8473 0.97807 0.0
C1862 C 0.42763 0.85328 1.00668 0.0
C1863 C 0.43043 0.84384 0.9882 0.0
H1864 H 0.41396 0.85069 1.01448 0.0
H1865 H 0.41904 0.83388 0.98183 0.0
H1866 H 0.48876 0.87244 0.11327 0.0
H1867 H 0.47166 0.92041 0.04847 0.0
H1868 H 0.50499 0.89347 0.13887 0.0
H1869 H 0.45017 0.84003 0.96373 0.0
H1870 H 0.48251 0.8593 0.9614 0.0
H1871 H 0.39309 0.86415 0.10642 0.0
H1872 H 0.51065 0.91496 0.99922 0.0
H1873 H 0.50001 0.93329 0.02946 0.0
H1874 H 0.4525 0.92032 0.17698 0.0
H1875 H 0.50445 0.88677 0.97424 0.0
H1876 H 0.38641 0.90152 0.1583 0.0
H1877 H 0.37173 0.88028 0.13111 0.0
N1878 N 0.4196 0.87655 0.11924 0.0
C1879 C 0.42807 0.88744 0.13457 0.0
C1880 C 0.39967 0.87342 0.11818 0.0
C1881 C 0.39589 0.89443 0.14753 0.0
C1882 C 0.38753 0.88251 0.13216 0.0
C1883 C 0.41635 0.89696 0.14895 0.0
H1884 H 0.41655 0.91635 0.17526 0.0
N1885 N 0.45962 0.87975 0.12183 0.0
C1886 C 0.44854 0.88944 0.13565 0.0
C1887 C 0.47802 0.90302 0.15193 0.0
C1888 C 0.45751 0.90132 0.15104 0.0
C1889 C 0.47968 0.88082 0.12318 0.0
C1890 C 0.48911 0.89262 0.13803 0.0
O1891 O 0.4373 0.84859 0.04626 0.0
O1892 O 0.45646 0.8453 0.073 0.0
O1893 O 0.44799 0.84625 0.12447 0.0
O1894 O 0.42947 0.83088 0.10253 0.0
O1895 O 0.4098 0.85796 0.05264 0.0
O1896 O 0.41342 0.84505 0.08329 0.0
O1897 O 0.42767 0.89035 0.09419 0.0
O1898 O 0.44774 0.90412 0.07252 0.0
O1899 O 0.42787 0.89417 1.01842 0.0
O1900 O 0.42025 0.9084 0.04568 0.0
O1901 O 0.47386 0.86501 0.08382 0.0
O1902 O 0.47224 0.87976 0.05388 0.0
C1903 C 0.44943 0.83832 0.0561 0.0
C1904 C 0.40335 0.84478 0.06661 0.0
C1905 C 0.45474 0.81388 0.11519 0.0
C1906 C 0.4887 0.807 0.10775 0.0
C1907 C 0.46451 0.78012 0.11299 0.0
C1908 C 0.45003 0.79378 0.11693 0.0
C1909 C 0.4838 0.78666 0.10839 0.0
C1910 C 0.47353 0.81998 0.10935 0.0
C1911 C 0.44053 0.8292 0.11774 0.0
C1912 C 0.44582 0.91106 0.16516 0.0
C1913 C 0.42533 0.9088 0.16418 0.0
H1914 H 0.48541 0.91208 0.16347 0.0
C1915 C 0.43894 0.90575 0.08989 0.0
C1916 C 0.48319 0.87301 0.06822 0.0
C1917 C 0.42808 0.92973 1.01784 0.0
C1918 C 0.43183 0.95486 0.99126 0.0
C1919 C 0.44815 0.96029 0.02314 0.0
C1920 C 0.44002 0.94265 0.02986 0.0
C1921 C 0.4442 0.96623 1.00436 0.0
C1922 C 0.42402 0.93599 0.99807 0.0
C1923 C 0.4209 0.90999 0.02649 0.0
H1924 H 0.46093 0.76448 0.11392 0.0
H1925 H 0.43528 0.7887 0.12084 0.0
H1926 H 0.4948 0.77584 0.10605 0.0
H1927 H 0.47636 0.83526 0.10608 0.0
H1928 H 0.4576 0.96967 0.03277 0.0
H1929 H 0.44335 0.93904 0.04472 0.0
H1930 H 0.45088 0.98019 1.00008 0.0
H1931 H 0.41468 0.92656 0.9884 0.0
C1932 C 0.69933 0.25621 0.96904 0.0
C1933 C 0.6698 0.24107 0.95371 0.0
C1934 C 0.67887 0.25345 0.96869 0.0
C1935 C 0.68136 0.23154 0.93935 0.0
C1936 C 0.7109 0.24686 0.95439 0.0
C1937 C 0.70181 0.2345 0.93962 0.0
N1938 N 0.70799 0.26759 0.98396 0.0
C1939 C 0.72788 0.27134 0.9843 0.0
C1940 C 0.73133 0.25007 0.95509 0.0
C1941 C 0.73983 0.26245 0.97002 0.0
Gd1942 Gd 0.69075 0.26164 0.05823 0.0
Gd1943 Gd 0.68639 0.28295 1.00605 0.0
N1944 N 0.66788 0.26291 0.98277 0.0
C1945 C 0.64931 0.23871 0.95345 0.0
C1946 C 0.64779 0.26135 0.98187 0.0
C1947 C 0.63829 0.24904 0.96746 0.0
H1948 H 0.63869 0.26981 0.99172 0.0
H1949 H 0.6224 0.24776 0.96701 0.0
H1950 H 0.71256 0.2943 0.09042 0.0
H1951 H 0.73464 0.28094 0.99568 0.0
H1952 H 0.70496 0.31179 0.12213 0.0
H1953 H 0.64185 0.22926 0.94224 0.0
H1954 H 0.67461 0.2219 0.92785 0.0
H1955 H 0.65878 0.22219 0.05441 0.0
H1956 H 0.74068 0.24314 0.9441 0.0
H1957 H 0.7556 0.26519 0.97053 0.0
H1958 H 0.64212 0.28338 0.14039 0.0
H1959 H 0.71049 0.22709 0.92837 0.0
H1960 H 0.61876 0.22541 0.10297 0.0
H1961 H 0.63107 0.20762 0.07309 0.0
N1962 N 0.66229 0.24798 0.07352 0.0
C1963 C 0.65661 0.25722 0.09067 0.0
C1964 C 0.65378 0.22993 0.0676 0.0
C1965 C 0.63108 0.23176 0.09494 0.0
C1966 C 0.63802 0.22165 0.07812 0.0
C1967 C 0.64057 0.24961 0.10158 0.0
H1968 H 0.62263 0.25409 0.12765 0.0
N1969 N 0.68486 0.2785 0.08858 0.0
C1970 C 0.66796 0.27335 0.09813 0.0
C1971 C 0.67634 0.2972 0.1247 0.0
C1972 C 0.66319 0.28264 0.11642 0.0
C1973 C 0.69853 0.29137 0.09746 0.0
C1974 C 0.69432 0.30119 0.11543 0.0
O1975 O 0.70098 0.25349 1.00898 0.0
O1976 O 0.68206 0.23915 0.03132 0.0
O1977 O 0.70971 0.23605 0.05893 0.0
O1978 O 0.70101 0.25006 0.0859 0.0
O1979 O 0.65401 0.27843 1.02067 0.0
O1980 O 0.65656 0.26397 0.05064 0.0
O1981 O 0.69323 0.29513 0.05815 0.0
O1982 O 0.67289 0.29676 0.03257 0.0
O1983 O 0.67855 0.29658 0.97933 0.0
O1984 O 0.69592 0.31339 1.00119 0.0
O1985 O 0.71914 0.28593 0.05035 0.0
O1986 O 0.71497 0.2986 1.01955 0.0
C1987 C 0.69045 0.23771 1.01368 0.0
C1988 C 0.64508 0.27058 0.03661 0.0
C1989 C 0.70189 0.21447 0.08649 0.0
C1990 C 0.69841 0.18871 0.11254 0.0
C1991 C 0.68188 0.18395 0.08069 0.0
C1992 C 0.69012 0.20163 0.07423 0.0
C1993 C 0.68578 0.17773 0.09935 0.0
C1994 C 0.70612 0.2078 0.10608 0.0
C1995 C 0.7087 0.23448 0.07809 0.0
C1996 C 0.64619 0.27622 0.12647 0.0
C1997 C 0.63508 0.25954 0.11922 0.0
H1998 H 0.6732 0.30469 0.13872 0.0
C1999 C 0.68267 0.3057 0.04705 0.0
C2000 C 0.72544 0.29897 0.03608 0.0
C2001 C 0.66966 0.32849 0.98774 0.0
C2002 C 0.63526 0.33393 0.99461 0.0
C2003 C 0.65858 0.3618 0.99059 0.0
C2004 C 0.67368 0.34882 0.9868 0.0
C2005 C 0.63942 0.35443 0.99445 0.0
C2006 C 0.65082 0.32145 0.99265 0.0
C2007 C 0.68485 0.31409 0.98584 0.0
H2008 H 0.67239 0.17475 0.07094 0.0
H2009 H 0.68697 0.20535 0.05937 0.0
H2010 H 0.6789 0.16379 0.1034 0.0
H2011 H 0.71551 0.21706 0.11586 0.0
H2012 H 0.66164 0.37757 0.9902 0.0
H2013 H 0.6884 0.35459 0.98367 0.0
H2014 H 0.62794 0.36474 0.9967 0.0
H2015 H 0.64837 0.30596 0.99526 0.0
C2016 C 0.50821 0.76071 0.93449 0.0
C2017 C 0.49634 0.74804 0.96516 0.0
C2018 C 0.50954 0.76029 0.95471 0.0
C2019 C 0.48234 0.7357 0.95484 0.0
C2020 C 0.49348 0.74921 0.92415 0.0
C2021 C 0.48082 0.73639 0.93438 0.0
N2022 N 0.52117 0.77263 0.92495 0.0
C2023 C 0.51913 0.77524 0.90532 0.0
C2024 C 0.49196 0.75098 0.90383 0.0
C2025 C 0.50468 0.76427 0.89443 0.0
Gd2026 Gd 0.59675 0.76819 0.93281 0.0
Gd2027 Gd 0.54571 0.78966 0.94413 0.0
N2028 N 0.52311 0.77257 0.96423 0.0
C2029 C 0.49724 0.74899 0.98569 0.0
C2030 C 0.52295 0.77469 0.98429 0.0
C2031 C 0.51033 0.76267 0.9953 0.0
H2032 H 0.5324 0.78576 0.99194 0.0
H2033 H 0.51058 0.76412 1.01119 0.0
H2034 H 0.62342 0.80338 0.91132 0.0
H2035 H 0.52901 0.78538 0.89795 0.0
H2036 H 0.65806 0.81538 0.90913 0.0
H2037 H 0.4874 0.73977 0.99426 0.0
H2038 H 0.47227 0.72596 0.96258 0.0
H2039 H 0.59573 0.72865 0.95938 0.0
H2040 H 0.48088 0.74236 0.89534 0.0
H2041 H 0.50342 0.76599 0.87879 0.0
H2042 H 0.69254 0.76969 0.94555 0.0
H2043 H 0.46968 0.72711 0.92665 0.0
H2044 H 0.6549 0.71582 0.97214 0.0
H2045 H 0.6193 0.70697 0.97342 0.0
N2046 N 0.61752 0.75057 0.95193 0.0
C2047 C 0.63699 0.75563 0.95102 0.0
C2048 C 0.61112 0.7332 0.95965 0.0
C2049 C 0.64454 0.72569 0.96648 0.0
C2050 C 0.62447 0.72069 0.96733 0.0
C2051 C 0.65103 0.74338 0.95834 0.0
H2052 H 0.68207 0.73933 0.96178 0.0
N2053 N 0.62896 0.78206 0.93215 0.0
C2054 C 0.64285 0.7724 0.94148 0.0
C2055 C 0.66836 0.79401 0.92844 0.0
C2056 C 0.66295 0.77781 0.9395 0.0
C2057 C 0.63432 0.79665 0.91983 0.0
C2058 C 0.65398 0.80336 0.9184 0.0
O2059 O 0.54998 0.76201 0.92512 0.0
O2060 O 0.57125 0.74845 0.94396 0.0
O2061 O 0.58756 0.7446 0.91103 0.0
O2062 O 0.61805 0.75389 0.9133 0.0
O2063 O 0.56213 0.78254 0.97418 0.0
O2064 O 0.59218 0.76825 0.96779 0.0
O2065 O 0.59497 0.80148 0.9365 0.0
O2066 O 0.5712 0.80437 0.95968 0.0
O2067 O 0.52302 0.80856 0.95564 0.0
O2068 O 0.54126 0.81746 0.93124 0.0
O2069 O 0.58805 0.79077 0.90788 0.0
O2070 O 0.55754 0.80271 0.91565 0.0
C2071 C 0.55474 0.74661 0.93429 0.0
C2072 C 0.57834 0.77414 0.98091 0.0
C2073 C 0.61145 0.719 0.90993 0.0
C2074 C 0.63607 0.6932 0.91227 0.0
C2075 C 0.60119 0.6852 0.91699 0.0
C2076 C 0.59664 0.70458 0.91386 0.0
C2077 C 0.62058 0.67957 0.91616 0.0
C2078 C 0.63146 0.71316 0.90925 0.0
C2079 C 0.60567 0.73992 0.90712 0.0
C2080 C 0.67701 0.76604 0.94734 0.0
C2081 C 0.67106 0.74874 0.95655 0.0
H2082 H 0.68366 0.79878 0.92677 0.0
C2083 C 0.58791 0.8107 0.95224 0.0
C2084 C 0.57307 0.8025 0.90388 0.0
C2085 C 0.53747 0.84108 0.95629 0.0
C2086 C 0.5505 0.85605 0.98702 0.0
C2087 C 0.55247 0.8743 0.95732 0.0
C2088 C 0.54308 0.8583 0.94675 0.0
C2089 C 0.55586 0.87337 0.97752 0.0
C2090 C 0.54198 0.83988 0.97605 0.0
C2091 C 0.52972 0.82323 0.94536 0.0
H2092 H 0.58952 0.67436 0.91999 0.0
H2093 H 0.58136 0.70825 0.91462 0.0
H2094 H 0.62351 0.66431 0.91843 0.0
H2095 H 0.64321 0.7239 0.90623 0.0
H2096 H 0.55661 0.88765 0.94998 0.0
H2097 H 0.54045 0.85924 0.93117 0.0
H2098 H 0.56172 0.88634 0.98584 0.0
H2099 H 0.53764 0.82654 0.98336 0.0
C2100 C 0.37556 0.48221 0.93266 0.0
C2101 C 0.40145 0.47314 0.9543 0.0
C2102 C 0.3873 0.48654 0.94919 0.0
C2103 C 0.4028 0.45511 0.94339 0.0
C2104 C 0.37727 0.46433 0.92143 0.0
C2105 C 0.39075 0.45073 0.92703 0.0
N2106 N 0.36264 0.49558 0.92741 0.0
C2107 C 0.35076 0.49198 0.91149 0.0
C2108 C 0.36536 0.46063 0.90485 0.0
C2109 C 0.35206 0.47454 0.89985 0.0
Gd2110 Gd 0.38779 0.57136 0.94638 0.0
Gd2111 Gd 0.35955 0.52298 0.94882 0.0
N2112 N 0.38497 0.50373 0.96021 0.0
C2113 C 0.4136 0.47808 0.97045 0.0
C2114 C 0.39783 0.50909 0.97514 0.0
C2115 C 0.41197 0.49625 0.9807 0.0
H2116 H 0.39799 0.52339 0.98258 0.0
H2117 H 0.42181 0.50052 0.99275 0.0
H2118 H 0.36253 0.60837 0.93041 0.0
H2119 H 0.33995 0.50232 0.90801 0.0
H2120 H 0.35216 0.64121 0.94282 0.0
H2121 H 0.42454 0.46816 0.97486 0.0
H2122 H 0.41332 0.44455 0.94734 0.0
H2123 H 0.42544 0.56051 0.97514 0.0
H2124 H 0.36625 0.44706 0.89585 0.0
H2125 H 0.34263 0.47172 0.88719 0.0
H2126 H 0.38321 0.65114 1.00588 0.0
H2127 H 0.39215 0.43685 0.91865 0.0
H2128 H 0.42958 0.60402 1.02307 0.0
H2129 H 0.44119 0.57357 1.0061 0.0
N2130 N 0.40469 0.58297 0.97516 0.0
C2131 C 0.39922 0.60061 0.9834 0.0
C2132 C 0.4204 0.57387 0.98242 0.0
C2133 C 0.42267 0.5984 1.00949 0.0
C2134 C 0.42928 0.5812 0.99995 0.0
C2135 C 0.40774 0.60856 1.00103 0.0
H2136 H 0.40761 0.63282 1.02304 0.0
N2137 N 0.37833 0.60321 0.95628 0.0
C2138 C 0.38533 0.61082 0.97384 0.0
C2139 C 0.36733 0.64023 0.97039 0.0
C2140 C 0.3798 0.62944 0.9815 0.0
C2141 C 0.36715 0.61416 0.94483 0.0
C2142 C 0.36134 0.63274 0.95177 0.0
O2143 O 0.38671 0.52313 0.92779 0.0
O2144 O 0.40673 0.54306 0.94647 0.0
O2145 O 0.41107 0.56992 0.92404 0.0
O2146 O 0.40353 0.59807 0.93682 0.0
O2147 O 0.36573 0.53407 0.9823 0.0
O2148 O 0.38231 0.5644 0.98047 0.0
O2149 O 0.35532 0.57404 0.94472 0.0
O2150 O 0.34702 0.54954 0.96468 0.0
O2151 O 0.34462 0.4964 0.95863 0.0
O2152 O 0.32769 0.51873 0.9464 0.0
O2153 O 0.36303 0.56734 0.9196 0.0
O2154 O 0.34706 0.53653 0.92082 0.0
C2155 C 0.40484 0.52711 0.9343 0.0
C2156 C 0.37432 0.55026 0.99163 0.0
C2157 C 0.4374 0.5951 0.9292 0.0
C2158 C 0.46485 0.62071 0.93158 0.0
C2159 C 0.47089 0.58601 0.93515 0.0
C2160 C 0.451 0.58074 0.93253 0.0
C2161 C 0.47774 0.60568 0.93462 0.0
C2162 C 0.44448 0.61533 0.92889 0.0
C2163 C 0.41609 0.5888 0.926 0.0
C2164 C 0.38749 0.63698 0.9996 0.0
C2165 C 0.40143 0.62656 1.00935 0.0
H2166 H 0.36275 0.6546 0.97575 0.0
C2167 C 0.34361 0.56671 0.95793 0.0
C2168 C 0.3491 0.55364 0.91209 0.0
C2169 C 0.3166 0.50555 0.97577 0.0
C2170 C 0.31818 0.50914 1.01152 0.0
C2171 C 0.28673 0.50858 0.99475 0.0
C2172 C 0.29615 0.50628 0.97652 0.0
C2173 C 0.29771 0.50981 1.01219 0.0
C2174 C 0.32739 0.50748 0.99323 0.0
C2175 C 0.32735 0.50344 0.95715 0.0
H2176 H 0.48113 0.57469 0.93757 0.0
H2177 H 0.44631 0.5653 0.93306 0.0
H2178 H 0.4933 0.60922 0.93658 0.0
H2179 H 0.43431 0.6267 0.92639 0.0
H2180 H 0.27091 0.50888 0.99527 0.0
H2181 H 0.28755 0.50499 0.96316 0.0
H2182 H 0.29051 0.51042 0.02625 0.0
H2183 H 0.34311 0.5061 0.99274 0.0
C2184 C 0.57783 0.3944 0.95059 0.0
C2185 C 0.60281 0.37029 0.94868 0.0
C2186 C 0.58443 0.37673 0.94295 0.0
C2187 C 0.61432 0.38203 0.96216 0.0
C2188 C 0.5892 0.40613 0.96442 0.0
C2189 C 0.60738 0.39971 0.97035 0.0
N2190 N 0.56074 0.40064 0.94372 0.0
C2191 C 0.55473 0.41905 0.94928 0.0
C2192 C 0.5824 0.42438 0.97116 0.0
C2193 C 0.56519 0.43097 0.96336 0.0
Gd2194 Gd 0.49337 0.35932 0.9173 0.0
Gd2195 Gd 0.5429 0.37928 0.92117 0.0
N2196 N 0.57341 0.36639 0.92907 0.0
C2197 C 0.60939 0.3526 0.94023 0.0
C2198 C 0.58018 0.34939 0.9203 0.0
C2199 C 0.59801 0.34213 0.92593 0.0
H2200 H 0.57201 0.34104 0.90899 0.0
H2201 H 0.60304 0.32852 0.91908 0.0
H2202 H 0.47052 0.35671 0.96107 0.0
H2203 H 0.54199 0.42485 0.94282 0.0
H2204 H 0.44115 0.36976 0.97741 0.0
H2205 H 0.62333 0.34707 0.94441 0.0
H2206 H 0.6289 0.37792 0.96577 0.0
H2207 H 0.49173 0.37156 0.87078 0.0
H2208 H 0.59067 0.43378 0.98183 0.0
H2209 H 0.56014 0.44538 0.96794 0.0
H2210 H 0.41 0.40423 0.9273 0.0
H2211 H 0.6165 0.40864 0.98069 0.0
H2212 H 0.43936 0.40275 0.86304 0.0
H2213 H 0.46941 0.38826 0.84914 0.0
N2214 N 0.47482 0.37752 0.89657 0.0
C2215 C 0.45766 0.38397 0.90418 0.0
C2216 C 0.47867 0.37804 0.87685 0.0
C2217 C 0.44907 0.39545 0.87253 0.0
C2218 C 0.46607 0.38737 0.86463 0.0
C2219 C 0.44459 0.39366 0.89249 0.0
H2220 H 0.41739 0.40888 0.89239 0.0
N2221 N 0.46553 0.37015 0.93416 0.0
C2222 C 0.45325 0.38079 0.92372 0.0
C2223 C 0.43182 0.38429 0.95193 0.0
C2224 C 0.43598 0.38803 0.93229 0.0
C2225 C 0.46123 0.3659 0.9531 0.0
C2226 C 0.44445 0.37307 0.96234 0.0
O2227 O 0.53834 0.34619 0.92303 0.0
O2228 O 0.50893 0.34266 0.9384 0.0
O2229 O 0.46879 0.3377 0.91846 0.0
O2230 O 0.48857 0.33768 0.89339 0.0
O2231 O 0.5438 0.35317 0.89562 0.0
O2232 O 0.51163 0.34338 0.89127 0.0
O2233 O 0.49717 0.39155 0.90897 0.0
O2234 O 0.51778 0.40097 0.93257 0.0
O2235 O 0.53522 0.39635 0.89639 0.0
O2236 O 0.56587 0.39398 0.90478 0.0
O2237 O 0.50406 0.3645 0.95266 0.0
O2238 O 0.5358 0.37852 0.95412 0.0
C2239 C 0.52635 0.3366 0.93464 0.0
C2240 C 0.53034 0.34151 0.88554 0.0
C2241 C 0.47516 0.30735 0.90159 0.0
C2242 C 0.48528 0.28319 0.92302 0.0
C2243 C 0.45857 0.27512 0.90007 0.0
C2244 C 0.45974 0.29465 0.89443 0.0
C2245 C 0.47112 0.26945 0.91475 0.0
C2246 C 0.49013 0.29977 0.91241 0.0
C2247 C 0.47371 0.32874 0.90173 0.0
C2248 C 0.4233 0.39847 0.92093 0.0
C2249 C 0.4275 0.40113 0.90105 0.0
H2250 H 0.41874 0.38967 0.95908 0.0
C2251 C 0.50229 0.4054 0.92215 0.0
C2252 C 0.52011 0.37175 0.9637 0.0
C2253 C 0.55757 0.42469 0.89374 0.0
C2254 C 0.58133 0.45285 0.89277 0.0
C2255 C 0.54641 0.45821 0.89496 0.0
C2256 C 0.54225 0.43785 0.89488 0.0
C2257 C 0.56583 0.4657 0.89393 0.0
C2258 C 0.57717 0.43237 0.89258 0.0
C2259 C 0.55351 0.40307 0.8943 0.0
H2260 H 0.44676 0.26507 0.89467 0.0
H2261 H 0.4483 0.30002 0.88545 0.0
H2262 H 0.46811 0.25542 0.92105 0.0
H2263 H 0.50175 0.30986 0.91795 0.0
H2264 H 0.53453 0.46824 0.89582 0.0
H2265 H 0.52707 0.43247 0.8958 0.0
H2266 H 0.56877 0.48153 0.89392 0.0
H2267 H 0.58919 0.42246 0.89162 0.0
C2268 C 0.76956 0.65485 0.8983 0.0
C2269 C 0.76195 0.67541 0.9272 0.0
C2270 C 0.77202 0.65968 0.91817 0.0
C2271 C 0.74924 0.68597 0.91601 0.0
C2272 C 0.75783 0.66621 0.88674 0.0
C2273 C 0.74735 0.68153 0.89578 0.0
N2274 N 0.77918 0.63942 0.89013 0.0
C2275 C 0.77957 0.63592 0.87017 0.0
C2276 C 0.7571 0.66188 0.86642 0.0
C2277 C 0.76828 0.64687 0.85807 0.0
Gd2278 Gd 0.78021 0.56824 0.91413 0.0
Gd2279 Gd 0.79784 0.62202 0.91157 0.0
N2280 N 0.78494 0.64962 0.92842 0.0
C2281 C 0.76517 0.68023 0.94715 0.0
C2282 C 0.78932 0.65532 0.94747 0.0
C2283 C 0.77891 0.67014 0.9573 0.0
H2284 H 0.8004 0.64801 0.95529 0.0
H2285 H 0.78135 0.6738 0.9727 0.0
H2286 H 0.81865 0.54118 0.89878 0.0
H2287 H 0.78817 0.6243 0.86367 0.0
H2288 H 0.83547 0.51238 0.9087 0.0
H2289 H 0.75743 0.69195 0.95475 0.0
H2290 H 0.7412 0.69795 0.92277 0.0
H2291 H 0.73647 0.56544 0.93569 0.0
H2292 H 0.74824 0.67025 0.85704 0.0
H2293 H 0.76816 0.64369 0.84234 0.0
H2294 H 0.79632 0.48808 0.9618 0.0
H2295 H 0.7379 0.69014 0.88723 0.0
H2296 H 0.73536 0.51866 0.97556 0.0
H2297 H 0.71909 0.54619 0.96088 0.0
N2298 N 0.76246 0.5494 0.93671 0.0
C2299 C 0.77115 0.53381 0.94378 0.0
C2300 C 0.74368 0.5535 0.94209 0.0
C2301 C 0.74302 0.5271 0.96456 0.0
C2302 C 0.73378 0.5426 0.95629 0.0
C2303 C 0.76179 0.52227 0.95802 0.0
H2304 H 0.7645 0.49714 0.97602 0.0
N2305 N 0.79639 0.53936 0.92092 0.0
C2306 C 0.78881 0.52865 0.93566 0.0
C2307 C 0.81517 0.50622 0.93218 0.0
C2308 C 0.79799 0.51186 0.94177 0.0
C2309 C 0.81267 0.53331 0.91089 0.0
C2310 C 0.82239 0.51684 0.91649 0.0
O2311 O 0.76988 0.61005 0.89752 0.0
O2312 O 0.75807 0.59224 0.92144 0.0
O2313 O 0.76716 0.57281 0.88584 0.0
O2314 O 0.76168 0.5449 0.89947 0.0
O2315 O 0.78684 0.61505 0.94518 0.0
O2316 O 0.77462 0.58237 0.94547 0.0
O2317 O 0.81211 0.57779 0.92039 0.0
O2318 O 0.81223 0.608 0.93597 0.0
O2319 O 0.81372 0.64905 0.90516 0.0
O2320 O 0.8285 0.62142 0.90231 0.0
O2321 O 0.80623 0.57074 0.89069 0.0
O2322 O 0.80909 0.60361 0.88409 0.0
C2323 C 0.7554 0.60628 0.90947 0.0
C2324 C 0.77814 0.59984 0.95507 0.0
C2325 C 0.7347 0.55796 0.88311 0.0
C2326 C 0.7008 0.54371 0.8828 0.0
C2327 C 0.70737 0.57833 0.87635 0.0
C2328 C 0.72745 0.57599 0.87792 0.0
C2329 C 0.69414 0.56241 0.8789 0.0
C2330 C 0.72118 0.54169 0.88545 0.0
C2331 C 0.75625 0.5564 0.88594 0.0
C2332 C 0.78939 0.50091 0.95679 0.0
C2333 C 0.77126 0.50605 0.96485 0.0
H2334 H 0.82264 0.49339 0.93641 0.0
C2335 C 0.81777 0.58982 0.9353 0.0
C2336 C 0.81404 0.58513 0.87982 0.0
C2337 C 0.84781 0.65135 0.90432 0.0
C2338 C 0.86136 0.67503 0.92846 0.0
C2339 C 0.87113 0.67717 0.89449 0.0
C2340 C 0.85859 0.6607 0.88955 0.0
C2341 C 0.87183 0.68495 0.91391 0.0
C2342 C 0.8508 0.65732 0.92379 0.0
C2343 C 0.82959 0.6403 0.89948 0.0
H2344 H 0.70204 0.59249 0.87286 0.0
H2345 H 0.73736 0.58839 0.87502 0.0
H2346 H 0.6786 0.56468 0.87747 0.0
H2347 H 0.72653 0.52747 0.88876 0.0
H2348 H 0.87893 0.68485 0.88306 0.0
H2349 H 0.85621 0.65624 0.87421 0.0
H2350 H 0.87951 0.69902 0.91734 0.0
H2351 H 0.84172 0.65036 0.93493 0.0
C2352 C 0.49584 0.39442 0.15513 0.0
C2353 C 0.46992 0.38029 0.17533 0.0
C2354 C 0.48936 0.38054 0.16813 0.0
C2355 C 0.4569 0.39392 0.16872 0.0
C2356 C 0.48269 0.40774 0.14797 0.0
C2357 C 0.46315 0.40729 0.15471 0.0
N2358 N 0.51534 0.39607 0.15099 0.0
C2359 C 0.52259 0.41101 0.13984 0.0
C2360 C 0.48986 0.42194 0.13526 0.0
C2361 C 0.50993 0.42356 0.13115 0.0
Gd2362 Gd 0.58554 0.35566 0.15848 0.0
Gd2363 Gd 0.53578 0.37928 0.17166 0.0
N2364 N 0.50276 0.36877 0.17548 0.0
C2365 C 0.46412 0.36622 0.18879 0.0
C2366 C 0.49726 0.35513 0.18876 0.0
C2367 C 0.47778 0.35332 0.19523 0.0
H2368 H 0.50804 0.34632 0.19518 0.0
H2369 H 0.4735 0.34253 0.20579 0.0
H2370 H 0.59664 0.35651 0.11009 0.0
H2371 H 0.53823 0.4134 0.13776 0.0
H2372 H 0.61943 0.37488 0.08871 0.0
H2373 H 0.44918 0.36521 0.1943 0.0
H2374 H 0.44187 0.3939 0.17396 0.0
H2375 H 0.60551 0.35936 0.20376 0.0
H2376 H 0.48018 0.43227 0.12924 0.0
H2377 H 0.51577 0.43503 0.12199 0.0
H2378 H 0.66359 0.41064 0.13373 0.0
H2379 H 0.45289 0.41753 0.14953 0.0
H2380 H 0.65753 0.39695 0.2018 0.0
H2381 H 0.63399 0.37617 0.22045 0.0
N2382 N 0.61243 0.37079 0.17585 0.0
C2383 C 0.62577 0.3812 0.16514 0.0
C2384 C 0.6156 0.36832 0.19536 0.0
C2385 C 0.64505 0.38952 0.19434 0.0
C2386 C 0.63179 0.37782 0.20492 0.0
C2387 C 0.64227 0.39116 0.17416 0.0
H2388 H 0.66807 0.4103 0.1695 0.0
N2389 N 0.60818 0.37009 0.13661 0.0
C2390 C 0.62331 0.38123 0.14498 0.0
C2391 C 0.63527 0.38971 0.11289 0.0
C2392 C 0.63718 0.39147 0.13335 0.0
C2393 C 0.60728 0.367 0.11668 0.0
C2394 C 0.62048 0.37708 0.10452 0.0
O2395 O 0.53636 0.34615 0.17115 0.0
O2396 O 0.55793 0.34282 0.14625 0.0
O2397 O 0.60745 0.33552 0.14791 0.0
O2398 O 0.58555 0.32608 0.16905 0.0
O2399 O 0.54511 0.35668 0.19649 0.0
O2400 O 0.57596 0.34522 0.18898 0.0
O2401 O 0.58411 0.38378 0.1773 0.0
O2402 O 0.56187 0.39761 0.15958 0.0
O2403 O 0.5466 0.40496 0.19018 0.0
O2404 O 0.51683 0.39433 0.19331 0.0
O2405 O 0.56812 0.36379 0.129 0.0
O2406 O 0.53691 0.375 0.13647 0.0
C2407 C 0.54483 0.33486 0.15767 0.0
C2408 C 0.56044 0.34546 0.20086 0.0
C2409 C 0.59118 0.30448 0.14253 0.0
C2410 C 0.58358 0.29435 0.10882 0.0
C2411 C 0.58367 0.26998 0.13378 0.0
C2412 C 0.58925 0.28487 0.14793 0.0
C2413 C 0.58161 0.27456 0.1141 0.0
C2414 C 0.586 0.30914 0.12367 0.0
C2415 C 0.5984 0.32057 0.15604 0.0
C2416 C 0.65294 0.40246 0.14241 0.0
C2417 C 0.65553 0.40223 0.16277 0.0
H2418 H 0.64562 0.39734 0.10344 0.0
C2419 C 0.57888 0.39922 0.16849 0.0
C2420 C 0.55068 0.37034 0.1228 0.0
C2421 C 0.52171 0.42947 0.19252 0.0
C2422 C 0.49552 0.45373 0.1903 0.0
C2423 C 0.52954 0.46291 0.18248 0.0
C2424 C 0.53539 0.44417 0.18655 0.0
C2425 C 0.50993 0.46763 0.18433 0.0
C2426 C 0.50146 0.43441 0.19437 0.0
C2427 C 0.52904 0.4093 0.19631 0.0
H2428 H 0.58251 0.25474 0.13775 0.0
H2429 H 0.59237 0.28112 0.1628 0.0
H2430 H 0.58029 0.26265 0.10292 0.0
H2431 H 0.58707 0.32445 0.11988 0.0
H2432 H 0.54037 0.47396 0.17792 0.0
H2433 H 0.5508 0.44122 0.18495 0.0
H2434 H 0.50598 0.48243 0.18125 0.0
H2435 H 0.49054 0.42346 0.199 0.0
C2436 C 0.72692 0.54632 0.12192 0.0
C2437 C 0.7461 0.51719 0.12272 0.0
C2438 C 0.74111 0.53586 0.13077 0.0
C2439 C 0.73697 0.50947 0.10538 0.0
C2440 C 0.71714 0.53826 0.10497 0.0
C2441 C 0.72248 0.51995 0.09656 0.0
N2442 N 0.7226 0.56437 0.13001 0.0
C2443 C 0.70698 0.57399 0.12321 0.0
C2444 C 0.7021 0.54873 0.09714 0.0
C2445 C 0.69678 0.5665 0.10649 0.0
Gd2446 Gd 0.77336 0.62281 0.15501 0.0
Gd2447 Gd 0.74125 0.57595 0.1578 0.0
N2448 N 0.74987 0.54384 0.1474 0.0
C2449 C 0.76003 0.50679 0.13242 0.0
C2450 C 0.76262 0.53324 0.15753 0.0
C2451 C 0.76813 0.51475 0.15004 0.0
H2452 H 0.76876 0.5392 0.17132 0.0
H2453 H 0.77859 0.50663 0.15787 0.0
H2454 H 0.73603 0.62861 0.12181 0.0
H2455 H 0.70304 0.58793 0.13014 0.0
H2456 H 0.71602 0.65492 0.11154 0.0
H2457 H 0.76436 0.49247 0.12663 0.0
H2458 H 0.74079 0.49526 0.09884 0.0
H2459 H 0.78794 0.63703 0.2004 0.0
H2460 H 0.69423 0.54303 0.08412 0.0
H2461 H 0.68491 0.5745 0.10077 0.0
H2462 H 0.7311 0.70877 0.15794 0.0
H2463 H 0.71531 0.51363 0.08338 0.0
H2464 H 0.77122 0.69621 0.21274 0.0
H2465 H 0.78784 0.66672 0.22259 0.0
N2466 N 0.77141 0.64937 0.17805 0.0
C2467 C 0.7623 0.6654 0.17227 0.0
C2468 C 0.78046 0.64966 0.19589 0.0
C2469 C 0.77129 0.68319 0.20283 0.0
C2470 C 0.78057 0.66655 0.20851 0.0
C2471 C 0.76175 0.68268 0.18467 0.0
H2472 H 0.75058 0.71199 0.18824 0.0
N2473 N 0.75173 0.64638 0.14386 0.0
C2474 C 0.75194 0.66382 0.15475 0.0
C2475 C 0.72728 0.67606 0.13378 0.0
C2476 C 0.73987 0.67916 0.14986 0.0
C2477 C 0.73823 0.64289 0.12912 0.0
C2478 C 0.72633 0.65778 0.12349 0.0
O2479 O 0.77378 0.57235 0.15741 0.0
O2480 O 0.78313 0.59605 0.13708 0.0
O2481 O 0.79358 0.64379 0.14127 0.0
O2482 O 0.80324 0.6274 0.1654 0.0
O2483 O 0.76526 0.57875 0.18528 0.0
O2484 O 0.78561 0.60631 0.18092 0.0
O2485 O 0.74505 0.62592 0.17409 0.0
O2486 O 0.72416 0.6055 0.15655 0.0
O2487 O 0.71747 0.5784 0.17948 0.0
O2488 O 0.72575 0.54974 0.16874 0.0
O2489 O 0.76529 0.61121 0.12225 0.0
O2490 O 0.74458 0.58349 0.12378 0.0
C2491 C 0.78505 0.57838 0.14324 0.0
C2492 C 0.78133 0.59059 0.19116 0.0
C2493 C 0.82546 0.63134 0.14001 0.0
C2494 C 0.83802 0.61493 0.11023 0.0
C2495 C 0.86043 0.62723 0.13616 0.0
C2496 C 0.84463 0.63428 0.14725 0.0
C2497 C 0.85722 0.61802 0.11748 0.0
C2498 C 0.82228 0.62051 0.12224 0.0
C2499 C 0.80858 0.63854 0.15125 0.0
C2500 C 0.74001 0.69674 0.16169 0.0
C2501 C 0.75106 0.69856 0.17898 0.0
H2502 H 0.71774 0.68744 0.12963 0.0
C2503 C 0.72702 0.62243 0.16717 0.0
C2504 C 0.75392 0.59696 0.11284 0.0
C2505 C 0.69158 0.55341 0.17225 0.0
C2506 C 0.66366 0.52849 0.16761 0.0
C2507 C 0.66217 0.56144 0.15501 0.0
C2508 C 0.68056 0.56696 0.16273 0.0
C2509 C 0.65394 0.54252 0.1572 0.0
C2510 C 0.68301 0.53395 0.17469 0.0
C2511 C 0.71238 0.55949 0.17798 0.0
H2512 H 0.87527 0.62979 0.14162 0.0
H2513 H 0.84734 0.64208 0.16133 0.0
H2514 H 0.8697 0.61458 0.10824 0.0
H2515 H 0.80752 0.61848 0.11668 0.0
H2516 H 0.65419 0.57196 0.14718 0.0
H2517 H 0.68635 0.58186 0.16075 0.0
H2518 H 0.63971 0.53892 0.15062 0.0
H2519 H 0.69122 0.52335 0.18216 0.0
C2520 C 0.66989 0.7636 0.20018 0.0
C2521 C 0.69171 0.75814 0.17235 0.0
C2522 C 0.67438 0.76576 0.18043 0.0
C2523 C 0.70451 0.74862 0.18441 0.0
C2524 C 0.68298 0.75465 0.21247 0.0
C2525 C 0.70025 0.74705 0.20444 0.0
N2526 N 0.65251 0.77003 0.20733 0.0
C2527 C 0.64839 0.77015 0.22702 0.0
C2528 C 0.67828 0.75356 0.23245 0.0
C2529 C 0.66101 0.76154 0.23979 0.0
Gd2530 Gd 0.58537 0.76734 0.18233 0.0
Gd2531 Gd 0.63453 0.78777 0.18579 0.0
N2532 N 0.66203 0.77561 0.16924 0.0
C2533 C 0.69577 0.76048 0.15242 0.0
C2534 C 0.66618 0.77836 0.14993 0.0
C2535 C 0.68295 0.77062 0.14118 0.0
H2536 H 0.65694 0.78691 0.14124 0.0
H2537 H 0.68614 0.77277 0.12584 0.0
H2538 H 0.55613 0.80491 0.19635 0.0
H2539 H 0.63519 0.77669 0.23266 0.0
H2540 H 0.52484 0.81755 0.18729 0.0
H2541 H 0.70889 0.75474 0.14565 0.0
H2542 H 0.71787 0.74265 0.17844 0.0
H2543 H 0.58684 0.72297 0.15805 0.0
H2544 H 0.688 0.74684 0.24238 0.0
H2545 H 0.65749 0.76118 0.25528 0.0
H2546 H 0.49916 0.77025 0.13873 0.0
H2547 H 0.71041 0.73991 0.2136 0.0
H2548 H 0.53783 0.71552 0.11932 0.0
H2549 H 0.56863 0.7035 0.13223 0.0
N2550 N 0.56775 0.747 0.15871 0.0
C2551 C 0.55052 0.75343 0.15235 0.0
C2552 C 0.57391 0.72892 0.15214 0.0
C2553 C 0.54609 0.72445 0.13035 0.0
C2554 C 0.56345 0.71762 0.1376 0.0
C2555 C 0.53917 0.74231 0.13807 0.0
H2556 H 0.51173 0.74037 0.12202 0.0
N2557 N 0.55481 0.78046 0.17519 0.0
C2558 C 0.54381 0.7707 0.16092 0.0
C2559 C 0.51861 0.79444 0.16508 0.0
C2560 C 0.52533 0.77725 0.1557 0.0
C2561 C 0.54792 0.79697 0.18482 0.0
C2562 C 0.52996 0.80432 0.17975 0.0
O2563 O 0.63086 0.75565 0.19448 0.0
O2564 O 0.61082 0.74611 0.17062 0.0
O2565 O 0.56205 0.7518 0.19769 0.0
O2566 O 0.59252 0.74917 0.20644 0.0
O2567 O 0.62379 0.78214 0.15057 0.0
O2568 O 0.59204 0.76824 0.14948 0.0
O2569 O 0.59006 0.80057 0.18064 0.0
O2570 O 0.61909 0.80477 0.16472 0.0
O2571 O 0.66072 0.80715 0.18491 0.0
O2572 O 0.63913 0.81111 0.20826 0.0
O2573 O 0.58456 0.79283 0.20859 0.0
O2574 O 0.61641 0.80428 0.21163 0.0
C2575 C 0.62639 0.74189 0.181 0.0
C2576 C 0.60768 0.77472 0.13977 0.0
C2577 C 0.57062 0.72031 0.20611 0.0
C2578 C 0.54766 0.69134 0.20667 0.0
C2579 C 0.58185 0.68757 0.19732 0.0
C2580 C 0.58569 0.70787 0.20018 0.0
C2581 C 0.56304 0.67935 0.20052 0.0
C2582 C 0.55152 0.71192 0.20923 0.0
C2583 C 0.57427 0.74205 0.20766 0.0
C2584 C 0.51383 0.76608 0.14183 0.0
C2585 C 0.52087 0.74887 0.13267 0.0
H2586 H 0.50456 0.80003 0.16132 0.0
C2587 C 0.60148 0.81034 0.16857 0.0
C2588 C 0.59781 0.80534 0.21803 0.0
C2589 C 0.65967 0.83835 0.2016 0.0
C2590 C 0.66481 0.86115 0.17681 0.0
C2591 C 0.68568 0.86364 0.20561 0.0
C2592 C 0.67566 0.84685 0.21235 0.0
C2593 C 0.68105 0.87006 0.18711 0.0
C2594 C 0.65186 0.84844 0.18654 0.0
C2595 C 0.65602 0.81707 0.20118 0.0
H2596 H 0.59353 0.67816 0.19256 0.0
H2597 H 0.60041 0.71378 0.1975 0.0
H2598 H 0.56049 0.66353 0.19813 0.0
H2599 H 0.53976 0.72136 0.21381 0.0
H2600 H 0.69864 0.86979 0.21323 0.0
H2601 H 0.68153 0.83948 0.22459 0.0
H2602 H 0.6916 0.87971 0.18001 0.0
H2603 H 0.63951 0.8413 0.17847 0.0
C2604 C 0.35946 0.61018 0.16399 0.0
C2605 C 0.33321 0.6329 0.16553 0.0
C2606 C 0.34139 0.61541 0.17121 0.0
C2607 C 0.34342 0.6448 0.15226 0.0
C2608 C 0.37014 0.62238 0.15123 0.0
C2609 C 0.36203 0.63973 0.14552 0.0
N2610 N 0.36735 0.59404 0.17084 0.0
C2611 C 0.38627 0.58966 0.16627 0.0
C2612 C 0.38909 0.61735 0.14548 0.0
C2613 C 0.39728 0.601 0.15321 0.0
Gd2614 Gd 0.33261 0.52262 0.19553 0.0
Gd2615 Gd 0.34836 0.5755 0.19259 0.0
N2616 N 0.33255 0.60421 0.18494 0.0
C2617 C 0.31563 0.63856 0.17425 0.0
C2618 C 0.31566 0.61007 0.19397 0.0
C2619 C 0.30685 0.62713 0.1886 0.0
H2620 H 0.30855 0.60163 0.20512 0.0
H2621 H 0.29338 0.63154 0.19568 0.0
H2622 H 0.33028 0.49754 0.15121 0.0
H2623 H 0.3929 0.57737 0.17261 0.0
H2624 H 0.35002 0.47282 0.13313 0.0
H2625 H 0.30914 0.6521 0.1705 0.0
H2626 H 0.3375 0.65844 0.14791 0.0
H2627 H 0.34244 0.51941 0.24315 0.0
H2628 H 0.39772 0.62633 0.1356 0.0
H2629 H 0.41211 0.59726 0.14932 0.0
H2630 H 0.38985 0.44731 0.18248 0.0
H2631 H 0.37053 0.64984 0.13682 0.0
H2632 H 0.38273 0.47356 0.24875 0.0
H2633 H 0.36265 0.4997 0.26404 0.0
N2634 N 0.35151 0.50488 0.21644 0.0
C2635 C 0.36121 0.48967 0.20794 0.0
C2636 C 0.35113 0.50797 0.23643 0.0
C2637 C 0.3738 0.48208 0.23958 0.0
C2638 C 0.36253 0.49685 0.24826 0.0
C2639 C 0.37305 0.47815 0.21921 0.0
H2640 H 0.39309 0.45431 0.21815 0.0
N2641 N 0.34571 0.49546 0.17805 0.0
C2642 C 0.35873 0.48526 0.18802 0.0
C2643 C 0.36594 0.46561 0.15854 0.0
C2644 C 0.36896 0.46984 0.17861 0.0
C2645 C 0.34149 0.49026 0.15886 0.0
C2646 C 0.35222 0.47593 0.14864 0.0
O2647 O 0.31631 0.56594 0.18695 0.0
O2648 O 0.31751 0.53564 0.17156 0.0
O2649 O 0.3169 0.49534 0.20159 0.0
O2650 O 0.30248 0.523 0.20621 0.0
O2651 O 0.32221 0.57348 0.21588 0.0
O2652 O 0.32084 0.54089 0.22324 0.0
O2653 O 0.36069 0.53416 0.20945 0.0
O2654 O 0.37045 0.55148 0.18457 0.0
O2655 O 0.36205 0.57095 0.22061 0.0
O2656 O 0.36578 0.59941 0.20767 0.0
O2657 O 0.34216 0.53054 0.16114 0.0
O2658 O 0.35309 0.56348 0.16047 0.0
C2659 C 0.31026 0.55303 0.17292 0.0
C2660 C 0.31502 0.55919 0.22718 0.0
C2661 C 0.28287 0.49369 0.20238 0.0
C2662 C 0.27031 0.4723 0.17601 0.0
C2663 C 0.26026 0.46629 0.20935 0.0
C2664 C 0.27236 0.48248 0.21601 0.0
C2665 C 0.26005 0.46052 0.18934 0.0
C2666 C 0.27978 0.49004 0.1825 0.0
C2667 C 0.30121 0.50397 0.20805 0.0
C2668 C 0.38172 0.45907 0.18952 0.0
C2669 C 0.38359 0.46306 0.20982 0.0
H2670 H 0.37386 0.45421 0.15063 0.0
C2671 C 0.37462 0.53838 0.1971 0.0
C2672 C 0.34978 0.54612 0.15076 0.0
C2673 C 0.39384 0.58741 0.2231 0.0
C2674 C 0.42698 0.60334 0.22275 0.0
C2675 C 0.42237 0.56885 0.23036 0.0
C2676 C 0.40212 0.56995 0.22861 0.0
C2677 C 0.43472 0.5854 0.22751 0.0
C2678 C 0.40649 0.60421 0.22011 0.0
C2679 C 0.37212 0.58787 0.22072 0.0
H2680 H 0.25269 0.45712 0.2198 0.0
H2681 H 0.27473 0.48524 0.23164 0.0
H2682 H 0.25309 0.44644 0.18459 0.0
H2683 H 0.28864 0.49852 0.17227 0.0
H2684 H 0.42851 0.55519 0.23431 0.0
H2685 H 0.39291 0.55707 0.2317 0.0
H2686 H 0.4504 0.58429 0.22934 0.0
H2687 H 0.40044 0.61797 0.21632 0.0
C2688 C 0.92787 0.49796 0.73404 0.0
C2689 C 0.94001 0.46487 0.73452 0.0
C2690 C 0.94275 0.48544 0.73829 0.0
C2691 C 0.92183 0.45689 0.7276 0.0
C2692 C 0.9101 0.48996 0.72574 0.0
C2693 C 0.90692 0.4694 0.7232 0.0
N2694 N 0.93151 0.51789 0.73617 0.0
C2695 C 0.91882 0.53032 0.72837 0.0
C2696 C 0.89639 0.50284 0.71932 0.0
C2697 C 0.901 0.52308 0.7202 0.0
Gd2698 Gd 0.9564 0.57108 0.72503 0.0
Gd2699 Gd 0.9607 0.52683 0.75383 0.0
N2700 N 0.96051 0.49349 0.74423 0.0
C2701 C 0.95595 0.45299 0.73689 0.0
C2702 C 0.97637 0.48215 0.74574 0.0
C2703 C 0.97427 0.46171 0.74212 0.0
H2704 H 0.99055 0.48888 0.74992 0.0
H2705 H 0.9867 0.45262 0.74328 0.0
H2706 H 0.94513 0.61286 0.75063 0.0
H2707 H 0.92251 0.54573 0.72778 0.0
H2708 H 0.95962 0.64655 0.75765 0.0
H2709 H 0.95444 0.43713 0.73402 0.0
H2710 H 0.91941 0.44109 0.72483 0.0
H2711 H 0.98347 0.5514 0.68806 0.0
H2712 H 0.88262 0.49725 0.7128 0.0
H2713 H 0.89095 0.53312 0.71433 0.0
H2714 H 1.01837 0.64888 0.71856 0.0
H2715 H 0.89325 0.46303 0.71711 0.0
H2716 H 0.03076 0.59267 0.67551 0.0
H2717 H 1.01312 0.56029 0.66893 0.0
N2718 N 0.98461 0.57819 0.7058 0.0
C2719 C 0.99337 0.59662 0.7087 0.0
C2720 C 0.99099 0.56555 0.69108 0.0
C2721 C 1.0177 0.58888 0.68393 0.0
C2722 C 1.0078 0.57057 0.6802 0.0
C2723 C 1.01041 0.60226 0.69817 0.0
H2724 H 0.03269 0.62563 0.69419 0.0
N2725 N 0.9686 0.60391 0.73198 0.0
C2726 C 0.98537 0.60966 0.72254 0.0
C2727 C 0.98491 0.64202 0.73915 0.0
C2728 C 0.99409 0.6288 0.72603 0.0
C2729 C 0.95914 0.61709 0.74415 0.0
C2730 C 0.96715 0.63626 0.74794 0.0
O2731 O 0.96756 0.51659 0.72188 0.0
O2732 O 0.9529 0.54073 0.70557 0.0
O2733 O 0.93501 0.56782 0.70109 0.0
O2734 O 0.94465 0.59676 0.71209 0.0
O2735 O 0.99366 0.53701 0.74688 0.0
O2736 O 0.99036 0.5659 0.73098 0.0
O2737 O 0.95474 0.57812 0.7571 0.0
O2738 O 0.97498 0.55507 0.76658 0.0
O2739 O 0.97691 0.51223 0.77578 0.0
O2740 O 0.94592 0.51589 0.77971 0.0
O2741 O 0.93068 0.57058 0.75097 0.0
O2742 O 0.93317 0.54165 0.76701 0.0
C2743 C 0.95976 0.52247 0.70554 0.0
C2744 C 1.00205 0.55279 0.73841 0.0
C2745 C 0.93922 0.59339 0.6778 0.0
C2746 C 0.94259 0.61958 0.6539 0.0
C2747 C 0.9459 0.58511 0.6433 0.0
C2748 C 0.94265 0.57934 0.66243 0.0
C2749 C 0.94577 0.60496 0.63904 0.0
C2750 C 0.93942 0.61375 0.67344 0.0
C2751 C 0.9354 0.58673 0.69816 0.0
C2752 C 1.01137 0.6343 0.71596 0.0
C2753 C 1.0195 0.62107 0.70205 0.0
H2754 H 0.99113 0.65686 0.74219 0.0
C2755 C 0.96715 0.57211 0.76961 0.0
C2756 C 0.92389 0.55816 0.76504 0.0
C2757 C 0.96552 0.52246 0.80749 0.0
C2758 C 0.9871 0.54286 0.82949 0.0
C2759 C 0.95599 0.52943 0.84151 0.0
C2760 C 0.95195 0.52034 0.8229 0.0
C2761 C 0.97384 0.54012 0.845 0.0
C2762 C 0.98232 0.53483 0.81064 0.0
C2763 C 0.96221 0.51213 0.7881 0.0
H2764 H 0.94841 0.57407 0.63162 0.0
H2765 H 0.94276 0.56377 0.66512 0.0
H2766 H 0.94815 0.60896 0.62399 0.0
H2767 H 0.9368 0.62486 0.68503 0.0
H2768 H 0.94571 0.52729 0.85347 0.0
H2769 H 0.9385 0.51136 0.82067 0.0
H2770 H 0.97767 0.54541 0.85982 0.0
H2771 H 0.99296 0.53654 0.79886 0.0
C2772 C 0.61879 0.96478 0.74542 0.0
C2773 C 0.64351 0.95235 0.76603 0.0
C2774 C 0.62422 0.95158 0.75864 0.0
C2775 C 0.65689 0.96755 0.76061 0.0
C2776 C 0.63246 0.97915 0.73869 0.0
C2777 C 0.65137 0.98094 0.74689 0.0
N2778 N 0.60052 0.96237 0.73788 0.0
C2779 C 0.59553 0.97246 0.72194 0.0
C2780 C 0.62692 0.99068 0.72341 0.0
C2781 C 0.60851 0.98701 0.7147 0.0
Gd2782 Gd 0.52996 0.94731 0.77888 0.0
Gd2783 Gd 0.57801 0.94087 0.75377 0.0
N2784 N 0.61088 0.9371 0.76322 0.0
C2785 C 0.64888 0.93751 0.77812 0.0
C2786 C 0.61649 0.92178 0.77379 0.0
C2787 C 0.63541 0.92191 0.78166 0.0
H2788 H 0.60656 0.90935 0.77628 0.0
H2789 H 0.6396 0.90994 0.79039 0.0
H2790 H 0.50851 0.98548 0.76074 0.0
H2791 H 0.58119 0.96989 0.71536 0.0
H2792 H 0.47842 0.99207 0.74241 0.0
H2793 H 0.66354 0.93756 0.78418 0.0
H2794 H 0.67169 0.96864 0.76639 0.0
H2795 H 0.53438 0.8969 0.77236 0.0
H2796 H 0.63698 1.00191 0.71779 0.0
H2797 H 0.60426 0.99543 0.7025 0.0
H2798 H 0.44593 0.92828 0.73225 0.0
H2799 H 0.66202 0.99213 0.74222 0.0
H2800 H 0.48016 0.87204 0.74969 0.0
H2801 H 0.51333 0.86798 0.76277 0.0
N2802 N 0.51316 0.91786 0.7664 0.0
C2803 C 0.49487 0.92036 0.75912 0.0
C2804 C 0.5198 0.89924 0.76756 0.0
C2805 C 0.48918 0.88498 0.75448 0.0
C2806 C 0.50791 0.88263 0.76179 0.0
C2807 C 0.48262 0.90398 0.75261 0.0
H2808 H 0.45507 0.89462 0.73851 0.0
N2809 N 0.50209 0.95491 0.76131 0.0
C2810 C 0.48947 0.93944 0.75596 0.0
C2811 C 0.46803 0.96165 0.74098 0.0
C2812 C 0.47201 0.94245 0.74575 0.0
C2813 C 0.4984 0.97354 0.75646 0.0
C2814 C 0.48137 0.97724 0.74622 0.0
O2815 O 0.58014 0.94576 0.78603 0.0
O2816 O 0.55549 0.96642 0.79084 0.0
O2817 O 0.50728 0.96204 0.79574 0.0
O2818 O 0.52063 0.93674 0.80706 0.0
O2819 O 0.57388 0.91754 0.77946 0.0
O2820 O 0.54499 0.92336 0.79596 0.0
O2821 O 0.53047 0.93345 0.74773 0.0
O2822 O 0.55358 0.95316 0.73522 0.0
O2823 O 0.56299 0.91378 0.74188 0.0
O2824 O 0.58942 0.92611 0.72793 0.0
O2825 O 0.54187 0.97918 0.76795 0.0
O2826 O 0.57271 0.97497 0.75417 0.0
C2827 C 0.57336 0.96148 0.79465 0.0
C2828 C 0.56102 0.91305 0.79401 0.0
C2829 C 0.5141 0.96246 0.82968 0.0
C2830 C 0.5263 0.99296 0.8467 0.0
C2831 C 0.5104 0.96693 0.86505 0.0
C2832 C 0.50753 0.95528 0.84761 0.0
C2833 C 0.51924 0.986 0.86455 0.0
C2834 C 0.52452 0.98066 0.82956 0.0
C2835 C 0.50962 0.95152 0.81098 0.0
C2836 C 0.45947 0.92621 0.73996 0.0
C2837 C 0.46468 0.90704 0.74353 0.0
H2838 H 0.45489 0.96454 0.73298 0.0
C2839 C 0.53639 0.94381 0.73307 0.0
C2840 C 0.55821 0.98689 0.75903 0.0
C2841 C 0.58447 0.89224 0.72455 0.0
C2842 C 0.60466 0.87244 0.70232 0.0
C2843 C 0.60013 0.86404 0.73648 0.0
C2844 C 0.58847 0.88022 0.73996 0.0
C2845 C 0.6085 0.86035 0.71792 0.0
C2846 C 0.59179 0.88778 0.70571 0.0
C2847 C 0.57622 0.91155 0.72803 0.0
H2848 H 0.50486 0.96157 0.8788 0.0
H2849 H 0.49972 0.94101 0.84802 0.0
H2850 H 0.5197 0.99558 0.87778 0.0
H2851 H 0.52928 0.98634 0.81561 0.0
H2852 H 0.60346 0.85487 0.74843 0.0
H2853 H 0.58321 0.8837 0.75471 0.0
H2854 H 0.61858 0.84856 0.71613 0.0
H2855 H 0.58833 0.89722 0.69399 0.0
C2856 C 0.22386 0.6419 0.77019 0.0
C2857 C 0.20023 0.66506 0.76009 0.0
C2858 C 0.2044 0.64693 0.76797 0.0
C2859 C 0.21572 0.67838 0.75532 0.0
C2860 C 0.2394 0.65499 0.7647 0.0
C2861 C 0.23522 0.67341 0.75771 0.0
N2862 N 0.22742 0.62322 0.77541 0.0
C2863 C 0.24626 0.61708 0.77576 0.0
C2864 C 0.25866 0.64883 0.76543 0.0
C2865 C 0.26207 0.62976 0.77082 0.0
Gd2866 Gd 0.20599 0.55922 0.7566 0.0
Gd2867 Gd 0.1993 0.60475 0.78601 0.0
N2868 N 0.18961 0.63358 0.77226 0.0
C2869 C 0.18061 0.66905 0.75674 0.0
C2870 C 0.17052 0.63733 0.76887 0.0
C2871 C 0.16572 0.65508 0.76108 0.0
H2872 H 0.159 0.62691 0.77271 0.0
H2873 H 0.15055 0.65799 0.75856 0.0
H2874 H 0.23602 0.52838 0.77813 0.0
H2875 H 0.24928 0.60226 0.77912 0.0
H2876 H 0.2347 0.49417 0.7881 0.0
H2877 H 0.1768 0.68278 0.75064 0.0
H2878 H 0.21276 0.69241 0.74936 0.0
H2879 H 0.17878 0.55894 0.71549 0.0
H2880 H 0.27097 0.65847 0.76129 0.0
H2881 H 0.27689 0.62473 0.77097 0.0
H2882 H 0.1773 0.46447 0.75576 0.0
H2883 H 0.24699 0.68366 0.75347 0.0
H2884 H 0.14655 0.50326 0.70887 0.0
H2885 H 0.15387 0.53711 0.69802 0.0
N2886 N 0.18505 0.53796 0.73649 0.0
C2887 C 0.18216 0.51912 0.74168 0.0
C2888 C 0.17581 0.54417 0.72029 0.0
C2889 C 0.15747 0.51282 0.7166 0.0
C2890 C 0.16162 0.53187 0.71038 0.0
C2891 C 0.16817 0.50604 0.73213 0.0
H2892 H 0.1551 0.47623 0.73095 0.0
N2893 N 0.20892 0.52544 0.76254 0.0
C2894 C 0.19462 0.51258 0.75531 0.0
C2895 C 0.20774 0.48615 0.77271 0.0
C2896 C 0.19349 0.49265 0.76023 0.0
C2897 C 0.2237 0.51879 0.77351 0.0
C2898 C 0.22316 0.4992 0.77903 0.0
O2899 O 0.21261 0.6071 0.75493 0.0
O2900 O 0.19326 0.58458 0.73961 0.0
O2901 O 0.23402 0.57373 0.74806 0.0
O2902 O 0.21983 0.54978 0.72996 0.0
O2903 O 0.16691 0.59225 0.77462 0.0
O2904 O 0.17209 0.5642 0.7549 0.0
O2905 O 0.20054 0.55379 0.78806 0.0
O2906 O 0.18025 0.5786 0.79453 0.0
O2907 O 0.18736 0.62814 0.80468 0.0
O2908 O 0.20884 0.60955 0.81628 0.0
O2909 O 0.22932 0.56141 0.78411 0.0
O2910 O 0.22484 0.59038 0.80206 0.0
C2911 C 0.20258 0.60191 0.73908 0.0
C2912 C 0.15958 0.57711 0.76241 0.0
C2913 C 0.2534 0.55124 0.72848 0.0
C2914 C 0.26732 0.52604 0.70658 0.0
C2915 C 0.28064 0.53303 0.73938 0.0
C2916 C 0.26658 0.54712 0.74325 0.0
C2917 C 0.28082 0.52225 0.72125 0.0
C2918 C 0.25464 0.54146 0.70996 0.0
C2919 C 0.23534 0.56155 0.73255 0.0
C2920 C 0.17863 0.47977 0.75195 0.0
C2921 C 0.16599 0.48647 0.73785 0.0
H2922 H 0.2074 0.47097 0.77691 0.0
C2923 C 0.18516 0.56049 0.79697 0.0
C2924 C 0.23463 0.57396 0.79966 0.0
C2925 C 0.18314 0.61865 0.83699 0.0
C2926 C 0.15029 0.60865 0.84755 0.0
C2927 C 0.17379 0.62357 0.87119 0.0
C2928 C 0.18782 0.62556 0.85619 0.0
C2929 C 0.15483 0.61566 0.86679 0.0
C2930 C 0.16499 0.6089 0.83317 0.0
C2931 C 0.1961 0.62281 0.82036 0.0
H2932 H 0.29072 0.52969 0.7508 0.0
H2933 H 0.26552 0.55411 0.75785 0.0
H2934 H 0.29084 0.51042 0.71909 0.0
H2935 H 0.24425 0.54463 0.69867 0.0
H2936 H 0.17721 0.62932 0.88595 0.0
H2937 H 0.20197 0.63295 0.85943 0.0
H2938 H 0.14347 0.61621 0.87796 0.0
H2939 H 0.1612 0.60422 0.81813 0.0
C2940 C 0.53543 0.15454 0.70904 0.0
C2941 C 0.50322 0.15449 0.7243 0.0
C2942 C 0.52235 0.16305 0.72213 0.0
C2943 C 0.49781 0.13678 0.7137 0.0
C2944 C 0.52979 0.13726 0.69768 0.0
C2945 C 0.51105 0.12821 0.70036 0.0
N2946 N 0.55375 0.16325 0.70741 0.0
C2947 C 0.56623 0.15675 0.69289 0.0
C2948 C 0.54307 0.12974 0.6838 0.0
C2949 C 0.56122 0.13975 0.68115 0.0
Gd2950 Gd 0.60162 0.18599 0.76303 0.0
Gd2951 Gd 0.56143 0.1913 0.72872 0.0
N2952 N 0.52808 0.18018 0.73211 0.0
C2953 C 0.48997 0.16421 0.73673 0.0
C2954 C 0.51478 0.1903 0.74337 0.0
C2955 C 0.49566 0.18239 0.74599 0.0
H2956 H 0.51904 0.20442 0.7506 0.0
H2957 H 0.4854 0.19026 0.7553 0.0
H2958 H 0.63861 0.15591 0.76492 0.0
H2959 H 0.58031 0.16426 0.69076 0.0
H2960 H 0.67495 0.15847 0.76213 0.0
H2961 H 0.47519 0.15806 0.73888 0.0
H2962 H 0.48328 0.12984 0.71537 0.0
H2963 H 0.58539 0.22412 0.73636 0.0
H2964 H 0.5393 0.11651 0.67476 0.0
H2965 H 0.57139 0.13432 0.67011 0.0
H2966 H 0.68913 0.22436 0.74228 0.0
H2967 H 0.50654 0.11477 0.69196 0.0
H2968 H 0.63507 0.26206 0.72491 0.0
H2969 H 0.59921 0.25481 0.72375 0.0
N2970 N 0.61229 0.21461 0.74679 0.0
C2971 C 0.63222 0.21768 0.74631 0.0
C2972 C 0.60067 0.2274 0.73811 0.0
C2973 C 0.62889 0.24871 0.73105 0.0
C2974 C 0.60866 0.24471 0.73042 0.0
C2975 C 0.64099 0.2349 0.73858 0.0
H2976 H 0.66849 0.25069 0.73215 0.0
N2977 N 0.63523 0.18549 0.75744 0.0
C2978 C 0.64399 0.20271 0.75185 0.0
C2979 C 0.67578 0.18875 0.75419 0.0
C2980 C 0.66459 0.20478 0.75006 0.0
C2981 C 0.64592 0.1696 0.7609 0.0
C2982 C 0.66639 0.17101 0.75936 0.0
O2983 O 0.5522 0.19374 0.75966 0.0
O2984 O 0.5718 0.17122 0.76991 0.0
O2985 O 0.61085 0.1677 0.78636 0.0
O2986 O 0.61399 0.19921 0.79026 0.0
O2987 O 0.55979 0.21724 0.75648 0.0
O2988 O 0.58643 0.21431 0.77663 0.0
O2989 O 0.61491 0.17821 0.7319 0.0
O2990 O 0.59277 0.19231 0.71225 0.0
O2991 O 0.56752 0.21323 0.70672 0.0
O2992 O 0.53773 0.20415 0.71338 0.0
O2993 O 0.59387 0.15317 0.7521 0.0
O2994 O 0.56705 0.15669 0.73228 0.0
C2995 C 0.55466 0.17908 0.77041 0.0
C2996 C 0.5705 0.22418 0.77279 0.0
C2997 C 0.60213 0.1825 0.81745 0.0
C2998 C 0.5723 0.17158 0.83513 0.0
C2999 C 0.59381 0.19818 0.84913 0.0
C3000 C 0.6063 0.19668 0.83276 0.0
C3001 C 0.57684 0.1858 0.8503 0.0
C3002 C 0.58543 0.16976 0.81903 0.0
C3003 C 0.61367 0.18266 0.79891 0.0
C3004 C 0.67331 0.22243 0.74355 0.0
C3005 C 0.66154 0.23743 0.73781 0.0
H3006 H 0.69165 0.18976 0.75293 0.0
C3007 C 0.6105 0.18468 0.71437 0.0
C3008 C 0.57953 0.14479 0.74071 0.0
C3009 C 0.54409 0.21013 0.68043 0.0
C3010 C 0.52039 0.21069 0.65334 0.0
C3011 C 0.55226 0.19647 0.64792 0.0
C3012 C 0.55728 0.20081 0.66751 0.0
C3013 C 0.53406 0.20138 0.64087 0.0
C3014 C 0.52547 0.21486 0.67331 0.0
C3015 C 0.54911 0.21363 0.70155 0.0
H3016 H 0.59715 0.20922 0.86083 0.0
H3017 H 0.61899 0.20685 0.83187 0.0
H3018 H 0.56725 0.18743 0.86295 0.0
H3019 H 0.58266 0.15837 0.80751 0.0
H3020 H 0.5625 0.18915 0.63815 0.0
H3021 H 0.57143 0.19663 0.67259 0.0
H3022 H 0.53055 0.19754 0.62563 0.0
H3023 H 0.51506 0.22179 0.68323 0.0
C3024 C 0.9454 0.62435 0.36561 0.0
C3025 C 0.94029 0.65144 0.34497 0.0
C3026 C 0.93684 0.63153 0.34949 0.0
C3027 C 0.95368 0.66355 0.3563 0.0
C3028 C 0.95788 0.6367 0.37785 0.0
C3029 C 0.9625 0.65617 0.37274 0.0
N3030 N 0.94006 0.60572 0.37025 0.0
C3031 C 0.94529 0.5991 0.38802 0.0
C3032 C 0.96462 0.62937 0.39525 0.0
C3033 C 0.95795 0.61061 0.40055 0.0
Gd3034 Gd 0.93242 0.54044 0.31744 0.0
Gd3035 Gd 0.92234 0.58564 0.34626 0.0
N3036 N 0.92373 0.61946 0.33929 0.0
C3037 C 0.92954 0.65876 0.32979 0.0
C3038 C 0.91233 0.62689 0.32527 0.0
C3039 C 0.91519 0.64652 0.32018 0.0
H3040 H 0.90113 0.61781 0.31766 0.0
H3041 H 0.90636 0.65217 0.30879 0.0
H3042 H 0.97245 0.5165 0.32798 0.0
H3043 H 0.94016 0.58476 0.39249 0.0
H3044 H 0.98044 0.48277 0.33616 0.0
H3045 H 0.93169 0.67397 0.32586 0.0
H3046 H 0.95673 0.67882 0.35292 0.0
H3047 H 0.88375 0.54439 0.33012 0.0
H3048 H 0.97429 0.63834 0.40504 0.0
H3049 H 0.96253 0.60501 0.41429 0.0
H3050 H 0.9176 0.44788 0.33973 0.0
H3051 H 0.97225 0.66584 0.3818 0.0
H3052 H 0.86057 0.48617 0.33955 0.0
H3053 H 0.85579 0.52181 0.33717 0.0
N3054 N 0.90446 0.52183 0.32764 0.0
C3055 C 0.90747 0.50218 0.32902 0.0
C3056 C 0.8862 0.52892 0.33072 0.0
C3057 C 0.87297 0.49598 0.33605 0.0
C3058 C 0.87022 0.51611 0.33483 0.0
C3059 C 0.89181 0.48884 0.33358 0.0
H3060 H 0.88367 0.45858 0.33991 0.0
N3061 N 0.94182 0.5096 0.32622 0.0
C3062 C 0.92678 0.49597 0.32865 0.0
C3063 C 0.95024 0.47166 0.33542 0.0
C3064 C 0.93066 0.47654 0.33317 0.0
C3065 C 0.96083 0.50529 0.32941 0.0
C3066 C 0.96535 0.4862 0.33388 0.0
O3067 O 0.93077 0.58972 0.3148 0.0
O3068 O 0.95255 0.56615 0.3118 0.0
O3069 O 0.94538 0.51963 0.29651 0.0
O3070 O 0.92392 0.53928 0.28676 0.0
O3071 O 0.90117 0.5834 0.31774 0.0
O3072 O 0.90466 0.55292 0.30259 0.0
O3073 O 0.92475 0.53249 0.34894 0.0
O3074 O 0.93115 0.56104 0.36705 0.0
O3075 O 0.89706 0.56823 0.35617 0.0
O3076 O 0.89964 0.60017 0.36253 0.0
O3077 O 0.9633 0.55347 0.33211 0.0
O3078 O 0.95575 0.58041 0.35269 0.0
C3079 C 0.94744 0.58376 0.30804 0.0
C3080 C 0.89539 0.56979 0.30352 0.0
C3081 C 0.94959 0.5319 0.26526 0.0
C3082 C 0.98245 0.54264 0.25555 0.0
C3083 C 0.95947 0.52825 0.23111 0.0
C3084 C 0.94524 0.52564 0.2458 0.0
C3085 C 0.9783 0.5361 0.23607 0.0
C3086 C 0.96755 0.54177 0.26967 0.0
C3087 C 0.93668 0.52638 0.28148 0.0
C3088 C 0.91492 0.46296 0.33646 0.0
C3089 C 0.89557 0.46907 0.33658 0.0
H3090 H 0.95382 0.45691 0.33906 0.0
C3091 C 0.92805 0.54156 0.36611 0.0
C3092 C 0.96913 0.56793 0.34586 0.0
C3093 C 0.8864 0.581 0.38749 0.0
C3094 C 0.88178 0.59642 0.4202 0.0
C3095 C 0.88447 0.56088 0.41593 0.0
C3096 C 0.88657 0.56243 0.39566 0.0
C3097 C 0.88218 0.57777 0.42819 0.0
C3098 C 0.8836 0.59784 0.39985 0.0
C3099 C 0.89045 0.58343 0.36646 0.0
H3100 H 0.95635 0.52288 0.21616 0.0
H3101 H 0.93125 0.51811 0.24214 0.0
H3102 H 0.9899 0.53574 0.22513 0.0
H3103 H 0.97111 0.54575 0.2849 0.0
H3104 H 0.8849 0.54658 0.42219 0.0
H3105 H 0.88862 0.54916 0.38649 0.0
H3106 H 0.88106 0.57629 0.44391 0.0
H3107 H 0.88312 0.61219 0.39364 0.0
C3108 C 0.49411 0.92919 0.35752 0.0
C3109 C 0.46158 0.94217 0.35564 0.0
C3110 C 0.48206 0.94421 0.3527 0.0
C3111 C 0.45321 0.92438 0.36218 0.0
C3112 C 0.48574 0.91184 0.36536 0.0
C3113 C 0.46525 0.90926 0.36703 0.0
N3114 N 0.51398 0.93234 0.35635 0.0
C3115 C 0.526 0.91944 0.36431 0.0
C3116 C 0.4982 0.89797 0.3722 0.0
C3117 C 0.51842 0.902 0.37204 0.0
Gd3118 Gd 0.56548 0.95632 0.37313 0.0
Gd3119 Gd 0.5242 0.96122 0.34036 0.0
N3120 N 0.49053 0.96155 0.34703 0.0
C3121 C 0.45018 0.95837 0.35273 0.0
C3122 C 0.47966 0.97777 0.34533 0.0
C3123 C 0.45931 0.97635 0.3479 0.0
H3124 H 0.48668 0.99183 0.34195 0.0
H3125 H 0.45069 0.98913 0.34624 0.0
H3126 H 0.60679 0.9448 0.34819 0.0
H3127 H 0.54137 0.92264 0.3652 0.0
H3128 H 0.63974 0.95989 0.34196 0.0
H3129 H 0.4344 0.95736 0.35488 0.0
H3130 H 0.43747 0.92245 0.36426 0.0
H3131 H 0.54838 0.98111 0.41328 0.0
H3132 H 0.49233 0.88451 0.37839 0.0
H3133 H 0.52819 0.89181 0.3781 0.0
H3134 H 0.6435 1.01812 0.38511 0.0
H3135 H 0.45861 0.89591 0.37277 0.0
H3136 H 0.58972 0.02853 0.42959 0.0
H3137 H 0.55809 1.01009 0.43501 0.0
N3138 N 0.57395 0.98342 0.39526 0.0
C3139 C 0.59204 0.99246 0.39303 0.0
C3140 C 0.56221 0.98897 0.41076 0.0
C3141 C 0.58557 1.01575 0.42004 0.0
C3142 C 0.56769 1.0054 0.42313 0.0
C3143 C 0.59814 1.00916 0.40503 0.0
H3144 H 0.62146 0.03158 0.41069 0.0
N3145 N 0.59838 0.96812 0.36823 0.0
C3146 C 0.60445 0.98482 0.37875 0.0
C3147 C 0.63593 0.98489 0.36218 0.0
C3148 C 0.62332 0.99374 0.37593 0.0
C3149 C 0.61116 0.95872 0.35573 0.0
C3150 C 0.62993 0.96712 0.35227 0.0
O3151 O 0.51183 0.96905 0.37161 0.0
O3152 O 0.53447 0.95475 0.39042 0.0
O3153 O 0.56042 0.93293 0.39366 0.0
O3154 O 0.58986 0.94423 0.38818 0.0
O3155 O 0.53291 0.99421 0.35083 0.0
O3156 O 0.55914 0.99079 0.3714 0.0
O3157 O 0.57346 0.95529 0.34155 0.0
O3158 O 0.55283 0.97765 0.33315 0.0
O3159 O 0.50979 0.97753 0.31835 0.0
O3160 O 0.51758 0.94788 0.31121 0.0
O3161 O 0.56739 0.93085 0.34537 0.0
O3162 O 0.53947 0.93261 0.3268 0.0
C3163 C 0.51667 0.96242 0.38886 0.0
C3164 C 0.54678 1.00263 0.36287 0.0
C3165 C 0.58287 0.93625 0.42064 0.0
C3166 C 0.60596 0.93719 0.44832 0.0
C3167 C 0.57185 0.94538 0.45369 0.0
C3168 C 0.56796 0.94201 0.43374 0.0
C3169 C 0.59061 0.94305 0.46092 0.0
C3170 C 0.60199 0.93401 0.428 0.0
C3171 C 0.57874 0.93352 0.39928 0.0
C3172 C 0.62915 1.01092 0.38722 0.0
C3173 C 0.61661 1.01857 0.4018 0.0
H3174 H 0.65048 0.99137 0.35947 0.0
C3175 C 0.56981 0.96985 0.33097 0.0
C3176 C 0.55614 0.92345 0.32971 0.0
C3177 C 0.52847 0.97173 0.28954 0.0
C3178 C 0.55646 0.99516 0.28587 0.0
C3179 C 0.55564 0.96335 0.26781 0.0
C3180 C 0.53749 0.95824 0.27643 0.0
C3181 C 0.56538 0.98153 0.27289 0.0
C3182 C 0.53737 0.99066 0.29268 0.0
C3183 C 0.51399 0.96477 0.30427 0.0
H3184 H 0.56027 0.94994 0.46361 0.0
H3185 H 0.55328 0.94415 0.42856 0.0
H3186 H 0.59315 0.94609 0.47649 0.0
H3187 H 0.61362 0.92965 0.418 0.0
H3188 H 0.56267 0.95274 0.25803 0.0
H3189 H 0.53112 0.94341 0.27381 0.0
H3190 H 0.57998 0.98465 0.26712 0.0
H3191 H 0.53004 1.00149 0.30197 0.0
C3192 C 0.13635 0.54718 0.40017 0.0
C3193 C 0.13354 0.51621 0.38071 0.0
C3194 C 0.14301 0.5349 0.38491 0.0
C3195 C 0.11697 0.51037 0.39171 0.0
C3196 C 0.12012 0.54112 0.41167 0.0
C3197 C 0.11033 0.52275 0.40721 0.0
N3198 N 0.14561 0.56528 0.40356 0.0
C3199 C 0.14081 0.57701 0.41964 0.0
C3200 C 0.11433 0.55365 0.4274 0.0
C3201 C 0.1249 0.57153 0.43157 0.0
Gd3202 Gd 0.16717 0.61748 0.35489 0.0
Gd3203 Gd 0.17249 0.57321 0.38298 0.0
N3204 N 0.15916 0.54096 0.37463 0.0
C3205 C 0.1412 0.50381 0.36579 0.0
C3206 C 0.16732 0.52838 0.3608 0.0
C3207 C 0.15831 0.50983 0.35598 0.0
H3208 H 0.18084 0.53265 0.35342 0.0
H3209 H 0.16459 0.50018 0.34472 0.0
H3210 H 0.14132 0.6572 0.36283 0.0
H3211 H 0.14897 0.59078 0.42299 0.0
H3212 H 0.14754 0.69333 0.37033 0.0
H3213 H 0.13425 0.48942 0.36202 0.0
H3214 H 0.10941 0.49614 0.38859 0.0
H3215 H 0.20494 0.59607 0.3802 0.0
H3216 H 0.10194 0.54951 0.43661 0.0
H3217 H 0.12079 0.5811 0.44398 0.0
H3218 H 0.21651 0.69996 0.38315 0.0
H3219 H 0.09771 0.51791 0.41577 0.0
H3220 H 0.2495 0.64077 0.39195 0.0
H3221 H 0.23794 0.60572 0.39147 0.0
N3222 N 0.19812 0.6243 0.37103 0.0
C3223 C 0.20355 0.64388 0.37305 0.0
C3224 C 0.20994 0.61098 0.37876 0.0
C3225 C 0.23509 0.63637 0.38614 0.0
C3226 C 0.22866 0.61661 0.38584 0.0
C3227 C 0.22223 0.65039 0.38045 0.0
H3228 H 0.24142 0.67588 0.3885 0.0
N3229 N 0.17112 0.65082 0.365 0.0
C3230 C 0.18954 0.65753 0.37005 0.0
C3231 C 0.17861 0.69086 0.37373 0.0
C3232 C 0.19384 0.67784 0.37434 0.0
C3233 C 0.156 0.6632 0.36557 0.0
C3234 C 0.1595 0.68343 0.36987 0.0
O3235 O 0.17373 0.56724 0.35089 0.0
O3236 O 0.1516 0.58897 0.34461 0.0
O3237 O 0.14915 0.63375 0.3356 0.0
O3238 O 0.17742 0.62493 0.32572 0.0
O3239 O 0.19729 0.57382 0.35573 0.0
O3240 O 0.19475 0.60322 0.34035 0.0
O3241 O 0.1602 0.6273 0.38679 0.0
O3242 O 0.17699 0.60388 0.40205 0.0
O3243 O 0.19447 0.57508 0.40639 0.0
O3244 O 0.18432 0.5467 0.39433 0.0
O3245 O 0.13441 0.60827 0.36401 0.0
O3246 O 0.13804 0.5797 0.38023 0.0
C3247 C 0.15995 0.57264 0.33979 0.0
C3248 C 0.20403 0.5865 0.34175 0.0
C3249 C 0.15118 0.61664 0.3045 0.0
C3250 C 0.12781 0.58864 0.29667 0.0
C3251 C 0.15533 0.59577 0.27481 0.0
C3252 C 0.16174 0.61182 0.28731 0.0
C3253 C 0.13867 0.58401 0.27958 0.0
C3254 C 0.13383 0.60553 0.30844 0.0
C3255 C 0.16016 0.6298 0.3204 0.0
C3256 C 0.21287 0.68439 0.3801 0.0
C3257 C 0.22706 0.67068 0.38312 0.0
H3258 H 0.18128 0.70654 0.37709 0.0
C3259 C 0.16924 0.6218 0.40255 0.0
C3260 C 0.12606 0.59297 0.37328 0.0
C3261 C 0.19011 0.54872 0.42867 0.0
C3262 C 0.18655 0.52188 0.45185 0.0
C3263 C 0.1832 0.55609 0.46332 0.0
C3264 C 0.18656 0.56237 0.44439 0.0
C3265 C 0.18328 0.53611 0.46704 0.0
C3266 C 0.18991 0.52823 0.4325 0.0
C3267 C 0.19386 0.55605 0.40853 0.0
H3268 H 0.16364 0.59206 0.26165 0.0
H3269 H 0.17533 0.61994 0.28399 0.0
H3270 H 0.13441 0.57136 0.26995 0.0
H3271 H 0.12524 0.60988 0.3212 0.0
H3272 H 0.18058 0.56682 0.47524 0.0
H3273 H 0.18638 0.57804 0.44213 0.0
H3274 H 0.18075 0.5317 0.48194 0.0
H3275 H 0.19254 0.5174 0.42063 0.0
C3276 C 0.63747 0.22059 0.34323 0.0
C3277 C 0.65994 0.19574 0.35193 0.0
C3278 C 0.64181 0.20079 0.34426 0.0
C3279 C 0.67386 0.21075 0.35792 0.0
C3280 C 0.65129 0.23566 0.34967 0.0
C3281 C 0.66959 0.23062 0.3567 0.0
N3282 N 0.61909 0.22503 0.33768 0.0
C3283 C 0.61388 0.24427 0.3377 0.0
C3284 C 0.64602 0.25534 0.34963 0.0
C3285 C 0.62722 0.25963 0.34373 0.0
Gd3286 Gd 0.5508 0.20669 0.3493 0.0
Gd3287 Gd 0.59948 0.19772 0.32525 0.0
N3288 N 0.62804 0.1865 0.33854 0.0
C3289 C 0.66343 0.17574 0.35365 0.0
C3290 C 0.63127 0.167 0.34024 0.0
C3291 C 0.64902 0.16133 0.34781 0.0
H3292 H 0.62042 0.15587 0.33512 0.0
H3293 H 0.6517 0.14587 0.34896 0.0
H3294 H 0.52214 0.22751 0.31644 0.0
H3295 H 0.59928 0.24789 0.33376 0.0
H3296 H 0.48965 0.22124 0.30149 0.0
H3297 H 0.67717 0.17127 0.3595 0.0
H3298 H 0.6879 0.20713 0.36377 0.0
H3299 H 0.54772 0.18653 0.39302 0.0
H3300 H 0.65623 0.2673 0.35453 0.0
H3301 H 0.62293 0.27479 0.34395 0.0
H3302 H 0.46036 0.16806 0.3372 0.0
H3303 H 0.68038 0.24201 0.3617 0.0
H3304 H 0.49463 0.1501 0.39445 0.0
H3305 H 0.52596 0.16251 0.40988 0.0
N3306 N 0.52914 0.1872 0.36813 0.0
C3307 C 0.51161 0.1814 0.36004 0.0
C3308 C 0.53403 0.18126 0.38624 0.0
C3309 C 0.50414 0.16059 0.38701 0.0
C3310 C 0.52178 0.16762 0.3958 0.0
C3311 C 0.49864 0.16784 0.3691 0.0
H3312 H 0.47029 0.15194 0.36691 0.0
N3313 N 0.51869 0.20426 0.33623 0.0
C3314 C 0.50614 0.19032 0.34344 0.0
C3315 C 0.48158 0.19712 0.31969 0.0
C3316 C 0.48736 0.18614 0.33528 0.0
C3317 C 0.51268 0.2158 0.32178 0.0
C3318 C 0.49415 0.21231 0.3132 0.0
O3319 O 0.60035 0.21177 0.35612 0.0
O3320 O 0.57479 0.19566 0.36965 0.0
O3321 O 0.53385 0.227 0.36706 0.0
O3322 O 0.56556 0.2324 0.3639 0.0
O3323 O 0.58655 0.16713 0.339 0.0
O3324 O 0.55599 0.17308 0.35307 0.0
O3325 O 0.55184 0.19969 0.31695 0.0
O3326 O 0.57477 0.17725 0.31552 0.0
O3327 O 0.62154 0.18507 0.30592 0.0
O3328 O 0.60341 0.20779 0.29584 0.0
O3329 O 0.55586 0.2297 0.32401 0.0
O3330 O 0.58573 0.22374 0.3096 0.0
C3331 C 0.59322 0.20242 0.37098 0.0
C3332 C 0.57026 0.16061 0.34906 0.0
C3333 C 0.55077 0.24022 0.39483 0.0
C3334 C 0.53682 0.25314 0.4255 0.0
C3335 C 0.56388 0.23128 0.42604 0.0
C3336 C 0.5641 0.2301 0.40562 0.0
C3337 C 0.55023 0.24265 0.436 0.0
C3338 C 0.5372 0.25187 0.40485 0.0
C3339 C 0.54951 0.23724 0.37334 0.0
C3340 C 0.47474 0.17172 0.34344 0.0
C3341 C 0.48039 0.16256 0.36035 0.0
H3342 H 0.46726 0.19441 0.31301 0.0
C3343 C 0.55755 0.1826 0.31045 0.0
C3344 C 0.5697 0.23423 0.31057 0.0
C3345 C 0.61108 0.18276 0.27309 0.0
C3346 C 0.59737 0.15187 0.2585 0.0
C3347 C 0.61295 0.17615 0.23785 0.0
C3348 C 0.61695 0.1887 0.25448 0.0
C3349 C 0.60364 0.15749 0.23988 0.0
C3350 C 0.60046 0.16491 0.27483 0.0
C3351 C 0.61612 0.19471 0.29095 0.0
H3352 H 0.5741 0.22311 0.43413 0.0
H3353 H 0.57447 0.22104 0.39835 0.0
H3354 H 0.54988 0.24287 0.4519 0.0
H3355 H 0.52677 0.25966 0.39658 0.0
H3356 H 0.61789 0.1805 0.22352 0.0
H3357 H 0.62494 0.20272 0.25289 0.0
H3358 H 0.6022 0.14717 0.22724 0.0
H3359 H 0.5965 0.1601 0.28933 0.0
C3360 C 0.74481 0.94668 0.60786 0.0
C3361 C 0.7191 0.97 0.60587 0.0
C3362 C 0.73325 0.95808 0.59669 0.0
C3363 C 0.71699 0.97049 0.62639 0.0
C3364 C 0.74171 0.94604 0.62825 0.0
C3365 C 0.72806 0.95832 0.63753 0.0
N3366 N 0.75781 0.9348 0.59857 0.0
C3367 C 0.76886 0.92266 0.60874 0.0
C3368 C 0.75213 0.93271 0.63862 0.0
C3369 C 0.76613 0.92137 0.62894 0.0
Gd3370 Gd 0.78172 0.93948 0.51602 0.0
Gd3371 Gd 0.75717 0.93317 0.56447 0.0
N3372 N 0.73484 0.95637 0.5768 0.0
C3373 C 0.70682 0.98034 0.59412 0.0
C3374 C 0.72211 0.96565 0.56528 0.0
C3375 C 0.70826 0.97803 0.57373 0.0
H3376 H 0.72292 0.96412 0.54953 0.0
H3377 H 0.69856 0.9856 0.56448 0.0
H3378 H 0.83008 0.93609 0.52814 0.0
H3379 H 0.77911 0.91327 0.6012 0.0
H3380 H 0.8573 0.91551 0.51787 0.0
H3381 H 0.6958 0.98966 0.60064 0.0
H3382 H 0.70629 0.97965 0.63371 0.0
H3383 H 0.74019 0.91486 0.49515 0.0
H3384 H 0.74961 0.93113 0.65412 0.0
H3385 H 0.77452 0.91135 0.63698 0.0
H3386 H 0.82799 0.86508 0.47439 0.0
H3387 H 0.7258 0.95834 0.65328 0.0
H3388 H 0.75861 0.86258 0.46567 0.0
H3389 H 0.73239 0.88469 0.47592 0.0
N3390 N 0.77052 0.90976 0.49889 0.0
C3391 C 0.78549 0.8981 0.49251 0.0
C3392 C 0.75181 0.90523 0.49243 0.0
C3393 C 0.76218 0.87574 0.47491 0.0
C3394 C 0.74732 0.88809 0.4808 0.0
C3395 C 0.78154 0.88079 0.48043 0.0
H3396 H 0.7941 0.85587 0.46461 0.0
N3397 N 0.80874 0.91952 0.51044 0.0
C3398 C 0.80505 0.90347 0.49776 0.0
C3399 C 0.83945 0.89612 0.49852 0.0
C3400 C 0.82045 0.89143 0.49148 0.0
C3401 C 0.82718 0.92367 0.51789 0.0
C3402 C 0.84273 0.91203 0.51207 0.0
O3403 O 0.76167 0.96727 0.56202 0.0
O3404 O 0.76911 0.96993 0.52926 0.0
O3405 O 0.79367 0.96461 0.50111 0.0
O3406 O 0.7873 0.93819 0.48403 0.0
O3407 O 0.73646 0.93174 0.5386 0.0
O3408 O 0.75053 0.94595 0.51213 0.0
O3409 O 0.7918 0.9118 0.53285 0.0
O3410 O 0.7841 0.91282 0.56553 0.0
O3411 O 0.74666 0.9043 0.55135 0.0
O3412 O 0.73511 0.91663 0.57945 0.0
O3413 O 0.80143 0.95302 0.53949 0.0
O3414 O 0.78929 0.93998 0.5683 0.0
C3415 C 0.76433 0.9786 0.54685 0.0
C3416 C 0.73514 0.94007 0.52187 0.0
C3417 C 0.81924 0.95262 0.48182 0.0
C3418 C 0.85162 0.95803 0.49669 0.0
C3419 C 0.84748 0.93731 0.46674 0.0
C3420 C 0.82724 0.94063 0.46671 0.0
C3421 C 0.85974 0.94613 0.48164 0.0
C3422 C 0.83157 0.96066 0.49658 0.0
C3423 C 0.79804 0.95434 0.48532 0.0
C3424 C 0.81633 0.87447 0.47932 0.0
C3425 C 0.79698 0.86914 0.47389 0.0
H3426 H 0.85159 0.88714 0.49409 0.0
C3427 C 0.79412 0.90472 0.55055 0.0
C3428 C 0.80292 0.94928 0.55801 0.0
C3429 C 0.72831 0.88295 0.57358 0.0
C3430 C 0.70527 0.86501 0.59454 0.0
C3431 C 0.73256 0.84843 0.57881 0.0
C3432 C 0.73893 0.86595 0.57021 0.0
C3433 C 0.71587 0.84794 0.59099 0.0
C3434 C 0.71136 0.8822 0.58531 0.0
C3435 C 0.73409 0.9022 0.56601 0.0
H3436 H 0.85365 0.92795 0.45517 0.0
H3437 H 0.81789 0.93346 0.4554 0.0
H3438 H 0.87531 0.94386 0.48136 0.0
H3439 H 0.82573 0.96975 0.5085 0.0
H3440 H 0.74076 0.83527 0.57631 0.0
H3441 H 0.75208 0.86626 0.5612 0.0
H3442 H 0.71158 0.83441 0.59797 0.0
H3443 H 0.70299 0.89534 0.58756 0.0
C3444 C 0.76361 0.19729 0.63956 0.0
C3445 C 0.7623 0.17101 0.6627 0.0
C3446 C 0.76582 0.17746 0.64362 0.0
C3447 C 0.75793 0.18482 0.67795 0.0
C3448 C 0.75827 0.21091 0.65475 0.0
C3449 C 0.75605 0.2047 0.67402 0.0
N3450 N 0.76468 0.20273 0.62053 0.0
C3451 C 0.75971 0.22106 0.61568 0.0
C3452 C 0.75445 0.23017 0.65 0.0
C3453 C 0.75488 0.23516 0.63037 0.0
Gd3454 Gd 0.74546 0.18591 0.55328 0.0
Gd3455 Gd 0.77646 0.17836 0.59866 0.0
N3456 N 0.76983 0.16424 0.62858 0.0
C3457 C 0.76249 0.15074 0.66573 0.0
C3458 C 0.76929 0.14439 0.63122 0.0
C3459 C 0.76572 0.13737 0.64987 0.0
H3460 H 0.77212 0.13401 0.6191 0.0
H3461 H 0.76562 0.12168 0.65206 0.0
H3462 H 0.77352 0.20567 0.51799 0.0
H3463 H 0.7592 0.22487 0.60054 0.0
H3464 H 0.78328 0.1973 0.48363 0.0
H3465 H 0.75974 0.14523 0.68018 0.0
H3466 H 0.75541 0.18018 0.69277 0.0
H3467 H 0.70637 0.15505 0.56214 0.0
H3468 H 0.75042 0.24108 0.66129 0.0
H3469 H 0.75127 0.24982 0.62653 0.0
H3470 H 0.74886 0.1353 0.46777 0.0
H3471 H 0.75212 0.21504 0.68589 0.0
H3472 H 0.70028 0.11262 0.51345 0.0
H3473 H 0.68874 0.126 0.54573 0.0
N3474 N 0.72803 0.15749 0.53963 0.0
C3475 C 0.73366 0.15129 0.52115 0.0
C3476 C 0.71134 0.14934 0.54795 0.0
C3477 C 0.70806 0.12532 0.52057 0.0
C3478 C 0.70146 0.13286 0.53878 0.0
C3479 C 0.72404 0.13478 0.51133 0.0
H3480 H 0.72306 0.11594 0.48462 0.0
N3481 N 0.75608 0.17907 0.52079 0.0
C3482 C 0.74831 0.16221 0.51163 0.0
C3483 C 0.76662 0.16946 0.48211 0.0
C3484 C 0.75355 0.15688 0.49206 0.0
C3485 C 0.76815 0.19186 0.51082 0.0
C3486 C 0.77359 0.18723 0.49138 0.0
O3487 O 0.74371 0.17791 0.60851 0.0
O3488 O 0.72528 0.18689 0.58256 0.0
O3489 O 0.73254 0.19778 0.52709 0.0
O3490 O 0.71995 0.20474 0.55494 0.0
O3491 O 0.76582 0.14604 0.58619 0.0
O3492 O 0.74749 0.15106 0.55861 0.0
O3493 O 0.77857 0.18457 0.54865 0.0
O3494 O 0.78457 0.16229 0.57095 0.0
O3495 O 0.79867 0.17006 0.61905 0.0
O3496 O 0.80721 0.18807 0.59522 0.0
O3497 O 0.77044 0.2139 0.55827 0.0
O3498 O 0.78771 0.20885 0.58654 0.0
C3499 C 0.72647 0.18253 0.60162 0.0
C3500 C 0.75476 0.13839 0.57102 0.0
C3501 C 0.69747 0.19786 0.52727 0.0
C3502 C 0.67194 0.19425 0.50052 0.0
C3503 C 0.66731 0.17774 0.53139 0.0
C3504 C 0.68495 0.18612 0.53877 0.0
C3505 C 0.66103 0.18154 0.51265 0.0
C3506 C 0.69081 0.20198 0.50781 0.0
C3507 C 0.71742 0.20474 0.53589 0.0
C3508 C 0.74485 0.13974 0.48271 0.0
C3509 C 0.73012 0.12873 0.49231 0.0
H3510 H 0.77089 0.16591 0.46704 0.0
C3511 C 0.7881 0.16932 0.55379 0.0
C3512 C 0.78542 0.21989 0.57109 0.0
C3513 C 0.82639 0.16131 0.60057 0.0
C3514 C 0.8286 0.12719 0.5879 0.0
C3515 C 0.85522 0.15137 0.58222 0.0
C3516 C 0.84474 0.16613 0.59225 0.0
C3517 C 0.84712 0.13197 0.57981 0.0
C3518 C 0.81903 0.14179 0.59897 0.0
C3519 C 0.81315 0.17641 0.60824 0.0
H3520 H 0.65828 0.16822 0.54042 0.0
H3521 H 0.68892 0.18304 0.5536 0.0
H3522 H 0.64721 0.17449 0.50769 0.0
H3523 H 0.69997 0.21131 0.49872 0.0
H3524 H 0.86943 0.15509 0.57585 0.0
H3525 H 0.85072 0.18123 0.59316 0.0
H3526 H 0.85512 0.12091 0.57151 0.0
H3527 H 0.80533 0.13797 0.60622 0.0
C3528 C 0.9397 0.76183 0.63061 0.0
C3529 C 0.97029 0.75661 0.64706 0.0
C3530 C 0.95973 0.76603 0.63285 0.0
C3531 C 0.96043 0.74286 0.65884 0.0
C3532 C 0.92961 0.74859 0.64284 0.0
C3533 C 0.94014 0.73894 0.6568 0.0
N3534 N 0.93006 0.77075 0.61645 0.0
C3535 C 0.91003 0.7685 0.61484 0.0
C3536 C 0.90924 0.74548 0.64069 0.0
C3537 C 0.89938 0.75565 0.62676 0.0
Gd3538 Gd 0.94093 0.76689 0.54423 0.0
Gd3539 Gd 0.9491 0.79312 0.59824 0.0
N3540 N 0.96882 0.77953 0.62139 0.0
C3541 C 0.9904 0.76145 0.64914 0.0
C3542 C 0.98827 0.7847 0.62368 0.0
C3543 C 0.99941 0.77563 0.63746 0.0
H3544 H 0.99524 0.79576 0.6148 0.0
H3545 H 1.0149 0.77964 0.63912 0.0
H3546 H 0.89889 0.78022 0.52456 0.0
H3547 H 0.90244 0.77633 0.60398 0.0
H3548 H 0.88544 0.78666 0.49246 0.0
H3549 H 0.99905 0.75451 0.65987 0.0
H3550 H 0.96833 0.73539 0.66976 0.0
H3551 H 0.97951 0.73978 0.53558 0.0
H3552 H 0.90097 0.73541 0.64982 0.0
H3553 H 0.88362 0.75354 0.62514 0.0
H3554 H 0.93259 0.7608 0.44709 0.0
H3555 H 0.93271 0.72851 0.66617 0.0
H3556 H 0.98833 0.73154 0.47371 0.0
H3557 H 0.99872 0.7265 0.50771 0.0
N3558 N 0.96015 0.75492 0.5178 0.0
C3559 C 0.95411 0.75755 0.49934 0.0
C3560 C 0.97555 0.74327 0.52089 0.0
C3561 C 0.9804 0.73821 0.48597 0.0
C3562 C 0.9863 0.73534 0.5051 0.0
C3563 C 0.96374 0.74887 0.48293 0.0
H3564 H 0.96256 0.74274 0.45163 0.0
N3565 N 0.92712 0.77289 0.51345 0.0
C3566 C 0.93704 0.76707 0.49705 0.0
C3567 C 0.91079 0.77679 0.4765 0.0
C3568 C 0.92903 0.7685 0.47814 0.0
C3569 C 0.90826 0.77867 0.51185 0.0
C3570 C 0.90019 0.78158 0.49349 0.0
O3571 O 0.93832 0.7622 0.58847 0.0
O3572 O 0.95653 0.74811 0.56512 0.0
O3573 O 0.91393 0.75767 0.55943 0.0
O3574 O 0.93144 0.73604 0.54409 0.0
O3575 O 0.98055 0.78452 0.58304 0.0
O3576 O 0.97533 0.77276 0.55002 0.0
O3577 O 0.94849 0.79173 0.56347 0.0
O3578 O 0.96518 0.81416 0.57836 0.0
O3579 O 0.9569 0.81669 0.61998 0.0
O3580 O 0.92653 0.80861 0.61429 0.0
O3581 O 0.91905 0.7934 0.54947 0.0
O3582 O 0.92097 0.80465 0.58255 0.0
C3583 C 0.95035 0.74834 0.58332 0.0
C3584 C 0.98772 0.77773 0.5652 0.0
C3585 C 0.89766 0.72758 0.54817 0.0
C3586 C 0.88033 0.70421 0.52515 0.0
C3587 C 0.86689 0.7114 0.55781 0.0
C3588 C 0.88288 0.72443 0.5622 0.0
C3589 C 0.86571 0.70114 0.53954 0.0
C3590 C 0.89608 0.71789 0.5295 0.0
C3591 C 0.91555 0.73915 0.55417 0.0
C3592 C 0.93865 0.76016 0.46169 0.0
C3593 C 0.9558 0.75008 0.46417 0.0
H3594 H 0.90422 0.77831 0.46226 0.0
C3595 C 0.95844 0.80821 0.56157 0.0
C3596 C 0.91227 0.80467 0.56489 0.0
C3597 C 0.93413 0.84188 0.61836 0.0
C3598 C 0.94 0.86866 0.59656 0.0
C3599 C 0.92165 0.87391 0.62707 0.0
C3600 C 0.92487 0.85451 0.63196 0.0
C3601 C 0.92975 0.88122 0.60973 0.0
C3602 C 0.9386 0.84844 0.59975 0.0
C3603 C 0.93871 0.82162 0.62258 0.0
H3604 H 0.85567 0.70878 0.56882 0.0
H3605 H 0.88398 0.73165 0.57675 0.0
H3606 H 0.85364 0.69035 0.53698 0.0
H3607 H 0.9074 0.7206 0.5186 0.0
H3608 H 0.91441 0.88377 0.63747 0.0
H3609 H 0.92022 0.84946 0.64616 0.0
H3610 H 0.93002 0.89696 0.60777 0.0
H3611 H 0.94414 0.83818 0.58891 0.0
C3612 C 0.39938 0.998 0.57703 0.0
C3613 C 0.38042 0.99916 0.6073 0.0
C3614 C 0.38415 0.99046 0.58846 0.0
C3615 C 0.3917 1.01597 0.6141 0.0
C3616 C 0.41126 1.0144 0.58416 0.0
C3617 C 0.40712 1.02353 0.6026 0.0
N3618 N 0.40261 0.98924 0.55889 0.0
C3619 C 0.41866 0.99505 0.54804 0.0
C3620 C 0.42698 1.02109 0.57256 0.0
C3621 C 0.43082 1.01124 0.55455 0.0
Gd3622 Gd 0.35296 0.96543 0.50465 0.0
Gd3623 Gd 0.38227 0.96099 0.55 0.0
N3624 N 0.37378 0.97389 0.58167 0.0
C3625 C 0.36595 0.99031 0.61906 0.0
C3626 C 0.36041 0.96458 0.5936 0.0
C3627 C 0.35617 0.97274 0.61232 0.0
H3628 H 0.3531 0.95072 0.58866 0.0
H3629 H 0.34537 0.96545 0.62153 0.0
H3630 H 0.3581 0.99853 0.4696 0.0
H3631 H 0.42189 0.98742 0.53421 0.0
H3632 H 0.3656 0.9979 0.43402 0.0
H3633 H 0.36265 0.99657 0.6336 0.0
H3634 H 0.38893 1.02295 0.62846 0.0
H3635 H 0.37796 0.92695 0.52227 0.0
H3636 H 0.43643 0.03365 0.57753 0.0
H3637 H 0.44322 1.01605 0.54569 0.0
H3638 H 0.38467 0.93173 0.41876 0.0
H3639 H 0.41594 0.03628 0.60821 0.0
H3640 H 0.39456 0.89092 0.47249 0.0
H3641 H 0.39182 0.8966 0.50849 0.0
N3642 N 0.37035 0.93742 0.49465 0.0
C3643 C 0.37309 0.93533 0.47482 0.0
C3644 C 0.37774 0.92416 0.50668 0.0
C3645 C 0.38777 0.90403 0.47851 0.0
C3646 C 0.3862 0.90714 0.49884 0.0
C3647 C 0.38176 0.91848 0.46625 0.0
H3648 H 0.3915 0.90402 0.43906 0.0
N3649 N 0.36288 0.96799 0.47206 0.0
C3650 C 0.36925 0.95106 0.46321 0.0
C3651 C 0.37207 0.96707 0.43236 0.0
C3652 C 0.37396 0.95016 0.44302 0.0
C3653 C 0.36224 0.9849 0.46209 0.0
C3654 C 0.36653 0.98461 0.44201 0.0
O3655 O 0.34939 0.96111 0.55437 0.0
O3656 O 0.34199 0.98191 0.53135 0.0
O3657 O 0.33177 0.97974 0.48728 0.0
O3658 O 0.32517 0.95029 0.4962 0.0
O3659 O 0.35588 0.93343 0.5476 0.0
O3660 O 0.33917 0.93679 0.51872 0.0
O3661 O 0.38529 0.97355 0.49626 0.0
O3662 O 0.40183 0.95831 0.52007 0.0
O3663 O 0.39371 0.95033 0.57749 0.0
O3664 O 0.40678 0.94093 0.5505 0.0
O3665 O 0.36098 0.99861 0.51524 0.0
O3666 O 0.37977 0.99559 0.54298 0.0
C3667 C 0.33949 0.97593 0.54905 0.0
C3668 C 0.34103 0.92659 0.5348 0.0
C3669 C 0.30005 0.97254 0.49999 0.0
C3670 C 0.28276 0.99841 0.51823 0.0
C3671 C 0.26738 0.96558 0.51328 0.0
C3672 C 0.28396 0.95927 0.50287 0.0
C3673 C 0.26661 0.98519 0.52067 0.0
C3674 C 0.29941 0.99187 0.5081 0.0
C3675 C 0.31807 0.96614 0.48986 0.0
C3676 C 0.38124 0.9328 0.43431 0.0
C3677 C 0.38511 0.917 0.44589 0.0
H3678 H 0.37556 0.96693 0.41682 0.0
C3679 C 0.4018 0.96614 0.50215 0.0
C3680 C 0.37174 1.00734 0.53003 0.0
C3681 C 0.42866 0.94775 0.57876 0.0
C3682 C 0.45304 0.95139 0.6066 0.0
C3683 C 0.46107 0.96376 0.57435 0.0
C3684 C 0.44274 0.95728 0.56696 0.0
C3685 C 0.46612 0.96091 0.59373 0.0
C3686 C 0.43402 0.94466 0.5989 0.0
C3687 C 0.4086 0.94192 0.56968 0.0
H3688 H 0.25494 0.95534 0.51525 0.0
H3689 H 0.28424 0.9441 0.49713 0.0
H3690 H 0.25333 0.99016 0.52775 0.0
H3691 H 0.31162 1.00233 0.50571 0.0
H3692 H 0.47157 0.97114 0.56487 0.0
H3693 H 0.43961 0.95986 0.55178 0.0
H3694 H 0.48062 0.96615 0.5987 0.0
H3695 H 0.42347 0.93745 0.60844 0.0
C3696 C 0.17686 0.39568 0.60995 0.0
C3697 C 0.2059 0.39129 0.62902 0.0
C3698 C 0.19508 0.38819 0.61143 0.0
C3699 C 0.1976 0.40145 0.64528 0.0
C3700 C 0.16842 0.40605 0.62614 0.0
C3701 C 0.17877 0.40864 0.64391 0.0
N3702 N 0.16799 0.39411 0.59222 0.0
C3703 C 0.15097 0.40345 0.58945 0.0
C3704 C 0.15019 0.41418 0.62375 0.0
C3705 C 0.14151 0.41304 0.60523 0.0
Gd3706 Gd 0.1783 0.35013 0.51664 0.0
Gd3707 Gd 0.18447 0.37832 0.5657 0.0
N3708 N 0.20288 0.37928 0.59515 0.0
C3709 C 0.22495 0.38464 0.62957 0.0
C3710 C 0.22218 0.37448 0.59523 0.0
C3711 C 0.23321 0.37641 0.61248 0.0
H3712 H 0.2297 0.37001 0.5819 0.0
H3713 H 0.24832 0.3722 0.61239 0.0
H3714 H 0.13077 0.34339 0.50138 0.0
H3715 H 0.14475 0.40398 0.57497 0.0
H3716 H 0.10962 0.35723 0.47697 0.0
H3717 H 0.23365 0.38655 0.64284 0.0
H3718 H 0.20564 0.4039 0.65891 0.0
H3719 H 0.22526 0.36111 0.5021 0.0
H3720 H 0.1431 0.42204 0.63587 0.0
H3721 H 0.12783 0.42002 0.60296 0.0
H3722 H 0.15369 0.39738 0.4392 0.0
H3723 H 0.17255 0.41653 0.65651 0.0
H3724 H 0.22248 0.39582 0.45184 0.0
H3725 H 0.24193 0.37963 0.47629 0.0
N3726 N 0.19638 0.36667 0.4925 0.0
C3727 C 0.18536 0.37469 0.47866 0.0
C3728 C 0.21649 0.36788 0.49147 0.0
C3729 C 0.215 0.38751 0.46306 0.0
C3730 C 0.22605 0.37841 0.47684 0.0
C3731 C 0.19446 0.3856 0.46374 0.0
H3732 H 0.18957 0.40289 0.43857 0.0
N3733 N 0.15645 0.36016 0.49306 0.0
C3734 C 0.16493 0.37161 0.47914 0.0
C3735 C 0.1332 0.37462 0.46423 0.0
C3736 C 0.1534 0.37937 0.46454 0.0
C3737 C 0.13709 0.35408 0.49166 0.0
C3738 C 0.12509 0.36165 0.47763 0.0
O3739 O 0.1693 0.34846 0.5691 0.0
O3740 O 0.17844 0.33046 0.54142 0.0
O3741 O 0.17104 0.31858 0.51315 0.0
O3742 O 0.18703 0.33363 0.49022 0.0
O3743 O 0.20711 0.35229 0.56236 0.0
O3744 O 0.20968 0.34559 0.52904 0.0
O3745 O 0.19077 0.38086 0.52011 0.0
O3746 O 0.16891 0.39289 0.54081 0.0
O3747 O 0.21117 0.38922 0.55038 0.0
O3748 O 0.19055 0.40945 0.56463 0.0
O3749 O 0.14639 0.35719 0.53009 0.0
O3750 O 0.15048 0.37195 0.56142 0.0
C3751 C 0.17029 0.33167 0.55864 0.0
C3752 C 0.21678 0.34387 0.54702 0.0
C3753 C 0.20055 0.30484 0.50131 0.0
C3754 C 0.20713 0.27103 0.4966 0.0
C3755 C 0.23323 0.29553 0.49128 0.0
C3756 C 0.21929 0.31003 0.49378 0.0
C3757 C 0.22713 0.2756 0.49281 0.0
C3758 C 0.1973 0.28571 0.5076 0.0
C3759 C 0.18359 0.31717 0.4987 0.0
C3760 C 0.1624 0.39108 0.45031 0.0
C3761 C 0.18284 0.39416 0.4499 0.0
H3762 H 0.12387 0.38026 0.45323 0.0
C3763 C 0.17829 0.39436 0.52409 0.0
C3764 C 0.1385 0.36485 0.54695 0.0
C3765 C 0.22184 0.42359 0.55778 0.0
C3766 C 0.23907 0.44797 0.57998 0.0
C3767 C 0.23648 0.4537 0.54517 0.0
C3768 C 0.22637 0.43555 0.54208 0.0
C3769 C 0.24257 0.46002 0.56397 0.0
C3770 C 0.22842 0.42968 0.57676 0.0
C3771 C 0.20669 0.40764 0.55442 0.0
H3772 H 0.2478 0.29942 0.48591 0.0
H3773 H 0.22294 0.32481 0.48926 0.0
H3774 H 0.23643 0.26431 0.48671 0.0
H3775 H 0.18305 0.28195 0.51396 0.0
H3776 H 0.23918 0.46314 0.53301 0.0
H3777 H 0.22132 0.43134 0.52748 0.0
H3778 H 0.24968 0.4746 0.56594 0.0
H3779 H 0.22476 0.42049 0.58891 0.0
C3780 C 0.34211 0.24293 0.61779 0.0
C3781 C 0.30854 0.25341 0.61523 0.0
C3782 C 0.32356 0.24092 0.60896 0.0
C3783 C 0.31192 0.26727 0.63096 0.0
C3784 C 0.3455 0.25719 0.63341 0.0
C3785 C 0.33034 0.2692 0.63996 0.0
N3786 N 0.35665 0.2309 0.61137 0.0
C3787 C 0.37397 0.23128 0.62144 0.0
C3788 C 0.36394 0.25875 0.64236 0.0
C3789 C 0.37814 0.24558 0.63651 0.0
Gd3790 Gd 0.37189 0.21536 0.54096 0.0
Gd3791 Gd 0.34622 0.20603 0.58762 0.0
N3792 N 0.32072 0.22777 0.59324 0.0
C3793 C 0.29093 0.2525 0.60471 0.0
C3794 C 0.3037 0.22723 0.58267 0.0
C3795 C 0.2889 0.23996 0.5879 0.0
H3796 H 0.30188 0.21782 0.56966 0.0
H3797 H 0.27594 0.24015 0.57883 0.0
H3798 H 0.40385 0.18449 0.56202 0.0
H3799 H 0.38397 0.21968 0.61923 0.0
H3800 H 0.4294 0.16259 0.55096 0.0
H3801 H 0.27924 0.26219 0.6088 0.0
H3802 H 0.30051 0.27693 0.63597 0.0
H3803 H 0.3491 0.22727 0.50077 0.0
H3804 H 0.3671 0.26956 0.65434 0.0
H3805 H 0.39202 0.24585 0.64418 0.0
H3806 H 0.42806 0.16384 0.48082 0.0
H3807 H 0.33273 0.28013 0.65199 0.0
H3808 H 0.38485 0.20795 0.4524 0.0
H3809 H 0.35673 0.22645 0.46517 0.0
N3810 N 0.3721 0.20866 0.50728 0.0
C3811 C 0.38646 0.19688 0.50036 0.0
C3812 C 0.36056 0.21816 0.49491 0.0
C3813 C 0.38089 0.2074 0.46771 0.0
C3814 C 0.36509 0.21802 0.47492 0.0
C3815 C 0.3911 0.1958 0.48021 0.0
H3816 H 0.40954 0.18241 0.45773 0.0
N3817 N 0.39455 0.19067 0.53329 0.0
C3818 C 0.39773 0.18738 0.51364 0.0
C3819 C 0.42401 0.16596 0.52027 0.0
C3820 C 0.41275 0.17518 0.50667 0.0
C3821 C 0.4062 0.18229 0.54657 0.0
C3822 C 0.42067 0.16951 0.5403 0.0
O3823 O 0.34224 0.2383 0.57523 0.0
O3824 O 0.34575 0.23686 0.54189 0.0
O3825 O 0.39228 0.23902 0.55192 0.0
O3826 O 0.38867 0.23265 0.52045 0.0
O3827 O 0.3286 0.19505 0.56129 0.0
O3828 O 0.33981 0.21324 0.53556 0.0
O3829 O 0.36698 0.18058 0.5426 0.0
O3830 O 0.3575 0.17526 0.57454 0.0
O3831 O 0.3251 0.18505 0.59909 0.0
O3832 O 0.34648 0.19911 0.61871 0.0
O3833 O 0.38481 0.22482 0.57078 0.0
O3834 O 0.37779 0.19888 0.58807 0.0
C3835 C 0.33758 0.24537 0.55786 0.0
C3836 C 0.32659 0.20167 0.5438 0.0
C3837 C 0.40374 0.2633 0.53 0.0
C3838 C 0.4271 0.28475 0.51333 0.0
C3839 C 0.39864 0.2983 0.52976 0.0
C3840 C 0.39249 0.27943 0.53544 0.0
C3841 C 0.41582 0.30098 0.51859 0.0
C3842 C 0.42092 0.26602 0.51913 0.0
C3843 C 0.39802 0.24307 0.5342 0.0
C3844 C 0.41655 0.1731 0.48641 0.0
C3845 C 0.40601 0.18367 0.47326 0.0
H3846 H 0.43556 0.15638 0.51547 0.0
C3847 C 0.36308 0.16794 0.55674 0.0
C3848 C 0.39076 0.21198 0.5826 0.0
C3849 C 0.31351 0.19849 0.62911 0.0
C3850 C 0.2797 0.20871 0.62953 0.0
C3851 C 0.29946 0.21267 0.65915 0.0
C3852 C 0.31545 0.20455 0.64901 0.0
C3853 C 0.28139 0.2142 0.6496 0.0
C3854 C 0.29607 0.20171 0.61957 0.0
C3855 C 0.32944 0.18989 0.61729 0.0
H3856 H 0.38999 0.31084 0.53384 0.0
H3857 H 0.37901 0.2774 0.54376 0.0
H3858 H 0.42033 0.3156 0.51413 0.0
H3859 H 0.42928 0.25331 0.51463 0.0
H3860 H 0.30081 0.21695 0.67462 0.0
H3861 H 0.3291 0.20287 0.65666 0.0
H3862 H 0.26867 0.21867 0.65798 0.0
H3863 H 0.29414 0.19647 0.6044 0.0
C3864 C 0.9677 0.385 0.51338 0.0
C3865 C 0.95825 0.35926 0.48869 0.0
C3866 C 0.95509 0.36935 0.50699 0.0
C3867 C 0.97467 0.36467 0.47729 0.0
C3868 C 0.98331 0.39145 0.50124 0.0
C3869 C 0.98695 0.38095 0.48338 0.0
N3870 N 0.96348 0.39516 0.5305 0.0
C3871 C 0.97312 0.41295 0.53529 0.0
C3872 C 0.99408 0.40893 0.5068 0.0
C3873 C 0.9887 0.41993 0.52371 0.0
Gd3874 Gd 0.93876 0.36333 0.6001 0.0
Gd3875 Gd 0.93517 0.38384 0.54755 0.0
N3876 N 0.93858 0.36539 0.51765 0.0
C3877 C 0.94416 0.34488 0.48181 0.0
C3878 C 0.92408 0.3525 0.51025 0.0
C3879 C 0.92685 0.34172 0.4925 0.0
H3880 H 0.91046 0.35033 0.51825 0.0
H3881 H 0.91555 0.33116 0.48696 0.0
H3882 H 0.98526 0.38342 0.61268 0.0
H3883 H 0.96916 0.42138 0.54849 0.0
H3884 H 0.99957 0.40517 0.6387 0.0
H3885 H 0.94611 0.33678 0.46786 0.0
H3886 H 0.9774 0.35704 0.46324 0.0
H3887 H 0.89015 0.36415 0.60791 0.0
H3888 H 1.00614 0.41437 0.49782 0.0
H3889 H 0.99661 0.43371 0.52788 0.0
H3890 H 0.94602 0.41889 0.68218 0.0
H3891 H 0.99886 0.38569 0.47385 0.0
H3892 H 0.88149 0.39425 0.66367 0.0
H3893 H 0.86802 0.37529 0.63441 0.0
N3894 N 0.91598 0.37701 0.62173 0.0
C3895 C 0.92382 0.38709 0.63785 0.0
C3896 C 0.89626 0.37258 0.62044 0.0
C3897 C 0.89134 0.38941 0.65204 0.0
C3898 C 0.88365 0.3788 0.6355 0.0
C3899 C 0.91158 0.39381 0.65333 0.0
H3900 H 0.91062 0.41026 0.6814 0.0
N3901 N 0.95571 0.38455 0.62357 0.0
C3902 C 0.94407 0.3915 0.63851 0.0
C3903 C 0.97227 0.4085 0.65423 0.0
C3904 C 0.95217 0.40337 0.65438 0.0
C3905 C 0.9755 0.38919 0.62372 0.0
C3906 C 0.98394 0.40145 0.63881 0.0
O3907 O 0.93394 0.35051 0.5484 0.0
O3908 O 0.9533 0.34815 0.57502 0.0
O3909 O 0.94841 0.34999 0.62625 0.0
O3910 O 0.9272 0.33415 0.60717 0.0
O3911 O 0.90655 0.36003 0.55525 0.0
O3912 O 0.91133 0.34665 0.58551 0.0
O3913 O 0.92502 0.3931 0.59705 0.0
O3914 O 0.94407 0.40668 0.57415 0.0
O3915 O 0.92527 0.39535 0.51972 0.0
O3916 O 0.91721 0.41017 0.54647 0.0
O3917 O 0.97116 0.36732 0.58603 0.0
O3918 O 0.96909 0.3815 0.55579 0.0
C3919 C 0.9447 0.34009 0.55942 0.0
C3920 C 0.9007 0.34652 0.56914 0.0
C3921 C 0.9523 0.31651 0.61948 0.0
C3922 C 0.98542 0.30622 0.61339 0.0
C3923 C 0.95908 0.28198 0.62034 0.0
C3924 C 0.9459 0.29711 0.62293 0.0
C3925 C 0.97882 0.28649 0.61569 0.0
C3926 C 0.97147 0.32049 0.61316 0.0
C3927 C 0.93945 0.33302 0.62153 0.0
C3928 C 0.93998 0.4099 0.66983 0.0
C3929 C 0.91981 0.40499 0.6694 0.0
H3930 H 0.97895 0.41782 0.66601 0.0
C3931 C 0.93579 0.40856 0.59187 0.0
C3932 C 0.98023 0.37501 0.57015 0.0
C3933 C 0.92571 0.43096 0.51837 0.0
C3934 C 0.92978 0.45613 0.49177 0.0
C3935 C 0.94704 0.46072 0.52323 0.0
C3936 C 0.93825 0.44347 0.53016 0.0
C3937 C 0.94301 0.46683 0.50455 0.0
C3938 C 0.92142 0.43748 0.49872 0.0
C3939 C 0.91821 0.41137 0.52725 0.0
H3940 H 0.95414 0.26685 0.62247 0.0
H3941 H 0.93083 0.29368 0.6272 0.0
H3942 H 0.98877 0.27465 0.61421 0.0
H3943 H 0.97575 0.3352 0.60878 0.0
H3944 H 0.95706 0.46968 0.53265 0.0
H3945 H 0.94158 0.43982 0.545 0.0
H3946 H 0.95028 0.48047 0.50015 0.0
H3947 H 0.91149 0.42847 0.48927 0.0
C3948 C 0.20034 0.75716 0.47003 0.0
C3949 C 0.17059 0.744 0.45368 0.0
C3950 C 0.17989 0.75533 0.46925 0.0
C3951 C 0.182 0.73459 0.43909 0.0
C3952 C 0.2118 0.74816 0.4551 0.0
C3953 C 0.20252 0.7368 0.43971 0.0
N3954 N 0.20908 0.76755 0.4855 0.0
C3955 C 0.229 0.77085 0.48618 0.0
C3956 C 0.23228 0.75079 0.45612 0.0
C3957 C 0.2409 0.7623 0.47164 0.0
Gd3958 Gd 0.19199 0.76114 0.55973 0.0
Gd3959 Gd 0.18785 0.78296 0.5078 0.0
N3960 N 0.16913 0.76492 0.48337 0.0
C3961 C 0.15006 0.74271 0.453 0.0
C3962 C 0.14908 0.7645 0.48211 0.0
C3963 C 0.13929 0.75316 0.46717 0.0
H3964 H 0.14037 0.77316 0.49219 0.0
H3965 H 0.12341 0.75275 0.46641 0.0
H3966 H 0.21408 0.7945 0.59055 0.0
H3967 H 0.23571 0.77985 0.49807 0.0
H3968 H 0.20889 0.80965 0.62389 0.0
H3969 H 0.1424 0.73409 0.44132 0.0
H3970 H 0.17508 0.72578 0.4271 0.0
H3971 H 0.16024 0.72168 0.55533 0.0
H3972 H 0.24157 0.74412 0.44491 0.0
H3973 H 0.25671 0.76463 0.47239 0.0
H3974 H 0.15015 0.77617 0.64663 0.0
H3975 H 0.21109 0.72962 0.42821 0.0
H3976 H 0.12395 0.72103 0.60675 0.0
H3977 H 0.13369 0.70583 0.57458 0.0
N3978 N 0.16457 0.74644 0.57567 0.0
C3979 C 0.16021 0.75437 0.59382 0.0
C3980 C 0.15587 0.72866 0.56916 0.0
C3981 C 0.13545 0.72819 0.59823 0.0
C3982 C 0.14091 0.71956 0.58009 0.0
C3983 C 0.14546 0.7455 0.60554 0.0
H3984 H 0.13026 0.74729 0.63358 0.0
N3985 N 0.18738 0.77695 0.59067 0.0
C3986 C 0.17169 0.77043 0.60136 0.0
C3987 C 0.18167 0.79297 0.62851 0.0
C3988 C 0.16847 0.77823 0.62063 0.0
C3989 C 0.20106 0.79031 0.59877 0.0
C3990 C 0.19823 0.79878 0.61766 0.0
O3991 O 0.20196 0.75329 0.51042 0.0
O3992 O 0.18286 0.73908 0.53268 0.0
O3993 O 0.20365 0.7496 0.58689 0.0
O3994 O 0.21056 0.73518 0.55953 0.0
O3995 O 0.15547 0.7769 0.5223 0.0
O3996 O 0.15787 0.76316 0.55277 0.0
O3997 O 0.19122 0.79465 0.55897 0.0
O3998 O 0.17203 0.7977 0.53221 0.0
O3999 O 0.18025 0.79862 0.48219 0.0
O4000 O 0.20076 0.81227 0.50337 0.0
O4001 O 0.21992 0.78606 0.55288 0.0
O4002 O 0.21553 0.79894 0.52238 0.0
C4003 C 0.19115 0.73769 0.515 0.0
C4004 C 0.14653 0.76923 0.53838 0.0
C4005 C 0.20377 0.7138 0.58771 0.0
C4006 C 0.19941 0.68916 0.61492 0.0
C4007 C 0.18636 0.68176 0.58176 0.0
C4008 C 0.19346 0.69987 0.57524 0.0
C4009 C 0.18928 0.67653 0.60099 0.0
C4010 C 0.20687 0.7082 0.60797 0.0
C4011 C 0.21039 0.7337 0.57875 0.0
C4012 C 0.15297 0.77025 0.63186 0.0
C4013 C 0.14166 0.75377 0.62444 0.0
H4014 H 0.17967 0.79935 0.64325 0.0
C4015 C 0.17791 0.80405 0.54969 0.0
C4016 C 0.22586 0.79946 0.53893 0.0
C4017 C 0.17674 0.83164 0.49191 0.0
C4018 C 0.14373 0.84127 0.49985 0.0
C4019 C 0.16906 0.86597 0.49136 0.0
C4020 C 0.18249 0.85112 0.48807 0.0
C4021 C 0.14965 0.8611 0.49709 0.0
C4022 C 0.15814 0.82741 0.49939 0.0
C4023 C 0.18936 0.81502 0.48868 0.0
H4024 H 0.17842 0.67149 0.57164 0.0
H4025 H 0.19066 0.70298 0.56012 0.0
H4026 H 0.18352 0.66211 0.60496 0.0
H4027 H 0.21464 0.71854 0.61815 0.0
H4028 H 0.17344 0.88114 0.48872 0.0
H4029 H 0.19716 0.85479 0.48278 0.0
H4030 H 0.13933 0.87267 0.49844 0.0
H4031 H 0.1545 0.81251 0.50355 0.0
H4032 H 0.07887 0.27451 0.61565 0.0
H4033 H 0.14091 0.27233 0.60585 0.0
H4034 H 0.07329 0.27492 0.58026 0.0
H4035 H 0.13532 0.27213 0.56994 0.0
H4036 H 0.1184 0.259 0.50076 0.0
H4037 H 0.12574 0.25982 0.53624 0.0
H4038 H 0.07152 0.28783 0.5485 0.0
H4039 H 0.06518 0.28798 0.51317 0.0
C4040 C 0.09167 0.27426 0.60617 0.0
C4041 C 0.11062 0.27395 0.61521 0.0
C4042 C 0.08834 0.27451 0.5851 0.0
C4043 C 0.10359 0.27377 0.57054 0.0
C4044 C 0.1226 0.27285 0.57948 0.0
C4045 C 0.12598 0.27313 0.60076 0.0
C4046 C 0.10812 0.26585 0.51073 0.0
C4047 C 0.09105 0.27378 0.50253 0.0
C4048 C 0.11231 0.26617 0.53182 0.0
C4049 C 0.09951 0.27385 0.54695 0.0
C4050 C 0.08231 0.28147 0.53865 0.0
C4051 C 0.07847 0.28159 0.51764 0.0
H4052 H 0.86696 0.07332 0.62657 0.0
H4053 H 0.84561 1.013 0.61823 0.0
H4054 H 0.87493 0.07444 0.59171 0.0
H4055 H 0.853 1.01438 0.58256 0.0
H4056 H 0.88628 1.01906 0.51842 0.0
H4057 H 0.8806 1.01733 0.55404 0.0
H4058 H 0.86166 0.07669 0.55642 0.0
H4059 H 0.86613 0.07779 0.5205 0.0
C4060 C 0.86389 0.05997 0.61762 0.0
C4061 C 0.85537 0.04302 0.62687 0.0
C4062 C 0.86838 0.06078 0.59681 0.0
C4063 C 0.86465 0.04476 0.58275 0.0
C4064 C 0.8564 0.0275 0.59186 0.0
C4065 C 0.85193 0.02666 0.61292 0.0
C4066 C 0.87996 0.0316 0.52606 0.0
C4067 C 0.87449 0.04761 0.51469 0.0
C4068 C 0.87686 0.03067 0.5472 0.0
C4069 C 0.86921 0.04628 0.55943 0.0
C4070 C 0.8666 0.06357 0.54855 0.0
C4071 C 0.86908 0.06418 0.52722 0.0
H4072 H 0.07139 0.85479 0.58954 0.0
H4073 H 1.02106 0.8885 0.60248 0.0
H4074 H 0.06392 0.85464 0.55419 0.0
H4075 H 1.01221 0.88649 0.56732 0.0
H4076 H 0.05432 0.87627 0.48775 0.0
H4077 H 0.06129 0.87625 0.52293 0.0
H4078 H 1.0003 0.86297 0.53461 0.0
H4079 H 0.9933 0.86229 0.49886 0.0
C4080 C 0.05845 0.86206 0.58529 0.0
C4081 C 0.04669 0.87108 0.60048 0.0
C4082 C 0.05392 0.86184 0.56434 0.0
C4083 C 0.03683 0.87009 0.55643 0.0
C4084 C 0.02526 0.87934 0.57159 0.0
C4085 C 0.03028 0.88027 0.59244 0.0
C4086 C 0.04202 0.87328 0.49743 0.0
C4087 C 0.02292 0.86944 0.48885 0.0
C4088 C 0.04623 0.87316 0.51832 0.0
C4089 C 0.03173 0.86968 0.53312 0.0
C4090 C 1.01246 0.86596 0.52473 0.0
C4091 C 1.00829 0.86554 0.50359 0.0
H4092 H 0.28151 0.07228 0.5868 0.0
H4093 H 0.23191 0.10815 0.58329 0.0
H4094 H 0.28745 0.07434 0.55136 0.0
H4095 H 0.23684 0.10895 0.54725 0.0
H4096 H 0.25494 0.07176 0.47679 0.0
H4097 H 0.2481 0.07016 0.51204 0.0
H4098 H 0.28864 0.11965 0.52383 0.0
H4099 H 0.2956 0.12117 0.4881 0.0
C4100 C 0.27187 0.08094 0.57887 0.0
C4101 C 0.25698 0.09117 0.58962 0.0
C4102 C 0.27523 0.082 0.55782 0.0
C4103 C 0.26341 0.09272 0.54528 0.0
C4104 C 0.24707 0.10102 0.55556 0.0
C4105 C 0.24404 0.10038 0.57679 0.0
C4106 C 0.26263 0.08251 0.48654 0.0
C4107 C 0.27635 0.0964 0.47817 0.0
C4108 C 0.25851 0.08157 0.5074 0.0
C4109 C 0.26766 0.09452 0.52211 0.0
C4110 C 0.28101 0.10896 0.51387 0.0
C4111 C 0.28504 0.10996 0.49282 0.0
H4112 H 0.63299 0.10137 0.23815 0.0
H4113 H 0.63624 0.04179 0.25444 0.0
H4114 H 0.59772 0.0955 0.23068 0.0
H4115 H 0.60223 0.03487 0.24448 0.0
H4116 H 0.5345 1.02343 0.23607 0.0
H4117 H 0.57016 0.02891 0.23687 0.0
H4118 H 0.56396 0.09095 0.23014 0.0
H4119 H 0.52832 0.08496 0.22732 0.0
C4120 C 0.62613 0.08711 0.24099 0.0
C4121 C 0.63789 0.07304 0.24945 0.0
C4122 C 0.60547 0.08338 0.23609 0.0
C4123 C 0.59506 0.0647 0.23791 0.0
C4124 C 0.60787 0.04992 0.24381 0.0
C4125 C 0.62813 0.05397 0.24962 0.0
C4126 C 0.54047 0.03834 0.23447 0.0
C4127 C 0.52712 0.05351 0.23167 0.0
C4128 C 0.56166 0.04169 0.23529 0.0
C4129 C 0.57165 0.06074 0.23442 0.0
C4130 C 0.55823 0.0759 0.23112 0.0
C4131 C 0.53703 0.07239 0.22954 0.0
H4132 H 0.04853 0.61922 0.2388 0.0
H4133 H 0.11073 0.61309 0.24222 0.0
H4134 H 0.04291 0.58353 0.24058 0.0
H4135 H 0.1054 0.57709 0.2409 0.0
H4136 H 0.09361 0.50988 0.25564 0.0
H4137 H 0.09993 0.5445 0.24861 0.0
H4138 H 0.03832 0.54995 0.23828 0.0
H4139 H 0.03287 0.51444 0.24277 0.0
C4140 C 0.0613 0.61046 0.23966 0.0
C4141 C 0.08029 0.62046 0.24094 0.0
C4142 C 0.058 0.58922 0.24047 0.0
C4143 C 0.07343 0.57569 0.24145 0.0
C4144 C 0.09249 0.58573 0.24109 0.0
C4145 C 0.09574 0.60707 0.24159 0.0
C4146 C 0.08113 0.51833 0.25219 0.0
C4147 C 0.06206 0.50856 0.25184 0.0
C4148 C 0.0848 0.53898 0.2482 0.0
C4149 C 0.0697 0.55213 0.24393 0.0
C4150 C 0.05079 0.54193 0.24249 0.0
C4151 C 0.04731 0.52105 0.24576 0.0
H4152 H 0.60637 0.06479 0.84323 0.0
H4153 H 0.59668 0.1061 0.89158 0.0
H4154 H 0.5709 0.05972 0.83845 0.0
H4155 H 0.56078 0.09985 0.88787 0.0
H4156 H 0.49138 0.07402 0.88046 0.0
H4157 H 0.52688 0.07913 0.88817 0.0
H4158 H 0.54025 0.07379 0.82674 0.0
H4159 H 0.50516 0.0711 0.81934 0.0
C4160 C 0.59692 0.07298 0.85302 0.0
C4161 C 0.60581 0.08655 0.86746 0.0
C4162 C 0.57585 0.06979 0.85039 0.0
C4163 C 0.56141 0.07926 0.86246 0.0
C4164 C 0.57031 0.09195 0.87779 0.0
C4165 C 0.5915 0.09569 0.87996 0.0
C4166 C 0.50171 0.07409 0.86834 0.0
C4167 C 0.49413 0.07097 0.84874 0.0
C4168 C 0.52269 0.077 0.87289 0.0
C4169 C 0.538 0.07664 0.85828 0.0
C4170 C 0.53014 0.07417 0.83894 0.0
C4171 C 0.50935 0.07234 0.83448 0.0
H4172 H 0.07299 0.62587 0.81805 0.0
H4173 H 0.05819 0.63863 0.87796 0.0
H4174 H 0.06862 0.59002 0.82279 0.0
H4175 H 0.05342 0.60299 0.88318 0.0
H4176 H 0.03267 0.53301 0.88278 0.0
H4177 H 0.0368 0.56915 0.87985 0.0
H4178 H 0.08052 0.56013 0.83505 0.0
H4179 H 0.07542 0.52484 0.83714 0.0
C4180 C 0.06943 0.62106 0.83244 0.0
C4181 C 0.06715 0.63602 0.84742 0.0
C4182 C 0.06671 0.60013 0.83537 0.0
C4183 C 0.06123 0.59223 0.85377 0.0
C4184 C 0.05793 0.60734 0.86872 0.0
C4185 C 0.06075 0.62833 0.86566 0.0
C4186 C 0.04353 0.5385 0.8725 0.0
C4187 C 0.05417 0.52444 0.86083 0.0
C4188 C 0.04593 0.5598 0.8707 0.0
C4189 C 0.0591 0.56892 0.85698 0.0
C4190 C 0.07014 0.5549 0.8459 0.0
C4191 C 0.06773 0.53381 0.84772 0.0
H4192 H 0.25111 0.60693 0.09839 0.0
H4193 H 0.25316 0.61391 0.03631 0.0
H4194 H 0.25368 0.57112 0.09281 0.0
H4195 H 0.25495 0.578 0.03045 0.0
H4196 H 0.24988 0.50769 1.02164 0.0
H4197 H 0.24761 0.54365 0.02677 0.0
H4198 H 0.26625 0.54 0.08658 0.0
H4199 H 0.26922 0.50421 0.08098 0.0
C4200 C 0.25227 0.6011 0.08336 0.0
C4201 C 0.2526 0.61477 0.06812 0.0
C4202 C 0.25369 0.57988 0.08001 0.0
C4203 C 0.25492 0.57004 0.06093 0.0
C4204 C 0.25417 0.58367 0.04556 0.0
C4205 C 0.25299 0.60497 0.04899 0.0
C4206 C 0.25399 0.5144 0.03585 0.0
C4207 C 0.26057 0.50185 0.05042 0.0
C4208 C 0.25251 0.53565 0.03899 0.0
C4209 C 0.25675 0.54638 0.0573 0.0
C4210 C 0.26262 0.5336 0.07211 0.0
C4211 C 0.26441 0.5124 0.06883 0.0
H4212 H 0.61611 0.29439 1.02076 0.0
H4213 H 0.618 0.24866 0.06106 0.0
H4214 H 0.58019 0.2959 0.02613 0.0
H4215 H 0.58256 0.25063 0.06737 0.0
H4216 H 0.51868 0.27695 0.08979 0.0
H4217 H 0.55411 0.27417 0.08341 0.0
H4218 H 0.54423 0.27639 1.02153 0.0
H4219 H 0.50869 0.2776 0.02773 0.0
C4220 C 0.6091 0.28423 0.0305 0.0
C4221 C 0.62142 0.27112 0.03989 0.0
C4222 C 0.58796 0.28524 0.0339 0.0
C4223 C 0.57698 0.27351 0.04746 0.0
C4224 C 0.58926 0.26031 0.05684 0.0
C4225 C 0.61031 0.25909 0.05309 0.0
C4226 C 0.52369 0.27682 0.07468 0.0
C4227 C 0.50934 0.27778 0.05955 0.0
C4228 C 0.54469 0.27515 0.0709 0.0
C4229 C 0.55359 0.27507 0.05171 0.0
C4230 C 0.53924 0.27642 0.03665 0.0
C4231 C 0.51819 0.27725 0.04035 0.0
H4232 H 0.8829 0.63648 0.08055 0.0
H4233 H 0.85372 0.63921 0.02526 0.0
H4234 H 0.88534 0.60061 0.07472 0.0
H4235 H 0.85584 0.60367 1.01934 0.0
H4236 H 0.86086 0.53612 1.00687 0.0
H4237 H 0.86022 0.57177 1.01267 0.0
H4238 H 0.88438 0.56692 0.07032 0.0
H4239 H 0.88569 0.53117 0.06397 0.0
C4240 C 0.87694 0.62965 0.06701 0.0
C4241 C 0.86773 0.64188 0.05372 0.0
C4242 C 0.87828 0.60844 0.06353 0.0
C4243 C 0.8708 0.59754 0.04632 0.0
C4244 C 0.86207 0.61007 0.03288 0.0
C4245 C 0.8608 0.63119 0.03633 0.0
C4246 C 0.86635 0.54238 1.02083 0.0
C4247 C 0.87349 0.52936 0.03463 0.0
C4248 C 0.86588 0.56359 0.02438 0.0
C4249 C 0.87203 0.57394 0.04233 0.0
C4250 C 0.8793 0.56086 0.05617 0.0
C4251 C 0.88012 0.53962 0.05243 0.0
H4252 H 0.61055 0.83421 0.04479 0.0
H4253 H 0.6181 0.89732 0.04817 0.0
H4254 H 0.57553 0.83657 0.05257 0.0
H4255 H 0.58267 0.89986 0.05463 0.0
H4256 H 0.51205 0.90066 0.05273 0.0
H4257 H 0.54765 0.89897 0.04734 0.0
H4258 H 0.54592 0.84192 0.07187 0.0
H4259 H 0.51032 0.8441 0.07761 0.0
C4260 C 0.60503 0.84879 0.04682 0.0
C4261 C 0.61858 0.86543 0.04537 0.0
C4262 C 0.58423 0.85024 0.05149 0.0
C4263 C 0.57461 0.86853 0.05431 0.0
C4264 C 0.58818 0.88521 0.05259 0.0
C4265 C 0.60916 0.88373 0.04875 0.0
C4266 C 0.51894 0.88763 0.05714 0.0
C4267 C 0.50681 0.87245 0.06567 0.0
C4268 C 0.5401 0.88667 0.05413 0.0
C4269 C 0.55125 0.87014 0.05878 0.0
C4270 C 0.53913 0.8551 0.06758 0.0
C4271 C 0.51807 0.85636 0.07109 0.0
H4272 H 0.60015 0.74778 1.00357 0.0
H4273 H 0.56341 0.7965 1.01413 0.0
H4274 H 0.60829 0.74855 0.03891 0.0
H4275 H 0.57052 0.79669 0.04967 0.0
H4276 H 0.57298 0.77576 0.11778 0.0
H4277 H 0.56612 0.77506 0.0824 0.0
H4278 H 0.62738 0.77059 0.07029 0.0
H4279 H 0.63466 0.77286 0.10579 0.0
C4280 C 0.59378 0.75901 1.01315 0.0
C4281 C 0.58176 0.77289 1.0044 0.0
C4282 C 0.5985 0.75938 0.03408 0.0
C4283 C 0.59084 0.77306 0.04859 0.0
C4284 C 0.57754 0.78593 0.04004 0.0
C4285 C 0.57323 0.78581 1.01905 0.0
C4286 C 0.58543 0.77519 0.10785 0.0
C4287 C 0.60473 0.77497 0.11619 0.0
C4288 C 0.5813 0.77486 0.08691 0.0
C4289 C 0.59593 0.77355 0.07191 0.0
C4290 C 0.61522 0.77247 0.08018 0.0
C4291 C 0.61953 0.77363 0.10126 0.0
H4292 H 0.39882 0.53533 1.02131 0.0
H4293 H 0.34966 0.57199 1.01893 0.0
H4294 H 0.39429 0.53408 0.05736 0.0
H4295 H 0.34403 0.5693 0.05429 0.0
H4296 H 0.33949 0.51837 0.11734 0.0
H4297 H 0.34649 0.5206 0.08163 0.0
H4298 H 0.3794 0.57537 0.09351 0.0
H4299 H 0.37187 0.57351 0.12857 0.0
C4300 C 0.38689 0.54323 0.02805 0.0
C4301 C 0.37404 0.55287 1.01543 0.0
C4302 C 0.38407 0.5423 0.04933 0.0
C4303 C 0.36796 0.55062 0.06001 0.0
C4304 C 0.35623 0.56175 0.04768 0.0
C4305 C 0.35941 0.56317 0.02659 0.0
C4306 C 0.34829 0.53096 0.11264 0.0
C4307 C 0.35482 0.54565 0.12738 0.0
C4308 C 0.35247 0.53231 0.09158 0.0
C4309 C 0.36383 0.54833 0.08329 0.0
C4310 C 0.37074 0.56262 0.09809 0.0
C4311 C 0.36625 0.56145 0.11891 0.0
H4312 H 0.55468 0.37445 0.98643 0.0
H4313 H 0.49273 0.3667 0.99723 0.0
H4314 H 0.56122 0.37393 1.02155 0.0
H4315 H 0.49935 0.36674 0.033 0.0
H4316 H 0.51774 0.3845 0.10184 0.0
H4317 H 0.50942 0.38321 0.06662 0.0
H4318 H 0.56493 0.35851 0.05281 0.0
H4319 H 0.5725 0.3588 0.08796 0.0
C4320 C 0.54208 0.37272 0.99605 0.0
C4321 C 0.52287 0.3708 0.98735 0.0
C4322 C 0.54602 0.37234 1.01698 0.0
C4323 C 0.53117 0.37044 0.03178 0.0
C4324 C 0.51181 0.3685 0.02322 0.0
C4325 C 0.50785 0.36841 1.00203 0.0
C4326 C 0.52818 0.37816 0.0916 0.0
C4327 C 0.54579 0.37088 0.09943 0.0
C4328 C 0.52332 0.37757 0.07067 0.0
C4329 C 0.53604 0.37054 0.05522 0.0
C4330 C 0.55403 0.36407 0.06302 0.0
C4331 C 0.55855 0.36413 0.08395 0.0
H4332 H 0.75758 0.57208 0.97746 0.0
H4333 H 0.78492 0.62999 0.98702 0.0
H4334 H 0.75062 0.57047 1.01257 0.0
H4335 H 0.77673 0.62884 1.02241 0.0
H4336 H 0.73716 0.62219 0.08539 0.0
H4337 H 0.7424 0.62442 0.04965 0.0
H4338 H 0.77128 0.56967 0.0478 0.0
H4339 H 0.76817 0.5686 0.08327 0.0
C4340 C 0.76231 0.58469 0.98682 0.0
C4341 C 0.77252 0.60093 0.97806 0.0
C4342 C 0.75805 0.58376 1.00757 0.0
C4343 C 0.76286 0.5994 1.02167 0.0
C4344 C 0.77242 0.61617 1.01296 0.0
C4345 C 0.77723 0.61686 0.99208 0.0
C4346 C 0.74484 0.6105 0.07771 0.0
C4347 C 0.75295 0.59567 0.08907 0.0
C4348 C 0.74797 0.61187 0.05662 0.0
C4349 C 0.75829 0.59775 0.04473 0.0
C4350 C 0.76392 0.58154 0.05558 0.0
C4351 C 0.76192 0.58085 0.07675 0.0
H4352 H 0.025 0.58205 0.76056 0.0
H4353 H 0.03422 0.53419 0.71847 0.0
H4354 H 0.06037 0.58566 0.76657 0.0
H4355 H 0.07019 0.53949 0.7228 0.0
H4356 H 0.13791 0.5764 0.72639 0.0
H4357 H 0.10241 0.57068 0.71952 0.0
H4358 H 0.09157 0.56147 0.7804 0.0
H4359 H 0.12709 0.56683 0.78709 0.0
C4360 C 0.03435 0.57229 0.75227 0.0
C4361 C 0.02538 0.55722 0.73942 0.0
C4362 C 0.05533 0.57463 0.75561 0.0
C4363 C 0.06954 0.56317 0.74533 0.0
C4364 C 0.06069 0.54896 0.73139 0.0
C4365 C 0.03953 0.54591 0.72876 0.0
C4366 C 0.12819 0.57327 0.73858 0.0
C4367 C 0.13653 0.57309 0.75781 0.0
C4368 C 0.10728 0.56985 0.73452 0.0
C4369 C 0.0928 0.56593 0.74933 0.0
C4370 C 0.10129 0.56481 0.7683 0.0
C4371 C 0.12218 0.56793 0.77226 0.0
H4372 H 0.53723 1.01157 0.73478 0.0
H4373 H 0.58819 1.01551 0.77131 0.0
H4374 H 0.54118 0.04729 0.72962 0.0
H4375 H 0.59265 0.05099 0.76595 0.0
H4376 H 0.60641 0.11478 0.7428 0.0
H4377 H 0.60172 0.07882 0.74635 0.0
H4378 H 0.53969 0.08291 0.73865 0.0
H4379 H 0.54462 0.11851 0.73423 0.0
C4380 C 0.54911 1.01997 0.74228 0.0
C4381 C 0.56126 1.00986 0.75498 0.0
C4382 C 0.55158 0.04096 0.73911 0.0
C4383 C 0.56714 0.05352 0.74751 0.0
C4384 C 0.58014 0.043 0.75913 0.0
C4385 C 0.57739 1.02212 0.76256 0.0
C4386 C 0.59159 0.10829 0.74238 0.0
C4387 C 0.57604 0.12111 0.7398 0.0
C4388 C 0.58879 0.08714 0.74441 0.0
C4389 C 0.57007 0.07676 0.744 0.0
C4390 C 0.5545 0.08934 0.73986 0.0
C4391 C 0.55741 0.11047 0.7375 0.0
H4392 H 1.00483 0.5678 0.32387 0.0
H4393 H 0.98701 0.57918 0.38346 0.0
H4394 H 0.03931 0.57113 0.33368 0.0
H4395 H 0.02195 0.58513 0.39301 0.0
H4396 H 0.09488 0.61991 0.3728 0.0
H4397 H 0.05884 0.61431 0.37069 0.0
H4398 H 0.06527 0.55173 0.37052 0.0
H4399 H 0.10098 0.55738 0.37484 0.0
C4400 C 1.00788 0.57089 0.33919 0.0
C4401 C 0.99176 0.57179 0.3525 0.0
C4402 C 0.02833 0.57319 0.34497 0.0
C4403 C 0.03485 0.57861 0.36441 0.0
C4404 C 1.01871 0.58086 0.37781 0.0
C4405 C 0.9981 0.57744 0.37214 0.0
C4406 C 0.08891 0.60485 0.37277 0.0
C4407 C 0.10239 0.58934 0.37366 0.0
C4408 C 0.06762 0.60155 0.37152 0.0
C4409 C 0.0578 0.58235 0.36989 0.0
C4410 C 0.07117 0.56685 0.3715 0.0
C4411 C 0.09236 0.57022 0.37377 0.0
H4412 H 0.59509 0.13356 0.36617 0.0
H4413 H 0.53527 0.13607 0.34904 0.0
H4414 H 0.59007 0.09792 0.37138 0.0
H4415 H 0.52916 0.10168 0.35693 0.0
H4416 H 0.51976 0.03291 0.35934 0.0
H4417 H 0.52416 0.06887 0.36144 0.0
H4418 H 0.58609 0.06419 0.37066 0.0
H4419 H 0.58103 0.0283 0.37138 0.0
C4420 C 0.58096 0.12642 0.36265 0.0
C4421 C 0.56651 0.13813 0.35473 0.0
C4422 C 0.57771 0.10556 0.36624 0.0
C4423 C 0.55921 0.09483 0.36345 0.0
C4424 C 0.54412 0.10751 0.35803 0.0
C4425 C 0.54765 0.12803 0.35358 0.0
C4426 C 0.53442 0.03929 0.36205 0.0
C4427 C 0.54987 0.02627 0.36485 0.0
C4428 C 0.53717 0.06065 0.36284 0.0
C4429 C 0.55586 0.07117 0.36523 0.0
C4430 C 0.57129 0.05807 0.36848 0.0
C4431 C 0.56833 0.0367 0.36873 0.0
H4432 H 0.78507 1.00808 0.57128 0.0
H4433 H 0.73732 1.00441 0.53034 0.0
H4434 H 0.78225 0.04413 0.57539 0.0
H4435 H 0.73383 0.04046 0.53529 0.0
H4436 H 0.73666 0.10615 0.59144 0.0
H4437 H 0.73788 0.06994 0.58541 0.0
H4438 H 0.77211 0.07877 0.53329 0.0
H4439 H 0.76943 0.11482 0.53845 0.0
C4440 C 0.77373 1.01464 0.56313 0.0
C4441 C 0.76172 1.00203 0.55008 0.0
C4442 C 0.77203 0.03592 0.56562 0.0
C4443 C 0.75768 0.04656 0.55587 0.0
C4444 C 0.74534 0.03389 0.5432 0.0
C4445 C 0.74737 1.01265 0.54031 0.0
C4446 C 0.74429 0.10069 0.57843 0.0
C4447 C 0.75355 0.11482 0.56603 0.0
C4448 C 0.7451 0.07933 0.57493 0.0
C4449 C 0.75561 0.07011 0.55895 0.0
C4450 C 0.76412 0.08421 0.54608 0.0
C4451 C 0.76277 0.10551 0.54927 0.0
H4452 H 0.12038 0.75012 0.56572 0.0
H4453 H 0.11667 0.78871 0.51871 0.0
H4454 H 0.08476 0.75095 0.57102 0.0
H4455 H 0.08088 0.79044 0.52426 0.0
H4456 H 1.01067 0.78135 0.53013 0.0
H4457 H 0.0461 0.77992 0.52374 0.0
H4458 H 0.05444 0.7642 0.58319 0.0
H4459 H 1.01959 0.76891 0.59034 0.0
C4460 C 0.11227 0.75895 0.55624 0.0
C4461 C 0.12289 0.76938 0.54148 0.0
C4462 C 0.09113 0.75966 0.55953 0.0
C4463 C 0.07838 0.77114 0.5486 0.0
C4464 C 0.08895 0.78127 0.53353 0.0
C4465 C 0.11008 0.78034 0.53017 0.0
C4466 C 1.01998 0.77853 0.54234 0.0
C4467 C 1.01099 0.77623 0.56123 0.0
C4468 C 0.04096 0.77744 0.53851 0.0
C4469 C 0.05496 0.7726 0.55288 0.0
C4470 C 0.04564 0.76902 0.57144 0.0
C4471 C 0.02488 0.77149 0.57564 0.0
H4472 H 0.38467 0.03366 0.56269 0.0
H4473 H 0.35788 0.03737 0.5064 0.0
H4474 H 0.38327 0.06946 0.56855 0.0
H4475 H 0.35632 0.07314 0.51206 0.0
H4476 H 0.35156 0.14196 0.5239 0.0
H4477 H 0.35373 0.1062 0.5178 0.0
H4478 H 0.38274 0.103 0.57336 0.0
H4479 H 0.3807 0.13883 0.57908 0.0
C4480 C 0.37878 0.04186 0.55114 0.0
C4481 C 0.37198 0.03116 0.53363 0.0
C4482 C 0.37772 0.06318 0.55465 0.0
C4483 C 0.36968 0.07605 0.54101 0.0
C4484 C 0.36282 0.06522 0.52351 0.0
C4485 C 0.36384 0.04392 0.52005 0.0
C4486 C 0.35857 0.13387 0.53495 0.0
C4487 C 0.36557 0.1446 0.55236 0.0
C4488 C 0.35981 0.1126 0.53143 0.0
C4489 C 0.36839 0.09986 0.54488 0.0
C4490 C 0.37579 0.11083 0.56211 0.0
C4491 C 0.3746 0.1321 0.56558 0.0
H4492 H 0.10628 0.36663 0.51986 0.0
H4493 H 0.11575 0.36653 0.58205 0.0
H4494 H 0.07089 0.37017 0.52576 0.0
H4495 H 0.08032 0.36921 0.58796 0.0
H4496 H 1.00965 0.35751 0.59253 0.0
H4497 H 0.04545 0.35555 0.58772 0.0
H4498 H 0.04226 0.3901 0.537 0.0
H4499 H 1.00657 0.39101 0.54134 0.0
C4500 C 0.10111 0.36709 0.53491 0.0
C4501 C 0.11519 0.36606 0.55025 0.0
C4502 C 0.08021 0.3693 0.53843 0.0
C4503 C 0.07133 0.37013 0.5576 0.0
C4504 C 0.08541 0.36869 0.57287 0.0
C4505 C 0.10634 0.3671 0.56938 0.0
C4506 C 1.01632 0.36475 0.58025 0.0
C4507 C 1.00377 0.37447 0.5675 0.0
C4508 C 0.03746 0.36373 0.57746 0.0
C4509 C 0.04813 0.37234 0.56157 0.0
C4510 C 0.03571 0.38279 0.54935 0.0
C4511 C 1.01455 0.38346 0.55197 0.0
H4512 H 0.04801 0.33045 0.39611 0.0
H4513 H 0.09888 0.3076 0.36718 0.0
H4514 H 0.0454 0.35443 0.37156 0.0
H4515 H 0.09644 0.33232 0.342 0.0
H4516 H 0.08949 0.38145 0.29434 0.0
H4517 H 0.09337 0.35621 0.31857 0.0
H4518 H 0.04244 0.37669 0.34962 0.0
H4519 H 0.03883 0.40151 0.32573 0.0
C4520 C 0.05883 0.33013 0.38443 0.0
C4521 C 0.07358 0.31581 0.38461 0.0
C4522 C 0.05733 0.3446 0.36975 0.0
C4523 C 0.07052 0.34658 0.35347 0.0
C4524 C 0.0855 0.33228 0.35356 0.0
C4525 C 0.08697 0.31757 0.36842 0.0
C4526 C 0.07899 0.38077 0.3063 0.0
C4527 C 0.06368 0.39453 0.30714 0.0
C4528 C 0.08124 0.3658 0.32068 0.0
C4529 C 0.0684 0.36313 0.33727 0.0
C4530 C 0.05316 0.37702 0.3379 0.0
C4531 C 0.05094 0.39187 0.32364 0.0
H4532 H 0.8354 0.09049 0.39366 0.0
H4533 H 0.82346 0.02789 0.38778 0.0
H4534 H 0.80997 0.09503 0.36875 0.0
H4535 H 0.79863 0.03228 0.36288 0.0
H4536 H 0.75715 0.04096 0.30758 0.0
H4537 H 0.78257 0.03701 0.3324 0.0
H4538 H 0.77834 0.09767 0.35236 0.0
H4539 H 0.75263 0.10141 0.32785 0.0
C4540 C 0.82784 0.07739 0.38713 0.0
C4541 C 0.83305 0.05853 0.39374 0.0
C4542 C 0.81256 0.08006 0.37237 0.0
C4543 C 0.80098 0.0642 0.36235 0.0
C4544 C 0.80634 0.04547 0.36901 0.0
C4545 C 0.82125 0.04286 0.3839 0.0
C4546 C 0.76136 0.05373 0.31705 0.0
C4547 C 0.7516 0.07172 0.31442 0.0
C4548 C 0.77648 0.05139 0.33194 0.0
C4549 C 0.78392 0.06685 0.34571 0.0
C4550 C 0.77424 0.08486 0.34289 0.0
C4551 C 0.75887 0.08708 0.32828 0.0
H4552 H 1.02004 0.79705 0.38127 0.0
H4553 H 0.055 0.84054 0.3516 0.0
H4554 H 0.02945 0.77145 0.35642 0.0
H4555 H 0.06346 0.8151 0.32598 0.0
H4556 H 0.06039 0.7638 0.26999 0.0
H4557 H 0.0518 0.78974 0.29506 0.0
H4558 H 0.05758 0.74892 0.34031 0.0
H4559 H 0.0673 0.72345 0.31543 0.0
C4560 C 0.02967 0.80165 0.3695 0.0
C4561 C 0.03633 0.82214 0.36975 0.0
C4562 C 0.03529 0.78637 0.35469 0.0
C4563 C 0.04759 0.7899 0.33783 0.0
C4564 C 0.054 0.81049 0.33788 0.0
C4565 C 0.04901 0.82564 0.35316 0.0
C4566 C 0.05989 0.75991 0.28518 0.0
C4567 C 0.06479 0.74018 0.28942 0.0
C4568 C 0.05489 0.77538 0.30014 0.0
C4569 C 0.05349 0.77273 0.321 0.0
C4570 C 0.058 0.75286 0.32512 0.0
C4571 C 0.06375 0.73767 0.31028 0.0
H4572 H 0.40806 0.03028 0.2911 0.0
H4573 H 0.40455 0.08992 0.27394 0.0
H4574 H 0.38353 0.03597 0.31673 0.0
H4575 H 0.37975 0.09581 0.2998 0.0
H4576 H 0.33821 0.10755 0.35494 0.0
H4577 H 0.36259 0.10216 0.32892 0.0
H4578 H 0.35548 0.03948 0.33513 0.0
H4579 H 0.33109 0.04504 0.36128 0.0
C4580 C 0.4021 0.04478 0.29246 0.0
C4581 C 0.4091 0.05932 0.27927 0.0
C4582 C 0.38748 0.04816 0.30768 0.0
C4583 C 0.37841 0.06656 0.31151 0.0
C4584 C 0.38554 0.08126 0.29837 0.0
C4585 C 0.40014 0.07779 0.28295 0.0
C4586 C 0.34156 0.09244 0.35092 0.0
C4587 C 0.33163 0.07693 0.36116 0.0
C4588 C 0.35601 0.08923 0.33544 0.0
C4589 C 0.36215 0.07014 0.32868 0.0
C4590 C 0.35219 0.05461 0.33901 0.0
C4591 C 0.33763 0.05784 0.35446 0.0
H4592 H 0.0385 0.7615 0.80709 0.0
H4593 H 0.09179 0.74432 0.77853 0.0
H4594 H 0.03482 0.78674 0.78282 0.0
H4595 H 0.08827 0.76899 0.75454 0.0
H4596 H 0.08659 0.81961 0.71275 0.0
H4597 H 0.08851 0.79532 0.73698 0.0
H4598 H 0.02968 0.80673 0.75617 0.0
H4599 H 0.02772 0.83154 0.73103 0.0
C4600 C 0.0496 0.76283 0.79576 0.0
C4601 C 0.0656 0.74993 0.79566 0.0
C4602 C 0.04745 0.77773 0.78137 0.0
C4603 C 0.06115 0.78117 0.76566 0.0
C4604 C 0.07705 0.76812 0.76575 0.0
C4605 C 0.07913 0.75333 0.77998 0.0
C4606 C 0.0737 0.81725 0.72181 0.0
C4607 C 0.0569 0.82854 0.7188 0.0
C4608 C 0.07485 0.80264 0.73632 0.0
C4609 C 0.05932 0.79773 0.74963 0.0
C4610 C 0.0424 0.80918 0.7469 0.0
C4611 C 0.0412 0.82388 0.73208 0.0
H4612 H 0.37718 0.04152 0.77414 0.0
H4613 H 0.37607 0.10281 0.79263 0.0
H4614 H 0.35122 0.04577 0.75008 0.0
H4615 H 0.35029 0.10725 0.76833 0.0
H4616 H 0.30824 0.11657 0.71435 0.0
H4617 H 0.33348 0.11185 0.73876 0.0
H4618 H 0.32021 0.0493 0.7342 0.0
H4619 H 0.29454 0.05419 0.70973 0.0
C4620 C 0.37163 0.05613 0.77336 0.0
C4621 C 0.37986 0.07161 0.78647 0.0
C4622 C 0.35614 0.05866 0.75907 0.0
C4623 C 0.34733 0.07706 0.75601 0.0
C4624 C 0.35572 0.09261 0.76907 0.0
C4625 C 0.37101 0.08999 0.7836 0.0
C4626 C 0.3102 0.10162 0.71842 0.0
C4627 C 0.29789 0.08606 0.70915 0.0
C4628 C 0.32528 0.0988 0.733 0.0
C4629 C 0.33016 0.07999 0.73979 0.0
C4630 C 0.318 0.06429 0.73035 0.0
C4631 C 0.30261 0.06716 0.7159 0.0
H4632 H 0.03891 0.40062 0.79723 0.0
H4633 H 0.09647 0.40238 0.82231 0.0
H4634 H 0.04832 0.37476 0.77296 0.0
H4635 H 0.10612 0.37655 0.79772 0.0
H4636 H 0.12545 0.33114 0.74445 0.0
H4637 H 0.11636 0.35692 0.76918 0.0
H4638 H 0.05556 0.3451 0.75493 0.0
H4639 H 0.06472 0.31918 0.73044 0.0
C4640 C 0.05374 0.39571 0.79798 0.0
C4641 C 0.06634 0.4048 0.81313 0.0
C4642 C 0.05938 0.38021 0.78345 0.0
C4643 C 0.07849 0.37201 0.78201 0.0
C4644 C 0.09123 0.38129 0.79706 0.0
C4645 C 0.08548 0.39668 0.81182 0.0
C4646 C 0.10997 0.33363 0.74636 0.0
C4647 C 0.09628 0.32161 0.73429 0.0
C4648 C 0.10452 0.34905 0.76115 0.0
C4649 C 0.0847 0.35456 0.76549 0.0
C4650 C 0.07104 0.34261 0.75323 0.0
C4651 C 0.07648 0.32703 0.73862 0.0
H4652 H 0.80068 0.09453 0.7421 0.0
H4653 H 0.79751 0.0327 0.75266 0.0
H4654 H 0.77628 0.10036 0.76808 0.0
H4655 H 0.77303 0.03832 0.77853 0.0
H4656 H 0.72831 0.05064 0.83103 0.0
H4657 H 0.75309 0.04444 0.80526 0.0
H4658 H 0.7509 0.1047 0.78905 0.0
H4659 H 0.72654 0.1107 0.81466 0.0
C4660 C 0.79499 0.08194 0.74985 0.0
C4661 C 0.80214 0.06296 0.74439 0.0
C4662 C 0.78043 0.08532 0.76524 0.0
C4663 C 0.7715 0.07006 0.7767 0.0
C4664 C 0.77872 0.05107 0.77109 0.0
C4665 C 0.79326 0.04771 0.75573 0.0
C4666 C 0.73309 0.06279 0.8222 0.0
C4667 C 0.72464 0.08148 0.8261 0.0
C4668 C 0.7477 0.05915 0.80682 0.0
C4669 C 0.75525 0.07384 0.79386 0.0
C4670 C 0.74662 0.09244 0.79789 0.0
C4671 C 0.73209 0.09603 0.81314 0.0
H4672 H 0.38653 0.31262 0.02691 0.0
H4673 H 0.39034 0.32793 0.08871 0.0
H4674 H 0.35891 0.33425 0.02441 0.0
H4675 H 0.36327 0.34963 0.08639 0.0
H4676 H 0.31546 0.39579 0.08052 0.0
H4677 H 0.34264 0.37392 0.0827 0.0
H4678 H 0.32912 0.34886 0.02472 0.0
H4679 H 0.30192 0.37103 1.02284 0.0
C4680 C 0.38172 0.32046 0.04016 0.0
C4681 C 0.39171 0.31779 0.05811 0.0
C4682 C 0.36537 0.33325 0.03875 0.0
C4683 C 0.35765 0.34465 0.05512 0.0
C4684 C 0.36783 0.34194 0.07297 0.0
C4685 C 0.38395 0.32906 0.07438 0.0
C4686 C 0.31836 0.38602 0.0679 0.0
C4687 C 0.30649 0.38692 0.05086 0.0
C4688 C 0.33431 0.37285 0.06923 0.0
C4689 C 0.33962 0.35897 0.05375 0.0
C4690 C 0.3269 0.35911 0.03713 0.0
C4691 C 0.31089 0.37228 0.0359 0.0
H4692 H 0.3728 0.83107 0.03603 0.0
H4693 H 0.39027 0.81569 0.09328 0.0
H4694 H 0.34693 0.804 0.03578 0.0
H4695 H 0.36507 0.78907 0.093 0.0
H4696 H 0.318 0.73533 0.09403 0.0
H4697 H 0.3428 0.76235 0.09263 0.0
H4698 H 0.31993 0.77768 0.03732 0.0
H4699 H 0.29474 0.75016 0.0388 0.0
C4700 C 0.37156 0.82233 0.04885 0.0
C4701 C 0.38513 0.82735 0.0648 0.0
C4702 C 0.35606 0.80604 0.04872 0.0
C4703 C 0.35224 0.7926 0.06441 0.0
C4704 C 0.36594 0.79772 0.08013 0.0
C4705 C 0.38118 0.81388 0.08029 0.0
C4706 C 0.31768 0.7442 0.08131 0.0
C4707 C 0.30269 0.73897 0.06675 0.0
C4708 C 0.33268 0.76054 0.08046 0.0
C4709 C 0.33499 0.77407 0.06484 0.0
C4710 C 0.32006 0.76885 0.05007 0.0
C4711 C 0.30488 0.75237 0.05095 0.0
H4712 H 0.83411 0.39423 0.06325 0.0
H4713 H 0.80988 0.40981 1.00872 0.0
H4714 H 0.80907 0.36658 0.06473 0.0
H4715 H 0.78524 0.38257 1.01009 0.0
H4716 H 0.73805 0.32845 1.00941 0.0
H4717 H 0.76311 0.35532 1.00959 0.0
H4718 H 0.78202 0.34011 0.06644 0.0
H4719 H 0.75636 0.31286 0.06628 0.0
C4720 C 0.82376 0.3922 0.05125 0.0
C4721 C 0.82567 0.4059 0.03565 0.0
C4722 C 0.80866 0.3756 0.05213 0.0
C4723 C 0.7935 0.37045 0.03754 0.0
C4724 C 0.79553 0.38428 1.02213 0.0
C4725 C 0.81045 0.40076 1.02129 0.0
C4726 C 0.7473 0.33025 1.02228 0.0
C4727 C 0.7436 0.3166 0.0377 0.0
C4728 C 0.76245 0.34656 1.0224 0.0
C4729 C 0.77634 0.35173 0.03798 0.0
C4730 C 0.77276 0.33811 0.05358 0.0
C4731 C 0.75737 0.32168 0.05351 0.0
H4732 H 0.7927 0.73271 0.05523 0.0
H4733 H 0.83704 0.77825 0.04537 0.0
H4734 H 0.76707 0.75616 0.05233 0.0
H4735 H 0.81109 0.80234 0.04316 0.0
H4736 H 0.75669 0.84512 0.05841 0.0
H4737 H 0.78383 0.82243 0.06071 0.0
H4738 H 0.74851 0.77631 0.03047 0.0
H4739 H 0.72196 0.79894 0.02764 0.0
C4740 C 0.79728 0.7477 0.05225 0.0
C4741 C 0.81768 0.75272 0.05022 0.0
C4742 C 0.78217 0.76153 0.05058 0.0
C4743 C 0.78618 0.78186 0.0474 0.0
C4744 C 0.80667 0.78714 0.04564 0.0
C4745 C 0.82186 0.77302 0.04673 0.0
C4746 C 0.75454 0.83016 0.0522 0.0
C4747 C 0.73639 0.82449 0.04275 0.0
C4748 C 0.77045 0.81691 0.05342 0.0
C4749 C 0.76916 0.79686 0.04581 0.0
C4750 C 0.75083 0.79122 0.03675 0.0
C4751 C 0.73525 0.80454 0.03505 0.0
H4752 H 0.6015 0.81367 0.87327 0.0
H4753 H 0.54401 0.828 0.89394 0.0
H4754 H 0.59952 0.83849 0.84816 0.0
H4755 H 0.542 0.85227 0.86964 0.0
H4756 H 0.53729 0.90103 0.82563 0.0
H4757 H 0.5407 0.87639 0.84965 0.0
H4758 H 0.59573 0.86059 0.82332 0.0
H4759 H 0.59211 0.88577 0.799 0.0
C4760 C 0.5883 0.82185 0.87273 0.0
C4761 C 0.57297 0.8178 0.88662 0.0
C4762 C 0.58708 0.83658 0.85792 0.0
C4763 C 0.57049 0.84865 0.85572 0.0
C4764 C 0.55535 0.84436 0.8697 0.0
C4765 C 0.55653 0.82978 0.88425 0.0
C4766 C 0.5503 0.89248 0.82463 0.0
C4767 C 0.56426 0.89641 0.80945 0.0
C4768 C 0.55235 0.87771 0.83893 0.0
C4769 C 0.56864 0.86518 0.83959 0.0
C4770 C 0.58276 0.86914 0.82435 0.0
C4771 C 0.58065 0.88404 0.80992 0.0
H4772 H 0.25415 0.60046 0.82809 0.0
H4773 H 0.25643 0.53934 0.80933 0.0
H4774 H 0.27976 0.59654 0.85252 0.0
H4775 H 0.28194 0.53523 0.83413 0.0
H4776 H 0.32363 0.52673 0.88927 0.0
H4777 H 0.29872 0.5309 0.86431 0.0
H4778 H 0.31064 0.59363 0.86908 0.0
H4779 H 0.33601 0.58931 0.89405 0.0
C4780 C 0.25989 0.58593 0.82885 0.0
C4781 C 0.25203 0.57045 0.81545 0.0
C4782 C 0.27522 0.58361 0.84342 0.0
C4783 C 0.28431 0.56539 0.84664 0.0
C4784 C 0.27631 0.54979 0.83332 0.0
C4785 C 0.26116 0.5522 0.81845 0.0
C4786 C 0.32145 0.54164 0.88515 0.0
C4787 C 0.33335 0.55741 0.89469 0.0
C4788 C 0.30654 0.54412 0.87023 0.0
C4789 C 0.30135 0.56278 0.86326 0.0
C4790 C 0.31308 0.57871 0.87298 0.0
C4791 C 0.32831 0.57617 0.88776 0.0
H4792 H 0.59109 0.24428 0.80521 0.0
H4793 H 0.53429 0.24582 0.77894 0.0
H4794 H 0.58235 0.27008 0.82982 0.0
H4795 H 0.52529 0.27161 0.80388 0.0
H4796 H 0.50686 0.31605 0.85826 0.0
H4797 H 0.51529 0.2904 0.83314 0.0
H4798 H 0.57626 0.30022 0.84768 0.0
H4799 H 0.56777 0.32608 0.87254 0.0
C4800 C 0.57658 0.24996 0.80425 0.0
C4801 C 0.56397 0.24183 0.78866 0.0
C4802 C 0.57134 0.2654 0.81898 0.0
C4803 C 0.55267 0.27446 0.8202 0.0
C4804 C 0.53988 0.26613 0.80472 0.0
C4805 C 0.54525 0.25081 0.78975 0.0
C4806 C 0.52224 0.31315 0.85633 0.0
C4807 C 0.53622 0.32459 0.86857 0.0
C4808 C 0.52729 0.29782 0.84132 0.0
C4809 C 0.54693 0.29182 0.83695 0.0
C4810 C 0.56087 0.30316 0.8494 0.0
C4811 C 0.55584 0.31869 0.86422 0.0
H4812 H 0.83104 0.54942 0.86451 0.0
H4813 H 0.83416 0.61136 0.85439 0.0
H4814 H 0.85538 0.54378 0.83847 0.0
H4815 H 0.85859 0.60591 0.8284 0.0
H4816 H 0.9017 0.59313 0.77451 0.0
H4817 H 0.87681 0.59924 0.80024 0.0
H4818 H 0.88239 0.54036 0.81934 0.0
H4819 H 0.90681 0.53443 0.79383 0.0
C4820 C 0.83673 0.56207 0.85687 0.0
C4821 C 0.82963 0.58102 0.86248 0.0
C4822 C 0.85126 0.55881 0.84146 0.0
C4823 C 0.86012 0.57417 0.83011 0.0
C4824 C 0.8529 0.59312 0.83579 0.0
C4825 C 0.83843 0.59637 0.85122 0.0
C4826 C 0.89764 0.58126 0.78397 0.0
C4827 C 0.90703 0.56297 0.78095 0.0
C4828 C 0.883 0.58486 0.79932 0.0
C4829 C 0.87636 0.57049 0.81301 0.0
C4830 C 0.88591 0.5523 0.80984 0.0
C4831 C 0.90049 0.54877 0.79467 0.0
H4832 H 0.53861 0.26077 0.30404 0.0
H4833 H 0.59508 0.24708 0.2803 0.0
H4834 H 0.53571 0.2861 0.27978 0.0
H4835 H 0.59239 0.27193 0.25626 0.0
H4836 H 0.58959 0.32024 0.21138 0.0
H4837 H 0.59113 0.29571 0.23565 0.0
H4838 H 0.53292 0.30882 0.25558 0.0
H4839 H 0.53146 0.33381 0.23063 0.0
C4840 C 0.55061 0.26293 0.29378 0.0
C4841 C 0.56723 0.25098 0.29507 0.0
C4842 C 0.54893 0.27791 0.27938 0.0
C4843 C 0.56371 0.28236 0.26491 0.0
C4844 C 0.58023 0.27021 0.26635 0.0
C4845 C 0.58188 0.25534 0.28066 0.0
C4846 C 0.57688 0.31829 0.22082 0.0
C4847 C 0.56044 0.33017 0.21814 0.0
C4848 C 0.57776 0.30356 0.2353 0.0
C4849 C 0.56226 0.29901 0.24882 0.0
C4850 C 0.54564 0.31094 0.24623 0.0
C4851 C 0.54474 0.3258 0.23152 0.0
H4852 H 0.78218 0.56243 0.2231 0.0
H4853 H 0.81885 0.60884 0.19985 0.0
H4854 H 0.8073 0.55795 0.24828 0.0
H4855 H 0.84372 0.60437 0.22446 0.0
H4856 H 0.8934 0.59553 0.27112 0.0
H4857 H 0.8681 0.59935 0.24631 0.0
H4858 H 0.83086 0.5555 0.27329 0.0
H4859 H 0.85657 0.55143 0.29777 0.0
C4860 C 0.79543 0.57187 0.22296 0.0
C4861 C 0.79718 0.5863 0.20825 0.0
C4862 C 0.81045 0.56926 0.23796 0.0
C4863 C 0.82895 0.58062 0.23981 0.0
C4864 C 0.83058 0.59482 0.22491 0.0
C4865 C 0.81563 0.59751 0.21016 0.0
C4866 C 0.87985 0.58664 0.27218 0.0
C4867 C 0.87809 0.5732 0.28774 0.0
C4868 C 0.86471 0.58884 0.25736 0.0
C4869 C 0.84595 0.57799 0.25646 0.0
C4870 C 0.84426 0.56457 0.27216 0.0
C4871 C 0.85953 0.56218 0.28682 0.0
H4872 H 0.62097 0.83245 0.24412 0.0
H4873 H 0.56001 0.81935 0.23191 0.0
H4874 H 0.61214 0.85828 0.26889 0.0
H4875 H 0.55111 0.8454 0.25641 0.0
H4876 H 0.53504 0.90156 0.29842 0.0
H4877 H 0.54408 0.87556 0.27407 0.0
H4878 H 0.6023 0.87751 0.29786 0.0
H4879 H 0.59303 0.90342 0.3225 0.0
C4880 C 0.60549 0.8347 0.24644 0.0
C4881 C 0.59166 0.82233 0.23486 0.0
C4882 C 0.6002 0.85015 0.26125 0.0
C4883 C 0.58041 0.85539 0.26608 0.0
C4884 C 0.56659 0.84311 0.2543 0.0
C4885 C 0.57188 0.82747 0.23969 0.0
C4886 C 0.54989 0.89663 0.29893 0.0
C4887 C 0.56274 0.90577 0.31384 0.0
C4888 C 0.55531 0.88107 0.28436 0.0
C4889 C 0.57441 0.87289 0.28263 0.0
C4890 C 0.58739 0.88224 0.29743 0.0
C4891 C 0.58186 0.89766 0.31223 0.0
H4892 H 0.29496 0.53308 0.25306 0.0
H4893 H 0.29719 0.59473 0.24181 0.0
H4894 H 0.27025 0.53863 0.27882 0.0
H4895 H 0.27259 0.60048 0.26762 0.0
H4896 H 0.22148 0.61033 0.31296 0.0
H4897 H 0.24609 0.60432 0.28754 0.0
H4898 H 0.25093 0.54524 0.30628 0.0
H4899 H 0.22597 0.55145 0.3319 0.0
C4900 C 0.29045 0.54803 0.25593 0.0
C4901 C 0.29914 0.56326 0.24442 0.0
C4902 C 0.27579 0.55136 0.27124 0.0
C4903 C 0.26823 0.57027 0.27659 0.0
C4904 C 0.27697 0.58549 0.26496 0.0
C4905 C 0.29166 0.58215 0.24966 0.0
C4906 C 0.22766 0.59592 0.31203 0.0
C4907 C 0.22085 0.5817 0.32564 0.0
C4908 C 0.24235 0.59233 0.29691 0.0
C4909 C 0.2518 0.57405 0.29363 0.0
C4910 C 0.24489 0.55969 0.30723 0.0
C4911 C 0.23016 0.56334 0.32252 0.0
H4912 H 0.80819 0.87471 0.52447 0.0
H4913 H 0.81716 0.89657 0.58395 0.0
H4914 H 0.83532 0.85293 0.52695 0.0
H4915 H 0.84404 0.87432 0.58707 0.0
H4916 H 0.89477 0.83102 0.59262 0.0
H4917 H 0.86795 0.85314 0.5899 0.0
H4918 H 0.86148 0.83445 0.52878 0.0
H4919 H 0.88852 0.81251 0.53168 0.0
C4920 C 0.81623 0.87546 0.53808 0.0
C4921 C 0.81027 0.8889 0.55348 0.0
C4922 C 0.83211 0.86231 0.53975 0.0
C4923 C 0.84338 0.86107 0.55725 0.0
C4924 C 0.83682 0.87406 0.573 0.0
C4925 C 0.8209 0.88727 0.57122 0.0
C4926 C 0.88776 0.83139 0.57845 0.0
C4927 C 0.89465 0.81901 0.56253 0.0
C4928 C 0.87183 0.84452 0.5768 0.0
C4929 C 0.86119 0.84651 0.55903 0.0
C4930 C 0.86824 0.83414 0.54304 0.0
C4931 C 0.88426 0.82105 0.54471 0.0
H4932 H 0.88898 0.3163 0.59521 0.0
H4933 H 0.86942 0.33317 0.5392 0.0
H4934 H 0.86412 0.28929 0.59488 0.0
H4935 H 0.84395 0.30575 0.5389 0.0
H4936 H 0.79261 0.2511 0.5417 0.0
H4937 H 0.81748 0.2789 0.54032 0.0
H4938 H 0.84187 0.2624 0.59453 0.0
H4939 H 0.81735 0.23506 0.59583 0.0
C4940 C 0.87948 0.31475 0.58251 0.0
C4941 C 0.88273 0.32878 0.56738 0.0
C4942 C 0.86446 0.29837 0.58231 0.0
C4943 C 0.85029 0.29353 0.56692 0.0
C4944 C 0.85346 0.30751 0.55158 0.0
C4945 C 0.86872 0.32402 0.55174 0.0
C4946 C 0.80303 0.25309 0.55363 0.0
C4947 C 0.80133 0.23926 0.56911 0.0
C4948 C 0.81802 0.26975 0.5528 0.0
C4949 C 0.83326 0.27477 0.5673 0.0
C4950 C 0.83146 0.26079 0.58259 0.0
C4951 C 0.81663 0.24427 0.58339 0.0
H4952 H 0.25688 0.81378 0.56898 0.0
H4953 H 0.23804 0.82894 0.51213 0.0
H4954 H 0.28227 0.84128 0.56884 0.0
H4955 H 0.26278 0.856 0.51205 0.0
H4956 H 0.3093 0.91053 0.51022 0.0
H4957 H 0.28495 0.88308 0.51195 0.0
H4958 H 0.30871 0.8684 0.56707 0.0
H4959 H 0.33344 0.89629 0.56523 0.0
C4960 C 0.25769 0.82256 0.55617 0.0
C4961 C 0.24385 0.81728 0.54047 0.0
C4962 C 0.27293 0.83913 0.55607 0.0
C4963 C 0.27626 0.85271 0.54037 0.0
C4964 C 0.26231 0.84732 0.52491 0.0
C4965 C 0.24733 0.83088 0.52497 0.0
C4966 C 0.3099 0.90175 0.52298 0.0
C4967 C 0.32498 0.90735 0.53737 0.0
C4968 C 0.29516 0.88514 0.52403 0.0
C4969 C 0.29322 0.87158 0.5397 0.0
C4970 C 0.30825 0.87718 0.5543 0.0
C4971 C 0.32315 0.89393 0.55322 0.0
H4972 H 0.2349 0.32864 0.5811 0.0
H4973 H 0.24374 0.32911 0.51887 0.0
H4974 H 0.26272 0.30696 0.58358 0.0
H4975 H 0.2705 0.30662 0.52092 0.0
H4976 H 0.31371 0.25473 0.52567 0.0
H4977 H 0.28644 0.27682 0.52377 0.0
H4978 H 0.29636 0.2971 0.58387 0.0
H4979 H 0.32399 0.27523 0.5854 0.0
C4980 C 0.24237 0.32406 0.56769 0.0
C4981 C 0.2355 0.33071 0.54951 0.0
C4982 C 0.25883 0.31128 0.56912 0.0
C4983 C 0.26978 0.30384 0.55247 0.0
C4984 C 0.26302 0.31085 0.53443 0.0
C4985 C 0.24695 0.32391 0.53312 0.0
C4986 C 0.3102 0.26364 0.53872 0.0
C4987 C 0.32138 0.26162 0.5561 0.0
C4988 C 0.29415 0.27683 0.53759 0.0
C4989 C 0.28781 0.28941 0.55372 0.0
C4990 C 0.29953 0.28791 0.57089 0.0
C4991 C 0.31577 0.2749 0.57188 0.0
H4992 H 0.16423 0.18749 0.44089 0.0
H4993 H 0.15658 0.17371 0.37909 0.0
H4994 H 0.19372 0.16844 0.44072 0.0
H4995 H 0.18513 0.15349 0.37884 0.0
H4996 H 0.23369 0.11542 0.44045 0.0
H4997 H 0.20637 0.13764 0.44066 0.0
H4998 H 0.21728 0.14742 0.37931 0.0
H4999 H 0.24349 0.12455 0.3791 0.0
C5000 C 0.16927 0.18099 0.42706 0.0
C5001 C 0.15837 0.18302 0.40983 0.0
C5002 C 0.18601 0.16943 0.42702 0.0
C5003 C 0.19222 0.15886 0.40981 0.0
C5004 C 0.1815 0.16143 0.39245 0.0
C5005 C 0.16499 0.17326 0.39248 0.0
C5006 C 0.23007 0.12218 0.42698 0.0
C5007 C 0.24111 0.11819 0.4098 0.0
C5008 C 0.21445 0.13527 0.4271 0.0
C5009 C 0.20919 0.14485 0.41 0.0
C5010 C 0.22021 0.14046 0.39283 0.0
C5011 C 0.23564 0.12738 0.39274 0.0
H5012 H 0.05601 0.2135 0.45238 0.0
H5013 H 1.02053 0.23883 0.40907 0.0
H5014 H 0.03352 0.18427 0.45193 0.0
H5015 H 0.99721 0.21001 0.40959 0.0
H5016 H 0.95176 0.15942 0.4365 0.0
H5017 H 0.97227 0.19037 0.43451 0.0
H5018 H 0.02369 0.15649 0.42568 0.0
H5019 H 1.00353 0.12608 0.42663 0.0
C5020 C 0.04331 0.21302 0.44288 0.0
C5021 C 0.04001 0.22902 0.43113 0.0
C5022 C 0.03029 0.19617 0.44267 0.0
C5023 C 1.01323 0.1947 0.43093 0.0
C5024 C 1.00991 0.21064 0.41911 0.0
C5025 C 0.02328 0.22729 0.4189 0.0
C5026 C 0.96736 0.15855 0.43371 0.0
C5027 C 0.97583 0.13992 0.43217 0.0
C5028 C 0.9792 0.17636 0.43269 0.0
C5029 C 0.99986 0.17608 0.43037 0.0
C5030 C 1.00802 0.15749 0.42795 0.0
C5031 C 0.9963 0.13991 0.42855 0.0
H5032 H 0.99916 0.93434 0.45346 0.0
H5033 H 0.97212 0.91517 0.3987 0.0
H5034 H 0.97764 0.96258 0.45607 0.0
H5035 H 0.95043 0.9424 0.40133 0.0
H5036 H 0.90492 0.99063 0.40848 0.0
H5037 H 0.92683 0.96338 0.4069 0.0
H5038 H 0.96085 0.99156 0.45444 0.0
H5039 H 0.93833 1.01888 0.45609 0.0
C5040 C 0.98865 0.93581 0.44185 0.0
C5041 C 0.98773 0.92119 0.42596 0.0
C5042 C 0.97589 0.95245 0.44336 0.0
C5043 C 0.96112 0.95588 0.42913 0.0
C5044 C 0.96063 0.94128 0.41322 0.0
C5045 C 0.97339 0.92493 0.41169 0.0
C5046 C 0.91708 0.99137 0.41866 0.0
C5047 C 0.91902 1.00787 0.43246 0.0
C5048 C 0.93018 0.97524 0.41772 0.0
C5049 C 0.94669 0.97405 0.43043 0.0
C5050 C 0.94883 0.9908 0.44412 0.0
C5051 C 0.93567 1.00705 0.445 0.0
H5052 H 0.19987 1.00719 0.40422 0.0
H5053 H 0.16658 0.04001 0.36451 0.0
H5054 H 0.17332 0.98142 0.40387 0.0
H5055 H 0.13983 1.01579 0.36552 0.0
H5056 H 0.09504 0.96829 0.36006 0.0
H5057 H 0.12667 0.98579 0.35608 0.0
H5058 H 0.14172 0.97404 0.41583 0.0
H5059 H 0.11042 0.95514 0.41898 0.0
C5060 C 0.18698 1.00889 0.39537 0.0
C5061 C 0.18526 0.02592 0.38471 0.0
C5062 C 0.1716 0.99423 0.39535 0.0
C5063 C 0.15417 0.99635 0.38473 0.0
C5064 C 0.15296 1.01313 0.37361 0.0
C5065 C 0.1683 0.02741 0.37336 0.0
C5066 C 0.10535 0.96915 0.37214 0.0
C5067 C 0.10031 0.96064 0.38986 0.0
C5068 C 0.12344 0.97941 0.37003 0.0
C5069 C 0.13672 0.98206 0.38586 0.0
C5070 C 0.13204 0.97244 0.40327 0.0
C5071 C 0.11405 0.96169 0.40518 0.0
H5072 H 0.1456 1.00822 0.70165 0.0
H5073 H 0.16476 0.99316 0.64272 0.0
H5074 H 0.12398 0.97839 0.70114 0.0
H5075 H 0.14333 0.96292 0.64211 0.0
H5076 H 0.08531 0.92352 0.63924 0.0
H5077 H 0.10894 0.95209 0.64012 0.0
H5078 H 0.12044 0.94344 0.70121 0.0
H5079 H 0.09677 0.91523 0.70022 0.0
C5080 C 0.14571 0.99812 0.68881 0.0
C5081 C 0.15737 1.0029 0.67245 0.0
C5082 C 0.13315 0.98096 0.68841 0.0
C5083 C 0.13157 0.968 0.67151 0.0
C5084 C 0.14376 0.97252 0.65533 0.0
C5085 C 0.15639 0.98971 0.65577 0.0
C5086 C 0.09272 0.92791 0.6529 0.0
C5087 C 0.08906 0.917 0.66966 0.0
C5088 C 0.10655 0.94419 0.65338 0.0
C5089 C 0.11692 0.95032 0.67074 0.0
C5090 C 0.1128 0.93955 0.68757 0.0
C5091 C 0.09919 0.92322 0.68701 0.0
H5092 H 0.1553 0.22493 0.70819 0.0
H5093 H 0.13385 0.21003 0.65005 0.0
H5094 H 0.17623 0.19697 0.70615 0.0
H5095 H 0.15454 0.18111 0.64798 0.0
H5096 H 0.19101 0.12301 0.64886 0.0
H5097 H 0.16871 0.1505 0.65068 0.0
H5098 H 0.20043 0.17612 0.70093 0.0
H5099 H 0.22246 0.14885 0.69891 0.0
C5100 C 0.15509 0.21593 0.69463 0.0
C5101 C 0.14254 0.22107 0.67924 0.0
C5102 C 0.1674 0.1992 0.69343 0.0
C5103 C 0.16812 0.18554 0.67678 0.0
C5104 C 0.15517 0.1904 0.66138 0.0
C5105 C 0.14291 0.20744 0.66255 0.0
C5106 C 0.19326 0.13431 0.66055 0.0
C5107 C 0.20957 0.13301 0.67342 0.0
C5108 C 0.18022 0.15067 0.66154 0.0
C5109 C 0.18199 0.16692 0.67584 0.0
C5110 C 0.1976 0.16479 0.68943 0.0
C5111 C 0.21073 0.14864 0.68827 0.0
H5112 H 1.02164 0.1921 0.6869 0.0
H5113 H 0.03517 0.17958 0.74647 0.0
H5114 H 0.98962 0.17456 0.68978 0.0
H5115 H 1.00278 0.16356 0.75021 0.0
H5116 H 0.96126 0.11005 0.74084 0.0
H5117 H 0.98827 0.13414 0.74152 0.0
H5118 H 0.9577 0.16856 0.70077 0.0
H5119 H 0.93094 0.14293 0.69897 0.0
C5120 C 1.01747 0.18597 0.70077 0.0
C5121 C 0.03087 0.18679 0.71636 0.0
C5122 C 0.99903 0.17605 0.70254 0.0
C5123 C 0.99353 0.16707 0.72011 0.0
C5124 C 1.00658 0.16946 0.73616 0.0
C5125 C 0.02512 0.17886 0.73418 0.0
C5126 C 0.96018 0.12285 0.73213 0.0
C5127 C 0.94415 0.12435 0.71952 0.0
C5128 C 0.97568 0.13697 0.7327 0.0
C5129 C 0.9755 0.15353 0.72112 0.0
C5130 C 0.95868 0.15585 0.70959 0.0
C5131 C 0.94316 0.14135 0.70875 0.0
H5132 H 0.96489 0.9486 0.66628 0.0
H5133 H 0.98209 0.97552 0.72248 0.0
H5134 H 0.93567 0.96844 0.66659 0.0
H5135 H 0.95381 0.99586 0.72266 0.0
H5136 H 0.8963 1.02252 0.66326 0.0
H5137 H 0.92357 1.00002 0.66271 0.0
H5138 H 0.92134 1.0002 0.72611 0.0
H5139 H 0.89509 1.02293 0.72644 0.0
C5140 C 0.96214 0.95833 0.67897 0.0
C5141 C 0.97566 0.96001 0.69461 0.0
C5142 C 0.94554 0.97012 0.67901 0.0
C5143 C 0.94204 0.98416 0.69459 0.0
C5144 C 0.95536 0.98519 0.71047 0.0
C5145 C 0.97175 0.97337 0.71046 0.0
C5146 C 0.90193 1.01796 0.67704 0.0
C5147 C 0.89343 1.02467 0.69491 0.0
C5148 C 0.91745 1.00475 0.67678 0.0
C5149 C 0.92507 0.99799 0.69439 0.0
C5150 C 0.91656 1.0051 0.71215 0.0
C5151 C 0.90119 1.01815 0.71238 0.0
H5152 H 0.47018 0.14894 0.15662 0.0
H5153 H 0.41184 0.13644 0.13404 0.0
H5154 H 0.47213 0.18019 0.13991 0.0
H5155 H 0.41378 0.16697 0.11686 0.0
H5156 H 0.41589 0.22894 0.09629 0.0
H5157 H 0.41383 0.20065 0.1166 0.0
H5158 H 0.47617 0.19386 0.10883 0.0
H5159 H 0.47823 0.22344 0.08946 0.0
C5160 C 0.45755 0.15315 0.14854 0.0
C5161 C 0.44067 0.14037 0.14705 0.0
C5162 C 0.45878 0.17092 0.13856 0.0
C5163 C 0.44321 0.17637 0.12668 0.0
C5164 C 0.42606 0.16379 0.12595 0.0
C5165 C 0.42486 0.14616 0.13591 0.0
C5166 C 0.42923 0.2216 0.0991 0.0
C5167 C 0.44728 0.22878 0.09147 0.0
C5168 C 0.42803 0.20503 0.11061 0.0
C5169 C 0.44482 0.19461 0.11466 0.0
C5170 C 0.46289 0.20153 0.10653 0.0
C5171 C 0.46409 0.21835 0.0951 0.0
H5172 H 1.00177 0.41801 0.22285 0.0
H5173 H 0.04252 0.46093 0.19888 0.0
H5174 H 0.98024 0.41991 0.19448 0.0
H5175 H 1.02179 0.46156 0.16961 0.0
H5176 H 0.99255 0.43956 0.11084 0.0
H5177 H 1.01109 0.43796 0.14095 0.0
H5178 H 0.95797 0.4435 0.1749 0.0
H5179 H 0.93914 0.44619 0.14424 0.0
C5180 C 1.00609 0.42818 0.21179 0.0
C5181 C 0.02385 0.43982 0.21394 0.0
C5182 C 0.99369 0.42909 0.19521 0.0
C5183 C 0.99892 0.44098 0.17943 0.0
C5184 C 1.01699 0.4522 0.18128 0.0
C5185 C 0.02903 0.4518 0.1982 0.0
C5186 C 0.98455 0.44051 0.12462 0.0
C5187 C 0.96407 0.44339 0.12461 0.0
C5188 C 0.9954 0.43965 0.1421 0.0
C5189 C 0.98641 0.441 0.16074 0.0
C5190 C 0.96567 0.44254 0.16095 0.0
C5191 C 0.95473 0.4439 0.14324 0.0
H5192 H 0.73607 1.02264 0.17889 0.0
H5193 H 0.79745 1.00874 0.17953 0.0
H5194 H 0.73252 1.00616 0.14667 0.0
H5195 H 0.79308 0.99083 0.14746 0.0
H5196 H 0.74034 0.94035 0.11188 0.0
H5197 H 0.75425 0.95841 0.1407 0.0
H5198 H 0.76177 1.01091 0.10801 0.0
H5199 H 0.74894 0.99268 0.07853 0.0
C5200 C 0.74899 1.01653 0.1721 0.0
C5201 C 0.76726 1.01748 0.18184 0.0
C5202 C 0.74679 1.00689 0.15369 0.0
C5203 C 0.76259 0.99754 0.14476 0.0
C5204 C 0.78081 0.99821 0.1542 0.0
C5205 C 0.78319 1.00828 0.17257 0.0
C5206 C 0.74573 0.95547 0.11042 0.0
C5207 C 0.7434 0.96509 0.09281 0.0
C5208 C 0.75363 0.96577 0.127 0.0
C5209 C 0.75912 0.98585 0.12632 0.0
C5210 C 0.75778 0.9953 0.10864 0.0
C5211 C 0.7502 0.98493 0.09192 0.0
H5212 H 0.15374 0.6771 0.21486 0.0
H5213 H 0.11077 0.6916 0.17296 0.0
H5214 H 0.17892 0.67705 0.18951 0.0
H5215 H 0.13612 0.69128 0.147 0.0
H5216 H 0.18684 0.69063 0.09793 0.0
H5217 H 0.16053 0.69117 0.12297 0.0
H5218 H 0.20201 0.67626 0.16648 0.0
H5219 H 0.2276 0.67541 0.14168 0.0
C5220 C 0.14932 0.68031 0.20021 0.0
C5221 C 0.12924 0.68438 0.19703 0.0
C5222 C 0.16431 0.68026 0.18502 0.0
C5223 C 0.16084 0.68411 0.16487 0.0
C5224 C 0.14062 0.68816 0.16164 0.0
C5225 C 0.12556 0.68835 0.177 0.0
C5226 C 0.19058 0.68746 0.11281 0.0
C5227 C 0.21046 0.68309 0.11682 0.0
C5228 C 0.17502 0.68776 0.12769 0.0
C5229 C 0.17786 0.68383 0.14802 0.0
C5230 C 0.19782 0.67951 0.15179 0.0
C5231 C 0.21317 0.67907 0.13699 0.0
H5232 H 0.42829 0.05018 0.90498 0.0
H5233 H 0.43435 0.99802 0.86741 0.0
H5234 H 0.42711 0.03011 0.93355 0.0
H5235 H 0.4321 0.97762 0.89551 0.0
H5236 H 0.43761 0.94153 0.95139 0.0
H5237 H 0.43768 0.96082 0.92197 0.0
H5238 H 0.41783 1.01089 0.95708 0.0
H5239 H 0.41823 0.99172 0.98596 0.0
C5240 C 0.42919 0.03436 0.9026 0.0
C5241 C 0.4313 0.02618 0.8832 0.0
C5242 C 0.42833 1.02244 0.91934 0.0
C5243 C 0.42925 1.00142 0.91784 0.0
C5244 C 0.43141 0.99338 0.8983 0.0
C5245 C 0.43257 1.00535 0.88167 0.0
C5246 C 0.43279 0.9565 0.95278 0.0
C5247 C 0.42766 0.96458 0.9716 0.0
C5248 C 0.43299 0.96797 0.93562 0.0
C5249 C 0.42811 0.98827 0.93621 0.0
C5250 C 0.42227 0.99586 0.95505 0.0
C5251 C 0.42215 0.9845 0.97203 0.0
H5252 H 0.20519 0.41012 1.02296 0.0
H5253 H 0.22167 0.46536 0.99736 0.0
H5254 H 0.17576 0.40699 1.0029 0.0
H5255 H 0.19165 0.4629 0.97797 0.0
H5256 H 0.11442 0.417 0.98147 0.0
H5257 H 0.14517 0.41782 0.99895 0.0
H5258 H 0.17383 0.44827 0.95162 0.0
H5259 H 0.14227 0.44858 0.93467 0.0
C5260 C 0.20231 0.42184 1.01333 0.0
C5261 C 0.21575 0.43806 1.01191 0.0
C5262 C 0.18533 0.42008 1.00174 0.0
C5263 C 0.18101 0.43471 0.98865 0.0
C5264 C 0.19444 0.45109 0.98748 0.0
C5265 C 0.21158 0.45268 0.99887 0.0
C5266 C 0.12726 0.42392 0.97475 0.0
C5267 C 0.1257 0.43306 0.95682 0.0
C5268 C 0.14512 0.42417 0.98472 0.0
C5269 C 0.16227 0.43327 0.97697 0.0
C5270 C 0.16096 0.4415 0.95841 0.0
C5271 C 0.1429 0.44142 0.94848 0.0
H5272 H 0.71792 0.21849 0.9892 0.0
H5273 H 0.65614 0.21442 1.00197 0.0
H5274 H 0.71366 0.19128 0.96404 0.0
H5275 H 0.65168 0.18761 0.97624 0.0
H5276 H 0.64698 0.15121 0.91398 0.0
H5277 H 0.65118 0.17741 0.94015 0.0
H5278 H 0.70683 0.15511 0.95499 0.0
H5279 H 0.70223 0.12841 0.92917 0.0
C5280 C 0.70332 0.21179 0.98694 0.0
C5281 C 0.68757 0.21921 0.99856 0.0
C5282 C 0.70081 0.19583 0.97216 0.0
C5283 C 0.68221 0.18635 0.96733 0.0
C5284 C 0.66638 0.19391 0.97885 0.0
C5285 C 0.669 0.2095 0.99407 0.0
C5286 C 0.66009 0.15151 0.9229 0.0
C5287 C 0.67394 0.1367 0.91899 0.0
C5288 C 0.66255 0.16688 0.93826 0.0
C5289 C 0.67941 0.16914 0.9506 0.0
C5290 C 0.69351 0.15456 0.94639 0.0
C5291 C 0.69076 0.1388 0.93137 0.0
H5292 H 1.00722 0.80344 0.92416 0.0
H5293 H 1.00895 0.73998 0.92688 0.0
H5294 H 0.98574 0.80437 0.95268 0.0
H5295 H 0.98933 0.74126 0.95651 0.0
H5296 H 0.93054 0.74644 0.98824 0.0
H5297 H 0.95614 0.74512 0.96342 0.0
H5298 H 0.9812 0.80134 0.98654 0.0
H5299 H 0.95503 0.80285 1.01114 0.0
C5300 C 1.0033 0.78973 0.93095 0.0
C5301 C 1.0097 0.77166 0.92291 0.0
C5302 C 0.99124 0.7903 0.94759 0.0
C5303 C 0.98559 0.77285 0.95683 0.0
C5304 C 0.99299 0.75494 0.94952 0.0
C5305 C 1.00464 0.7543 0.93264 0.0
C5306 C 0.94164 0.75843 0.98815 0.0
C5307 C 0.94077 0.77481 1.00159 0.0
C5308 C 0.95643 0.75762 0.97398 0.0
C5309 C 0.97083 0.77312 0.97296 0.0
C5310 C 0.97018 0.78931 0.98669 0.0
C5311 C 0.95522 0.7902 1.00078 0.0
H5312 H 0.18314 0.33057 0.10251 0.0
H5313 H 0.17201 0.39117 0.09149 0.0
H5314 H 0.1576 0.33042 0.12708 0.0
H5315 H 0.14901 0.39222 0.11822 0.0
H5316 H 0.13671 0.34358 0.18893 0.0
H5317 H 0.15267 0.33866 0.15791 0.0
H5318 H 0.12229 0.38744 0.13564 0.0
H5319 H 0.10943 0.39472 0.16786 0.0
C5320 C 0.17528 0.3439 0.1053 0.0
C5321 C 0.18009 0.361 0.09522 0.0
C5322 C 0.16084 0.34402 0.11989 0.0
C5323 C 0.15148 0.36152 0.12555 0.0
C5324 C 0.15558 0.37831 0.11463 0.0
C5325 C 0.16935 0.3779 0.09945 0.0
C5326 C 0.13379 0.35366 0.17765 0.0
C5327 C 0.12233 0.37006 0.18155 0.0
C5328 C 0.14258 0.35044 0.15935 0.0
C5329 C 0.13938 0.36291 0.14392 0.0
C5330 C 0.12607 0.37799 0.14719 0.0
C5331 C 0.11812 0.38187 0.16583 0.0
H5332 H 0.16396 0.66666 0.96903 0.0
H5333 H 0.16951 0.73004 0.97563 0.0
H5334 H 0.14501 0.66874 0.93908 0.0
H5335 H 0.15005 0.73236 0.94568 0.0
H5336 H 0.12166 0.73105 0.88375 0.0
H5337 H 0.1438 0.72955 0.91168 0.0
H5338 H 0.11441 0.67459 0.92677 0.0
H5339 H 0.0929 0.67587 0.89837 0.0
C5340 C 0.16154 0.68115 0.96384 0.0
C5341 C 0.16878 0.69815 0.97489 0.0
C5342 C 0.15019 0.68239 0.94666 0.0
C5343 C 0.14526 0.70074 0.93963 0.0
C5344 C 0.15332 0.71783 0.95018 0.0
C5345 C 0.16477 0.71656 0.96746 0.0
C5346 C 0.11999 0.71853 0.89291 0.0
C5347 C 0.10545 0.70345 0.88834 0.0
C5348 C 0.1327 0.71774 0.90925 0.0
C5349 C 0.13143 0.70184 0.92193 0.0
C5350 C 0.11653 0.68697 0.91748 0.0
C5351 C 0.10383 0.68779 0.90115 0.0
H5352 H 0.3474 0.19123 1.00169 0.0
H5353 H 0.41042 0.18786 1.00673 0.0
H5354 H 0.34744 0.16673 0.97419 0.0
H5355 H 0.4104 0.16407 0.97891 0.0
H5356 H 0.40529 0.13043 0.92024 0.0
H5357 H 0.40321 0.15945 0.94278 0.0
H5358 H 0.35456 0.13072 0.9728 0.0
H5359 H 0.35627 0.10196 0.94995 0.0
C5360 C 0.36125 0.18542 0.99688 0.0
C5361 C 0.37886 0.19145 1.00651 0.0
C5362 C 0.36126 0.17152 0.98109 0.0
C5363 C 0.37891 0.16359 0.97452 0.0
C5364 C 0.39662 0.1702 0.98354 0.0
C5365 C 0.3966 0.18389 0.99947 0.0
C5366 C 0.39396 0.13048 0.93148 0.0
C5367 C 0.38102 0.11394 0.93355 0.0
C5368 C 0.39285 0.147 0.94438 0.0
C5369 C 0.37876 0.14722 0.95948 0.0
C5370 C 0.36543 0.13096 0.96113 0.0
C5371 C 0.36657 0.11443 0.94828 0.0
H5372 H 1.01773 0.44748 0.92751 0.0
H5373 H 0.97924 0.47512 0.88904 0.0
H5374 H 0.99229 0.44795 0.95329 0.0
H5375 H 0.9538 0.47539 0.91431 0.0
H5376 H 0.90522 0.47811 0.96278 0.0
H5377 H 0.93081 0.47703 0.93784 0.0
H5378 H 0.96753 0.44765 0.97699 0.0
H5379 H 0.94128 0.44851 1.00206 0.0
C5380 C 1.00393 0.45374 0.92419 0.0
C5381 C 1.00159 0.46126 0.90513 0.0
C5382 C 0.98877 0.454 0.93946 0.0
C5383 C 0.96968 0.46175 0.9372 0.0
C5384 C 0.96749 0.46919 0.91802 0.0
C5385 C 0.98263 0.46899 0.90288 0.0
C5386 C 0.91857 0.47119 0.96644 0.0
C5387 C 0.91998 0.46333 0.98544 0.0
C5388 C 0.93392 0.47059 0.95157 0.0
C5389 C 0.95259 0.46219 0.95407 0.0
C5390 C 0.95411 0.45439 0.97324 0.0
C5391 C 0.93857 0.45489 0.98817 0.0
H5392 H 0.6607 0.99289 0.94512 0.0
H5393 H 0.71763 1.00617 0.9709 0.0
H5394 H 0.65876 0.96099 0.96074 0.0
H5395 H 0.71581 0.97454 0.98657 0.0
H5396 H 0.65261 0.91851 1.01276 0.0
H5397 H 0.65482 0.94882 0.99444 0.0
H5398 H 0.71567 0.9389 0.98114 0.0
H5399 H 0.71347 0.90911 0.99966 0.0
C5400 C 0.67304 0.98873 0.95366 0.0
C5401 C 0.68952 1.00187 0.95642 0.0
C5402 C 0.67181 0.97059 0.9629 0.0
C5403 C 0.68706 0.96511 0.97511 0.0
C5404 C 0.70384 0.97802 0.97718 0.0
C5405 C 0.70498 0.99615 0.96809 0.0
C5406 C 0.66641 0.92285 1.00587 0.0
C5407 C 0.68274 0.91116 1.00735 0.0
C5408 C 0.66767 0.94014 0.99522 0.0
C5409 C 0.6854 0.94635 0.98605 0.0
C5410 C 0.70178 0.93474 0.98793 0.0
C5411 C 0.70045 0.91746 0.99839 0.0
H5412 H 0.98257 0.70547 0.1707 0.0
H5413 H 1.01434 0.70383 0.11556 0.0
H5414 H 0.95176 0.70851 0.15254 0.0
H5415 H 0.98375 0.70553 0.09782 0.0
H5416 H 0.92042 0.67723 0.07847 0.0
H5417 H 0.9508 0.6777 0.09783 0.0
H5418 H 0.93892 0.73558 0.1228 0.0
H5419 H 0.90965 0.73586 0.10226 0.0
C5420 C 0.9831 0.7059 0.15484 0.0
C5421 C 1.00102 0.70379 0.14465 0.0
C5422 C 0.96544 0.70749 0.14446 0.0
C5423 C 0.96539 0.70671 0.12374 0.0
C5424 C 0.98332 0.70568 0.11372 0.0
C5425 C 1.00085 0.70458 0.12399 0.0
C5426 C 0.92439 0.6901 0.08795 0.0
C5427 C 0.91216 0.70616 0.08942 0.0
C5428 C 0.94164 0.6903 0.09916 0.0
C5429 C 0.94685 0.70643 0.11227 0.0
C5430 C 0.93494 0.72271 0.11332 0.0
C5431 C 0.91806 0.72275 0.10168 0.0
H5432 H 0.42967 1.01411 0.17519 0.0
H5433 H 0.48449 0.98997 0.18978 0.0
H5434 H 0.42446 0.9878 0.14911 0.0
H5435 H 0.47968 0.96415 0.16338 0.0
H5436 H 0.47379 0.9278 0.10172 0.0
H5437 H 0.4789 0.95432 0.12761 0.0
H5438 H 0.41686 0.95224 0.13975 0.0
H5439 H 0.41193 0.9254 0.11433 0.0
C5440 C 0.44091 1.00349 0.17279 0.0
C5441 C 0.4578 1.00504 0.18502 0.0
C5442 C 0.43781 0.98798 0.15764 0.0
C5443 C 0.45161 0.97319 0.15325 0.0
C5444 C 0.46855 0.97491 0.16546 0.0
C5445 C 0.47136 0.99003 0.18093 0.0
C5446 C 0.46108 0.93302 0.10966 0.0
C5447 C 0.44228 0.92392 0.10515 0.0
C5448 C 0.46406 0.94841 0.12495 0.0
C5449 C 0.44841 0.95627 0.13647 0.0
C5450 C 0.42958 0.94739 0.1316 0.0
C5451 C 0.42669 0.93167 0.11671 0.0
H5452 H 0.69666 0.20206 0.15307 0.0
H5453 H 0.70912 0.15051 0.11655 0.0
H5454 H 0.69744 0.18213 0.18231 0.0
H5455 H 0.70967 0.13078 0.1452 0.0
H5456 H 0.69259 0.09243 0.19739 0.0
H5457 H 0.69291 0.1134 0.16912 0.0
H5458 H 0.71199 0.16369 0.20664 0.0
H5459 H 0.71181 0.14273 0.2345 0.0
C5460 C 0.7 0.18665 0.15111 0.0
C5461 C 0.70286 0.17834 0.13183 0.0
C5462 C 0.70028 0.17492 0.16811 0.0
C5463 C 0.7032 0.15418 0.16678 0.0
C5464 C 0.70677 0.14626 0.14753 0.0
C5465 C 0.7067 0.1579 0.13077 0.0
C5466 C 0.69688 0.10794 0.19975 0.0
C5467 C 0.70206 0.11542 0.21892 0.0
C5468 C 0.69719 0.12022 0.18325 0.0
C5469 C 0.70255 0.14083 0.18487 0.0
C5470 C 0.70752 0.14825 0.20411 0.0
C5471 C 0.70743 0.13594 0.22048 0.0
H5472 H 0.66599 0.69467 0.93976 0.0
H5473 H 0.65085 0.67124 0.88167 0.0
H5474 H 0.69474 0.67414 0.93954 0.0
H5475 H 0.67875 0.65029 0.88149 0.0
H5476 H 0.73309 0.61923 0.94163 0.0
H5477 H 0.70607 0.64198 0.94214 0.0
H5478 H 0.71143 0.64544 0.87921 0.0
H5479 H 0.73769 0.6227 0.87888 0.0
C5480 C 0.66913 0.68558 0.92668 0.0
C5481 C 0.65632 0.68514 0.91047 0.0
C5482 C 0.68545 0.67338 0.92668 0.0
C5483 C 0.68942 0.66012 0.91055 0.0
C5484 C 0.67682 0.66031 0.89416 0.0
C5485 C 0.66068 0.67251 0.89415 0.0
C5486 C 0.72823 0.62464 0.92789 0.0
C5487 C 0.73766 0.61888 0.91017 0.0
C5488 C 0.71283 0.63801 0.92817 0.0
C5489 C 0.70615 0.64591 0.91069 0.0
C5490 C 0.71548 0.63969 0.89304 0.0
C5491 C 0.73082 0.62653 0.89282 0.0
H5492 H 0.4834 0.63774 0.90067 0.0
H5493 H 0.4686 0.64963 0.96146 0.0
H5494 H 0.50498 0.66757 0.90124 0.0
H5495 H 0.48991 0.67992 0.96215 0.0
H5496 H 0.54682 0.72043 0.96344 0.0
H5497 H 0.52356 0.69161 0.96258 0.0
H5498 H 0.50944 0.70207 0.90246 0.0
H5499 H 0.53289 0.73045 0.90338 0.0
C5500 C 0.48421 0.64716 0.91401 0.0
C5501 C 0.47376 0.64146 0.93084 0.0
C5502 C 0.49676 0.66435 0.91442 0.0
C5503 C 0.49958 0.67646 0.93179 0.0
C5504 C 0.48858 0.67102 0.94852 0.0
C5505 C 0.47597 0.65379 0.94806 0.0
C5506 C 0.53891 0.71639 0.94998 0.0
C5507 C 0.54176 0.72792 0.93351 0.0
C5508 C 0.52528 0.69995 0.94952 0.0
C5509 C 0.51422 0.69423 0.93247 0.0
C5510 C 0.5176 0.70556 0.91586 0.0
C5511 C 0.53107 0.72203 0.91639 0.0
H5512 H 0.44 0.52158 0.95586 0.0
H5513 H 0.40823 0.49507 0.90629 0.0
H5514 H 0.46272 0.49443 0.95384 0.0
H5515 H 0.4306 0.46809 0.90415 0.0
H5516 H 0.47745 0.42135 0.89542 0.0
H5517 H 0.45595 0.4488 0.89796 0.0
H5518 H 0.4769 0.46367 0.95659 0.0
H5519 H 0.49825 0.43523 0.95399 0.0
C5520 C 0.43777 0.51019 0.94425 0.0
C5521 C 0.42133 0.51123 0.93149 0.0
C5522 C 0.45103 0.49406 0.94315 0.0
C5523 C 0.44934 0.47781 0.92887 0.0
C5524 C 0.43344 0.47954 0.91553 0.0
C5525 C 0.42011 0.49549 0.91678 0.0
C5526 C 0.47741 0.43002 0.90917 0.0
C5527 C 0.48996 0.42479 0.9245 0.0
C5528 C 0.46474 0.44642 0.91067 0.0
C5529 C 0.46362 0.4596 0.92762 0.0
C5530 C 0.47659 0.45469 0.94299 0.0
C5531 C 0.48922 0.43796 0.94151 0.0
H5532 H 0.6019 0.4592 0.85939 0.0
H5533 H 0.60613 0.46566 0.92245 0.0
H5534 H 0.63342 0.47745 0.85622 0.0
H5535 H 0.63741 0.48466 0.91955 0.0
H5536 H 0.69773 0.51381 0.90893 0.0
H5537 H 0.6713 0.48808 0.91084 0.0
H5538 H 0.64394 0.51042 0.86 0.0
H5539 H 0.67058 0.53496 0.85752 0.0
C5540 C 0.60982 0.46432 0.87257 0.0
C5541 C 0.60171 0.46113 0.89113 0.0
C5542 C 0.62778 0.47499 0.87082 0.0
C5543 C 0.63793 0.48295 0.88762 0.0
C5544 C 0.63019 0.47874 0.90626 0.0
C5545 C 0.61223 0.46795 0.90798 0.0
C5546 C 0.68626 0.51287 0.89796 0.0
C5547 C 0.68616 0.52663 0.88324 0.0
C5548 C 0.67097 0.49827 0.89916 0.0
C5549 C 0.65532 0.49709 0.88562 0.0
C5550 C 0.65576 0.51048 0.87054 0.0
C5551 C 0.67097 0.52486 0.86929 0.0
H5552 H 0.60918 0.41052 0.19377 0.0
H5553 H 0.57643 0.43188 0.14614 0.0
H5554 H 0.63154 0.43989 0.19362 0.0
H5555 H 0.5978 0.46214 0.14711 0.0
H5556 H 0.62446 0.52188 0.17557 0.0
H5557 H 0.60499 0.49097 0.17514 0.0
H5558 H 0.65755 0.4586 0.16776 0.0
H5559 H 0.6774 0.49003 0.16694 0.0
C5560 C 0.60693 0.42128 0.183 0.0
C5561 C 0.59144 0.41821 0.16939 0.0
C5562 C 0.6197 0.43828 0.18305 0.0
C5563 C 0.61678 0.45334 0.17013 0.0
C5564 C 0.60071 0.45076 0.15712 0.0
C5565 C 0.58835 0.43341 0.15662 0.0
C5566 C 0.63209 0.5083 0.17355 0.0
C5567 C 0.65269 0.50881 0.17069 0.0
C5568 C 0.62077 0.49046 0.17339 0.0
C5569 C 0.62953 0.47221 0.17102 0.0
C5570 C 0.65025 0.47241 0.16944 0.0
C5571 C 0.66168 0.49047 0.16913 0.0
H5572 H 0.65199 0.726 0.20723 0.0
H5573 H 0.6315 0.71312 0.1484 0.0
H5574 H 0.67485 0.69965 0.20366 0.0
H5575 H 0.65402 0.68565 0.14488 0.0
H5576 H 0.69186 0.62783 0.14553 0.0
H5577 H 0.66862 0.65457 0.14773 0.0
H5578 H 0.70228 0.683 0.19533 0.0
H5579 H 0.72504 0.65627 0.19321 0.0
C5580 C 0.65241 0.71784 0.1932 0.0
C5581 C 0.63957 0.72308 0.17809 0.0
C5582 C 0.66584 0.70209 0.19111 0.0
C5583 C 0.66744 0.68952 0.17377 0.0
C5584 C 0.65407 0.69427 0.15869 0.0
C5585 C 0.64075 0.71042 0.16073 0.0
C5586 C 0.69436 0.6396 0.15671 0.0
C5587 C 0.71108 0.63897 0.16917 0.0
C5588 C 0.68078 0.65548 0.15791 0.0
C5589 C 0.68254 0.67199 0.1719 0.0
C5590 C 0.69924 0.67114 0.1844 0.0
C5591 C 0.71282 0.65539 0.1831 0.0
H5592 H 0.43441 0.62722 0.19177 0.0
H5593 H 0.45089 0.61881 0.25161 0.0
H5594 H 0.46208 0.65161 0.1889 0.0
H5595 H 0.4779 0.64332 0.24909 0.0
H5596 H 0.53969 0.65946 0.22818 0.0
H5597 H 0.50857 0.64137 0.2325 0.0
H5598 H 0.47942 0.68366 0.1991 0.0
H5599 H 0.51119 0.70166 0.19429 0.0
C5600 C 0.44361 0.63102 0.20444 0.0
C5601 C 0.4407 0.62099 0.22183 0.0
C5602 C 0.45944 0.64498 0.20284 0.0
C5603 C 0.47253 0.64913 0.21864 0.0
C5604 C 0.46851 0.64013 0.23645 0.0
C5605 C 0.45293 0.62618 0.23797 0.0
C5606 C 0.52666 0.66498 0.22179 0.0
C5607 C 0.52796 0.6819 0.21078 0.0
C5608 C 0.5087 0.65471 0.22444 0.0
C5609 C 0.49135 0.66107 0.21625 0.0
C5610 C 0.49249 0.67828 0.20552 0.0
C5611 C 0.51062 0.68869 0.20293 0.0
H5612 H 0.3933 0.52208 0.22707 0.0
H5613 H 0.39651 0.52612 0.16431 0.0
H5614 H 0.41974 0.49953 0.22596 0.0
H5615 H 0.42385 0.50378 0.16301 0.0
H5616 H 0.48043 0.47383 0.22209 0.0
H5617 H 0.45212 0.49429 0.22329 0.0
H5618 H 0.43613 0.47234 0.16461 0.0
H5619 H 0.46537 0.45259 0.16332 0.0
C5620 C 0.39992 0.51843 0.21296 0.0
C5621 C 0.39261 0.52615 0.19583 0.0
C5622 C 0.41538 0.50539 0.21228 0.0
C5623 C 0.42446 0.49945 0.19439 0.0
C5624 C 0.41733 0.50749 0.17716 0.0
C5625 C 0.40174 0.52066 0.17788 0.0
C5626 C 0.47049 0.47282 0.2097 0.0
C5627 C 0.47499 0.46094 0.19288 0.0
C5628 C 0.4541 0.48476 0.21028 0.0
C5629 C 0.44138 0.4854 0.19401 0.0
C5630 C 0.44548 0.4728 0.17741 0.0
C5631 C 0.46207 0.46097 0.1768 0.0
H5632 H 0.91417 0.63545 0.63297 0.0
H5633 H 0.97042 0.65018 0.65964 0.0
H5634 H 0.91605 0.66624 0.61615 0.0
H5635 H 0.97228 0.68159 0.64322 0.0
H5636 H 0.91746 0.72909 0.59711 0.0
H5637 H 0.91496 0.70024 0.61681 0.0
H5638 H 0.97777 0.69497 0.61201 0.0
H5639 H 0.98016 0.72476 0.593 0.0
C5640 C 0.92668 0.64566 0.63574 0.0
C5641 C 0.94196 0.64047 0.64792 0.0
C5642 C 0.92784 0.66342 0.62602 0.0
C5643 C 0.94442 0.67666 0.62803 0.0
C5644 C 0.95941 0.67178 0.64091 0.0
C5645 C 0.95821 0.65391 0.65067 0.0
C5646 C 0.93076 0.72186 0.60037 0.0
C5647 C 0.94904 0.72944 0.59371 0.0
C5648 C 0.92934 0.70507 0.61157 0.0
C5649 C 0.94616 0.69501 0.61629 0.0
C5650 C 0.96447 0.70239 0.60916 0.0
C5651 C 0.96587 0.71933 0.59798 0.0
H5652 H 0.46641 0.98103 0.6328 0.0
H5653 H 0.45876 0.9177 0.62768 0.0
H5654 H 0.48566 0.97903 0.66254 0.0
H5655 H 0.47844 0.91546 0.65753 0.0
H5656 H 0.50684 0.91725 0.71941 0.0
H5657 H 0.48498 0.91882 0.69139 0.0
H5658 H 0.51595 0.97265 0.67538 0.0
H5659 H 0.53719 0.97139 0.7041 0.0
C5660 C 0.46847 0.96656 0.63824 0.0
C5661 C 0.46053 0.94957 0.62761 0.0
C5662 C 0.47998 0.96537 0.65533 0.0
C5663 C 0.48436 0.94705 0.66281 0.0
C5664 C 0.47563 0.92999 0.6527 0.0
C5665 C 0.46405 0.93122 0.63547 0.0
C5666 C 0.50887 0.92963 0.71013 0.0
C5667 C 0.5238 0.94438 0.71459 0.0
C5668 C 0.49634 0.93041 0.69366 0.0
C5669 C 0.49813 0.94597 0.68063 0.0
C5670 C 0.51342 0.96053 0.68493 0.0
C5671 C 0.52594 0.95973 0.70146 0.0
H5672 H 0.27243 0.47028 0.58983 0.0
H5673 H 0.22058 0.44251 0.61557 0.0
H5674 H 0.27983 0.48792 0.62086 0.0
H5675 H 0.22917 0.45871 0.64722 0.0
H5676 H 0.29546 0.50953 0.68276 0.0
H5677 H 0.29022 0.48738 0.65362 0.0
H5678 H 0.22739 0.49122 0.66078 0.0
H5679 H 0.23261 0.51201 0.69039 0.0
C5680 C 0.26271 0.46771 0.60217 0.0
C5681 C 0.24553 0.45543 0.59993 0.0
C5682 C 0.26719 0.4776 0.62012 0.0
C5683 C 0.25493 0.47502 0.6365 0.0
C5684 C 0.23864 0.46148 0.63473 0.0
C5685 C 0.23388 0.4519 0.61661 0.0
C5686 C 0.28057 0.50538 0.6782 0.0
C5687 C 0.26451 0.51268 0.68877 0.0
C5688 C 0.27754 0.49285 0.66142 0.0
C5689 C 0.25837 0.48743 0.65487 0.0
C5690 C 0.24235 0.49471 0.66555 0.0
C5691 C 0.24537 0.50701 0.68236 0.0
H5692 H 0.60842 0.19159 0.67288 0.0
H5693 H 0.65118 0.17722 0.71504 0.0
H5694 H 0.6338 0.19115 0.64699 0.0
H5695 H 0.67648 0.17707 0.68968 0.0
H5696 H 0.7258 0.1786 0.64268 0.0
H5697 H 0.70019 0.17968 0.6673 0.0
H5698 H 0.65772 0.18783 0.62239 0.0
H5699 H 0.6842 0.18738 0.59747 0.0
C5700 C 0.62319 0.18837 0.67699 0.0
C5701 C 0.62678 0.18448 0.69708 0.0
C5702 C 0.63826 0.18808 0.66167 0.0
C5703 C 0.65847 0.1841 0.66496 0.0
C5704 C 0.66189 0.18033 0.68517 0.0
C5705 C 0.64683 0.1804 0.70035 0.0
C5706 C 0.7112 0.18087 0.6376 0.0
C5707 C 0.70835 0.18313 0.61706 0.0
C5708 C 0.69578 0.18134 0.65231 0.0
C5709 C 0.67553 0.18384 0.64814 0.0
C5710 C 0.67248 0.18596 0.62745 0.0
C5711 C 0.68814 0.18569 0.61263 0.0
H5712 H 0.9319 0.44263 0.45133 0.0
H5713 H 0.91919 0.49432 0.48747 0.0
H5714 H 0.9316 0.46238 0.42201 0.0
H5715 H 0.91879 0.51388 0.45873 0.0
H5716 H 0.93395 0.55251 0.40654 0.0
H5717 H 0.93322 0.53187 0.43494 0.0
H5718 H 0.92007 0.48028 0.39679 0.0
H5719 H 0.92114 0.50088 0.36871 0.0
C5720 C 0.92853 0.45804 0.45317 0.0
C5721 C 0.92541 0.46641 0.47239 0.0
C5722 C 0.92852 0.4697 0.4361 0.0
C5723 C 0.92555 0.49045 0.43723 0.0
C5724 C 0.92173 0.49842 0.45644 0.0
C5725 C 0.92166 0.48686 0.47329 0.0
C5726 C 0.93096 0.53678 0.40404 0.0
C5727 C 0.92775 0.52888 0.3846 0.0
C5728 C 0.93034 0.52463 0.42067 0.0
C5729 C 0.92647 0.50374 0.419 0.0
C5730 C 0.92336 0.49594 0.39949 0.0
C5731 C 0.92393 0.50807 0.38297 0.0
H5732 H 0.61419 0.91971 0.48217 0.0
H5733 H 0.64268 0.94875 0.43409 0.0
H5734 H 0.64489 0.92035 0.49955 0.0
H5735 H 0.67423 0.94791 0.4508 0.0
H5736 H 0.72324 0.96496 0.49466 0.0
H5737 H 0.69308 0.96254 0.47561 0.0
H5738 H 0.67478 0.90963 0.50499 0.0
H5739 H 0.70425 0.91315 0.52496 0.0
C5740 C 0.62716 0.92602 0.47515 0.0
C5741 C 0.62578 0.9346 0.45691 0.0
C5742 C 0.64503 0.92611 0.48506 0.0
C5743 C 0.66238 0.93439 0.4769 0.0
C5744 C 0.66124 0.94188 0.45798 0.0
C5745 C 0.64315 0.94207 0.44816 0.0
C5746 C 0.71254 0.95302 0.49723 0.0
C5747 C 0.71596 0.93947 0.51156 0.0
C5748 C 0.69531 0.9514 0.48603 0.0
C5749 C 0.68116 0.93585 0.48851 0.0
C5750 C 0.68483 0.92217 0.50282 0.0
C5751 C 0.70182 0.92413 0.51437 0.0
H5752 H 0.14288 0.64784 0.42041 0.0
H5753 H 0.20315 0.63317 0.42518 0.0
H5754 H 0.14769 0.67376 0.44674 0.0
H5755 H 0.20829 0.65957 0.45113 0.0
H5756 H 0.21734 0.72062 0.48774 0.0
H5757 H 0.21238 0.69388 0.46234 0.0
H5758 H 0.15217 0.68563 0.48072 0.0
H5759 H 0.1573 0.71246 0.50626 0.0
C5760 C 0.15725 0.6499 0.42709 0.0
C5761 C 0.17236 0.63745 0.42032 0.0
C5762 C 0.16009 0.66509 0.44254 0.0
C5763 C 0.1785 0.66956 0.45197 0.0
C5764 C 0.19376 0.65729 0.44487 0.0
C5765 C 0.19074 0.64167 0.4298 0.0
C5766 C 0.20297 0.71314 0.48663 0.0
C5767 C 0.1879 0.71941 0.49977 0.0
C5768 C 0.20006 0.69737 0.47178 0.0
C5769 C 0.18173 0.6867 0.46865 0.0
C5770 C 0.1666 0.69297 0.48186 0.0
C5771 C 0.16963 0.70856 0.49698 0.0
H5772 H 0.54166 0.27682 0.45875 0.0
H5773 H 0.49791 0.2543 0.41654 0.0
H5774 H 0.5158 0.28978 0.47991 0.0
H5775 H 0.47217 0.26775 0.43751 0.0
H5776 H 0.46279 0.27092 0.52058 0.0
H5777 H 0.49028 0.26826 0.49773 0.0
H5778 H 0.45855 0.29901 0.45504 0.0
H5779 H 0.43078 0.30151 0.478 0.0
C5780 C 0.52656 0.27496 0.45386 0.0
C5781 C 0.52173 0.26424 0.43623 0.0
C5782 C 0.51184 0.28246 0.46588 0.0
C5783 C 0.4921 0.27956 0.46034 0.0
C5784 C 0.48735 0.27029 0.44198 0.0
C5785 C 0.50207 0.2626 0.43001 0.0
C5786 C 0.46191 0.27754 0.50649 0.0
C5787 C 0.44483 0.28658 0.50102 0.0
C5788 C 0.47762 0.27609 0.49348 0.0
C5789 C 0.47649 0.2836 0.47475 0.0
C5790 C 0.4597 0.29322 0.46948 0.0
C5791 C 0.44397 0.29481 0.48261 0.0
H5792 H 0.61663 0.90207 0.67812 0.0
H5793 H 0.61799 0.83882 0.68324 0.0
H5794 H 0.63706 0.8997 0.6492 0.0
H5795 H 0.6404 0.83692 0.65544 0.0
H5796 H 0.67482 0.83745 0.59845 0.0
H5797 H 0.64716 0.83913 0.62146 0.0
H5798 H 0.67076 0.89566 0.64524 0.0
H5799 H 0.69789 0.89409 0.62225 0.0
C5800 C 0.62096 0.88755 0.67303 0.0
C5801 C 0.61563 0.8706 0.68334 0.0
C5802 C 0.6331 0.88629 0.65654 0.0
C5803 C 0.64082 0.86821 0.65025 0.0
C5804 C 0.63473 0.8511 0.65984 0.0
C5805 C 0.62213 0.85226 0.67607 0.0
C5806 C 0.67401 0.85018 0.60864 0.0
C5807 C 0.68849 0.86562 0.6085 0.0
C5808 C 0.65818 0.85119 0.62178 0.0
C5809 C 0.65662 0.86759 0.63513 0.0
C5810 C 0.67112 0.88303 0.63486 0.0
C5811 C 0.6868 0.88207 0.62173 0.0
H5812 H 0.62913 0.22131 0.38086 0.0
H5813 H 0.58478 0.1823 0.40509 0.0
H5814 H 0.64916 0.21962 0.41008 0.0
H5815 H 0.60422 0.18176 0.43527 0.0
H5816 H 0.63342 0.20228 0.49423 0.0
H5817 H 0.61545 0.20342 0.46371 0.0
H5818 H 0.66941 0.1984 0.43097 0.0
H5819 H 0.68763 0.19643 0.462 0.0
C5820 C 0.62374 0.2119 0.39211 0.0
C5821 C 0.60539 0.20138 0.38977 0.0
C5822 C 0.63527 0.21116 0.40926 0.0
C5823 C 0.62867 0.20046 0.42541 0.0
C5824 C 0.61007 0.19023 0.42336 0.0
C5825 C 0.59882 0.19048 0.40587 0.0
C5826 C 0.64169 0.2013 0.48062 0.0
C5827 C 0.66223 0.19884 0.48105 0.0
C5828 C 0.63118 0.20189 0.46289 0.0
C5829 C 0.64061 0.20055 0.44446 0.0
C5830 C 0.66137 0.19934 0.44472 0.0
C5831 C 0.67197 0.19837 0.46264 0.0
H5832 H 0.85681 0.60214 0.4511 0.0
H5833 H 0.90301 0.63148 0.41816 0.0
H5834 H 0.85558 0.63114 0.47369 0.0
H5835 H 0.9014 0.66073 0.44051 0.0
H5836 H 0.91163 0.6896 0.50442 0.0
H5837 H 0.9107 0.66636 0.47612 0.0
H5838 H 0.8474 0.66684 0.47543 0.0
H5839 H 0.8482 0.69083 0.50333 0.0
C5840 C 0.86658 0.61485 0.44864 0.0
C5841 C 0.88012 0.61449 0.43305 0.0
C5842 C 0.8657 0.63153 0.46137 0.0
C5843 C 0.87839 0.64814 0.4588 0.0
C5844 C 0.89153 0.64805 0.44285 0.0
C5845 C 0.89236 0.63138 0.43004 0.0
C5846 C 0.8975 0.68533 0.49794 0.0
C5847 C 0.87994 0.69198 0.50639 0.0
C5848 C 0.897 0.67192 0.48171 0.0
C5849 C 0.87897 0.66469 0.47375 0.0
C5850 C 0.86148 0.67201 0.48151 0.0
C5851 C 0.86197 0.68564 0.49757 0.0
H5852 H 0.40502 0.98009 0.46395 0.0
H5853 H 0.44087 0.95042 0.50339 0.0
H5854 H 0.43052 0.9788 0.43908 0.0
H5855 H 0.46711 0.94929 0.47829 0.0
H5856 H 0.51752 0.95013 0.42899 0.0
H5857 H 0.49224 0.9507 0.45497 0.0
H5858 H 0.45253 0.9755 0.41522 0.0
H5859 H 0.4777 0.9751 0.38982 0.0
C5860 C 0.41833 0.97312 0.46764 0.0
C5861 C 0.41975 0.96534 0.48665 0.0
C5862 C 0.43361 0.97236 0.4528 0.0
C5863 C 0.45218 0.96385 0.45537 0.0
C5864 C 0.45374 0.95612 0.47456 0.0
C5865 C 0.43824 0.95678 0.48948 0.0
C5866 C 0.50347 0.95582 0.42558 0.0
C5867 C 0.50064 0.96261 0.40632 0.0
C5868 C 0.48843 0.95614 0.44094 0.0
C5869 C 0.46911 0.96325 0.43849 0.0
C5870 C 0.46647 0.96991 0.41909 0.0
C5871 C 0.48143 0.96964 0.40388 0.0
H5872 H 0.21583 0.50398 0.46983 0.0
H5873 H 0.15686 0.49307 0.44828 0.0
H5874 H 0.21345 0.473 0.48666 0.0
H5875 H 0.15433 0.46185 0.46513 0.0
H5876 H 0.20862 0.40839 0.50187 0.0
H5877 H 0.21074 0.43697 0.48192 0.0
H5878 H 0.15223 0.45143 0.50024 0.0
H5879 H 0.1501 0.42221 0.52032 0.0
C5880 C 0.20258 0.49457 0.46813 0.0
C5881 C 0.18672 0.5008 0.45732 0.0
C5882 C 0.20111 0.47684 0.47793 0.0
C5883 C 0.18359 0.46487 0.4775 0.0
C5884 C 0.16794 0.47076 0.46606 0.0
C5885 C 0.1695 0.48848 0.45609 0.0
C5886 C 0.19603 0.41744 0.50154 0.0
C5887 C 0.17916 0.41279 0.51274 0.0
C5888 C 0.19737 0.43408 0.49018 0.0
C5889 C 0.18168 0.44668 0.48932 0.0
C5890 C 0.16459 0.44201 0.50036 0.0
C5891 C 0.16341 0.42537 0.51205 0.0
H5892 H 0.40956 0.1832 0.5999 0.0
H5893 H 0.41584 0.24511 0.58832 0.0
H5894 H 0.43998 0.18604 0.61875 0.0
H5895 H 0.44659 0.24789 0.60731 0.0
H5896 H 0.48336 0.20388 0.66895 0.0
H5897 H 0.45171 0.20641 0.6524 0.0
H5898 H 0.48175 0.23027 0.6024 0.0
H5899 H 0.51327 0.22769 0.61876 0.0
C5900 C 0.41748 0.19743 0.60134 0.0
C5901 C 0.4103 0.21389 0.59249 0.0
C5902 C 0.43482 0.19907 0.6123 0.0
C5903 C 0.44553 0.21722 0.61475 0.0
C5904 C 0.43861 0.23371 0.60566 0.0
C5905 C 0.42113 0.23207 0.59466 0.0
C5906 C 0.48318 0.21005 0.65462 0.0
C5907 C 0.50091 0.21535 0.64511 0.0
C5908 C 0.46508 0.21139 0.64509 0.0
C5909 C 0.46429 0.21841 0.62603 0.0
C5910 C 0.48188 0.22488 0.61709 0.0
C5911 C 0.49993 0.22327 0.62644 0.0
H5912 H 0.96647 0.43907 0.59474 0.0
H5913 H 0.91259 0.42193 0.62362 0.0
H5914 H 0.9721 0.46629 0.62006 0.0
H5915 H 0.91902 0.44786 0.64959 0.0
H5916 H 0.96373 0.48135 0.70345 0.0
H5917 H 0.95728 0.45625 0.67687 0.0
H5918 H 0.94427 0.50166 0.63807 0.0
H5919 H 0.94923 0.52692 0.66539 0.0
C5920 C 0.95573 0.44081 0.6064 0.0
C5921 C 0.93917 0.42715 0.60676 0.0
C5922 C 0.95906 0.45666 0.62125 0.0
C5923 C 0.94625 0.45979 0.63764 0.0
C5924 C 0.92958 0.44641 0.63773 0.0
C5925 C 0.92598 0.43104 0.62266 0.0
C5926 C 0.95909 0.48632 0.68953 0.0
C5927 C 0.95676 0.50689 0.68755 0.0
C5928 C 0.95553 0.47157 0.67387 0.0
C5929 C 0.95019 0.47626 0.65463 0.0
C5930 C 0.94834 0.49686 0.65232 0.0
C5931 C 0.95123 0.51163 0.66829 0.0
H5932 H 0.22913 0.63253 0.72901 0.0
H5933 H 0.17638 0.60192 0.70725 0.0
H5934 H 0.22885 0.65461 0.70176 0.0
H5935 H 0.1762 0.62366 0.67961 0.0
H5936 H 0.16942 0.67395 0.63806 0.0
H5937 H 0.17044 0.65385 0.66652 0.0
H5938 H 0.23339 0.66296 0.66837 0.0
H5939 H 0.23225 0.68322 0.63941 0.0
C5940 C 0.21727 0.63046 0.71854 0.0
C5941 C 0.20261 0.61518 0.72109 0.0
C5942 C 0.21723 0.64322 0.70245 0.0
C5943 C 0.20242 0.64166 0.6878 0.0
C5944 C 0.18785 0.62616 0.69028 0.0
C5945 C 0.188 0.6133 0.70632 0.0
C5946 C 0.18361 0.6721 0.64459 0.0
C5947 C 0.2007 0.6809 0.63588 0.0
C5948 C 0.18423 0.66005 0.66109 0.0
C5949 C 0.20203 0.65586 0.67031 0.0
C5950 C 0.21917 0.6654 0.66223 0.0
C5951 C 0.21855 0.67743 0.64545 0.0
H5952 H 0.12877 0.32509 0.42977 0.0
H5953 H 0.10483 0.31041 0.48591 0.0
H5954 H 0.16026 0.31341 0.43882 0.0
H5955 H 0.1361 0.2978 0.49501 0.0
H5956 H 0.17258 0.24697 0.49489 0.0
H5957 H 0.14617 0.267 0.48518 0.0
H5958 H 0.18686 0.30006 0.44902 0.0
H5959 H 0.21211 0.27819 0.45682 0.0
C5960 C 0.13051 0.31989 0.44439 0.0
C5961 C 0.114 0.31582 0.45613 0.0
C5962 C 0.14852 0.31274 0.44949 0.0
C5963 C 0.14974 0.30187 0.46643 0.0
C5964 C 0.13481 0.30378 0.48069 0.0
C5965 C 0.11697 0.31126 0.47563 0.0
C5966 C 0.17556 0.25771 0.48391 0.0
C5967 C 0.19501 0.26362 0.47937 0.0
C5968 C 0.16063 0.27009 0.47931 0.0
C5969 C 0.16476 0.28683 0.46824 0.0
C5970 C 0.1831 0.28832 0.45869 0.0
C5971 C 0.1976 0.27532 0.46291 0.0
H5972 H 0.80042 0.13347 0.55978 0.0
H5973 H 0.80192 0.17562 0.51535 0.0
H5974 H 0.81113 0.10851 0.53747 0.0
H5975 H 0.81407 0.15058 0.49171 0.0
H5976 H 0.82243 0.09747 0.44891 0.0
H5977 H 0.80998 0.12331 0.47135 0.0
H5978 H 0.832 0.09273 0.52036 0.0
H5979 H 0.84107 0.06623 0.49815 0.0
C5980 C 0.80305 0.13744 0.54505 0.0
C5981 C 0.79854 0.15615 0.53926 0.0
C5982 C 0.80975 0.12298 0.5319 0.0
C5983 C 0.81337 0.12691 0.51214 0.0
C5984 C 0.81058 0.14636 0.50646 0.0
C5985 C 0.80336 0.16083 0.51994 0.0
C5986 C 0.82403 0.09626 0.46459 0.0
C5987 C 0.83323 0.08009 0.47184 0.0
C5988 C 0.81723 0.11127 0.47754 0.0
C5989 C 0.82003 0.11073 0.49801 0.0
C5990 C 0.82893 0.0941 0.50498 0.0
C5991 C 0.83472 0.07881 0.49213 0.0
H5992 H 1.01092 0.7723 0.45803 0.0
H5993 H 0.95758 0.79719 0.43915 0.0
H5994 H 1.00594 0.78743 0.49104 0.0
H5995 H 0.9552 0.81579 0.46947 0.0
H5996 H 0.9964 0.81457 0.54857 0.0
H5997 H 1.00584 0.81285 0.51395 0.0
H5998 H 0.94418 0.81377 0.49856 0.0
H5999 H 0.93594 0.81892 0.53221 0.0
C6000 C 0.99821 0.78096 0.46099 0.0
C6001 C 0.98435 0.78311 0.44632 0.0
C6002 C 0.99567 0.79029 0.47963 0.0
C6003 C 0.98003 0.80299 0.48326 0.0
C6004 C 0.96688 0.80561 0.46801 0.0
C6005 C 0.96837 0.79501 0.45033 0.0
C6006 C 0.98516 0.81531 0.53754 0.0
C6007 C 0.96525 0.81513 0.54275 0.0
C6008 C 0.99047 0.81382 0.51773 0.0
C6009 C 0.97579 0.81149 0.50325 0.0
C6010 C 0.95622 0.81485 0.50883 0.0
C6011 C 0.95119 0.81722 0.52842 0.0
H6012 H 0.32753 0.04512 0.44022 0.0
H6013 H 0.32647 0.10259 0.47016 0.0
H6014 H 0.31779 0.02984 0.47065 0.0
H6015 H 0.31769 0.0872 0.50083 0.0
H6016 H 0.30361 1.02463 0.54361 0.0
H6017 H 0.32227 0.05047 0.52645 0.0
H6018 H 0.27835 0.04618 0.48112 0.0
H6019 H 0.25951 1.02157 0.49896 0.0
C6020 C 0.32559 0.05442 0.45331 0.0
C6021 C 0.32551 0.07494 0.45237 0.0
C6022 C 0.32039 0.04573 0.47078 0.0
C6023 C 0.31584 0.05762 0.48754 0.0
C6024 C 0.32032 0.07792 0.48775 0.0
C6025 C 0.32539 0.08661 0.47016 0.0
C6026 C 0.29742 0.03034 0.5307 0.0
C6027 C 0.28143 1.01994 0.52132 0.0
C6028 C 0.30825 0.04477 0.5207 0.0
C6029 C 0.30213 0.04933 0.50199 0.0
C6030 C 0.28345 0.04249 0.49539 0.0
C6031 C 0.27253 0.02862 0.50575 0.0
H6032 H 0.10405 0.7608 0.61143 0.0
H6033 H 0.06241 0.80279 0.59604 0.0
H6034 H 0.12987 0.77985 0.59515 0.0
H6035 H 0.08842 0.82195 0.5793 0.0
H6036 H 0.14575 0.82122 0.53549 0.0
H6037 H 0.11498 0.81995 0.55271 0.0
H6038 H 0.14581 0.81443 0.60705 0.0
H6039 H 0.17709 0.81642 0.58933 0.0
C6040 C 0.10025 0.77376 0.60397 0.0
C6041 C 0.08193 0.78179 0.60701 0.0
C6042 C 0.11519 0.78506 0.59547 0.0
C6043 C 0.11142 0.80334 0.58803 0.0
C6044 C 0.09192 0.8086 0.58629 0.0
C6045 C 0.077 0.79737 0.59531 0.0
C6046 C 0.14628 0.82071 0.55119 0.0
C6047 C 0.16361 0.81612 0.56082 0.0
C6048 C 0.12843 0.82007 0.56113 0.0
C6049 C 0.12812 0.81544 0.58081 0.0
C6050 C 0.14582 0.81678 0.59145 0.0
C6051 C 0.16368 0.81742 0.58134 0.0
H6052 H 0.27815 0.11882 0.5793 0.0
H6053 H 0.31801 0.1653 0.56961 0.0
H6054 H 0.25012 0.13882 0.57215 0.0
H6055 H 0.2906 0.18779 0.566 0.0
H6056 H 0.25545 0.22538 0.6017 0.0
H6057 H 0.25553 0.20425 0.57091 0.0
H6058 H 0.25817 0.15347 0.60595 0.0
H6059 H 0.26531 0.17449 0.63333 0.0
C6060 C 0.28069 0.13299 0.57393 0.0
C6061 C 0.29958 0.1413 0.5762 0.0
C6062 C 0.26492 0.14471 0.56994 0.0
C6063 C 0.2682 0.16528 0.5706 0.0
C6064 C 0.28747 0.17226 0.56694 0.0
C6065 C 0.30309 0.15994 0.56956 0.0
C6066 C 0.25572 0.20957 0.60245 0.0
C6067 C 0.26106 0.20154 0.62014 0.0
C6068 C 0.25525 0.19746 0.58494 0.0
C6069 C 0.25729 0.17697 0.58583 0.0
C6070 C 0.25624 0.16898 0.60436 0.0
C6071 C 0.25884 0.18114 0.62112 0.0
H6072 H 0.07898 0.33516 0.67927 0.0
H6073 H 0.11118 0.31374 0.62849 0.0
H6074 H 0.05133 0.34075 0.65881 0.0
H6075 H 0.083 0.31879 0.60758 0.0
H6076 H 1.01844 0.28595 0.60191 0.0
H6077 H 0.05244 0.29616 0.60958 0.0
H6078 H 0.03409 0.35291 0.63238 0.0
H6079 H 1.00068 0.34213 0.62787 0.0
C6080 C 0.08044 0.33262 0.66349 0.0
C6081 C 0.09643 0.32287 0.65547 0.0
C6082 C 0.06457 0.33575 0.65166 0.0
C6083 C 0.06476 0.32933 0.63168 0.0
C6084 C 0.08233 0.32317 0.62307 0.0
C6085 C 0.09841 0.32037 0.635 0.0
C6086 C 1.02163 0.3006 0.60849 0.0
C6087 C 1.00648 0.31303 0.61413 0.0
C6088 C 0.04119 0.30665 0.61243 0.0
C6089 C 0.04583 0.32535 0.62164 0.0
C6090 C 0.03092 0.33838 0.62543 0.0
C6091 C 1.01156 0.33209 0.62246 0.0
H6092 H 0.76368 0.98798 0.64059 0.0
H6093 H 0.79698 0.94598 0.67001 0.0
H6094 H 0.78526 0.9853 0.61248 0.0
H6095 H 0.81985 0.94424 0.64252 0.0
H6096 H 0.83031 0.92863 0.57575 0.0
H6097 H 0.82737 0.93466 0.61091 0.0
H6098 H 0.81585 0.99557 0.60186 0.0
H6099 H 0.81332 0.98764 0.56728 0.0
C6100 C 0.77538 0.97773 0.64066 0.0
C6101 C 0.77839 0.96671 0.65699 0.0
C6102 C 0.78836 0.97676 0.62497 0.0
C6103 C 0.80516 0.96544 0.6257 0.0
C6104 C 0.80739 0.95342 0.64158 0.0
C6105 C 0.79405 0.95403 0.65711 0.0
C6106 C 0.82789 0.9435 0.58141 0.0
C6107 C 0.81992 0.95699 0.56918 0.0
C6108 C 0.8262 0.94701 0.60166 0.0
C6109 C 0.81896 0.96506 0.60889 0.0
C6110 C 0.81943 0.98088 0.59642 0.0
C6111 C 0.81865 0.97656 0.57637 0.0
H6112 H 0.45972 0.09338 0.29683 0.0
H6113 H 0.50463 0.08478 0.25289 0.0
H6114 H 0.47818 0.12354 0.30978 0.0
H6115 H 0.52294 0.11402 0.26561 0.0
H6116 H 0.56038 0.1433 0.3135 0.0
H6117 H 0.53502 0.11763 0.30728 0.0
H6118 H 0.49653 0.16009 0.28609 0.0
H6119 H 0.52167 0.18665 0.29368 0.0
C6120 C 0.47366 0.09777 0.29024 0.0
C6121 C 0.48148 0.08639 0.27457 0.0
C6122 C 0.48391 0.11497 0.29736 0.0
C6123 C 0.50174 0.12074 0.28852 0.0
C6124 C 0.50916 0.10963 0.27258 0.0
C6125 C 0.49893 0.09275 0.26553 0.0
C6126 C 0.54637 0.14745 0.30812 0.0
C6127 C 0.54272 0.16711 0.30471 0.0
C6128 C 0.53197 0.13272 0.30459 0.0
C6129 C 0.51407 0.13715 0.29659 0.0
C6130 C 0.51019 0.15666 0.29287 0.0
C6131 C 0.52453 0.17167 0.29701 0.0
H6132 H 0.06672 0.50964 0.33806 0.0
H6133 H 1.00566 0.51669 0.35218 0.0
H6134 H 0.06405 0.53245 0.31127 0.0
H6135 H 1.0021 0.5338 0.32257 0.0
H6136 H 1.00788 0.57325 0.26876 0.0
H6137 H 0.03036 0.56971 0.29644 0.0
H6138 H 0.02252 0.50643 0.28882 0.0
H6139 H 0.9984 0.51032 0.26382 0.0
C6140 C 0.05312 0.51695 0.33624 0.0
C6141 C 0.03607 0.51078 0.34651 0.0
C6142 C 0.05151 0.52933 0.32053 0.0
C6143 C 0.03291 0.53467 0.31489 0.0
C6144 C 1.01677 0.53074 0.32715 0.0
C6145 C 1.01892 0.52088 0.34421 0.0
C6146 C 1.012 0.55868 0.27238 0.0
C6147 C 1.00225 0.54183 0.26354 0.0
C6148 C 0.02491 0.55666 0.28803 0.0
C6149 C 0.02844 0.53778 0.29433 0.0
C6150 C 1.0206 0.52108 0.28374 0.0
C6151 C 1.00707 0.52317 0.26908 0.0
H6152 H 0.64299 0.06272 0.29097 0.0
H6153 H 0.68699 1.02265 0.30656 0.0
H6154 H 0.6174 0.03754 0.29698 0.0
H6155 H 0.66067 0.99782 0.31395 0.0
H6156 H 0.59633 0.95906 0.30269 0.0
H6157 H 0.62603 0.97851 0.2927 0.0
H6158 H 0.61172 1.02513 0.33517 0.0
H6159 H 0.58287 1.00565 0.3451 0.0
C6160 C 0.64726 0.0486 0.29574 0.0
C6161 C 0.66707 0.04472 0.29839 0.0
C6162 C 0.63255 0.03434 0.29923 0.0
C6163 C 0.63715 1.0162 0.30624 0.0
C6164 C 0.65689 1.01184 0.3085 0.0
C6165 C 0.67183 0.02605 0.30448 0.0
C6166 C 0.59961 0.97355 0.30965 0.0
C6167 C 0.58688 0.98148 0.32395 0.0
C6168 C 0.61659 0.98446 0.30417 0.0
C6169 C 0.62093 1.00325 0.31314 0.0
C6170 C 0.60856 1.01071 0.32795 0.0
C6171 C 0.5919 0.99977 0.33345 0.0
H6172 H 0.05401 0.63849 0.34494 0.0
H6173 H 0.09173 0.64314 0.29408 0.0
H6174 H 0.04585 0.60443 0.33456 0.0
H6175 H 0.0829 0.61018 0.28341 0.0
H6176 H 0.11191 0.58211 0.33324 0.0
H6177 H 0.07803 0.5851 0.3387 0.0
H6178 H 0.06509 0.57286 0.27884 0.0
H6179 H 0.10047 0.56853 0.27243 0.0
C6180 C 0.05992 0.63248 0.33123 0.0
C6181 C 0.07385 0.64347 0.32072 0.0
C6182 C 0.05498 0.61289 0.32502 0.0
C6183 C 0.06429 0.60383 0.30857 0.0
C6184 C 0.07558 0.61607 0.29642 0.0
C6185 C 0.08082 0.63532 0.30271 0.0
C6186 C 0.10211 0.57854 0.32109 0.0
C6187 C 0.10913 0.57755 0.30171 0.0
C6188 C 0.08209 0.57976 0.3245 0.0
C6189 C 0.06987 0.58285 0.30875 0.0
C6190 C 0.07532 0.57354 0.29084 0.0
C6191 C 0.09547 0.57154 0.28706 0.0
H6192 H 0.50385 1.01518 0.75119 0.0
H6193 H 0.50587 0.07738 0.76529 0.0
H6194 H 0.5231 1.01001 0.78048 0.0
H6195 H 0.52674 0.07262 0.79373 0.0
H6196 H 0.49779 1.01788 0.8451 0.0
H6197 H 0.49667 0.03454 0.8144 0.0
H6198 H 0.55952 0.03528 0.80988 0.0
H6199 H 0.56041 1.01537 0.83939 0.0
C6200 C 0.50965 0.02781 0.7599 0.0
C6201 C 0.50282 0.0464 0.75672 0.0
C6202 C 0.52069 1.0249 0.77647 0.0
C6203 C 0.52604 0.04081 0.78939 0.0
C6204 C 0.52258 0.06005 0.78408 0.0
C6205 C 0.51084 0.06284 0.76773 0.0
C6206 C 0.51151 1.02238 0.83815 0.0
C6207 C 0.52896 1.01416 0.8435 0.0
C6208 C 0.5108 0.03159 0.82046 0.0
C6209 C 0.52808 0.03609 0.81001 0.0
C6210 C 0.54616 0.03186 0.8179 0.0
C6211 C 0.54665 1.021 0.83488 0.0
H6212 H 0.08976 0.4981 0.85237 0.0
H6213 H 0.09263 0.46752 0.79559 0.0
H6214 H 0.11804 0.51883 0.84486 0.0
H6215 H 0.1216 0.48901 0.78746 0.0
H6216 H 0.18549 0.52001 0.795 0.0
H6217 H 0.15775 0.49686 0.80077 0.0
H6218 H 0.12314 0.5455 0.82104 0.0
H6219 H 0.15076 0.56862 0.81499 0.0
C6220 C 0.09638 0.49586 0.83816 0.0
C6221 C 0.08855 0.48176 0.82436 0.0
C6222 C 0.11262 0.50786 0.8338 0.0
C6223 C 0.12172 0.50578 0.81546 0.0
C6224 C 0.11463 0.49096 0.80171 0.0
C6225 C 0.09807 0.47887 0.80623 0.0
C6226 C 0.17195 0.52577 0.80056 0.0
C6227 C 0.17009 0.54621 0.80403 0.0
C6228 C 0.15608 0.51253 0.80376 0.0
C6229 C 0.13832 0.51952 0.81104 0.0
C6230 C 0.13678 0.53982 0.81543 0.0
C6231 C 0.15256 0.553 0.81208 0.0
H6232 H 0.6094 0.12451 0.83772 0.0
H6233 H 0.58712 0.08959 0.78664 0.0
H6234 H 0.57912 0.1235 0.85197 0.0
H6235 H 0.55417 0.09302 0.79991 0.0
H6236 H 0.5496 0.15721 0.80537 0.0
H6237 H 0.53707 0.12359 0.80213 0.0
H6238 H 0.54248 0.11898 0.86366 0.0
H6239 H 0.55461 0.15344 0.86751 0.0
C6240 C 0.59842 0.11584 0.82935 0.0
C6241 C 0.60168 0.10708 0.81047 0.0
C6242 C 0.58008 0.11577 0.83776 0.0
C6243 C 0.56344 0.1089 0.82703 0.0
C6244 C 0.56651 0.09856 0.80878 0.0
C6245 C 0.58551 0.09721 0.80082 0.0
C6246 C 0.54652 0.14976 0.81839 0.0
C6247 C 0.55477 0.15761 0.83606 0.0
C6248 C 0.53933 0.13015 0.81676 0.0
C6249 C 0.54439 0.11833 0.83187 0.0
C6250 C 0.54283 0.12771 0.85085 0.0
C6251 C 0.54992 0.14757 0.85314 0.0
H6252 H 1.01513 0.68786 0.80617 0.0
H6253 H 0.06261 0.65034 0.79134 0.0
H6254 H 0.99203 0.65993 0.80379 0.0
H6255 H 0.03925 0.62321 0.78374 0.0
H6256 H 1.0029 0.57122 0.78626 0.0
H6257 H 0.02273 0.60001 0.79757 0.0
H6258 H 0.97273 0.63612 0.79215 0.0
H6259 H 0.95248 0.60675 0.78389 0.0
C6260 C 1.02055 0.67355 0.80212 0.0
C6261 C 0.04073 0.67088 0.8003 0.0
C6262 C 1.0072 0.65743 0.80028 0.0
C6263 C 1.01372 0.63857 0.79484 0.0
C6264 C 0.0337 0.63684 0.78985 0.0
C6265 C 0.04713 0.65262 0.79329 0.0
C6266 C 0.99607 0.58525 0.78827 0.0
C6267 C 0.97662 0.58716 0.78294 0.0
C6268 C 1.00759 0.60191 0.79409 0.0
C6269 C 1.00005 0.6208 0.7939 0.0
C6270 C 0.97965 0.62214 0.79167 0.0
C6271 C 0.96793 0.60525 0.78675 0.0
H6272 H 0.32877 0.42657 0.07695 0.0
H6273 H 0.31101 0.48577 0.07014 0.0
H6274 H 0.32801 0.43264 0.11234 0.0
H6275 H 0.31658 0.4936 0.10415 0.0
H6276 H 0.26269 0.48405 0.13996 0.0
H6277 H 0.28498 0.48132 0.11245 0.0
H6278 H 0.32081 0.44322 0.1448 0.0
H6279 H 0.29715 0.44482 0.1718 0.0
C6280 C 0.32672 0.44139 0.08285 0.0
C6281 C 0.31817 0.45504 0.07127 0.0
C6282 C 0.32654 0.445 0.10314 0.0
C6283 C 0.31978 0.46309 0.11071 0.0
C6284 C 0.3201 0.47902 0.09839 0.0
C6285 C 0.31767 0.47473 0.07845 0.0
C6286 C 0.27479 0.47434 0.14068 0.0
C6287 C 0.27801 0.46422 0.15757 0.0
C6288 C 0.28814 0.4734 0.12535 0.0
C6289 C 0.30549 0.46308 0.12701 0.0
C6290 C 0.3079 0.4517 0.14332 0.0
C6291 C 0.29415 0.4522 0.1585 0.0
H6292 H 0.30894 0.676 1.01789 0.0
H6293 H 0.28655 0.62951 0.0536 0.0
H6294 H 0.32066 0.65088 0.9939 0.0
H6295 H 0.29473 0.60521 0.02938 0.0
H6296 H 0.3286 0.56186 0.99433 0.0
H6297 H 0.31708 0.58723 1.01677 0.0
H6298 H 0.31516 0.62704 0.96918 0.0
H6299 H 0.32872 0.60156 0.94716 0.0
C6300 C 0.30583 0.66052 1.02032 0.0
C6301 C 0.29557 0.65488 0.03719 0.0
C6302 C 0.31242 0.64604 1.00653 0.0
C6303 C 0.30859 0.62567 1.00931 0.0
C6304 C 0.29856 0.6204 0.02642 0.0
C6305 C 0.293 0.63466 0.0403 0.0
C6306 C 0.32598 0.57614 0.98874 0.0
C6307 C 0.33109 0.58029 0.96946 0.0
C6308 C 0.31893 0.59082 1.00159 0.0
C6309 C 0.31546 0.60978 0.99515 0.0
C6310 C 0.31849 0.61311 0.9751 0.0
C6311 C 0.32618 0.59847 0.9624 0.0
H6312 H 0.49527 0.31606 0.04902 0.0
H6313 H 0.43554 0.32072 0.03041 0.0
H6314 H 0.5058 0.31252 1.01444 0.0
H6315 H 0.44485 0.31483 0.99707 0.0
H6316 H 0.50734 0.27269 0.95499 0.0
H6317 H 0.5036 0.28587 0.9893 0.0
H6318 H 0.45903 0.32375 0.96994 0.0
H6319 H 0.45909 0.30716 0.9384 0.0
C6320 C 0.48449 0.31655 0.03748 0.0
C6321 C 0.4644 0.31694 0.042 0.0
C6322 C 0.49042 0.31421 1.01782 0.0
C6323 C 0.47619 0.31254 1.00289 0.0
C6324 C 0.4565 0.31596 1.00783 0.0
C6325 C 0.45088 0.31882 0.02716 0.0
C6326 C 0.49629 0.28324 0.95857 0.0
C6327 C 0.48335 0.28873 0.94413 0.0
C6328 C 0.49451 0.29123 0.97796 0.0
C6329 C 0.48081 0.30579 0.98248 0.0
C6330 C 0.46917 0.31209 0.96744 0.0
C6331 C 0.46946 0.30277 0.94909 0.0
H6332 H 0.81293 0.52725 0.0443 0.0
H6333 H 0.76354 0.52434 1.00496 0.0
H6334 H 0.82723 0.55555 0.02738 0.0
H6335 H 0.77961 0.54974 0.98619 0.0
H6336 H 0.82862 0.55248 0.94264 0.0
H6337 H 0.8218 0.53681 0.97357 0.0
H6338 H 0.81334 0.59378 1.00251 0.0
H6339 H 0.81999 0.60948 0.97161 0.0
C6340 C 0.80456 0.53345 0.03287 0.0
C6341 C 0.78749 0.52326 0.02534 0.0
C6342 C 0.81312 0.54915 1.02278 0.0
C6343 C 0.80473 0.55429 1.0052 0.0
C6344 C 0.78604 0.54636 0.99996 0.0
C6345 C 0.77685 0.53177 1.01079 0.0
C6346 C 0.82563 0.56165 0.95561 0.0
C6347 C 0.82302 0.58185 0.95431 0.0
C6348 C 0.82208 0.55278 0.97336 0.0
C6349 C 0.81637 0.56418 0.99005 0.0
C6350 C 0.81741 0.58476 0.98968 0.0
C6351 C 0.82112 0.59363 0.97189 0.0
H6352 H 0.65115 0.78319 0.05143 0.0
H6353 H 0.64628 0.74583 1.00024 0.0
H6354 H 0.62966 0.80732 0.03674 0.0
H6355 H 0.62696 0.77004 0.98441 0.0
H6356 H 0.62798 0.81965 0.949 0.0
H6357 H 0.64524 0.80309 0.97398 0.0
H6358 H 0.59923 0.81692 1.01549 0.0
H6359 H 0.58019 0.82842 0.98836 0.0
C6360 C 0.64517 0.78018 0.03699 0.0
C6361 C 0.654 0.76593 0.02452 0.0
C6362 C 0.6335 0.79409 0.02853 0.0
C6363 C 0.6294 0.7917 1.0084 0.0
C6364 C 0.63245 0.77327 0.99893 0.0
C6365 C 0.64273 0.75925 1.00831 0.0
C6366 C 0.62158 0.8187 0.96336 0.0
C6367 C 0.60166 0.82132 0.96626 0.0
C6368 C 0.63174 0.81003 0.97796 0.0
C6369 C 0.623 0.80771 0.99652 0.0
C6370 C 0.60581 0.81749 1.00106 0.0
C6371 C 0.59511 0.82456 0.9857 0.0
H6372 H 0.77172 0.64243 0.11255 0.0
H6373 H 0.77334 0.68178 0.06614 0.0
H6374 H 0.7865 0.6178 0.0925 0.0
H6375 H 0.78481 0.6551 0.04394 0.0
H6376 H 0.84485 0.64505 0.08946 0.0
H6377 H 0.8226 0.65486 0.06521 0.0
H6378 H 0.79924 0.59523 0.05803 0.0
H6379 H 0.82064 0.58578 0.08431 0.0
C6380 C 0.7723 0.64466 0.09723 0.0
C6381 C 0.77184 0.66393 0.09153 0.0
C6382 C 0.78193 0.63077 0.08569 0.0
C6383 C 0.78835 0.63477 0.06681 0.0
C6384 C 0.782 0.65216 0.05895 0.0
C6385 C 0.77435 0.66711 0.07145 0.0
C6386 C 0.83572 0.63387 0.08179 0.0
C6387 C 0.83422 0.61511 0.08904 0.0
C6388 C 0.82315 0.63928 0.06731 0.0
C6389 C 0.80749 0.62636 0.06134 0.0
C6390 C 0.80978 0.60609 0.06408 0.0
C6391 C 0.8222 0.60056 0.07905 0.0
H6392 H 0.502 0.84364 0.12261 0.0
H6393 H 0.52285 0.79005 0.09375 0.0
H6394 H 0.53461 0.85679 0.12612 0.0
H6395 H 0.55617 0.8022 0.10181 0.0
H6396 H 0.61097 0.81639 0.13033 0.0
H6397 H 0.58667 0.82424 0.1061 0.0
H6398 H 0.54772 0.84194 0.15364 0.0
H6399 H 0.57162 0.83379 0.17728 0.0
C6400 C 0.51327 0.83477 0.11613 0.0
C6401 C 0.50924 0.81556 0.10758 0.0
C6402 C 0.53228 0.84241 0.11856 0.0
C6403 C 0.54786 0.83017 0.11507 0.0
C6404 C 0.54432 0.81181 0.10484 0.0
C6405 C 0.52512 0.80462 0.10083 0.0
C6406 C 0.59749 0.82277 0.13543 0.0
C6407 C 0.59242 0.82349 0.15548 0.0
C6408 C 0.58366 0.82726 0.12157 0.0
C6409 C 0.56514 0.83317 0.12791 0.0
C6410 C 0.56182 0.83738 0.14812 0.0
C6411 C 0.57544 0.83257 0.16181 0.0
H6412 H 0.68504 0.3241 0.08475 0.0
H6413 H 0.66425 0.33312 0.02709 0.0
H6414 H 0.65383 0.3341 0.09854 0.0
H6415 H 0.63218 0.34105 0.04023 0.0
H6416 H 0.61423 0.2779 0.09149 0.0
H6417 H 0.64019 0.29771 0.07715 0.0
H6418 H 0.60076 0.34459 0.07028 0.0
H6419 H 0.57392 0.32383 0.08441 0.0
C6420 C 0.67404 0.32882 0.07501 0.0
C6421 C 0.67535 0.32478 0.05472 0.0
C6422 C 0.65624 0.33502 0.08287 0.0
C6423 C 0.64012 0.33603 0.07013 0.0
C6424 C 0.64403 0.339 0.05033 0.0
C6425 C 0.66226 0.33396 0.04272 0.0
C6426 C 0.61069 0.29196 0.0861 0.0
C6427 C 0.59232 0.29964 0.08986 0.0
C6428 C 0.62574 0.30363 0.07848 0.0
C6429 C 0.6227 0.32329 0.07441 0.0
C6430 C 0.60353 0.32983 0.07448 0.0
C6431 C 0.58819 0.3178 0.08197 0.0
H6432 H 1.00215 0.82714 0.65724 0.0
H6433 H 0.04638 0.82568 0.61232 0.0
H6434 H 0.98016 0.84198 0.63489 0.0
H6435 H 0.02266 0.83476 0.58817 0.0
H6436 H 0.96014 0.85786 0.56005 0.0
H6437 H 0.98928 0.84049 0.57034 0.0
H6438 H 0.9927 0.87723 0.62252 0.0
H6439 H 0.96707 0.89746 0.61047 0.0
C6440 C 1.00681 0.82924 0.64236 0.0
C6441 C 0.02651 0.82815 0.63715 0.0
C6442 C 0.99405 0.83695 0.62928 0.0
C6443 C 1.00018 0.8405 0.60995 0.0
C6444 C 1.01793 0.83306 0.60321 0.0
C6445 C 0.03137 0.82724 0.61698 0.0
C6446 C 0.96782 0.86298 0.57336 0.0
C6447 C 0.95876 0.87594 0.58727 0.0
C6448 C 0.98359 0.85219 0.57962 0.0
C6449 C 0.98999 0.85526 0.59906 0.0
C6450 C 0.98558 0.87306 0.60894 0.0
C6451 C 0.97147 0.8848 0.60155 0.0
H6452 H 0.30375 0.0839 0.61051 0.0
H6453 H 0.30215 0.04241 0.65612 0.0
H6454 H 0.31516 0.05923 0.58742 0.0
H6455 H 0.31542 1.01744 0.63344 0.0
H6456 H 0.31988 0.96934 0.58425 0.0
H6457 H 0.30999 0.99444 0.609 0.0
H6458 H 0.33412 0.03992 0.5721 0.0
H6459 H 0.33922 1.0155 0.54687 0.0
C6460 C 0.30606 0.06936 0.61564 0.0
C6461 C 0.30033 0.06451 0.63457 0.0
C6462 C 0.31303 0.05498 0.60236 0.0
C6463 C 0.3157 0.03555 0.60801 0.0
C6464 C 0.31249 0.03164 0.62792 0.0
C6465 C 0.30492 0.046 0.64104 0.0
C6466 C 0.3228 0.98481 0.5816 0.0
C6467 C 0.33179 0.99034 0.56402 0.0
C6468 C 0.3174 0.99932 0.59591 0.0
C6469 C 0.32145 1.01967 0.59315 0.0
C6470 C 0.33028 1.02481 0.57533 0.0
C6471 C 0.3343 1.01049 0.56081 0.0
H6472 H 0.16043 0.36976 0.64502 0.0
H6473 H 0.21194 0.34118 0.66316 0.0
H6474 H 0.15814 0.34796 0.616 0.0
H6475 H 0.20835 0.31744 0.63507 0.0
H6476 H 0.20034 0.30818 0.56499 0.0
H6477 H 0.20799 0.3106 0.59972 0.0
H6478 H 0.1462 0.31334 0.61309 0.0
H6479 H 0.13925 0.31478 0.57838 0.0
C6480 C 0.17193 0.35951 0.64215 0.0
C6481 C 0.18633 0.35717 0.65621 0.0
C6482 C 0.17 0.34617 0.62616 0.0
C6483 C 0.18206 0.32989 0.62432 0.0
C6484 C 0.19836 0.32935 0.63666 0.0
C6485 C 0.20074 0.3433 0.65235 0.0
C6486 C 0.18828 0.30828 0.5754 0.0
C6487 C 0.16971 0.31392 0.5697 0.0
C6488 C 0.19271 0.30962 0.59537 0.0
C6489 C 0.17776 0.31448 0.60873 0.0
C6490 C 0.15811 0.3113 0.60268 0.0
C6491 C 0.154 0.31172 0.58277 0.0
H6492 H 0.79865 0.02585 0.64446 0.0
H6493 H 0.79408 0.08619 0.66716 0.0
H6494 H 0.79492 0.03621 0.61122 0.0
H6495 H 0.78924 0.09628 0.63412 0.0
H6496 H 0.84503 0.09125 0.58934 0.0
H6497 H 0.82747 0.06221 0.60229 0.0
H6498 H 0.77347 0.09107 0.5993 0.0
H6499 H 0.78941 0.11787 0.58394 0.0
C6500 C 0.79585 0.0412 0.64251 0.0
C6501 C 0.79824 0.05568 0.65812 0.0
C6502 C 0.79357 0.04696 0.62344 0.0
C6503 C 0.79245 0.06697 0.62025 0.0
C6504 C 0.79034 0.08067 0.63632 0.0
C6505 C 0.79328 0.07501 0.65528 0.0
C6506 C 0.82918 0.09047 0.58958 0.0
C6507 C 0.81878 0.10718 0.58602 0.0
C6508 C 0.81916 0.07394 0.597 0.0
C6509 C 0.79911 0.07474 0.60166 0.0
C6510 C 0.78844 0.08959 0.5945 0.0
C6511 C 0.7981 0.10545 0.58625 0.0
H6512 H 0.0294 0.29538 0.49759 0.0
H6513 H 0.04262 0.3335 0.54878 0.0
H6514 H 1.00442 0.27784 0.51529 0.0
H6515 H 1.01536 0.3173 0.56598 0.0
H6516 H 0.95284 0.30826 0.57944 0.0
H6517 H 0.98276 0.29031 0.5726 0.0
H6518 H 0.98412 0.31193 0.5141 0.0
H6519 H 0.95585 0.33086 0.5217 0.0
C6520 C 0.02807 0.29924 0.51306 0.0
C6521 C 0.03729 0.3167 0.52145 0.0
C6522 C 1.01357 0.28898 0.52332 0.0
C6523 C 1.00709 0.29723 0.54126 0.0
C6524 C 1.01961 0.31116 0.55166 0.0
C6525 C 0.03493 0.32084 0.54168 0.0
C6526 C 0.95937 0.30855 0.56499 0.0
C6527 C 0.95294 0.32179 0.55151 0.0
C6528 C 0.97625 0.29818 0.56107 0.0
C6529 C 0.9859 0.30009 0.54308 0.0
C6530 C 0.97695 0.31014 0.52819 0.0
C6531 C 0.96056 0.32102 0.53244 0.0
H6532 H 0.81045 0.05488 0.51472 0.0
H6533 H 0.78207 0.9975 0.51321 0.0
H6534 H 0.83595 0.04332 0.53537 0.0
H6535 H 0.8072 0.98611 0.53385 0.0
H6536 H 0.86237 0.95892 0.53688 0.0
H6537 H 0.84725 0.98642 0.55545 0.0
H6538 H 0.84254 1.01591 0.50202 0.0
H6539 H 0.86099 0.99205 0.48559 0.0
C6540 C 0.80886 0.04019 0.52008 0.0
C6541 C 0.79477 0.02657 0.51177 0.0
C6542 C 0.82351 0.03353 0.53215 0.0
C6543 C 0.8244 1.01323 0.53534 0.0
C6544 C 0.8073 1.00155 0.53158 0.0
C6545 C 0.79278 1.00808 0.51958 0.0
C6546 C 0.86004 0.97247 0.5297 0.0
C6547 C 0.8626 0.97316 0.50917 0.0
C6548 C 0.85016 0.98762 0.54009 0.0
C6549 C 0.84272 1.00315 0.52989 0.0
C6550 C 0.84886 1.00506 0.51056 0.0
C6551 C 0.8607 0.99145 0.50118 0.0
H6552 H 1.01977 0.82894 0.47507 0.0
H6553 H 0.06053 0.81378 0.42857 0.0
H6554 H 0.04497 0.82442 0.49958 0.0
H6555 H 0.0853 0.80871 0.4526 0.0
H6556 H 0.12939 0.80473 0.48614 0.0
H6557 H 0.09658 0.79286 0.4816 0.0
H6558 H 0.07638 0.84957 0.50177 0.0
H6559 H 0.10987 0.86066 0.51101 0.0
C6560 C 0.03389 0.82389 0.47015 0.0
C6561 C 0.03896 0.82296 0.4501 0.0
C6562 C 0.04819 0.82131 0.48417 0.0
C6563 C 0.06712 0.81679 0.47795 0.0
C6564 C 0.07081 0.81231 0.45788 0.0
C6565 C 0.05672 0.81529 0.44403 0.0
C6566 C 0.11831 0.81444 0.49161 0.0
C6567 C 0.12282 0.83375 0.49959 0.0
C6568 C 0.09921 0.80748 0.48858 0.0
C6569 C 0.08408 0.82038 0.49094 0.0
C6570 C 0.0879 0.83924 0.50009 0.0
C6571 C 0.10719 0.84579 0.50477 0.0
H6572 H 0.30267 0.22225 0.52176 0.0
H6573 H 0.31655 0.16322 0.53524 0.0
H6574 H 0.30343 0.21213 0.48721 0.0
H6575 H 0.31024 0.15203 0.50234 0.0
H6576 H 0.36754 0.1566 0.46966 0.0
H6577 H 0.34311 0.16196 0.49487 0.0
H6578 H 0.31092 0.19715 0.456 0.0
H6579 H 0.33651 0.19266 0.43113 0.0
C6580 C 0.30357 0.20672 0.51769 0.0
C6581 C 0.31064 0.19386 0.53113 0.0
C6582 C 0.30375 0.20084 0.49783 0.0
C6583 C 0.30937 0.18168 0.49245 0.0
C6584 C 0.3076 0.16731 0.50646 0.0
C6585 C 0.31027 0.17359 0.52594 0.0
C6586 C 0.35564 0.1661 0.4669 0.0
C6587 C 0.35418 0.17481 0.44892 0.0
C6588 C 0.34115 0.16859 0.48097 0.0
C6589 C 0.3244 0.17915 0.47701 0.0
C6590 C 0.32342 0.18867 0.45932 0.0
C6591 C 0.33824 0.18649 0.44533 0.0
H6592 H 0.6767 0.0378 0.82323 0.0
H6593 H 0.62874 0.07593 0.81759 0.0
H6594 H 0.65577 1.0096 0.81313 0.0
H6595 H 0.60859 0.04864 0.80353 0.0
H6596 H 0.56615 0.99824 0.80863 0.0
H6597 H 0.58995 1.02538 0.81605 0.0
H6598 H 0.63674 0.98688 0.79926 0.0
H6599 H 0.61317 0.95934 0.79723 0.0
C6600 C 0.66164 0.04014 0.81943 0.0
C6601 C 0.65365 0.05859 0.82304 0.0
C6602 C 0.64958 1.02394 0.81316 0.0
C6603 C 0.62965 0.02633 0.80897 0.0
C6604 C 0.6232 0.04572 0.80836 0.0
C6605 C 0.63498 0.06166 0.8158 0.0
C6606 C 0.58161 0.99566 0.80756 0.0
C6607 C 0.58775 0.97691 0.80194 0.0
C6608 C 0.59529 1.01135 0.81085 0.0
C6609 C 0.61538 1.009 0.80697 0.0
C6610 C 0.62154 0.98982 0.8022 0.0
C6611 C 0.60792 0.97388 0.80056 0.0
H6612 H 0.13027 0.62656 0.74851 0.0
H6613 H 0.06916 0.63441 0.76043 0.0
H6614 H 0.13232 0.60802 0.77771 0.0
H6615 H 0.07073 0.61287 0.78823 0.0
H6616 H 0.12414 0.57722 0.83854 0.0
H6617 H 0.103 0.57721 0.80939 0.0
H6618 H 0.11241 0.64041 0.80863 0.0
H6619 H 0.13446 0.63977 0.83565 0.0
C6620 C 0.11679 0.62275 0.75625 0.0
C6621 C 0.10009 0.63351 0.75375 0.0
C6622 C 0.11807 0.61202 0.77297 0.0
C6623 C 0.1019 0.60951 0.78549 0.0
C6624 C 0.08365 0.61545 0.77936 0.0
C6625 C 0.08265 0.62726 0.76316 0.0
C6626 C 0.12067 0.59111 0.83263 0.0
C6627 C 0.13028 0.60873 0.83982 0.0
C6628 C 0.10894 0.5911 0.81577 0.0
C6629 C 0.10649 0.60883 0.80651 0.0
C6630 C 0.11371 0.62662 0.81565 0.0
C6631 C 0.12567 0.6265 0.83191 0.0
H6632 H 0.43964 0.12184 0.79775 0.0
H6633 H 0.48426 0.07909 0.79736 0.0
H6634 H 0.4644 0.14733 0.78892 0.0
H6635 H 0.50897 0.10426 0.79066 0.0
H6636 H 0.54711 0.14153 0.7589 0.0
H6637 H 0.51815 0.12088 0.76329 0.0
H6638 H 0.49376 0.16753 0.80016 0.0
H6639 H 0.52223 0.18959 0.79203 0.0
C6640 C 0.45476 0.11801 0.79624 0.0
C6641 C 0.46021 0.09864 0.79892 0.0
C6642 C 0.46891 0.13256 0.79126 0.0
C6643 C 0.48863 0.1278 0.78891 0.0
C6644 C 0.49388 0.10842 0.79181 0.0
C6645 C 0.47977 0.09397 0.79607 0.0
C6646 C 0.53533 0.14762 0.76699 0.0
C6647 C 0.53688 0.167 0.77467 0.0
C6648 C 0.51875 0.13572 0.77002 0.0
C6649 C 0.50391 0.14232 0.78267 0.0
C6650 C 0.50504 0.16202 0.79036 0.0
C6651 C 0.52134 0.1745 0.78598 0.0
H6652 H 0.07999 0.49975 0.77904 0.0
H6653 H 0.02514 0.51294 0.75333 0.0
H6654 H 0.07821 0.52893 0.80151 0.0
H6655 H 0.02287 0.54114 0.77593 0.0
H6656 H 1.0121 0.5173 0.83981 0.0
H6657 H 0.04031 0.51346 0.81855 0.0
H6658 H 0.03919 0.57397 0.80394 0.0
H6659 H 1.00953 0.57767 0.82504 0.0
C6660 C 0.06846 0.50981 0.77707 0.0
C6661 C 0.05228 0.5038 0.76513 0.0
C6662 C 0.06739 0.5265 0.78996 0.0
C6663 C 0.05028 0.53725 0.79047 0.0
C6664 C 0.03655 0.53364 0.77537 0.0
C6665 C 0.0378 0.51724 0.76241 0.0
C6666 C 1.01864 0.53026 0.83328 0.0
C6667 C 1.00812 0.54733 0.83287 0.0
C6668 C 0.03459 0.52794 0.82078 0.0
C6669 C 0.04162 0.54337 0.80947 0.0
C6670 C 0.03381 0.56197 0.8126 0.0
C6671 C 1.0171 0.56404 0.82461 0.0
H6672 H 0.62181 0.12493 0.34927 0.0
H6673 H 0.63055 0.0648 0.33042 0.0
H6674 H 0.5977 0.12742 0.32353 0.0
H6675 H 0.6082 0.06817 0.30293 0.0
H6676 H 0.62504 0.12672 0.25912 0.0
H6677 H 0.62648 0.10169 0.28303 0.0
H6678 H 0.566 0.10995 0.29767 0.0
H6679 H 0.56386 0.13315 0.27169 0.0
C6680 C 0.61724 0.11174 0.3406 0.0
C6681 C 0.62759 0.09465 0.34199 0.0
C6682 C 0.60358 0.11316 0.32574 0.0
C6683 C 0.6006 0.09763 0.31163 0.0
C6684 C 0.60927 0.07969 0.31434 0.0
C6685 C 0.62229 0.07797 0.32985 0.0
C6686 C 0.61147 0.12139 0.26577 0.0
C6687 C 0.59423 0.13114 0.26302 0.0
C6688 C 0.6123 0.10726 0.27971 0.0
C6689 C 0.59607 0.10334 0.29176 0.0
C6690 C 0.57822 0.11172 0.28779 0.0
C6691 C 0.57711 0.12515 0.27303 0.0
H6692 H 0.05664 0.63733 0.26909 0.0
H6693 H 0.02704 0.68771 0.29265 0.0
H6694 H 0.02886 0.61599 0.27568 0.0
H6695 H 0.99921 0.66594 0.3022 0.0
H6696 H 0.94481 0.62327 0.3006 0.0
H6697 H 0.97193 0.64666 0.2934 0.0
H6698 H 1.01237 0.59979 0.2975 0.0
H6699 H 0.98522 0.57652 0.30095 0.0
C6700 C 0.0442 0.64372 0.27612 0.0
C6701 C 0.044 0.66402 0.28013 0.0
C6702 C 0.02816 0.63141 0.2804 0.0
C6703 C 1.01155 0.63896 0.28993 0.0
C6704 C 1.01154 0.65946 0.29466 0.0
C6705 C 0.02757 0.67193 0.28952 0.0
C6706 C 0.95951 0.61807 0.29959 0.0
C6707 C 0.96296 0.59811 0.3019 0.0
C6708 C 0.97517 0.63152 0.29571 0.0
C6709 C 0.9946 0.62527 0.29462 0.0
C6710 C 0.99777 0.60529 0.29729 0.0
C6711 C 0.98215 0.59187 0.29993 0.0
H6712 H 0.51556 0.05721 0.2726 0.0
H6713 H 0.52101 0.08078 0.33202 0.0
H6714 H 0.54996 0.06315 0.26784 0.0
H6715 H 0.55701 0.08458 0.32697 0.0
H6716 H 0.58187 1.01987 0.266 0.0
H6717 H 0.58434 0.05602 0.27329 0.0
H6718 H 0.55918 0.04795 0.3298 0.0
H6719 H 0.55496 1.01333 0.32261 0.0
C6720 C 0.52404 0.06394 0.2847 0.0
C6721 C 0.51592 0.06627 0.30362 0.0
C6722 C 0.54397 0.0678 0.28177 0.0
C6723 C 0.5561 0.07076 0.29822 0.0
C6724 C 0.54759 0.07963 0.315 0.0
C6725 C 0.52729 0.0769 0.31798 0.0
C6726 C 0.57723 0.02596 0.28008 0.0
C6727 C 0.56645 1.01412 0.29289 0.0
C6728 C 0.5791 0.04639 0.28431 0.0
C6729 C 0.56976 0.05471 0.30092 0.0
C6730 C 0.56508 0.04222 0.31614 0.0
C6731 C 0.56228 1.02214 0.31179 0.0
H6732 H 0.06868 0.50065 0.29244 0.0
H6733 H 0.10842 0.45705 0.30977 0.0
H6734 H 0.09421 0.52637 0.29797 0.0
H6735 H 0.13362 0.48357 0.31708 0.0
H6736 H 0.17008 0.55013 0.3074 0.0
H6737 H 0.15134 0.5203 0.29394 0.0
H6738 H 0.10724 0.52889 0.339 0.0
H6739 H 0.12579 0.5577 0.35211 0.0
C6740 C 0.08289 0.49649 0.29727 0.0
C6741 C 0.08684 0.4768 0.30009 0.0
C6742 C 0.0974 0.51119 0.30034 0.0
C6743 C 0.11563 0.50659 0.30749 0.0
C6744 C 0.11969 0.48708 0.31089 0.0
C6745 C 0.10528 0.47213 0.30707 0.0
C6746 C 0.15618 0.54563 0.314 0.0
C6747 C 0.14852 0.55661 0.33003 0.0
C6748 C 0.14579 0.52864 0.3066 0.0
C6749 C 0.12806 0.52277 0.31556 0.0
C6750 C 0.12088 0.53345 0.33188 0.0
C6751 C 0.1312 0.55011 0.33913 0.0
H6752 H 0.79857 0.7127 0.02917 0.0
H6753 H 0.8194 0.65417 0.03198 0.0
H6754 H 0.80363 0.71102 0.99416 0.0
H6755 H 0.81939 0.65045 0.99695 0.0
H6756 H 0.87308 0.6671 0.96458 0.0
H6757 H 0.85085 0.66803 0.99239 0.0
H6758 H 0.81106 0.70206 0.96016 0.0
H6759 H 0.83437 0.7023 0.93278 0.0
C6760 C 0.80208 0.69865 1.02234 0.0
C6761 C 0.81055 0.68443 0.03343 0.0
C6762 C 0.80508 0.69775 1.00208 0.0
C6763 C 0.81395 0.68123 0.99341 0.0
C6764 C 0.81415 0.66399 1.00382 0.0
C6765 C 0.81351 0.66589 0.02412 0.0
C6766 C 0.86018 0.67578 0.96398 0.0
C6767 C 0.85544 0.68479 0.94682 0.0
C6768 C 0.84697 0.67559 0.97945 0.0
C6769 C 0.82853 0.68385 0.97769 0.0
C6770 C 0.82485 0.69499 0.96153 0.0
C6771 C 0.83841 0.69563 0.94618 0.0
H6772 H 0.80333 0.47514 0.06435 0.0
H6773 H 0.85973 0.50627 0.06829 0.0
H6774 H 0.79006 0.49965 0.08803 0.0
H6775 H 0.84691 0.53086 0.09094 0.0
H6776 H 0.82217 0.56447 0.14455 0.0
H6777 H 0.83563 0.53812 0.12312 0.0
H6778 H 0.78109 0.53262 0.09078 0.0
H6779 H 0.76792 0.55793 0.11283 0.0
C6780 C 0.81298 0.48701 0.0705 0.0
C6781 C 0.83278 0.48844 0.06483 0.0
C6782 C 0.80539 0.50124 0.08385 0.0
C6783 C 0.81745 0.51729 0.09163 0.0
C6784 C 0.83721 0.51858 0.08578 0.0
C6785 C 0.84463 0.50443 0.07256 0.0
C6786 C 0.81321 0.55754 0.13281 0.0
C6787 C 0.79402 0.56332 0.13008 0.0
C6788 C 0.82087 0.54251 0.12046 0.0
C6789 C 0.80943 0.53305 0.10514 0.0
C6790 C 0.7903 0.53914 0.10252 0.0
C6791 C 0.78278 0.55395 0.11494 0.0
H6792 H 0.69412 0.80413 0.07016 0.0
H6793 H 0.63626 0.8258 0.06432 0.0
H6794 H 0.68965 0.80391 0.10499 0.0
H6795 H 0.62985 0.82126 0.09853 0.0
H6796 H 0.64304 0.86941 0.1452 0.0
H6797 H 0.63984 0.84865 0.11538 0.0
H6798 H 0.686 0.81278 0.13558 0.0
H6799 H 0.69014 0.83482 0.16405 0.0
C6800 C 0.67969 0.80702 0.07617 0.0
C6801 C 0.66602 0.81624 0.06502 0.0
C6802 C 0.67704 0.80704 0.09639 0.0
C6803 C 0.66017 0.81533 0.10481 0.0
C6804 C 0.6439 0.81714 0.09256 0.0
C6805 C 0.64717 0.81885 0.07261 0.0
C6806 C 0.65296 0.85755 0.14261 0.0
C6807 C 0.66729 0.85415 0.15639 0.0
C6808 C 0.65065 0.84495 0.12594 0.0
C6809 C 0.66196 0.82805 0.1232 0.0
C6810 C 0.6767 0.8252 0.13691 0.0
C6811 C 0.67948 0.83819 0.15313 0.0
H6812 H 0.29951 0.63275 0.08767 0.0
H6813 H 0.35146 0.59877 0.07982 0.0
H6814 H 0.28378 0.60711 0.10395 0.0
H6815 H 0.33352 0.57168 0.09568 0.0
H6816 H 0.30591 0.5324 0.13745 0.0
H6817 H 0.30588 0.54768 0.10596 0.0
H6818 H 0.29505 0.60382 0.13619 0.0
H6819 H 0.29455 0.58843 0.1673 0.0
C6820 C 0.3074 0.61947 0.0878 0.0
C6821 C 0.32756 0.61874 0.08292 0.0
C6822 C 0.29772 0.60432 0.09711 0.0
C6823 C 0.30744 0.5876 0.10128 0.0
C6824 C 0.32607 0.58486 0.093 0.0
C6825 C 0.33629 0.60047 0.08404 0.0
C6826 C 0.30282 0.5479 0.1373 0.0
C6827 C 0.3017 0.55976 0.15489 0.0
C6828 C 0.30287 0.55656 0.11923 0.0
C6829 C 0.3011 0.57694 0.11866 0.0
C6830 C 0.29661 0.58801 0.13608 0.0
C6831 C 0.29665 0.57935 0.15405 0.0
H6832 H 0.47723 0.37668 0.09735 0.0
H6833 H 0.44193 0.35975 0.14699 0.0
H6834 H 0.50146 0.35402 0.10632 0.0
H6835 H 0.46451 0.33619 0.15478 0.0
H6836 H 0.51801 0.30941 0.17671 0.0
H6837 H 0.48743 0.31977 0.16462 0.0
H6838 H 0.51463 0.32606 0.10726 0.0
H6839 H 0.54471 0.31504 0.12051 0.0
C6840 C 0.4752 0.36896 0.11079 0.0
C6841 C 0.45756 0.37 0.12129 0.0
C6842 C 0.48875 0.35524 0.11557 0.0
C6843 C 0.48513 0.3425 0.13104 0.0
C6844 C 0.46847 0.34535 0.14279 0.0
C6845 C 0.45541 0.35946 0.13848 0.0
C6846 C 0.51698 0.31228 0.16126 0.0
C6847 C 0.53395 0.31672 0.15044 0.0
C6848 C 0.49954 0.31921 0.1544 0.0
C6849 C 0.49938 0.32751 0.13573 0.0
C6850 C 0.51494 0.32301 0.12265 0.0
C6851 C 0.53193 0.31564 0.13 0.0
H6852 H 0.3722 0.41883 1.00529 0.0
H6853 H 0.3661 0.46977 0.97271 0.0
H6854 H 0.37234 0.4403 0.03584 0.0
H6855 H 0.3736 0.49084 1.00006 0.0
H6856 H 0.35165 0.5261 0.02595 0.0
H6857 H 0.37917 0.5056 0.03366 0.0
H6858 H 0.3379 0.45708 0.03769 0.0
H6859 H 0.31087 0.4802 0.03441 0.0
C6860 C 0.37267 0.43464 1.00439 0.0
C6861 C 0.36813 0.44275 0.98653 0.0
C6862 C 0.37343 0.44692 1.02173 0.0
C6863 C 0.37238 0.4675 1.0205 0.0
C6864 C 0.37469 0.47523 1.0019 0.0
C6865 C 0.37178 0.46297 0.98522 0.0
C6866 C 0.34874 0.51198 0.0313 0.0
C6867 C 0.32976 0.50397 0.02867 0.0
C6868 C 0.36423 0.5 0.0355 0.0
C6869 C 0.36068 0.47949 0.03477 0.0
C6870 C 0.34123 0.47266 0.03749 0.0
C6871 C 0.32586 0.4853 0.035 0.0
H6872 H 0.6226 0.29769 0.97822 0.0
H6873 H 0.60126 0.34929 1.01048 0.0
H6874 H 0.58998 0.28417 0.97467 0.0
H6875 H 0.56799 0.33741 1.0024 0.0
H6876 H 0.51606 0.32999 0.97231 0.0
H6877 H 0.53811 0.31745 0.9961 0.0
H6878 H 0.57633 0.29887 0.94823 0.0
H6879 H 0.5543 0.31114 0.92495 0.0
C6880 C 0.61118 0.30612 0.98513 0.0
C6881 C 0.61496 0.32492 0.99464 0.0
C6882 C 0.59223 0.29825 0.98281 0.0
C6883 C 0.5765 0.31012 0.98717 0.0
C6884 C 0.57989 0.32796 0.99848 0.0
C6885 C 0.59905 0.33515 1.0025 0.0
C6886 C 0.52877 0.32236 0.96697 0.0
C6887 C 0.53425 0.32226 0.94707 0.0
C6888 C 0.5413 0.31512 0.98058 0.0
C6889 C 0.55929 0.30792 0.9742 0.0
C6890 C 0.56269 0.30449 0.95387 0.0
C6891 C 0.55022 0.31176 0.94037 0.0
H6892 H 0.47498 0.81329 0.07143 0.0
H6893 H 0.45114 0.82676 1.01621 0.0
H6894 H 0.50789 0.81334 0.05738 0.0
H6895 H 0.48397 0.8273 1.00171 0.0
H6896 H 0.52705 0.87976 1.00787 0.0
H6897 H 0.49982 0.86077 1.02215 0.0
H6898 H 0.53722 0.81278 0.03041 0.0
H6899 H 0.56468 0.83207 1.01616 0.0
C6900 C 0.47669 0.81563 0.05605 0.0
C6901 C 0.46144 0.82347 0.04557 0.0
C6902 C 0.49552 0.81552 0.04796 0.0
C6903 C 0.4984 0.82232 0.02913 0.0
C6904 C 0.48205 0.8234 1.01684 0.0
C6905 C 0.46332 0.82355 0.02516 0.0
C6906 C 0.52972 0.86547 1.01337 0.0
C6907 C 0.54695 0.8561 1.00833 0.0
C6908 C 0.51397 0.85434 1.02071 0.0
C6909 C 0.51613 0.83457 0.02499 0.0
C6910 C 0.53498 0.82741 0.02552 0.0
C6911 C 0.55068 0.83866 1.01781 0.0
loop_
_geom_bond_atom_site_label_1
_geom_bond_atom_site_label_2
_geom_bond_distance
_geom_bond_site_symmetry_2
_ccdc_geom_bond_type
C0 C2 1.422 . S
C0 C4 1.415 . S
C0 N6 1.369 1_655 S
C1 C2 1.421 . S
C1 C3 1.417 . S
C1 C13 1.422 . S
C2 C0 1.422 . S
C2 C1 1.421 . S
C2 N12 1.359 . S
C3 C1 1.417 . S
C3 C5 1.329 . S
C3 H22 0.930 . S
C4 C0 1.415 . S
C4 C5 1.437 . S
C4 C8 1.413 . S
C5 C3 1.329 . S
C5 C4 1.437 . S
C5 H27 0.929 . S
N6 C0 1.369 1_455 S
N6 C7 1.338 . S
N6 Gd11 2.622 . S
C7 N6 1.338 . S
C7 C9 1.378 1_455 S
C7 H19 0.929 . S
C8 C4 1.413 . S
C8 C9 1.348 . S
C8 H24 0.931 . S
C9 C7 1.378 1_655 S
C9 C8 1.348 . S
C9 H25 0.930 . S
Gd10 N30 2.622 . S
Gd10 N37 2.570 . S
Gd10 O44 2.353 . S
Gd10 O45 2.468 . S
Gd10 O46 2.427 . S
Gd10 O48 2.388 . S
Gd10 O49 2.386 . S
Gd10 O53 2.307 . S
Gd10 C63 2.805 . S
Gd11 N6 2.622 . S
Gd11 N12 2.570 1_455 S
Gd11 O43 2.386 . S
Gd11 O47 2.307 . S
Gd11 O50 2.353 . S
Gd11 O51 2.468 . S
Gd11 O52 2.427 . S
Gd11 O54 2.388 . S
Gd11 C75 2.805 . S
N12 C2 1.359 . S
N12 Gd11 2.570 1_655 S
N12 C14 1.343 . S
C13 C1 1.422 . S
C13 C15 1.321 . S
C13 H21 0.931 . S
C14 N12 1.343 . S
C14 C15 1.390 . S
C14 H16 0.931 1_655 S
C15 C13 1.321 . S
C15 C14 1.390 . S
C15 H17 0.930 . S
H16 C14 0.931 1_455 S
H17 C15 0.930 . S
H18 C41 0.931 . S
H19 C7 0.929 . S
H20 C42 0.930 . S
H21 C13 0.931 . S
H22 C3 0.930 . S
H23 C32 0.929 . S
H24 C8 0.931 . S
H25 C9 0.930 . S
H26 C64 0.930 . S
H27 C5 0.929 . S
H28 C33 0.931 . S
H29 C34 0.930 . S
N30 Gd10 2.622 . S
N30 C31 1.369 . S
N30 C32 1.338 . S
C31 N30 1.369 . S
C31 C35 1.415 . S
C31 C38 1.422 . S
C32 H23 0.929 . S
C32 N30 1.338 . S
C32 C34 1.378 . S
C33 H28 0.931 . S
C33 C34 1.348 . S
C33 C35 1.413 . S
C34 H29 0.930 . S
C34 C32 1.378 . S
C34 C33 1.348 . S
C35 C31 1.415 . S
C35 C33 1.413 . S
C35 C65 1.437 . S
H36 C65 0.929 . S
N37 Gd10 2.570 . S
N37 C38 1.359 . S
N37 C41 1.343 . S
C38 C31 1.422 . S
C38 N37 1.359 . S
C38 C40 1.421 . S
C39 C40 1.422 . S
C39 C42 1.321 . S
C39 H66 0.931 . S
C40 C38 1.421 . S
C40 C39 1.422 . S
C40 C64 1.417 . S
C41 H18 0.931 . S
C41 N37 1.343 . S
C41 C42 1.390 . S
C42 H20 0.930 . S
C42 C39 1.321 . S
C42 C41 1.390 . S
O43 Gd11 2.386 . S
O43 C55 1.265 . S
O44 Gd10 2.353 . S
O44 C55 1.242 . S
O45 Gd10 2.468 . S
O45 C63 1.263 . S
O46 Gd10 2.427 . S
O46 C63 1.252 . S
O47 Gd11 2.307 . S
O47 C56 1.261 . S
O48 Gd10 2.388 . S
O48 C56 1.252 . S
O49 Gd10 2.386 . S
O49 C67 1.265 . S
O50 Gd11 2.353 . S
O50 C67 1.242 . S
O51 Gd11 2.468 . S
O51 C75 1.263 . S
O52 Gd11 2.427 . S
O52 C75 1.252 . S
O53 Gd10 2.307 . S
O53 C68 1.261 . S
O54 Gd11 2.388 . S
O54 C68 1.252 . S
C55 O43 1.265 . S
C55 O44 1.242 . S
C56 O47 1.261 . S
C56 O48 1.252 . S
C57 C60 1.394 . S
C57 C62 1.370 . S
C57 C63 1.500 . S
C58 C61 1.383 . S
C58 C62 1.395 . S
C59 C60 1.396 . S
C59 C61 1.365 . S
C59 H76 0.929 . S
C60 C57 1.394 . S
C60 C59 1.396 . S
C60 H77 0.930 . S
C61 C58 1.383 . S
C61 C59 1.365 . S
C61 H78 0.931 . S
C62 C57 1.370 . S
C62 C58 1.395 . S
C62 H79 0.930 . S
C63 Gd10 2.805 . S
C63 O45 1.263 . S
C63 O46 1.252 . S
C63 C57 1.500 . S
C64 H26 0.930 . S
C64 C40 1.417 . S
C64 C65 1.329 . S
C65 C35 1.437 . S
C65 H36 0.929 . S
C65 C64 1.329 . S
H66 C39 0.931 . S
C67 O49 1.265 . S
C67 O50 1.242 . S
C68 O53 1.261 . S
C68 O54 1.252 . S
C69 C72 1.394 . S
C69 C74 1.370 . S
C69 C75 1.500 . S
C70 C73 1.383 1_455 S
C70 C74 1.395 . S
C71 C72 1.396 1_655 S
C71 C73 1.365 . S
C71 H80 0.929 . S
C72 C69 1.394 . S
C72 C71 1.396 1_455 S
C72 H81 0.930 . S
C73 C70 1.383 1_655 S
C73 C71 1.365 . S
C73 H82 0.931 . S
C74 C69 1.370 . S
C74 C70 1.395 . S
C74 H83 0.930 . S
C75 Gd11 2.805 . S
C75 O51 1.263 . S
C75 O52 1.252 . S
C75 C69 1.500 . S
H76 C59 0.929 . S
H77 C60 0.930 . S
H78 C61 0.931 . S
H79 C62 0.930 . S
H80 C71 0.929 . S
H81 C72 0.930 . S
H82 C73 0.931 . S
H83 C74 0.930 . S
C84 C86 1.422 . S
C84 C88 1.415 . S
C84 N90 1.369 . S
C85 C86 1.421 . S
C85 C87 1.417 . S
C85 C97 1.422 . S
C86 C84 1.422 . S
C86 C85 1.421 . S
C86 N96 1.359 . S
C87 C85 1.417 . S
C87 C89 1.329 . S
C87 H106 0.930 . S
C88 C84 1.415 . S
C88 C89 1.437 . S
C88 C92 1.413 . S
C89 C87 1.329 . S
C89 C88 1.437 . S
C89 H111 0.929 . S
N90 C84 1.369 . S
N90 C91 1.338 . S
N90 Gd95 2.622 1_565 S
C91 N90 1.338 . S
C91 C93 1.378 . S
C91 H103 0.929 . S
C92 C88 1.413 . S
C92 C93 1.348 . S
C92 H108 0.931 . S
C93 C91 1.378 . S
C93 C92 1.348 . S
C93 H109 0.930 . S
Gd94 N114 2.622 . S
Gd94 N121 2.570 . S
Gd94 O128 2.353 . S
Gd94 O129 2.468 . S
Gd94 O130 2.427 . S
Gd94 O132 2.388 . S
Gd94 O133 2.386 . S
Gd94 O137 2.307 . S
Gd94 C147 2.805 . S
Gd95 N90 2.622 1_545 S
Gd95 N96 2.570 1_545 S
Gd95 O127 2.387 . S
Gd95 O131 2.307 . S
Gd95 O134 2.353 . S
Gd95 O135 2.468 1_545 S
Gd95 O136 2.427 1_545 S
Gd95 O138 2.388 . S
Gd95 C159 2.805 1_545 S
N96 C86 1.359 . S
N96 Gd95 2.570 1_565 S
N96 C98 1.343 . S
C97 C85 1.422 . S
C97 C99 1.321 . S
C97 H105 0.931 . S
C98 N96 1.343 . S
C98 C99 1.390 . S
C98 H100 0.931 . S
C99 C97 1.321 . S
C99 C98 1.390 . S
C99 H101 0.930 . S
H100 C98 0.931 . S
H101 C99 0.930 . S
H102 C125 0.931 . S
H103 C91 0.929 . S
H104 C126 0.930 . S
H105 C97 0.931 . S
H106 C87 0.930 . S
H107 C116 0.929 . S
H108 C92 0.931 . S
H109 C93 0.930 . S
H110 C148 0.930 . S
H111 C89 0.929 . S
H112 C117 0.931 . S
H113 C118 0.930 . S
N114 Gd94 2.622 . S
N114 C115 1.369 . S
N114 C116 1.338 . S
C115 N114 1.369 . S
C115 C119 1.415 . S
C115 C122 1.422 . S
C116 H107 0.929 . S
C116 N114 1.338 . S
C116 C118 1.378 . S
C117 H112 0.931 . S
C117 C118 1.348 . S
C117 C119 1.413 . S
C118 H113 0.930 . S
C118 C116 1.378 . S
C118 C117 1.348 . S
C119 C115 1.415 . S
C119 C117 1.413 . S
C119 C149 1.437 . S
H120 C149 0.929 . S
N121 Gd94 2.570 . S
N121 C122 1.359 . S
N121 C125 1.343 . S
C122 C115 1.422 . S
C122 N121 1.359 . S
C122 C124 1.421 . S
C123 C124 1.422 . S
C123 C126 1.321 . S
C123 H150 0.931 . S
C124 C122 1.421 . S
C124 C123 1.422 . S
C124 C148 1.417 . S
C125 H102 0.931 . S
C125 N121 1.343 . S
C125 C126 1.390 . S
C126 H104 0.930 . S
C126 C123 1.321 . S
C126 C125 1.390 . S
O127 Gd95 2.387 . S
O127 C139 1.274 . S
O128 Gd94 2.353 . S
O128 C139 1.242 . S
O129 Gd94 2.468 . S
O129 C147 1.263 . S
O130 Gd94 2.427 . S
O130 C147 1.252 . S
O131 Gd95 2.307 . S
O131 C140 1.261 . S
O132 Gd94 2.388 . S
O132 C140 1.252 . S
O133 Gd94 2.386 . S
O133 C151 1.265 . S
O134 Gd95 2.353 . S
O134 C151 1.242 . S
O135 Gd95 2.468 1_565 S
O135 C159 1.263 . S
O136 Gd95 2.427 1_565 S
O136 C159 1.252 . S
O137 Gd94 2.307 . S
O137 C152 1.261 . S
O138 Gd95 2.388 . S
O138 C152 1.252 . S
C139 O127 1.274 . S
C139 O128 1.242 . S
C140 O131 1.261 . S
C140 O132 1.252 . S
C141 C144 1.394 . S
C141 C146 1.370 . S
C141 C147 1.500 . S
C142 C145 1.383 . S
C142 C146 1.395 . S
C143 C144 1.396 . S
C143 C145 1.365 . S
C143 H160 0.929 . S
C144 C141 1.394 . S
C144 C143 1.396 . S
C144 H161 0.930 . S
C145 C142 1.383 . S
C145 C143 1.365 . S
C145 H162 0.931 . S
C146 C141 1.370 . S
C146 C142 1.395 . S
C146 H163 0.930 . S
C147 Gd94 2.805 . S
C147 O129 1.263 . S
C147 O130 1.252 . S
C147 C141 1.500 . S
C148 H110 0.930 . S
C148 C124 1.417 . S
C148 C149 1.329 . S
C149 C119 1.437 . S
C149 H120 0.929 . S
C149 C148 1.329 . S
H150 C123 0.931 . S
C151 O133 1.265 . S
C151 O134 1.242 . S
C152 O137 1.261 . S
C152 O138 1.252 . S
C153 C156 1.394 . S
C153 C158 1.370 . S
C153 C159 1.500 . S
C154 C157 1.383 . S
C154 C158 1.395 . S
C155 C156 1.396 . S
C155 C157 1.365 . S
C155 H164 0.929 . S
C156 C153 1.394 . S
C156 C155 1.396 . S
C156 H165 0.930 . S
C157 C154 1.383 . S
C157 C155 1.365 . S
C157 H166 0.931 . S
C158 C153 1.370 . S
C158 C154 1.395 . S
C158 H167 0.930 . S
C159 Gd95 2.805 1_565 S
C159 O135 1.263 . S
C159 O136 1.252 . S
C159 C153 1.500 . S
H160 C143 0.929 . S
H161 C144 0.930 . S
H162 C145 0.931 . S
H163 C146 0.930 . S
H164 C155 0.929 . S
H165 C156 0.930 . S
H166 C157 0.931 . S
H167 C158 0.930 . S
C168 C170 1.422 . S
C168 C172 1.415 . S
C168 N174 1.369 . S
C169 C170 1.421 . S
C169 C171 1.417 . S
C169 C181 1.422 . S
C170 C168 1.422 . S
C170 C169 1.421 . S
C170 N180 1.359 . S
C171 C169 1.417 . S
C171 C173 1.329 . S
C171 H190 0.930 . S
C172 C168 1.415 . S
C172 C173 1.437 . S
C172 C176 1.413 . S
C173 C171 1.329 . S
C173 C172 1.437 . S
C173 H195 0.929 . S
N174 C168 1.369 . S
N174 C175 1.338 . S
N174 Gd179 2.622 . S
C175 N174 1.338 . S
C175 C177 1.378 . S
C175 H187 0.929 . S
C176 C172 1.413 . S
C176 C177 1.348 . S
C176 H192 0.931 . S
C177 C175 1.378 . S
C177 C176 1.348 . S
C177 H193 0.930 . S
Gd178 N198 2.622 . S
Gd178 N205 2.570 . S
Gd178 O212 2.353 1_655 S
Gd178 O213 2.468 . S
Gd178 O214 2.427 . S
Gd178 O216 2.388 . S
Gd178 O217 2.386 . S
Gd178 O221 2.307 . S
Gd178 C231 2.805 . S
Gd179 N174 2.622 . S
Gd179 N180 2.570 . S
Gd179 O211 2.386 . S
Gd179 O215 2.307 . S
Gd179 O218 2.309 1_455 S
Gd179 O219 2.468 . S
Gd179 O220 2.427 . S
Gd179 O222 2.388 . S
Gd179 C243 2.805 . S
N180 C170 1.359 . S
N180 Gd179 2.570 . S
N180 C182 1.343 . S
C181 C169 1.422 . S
C181 C183 1.321 . S
C181 H189 0.931 . S
C182 N180 1.343 . S
C182 C183 1.390 . S
C182 H184 0.931 . S
C183 C181 1.321 . S
C183 C182 1.390 . S
C183 H185 0.930 . S
H184 C182 0.931 . S
H185 C183 0.930 . S
H186 C209 0.931 . S
H187 C175 0.929 . S
H188 C210 0.930 . S
H189 C181 0.931 . S
H190 C171 0.930 . S
H191 C200 0.929 . S
H192 C176 0.931 . S
H193 C177 0.930 . S
H194 C232 0.930 . S
H195 C173 0.929 . S
H196 C201 0.931 . S
H197 C202 0.930 . S
N198 Gd178 2.622 . S
N198 C199 1.369 . S
N198 C200 1.338 . S
C199 N198 1.369 . S
C199 C203 1.415 . S
C199 C206 1.422 . S
C200 H191 0.929 . S
C200 N198 1.338 . S
C200 C202 1.378 . S
C201 H196 0.931 . S
C201 C202 1.348 . S
C201 C203 1.413 . S
C202 H197 0.930 . S
C202 C200 1.378 . S
C202 C201 1.348 . S
C203 C199 1.415 . S
C203 C201 1.413 . S
C203 C233 1.437 . S
H204 C233 0.929 . S
N205 Gd178 2.570 . S
N205 C206 1.359 . S
N205 C209 1.343 . S
C206 C199 1.422 . S
C206 N205 1.359 . S
C206 C208 1.421 . S
C207 C208 1.422 . S
C207 C210 1.321 . S
C207 H234 0.931 . S
C208 C206 1.421 . S
C208 C207 1.422 . S
C208 C232 1.417 . S
C209 H186 0.931 . S
C209 N205 1.343 . S
C209 C210 1.390 . S
C210 H188 0.930 . S
C210 C207 1.321 . S
C210 C209 1.390 . S
O211 Gd179 2.386 . S
O211 C223 1.265 . S
O212 Gd178 2.353 1_455 S
O212 C223 1.242 . S
O213 Gd178 2.468 . S
O213 C231 1.263 . S
O214 Gd178 2.427 . S
O214 C231 1.252 . S
O215 Gd179 2.307 . S
O215 C224 1.261 . S
O216 Gd178 2.388 . S
O216 C224 1.252 1_655 S
O217 Gd178 2.386 . S
O217 C235 1.265 . S
O218 Gd179 2.309 1_655 S
O218 C235 1.293 . S
O219 Gd179 2.468 . S
O219 C243 1.263 . S
O220 Gd179 2.427 . S
O220 C243 1.252 . S
O221 Gd178 2.307 . S
O221 C236 1.261 . S
O222 Gd179 2.388 . S
O222 C236 1.252 1_455 S
C223 O211 1.265 . S
C223 O212 1.242 . S
C224 O215 1.261 . S
C224 O216 1.252 1_455 S
C225 C228 1.394 . S
C225 C230 1.370 . S
C225 C231 1.500 . S
C226 C229 1.383 . S
C226 C230 1.395 . S
C227 C228 1.396 . S
C227 C229 1.365 . S
C227 H244 0.929 . S
C228 C225 1.394 . S
C228 C227 1.396 . S
C228 H245 0.930 . S
C229 C226 1.383 . S
C229 C227 1.365 . S
C229 H246 0.931 . S
C230 C225 1.370 . S
C230 C226 1.395 . S
C230 H247 0.930 . S
C231 Gd178 2.805 . S
C231 O213 1.263 . S
C231 O214 1.252 . S
C231 C225 1.500 . S
C232 H194 0.930 . S
C232 C208 1.417 . S
C232 C233 1.329 . S
C233 C203 1.437 . S
C233 H204 0.929 . S
C233 C232 1.329 . S
H234 C207 0.931 . S
C235 O217 1.265 . S
C235 O218 1.293 . S
C236 O221 1.261 . S
C236 O222 1.252 1_655 S
C237 C240 1.394 . S
C237 C242 1.370 . S
C237 C243 1.500 . S
C238 C241 1.383 . S
C238 C242 1.395 . S
C239 C240 1.396 . S
C239 C241 1.365 . S
C239 H248 0.929 . S
C240 C237 1.394 . S
C240 C239 1.396 . S
C240 H249 0.930 . S
C241 C238 1.383 . S
C241 C239 1.365 . S
C241 H250 0.931 . S
C242 C237 1.370 . S
C242 C238 1.395 . S
C242 H251 0.930 . S
C243 Gd179 2.805 . S
C243 O219 1.263 . S
C243 O220 1.252 . S
C243 C237 1.500 . S
H244 C227 0.929 . S
H245 C228 0.930 . S
H246 C229 0.931 . S
H247 C230 0.930 . S
H248 C239 0.929 . S
H249 C240 0.930 . S
H250 C241 0.931 . S
H251 C242 0.930 . S
C252 C254 1.422 . S
C252 C256 1.415 . S
C252 N258 1.369 . S
C253 C254 1.421 . S
C253 C255 1.417 . S
C253 C265 1.422 . S
C254 C252 1.422 . S
C254 C253 1.421 . S
C254 N264 1.359 . S
C255 C253 1.417 . S
C255 C257 1.329 . S
C255 H274 0.930 . S
C256 C252 1.415 . S
C256 C257 1.437 . S
C256 C260 1.413 . S
C257 C255 1.329 . S
C257 C256 1.437 . S
C257 H279 0.929 . S
N258 C252 1.369 . S
N258 C259 1.338 . S
N258 Gd263 2.622 . S
C259 N258 1.338 . S
C259 C261 1.378 . S
C259 H271 0.929 . S
C260 C256 1.413 . S
C260 C261 1.348 . S
C260 H276 0.931 . S
C261 C259 1.378 . S
C261 C260 1.348 . S
C261 H277 0.930 . S
Gd262 N282 2.622 . S
Gd262 N289 2.570 . S
Gd262 O296 2.353 . S
Gd262 O297 2.468 . S
Gd262 O298 2.427 . S
Gd262 O300 2.388 . S
Gd262 O301 2.386 . S
Gd262 O305 2.307 . S
Gd262 C315 2.805 . S
Gd263 N258 2.622 . S
Gd263 N264 2.570 . S
Gd263 O295 2.386 . S
Gd263 O299 2.307 . S
Gd263 O302 2.353 . S
Gd263 O303 2.468 . S
Gd263 O304 2.427 . S
Gd263 O306 2.388 . S
Gd263 C327 2.805 . S
N264 C254 1.359 . S
N264 Gd263 2.570 . S
N264 C266 1.343 . S
C265 C253 1.422 . S
C265 C267 1.321 . S
C265 H273 0.931 . S
C266 N264 1.343 . S
C266 C267 1.390 . S
C266 H268 0.931 . S
C267 C265 1.321 . S
C267 C266 1.390 . S
C267 H269 0.930 . S
H268 C266 0.931 . S
H269 C267 0.930 . S
H270 C293 0.931 . S
H271 C259 0.929 . S
H272 C294 0.930 . S
H273 C265 0.931 . S
H274 C255 0.930 . S
H275 C284 0.929 . S
H276 C260 0.931 . S
H277 C261 0.930 . S
H278 C316 0.930 . S
H279 C257 0.929 . S
H280 C285 0.931 . S
H281 C286 0.930 . S
N282 Gd262 2.622 . S
N282 C283 1.369 . S
N282 C284 1.338 . S
C283 N282 1.369 . S
C283 C287 1.415 . S
C283 C290 1.422 . S
C284 H275 0.929 . S
C284 N282 1.338 . S
C284 C286 1.378 . S
C285 H280 0.931 . S
C285 C286 1.348 . S
C285 C287 1.413 . S
C286 H281 0.930 . S
C286 C284 1.378 . S
C286 C285 1.348 . S
C287 C283 1.415 . S
C287 C285 1.413 . S
C287 C317 1.437 1_545 S
H288 C317 0.929 . S
N289 Gd262 2.570 . S
N289 C290 1.359 . S
N289 C293 1.343 . S
C290 C283 1.422 . S
C290 N289 1.359 . S
C290 C292 1.421 . S
C291 C292 1.422 . S
C291 C294 1.321 . S
C291 H318 0.931 1_545 S
C292 C290 1.421 . S
C292 C291 1.422 . S
C292 C316 1.417 1_545 S
C293 H270 0.931 . S
C293 N289 1.343 . S
C293 C294 1.390 . S
C294 H272 0.930 . S
C294 C291 1.321 . S
C294 C293 1.390 . S
O295 Gd263 2.386 . S
O295 C307 1.265 . S
O296 Gd262 2.353 . S
O296 C307 1.242 . S
O297 Gd262 2.468 . S
O297 C315 1.263 . S
O298 Gd262 2.427 . S
O298 C315 1.252 . S
O299 Gd263 2.307 . S
O299 C308 1.261 . S
O300 Gd262 2.388 . S
O300 C308 1.252 . S
O301 Gd262 2.386 . S
O301 C319 1.265 . S
O302 Gd263 2.353 . S
O302 C319 1.242 . S
O303 Gd263 2.468 . S
O303 C327 1.263 . S
O304 Gd263 2.427 . S
O304 C327 1.252 . S
O305 Gd262 2.307 . S
O305 C320 1.261 . S
O306 Gd263 2.388 . S
O306 C320 1.252 . S
C307 O295 1.265 . S
C307 O296 1.242 . S
C308 O299 1.261 . S
C308 O300 1.252 . S
C309 C312 1.394 . S
C309 C314 1.370 . S
C309 C315 1.500 . S
C310 C313 1.383 . S
C310 C314 1.395 . S
C311 C312 1.396 . S
C311 C313 1.365 . S
C311 H328 0.929 . S
C312 C309 1.394 . S
C312 C311 1.396 . S
C312 H329 0.930 . S
C313 C310 1.383 . S
C313 C311 1.365 . S
C313 H330 0.931 . S
C314 C309 1.370 . S
C314 C310 1.395 . S
C314 H331 0.930 . S
C315 Gd262 2.805 . S
C315 O297 1.263 . S
C315 O298 1.252 . S
C315 C309 1.500 . S
C316 H278 0.930 . S
C316 C292 1.417 1_565 S
C316 C317 1.329 . S
C317 C287 1.437 1_565 S
C317 H288 0.929 . S
C317 C316 1.329 . S
H318 C291 0.931 1_565 S
C319 O301 1.265 . S
C319 O302 1.242 . S
C320 O305 1.261 . S
C320 O306 1.252 . S
C321 C324 1.394 . S
C321 C326 1.370 . S
C321 C327 1.500 . S
C322 C325 1.383 . S
C322 C326 1.395 . S
C323 C324 1.396 . S
C323 C325 1.365 . S
C323 H332 0.929 . S
C324 C321 1.394 . S
C324 C323 1.396 . S
C324 H333 0.930 . S
C325 C322 1.383 . S
C325 C323 1.365 . S
C325 H334 0.931 . S
C326 C321 1.370 . S
C326 C322 1.395 . S
C326 H335 0.930 . S
C327 Gd263 2.805 . S
C327 O303 1.263 . S
C327 O304 1.252 . S
C327 C321 1.500 . S
H328 C311 0.929 . S
H329 C312 0.930 . S
H330 C313 0.931 . S
H331 C314 0.930 . S
H332 C323 0.929 . S
H333 C324 0.930 . S
H334 C325 0.931 . S
H335 C326 0.930 . S
C336 C338 1.422 . S
C336 C340 1.415 . S
C336 N342 1.369 . S
C337 C338 1.421 . S
C337 C339 1.417 . S
C337 C349 1.422 . S
C338 C336 1.422 . S
C338 C337 1.421 . S
C338 N348 1.359 . S
C339 C337 1.417 . S
C339 C341 1.329 . S
C339 H358 0.930 . S
C340 C336 1.415 . S
C340 C341 1.437 . S
C340 C344 1.413 . S
C341 C339 1.329 . S
C341 C340 1.437 . S
C341 H363 0.929 . S
N342 C336 1.369 . S
N342 C343 1.338 . S
N342 Gd347 2.622 1_655 S
C343 N342 1.338 . S
C343 C345 1.378 . S
C343 H355 0.929 . S
C344 C340 1.413 . S
C344 C345 1.348 . S
C344 H360 0.931 . S
C345 C343 1.378 . S
C345 C344 1.348 . S
C345 H361 0.930 . S
Gd346 N366 2.622 . S
Gd346 N373 2.570 . S
Gd346 O380 2.353 . S
Gd346 O381 2.468 . S
Gd346 O382 2.427 . S
Gd346 O384 2.388 . S
Gd346 O385 2.386 . S
Gd346 O389 2.307 . S
Gd346 C399 2.805 . S
Gd347 N342 2.622 1_455 S
Gd347 N348 2.570 1_455 S
Gd347 O379 2.386 . S
Gd347 O383 2.307 . S
Gd347 O386 2.353 . S
Gd347 O387 2.468 1_455 S
Gd347 O388 2.427 1_455 S
Gd347 O390 2.388 . S
Gd347 C411 2.805 1_455 S
N348 C338 1.359 . S
N348 Gd347 2.570 1_655 S
N348 C350 1.343 . S
C349 C337 1.422 . S
C349 C351 1.321 . S
C349 H357 0.931 . S
C350 N348 1.343 . S
C350 C351 1.390 . S
C350 H352 0.931 . S
C351 C349 1.321 . S
C351 C350 1.390 . S
C351 H353 0.930 . S
H352 C350 0.931 . S
H353 C351 0.930 . S
H354 C377 0.931 . S
H355 C343 0.929 . S
H356 C378 0.930 . S
H357 C349 0.931 . S
H358 C339 0.930 . S
H359 C368 0.929 . S
H360 C344 0.931 . S
H361 C345 0.930 . S
H362 C400 0.930 . S
H363 C341 0.929 . S
H364 C369 0.931 . S
H365 C370 0.930 . S
N366 Gd346 2.622 . S
N366 C367 1.369 . S
N366 C368 1.338 . S
C367 N366 1.369 . S
C367 C371 1.415 . S
C367 C374 1.422 . S
C368 H359 0.929 . S
C368 N366 1.338 . S
C368 C370 1.378 . S
C369 H364 0.931 . S
C369 C370 1.348 . S
C369 C371 1.413 . S
C370 H365 0.930 . S
C370 C368 1.378 . S
C370 C369 1.348 . S
C371 C367 1.415 . S
C371 C369 1.413 . S
C371 C401 1.437 . S
H372 C401 0.929 . S
N373 Gd346 2.570 . S
N373 C374 1.359 . S
N373 C377 1.343 . S
C374 C367 1.422 . S
C374 N373 1.359 . S
C374 C376 1.421 . S
C375 C376 1.422 . S
C375 C378 1.321 . S
C375 H402 0.931 . S
C376 C374 1.421 . S
C376 C375 1.422 . S
C376 C400 1.417 . S
C377 H354 0.931 . S
C377 N373 1.343 . S
C377 C378 1.390 . S
C378 H356 0.930 . S
C378 C375 1.321 . S
C378 C377 1.390 . S
O379 Gd347 2.386 . S
O379 C391 1.265 . S
O380 Gd346 2.353 . S
O380 C391 1.242 . S
O381 Gd346 2.468 . S
O381 C399 1.263 . S
O382 Gd346 2.427 . S
O382 C399 1.252 . S
O383 Gd347 2.307 . S
O383 C392 1.261 . S
O384 Gd346 2.388 . S
O384 C392 1.252 . S
O385 Gd346 2.386 . S
O385 C403 1.265 . S
O386 Gd347 2.353 . S
O386 C403 1.242 . S
O387 Gd347 2.468 1_655 S
O387 C411 1.263 . S
O388 Gd347 2.427 1_655 S
O388 C411 1.252 . S
O389 Gd346 2.307 . S
O389 C404 1.261 . S
O390 Gd347 2.388 . S
O390 C404 1.252 . S
C391 O379 1.265 . S
C391 O380 1.242 . S
C392 O383 1.261 . S
C392 O384 1.252 . S
C393 C396 1.394 . S
C393 C398 1.370 . S
C393 C399 1.500 . S
C394 C397 1.383 . S
C394 C398 1.395 . S
C395 C396 1.396 . S
C395 C397 1.365 . S
C395 H412 0.929 . S
C396 C393 1.394 . S
C396 C395 1.396 . S
C396 H413 0.930 . S
C397 C394 1.383 . S
C397 C395 1.365 . S
C397 H414 0.931 . S
C398 C393 1.370 . S
C398 C394 1.395 . S
C398 H415 0.930 . S
C399 Gd346 2.805 . S
C399 O381 1.263 . S
C399 O382 1.252 . S
C399 C393 1.500 . S
C400 H362 0.930 . S
C400 C376 1.417 . S
C400 C401 1.329 . S
C401 C371 1.437 . S
C401 H372 0.929 . S
C401 C400 1.329 . S
H402 C375 0.931 . S
C403 O385 1.265 . S
C403 O386 1.242 . S
C404 O389 1.261 . S
C404 O390 1.252 . S
C405 C408 1.394 . S
C405 C410 1.370 . S
C405 C411 1.500 . S
C406 C409 1.383 . S
C406 C410 1.395 . S
C407 C408 1.396 . S
C407 C409 1.365 . S
C407 H416 0.929 . S
C408 C405 1.394 . S
C408 C407 1.396 . S
C408 H417 0.930 . S
C409 C406 1.383 . S
C409 C407 1.365 . S
C409 H418 0.931 . S
C410 C405 1.370 . S
C410 C406 1.395 . S
C410 H419 0.930 . S
C411 Gd347 2.805 1_655 S
C411 O387 1.263 . S
C411 O388 1.252 . S
C411 C405 1.500 . S
H412 C395 0.929 . S
H413 C396 0.930 . S
H414 C397 0.931 . S
H415 C398 0.930 . S
H416 C407 0.929 . S
H417 C408 0.930 . S
H418 C409 0.931 . S
H419 C410 0.930 . S
C420 C422 1.420 1_545 S
C420 C424 1.410 1_545 S
C420 N426 1.377 . S
C421 C422 1.421 . S
C421 C423 1.417 . S
C421 C433 1.422 . S
C422 C420 1.420 1_565 S
C422 C421 1.421 . S
C422 N432 1.359 1_565 S
C423 C421 1.417 . S
C423 C425 1.329 . S
C423 H442 0.930 . S
C424 C420 1.410 1_565 S
C424 C425 1.437 . S
C424 C428 1.413 . S
C425 C423 1.329 . S
C425 C424 1.437 . S
C425 H447 0.929 . S
N426 C420 1.377 . S
N426 C427 1.338 . S
N426 Gd431 2.622 . S
C427 N426 1.338 . S
C427 C429 1.378 . S
C427 H439 0.929 . S
C428 C424 1.413 . S
C428 C429 1.348 1_565 S
C428 H444 0.931 . S
C429 C427 1.378 . S
C429 C428 1.348 1_545 S
C429 H445 0.930 . S
Gd430 N450 2.622 . S
Gd430 N457 2.570 . S
Gd430 O464 2.353 . S
Gd430 O465 2.468 . S
Gd430 O466 2.427 . S
Gd430 O468 2.388 . S
Gd430 O469 2.386 . S
Gd430 O473 2.307 . S
Gd430 C483 2.805 . S
Gd431 N426 2.622 . S
Gd431 N432 2.570 . S
Gd431 O463 2.386 . S
Gd431 O467 2.307 . S
Gd431 O470 2.353 . S
Gd431 O471 2.468 . S
Gd431 O472 2.427 . S
Gd431 O474 2.388 . S
Gd431 C495 2.805 . S
N432 C422 1.359 1_545 S
N432 Gd431 2.570 . S
N432 C434 1.343 . S
C433 C421 1.422 . S
C433 C435 1.321 . S
C433 H441 0.931 . S
C434 N432 1.343 . S
C434 C435 1.390 1_545 S
C434 H436 0.931 . S
C435 C433 1.321 . S
C435 C434 1.390 1_565 S
C435 H437 0.930 . S
H436 C434 0.931 . S
H437 C435 0.930 . S
H438 C461 0.931 . S
H439 C427 0.929 . S
H440 C462 0.930 . S
H441 C433 0.931 . S
H442 C423 0.930 . S
H443 C452 0.929 . S
H444 C428 0.931 . S
H445 C429 0.930 . S
H446 C484 0.930 . S
H447 C425 0.929 . S
H448 C453 0.931 . S
H449 C454 0.930 . S
N450 Gd430 2.622 . S
N450 C451 1.369 . S
N450 C452 1.338 . S
C451 N450 1.369 . S
C451 C455 1.415 . S
C451 C458 1.422 . S
C452 H443 0.929 . S
C452 N450 1.338 . S
C452 C454 1.378 . S
C453 H448 0.931 . S
C453 C454 1.348 . S
C453 C455 1.413 . S
C454 H449 0.930 . S
C454 C452 1.378 . S
C454 C453 1.348 . S
C455 C451 1.415 . S
C455 C453 1.413 . S
C455 C485 1.437 . S
H456 C485 0.929 . S
N457 Gd430 2.570 . S
N457 C458 1.359 . S
N457 C461 1.343 . S
C458 C451 1.422 . S
C458 N457 1.359 . S
C458 C460 1.421 . S
C459 C460 1.422 . S
C459 C462 1.321 . S
C459 H486 0.931 . S
C460 C458 1.421 . S
C460 C459 1.422 . S
C460 C484 1.417 . S
C461 H438 0.931 . S
C461 N457 1.343 . S
C461 C462 1.390 . S
C462 H440 0.930 . S
C462 C459 1.321 . S
C462 C461 1.390 . S
O463 Gd431 2.386 . S
O463 C475 1.265 . S
O464 Gd430 2.353 . S
O464 C475 1.242 . S
O465 Gd430 2.468 . S
O465 C483 1.263 . S
O466 Gd430 2.427 . S
O466 C483 1.252 . S
O467 Gd431 2.307 . S
O467 C476 1.261 . S
O468 Gd430 2.388 . S
O468 C476 1.252 . S
O469 Gd430 2.386 . S
O469 C487 1.265 . S
O470 Gd431 2.353 . S
O470 C487 1.242 . S
O471 Gd431 2.468 . S
O471 C495 1.263 . S
O472 Gd431 2.427 . S
O472 C495 1.252 . S
O473 Gd430 2.307 . S
O473 C488 1.261 . S
O474 Gd431 2.388 . S
O474 C488 1.252 . S
C475 O463 1.265 . S
C475 O464 1.242 . S
C476 O467 1.261 . S
C476 O468 1.252 . S
C477 C480 1.394 . S
C477 C482 1.370 . S
C477 C483 1.500 . S
C478 C481 1.383 . S
C478 C482 1.395 . S
C479 C480 1.396 . S
C479 C481 1.365 . S
C479 H496 0.929 . S
C480 C477 1.394 . S
C480 C479 1.396 . S
C480 H497 0.930 . S
C481 C478 1.383 . S
C481 C479 1.365 . S
C481 H498 0.931 . S
C482 C477 1.370 . S
C482 C478 1.395 . S
C482 H499 0.930 . S
C483 Gd430 2.805 . S
C483 O465 1.263 . S
C483 O466 1.252 . S
C483 C477 1.500 . S
C484 H446 0.930 . S
C484 C460 1.417 . S
C484 C485 1.329 . S
C485 C455 1.437 . S
C485 H456 0.929 . S
C485 C484 1.329 . S
H486 C459 0.931 . S
C487 O469 1.265 . S
C487 O470 1.242 . S
C488 O473 1.261 . S
C488 O474 1.252 . S
C489 C492 1.394 . S
C489 C494 1.370 . S
C489 C495 1.500 . S
C490 C493 1.383 1_545 S
C490 C494 1.395 . S
C491 C492 1.396 . S
C491 C493 1.365 1_545 S
C491 H500 0.929 1_545 S
C492 C489 1.394 . S
C492 C491 1.396 . S
C492 H501 0.930 . S
C493 C490 1.383 1_565 S
C493 C491 1.365 1_565 S
C493 H502 0.931 . S
C494 C489 1.370 . S
C494 C490 1.395 . S
C494 H503 0.930 . S
C495 Gd431 2.805 . S
C495 O471 1.263 . S
C495 O472 1.252 . S
C495 C489 1.500 . S
H496 C479 0.929 . S
H497 C480 0.930 . S
H498 C481 0.931 . S
H499 C482 0.930 . S
H500 C491 0.929 1_565 S
H501 C492 0.930 . S
H502 C493 0.931 . S
H503 C494 0.930 . S
C504 C506 1.422 . S
C504 C508 1.415 . S
C504 N510 1.369 . S
C505 C506 1.421 . S
C505 C507 1.417 . S
C505 C517 1.422 . S
C506 C504 1.422 . S
C506 C505 1.421 . S
C506 N516 1.359 . S
C507 C505 1.417 . S
C507 C509 1.329 . S
C507 H526 0.930 . S
C508 C504 1.415 . S
C508 C509 1.437 . S
C508 C512 1.413 . S
C509 C507 1.329 . S
C509 C508 1.437 . S
C509 H531 0.929 . S
N510 C504 1.369 . S
N510 C511 1.338 . S
N510 Gd515 2.622 . S
C511 N510 1.338 . S
C511 C513 1.378 . S
C511 H523 0.929 . S
C512 C508 1.413 . S
C512 C513 1.348 . S
C512 H528 0.931 . S
C513 C511 1.378 . S
C513 C512 1.348 . S
C513 H529 0.930 . S
Gd514 N534 2.622 . S
Gd514 N541 2.570 . S
Gd514 O548 2.353 . S
Gd514 O549 2.468 . S
Gd514 O550 2.427 . S
Gd514 O552 2.388 . S
Gd514 O553 2.386 . S
Gd514 O557 2.307 . S
Gd514 C567 2.805 . S
Gd515 N510 2.622 . S
Gd515 N516 2.570 . S
Gd515 O547 2.386 . S
Gd515 O551 2.307 . S
Gd515 O554 2.353 . S
Gd515 O555 2.468 . S
Gd515 O556 2.427 . S
Gd515 O558 2.388 . S
Gd515 C579 2.805 . S
N516 C506 1.359 . S
N516 Gd515 2.570 . S
N516 C518 1.343 . S
C517 C505 1.422 . S
C517 C519 1.321 . S
C517 H525 0.931 . S
C518 N516 1.343 . S
C518 C519 1.390 . S
C518 H520 0.931 . S
C519 C517 1.321 . S
C519 C518 1.390 . S
C519 H521 0.930 . S
H520 C518 0.931 . S
H521 C519 0.930 . S
H522 C545 0.931 . S
H523 C511 0.929 . S
H524 C546 0.930 . S
H525 C517 0.931 . S
H526 C507 0.930 . S
H527 C536 0.929 . S
H528 C512 0.931 . S
H529 C513 0.930 . S
H530 C568 0.930 . S
H531 C509 0.929 . S
H532 C537 0.931 1_655 S
H533 C538 0.930 . S
N534 Gd514 2.622 . S
N534 C535 1.369 . S
N534 C536 1.338 . S
C535 N534 1.369 . S
C535 C539 1.415 . S
C535 C542 1.422 . S
C536 H527 0.929 . S
C536 N534 1.338 . S
C536 C538 1.378 . S
C537 H532 0.931 1_455 S
C537 C538 1.348 . S
C537 C539 1.413 . S
C538 H533 0.930 . S
C538 C536 1.378 . S
C538 C537 1.348 . S
C539 C535 1.415 . S
C539 C537 1.413 . S
C539 C569 1.437 1_455 S
H540 C569 0.929 . S
N541 Gd514 2.570 . S
N541 C542 1.359 . S
N541 C545 1.343 . S
C542 C535 1.422 . S
C542 N541 1.359 . S
C542 C544 1.421 1_455 S
C543 C544 1.422 . S
C543 C546 1.321 1_655 S
C543 H570 0.931 . S
C544 C542 1.421 1_655 S
C544 C543 1.422 . S
C544 C568 1.417 . S
C545 H522 0.931 . S
C545 N541 1.343 . S
C545 C546 1.390 . S
C546 H524 0.930 . S
C546 C543 1.321 1_455 S
C546 C545 1.390 . S
O547 Gd515 2.386 . S
O547 C559 1.265 . S
O548 Gd514 2.353 . S
O548 C559 1.242 . S
O549 Gd514 2.468 . S
O549 C567 1.263 . S
O550 Gd514 2.427 . S
O550 C567 1.252 . S
O551 Gd515 2.307 . S
O551 C560 1.261 . S
O552 Gd514 2.388 . S
O552 C560 1.252 . S
O553 Gd514 2.386 . S
O553 C571 1.265 . S
O554 Gd515 2.353 . S
O554 C571 1.242 . S
O555 Gd515 2.468 . S
O555 C579 1.263 . S
O556 Gd515 2.427 . S
O556 C579 1.252 . S
O557 Gd514 2.307 . S
O557 C572 1.261 . S
O558 Gd515 2.388 . S
O558 C572 1.252 . S
C559 O547 1.265 . S
C559 O548 1.242 . S
C560 O551 1.261 . S
C560 O552 1.252 . S
C561 C564 1.394 . S
C561 C566 1.370 . S
C561 C567 1.500 . S
C562 C565 1.383 . S
C562 C566 1.395 . S
C563 C564 1.396 . S
C563 C565 1.365 . S
C563 H580 0.929 . S
C564 C561 1.394 . S
C564 C563 1.396 . S
C564 H581 0.930 . S
C565 C562 1.383 . S
C565 C563 1.365 . S
C565 H582 0.931 . S
C566 C561 1.370 . S
C566 C562 1.395 . S
C566 H583 0.930 . S
C567 Gd514 2.805 . S
C567 O549 1.263 . S
C567 O550 1.252 . S
C567 C561 1.500 . S
C568 H530 0.930 . S
C568 C544 1.417 . S
C568 C569 1.329 . S
C569 C539 1.437 1_655 S
C569 H540 0.929 . S
C569 C568 1.329 . S
H570 C543 0.931 . S
C571 O553 1.265 . S
C571 O554 1.242 . S
C572 O557 1.261 . S
C572 O558 1.252 . S
C573 C576 1.394 . S
C573 C578 1.370 . S
C573 C579 1.500 . S
C574 C577 1.383 . S
C574 C578 1.395 . S
C575 C576 1.396 . S
C575 C577 1.365 . S
C575 H584 0.929 . S
C576 C573 1.394 . S
C576 C575 1.396 . S
C576 H585 0.930 . S
C577 C574 1.383 . S
C577 C575 1.365 . S
C577 H586 0.931 . S
C578 C573 1.370 . S
C578 C574 1.395 . S
C578 H587 0.930 . S
C579 Gd515 2.805 . S
C579 O555 1.263 . S
C579 O556 1.252 . S
C579 C573 1.500 . S
H580 C563 0.929 . S
H581 C564 0.930 . S
H582 C565 0.931 . S
H583 C566 0.930 . S
H584 C575 0.929 . S
H585 C576 0.930 . S
H586 C577 0.931 . S
H587 C578 0.930 . S
C588 C590 1.422 . S
C588 C592 1.415 . S
C588 N594 1.369 . S
C589 C590 1.421 . S
C589 C591 1.417 . S
C589 C601 1.422 . S
C590 C588 1.422 . S
C590 C589 1.421 . S
C590 N600 1.359 . S
C591 C589 1.417 . S
C591 C593 1.329 . S
C591 H610 0.930 . S
C592 C588 1.415 . S
C592 C593 1.437 . S
C592 C596 1.413 . S
C593 C591 1.329 . S
C593 C592 1.437 . S
C593 H615 0.929 . S
N594 C588 1.369 . S
N594 C595 1.338 . S
N594 Gd599 2.622 . S
C595 N594 1.338 . S
C595 C597 1.378 . S
C595 H607 0.929 . S
C596 C592 1.413 . S
C596 C597 1.348 . S
C596 H612 0.931 . S
C597 C595 1.378 . S
C597 C596 1.348 . S
C597 H613 0.930 . S
Gd598 N618 2.622 . S
Gd598 N625 2.570 . S
Gd598 O632 2.338 1_565 S
Gd598 O633 2.468 . S
Gd598 O634 2.427 . S
Gd598 O636 2.388 . S
Gd598 O637 2.386 . S
Gd598 O641 2.307 . S
Gd598 C651 2.805 . S
Gd599 N594 2.622 . S
Gd599 N600 2.570 . S
Gd599 O631 2.386 . S
Gd599 O635 2.307 . S
Gd599 O638 2.350 1_545 S
Gd599 O639 2.468 . S
Gd599 O640 2.427 . S
Gd599 O642 2.388 . S
Gd599 C663 2.805 . S
N600 C590 1.359 . S
N600 Gd599 2.570 . S
N600 C602 1.343 . S
C601 C589 1.422 . S
C601 C603 1.321 . S
C601 H609 0.931 . S
C602 N600 1.343 . S
C602 C603 1.390 . S
C602 H604 0.931 . S
C603 C601 1.321 . S
C603 C602 1.390 . S
C603 H605 0.930 . S
H604 C602 0.931 . S
H605 C603 0.930 . S
H606 C629 0.931 . S
H607 C595 0.929 . S
H608 C630 0.930 . S
H609 C601 0.931 . S
H610 C591 0.930 . S
H611 C620 0.929 . S
H612 C596 0.931 . S
H613 C597 0.930 . S
H614 C652 0.930 . S
H615 C593 0.929 . S
H616 C621 0.931 . S
H617 C622 0.930 . S
N618 Gd598 2.622 . S
N618 C619 1.369 . S
N618 C620 1.338 . S
C619 N618 1.369 . S
C619 C623 1.415 . S
C619 C626 1.422 . S
C620 H611 0.929 . S
C620 N618 1.338 . S
C620 C622 1.378 . S
C621 H616 0.931 . S
C621 C622 1.348 . S
C621 C623 1.413 . S
C622 H617 0.930 . S
C622 C620 1.378 . S
C622 C621 1.348 . S
C623 C619 1.415 . S
C623 C621 1.413 . S
C623 C653 1.437 . S
H624 C653 0.929 . S
N625 Gd598 2.570 . S
N625 C626 1.359 . S
N625 C629 1.343 . S
C626 C619 1.422 . S
C626 N625 1.359 . S
C626 C628 1.421 . S
C627 C628 1.422 . S
C627 C630 1.321 . S
C627 H654 0.931 . S
C628 C626 1.421 . S
C628 C627 1.422 . S
C628 C652 1.417 . S
C629 H606 0.931 . S
C629 N625 1.343 . S
C629 C630 1.390 . S
C630 H608 0.930 . S
C630 C627 1.321 . S
C630 C629 1.390 . S
O631 Gd599 2.386 . S
O631 C643 1.265 . S
O632 Gd598 2.338 1_545 S
O632 C643 1.259 . S
O633 Gd598 2.468 . S
O633 C651 1.263 . S
O634 Gd598 2.427 . S
O634 C651 1.252 . S
O635 Gd599 2.307 . S
O635 C644 1.261 . S
O636 Gd598 2.388 . S
O636 C644 1.252 1_565 S
O637 Gd598 2.386 . S
O637 C655 1.265 . S
O638 Gd599 2.350 1_565 S
O638 C655 1.245 . S
O639 Gd599 2.468 . S
O639 C663 1.263 . S
O640 Gd599 2.427 . S
O640 C663 1.252 . S
O641 Gd598 2.307 . S
O641 C656 1.261 . S
O642 Gd599 2.388 . S
O642 C656 1.252 1_545 S
C643 O631 1.265 . S
C643 O632 1.259 . S
C644 O635 1.261 . S
C644 O636 1.252 1_545 S
C645 C648 1.394 . S
C645 C650 1.370 . S
C645 C651 1.500 . S
C646 C649 1.383 . S
C646 C650 1.395 . S
C647 C648 1.396 . S
C647 C649 1.365 . S
C647 H664 0.929 . S
C648 C645 1.394 . S
C648 C647 1.396 . S
C648 H665 0.930 . S
C649 C646 1.383 . S
C649 C647 1.365 . S
C649 H666 0.931 . S
C650 C645 1.370 . S
C650 C646 1.395 . S
C650 H667 0.930 . S
C651 Gd598 2.805 . S
C651 O633 1.263 . S
C651 O634 1.252 . S
C651 C645 1.500 . S
C652 H614 0.930 . S
C652 C628 1.417 . S
C652 C653 1.329 . S
C653 C623 1.437 . S
C653 H624 0.929 . S
C653 C652 1.329 . S
H654 C627 0.931 . S
C655 O637 1.265 . S
C655 O638 1.245 . S
C656 O641 1.261 . S
C656 O642 1.252 1_565 S
C657 C660 1.394 . S
C657 C662 1.370 . S
C657 C663 1.500 . S
C658 C661 1.383 . S
C658 C662 1.395 . S
C659 C660 1.396 . S
C659 C661 1.365 . S
C659 H668 0.929 . S
C660 C657 1.394 . S
C660 C659 1.396 . S
C660 H669 0.930 . S
C661 C658 1.383 . S
C661 C659 1.365 . S
C661 H670 0.931 . S
C662 C657 1.370 . S
C662 C658 1.395 . S
C662 H671 0.930 . S
C663 Gd599 2.805 . S
C663 O639 1.263 . S
C663 O640 1.252 . S
C663 C657 1.500 . S
H664 C647 0.929 . S
H665 C648 0.930 . S
H666 C649 0.931 . S
H667 C650 0.930 . S
H668 C659 0.929 . S
H669 C660 0.930 . S
H670 C661 0.931 . S
H671 C662 0.930 . S
C672 C674 1.422 . S
C672 C676 1.415 . S
C672 N678 1.369 1_565 S
C673 C674 1.421 . S
C673 C675 1.417 . S
C673 C685 1.422 . S
C674 C672 1.422 . S
C674 C673 1.421 . S
C674 N684 1.359 1_565 S
C675 C673 1.417 . S
C675 C677 1.329 . S
C675 H694 0.930 . S
C676 C672 1.415 . S
C676 C677 1.437 . S
C676 C680 1.413 . S
C677 C675 1.329 . S
C677 C676 1.437 . S
C677 H699 0.929 . S
N678 C672 1.369 1_545 S
N678 C679 1.338 . S
N678 Gd683 2.622 . S
C679 N678 1.338 . S
C679 C681 1.394 . S
C679 H691 0.929 . S
C680 C676 1.413 . S
C680 C681 1.325 1_565 S
C680 H696 0.931 . S
C681 C679 1.394 . S
C681 C680 1.325 1_545 S
C681 H697 0.937 . S
Gd682 N702 2.622 . S
Gd682 N709 2.570 . S
Gd682 O716 2.353 . S
Gd682 O717 2.468 . S
Gd682 O718 2.427 . S
Gd682 O720 2.388 . S
Gd682 O721 2.386 . S
Gd682 O725 2.307 . S
Gd682 C735 2.805 . S
Gd683 N678 2.622 . S
Gd683 N684 2.570 . S
Gd683 O715 2.386 . S
Gd683 O719 2.307 . S
Gd683 O722 2.353 . S
Gd683 O723 2.468 . S
Gd683 O724 2.427 . S
Gd683 O726 2.388 . S
Gd683 C747 2.805 . S
N684 C674 1.359 1_545 S
N684 Gd683 2.570 . S
N684 C686 1.343 1_545 S
C685 C673 1.422 . S
C685 C687 1.321 . S
C685 H693 0.931 . S
C686 N684 1.343 1_565 S
C686 C687 1.390 . S
C686 H688 0.931 1_565 S
C687 C685 1.321 . S
C687 C686 1.390 . S
C687 H689 0.930 . S
H688 C686 0.931 1_545 S
H689 C687 0.930 . S
H690 C713 0.931 . S
H691 C679 0.929 . S
H692 C714 0.930 . S
H693 C685 0.931 . S
H694 C675 0.930 . S
H695 C704 0.929 . S
H696 C680 0.931 . S
H697 C681 0.937 . S
H698 C736 0.930 . S
H699 C677 0.929 . S
H700 C705 0.931 . S
H701 C706 0.930 . S
N702 Gd682 2.622 . S
N702 C703 1.369 . S
N702 C704 1.338 . S
C703 N702 1.369 . S
C703 C707 1.415 . S
C703 C710 1.422 . S
C704 H695 0.929 . S
C704 N702 1.338 . S
C704 C706 1.378 . S
C705 H700 0.931 . S
C705 C706 1.348 . S
C705 C707 1.413 . S
C706 H701 0.930 . S
C706 C704 1.378 . S
C706 C705 1.348 . S
C707 C703 1.415 . S
C707 C705 1.413 . S
C707 C737 1.437 . S
H708 C737 0.929 . S
N709 Gd682 2.570 . S
N709 C710 1.359 . S
N709 C713 1.343 . S
C710 C703 1.422 . S
C710 N709 1.359 . S
C710 C712 1.421 . S
C711 C712 1.422 . S
C711 C714 1.321 . S
C711 H738 0.931 . S
C712 C710 1.421 . S
C712 C711 1.422 . S
C712 C736 1.417 . S
C713 H690 0.931 . S
C713 N709 1.343 . S
C713 C714 1.390 . S
C714 H692 0.930 . S
C714 C711 1.321 . S
C714 C713 1.390 . S
O715 Gd683 2.386 . S
O715 C727 1.265 . S
O716 Gd682 2.353 . S
O716 C727 1.242 . S
O717 Gd682 2.468 . S
O717 C735 1.263 . S
O718 Gd682 2.427 . S
O718 C735 1.252 . S
O719 Gd683 2.307 . S
O719 C728 1.261 . S
O720 Gd682 2.388 . S
O720 C728 1.252 . S
O721 Gd682 2.386 . S
O721 C739 1.265 . S
O722 Gd683 2.353 . S
O722 C739 1.242 . S
O723 Gd683 2.468 . S
O723 C747 1.263 . S
O724 Gd683 2.427 . S
O724 C747 1.252 . S
O725 Gd682 2.307 . S
O725 C740 1.261 . S
O726 Gd683 2.388 . S
O726 C740 1.252 . S
C727 O715 1.265 . S
C727 O716 1.242 . S
C728 O719 1.261 . S
C728 O720 1.252 . S
C729 C732 1.394 . S
C729 C734 1.370 . S
C729 C735 1.500 . S
C730 C733 1.383 . S
C730 C734 1.395 . S
C731 C732 1.396 . S
C731 C733 1.365 . S
C731 H748 0.929 . S
C732 C729 1.394 . S
C732 C731 1.396 . S
C732 H749 0.930 . S
C733 C730 1.383 . S
C733 C731 1.365 . S
C733 H750 0.931 . S
C734 C729 1.370 . S
C734 C730 1.395 . S
C734 H751 0.930 . S
C735 Gd682 2.805 . S
C735 O717 1.263 . S
C735 O718 1.252 . S
C735 C729 1.500 . S
C736 H698 0.930 . S
C736 C712 1.417 . S
C736 C737 1.329 . S
C737 C707 1.437 . S
C737 H708 0.929 . S
C737 C736 1.329 . S
H738 C711 0.931 . S
C739 O721 1.265 . S
C739 O722 1.242 . S
C740 O725 1.261 . S
C740 O726 1.252 . S
C741 C744 1.394 . S
C741 C746 1.370 . S
C741 C747 1.500 . S
C742 C745 1.383 . S
C742 C746 1.395 . S
C743 C744 1.396 . S
C743 C745 1.365 . S
C743 H752 0.929 . S
C744 C741 1.394 . S
C744 C743 1.396 . S
C744 H753 0.930 . S
C745 C742 1.383 . S
C745 C743 1.365 . S
C745 H754 0.931 1_545 S
C746 C741 1.370 . S
C746 C742 1.395 . S
C746 H755 0.930 . S
C747 Gd683 2.805 . S
C747 O723 1.263 . S
C747 O724 1.252 . S
C747 C741 1.500 . S
H748 C731 0.929 . S
H749 C732 0.930 . S
H750 C733 0.931 . S
H751 C734 0.930 . S
H752 C743 0.929 . S
H753 C744 0.930 . S
H754 C745 0.931 1_565 S
H755 C746 0.930 . S
C756 C758 1.422 . S
C756 C760 1.415 . S
C756 N762 1.369 . S
C757 C758 1.421 . S
C757 C759 1.417 . S
C757 C769 1.422 . S
C758 C756 1.422 . S
C758 C757 1.421 . S
C758 N768 1.359 . S
C759 C757 1.417 . S
C759 C761 1.329 . S
C759 H778 0.930 . S
C760 C756 1.415 . S
C760 C761 1.437 . S
C760 C764 1.413 . S
C761 C759 1.329 . S
C761 C760 1.437 . S
C761 H783 0.929 . S
N762 C756 1.369 . S
N762 C763 1.338 . S
N762 Gd767 2.622 . S
C763 N762 1.338 . S
C763 C765 1.378 . S
C763 H775 0.929 . S
C764 C760 1.413 . S
C764 C765 1.348 . S
C764 H780 0.931 . S
C765 C763 1.378 . S
C765 C764 1.348 . S
C765 H781 0.930 . S
Gd766 N786 2.622 1_455 S
Gd766 N793 2.570 1_455 S
Gd766 O800 2.353 . S
Gd766 O801 2.468 1_455 S
Gd766 O802 2.427 1_455 S
Gd766 O804 2.388 . S
Gd766 O805 2.386 . S
Gd766 O809 2.307 . S
Gd766 C819 2.805 1_455 S
Gd767 N762 2.622 . S
Gd767 N768 2.570 . S
Gd767 O799 2.386 . S
Gd767 O803 2.307 . S
Gd767 O806 2.353 . S
Gd767 O807 2.468 . S
Gd767 O808 2.427 . S
Gd767 O810 2.388 . S
Gd767 C831 2.805 . S
N768 C758 1.359 . S
N768 Gd767 2.570 . S
N768 C770 1.343 . S
C769 C757 1.422 . S
C769 C771 1.321 . S
C769 H777 0.931 . S
C770 N768 1.343 . S
C770 C771 1.390 . S
C770 H772 0.931 . S
C771 C769 1.321 . S
C771 C770 1.390 . S
C771 H773 0.930 . S
H772 C770 0.931 . S
H773 C771 0.930 . S
H774 C797 0.931 . S
H775 C763 0.929 . S
H776 C798 0.930 . S
H777 C769 0.931 . S
H778 C759 0.930 . S
H779 C788 0.929 . S
H780 C764 0.931 . S
H781 C765 0.930 . S
H782 C820 0.930 . S
H783 C761 0.929 . S
H784 C789 0.931 . S
H785 C790 0.930 . S
N786 Gd766 2.622 1_655 S
N786 C787 1.369 . S
N786 C788 1.338 . S
C787 N786 1.369 . S
C787 C791 1.415 . S
C787 C794 1.422 . S
C788 H779 0.929 . S
C788 N786 1.338 . S
C788 C790 1.378 . S
C789 H784 0.931 . S
C789 C790 1.348 . S
C789 C791 1.413 . S
C790 H785 0.930 . S
C790 C788 1.378 . S
C790 C789 1.348 . S
C791 C787 1.415 . S
C791 C789 1.413 . S
C791 C821 1.437 . S
H792 C821 0.929 . S
N793 Gd766 2.570 1_655 S
N793 C794 1.359 . S
N793 C797 1.343 . S
C794 C787 1.422 . S
C794 N793 1.359 . S
C794 C796 1.421 . S
C795 C796 1.422 . S
C795 C798 1.321 . S
C795 H822 0.931 . S
C796 C794 1.421 . S
C796 C795 1.422 . S
C796 C820 1.417 . S
C797 H774 0.931 . S
C797 N793 1.343 . S
C797 C798 1.390 . S
C798 H776 0.930 . S
C798 C795 1.321 . S
C798 C797 1.390 . S
O799 Gd767 2.386 . S
O799 C811 1.265 . S
O800 Gd766 2.353 . S
O800 C811 1.242 . S
O801 Gd766 2.468 1_655 S
O801 C819 1.263 . S
O802 Gd766 2.427 1_655 S
O802 C819 1.252 . S
O803 Gd767 2.307 . S
O803 C812 1.261 . S
O804 Gd766 2.388 . S
O804 C812 1.252 . S
O805 Gd766 2.386 . S
O805 C823 1.265 . S
O806 Gd767 2.353 . S
O806 C823 1.242 . S
O807 Gd767 2.468 . S
O807 C831 1.263 . S
O808 Gd767 2.427 . S
O808 C831 1.252 . S
O809 Gd766 2.307 . S
O809 C824 1.261 . S
O810 Gd767 2.388 . S
O810 C824 1.252 . S
C811 O799 1.265 . S
C811 O800 1.242 . S
C812 O803 1.261 . S
C812 O804 1.252 . S
C813 C816 1.394 . S
C813 C818 1.370 . S
C813 C819 1.500 . S
C814 C817 1.383 . S
C814 C818 1.395 . S
C815 C816 1.396 . S
C815 C817 1.365 . S
C815 H832 0.929 . S
C816 C813 1.394 . S
C816 C815 1.396 . S
C816 H833 0.930 . S
C817 C814 1.383 . S
C817 C815 1.365 . S
C817 H834 0.931 . S
C818 C813 1.370 . S
C818 C814 1.395 . S
C818 H835 0.930 . S
C819 Gd766 2.805 1_655 S
C819 O801 1.263 . S
C819 O802 1.252 . S
C819 C813 1.500 . S
C820 H782 0.930 . S
C820 C796 1.417 . S
C820 C821 1.329 . S
C821 C791 1.437 . S
C821 H792 0.929 . S
C821 C820 1.329 . S
H822 C795 0.931 . S
C823 O805 1.265 . S
C823 O806 1.242 . S
C824 O809 1.261 . S
C824 O810 1.252 . S
C825 C828 1.394 . S
C825 C830 1.370 . S
C825 C831 1.500 . S
C826 C829 1.383 . S
C826 C830 1.395 . S
C827 C828 1.396 . S
C827 C829 1.365 . S
C827 H836 0.929 . S
C828 C825 1.394 . S
C828 C827 1.396 . S
C828 H837 0.930 . S
C829 C826 1.383 . S
C829 C827 1.365 . S
C829 H838 0.931 . S
C830 C825 1.370 . S
C830 C826 1.395 . S
C830 H839 0.930 . S
C831 Gd767 2.805 . S
C831 O807 1.263 . S
C831 O808 1.252 . S
C831 C825 1.500 . S
H832 C815 0.929 . S
H833 C816 0.930 . S
H834 C817 0.931 . S
H835 C818 0.930 . S
H836 C827 0.929 . S
H837 C828 0.930 . S
H838 C829 0.931 . S
H839 C830 0.930 . S
C840 C842 1.422 . S
C840 C844 1.415 . S
C840 N846 1.369 . S
C841 C842 1.421 . S
C841 C843 1.417 . S
C841 C853 1.422 . S
C842 C840 1.422 . S
C842 C841 1.421 . S
C842 N852 1.359 . S
C843 C841 1.417 . S
C843 C845 1.329 . S
C843 H862 0.930 . S
C844 C840 1.415 . S
C844 C845 1.437 . S
C844 C848 1.413 . S
C845 C843 1.329 . S
C845 C844 1.437 . S
C845 H867 0.929 . S
N846 C840 1.369 . S
N846 C847 1.338 . S
N846 Gd851 2.622 . S
C847 N846 1.338 . S
C847 C849 1.378 . S
C847 H859 0.929 . S
C848 C844 1.413 . S
C848 C849 1.348 . S
C848 H864 0.931 . S
C849 C847 1.378 . S
C849 C848 1.348 . S
C849 H865 0.930 . S
Gd850 N870 2.622 . S
Gd850 N877 2.570 1_545 S
Gd850 O884 2.353 . S
Gd850 O885 2.468 . S
Gd850 O886 2.427 . S
Gd850 O888 2.388 . S
Gd850 O889 2.386 . S
Gd850 O893 2.307 . S
Gd850 C903 2.805 . S
Gd851 N846 2.622 . S
Gd851 N852 2.570 . S
Gd851 O883 2.386 . S
Gd851 O887 2.307 . S
Gd851 O890 2.353 . S
Gd851 O891 2.468 . S
Gd851 O892 2.427 . S
Gd851 O894 2.388 . S
Gd851 C915 2.805 . S
N852 C842 1.359 . S
N852 Gd851 2.570 . S
N852 C854 1.343 . S
C853 C841 1.422 . S
C853 C855 1.321 . S
C853 H861 0.931 . S
C854 N852 1.343 . S
C854 C855 1.390 . S
C854 H856 0.931 . S
C855 C853 1.321 . S
C855 C854 1.390 . S
C855 H857 0.930 . S
H856 C854 0.931 . S
H857 C855 0.930 . S
H858 C881 0.931 1_545 S
H859 C847 0.929 . S
H860 C882 0.930 . S
H861 C853 0.931 . S
H862 C843 0.930 . S
H863 C872 0.929 . S
H864 C848 0.931 . S
H865 C849 0.930 . S
H866 C904 0.930 . S
H867 C845 0.929 . S
H868 C873 0.931 . S
H869 C874 0.930 . S
N870 Gd850 2.622 . S
N870 C871 1.369 1_545 S
N870 C872 1.338 . S
C871 N870 1.369 1_565 S
C871 C875 1.415 . S
C871 C878 1.422 . S
C872 H863 0.929 . S
C872 N870 1.338 . S
C872 C874 1.378 1_545 S
C873 H868 0.931 . S
C873 C874 1.348 . S
C873 C875 1.413 . S
C874 H869 0.930 . S
C874 C872 1.378 1_565 S
C874 C873 1.348 . S
C875 C871 1.415 . S
C875 C873 1.413 . S
C875 C905 1.437 . S
H876 C905 0.929 . S
N877 Gd850 2.570 1_565 S
N877 C878 1.359 . S
N877 C881 1.343 . S
C878 C871 1.422 . S
C878 N877 1.359 . S
C878 C880 1.421 . S
C879 C880 1.422 . S
C879 C882 1.321 . S
C879 H906 0.931 . S
C880 C878 1.421 . S
C880 C879 1.422 . S
C880 C904 1.417 . S
C881 H858 0.931 1_565 S
C881 N877 1.343 . S
C881 C882 1.390 . S
C882 H860 0.930 . S
C882 C879 1.321 . S
C882 C881 1.390 . S
O883 Gd851 2.386 . S
O883 C895 1.265 . S
O884 Gd850 2.353 . S
O884 C895 1.242 . S
O885 Gd850 2.468 . S
O885 C903 1.263 . S
O886 Gd850 2.427 . S
O886 C903 1.252 . S
O887 Gd851 2.307 . S
O887 C896 1.261 . S
O888 Gd850 2.388 . S
O888 C896 1.252 . S
O889 Gd850 2.386 . S
O889 C907 1.265 . S
O890 Gd851 2.353 . S
O890 C907 1.242 . S
O891 Gd851 2.468 . S
O891 C915 1.263 . S
O892 Gd851 2.427 . S
O892 C915 1.252 . S
O893 Gd850 2.307 . S
O893 C908 1.261 . S
O894 Gd851 2.388 . S
O894 C908 1.252 . S
C895 O883 1.265 . S
C895 O884 1.242 . S
C896 O887 1.261 . S
C896 O888 1.252 . S
C897 C900 1.394 1_545 S
C897 C902 1.370 . S
C897 C903 1.500 . S
C898 C901 1.383 . S
C898 C902 1.395 1_565 S
C899 C900 1.396 . S
C899 C901 1.365 . S
C899 H916 0.929 . S
C900 C897 1.394 1_565 S
C900 C899 1.396 . S
C900 H917 0.929 . S
C901 C898 1.383 . S
C901 C899 1.365 . S
C901 H918 0.931 . S
C902 C897 1.370 . S
C902 C898 1.395 1_545 S
C902 H919 0.930 . S
C903 Gd850 2.805 . S
C903 O885 1.263 . S
C903 O886 1.252 . S
C903 C897 1.500 . S
C904 H866 0.930 . S
C904 C880 1.417 . S
C904 C905 1.329 . S
C905 C875 1.437 . S
C905 H876 0.929 . S
C905 C904 1.329 . S
H906 C879 0.931 . S
C907 O889 1.265 . S
C907 O890 1.242 . S
C908 O893 1.261 . S
C908 O894 1.252 . S
C909 C912 1.394 . S
C909 C914 1.370 . S
C909 C915 1.500 . S
C910 C913 1.383 . S
C910 C914 1.395 . S
C911 C912 1.396 . S
C911 C913 1.365 . S
C911 H920 0.929 . S
C912 C909 1.394 . S
C912 C911 1.396 . S
C912 H921 0.930 . S
C913 C910 1.383 . S
C913 C911 1.365 . S
C913 H922 0.931 . S
C914 C909 1.370 . S
C914 C910 1.395 . S
C914 H923 0.930 . S
C915 Gd851 2.805 . S
C915 O891 1.263 . S
C915 O892 1.252 . S
C915 C909 1.500 . S
H916 C899 0.929 . S
H917 C900 0.929 . S
H918 C901 0.931 . S
H919 C902 0.930 . S
H920 C911 0.929 . S
H921 C912 0.930 . S
H922 C913 0.931 . S
H923 C914 0.930 . S
C924 C926 1.422 . S
C924 C928 1.415 . S
C924 N930 1.369 . S
C925 C926 1.421 . S
C925 C927 1.417 . S
C925 C937 1.422 . S
C926 C924 1.422 . S
C926 C925 1.421 . S
C926 N936 1.359 . S
C927 C925 1.417 . S
C927 C929 1.329 . S
C927 H946 0.930 . S
C928 C924 1.415 . S
C928 C929 1.437 . S
C928 C932 1.413 . S
C929 C927 1.329 . S
C929 C928 1.437 . S
C929 H951 0.929 . S
N930 C924 1.369 . S
N930 C931 1.338 . S
N930 Gd935 2.622 1_655 S
C931 N930 1.338 . S
C931 C933 1.378 . S
C931 H943 0.929 . S
C932 C928 1.413 . S
C932 C933 1.348 . S
C932 H948 0.931 . S
C933 C931 1.378 . S
C933 C932 1.348 . S
C933 H949 0.930 . S
Gd934 N954 2.622 . S
Gd934 N961 2.570 . S
Gd934 O968 2.353 . S
Gd934 O969 2.468 . S
Gd934 O970 2.427 . S
Gd934 O972 2.388 . S
Gd934 O973 2.386 . S
Gd934 O977 2.307 . S
Gd934 C987 2.805 . S
Gd935 N930 2.622 1_455 S
Gd935 N936 2.570 1_455 S
Gd935 O967 2.391 . S
Gd935 O971 2.307 . S
Gd935 O974 2.353 . S
Gd935 O975 2.468 1_455 S
Gd935 O976 2.427 1_455 S
Gd935 O978 2.388 . S
Gd935 C999 2.805 1_455 S
N936 C926 1.359 . S
N936 Gd935 2.570 1_655 S
N936 C938 1.343 . S
C937 C925 1.422 . S
C937 C939 1.321 . S
C937 H945 0.931 . S
C938 N936 1.343 . S
C938 C939 1.390 . S
C938 H940 0.931 . S
C939 C937 1.321 . S
C939 C938 1.390 . S
C939 H941 0.930 . S
H940 C938 0.931 . S
H941 C939 0.930 . S
H942 C965 0.931 . S
H943 C931 0.929 . S
H944 C966 0.930 . S
H945 C937 0.931 . S
H946 C927 0.930 . S
H947 C956 0.929 . S
H948 C932 0.931 . S
H949 C933 0.930 . S
H950 C988 0.930 . S
H951 C929 0.929 . S
H952 C957 0.931 . S
H953 C958 0.930 . S
N954 Gd934 2.622 . S
N954 C955 1.369 . S
N954 C956 1.338 . S
C955 N954 1.369 . S
C955 C959 1.415 . S
C955 C962 1.422 . S
C956 H947 0.929 . S
C956 N954 1.338 . S
C956 C958 1.378 . S
C957 H952 0.931 . S
C957 C958 1.348 . S
C957 C959 1.413 . S
C958 H953 0.930 . S
C958 C956 1.378 . S
C958 C957 1.348 . S
C959 C955 1.415 . S
C959 C957 1.413 . S
C959 C989 1.437 . S
H960 C989 0.929 . S
N961 Gd934 2.570 . S
N961 C962 1.359 . S
N961 C965 1.343 . S
C962 C955 1.422 . S
C962 N961 1.359 . S
C962 C964 1.421 . S
C963 C964 1.422 . S
C963 C966 1.321 . S
C963 H990 0.931 . S
C964 C962 1.421 . S
C964 C963 1.422 . S
C964 C988 1.417 . S
C965 H942 0.931 . S
C965 N961 1.343 . S
C965 C966 1.390 . S
C966 H944 0.930 . S
C966 C963 1.321 . S
C966 C965 1.390 . S
O967 Gd935 2.391 . S
O967 C979 1.281 . S
O968 Gd934 2.353 . S
O968 C979 1.242 . S
O969 Gd934 2.468 . S
O969 C987 1.263 . S
O970 Gd934 2.427 . S
O970 C987 1.252 . S
O971 Gd935 2.307 . S
O971 C980 1.261 . S
O972 Gd934 2.388 . S
O972 C980 1.252 . S
O973 Gd934 2.386 . S
O973 C991 1.265 . S
O974 Gd935 2.353 . S
O974 C991 1.242 . S
O975 Gd935 2.468 1_655 S
O975 C999 1.263 . S
O976 Gd935 2.427 1_655 S
O976 C999 1.252 . S
O977 Gd934 2.307 . S
O977 C992 1.261 . S
O978 Gd935 2.388 . S
O978 C992 1.252 . S
C979 O967 1.281 . S
C979 O968 1.242 . S
C980 O971 1.261 . S
C980 O972 1.252 . S
C981 C984 1.394 . S
C981 C986 1.370 . S
C981 C987 1.500 . S
C982 C985 1.383 . S
C982 C986 1.395 . S
C983 C984 1.396 . S
C983 C985 1.365 . S
C983 H1000 0.929 . S
C984 C981 1.394 . S
C984 C983 1.396 . S
C984 H1001 0.930 . S
C985 C982 1.383 . S
C985 C983 1.365 . S
C985 H1002 0.931 . S
C986 C981 1.370 . S
C986 C982 1.395 . S
C986 H1003 0.930 . S
C987 Gd934 2.805 . S
C987 O969 1.263 . S
C987 O970 1.252 . S
C987 C981 1.500 . S
C988 H950 0.930 . S
C988 C964 1.417 . S
C988 C989 1.329 . S
C989 C959 1.437 . S
C989 H960 0.929 . S
C989 C988 1.329 . S
H990 C963 0.931 . S
C991 O973 1.265 . S
C991 O974 1.242 . S
C992 O977 1.261 . S
C992 O978 1.252 . S
C993 C996 1.394 . S
C993 C998 1.370 . S
C993 C999 1.500 . S
C994 C997 1.383 . S
C994 C998 1.395 . S
C995 C996 1.396 . S
C995 C997 1.365 . S
C995 H1004 0.929 . S
C996 C993 1.394 . S
C996 C995 1.396 . S
C996 H1005 0.930 . S
C997 C994 1.383 . S
C997 C995 1.365 . S
C997 H1006 0.931 . S
C998 C993 1.370 . S
C998 C994 1.395 . S
C998 H1007 0.930 . S
C999 Gd935 2.805 1_655 S
C999 O975 1.263 . S
C999 O976 1.252 . S
C999 C993 1.500 . S
H1000 C983 0.929 . S
H1001 C984 0.930 . S
H1002 C985 0.931 . S
H1003 C986 0.930 . S
H1004 C995 0.929 . S
H1005 C996 0.930 . S
H1006 C997 0.931 . S
H1007 C998 0.930 . S
C1008 C1010 1.422 . S
C1008 C1012 1.415 . S
C1008 N1014 1.369 . S
C1009 C1010 1.421 . S
C1009 C1011 1.417 . S
C1009 C1021 1.422 . S
C1010 C1008 1.422 . S
C1010 C1009 1.421 . S
C1010 N1020 1.359 . S
C1011 C1009 1.417 . S
C1011 C1013 1.329 . S
C1011 H1030 0.930 . S
C1012 C1008 1.415 . S
C1012 C1013 1.437 . S
C1012 C1016 1.413 . S
C1013 C1011 1.329 . S
C1013 C1012 1.437 . S
C1013 H1035 0.929 . S
N1014 C1008 1.369 . S
N1014 C1015 1.338 . S
N1014 Gd1019 2.622 . S
C1015 N1014 1.338 . S
C1015 C1017 1.378 . S
C1015 H1027 0.929 . S
C1016 C1012 1.413 . S
C1016 C1017 1.348 . S
C1016 H1032 0.931 . S
C1017 C1015 1.378 . S
C1017 C1016 1.348 . S
C1017 H1033 0.930 . S
Gd1018 N1038 2.622 1_545 S
Gd1018 N1045 2.570 1_545 S
Gd1018 O1052 2.353 . S
Gd1018 O1053 2.468 1_545 S
Gd1018 O1054 2.427 1_545 S
Gd1018 O1056 2.388 . S
Gd1018 O1057 2.386 . S
Gd1018 O1061 2.307 . S
Gd1018 C1071 2.805 1_545 S
Gd1019 N1014 2.622 . S
Gd1019 N1020 2.570 . S
Gd1019 O1051 2.386 . S
Gd1019 O1055 2.307 . S
Gd1019 O1058 2.353 . S
Gd1019 O1059 2.468 . S
Gd1019 O1060 2.427 . S
Gd1019 O1062 2.388 . S
Gd1019 C1083 2.805 . S
N1020 C1010 1.359 . S
N1020 Gd1019 2.570 . S
N1020 C1022 1.343 . S
C1021 C1009 1.422 . S
C1021 C1023 1.321 . S
C1021 H1029 0.931 . S
C1022 N1020 1.343 . S
C1022 C1023 1.390 . S
C1022 H1024 0.931 . S
C1023 C1021 1.321 . S
C1023 C1022 1.390 . S
C1023 H1025 0.930 . S
H1024 C1022 0.931 . S
H1025 C1023 0.930 . S
H1026 C1049 0.931 . S
H1027 C1015 0.929 . S
H1028 C1050 0.930 . S
H1029 C1021 0.931 . S
H1030 C1011 0.930 . S
H1031 C1040 0.929 . S
H1032 C1016 0.931 . S
H1033 C1017 0.930 . S
H1034 C1072 0.930 . S
H1035 C1013 0.929 . S
H1036 C1041 0.931 . S
H1037 C1042 0.930 . S
N1038 Gd1018 2.622 1_565 S
N1038 C1039 1.369 . S
N1038 C1040 1.338 . S
C1039 N1038 1.369 . S
C1039 C1043 1.415 . S
C1039 C1046 1.422 . S
C1040 H1031 0.929 . S
C1040 N1038 1.338 . S
C1040 C1042 1.378 . S
C1041 H1036 0.931 . S
C1041 C1042 1.348 . S
C1041 C1043 1.413 . S
C1042 H1037 0.930 . S
C1042 C1040 1.378 . S
C1042 C1041 1.348 . S
C1043 C1039 1.415 . S
C1043 C1041 1.413 . S
C1043 C1073 1.437 . S
H1044 C1073 0.929 . S
N1045 Gd1018 2.570 1_565 S
N1045 C1046 1.359 . S
N1045 C1049 1.343 . S
C1046 C1039 1.422 . S
C1046 N1045 1.359 . S
C1046 C1048 1.421 . S
C1047 C1048 1.422 . S
C1047 C1050 1.321 . S
C1047 H1074 0.931 . S
C1048 C1046 1.421 . S
C1048 C1047 1.422 . S
C1048 C1072 1.417 . S
C1049 H1026 0.931 . S
C1049 N1045 1.343 . S
C1049 C1050 1.390 . S
C1050 H1028 0.930 . S
C1050 C1047 1.321 . S
C1050 C1049 1.390 . S
O1051 Gd1019 2.386 . S
O1051 C1063 1.265 . S
O1052 Gd1018 2.353 . S
O1052 C1063 1.242 . S
O1053 Gd1018 2.468 1_565 S
O1053 C1071 1.263 . S
O1054 Gd1018 2.427 1_565 S
O1054 C1071 1.252 . S
O1055 Gd1019 2.307 . S
O1055 C1064 1.261 . S
O1056 Gd1018 2.388 . S
O1056 C1064 1.252 . S
O1057 Gd1018 2.386 . S
O1057 C1075 1.265 . S
O1058 Gd1019 2.353 . S
O1058 C1075 1.242 . S
O1059 Gd1019 2.468 . S
O1059 C1083 1.263 . S
O1060 Gd1019 2.427 . S
O1060 C1083 1.252 . S
O1061 Gd1018 2.307 . S
O1061 C1076 1.261 . S
O1062 Gd1019 2.388 . S
O1062 C1076 1.252 . S
C1063 O1051 1.265 . S
C1063 O1052 1.242 . S
C1064 O1055 1.261 . S
C1064 O1056 1.252 . S
C1065 C1068 1.394 . S
C1065 C1070 1.370 . S
C1065 C1071 1.500 . S
C1066 C1069 1.383 . S
C1066 C1070 1.395 . S
C1067 C1068 1.396 . S
C1067 C1069 1.365 . S
C1067 H1084 0.929 . S
C1068 C1065 1.394 . S
C1068 C1067 1.396 . S
C1068 H1085 0.930 . S
C1069 C1066 1.383 . S
C1069 C1067 1.365 . S
C1069 H1086 0.931 . S
C1070 C1065 1.370 . S
C1070 C1066 1.395 . S
C1070 H1087 0.930 . S
C1071 Gd1018 2.805 1_565 S
C1071 O1053 1.263 . S
C1071 O1054 1.252 . S
C1071 C1065 1.500 . S
C1072 H1034 0.930 . S
C1072 C1048 1.417 . S
C1072 C1073 1.329 . S
C1073 C1043 1.437 . S
C1073 H1044 0.929 . S
C1073 C1072 1.329 . S
H1074 C1047 0.931 . S
C1075 O1057 1.265 . S
C1075 O1058 1.242 . S
C1076 O1061 1.261 . S
C1076 O1062 1.252 . S
C1077 C1080 1.394 . S
C1077 C1082 1.370 . S
C1077 C1083 1.500 . S
C1078 C1081 1.383 . S
C1078 C1082 1.395 . S
C1079 C1080 1.396 . S
C1079 C1081 1.365 . S
C1079 H1088 0.929 . S
C1080 C1077 1.394 . S
C1080 C1079 1.396 . S
C1080 H1089 0.930 . S
C1081 C1078 1.383 . S
C1081 C1079 1.365 . S
C1081 H1090 0.931 . S
C1082 C1077 1.370 . S
C1082 C1078 1.395 . S
C1082 H1091 0.930 . S
C1083 Gd1019 2.805 . S
C1083 O1059 1.263 . S
C1083 O1060 1.252 . S
C1083 C1077 1.500 . S
H1084 C1067 0.929 . S
H1085 C1068 0.930 . S
H1086 C1069 0.931 . S
H1087 C1070 0.930 . S
H1088 C1079 0.929 . S
H1089 C1080 0.930 . S
H1090 C1081 0.931 . S
H1091 C1082 0.930 . S
C1092 C1094 1.422 . S
C1092 C1096 1.415 . S
C1092 N1098 1.369 1_655 S
C1093 C1094 1.421 . S
C1093 C1095 1.417 . S
C1093 C1105 1.422 . S
C1094 C1092 1.422 . S
C1094 C1093 1.421 . S
C1094 N1104 1.391 . S
C1095 C1093 1.417 . S
C1095 C1097 1.329 . S
C1095 H1114 0.930 . S
C1096 C1092 1.415 . S
C1096 C1097 1.437 . S
C1096 C1100 1.413 . S
C1097 C1095 1.329 . S
C1097 C1096 1.437 . S
C1097 H1119 0.929 . S
N1098 C1092 1.369 1_455 S
N1098 C1099 1.338 . S
N1098 Gd1103 2.622 . S
C1099 N1098 1.338 . S
C1099 C1101 1.378 1_455 S
C1099 H1111 0.929 . S
C1100 C1096 1.413 . S
C1100 C1101 1.348 . S
C1100 H1116 0.931 . S
C1101 C1099 1.378 1_655 S
C1101 C1100 1.348 . S
C1101 H1117 0.930 . S
Gd1102 N1122 2.622 . S
Gd1102 N1129 2.570 . S
Gd1102 O1136 2.353 . S
Gd1102 O1137 2.468 . S
Gd1102 O1138 2.427 . S
Gd1102 O1140 2.388 . S
Gd1102 O1141 2.386 . S
Gd1102 O1145 2.307 . S
Gd1102 C1155 2.805 . S
Gd1103 N1098 2.622 . S
Gd1103 N1104 2.527 1_455 S
Gd1103 O1135 2.386 . S
Gd1103 O1139 2.307 . S
Gd1103 O1142 2.353 . S
Gd1103 O1143 2.468 . S
Gd1103 O1144 2.427 . S
Gd1103 O1146 2.388 . S
Gd1103 C1167 2.805 . S
N1104 C1094 1.391 . S
N1104 Gd1103 2.527 1_655 S
N1104 C1106 1.354 . S
C1105 C1093 1.422 . S
C1105 C1107 1.321 . S
C1105 H1113 0.931 . S
C1106 N1104 1.354 . S
C1106 C1107 1.390 . S
C1106 H1108 0.931 1_655 S
C1107 C1105 1.321 . S
C1107 C1106 1.390 . S
C1107 H1109 0.930 . S
H1108 C1106 0.931 1_455 S
H1109 C1107 0.930 . S
H1110 C1133 0.931 . S
H1111 C1099 0.929 . S
H1112 C1134 0.930 . S
H1113 C1105 0.931 . S
H1114 C1095 0.930 . S
H1115 C1124 0.929 . S
H1116 C1100 0.931 . S
H1117 C1101 0.930 . S
H1118 C1156 0.930 . S
H1119 C1097 0.929 . S
H1120 C1125 0.931 . S
H1121 C1126 0.930 . S
N1122 Gd1102 2.622 . S
N1122 C1123 1.369 . S
N1122 C1124 1.338 . S
C1123 N1122 1.369 . S
C1123 C1127 1.415 . S
C1123 C1130 1.422 . S
C1124 H1115 0.929 . S
C1124 N1122 1.338 . S
C1124 C1126 1.378 . S
C1125 H1120 0.931 . S
C1125 C1126 1.348 . S
C1125 C1127 1.413 . S
C1126 H1121 0.930 . S
C1126 C1124 1.378 . S
C1126 C1125 1.348 . S
C1127 C1123 1.415 . S
C1127 C1125 1.413 . S
C1127 C1157 1.437 . S
H1128 C1157 0.929 . S
N1129 Gd1102 2.570 . S
N1129 C1130 1.359 . S
N1129 C1133 1.343 . S
C1130 C1123 1.422 . S
C1130 N1129 1.359 . S
C1130 C1132 1.421 . S
C1131 C1132 1.422 . S
C1131 C1134 1.321 . S
C1131 H1158 0.931 . S
C1132 C1130 1.421 . S
C1132 C1131 1.422 . S
C1132 C1156 1.417 . S
C1133 H1110 0.931 . S
C1133 N1129 1.343 . S
C1133 C1134 1.390 . S
C1134 H1112 0.930 . S
C1134 C1131 1.321 . S
C1134 C1133 1.390 . S
O1135 Gd1103 2.386 . S
O1135 C1147 1.265 . S
O1136 Gd1102 2.353 . S
O1136 C1147 1.242 . S
O1137 Gd1102 2.468 . S
O1137 C1155 1.263 . S
O1138 Gd1102 2.427 . S
O1138 C1155 1.252 . S
O1139 Gd1103 2.307 . S
O1139 C1148 1.261 . S
O1140 Gd1102 2.388 . S
O1140 C1148 1.252 . S
O1141 Gd1102 2.386 . S
O1141 C1159 1.265 . S
O1142 Gd1103 2.353 . S
O1142 C1159 1.242 . S
O1143 Gd1103 2.468 . S
O1143 C1167 1.263 . S
O1144 Gd1103 2.427 . S
O1144 C1167 1.252 . S
O1145 Gd1102 2.307 . S
O1145 C1160 1.261 . S
O1146 Gd1103 2.388 . S
O1146 C1160 1.252 . S
C1147 O1135 1.265 . S
C1147 O1136 1.242 . S
C1148 O1139 1.261 . S
C1148 O1140 1.252 . S
C1149 C1152 1.394 . S
C1149 C1154 1.370 . S
C1149 C1155 1.500 . S
C1150 C1153 1.383 . S
C1150 C1154 1.395 . S
C1151 C1152 1.396 . S
C1151 C1153 1.365 . S
C1151 H1168 0.929 . S
C1152 C1149 1.394 . S
C1152 C1151 1.396 . S
C1152 H1169 0.930 . S
C1153 C1150 1.383 . S
C1153 C1151 1.365 . S
C1153 H1170 0.931 . S
C1154 C1149 1.370 . S
C1154 C1150 1.395 . S
C1154 H1171 0.930 . S
C1155 Gd1102 2.805 . S
C1155 O1137 1.263 . S
C1155 O1138 1.252 . S
C1155 C1149 1.500 . S
C1156 H1118 0.930 . S
C1156 C1132 1.417 . S
C1156 C1157 1.329 . S
C1157 C1127 1.437 . S
C1157 H1128 0.929 . S
C1157 C1156 1.329 . S
H1158 C1131 0.931 . S
C1159 O1141 1.265 . S
C1159 O1142 1.242 . S
C1160 O1145 1.261 . S
C1160 O1146 1.252 . S
C1161 C1164 1.394 . S
C1161 C1166 1.370 . S
C1161 C1167 1.500 . S
C1162 C1165 1.373 1_455 S
C1162 C1166 1.395 . S
C1163 C1164 1.396 . S
C1163 C1165 1.358 1_455 S
C1163 H1172 0.929 1_455 S
C1164 C1161 1.394 . S
C1164 C1163 1.396 . S
C1164 H1173 0.930 . S
C1165 C1162 1.373 1_655 S
C1165 C1163 1.358 1_655 S
C1165 H1174 0.952 . S
C1166 C1161 1.370 . S
C1166 C1162 1.395 . S
C1166 H1175 0.930 . S
C1167 Gd1103 2.805 . S
C1167 O1143 1.263 . S
C1167 O1144 1.252 . S
C1167 C1161 1.500 . S
H1168 C1151 0.929 . S
H1169 C1152 0.930 . S
H1170 C1153 0.931 . S
H1171 C1154 0.930 . S
H1172 C1163 0.929 1_655 S
H1173 C1164 0.930 . S
H1174 C1165 0.952 . S
H1175 C1166 0.930 . S
C1176 C1178 1.422 . S
C1176 C1180 1.415 . S
C1176 N1182 1.369 . S
C1177 C1178 1.421 . S
C1177 C1179 1.417 . S
C1177 C1189 1.422 . S
C1178 C1176 1.422 . S
C1178 C1177 1.421 . S
C1178 N1188 1.359 . S
C1179 C1177 1.417 . S
C1179 C1181 1.329 . S
C1179 H1198 0.930 . S
C1180 C1176 1.415 . S
C1180 C1181 1.437 . S
C1180 C1184 1.413 . S
C1181 C1179 1.329 . S
C1181 C1180 1.437 . S
C1181 H1203 0.929 . S
N1182 C1176 1.369 . S
N1182 C1183 1.338 . S
N1182 Gd1187 2.622 1_565 S
C1183 N1182 1.338 . S
C1183 C1185 1.378 . S
C1183 H1195 0.929 . S
C1184 C1180 1.413 . S
C1184 C1185 1.348 . S
C1184 H1200 0.931 . S
C1185 C1183 1.378 . S
C1185 C1184 1.348 . S
C1185 H1201 0.930 . S
Gd1186 N1206 2.622 . S
Gd1186 N1213 2.570 . S
Gd1186 O1220 2.353 . S
Gd1186 O1221 2.468 . S
Gd1186 O1222 2.427 . S
Gd1186 O1224 2.388 . S
Gd1186 O1225 2.386 . S
Gd1186 O1229 2.307 . S
Gd1186 C1239 2.805 . S
Gd1187 N1182 2.622 1_545 S
Gd1187 N1188 2.570 1_545 S
Gd1187 O1219 2.386 . S
Gd1187 O1223 2.307 . S
Gd1187 O1226 2.353 . S
Gd1187 O1227 2.447 1_545 S
Gd1187 O1228 2.421 1_545 S
Gd1187 O1230 2.388 . S
Gd1187 C1251 2.805 1_545 S
N1188 C1178 1.359 . S
N1188 Gd1187 2.570 1_565 S
N1188 C1190 1.343 . S
C1189 C1177 1.422 . S
C1189 C1191 1.321 . S
C1189 H1197 0.931 . S
C1190 N1188 1.343 . S
C1190 C1191 1.390 . S
C1190 H1192 0.931 . S
C1191 C1189 1.321 . S
C1191 C1190 1.390 . S
C1191 H1193 0.930 . S
H1192 C1190 0.931 . S
H1193 C1191 0.930 . S
H1194 C1217 0.931 . S
H1195 C1183 0.929 . S
H1196 C1218 0.930 . S
H1197 C1189 0.931 . S
H1198 C1179 0.930 . S
H1199 C1208 0.929 . S
H1200 C1184 0.931 . S
H1201 C1185 0.930 . S
H1202 C1240 0.930 . S
H1203 C1181 0.929 . S
H1204 C1209 0.931 . S
H1205 C1210 0.930 . S
N1206 Gd1186 2.622 . S
N1206 C1207 1.369 . S
N1206 C1208 1.338 . S
C1207 N1206 1.369 . S
C1207 C1211 1.415 . S
C1207 C1214 1.422 . S
C1208 H1199 0.929 . S
C1208 N1206 1.338 . S
C1208 C1210 1.378 . S
C1209 H1204 0.931 . S
C1209 C1210 1.348 . S
C1209 C1211 1.413 . S
C1210 H1205 0.930 . S
C1210 C1208 1.378 . S
C1210 C1209 1.348 . S
C1211 C1207 1.415 . S
C1211 C1209 1.413 . S
C1211 C1241 1.437 . S
H1212 C1241 0.929 . S
N1213 Gd1186 2.570 . S
N1213 C1214 1.359 . S
N1213 C1217 1.343 . S
C1214 C1207 1.422 . S
C1214 N1213 1.359 . S
C1214 C1216 1.421 . S
C1215 C1216 1.422 . S
C1215 C1218 1.321 . S
C1215 H1242 0.931 . S
C1216 C1214 1.421 . S
C1216 C1215 1.422 . S
C1216 C1240 1.417 . S
C1217 H1194 0.931 . S
C1217 N1213 1.343 . S
C1217 C1218 1.390 . S
C1218 H1196 0.930 . S
C1218 C1215 1.321 . S
C1218 C1217 1.390 . S
O1219 Gd1187 2.386 . S
O1219 C1231 1.265 . S
O1220 Gd1186 2.353 . S
O1220 C1231 1.242 . S
O1221 Gd1186 2.468 . S
O1221 C1239 1.263 . S
O1222 Gd1186 2.427 . S
O1222 C1239 1.252 . S
O1223 Gd1187 2.307 . S
O1223 C1232 1.261 . S
O1224 Gd1186 2.388 . S
O1224 C1232 1.252 . S
O1225 Gd1186 2.386 . S
O1225 C1243 1.265 . S
O1226 Gd1187 2.353 . S
O1226 C1243 1.242 . S
O1227 Gd1187 2.447 1_565 S
O1227 C1251 1.274 . S
O1228 Gd1187 2.421 1_565 S
O1228 C1251 1.257 . S
O1229 Gd1186 2.307 . S
O1229 C1244 1.261 . S
O1230 Gd1187 2.388 . S
O1230 C1244 1.252 . S
C1231 O1219 1.265 . S
C1231 O1220 1.242 . S
C1232 O1223 1.261 . S
C1232 O1224 1.252 . S
C1233 C1236 1.394 . S
C1233 C1238 1.370 . S
C1233 C1239 1.500 . S
C1234 C1237 1.383 . S
C1234 C1238 1.395 . S
C1235 C1236 1.396 . S
C1235 C1237 1.365 . S
C1235 H1252 0.929 . S
C1236 C1233 1.394 . S
C1236 C1235 1.396 . S
C1236 H1253 0.930 . S
C1237 C1234 1.383 . S
C1237 C1235 1.365 . S
C1237 H1254 0.931 . S
C1238 C1233 1.370 . S
C1238 C1234 1.395 . S
C1238 H1255 0.930 . S
C1239 Gd1186 2.805 . S
C1239 O1221 1.263 . S
C1239 O1222 1.252 . S
C1239 C1233 1.500 . S
C1240 H1202 0.930 . S
C1240 C1216 1.417 . S
C1240 C1241 1.329 . S
C1241 C1211 1.437 . S
C1241 H1212 0.929 . S
C1241 C1240 1.329 . S
H1242 C1215 0.931 . S
C1243 O1225 1.265 . S
C1243 O1226 1.242 . S
C1244 O1229 1.261 . S
C1244 O1230 1.252 . S
C1245 C1248 1.394 . S
C1245 C1250 1.370 . S
C1245 C1251 1.500 . S
C1246 C1249 1.383 . S
C1246 C1250 1.395 . S
C1247 C1248 1.396 . S
C1247 C1249 1.365 . S
C1247 H1256 0.929 . S
C1248 C1245 1.394 . S
C1248 C1247 1.396 . S
C1248 H1257 0.930 . S
C1249 C1246 1.383 . S
C1249 C1247 1.365 . S
C1249 H1258 0.931 . S
C1250 C1245 1.370 . S
C1250 C1246 1.395 . S
C1250 H1259 0.930 . S
C1251 Gd1187 2.805 1_565 S
C1251 O1227 1.274 . S
C1251 O1228 1.257 . S
C1251 C1245 1.500 . S
H1252 C1235 0.929 . S
H1253 C1236 0.930 . S
H1254 C1237 0.931 . S
H1255 C1238 0.930 . S
H1256 C1247 0.929 . S
H1257 C1248 0.930 . S
H1258 C1249 0.931 . S
H1259 C1250 0.930 . S
C1260 C1262 1.422 . S
C1260 C1264 1.415 . S
C1260 N1266 1.369 . S
C1261 C1262 1.421 . S
C1261 C1263 1.417 . S
C1261 C1273 1.422 . S
C1262 C1260 1.422 . S
C1262 C1261 1.421 . S
C1262 N1272 1.359 . S
C1263 C1261 1.417 . S
C1263 C1265 1.329 . S
C1263 H1282 0.930 . S
C1264 C1260 1.415 . S
C1264 C1265 1.437 . S
C1264 C1268 1.413 . S
C1265 C1263 1.329 . S
C1265 C1264 1.437 . S
C1265 H1287 0.929 . S
N1266 C1260 1.369 . S
N1266 C1267 1.338 . S
N1266 Gd1271 2.622 . S
C1267 N1266 1.338 . S
C1267 C1269 1.378 . S
C1267 H1279 0.929 . S
C1268 C1264 1.413 . S
C1268 C1269 1.348 . S
C1268 H1284 0.931 . S
C1269 C1267 1.378 . S
C1269 C1268 1.348 . S
C1269 H1285 0.930 . S
Gd1270 N1290 2.622 1_455 S
Gd1270 N1297 2.570 1_455 S
Gd1270 O1304 2.353 . S
Gd1270 O1305 2.468 . S
Gd1270 O1306 2.427 . S
Gd1270 O1308 2.388 . S
Gd1270 O1309 2.386 . S
Gd1270 O1313 2.307 . S
Gd1270 C1323 2.805 . S
Gd1271 N1266 2.622 . S
Gd1271 N1272 2.570 . S
Gd1271 O1303 2.386 . S
Gd1271 O1307 2.307 . S
Gd1271 O1310 2.353 . S
Gd1271 O1311 2.468 . S
Gd1271 O1312 2.427 . S
Gd1271 O1314 2.388 . S
Gd1271 C1335 2.805 . S
N1272 C1262 1.359 . S
N1272 Gd1271 2.570 . S
N1272 C1274 1.343 . S
C1273 C1261 1.422 . S
C1273 C1275 1.321 . S
C1273 H1281 0.931 . S
C1274 N1272 1.343 . S
C1274 C1275 1.390 . S
C1274 H1276 0.931 . S
C1275 C1273 1.321 . S
C1275 C1274 1.390 . S
C1275 H1277 0.930 . S
H1276 C1274 0.931 . S
H1277 C1275 0.930 . S
H1278 C1301 0.929 1_455 S
H1279 C1267 0.929 . S
H1280 C1302 0.930 . S
H1281 C1273 0.931 . S
H1282 C1263 0.930 . S
H1283 C1292 0.929 . S
H1284 C1268 0.931 . S
H1285 C1269 0.930 . S
H1286 C1324 0.930 . S
H1287 C1265 0.929 . S
H1288 C1293 0.931 . S
H1289 C1294 0.930 . S
N1290 Gd1270 2.622 1_655 S
N1290 C1291 1.369 . S
N1290 C1292 1.338 1_655 S
C1291 N1290 1.369 . S
C1291 C1295 1.415 . S
C1291 C1298 1.422 . S
C1292 H1283 0.929 . S
C1292 N1290 1.338 1_455 S
C1292 C1294 1.378 1_455 S
C1293 H1288 0.931 . S
C1293 C1294 1.348 . S
C1293 C1295 1.413 . S
C1294 H1289 0.930 . S
C1294 C1292 1.378 1_655 S
C1294 C1293 1.348 . S
C1295 C1291 1.415 . S
C1295 C1293 1.413 . S
C1295 C1325 1.437 . S
H1296 C1325 0.929 . S
N1297 Gd1270 2.570 1_655 S
N1297 C1298 1.359 . S
N1297 C1301 1.343 . S
C1298 C1291 1.422 . S
C1298 N1297 1.359 . S
C1298 C1300 1.421 . S
C1299 C1300 1.422 . S
C1299 C1302 1.321 . S
C1299 H1326 0.931 . S
C1300 C1298 1.421 . S
C1300 C1299 1.422 . S
C1300 C1324 1.417 . S
C1301 H1278 0.929 1_655 S
C1301 N1297 1.343 . S
C1301 C1302 1.390 . S
C1302 H1280 0.930 . S
C1302 C1299 1.321 . S
C1302 C1301 1.390 . S
O1303 Gd1271 2.386 . S
O1303 C1315 1.265 . S
O1304 Gd1270 2.353 . S
O1304 C1315 1.242 . S
O1305 Gd1270 2.468 . S
O1305 C1323 1.263 . S
O1306 Gd1270 2.427 . S
O1306 C1323 1.252 . S
O1307 Gd1271 2.307 . S
O1307 C1316 1.261 . S
O1308 Gd1270 2.388 . S
O1308 C1316 1.252 . S
O1309 Gd1270 2.386 . S
O1309 C1327 1.265 . S
O1310 Gd1271 2.353 . S
O1310 C1327 1.242 . S
O1311 Gd1271 2.468 . S
O1311 C1335 1.263 . S
O1312 Gd1271 2.427 . S
O1312 C1335 1.252 . S
O1313 Gd1270 2.307 . S
O1313 C1328 1.261 . S
O1314 Gd1271 2.388 . S
O1314 C1328 1.252 . S
C1315 O1303 1.265 . S
C1315 O1304 1.242 . S
C1316 O1307 1.261 . S
C1316 O1308 1.252 . S
C1317 C1320 1.394 1_455 S
C1317 C1322 1.369 . S
C1317 C1323 1.500 . S
C1318 C1321 1.383 . S
C1318 C1322 1.398 1_655 S
C1319 C1320 1.396 . S
C1319 C1321 1.365 . S
C1319 H1336 0.929 . S
C1320 C1317 1.394 1_655 S
C1320 C1319 1.396 . S
C1320 H1337 0.930 . S
C1321 C1318 1.383 . S
C1321 C1319 1.365 . S
C1321 H1338 0.931 . S
C1322 C1317 1.369 . S
C1322 C1318 1.398 1_455 S
C1322 H1339 0.929 . S
C1323 Gd1270 2.805 . S
C1323 O1305 1.263 . S
C1323 O1306 1.252 . S
C1323 C1317 1.500 . S
C1324 H1286 0.930 . S
C1324 C1300 1.417 . S
C1324 C1325 1.329 . S
C1325 C1295 1.437 . S
C1325 H1296 0.929 . S
C1325 C1324 1.329 . S
H1326 C1299 0.931 . S
C1327 O1309 1.265 . S
C1327 O1310 1.242 . S
C1328 O1313 1.261 . S
C1328 O1314 1.252 . S
C1329 C1332 1.394 . S
C1329 C1334 1.370 . S
C1329 C1335 1.500 . S
C1330 C1333 1.383 . S
C1330 C1334 1.395 . S
C1331 C1332 1.396 . S
C1331 C1333 1.365 . S
C1331 H1340 0.929 . S
C1332 C1329 1.394 . S
C1332 C1331 1.396 . S
C1332 H1341 0.930 . S
C1333 C1330 1.383 . S
C1333 C1331 1.365 . S
C1333 H1342 0.931 . S
C1334 C1329 1.370 . S
C1334 C1330 1.395 . S
C1334 H1343 0.930 . S
C1335 Gd1271 2.805 . S
C1335 O1311 1.263 . S
C1335 O1312 1.252 . S
C1335 C1329 1.500 . S
H1336 C1319 0.929 . S
H1337 C1320 0.930 . S
H1338 C1321 0.931 . S
H1339 C1322 0.929 . S
H1340 C1331 0.929 . S
H1341 C1332 0.930 . S
H1342 C1333 0.931 . S
H1343 C1334 0.930 . S
C1344 C1346 1.422 . S
C1344 C1348 1.415 . S
C1344 N1350 1.369 . S
C1345 C1346 1.421 . S
C1345 C1347 1.417 . S
C1345 C1357 1.422 . S
C1346 C1344 1.422 . S
C1346 C1345 1.421 . S
C1346 N1356 1.359 . S
C1347 C1345 1.417 . S
C1347 C1349 1.329 . S
C1347 H1366 0.930 . S
C1348 C1344 1.415 . S
C1348 C1349 1.437 . S
C1348 C1352 1.413 . S
C1349 C1347 1.329 . S
C1349 C1348 1.437 . S
C1349 H1371 0.929 . S
N1350 C1344 1.369 . S
N1350 C1351 1.338 . S
N1350 Gd1355 2.622 . S
C1351 N1350 1.338 . S
C1351 C1353 1.378 . S
C1351 H1363 0.929 . S
C1352 C1348 1.413 . S
C1352 C1353 1.348 . S
C1352 H1368 0.931 . S
C1353 C1351 1.378 . S
C1353 C1352 1.348 . S
C1353 H1369 0.930 . S
Gd1354 N1374 2.622 . S
Gd1354 N1381 2.570 . S
Gd1354 O1388 2.358 . S
Gd1354 O1389 2.468 . S
Gd1354 O1390 2.427 . S
Gd1354 O1392 2.388 . S
Gd1354 O1393 2.386 1_556 S
Gd1354 O1397 2.307 1_556 S
Gd1354 C1407 2.805 . S
Gd1355 N1350 2.622 . S
Gd1355 N1356 2.570 . S
Gd1355 O1387 2.386 . S
Gd1355 O1391 2.307 . S
Gd1355 O1394 2.353 . S
Gd1355 O1395 2.468 . S
Gd1355 O1396 2.427 . S
Gd1355 O1398 2.388 . S
Gd1355 C1419 2.805 . S
N1356 C1346 1.359 . S
N1356 Gd1355 2.570 . S
N1356 C1358 1.343 . S
C1357 C1345 1.422 . S
C1357 C1359 1.321 . S
C1357 H1365 0.931 . S
C1358 N1356 1.343 . S
C1358 C1359 1.390 . S
C1358 H1360 0.931 . S
C1359 C1357 1.321 . S
C1359 C1358 1.390 . S
C1359 H1361 0.930 . S
H1360 C1358 0.931 . S
H1361 C1359 0.930 . S
H1362 C1385 0.931 . S
H1363 C1351 0.929 . S
H1364 C1386 0.930 . S
H1365 C1357 0.931 . S
H1366 C1347 0.930 . S
H1367 C1376 0.929 . S
H1368 C1352 0.931 . S
H1369 C1353 0.930 . S
H1370 C1408 0.930 . S
H1371 C1349 0.929 . S
H1372 C1377 0.931 . S
H1373 C1378 0.930 . S
N1374 Gd1354 2.622 . S
N1374 C1375 1.369 . S
N1374 C1376 1.338 . S
C1375 N1374 1.369 . S
C1375 C1379 1.415 . S
C1375 C1382 1.422 . S
C1376 H1367 0.929 . S
C1376 N1374 1.338 . S
C1376 C1378 1.378 . S
C1377 H1372 0.931 . S
C1377 C1378 1.348 . S
C1377 C1379 1.413 . S
C1378 H1373 0.930 . S
C1378 C1376 1.378 . S
C1378 C1377 1.348 . S
C1379 C1375 1.415 . S
C1379 C1377 1.413 . S
C1379 C1409 1.437 . S
H1380 C1409 0.929 . S
N1381 Gd1354 2.570 . S
N1381 C1382 1.359 . S
N1381 C1385 1.343 1_556 S
C1382 C1375 1.422 . S
C1382 N1381 1.359 . S
C1382 C1384 1.421 . S
C1383 C1384 1.422 . S
C1383 C1386 1.321 1_556 S
C1383 H1410 0.931 . S
C1384 C1382 1.421 . S
C1384 C1383 1.422 . S
C1384 C1408 1.417 . S
C1385 H1362 0.931 . S
C1385 N1381 1.343 1_554 S
C1385 C1386 1.390 . S
C1386 H1364 0.930 . S
C1386 C1383 1.321 1_554 S
C1386 C1385 1.390 . S
O1387 Gd1355 2.386 . S
O1387 C1399 1.265 . S
O1388 Gd1354 2.358 . S
O1388 C1399 1.224 1_556 S
O1389 Gd1354 2.468 . S
O1389 C1407 1.263 . S
O1390 Gd1354 2.427 . S
O1390 C1407 1.252 . S
O1391 Gd1355 2.307 . S
O1391 C1400 1.261 1_554 S
O1392 Gd1354 2.388 . S
O1392 C1400 1.252 . S
O1393 Gd1354 2.386 1_554 S
O1393 C1411 1.265 . S
O1394 Gd1355 2.353 . S
O1394 C1411 1.242 . S
O1395 Gd1355 2.468 . S
O1395 C1419 1.263 . S
O1396 Gd1355 2.427 . S
O1396 C1419 1.252 . S
O1397 Gd1354 2.307 1_554 S
O1397 C1412 1.261 . S
O1398 Gd1355 2.388 . S
O1398 C1412 1.252 . S
C1399 O1387 1.265 . S
C1399 O1388 1.224 1_554 S
C1400 O1391 1.261 1_556 S
C1400 O1392 1.252 . S
C1401 C1404 1.394 . S
C1401 C1406 1.370 . S
C1401 C1407 1.500 . S
C1402 C1405 1.383 . S
C1402 C1406 1.395 . S
C1403 C1404 1.396 . S
C1403 C1405 1.365 . S
C1403 H1420 0.929 . S
C1404 C1401 1.394 . S
C1404 C1403 1.396 . S
C1404 H1421 0.930 . S
C1405 C1402 1.383 . S
C1405 C1403 1.365 . S
C1405 H1422 0.931 . S
C1406 C1401 1.370 . S
C1406 C1402 1.395 . S
C1406 H1423 0.930 . S
C1407 Gd1354 2.805 . S
C1407 O1389 1.263 . S
C1407 O1390 1.252 . S
C1407 C1401 1.500 . S
C1408 H1370 0.930 . S
C1408 C1384 1.417 . S
C1408 C1409 1.329 . S
C1409 C1379 1.437 . S
C1409 H1380 0.929 . S
C1409 C1408 1.329 . S
H1410 C1383 0.931 . S
C1411 O1393 1.265 . S
C1411 O1394 1.242 . S
C1412 O1397 1.261 . S
C1412 O1398 1.252 . S
C1413 C1416 1.394 . S
C1413 C1418 1.370 . S
C1413 C1419 1.500 . S
C1414 C1417 1.383 . S
C1414 C1418 1.395 . S
C1415 C1416 1.396 . S
C1415 C1417 1.365 . S
C1415 H1424 0.929 . S
C1416 C1413 1.394 . S
C1416 C1415 1.396 . S
C1416 H1425 0.930 . S
C1417 C1414 1.383 . S
C1417 C1415 1.365 . S
C1417 H1426 0.931 . S
C1418 C1413 1.370 . S
C1418 C1414 1.395 . S
C1418 H1427 0.930 . S
C1419 Gd1355 2.805 . S
C1419 O1395 1.263 . S
C1419 O1396 1.252 . S
C1419 C1413 1.500 . S
H1420 C1403 0.929 . S
H1421 C1404 0.930 . S
H1422 C1405 0.931 . S
H1423 C1406 0.930 . S
H1424 C1415 0.929 . S
H1425 C1416 0.930 . S
H1426 C1417 0.931 . S
H1427 C1418 0.930 . S
C1428 C1430 1.422 . S
C1428 C1432 1.415 . S
C1428 N1434 1.369 . S
C1429 C1430 1.421 . S
C1429 C1431 1.417 . S
C1429 C1441 1.422 . S
C1430 C1428 1.422 . S
C1430 C1429 1.421 . S
C1430 N1440 1.359 . S
C1431 C1429 1.417 . S
C1431 C1433 1.329 . S
C1431 H1450 0.930 . S
C1432 C1428 1.415 . S
C1432 C1433 1.437 . S
C1432 C1436 1.413 . S
C1433 C1431 1.329 . S
C1433 C1432 1.437 . S
C1433 H1455 0.929 . S
N1434 C1428 1.369 . S
N1434 C1435 1.338 . S
N1434 Gd1439 2.622 . S
C1435 N1434 1.338 . S
C1435 C1437 1.378 . S
C1435 H1447 0.929 . S
C1436 C1432 1.413 . S
C1436 C1437 1.348 . S
C1436 H1452 0.931 . S
C1437 C1435 1.378 . S
C1437 C1436 1.348 . S
C1437 H1453 0.930 . S
Gd1438 N1458 2.622 1_554 S
Gd1438 N1465 2.570 1_554 S
Gd1438 O1472 2.353 . S
Gd1438 O1473 2.468 1_554 S
Gd1438 O1474 2.427 1_554 S
Gd1438 O1476 2.388 . S
Gd1438 O1477 2.386 . S
Gd1438 O1481 2.307 . S
Gd1438 C1491 2.805 1_554 S
Gd1439 N1434 2.622 . S
Gd1439 N1440 2.570 . S
Gd1439 O1471 2.386 . S
Gd1439 O1475 2.307 . S
Gd1439 O1478 2.353 . S
Gd1439 O1479 2.468 . S
Gd1439 O1480 2.427 . S
Gd1439 O1482 2.388 . S
Gd1439 C1503 2.805 . S
N1440 C1430 1.359 . S
N1440 Gd1439 2.570 . S
N1440 C1442 1.343 . S
C1441 C1429 1.422 . S
C1441 C1443 1.321 . S
C1441 H1449 0.931 . S
C1442 N1440 1.343 . S
C1442 C1443 1.390 . S
C1442 H1444 0.931 . S
C1443 C1441 1.321 . S
C1443 C1442 1.390 . S
C1443 H1445 0.930 . S
H1444 C1442 0.931 . S
H1445 C1443 0.930 . S
H1446 C1469 0.931 . S
H1447 C1435 0.929 . S
H1448 C1470 0.930 . S
H1449 C1441 0.931 . S
H1450 C1431 0.930 . S
H1451 C1460 0.929 . S
H1452 C1436 0.931 . S
H1453 C1437 0.930 . S
H1454 C1492 0.930 . S
H1455 C1433 0.929 . S
H1456 C1461 0.931 . S
H1457 C1462 0.930 . S
N1458 Gd1438 2.622 1_556 S
N1458 C1459 1.369 . S
N1458 C1460 1.338 . S
C1459 N1458 1.369 . S
C1459 C1463 1.415 . S
C1459 C1466 1.422 . S
C1460 H1451 0.929 . S
C1460 N1458 1.338 . S
C1460 C1462 1.378 . S
C1461 H1456 0.931 . S
C1461 C1462 1.348 . S
C1461 C1463 1.413 . S
C1462 H1457 0.930 . S
C1462 C1460 1.378 . S
C1462 C1461 1.348 . S
C1463 C1459 1.415 . S
C1463 C1461 1.413 . S
C1463 C1493 1.437 . S
H1464 C1493 0.929 . S
N1465 Gd1438 2.570 1_556 S
N1465 C1466 1.359 . S
N1465 C1469 1.343 . S
C1466 C1459 1.422 . S
C1466 N1465 1.359 . S
C1466 C1468 1.421 . S
C1467 C1468 1.422 . S
C1467 C1470 1.321 . S
C1467 H1494 0.931 . S
C1468 C1466 1.421 . S
C1468 C1467 1.422 . S
C1468 C1492 1.417 . S
C1469 H1446 0.931 . S
C1469 N1465 1.343 . S
C1469 C1470 1.390 . S
C1470 H1448 0.930 . S
C1470 C1467 1.321 . S
C1470 C1469 1.390 . S
O1471 Gd1439 2.386 . S
O1471 C1483 1.265 . S
O1472 Gd1438 2.353 . S
O1472 C1483 1.242 . S
O1473 Gd1438 2.468 1_556 S
O1473 C1491 1.263 . S
O1474 Gd1438 2.427 1_556 S
O1474 C1491 1.252 . S
O1475 Gd1439 2.307 . S
O1475 C1484 1.261 . S
O1476 Gd1438 2.388 . S
O1476 C1484 1.252 . S
O1477 Gd1438 2.386 . S
O1477 C1495 1.265 . S
O1478 Gd1439 2.353 . S
O1478 C1495 1.242 . S
O1479 Gd1439 2.468 . S
O1479 C1503 1.263 . S
O1480 Gd1439 2.427 . S
O1480 C1503 1.252 . S
O1481 Gd1438 2.307 . S
O1481 C1496 1.261 . S
O1482 Gd1439 2.388 . S
O1482 C1496 1.252 . S
C1483 O1471 1.265 . S
C1483 O1472 1.242 . S
C1484 O1475 1.261 . S
C1484 O1476 1.252 . S
C1485 C1488 1.394 . S
C1485 C1490 1.370 . S
C1485 C1491 1.500 . S
C1486 C1489 1.383 . S
C1486 C1490 1.395 . S
C1487 C1488 1.396 . S
C1487 C1489 1.365 . S
C1487 H1504 0.929 . S
C1488 C1485 1.394 . S
C1488 C1487 1.396 . S
C1488 H1505 0.930 . S
C1489 C1486 1.383 . S
C1489 C1487 1.365 . S
C1489 H1506 0.931 . S
C1490 C1485 1.370 . S
C1490 C1486 1.395 . S
C1490 H1507 0.930 . S
C1491 Gd1438 2.805 1_556 S
C1491 O1473 1.263 . S
C1491 O1474 1.252 . S
C1491 C1485 1.500 . S
C1492 H1454 0.930 . S
C1492 C1468 1.417 . S
C1492 C1493 1.329 . S
C1493 C1463 1.437 . S
C1493 H1464 0.929 . S
C1493 C1492 1.329 . S
H1494 C1467 0.931 . S
C1495 O1477 1.265 . S
C1495 O1478 1.242 . S
C1496 O1481 1.261 . S
C1496 O1482 1.252 . S
C1497 C1500 1.394 . S
C1497 C1502 1.370 . S
C1497 C1503 1.500 . S
C1498 C1501 1.383 . S
C1498 C1502 1.395 . S
C1499 C1500 1.396 . S
C1499 C1501 1.365 . S
C1499 H1508 0.929 . S
C1500 C1497 1.394 . S
C1500 C1499 1.396 . S
C1500 H1509 0.930 . S
C1501 C1498 1.383 . S
C1501 C1499 1.365 . S
C1501 H1510 0.931 . S
C1502 C1497 1.370 . S
C1502 C1498 1.395 . S
C1502 H1511 0.930 . S
C1503 Gd1439 2.805 . S
C1503 O1479 1.263 . S
C1503 O1480 1.252 . S
C1503 C1497 1.500 . S
H1504 C1487 0.929 . S
H1505 C1488 0.930 . S
H1506 C1489 0.931 . S
H1507 C1490 0.930 . S
H1508 C1499 0.929 . S
H1509 C1500 0.930 . S
H1510 C1501 0.931 . S
H1511 C1502 0.930 . S
C1512 C1514 1.422 . S
C1512 C1516 1.415 . S
C1512 N1518 1.369 . S
C1513 C1514 1.421 . S
C1513 C1515 1.417 . S
C1513 C1525 1.422 . S
C1514 C1512 1.422 . S
C1514 C1513 1.421 . S
C1514 N1524 1.359 . S
C1515 C1513 1.417 . S
C1515 C1517 1.329 . S
C1515 H1534 0.930 . S
C1516 C1512 1.415 . S
C1516 C1517 1.437 . S
C1516 C1520 1.413 . S
C1517 C1515 1.329 . S
C1517 C1516 1.437 . S
C1517 H1539 0.929 . S
N1518 C1512 1.369 . S
N1518 C1519 1.338 . S
N1518 Gd1523 2.622 . S
C1519 N1518 1.338 . S
C1519 C1521 1.378 . S
C1519 H1531 0.929 . S
C1520 C1516 1.413 . S
C1520 C1521 1.348 . S
C1520 H1536 0.931 . S
C1521 C1519 1.378 . S
C1521 C1520 1.348 . S
C1521 H1537 0.930 . S
Gd1522 N1542 2.622 . S
Gd1522 N1549 2.570 . S
Gd1522 O1556 2.353 . S
Gd1522 O1557 2.468 . S
Gd1522 O1558 2.427 . S
Gd1522 O1560 2.388 . S
Gd1522 O1561 2.386 . S
Gd1522 O1565 2.307 . S
Gd1522 C1575 2.805 . S
Gd1523 N1518 2.622 . S
Gd1523 N1524 2.570 . S
Gd1523 O1555 2.386 . S
Gd1523 O1559 2.307 . S
Gd1523 O1562 2.353 . S
Gd1523 O1563 2.468 . S
Gd1523 O1564 2.427 . S
Gd1523 O1566 2.388 . S
Gd1523 C1587 2.805 . S
N1524 C1514 1.359 . S
N1524 Gd1523 2.570 . S
N1524 C1526 1.343 . S
C1525 C1513 1.422 . S
C1525 C1527 1.321 . S
C1525 H1533 0.931 . S
C1526 N1524 1.343 . S
C1526 C1527 1.390 . S
C1526 H1528 0.931 . S
C1527 C1525 1.321 . S
C1527 C1526 1.390 . S
C1527 H1529 0.930 . S
H1528 C1526 0.931 . S
H1529 C1527 0.930 . S
H1530 C1553 0.931 1_554 S
H1531 C1519 0.929 . S
H1532 C1554 0.930 . S
H1533 C1525 0.931 . S
H1534 C1515 0.930 . S
H1535 C1544 0.929 . S
H1536 C1520 0.931 . S
H1537 C1521 0.930 . S
H1538 C1576 0.930 . S
H1539 C1517 0.929 . S
H1540 C1545 0.931 . S
H1541 C1546 0.930 . S
N1542 Gd1522 2.622 . S
N1542 C1543 1.369 1_554 S
N1542 C1544 1.338 . S
C1543 N1542 1.369 1_556 S
C1543 C1547 1.415 . S
C1543 C1550 1.422 . S
C1544 H1535 0.929 . S
C1544 N1542 1.338 . S
C1544 C1546 1.378 1_554 S
C1545 H1540 0.931 . S
C1545 C1546 1.348 . S
C1545 C1547 1.413 . S
C1546 H1541 0.930 . S
C1546 C1544 1.378 1_556 S
C1546 C1545 1.348 . S
C1547 C1543 1.415 . S
C1547 C1545 1.413 . S
C1547 C1577 1.437 . S
H1548 C1577 0.929 . S
N1549 Gd1522 2.570 . S
N1549 C1550 1.359 1_554 S
N1549 C1553 1.343 1_554 S
C1550 C1543 1.422 . S
C1550 N1549 1.359 1_556 S
C1550 C1552 1.421 . S
C1551 C1552 1.422 . S
C1551 C1554 1.321 . S
C1551 H1578 0.931 . S
C1552 C1550 1.421 . S
C1552 C1551 1.422 . S
C1552 C1576 1.417 . S
C1553 H1530 0.931 1_556 S
C1553 N1549 1.343 1_556 S
C1553 C1554 1.390 . S
C1554 H1532 0.930 . S
C1554 C1551 1.321 . S
C1554 C1553 1.390 . S
O1555 Gd1523 2.386 . S
O1555 C1567 1.265 . S
O1556 Gd1522 2.353 . S
O1556 C1567 1.242 . S
O1557 Gd1522 2.468 . S
O1557 C1575 1.263 . S
O1558 Gd1522 2.427 . S
O1558 C1575 1.252 . S
O1559 Gd1523 2.307 . S
O1559 C1568 1.261 . S
O1560 Gd1522 2.388 . S
O1560 C1568 1.252 . S
O1561 Gd1522 2.386 . S
O1561 C1579 1.265 . S
O1562 Gd1523 2.353 . S
O1562 C1579 1.242 . S
O1563 Gd1523 2.468 . S
O1563 C1587 1.263 . S
O1564 Gd1523 2.427 . S
O1564 C1587 1.252 . S
O1565 Gd1522 2.307 . S
O1565 C1580 1.261 . S
O1566 Gd1523 2.388 . S
O1566 C1580 1.252 . S
C1567 O1555 1.265 . S
C1567 O1556 1.242 . S
C1568 O1559 1.261 . S
C1568 O1560 1.252 . S
C1569 C1572 1.394 . S
C1569 C1574 1.370 . S
C1569 C1575 1.500 . S
C1570 C1573 1.400 . S
C1570 C1574 1.374 1_556 S
C1571 C1572 1.396 1_556 S
C1571 C1573 1.365 . S
C1571 H1588 0.929 . S
C1572 C1569 1.394 . S
C1572 C1571 1.396 1_554 S
C1572 H1589 0.930 . S
C1573 C1570 1.400 . S
C1573 C1571 1.365 . S
C1573 H1590 0.931 . S
C1574 C1569 1.370 . S
C1574 C1570 1.374 1_554 S
C1574 H1591 0.930 . S
C1575 Gd1522 2.805 . S
C1575 O1557 1.263 . S
C1575 O1558 1.252 . S
C1575 C1569 1.500 . S
C1576 H1538 0.930 . S
C1576 C1552 1.417 . S
C1576 C1577 1.329 . S
C1577 C1547 1.437 . S
C1577 H1548 0.929 . S
C1577 C1576 1.329 . S
H1578 C1551 0.931 . S
C1579 O1561 1.265 . S
C1579 O1562 1.242 . S
C1580 O1565 1.261 . S
C1580 O1566 1.252 . S
C1581 C1584 1.394 . S
C1581 C1586 1.370 . S
C1581 C1587 1.500 . S
C1582 C1585 1.383 . S
C1582 C1586 1.395 . S
C1583 C1584 1.396 . S
C1583 C1585 1.365 . S
C1583 H1592 0.929 . S
C1584 C1581 1.394 . S
C1584 C1583 1.396 . S
C1584 H1593 0.930 . S
C1585 C1582 1.383 . S
C1585 C1583 1.365 . S
C1585 H1594 0.931 . S
C1586 C1581 1.370 . S
C1586 C1582 1.395 . S
C1586 H1595 0.930 . S
C1587 Gd1523 2.805 . S
C1587 O1563 1.263 . S
C1587 O1564 1.252 . S
C1587 C1581 1.500 . S
H1588 C1571 0.929 . S
H1589 C1572 0.930 . S
H1590 C1573 0.931 . S
H1591 C1574 0.930 . S
H1592 C1583 0.929 . S
H1593 C1584 0.930 . S
H1594 C1585 0.931 . S
H1595 C1586 0.930 . S
C1596 C1598 1.422 . S
C1596 C1600 1.415 . S
C1596 N1602 1.369 . S
C1597 C1598 1.421 . S
C1597 C1599 1.417 . S
C1597 C1609 1.422 . S
C1598 C1596 1.422 . S
C1598 C1597 1.421 . S
C1598 N1608 1.359 . S
C1599 C1597 1.417 . S
C1599 C1601 1.329 . S
C1599 H1618 0.930 . S
C1600 C1596 1.415 . S
C1600 C1601 1.437 . S
C1600 C1604 1.413 . S
C1601 C1599 1.329 . S
C1601 C1600 1.437 . S
C1601 H1623 0.929 . S
N1602 C1596 1.369 . S
N1602 C1603 1.338 . S
N1602 Gd1607 2.622 . S
C1603 N1602 1.338 . S
C1603 C1605 1.378 . S
C1603 H1615 0.929 . S
C1604 C1600 1.413 . S
C1604 C1605 1.348 . S
C1604 H1620 0.931 . S
C1605 C1603 1.378 . S
C1605 C1604 1.348 . S
C1605 H1621 0.930 . S
Gd1606 N1626 2.622 1_554 S
Gd1606 N1633 2.570 1_554 S
Gd1606 O1640 2.353 . S
Gd1606 O1641 2.468 1_554 S
Gd1606 O1642 2.427 1_554 S
Gd1606 O1644 2.388 . S
Gd1606 O1645 2.386 . S
Gd1606 O1649 2.307 . S
Gd1606 C1659 2.805 1_554 S
Gd1607 N1602 2.622 . S
Gd1607 N1608 2.570 . S
Gd1607 O1639 2.386 . S
Gd1607 O1643 2.307 . S
Gd1607 O1646 2.353 . S
Gd1607 O1647 2.468 . S
Gd1607 O1648 2.427 . S
Gd1607 O1650 2.388 . S
Gd1607 C1671 2.805 . S
N1608 C1598 1.359 . S
N1608 Gd1607 2.570 . S
N1608 C1610 1.343 . S
C1609 C1597 1.422 . S
C1609 C1611 1.321 . S
C1609 H1617 0.931 . S
C1610 N1608 1.343 . S
C1610 C1611 1.390 . S
C1610 H1612 0.931 . S
C1611 C1609 1.321 . S
C1611 C1610 1.390 . S
C1611 H1613 0.930 . S
H1612 C1610 0.931 . S
H1613 C1611 0.930 . S
H1614 C1637 0.931 . S
H1615 C1603 0.929 . S
H1616 C1638 0.930 . S
H1617 C1609 0.931 . S
H1618 C1599 0.930 . S
H1619 C1628 0.929 . S
H1620 C1604 0.931 . S
H1621 C1605 0.930 . S
H1622 C1660 0.930 . S
H1623 C1601 0.929 . S
H1624 C1629 0.931 . S
H1625 C1630 0.930 . S
N1626 Gd1606 2.622 1_556 S
N1626 C1627 1.369 . S
N1626 C1628 1.338 . S
C1627 N1626 1.369 . S
C1627 C1631 1.415 . S
C1627 C1634 1.422 . S
C1628 H1619 0.929 . S
C1628 N1626 1.338 . S
C1628 C1630 1.378 . S
C1629 H1624 0.931 . S
C1629 C1630 1.348 . S
C1629 C1631 1.413 . S
C1630 H1625 0.930 . S
C1630 C1628 1.378 . S
C1630 C1629 1.348 . S
C1631 C1627 1.415 . S
C1631 C1629 1.413 . S
C1631 C1661 1.437 . S
H1632 C1661 0.929 . S
N1633 Gd1606 2.570 1_556 S
N1633 C1634 1.359 . S
N1633 C1637 1.343 . S
C1634 C1627 1.422 . S
C1634 N1633 1.359 . S
C1634 C1636 1.421 . S
C1635 C1636 1.422 . S
C1635 C1638 1.321 . S
C1635 H1662 0.931 . S
C1636 C1634 1.421 . S
C1636 C1635 1.422 . S
C1636 C1660 1.417 . S
C1637 H1614 0.931 . S
C1637 N1633 1.343 . S
C1637 C1638 1.390 . S
C1638 H1616 0.930 . S
C1638 C1635 1.321 . S
C1638 C1637 1.390 . S
O1639 Gd1607 2.386 . S
O1639 C1651 1.265 . S
O1640 Gd1606 2.353 . S
O1640 C1651 1.242 . S
O1641 Gd1606 2.468 1_556 S
O1641 C1659 1.263 . S
O1642 Gd1606 2.427 1_556 S
O1642 C1659 1.252 . S
O1643 Gd1607 2.307 . S
O1643 C1652 1.261 . S
O1644 Gd1606 2.388 . S
O1644 C1652 1.252 . S
O1645 Gd1606 2.386 . S
O1645 C1663 1.265 . S
O1646 Gd1607 2.353 . S
O1646 C1663 1.242 . S
O1647 Gd1607 2.468 . S
O1647 C1671 1.263 . S
O1648 Gd1607 2.427 . S
O1648 C1671 1.252 . S
O1649 Gd1606 2.307 . S
O1649 C1664 1.261 . S
O1650 Gd1607 2.388 . S
O1650 C1664 1.252 . S
C1651 O1639 1.265 . S
C1651 O1640 1.242 . S
C1652 O1643 1.261 . S
C1652 O1644 1.252 . S
C1653 C1656 1.394 . S
C1653 C1658 1.370 . S
C1653 C1659 1.500 . S
C1654 C1657 1.383 . S
C1654 C1658 1.395 . S
C1655 C1656 1.396 . S
C1655 C1657 1.365 . S
C1655 H1672 0.929 . S
C1656 C1653 1.394 . S
C1656 C1655 1.396 . S
C1656 H1673 0.930 . S
C1657 C1654 1.383 . S
C1657 C1655 1.365 . S
C1657 H1674 0.931 . S
C1658 C1653 1.370 . S
C1658 C1654 1.395 . S
C1658 H1675 0.930 . S
C1659 Gd1606 2.805 1_556 S
C1659 O1641 1.263 . S
C1659 O1642 1.252 . S
C1659 C1653 1.500 . S
C1660 H1622 0.930 . S
C1660 C1636 1.417 . S
C1660 C1661 1.329 . S
C1661 C1631 1.437 . S
C1661 H1632 0.929 . S
C1661 C1660 1.329 . S
H1662 C1635 0.931 . S
C1663 O1645 1.265 . S
C1663 O1646 1.242 . S
C1664 O1649 1.261 . S
C1664 O1650 1.252 . S
C1665 C1668 1.394 . S
C1665 C1670 1.370 . S
C1665 C1671 1.500 . S
C1666 C1669 1.383 . S
C1666 C1670 1.395 . S
C1667 C1668 1.396 . S
C1667 C1669 1.365 . S
C1667 H1676 0.929 . S
C1668 C1665 1.394 . S
C1668 C1667 1.396 . S
C1668 H1677 0.930 . S
C1669 C1666 1.383 . S
C1669 C1667 1.365 . S
C1669 H1678 0.931 . S
C1670 C1665 1.370 . S
C1670 C1666 1.395 . S
C1670 H1679 0.930 . S
C1671 Gd1607 2.805 . S
C1671 O1647 1.263 . S
C1671 O1648 1.252 . S
C1671 C1665 1.500 . S
H1672 C1655 0.929 . S
H1673 C1656 0.930 . S
H1674 C1657 0.931 . S
H1675 C1658 0.930 . S
H1676 C1667 0.929 . S
H1677 C1668 0.930 . S
H1678 C1669 0.931 . S
H1679 C1670 0.930 . S
C1680 C1682 1.422 . S
C1680 C1684 1.415 . S
C1680 N1686 1.369 . S
C1681 C1682 1.421 . S
C1681 C1683 1.417 . S
C1681 C1693 1.422 . S
C1682 C1680 1.422 . S
C1682 C1681 1.421 . S
C1682 N1692 1.359 . S
C1683 C1681 1.417 . S
C1683 C1685 1.329 . S
C1683 H1702 0.930 . S
C1684 C1680 1.415 . S
C1684 C1685 1.437 . S
C1684 C1688 1.413 . S
C1685 C1683 1.329 . S
C1685 C1684 1.437 . S
C1685 H1707 0.929 . S
N1686 C1680 1.369 . S
N1686 C1687 1.338 . S
N1686 Gd1691 2.622 . S
C1687 N1686 1.338 . S
C1687 C1689 1.378 . S
C1687 H1699 0.929 . S
C1688 C1684 1.413 . S
C1688 C1689 1.348 . S
C1688 H1704 0.931 . S
C1689 C1687 1.378 . S
C1689 C1688 1.348 . S
C1689 H1705 0.930 . S
Gd1690 N1710 2.622 . S
Gd1690 N1717 2.570 . S
Gd1690 O1724 2.353 1_556 S
Gd1690 O1725 2.468 . S
Gd1690 O1726 2.427 . S
Gd1690 O1728 2.388 . S
Gd1690 O1729 2.386 . S
Gd1690 O1733 2.307 . S
Gd1690 C1743 2.805 . S
Gd1691 N1686 2.622 . S
Gd1691 N1692 2.570 . S
Gd1691 O1723 2.386 . S
Gd1691 O1727 2.307 . S
Gd1691 O1730 2.353 1_554 S
Gd1691 O1731 2.468 . S
Gd1691 O1732 2.427 . S
Gd1691 O1734 2.388 . S
Gd1691 C1755 2.805 . S
N1692 C1682 1.359 . S
N1692 Gd1691 2.570 . S
N1692 C1694 1.343 . S
C1693 C1681 1.422 . S
C1693 C1695 1.321 . S
C1693 H1701 0.931 . S
C1694 N1692 1.343 . S
C1694 C1695 1.390 . S
C1694 H1696 0.931 . S
C1695 C1693 1.321 . S
C1695 C1694 1.390 . S
C1695 H1697 0.930 . S
H1696 C1694 0.931 . S
H1697 C1695 0.930 . S
H1698 C1721 0.931 . S
H1699 C1687 0.929 . S
H1700 C1722 0.930 . S
H1701 C1693 0.931 . S
H1702 C1683 0.930 . S
H1703 C1712 0.929 . S
H1704 C1688 0.931 . S
H1705 C1689 0.930 . S
H1706 C1744 0.930 . S
H1707 C1685 0.929 . S
H1708 C1713 0.931 . S
H1709 C1714 0.930 . S
N1710 Gd1690 2.622 . S
N1710 C1711 1.369 . S
N1710 C1712 1.338 . S
C1711 N1710 1.369 . S
C1711 C1715 1.415 . S
C1711 C1718 1.422 . S
C1712 H1703 0.929 . S
C1712 N1710 1.338 . S
C1712 C1714 1.378 . S
C1713 H1708 0.931 . S
C1713 C1714 1.348 . S
C1713 C1715 1.413 . S
C1714 H1709 0.930 . S
C1714 C1712 1.378 . S
C1714 C1713 1.348 . S
C1715 C1711 1.415 . S
C1715 C1713 1.413 . S
C1715 C1745 1.437 . S
H1716 C1745 0.929 . S
N1717 Gd1690 2.570 . S
N1717 C1718 1.359 . S
N1717 C1721 1.343 . S
C1718 C1711 1.422 . S
C1718 N1717 1.359 . S
C1718 C1720 1.421 . S
C1719 C1720 1.422 . S
C1719 C1722 1.321 . S
C1719 H1746 0.931 . S
C1720 C1718 1.421 . S
C1720 C1719 1.422 . S
C1720 C1744 1.417 . S
C1721 H1698 0.931 . S
C1721 N1717 1.343 . S
C1721 C1722 1.390 . S
C1722 H1700 0.930 . S
C1722 C1719 1.321 . S
C1722 C1721 1.390 . S
O1723 Gd1691 2.386 . S
O1723 C1735 1.265 . S
O1724 Gd1690 2.353 1_554 S
O1724 C1735 1.242 . S
O1725 Gd1690 2.468 . S
O1725 C1743 1.263 . S
O1726 Gd1690 2.427 . S
O1726 C1743 1.252 . S
O1727 Gd1691 2.307 . S
O1727 C1736 1.261 . S
O1728 Gd1690 2.388 . S
O1728 C1736 1.252 1_556 S
O1729 Gd1690 2.386 . S
O1729 C1747 1.265 . S
O1730 Gd1691 2.353 1_556 S
O1730 C1747 1.242 . S
O1731 Gd1691 2.468 . S
O1731 C1755 1.263 . S
O1732 Gd1691 2.427 . S
O1732 C1755 1.252 . S
O1733 Gd1690 2.307 . S
O1733 C1748 1.261 . S
O1734 Gd1691 2.388 . S
O1734 C1748 1.252 1_554 S
C1735 O1723 1.265 . S
C1735 O1724 1.242 . S
C1736 O1727 1.261 . S
C1736 O1728 1.252 1_554 S
C1737 C1740 1.394 . S
C1737 C1742 1.370 . S
C1737 C1743 1.500 . S
C1738 C1741 1.383 . S
C1738 C1742 1.395 . S
C1739 C1740 1.396 . S
C1739 C1741 1.365 . S
C1739 H1756 0.929 . S
C1740 C1737 1.394 . S
C1740 C1739 1.396 . S
C1740 H1757 0.930 . S
C1741 C1738 1.383 . S
C1741 C1739 1.365 . S
C1741 H1758 0.931 . S
C1742 C1737 1.370 . S
C1742 C1738 1.395 . S
C1742 H1759 0.930 . S
C1743 Gd1690 2.805 . S
C1743 O1725 1.263 . S
C1743 O1726 1.252 . S
C1743 C1737 1.500 . S
C1744 H1706 0.930 . S
C1744 C1720 1.417 . S
C1744 C1745 1.329 . S
C1745 C1715 1.437 . S
C1745 H1716 0.929 . S
C1745 C1744 1.329 . S
H1746 C1719 0.931 . S
C1747 O1729 1.265 . S
C1747 O1730 1.242 . S
C1748 O1733 1.261 . S
C1748 O1734 1.252 1_556 S
C1749 C1752 1.394 . S
C1749 C1754 1.370 . S
C1749 C1755 1.500 . S
C1750 C1753 1.383 . S
C1750 C1754 1.395 . S
C1751 C1752 1.396 . S
C1751 C1753 1.365 . S
C1751 H1760 0.929 . S
C1752 C1749 1.394 . S
C1752 C1751 1.396 . S
C1752 H1761 0.930 . S
C1753 C1750 1.383 . S
C1753 C1751 1.365 . S
C1753 H1762 0.931 . S
C1754 C1749 1.370 . S
C1754 C1750 1.395 . S
C1754 H1763 0.930 . S
C1755 Gd1691 2.805 . S
C1755 O1731 1.263 . S
C1755 O1732 1.252 . S
C1755 C1749 1.500 . S
H1756 C1739 0.929 . S
H1757 C1740 0.930 . S
H1758 C1741 0.931 . S
H1759 C1742 0.930 . S
H1760 C1751 0.929 . S
H1761 C1752 0.930 . S
H1762 C1753 0.931 . S
H1763 C1754 0.930 . S
C1764 C1766 1.422 . S
C1764 C1768 1.415 . S
C1764 N1770 1.369 . S
C1765 C1766 1.421 . S
C1765 C1767 1.417 . S
C1765 C1777 1.422 . S
C1766 C1764 1.422 . S
C1766 C1765 1.421 . S
C1766 N1776 1.359 . S
C1767 C1765 1.417 . S
C1767 C1769 1.329 . S
C1767 H1786 0.930 . S
C1768 C1764 1.415 . S
C1768 C1769 1.437 . S
C1768 C1772 1.413 . S
C1769 C1767 1.329 . S
C1769 C1768 1.437 . S
C1769 H1791 0.929 . S
N1770 C1764 1.369 . S
N1770 C1771 1.338 . S
N1770 Gd1775 2.622 . S
C1771 N1770 1.338 . S
C1771 C1773 1.378 . S
C1771 H1783 0.929 . S
C1772 C1768 1.413 . S
C1772 C1773 1.348 . S
C1772 H1788 0.931 . S
C1773 C1771 1.378 . S
C1773 C1772 1.348 . S
C1773 H1789 0.930 . S
Gd1774 N1794 2.622 1_554 S
Gd1774 N1801 2.570 . S
Gd1774 O1808 2.353 . S
Gd1774 O1809 2.468 . S
Gd1774 O1810 2.427 1_554 S
Gd1774 O1812 2.388 . S
Gd1774 O1813 2.386 . S
Gd1774 O1817 2.307 . S
Gd1774 C1827 2.805 1_554 S
Gd1775 N1770 2.622 . S
Gd1775 N1776 2.570 . S
Gd1775 O1807 2.386 . S
Gd1775 O1811 2.307 . S
Gd1775 O1814 2.353 . S
Gd1775 O1815 2.468 . S
Gd1775 O1816 2.427 . S
Gd1775 O1818 2.388 . S
Gd1775 C1839 2.805 . S
N1776 C1766 1.359 . S
N1776 Gd1775 2.570 . S
N1776 C1778 1.343 . S
C1777 C1765 1.422 . S
C1777 C1779 1.321 . S
C1777 H1785 0.931 . S
C1778 N1776 1.343 . S
C1778 C1779 1.390 . S
C1778 H1780 0.931 . S
C1779 C1777 1.321 . S
C1779 C1778 1.390 . S
C1779 H1781 0.930 . S
H1780 C1778 0.931 . S
H1781 C1779 0.930 . S
H1782 C1805 0.931 . S
H1783 C1771 0.929 . S
H1784 C1806 0.930 . S
H1785 C1777 0.931 . S
H1786 C1767 0.930 . S
H1787 C1796 0.929 . S
H1788 C1772 0.931 . S
H1789 C1773 0.930 . S
H1790 C1828 0.930 . S
H1791 C1769 0.929 . S
H1792 C1797 0.931 . S
H1793 C1798 0.930 . S
N1794 Gd1774 2.622 1_556 S
N1794 C1795 1.369 . S
N1794 C1796 1.338 . S
C1795 N1794 1.369 . S
C1795 C1799 1.415 . S
C1795 C1802 1.422 1_556 S
C1796 H1787 0.929 . S
C1796 N1794 1.338 . S
C1796 C1798 1.378 . S
C1797 H1792 0.931 . S
C1797 C1798 1.348 . S
C1797 C1799 1.413 . S
C1798 H1793 0.930 . S
C1798 C1796 1.378 . S
C1798 C1797 1.348 . S
C1799 C1795 1.415 . S
C1799 C1797 1.413 . S
C1799 C1829 1.437 . S
H1800 C1829 0.929 . S
N1801 Gd1774 2.570 . S
N1801 C1802 1.359 . S
N1801 C1805 1.343 . S
C1802 C1795 1.422 1_554 S
C1802 N1801 1.359 . S
C1802 C1804 1.421 . S
C1803 C1804 1.422 . S
C1803 C1806 1.321 . S
C1803 H1830 0.931 . S
C1804 C1802 1.421 . S
C1804 C1803 1.422 . S
C1804 C1828 1.417 1_554 S
C1805 H1782 0.931 . S
C1805 N1801 1.343 . S
C1805 C1806 1.390 . S
C1806 H1784 0.930 . S
C1806 C1803 1.321 . S
C1806 C1805 1.390 . S
O1807 Gd1775 2.386 . S
O1807 C1819 1.265 . S
O1808 Gd1774 2.353 . S
O1808 C1819 1.242 . S
O1809 Gd1774 2.468 . S
O1809 C1827 1.263 1_554 S
O1810 Gd1774 2.427 1_556 S
O1810 C1827 1.252 . S
O1811 Gd1775 2.307 . S
O1811 C1820 1.261 . S
O1812 Gd1774 2.388 . S
O1812 C1820 1.252 . S
O1813 Gd1774 2.386 . S
O1813 C1831 1.265 . S
O1814 Gd1775 2.353 . S
O1814 C1831 1.242 . S
O1815 Gd1775 2.468 . S
O1815 C1839 1.263 . S
O1816 Gd1775 2.427 . S
O1816 C1839 1.252 . S
O1817 Gd1774 2.307 . S
O1817 C1832 1.261 . S
O1818 Gd1775 2.388 . S
O1818 C1832 1.252 . S
C1819 O1807 1.265 . S
C1819 O1808 1.242 . S
C1820 O1811 1.261 . S
C1820 O1812 1.252 . S
C1821 C1824 1.394 . S
C1821 C1826 1.370 . S
C1821 C1827 1.500 . S
C1822 C1825 1.383 . S
C1822 C1826 1.395 . S
C1823 C1824 1.396 . S
C1823 C1825 1.365 . S
C1823 H1840 0.929 . S
C1824 C1821 1.394 . S
C1824 C1823 1.396 . S
C1824 H1841 0.930 . S
C1825 C1822 1.383 . S
C1825 C1823 1.365 . S
C1825 H1842 0.931 . S
C1826 C1821 1.370 . S
C1826 C1822 1.395 . S
C1826 H1843 0.930 1_556 S
C1827 Gd1774 2.805 1_556 S
C1827 O1809 1.263 1_556 S
C1827 O1810 1.252 . S
C1827 C1821 1.500 . S
C1828 H1790 0.930 . S
C1828 C1804 1.417 1_556 S
C1828 C1829 1.329 . S
C1829 C1799 1.437 . S
C1829 H1800 0.929 . S
C1829 C1828 1.329 . S
H1830 C1803 0.931 . S
C1831 O1813 1.265 . S
C1831 O1814 1.242 . S
C1832 O1817 1.261 . S
C1832 O1818 1.252 . S
C1833 C1836 1.394 . S
C1833 C1838 1.370 . S
C1833 C1839 1.500 . S
C1834 C1837 1.383 . S
C1834 C1838 1.395 . S
C1835 C1836 1.396 . S
C1835 C1837 1.365 . S
C1835 H1844 0.929 . S
C1836 C1833 1.394 . S
C1836 C1835 1.396 . S
C1836 H1845 0.930 . S
C1837 C1834 1.383 . S
C1837 C1835 1.365 . S
C1837 H1846 0.931 . S
C1838 C1833 1.370 . S
C1838 C1834 1.395 . S
C1838 H1847 0.930 . S
C1839 Gd1775 2.805 . S
C1839 O1815 1.263 . S
C1839 O1816 1.252 . S
C1839 C1833 1.500 . S
H1840 C1823 0.929 . S
H1841 C1824 0.930 . S
H1842 C1825 0.931 . S
H1843 C1826 0.930 1_554 S
H1844 C1835 0.929 . S
H1845 C1836 0.930 . S
H1846 C1837 0.931 . S
H1847 C1838 0.930 . S
C1848 C1850 1.422 . S
C1848 C1852 1.415 . S
C1848 N1854 1.369 . S
C1849 C1850 1.421 . S
C1849 C1851 1.417 . S
C1849 C1861 1.422 . S
C1850 C1848 1.422 . S
C1850 C1849 1.421 . S
C1850 N1860 1.359 . S
C1851 C1849 1.417 . S
C1851 C1853 1.329 . S
C1851 H1870 0.930 . S
C1852 C1848 1.415 . S
C1852 C1853 1.437 . S
C1852 C1856 1.413 . S
C1853 C1851 1.329 . S
C1853 C1852 1.437 . S
C1853 H1875 0.929 . S
N1854 C1848 1.369 . S
N1854 C1855 1.338 . S
N1854 Gd1859 2.622 1_556 S
C1855 N1854 1.338 . S
C1855 C1857 1.378 . S
C1855 H1867 0.929 . S
C1856 C1852 1.413 . S
C1856 C1857 1.348 . S
C1856 H1872 0.931 . S
C1857 C1855 1.378 . S
C1857 C1856 1.348 . S
C1857 H1873 0.930 . S
Gd1858 N1878 2.622 . S
Gd1858 N1885 2.570 . S
Gd1858 O1892 2.353 . S
Gd1858 O1893 2.468 . S
Gd1858 O1894 2.427 . S
Gd1858 O1896 2.388 . S
Gd1858 O1897 2.386 . S
Gd1858 O1901 2.307 . S
Gd1858 C1911 2.805 . S
Gd1859 N1854 2.622 1_554 S
Gd1859 N1860 2.570 1_554 S
Gd1859 O1891 2.386 . S
Gd1859 O1895 2.307 . S
Gd1859 O1898 2.353 . S
Gd1859 O1899 2.468 . S
Gd1859 O1900 2.451 . S
Gd1859 O1902 2.388 . S
Gd1859 C1923 2.805 1_554 S
N1860 C1850 1.359 . S
N1860 Gd1859 2.570 1_556 S
N1860 C1862 1.343 . S
C1861 C1849 1.422 . S
C1861 C1863 1.321 . S
C1861 H1869 0.931 . S
C1862 N1860 1.343 . S
C1862 C1863 1.390 . S
C1862 H1864 0.931 . S
C1863 C1861 1.321 . S
C1863 C1862 1.390 . S
C1863 H1865 0.930 . S
H1864 C1862 0.931 . S
H1865 C1863 0.930 . S
H1866 C1889 0.931 . S
H1867 C1855 0.929 . S
H1868 C1890 0.930 . S
H1869 C1861 0.931 . S
H1870 C1851 0.930 . S
H1871 C1880 0.929 . S
H1872 C1856 0.931 . S
H1873 C1857 0.930 . S
H1874 C1912 0.930 . S
H1875 C1853 0.929 . S
H1876 C1881 0.931 . S
H1877 C1882 0.930 . S
N1878 Gd1858 2.622 . S
N1878 C1879 1.369 . S
N1878 C1880 1.338 . S
C1879 N1878 1.369 . S
C1879 C1883 1.415 . S
C1879 C1886 1.422 . S
C1880 H1871 0.929 . S
C1880 N1878 1.338 . S
C1880 C1882 1.378 . S
C1881 H1876 0.931 . S
C1881 C1882 1.348 . S
C1881 C1883 1.413 . S
C1882 H1877 0.930 . S
C1882 C1880 1.378 . S
C1882 C1881 1.348 . S
C1883 C1879 1.415 . S
C1883 C1881 1.413 . S
C1883 C1913 1.437 . S
H1884 C1913 0.929 . S
N1885 Gd1858 2.570 . S
N1885 C1886 1.359 . S
N1885 C1889 1.343 . S
C1886 C1879 1.422 . S
C1886 N1885 1.359 . S
C1886 C1888 1.421 . S
C1887 C1888 1.422 . S
C1887 C1890 1.321 . S
C1887 H1914 0.931 . S
C1888 C1886 1.421 . S
C1888 C1887 1.422 . S
C1888 C1912 1.417 . S
C1889 H1866 0.931 . S
C1889 N1885 1.343 . S
C1889 C1890 1.390 . S
C1890 H1868 0.930 . S
C1890 C1887 1.321 . S
C1890 C1889 1.390 . S
O1891 Gd1859 2.386 . S
O1891 C1903 1.265 . S
O1892 Gd1858 2.353 . S
O1892 C1903 1.242 . S
O1893 Gd1858 2.468 . S
O1893 C1911 1.263 . S
O1894 Gd1858 2.427 . S
O1894 C1911 1.252 . S
O1895 Gd1859 2.307 . S
O1895 C1904 1.261 . S
O1896 Gd1858 2.388 . S
O1896 C1904 1.252 . S
O1897 Gd1858 2.386 . S
O1897 C1915 1.265 . S
O1898 Gd1859 2.353 . S
O1898 C1915 1.242 . S
O1899 Gd1859 2.468 . S
O1899 C1923 1.263 1_554 S
O1900 Gd1859 2.451 . S
O1900 C1923 1.246 1_554 S
O1901 Gd1858 2.307 . S
O1901 C1916 1.261 . S
O1902 Gd1859 2.388 . S
O1902 C1916 1.252 . S
C1903 O1891 1.265 . S
C1903 O1892 1.242 . S
C1904 O1895 1.261 . S
C1904 O1896 1.252 . S
C1905 C1908 1.394 . S
C1905 C1910 1.370 . S
C1905 C1911 1.500 . S
C1906 C1909 1.383 . S
C1906 C1910 1.395 . S
C1907 C1908 1.396 . S
C1907 C1909 1.365 . S
C1907 H1924 0.929 . S
C1908 C1905 1.394 . S
C1908 C1907 1.396 . S
C1908 H1925 0.930 . S
C1909 C1906 1.383 . S
C1909 C1907 1.365 . S
C1909 H1926 0.931 . S
C1910 C1905 1.370 . S
C1910 C1906 1.395 . S
C1910 H1927 0.930 . S
C1911 Gd1858 2.805 . S
C1911 O1893 1.263 . S
C1911 O1894 1.252 . S
C1911 C1905 1.500 . S
C1912 H1874 0.930 . S
C1912 C1888 1.417 . S
C1912 C1913 1.329 . S
C1913 C1883 1.437 . S
C1913 H1884 0.929 . S
C1913 C1912 1.329 . S
H1914 C1887 0.931 . S
C1915 O1897 1.265 . S
C1915 O1898 1.242 . S
C1916 O1901 1.261 . S
C1916 O1902 1.252 . S
C1917 C1920 1.394 . S
C1917 C1922 1.370 . S
C1917 C1923 1.500 . S
C1918 C1921 1.383 . S
C1918 C1922 1.395 . S
C1919 C1920 1.396 . S
C1919 C1921 1.365 . S
C1919 H1928 0.929 . S
C1920 C1917 1.394 . S
C1920 C1919 1.396 . S
C1920 H1929 0.930 . S
C1921 C1918 1.383 . S
C1921 C1919 1.365 . S
C1921 H1930 0.931 . S
C1922 C1917 1.370 . S
C1922 C1918 1.395 . S
C1922 H1931 0.930 . S
C1923 Gd1859 2.805 1_556 S
C1923 O1899 1.263 1_556 S
C1923 O1900 1.246 1_556 S
C1923 C1917 1.500 . S
H1924 C1907 0.929 . S
H1925 C1908 0.930 . S
H1926 C1909 0.931 . S
H1927 C1910 0.930 . S
H1928 C1919 0.929 . S
H1929 C1920 0.930 . S
H1930 C1921 0.931 . S
H1931 C1922 0.930 . S
C1932 C1934 1.422 . S
C1932 C1936 1.415 . S
C1932 N1938 1.369 . S
C1933 C1934 1.421 . S
C1933 C1935 1.417 . S
C1933 C1945 1.422 . S
C1934 C1932 1.422 . S
C1934 C1933 1.421 . S
C1934 N1944 1.359 . S
C1935 C1933 1.417 . S
C1935 C1937 1.329 . S
C1935 H1954 0.930 . S
C1936 C1932 1.415 . S
C1936 C1937 1.437 . S
C1936 C1940 1.413 . S
C1937 C1935 1.329 . S
C1937 C1936 1.437 . S
C1937 H1959 0.929 . S
N1938 C1932 1.369 . S
N1938 C1939 1.338 . S
N1938 Gd1943 2.622 . S
C1939 N1938 1.338 . S
C1939 C1941 1.378 . S
C1939 H1951 0.929 . S
C1940 C1936 1.413 . S
C1940 C1941 1.348 . S
C1940 H1956 0.931 . S
C1941 C1939 1.378 . S
C1941 C1940 1.348 . S
C1941 H1957 0.930 . S
Gd1942 N1962 2.622 . S
Gd1942 N1969 2.570 . S
Gd1942 O1976 2.353 . S
Gd1942 O1977 2.468 . S
Gd1942 O1978 2.427 . S
Gd1942 O1980 2.388 . S
Gd1942 O1981 2.386 . S
Gd1942 O1985 2.307 . S
Gd1942 C1995 2.805 . S
Gd1943 N1938 2.622 . S
Gd1943 N1944 2.570 . S
Gd1943 O1975 2.386 . S
Gd1943 O1979 2.307 1_556 S
Gd1943 O1982 2.353 1_556 S
Gd1943 O1983 2.468 . S
Gd1943 O1984 2.427 . S
Gd1943 O1986 2.388 1_556 S
Gd1943 C2007 2.805 . S
N1944 C1934 1.359 . S
N1944 Gd1943 2.570 . S
N1944 C1946 1.343 . S
C1945 C1933 1.422 . S
C1945 C1947 1.321 . S
C1945 H1953 0.931 . S
C1946 N1944 1.343 . S
C1946 C1947 1.390 . S
C1946 H1948 0.931 . S
C1947 C1945 1.321 . S
C1947 C1946 1.390 . S
C1947 H1949 0.930 . S
H1948 C1946 0.931 . S
H1949 C1947 0.930 . S
H1950 C1973 0.931 . S
H1951 C1939 0.929 . S
H1952 C1974 0.930 . S
H1953 C1945 0.931 . S
H1954 C1935 0.930 . S
H1955 C1964 0.929 . S
H1956 C1940 0.931 . S
H1957 C1941 0.930 . S
H1958 C1996 0.930 . S
H1959 C1937 0.929 . S
H1960 C1965 0.931 . S
H1961 C1966 0.930 . S
N1962 Gd1942 2.622 . S
N1962 C1963 1.369 . S
N1962 C1964 1.338 . S
C1963 N1962 1.369 . S
C1963 C1967 1.415 . S
C1963 C1970 1.422 . S
C1964 H1955 0.929 . S
C1964 N1962 1.338 . S
C1964 C1966 1.378 . S
C1965 H1960 0.931 . S
C1965 C1966 1.348 . S
C1965 C1967 1.413 . S
C1966 H1961 0.930 . S
C1966 C1964 1.378 . S
C1966 C1965 1.348 . S
C1967 C1963 1.415 . S
C1967 C1965 1.413 . S
C1967 C1997 1.437 . S
H1968 C1997 0.929 . S
N1969 Gd1942 2.570 . S
N1969 C1970 1.359 . S
N1969 C1973 1.343 . S
C1970 C1963 1.422 . S
C1970 N1969 1.359 . S
C1970 C1972 1.421 . S
C1971 C1972 1.422 . S
C1971 C1974 1.321 . S
C1971 H1998 0.931 . S
C1972 C1970 1.421 . S
C1972 C1971 1.422 . S
C1972 C1996 1.417 . S
C1973 H1950 0.931 . S
C1973 N1969 1.343 . S
C1973 C1974 1.390 . S
C1974 H1952 0.930 . S
C1974 C1971 1.321 . S
C1974 C1973 1.390 . S
O1975 Gd1943 2.386 . S
O1975 C1987 1.265 1_556 S
O1976 Gd1942 2.353 . S
O1976 C1987 1.242 . S
O1977 Gd1942 2.468 . S
O1977 C1995 1.263 . S
O1978 Gd1942 2.427 . S
O1978 C1995 1.252 . S
O1979 Gd1943 2.307 1_554 S
O1979 C1988 1.261 . S
O1980 Gd1942 2.388 . S
O1980 C1988 1.252 . S
O1981 Gd1942 2.386 . S
O1981 C1999 1.265 . S
O1982 Gd1943 2.353 1_554 S
O1982 C1999 1.242 . S
O1983 Gd1943 2.468 . S
O1983 C2007 1.263 . S
O1984 Gd1943 2.427 . S
O1984 C2007 1.252 . S
O1985 Gd1942 2.307 . S
O1985 C2000 1.261 . S
O1986 Gd1943 2.388 1_554 S
O1986 C2000 1.252 . S
C1987 O1975 1.265 1_554 S
C1987 O1976 1.242 . S
C1988 O1979 1.261 . S
C1988 O1980 1.252 . S
C1989 C1992 1.394 . S
C1989 C1994 1.370 . S
C1989 C1995 1.500 . S
C1990 C1993 1.383 . S
C1990 C1994 1.395 . S
C1991 C1992 1.396 . S
C1991 C1993 1.365 . S
C1991 H2008 0.929 . S
C1992 C1989 1.394 . S
C1992 C1991 1.396 . S
C1992 H2009 0.930 . S
C1993 C1990 1.383 . S
C1993 C1991 1.365 . S
C1993 H2010 0.931 . S
C1994 C1989 1.370 . S
C1994 C1990 1.395 . S
C1994 H2011 0.930 . S
C1995 Gd1942 2.805 . S
C1995 O1977 1.263 . S
C1995 O1978 1.252 . S
C1995 C1989 1.500 . S
C1996 H1958 0.930 . S
C1996 C1972 1.417 . S
C1996 C1997 1.329 . S
C1997 C1967 1.437 . S
C1997 H1968 0.929 . S
C1997 C1996 1.329 . S
H1998 C1971 0.931 . S
C1999 O1981 1.265 . S
C1999 O1982 1.242 . S
C2000 O1985 1.261 . S
C2000 O1986 1.252 . S
C2001 C2004 1.394 . S
C2001 C2006 1.370 . S
C2001 C2007 1.500 . S
C2002 C2005 1.383 . S
C2002 C2006 1.395 . S
C2003 C2004 1.396 . S
C2003 C2005 1.365 . S
C2003 H2012 0.929 . S
C2004 C2001 1.394 . S
C2004 C2003 1.396 . S
C2004 H2013 0.930 . S
C2005 C2002 1.383 . S
C2005 C2003 1.365 . S
C2005 H2014 0.931 . S
C2006 C2001 1.370 . S
C2006 C2002 1.395 . S
C2006 H2015 0.930 . S
C2007 Gd1943 2.805 . S
C2007 O1983 1.263 . S
C2007 O1984 1.252 . S
C2007 C2001 1.500 . S
H2008 C1991 0.929 . S
H2009 C1992 0.930 . S
H2010 C1993 0.931 . S
H2011 C1994 0.930 . S
H2012 C2003 0.929 . S
H2013 C2004 0.930 . S
H2014 C2005 0.931 . S
H2015 C2006 0.930 . S
C2016 C2018 1.422 . S
C2016 C2020 1.415 . S
C2016 N2022 1.369 . S
C2017 C2018 1.421 . S
C2017 C2019 1.417 . S
C2017 C2029 1.422 . S
C2018 C2016 1.422 . S
C2018 C2017 1.421 . S
C2018 N2028 1.359 . S
C2019 C2017 1.417 . S
C2019 C2021 1.329 . S
C2019 H2038 0.930 . S
C2020 C2016 1.415 . S
C2020 C2021 1.437 . S
C2020 C2024 1.413 . S
C2021 C2019 1.329 . S
C2021 C2020 1.437 . S
C2021 H2043 0.929 . S
N2022 C2016 1.369 . S
N2022 C2023 1.338 . S
N2022 Gd2027 2.622 . S
C2023 N2022 1.338 . S
C2023 C2025 1.378 . S
C2023 H2035 0.929 . S
C2024 C2020 1.413 . S
C2024 C2025 1.348 . S
C2024 H2040 0.931 . S
C2025 C2023 1.378 . S
C2025 C2024 1.348 . S
C2025 H2041 0.930 . S
Gd2026 N2046 2.622 . S
Gd2026 N2053 2.570 . S
Gd2026 O2060 2.353 . S
Gd2026 O2061 2.468 . S
Gd2026 O2062 2.427 . S
Gd2026 O2064 2.388 . S
Gd2026 O2065 2.386 . S
Gd2026 O2069 2.307 . S
Gd2026 C2079 2.805 . S
Gd2027 N2022 2.622 . S
Gd2027 N2028 2.570 . S
Gd2027 O2059 2.386 . S
Gd2027 O2063 2.307 . S
Gd2027 O2066 2.353 . S
Gd2027 O2067 2.468 . S
Gd2027 O2068 2.427 . S
Gd2027 O2070 2.388 . S
Gd2027 C2091 2.805 . S
N2028 C2018 1.359 . S
N2028 Gd2027 2.570 . S
N2028 C2030 1.343 . S
C2029 C2017 1.422 . S
C2029 C2031 1.321 . S
C2029 H2037 0.931 . S
C2030 N2028 1.343 . S
C2030 C2031 1.390 . S
C2030 H2032 0.931 . S
C2031 C2029 1.321 . S
C2031 C2030 1.390 . S
C2031 H2033 0.930 . S
H2032 C2030 0.931 . S
H2033 C2031 0.930 . S
H2034 C2057 0.931 . S
H2035 C2023 0.929 . S
H2036 C2058 0.930 . S
H2037 C2029 0.931 . S
H2038 C2019 0.930 . S
H2039 C2048 0.929 . S
H2040 C2024 0.931 . S
H2041 C2025 0.930 . S
H2042 C2080 0.930 . S
H2043 C2021 0.929 . S
H2044 C2049 0.931 . S
H2045 C2050 0.930 . S
N2046 Gd2026 2.622 . S
N2046 C2047 1.369 . S
N2046 C2048 1.338 . S
C2047 N2046 1.369 . S
C2047 C2051 1.415 . S
C2047 C2054 1.422 . S
C2048 H2039 0.929 . S
C2048 N2046 1.338 . S
C2048 C2050 1.378 . S
C2049 H2044 0.931 . S
C2049 C2050 1.348 . S
C2049 C2051 1.413 . S
C2050 H2045 0.930 . S
C2050 C2048 1.378 . S
C2050 C2049 1.348 . S
C2051 C2047 1.415 . S
C2051 C2049 1.413 . S
C2051 C2081 1.437 . S
H2052 C2081 0.929 . S
N2053 Gd2026 2.570 . S
N2053 C2054 1.359 . S
N2053 C2057 1.343 . S
C2054 C2047 1.422 . S
C2054 N2053 1.359 . S
C2054 C2056 1.421 . S
C2055 C2056 1.422 . S
C2055 C2058 1.321 . S
C2055 H2082 0.931 . S
C2056 C2054 1.421 . S
C2056 C2055 1.422 . S
C2056 C2080 1.417 . S
C2057 H2034 0.931 . S
C2057 N2053 1.343 . S
C2057 C2058 1.390 . S
C2058 H2036 0.930 . S
C2058 C2055 1.321 . S
C2058 C2057 1.390 . S
O2059 Gd2027 2.386 . S
O2059 C2071 1.265 . S
O2060 Gd2026 2.353 . S
O2060 C2071 1.242 . S
O2061 Gd2026 2.468 . S
O2061 C2079 1.263 . S
O2062 Gd2026 2.427 . S
O2062 C2079 1.252 . S
O2063 Gd2027 2.307 . S
O2063 C2072 1.261 . S
O2064 Gd2026 2.388 . S
O2064 C2072 1.252 . S
O2065 Gd2026 2.386 . S
O2065 C2083 1.265 . S
O2066 Gd2027 2.353 . S
O2066 C2083 1.242 . S
O2067 Gd2027 2.468 . S
O2067 C2091 1.263 . S
O2068 Gd2027 2.427 . S
O2068 C2091 1.252 . S
O2069 Gd2026 2.307 . S
O2069 C2084 1.261 . S
O2070 Gd2027 2.388 . S
O2070 C2084 1.252 . S
C2071 O2059 1.265 . S
C2071 O2060 1.242 . S
C2072 O2063 1.261 . S
C2072 O2064 1.252 . S
C2073 C2076 1.394 . S
C2073 C2078 1.370 . S
C2073 C2079 1.500 . S
C2074 C2077 1.383 . S
C2074 C2078 1.395 . S
C2075 C2076 1.396 . S
C2075 C2077 1.365 . S
C2075 H2092 0.929 . S
C2076 C2073 1.394 . S
C2076 C2075 1.396 . S
C2076 H2093 0.930 . S
C2077 C2074 1.383 . S
C2077 C2075 1.365 . S
C2077 H2094 0.931 . S
C2078 C2073 1.370 . S
C2078 C2074 1.395 . S
C2078 H2095 0.930 . S
C2079 Gd2026 2.805 . S
C2079 O2061 1.263 . S
C2079 O2062 1.252 . S
C2079 C2073 1.500 . S
C2080 H2042 0.930 . S
C2080 C2056 1.417 . S
C2080 C2081 1.329 . S
C2081 C2051 1.437 . S
C2081 H2052 0.929 . S
C2081 C2080 1.329 . S
H2082 C2055 0.931 . S
C2083 O2065 1.265 . S
C2083 O2066 1.242 . S
C2084 O2069 1.261 . S
C2084 O2070 1.252 . S
C2085 C2088 1.394 . S
C2085 C2090 1.370 . S
C2085 C2091 1.500 . S
C2086 C2089 1.383 . S
C2086 C2090 1.395 . S
C2087 C2088 1.396 . S
C2087 C2089 1.365 . S
C2087 H2096 0.929 . S
C2088 C2085 1.394 . S
C2088 C2087 1.396 . S
C2088 H2097 0.930 . S
C2089 C2086 1.383 . S
C2089 C2087 1.365 . S
C2089 H2098 0.931 . S
C2090 C2085 1.370 . S
C2090 C2086 1.395 . S
C2090 H2099 0.930 . S
C2091 Gd2027 2.805 . S
C2091 O2067 1.263 . S
C2091 O2068 1.252 . S
C2091 C2085 1.500 . S
H2092 C2075 0.929 . S
H2093 C2076 0.930 . S
H2094 C2077 0.931 . S
H2095 C2078 0.930 . S
H2096 C2087 0.929 . S
H2097 C2088 0.930 . S
H2098 C2089 0.931 . S
H2099 C2090 0.930 . S
C2100 C2102 1.422 . S
C2100 C2104 1.415 . S
C2100 N2106 1.369 . S
C2101 C2102 1.421 . S
C2101 C2103 1.417 . S
C2101 C2113 1.422 . S
C2102 C2100 1.422 . S
C2102 C2101 1.421 . S
C2102 N2112 1.359 . S
C2103 C2101 1.417 . S
C2103 C2105 1.329 . S
C2103 H2122 0.930 . S
C2104 C2100 1.415 . S
C2104 C2105 1.437 . S
C2104 C2108 1.413 . S
C2105 C2103 1.329 . S
C2105 C2104 1.437 . S
C2105 H2127 0.929 . S
N2106 C2100 1.369 . S
N2106 C2107 1.338 . S
N2106 Gd2111 2.622 . S
C2107 N2106 1.338 . S
C2107 C2109 1.378 . S
C2107 H2119 0.929 . S
C2108 C2104 1.413 . S
C2108 C2109 1.348 . S
C2108 H2124 0.931 . S
C2109 C2107 1.378 . S
C2109 C2108 1.348 . S
C2109 H2125 0.930 . S
Gd2110 N2130 2.622 . S
Gd2110 N2137 2.570 . S
Gd2110 O2144 2.353 . S
Gd2110 O2145 2.468 . S
Gd2110 O2146 2.427 . S
Gd2110 O2148 2.388 . S
Gd2110 O2149 2.386 . S
Gd2110 O2153 2.307 . S
Gd2110 C2163 2.805 . S
Gd2111 N2106 2.622 . S
Gd2111 N2112 2.570 . S
Gd2111 O2143 2.386 . S
Gd2111 O2147 2.307 . S
Gd2111 O2150 2.353 . S
Gd2111 O2151 2.468 . S
Gd2111 O2152 2.427 . S
Gd2111 O2154 2.388 . S
Gd2111 C2175 2.805 . S
N2112 C2102 1.359 . S
N2112 Gd2111 2.570 . S
N2112 C2114 1.343 . S
C2113 C2101 1.422 . S
C2113 C2115 1.321 . S
C2113 H2121 0.931 . S
C2114 N2112 1.343 . S
C2114 C2115 1.390 . S
C2114 H2116 0.931 . S
C2115 C2113 1.321 . S
C2115 C2114 1.390 . S
C2115 H2117 0.930 . S
H2116 C2114 0.931 . S
H2117 C2115 0.930 . S
H2118 C2141 0.931 . S
H2119 C2107 0.929 . S
H2120 C2142 0.930 . S
H2121 C2113 0.931 . S
H2122 C2103 0.930 . S
H2123 C2132 0.929 . S
H2124 C2108 0.931 . S
H2125 C2109 0.930 . S
H2126 C2164 0.930 . S
H2127 C2105 0.929 . S
H2128 C2133 0.931 . S
H2129 C2134 0.930 . S
N2130 Gd2110 2.622 . S
N2130 C2131 1.369 . S
N2130 C2132 1.338 . S
C2131 N2130 1.369 . S
C2131 C2135 1.415 . S
C2131 C2138 1.422 . S
C2132 H2123 0.929 . S
C2132 N2130 1.338 . S
C2132 C2134 1.378 . S
C2133 H2128 0.931 . S
C2133 C2134 1.348 . S
C2133 C2135 1.413 . S
C2134 H2129 0.930 . S
C2134 C2132 1.378 . S
C2134 C2133 1.348 . S
C2135 C2131 1.415 . S
C2135 C2133 1.413 . S
C2135 C2165 1.437 . S
H2136 C2165 0.929 . S
N2137 Gd2110 2.570 . S
N2137 C2138 1.359 . S
N2137 C2141 1.343 . S
C2138 C2131 1.422 . S
C2138 N2137 1.359 . S
C2138 C2140 1.421 . S
C2139 C2140 1.422 . S
C2139 C2142 1.321 . S
C2139 H2166 0.931 . S
C2140 C2138 1.421 . S
C2140 C2139 1.422 . S
C2140 C2164 1.417 . S
C2141 H2118 0.931 . S
C2141 N2137 1.343 . S
C2141 C2142 1.390 . S
C2142 H2120 0.930 . S
C2142 C2139 1.321 . S
C2142 C2141 1.390 . S
O2143 Gd2111 2.386 . S
O2143 C2155 1.265 . S
O2144 Gd2110 2.353 . S
O2144 C2155 1.242 . S
O2145 Gd2110 2.468 . S
O2145 C2163 1.263 . S
O2146 Gd2110 2.427 . S
O2146 C2163 1.252 . S
O2147 Gd2111 2.307 . S
O2147 C2156 1.261 . S
O2148 Gd2110 2.388 . S
O2148 C2156 1.252 . S
O2149 Gd2110 2.386 . S
O2149 C2167 1.265 . S
O2150 Gd2111 2.353 . S
O2150 C2167 1.242 . S
O2151 Gd2111 2.468 . S
O2151 C2175 1.263 . S
O2152 Gd2111 2.427 . S
O2152 C2175 1.252 . S
O2153 Gd2110 2.307 . S
O2153 C2168 1.261 . S
O2154 Gd2111 2.388 . S
O2154 C2168 1.252 . S
C2155 O2143 1.265 . S
C2155 O2144 1.242 . S
C2156 O2147 1.261 . S
C2156 O2148 1.252 . S
C2157 C2160 1.394 . S
C2157 C2162 1.370 . S
C2157 C2163 1.500 . S
C2158 C2161 1.383 . S
C2158 C2162 1.395 . S
C2159 C2160 1.396 . S
C2159 C2161 1.365 . S
C2159 H2176 0.929 . S
C2160 C2157 1.394 . S
C2160 C2159 1.396 . S
C2160 H2177 0.930 . S
C2161 C2158 1.383 . S
C2161 C2159 1.365 . S
C2161 H2178 0.931 . S
C2162 C2157 1.370 . S
C2162 C2158 1.395 . S
C2162 H2179 0.930 . S
C2163 Gd2110 2.805 . S
C2163 O2145 1.263 . S
C2163 O2146 1.252 . S
C2163 C2157 1.500 . S
C2164 H2126 0.930 . S
C2164 C2140 1.417 . S
C2164 C2165 1.329 . S
C2165 C2135 1.437 . S
C2165 H2136 0.929 . S
C2165 C2164 1.329 . S
H2166 C2139 0.931 . S
C2167 O2149 1.265 . S
C2167 O2150 1.242 . S
C2168 O2153 1.261 . S
C2168 O2154 1.252 . S
C2169 C2172 1.394 . S
C2169 C2174 1.370 . S
C2169 C2175 1.500 . S
C2170 C2173 1.383 . S
C2170 C2174 1.395 . S
C2171 C2172 1.396 . S
C2171 C2173 1.365 . S
C2171 H2180 0.929 . S
C2172 C2169 1.394 . S
C2172 C2171 1.396 . S
C2172 H2181 0.930 . S
C2173 C2170 1.383 . S
C2173 C2171 1.365 . S
C2173 H2182 0.931 . S
C2174 C2169 1.370 . S
C2174 C2170 1.395 . S
C2174 H2183 0.930 . S
C2175 Gd2111 2.805 . S
C2175 O2151 1.263 . S
C2175 O2152 1.252 . S
C2175 C2169 1.500 . S
H2176 C2159 0.929 . S
H2177 C2160 0.930 . S
H2178 C2161 0.931 . S
H2179 C2162 0.930 . S
H2180 C2171 0.929 . S
H2181 C2172 0.930 . S
H2182 C2173 0.931 . S
H2183 C2174 0.930 . S
C2184 C2186 1.422 . S
C2184 C2188 1.415 . S
C2184 N2190 1.369 . S
C2185 C2186 1.421 . S
C2185 C2187 1.417 . S
C2185 C2197 1.422 . S
C2186 C2184 1.422 . S
C2186 C2185 1.421 . S
C2186 N2196 1.359 . S
C2187 C2185 1.417 . S
C2187 C2189 1.329 . S
C2187 H2206 0.930 . S
C2188 C2184 1.415 . S
C2188 C2189 1.437 . S
C2188 C2192 1.413 . S
C2189 C2187 1.329 . S
C2189 C2188 1.437 . S
C2189 H2211 0.929 . S
N2190 C2184 1.369 . S
N2190 C2191 1.338 . S
N2190 Gd2195 2.622 . S
C2191 N2190 1.338 . S
C2191 C2193 1.378 . S
C2191 H2203 0.929 . S
C2192 C2188 1.413 . S
C2192 C2193 1.348 . S
C2192 H2208 0.931 . S
C2193 C2191 1.378 . S
C2193 C2192 1.348 . S
C2193 H2209 0.930 . S
Gd2194 N2214 2.622 . S
Gd2194 N2221 2.570 . S
Gd2194 O2228 2.353 . S
Gd2194 O2229 2.468 . S
Gd2194 O2230 2.427 . S
Gd2194 O2232 2.388 . S
Gd2194 O2233 2.386 . S
Gd2194 O2237 2.307 . S
Gd2194 C2247 2.805 . S
Gd2195 N2190 2.622 . S
Gd2195 N2196 2.570 . S
Gd2195 O2227 2.386 . S
Gd2195 O2231 2.307 . S
Gd2195 O2234 2.353 . S
Gd2195 O2235 2.468 . S
Gd2195 O2236 2.427 . S
Gd2195 O2238 2.388 . S
Gd2195 C2259 2.805 . S
N2196 C2186 1.359 . S
N2196 Gd2195 2.570 . S
N2196 C2198 1.343 . S
C2197 C2185 1.422 . S
C2197 C2199 1.321 . S
C2197 H2205 0.931 . S
C2198 N2196 1.343 . S
C2198 C2199 1.390 . S
C2198 H2200 0.931 . S
C2199 C2197 1.321 . S
C2199 C2198 1.390 . S
C2199 H2201 0.930 . S
H2200 C2198 0.931 . S
H2201 C2199 0.930 . S
H2202 C2225 0.931 . S
H2203 C2191 0.929 . S
H2204 C2226 0.930 . S
H2205 C2197 0.931 . S
H2206 C2187 0.930 . S
H2207 C2216 0.929 . S
H2208 C2192 0.931 . S
H2209 C2193 0.930 . S
H2210 C2248 0.930 . S
H2211 C2189 0.929 . S
H2212 C2217 0.931 . S
H2213 C2218 0.930 . S
N2214 Gd2194 2.622 . S
N2214 C2215 1.369 . S
N2214 C2216 1.338 . S
C2215 N2214 1.369 . S
C2215 C2219 1.415 . S
C2215 C2222 1.422 . S
C2216 H2207 0.929 . S
C2216 N2214 1.338 . S
C2216 C2218 1.378 . S
C2217 H2212 0.931 . S
C2217 C2218 1.348 . S
C2217 C2219 1.413 . S
C2218 H2213 0.930 . S
C2218 C2216 1.378 . S
C2218 C2217 1.348 . S
C2219 C2215 1.415 . S
C2219 C2217 1.413 . S
C2219 C2249 1.437 . S
H2220 C2249 0.929 . S
N2221 Gd2194 2.570 . S
N2221 C2222 1.359 . S
N2221 C2225 1.343 . S
C2222 C2215 1.422 . S
C2222 N2221 1.359 . S
C2222 C2224 1.421 . S
C2223 C2224 1.422 . S
C2223 C2226 1.321 . S
C2223 H2250 0.931 . S
C2224 C2222 1.421 . S
C2224 C2223 1.422 . S
C2224 C2248 1.417 . S
C2225 H2202 0.931 . S
C2225 N2221 1.343 . S
C2225 C2226 1.390 . S
C2226 H2204 0.930 . S
C2226 C2223 1.321 . S
C2226 C2225 1.390 . S
O2227 Gd2195 2.386 . S
O2227 C2239 1.265 . S
O2228 Gd2194 2.353 . S
O2228 C2239 1.242 . S
O2229 Gd2194 2.468 . S
O2229 C2247 1.263 . S
O2230 Gd2194 2.427 . S
O2230 C2247 1.252 . S
O2231 Gd2195 2.307 . S
O2231 C2240 1.261 . S
O2232 Gd2194 2.388 . S
O2232 C2240 1.252 . S
O2233 Gd2194 2.386 . S
O2233 C2251 1.265 . S
O2234 Gd2195 2.353 . S
O2234 C2251 1.242 . S
O2235 Gd2195 2.468 . S
O2235 C2259 1.263 . S
O2236 Gd2195 2.427 . S
O2236 C2259 1.252 . S
O2237 Gd2194 2.307 . S
O2237 C2252 1.261 . S
O2238 Gd2195 2.388 . S
O2238 C2252 1.252 . S
C2239 O2227 1.265 . S
C2239 O2228 1.242 . S
C2240 O2231 1.261 . S
C2240 O2232 1.252 . S
C2241 C2244 1.394 . S
C2241 C2246 1.370 . S
C2241 C2247 1.500 . S
C2242 C2245 1.383 . S
C2242 C2246 1.395 . S
C2243 C2244 1.396 . S
C2243 C2245 1.365 . S
C2243 H2260 0.929 . S
C2244 C2241 1.394 . S
C2244 C2243 1.396 . S
C2244 H2261 0.930 . S
C2245 C2242 1.383 . S
C2245 C2243 1.365 . S
C2245 H2262 0.931 . S
C2246 C2241 1.370 . S
C2246 C2242 1.395 . S
C2246 H2263 0.930 . S
C2247 Gd2194 2.805 . S
C2247 O2229 1.263 . S
C2247 O2230 1.252 . S
C2247 C2241 1.500 . S
C2248 H2210 0.930 . S
C2248 C2224 1.417 . S
C2248 C2249 1.329 . S
C2249 C2219 1.437 . S
C2249 H2220 0.929 . S
C2249 C2248 1.329 . S
H2250 C2223 0.931 . S
C2251 O2233 1.265 . S
C2251 O2234 1.242 . S
C2252 O2237 1.261 . S
C2252 O2238 1.252 . S
C2253 C2256 1.394 . S
C2253 C2258 1.370 . S
C2253 C2259 1.500 . S
C2254 C2257 1.383 . S
C2254 C2258 1.395 . S
C2255 C2256 1.396 . S
C2255 C2257 1.365 . S
C2255 H2264 0.929 . S
C2256 C2253 1.394 . S
C2256 C2255 1.396 . S
C2256 H2265 0.930 . S
C2257 C2254 1.383 . S
C2257 C2255 1.365 . S
C2257 H2266 0.931 . S
C2258 C2253 1.370 . S
C2258 C2254 1.395 . S
C2258 H2267 0.930 . S
C2259 Gd2195 2.805 . S
C2259 O2235 1.263 . S
C2259 O2236 1.252 . S
C2259 C2253 1.500 . S
H2260 C2243 0.929 . S
H2261 C2244 0.930 . S
H2262 C2245 0.931 . S
H2263 C2246 0.930 . S
H2264 C2255 0.929 . S
H2265 C2256 0.930 . S
H2266 C2257 0.931 . S
H2267 C2258 0.930 . S
C2268 C2270 1.422 . S
C2268 C2272 1.415 . S
C2268 N2274 1.369 . S
C2269 C2270 1.421 . S
C2269 C2271 1.417 . S
C2269 C2281 1.422 . S
C2270 C2268 1.422 . S
C2270 C2269 1.421 . S
C2270 N2280 1.359 . S
C2271 C2269 1.417 . S
C2271 C2273 1.329 . S
C2271 H2290 0.930 . S
C2272 C2268 1.415 . S
C2272 C2273 1.437 . S
C2272 C2276 1.413 . S
C2273 C2271 1.329 . S
C2273 C2272 1.437 . S
C2273 H2295 0.929 . S
N2274 C2268 1.369 . S
N2274 C2275 1.338 . S
N2274 Gd2279 2.622 . S
C2275 N2274 1.338 . S
C2275 C2277 1.378 . S
C2275 H2287 0.929 . S
C2276 C2272 1.413 . S
C2276 C2277 1.348 . S
C2276 H2292 0.931 . S
C2277 C2275 1.378 . S
C2277 C2276 1.348 . S
C2277 H2293 0.930 . S
Gd2278 N2298 2.622 . S
Gd2278 N2305 2.570 . S
Gd2278 O2312 2.353 . S
Gd2278 O2313 2.468 . S
Gd2278 O2314 2.427 . S
Gd2278 O2316 2.388 . S
Gd2278 O2317 2.386 . S
Gd2278 O2321 2.307 . S
Gd2278 C2331 2.805 . S
Gd2279 N2274 2.622 . S
Gd2279 N2280 2.570 . S
Gd2279 O2311 2.386 . S
Gd2279 O2315 2.307 . S
Gd2279 O2318 2.353 . S
Gd2279 O2319 2.468 . S
Gd2279 O2320 2.427 . S
Gd2279 O2322 2.388 . S
Gd2279 C2343 2.805 . S
N2280 C2270 1.359 . S
N2280 Gd2279 2.570 . S
N2280 C2282 1.343 . S
C2281 C2269 1.422 . S
C2281 C2283 1.321 . S
C2281 H2289 0.931 . S
C2282 N2280 1.343 . S
C2282 C2283 1.390 . S
C2282 H2284 0.931 . S
C2283 C2281 1.321 . S
C2283 C2282 1.390 . S
C2283 H2285 0.930 . S
H2284 C2282 0.931 . S
H2285 C2283 0.930 . S
H2286 C2309 0.931 . S
H2287 C2275 0.929 . S
H2288 C2310 0.930 . S
H2289 C2281 0.931 . S
H2290 C2271 0.930 . S
H2291 C2300 0.929 . S
H2292 C2276 0.931 . S
H2293 C2277 0.930 . S
H2294 C2332 0.930 . S
H2295 C2273 0.929 . S
H2296 C2301 0.931 . S
H2297 C2302 0.930 . S
N2298 Gd2278 2.622 . S
N2298 C2299 1.369 . S
N2298 C2300 1.338 . S
C2299 N2298 1.369 . S
C2299 C2303 1.415 . S
C2299 C2306 1.422 . S
C2300 H2291 0.929 . S
C2300 N2298 1.338 . S
C2300 C2302 1.378 . S
C2301 H2296 0.931 . S
C2301 C2302 1.348 . S
C2301 C2303 1.413 . S
C2302 H2297 0.930 . S
C2302 C2300 1.378 . S
C2302 C2301 1.348 . S
C2303 C2299 1.415 . S
C2303 C2301 1.413 . S
C2303 C2333 1.437 . S
H2304 C2333 0.929 . S
N2305 Gd2278 2.570 . S
N2305 C2306 1.359 . S
N2305 C2309 1.343 . S
C2306 C2299 1.422 . S
C2306 N2305 1.359 . S
C2306 C2308 1.421 . S
C2307 C2308 1.422 . S
C2307 C2310 1.321 . S
C2307 H2334 0.931 . S
C2308 C2306 1.421 . S
C2308 C2307 1.422 . S
C2308 C2332 1.417 . S
C2309 H2286 0.931 . S
C2309 N2305 1.343 . S
C2309 C2310 1.390 . S
C2310 H2288 0.930 . S
C2310 C2307 1.321 . S
C2310 C2309 1.390 . S
O2311 Gd2279 2.386 . S
O2311 C2323 1.265 . S
O2312 Gd2278 2.353 . S
O2312 C2323 1.242 . S
O2313 Gd2278 2.468 . S
O2313 C2331 1.263 . S
O2314 Gd2278 2.427 . S
O2314 C2331 1.252 . S
O2315 Gd2279 2.307 . S
O2315 C2324 1.261 . S
O2316 Gd2278 2.388 . S
O2316 C2324 1.252 . S
O2317 Gd2278 2.386 . S
O2317 C2335 1.265 . S
O2318 Gd2279 2.353 . S
O2318 C2335 1.242 . S
O2319 Gd2279 2.468 . S
O2319 C2343 1.263 . S
O2320 Gd2279 2.427 . S
O2320 C2343 1.252 . S
O2321 Gd2278 2.307 . S
O2321 C2336 1.261 . S
O2322 Gd2279 2.388 . S
O2322 C2336 1.252 . S
C2323 O2311 1.265 . S
C2323 O2312 1.242 . S
C2324 O2315 1.261 . S
C2324 O2316 1.252 . S
C2325 C2328 1.394 . S
C2325 C2330 1.370 . S
C2325 C2331 1.500 . S
C2326 C2329 1.383 . S
C2326 C2330 1.395 . S
C2327 C2328 1.396 . S
C2327 C2329 1.365 . S
C2327 H2344 0.929 . S
C2328 C2325 1.394 . S
C2328 C2327 1.396 . S
C2328 H2345 0.930 . S
C2329 C2326 1.383 . S
C2329 C2327 1.365 . S
C2329 H2346 0.931 . S
C2330 C2325 1.370 . S
C2330 C2326 1.395 . S
C2330 H2347 0.930 . S
C2331 Gd2278 2.805 . S
C2331 O2313 1.263 . S
C2331 O2314 1.252 . S
C2331 C2325 1.500 . S
C2332 H2294 0.930 . S
C2332 C2308 1.417 . S
C2332 C2333 1.329 . S
C2333 C2303 1.437 . S
C2333 H2304 0.929 . S
C2333 C2332 1.329 . S
H2334 C2307 0.931 . S
C2335 O2317 1.265 . S
C2335 O2318 1.242 . S
C2336 O2321 1.261 . S
C2336 O2322 1.252 . S
C2337 C2340 1.394 . S
C2337 C2342 1.370 . S
C2337 C2343 1.500 . S
C2338 C2341 1.383 . S
C2338 C2342 1.395 . S
C2339 C2340 1.396 . S
C2339 C2341 1.365 . S
C2339 H2348 0.929 . S
C2340 C2337 1.394 . S
C2340 C2339 1.396 . S
C2340 H2349 0.930 . S
C2341 C2338 1.383 . S
C2341 C2339 1.365 . S
C2341 H2350 0.931 . S
C2342 C2337 1.370 . S
C2342 C2338 1.395 . S
C2342 H2351 0.930 . S
C2343 Gd2279 2.805 . S
C2343 O2319 1.263 . S
C2343 O2320 1.252 . S
C2343 C2337 1.500 . S
H2344 C2327 0.929 . S
H2345 C2328 0.930 . S
H2346 C2329 0.931 . S
H2347 C2330 0.930 . S
H2348 C2339 0.929 . S
H2349 C2340 0.930 . S
H2350 C2341 0.931 . S
H2351 C2342 0.930 . S
C2352 C2354 1.422 . S
C2352 C2356 1.415 . S
C2352 N2358 1.369 . S
C2353 C2354 1.421 . S
C2353 C2355 1.417 . S
C2353 C2365 1.422 . S
C2354 C2352 1.422 . S
C2354 C2353 1.421 . S
C2354 N2364 1.359 . S
C2355 C2353 1.417 . S
C2355 C2357 1.329 . S
C2355 H2374 0.930 . S
C2356 C2352 1.415 . S
C2356 C2357 1.437 . S
C2356 C2360 1.413 . S
C2357 C2355 1.329 . S
C2357 C2356 1.437 . S
C2357 H2379 0.929 . S
N2358 C2352 1.369 . S
N2358 C2359 1.338 . S
N2358 Gd2363 2.622 . S
C2359 N2358 1.338 . S
C2359 C2361 1.378 . S
C2359 H2371 0.929 . S
C2360 C2356 1.413 . S
C2360 C2361 1.348 . S
C2360 H2376 0.931 . S
C2361 C2359 1.378 . S
C2361 C2360 1.348 . S
C2361 H2377 0.930 . S
Gd2362 N2382 2.622 . S
Gd2362 N2389 2.570 . S
Gd2362 O2396 2.353 . S
Gd2362 O2397 2.468 . S
Gd2362 O2398 2.427 . S
Gd2362 O2400 2.388 . S
Gd2362 O2401 2.386 . S
Gd2362 O2405 2.307 . S
Gd2362 C2415 2.805 . S
Gd2363 N2358 2.622 . S
Gd2363 N2364 2.570 . S
Gd2363 O2395 2.386 . S
Gd2363 O2399 2.307 . S
Gd2363 O2402 2.353 . S
Gd2363 O2403 2.468 . S
Gd2363 O2404 2.427 . S
Gd2363 O2406 2.388 . S
Gd2363 C2427 2.805 . S
N2364 C2354 1.359 . S
N2364 Gd2363 2.570 . S
N2364 C2366 1.343 . S
C2365 C2353 1.422 . S
C2365 C2367 1.321 . S
C2365 H2373 0.931 . S
C2366 N2364 1.343 . S
C2366 C2367 1.390 . S
C2366 H2368 0.931 . S
C2367 C2365 1.321 . S
C2367 C2366 1.390 . S
C2367 H2369 0.930 . S
H2368 C2366 0.931 . S
H2369 C2367 0.930 . S
H2370 C2393 0.931 . S
H2371 C2359 0.929 . S
H2372 C2394 0.930 . S
H2373 C2365 0.931 . S
H2374 C2355 0.930 . S
H2375 C2384 0.929 . S
H2376 C2360 0.931 . S
H2377 C2361 0.930 . S
H2378 C2416 0.930 . S
H2379 C2357 0.929 . S
H2380 C2385 0.931 . S
H2381 C2386 0.930 . S
N2382 Gd2362 2.622 . S
N2382 C2383 1.369 . S
N2382 C2384 1.338 . S
C2383 N2382 1.369 . S
C2383 C2387 1.415 . S
C2383 C2390 1.422 . S
C2384 H2375 0.929 . S
C2384 N2382 1.338 . S
C2384 C2386 1.378 . S
C2385 H2380 0.931 . S
C2385 C2386 1.348 . S
C2385 C2387 1.413 . S
C2386 H2381 0.930 . S
C2386 C2384 1.378 . S
C2386 C2385 1.348 . S
C2387 C2383 1.415 . S
C2387 C2385 1.413 . S
C2387 C2417 1.437 . S
H2388 C2417 0.929 . S
N2389 Gd2362 2.570 . S
N2389 C2390 1.359 . S
N2389 C2393 1.343 . S
C2390 C2383 1.422 . S
C2390 N2389 1.359 . S
C2390 C2392 1.421 . S
C2391 C2392 1.422 . S
C2391 C2394 1.321 . S
C2391 H2418 0.931 . S
C2392 C2390 1.421 . S
C2392 C2391 1.422 . S
C2392 C2416 1.417 . S
C2393 H2370 0.931 . S
C2393 N2389 1.343 . S
C2393 C2394 1.390 . S
C2394 H2372 0.930 . S
C2394 C2391 1.321 . S
C2394 C2393 1.390 . S
O2395 Gd2363 2.386 . S
O2395 C2407 1.265 . S
O2396 Gd2362 2.353 . S
O2396 C2407 1.242 . S
O2397 Gd2362 2.468 . S
O2397 C2415 1.263 . S
O2398 Gd2362 2.427 . S
O2398 C2415 1.252 . S
O2399 Gd2363 2.307 . S
O2399 C2408 1.261 . S
O2400 Gd2362 2.388 . S
O2400 C2408 1.252 . S
O2401 Gd2362 2.386 . S
O2401 C2419 1.265 . S
O2402 Gd2363 2.353 . S
O2402 C2419 1.242 . S
O2403 Gd2363 2.468 . S
O2403 C2427 1.263 . S
O2404 Gd2363 2.427 . S
O2404 C2427 1.252 . S
O2405 Gd2362 2.307 . S
O2405 C2420 1.261 . S
O2406 Gd2363 2.388 . S
O2406 C2420 1.252 . S
C2407 O2395 1.265 . S
C2407 O2396 1.242 . S
C2408 O2399 1.261 . S
C2408 O2400 1.252 . S
C2409 C2412 1.394 . S
C2409 C2414 1.370 . S
C2409 C2415 1.500 . S
C2410 C2413 1.383 . S
C2410 C2414 1.395 . S
C2411 C2412 1.396 . S
C2411 C2413 1.365 . S
C2411 H2428 0.929 . S
C2412 C2409 1.394 . S
C2412 C2411 1.396 . S
C2412 H2429 0.930 . S
C2413 C2410 1.383 . S
C2413 C2411 1.365 . S
C2413 H2430 0.931 . S
C2414 C2409 1.370 . S
C2414 C2410 1.395 . S
C2414 H2431 0.930 . S
C2415 Gd2362 2.805 . S
C2415 O2397 1.263 . S
C2415 O2398 1.252 . S
C2415 C2409 1.500 . S
C2416 H2378 0.930 . S
C2416 C2392 1.417 . S
C2416 C2417 1.329 . S
C2417 C2387 1.437 . S
C2417 H2388 0.929 . S
C2417 C2416 1.329 . S
H2418 C2391 0.931 . S
C2419 O2401 1.265 . S
C2419 O2402 1.242 . S
C2420 O2405 1.261 . S
C2420 O2406 1.252 . S
C2421 C2424 1.394 . S
C2421 C2426 1.370 . S
C2421 C2427 1.500 . S
C2422 C2425 1.383 . S
C2422 C2426 1.395 . S
C2423 C2424 1.396 . S
C2423 C2425 1.365 . S
C2423 H2432 0.929 . S
C2424 C2421 1.394 . S
C2424 C2423 1.396 . S
C2424 H2433 0.930 . S
C2425 C2422 1.383 . S
C2425 C2423 1.365 . S
C2425 H2434 0.931 . S
C2426 C2421 1.370 . S
C2426 C2422 1.395 . S
C2426 H2435 0.930 . S
C2427 Gd2363 2.805 . S
C2427 O2403 1.263 . S
C2427 O2404 1.252 . S
C2427 C2421 1.500 . S
H2428 C2411 0.929 . S
H2429 C2412 0.930 . S
H2430 C2413 0.931 . S
H2431 C2414 0.930 . S
H2432 C2423 0.929 . S
H2433 C2424 0.930 . S
H2434 C2425 0.931 . S
H2435 C2426 0.930 . S
C2436 C2438 1.422 . S
C2436 C2440 1.415 . S
C2436 N2442 1.369 . S
C2437 C2438 1.421 . S
C2437 C2439 1.417 . S
C2437 C2449 1.422 . S
C2438 C2436 1.422 . S
C2438 C2437 1.421 . S
C2438 N2448 1.359 . S
C2439 C2437 1.417 . S
C2439 C2441 1.329 . S
C2439 H2458 0.930 . S
C2440 C2436 1.415 . S
C2440 C2441 1.437 . S
C2440 C2444 1.413 . S
C2441 C2439 1.329 . S
C2441 C2440 1.437 . S
C2441 H2463 0.929 . S
N2442 C2436 1.369 . S
N2442 C2443 1.338 . S
N2442 Gd2447 2.622 . S
C2443 N2442 1.338 . S
C2443 C2445 1.378 . S
C2443 H2455 0.929 . S
C2444 C2440 1.413 . S
C2444 C2445 1.348 . S
C2444 H2460 0.931 . S
C2445 C2443 1.378 . S
C2445 C2444 1.348 . S
C2445 H2461 0.930 . S
Gd2446 N2466 2.622 . S
Gd2446 N2473 2.570 . S
Gd2446 O2480 2.353 . S
Gd2446 O2481 2.468 . S
Gd2446 O2482 2.427 . S
Gd2446 O2484 2.388 . S
Gd2446 O2485 2.386 . S
Gd2446 O2489 2.307 . S
Gd2446 C2499 2.805 . S
Gd2447 N2442 2.622 . S
Gd2447 N2448 2.570 . S
Gd2447 O2479 2.386 . S
Gd2447 O2483 2.307 . S
Gd2447 O2486 2.353 . S
Gd2447 O2487 2.468 . S
Gd2447 O2488 2.427 . S
Gd2447 O2490 2.388 . S
Gd2447 C2511 2.805 . S
N2448 C2438 1.359 . S
N2448 Gd2447 2.570 . S
N2448 C2450 1.343 . S
C2449 C2437 1.422 . S
C2449 C2451 1.321 . S
C2449 H2457 0.931 . S
C2450 N2448 1.343 . S
C2450 C2451 1.390 . S
C2450 H2452 0.931 . S
C2451 C2449 1.321 . S
C2451 C2450 1.390 . S
C2451 H2453 0.930 . S
H2452 C2450 0.931 . S
H2453 C2451 0.930 . S
H2454 C2477 0.931 . S
H2455 C2443 0.929 . S
H2456 C2478 0.930 . S
H2457 C2449 0.931 . S
H2458 C2439 0.930 . S
H2459 C2468 0.929 . S
H2460 C2444 0.931 . S
H2461 C2445 0.930 . S
H2462 C2500 0.930 . S
H2463 C2441 0.929 . S
H2464 C2469 0.931 . S
H2465 C2470 0.930 . S
N2466 Gd2446 2.622 . S
N2466 C2467 1.369 . S
N2466 C2468 1.338 . S
C2467 N2466 1.369 . S
C2467 C2471 1.415 . S
C2467 C2474 1.422 . S
C2468 H2459 0.929 . S
C2468 N2466 1.338 . S
C2468 C2470 1.378 . S
C2469 H2464 0.931 . S
C2469 C2470 1.348 . S
C2469 C2471 1.413 . S
C2470 H2465 0.930 . S
C2470 C2468 1.378 . S
C2470 C2469 1.348 . S
C2471 C2467 1.415 . S
C2471 C2469 1.413 . S
C2471 C2501 1.437 . S
H2472 C2501 0.929 . S
N2473 Gd2446 2.570 . S
N2473 C2474 1.359 . S
N2473 C2477 1.343 . S
C2474 C2467 1.422 . S
C2474 N2473 1.359 . S
C2474 C2476 1.421 . S
C2475 C2476 1.422 . S
C2475 C2478 1.321 . S
C2475 H2502 0.931 . S
C2476 C2474 1.421 . S
C2476 C2475 1.422 . S
C2476 C2500 1.417 . S
C2477 H2454 0.931 . S
C2477 N2473 1.343 . S
C2477 C2478 1.390 . S
C2478 H2456 0.930 . S
C2478 C2475 1.321 . S
C2478 C2477 1.390 . S
O2479 Gd2447 2.386 . S
O2479 C2491 1.265 . S
O2480 Gd2446 2.353 . S
O2480 C2491 1.242 . S
O2481 Gd2446 2.468 . S
O2481 C2499 1.263 . S
O2482 Gd2446 2.427 . S
O2482 C2499 1.252 . S
O2483 Gd2447 2.307 . S
O2483 C2492 1.261 . S
O2484 Gd2446 2.388 . S
O2484 C2492 1.252 . S
O2485 Gd2446 2.386 . S
O2485 C2503 1.265 . S
O2486 Gd2447 2.353 . S
O2486 C2503 1.242 . S
O2487 Gd2447 2.468 . S
O2487 C2511 1.263 . S
O2488 Gd2447 2.427 . S
O2488 C2511 1.252 . S
O2489 Gd2446 2.307 . S
O2489 C2504 1.261 . S
O2490 Gd2447 2.388 . S
O2490 C2504 1.252 . S
C2491 O2479 1.265 . S
C2491 O2480 1.242 . S
C2492 O2483 1.261 . S
C2492 O2484 1.252 . S
C2493 C2496 1.394 . S
C2493 C2498 1.370 . S
C2493 C2499 1.500 . S
C2494 C2497 1.383 . S
C2494 C2498 1.395 . S
C2495 C2496 1.396 . S
C2495 C2497 1.365 . S
C2495 H2512 0.929 . S
C2496 C2493 1.394 . S
C2496 C2495 1.396 . S
C2496 H2513 0.930 . S
C2497 C2494 1.383 . S
C2497 C2495 1.365 . S
C2497 H2514 0.931 . S
C2498 C2493 1.370 . S
C2498 C2494 1.395 . S
C2498 H2515 0.930 . S
C2499 Gd2446 2.805 . S
C2499 O2481 1.263 . S
C2499 O2482 1.252 . S
C2499 C2493 1.500 . S
C2500 H2462 0.930 . S
C2500 C2476 1.417 . S
C2500 C2501 1.329 . S
C2501 C2471 1.437 . S
C2501 H2472 0.929 . S
C2501 C2500 1.329 . S
H2502 C2475 0.931 . S
C2503 O2485 1.265 . S
C2503 O2486 1.242 . S
C2504 O2489 1.261 . S
C2504 O2490 1.252 . S
C2505 C2508 1.394 . S
C2505 C2510 1.370 . S
C2505 C2511 1.500 . S
C2506 C2509 1.383 . S
C2506 C2510 1.395 . S
C2507 C2508 1.396 . S
C2507 C2509 1.365 . S
C2507 H2516 0.929 . S
C2508 C2505 1.394 . S
C2508 C2507 1.396 . S
C2508 H2517 0.930 . S
C2509 C2506 1.383 . S
C2509 C2507 1.365 . S
C2509 H2518 0.931 . S
C2510 C2505 1.370 . S
C2510 C2506 1.395 . S
C2510 H2519 0.930 . S
C2511 Gd2447 2.805 . S
C2511 O2487 1.263 . S
C2511 O2488 1.252 . S
C2511 C2505 1.500 . S
H2512 C2495 0.929 . S
H2513 C2496 0.930 . S
H2514 C2497 0.931 . S
H2515 C2498 0.930 . S
H2516 C2507 0.929 . S
H2517 C2508 0.930 . S
H2518 C2509 0.931 . S
H2519 C2510 0.930 . S
C2520 C2522 1.422 . S
C2520 C2524 1.415 . S
C2520 N2526 1.369 . S
C2521 C2522 1.421 . S
C2521 C2523 1.417 . S
C2521 C2533 1.422 . S
C2522 C2520 1.422 . S
C2522 C2521 1.421 . S
C2522 N2532 1.359 . S
C2523 C2521 1.417 . S
C2523 C2525 1.329 . S
C2523 H2542 0.930 . S
C2524 C2520 1.415 . S
C2524 C2525 1.437 . S
C2524 C2528 1.413 . S
C2525 C2523 1.329 . S
C2525 C2524 1.437 . S
C2525 H2547 0.929 . S
N2526 C2520 1.369 . S
N2526 C2527 1.338 . S
N2526 Gd2531 2.622 . S
C2527 N2526 1.338 . S
C2527 C2529 1.378 . S
C2527 H2539 0.929 . S
C2528 C2524 1.413 . S
C2528 C2529 1.348 . S
C2528 H2544 0.931 . S
C2529 C2527 1.378 . S
C2529 C2528 1.348 . S
C2529 H2545 0.930 . S
Gd2530 N2550 2.622 . S
Gd2530 N2557 2.570 . S
Gd2530 O2564 2.353 . S
Gd2530 O2565 2.468 . S
Gd2530 O2566 2.427 . S
Gd2530 O2568 2.388 . S
Gd2530 O2569 2.386 . S
Gd2530 O2573 2.307 . S
Gd2530 C2583 2.805 . S
Gd2531 N2526 2.622 . S
Gd2531 N2532 2.570 . S
Gd2531 O2563 2.386 . S
Gd2531 O2567 2.307 . S
Gd2531 O2570 2.353 . S
Gd2531 O2571 2.468 . S
Gd2531 O2572 2.427 . S
Gd2531 O2574 2.388 . S
Gd2531 C2595 2.805 . S
N2532 C2522 1.359 . S
N2532 Gd2531 2.570 . S
N2532 C2534 1.343 . S
C2533 C2521 1.422 . S
C2533 C2535 1.321 . S
C2533 H2541 0.931 . S
C2534 N2532 1.343 . S
C2534 C2535 1.390 . S
C2534 H2536 0.931 . S
C2535 C2533 1.321 . S
C2535 C2534 1.390 . S
C2535 H2537 0.930 . S
H2536 C2534 0.931 . S
H2537 C2535 0.930 . S
H2538 C2561 0.931 . S
H2539 C2527 0.929 . S
H2540 C2562 0.930 . S
H2541 C2533 0.931 . S
H2542 C2523 0.930 . S
H2543 C2552 0.929 . S
H2544 C2528 0.931 . S
H2545 C2529 0.930 . S
H2546 C2584 0.930 . S
H2547 C2525 0.929 . S
H2548 C2553 0.931 . S
H2549 C2554 0.930 . S
N2550 Gd2530 2.622 . S
N2550 C2551 1.369 . S
N2550 C2552 1.338 . S
C2551 N2550 1.369 . S
C2551 C2555 1.415 . S
C2551 C2558 1.422 . S
C2552 H2543 0.929 . S
C2552 N2550 1.338 . S
C2552 C2554 1.378 . S
C2553 H2548 0.931 . S
C2553 C2554 1.348 . S
C2553 C2555 1.413 . S
C2554 H2549 0.930 . S
C2554 C2552 1.378 . S
C2554 C2553 1.348 . S
C2555 C2551 1.415 . S
C2555 C2553 1.413 . S
C2555 C2585 1.437 . S
H2556 C2585 0.929 . S
N2557 Gd2530 2.570 . S
N2557 C2558 1.359 . S
N2557 C2561 1.343 . S
C2558 C2551 1.422 . S
C2558 N2557 1.359 . S
C2558 C2560 1.421 . S
C2559 C2560 1.422 . S
C2559 C2562 1.321 . S
C2559 H2586 0.931 . S
C2560 C2558 1.421 . S
C2560 C2559 1.422 . S
C2560 C2584 1.417 . S
C2561 H2538 0.931 . S
C2561 N2557 1.343 . S
C2561 C2562 1.390 . S
C2562 H2540 0.930 . S
C2562 C2559 1.321 . S
C2562 C2561 1.390 . S
O2563 Gd2531 2.386 . S
O2563 C2575 1.265 . S
O2564 Gd2530 2.353 . S
O2564 C2575 1.242 . S
O2565 Gd2530 2.468 . S
O2565 C2583 1.263 . S
O2566 Gd2530 2.427 . S
O2566 C2583 1.252 . S
O2567 Gd2531 2.307 . S
O2567 C2576 1.261 . S
O2568 Gd2530 2.388 . S
O2568 C2576 1.252 . S
O2569 Gd2530 2.386 . S
O2569 C2587 1.265 . S
O2570 Gd2531 2.353 . S
O2570 C2587 1.242 . S
O2571 Gd2531 2.468 . S
O2571 C2595 1.263 . S
O2572 Gd2531 2.427 . S
O2572 C2595 1.252 . S
O2573 Gd2530 2.307 . S
O2573 C2588 1.261 . S
O2574 Gd2531 2.388 . S
O2574 C2588 1.252 . S
C2575 O2563 1.265 . S
C2575 O2564 1.242 . S
C2576 O2567 1.261 . S
C2576 O2568 1.252 . S
C2577 C2580 1.394 . S
C2577 C2582 1.370 . S
C2577 C2583 1.500 . S
C2578 C2581 1.383 . S
C2578 C2582 1.395 . S
C2579 C2580 1.396 . S
C2579 C2581 1.365 . S
C2579 H2596 0.929 . S
C2580 C2577 1.394 . S
C2580 C2579 1.396 . S
C2580 H2597 0.930 . S
C2581 C2578 1.383 . S
C2581 C2579 1.365 . S
C2581 H2598 0.931 . S
C2582 C2577 1.370 . S
C2582 C2578 1.395 . S
C2582 H2599 0.930 . S
C2583 Gd2530 2.805 . S
C2583 O2565 1.263 . S
C2583 O2566 1.252 . S
C2583 C2577 1.500 . S
C2584 H2546 0.930 . S
C2584 C2560 1.417 . S
C2584 C2585 1.329 . S
C2585 C2555 1.437 . S
C2585 H2556 0.929 . S
C2585 C2584 1.329 . S
H2586 C2559 0.931 . S
C2587 O2569 1.265 . S
C2587 O2570 1.242 . S
C2588 O2573 1.261 . S
C2588 O2574 1.252 . S
C2589 C2592 1.394 . S
C2589 C2594 1.370 . S
C2589 C2595 1.500 . S
C2590 C2593 1.383 . S
C2590 C2594 1.395 . S
C2591 C2592 1.396 . S
C2591 C2593 1.365 . S
C2591 H2600 0.929 . S
C2592 C2589 1.394 . S
C2592 C2591 1.396 . S
C2592 H2601 0.930 . S
C2593 C2590 1.383 . S
C2593 C2591 1.365 . S
C2593 H2602 0.931 . S
C2594 C2589 1.370 . S
C2594 C2590 1.395 . S
C2594 H2603 0.930 . S
C2595 Gd2531 2.805 . S
C2595 O2571 1.263 . S
C2595 O2572 1.252 . S
C2595 C2589 1.500 . S
H2596 C2579 0.929 . S
H2597 C2580 0.930 . S
H2598 C2581 0.931 . S
H2599 C2582 0.930 . S
H2600 C2591 0.929 . S
H2601 C2592 0.930 . S
H2602 C2593 0.931 . S
H2603 C2594 0.930 . S
C2604 C2606 1.422 . S
C2604 C2608 1.415 . S
C2604 N2610 1.369 . S
C2605 C2606 1.421 . S
C2605 C2607 1.417 . S
C2605 C2617 1.422 . S
C2606 C2604 1.422 . S
C2606 C2605 1.421 . S
C2606 N2616 1.359 . S
C2607 C2605 1.417 . S
C2607 C2609 1.329 . S
C2607 H2626 0.930 . S
C2608 C2604 1.415 . S
C2608 C2609 1.437 . S
C2608 C2612 1.413 . S
C2609 C2607 1.329 . S
C2609 C2608 1.437 . S
C2609 H2631 0.929 . S
N2610 C2604 1.369 . S
N2610 C2611 1.338 . S
N2610 Gd2615 2.622 . S
C2611 N2610 1.338 . S
C2611 C2613 1.378 . S
C2611 H2623 0.929 . S
C2612 C2608 1.413 . S
C2612 C2613 1.348 . S
C2612 H2628 0.931 . S
C2613 C2611 1.378 . S
C2613 C2612 1.348 . S
C2613 H2629 0.930 . S
Gd2614 N2634 2.622 . S
Gd2614 N2641 2.570 . S
Gd2614 O2648 2.353 . S
Gd2614 O2649 2.468 . S
Gd2614 O2650 2.427 . S
Gd2614 O2652 2.388 . S
Gd2614 O2653 2.386 . S
Gd2614 O2657 2.307 . S
Gd2614 C2667 2.805 . S
Gd2615 N2610 2.622 . S
Gd2615 N2616 2.570 . S
Gd2615 O2647 2.386 . S
Gd2615 O2651 2.307 . S
Gd2615 O2654 2.353 . S
Gd2615 O2655 2.468 . S
Gd2615 O2656 2.427 . S
Gd2615 O2658 2.388 . S
Gd2615 C2679 2.805 . S
N2616 C2606 1.359 . S
N2616 Gd2615 2.570 . S
N2616 C2618 1.343 . S
C2617 C2605 1.422 . S
C2617 C2619 1.321 . S
C2617 H2625 0.931 . S
C2618 N2616 1.343 . S
C2618 C2619 1.390 . S
C2618 H2620 0.931 . S
C2619 C2617 1.321 . S
C2619 C2618 1.390 . S
C2619 H2621 0.930 . S
H2620 C2618 0.931 . S
H2621 C2619 0.930 . S
H2622 C2645 0.931 . S
H2623 C2611 0.929 . S
H2624 C2646 0.930 . S
H2625 C2617 0.931 . S
H2626 C2607 0.930 . S
H2627 C2636 0.929 . S
H2628 C2612 0.931 . S
H2629 C2613 0.930 . S
H2630 C2668 0.930 . S
H2631 C2609 0.929 . S
H2632 C2637 0.931 . S
H2633 C2638 0.930 . S
N2634 Gd2614 2.622 . S
N2634 C2635 1.369 . S
N2634 C2636 1.338 . S
C2635 N2634 1.369 . S
C2635 C2639 1.415 . S
C2635 C2642 1.422 . S
C2636 H2627 0.929 . S
C2636 N2634 1.338 . S
C2636 C2638 1.378 . S
C2637 H2632 0.931 . S
C2637 C2638 1.348 . S
C2637 C2639 1.413 . S
C2638 H2633 0.930 . S
C2638 C2636 1.378 . S
C2638 C2637 1.348 . S
C2639 C2635 1.415 . S
C2639 C2637 1.413 . S
C2639 C2669 1.437 . S
H2640 C2669 0.929 . S
N2641 Gd2614 2.570 . S
N2641 C2642 1.359 . S
N2641 C2645 1.343 . S
C2642 C2635 1.422 . S
C2642 N2641 1.359 . S
C2642 C2644 1.421 . S
C2643 C2644 1.422 . S
C2643 C2646 1.321 . S
C2643 H2670 0.931 . S
C2644 C2642 1.421 . S
C2644 C2643 1.422 . S
C2644 C2668 1.417 . S
C2645 H2622 0.931 . S
C2645 N2641 1.343 . S
C2645 C2646 1.390 . S
C2646 H2624 0.930 . S
C2646 C2643 1.321 . S
C2646 C2645 1.390 . S
O2647 Gd2615 2.386 . S
O2647 C2659 1.265 . S
O2648 Gd2614 2.353 . S
O2648 C2659 1.242 . S
O2649 Gd2614 2.468 . S
O2649 C2667 1.263 . S
O2650 Gd2614 2.427 . S
O2650 C2667 1.252 . S
O2651 Gd2615 2.307 . S
O2651 C2660 1.261 . S
O2652 Gd2614 2.388 . S
O2652 C2660 1.252 . S
O2653 Gd2614 2.386 . S
O2653 C2671 1.265 . S
O2654 Gd2615 2.353 . S
O2654 C2671 1.242 . S
O2655 Gd2615 2.468 . S
O2655 C2679 1.263 . S
O2656 Gd2615 2.427 . S
O2656 C2679 1.252 . S
O2657 Gd2614 2.307 . S
O2657 C2672 1.261 . S
O2658 Gd2615 2.388 . S
O2658 C2672 1.252 . S
C2659 O2647 1.265 . S
C2659 O2648 1.242 . S
C2660 O2651 1.261 . S
C2660 O2652 1.252 . S
C2661 C2664 1.394 . S
C2661 C2666 1.370 . S
C2661 C2667 1.500 . S
C2662 C2665 1.383 . S
C2662 C2666 1.395 . S
C2663 C2664 1.396 . S
C2663 C2665 1.365 . S
C2663 H2680 0.929 . S
C2664 C2661 1.394 . S
C2664 C2663 1.396 . S
C2664 H2681 0.930 . S
C2665 C2662 1.383 . S
C2665 C2663 1.365 . S
C2665 H2682 0.931 . S
C2666 C2661 1.370 . S
C2666 C2662 1.395 . S
C2666 H2683 0.930 . S
C2667 Gd2614 2.805 . S
C2667 O2649 1.263 . S
C2667 O2650 1.252 . S
C2667 C2661 1.500 . S
C2668 H2630 0.930 . S
C2668 C2644 1.417 . S
C2668 C2669 1.329 . S
C2669 C2639 1.437 . S
C2669 H2640 0.929 . S
C2669 C2668 1.329 . S
H2670 C2643 0.931 . S
C2671 O2653 1.265 . S
C2671 O2654 1.242 . S
C2672 O2657 1.261 . S
C2672 O2658 1.252 . S
C2673 C2676 1.394 . S
C2673 C2678 1.370 . S
C2673 C2679 1.500 . S
C2674 C2677 1.383 . S
C2674 C2678 1.395 . S
C2675 C2676 1.396 . S
C2675 C2677 1.365 . S
C2675 H2684 0.929 . S
C2676 C2673 1.394 . S
C2676 C2675 1.396 . S
C2676 H2685 0.930 . S
C2677 C2674 1.383 . S
C2677 C2675 1.365 . S
C2677 H2686 0.931 . S
C2678 C2673 1.370 . S
C2678 C2674 1.395 . S
C2678 H2687 0.930 . S
C2679 Gd2615 2.805 . S
C2679 O2655 1.263 . S
C2679 O2656 1.252 . S
C2679 C2673 1.500 . S
H2680 C2663 0.929 . S
H2681 C2664 0.930 . S
H2682 C2665 0.931 . S
H2683 C2666 0.930 . S
H2684 C2675 0.929 . S
H2685 C2676 0.930 . S
H2686 C2677 0.931 . S
H2687 C2678 0.930 . S
C2688 C2690 1.422 . S
C2688 C2692 1.415 . S
C2688 N2694 1.369 . S
C2689 C2690 1.421 . S
C2689 C2691 1.417 . S
C2689 C2701 1.422 . S
C2690 C2688 1.422 . S
C2690 C2689 1.421 . S
C2690 N2700 1.359 . S
C2691 C2689 1.417 . S
C2691 C2693 1.329 . S
C2691 H2710 0.930 . S
C2692 C2688 1.415 . S
C2692 C2693 1.437 . S
C2692 C2696 1.413 . S
C2693 C2691 1.329 . S
C2693 C2692 1.437 . S
C2693 H2715 0.929 . S
N2694 C2688 1.369 . S
N2694 C2695 1.338 . S
N2694 Gd2699 2.622 . S
C2695 N2694 1.338 . S
C2695 C2697 1.378 . S
C2695 H2707 0.929 . S
C2696 C2692 1.413 . S
C2696 C2697 1.348 . S
C2696 H2712 0.931 . S
C2697 C2695 1.378 . S
C2697 C2696 1.348 . S
C2697 H2713 0.930 . S
Gd2698 N2718 2.622 . S
Gd2698 N2725 2.570 . S
Gd2698 O2732 2.353 . S
Gd2698 O2733 2.468 . S
Gd2698 O2734 2.427 . S
Gd2698 O2736 2.388 . S
Gd2698 O2737 2.386 . S
Gd2698 O2741 2.307 . S
Gd2698 C2751 2.805 . S
Gd2699 N2694 2.622 . S
Gd2699 N2700 2.570 . S
Gd2699 O2731 2.386 . S
Gd2699 O2735 2.307 . S
Gd2699 O2738 2.353 . S
Gd2699 O2739 2.468 . S
Gd2699 O2740 2.427 . S
Gd2699 O2742 2.388 . S
Gd2699 C2763 2.805 . S
N2700 C2690 1.359 . S
N2700 Gd2699 2.570 . S
N2700 C2702 1.343 . S
C2701 C2689 1.422 . S
C2701 C2703 1.321 . S
C2701 H2709 0.931 . S
C2702 N2700 1.343 . S
C2702 C2703 1.390 . S
C2702 H2704 0.931 . S
C2703 C2701 1.321 . S
C2703 C2702 1.390 . S
C2703 H2705 0.930 . S
H2704 C2702 0.931 . S
H2705 C2703 0.930 . S
H2706 C2729 0.931 . S
H2707 C2695 0.929 . S
H2708 C2730 0.930 . S
H2709 C2701 0.931 . S
H2710 C2691 0.930 . S
H2711 C2720 0.929 . S
H2712 C2696 0.931 . S
H2713 C2697 0.930 . S
H2714 C2752 0.930 . S
H2715 C2693 0.929 . S
H2716 C2721 0.931 . S
H2717 C2722 0.930 . S
N2718 Gd2698 2.622 . S
N2718 C2719 1.369 . S
N2718 C2720 1.338 . S
C2719 N2718 1.369 . S
C2719 C2723 1.415 . S
C2719 C2726 1.422 . S
C2720 H2711 0.929 . S
C2720 N2718 1.338 . S
C2720 C2722 1.378 . S
C2721 H2716 0.931 . S
C2721 C2722 1.348 . S
C2721 C2723 1.413 . S
C2722 H2717 0.930 . S
C2722 C2720 1.378 . S
C2722 C2721 1.348 . S
C2723 C2719 1.415 . S
C2723 C2721 1.413 . S
C2723 C2753 1.437 . S
H2724 C2753 0.929 . S
N2725 Gd2698 2.570 . S
N2725 C2726 1.359 . S
N2725 C2729 1.343 . S
C2726 C2719 1.422 . S
C2726 N2725 1.359 . S
C2726 C2728 1.421 . S
C2727 C2728 1.422 . S
C2727 C2730 1.321 . S
C2727 H2754 0.931 . S
C2728 C2726 1.421 . S
C2728 C2727 1.422 . S
C2728 C2752 1.417 . S
C2729 H2706 0.931 . S
C2729 N2725 1.343 . S
C2729 C2730 1.390 . S
C2730 H2708 0.930 . S
C2730 C2727 1.321 . S
C2730 C2729 1.390 . S
O2731 Gd2699 2.386 . S
O2731 C2743 1.265 . S
O2732 Gd2698 2.353 . S
O2732 C2743 1.242 . S
O2733 Gd2698 2.468 . S
O2733 C2751 1.263 . S
O2734 Gd2698 2.427 . S
O2734 C2751 1.252 . S
O2735 Gd2699 2.307 . S
O2735 C2744 1.261 . S
O2736 Gd2698 2.388 . S
O2736 C2744 1.252 . S
O2737 Gd2698 2.386 . S
O2737 C2755 1.265 . S
O2738 Gd2699 2.353 . S
O2738 C2755 1.242 . S
O2739 Gd2699 2.468 . S
O2739 C2763 1.263 . S
O2740 Gd2699 2.427 . S
O2740 C2763 1.252 . S
O2741 Gd2698 2.307 . S
O2741 C2756 1.261 . S
O2742 Gd2699 2.388 . S
O2742 C2756 1.252 . S
C2743 O2731 1.265 . S
C2743 O2732 1.242 . S
C2744 O2735 1.261 . S
C2744 O2736 1.252 . S
C2745 C2748 1.394 . S
C2745 C2750 1.370 . S
C2745 C2751 1.500 . S
C2746 C2749 1.383 . S
C2746 C2750 1.395 . S
C2747 C2748 1.396 . S
C2747 C2749 1.365 . S
C2747 H2764 0.929 . S
C2748 C2745 1.394 . S
C2748 C2747 1.396 . S
C2748 H2765 0.930 . S
C2749 C2746 1.383 . S
C2749 C2747 1.365 . S
C2749 H2766 0.931 . S
C2750 C2745 1.370 . S
C2750 C2746 1.395 . S
C2750 H2767 0.930 . S
C2751 Gd2698 2.805 . S
C2751 O2733 1.263 . S
C2751 O2734 1.252 . S
C2751 C2745 1.500 . S
C2752 H2714 0.930 . S
C2752 C2728 1.417 . S
C2752 C2753 1.329 . S
C2753 C2723 1.437 . S
C2753 H2724 0.929 . S
C2753 C2752 1.329 . S
H2754 C2727 0.931 . S
C2755 O2737 1.265 . S
C2755 O2738 1.242 . S
C2756 O2741 1.261 . S
C2756 O2742 1.252 . S
C2757 C2760 1.394 . S
C2757 C2762 1.370 . S
C2757 C2763 1.500 . S
C2758 C2761 1.383 . S
C2758 C2762 1.395 . S
C2759 C2760 1.396 . S
C2759 C2761 1.365 . S
C2759 H2768 0.929 . S
C2760 C2757 1.394 . S
C2760 C2759 1.396 . S
C2760 H2769 0.930 . S
C2761 C2758 1.383 . S
C2761 C2759 1.365 . S
C2761 H2770 0.931 . S
C2762 C2757 1.370 . S
C2762 C2758 1.395 . S
C2762 H2771 0.930 . S
C2763 Gd2699 2.805 . S
C2763 O2739 1.263 . S
C2763 O2740 1.252 . S
C2763 C2757 1.500 . S
H2764 C2747 0.929 . S
H2765 C2748 0.930 . S
H2766 C2749 0.931 . S
H2767 C2750 0.930 . S
H2768 C2759 0.929 . S
H2769 C2760 0.930 . S
H2770 C2761 0.931 . S
H2771 C2762 0.930 . S
C2772 C2774 1.422 . S
C2772 C2776 1.415 . S
C2772 N2778 1.369 . S
C2773 C2774 1.421 . S
C2773 C2775 1.417 . S
C2773 C2785 1.422 . S
C2774 C2772 1.422 . S
C2774 C2773 1.421 . S
C2774 N2784 1.359 . S
C2775 C2773 1.417 . S
C2775 C2777 1.329 . S
C2775 H2794 0.930 . S
C2776 C2772 1.415 . S
C2776 C2777 1.437 . S
C2776 C2780 1.413 . S
C2777 C2775 1.329 . S
C2777 C2776 1.437 . S
C2777 H2799 0.929 . S
N2778 C2772 1.369 . S
N2778 C2779 1.338 . S
N2778 Gd2783 2.622 . S
C2779 N2778 1.338 . S
C2779 C2781 1.378 . S
C2779 H2791 0.929 . S
C2780 C2776 1.413 . S
C2780 C2781 1.348 . S
C2780 H2796 0.931 . S
C2781 C2779 1.378 . S
C2781 C2780 1.348 . S
C2781 H2797 0.930 . S
Gd2782 N2802 2.622 . S
Gd2782 N2809 2.570 . S
Gd2782 O2816 2.353 . S
Gd2782 O2817 2.468 . S
Gd2782 O2818 2.427 . S
Gd2782 O2820 2.388 . S
Gd2782 O2821 2.386 . S
Gd2782 O2825 2.307 . S
Gd2782 C2835 2.805 . S
Gd2783 N2778 2.622 . S
Gd2783 N2784 2.570 . S
Gd2783 O2815 2.386 . S
Gd2783 O2819 2.307 . S
Gd2783 O2822 2.353 . S
Gd2783 O2823 2.468 . S
Gd2783 O2824 2.427 . S
Gd2783 O2826 2.388 . S
Gd2783 C2847 2.805 . S
N2784 C2774 1.359 . S
N2784 Gd2783 2.570 . S
N2784 C2786 1.343 . S
C2785 C2773 1.422 . S
C2785 C2787 1.321 . S
C2785 H2793 0.931 . S
C2786 N2784 1.343 . S
C2786 C2787 1.390 . S
C2786 H2788 0.931 . S
C2787 C2785 1.321 . S
C2787 C2786 1.390 . S
C2787 H2789 0.930 . S
H2788 C2786 0.931 . S
H2789 C2787 0.930 . S
H2790 C2813 0.931 . S
H2791 C2779 0.929 . S
H2792 C2814 0.930 . S
H2793 C2785 0.931 . S
H2794 C2775 0.930 . S
H2795 C2804 0.929 . S
H2796 C2780 0.931 . S
H2797 C2781 0.930 . S
H2798 C2836 0.930 . S
H2799 C2777 0.929 . S
H2800 C2805 0.931 . S
H2801 C2806 0.930 . S
N2802 Gd2782 2.622 . S
N2802 C2803 1.369 . S
N2802 C2804 1.338 . S
C2803 N2802 1.369 . S
C2803 C2807 1.415 . S
C2803 C2810 1.422 . S
C2804 H2795 0.929 . S
C2804 N2802 1.338 . S
C2804 C2806 1.378 . S
C2805 H2800 0.931 . S
C2805 C2806 1.348 . S
C2805 C2807 1.413 . S
C2806 H2801 0.930 . S
C2806 C2804 1.378 . S
C2806 C2805 1.348 . S
C2807 C2803 1.415 . S
C2807 C2805 1.413 . S
C2807 C2837 1.437 . S
H2808 C2837 0.929 . S
N2809 Gd2782 2.570 . S
N2809 C2810 1.359 . S
N2809 C2813 1.343 . S
C2810 C2803 1.422 . S
C2810 N2809 1.359 . S
C2810 C2812 1.421 . S
C2811 C2812 1.422 . S
C2811 C2814 1.321 . S
C2811 H2838 0.931 . S
C2812 C2810 1.421 . S
C2812 C2811 1.422 . S
C2812 C2836 1.417 . S
C2813 H2790 0.931 . S
C2813 N2809 1.343 . S
C2813 C2814 1.390 . S
C2814 H2792 0.930 . S
C2814 C2811 1.321 . S
C2814 C2813 1.390 . S
O2815 Gd2783 2.386 . S
O2815 C2827 1.265 . S
O2816 Gd2782 2.353 . S
O2816 C2827 1.242 . S
O2817 Gd2782 2.468 . S
O2817 C2835 1.263 . S
O2818 Gd2782 2.427 . S
O2818 C2835 1.252 . S
O2819 Gd2783 2.307 . S
O2819 C2828 1.261 . S
O2820 Gd2782 2.388 . S
O2820 C2828 1.252 . S
O2821 Gd2782 2.386 . S
O2821 C2839 1.265 . S
O2822 Gd2783 2.353 . S
O2822 C2839 1.242 . S
O2823 Gd2783 2.468 . S
O2823 C2847 1.263 . S
O2824 Gd2783 2.427 . S
O2824 C2847 1.252 . S
O2825 Gd2782 2.307 . S
O2825 C2840 1.261 . S
O2826 Gd2783 2.388 . S
O2826 C2840 1.252 . S
C2827 O2815 1.265 . S
C2827 O2816 1.242 . S
C2828 O2819 1.261 . S
C2828 O2820 1.252 . S
C2829 C2832 1.394 . S
C2829 C2834 1.370 . S
C2829 C2835 1.500 . S
C2830 C2833 1.383 . S
C2830 C2834 1.395 . S
C2831 C2832 1.396 . S
C2831 C2833 1.365 . S
C2831 H2848 0.929 . S
C2832 C2829 1.394 . S
C2832 C2831 1.396 . S
C2832 H2849 0.930 . S
C2833 C2830 1.383 . S
C2833 C2831 1.365 . S
C2833 H2850 0.931 . S
C2834 C2829 1.370 . S
C2834 C2830 1.395 . S
C2834 H2851 0.930 . S
C2835 Gd2782 2.805 . S
C2835 O2817 1.263 . S
C2835 O2818 1.252 . S
C2835 C2829 1.500 . S
C2836 H2798 0.930 . S
C2836 C2812 1.417 . S
C2836 C2837 1.329 . S
C2837 C2807 1.437 . S
C2837 H2808 0.929 . S
C2837 C2836 1.329 . S
H2838 C2811 0.931 . S
C2839 O2821 1.265 . S
C2839 O2822 1.242 . S
C2840 O2825 1.261 . S
C2840 O2826 1.252 . S
C2841 C2844 1.394 . S
C2841 C2846 1.370 . S
C2841 C2847 1.500 . S
C2842 C2845 1.383 . S
C2842 C2846 1.395 . S
C2843 C2844 1.396 . S
C2843 C2845 1.365 . S
C2843 H2852 0.929 . S
C2844 C2841 1.394 . S
C2844 C2843 1.396 . S
C2844 H2853 0.930 . S
C2845 C2842 1.383 . S
C2845 C2843 1.365 . S
C2845 H2854 0.931 . S
C2846 C2841 1.370 . S
C2846 C2842 1.395 . S
C2846 H2855 0.930 . S
C2847 Gd2783 2.805 . S
C2847 O2823 1.263 . S
C2847 O2824 1.252 . S
C2847 C2841 1.500 . S
H2848 C2831 0.929 . S
H2849 C2832 0.930 . S
H2850 C2833 0.931 . S
H2851 C2834 0.930 . S
H2852 C2843 0.929 . S
H2853 C2844 0.930 . S
H2854 C2845 0.931 . S
H2855 C2846 0.930 . S
C2856 C2858 1.422 . S
C2856 C2860 1.415 . S
C2856 N2862 1.369 . S
C2857 C2858 1.421 . S
C2857 C2859 1.417 . S
C2857 C2869 1.422 . S
C2858 C2856 1.422 . S
C2858 C2857 1.421 . S
C2858 N2868 1.359 . S
C2859 C2857 1.417 . S
C2859 C2861 1.329 . S
C2859 H2878 0.930 . S
C2860 C2856 1.415 . S
C2860 C2861 1.437 . S
C2860 C2864 1.413 . S
C2861 C2859 1.329 . S
C2861 C2860 1.437 . S
C2861 H2883 0.929 . S
N2862 C2856 1.369 . S
N2862 C2863 1.338 . S
N2862 Gd2867 2.622 . S
C2863 N2862 1.338 . S
C2863 C2865 1.378 . S
C2863 H2875 0.929 . S
C2864 C2860 1.413 . S
C2864 C2865 1.348 . S
C2864 H2880 0.931 . S
C2865 C2863 1.378 . S
C2865 C2864 1.348 . S
C2865 H2881 0.930 . S
Gd2866 N2886 2.622 . S
Gd2866 N2893 2.570 . S
Gd2866 O2900 2.353 . S
Gd2866 O2901 2.468 . S
Gd2866 O2902 2.427 . S
Gd2866 O2904 2.388 . S
Gd2866 O2905 2.386 . S
Gd2866 O2909 2.307 . S
Gd2866 C2919 2.805 . S
Gd2867 N2862 2.622 . S
Gd2867 N2868 2.570 . S
Gd2867 O2899 2.386 . S
Gd2867 O2903 2.307 . S
Gd2867 O2906 2.353 . S
Gd2867 O2907 2.468 . S
Gd2867 O2908 2.427 . S
Gd2867 O2910 2.388 . S
Gd2867 C2931 2.805 . S
N2868 C2858 1.359 . S
N2868 Gd2867 2.570 . S
N2868 C2870 1.343 . S
C2869 C2857 1.422 . S
C2869 C2871 1.321 . S
C2869 H2877 0.931 . S
C2870 N2868 1.343 . S
C2870 C2871 1.390 . S
C2870 H2872 0.931 . S
C2871 C2869 1.321 . S
C2871 C2870 1.390 . S
C2871 H2873 0.930 . S
H2872 C2870 0.931 . S
H2873 C2871 0.930 . S
H2874 C2897 0.931 . S
H2875 C2863 0.929 . S
H2876 C2898 0.930 . S
H2877 C2869 0.931 . S
H2878 C2859 0.930 . S
H2879 C2888 0.929 . S
H2880 C2864 0.931 . S
H2881 C2865 0.930 . S
H2882 C2920 0.930 . S
H2883 C2861 0.929 . S
H2884 C2889 0.931 . S
H2885 C2890 0.930 . S
N2886 Gd2866 2.622 . S
N2886 C2887 1.369 . S
N2886 C2888 1.338 . S
C2887 N2886 1.369 . S
C2887 C2891 1.415 . S
C2887 C2894 1.422 . S
C2888 H2879 0.929 . S
C2888 N2886 1.338 . S
C2888 C2890 1.378 . S
C2889 H2884 0.931 . S
C2889 C2890 1.348 . S
C2889 C2891 1.413 . S
C2890 H2885 0.930 . S
C2890 C2888 1.378 . S
C2890 C2889 1.348 . S
C2891 C2887 1.415 . S
C2891 C2889 1.413 . S
C2891 C2921 1.437 . S
H2892 C2921 0.929 . S
N2893 Gd2866 2.570 . S
N2893 C2894 1.359 . S
N2893 C2897 1.343 . S
C2894 C2887 1.422 . S
C2894 N2893 1.359 . S
C2894 C2896 1.421 . S
C2895 C2896 1.422 . S
C2895 C2898 1.321 . S
C2895 H2922 0.931 . S
C2896 C2894 1.421 . S
C2896 C2895 1.422 . S
C2896 C2920 1.417 . S
C2897 H2874 0.931 . S
C2897 N2893 1.343 . S
C2897 C2898 1.390 . S
C2898 H2876 0.930 . S
C2898 C2895 1.321 . S
C2898 C2897 1.390 . S
O2899 Gd2867 2.386 . S
O2899 C2911 1.265 . S
O2900 Gd2866 2.353 . S
O2900 C2911 1.242 . S
O2901 Gd2866 2.468 . S
O2901 C2919 1.263 . S
O2902 Gd2866 2.427 . S
O2902 C2919 1.252 . S
O2903 Gd2867 2.307 . S
O2903 C2912 1.261 . S
O2904 Gd2866 2.388 . S
O2904 C2912 1.252 . S
O2905 Gd2866 2.386 . S
O2905 C2923 1.265 . S
O2906 Gd2867 2.353 . S
O2906 C2923 1.242 . S
O2907 Gd2867 2.468 . S
O2907 C2931 1.263 . S
O2908 Gd2867 2.427 . S
O2908 C2931 1.252 . S
O2909 Gd2866 2.307 . S
O2909 C2924 1.261 . S
O2910 Gd2867 2.388 . S
O2910 C2924 1.252 . S
C2911 O2899 1.265 . S
C2911 O2900 1.242 . S
C2912 O2903 1.261 . S
C2912 O2904 1.252 . S
C2913 C2916 1.394 . S
C2913 C2918 1.370 . S
C2913 C2919 1.500 . S
C2914 C2917 1.383 . S
C2914 C2918 1.395 . S
C2915 C2916 1.396 . S
C2915 C2917 1.365 . S
C2915 H2932 0.929 . S
C2916 C2913 1.394 . S
C2916 C2915 1.396 . S
C2916 H2933 0.930 . S
C2917 C2914 1.383 . S
C2917 C2915 1.365 . S
C2917 H2934 0.931 . S
C2918 C2913 1.370 . S
C2918 C2914 1.395 . S
C2918 H2935 0.930 . S
C2919 Gd2866 2.805 . S
C2919 O2901 1.263 . S
C2919 O2902 1.252 . S
C2919 C2913 1.500 . S
C2920 H2882 0.930 . S
C2920 C2896 1.417 . S
C2920 C2921 1.329 . S
C2921 C2891 1.437 . S
C2921 H2892 0.929 . S
C2921 C2920 1.329 . S
H2922 C2895 0.931 . S
C2923 O2905 1.265 . S
C2923 O2906 1.242 . S
C2924 O2909 1.261 . S
C2924 O2910 1.252 . S
C2925 C2928 1.394 . S
C2925 C2930 1.370 . S
C2925 C2931 1.500 . S
C2926 C2929 1.383 . S
C2926 C2930 1.395 . S
C2927 C2928 1.396 . S
C2927 C2929 1.365 . S
C2927 H2936 0.929 . S
C2928 C2925 1.394 . S
C2928 C2927 1.396 . S
C2928 H2937 0.930 . S
C2929 C2926 1.383 . S
C2929 C2927 1.365 . S
C2929 H2938 0.931 . S
C2930 C2925 1.370 . S
C2930 C2926 1.395 . S
C2930 H2939 0.930 . S
C2931 Gd2867 2.805 . S
C2931 O2907 1.263 . S
C2931 O2908 1.252 . S
C2931 C2925 1.500 . S
H2932 C2915 0.929 . S
H2933 C2916 0.930 . S
H2934 C2917 0.931 . S
H2935 C2918 0.930 . S
H2936 C2927 0.929 . S
H2937 C2928 0.930 . S
H2938 C2929 0.931 . S
H2939 C2930 0.930 . S
C2940 C2942 1.422 . S
C2940 C2944 1.415 . S
C2940 N2946 1.369 . S
C2941 C2942 1.421 . S
C2941 C2943 1.417 . S
C2941 C2953 1.422 . S
C2942 C2940 1.422 . S
C2942 C2941 1.421 . S
C2942 N2952 1.359 . S
C2943 C2941 1.417 . S
C2943 C2945 1.329 . S
C2943 H2962 0.930 . S
C2944 C2940 1.415 . S
C2944 C2945 1.437 . S
C2944 C2948 1.413 . S
C2945 C2943 1.329 . S
C2945 C2944 1.437 . S
C2945 H2967 0.929 . S
N2946 C2940 1.369 . S
N2946 C2947 1.338 . S
N2946 Gd2951 2.622 . S
C2947 N2946 1.338 . S
C2947 C2949 1.378 . S
C2947 H2959 0.929 . S
C2948 C2944 1.413 . S
C2948 C2949 1.348 . S
C2948 H2964 0.931 . S
C2949 C2947 1.378 . S
C2949 C2948 1.348 . S
C2949 H2965 0.930 . S
Gd2950 N2970 2.622 . S
Gd2950 N2977 2.570 . S
Gd2950 O2984 2.353 . S
Gd2950 O2985 2.468 . S
Gd2950 O2986 2.427 . S
Gd2950 O2988 2.388 . S
Gd2950 O2989 2.386 . S
Gd2950 O2993 2.307 . S
Gd2950 C3003 2.805 . S
Gd2951 N2946 2.622 . S
Gd2951 N2952 2.570 . S
Gd2951 O2983 2.386 . S
Gd2951 O2987 2.307 . S
Gd2951 O2990 2.353 . S
Gd2951 O2991 2.468 . S
Gd2951 O2992 2.427 . S
Gd2951 O2994 2.388 . S
Gd2951 C3015 2.805 . S
N2952 C2942 1.359 . S
N2952 Gd2951 2.570 . S
N2952 C2954 1.343 . S
C2953 C2941 1.422 . S
C2953 C2955 1.321 . S
C2953 H2961 0.931 . S
C2954 N2952 1.343 . S
C2954 C2955 1.390 . S
C2954 H2956 0.931 . S
C2955 C2953 1.321 . S
C2955 C2954 1.390 . S
C2955 H2957 0.930 . S
H2956 C2954 0.931 . S
H2957 C2955 0.930 . S
H2958 C2981 0.931 . S
H2959 C2947 0.929 . S
H2960 C2982 0.930 . S
H2961 C2953 0.931 . S
H2962 C2943 0.930 . S
H2963 C2972 0.929 . S
H2964 C2948 0.931 . S
H2965 C2949 0.930 . S
H2966 C3004 0.930 . S
H2967 C2945 0.929 . S
H2968 C2973 0.931 . S
H2969 C2974 0.930 . S
N2970 Gd2950 2.622 . S
N2970 C2971 1.369 . S
N2970 C2972 1.338 . S
C2971 N2970 1.369 . S
C2971 C2975 1.415 . S
C2971 C2978 1.422 . S
C2972 H2963 0.929 . S
C2972 N2970 1.338 . S
C2972 C2974 1.378 . S
C2973 H2968 0.931 . S
C2973 C2974 1.348 . S
C2973 C2975 1.413 . S
C2974 H2969 0.930 . S
C2974 C2972 1.378 . S
C2974 C2973 1.348 . S
C2975 C2971 1.415 . S
C2975 C2973 1.413 . S
C2975 C3005 1.437 . S
H2976 C3005 0.929 . S
N2977 Gd2950 2.570 . S
N2977 C2978 1.359 . S
N2977 C2981 1.343 . S
C2978 C2971 1.422 . S
C2978 N2977 1.359 . S
C2978 C2980 1.421 . S
C2979 C2980 1.422 . S
C2979 C2982 1.321 . S
C2979 H3006 0.931 . S
C2980 C2978 1.421 . S
C2980 C2979 1.422 . S
C2980 C3004 1.417 . S
C2981 H2958 0.931 . S
C2981 N2977 1.343 . S
C2981 C2982 1.390 . S
C2982 H2960 0.930 . S
C2982 C2979 1.321 . S
C2982 C2981 1.390 . S
O2983 Gd2951 2.386 . S
O2983 C2995 1.265 . S
O2984 Gd2950 2.353 . S
O2984 C2995 1.242 . S
O2985 Gd2950 2.468 . S
O2985 C3003 1.263 . S
O2986 Gd2950 2.427 . S
O2986 C3003 1.252 . S
O2987 Gd2951 2.307 . S
O2987 C2996 1.261 . S
O2988 Gd2950 2.388 . S
O2988 C2996 1.252 . S
O2989 Gd2950 2.386 . S
O2989 C3007 1.265 . S
O2990 Gd2951 2.353 . S
O2990 C3007 1.242 . S
O2991 Gd2951 2.468 . S
O2991 C3015 1.263 . S
O2992 Gd2951 2.427 . S
O2992 C3015 1.252 . S
O2993 Gd2950 2.307 . S
O2993 C3008 1.261 . S
O2994 Gd2951 2.388 . S
O2994 C3008 1.252 . S
C2995 O2983 1.265 . S
C2995 O2984 1.242 . S
C2996 O2987 1.261 . S
C2996 O2988 1.252 . S
C2997 C3000 1.394 . S
C2997 C3002 1.370 . S
C2997 C3003 1.500 . S
C2998 C3001 1.383 . S
C2998 C3002 1.395 . S
C2999 C3000 1.396 . S
C2999 C3001 1.365 . S
C2999 H3016 0.929 . S
C3000 C2997 1.394 . S
C3000 C2999 1.396 . S
C3000 H3017 0.930 . S
C3001 C2998 1.383 . S
C3001 C2999 1.365 . S
C3001 H3018 0.931 . S
C3002 C2997 1.370 . S
C3002 C2998 1.395 . S
C3002 H3019 0.930 . S
C3003 Gd2950 2.805 . S
C3003 O2985 1.263 . S
C3003 O2986 1.252 . S
C3003 C2997 1.500 . S
C3004 H2966 0.930 . S
C3004 C2980 1.417 . S
C3004 C3005 1.329 . S
C3005 C2975 1.437 . S
C3005 H2976 0.929 . S
C3005 C3004 1.329 . S
H3006 C2979 0.931 . S
C3007 O2989 1.265 . S
C3007 O2990 1.242 . S
C3008 O2993 1.261 . S
C3008 O2994 1.252 . S
C3009 C3012 1.394 . S
C3009 C3014 1.370 . S
C3009 C3015 1.500 . S
C3010 C3013 1.383 . S
C3010 C3014 1.395 . S
C3011 C3012 1.396 . S
C3011 C3013 1.365 . S
C3011 H3020 0.929 . S
C3012 C3009 1.394 . S
C3012 C3011 1.396 . S
C3012 H3021 0.930 . S
C3013 C3010 1.383 . S
C3013 C3011 1.365 . S
C3013 H3022 0.931 . S
C3014 C3009 1.370 . S
C3014 C3010 1.395 . S
C3014 H3023 0.930 . S
C3015 Gd2951 2.805 . S
C3015 O2991 1.263 . S
C3015 O2992 1.252 . S
C3015 C3009 1.500 . S
H3016 C2999 0.929 . S
H3017 C3000 0.930 . S
H3018 C3001 0.931 . S
H3019 C3002 0.930 . S
H3020 C3011 0.929 . S
H3021 C3012 0.930 . S
H3022 C3013 0.931 . S
H3023 C3014 0.930 . S
C3024 C3026 1.422 . S
C3024 C3028 1.415 . S
C3024 N3030 1.369 . S
C3025 C3026 1.421 . S
C3025 C3027 1.417 . S
C3025 C3037 1.422 . S
C3026 C3024 1.422 . S
C3026 C3025 1.421 . S
C3026 N3036 1.359 . S
C3027 C3025 1.417 . S
C3027 C3029 1.329 . S
C3027 H3046 0.930 . S
C3028 C3024 1.415 . S
C3028 C3029 1.437 . S
C3028 C3032 1.413 . S
C3029 C3027 1.329 . S
C3029 C3028 1.437 . S
C3029 H3051 0.929 . S
N3030 C3024 1.369 . S
N3030 C3031 1.338 . S
N3030 Gd3035 2.622 . S
C3031 N3030 1.338 . S
C3031 C3033 1.378 . S
C3031 H3043 0.929 . S
C3032 C3028 1.413 . S
C3032 C3033 1.348 . S
C3032 H3048 0.931 . S
C3033 C3031 1.378 . S
C3033 C3032 1.348 . S
C3033 H3049 0.930 . S
Gd3034 N3054 2.622 . S
Gd3034 N3061 2.570 . S
Gd3034 O3068 2.353 . S
Gd3034 O3069 2.468 . S
Gd3034 O3070 2.427 . S
Gd3034 O3072 2.388 . S
Gd3034 O3073 2.386 . S
Gd3034 O3077 2.307 . S
Gd3034 C3087 2.805 . S
Gd3035 N3030 2.622 . S
Gd3035 N3036 2.570 . S
Gd3035 O3067 2.386 . S
Gd3035 O3071 2.307 . S
Gd3035 O3074 2.353 . S
Gd3035 O3075 2.468 . S
Gd3035 O3076 2.427 . S
Gd3035 O3078 2.388 . S
Gd3035 C3099 2.805 . S
N3036 C3026 1.359 . S
N3036 Gd3035 2.570 . S
N3036 C3038 1.343 . S
C3037 C3025 1.422 . S
C3037 C3039 1.321 . S
C3037 H3045 0.931 . S
C3038 N3036 1.343 . S
C3038 C3039 1.390 . S
C3038 H3040 0.931 . S
C3039 C3037 1.321 . S
C3039 C3038 1.390 . S
C3039 H3041 0.930 . S
H3040 C3038 0.931 . S
H3041 C3039 0.930 . S
H3042 C3065 0.931 . S
H3043 C3031 0.929 . S
H3044 C3066 0.930 . S
H3045 C3037 0.931 . S
H3046 C3027 0.930 . S
H3047 C3056 0.929 . S
H3048 C3032 0.931 . S
H3049 C3033 0.930 . S
H3050 C3088 0.930 . S
H3051 C3029 0.929 . S
H3052 C3057 0.931 . S
H3053 C3058 0.930 . S
N3054 Gd3034 2.622 . S
N3054 C3055 1.369 . S
N3054 C3056 1.338 . S
C3055 N3054 1.369 . S
C3055 C3059 1.415 . S
C3055 C3062 1.422 . S
C3056 H3047 0.929 . S
C3056 N3054 1.338 . S
C3056 C3058 1.378 . S
C3057 H3052 0.931 . S
C3057 C3058 1.348 . S
C3057 C3059 1.413 . S
C3058 H3053 0.930 . S
C3058 C3056 1.378 . S
C3058 C3057 1.348 . S
C3059 C3055 1.415 . S
C3059 C3057 1.413 . S
C3059 C3089 1.437 . S
H3060 C3089 0.929 . S
N3061 Gd3034 2.570 . S
N3061 C3062 1.359 . S
N3061 C3065 1.343 . S
C3062 C3055 1.422 . S
C3062 N3061 1.359 . S
C3062 C3064 1.421 . S
C3063 C3064 1.422 . S
C3063 C3066 1.321 . S
C3063 H3090 0.931 . S
C3064 C3062 1.421 . S
C3064 C3063 1.422 . S
C3064 C3088 1.417 . S
C3065 H3042 0.931 . S
C3065 N3061 1.343 . S
C3065 C3066 1.390 . S
C3066 H3044 0.930 . S
C3066 C3063 1.321 . S
C3066 C3065 1.390 . S
O3067 Gd3035 2.386 . S
O3067 C3079 1.265 . S
O3068 Gd3034 2.353 . S
O3068 C3079 1.242 . S
O3069 Gd3034 2.468 . S
O3069 C3087 1.263 . S
O3070 Gd3034 2.427 . S
O3070 C3087 1.252 . S
O3071 Gd3035 2.307 . S
O3071 C3080 1.261 . S
O3072 Gd3034 2.388 . S
O3072 C3080 1.252 . S
O3073 Gd3034 2.386 . S
O3073 C3091 1.265 . S
O3074 Gd3035 2.353 . S
O3074 C3091 1.242 . S
O3075 Gd3035 2.468 . S
O3075 C3099 1.263 . S
O3076 Gd3035 2.427 . S
O3076 C3099 1.252 . S
O3077 Gd3034 2.307 . S
O3077 C3092 1.261 . S
O3078 Gd3035 2.388 . S
O3078 C3092 1.252 . S
C3079 O3067 1.265 . S
C3079 O3068 1.242 . S
C3080 O3071 1.261 . S
C3080 O3072 1.252 . S
C3081 C3084 1.394 . S
C3081 C3086 1.370 . S
C3081 C3087 1.500 . S
C3082 C3085 1.383 . S
C3082 C3086 1.395 . S
C3083 C3084 1.396 . S
C3083 C3085 1.365 . S
C3083 H3100 0.929 . S
C3084 C3081 1.394 . S
C3084 C3083 1.396 . S
C3084 H3101 0.930 . S
C3085 C3082 1.383 . S
C3085 C3083 1.365 . S
C3085 H3102 0.931 . S
C3086 C3081 1.370 . S
C3086 C3082 1.395 . S
C3086 H3103 0.930 . S
C3087 Gd3034 2.805 . S
C3087 O3069 1.263 . S
C3087 O3070 1.252 . S
C3087 C3081 1.500 . S
C3088 H3050 0.930 . S
C3088 C3064 1.417 . S
C3088 C3089 1.329 . S
C3089 C3059 1.437 . S
C3089 H3060 0.929 . S
C3089 C3088 1.329 . S
H3090 C3063 0.931 . S
C3091 O3073 1.265 . S
C3091 O3074 1.242 . S
C3092 O3077 1.261 . S
C3092 O3078 1.252 . S
C3093 C3096 1.394 . S
C3093 C3098 1.370 . S
C3093 C3099 1.500 . S
C3094 C3097 1.383 . S
C3094 C3098 1.395 . S
C3095 C3096 1.396 . S
C3095 C3097 1.365 . S
C3095 H3104 0.929 . S
C3096 C3093 1.394 . S
C3096 C3095 1.396 . S
C3096 H3105 0.930 . S
C3097 C3094 1.383 . S
C3097 C3095 1.365 . S
C3097 H3106 0.931 . S
C3098 C3093 1.370 . S
C3098 C3094 1.395 . S
C3098 H3107 0.930 . S
C3099 Gd3035 2.805 . S
C3099 O3075 1.263 . S
C3099 O3076 1.252 . S
C3099 C3093 1.500 . S
H3100 C3083 0.929 . S
H3101 C3084 0.930 . S
H3102 C3085 0.931 . S
H3103 C3086 0.930 . S
H3104 C3095 0.929 . S
H3105 C3096 0.930 . S
H3106 C3097 0.931 . S
H3107 C3098 0.930 . S
C3108 C3110 1.422 . S
C3108 C3112 1.415 . S
C3108 N3114 1.369 . S
C3109 C3110 1.421 . S
C3109 C3111 1.417 . S
C3109 C3121 1.422 . S
C3110 C3108 1.422 . S
C3110 C3109 1.421 . S
C3110 N3120 1.359 . S
C3111 C3109 1.417 . S
C3111 C3113 1.329 . S
C3111 H3130 0.930 . S
C3112 C3108 1.415 . S
C3112 C3113 1.437 . S
C3112 C3116 1.413 . S
C3113 C3111 1.329 . S
C3113 C3112 1.437 . S
C3113 H3135 0.929 . S
N3114 C3108 1.369 . S
N3114 C3115 1.338 . S
N3114 Gd3119 2.622 . S
C3115 N3114 1.338 . S
C3115 C3117 1.378 . S
C3115 H3127 0.929 . S
C3116 C3112 1.413 . S
C3116 C3117 1.348 . S
C3116 H3132 0.931 . S
C3117 C3115 1.378 . S
C3117 C3116 1.348 . S
C3117 H3133 0.930 . S
Gd3118 N3138 2.622 . S
Gd3118 N3145 2.570 . S
Gd3118 O3152 2.353 . S
Gd3118 O3153 2.468 . S
Gd3118 O3154 2.427 . S
Gd3118 O3156 2.388 . S
Gd3118 O3157 2.386 . S
Gd3118 O3161 2.307 . S
Gd3118 C3171 2.805 . S
Gd3119 N3114 2.622 . S
Gd3119 N3120 2.570 . S
Gd3119 O3151 2.386 . S
Gd3119 O3155 2.307 . S
Gd3119 O3158 2.353 . S
Gd3119 O3159 2.468 . S
Gd3119 O3160 2.427 . S
Gd3119 O3162 2.388 . S
Gd3119 C3183 2.805 . S
N3120 C3110 1.359 . S
N3120 Gd3119 2.570 . S
N3120 C3122 1.343 . S
C3121 C3109 1.422 . S
C3121 C3123 1.321 . S
C3121 H3129 0.931 . S
C3122 N3120 1.343 . S
C3122 C3123 1.390 . S
C3122 H3124 0.931 . S
C3123 C3121 1.321 . S
C3123 C3122 1.390 . S
C3123 H3125 0.930 . S
H3124 C3122 0.931 . S
H3125 C3123 0.930 . S
H3126 C3149 0.931 . S
H3127 C3115 0.929 . S
H3128 C3150 0.930 . S
H3129 C3121 0.931 . S
H3130 C3111 0.930 . S
H3131 C3140 0.929 . S
H3132 C3116 0.931 . S
H3133 C3117 0.930 . S
H3134 C3172 0.930 . S
H3135 C3113 0.929 . S
H3136 C3141 0.931 . S
H3137 C3142 0.930 . S
N3138 Gd3118 2.622 . S
N3138 C3139 1.369 . S
N3138 C3140 1.338 . S
C3139 N3138 1.369 . S
C3139 C3143 1.415 . S
C3139 C3146 1.422 . S
C3140 H3131 0.929 . S
C3140 N3138 1.338 . S
C3140 C3142 1.378 . S
C3141 H3136 0.931 . S
C3141 C3142 1.348 . S
C3141 C3143 1.413 . S
C3142 H3137 0.930 . S
C3142 C3140 1.378 . S
C3142 C3141 1.348 . S
C3143 C3139 1.415 . S
C3143 C3141 1.413 . S
C3143 C3173 1.437 . S
H3144 C3173 0.929 . S
N3145 Gd3118 2.570 . S
N3145 C3146 1.359 . S
N3145 C3149 1.343 . S
C3146 C3139 1.422 . S
C3146 N3145 1.359 . S
C3146 C3148 1.421 . S
C3147 C3148 1.422 . S
C3147 C3150 1.321 . S
C3147 H3174 0.931 . S
C3148 C3146 1.421 . S
C3148 C3147 1.422 . S
C3148 C3172 1.417 . S
C3149 H3126 0.931 . S
C3149 N3145 1.343 . S
C3149 C3150 1.390 . S
C3150 H3128 0.930 . S
C3150 C3147 1.321 . S
C3150 C3149 1.390 . S
O3151 Gd3119 2.386 . S
O3151 C3163 1.265 . S
O3152 Gd3118 2.353 . S
O3152 C3163 1.242 . S
O3153 Gd3118 2.468 . S
O3153 C3171 1.263 . S
O3154 Gd3118 2.427 . S
O3154 C3171 1.252 . S
O3155 Gd3119 2.307 . S
O3155 C3164 1.261 . S
O3156 Gd3118 2.388 . S
O3156 C3164 1.252 . S
O3157 Gd3118 2.386 . S
O3157 C3175 1.265 . S
O3158 Gd3119 2.353 . S
O3158 C3175 1.242 . S
O3159 Gd3119 2.468 . S
O3159 C3183 1.263 . S
O3160 Gd3119 2.427 . S
O3160 C3183 1.252 . S
O3161 Gd3118 2.307 . S
O3161 C3176 1.261 . S
O3162 Gd3119 2.388 . S
O3162 C3176 1.252 . S
C3163 O3151 1.265 . S
C3163 O3152 1.242 . S
C3164 O3155 1.261 . S
C3164 O3156 1.252 . S
C3165 C3168 1.394 . S
C3165 C3170 1.370 . S
C3165 C3171 1.500 . S
C3166 C3169 1.383 . S
C3166 C3170 1.395 . S
C3167 C3168 1.396 . S
C3167 C3169 1.365 . S
C3167 H3184 0.929 . S
C3168 C3165 1.394 . S
C3168 C3167 1.396 . S
C3168 H3185 0.930 . S
C3169 C3166 1.383 . S
C3169 C3167 1.365 . S
C3169 H3186 0.931 . S
C3170 C3165 1.370 . S
C3170 C3166 1.395 . S
C3170 H3187 0.930 . S
C3171 Gd3118 2.805 . S
C3171 O3153 1.263 . S
C3171 O3154 1.252 . S
C3171 C3165 1.500 . S
C3172 H3134 0.930 . S
C3172 C3148 1.417 . S
C3172 C3173 1.329 . S
C3173 C3143 1.437 . S
C3173 H3144 0.929 . S
C3173 C3172 1.329 . S
H3174 C3147 0.931 . S
C3175 O3157 1.265 . S
C3175 O3158 1.242 . S
C3176 O3161 1.261 . S
C3176 O3162 1.252 . S
C3177 C3180 1.394 . S
C3177 C3182 1.370 . S
C3177 C3183 1.500 . S
C3178 C3181 1.383 . S
C3178 C3182 1.395 . S
C3179 C3180 1.396 . S
C3179 C3181 1.365 . S
C3179 H3188 0.929 . S
C3180 C3177 1.394 . S
C3180 C3179 1.396 . S
C3180 H3189 0.930 . S
C3181 C3178 1.383 . S
C3181 C3179 1.365 . S
C3181 H3190 0.931 . S
C3182 C3177 1.370 . S
C3182 C3178 1.395 . S
C3182 H3191 0.930 . S
C3183 Gd3119 2.805 . S
C3183 O3159 1.263 . S
C3183 O3160 1.252 . S
C3183 C3177 1.500 . S
H3184 C3167 0.929 . S
H3185 C3168 0.930 . S
H3186 C3169 0.931 . S
H3187 C3170 0.930 . S
H3188 C3179 0.929 . S
H3189 C3180 0.930 . S
H3190 C3181 0.931 . S
H3191 C3182 0.930 . S
C3192 C3194 1.422 . S
C3192 C3196 1.415 . S
C3192 N3198 1.369 . S
C3193 C3194 1.421 . S
C3193 C3195 1.417 . S
C3193 C3205 1.422 . S
C3194 C3192 1.422 . S
C3194 C3193 1.421 . S
C3194 N3204 1.359 . S
C3195 C3193 1.417 . S
C3195 C3197 1.329 . S
C3195 H3214 0.930 . S
C3196 C3192 1.415 . S
C3196 C3197 1.437 . S
C3196 C3200 1.413 . S
C3197 C3195 1.329 . S
C3197 C3196 1.437 . S
C3197 H3219 0.929 . S
N3198 C3192 1.369 . S
N3198 C3199 1.338 . S
N3198 Gd3203 2.622 . S
C3199 N3198 1.338 . S
C3199 C3201 1.378 . S
C3199 H3211 0.929 . S
C3200 C3196 1.413 . S
C3200 C3201 1.348 . S
C3200 H3216 0.931 . S
C3201 C3199 1.378 . S
C3201 C3200 1.348 . S
C3201 H3217 0.930 . S
Gd3202 N3222 2.622 . S
Gd3202 N3229 2.570 . S
Gd3202 O3236 2.353 . S
Gd3202 O3237 2.468 . S
Gd3202 O3238 2.427 . S
Gd3202 O3240 2.388 . S
Gd3202 O3241 2.386 . S
Gd3202 O3245 2.307 . S
Gd3202 C3255 2.805 . S
Gd3203 N3198 2.622 . S
Gd3203 N3204 2.570 . S
Gd3203 O3235 2.386 . S
Gd3203 O3239 2.307 . S
Gd3203 O3242 2.353 . S
Gd3203 O3243 2.468 . S
Gd3203 O3244 2.427 . S
Gd3203 O3246 2.388 . S
Gd3203 C3267 2.805 . S
N3204 C3194 1.359 . S
N3204 Gd3203 2.570 . S
N3204 C3206 1.343 . S
C3205 C3193 1.422 . S
C3205 C3207 1.321 . S
C3205 H3213 0.931 . S
C3206 N3204 1.343 . S
C3206 C3207 1.390 . S
C3206 H3208 0.931 . S
C3207 C3205 1.321 . S
C3207 C3206 1.390 . S
C3207 H3209 0.930 . S
H3208 C3206 0.931 . S
H3209 C3207 0.930 . S
H3210 C3233 0.931 . S
H3211 C3199 0.929 . S
H3212 C3234 0.930 . S
H3213 C3205 0.931 . S
H3214 C3195 0.930 . S
H3215 C3224 0.929 . S
H3216 C3200 0.931 . S
H3217 C3201 0.930 . S
H3218 C3256 0.930 . S
H3219 C3197 0.929 . S
H3220 C3225 0.931 . S
H3221 C3226 0.930 . S
N3222 Gd3202 2.622 . S
N3222 C3223 1.369 . S
N3222 C3224 1.338 . S
C3223 N3222 1.369 . S
C3223 C3227 1.415 . S
C3223 C3230 1.422 . S
C3224 H3215 0.929 . S
C3224 N3222 1.338 . S
C3224 C3226 1.378 . S
C3225 H3220 0.931 . S
C3225 C3226 1.348 . S
C3225 C3227 1.413 . S
C3226 H3221 0.930 . S
C3226 C3224 1.378 . S
C3226 C3225 1.348 . S
C3227 C3223 1.415 . S
C3227 C3225 1.413 . S
C3227 C3257 1.437 . S
H3228 C3257 0.929 . S
N3229 Gd3202 2.570 . S
N3229 C3230 1.359 . S
N3229 C3233 1.343 . S
C3230 C3223 1.422 . S
C3230 N3229 1.359 . S
C3230 C3232 1.421 . S
C3231 C3232 1.422 . S
C3231 C3234 1.321 . S
C3231 H3258 0.931 . S
C3232 C3230 1.421 . S
C3232 C3231 1.422 . S
C3232 C3256 1.417 . S
C3233 H3210 0.931 . S
C3233 N3229 1.343 . S
C3233 C3234 1.390 . S
C3234 H3212 0.930 . S
C3234 C3231 1.321 . S
C3234 C3233 1.390 . S
O3235 Gd3203 2.386 . S
O3235 C3247 1.265 . S
O3236 Gd3202 2.353 . S
O3236 C3247 1.242 . S
O3237 Gd3202 2.468 . S
O3237 C3255 1.263 . S
O3238 Gd3202 2.427 . S
O3238 C3255 1.252 . S
O3239 Gd3203 2.307 . S
O3239 C3248 1.261 . S
O3240 Gd3202 2.388 . S
O3240 C3248 1.252 . S
O3241 Gd3202 2.386 . S
O3241 C3259 1.265 . S
O3242 Gd3203 2.353 . S
O3242 C3259 1.242 . S
O3243 Gd3203 2.468 . S
O3243 C3267 1.263 . S
O3244 Gd3203 2.427 . S
O3244 C3267 1.252 . S
O3245 Gd3202 2.307 . S
O3245 C3260 1.261 . S
O3246 Gd3203 2.388 . S
O3246 C3260 1.252 . S
C3247 O3235 1.265 . S
C3247 O3236 1.242 . S
C3248 O3239 1.261 . S
C3248 O3240 1.252 . S
C3249 C3252 1.394 . S
C3249 C3254 1.370 . S
C3249 C3255 1.500 . S
C3250 C3253 1.383 . S
C3250 C3254 1.395 . S
C3251 C3252 1.396 . S
C3251 C3253 1.365 . S
C3251 H3268 0.929 . S
C3252 C3249 1.394 . S
C3252 C3251 1.396 . S
C3252 H3269 0.930 . S
C3253 C3250 1.383 . S
C3253 C3251 1.365 . S
C3253 H3270 0.931 . S
C3254 C3249 1.370 . S
C3254 C3250 1.395 . S
C3254 H3271 0.930 . S
C3255 Gd3202 2.805 . S
C3255 O3237 1.263 . S
C3255 O3238 1.252 . S
C3255 C3249 1.500 . S
C3256 H3218 0.930 . S
C3256 C3232 1.417 . S
C3256 C3257 1.329 . S
C3257 C3227 1.437 . S
C3257 H3228 0.929 . S
C3257 C3256 1.329 . S
H3258 C3231 0.931 . S
C3259 O3241 1.265 . S
C3259 O3242 1.242 . S
C3260 O3245 1.261 . S
C3260 O3246 1.252 . S
C3261 C3264 1.394 . S
C3261 C3266 1.370 . S
C3261 C3267 1.500 . S
C3262 C3265 1.383 . S
C3262 C3266 1.395 . S
C3263 C3264 1.396 . S
C3263 C3265 1.365 . S
C3263 H3272 0.929 . S
C3264 C3261 1.394 . S
C3264 C3263 1.396 . S
C3264 H3273 0.930 . S
C3265 C3262 1.383 . S
C3265 C3263 1.365 . S
C3265 H3274 0.931 . S
C3266 C3261 1.370 . S
C3266 C3262 1.395 . S
C3266 H3275 0.930 . S
C3267 Gd3203 2.805 . S
C3267 O3243 1.263 . S
C3267 O3244 1.252 . S
C3267 C3261 1.500 . S
H3268 C3251 0.929 . S
H3269 C3252 0.930 . S
H3270 C3253 0.931 . S
H3271 C3254 0.930 . S
H3272 C3263 0.929 . S
H3273 C3264 0.930 . S
H3274 C3265 0.931 . S
H3275 C3266 0.930 . S
C3276 C3278 1.422 . S
C3276 C3280 1.415 . S
C3276 N3282 1.369 . S
C3277 C3278 1.421 . S
C3277 C3279 1.417 . S
C3277 C3289 1.422 . S
C3278 C3276 1.422 . S
C3278 C3277 1.421 . S
C3278 N3288 1.359 . S
C3279 C3277 1.417 . S
C3279 C3281 1.329 . S
C3279 H3298 0.930 . S
C3280 C3276 1.415 . S
C3280 C3281 1.437 . S
C3280 C3284 1.413 . S
C3281 C3279 1.329 . S
C3281 C3280 1.437 . S
C3281 H3303 0.929 . S
N3282 C3276 1.369 . S
N3282 C3283 1.338 . S
N3282 Gd3287 2.622 . S
C3283 N3282 1.338 . S
C3283 C3285 1.378 . S
C3283 H3295 0.929 . S
C3284 C3280 1.413 . S
C3284 C3285 1.348 . S
C3284 H3300 0.931 . S
C3285 C3283 1.378 . S
C3285 C3284 1.348 . S
C3285 H3301 0.930 . S
Gd3286 N3306 2.622 . S
Gd3286 N3313 2.570 . S
Gd3286 O3320 2.353 . S
Gd3286 O3321 2.468 . S
Gd3286 O3322 2.427 . S
Gd3286 O3324 2.388 . S
Gd3286 O3325 2.386 . S
Gd3286 O3329 2.307 . S
Gd3286 C3339 2.805 . S
Gd3287 N3282 2.622 . S
Gd3287 N3288 2.570 . S
Gd3287 O3319 2.386 . S
Gd3287 O3323 2.307 . S
Gd3287 O3326 2.353 . S
Gd3287 O3327 2.468 . S
Gd3287 O3328 2.427 . S
Gd3287 O3330 2.388 . S
Gd3287 C3351 2.805 . S
N3288 C3278 1.359 . S
N3288 Gd3287 2.570 . S
N3288 C3290 1.343 . S
C3289 C3277 1.422 . S
C3289 C3291 1.321 . S
C3289 H3297 0.931 . S
C3290 N3288 1.343 . S
C3290 C3291 1.390 . S
C3290 H3292 0.931 . S
C3291 C3289 1.321 . S
C3291 C3290 1.390 . S
C3291 H3293 0.930 . S
H3292 C3290 0.931 . S
H3293 C3291 0.930 . S
H3294 C3317 0.931 . S
H3295 C3283 0.929 . S
H3296 C3318 0.930 . S
H3297 C3289 0.931 . S
H3298 C3279 0.930 . S
H3299 C3308 0.929 . S
H3300 C3284 0.931 . S
H3301 C3285 0.930 . S
H3302 C3340 0.930 . S
H3303 C3281 0.929 . S
H3304 C3309 0.931 . S
H3305 C3310 0.930 . S
N3306 Gd3286 2.622 . S
N3306 C3307 1.369 . S
N3306 C3308 1.338 . S
C3307 N3306 1.369 . S
C3307 C3311 1.415 . S
C3307 C3314 1.422 . S
C3308 H3299 0.929 . S
C3308 N3306 1.338 . S
C3308 C3310 1.378 . S
C3309 H3304 0.931 . S
C3309 C3310 1.348 . S
C3309 C3311 1.413 . S
C3310 H3305 0.930 . S
C3310 C3308 1.378 . S
C3310 C3309 1.348 . S
C3311 C3307 1.415 . S
C3311 C3309 1.413 . S
C3311 C3341 1.437 . S
H3312 C3341 0.929 . S
N3313 Gd3286 2.570 . S
N3313 C3314 1.359 . S
N3313 C3317 1.343 . S
C3314 C3307 1.422 . S
C3314 N3313 1.359 . S
C3314 C3316 1.421 . S
C3315 C3316 1.422 . S
C3315 C3318 1.321 . S
C3315 H3342 0.931 . S
C3316 C3314 1.421 . S
C3316 C3315 1.422 . S
C3316 C3340 1.417 . S
C3317 H3294 0.931 . S
C3317 N3313 1.343 . S
C3317 C3318 1.390 . S
C3318 H3296 0.930 . S
C3318 C3315 1.321 . S
C3318 C3317 1.390 . S
O3319 Gd3287 2.386 . S
O3319 C3331 1.265 . S
O3320 Gd3286 2.353 . S
O3320 C3331 1.242 . S
O3321 Gd3286 2.468 . S
O3321 C3339 1.263 . S
O3322 Gd3286 2.427 . S
O3322 C3339 1.252 . S
O3323 Gd3287 2.307 . S
O3323 C3332 1.261 . S
O3324 Gd3286 2.388 . S
O3324 C3332 1.252 . S
O3325 Gd3286 2.386 . S
O3325 C3343 1.265 . S
O3326 Gd3287 2.353 . S
O3326 C3343 1.242 . S
O3327 Gd3287 2.468 . S
O3327 C3351 1.263 . S
O3328 Gd3287 2.427 . S
O3328 C3351 1.252 . S
O3329 Gd3286 2.307 . S
O3329 C3344 1.261 . S
O3330 Gd3287 2.388 . S
O3330 C3344 1.252 . S
C3331 O3319 1.265 . S
C3331 O3320 1.242 . S
C3332 O3323 1.261 . S
C3332 O3324 1.252 . S
C3333 C3336 1.394 . S
C3333 C3338 1.370 . S
C3333 C3339 1.500 . S
C3334 C3337 1.383 . S
C3334 C3338 1.395 . S
C3335 C3336 1.396 . S
C3335 C3337 1.365 . S
C3335 H3352 0.929 . S
C3336 C3333 1.394 . S
C3336 C3335 1.396 . S
C3336 H3353 0.930 . S
C3337 C3334 1.383 . S
C3337 C3335 1.365 . S
C3337 H3354 0.931 . S
C3338 C3333 1.370 . S
C3338 C3334 1.395 . S
C3338 H3355 0.930 . S
C3339 Gd3286 2.805 . S
C3339 O3321 1.263 . S
C3339 O3322 1.252 . S
C3339 C3333 1.500 . S
C3340 H3302 0.930 . S
C3340 C3316 1.417 . S
C3340 C3341 1.329 . S
C3341 C3311 1.437 . S
C3341 H3312 0.929 . S
C3341 C3340 1.329 . S
H3342 C3315 0.931 . S
C3343 O3325 1.265 . S
C3343 O3326 1.242 . S
C3344 O3329 1.261 . S
C3344 O3330 1.252 . S
C3345 C3348 1.394 . S
C3345 C3350 1.370 . S
C3345 C3351 1.500 . S
C3346 C3349 1.383 . S
C3346 C3350 1.395 . S
C3347 C3348 1.396 . S
C3347 C3349 1.365 . S
C3347 H3356 0.929 . S
C3348 C3345 1.394 . S
C3348 C3347 1.396 . S
C3348 H3357 0.930 . S
C3349 C3346 1.383 . S
C3349 C3347 1.365 . S
C3349 H3358 0.931 . S
C3350 C3345 1.370 . S
C3350 C3346 1.395 . S
C3350 H3359 0.930 . S
C3351 Gd3287 2.805 . S
C3351 O3327 1.263 . S
C3351 O3328 1.252 . S
C3351 C3345 1.500 . S
H3352 C3335 0.929 . S
H3353 C3336 0.930 . S
H3354 C3337 0.931 . S
H3355 C3338 0.930 . S
H3356 C3347 0.929 . S
H3357 C3348 0.930 . S
H3358 C3349 0.931 . S
H3359 C3350 0.930 . S
C3360 C3362 1.422 . S
C3360 C3364 1.415 . S
C3360 N3366 1.369 . S
C3361 C3362 1.421 . S
C3361 C3363 1.417 . S
C3361 C3373 1.422 . S
C3362 C3360 1.422 . S
C3362 C3361 1.421 . S
C3362 N3372 1.359 . S
C3363 C3361 1.417 . S
C3363 C3365 1.329 . S
C3363 H3382 0.930 . S
C3364 C3360 1.415 . S
C3364 C3365 1.437 . S
C3364 C3368 1.413 . S
C3365 C3363 1.329 . S
C3365 C3364 1.437 . S
C3365 H3387 0.929 . S
N3366 C3360 1.369 . S
N3366 C3367 1.338 . S
N3366 Gd3371 2.622 . S
C3367 N3366 1.338 . S
C3367 C3369 1.378 . S
C3367 H3379 0.929 . S
C3368 C3364 1.413 . S
C3368 C3369 1.348 . S
C3368 H3384 0.931 . S
C3369 C3367 1.378 . S
C3369 C3368 1.348 . S
C3369 H3385 0.930 . S
Gd3370 N3390 2.622 . S
Gd3370 N3397 2.570 . S
Gd3370 O3404 2.353 . S
Gd3370 O3405 2.468 . S
Gd3370 O3406 2.427 . S
Gd3370 O3408 2.388 . S
Gd3370 O3409 2.386 . S
Gd3370 O3413 2.307 . S
Gd3370 C3423 2.805 . S
Gd3371 N3366 2.622 . S
Gd3371 N3372 2.570 . S
Gd3371 O3403 2.386 . S
Gd3371 O3407 2.307 . S
Gd3371 O3410 2.353 . S
Gd3371 O3411 2.468 . S
Gd3371 O3412 2.427 . S
Gd3371 O3414 2.388 . S
Gd3371 C3435 2.805 . S
N3372 C3362 1.359 . S
N3372 Gd3371 2.570 . S
N3372 C3374 1.343 . S
C3373 C3361 1.422 . S
C3373 C3375 1.321 . S
C3373 H3381 0.931 . S
C3374 N3372 1.343 . S
C3374 C3375 1.390 . S
C3374 H3376 0.931 . S
C3375 C3373 1.321 . S
C3375 C3374 1.390 . S
C3375 H3377 0.930 . S
H3376 C3374 0.931 . S
H3377 C3375 0.930 . S
H3378 C3401 0.931 . S
H3379 C3367 0.929 . S
H3380 C3402 0.930 . S
H3381 C3373 0.931 . S
H3382 C3363 0.930 . S
H3383 C3392 0.929 . S
H3384 C3368 0.931 . S
H3385 C3369 0.930 . S
H3386 C3424 0.930 . S
H3387 C3365 0.929 . S
H3388 C3393 0.931 . S
H3389 C3394 0.930 . S
N3390 Gd3370 2.622 . S
N3390 C3391 1.369 . S
N3390 C3392 1.338 . S
C3391 N3390 1.369 . S
C3391 C3395 1.415 . S
C3391 C3398 1.422 . S
C3392 H3383 0.929 . S
C3392 N3390 1.338 . S
C3392 C3394 1.378 . S
C3393 H3388 0.931 . S
C3393 C3394 1.348 . S
C3393 C3395 1.413 . S
C3394 H3389 0.930 . S
C3394 C3392 1.378 . S
C3394 C3393 1.348 . S
C3395 C3391 1.415 . S
C3395 C3393 1.413 . S
C3395 C3425 1.437 . S
H3396 C3425 0.929 . S
N3397 Gd3370 2.570 . S
N3397 C3398 1.359 . S
N3397 C3401 1.343 . S
C3398 C3391 1.422 . S
C3398 N3397 1.359 . S
C3398 C3400 1.421 . S
C3399 C3400 1.422 . S
C3399 C3402 1.321 . S
C3399 H3426 0.931 . S
C3400 C3398 1.421 . S
C3400 C3399 1.422 . S
C3400 C3424 1.417 . S
C3401 H3378 0.931 . S
C3401 N3397 1.343 . S
C3401 C3402 1.390 . S
C3402 H3380 0.930 . S
C3402 C3399 1.321 . S
C3402 C3401 1.390 . S
O3403 Gd3371 2.386 . S
O3403 C3415 1.265 . S
O3404 Gd3370 2.353 . S
O3404 C3415 1.242 . S
O3405 Gd3370 2.468 . S
O3405 C3423 1.263 . S
O3406 Gd3370 2.427 . S
O3406 C3423 1.252 . S
O3407 Gd3371 2.307 . S
O3407 C3416 1.261 . S
O3408 Gd3370 2.388 . S
O3408 C3416 1.252 . S
O3409 Gd3370 2.386 . S
O3409 C3427 1.265 . S
O3410 Gd3371 2.353 . S
O3410 C3427 1.242 . S
O3411 Gd3371 2.468 . S
O3411 C3435 1.263 . S
O3412 Gd3371 2.427 . S
O3412 C3435 1.252 . S
O3413 Gd3370 2.307 . S
O3413 C3428 1.261 . S
O3414 Gd3371 2.388 . S
O3414 C3428 1.252 . S
C3415 O3403 1.265 . S
C3415 O3404 1.242 . S
C3416 O3407 1.261 . S
C3416 O3408 1.252 . S
C3417 C3420 1.394 . S
C3417 C3422 1.370 . S
C3417 C3423 1.500 . S
C3418 C3421 1.383 . S
C3418 C3422 1.395 . S
C3419 C3420 1.396 . S
C3419 C3421 1.365 . S
C3419 H3436 0.929 . S
C3420 C3417 1.394 . S
C3420 C3419 1.396 . S
C3420 H3437 0.930 . S
C3421 C3418 1.383 . S
C3421 C3419 1.365 . S
C3421 H3438 0.931 . S
C3422 C3417 1.370 . S
C3422 C3418 1.395 . S
C3422 H3439 0.930 . S
C3423 Gd3370 2.805 . S
C3423 O3405 1.263 . S
C3423 O3406 1.252 . S
C3423 C3417 1.500 . S
C3424 H3386 0.930 . S
C3424 C3400 1.417 . S
C3424 C3425 1.329 . S
C3425 C3395 1.437 . S
C3425 H3396 0.929 . S
C3425 C3424 1.329 . S
H3426 C3399 0.931 . S
C3427 O3409 1.265 . S
C3427 O3410 1.242 . S
C3428 O3413 1.261 . S
C3428 O3414 1.252 . S
C3429 C3432 1.394 . S
C3429 C3434 1.370 . S
C3429 C3435 1.500 . S
C3430 C3433 1.383 . S
C3430 C3434 1.395 . S
C3431 C3432 1.396 . S
C3431 C3433 1.365 . S
C3431 H3440 0.929 . S
C3432 C3429 1.394 . S
C3432 C3431 1.396 . S
C3432 H3441 0.930 . S
C3433 C3430 1.383 . S
C3433 C3431 1.365 . S
C3433 H3442 0.931 . S
C3434 C3429 1.370 . S
C3434 C3430 1.395 . S
C3434 H3443 0.930 . S
C3435 Gd3371 2.805 . S
C3435 O3411 1.263 . S
C3435 O3412 1.252 . S
C3435 C3429 1.500 . S
H3436 C3419 0.929 . S
H3437 C3420 0.930 . S
H3438 C3421 0.931 . S
H3439 C3422 0.930 . S
H3440 C3431 0.929 . S
H3441 C3432 0.930 . S
H3442 C3433 0.931 . S
H3443 C3434 0.930 . S
C3444 C3446 1.422 . S
C3444 C3448 1.415 . S
C3444 N3450 1.369 . S
C3445 C3446 1.421 . S
C3445 C3447 1.417 . S
C3445 C3457 1.422 . S
C3446 C3444 1.422 . S
C3446 C3445 1.421 . S
C3446 N3456 1.359 . S
C3447 C3445 1.417 . S
C3447 C3449 1.329 . S
C3447 H3466 0.930 . S
C3448 C3444 1.415 . S
C3448 C3449 1.437 . S
C3448 C3452 1.413 . S
C3449 C3447 1.329 . S
C3449 C3448 1.437 . S
C3449 H3471 0.929 . S
N3450 C3444 1.369 . S
N3450 C3451 1.338 . S
N3450 Gd3455 2.622 . S
C3451 N3450 1.338 . S
C3451 C3453 1.378 . S
C3451 H3463 0.929 . S
C3452 C3448 1.413 . S
C3452 C3453 1.348 . S
C3452 H3468 0.931 . S
C3453 C3451 1.378 . S
C3453 C3452 1.348 . S
C3453 H3469 0.930 . S
Gd3454 N3474 2.622 . S
Gd3454 N3481 2.570 . S
Gd3454 O3488 2.353 . S
Gd3454 O3489 2.468 . S
Gd3454 O3490 2.427 . S
Gd3454 O3492 2.388 . S
Gd3454 O3493 2.386 . S
Gd3454 O3497 2.307 . S
Gd3454 C3507 2.805 . S
Gd3455 N3450 2.622 . S
Gd3455 N3456 2.570 . S
Gd3455 O3487 2.386 . S
Gd3455 O3491 2.307 . S
Gd3455 O3494 2.353 . S
Gd3455 O3495 2.468 . S
Gd3455 O3496 2.427 . S
Gd3455 O3498 2.388 . S
Gd3455 C3519 2.805 . S
N3456 C3446 1.359 . S
N3456 Gd3455 2.570 . S
N3456 C3458 1.343 . S
C3457 C3445 1.422 . S
C3457 C3459 1.321 . S
C3457 H3465 0.931 . S
C3458 N3456 1.343 . S
C3458 C3459 1.390 . S
C3458 H3460 0.931 . S
C3459 C3457 1.321 . S
C3459 C3458 1.390 . S
C3459 H3461 0.930 . S
H3460 C3458 0.931 . S
H3461 C3459 0.930 . S
H3462 C3485 0.931 . S
H3463 C3451 0.929 . S
H3464 C3486 0.930 . S
H3465 C3457 0.931 . S
H3466 C3447 0.930 . S
H3467 C3476 0.929 . S
H3468 C3452 0.931 . S
H3469 C3453 0.930 . S
H3470 C3508 0.930 . S
H3471 C3449 0.929 . S
H3472 C3477 0.931 . S
H3473 C3478 0.930 . S
N3474 Gd3454 2.622 . S
N3474 C3475 1.369 . S
N3474 C3476 1.338 . S
C3475 N3474 1.369 . S
C3475 C3479 1.415 . S
C3475 C3482 1.422 . S
C3476 H3467 0.929 . S
C3476 N3474 1.338 . S
C3476 C3478 1.378 . S
C3477 H3472 0.931 . S
C3477 C3478 1.348 . S
C3477 C3479 1.413 . S
C3478 H3473 0.930 . S
C3478 C3476 1.378 . S
C3478 C3477 1.348 . S
C3479 C3475 1.415 . S
C3479 C3477 1.413 . S
C3479 C3509 1.437 . S
H3480 C3509 0.929 . S
N3481 Gd3454 2.570 . S
N3481 C3482 1.359 . S
N3481 C3485 1.343 . S
C3482 C3475 1.422 . S
C3482 N3481 1.359 . S
C3482 C3484 1.421 . S
C3483 C3484 1.422 . S
C3483 C3486 1.321 . S
C3483 H3510 0.931 . S
C3484 C3482 1.421 . S
C3484 C3483 1.422 . S
C3484 C3508 1.417 . S
C3485 H3462 0.931 . S
C3485 N3481 1.343 . S
C3485 C3486 1.390 . S
C3486 H3464 0.930 . S
C3486 C3483 1.321 . S
C3486 C3485 1.390 . S
O3487 Gd3455 2.386 . S
O3487 C3499 1.265 . S
O3488 Gd3454 2.353 . S
O3488 C3499 1.242 . S
O3489 Gd3454 2.468 . S
O3489 C3507 1.263 . S
O3490 Gd3454 2.427 . S
O3490 C3507 1.252 . S
O3491 Gd3455 2.307 . S
O3491 C3500 1.261 . S
O3492 Gd3454 2.388 . S
O3492 C3500 1.252 . S
O3493 Gd3454 2.386 . S
O3493 C3511 1.265 . S
O3494 Gd3455 2.353 . S
O3494 C3511 1.242 . S
O3495 Gd3455 2.468 . S
O3495 C3519 1.263 . S
O3496 Gd3455 2.427 . S
O3496 C3519 1.252 . S
O3497 Gd3454 2.307 . S
O3497 C3512 1.261 . S
O3498 Gd3455 2.388 . S
O3498 C3512 1.252 . S
C3499 O3487 1.265 . S
C3499 O3488 1.242 . S
C3500 O3491 1.261 . S
C3500 O3492 1.252 . S
C3501 C3504 1.394 . S
C3501 C3506 1.370 . S
C3501 C3507 1.500 . S
C3502 C3505 1.383 . S
C3502 C3506 1.395 . S
C3503 C3504 1.396 . S
C3503 C3505 1.365 . S
C3503 H3520 0.929 . S
C3504 C3501 1.394 . S
C3504 C3503 1.396 . S
C3504 H3521 0.930 . S
C3505 C3502 1.383 . S
C3505 C3503 1.365 . S
C3505 H3522 0.931 . S
C3506 C3501 1.370 . S
C3506 C3502 1.395 . S
C3506 H3523 0.930 . S
C3507 Gd3454 2.805 . S
C3507 O3489 1.263 . S
C3507 O3490 1.252 . S
C3507 C3501 1.500 . S
C3508 H3470 0.930 . S
C3508 C3484 1.417 . S
C3508 C3509 1.329 . S
C3509 C3479 1.437 . S
C3509 H3480 0.929 . S
C3509 C3508 1.329 . S
H3510 C3483 0.931 . S
C3511 O3493 1.265 . S
C3511 O3494 1.242 . S
C3512 O3497 1.261 . S
C3512 O3498 1.252 . S
C3513 C3516 1.394 . S
C3513 C3518 1.370 . S
C3513 C3519 1.500 . S
C3514 C3517 1.383 . S
C3514 C3518 1.395 . S
C3515 C3516 1.396 . S
C3515 C3517 1.365 . S
C3515 H3524 0.929 . S
C3516 C3513 1.394 . S
C3516 C3515 1.396 . S
C3516 H3525 0.930 . S
C3517 C3514 1.383 . S
C3517 C3515 1.365 . S
C3517 H3526 0.931 . S
C3518 C3513 1.370 . S
C3518 C3514 1.395 . S
C3518 H3527 0.930 . S
C3519 Gd3455 2.805 . S
C3519 O3495 1.263 . S
C3519 O3496 1.252 . S
C3519 C3513 1.500 . S
H3520 C3503 0.929 . S
H3521 C3504 0.930 . S
H3522 C3505 0.931 . S
H3523 C3506 0.930 . S
H3524 C3515 0.929 . S
H3525 C3516 0.930 . S
H3526 C3517 0.931 . S
H3527 C3518 0.930 . S
C3528 C3530 1.422 . S
C3528 C3532 1.415 . S
C3528 N3534 1.369 . S
C3529 C3530 1.421 . S
C3529 C3531 1.417 . S
C3529 C3541 1.422 . S
C3530 C3528 1.422 . S
C3530 C3529 1.421 . S
C3530 N3540 1.359 . S
C3531 C3529 1.417 . S
C3531 C3533 1.329 . S
C3531 H3550 0.930 . S
C3532 C3528 1.415 . S
C3532 C3533 1.437 . S
C3532 C3536 1.413 . S
C3533 C3531 1.329 . S
C3533 C3532 1.437 . S
C3533 H3555 0.929 . S
N3534 C3528 1.369 . S
N3534 C3535 1.338 . S
N3534 Gd3539 2.622 . S
C3535 N3534 1.338 . S
C3535 C3537 1.378 . S
C3535 H3547 0.929 . S
C3536 C3532 1.413 . S
C3536 C3537 1.348 . S
C3536 H3552 0.931 . S
C3537 C3535 1.378 . S
C3537 C3536 1.348 . S
C3537 H3553 0.930 . S
Gd3538 N3558 2.622 . S
Gd3538 N3565 2.570 . S
Gd3538 O3572 2.353 . S
Gd3538 O3573 2.468 . S
Gd3538 O3574 2.427 . S
Gd3538 O3576 2.388 . S
Gd3538 O3577 2.386 . S
Gd3538 O3581 2.307 . S
Gd3538 C3591 2.805 . S
Gd3539 N3534 2.622 . S
Gd3539 N3540 2.570 . S
Gd3539 O3571 2.386 . S
Gd3539 O3575 2.307 . S
Gd3539 O3578 2.353 . S
Gd3539 O3579 2.468 . S
Gd3539 O3580 2.427 . S
Gd3539 O3582 2.388 . S
Gd3539 C3603 2.805 . S
N3540 C3530 1.359 . S
N3540 Gd3539 2.570 . S
N3540 C3542 1.343 . S
C3541 C3529 1.422 . S
C3541 C3543 1.321 . S
C3541 H3549 0.931 . S
C3542 N3540 1.343 . S
C3542 C3543 1.390 . S
C3542 H3544 0.931 . S
C3543 C3541 1.321 . S
C3543 C3542 1.390 . S
C3543 H3545 0.930 . S
H3544 C3542 0.931 . S
H3545 C3543 0.930 . S
H3546 C3569 0.931 . S
H3547 C3535 0.929 . S
H3548 C3570 0.930 . S
H3549 C3541 0.931 . S
H3550 C3531 0.930 . S
H3551 C3560 0.929 . S
H3552 C3536 0.931 . S
H3553 C3537 0.930 . S
H3554 C3592 0.930 . S
H3555 C3533 0.929 . S
H3556 C3561 0.931 . S
H3557 C3562 0.930 . S
N3558 Gd3538 2.622 . S
N3558 C3559 1.369 . S
N3558 C3560 1.338 . S
C3559 N3558 1.369 . S
C3559 C3563 1.415 . S
C3559 C3566 1.422 . S
C3560 H3551 0.929 . S
C3560 N3558 1.338 . S
C3560 C3562 1.378 . S
C3561 H3556 0.931 . S
C3561 C3562 1.348 . S
C3561 C3563 1.413 . S
C3562 H3557 0.930 . S
C3562 C3560 1.378 . S
C3562 C3561 1.348 . S
C3563 C3559 1.415 . S
C3563 C3561 1.413 . S
C3563 C3593 1.437 . S
H3564 C3593 0.929 . S
N3565 Gd3538 2.570 . S
N3565 C3566 1.359 . S
N3565 C3569 1.343 . S
C3566 C3559 1.422 . S
C3566 N3565 1.359 . S
C3566 C3568 1.421 . S
C3567 C3568 1.422 . S
C3567 C3570 1.321 . S
C3567 H3594 0.931 . S
C3568 C3566 1.421 . S
C3568 C3567 1.422 . S
C3568 C3592 1.417 . S
C3569 H3546 0.931 . S
C3569 N3565 1.343 . S
C3569 C3570 1.390 . S
C3570 H3548 0.930 . S
C3570 C3567 1.321 . S
C3570 C3569 1.390 . S
O3571 Gd3539 2.386 . S
O3571 C3583 1.265 . S
O3572 Gd3538 2.353 . S
O3572 C3583 1.242 . S
O3573 Gd3538 2.468 . S
O3573 C3591 1.263 . S
O3574 Gd3538 2.427 . S
O3574 C3591 1.252 . S
O3575 Gd3539 2.307 . S
O3575 C3584 1.261 . S
O3576 Gd3538 2.388 . S
O3576 C3584 1.252 . S
O3577 Gd3538 2.386 . S
O3577 C3595 1.265 . S
O3578 Gd3539 2.353 . S
O3578 C3595 1.242 . S
O3579 Gd3539 2.468 . S
O3579 C3603 1.263 . S
O3580 Gd3539 2.427 . S
O3580 C3603 1.252 . S
O3581 Gd3538 2.307 . S
O3581 C3596 1.261 . S
O3582 Gd3539 2.388 . S
O3582 C3596 1.252 . S
C3583 O3571 1.265 . S
C3583 O3572 1.242 . S
C3584 O3575 1.261 . S
C3584 O3576 1.252 . S
C3585 C3588 1.394 . S
C3585 C3590 1.370 . S
C3585 C3591 1.500 . S
C3586 C3589 1.383 . S
C3586 C3590 1.395 . S
C3587 C3588 1.396 . S
C3587 C3589 1.365 . S
C3587 H3604 0.929 . S
C3588 C3585 1.394 . S
C3588 C3587 1.396 . S
C3588 H3605 0.930 . S
C3589 C3586 1.383 . S
C3589 C3587 1.365 . S
C3589 H3606 0.931 . S
C3590 C3585 1.370 . S
C3590 C3586 1.395 . S
C3590 H3607 0.930 . S
C3591 Gd3538 2.805 . S
C3591 O3573 1.263 . S
C3591 O3574 1.252 . S
C3591 C3585 1.500 . S
C3592 H3554 0.930 . S
C3592 C3568 1.417 . S
C3592 C3593 1.329 . S
C3593 C3563 1.437 . S
C3593 H3564 0.929 . S
C3593 C3592 1.329 . S
H3594 C3567 0.931 . S
C3595 O3577 1.265 . S
C3595 O3578 1.242 . S
C3596 O3581 1.261 . S
C3596 O3582 1.252 . S
C3597 C3600 1.394 . S
C3597 C3602 1.370 . S
C3597 C3603 1.500 . S
C3598 C3601 1.383 . S
C3598 C3602 1.395 . S
C3599 C3600 1.396 . S
C3599 C3601 1.365 . S
C3599 H3608 0.929 . S
C3600 C3597 1.394 . S
C3600 C3599 1.396 . S
C3600 H3609 0.930 . S
C3601 C3598 1.383 . S
C3601 C3599 1.365 . S
C3601 H3610 0.931 . S
C3602 C3597 1.370 . S
C3602 C3598 1.395 . S
C3602 H3611 0.930 . S
C3603 Gd3539 2.805 . S
C3603 O3579 1.263 . S
C3603 O3580 1.252 . S
C3603 C3597 1.500 . S
H3604 C3587 0.929 . S
H3605 C3588 0.930 . S
H3606 C3589 0.931 . S
H3607 C3590 0.930 . S
H3608 C3599 0.929 . S
H3609 C3600 0.930 . S
H3610 C3601 0.931 . S
H3611 C3602 0.930 . S
C3612 C3614 1.422 . S
C3612 C3616 1.415 . S
C3612 N3618 1.369 . S
C3613 C3614 1.421 . S
C3613 C3615 1.417 . S
C3613 C3625 1.422 . S
C3614 C3612 1.422 . S
C3614 C3613 1.421 . S
C3614 N3624 1.359 . S
C3615 C3613 1.417 . S
C3615 C3617 1.329 . S
C3615 H3634 0.930 . S
C3616 C3612 1.415 . S
C3616 C3617 1.437 . S
C3616 C3620 1.396 1_565 S
C3617 C3615 1.329 . S
C3617 C3616 1.437 . S
C3617 H3639 0.929 . S
N3618 C3612 1.369 . S
N3618 C3619 1.338 . S
N3618 Gd3623 2.622 . S
C3619 N3618 1.338 . S
C3619 C3621 1.378 1_565 S
C3619 H3631 0.929 . S
C3620 C3616 1.396 1_545 S
C3620 C3621 1.350 . S
C3620 H3636 0.945 . S
C3621 C3619 1.378 1_545 S
C3621 C3620 1.350 . S
C3621 H3637 0.930 . S
Gd3622 N3642 2.622 . S
Gd3622 N3649 2.570 . S
Gd3622 O3656 2.353 . S
Gd3622 O3657 2.468 . S
Gd3622 O3658 2.427 . S
Gd3622 O3660 2.388 . S
Gd3622 O3661 2.386 . S
Gd3622 O3665 2.307 . S
Gd3622 C3675 2.805 . S
Gd3623 N3618 2.622 . S
Gd3623 N3624 2.570 . S
Gd3623 O3655 2.386 . S
Gd3623 O3659 2.307 . S
Gd3623 O3662 2.353 . S
Gd3623 O3663 2.468 . S
Gd3623 O3664 2.427 . S
Gd3623 O3666 2.388 . S
Gd3623 C3687 2.805 . S
N3624 C3614 1.359 . S
N3624 Gd3623 2.570 . S
N3624 C3626 1.343 . S
C3625 C3613 1.422 . S
C3625 C3627 1.321 . S
C3625 H3633 0.931 . S
C3626 N3624 1.343 . S
C3626 C3627 1.390 . S
C3626 H3628 0.931 . S
C3627 C3625 1.321 . S
C3627 C3626 1.390 . S
C3627 H3629 0.930 . S
H3628 C3626 0.931 . S
H3629 C3627 0.930 . S
H3630 C3653 0.931 . S
H3631 C3619 0.929 . S
H3632 C3654 0.930 . S
H3633 C3625 0.931 . S
H3634 C3615 0.930 . S
H3635 C3644 0.929 . S
H3636 C3620 0.945 . S
H3637 C3621 0.930 . S
H3638 C3676 0.930 . S
H3639 C3617 0.929 . S
H3640 C3645 0.931 . S
H3641 C3646 0.930 . S
N3642 Gd3622 2.622 . S
N3642 C3643 1.369 . S
N3642 C3644 1.338 . S
C3643 N3642 1.369 . S
C3643 C3647 1.415 . S
C3643 C3650 1.422 . S
C3644 H3635 0.929 . S
C3644 N3642 1.338 . S
C3644 C3646 1.378 . S
C3645 H3640 0.931 . S
C3645 C3646 1.348 . S
C3645 C3647 1.413 . S
C3646 H3641 0.930 . S
C3646 C3644 1.378 . S
C3646 C3645 1.348 . S
C3647 C3643 1.415 . S
C3647 C3645 1.413 . S
C3647 C3677 1.437 . S
H3648 C3677 0.929 . S
N3649 Gd3622 2.570 . S
N3649 C3650 1.359 . S
N3649 C3653 1.343 . S
C3650 C3643 1.422 . S
C3650 N3649 1.359 . S
C3650 C3652 1.421 . S
C3651 C3652 1.422 . S
C3651 C3654 1.321 . S
C3651 H3678 0.931 . S
C3652 C3650 1.421 . S
C3652 C3651 1.422 . S
C3652 C3676 1.417 . S
C3653 H3630 0.931 . S
C3653 N3649 1.343 . S
C3653 C3654 1.390 . S
C3654 H3632 0.930 . S
C3654 C3651 1.321 . S
C3654 C3653 1.390 . S
O3655 Gd3623 2.386 . S
O3655 C3667 1.265 . S
O3656 Gd3622 2.353 . S
O3656 C3667 1.242 . S
O3657 Gd3622 2.468 . S
O3657 C3675 1.263 . S
O3658 Gd3622 2.427 . S
O3658 C3675 1.252 . S
O3659 Gd3623 2.307 . S
O3659 C3668 1.261 . S
O3660 Gd3622 2.388 . S
O3660 C3668 1.252 . S
O3661 Gd3622 2.386 . S
O3661 C3679 1.265 . S
O3662 Gd3623 2.353 . S
O3662 C3679 1.242 . S
O3663 Gd3623 2.468 . S
O3663 C3687 1.263 . S
O3664 Gd3623 2.427 . S
O3664 C3687 1.252 . S
O3665 Gd3622 2.307 . S
O3665 C3680 1.261 . S
O3666 Gd3623 2.388 . S
O3666 C3680 1.252 . S
C3667 O3655 1.265 . S
C3667 O3656 1.242 . S
C3668 O3659 1.261 . S
C3668 O3660 1.252 . S
C3669 C3672 1.394 . S
C3669 C3674 1.370 . S
C3669 C3675 1.500 . S
C3670 C3673 1.369 1_545 S
C3670 C3674 1.381 1_545 S
C3671 C3672 1.396 . S
C3671 C3673 1.365 . S
C3671 H3688 0.929 . S
C3672 C3669 1.394 . S
C3672 C3671 1.396 . S
C3672 H3689 0.930 . S
C3673 C3670 1.369 1_565 S
C3673 C3671 1.365 . S
C3673 H3690 0.931 . S
C3674 C3669 1.370 . S
C3674 C3670 1.381 1_565 S
C3674 H3691 0.954 . S
C3675 Gd3622 2.805 . S
C3675 O3657 1.263 . S
C3675 O3658 1.252 . S
C3675 C3669 1.500 . S
C3676 H3638 0.930 . S
C3676 C3652 1.417 . S
C3676 C3677 1.329 . S
C3677 C3647 1.437 . S
C3677 H3648 0.929 . S
C3677 C3676 1.329 . S
H3678 C3651 0.931 . S
C3679 O3661 1.265 . S
C3679 O3662 1.242 . S
C3680 O3665 1.261 . S
C3680 O3666 1.252 . S
C3681 C3684 1.394 . S
C3681 C3686 1.370 . S
C3681 C3687 1.500 . S
C3682 C3685 1.383 . S
C3682 C3686 1.395 . S
C3683 C3684 1.396 . S
C3683 C3685 1.365 . S
C3683 H3692 0.929 . S
C3684 C3681 1.394 . S
C3684 C3683 1.396 . S
C3684 H3693 0.930 . S
C3685 C3682 1.383 . S
C3685 C3683 1.365 . S
C3685 H3694 0.931 . S
C3686 C3681 1.370 . S
C3686 C3682 1.395 . S
C3686 H3695 0.930 . S
C3687 Gd3623 2.805 . S
C3687 O3663 1.263 . S
C3687 O3664 1.252 . S
C3687 C3681 1.500 . S
H3688 C3671 0.929 . S
H3689 C3672 0.930 . S
H3690 C3673 0.931 . S
H3691 C3674 0.954 . S
H3692 C3683 0.929 . S
H3693 C3684 0.930 . S
H3694 C3685 0.931 . S
H3695 C3686 0.930 . S
C3696 C3698 1.422 . S
C3696 C3700 1.415 . S
C3696 N3702 1.369 . S
C3697 C3698 1.421 . S
C3697 C3699 1.417 . S
C3697 C3709 1.422 . S
C3698 C3696 1.422 . S
C3698 C3697 1.421 . S
C3698 N3708 1.359 . S
C3699 C3697 1.417 . S
C3699 C3701 1.329 . S
C3699 H3718 0.930 . S
C3700 C3696 1.415 . S
C3700 C3701 1.437 . S
C3700 C3704 1.413 . S
C3701 C3699 1.329 . S
C3701 C3700 1.437 . S
C3701 H3723 0.929 . S
N3702 C3696 1.369 . S
N3702 C3703 1.338 . S
N3702 Gd3707 2.622 . S
C3703 N3702 1.338 . S
C3703 C3705 1.378 . S
C3703 H3715 0.929 . S
C3704 C3700 1.413 . S
C3704 C3705 1.348 . S
C3704 H3720 0.931 . S
C3705 C3703 1.378 . S
C3705 C3704 1.348 . S
C3705 H3721 0.930 . S
Gd3706 N3726 2.622 . S
Gd3706 N3733 2.570 . S
Gd3706 O3740 2.353 . S
Gd3706 O3741 2.468 . S
Gd3706 O3742 2.427 . S
Gd3706 O3744 2.388 . S
Gd3706 O3745 2.386 . S
Gd3706 O3749 2.307 . S
Gd3706 C3759 2.805 . S
Gd3707 N3702 2.622 . S
Gd3707 N3708 2.570 . S
Gd3707 O3739 2.386 . S
Gd3707 O3743 2.307 . S
Gd3707 O3746 2.353 . S
Gd3707 O3747 2.468 . S
Gd3707 O3748 2.427 . S
Gd3707 O3750 2.388 . S
Gd3707 C3771 2.805 . S
N3708 C3698 1.359 . S
N3708 Gd3707 2.570 . S
N3708 C3710 1.343 . S
C3709 C3697 1.422 . S
C3709 C3711 1.321 . S
C3709 H3717 0.931 . S
C3710 N3708 1.343 . S
C3710 C3711 1.390 . S
C3710 H3712 0.931 . S
C3711 C3709 1.321 . S
C3711 C3710 1.390 . S
C3711 H3713 0.930 . S
H3712 C3710 0.931 . S
H3713 C3711 0.930 . S
H3714 C3737 0.931 . S
H3715 C3703 0.929 . S
H3716 C3738 0.930 . S
H3717 C3709 0.931 . S
H3718 C3699 0.930 . S
H3719 C3728 0.929 . S
H3720 C3704 0.931 . S
H3721 C3705 0.930 . S
H3722 C3760 0.930 . S
H3723 C3701 0.929 . S
H3724 C3729 0.931 . S
H3725 C3730 0.930 . S
N3726 Gd3706 2.622 . S
N3726 C3727 1.369 . S
N3726 C3728 1.338 . S
C3727 N3726 1.369 . S
C3727 C3731 1.415 . S
C3727 C3734 1.422 . S
C3728 H3719 0.929 . S
C3728 N3726 1.338 . S
C3728 C3730 1.378 . S
C3729 H3724 0.931 . S
C3729 C3730 1.348 . S
C3729 C3731 1.413 . S
C3730 H3725 0.930 . S
C3730 C3728 1.378 . S
C3730 C3729 1.348 . S
C3731 C3727 1.415 . S
C3731 C3729 1.413 . S
C3731 C3761 1.437 . S
H3732 C3761 0.929 . S
N3733 Gd3706 2.570 . S
N3733 C3734 1.359 . S
N3733 C3737 1.343 . S
C3734 C3727 1.422 . S
C3734 N3733 1.359 . S
C3734 C3736 1.421 . S
C3735 C3736 1.422 . S
C3735 C3738 1.321 . S
C3735 H3762 0.931 . S
C3736 C3734 1.421 . S
C3736 C3735 1.422 . S
C3736 C3760 1.417 . S
C3737 H3714 0.931 . S
C3737 N3733 1.343 . S
C3737 C3738 1.390 . S
C3738 H3716 0.930 . S
C3738 C3735 1.321 . S
C3738 C3737 1.390 . S
O3739 Gd3707 2.386 . S
O3739 C3751 1.265 . S
O3740 Gd3706 2.353 . S
O3740 C3751 1.242 . S
O3741 Gd3706 2.468 . S
O3741 C3759 1.263 . S
O3742 Gd3706 2.427 . S
O3742 C3759 1.252 . S
O3743 Gd3707 2.307 . S
O3743 C3752 1.261 . S
O3744 Gd3706 2.388 . S
O3744 C3752 1.252 . S
O3745 Gd3706 2.386 . S
O3745 C3763 1.265 . S
O3746 Gd3707 2.353 . S
O3746 C3763 1.242 . S
O3747 Gd3707 2.468 . S
O3747 C3771 1.263 . S
O3748 Gd3707 2.427 . S
O3748 C3771 1.252 . S
O3749 Gd3706 2.307 . S
O3749 C3764 1.261 . S
O3750 Gd3707 2.388 . S
O3750 C3764 1.252 . S
C3751 O3739 1.265 . S
C3751 O3740 1.242 . S
C3752 O3743 1.261 . S
C3752 O3744 1.252 . S
C3753 C3756 1.394 . S
C3753 C3758 1.370 . S
C3753 C3759 1.500 . S
C3754 C3757 1.383 . S
C3754 C3758 1.395 . S
C3755 C3756 1.396 . S
C3755 C3757 1.365 . S
C3755 H3772 0.929 . S
C3756 C3753 1.394 . S
C3756 C3755 1.396 . S
C3756 H3773 0.930 . S
C3757 C3754 1.383 . S
C3757 C3755 1.365 . S
C3757 H3774 0.931 . S
C3758 C3753 1.370 . S
C3758 C3754 1.395 . S
C3758 H3775 0.930 . S
C3759 Gd3706 2.805 . S
C3759 O3741 1.263 . S
C3759 O3742 1.252 . S
C3759 C3753 1.500 . S
C3760 H3722 0.930 . S
C3760 C3736 1.417 . S
C3760 C3761 1.329 . S
C3761 C3731 1.437 . S
C3761 H3732 0.929 . S
C3761 C3760 1.329 . S
H3762 C3735 0.931 . S
C3763 O3745 1.265 . S
C3763 O3746 1.242 . S
C3764 O3749 1.261 . S
C3764 O3750 1.252 . S
C3765 C3768 1.394 . S
C3765 C3770 1.370 . S
C3765 C3771 1.500 . S
C3766 C3769 1.383 . S
C3766 C3770 1.395 . S
C3767 C3768 1.396 . S
C3767 C3769 1.365 . S
C3767 H3776 0.929 . S
C3768 C3765 1.394 . S
C3768 C3767 1.396 . S
C3768 H3777 0.930 . S
C3769 C3766 1.383 . S
C3769 C3767 1.365 . S
C3769 H3778 0.931 . S
C3770 C3765 1.370 . S
C3770 C3766 1.395 . S
C3770 H3779 0.930 . S
C3771 Gd3707 2.805 . S
C3771 O3747 1.263 . S
C3771 O3748 1.252 . S
C3771 C3765 1.500 . S
H3772 C3755 0.929 . S
H3773 C3756 0.930 . S
H3774 C3757 0.931 . S
H3775 C3758 0.930 . S
H3776 C3767 0.929 . S
H3777 C3768 0.930 . S
H3778 C3769 0.931 . S
H3779 C3770 0.930 . S
C3780 C3782 1.422 . S
C3780 C3784 1.415 . S
C3780 N3786 1.369 . S
C3781 C3782 1.421 . S
C3781 C3783 1.417 . S
C3781 C3793 1.422 . S
C3782 C3780 1.422 . S
C3782 C3781 1.421 . S
C3782 N3792 1.359 . S
C3783 C3781 1.417 . S
C3783 C3785 1.329 . S
C3783 H3802 0.930 . S
C3784 C3780 1.415 . S
C3784 C3785 1.437 . S
C3784 C3788 1.413 . S
C3785 C3783 1.329 . S
C3785 C3784 1.437 . S
C3785 H3807 0.929 . S
N3786 C3780 1.369 . S
N3786 C3787 1.338 . S
N3786 Gd3791 2.622 . S
C3787 N3786 1.338 . S
C3787 C3789 1.378 . S
C3787 H3799 0.929 . S
C3788 C3784 1.413 . S
C3788 C3789 1.348 . S
C3788 H3804 0.931 . S
C3789 C3787 1.378 . S
C3789 C3788 1.348 . S
C3789 H3805 0.930 . S
Gd3790 N3810 2.622 . S
Gd3790 N3817 2.570 . S
Gd3790 O3824 2.353 . S
Gd3790 O3825 2.468 . S
Gd3790 O3826 2.427 . S
Gd3790 O3828 2.388 . S
Gd3790 O3829 2.386 . S
Gd3790 O3833 2.307 . S
Gd3790 C3843 2.805 . S
Gd3791 N3786 2.622 . S
Gd3791 N3792 2.570 . S
Gd3791 O3823 2.386 . S
Gd3791 O3827 2.307 . S
Gd3791 O3830 2.353 . S
Gd3791 O3831 2.468 . S
Gd3791 O3832 2.427 . S
Gd3791 O3834 2.388 . S
Gd3791 C3855 2.805 . S
N3792 C3782 1.359 . S
N3792 Gd3791 2.570 . S
N3792 C3794 1.343 . S
C3793 C3781 1.422 . S
C3793 C3795 1.321 . S
C3793 H3801 0.931 . S
C3794 N3792 1.343 . S
C3794 C3795 1.390 . S
C3794 H3796 0.931 . S
C3795 C3793 1.321 . S
C3795 C3794 1.390 . S
C3795 H3797 0.930 . S
H3796 C3794 0.931 . S
H3797 C3795 0.930 . S
H3798 C3821 0.931 . S
H3799 C3787 0.929 . S
H3800 C3822 0.930 . S
H3801 C3793 0.931 . S
H3802 C3783 0.930 . S
H3803 C3812 0.929 . S
H3804 C3788 0.931 . S
H3805 C3789 0.930 . S
H3806 C3844 0.930 . S
H3807 C3785 0.929 . S
H3808 C3813 0.931 . S
H3809 C3814 0.930 . S
N3810 Gd3790 2.622 . S
N3810 C3811 1.369 . S
N3810 C3812 1.338 . S
C3811 N3810 1.369 . S
C3811 C3815 1.415 . S
C3811 C3818 1.422 . S
C3812 H3803 0.929 . S
C3812 N3810 1.338 . S
C3812 C3814 1.378 . S
C3813 H3808 0.931 . S
C3813 C3814 1.348 . S
C3813 C3815 1.413 . S
C3814 H3809 0.930 . S
C3814 C3812 1.378 . S
C3814 C3813 1.348 . S
C3815 C3811 1.415 . S
C3815 C3813 1.413 . S
C3815 C3845 1.437 . S
H3816 C3845 0.929 . S
N3817 Gd3790 2.570 . S
N3817 C3818 1.359 . S
N3817 C3821 1.343 . S
C3818 C3811 1.422 . S
C3818 N3817 1.359 . S
C3818 C3820 1.421 . S
C3819 C3820 1.422 . S
C3819 C3822 1.321 . S
C3819 H3846 0.931 . S
C3820 C3818 1.421 . S
C3820 C3819 1.422 . S
C3820 C3844 1.417 . S
C3821 H3798 0.931 . S
C3821 N3817 1.343 . S
C3821 C3822 1.390 . S
C3822 H3800 0.930 . S
C3822 C3819 1.321 . S
C3822 C3821 1.390 . S
O3823 Gd3791 2.386 . S
O3823 C3835 1.265 . S
O3824 Gd3790 2.353 . S
O3824 C3835 1.242 . S
O3825 Gd3790 2.468 . S
O3825 C3843 1.263 . S
O3826 Gd3790 2.427 . S
O3826 C3843 1.252 . S
O3827 Gd3791 2.307 . S
O3827 C3836 1.261 . S
O3828 Gd3790 2.388 . S
O3828 C3836 1.252 . S
O3829 Gd3790 2.386 . S
O3829 C3847 1.265 . S
O3830 Gd3791 2.353 . S
O3830 C3847 1.242 . S
O3831 Gd3791 2.468 . S
O3831 C3855 1.263 . S
O3832 Gd3791 2.427 . S
O3832 C3855 1.252 . S
O3833 Gd3790 2.307 . S
O3833 C3848 1.261 . S
O3834 Gd3791 2.388 . S
O3834 C3848 1.252 . S
C3835 O3823 1.265 . S
C3835 O3824 1.242 . S
C3836 O3827 1.261 . S
C3836 O3828 1.252 . S
C3837 C3840 1.394 . S
C3837 C3842 1.370 . S
C3837 C3843 1.500 . S
C3838 C3841 1.383 . S
C3838 C3842 1.395 . S
C3839 C3840 1.396 . S
C3839 C3841 1.365 . S
C3839 H3856 0.929 . S
C3840 C3837 1.394 . S
C3840 C3839 1.396 . S
C3840 H3857 0.930 . S
C3841 C3838 1.383 . S
C3841 C3839 1.365 . S
C3841 H3858 0.931 . S
C3842 C3837 1.370 . S
C3842 C3838 1.395 . S
C3842 H3859 0.930 . S
C3843 Gd3790 2.805 . S
C3843 O3825 1.263 . S
C3843 O3826 1.252 . S
C3843 C3837 1.500 . S
C3844 H3806 0.930 . S
C3844 C3820 1.417 . S
C3844 C3845 1.329 . S
C3845 C3815 1.437 . S
C3845 H3816 0.929 . S
C3845 C3844 1.329 . S
H3846 C3819 0.931 . S
C3847 O3829 1.265 . S
C3847 O3830 1.242 . S
C3848 O3833 1.261 . S
C3848 O3834 1.252 . S
C3849 C3852 1.394 . S
C3849 C3854 1.370 . S
C3849 C3855 1.500 . S
C3850 C3853 1.383 . S
C3850 C3854 1.395 . S
C3851 C3852 1.396 . S
C3851 C3853 1.365 . S
C3851 H3860 0.929 . S
C3852 C3849 1.394 . S
C3852 C3851 1.396 . S
C3852 H3861 0.930 . S
C3853 C3850 1.383 . S
C3853 C3851 1.365 . S
C3853 H3862 0.931 . S
C3854 C3849 1.370 . S
C3854 C3850 1.395 . S
C3854 H3863 0.930 . S
C3855 Gd3791 2.805 . S
C3855 O3831 1.263 . S
C3855 O3832 1.252 . S
C3855 C3849 1.500 . S
H3856 C3839 0.929 . S
H3857 C3840 0.930 . S
H3858 C3841 0.931 . S
H3859 C3842 0.930 . S
H3860 C3851 0.929 . S
H3861 C3852 0.930 . S
H3862 C3853 0.931 . S
H3863 C3854 0.930 . S
C3864 C3866 1.422 . S
C3864 C3868 1.415 . S
C3864 N3870 1.369 . S
C3865 C3866 1.421 . S
C3865 C3867 1.417 . S
C3865 C3877 1.422 . S
C3866 C3864 1.422 . S
C3866 C3865 1.421 . S
C3866 N3876 1.359 . S
C3867 C3865 1.417 . S
C3867 C3869 1.329 . S
C3867 H3886 0.930 . S
C3868 C3864 1.415 . S
C3868 C3869 1.437 . S
C3868 C3872 1.413 . S
C3869 C3867 1.329 . S
C3869 C3868 1.437 . S
C3869 H3891 0.929 . S
N3870 C3864 1.369 . S
N3870 C3871 1.338 . S
N3870 Gd3875 2.622 . S
C3871 N3870 1.338 . S
C3871 C3873 1.378 . S
C3871 H3883 0.929 . S
C3872 C3868 1.413 . S
C3872 C3873 1.348 . S
C3872 H3888 0.931 . S
C3873 C3871 1.378 . S
C3873 C3872 1.348 . S
C3873 H3889 0.930 . S
Gd3874 N3894 2.622 . S
Gd3874 N3901 2.570 . S
Gd3874 O3908 2.353 . S
Gd3874 O3909 2.468 . S
Gd3874 O3910 2.427 . S
Gd3874 O3912 2.388 . S
Gd3874 O3913 2.386 . S
Gd3874 O3917 2.307 . S
Gd3874 C3927 2.805 . S
Gd3875 N3870 2.622 . S
Gd3875 N3876 2.570 . S
Gd3875 O3907 2.386 . S
Gd3875 O3911 2.307 . S
Gd3875 O3914 2.353 . S
Gd3875 O3915 2.468 . S
Gd3875 O3916 2.427 . S
Gd3875 O3918 2.388 . S
Gd3875 C3939 2.805 . S
N3876 C3866 1.359 . S
N3876 Gd3875 2.570 . S
N3876 C3878 1.343 . S
C3877 C3865 1.422 . S
C3877 C3879 1.321 . S
C3877 H3885 0.931 . S
C3878 N3876 1.343 . S
C3878 C3879 1.390 . S
C3878 H3880 0.931 . S
C3879 C3877 1.321 . S
C3879 C3878 1.390 . S
C3879 H3881 0.930 . S
H3880 C3878 0.931 . S
H3881 C3879 0.930 . S
H3882 C3905 0.931 . S
H3883 C3871 0.929 . S
H3884 C3906 0.930 . S
H3885 C3877 0.931 . S
H3886 C3867 0.930 . S
H3887 C3896 0.929 . S
H3888 C3872 0.931 . S
H3889 C3873 0.930 . S
H3890 C3928 0.930 . S
H3891 C3869 0.929 . S
H3892 C3897 0.931 . S
H3893 C3898 0.930 . S
N3894 Gd3874 2.622 . S
N3894 C3895 1.369 . S
N3894 C3896 1.338 . S
C3895 N3894 1.369 . S
C3895 C3899 1.415 . S
C3895 C3902 1.422 . S
C3896 H3887 0.929 . S
C3896 N3894 1.338 . S
C3896 C3898 1.378 . S
C3897 H3892 0.931 . S
C3897 C3898 1.348 . S
C3897 C3899 1.413 . S
C3898 H3893 0.930 . S
C3898 C3896 1.378 . S
C3898 C3897 1.348 . S
C3899 C3895 1.415 . S
C3899 C3897 1.413 . S
C3899 C3929 1.437 . S
H3900 C3929 0.929 . S
N3901 Gd3874 2.570 . S
N3901 C3902 1.359 . S
N3901 C3905 1.343 . S
C3902 C3895 1.422 . S
C3902 N3901 1.359 . S
C3902 C3904 1.421 . S
C3903 C3904 1.422 . S
C3903 C3906 1.321 . S
C3903 H3930 0.931 . S
C3904 C3902 1.421 . S
C3904 C3903 1.422 . S
C3904 C3928 1.417 . S
C3905 H3882 0.931 . S
C3905 N3901 1.343 . S
C3905 C3906 1.390 . S
C3906 H3884 0.930 . S
C3906 C3903 1.321 . S
C3906 C3905 1.390 . S
O3907 Gd3875 2.386 . S
O3907 C3919 1.265 . S
O3908 Gd3874 2.353 . S
O3908 C3919 1.242 . S
O3909 Gd3874 2.468 . S
O3909 C3927 1.263 . S
O3910 Gd3874 2.427 . S
O3910 C3927 1.252 . S
O3911 Gd3875 2.307 . S
O3911 C3920 1.261 . S
O3912 Gd3874 2.388 . S
O3912 C3920 1.252 . S
O3913 Gd3874 2.386 . S
O3913 C3931 1.265 . S
O3914 Gd3875 2.353 . S
O3914 C3931 1.242 . S
O3915 Gd3875 2.468 . S
O3915 C3939 1.263 . S
O3916 Gd3875 2.427 . S
O3916 C3939 1.252 . S
O3917 Gd3874 2.307 . S
O3917 C3932 1.261 . S
O3918 Gd3875 2.388 . S
O3918 C3932 1.252 . S
C3919 O3907 1.265 . S
C3919 O3908 1.242 . S
C3920 O3911 1.261 . S
C3920 O3912 1.252 . S
C3921 C3924 1.394 . S
C3921 C3926 1.370 . S
C3921 C3927 1.500 . S
C3922 C3925 1.383 . S
C3922 C3926 1.395 . S
C3923 C3924 1.396 . S
C3923 C3925 1.365 . S
C3923 H3940 0.929 . S
C3924 C3921 1.394 . S
C3924 C3923 1.396 . S
C3924 H3941 0.930 . S
C3925 C3922 1.383 . S
C3925 C3923 1.365 . S
C3925 H3942 0.931 . S
C3926 C3921 1.370 . S
C3926 C3922 1.395 . S
C3926 H3943 0.930 . S
C3927 Gd3874 2.805 . S
C3927 O3909 1.263 . S
C3927 O3910 1.252 . S
C3927 C3921 1.500 . S
C3928 H3890 0.930 . S
C3928 C3904 1.417 . S
C3928 C3929 1.329 . S
C3929 C3899 1.437 . S
C3929 H3900 0.929 . S
C3929 C3928 1.329 . S
H3930 C3903 0.931 . S
C3931 O3913 1.265 . S
C3931 O3914 1.242 . S
C3932 O3917 1.261 . S
C3932 O3918 1.252 . S
C3933 C3936 1.394 . S
C3933 C3938 1.370 . S
C3933 C3939 1.500 . S
C3934 C3937 1.383 . S
C3934 C3938 1.395 . S
C3935 C3936 1.396 . S
C3935 C3937 1.365 . S
C3935 H3944 0.929 . S
C3936 C3933 1.394 . S
C3936 C3935 1.396 . S
C3936 H3945 0.930 . S
C3937 C3934 1.383 . S
C3937 C3935 1.365 . S
C3937 H3946 0.931 . S
C3938 C3933 1.370 . S
C3938 C3934 1.395 . S
C3938 H3947 0.930 . S
C3939 Gd3875 2.805 . S
C3939 O3915 1.263 . S
C3939 O3916 1.252 . S
C3939 C3933 1.500 . S
H3940 C3923 0.929 . S
H3941 C3924 0.930 . S
H3942 C3925 0.931 . S
H3943 C3926 0.930 . S
H3944 C3935 0.929 . S
H3945 C3936 0.930 . S
H3946 C3937 0.931 . S
H3947 C3938 0.930 . S
C3948 C3950 1.422 . S
C3948 C3952 1.415 . S
C3948 N3954 1.369 . S
C3949 C3950 1.421 . S
C3949 C3951 1.417 . S
C3949 C3961 1.422 . S
C3950 C3948 1.422 . S
C3950 C3949 1.421 . S
C3950 N3960 1.359 . S
C3951 C3949 1.417 . S
C3951 C3953 1.329 . S
C3951 H3970 0.930 . S
C3952 C3948 1.415 . S
C3952 C3953 1.437 . S
C3952 C3956 1.413 . S
C3953 C3951 1.329 . S
C3953 C3952 1.437 . S
C3953 H3975 0.929 . S
N3954 C3948 1.369 . S
N3954 C3955 1.338 . S
N3954 Gd3959 2.622 . S
C3955 N3954 1.338 . S
C3955 C3957 1.378 . S
C3955 H3967 0.929 . S
C3956 C3952 1.413 . S
C3956 C3957 1.348 . S
C3956 H3972 0.931 . S
C3957 C3955 1.378 . S
C3957 C3956 1.348 . S
C3957 H3973 0.930 . S
Gd3958 N3978 2.622 . S
Gd3958 N3985 2.570 . S
Gd3958 O3992 2.353 . S
Gd3958 O3993 2.468 . S
Gd3958 O3994 2.427 . S
Gd3958 O3996 2.388 . S
Gd3958 O3997 2.386 . S
Gd3958 O4001 2.307 . S
Gd3958 C4011 2.805 . S
Gd3959 N3954 2.622 . S
Gd3959 N3960 2.570 . S
Gd3959 O3991 2.386 . S
Gd3959 O3995 2.307 . S
Gd3959 O3998 2.353 . S
Gd3959 O3999 2.468 . S
Gd3959 O4000 2.427 . S
Gd3959 O4002 2.388 . S
Gd3959 C4023 2.805 . S
N3960 C3950 1.359 . S
N3960 Gd3959 2.570 . S
N3960 C3962 1.343 . S
C3961 C3949 1.422 . S
C3961 C3963 1.321 . S
C3961 H3969 0.931 . S
C3962 N3960 1.343 . S
C3962 C3963 1.390 . S
C3962 H3964 0.931 . S
C3963 C3961 1.321 . S
C3963 C3962 1.390 . S
C3963 H3965 0.930 . S
H3964 C3962 0.931 . S
H3965 C3963 0.930 . S
H3966 C3989 0.931 . S
H3967 C3955 0.929 . S
H3968 C3990 0.930 . S
H3969 C3961 0.931 . S
H3970 C3951 0.930 . S
H3971 C3980 0.929 . S
H3972 C3956 0.931 . S
H3973 C3957 0.930 . S
H3974 C4012 0.930 . S
H3975 C3953 0.929 . S
H3976 C3981 0.931 . S
H3977 C3982 0.930 . S
N3978 Gd3958 2.622 . S
N3978 C3979 1.369 . S
N3978 C3980 1.338 . S
C3979 N3978 1.369 . S
C3979 C3983 1.415 . S
C3979 C3986 1.422 . S
C3980 H3971 0.929 . S
C3980 N3978 1.338 . S
C3980 C3982 1.378 . S
C3981 H3976 0.931 . S
C3981 C3982 1.348 . S
C3981 C3983 1.413 . S
C3982 H3977 0.930 . S
C3982 C3980 1.378 . S
C3982 C3981 1.348 . S
C3983 C3979 1.415 . S
C3983 C3981 1.413 . S
C3983 C4013 1.437 . S
H3984 C4013 0.929 . S
N3985 Gd3958 2.570 . S
N3985 C3986 1.359 . S
N3985 C3989 1.343 . S
C3986 C3979 1.422 . S
C3986 N3985 1.359 . S
C3986 C3988 1.421 . S
C3987 C3988 1.422 . S
C3987 C3990 1.321 . S
C3987 H4014 0.931 . S
C3988 C3986 1.421 . S
C3988 C3987 1.422 . S
C3988 C4012 1.417 . S
C3989 H3966 0.931 . S
C3989 N3985 1.343 . S
C3989 C3990 1.390 . S
C3990 H3968 0.930 . S
C3990 C3987 1.321 . S
C3990 C3989 1.390 . S
O3991 Gd3959 2.386 . S
O3991 C4003 1.265 . S
O3992 Gd3958 2.353 . S
O3992 C4003 1.242 . S
O3993 Gd3958 2.468 . S
O3993 C4011 1.263 . S
O3994 Gd3958 2.427 . S
O3994 C4011 1.252 . S
O3995 Gd3959 2.307 . S
O3995 C4004 1.261 . S
O3996 Gd3958 2.388 . S
O3996 C4004 1.252 . S
O3997 Gd3958 2.386 . S
O3997 C4015 1.265 . S
O3998 Gd3959 2.353 . S
O3998 C4015 1.242 . S
O3999 Gd3959 2.468 . S
O3999 C4023 1.263 . S
O4000 Gd3959 2.427 . S
O4000 C4023 1.252 . S
O4001 Gd3958 2.307 . S
O4001 C4016 1.261 . S
O4002 Gd3959 2.388 . S
O4002 C4016 1.252 . S
C4003 O3991 1.265 . S
C4003 O3992 1.242 . S
C4004 O3995 1.261 . S
C4004 O3996 1.252 . S
C4005 C4008 1.394 . S
C4005 C4010 1.370 . S
C4005 C4011 1.500 . S
C4006 C4009 1.383 . S
C4006 C4010 1.395 . S
C4007 C4008 1.396 . S
C4007 C4009 1.365 . S
C4007 H4024 0.929 . S
C4008 C4005 1.394 . S
C4008 C4007 1.396 . S
C4008 H4025 0.930 . S
C4009 C4006 1.383 . S
C4009 C4007 1.365 . S
C4009 H4026 0.931 . S
C4010 C4005 1.370 . S
C4010 C4006 1.395 . S
C4010 H4027 0.930 . S
C4011 Gd3958 2.805 . S
C4011 O3993 1.263 . S
C4011 O3994 1.252 . S
C4011 C4005 1.500 . S
C4012 H3974 0.930 . S
C4012 C3988 1.417 . S
C4012 C4013 1.329 . S
C4013 C3983 1.437 . S
C4013 H3984 0.929 . S
C4013 C4012 1.329 . S
H4014 C3987 0.931 . S
C4015 O3997 1.265 . S
C4015 O3998 1.242 . S
C4016 O4001 1.261 . S
C4016 O4002 1.252 . S
C4017 C4020 1.394 . S
C4017 C4022 1.370 . S
C4017 C4023 1.500 . S
C4018 C4021 1.383 . S
C4018 C4022 1.395 . S
C4019 C4020 1.396 . S
C4019 C4021 1.365 . S
C4019 H4028 0.929 . S
C4020 C4017 1.394 . S
C4020 C4019 1.396 . S
C4020 H4029 0.930 . S
C4021 C4018 1.383 . S
C4021 C4019 1.365 . S
C4021 H4030 0.931 . S
C4022 C4017 1.370 . S
C4022 C4018 1.395 . S
C4022 H4031 0.930 . S
C4023 Gd3959 2.805 . S
C4023 O3999 1.263 . S
C4023 O4000 1.252 . S
C4023 C4017 1.500 . S
H4024 C4007 0.929 . S
H4025 C4008 0.930 . S
H4026 C4009 0.931 . S
H4027 C4010 0.930 . S
H4028 C4019 0.929 . S
H4029 C4020 0.930 . S
H4030 C4021 0.931 . S
H4031 C4022 0.930 . S
H4032 C4040 0.950 . S
H4033 C4045 0.950 . S
H4034 C4042 0.950 . S
H4035 C4044 0.950 . S
H4036 C4046 0.950 . S
H4037 C4048 0.950 . S
H4038 C4050 0.950 . S
H4039 C4051 0.950 . S
C4040 H4032 0.950 . S
C4040 C4041 1.386 . S
C4040 C4042 1.391 . S
C4041 C4040 1.386 . S
C4041 C4045 1.393 . S
C4042 H4034 0.950 . S
C4042 C4040 1.391 . S
C4042 C4043 1.400 . S
C4043 C4042 1.400 . S
C4043 C4044 1.398 . S
C4043 C4049 1.491 . S
C4044 H4035 0.950 . S
C4044 C4043 1.398 . S
C4044 C4045 1.391 . S
C4045 H4033 0.950 . S
C4045 C4041 1.393 . S
C4045 C4044 1.391 . S
C4046 H4036 0.950 . S
C4046 C4047 1.386 . S
C4046 C4048 1.391 . S
C4047 C4046 1.386 . S
C4047 C4051 1.393 . S
C4048 H4037 0.950 . S
C4048 C4046 1.391 . S
C4048 C4049 1.400 . S
C4049 C4043 1.491 . S
C4049 C4048 1.400 . S
C4049 C4050 1.398 . S
C4050 H4038 0.950 . S
C4050 C4049 1.398 . S
C4050 C4051 1.391 . S
C4051 H4039 0.950 . S
C4051 C4047 1.393 . S
C4051 C4050 1.391 . S
H4052 C4060 0.950 . S
H4053 C4065 0.950 . S
H4054 C4062 0.950 . S
H4055 C4064 0.950 . S
H4056 C4066 0.950 . S
H4057 C4068 0.950 . S
H4058 C4070 0.950 . S
H4059 C4071 0.950 . S
C4060 H4052 0.950 . S
C4060 C4061 1.386 1_545 S
C4060 C4062 1.391 . S
C4061 C4060 1.386 1_565 S
C4061 C4065 1.393 . S
C4062 H4054 0.950 . S
C4062 C4060 1.391 . S
C4062 C4063 1.400 . S
C4063 C4062 1.400 . S
C4063 C4064 1.398 1_545 S
C4063 C4069 1.491 . S
C4064 H4055 0.950 . S
C4064 C4063 1.398 1_565 S
C4064 C4065 1.391 . S
C4065 H4053 0.950 . S
C4065 C4061 1.393 . S
C4065 C4064 1.391 . S
C4066 H4056 0.950 . S
C4066 C4067 1.386 1_565 S
C4066 C4068 1.391 . S
C4067 C4066 1.386 1_545 S
C4067 C4071 1.393 . S
C4068 H4057 0.950 . S
C4068 C4066 1.391 . S
C4068 C4069 1.400 1_565 S
C4069 C4063 1.491 . S
C4069 C4068 1.400 1_545 S
C4069 C4070 1.398 . S
C4070 H4058 0.950 . S
C4070 C4069 1.398 . S
C4070 C4071 1.391 . S
C4071 H4059 0.950 . S
C4071 C4067 1.393 . S
C4071 C4070 1.391 . S
H4072 C4080 0.950 . S
H4073 C4085 0.950 . S
H4074 C4082 0.950 . S
H4075 C4084 0.950 . S
H4076 C4086 0.950 . S
H4077 C4088 0.950 . S
H4078 C4090 0.950 . S
H4079 C4091 0.950 . S
C4080 H4072 0.950 . S
C4080 C4081 1.386 . S
C4080 C4082 1.391 . S
C4081 C4080 1.386 . S
C4081 C4085 1.393 . S
C4082 H4074 0.950 . S
C4082 C4080 1.391 . S
C4082 C4083 1.400 . S
C4083 C4082 1.400 . S
C4083 C4084 1.398 . S
C4083 C4089 1.491 . S
C4084 H4075 0.950 . S
C4084 C4083 1.398 . S
C4084 C4085 1.391 . S
C4085 H4073 0.950 . S
C4085 C4081 1.393 . S
C4085 C4084 1.391 . S
C4086 H4076 0.950 . S
C4086 C4087 1.386 . S
C4086 C4088 1.391 . S
C4087 C4086 1.386 . S
C4087 C4091 1.393 . S
C4088 H4077 0.950 . S
C4088 C4086 1.391 . S
C4088 C4089 1.400 . S
C4089 C4083 1.491 . S
C4089 C4088 1.400 . S
C4089 C4090 1.398 . S
C4090 H4078 0.950 . S
C4090 C4089 1.398 . S
C4090 C4091 1.391 . S
C4091 H4079 0.950 . S
C4091 C4087 1.393 . S
C4091 C4090 1.391 . S
H4092 C4100 0.950 . S
H4093 C4105 0.950 . S
H4094 C4102 0.950 . S
H4095 C4104 0.950 . S
H4096 C4106 0.950 . S
H4097 C4108 0.950 . S
H4098 C4110 0.950 . S
H4099 C4111 0.950 . S
C4100 H4092 0.950 . S
C4100 C4101 1.386 . S
C4100 C4102 1.391 . S
C4101 C4100 1.386 . S
C4101 C4105 1.393 . S
C4102 H4094 0.950 . S
C4102 C4100 1.391 . S
C4102 C4103 1.400 . S
C4103 C4102 1.400 . S
C4103 C4104 1.398 . S
C4103 C4109 1.491 . S
C4104 H4095 0.950 . S
C4104 C4103 1.398 . S
C4104 C4105 1.391 . S
C4105 H4093 0.950 . S
C4105 C4101 1.393 . S
C4105 C4104 1.391 . S
C4106 H4096 0.950 . S
C4106 C4107 1.386 . S
C4106 C4108 1.391 . S
C4107 C4106 1.386 . S
C4107 C4111 1.393 . S
C4108 H4097 0.950 . S
C4108 C4106 1.391 . S
C4108 C4109 1.400 . S
C4109 C4103 1.491 . S
C4109 C4108 1.400 . S
C4109 C4110 1.398 . S
C4110 H4098 0.950 . S
C4110 C4109 1.398 . S
C4110 C4111 1.391 . S
C4111 H4099 0.950 . S
C4111 C4107 1.393 . S
C4111 C4110 1.391 . S
H4112 C4120 0.950 . S
H4113 C4125 0.950 . S
H4114 C4122 0.950 . S
H4115 C4124 0.950 . S
H4116 C4126 0.950 . S
H4117 C4128 0.950 . S
H4118 C4130 0.950 . S
H4119 C4131 0.950 . S
C4120 H4112 0.950 . S
C4120 C4121 1.386 . S
C4120 C4122 1.391 . S
C4121 C4120 1.386 . S
C4121 C4125 1.393 . S
C4122 H4114 0.950 . S
C4122 C4120 1.391 . S
C4122 C4123 1.400 . S
C4123 C4122 1.400 . S
C4123 C4124 1.398 . S
C4123 C4129 1.491 . S
C4124 H4115 0.950 . S
C4124 C4123 1.398 . S
C4124 C4125 1.391 . S
C4125 H4113 0.950 . S
C4125 C4121 1.393 . S
C4125 C4124 1.391 . S
C4126 H4116 0.950 . S
C4126 C4127 1.386 . S
C4126 C4128 1.391 . S
C4127 C4126 1.386 . S
C4127 C4131 1.393 . S
C4128 H4117 0.950 . S
C4128 C4126 1.391 . S
C4128 C4129 1.400 . S
C4129 C4123 1.491 . S
C4129 C4128 1.400 . S
C4129 C4130 1.398 . S
C4130 H4118 0.950 . S
C4130 C4129 1.398 . S
C4130 C4131 1.391 . S
C4131 H4119 0.950 . S
C4131 C4127 1.393 . S
C4131 C4130 1.391 . S
H4132 C4140 0.950 . S
H4133 C4145 0.950 . S
H4134 C4142 0.950 . S
H4135 C4144 0.950 . S
H4136 C4146 0.950 . S
H4137 C4148 0.950 . S
H4138 C4150 0.950 . S
H4139 C4151 0.950 . S
C4140 H4132 0.950 . S
C4140 C4141 1.386 . S
C4140 C4142 1.391 . S
C4141 C4140 1.386 . S
C4141 C4145 1.393 . S
C4142 H4134 0.950 . S
C4142 C4140 1.391 . S
C4142 C4143 1.400 . S
C4143 C4142 1.400 . S
C4143 C4144 1.398 . S
C4143 C4149 1.491 . S
C4144 H4135 0.950 . S
C4144 C4143 1.398 . S
C4144 C4145 1.391 . S
C4145 H4133 0.950 . S
C4145 C4141 1.393 . S
C4145 C4144 1.391 . S
C4146 H4136 0.950 . S
C4146 C4147 1.386 . S
C4146 C4148 1.391 . S
C4147 C4146 1.386 . S
C4147 C4151 1.393 . S
C4148 H4137 0.950 . S
C4148 C4146 1.391 . S
C4148 C4149 1.400 . S
C4149 C4143 1.491 . S
C4149 C4148 1.400 . S
C4149 C4150 1.398 . S
C4150 H4138 0.950 . S
C4150 C4149 1.398 . S
C4150 C4151 1.391 . S
C4151 H4139 0.950 . S
C4151 C4147 1.393 . S
C4151 C4150 1.391 . S
H4152 C4160 0.950 . S
H4153 C4165 0.950 . S
H4154 C4162 0.950 . S
H4155 C4164 0.950 . S
H4156 C4166 0.950 . S
H4157 C4168 0.950 . S
H4158 C4170 0.950 . S
H4159 C4171 0.950 . S
C4160 H4152 0.950 . S
C4160 C4161 1.386 . S
C4160 C4162 1.391 . S
C4161 C4160 1.386 . S
C4161 C4165 1.393 . S
C4162 H4154 0.950 . S
C4162 C4160 1.391 . S
C4162 C4163 1.400 . S
C4163 C4162 1.400 . S
C4163 C4164 1.398 . S
C4163 C4169 1.491 . S
C4164 H4155 0.950 . S
C4164 C4163 1.398 . S
C4164 C4165 1.391 . S
C4165 H4153 0.950 . S
C4165 C4161 1.393 . S
C4165 C4164 1.391 . S
C4166 H4156 0.950 . S
C4166 C4167 1.386 . S
C4166 C4168 1.391 . S
C4167 C4166 1.386 . S
C4167 C4171 1.393 . S
C4168 H4157 0.950 . S
C4168 C4166 1.391 . S
C4168 C4169 1.400 . S
C4169 C4163 1.491 . S
C4169 C4168 1.400 . S
C4169 C4170 1.398 . S
C4170 H4158 0.950 . S
C4170 C4169 1.398 . S
C4170 C4171 1.391 . S
C4171 H4159 0.950 . S
C4171 C4167 1.393 . S
C4171 C4170 1.391 . S
H4172 C4180 0.950 . S
H4173 C4185 0.950 . S
H4174 C4182 0.950 . S
H4175 C4184 0.950 . S
H4176 C4186 0.950 . S
H4177 C4188 0.950 . S
H4178 C4190 0.950 . S
H4179 C4191 0.950 . S
C4180 H4172 0.950 . S
C4180 C4181 1.386 . S
C4180 C4182 1.391 . S
C4181 C4180 1.386 . S
C4181 C4185 1.393 . S
C4182 H4174 0.950 . S
C4182 C4180 1.391 . S
C4182 C4183 1.400 . S
C4183 C4182 1.400 . S
C4183 C4184 1.398 . S
C4183 C4189 1.491 . S
C4184 H4175 0.950 . S
C4184 C4183 1.398 . S
C4184 C4185 1.391 . S
C4185 H4173 0.950 . S
C4185 C4181 1.393 . S
C4185 C4184 1.391 . S
C4186 H4176 0.950 . S
C4186 C4187 1.386 . S
C4186 C4188 1.391 . S
C4187 C4186 1.386 . S
C4187 C4191 1.393 . S
C4188 H4177 0.950 . S
C4188 C4186 1.391 . S
C4188 C4189 1.400 . S
C4189 C4183 1.491 . S
C4189 C4188 1.400 . S
C4189 C4190 1.398 . S
C4190 H4178 0.950 . S
C4190 C4189 1.398 . S
C4190 C4191 1.391 . S
C4191 H4179 0.950 . S
C4191 C4187 1.393 . S
C4191 C4190 1.391 . S
H4192 C4200 0.950 . S
H4193 C4205 0.962 . S
H4194 C4202 0.950 . S
H4195 C4204 0.950 1_556 S
H4196 C4206 0.942 1_556 S
H4197 C4208 0.950 1_556 S
H4198 C4210 0.950 . S
H4199 C4211 0.950 . S
C4200 H4192 0.950 . S
C4200 C4201 1.386 . S
C4200 C4202 1.391 . S
C4201 C4200 1.386 . S
C4201 C4205 1.393 . S
C4202 H4194 0.950 . S
C4202 C4200 1.391 . S
C4202 C4203 1.400 . S
C4203 C4202 1.400 . S
C4203 C4204 1.398 . S
C4203 C4209 1.491 . S
C4204 H4195 0.950 1_554 S
C4204 C4203 1.398 . S
C4204 C4205 1.391 . S
C4205 H4193 0.962 . S
C4205 C4201 1.393 . S
C4205 C4204 1.391 . S
C4206 H4196 0.942 1_554 S
C4206 C4207 1.393 . S
C4206 C4208 1.392 . S
C4207 C4206 1.393 . S
C4207 C4211 1.393 . S
C4208 H4197 0.950 1_554 S
C4208 C4206 1.392 . S
C4208 C4209 1.400 . S
C4209 C4203 1.491 . S
C4209 C4208 1.400 . S
C4209 C4210 1.398 . S
C4210 H4198 0.950 . S
C4210 C4209 1.398 . S
C4210 C4211 1.391 . S
C4211 H4199 0.950 . S
C4211 C4207 1.393 . S
C4211 C4210 1.391 . S
H4212 C4220 0.950 . S
H4213 C4225 0.950 . S
H4214 C4222 0.950 . S
H4215 C4224 0.950 . S
H4216 C4226 0.950 . S
H4217 C4228 0.950 . S
H4218 C4230 0.950 . S
H4219 C4231 0.950 . S
C4220 H4212 0.950 . S
C4220 C4221 1.386 . S
C4220 C4222 1.391 . S
C4221 C4220 1.386 . S
C4221 C4225 1.393 . S
C4222 H4214 0.950 . S
C4222 C4220 1.391 . S
C4222 C4223 1.400 . S
C4223 C4222 1.400 . S
C4223 C4224 1.398 . S
C4223 C4229 1.491 . S
C4224 H4215 0.950 . S
C4224 C4223 1.398 . S
C4224 C4225 1.391 . S
C4225 H4213 0.950 . S
C4225 C4221 1.393 . S
C4225 C4224 1.391 . S
C4226 H4216 0.950 . S
C4226 C4227 1.386 . S
C4226 C4228 1.391 . S
C4227 C4226 1.386 . S
C4227 C4231 1.393 . S
C4228 H4217 0.950 . S
C4228 C4226 1.391 . S
C4228 C4229 1.400 . S
C4229 C4223 1.491 . S
C4229 C4228 1.400 . S
C4229 C4230 1.398 . S
C4230 H4218 0.950 . S
C4230 C4229 1.398 . S
C4230 C4231 1.391 . S
C4231 H4219 0.950 . S
C4231 C4227 1.393 . S
C4231 C4230 1.391 . S
H4232 C4240 0.950 . S
H4233 C4245 0.950 . S
H4234 C4242 0.950 . S
H4235 C4244 0.950 . S
H4236 C4246 0.950 . S
H4237 C4248 0.950 . S
H4238 C4250 0.950 . S
H4239 C4251 0.950 . S
C4240 H4232 0.950 . S
C4240 C4241 1.386 . S
C4240 C4242 1.391 . S
C4241 C4240 1.386 . S
C4241 C4245 1.393 . S
C4242 H4234 0.950 . S
C4242 C4240 1.391 . S
C4242 C4243 1.400 . S
C4243 C4242 1.400 . S
C4243 C4244 1.398 . S
C4243 C4249 1.491 . S
C4244 H4235 0.950 . S
C4244 C4243 1.398 . S
C4244 C4245 1.391 . S
C4245 H4233 0.950 . S
C4245 C4241 1.393 . S
C4245 C4244 1.391 . S
C4246 H4236 0.950 . S
C4246 C4247 1.386 . S
C4246 C4248 1.391 . S
C4247 C4246 1.386 . S
C4247 C4251 1.393 . S
C4248 H4237 0.950 . S
C4248 C4246 1.391 . S
C4248 C4249 1.400 . S
C4249 C4243 1.491 . S
C4249 C4248 1.400 . S
C4249 C4250 1.398 . S
C4250 H4238 0.950 . S
C4250 C4249 1.398 . S
C4250 C4251 1.391 . S
C4251 H4239 0.950 . S
C4251 C4247 1.393 . S
C4251 C4250 1.391 . S
H4252 C4260 0.950 . S
H4253 C4265 0.952 1_556 S
H4254 C4262 0.950 . S
H4255 C4264 0.950 . S
H4256 C4266 0.950 . S
H4257 C4268 0.950 . S
H4258 C4270 0.950 . S
H4259 C4271 0.950 . S
C4260 H4252 0.950 . S
C4260 C4261 1.386 . S
C4260 C4262 1.391 . S
C4261 C4260 1.386 . S
C4261 C4265 1.393 . S
C4262 H4254 0.950 . S
C4262 C4260 1.391 . S
C4262 C4263 1.400 . S
C4263 C4262 1.400 . S
C4263 C4264 1.398 . S
C4263 C4269 1.491 . S
C4264 H4255 0.950 . S
C4264 C4263 1.398 . S
C4264 C4265 1.391 . S
C4265 H4253 0.952 1_554 S
C4265 C4261 1.393 . S
C4265 C4264 1.391 . S
C4266 H4256 0.950 . S
C4266 C4267 1.386 . S
C4266 C4268 1.391 . S
C4267 C4266 1.386 . S
C4267 C4271 1.393 . S
C4268 H4257 0.950 . S
C4268 C4266 1.391 . S
C4268 C4269 1.400 . S
C4269 C4263 1.491 . S
C4269 C4268 1.400 . S
C4269 C4270 1.398 . S
C4270 H4258 0.950 . S
C4270 C4269 1.398 . S
C4270 C4271 1.391 . S
C4271 H4259 0.950 . S
C4271 C4267 1.393 . S
C4271 C4270 1.391 . S
H4272 C4280 0.950 . S
H4273 C4285 0.950 . S
H4274 C4282 0.950 . S
H4275 C4284 0.950 . S
H4276 C4286 0.950 . S
H4277 C4288 0.950 . S
H4278 C4290 0.950 . S
H4279 C4291 0.950 . S
C4280 H4272 0.950 . S
C4280 C4281 1.386 . S
C4280 C4282 1.391 1_556 S
C4281 C4280 1.386 . S
C4281 C4285 1.393 . S
C4282 H4274 0.950 . S
C4282 C4280 1.391 1_554 S
C4282 C4283 1.400 . S
C4283 C4282 1.400 . S
C4283 C4284 1.398 . S
C4283 C4289 1.491 . S
C4284 H4275 0.950 . S
C4284 C4283 1.398 . S
C4284 C4285 1.391 1_554 S
C4285 H4273 0.950 . S
C4285 C4281 1.393 . S
C4285 C4284 1.391 1_556 S
C4286 H4276 0.950 . S
C4286 C4287 1.386 . S
C4286 C4288 1.391 . S
C4287 C4286 1.386 . S
C4287 C4291 1.393 . S
C4288 H4277 0.950 . S
C4288 C4286 1.391 . S
C4288 C4289 1.400 . S
C4289 C4283 1.491 . S
C4289 C4288 1.400 . S
C4289 C4290 1.398 . S
C4290 H4278 0.950 . S
C4290 C4289 1.398 . S
C4290 C4291 1.391 . S
C4291 H4279 0.950 . S
C4291 C4287 1.393 . S
C4291 C4290 1.391 . S
H4292 C4300 0.950 . S
H4293 C4305 0.950 . S
H4294 C4302 0.950 . S
H4295 C4304 0.950 . S
H4296 C4306 0.950 . S
H4297 C4308 0.950 . S
H4298 C4310 0.950 . S
H4299 C4311 0.950 . S
C4300 H4292 0.950 . S
C4300 C4301 1.386 . S
C4300 C4302 1.391 1_556 S
C4301 C4300 1.386 . S
C4301 C4305 1.393 . S
C4302 H4294 0.950 . S
C4302 C4300 1.391 1_554 S
C4302 C4303 1.400 . S
C4303 C4302 1.400 . S
C4303 C4304 1.398 . S
C4303 C4309 1.491 . S
C4304 H4295 0.950 . S
C4304 C4303 1.398 . S
C4304 C4305 1.391 1_554 S
C4305 H4293 0.950 . S
C4305 C4301 1.393 . S
C4305 C4304 1.391 1_556 S
C4306 H4296 0.950 . S
C4306 C4307 1.386 . S
C4306 C4308 1.391 . S
C4307 C4306 1.386 . S
C4307 C4311 1.393 . S
C4308 H4297 0.950 . S
C4308 C4306 1.391 . S
C4308 C4309 1.400 . S
C4309 C4303 1.491 . S
C4309 C4308 1.400 . S
C4309 C4310 1.398 . S
C4310 H4298 0.950 . S
C4310 C4309 1.398 . S
C4310 C4311 1.391 . S
C4311 H4299 0.950 . S
C4311 C4307 1.393 . S
C4311 C4310 1.391 . S
H4312 C4320 0.950 . S
H4313 C4325 0.950 . S
H4314 C4322 0.950 . S
H4315 C4324 0.950 . S
H4316 C4326 0.950 . S
H4317 C4328 0.950 . S
H4318 C4330 0.950 . S
H4319 C4331 0.950 . S
C4320 H4312 0.950 . S
C4320 C4321 1.386 . S
C4320 C4322 1.391 1_556 S
C4321 C4320 1.386 . S
C4321 C4325 1.393 . S
C4322 H4314 0.950 . S
C4322 C4320 1.391 1_554 S
C4322 C4323 1.400 . S
C4323 C4322 1.400 . S
C4323 C4324 1.398 . S
C4323 C4329 1.491 . S
C4324 H4315 0.950 . S
C4324 C4323 1.398 . S
C4324 C4325 1.391 1_554 S
C4325 H4313 0.950 . S
C4325 C4321 1.393 . S
C4325 C4324 1.391 1_556 S
C4326 H4316 0.950 . S
C4326 C4327 1.386 . S
C4326 C4328 1.391 . S
C4327 C4326 1.386 . S
C4327 C4331 1.393 . S
C4328 H4317 0.950 . S
C4328 C4326 1.391 . S
C4328 C4329 1.400 . S
C4329 C4323 1.491 . S
C4329 C4328 1.400 . S
C4329 C4330 1.398 . S
C4330 H4318 0.950 . S
C4330 C4329 1.398 . S
C4330 C4331 1.391 . S
C4331 H4319 0.950 . S
C4331 C4327 1.393 . S
C4331 C4330 1.391 . S
H4332 C4340 0.950 . S
H4333 C4345 0.950 . S
H4334 C4342 0.963 . S
H4335 C4344 0.950 . S
H4336 C4346 0.950 . S
H4337 C4348 0.950 . S
H4338 C4350 0.950 . S
H4339 C4351 0.950 . S
C4340 H4332 0.950 . S
C4340 C4341 1.386 . S
C4340 C4342 1.359 1_556 S
C4341 C4340 1.386 . S
C4341 C4345 1.393 . S
C4342 H4334 0.963 . S
C4342 C4340 1.359 1_554 S
C4342 C4343 1.420 . S
C4343 C4342 1.420 . S
C4343 C4344 1.398 . S
C4343 C4349 1.491 . S
C4344 H4335 0.950 . S
C4344 C4343 1.398 . S
C4344 C4345 1.391 1_554 S
C4345 H4333 0.950 . S
C4345 C4341 1.393 . S
C4345 C4344 1.391 1_556 S
C4346 H4336 0.950 . S
C4346 C4347 1.386 . S
C4346 C4348 1.391 . S
C4347 C4346 1.386 . S
C4347 C4351 1.393 . S
C4348 H4337 0.950 . S
C4348 C4346 1.391 . S
C4348 C4349 1.400 . S
C4349 C4343 1.491 . S
C4349 C4348 1.400 . S
C4349 C4350 1.398 . S
C4350 H4338 0.950 . S
C4350 C4349 1.398 . S
C4350 C4351 1.391 . S
C4351 H4339 0.950 . S
C4351 C4347 1.393 . S
C4351 C4350 1.391 . S
H4352 C4360 0.950 . S
H4353 C4365 0.950 . S
H4354 C4362 0.950 . S
H4355 C4364 0.950 . S
H4356 C4366 0.950 . S
H4357 C4368 0.950 . S
H4358 C4370 0.950 . S
H4359 C4371 0.950 . S
C4360 H4352 0.950 . S
C4360 C4361 1.386 . S
C4360 C4362 1.391 . S
C4361 C4360 1.386 . S
C4361 C4365 1.393 . S
C4362 H4354 0.950 . S
C4362 C4360 1.391 . S
C4362 C4363 1.400 . S
C4363 C4362 1.400 . S
C4363 C4364 1.398 . S
C4363 C4369 1.491 . S
C4364 H4355 0.950 . S
C4364 C4363 1.398 . S
C4364 C4365 1.391 . S
C4365 H4353 0.950 . S
C4365 C4361 1.393 . S
C4365 C4364 1.391 . S
C4366 H4356 0.950 . S
C4366 C4367 1.386 . S
C4366 C4368 1.391 . S
C4367 C4366 1.386 . S
C4367 C4371 1.393 . S
C4368 H4357 0.950 . S
C4368 C4366 1.391 . S
C4368 C4369 1.400 . S
C4369 C4363 1.491 . S
C4369 C4368 1.400 . S
C4369 C4370 1.398 . S
C4370 H4358 0.950 . S
C4370 C4369 1.398 . S
C4370 C4371 1.391 . S
C4371 H4359 0.950 . S
C4371 C4367 1.393 . S
C4371 C4370 1.391 . S
H4372 C4380 0.950 . S
H4373 C4385 0.950 . S
H4374 C4382 0.950 . S
H4375 C4384 0.950 . S
H4376 C4386 0.950 . S
H4377 C4388 0.950 . S
H4378 C4390 0.950 . S
H4379 C4391 0.950 . S
C4380 H4372 0.950 . S
C4380 C4381 1.386 . S
C4380 C4382 1.391 1_565 S
C4381 C4380 1.386 . S
C4381 C4385 1.393 . S
C4382 H4374 0.950 . S
C4382 C4380 1.391 1_545 S
C4382 C4383 1.400 . S
C4383 C4382 1.400 . S
C4383 C4384 1.398 . S
C4383 C4389 1.491 . S
C4384 H4375 0.950 . S
C4384 C4383 1.398 . S
C4384 C4385 1.391 1_545 S
C4385 H4373 0.950 . S
C4385 C4381 1.393 . S
C4385 C4384 1.391 1_565 S
C4386 H4376 0.950 . S
C4386 C4387 1.386 . S
C4386 C4388 1.391 . S
C4387 C4386 1.386 . S
C4387 C4391 1.393 . S
C4388 H4377 0.950 . S
C4388 C4386 1.391 . S
C4388 C4389 1.400 . S
C4389 C4383 1.491 . S
C4389 C4388 1.400 . S
C4389 C4390 1.398 . S
C4390 H4378 0.950 . S
C4390 C4389 1.398 . S
C4390 C4391 1.391 . S
C4391 H4379 0.950 . S
C4391 C4387 1.393 . S
C4391 C4390 1.391 . S
H4392 C4400 0.950 . S
H4393 C4405 0.950 . S
H4394 C4402 0.950 . S
H4395 C4404 0.950 . S
H4396 C4406 0.950 . S
H4397 C4408 0.950 . S
H4398 C4410 0.950 . S
H4399 C4411 0.950 . S
C4400 H4392 0.950 . S
C4400 C4401 1.386 . S
C4400 C4402 1.391 1_655 S
C4401 C4400 1.386 . S
C4401 C4405 1.393 . S
C4402 H4394 0.950 . S
C4402 C4400 1.391 1_455 S
C4402 C4403 1.400 . S
C4403 C4402 1.400 . S
C4403 C4404 1.398 . S
C4403 C4409 1.491 . S
C4404 H4395 0.950 . S
C4404 C4403 1.398 . S
C4404 C4405 1.391 1_455 S
C4405 H4393 0.950 . S
C4405 C4401 1.393 . S
C4405 C4404 1.391 1_655 S
C4406 H4396 0.950 . S
C4406 C4407 1.386 . S
C4406 C4408 1.391 . S
C4407 C4406 1.386 . S
C4407 C4411 1.393 . S
C4408 H4397 0.950 . S
C4408 C4406 1.391 . S
C4408 C4409 1.400 . S
C4409 C4403 1.491 . S
C4409 C4408 1.400 . S
C4409 C4410 1.398 . S
C4410 H4398 0.950 . S
C4410 C4409 1.398 . S
C4410 C4411 1.391 . S
C4411 H4399 0.950 . S
C4411 C4407 1.393 . S
C4411 C4410 1.391 . S
H4412 C4420 0.950 . S
H4413 C4425 0.950 . S
H4414 C4422 0.950 . S
H4415 C4424 0.950 . S
H4416 C4426 0.950 . S
H4417 C4428 0.950 . S
H4418 C4430 0.950 . S
H4419 C4431 0.950 . S
C4420 H4412 0.950 . S
C4420 C4421 1.386 . S
C4420 C4422 1.391 . S
C4421 C4420 1.386 . S
C4421 C4425 1.393 . S
C4422 H4414 0.950 . S
C4422 C4420 1.391 . S
C4422 C4423 1.400 . S
C4423 C4422 1.400 . S
C4423 C4424 1.398 . S
C4423 C4429 1.491 . S
C4424 H4415 0.950 . S
C4424 C4423 1.398 . S
C4424 C4425 1.391 . S
C4425 H4413 0.950 . S
C4425 C4421 1.393 . S
C4425 C4424 1.391 . S
C4426 H4416 0.950 . S
C4426 C4427 1.386 . S
C4426 C4428 1.391 . S
C4427 C4426 1.386 . S
C4427 C4431 1.393 . S
C4428 H4417 0.950 . S
C4428 C4426 1.391 . S
C4428 C4429 1.400 . S
C4429 C4423 1.491 . S
C4429 C4428 1.400 . S
C4429 C4430 1.398 . S
C4430 H4418 0.950 . S
C4430 C4429 1.398 . S
C4430 C4431 1.391 . S
C4431 H4419 0.950 . S
C4431 C4427 1.393 . S
C4431 C4430 1.391 . S
H4432 C4440 0.950 . S
H4433 C4445 0.950 . S
H4434 C4442 0.950 . S
H4435 C4444 0.950 . S
H4436 C4446 0.950 . S
H4437 C4448 0.950 . S
H4438 C4450 0.950 . S
H4439 C4451 0.950 . S
C4440 H4432 0.950 . S
C4440 C4441 1.386 . S
C4440 C4442 1.391 . S
C4441 C4440 1.386 . S
C4441 C4445 1.393 . S
C4442 H4434 0.950 . S
C4442 C4440 1.391 . S
C4442 C4443 1.400 . S
C4443 C4442 1.400 . S
C4443 C4444 1.398 . S
C4443 C4449 1.491 1_565 S
C4444 H4435 0.950 . S
C4444 C4443 1.398 . S
C4444 C4445 1.391 . S
C4445 H4433 0.950 . S
C4445 C4441 1.393 . S
C4445 C4444 1.391 . S
C4446 H4436 0.950 . S
C4446 C4447 1.386 . S
C4446 C4448 1.391 . S
C4447 C4446 1.386 . S
C4447 C4451 1.393 . S
C4448 H4437 0.950 . S
C4448 C4446 1.391 . S
C4448 C4449 1.400 . S
C4449 C4443 1.491 1_545 S
C4449 C4448 1.400 . S
C4449 C4450 1.398 . S
C4450 H4438 0.950 . S
C4450 C4449 1.398 . S
C4450 C4451 1.391 . S
C4451 H4439 0.950 . S
C4451 C4447 1.393 . S
C4451 C4450 1.391 . S
H4452 C4460 0.950 . S
H4453 C4465 0.950 . S
H4454 C4462 0.950 . S
H4455 C4464 0.950 . S
H4456 C4466 0.950 . S
H4457 C4468 0.950 . S
H4458 C4470 0.950 . S
H4459 C4471 0.950 . S
C4460 H4452 0.950 . S
C4460 C4461 1.386 . S
C4460 C4462 1.391 . S
C4461 C4460 1.386 . S
C4461 C4465 1.393 . S
C4462 H4454 0.950 . S
C4462 C4460 1.391 . S
C4462 C4463 1.400 . S
C4463 C4462 1.400 . S
C4463 C4464 1.398 . S
C4463 C4469 1.491 . S
C4464 H4455 0.950 . S
C4464 C4463 1.398 . S
C4464 C4465 1.391 . S
C4465 H4453 0.950 . S
C4465 C4461 1.393 . S
C4465 C4464 1.391 . S
C4466 H4456 0.950 . S
C4466 C4467 1.386 . S
C4466 C4468 1.391 . S
C4467 C4466 1.386 . S
C4467 C4471 1.393 . S
C4468 H4457 0.950 . S
C4468 C4466 1.391 . S
C4468 C4469 1.400 1_655 S
C4469 C4463 1.491 . S
C4469 C4468 1.400 1_455 S
C4469 C4470 1.398 . S
C4470 H4458 0.950 . S
C4470 C4469 1.398 . S
C4470 C4471 1.391 1_455 S
C4471 H4459 0.950 . S
C4471 C4467 1.393 . S
C4471 C4470 1.391 1_655 S
H4472 C4480 0.950 . S
H4473 C4485 0.950 . S
H4474 C4482 0.950 . S
H4475 C4484 0.950 . S
H4476 C4486 0.950 . S
H4477 C4488 0.950 . S
H4478 C4490 0.950 . S
H4479 C4491 0.950 . S
C4480 H4472 0.950 . S
C4480 C4481 1.386 . S
C4480 C4482 1.391 . S
C4481 C4480 1.386 . S
C4481 C4485 1.393 . S
C4482 H4474 0.950 . S
C4482 C4480 1.391 . S
C4482 C4483 1.400 . S
C4483 C4482 1.400 . S
C4483 C4484 1.398 . S
C4483 C4489 1.491 . S
C4484 H4475 0.950 . S
C4484 C4483 1.398 . S
C4484 C4485 1.391 . S
C4485 H4473 0.950 . S
C4485 C4481 1.393 . S
C4485 C4484 1.391 . S
C4486 H4476 0.950 . S
C4486 C4487 1.386 . S
C4486 C4488 1.391 . S
C4487 C4486 1.386 . S
C4487 C4491 1.393 . S
C4488 H4477 0.950 . S
C4488 C4486 1.391 . S
C4488 C4489 1.400 . S
C4489 C4483 1.491 . S
C4489 C4488 1.400 . S
C4489 C4490 1.398 . S
C4490 H4478 0.950 . S
C4490 C4489 1.398 . S
C4490 C4491 1.391 . S
C4491 H4479 0.950 . S
C4491 C4487 1.393 . S
C4491 C4490 1.391 . S
H4492 C4500 0.950 . S
H4493 C4505 0.950 . S
H4494 C4502 0.950 . S
H4495 C4504 0.950 . S
H4496 C4506 0.950 . S
H4497 C4508 0.950 . S
H4498 C4510 0.950 . S
H4499 C4511 0.950 . S
C4500 H4492 0.950 . S
C4500 C4501 1.386 . S
C4500 C4502 1.391 . S
C4501 C4500 1.386 . S
C4501 C4505 1.393 . S
C4502 H4494 0.950 . S
C4502 C4500 1.391 . S
C4502 C4503 1.400 . S
C4503 C4502 1.400 . S
C4503 C4504 1.398 . S
C4503 C4509 1.491 . S
C4504 H4495 0.950 . S
C4504 C4503 1.398 . S
C4504 C4505 1.391 . S
C4505 H4493 0.950 . S
C4505 C4501 1.393 . S
C4505 C4504 1.391 . S
C4506 H4496 0.950 . S
C4506 C4507 1.386 . S
C4506 C4508 1.391 . S
C4507 C4506 1.386 . S
C4507 C4511 1.393 . S
C4508 H4497 0.950 . S
C4508 C4506 1.391 . S
C4508 C4509 1.400 . S
C4509 C4503 1.491 . S
C4509 C4508 1.400 . S
C4509 C4510 1.398 . S
C4510 H4498 0.950 . S
C4510 C4509 1.398 . S
C4510 C4511 1.391 . S
C4511 H4499 0.950 . S
C4511 C4507 1.393 . S
C4511 C4510 1.391 . S
H4512 C4520 0.950 . S
H4513 C4525 0.950 . S
H4514 C4522 0.950 . S
H4515 C4524 0.950 . S
H4516 C4526 0.950 . S
H4517 C4528 0.950 . S
H4518 C4530 0.950 . S
H4519 C4531 0.950 . S
C4520 H4512 0.950 . S
C4520 C4521 1.386 . S
C4520 C4522 1.391 . S
C4521 C4520 1.386 . S
C4521 C4525 1.393 . S
C4522 H4514 0.950 . S
C4522 C4520 1.391 . S
C4522 C4523 1.400 . S
C4523 C4522 1.400 . S
C4523 C4524 1.398 . S
C4523 C4529 1.491 . S
C4524 H4515 0.950 . S
C4524 C4523 1.398 . S
C4524 C4525 1.391 . S
C4525 H4513 0.950 . S
C4525 C4521 1.393 . S
C4525 C4524 1.391 . S
C4526 H4516 0.950 . S
C4526 C4527 1.386 . S
C4526 C4528 1.391 . S
C4527 C4526 1.386 . S
C4527 C4531 1.393 . S
C4528 H4517 0.950 . S
C4528 C4526 1.391 . S
C4528 C4529 1.400 . S
C4529 C4523 1.491 . S
C4529 C4528 1.400 . S
C4529 C4530 1.398 . S
C4530 H4518 0.950 . S
C4530 C4529 1.398 . S
C4530 C4531 1.391 . S
C4531 H4519 0.950 . S
C4531 C4527 1.393 . S
C4531 C4530 1.391 . S
H4532 C4540 0.950 . S
H4533 C4545 0.950 . S
H4534 C4542 0.950 . S
H4535 C4544 0.950 . S
H4536 C4546 0.950 . S
H4537 C4548 0.950 . S
H4538 C4550 0.950 . S
H4539 C4551 0.950 . S
C4540 H4532 0.950 . S
C4540 C4541 1.386 . S
C4540 C4542 1.391 . S
C4541 C4540 1.386 . S
C4541 C4545 1.393 . S
C4542 H4534 0.950 . S
C4542 C4540 1.391 . S
C4542 C4543 1.400 . S
C4543 C4542 1.400 . S
C4543 C4544 1.398 . S
C4543 C4549 1.491 . S
C4544 H4535 0.950 . S
C4544 C4543 1.398 . S
C4544 C4545 1.391 . S
C4545 H4533 0.950 . S
C4545 C4541 1.393 . S
C4545 C4544 1.391 . S
C4546 H4536 0.950 . S
C4546 C4547 1.386 . S
C4546 C4548 1.391 . S
C4547 C4546 1.386 . S
C4547 C4551 1.393 . S
C4548 H4537 0.950 . S
C4548 C4546 1.391 . S
C4548 C4549 1.400 . S
C4549 C4543 1.491 . S
C4549 C4548 1.400 . S
C4549 C4550 1.398 . S
C4550 H4538 0.950 . S
C4550 C4549 1.398 . S
C4550 C4551 1.391 . S
C4551 H4539 0.950 . S
C4551 C4547 1.393 . S
C4551 C4550 1.391 . S
H4552 C4560 0.950 . S
H4553 C4565 0.950 . S
H4554 C4562 0.950 . S
H4555 C4564 0.950 . S
H4556 C4566 0.950 . S
H4557 C4568 0.950 . S
H4558 C4570 0.950 . S
H4559 C4571 0.950 . S
C4560 H4552 0.950 . S
C4560 C4561 1.386 . S
C4560 C4562 1.391 . S
C4561 C4560 1.386 . S
C4561 C4565 1.393 . S
C4562 H4554 0.950 . S
C4562 C4560 1.391 . S
C4562 C4563 1.400 . S
C4563 C4562 1.400 . S
C4563 C4564 1.398 . S
C4563 C4569 1.491 . S
C4564 H4555 0.950 . S
C4564 C4563 1.398 . S
C4564 C4565 1.391 . S
C4565 H4553 0.950 . S
C4565 C4561 1.393 . S
C4565 C4564 1.391 . S
C4566 H4556 0.950 . S
C4566 C4567 1.386 . S
C4566 C4568 1.391 . S
C4567 C4566 1.386 . S
C4567 C4571 1.393 . S
C4568 H4557 0.950 . S
C4568 C4566 1.391 . S
C4568 C4569 1.400 . S
C4569 C4563 1.491 . S
C4569 C4568 1.400 . S
C4569 C4570 1.398 . S
C4570 H4558 0.950 . S
C4570 C4569 1.398 . S
C4570 C4571 1.391 . S
C4571 H4559 0.950 . S
C4571 C4567 1.393 . S
C4571 C4570 1.391 . S
H4572 C4580 0.950 . S
H4573 C4585 0.950 . S
H4574 C4582 0.950 . S
H4575 C4584 0.950 . S
H4576 C4586 0.950 . S
H4577 C4588 0.950 . S
H4578 C4590 0.950 . S
H4579 C4591 0.950 . S
C4580 H4572 0.950 . S
C4580 C4581 1.386 . S
C4580 C4582 1.391 . S
C4581 C4580 1.386 . S
C4581 C4585 1.393 . S
C4582 H4574 0.950 . S
C4582 C4580 1.391 . S
C4582 C4583 1.400 . S
C4583 C4582 1.400 . S
C4583 C4584 1.398 . S
C4583 C4589 1.491 . S
C4584 H4575 0.950 . S
C4584 C4583 1.398 . S
C4584 C4585 1.391 . S
C4585 H4573 0.950 . S
C4585 C4581 1.393 . S
C4585 C4584 1.391 . S
C4586 H4576 0.950 . S
C4586 C4587 1.386 . S
C4586 C4588 1.391 . S
C4587 C4586 1.386 . S
C4587 C4591 1.393 . S
C4588 H4577 0.950 . S
C4588 C4586 1.391 . S
C4588 C4589 1.400 . S
C4589 C4583 1.491 . S
C4589 C4588 1.400 . S
C4589 C4590 1.398 . S
C4590 H4578 0.950 . S
C4590 C4589 1.398 . S
C4590 C4591 1.391 . S
C4591 H4579 0.950 . S
C4591 C4587 1.393 . S
C4591 C4590 1.391 . S
H4592 C4600 0.950 . S
H4593 C4605 0.950 . S
H4594 C4602 0.950 . S
H4595 C4604 0.950 . S
H4596 C4606 0.950 . S
H4597 C4608 0.950 . S
H4598 C4610 0.950 . S
H4599 C4611 0.950 . S
C4600 H4592 0.950 . S
C4600 C4601 1.386 . S
C4600 C4602 1.391 . S
C4601 C4600 1.386 . S
C4601 C4605 1.393 . S
C4602 H4594 0.950 . S
C4602 C4600 1.391 . S
C4602 C4603 1.400 . S
C4603 C4602 1.400 . S
C4603 C4604 1.398 . S
C4603 C4609 1.491 . S
C4604 H4595 0.950 . S
C4604 C4603 1.398 . S
C4604 C4605 1.391 . S
C4605 H4593 0.950 . S
C4605 C4601 1.393 . S
C4605 C4604 1.391 . S
C4606 H4596 0.950 . S
C4606 C4607 1.386 . S
C4606 C4608 1.391 . S
C4607 C4606 1.386 . S
C4607 C4611 1.393 . S
C4608 H4597 0.950 . S
C4608 C4606 1.391 . S
C4608 C4609 1.400 . S
C4609 C4603 1.491 . S
C4609 C4608 1.400 . S
C4609 C4610 1.398 . S
C4610 H4598 0.950 . S
C4610 C4609 1.398 . S
C4610 C4611 1.391 . S
C4611 H4599 0.950 . S
C4611 C4607 1.393 . S
C4611 C4610 1.391 . S
H4612 C4620 0.950 . S
H4613 C4625 0.950 . S
H4614 C4622 0.950 . S
H4615 C4624 0.950 . S
H4616 C4626 0.950 . S
H4617 C4628 0.950 . S
H4618 C4630 0.950 . S
H4619 C4631 0.950 . S
C4620 H4612 0.950 . S
C4620 C4621 1.386 . S
C4620 C4622 1.391 . S
C4621 C4620 1.386 . S
C4621 C4625 1.393 . S
C4622 H4614 0.950 . S
C4622 C4620 1.391 . S
C4622 C4623 1.400 . S
C4623 C4622 1.400 . S
C4623 C4624 1.398 . S
C4623 C4629 1.491 . S
C4624 H4615 0.950 . S
C4624 C4623 1.398 . S
C4624 C4625 1.391 . S
C4625 H4613 0.950 . S
C4625 C4621 1.393 . S
C4625 C4624 1.391 . S
C4626 H4616 0.950 . S
C4626 C4627 1.386 . S
C4626 C4628 1.391 . S
C4627 C4626 1.386 . S
C4627 C4631 1.393 . S
C4628 H4617 0.950 . S
C4628 C4626 1.391 . S
C4628 C4629 1.400 . S
C4629 C4623 1.491 . S
C4629 C4628 1.400 . S
C4629 C4630 1.398 . S
C4630 H4618 0.950 . S
C4630 C4629 1.398 . S
C4630 C4631 1.391 . S
C4631 H4619 0.950 . S
C4631 C4627 1.393 . S
C4631 C4630 1.391 . S
H4632 C4640 0.950 . S
H4633 C4645 0.950 . S
H4634 C4642 0.950 . S
H4635 C4644 0.950 . S
H4636 C4646 0.950 . S
H4637 C4648 0.950 . S
H4638 C4650 0.950 . S
H4639 C4651 0.950 . S
C4640 H4632 0.950 . S
C4640 C4641 1.386 . S
C4640 C4642 1.391 . S
C4641 C4640 1.386 . S
C4641 C4645 1.393 . S
C4642 H4634 0.950 . S
C4642 C4640 1.391 . S
C4642 C4643 1.400 . S
C4643 C4642 1.400 . S
C4643 C4644 1.398 . S
C4643 C4649 1.491 . S
C4644 H4635 0.950 . S
C4644 C4643 1.398 . S
C4644 C4645 1.391 . S
C4645 H4633 0.950 . S
C4645 C4641 1.393 . S
C4645 C4644 1.391 . S
C4646 H4636 0.950 . S
C4646 C4647 1.386 . S
C4646 C4648 1.391 . S
C4647 C4646 1.386 . S
C4647 C4651 1.393 . S
C4648 H4637 0.950 . S
C4648 C4646 1.391 . S
C4648 C4649 1.400 . S
C4649 C4643 1.491 . S
C4649 C4648 1.400 . S
C4649 C4650 1.398 . S
C4650 H4638 0.950 . S
C4650 C4649 1.398 . S
C4650 C4651 1.391 . S
C4651 H4639 0.950 . S
C4651 C4647 1.393 . S
C4651 C4650 1.391 . S
H4652 C4660 0.950 . S
H4653 C4665 0.950 . S
H4654 C4662 0.950 . S
H4655 C4664 0.950 . S
H4656 C4666 0.950 . S
H4657 C4668 0.950 . S
H4658 C4670 0.950 . S
H4659 C4671 0.950 . S
C4660 H4652 0.950 . S
C4660 C4661 1.386 . S
C4660 C4662 1.391 . S
C4661 C4660 1.386 . S
C4661 C4665 1.393 . S
C4662 H4654 0.950 . S
C4662 C4660 1.391 . S
C4662 C4663 1.400 . S
C4663 C4662 1.400 . S
C4663 C4664 1.398 . S
C4663 C4669 1.491 . S
C4664 H4655 0.950 . S
C4664 C4663 1.398 . S
C4664 C4665 1.391 . S
C4665 H4653 0.950 . S
C4665 C4661 1.393 . S
C4665 C4664 1.391 . S
C4666 H4656 0.950 . S
C4666 C4667 1.386 . S
C4666 C4668 1.391 . S
C4667 C4666 1.386 . S
C4667 C4671 1.393 . S
C4668 H4657 0.950 . S
C4668 C4666 1.391 . S
C4668 C4669 1.400 . S
C4669 C4663 1.491 . S
C4669 C4668 1.400 . S
C4669 C4670 1.398 . S
C4670 H4658 0.950 . S
C4670 C4669 1.398 . S
C4670 C4671 1.391 . S
C4671 H4659 0.950 . S
C4671 C4667 1.393 . S
C4671 C4670 1.391 . S
H4672 C4680 0.950 . S
H4673 C4685 0.950 . S
H4674 C4682 0.950 . S
H4675 C4684 0.950 . S
H4676 C4686 0.950 . S
H4677 C4688 0.950 . S
H4678 C4690 0.950 . S
H4679 C4691 0.950 . S
C4680 H4672 0.950 . S
C4680 C4681 1.386 . S
C4680 C4682 1.391 . S
C4681 C4680 1.386 . S
C4681 C4685 1.393 . S
C4682 H4674 0.950 . S
C4682 C4680 1.391 . S
C4682 C4683 1.400 . S
C4683 C4682 1.400 . S
C4683 C4684 1.398 . S
C4683 C4689 1.491 . S
C4684 H4675 0.950 . S
C4684 C4683 1.398 . S
C4684 C4685 1.391 . S
C4685 H4673 0.950 . S
C4685 C4681 1.393 . S
C4685 C4684 1.391 . S
C4686 H4676 0.950 . S
C4686 C4687 1.386 . S
C4686 C4688 1.391 . S
C4687 C4686 1.386 . S
C4687 C4691 1.393 . S
C4688 H4677 0.950 . S
C4688 C4686 1.391 . S
C4688 C4689 1.400 . S
C4689 C4683 1.491 . S
C4689 C4688 1.400 . S
C4689 C4690 1.398 . S
C4690 H4678 0.950 . S
C4690 C4689 1.398 . S
C4690 C4691 1.391 . S
C4691 H4679 0.950 . S
C4691 C4687 1.393 . S
C4691 C4690 1.391 . S
H4692 C4700 0.950 . S
H4693 C4705 0.950 . S
H4694 C4702 0.950 . S
H4695 C4704 0.950 . S
H4696 C4706 0.950 . S
H4697 C4708 0.950 . S
H4698 C4710 0.950 . S
H4699 C4711 0.950 . S
C4700 H4692 0.950 . S
C4700 C4701 1.386 . S
C4700 C4702 1.391 . S
C4701 C4700 1.386 . S
C4701 C4705 1.393 . S
C4702 H4694 0.950 . S
C4702 C4700 1.391 . S
C4702 C4703 1.400 . S
C4703 C4702 1.400 . S
C4703 C4704 1.398 . S
C4703 C4709 1.491 . S
C4704 H4695 0.950 . S
C4704 C4703 1.398 . S
C4704 C4705 1.391 . S
C4705 H4693 0.950 . S
C4705 C4701 1.393 . S
C4705 C4704 1.391 . S
C4706 H4696 0.950 . S
C4706 C4707 1.386 . S
C4706 C4708 1.391 . S
C4707 C4706 1.386 . S
C4707 C4711 1.393 . S
C4708 H4697 0.950 . S
C4708 C4706 1.391 . S
C4708 C4709 1.400 . S
C4709 C4703 1.491 . S
C4709 C4708 1.400 . S
C4709 C4710 1.398 . S
C4710 H4698 0.950 . S
C4710 C4709 1.398 . S
C4710 C4711 1.391 . S
C4711 H4699 0.950 . S
C4711 C4707 1.393 . S
C4711 C4710 1.391 . S
H4712 C4720 0.950 . S
H4713 C4725 0.950 . S
H4714 C4722 0.950 . S
H4715 C4724 0.950 . S
H4716 C4726 0.950 . S
H4717 C4728 0.950 . S
H4718 C4730 0.950 . S
H4719 C4731 0.950 . S
C4720 H4712 0.950 . S
C4720 C4721 1.386 . S
C4720 C4722 1.391 . S
C4721 C4720 1.386 . S
C4721 C4725 1.393 . S
C4722 H4714 0.950 . S
C4722 C4720 1.391 . S
C4722 C4723 1.400 . S
C4723 C4722 1.400 . S
C4723 C4724 1.398 . S
C4723 C4729 1.491 . S
C4724 H4715 0.950 . S
C4724 C4723 1.398 . S
C4724 C4725 1.391 . S
C4725 H4713 0.950 . S
C4725 C4721 1.393 . S
C4725 C4724 1.391 . S
C4726 H4716 0.950 . S
C4726 C4727 1.386 . S
C4726 C4728 1.391 . S
C4727 C4726 1.386 . S
C4727 C4731 1.393 . S
C4728 H4717 0.950 . S
C4728 C4726 1.391 . S
C4728 C4729 1.400 . S
C4729 C4723 1.491 . S
C4729 C4728 1.400 . S
C4729 C4730 1.398 . S
C4730 H4718 0.950 . S
C4730 C4729 1.398 . S
C4730 C4731 1.391 . S
C4731 H4719 0.950 . S
C4731 C4727 1.393 . S
C4731 C4730 1.391 . S
H4732 C4740 0.950 . S
H4733 C4745 0.950 . S
H4734 C4742 0.950 . S
H4735 C4744 0.950 . S
H4736 C4746 0.950 . S
H4737 C4748 0.950 . S
H4738 C4750 0.950 . S
H4739 C4751 0.950 . S
C4740 H4732 0.950 . S
C4740 C4741 1.386 . S
C4740 C4742 1.391 . S
C4741 C4740 1.386 . S
C4741 C4745 1.393 . S
C4742 H4734 0.950 . S
C4742 C4740 1.391 . S
C4742 C4743 1.400 . S
C4743 C4742 1.400 . S
C4743 C4744 1.398 . S
C4743 C4749 1.491 . S
C4744 H4735 0.950 . S
C4744 C4743 1.398 . S
C4744 C4745 1.391 . S
C4745 H4733 0.950 . S
C4745 C4741 1.393 . S
C4745 C4744 1.391 . S
C4746 H4736 0.950 . S
C4746 C4747 1.386 . S
C4746 C4748 1.391 . S
C4747 C4746 1.386 . S
C4747 C4751 1.393 . S
C4748 H4737 0.950 . S
C4748 C4746 1.391 . S
C4748 C4749 1.400 . S
C4749 C4743 1.491 . S
C4749 C4748 1.400 . S
C4749 C4750 1.398 . S
C4750 H4738 0.950 . S
C4750 C4749 1.398 . S
C4750 C4751 1.391 . S
C4751 H4739 0.950 . S
C4751 C4747 1.393 . S
C4751 C4750 1.391 . S
H4752 C4760 0.950 . S
H4753 C4765 0.950 . S
H4754 C4762 0.950 . S
H4755 C4764 0.950 . S
H4756 C4766 0.950 . S
H4757 C4768 0.950 . S
H4758 C4770 0.950 . S
H4759 C4771 0.950 . S
C4760 H4752 0.950 . S
C4760 C4761 1.386 . S
C4760 C4762 1.391 . S
C4761 C4760 1.386 . S
C4761 C4765 1.393 . S
C4762 H4754 0.950 . S
C4762 C4760 1.391 . S
C4762 C4763 1.400 . S
C4763 C4762 1.400 . S
C4763 C4764 1.398 . S
C4763 C4769 1.491 . S
C4764 H4755 0.950 . S
C4764 C4763 1.398 . S
C4764 C4765 1.391 . S
C4765 H4753 0.950 . S
C4765 C4761 1.393 . S
C4765 C4764 1.391 . S
C4766 H4756 0.950 . S
C4766 C4767 1.386 . S
C4766 C4768 1.391 . S
C4767 C4766 1.386 . S
C4767 C4771 1.393 . S
C4768 H4757 0.950 . S
C4768 C4766 1.391 . S
C4768 C4769 1.400 . S
C4769 C4763 1.491 . S
C4769 C4768 1.400 . S
C4769 C4770 1.398 . S
C4770 H4758 0.950 . S
C4770 C4769 1.398 . S
C4770 C4771 1.391 . S
C4771 H4759 0.950 . S
C4771 C4767 1.393 . S
C4771 C4770 1.391 . S
H4772 C4780 0.950 . S
H4773 C4785 0.950 . S
H4774 C4782 0.950 . S
H4775 C4784 0.950 . S
H4776 C4786 0.950 . S
H4777 C4788 0.950 . S
H4778 C4790 0.950 . S
H4779 C4791 0.950 . S
C4780 H4772 0.950 . S
C4780 C4781 1.386 . S
C4780 C4782 1.391 . S
C4781 C4780 1.386 . S
C4781 C4785 1.393 . S
C4782 H4774 0.950 . S
C4782 C4780 1.391 . S
C4782 C4783 1.400 . S
C4783 C4782 1.400 . S
C4783 C4784 1.398 . S
C4783 C4789 1.491 . S
C4784 H4775 0.950 . S
C4784 C4783 1.398 . S
C4784 C4785 1.391 . S
C4785 H4773 0.950 . S
C4785 C4781 1.393 . S
C4785 C4784 1.391 . S
C4786 H4776 0.950 . S
C4786 C4787 1.386 . S
C4786 C4788 1.391 . S
C4787 C4786 1.386 . S
C4787 C4791 1.393 . S
C4788 H4777 0.950 . S
C4788 C4786 1.391 . S
C4788 C4789 1.400 . S
C4789 C4783 1.491 . S
C4789 C4788 1.400 . S
C4789 C4790 1.398 . S
C4790 H4778 0.950 . S
C4790 C4789 1.398 . S
C4790 C4791 1.391 . S
C4791 H4779 0.950 . S
C4791 C4787 1.393 . S
C4791 C4790 1.391 . S
H4792 C4800 0.950 . S
H4793 C4805 0.950 . S
H4794 C4802 0.950 . S
H4795 C4804 0.950 . S
H4796 C4806 0.950 . S
H4797 C4808 0.950 . S
H4798 C4810 0.950 . S
H4799 C4811 0.950 . S
C4800 H4792 0.950 . S
C4800 C4801 1.386 . S
C4800 C4802 1.391 . S
C4801 C4800 1.386 . S
C4801 C4805 1.393 . S
C4802 H4794 0.950 . S
C4802 C4800 1.391 . S
C4802 C4803 1.400 . S
C4803 C4802 1.400 . S
C4803 C4804 1.398 . S
C4803 C4809 1.491 . S
C4804 H4795 0.950 . S
C4804 C4803 1.398 . S
C4804 C4805 1.391 . S
C4805 H4793 0.950 . S
C4805 C4801 1.393 . S
C4805 C4804 1.391 . S
C4806 H4796 0.950 . S
C4806 C4807 1.386 . S
C4806 C4808 1.391 . S
C4807 C4806 1.386 . S
C4807 C4811 1.393 . S
C4808 H4797 0.950 . S
C4808 C4806 1.391 . S
C4808 C4809 1.400 . S
C4809 C4803 1.491 . S
C4809 C4808 1.400 . S
C4809 C4810 1.398 . S
C4810 H4798 0.950 . S
C4810 C4809 1.398 . S
C4810 C4811 1.391 . S
C4811 H4799 0.950 . S
C4811 C4807 1.393 . S
C4811 C4810 1.391 . S
H4812 C4820 0.950 . S
H4813 C4825 0.950 . S
H4814 C4822 0.950 . S
H4815 C4824 0.950 . S
H4816 C4826 0.950 . S
H4817 C4828 0.950 . S
H4818 C4830 0.950 . S
H4819 C4831 0.950 . S
C4820 H4812 0.950 . S
C4820 C4821 1.386 . S
C4820 C4822 1.391 . S
C4821 C4820 1.386 . S
C4821 C4825 1.393 . S
C4822 H4814 0.950 . S
C4822 C4820 1.391 . S
C4822 C4823 1.400 . S
C4823 C4822 1.400 . S
C4823 C4824 1.398 . S
C4823 C4829 1.491 . S
C4824 H4815 0.950 . S
C4824 C4823 1.398 . S
C4824 C4825 1.391 . S
C4825 H4813 0.950 . S
C4825 C4821 1.393 . S
C4825 C4824 1.391 . S
C4826 H4816 0.950 . S
C4826 C4827 1.386 . S
C4826 C4828 1.391 . S
C4827 C4826 1.386 . S
C4827 C4831 1.393 . S
C4828 H4817 0.950 . S
C4828 C4826 1.391 . S
C4828 C4829 1.400 . S
C4829 C4823 1.491 . S
C4829 C4828 1.400 . S
C4829 C4830 1.398 . S
C4830 H4818 0.950 . S
C4830 C4829 1.398 . S
C4830 C4831 1.391 . S
C4831 H4819 0.950 . S
C4831 C4827 1.393 . S
C4831 C4830 1.391 . S
H4832 C4840 0.950 . S
H4833 C4845 0.950 . S
H4834 C4842 0.950 . S
H4835 C4844 0.950 . S
H4836 C4846 0.950 . S
H4837 C4848 0.950 . S
H4838 C4850 0.950 . S
H4839 C4851 0.950 . S
C4840 H4832 0.950 . S
C4840 C4841 1.386 . S
C4840 C4842 1.391 . S
C4841 C4840 1.386 . S
C4841 C4845 1.393 . S
C4842 H4834 0.950 . S
C4842 C4840 1.391 . S
C4842 C4843 1.400 . S
C4843 C4842 1.400 . S
C4843 C4844 1.398 . S
C4843 C4849 1.491 . S
C4844 H4835 0.950 . S
C4844 C4843 1.398 . S
C4844 C4845 1.391 . S
C4845 H4833 0.950 . S
C4845 C4841 1.393 . S
C4845 C4844 1.391 . S
C4846 H4836 0.950 . S
C4846 C4847 1.386 . S
C4846 C4848 1.391 . S
C4847 C4846 1.386 . S
C4847 C4851 1.393 . S
C4848 H4837 0.950 . S
C4848 C4846 1.391 . S
C4848 C4849 1.400 . S
C4849 C4843 1.491 . S
C4849 C4848 1.400 . S
C4849 C4850 1.398 . S
C4850 H4838 0.950 . S
C4850 C4849 1.398 . S
C4850 C4851 1.391 . S
C4851 H4839 0.950 . S
C4851 C4847 1.393 . S
C4851 C4850 1.391 . S
H4852 C4860 0.950 . S
H4853 C4865 0.950 . S
H4854 C4862 0.950 . S
H4855 C4864 0.950 . S
H4856 C4866 0.950 . S
H4857 C4868 0.950 . S
H4858 C4870 0.950 . S
H4859 C4871 0.950 . S
C4860 H4852 0.950 . S
C4860 C4861 1.386 . S
C4860 C4862 1.391 . S
C4861 C4860 1.386 . S
C4861 C4865 1.393 . S
C4862 H4854 0.950 . S
C4862 C4860 1.391 . S
C4862 C4863 1.400 . S
C4863 C4862 1.400 . S
C4863 C4864 1.398 . S
C4863 C4869 1.491 . S
C4864 H4855 0.950 . S
C4864 C4863 1.398 . S
C4864 C4865 1.391 . S
C4865 H4853 0.950 . S
C4865 C4861 1.393 . S
C4865 C4864 1.391 . S
C4866 H4856 0.950 . S
C4866 C4867 1.386 . S
C4866 C4868 1.391 . S
C4867 C4866 1.386 . S
C4867 C4871 1.393 . S
C4868 H4857 0.950 . S
C4868 C4866 1.391 . S
C4868 C4869 1.400 . S
C4869 C4863 1.491 . S
C4869 C4868 1.400 . S
C4869 C4870 1.398 . S
C4870 H4858 0.950 . S
C4870 C4869 1.398 . S
C4870 C4871 1.391 . S
C4871 H4859 0.950 . S
C4871 C4867 1.393 . S
C4871 C4870 1.391 . S
H4872 C4880 0.950 . S
H4873 C4885 0.950 . S
H4874 C4882 0.950 . S
H4875 C4884 0.950 . S
H4876 C4886 0.950 . S
H4877 C4888 0.950 . S
H4878 C4890 0.950 . S
H4879 C4891 0.950 . S
C4880 H4872 0.950 . S
C4880 C4881 1.386 . S
C4880 C4882 1.391 . S
C4881 C4880 1.386 . S
C4881 C4885 1.393 . S
C4882 H4874 0.950 . S
C4882 C4880 1.391 . S
C4882 C4883 1.400 . S
C4883 C4882 1.400 . S
C4883 C4884 1.398 . S
C4883 C4889 1.491 . S
C4884 H4875 0.950 . S
C4884 C4883 1.398 . S
C4884 C4885 1.391 . S
C4885 H4873 0.950 . S
C4885 C4881 1.393 . S
C4885 C4884 1.391 . S
C4886 H4876 0.950 . S
C4886 C4887 1.386 . S
C4886 C4888 1.391 . S
C4887 C4886 1.386 . S
C4887 C4891 1.393 . S
C4888 H4877 0.950 . S
C4888 C4886 1.391 . S
C4888 C4889 1.400 . S
C4889 C4883 1.491 . S
C4889 C4888 1.400 . S
C4889 C4890 1.398 . S
C4890 H4878 0.950 . S
C4890 C4889 1.398 . S
C4890 C4891 1.391 . S
C4891 H4879 0.950 . S
C4891 C4887 1.393 . S
C4891 C4890 1.391 . S
H4892 C4900 0.950 . S
H4893 C4905 0.950 . S
H4894 C4902 0.950 . S
H4895 C4904 0.950 . S
H4896 C4906 0.950 . S
H4897 C4908 0.950 . S
H4898 C4910 0.950 . S
H4899 C4911 0.950 . S
C4900 H4892 0.950 . S
C4900 C4901 1.386 . S
C4900 C4902 1.391 . S
C4901 C4900 1.386 . S
C4901 C4905 1.393 . S
C4902 H4894 0.950 . S
C4902 C4900 1.391 . S
C4902 C4903 1.400 . S
C4903 C4902 1.400 . S
C4903 C4904 1.398 . S
C4903 C4909 1.491 . S
C4904 H4895 0.950 . S
C4904 C4903 1.398 . S
C4904 C4905 1.391 . S
C4905 H4893 0.950 . S
C4905 C4901 1.393 . S
C4905 C4904 1.391 . S
C4906 H4896 0.950 . S
C4906 C4907 1.386 . S
C4906 C4908 1.391 . S
C4907 C4906 1.386 . S
C4907 C4911 1.393 . S
C4908 H4897 0.950 . S
C4908 C4906 1.391 . S
C4908 C4909 1.400 . S
C4909 C4903 1.491 . S
C4909 C4908 1.400 . S
C4909 C4910 1.398 . S
C4910 H4898 0.950 . S
C4910 C4909 1.398 . S
C4910 C4911 1.391 . S
C4911 H4899 0.950 . S
C4911 C4907 1.393 . S
C4911 C4910 1.391 . S
H4912 C4920 0.950 . S
H4913 C4925 0.950 . S
H4914 C4922 0.950 . S
H4915 C4924 0.950 . S
H4916 C4926 0.950 . S
H4917 C4928 0.950 . S
H4918 C4930 0.950 . S
H4919 C4931 0.950 . S
C4920 H4912 0.950 . S
C4920 C4921 1.386 . S
C4920 C4922 1.391 . S
C4921 C4920 1.386 . S
C4921 C4925 1.393 . S
C4922 H4914 0.950 . S
C4922 C4920 1.391 . S
C4922 C4923 1.400 . S
C4923 C4922 1.400 . S
C4923 C4924 1.398 . S
C4923 C4929 1.491 . S
C4924 H4915 0.950 . S
C4924 C4923 1.398 . S
C4924 C4925 1.391 . S
C4925 H4913 0.950 . S
C4925 C4921 1.393 . S
C4925 C4924 1.391 . S
C4926 H4916 0.950 . S
C4926 C4927 1.386 . S
C4926 C4928 1.391 . S
C4927 C4926 1.386 . S
C4927 C4931 1.393 . S
C4928 H4917 0.950 . S
C4928 C4926 1.391 . S
C4928 C4929 1.400 . S
C4929 C4923 1.491 . S
C4929 C4928 1.400 . S
C4929 C4930 1.398 . S
C4930 H4918 0.950 . S
C4930 C4929 1.398 . S
C4930 C4931 1.391 . S
C4931 H4919 0.950 . S
C4931 C4927 1.393 . S
C4931 C4930 1.391 . S
H4932 C4940 0.950 . S
H4933 C4945 0.950 . S
H4934 C4942 0.950 . S
H4935 C4944 0.950 . S
H4936 C4946 0.950 . S
H4937 C4948 0.950 . S
H4938 C4950 0.950 . S
H4939 C4951 0.950 . S
C4940 H4932 0.950 . S
C4940 C4941 1.386 . S
C4940 C4942 1.391 . S
C4941 C4940 1.386 . S
C4941 C4945 1.393 . S
C4942 H4934 0.950 . S
C4942 C4940 1.391 . S
C4942 C4943 1.400 . S
C4943 C4942 1.400 . S
C4943 C4944 1.398 . S
C4943 C4949 1.491 . S
C4944 H4935 0.950 . S
C4944 C4943 1.398 . S
C4944 C4945 1.391 . S
C4945 H4933 0.950 . S
C4945 C4941 1.393 . S
C4945 C4944 1.391 . S
C4946 H4936 0.950 . S
C4946 C4947 1.386 . S
C4946 C4948 1.391 . S
C4947 C4946 1.386 . S
C4947 C4951 1.393 . S
C4948 H4937 0.950 . S
C4948 C4946 1.391 . S
C4948 C4949 1.400 . S
C4949 C4943 1.491 . S
C4949 C4948 1.400 . S
C4949 C4950 1.398 . S
C4950 H4938 0.950 . S
C4950 C4949 1.398 . S
C4950 C4951 1.391 . S
C4951 H4939 0.950 . S
C4951 C4947 1.393 . S
C4951 C4950 1.391 . S
H4952 C4960 0.950 . S
H4953 C4965 0.950 . S
H4954 C4962 0.950 . S
H4955 C4964 0.950 . S
H4956 C4966 0.950 . S
H4957 C4968 0.950 . S
H4958 C4970 0.950 . S
H4959 C4971 0.950 . S
C4960 H4952 0.950 . S
C4960 C4961 1.386 . S
C4960 C4962 1.391 . S
C4961 C4960 1.386 . S
C4961 C4965 1.393 . S
C4962 H4954 0.950 . S
C4962 C4960 1.391 . S
C4962 C4963 1.400 . S
C4963 C4962 1.400 . S
C4963 C4964 1.398 . S
C4963 C4969 1.491 . S
C4964 H4955 0.950 . S
C4964 C4963 1.398 . S
C4964 C4965 1.391 . S
C4965 H4953 0.950 . S
C4965 C4961 1.393 . S
C4965 C4964 1.391 . S
C4966 H4956 0.950 . S
C4966 C4967 1.386 . S
C4966 C4968 1.391 . S
C4967 C4966 1.386 . S
C4967 C4971 1.393 . S
C4968 H4957 0.950 . S
C4968 C4966 1.391 . S
C4968 C4969 1.400 . S
C4969 C4963 1.491 . S
C4969 C4968 1.400 . S
C4969 C4970 1.398 . S
C4970 H4958 0.950 . S
C4970 C4969 1.398 . S
C4970 C4971 1.391 . S
C4971 H4959 0.950 . S
C4971 C4967 1.393 . S
C4971 C4970 1.391 . S
H4972 C4980 0.950 . S
H4973 C4985 0.950 . S
H4974 C4982 0.950 . S
H4975 C4984 0.950 . S
H4976 C4986 0.950 . S
H4977 C4988 0.950 . S
H4978 C4990 0.950 . S
H4979 C4991 0.950 . S
C4980 H4972 0.950 . S
C4980 C4981 1.386 . S
C4980 C4982 1.391 . S
C4981 C4980 1.386 . S
C4981 C4985 1.393 . S
C4982 H4974 0.950 . S
C4982 C4980 1.391 . S
C4982 C4983 1.400 . S
C4983 C4982 1.400 . S
C4983 C4984 1.398 . S
C4983 C4989 1.491 . S
C4984 H4975 0.950 . S
C4984 C4983 1.398 . S
C4984 C4985 1.391 . S
C4985 H4973 0.950 . S
C4985 C4981 1.393 . S
C4985 C4984 1.391 . S
C4986 H4976 0.950 . S
C4986 C4987 1.386 . S
C4986 C4988 1.391 . S
C4987 C4986 1.386 . S
C4987 C4991 1.393 . S
C4988 H4977 0.950 . S
C4988 C4986 1.391 . S
C4988 C4989 1.400 . S
C4989 C4983 1.491 . S
C4989 C4988 1.400 . S
C4989 C4990 1.398 . S
C4990 H4978 0.950 . S
C4990 C4989 1.398 . S
C4990 C4991 1.391 . S
C4991 H4979 0.950 . S
C4991 C4987 1.393 . S
C4991 C4990 1.391 . S
H4992 C5000 0.950 . S
H4993 C5005 0.950 . S
H4994 C5002 0.950 . S
H4995 C5004 0.950 . S
H4996 C5006 0.950 . S
H4997 C5008 0.950 . S
H4998 C5010 0.950 . S
H4999 C5011 0.950 . S
C5000 H4992 0.950 . S
C5000 C5001 1.386 . S
C5000 C5002 1.391 . S
C5001 C5000 1.386 . S
C5001 C5005 1.393 . S
C5002 H4994 0.950 . S
C5002 C5000 1.391 . S
C5002 C5003 1.400 . S
C5003 C5002 1.400 . S
C5003 C5004 1.398 . S
C5003 C5009 1.491 . S
C5004 H4995 0.950 . S
C5004 C5003 1.398 . S
C5004 C5005 1.391 . S
C5005 H4993 0.950 . S
C5005 C5001 1.393 . S
C5005 C5004 1.391 . S
C5006 H4996 0.950 . S
C5006 C5007 1.386 . S
C5006 C5008 1.391 . S
C5007 C5006 1.386 . S
C5007 C5011 1.393 . S
C5008 H4997 0.950 . S
C5008 C5006 1.391 . S
C5008 C5009 1.400 . S
C5009 C5003 1.491 . S
C5009 C5008 1.400 . S
C5009 C5010 1.398 . S
C5010 H4998 0.950 . S
C5010 C5009 1.398 . S
C5010 C5011 1.391 . S
C5011 H4999 0.950 . S
C5011 C5007 1.393 . S
C5011 C5010 1.391 . S
H5012 C5020 0.950 . S
H5013 C5025 0.950 . S
H5014 C5022 0.950 . S
H5015 C5024 0.980 . S
H5016 C5026 0.950 . S
H5017 C5028 0.950 . S
H5018 C5030 0.950 1_455 S
H5019 C5031 0.950 . S
C5020 H5012 0.950 . S
C5020 C5021 1.386 . S
C5020 C5022 1.391 . S
C5021 C5020 1.386 . S
C5021 C5025 1.393 . S
C5022 H5014 0.950 . S
C5022 C5020 1.391 . S
C5022 C5023 1.400 . S
C5023 C5022 1.400 . S
C5023 C5024 1.389 1_455 S
C5023 C5029 1.491 1_455 S
C5024 H5015 0.980 . S
C5024 C5023 1.389 1_655 S
C5024 C5025 1.371 1_655 S
C5025 H5013 0.950 . S
C5025 C5021 1.393 . S
C5025 C5024 1.371 1_455 S
C5026 H5016 0.950 . S
C5026 C5027 1.386 . S
C5026 C5028 1.391 . S
C5027 C5026 1.386 . S
C5027 C5031 1.393 . S
C5028 H5017 0.950 . S
C5028 C5026 1.391 . S
C5028 C5029 1.400 . S
C5029 C5023 1.491 1_655 S
C5029 C5028 1.400 . S
C5029 C5030 1.398 . S
C5030 H5018 0.950 1_655 S
C5030 C5029 1.398 . S
C5030 C5031 1.391 . S
C5031 H5019 0.950 . S
C5031 C5027 1.393 . S
C5031 C5030 1.391 . S
H5032 C5040 0.950 . S
H5033 C5045 0.950 . S
H5034 C5042 0.950 . S
H5035 C5044 0.950 . S
H5036 C5046 0.950 . S
H5037 C5048 0.950 . S
H5038 C5050 0.950 . S
H5039 C5051 0.950 1_545 S
C5040 H5032 0.950 . S
C5040 C5041 1.386 . S
C5040 C5042 1.391 . S
C5041 C5040 1.386 . S
C5041 C5045 1.393 . S
C5042 H5034 0.950 . S
C5042 C5040 1.391 . S
C5042 C5043 1.400 . S
C5043 C5042 1.400 . S
C5043 C5044 1.398 . S
C5043 C5049 1.491 . S
C5044 H5035 0.950 . S
C5044 C5043 1.398 . S
C5044 C5045 1.391 . S
C5045 H5033 0.950 . S
C5045 C5041 1.393 . S
C5045 C5044 1.391 . S
C5046 H5036 0.950 . S
C5046 C5047 1.386 . S
C5046 C5048 1.391 . S
C5047 C5046 1.386 . S
C5047 C5051 1.393 . S
C5048 H5037 0.950 . S
C5048 C5046 1.391 . S
C5048 C5049 1.400 . S
C5049 C5043 1.491 . S
C5049 C5048 1.400 . S
C5049 C5050 1.398 . S
C5050 H5038 0.950 . S
C5050 C5049 1.398 . S
C5050 C5051 1.391 . S
C5051 H5039 0.950 1_565 S
C5051 C5047 1.393 . S
C5051 C5050 1.391 . S
H5052 C5060 0.950 1_565 S
H5053 C5065 0.950 . S
H5054 C5062 0.950 . S
H5055 C5064 0.950 . S
H5056 C5066 0.950 . S
H5057 C5068 0.954 1_545 S
H5058 C5070 0.950 . S
H5059 C5071 0.950 . S
C5060 H5052 0.950 1_545 S
C5060 C5061 1.386 . S
C5060 C5062 1.391 1_545 S
C5061 C5060 1.386 . S
C5061 C5065 1.393 . S
C5062 H5054 0.950 . S
C5062 C5060 1.391 1_565 S
C5062 C5063 1.400 . S
C5063 C5062 1.400 . S
C5063 C5064 1.398 1_565 S
C5063 C5069 1.491 . S
C5064 H5055 0.950 . S
C5064 C5063 1.398 1_545 S
C5064 C5065 1.391 . S
C5065 H5053 0.950 . S
C5065 C5061 1.393 . S
C5065 C5064 1.391 . S
C5066 H5056 0.950 . S
C5066 C5067 1.386 . S
C5066 C5068 1.391 . S
C5067 C5066 1.386 . S
C5067 C5071 1.393 . S
C5068 H5057 0.954 1_565 S
C5068 C5066 1.391 . S
C5068 C5069 1.400 . S
C5069 C5063 1.491 . S
C5069 C5068 1.400 . S
C5069 C5070 1.398 . S
C5070 H5058 0.950 . S
C5070 C5069 1.398 . S
C5070 C5071 1.391 . S
C5071 H5059 0.950 . S
C5071 C5067 1.393 . S
C5071 C5070 1.391 . S
H5072 C5080 0.950 1_545 S
H5073 C5085 0.950 . S
H5074 C5082 0.950 . S
H5075 C5084 0.950 . S
H5076 C5086 0.950 . S
H5077 C5088 0.950 . S
H5078 C5090 0.950 . S
H5079 C5091 0.950 . S
C5080 H5072 0.950 1_565 S
C5080 C5081 1.386 . S
C5080 C5082 1.391 . S
C5081 C5080 1.386 . S
C5081 C5085 1.393 . S
C5082 H5074 0.950 . S
C5082 C5080 1.391 . S
C5082 C5083 1.400 . S
C5083 C5082 1.400 . S
C5083 C5084 1.398 . S
C5083 C5089 1.491 . S
C5084 H5075 0.950 . S
C5084 C5083 1.398 . S
C5084 C5085 1.391 . S
C5085 H5073 0.950 . S
C5085 C5081 1.393 . S
C5085 C5084 1.391 . S
C5086 H5076 0.950 . S
C5086 C5087 1.386 . S
C5086 C5088 1.391 . S
C5087 C5086 1.386 . S
C5087 C5091 1.393 . S
C5088 H5077 0.950 . S
C5088 C5086 1.391 . S
C5088 C5089 1.400 . S
C5089 C5083 1.491 . S
C5089 C5088 1.400 . S
C5089 C5090 1.398 . S
C5090 H5078 0.950 . S
C5090 C5089 1.398 . S
C5090 C5091 1.391 . S
C5091 H5079 0.950 . S
C5091 C5087 1.393 . S
C5091 C5090 1.391 . S
H5092 C5100 0.950 . S
H5093 C5105 0.950 . S
H5094 C5102 0.950 . S
H5095 C5104 0.950 . S
H5096 C5106 0.950 . S
H5097 C5108 0.950 . S
H5098 C5110 0.950 . S
H5099 C5111 0.950 . S
C5100 H5092 0.950 . S
C5100 C5101 1.386 . S
C5100 C5102 1.391 . S
C5101 C5100 1.386 . S
C5101 C5105 1.393 . S
C5102 H5094 0.950 . S
C5102 C5100 1.391 . S
C5102 C5103 1.400 . S
C5103 C5102 1.400 . S
C5103 C5104 1.398 . S
C5103 C5109 1.491 . S
C5104 H5095 0.950 . S
C5104 C5103 1.398 . S
C5104 C5105 1.391 . S
C5105 H5093 0.950 . S
C5105 C5101 1.393 . S
C5105 C5104 1.391 . S
C5106 H5096 0.950 . S
C5106 C5107 1.386 . S
C5106 C5108 1.391 . S
C5107 C5106 1.386 . S
C5107 C5111 1.393 . S
C5108 H5097 0.950 . S
C5108 C5106 1.391 . S
C5108 C5109 1.400 . S
C5109 C5103 1.491 . S
C5109 C5108 1.400 . S
C5109 C5110 1.398 . S
C5110 H5098 0.950 . S
C5110 C5109 1.398 . S
C5110 C5111 1.391 . S
C5111 H5099 0.950 . S
C5111 C5107 1.393 . S
C5111 C5110 1.391 . S
H5112 C5120 0.954 . S
H5113 C5125 0.950 . S
H5114 C5122 0.950 . S
H5115 C5124 0.950 . S
H5116 C5126 0.950 . S
H5117 C5128 0.950 . S
H5118 C5130 0.950 . S
H5119 C5131 0.950 . S
C5120 H5112 0.954 . S
C5120 C5121 1.386 . S
C5120 C5122 1.391 1_455 S
C5121 C5120 1.386 . S
C5121 C5125 1.393 . S
C5122 H5114 0.950 . S
C5122 C5120 1.391 1_655 S
C5122 C5123 1.400 . S
C5123 C5122 1.400 . S
C5123 C5124 1.398 1_655 S
C5123 C5129 1.491 . S
C5124 H5115 0.950 . S
C5124 C5123 1.398 1_455 S
C5124 C5125 1.391 . S
C5125 H5113 0.950 . S
C5125 C5121 1.393 . S
C5125 C5124 1.391 . S
C5126 H5116 0.950 . S
C5126 C5127 1.386 . S
C5126 C5128 1.391 . S
C5127 C5126 1.386 . S
C5127 C5131 1.393 . S
C5128 H5117 0.950 . S
C5128 C5126 1.391 . S
C5128 C5129 1.400 . S
C5129 C5123 1.491 . S
C5129 C5128 1.400 . S
C5129 C5130 1.398 . S
C5130 H5118 0.950 . S
C5130 C5129 1.398 . S
C5130 C5131 1.391 . S
C5131 H5119 0.950 . S
C5131 C5127 1.393 . S
C5131 C5130 1.391 . S
H5132 C5140 0.950 . S
H5133 C5145 0.950 . S
H5134 C5142 0.950 . S
H5135 C5144 0.950 . S
H5136 C5146 0.950 . S
H5137 C5148 0.950 . S
H5138 C5150 0.950 . S
H5139 C5151 0.950 . S
C5140 H5132 0.950 . S
C5140 C5141 1.386 . S
C5140 C5142 1.391 . S
C5141 C5140 1.386 . S
C5141 C5145 1.393 . S
C5142 H5134 0.950 . S
C5142 C5140 1.391 . S
C5142 C5143 1.400 . S
C5143 C5142 1.400 . S
C5143 C5144 1.398 . S
C5143 C5149 1.491 . S
C5144 H5135 0.950 . S
C5144 C5143 1.398 . S
C5144 C5145 1.391 . S
C5145 H5133 0.950 . S
C5145 C5141 1.393 . S
C5145 C5144 1.391 . S
C5146 H5136 0.950 . S
C5146 C5147 1.386 . S
C5146 C5148 1.391 . S
C5147 C5146 1.386 . S
C5147 C5151 1.393 . S
C5148 H5137 0.950 . S
C5148 C5146 1.391 . S
C5148 C5149 1.400 . S
C5149 C5143 1.491 . S
C5149 C5148 1.400 . S
C5149 C5150 1.398 . S
C5150 H5138 0.950 . S
C5150 C5149 1.398 . S
C5150 C5151 1.391 . S
C5151 H5139 0.950 . S
C5151 C5147 1.393 . S
C5151 C5150 1.391 . S
H5152 C5160 0.950 . S
H5153 C5165 0.950 . S
H5154 C5162 0.950 . S
H5155 C5164 0.950 . S
H5156 C5166 0.950 . S
H5157 C5168 0.950 . S
H5158 C5170 0.950 . S
H5159 C5171 0.950 . S
C5160 H5152 0.950 . S
C5160 C5161 1.386 . S
C5160 C5162 1.391 . S
C5161 C5160 1.386 . S
C5161 C5165 1.393 . S
C5162 H5154 0.950 . S
C5162 C5160 1.391 . S
C5162 C5163 1.400 . S
C5163 C5162 1.400 . S
C5163 C5164 1.398 . S
C5163 C5169 1.491 . S
C5164 H5155 0.950 . S
C5164 C5163 1.398 . S
C5164 C5165 1.391 . S
C5165 H5153 0.950 . S
C5165 C5161 1.393 . S
C5165 C5164 1.391 . S
C5166 H5156 0.950 . S
C5166 C5167 1.386 . S
C5166 C5168 1.391 . S
C5167 C5166 1.386 . S
C5167 C5171 1.393 . S
C5168 H5157 0.950 . S
C5168 C5166 1.391 . S
C5168 C5169 1.400 . S
C5169 C5163 1.491 . S
C5169 C5168 1.400 . S
C5169 C5170 1.398 . S
C5170 H5158 0.950 . S
C5170 C5169 1.398 . S
C5170 C5171 1.391 . S
C5171 H5159 0.950 . S
C5171 C5167 1.393 . S
C5171 C5170 1.391 . S
H5172 C5180 0.950 . S
H5173 C5185 0.950 . S
H5174 C5182 0.950 . S
H5175 C5184 0.950 . S
H5176 C5186 0.950 . S
H5177 C5188 0.950 . S
H5178 C5190 0.950 . S
H5179 C5191 0.950 . S
C5180 H5172 0.950 . S
C5180 C5181 1.386 1_655 S
C5180 C5182 1.391 . S
C5181 C5180 1.386 1_455 S
C5181 C5185 1.393 . S
C5182 H5174 0.950 . S
C5182 C5180 1.391 . S
C5182 C5183 1.400 . S
C5183 C5182 1.400 . S
C5183 C5184 1.398 1_655 S
C5183 C5189 1.491 . S
C5184 H5175 0.950 . S
C5184 C5183 1.398 1_455 S
C5184 C5185 1.391 . S
C5185 H5173 0.950 . S
C5185 C5181 1.393 . S
C5185 C5184 1.391 . S
C5186 H5176 0.950 . S
C5186 C5187 1.386 . S
C5186 C5188 1.391 . S
C5187 C5186 1.386 . S
C5187 C5191 1.393 . S
C5188 H5177 0.950 . S
C5188 C5186 1.391 . S
C5188 C5189 1.400 . S
C5189 C5183 1.491 . S
C5189 C5188 1.400 . S
C5189 C5190 1.398 . S
C5190 H5178 0.950 . S
C5190 C5189 1.398 . S
C5190 C5191 1.391 . S
C5191 H5179 0.950 . S
C5191 C5187 1.393 . S
C5191 C5190 1.391 . S
H5192 C5200 0.950 . S
H5193 C5205 0.950 . S
H5194 C5202 0.950 . S
H5195 C5204 0.950 . S
H5196 C5206 0.950 . S
H5197 C5208 0.950 . S
H5198 C5210 0.950 . S
H5199 C5211 0.950 . S
C5200 H5192 0.950 . S
C5200 C5201 1.386 1_545 S
C5200 C5202 1.391 1_545 S
C5201 C5200 1.386 1_565 S
C5201 C5205 1.393 . S
C5202 H5194 0.950 . S
C5202 C5200 1.391 1_565 S
C5202 C5203 1.400 . S
C5203 C5202 1.400 . S
C5203 C5204 1.398 . S
C5203 C5209 1.491 . S
C5204 H5195 0.950 . S
C5204 C5203 1.398 . S
C5204 C5205 1.391 . S
C5205 H5193 0.950 . S
C5205 C5201 1.393 . S
C5205 C5204 1.391 . S
C5206 H5196 0.950 . S
C5206 C5207 1.386 . S
C5206 C5208 1.391 . S
C5207 C5206 1.386 . S
C5207 C5211 1.393 . S
C5208 H5197 0.950 . S
C5208 C5206 1.391 . S
C5208 C5209 1.400 . S
C5209 C5203 1.491 . S
C5209 C5208 1.400 . S
C5209 C5210 1.398 . S
C5210 H5198 0.950 . S
C5210 C5209 1.398 . S
C5210 C5211 1.391 . S
C5211 H5199 0.950 . S
C5211 C5207 1.393 . S
C5211 C5210 1.391 . S
H5212 C5220 0.950 . S
H5213 C5225 0.950 . S
H5214 C5222 0.950 . S
H5215 C5224 0.950 . S
H5216 C5226 0.950 . S
H5217 C5228 0.950 . S
H5218 C5230 0.950 . S
H5219 C5231 0.950 . S
C5220 H5212 0.950 . S
C5220 C5221 1.386 . S
C5220 C5222 1.391 . S
C5221 C5220 1.386 . S
C5221 C5225 1.393 . S
C5222 H5214 0.950 . S
C5222 C5220 1.391 . S
C5222 C5223 1.400 . S
C5223 C5222 1.400 . S
C5223 C5224 1.398 . S
C5223 C5229 1.491 . S
C5224 H5215 0.950 . S
C5224 C5223 1.398 . S
C5224 C5225 1.391 . S
C5225 H5213 0.950 . S
C5225 C5221 1.393 . S
C5225 C5224 1.391 . S
C5226 H5216 0.950 . S
C5226 C5227 1.386 . S
C5226 C5228 1.391 . S
C5227 C5226 1.386 . S
C5227 C5231 1.393 . S
C5228 H5217 0.950 . S
C5228 C5226 1.391 . S
C5228 C5229 1.400 . S
C5229 C5223 1.491 . S
C5229 C5228 1.400 . S
C5229 C5230 1.398 . S
C5230 H5218 0.950 . S
C5230 C5229 1.398 . S
C5230 C5231 1.391 . S
C5231 H5219 0.950 . S
C5231 C5227 1.393 . S
C5231 C5230 1.391 . S
H5232 C5240 0.950 . S
H5233 C5245 0.950 . S
H5234 C5242 0.950 . S
H5235 C5244 0.950 . S
H5236 C5246 0.950 . S
H5237 C5248 0.950 . S
H5238 C5250 0.950 . S
H5239 C5251 0.950 . S
C5240 H5232 0.950 . S
C5240 C5241 1.386 . S
C5240 C5242 1.391 . S
C5241 C5240 1.386 . S
C5241 C5245 1.393 1_545 S
C5242 H5234 0.950 . S
C5242 C5240 1.391 . S
C5242 C5243 1.400 1_545 S
C5243 C5242 1.400 1_565 S
C5243 C5244 1.398 . S
C5243 C5249 1.491 . S
C5244 H5235 0.950 . S
C5244 C5243 1.398 . S
C5244 C5245 1.391 . S
C5245 H5233 0.950 . S
C5245 C5241 1.393 1_565 S
C5245 C5244 1.391 . S
C5246 H5236 0.950 . S
C5246 C5247 1.386 . S
C5246 C5248 1.391 . S
C5247 C5246 1.386 . S
C5247 C5251 1.393 . S
C5248 H5237 0.950 . S
C5248 C5246 1.391 . S
C5248 C5249 1.400 . S
C5249 C5243 1.491 . S
C5249 C5248 1.400 . S
C5249 C5250 1.398 . S
C5250 H5238 0.950 . S
C5250 C5249 1.398 . S
C5250 C5251 1.391 . S
C5251 H5239 0.950 . S
C5251 C5247 1.393 . S
C5251 C5250 1.391 . S
H5252 C5260 0.950 . S
H5253 C5265 0.950 . S
H5254 C5262 0.950 . S
H5255 C5264 0.952 1_554 S
H5256 C5266 0.950 . S
H5257 C5268 0.950 . S
H5258 C5270 0.950 . S
H5259 C5271 0.950 . S
C5260 H5252 0.950 . S
C5260 C5261 1.386 . S
C5260 C5262 1.391 . S
C5261 C5260 1.386 . S
C5261 C5265 1.393 1_556 S
C5262 H5254 0.950 . S
C5262 C5260 1.391 . S
C5262 C5263 1.400 . S
C5263 C5262 1.400 . S
C5263 C5264 1.398 . S
C5263 C5269 1.491 . S
C5264 H5255 0.952 1_556 S
C5264 C5263 1.398 . S
C5264 C5265 1.391 1_556 S
C5265 H5253 0.950 . S
C5265 C5261 1.393 1_554 S
C5265 C5264 1.391 1_554 S
C5266 H5256 0.950 . S
C5266 C5267 1.386 . S
C5266 C5268 1.391 . S
C5267 C5266 1.386 . S
C5267 C5271 1.393 . S
C5268 H5257 0.950 . S
C5268 C5266 1.391 . S
C5268 C5269 1.400 . S
C5269 C5263 1.491 . S
C5269 C5268 1.400 . S
C5269 C5270 1.398 . S
C5270 H5258 0.950 . S
C5270 C5269 1.398 . S
C5270 C5271 1.391 . S
C5271 H5259 0.950 . S
C5271 C5267 1.393 . S
C5271 C5270 1.391 . S
H5272 C5280 0.950 . S
H5273 C5285 0.950 . S
H5274 C5282 0.950 . S
H5275 C5284 0.950 . S
H5276 C5286 0.950 . S
H5277 C5288 0.950 . S
H5278 C5290 0.950 . S
H5279 C5291 0.950 . S
C5280 H5272 0.950 . S
C5280 C5281 1.386 . S
C5280 C5282 1.391 . S
C5281 C5280 1.386 . S
C5281 C5285 1.393 . S
C5282 H5274 0.950 . S
C5282 C5280 1.391 . S
C5282 C5283 1.400 . S
C5283 C5282 1.400 . S
C5283 C5284 1.398 . S
C5283 C5289 1.491 . S
C5284 H5275 0.950 . S
C5284 C5283 1.398 . S
C5284 C5285 1.391 . S
C5285 H5273 0.950 . S
C5285 C5281 1.393 . S
C5285 C5284 1.391 . S
C5286 H5276 0.950 . S
C5286 C5287 1.386 . S
C5286 C5288 1.391 . S
C5287 C5286 1.386 . S
C5287 C5291 1.393 . S
C5288 H5277 0.950 . S
C5288 C5286 1.391 . S
C5288 C5289 1.400 . S
C5289 C5283 1.491 . S
C5289 C5288 1.400 . S
C5289 C5290 1.398 . S
C5290 H5278 0.950 . S
C5290 C5289 1.398 . S
C5290 C5291 1.391 . S
C5291 H5279 0.950 . S
C5291 C5287 1.393 . S
C5291 C5290 1.391 . S
H5292 C5300 0.950 . S
H5293 C5305 0.950 . S
H5294 C5302 0.950 . S
H5295 C5304 0.950 1_455 S
H5296 C5306 0.935 1_554 S
H5297 C5308 0.950 . S
H5298 C5310 0.950 . S
H5299 C5311 0.950 . S
C5300 H5292 0.950 . S
C5300 C5301 1.386 . S
C5300 C5302 1.391 . S
C5301 C5300 1.386 . S
C5301 C5305 1.393 1_655 S
C5302 H5294 0.950 . S
C5302 C5300 1.391 . S
C5302 C5303 1.400 . S
C5303 C5302 1.400 . S
C5303 C5304 1.398 . S
C5303 C5309 1.491 . S
C5304 H5295 0.950 1_655 S
C5304 C5303 1.398 . S
C5304 C5305 1.391 1_655 S
C5305 H5293 0.950 . S
C5305 C5301 1.393 1_455 S
C5305 C5304 1.391 1_455 S
C5306 H5296 0.935 1_556 S
C5306 C5307 1.384 . S
C5306 C5308 1.404 . S
C5307 C5306 1.384 . S
C5307 C5311 1.448 . S
C5308 H5297 0.950 . S
C5308 C5306 1.404 . S
C5308 C5309 1.400 . S
C5309 C5303 1.491 . S
C5309 C5308 1.400 . S
C5309 C5310 1.398 . S
C5310 H5298 0.950 . S
C5310 C5309 1.398 . S
C5310 C5311 1.391 . S
C5311 H5299 0.950 . S
C5311 C5307 1.448 . S
C5311 C5310 1.391 . S
H5312 C5320 0.950 . S
H5313 C5325 0.950 . S
H5314 C5322 0.950 . S
H5315 C5324 0.950 . S
H5316 C5326 0.950 . S
H5317 C5328 0.950 . S
H5318 C5330 0.950 . S
H5319 C5331 0.950 . S
C5320 H5312 0.950 . S
C5320 C5321 1.386 . S
C5320 C5322 1.391 . S
C5321 C5320 1.386 . S
C5321 C5325 1.393 . S
C5322 H5314 0.950 . S
C5322 C5320 1.391 . S
C5322 C5323 1.400 . S
C5323 C5322 1.400 . S
C5323 C5324 1.398 . S
C5323 C5329 1.491 . S
C5324 H5315 0.950 . S
C5324 C5323 1.398 . S
C5324 C5325 1.391 . S
C5325 H5313 0.950 . S
C5325 C5321 1.393 . S
C5325 C5324 1.391 . S
C5326 H5316 0.950 . S
C5326 C5327 1.386 . S
C5326 C5328 1.391 . S
C5327 C5326 1.386 . S
C5327 C5331 1.393 . S
C5328 H5317 0.950 . S
C5328 C5326 1.391 . S
C5328 C5329 1.400 . S
C5329 C5323 1.491 . S
C5329 C5328 1.400 . S
C5329 C5330 1.398 . S
C5330 H5318 0.950 . S
C5330 C5329 1.398 . S
C5330 C5331 1.391 . S
C5331 H5319 0.950 . S
C5331 C5327 1.393 . S
C5331 C5330 1.391 . S
H5332 C5340 0.950 . S
H5333 C5345 0.950 . S
H5334 C5342 0.950 . S
H5335 C5344 0.950 . S
H5336 C5346 0.950 . S
H5337 C5348 0.950 . S
H5338 C5350 0.950 . S
H5339 C5351 0.950 . S
C5340 H5332 0.950 . S
C5340 C5341 1.386 . S
C5340 C5342 1.391 . S
C5341 C5340 1.386 . S
C5341 C5345 1.393 . S
C5342 H5334 0.950 . S
C5342 C5340 1.391 . S
C5342 C5343 1.400 . S
C5343 C5342 1.400 . S
C5343 C5344 1.398 . S
C5343 C5349 1.491 . S
C5344 H5335 0.950 . S
C5344 C5343 1.398 . S
C5344 C5345 1.391 . S
C5345 H5333 0.950 . S
C5345 C5341 1.393 . S
C5345 C5344 1.391 . S
C5346 H5336 0.950 . S
C5346 C5347 1.386 . S
C5346 C5348 1.391 . S
C5347 C5346 1.386 . S
C5347 C5351 1.393 . S
C5348 H5337 0.950 . S
C5348 C5346 1.391 . S
C5348 C5349 1.400 . S
C5349 C5343 1.491 . S
C5349 C5348 1.400 . S
C5349 C5350 1.398 . S
C5350 H5338 0.950 . S
C5350 C5349 1.398 . S
C5350 C5351 1.391 . S
C5351 H5339 0.950 . S
C5351 C5347 1.393 . S
C5351 C5350 1.391 . S
H5352 C5360 0.950 . S
H5353 C5365 0.950 . S
H5354 C5362 0.950 . S
H5355 C5364 0.950 . S
H5356 C5366 0.950 . S
H5357 C5368 0.950 . S
H5358 C5370 0.950 . S
H5359 C5371 0.950 . S
C5360 H5352 0.950 . S
C5360 C5361 1.386 . S
C5360 C5362 1.391 1_554 S
C5361 C5360 1.386 . S
C5361 C5365 1.393 1_554 S
C5362 H5354 0.950 . S
C5362 C5360 1.391 1_556 S
C5362 C5363 1.400 . S
C5363 C5362 1.400 . S
C5363 C5364 1.398 . S
C5363 C5369 1.491 . S
C5364 H5355 0.950 . S
C5364 C5363 1.398 . S
C5364 C5365 1.391 . S
C5365 H5353 0.950 . S
C5365 C5361 1.393 1_556 S
C5365 C5364 1.391 . S
C5366 H5356 0.950 . S
C5366 C5367 1.386 . S
C5366 C5368 1.391 . S
C5367 C5366 1.386 . S
C5367 C5371 1.393 . S
C5368 H5357 0.950 . S
C5368 C5366 1.391 . S
C5368 C5369 1.400 . S
C5369 C5363 1.491 . S
C5369 C5368 1.400 . S
C5369 C5370 1.398 . S
C5370 H5358 0.950 . S
C5370 C5369 1.398 . S
C5370 C5371 1.391 . S
C5371 H5359 0.950 . S
C5371 C5367 1.393 . S
C5371 C5370 1.391 . S
H5372 C5380 0.950 . S
H5373 C5385 0.950 . S
H5374 C5382 0.950 . S
H5375 C5384 0.950 . S
H5376 C5386 0.950 . S
H5377 C5388 0.950 . S
H5378 C5390 0.950 . S
H5379 C5391 0.950 1_554 S
C5380 H5372 0.950 . S
C5380 C5381 1.386 . S
C5380 C5382 1.391 1_455 S
C5381 C5380 1.386 . S
C5381 C5385 1.393 1_455 S
C5382 H5374 0.950 . S
C5382 C5380 1.391 1_655 S
C5382 C5383 1.400 . S
C5383 C5382 1.400 . S
C5383 C5384 1.398 . S
C5383 C5389 1.491 . S
C5384 H5375 0.950 . S
C5384 C5383 1.398 . S
C5384 C5385 1.391 . S
C5385 H5373 0.950 . S
C5385 C5381 1.393 1_655 S
C5385 C5384 1.391 . S
C5386 H5376 0.950 . S
C5386 C5387 1.386 . S
C5386 C5388 1.391 . S
C5387 C5386 1.386 . S
C5387 C5391 1.393 . S
C5388 H5377 0.950 . S
C5388 C5386 1.391 . S
C5388 C5389 1.400 . S
C5389 C5383 1.491 . S
C5389 C5388 1.400 . S
C5389 C5390 1.398 . S
C5390 H5378 0.950 . S
C5390 C5389 1.398 . S
C5390 C5391 1.391 . S
C5391 H5379 0.950 1_556 S
C5391 C5387 1.393 . S
C5391 C5390 1.391 . S
H5392 C5400 0.950 . S
H5393 C5405 0.950 . S
H5394 C5402 0.950 . S
H5395 C5404 0.950 . S
H5396 C5406 0.950 . S
H5397 C5408 0.950 . S
H5398 C5410 0.950 . S
H5399 C5411 0.950 . S
C5400 H5392 0.950 . S
C5400 C5401 1.386 . S
C5400 C5402 1.391 . S
C5401 C5400 1.386 . S
C5401 C5405 1.393 . S
C5402 H5394 0.950 . S
C5402 C5400 1.391 . S
C5402 C5403 1.400 . S
C5403 C5402 1.400 . S
C5403 C5404 1.398 . S
C5403 C5409 1.491 . S
C5404 H5395 0.950 . S
C5404 C5403 1.398 . S
C5404 C5405 1.391 . S
C5405 H5393 0.950 . S
C5405 C5401 1.393 . S
C5405 C5404 1.391 . S
C5406 H5396 0.950 . S
C5406 C5407 1.386 . S
C5406 C5408 1.391 . S
C5407 C5406 1.386 . S
C5407 C5411 1.393 . S
C5408 H5397 0.950 . S
C5408 C5406 1.391 . S
C5408 C5409 1.400 . S
C5409 C5403 1.491 . S
C5409 C5408 1.400 . S
C5409 C5410 1.398 . S
C5410 H5398 0.950 . S
C5410 C5409 1.398 . S
C5410 C5411 1.391 . S
C5411 H5399 0.950 . S
C5411 C5407 1.393 . S
C5411 C5410 1.391 . S
H5412 C5420 0.950 . S
H5413 C5425 0.950 . S
H5414 C5422 0.950 . S
H5415 C5424 0.950 . S
H5416 C5426 0.950 . S
H5417 C5428 0.950 . S
H5418 C5430 0.950 . S
H5419 C5431 0.950 . S
C5420 H5412 0.950 . S
C5420 C5421 1.386 . S
C5420 C5422 1.391 . S
C5421 C5420 1.386 . S
C5421 C5425 1.393 . S
C5422 H5414 0.950 . S
C5422 C5420 1.391 . S
C5422 C5423 1.400 . S
C5423 C5422 1.400 . S
C5423 C5424 1.398 . S
C5423 C5429 1.491 . S
C5424 H5415 0.950 . S
C5424 C5423 1.398 . S
C5424 C5425 1.391 . S
C5425 H5413 0.950 . S
C5425 C5421 1.393 . S
C5425 C5424 1.391 . S
C5426 H5416 0.950 . S
C5426 C5427 1.386 . S
C5426 C5428 1.391 . S
C5427 C5426 1.386 . S
C5427 C5431 1.393 . S
C5428 H5417 0.950 . S
C5428 C5426 1.391 . S
C5428 C5429 1.400 . S
C5429 C5423 1.491 . S
C5429 C5428 1.400 . S
C5429 C5430 1.398 . S
C5430 H5418 0.950 . S
C5430 C5429 1.398 . S
C5430 C5431 1.391 . S
C5431 H5419 0.950 . S
C5431 C5427 1.393 . S
C5431 C5430 1.391 . S
H5432 C5440 0.950 . S
H5433 C5445 0.950 . S
H5434 C5442 0.950 . S
H5435 C5444 0.950 . S
H5436 C5446 0.950 . S
H5437 C5448 0.950 . S
H5438 C5450 0.950 . S
H5439 C5451 0.950 . S
C5440 H5432 0.950 . S
C5440 C5441 1.386 . S
C5440 C5442 1.391 1_545 S
C5441 C5440 1.386 . S
C5441 C5445 1.393 . S
C5442 H5434 0.950 . S
C5442 C5440 1.391 1_565 S
C5442 C5443 1.400 . S
C5443 C5442 1.400 . S
C5443 C5444 1.398 . S
C5443 C5449 1.491 . S
C5444 H5435 0.950 . S
C5444 C5443 1.398 . S
C5444 C5445 1.391 1_565 S
C5445 H5433 0.950 . S
C5445 C5441 1.393 . S
C5445 C5444 1.391 1_545 S
C5446 H5436 0.950 . S
C5446 C5447 1.386 . S
C5446 C5448 1.391 . S
C5447 C5446 1.386 . S
C5447 C5451 1.393 . S
C5448 H5437 0.950 . S
C5448 C5446 1.391 . S
C5448 C5449 1.400 . S
C5449 C5443 1.491 . S
C5449 C5448 1.400 . S
C5449 C5450 1.398 . S
C5450 H5438 0.950 . S
C5450 C5449 1.398 . S
C5450 C5451 1.391 . S
C5451 H5439 0.950 . S
C5451 C5447 1.393 . S
C5451 C5450 1.391 . S
H5452 C5460 0.950 . S
H5453 C5465 0.950 . S
H5454 C5462 0.950 . S
H5455 C5464 0.950 . S
H5456 C5466 0.950 . S
H5457 C5468 0.950 . S
H5458 C5470 0.950 . S
H5459 C5471 0.950 . S
C5460 H5452 0.950 . S
C5460 C5461 1.386 . S
C5460 C5462 1.391 . S
C5461 C5460 1.386 . S
C5461 C5465 1.393 . S
C5462 H5454 0.950 . S
C5462 C5460 1.391 . S
C5462 C5463 1.400 . S
C5463 C5462 1.400 . S
C5463 C5464 1.398 . S
C5463 C5469 1.491 . S
C5464 H5455 0.950 . S
C5464 C5463 1.398 . S
C5464 C5465 1.391 . S
C5465 H5453 0.950 . S
C5465 C5461 1.393 . S
C5465 C5464 1.391 . S
C5466 H5456 0.950 . S
C5466 C5467 1.386 . S
C5466 C5468 1.391 . S
C5467 C5466 1.386 . S
C5467 C5471 1.393 . S
C5468 H5457 0.950 . S
C5468 C5466 1.391 . S
C5468 C5469 1.400 . S
C5469 C5463 1.491 . S
C5469 C5468 1.400 . S
C5469 C5470 1.398 . S
C5470 H5458 0.950 . S
C5470 C5469 1.398 . S
C5470 C5471 1.391 . S
C5471 H5459 0.950 . S
C5471 C5467 1.393 . S
C5471 C5470 1.391 . S
H5472 C5480 0.950 . S
H5473 C5485 0.950 . S
H5474 C5482 0.950 . S
H5475 C5484 0.950 . S
H5476 C5486 0.950 . S
H5477 C5488 0.950 . S
H5478 C5490 0.950 . S
H5479 C5491 0.950 . S
C5480 H5472 0.950 . S
C5480 C5481 1.386 . S
C5480 C5482 1.391 . S
C5481 C5480 1.386 . S
C5481 C5485 1.393 . S
C5482 H5474 0.950 . S
C5482 C5480 1.391 . S
C5482 C5483 1.400 . S
C5483 C5482 1.400 . S
C5483 C5484 1.398 . S
C5483 C5489 1.491 . S
C5484 H5475 0.950 . S
C5484 C5483 1.398 . S
C5484 C5485 1.391 . S
C5485 H5473 0.950 . S
C5485 C5481 1.393 . S
C5485 C5484 1.391 . S
C5486 H5476 0.950 . S
C5486 C5487 1.386 . S
C5486 C5488 1.391 . S
C5487 C5486 1.386 . S
C5487 C5491 1.393 . S
C5488 H5477 0.950 . S
C5488 C5486 1.391 . S
C5488 C5489 1.400 . S
C5489 C5483 1.491 . S
C5489 C5488 1.400 . S
C5489 C5490 1.398 . S
C5490 H5478 0.950 . S
C5490 C5489 1.398 . S
C5490 C5491 1.391 . S
C5491 H5479 0.950 . S
C5491 C5487 1.393 . S
C5491 C5490 1.391 . S
H5492 C5500 0.950 . S
H5493 C5505 0.950 . S
H5494 C5502 0.950 . S
H5495 C5504 0.950 . S
H5496 C5506 0.950 . S
H5497 C5508 0.950 . S
H5498 C5510 0.950 . S
H5499 C5511 0.950 . S
C5500 H5492 0.950 . S
C5500 C5501 1.386 . S
C5500 C5502 1.391 . S
C5501 C5500 1.386 . S
C5501 C5505 1.393 . S
C5502 H5494 0.950 . S
C5502 C5500 1.391 . S
C5502 C5503 1.400 . S
C5503 C5502 1.400 . S
C5503 C5504 1.398 . S
C5503 C5509 1.491 . S
C5504 H5495 0.950 . S
C5504 C5503 1.398 . S
C5504 C5505 1.391 . S
C5505 H5493 0.950 . S
C5505 C5501 1.393 . S
C5505 C5504 1.391 . S
C5506 H5496 0.950 . S
C5506 C5507 1.386 . S
C5506 C5508 1.391 . S
C5507 C5506 1.386 . S
C5507 C5511 1.393 . S
C5508 H5497 0.950 . S
C5508 C5506 1.391 . S
C5508 C5509 1.400 . S
C5509 C5503 1.491 . S
C5509 C5508 1.400 . S
C5509 C5510 1.398 . S
C5510 H5498 0.950 . S
C5510 C5509 1.398 . S
C5510 C5511 1.391 . S
C5511 H5499 0.950 . S
C5511 C5507 1.393 . S
C5511 C5510 1.391 . S
H5512 C5520 0.950 . S
H5513 C5525 0.950 . S
H5514 C5522 0.950 . S
H5515 C5524 0.950 . S
H5516 C5526 0.950 . S
H5517 C5528 0.950 . S
H5518 C5530 0.950 . S
H5519 C5531 0.950 . S
C5520 H5512 0.950 . S
C5520 C5521 1.386 . S
C5520 C5522 1.391 . S
C5521 C5520 1.386 . S
C5521 C5525 1.393 . S
C5522 H5514 0.950 . S
C5522 C5520 1.391 . S
C5522 C5523 1.400 . S
C5523 C5522 1.400 . S
C5523 C5524 1.398 . S
C5523 C5529 1.491 . S
C5524 H5515 0.950 . S
C5524 C5523 1.398 . S
C5524 C5525 1.391 . S
C5525 H5513 0.950 . S
C5525 C5521 1.393 . S
C5525 C5524 1.391 . S
C5526 H5516 0.950 . S
C5526 C5527 1.386 . S
C5526 C5528 1.391 . S
C5527 C5526 1.386 . S
C5527 C5531 1.393 . S
C5528 H5517 0.950 . S
C5528 C5526 1.391 . S
C5528 C5529 1.400 . S
C5529 C5523 1.491 . S
C5529 C5528 1.400 . S
C5529 C5530 1.398 . S
C5530 H5518 0.950 . S
C5530 C5529 1.398 . S
C5530 C5531 1.391 . S
C5531 H5519 0.950 . S
C5531 C5527 1.393 . S
C5531 C5530 1.391 . S
H5532 C5540 0.950 . S
H5533 C5545 0.950 . S
H5534 C5542 0.950 . S
H5535 C5544 0.950 . S
H5536 C5546 0.950 . S
H5537 C5548 0.950 . S
H5538 C5550 0.950 . S
H5539 C5551 0.950 . S
C5540 H5532 0.950 . S
C5540 C5541 1.386 . S
C5540 C5542 1.391 . S
C5541 C5540 1.386 . S
C5541 C5545 1.393 . S
C5542 H5534 0.950 . S
C5542 C5540 1.391 . S
C5542 C5543 1.400 . S
C5543 C5542 1.400 . S
C5543 C5544 1.398 . S
C5543 C5549 1.491 . S
C5544 H5535 0.950 . S
C5544 C5543 1.398 . S
C5544 C5545 1.391 . S
C5545 H5533 0.950 . S
C5545 C5541 1.393 . S
C5545 C5544 1.391 . S
C5546 H5536 0.950 . S
C5546 C5547 1.386 . S
C5546 C5548 1.391 . S
C5547 C5546 1.386 . S
C5547 C5551 1.393 . S
C5548 H5537 0.950 . S
C5548 C5546 1.391 . S
C5548 C5549 1.400 . S
C5549 C5543 1.491 . S
C5549 C5548 1.400 . S
C5549 C5550 1.398 . S
C5550 H5538 0.950 . S
C5550 C5549 1.398 . S
C5550 C5551 1.391 . S
C5551 H5539 0.950 . S
C5551 C5547 1.393 . S
C5551 C5550 1.391 . S
H5552 C5560 0.950 . S
H5553 C5565 0.950 . S
H5554 C5562 0.950 . S
H5555 C5564 0.950 . S
H5556 C5566 0.950 . S
H5557 C5568 0.950 . S
H5558 C5570 0.950 . S
H5559 C5571 0.950 . S
C5560 H5552 0.950 . S
C5560 C5561 1.386 . S
C5560 C5562 1.391 . S
C5561 C5560 1.386 . S
C5561 C5565 1.393 . S
C5562 H5554 0.950 . S
C5562 C5560 1.391 . S
C5562 C5563 1.400 . S
C5563 C5562 1.400 . S
C5563 C5564 1.398 . S
C5563 C5569 1.491 . S
C5564 H5555 0.950 . S
C5564 C5563 1.398 . S
C5564 C5565 1.391 . S
C5565 H5553 0.950 . S
C5565 C5561 1.393 . S
C5565 C5564 1.391 . S
C5566 H5556 0.950 . S
C5566 C5567 1.386 . S
C5566 C5568 1.391 . S
C5567 C5566 1.386 . S
C5567 C5571 1.393 . S
C5568 H5557 0.950 . S
C5568 C5566 1.391 . S
C5568 C5569 1.400 . S
C5569 C5563 1.491 . S
C5569 C5568 1.400 . S
C5569 C5570 1.398 . S
C5570 H5558 0.950 . S
C5570 C5569 1.398 . S
C5570 C5571 1.391 . S
C5571 H5559 0.950 . S
C5571 C5567 1.393 . S
C5571 C5570 1.391 . S
H5572 C5580 0.950 . S
H5573 C5585 0.950 . S
H5574 C5582 0.950 . S
H5575 C5584 0.950 . S
H5576 C5586 0.950 . S
H5577 C5588 0.950 . S
H5578 C5590 0.950 . S
H5579 C5591 0.950 . S
C5580 H5572 0.950 . S
C5580 C5581 1.386 . S
C5580 C5582 1.391 . S
C5581 C5580 1.386 . S
C5581 C5585 1.393 . S
C5582 H5574 0.950 . S
C5582 C5580 1.391 . S
C5582 C5583 1.400 . S
C5583 C5582 1.400 . S
C5583 C5584 1.398 . S
C5583 C5589 1.491 . S
C5584 H5575 0.950 . S
C5584 C5583 1.398 . S
C5584 C5585 1.391 . S
C5585 H5573 0.950 . S
C5585 C5581 1.393 . S
C5585 C5584 1.391 . S
C5586 H5576 0.950 . S
C5586 C5587 1.386 . S
C5586 C5588 1.391 . S
C5587 C5586 1.386 . S
C5587 C5591 1.393 . S
C5588 H5577 0.950 . S
C5588 C5586 1.391 . S
C5588 C5589 1.400 . S
C5589 C5583 1.491 . S
C5589 C5588 1.400 . S
C5589 C5590 1.398 . S
C5590 H5578 0.950 . S
C5590 C5589 1.398 . S
C5590 C5591 1.391 . S
C5591 H5579 0.950 . S
C5591 C5587 1.393 . S
C5591 C5590 1.391 . S
H5592 C5600 0.950 . S
H5593 C5605 0.950 . S
H5594 C5602 0.950 . S
H5595 C5604 0.950 . S
H5596 C5606 0.950 . S
H5597 C5608 0.950 . S
H5598 C5610 0.950 . S
H5599 C5611 0.950 . S
C5600 H5592 0.950 . S
C5600 C5601 1.386 . S
C5600 C5602 1.391 . S
C5601 C5600 1.386 . S
C5601 C5605 1.393 . S
C5602 H5594 0.950 . S
C5602 C5600 1.391 . S
C5602 C5603 1.400 . S
C5603 C5602 1.400 . S
C5603 C5604 1.398 . S
C5603 C5609 1.491 . S
C5604 H5595 0.950 . S
C5604 C5603 1.398 . S
C5604 C5605 1.391 . S
C5605 H5593 0.950 . S
C5605 C5601 1.393 . S
C5605 C5604 1.391 . S
C5606 H5596 0.950 . S
C5606 C5607 1.386 . S
C5606 C5608 1.391 . S
C5607 C5606 1.386 . S
C5607 C5611 1.393 . S
C5608 H5597 0.950 . S
C5608 C5606 1.391 . S
C5608 C5609 1.400 . S
C5609 C5603 1.491 . S
C5609 C5608 1.400 . S
C5609 C5610 1.398 . S
C5610 H5598 0.950 . S
C5610 C5609 1.398 . S
C5610 C5611 1.391 . S
C5611 H5599 0.950 . S
C5611 C5607 1.393 . S
C5611 C5610 1.391 . S
H5612 C5620 0.950 . S
H5613 C5625 0.950 . S
H5614 C5622 0.950 . S
H5615 C5624 0.950 . S
H5616 C5626 0.950 . S
H5617 C5628 0.950 . S
H5618 C5630 0.950 . S
H5619 C5631 0.950 . S
C5620 H5612 0.950 . S
C5620 C5621 1.386 . S
C5620 C5622 1.391 . S
C5621 C5620 1.386 . S
C5621 C5625 1.393 . S
C5622 H5614 0.950 . S
C5622 C5620 1.391 . S
C5622 C5623 1.400 . S
C5623 C5622 1.400 . S
C5623 C5624 1.398 . S
C5623 C5629 1.491 . S
C5624 H5615 0.950 . S
C5624 C5623 1.398 . S
C5624 C5625 1.391 . S
C5625 H5613 0.950 . S
C5625 C5621 1.393 . S
C5625 C5624 1.391 . S
C5626 H5616 0.950 . S
C5626 C5627 1.386 . S
C5626 C5628 1.391 . S
C5627 C5626 1.386 . S
C5627 C5631 1.393 . S
C5628 H5617 0.950 . S
C5628 C5626 1.391 . S
C5628 C5629 1.400 . S
C5629 C5623 1.491 . S
C5629 C5628 1.400 . S
C5629 C5630 1.398 . S
C5630 H5618 0.950 . S
C5630 C5629 1.398 . S
C5630 C5631 1.391 . S
C5631 H5619 0.950 . S
C5631 C5627 1.393 . S
C5631 C5630 1.391 . S
H5632 C5640 0.950 . S
H5633 C5645 0.950 . S
H5634 C5642 0.950 . S
H5635 C5644 0.950 . S
H5636 C5646 0.950 . S
H5637 C5648 0.950 . S
H5638 C5650 0.950 . S
H5639 C5651 0.950 . S
C5640 H5632 0.950 . S
C5640 C5641 1.386 . S
C5640 C5642 1.391 . S
C5641 C5640 1.386 . S
C5641 C5645 1.393 . S
C5642 H5634 0.950 . S
C5642 C5640 1.391 . S
C5642 C5643 1.400 . S
C5643 C5642 1.400 . S
C5643 C5644 1.398 . S
C5643 C5649 1.491 . S
C5644 H5635 0.950 . S
C5644 C5643 1.398 . S
C5644 C5645 1.391 . S
C5645 H5633 0.950 . S
C5645 C5641 1.393 . S
C5645 C5644 1.391 . S
C5646 H5636 0.950 . S
C5646 C5647 1.386 . S
C5646 C5648 1.391 . S
C5647 C5646 1.386 . S
C5647 C5651 1.393 . S
C5648 H5637 0.950 . S
C5648 C5646 1.391 . S
C5648 C5649 1.400 . S
C5649 C5643 1.491 . S
C5649 C5648 1.400 . S
C5649 C5650 1.398 . S
C5650 H5638 0.950 . S
C5650 C5649 1.398 . S
C5650 C5651 1.391 . S
C5651 H5639 0.950 . S
C5651 C5647 1.393 . S
C5651 C5650 1.391 . S
H5652 C5660 0.950 . S
H5653 C5665 0.950 . S
H5654 C5662 0.950 . S
H5655 C5664 0.950 . S
H5656 C5666 0.950 . S
H5657 C5668 0.950 . S
H5658 C5670 0.950 . S
H5659 C5671 0.950 . S
C5660 H5652 0.950 . S
C5660 C5661 1.386 . S
C5660 C5662 1.391 . S
C5661 C5660 1.386 . S
C5661 C5665 1.393 . S
C5662 H5654 0.950 . S
C5662 C5660 1.391 . S
C5662 C5663 1.400 . S
C5663 C5662 1.400 . S
C5663 C5664 1.398 . S
C5663 C5669 1.491 . S
C5664 H5655 0.950 . S
C5664 C5663 1.398 . S
C5664 C5665 1.391 . S
C5665 H5653 0.950 . S
C5665 C5661 1.393 . S
C5665 C5664 1.391 . S
C5666 H5656 0.950 . S
C5666 C5667 1.386 . S
C5666 C5668 1.391 . S
C5667 C5666 1.386 . S
C5667 C5671 1.393 . S
C5668 H5657 0.950 . S
C5668 C5666 1.391 . S
C5668 C5669 1.400 . S
C5669 C5663 1.491 . S
C5669 C5668 1.400 . S
C5669 C5670 1.398 . S
C5670 H5658 0.950 . S
C5670 C5669 1.398 . S
C5670 C5671 1.391 . S
C5671 H5659 0.950 . S
C5671 C5667 1.393 . S
C5671 C5670 1.391 . S
H5672 C5680 0.950 . S
H5673 C5685 0.950 . S
H5674 C5682 0.950 . S
H5675 C5684 0.950 . S
H5676 C5686 0.950 . S
H5677 C5688 0.950 . S
H5678 C5690 0.950 . S
H5679 C5691 0.950 . S
C5680 H5672 0.950 . S
C5680 C5681 1.386 . S
C5680 C5682 1.391 . S
C5681 C5680 1.386 . S
C5681 C5685 1.393 . S
C5682 H5674 0.950 . S
C5682 C5680 1.391 . S
C5682 C5683 1.400 . S
C5683 C5682 1.400 . S
C5683 C5684 1.398 . S
C5683 C5689 1.491 . S
C5684 H5675 0.950 . S
C5684 C5683 1.398 . S
C5684 C5685 1.391 . S
C5685 H5673 0.950 . S
C5685 C5681 1.393 . S
C5685 C5684 1.391 . S
C5686 H5676 0.950 . S
C5686 C5687 1.386 . S
C5686 C5688 1.391 . S
C5687 C5686 1.386 . S
C5687 C5691 1.393 . S
C5688 H5677 0.950 . S
C5688 C5686 1.391 . S
C5688 C5689 1.400 . S
C5689 C5683 1.491 . S
C5689 C5688 1.400 . S
C5689 C5690 1.398 . S
C5690 H5678 0.950 . S
C5690 C5689 1.398 . S
C5690 C5691 1.391 . S
C5691 H5679 0.950 . S
C5691 C5687 1.393 . S
C5691 C5690 1.391 . S
H5692 C5700 0.950 . S
H5693 C5705 0.950 . S
H5694 C5702 0.950 . S
H5695 C5704 0.950 . S
H5696 C5706 0.950 . S
H5697 C5708 0.950 . S
H5698 C5710 0.950 . S
H5699 C5711 0.950 . S
C5700 H5692 0.950 . S
C5700 C5701 1.386 . S
C5700 C5702 1.391 . S
C5701 C5700 1.386 . S
C5701 C5705 1.393 . S
C5702 H5694 0.950 . S
C5702 C5700 1.391 . S
C5702 C5703 1.400 . S
C5703 C5702 1.400 . S
C5703 C5704 1.398 . S
C5703 C5709 1.491 . S
C5704 H5695 0.950 . S
C5704 C5703 1.398 . S
C5704 C5705 1.391 . S
C5705 H5693 0.950 . S
C5705 C5701 1.393 . S
C5705 C5704 1.391 . S
C5706 H5696 0.950 . S
C5706 C5707 1.386 . S
C5706 C5708 1.391 . S
C5707 C5706 1.386 . S
C5707 C5711 1.393 . S
C5708 H5697 0.950 . S
C5708 C5706 1.391 . S
C5708 C5709 1.400 . S
C5709 C5703 1.491 . S
C5709 C5708 1.400 . S
C5709 C5710 1.398 . S
C5710 H5698 0.950 . S
C5710 C5709 1.398 . S
C5710 C5711 1.391 . S
C5711 H5699 0.950 . S
C5711 C5707 1.393 . S
C5711 C5710 1.391 . S
H5712 C5720 0.950 . S
H5713 C5725 0.950 . S
H5714 C5722 0.950 . S
H5715 C5724 0.950 . S
H5716 C5726 0.950 . S
H5717 C5728 0.950 . S
H5718 C5730 0.950 . S
H5719 C5731 0.950 . S
C5720 H5712 0.950 . S
C5720 C5721 1.386 . S
C5720 C5722 1.391 . S
C5721 C5720 1.386 . S
C5721 C5725 1.393 . S
C5722 H5714 0.950 . S
C5722 C5720 1.391 . S
C5722 C5723 1.400 . S
C5723 C5722 1.400 . S
C5723 C5724 1.398 . S
C5723 C5729 1.491 . S
C5724 H5715 0.950 . S
C5724 C5723 1.398 . S
C5724 C5725 1.391 . S
C5725 H5713 0.950 . S
C5725 C5721 1.393 . S
C5725 C5724 1.391 . S
C5726 H5716 0.950 . S
C5726 C5727 1.386 . S
C5726 C5728 1.391 . S
C5727 C5726 1.386 . S
C5727 C5731 1.393 . S
C5728 H5717 0.950 . S
C5728 C5726 1.391 . S
C5728 C5729 1.400 . S
C5729 C5723 1.491 . S
C5729 C5728 1.400 . S
C5729 C5730 1.398 . S
C5730 H5718 0.950 . S
C5730 C5729 1.398 . S
C5730 C5731 1.391 . S
C5731 H5719 0.950 . S
C5731 C5727 1.393 . S
C5731 C5730 1.391 . S
H5732 C5740 0.950 . S
H5733 C5745 0.950 . S
H5734 C5742 0.950 . S
H5735 C5744 0.950 . S
H5736 C5746 0.950 . S
H5737 C5748 0.950 . S
H5738 C5750 0.950 . S
H5739 C5751 0.950 . S
C5740 H5732 0.950 . S
C5740 C5741 1.386 . S
C5740 C5742 1.391 . S
C5741 C5740 1.386 . S
C5741 C5745 1.393 . S
C5742 H5734 0.950 . S
C5742 C5740 1.391 . S
C5742 C5743 1.400 . S
C5743 C5742 1.400 . S
C5743 C5744 1.398 . S
C5743 C5749 1.491 . S
C5744 H5735 0.950 . S
C5744 C5743 1.398 . S
C5744 C5745 1.391 . S
C5745 H5733 0.950 . S
C5745 C5741 1.393 . S
C5745 C5744 1.391 . S
C5746 H5736 0.950 . S
C5746 C5747 1.386 . S
C5746 C5748 1.391 . S
C5747 C5746 1.386 . S
C5747 C5751 1.393 . S
C5748 H5737 0.950 . S
C5748 C5746 1.391 . S
C5748 C5749 1.400 . S
C5749 C5743 1.491 . S
C5749 C5748 1.400 . S
C5749 C5750 1.398 . S
C5750 H5738 0.950 . S
C5750 C5749 1.398 . S
C5750 C5751 1.391 . S
C5751 H5739 0.950 . S
C5751 C5747 1.393 . S
C5751 C5750 1.391 . S
H5752 C5760 0.950 . S
H5753 C5765 0.950 . S
H5754 C5762 0.950 . S
H5755 C5764 0.950 . S
H5756 C5766 0.950 . S
H5757 C5768 0.950 . S
H5758 C5770 0.950 . S
H5759 C5771 0.950 . S
C5760 H5752 0.950 . S
C5760 C5761 1.386 . S
C5760 C5762 1.391 . S
C5761 C5760 1.386 . S
C5761 C5765 1.393 . S
C5762 H5754 0.950 . S
C5762 C5760 1.391 . S
C5762 C5763 1.400 . S
C5763 C5762 1.400 . S
C5763 C5764 1.398 . S
C5763 C5769 1.491 . S
C5764 H5755 0.950 . S
C5764 C5763 1.398 . S
C5764 C5765 1.391 . S
C5765 H5753 0.950 . S
C5765 C5761 1.393 . S
C5765 C5764 1.391 . S
C5766 H5756 0.950 . S
C5766 C5767 1.386 . S
C5766 C5768 1.391 . S
C5767 C5766 1.386 . S
C5767 C5771 1.393 . S
C5768 H5757 0.950 . S
C5768 C5766 1.391 . S
C5768 C5769 1.400 . S
C5769 C5763 1.491 . S
C5769 C5768 1.400 . S
C5769 C5770 1.398 . S
C5770 H5758 0.950 . S
C5770 C5769 1.398 . S
C5770 C5771 1.391 . S
C5771 H5759 0.950 . S
C5771 C5767 1.393 . S
C5771 C5770 1.391 . S
H5772 C5780 0.950 . S
H5773 C5785 0.950 . S
H5774 C5782 0.950 . S
H5775 C5784 0.950 . S
H5776 C5786 0.950 . S
H5777 C5788 0.950 . S
H5778 C5790 0.950 . S
H5779 C5791 0.950 . S
C5780 H5772 0.950 . S
C5780 C5781 1.386 . S
C5780 C5782 1.391 . S
C5781 C5780 1.386 . S
C5781 C5785 1.393 . S
C5782 H5774 0.950 . S
C5782 C5780 1.391 . S
C5782 C5783 1.400 . S
C5783 C5782 1.400 . S
C5783 C5784 1.398 . S
C5783 C5789 1.491 . S
C5784 H5775 0.950 . S
C5784 C5783 1.398 . S
C5784 C5785 1.391 . S
C5785 H5773 0.950 . S
C5785 C5781 1.393 . S
C5785 C5784 1.391 . S
C5786 H5776 0.950 . S
C5786 C5787 1.386 . S
C5786 C5788 1.391 . S
C5787 C5786 1.386 . S
C5787 C5791 1.393 . S
C5788 H5777 0.950 . S
C5788 C5786 1.391 . S
C5788 C5789 1.400 . S
C5789 C5783 1.491 . S
C5789 C5788 1.400 . S
C5789 C5790 1.398 . S
C5790 H5778 0.950 . S
C5790 C5789 1.398 . S
C5790 C5791 1.391 . S
C5791 H5779 0.950 . S
C5791 C5787 1.393 . S
C5791 C5790 1.391 . S
H5792 C5800 0.950 . S
H5793 C5805 0.950 . S
H5794 C5802 0.950 . S
H5795 C5804 0.950 . S
H5796 C5806 0.950 . S
H5797 C5808 0.950 . S
H5798 C5810 0.950 . S
H5799 C5811 0.950 . S
C5800 H5792 0.950 . S
C5800 C5801 1.386 . S
C5800 C5802 1.391 . S
C5801 C5800 1.386 . S
C5801 C5805 1.393 . S
C5802 H5794 0.950 . S
C5802 C5800 1.391 . S
C5802 C5803 1.400 . S
C5803 C5802 1.400 . S
C5803 C5804 1.398 . S
C5803 C5809 1.491 . S
C5804 H5795 0.950 . S
C5804 C5803 1.398 . S
C5804 C5805 1.391 . S
C5805 H5793 0.950 . S
C5805 C5801 1.393 . S
C5805 C5804 1.391 . S
C5806 H5796 0.950 . S
C5806 C5807 1.386 . S
C5806 C5808 1.391 . S
C5807 C5806 1.386 . S
C5807 C5811 1.393 . S
C5808 H5797 0.950 . S
C5808 C5806 1.391 . S
C5808 C5809 1.400 . S
C5809 C5803 1.491 . S
C5809 C5808 1.400 . S
C5809 C5810 1.398 . S
C5810 H5798 0.950 . S
C5810 C5809 1.398 . S
C5810 C5811 1.391 . S
C5811 H5799 0.950 . S
C5811 C5807 1.393 . S
C5811 C5810 1.391 . S
H5812 C5820 0.950 . S
H5813 C5825 0.950 . S
H5814 C5822 0.950 . S
H5815 C5824 0.950 . S
H5816 C5826 0.950 . S
H5817 C5828 0.950 . S
H5818 C5830 0.950 . S
H5819 C5831 0.950 . S
C5820 H5812 0.950 . S
C5820 C5821 1.386 . S
C5820 C5822 1.391 . S
C5821 C5820 1.386 . S
C5821 C5825 1.393 . S
C5822 H5814 0.950 . S
C5822 C5820 1.391 . S
C5822 C5823 1.400 . S
C5823 C5822 1.400 . S
C5823 C5824 1.398 . S
C5823 C5829 1.491 . S
C5824 H5815 0.950 . S
C5824 C5823 1.398 . S
C5824 C5825 1.391 . S
C5825 H5813 0.950 . S
C5825 C5821 1.393 . S
C5825 C5824 1.391 . S
C5826 H5816 0.950 . S
C5826 C5827 1.386 . S
C5826 C5828 1.391 . S
C5827 C5826 1.386 . S
C5827 C5831 1.393 . S
C5828 H5817 0.950 . S
C5828 C5826 1.391 . S
C5828 C5829 1.400 . S
C5829 C5823 1.491 . S
C5829 C5828 1.400 . S
C5829 C5830 1.398 . S
C5830 H5818 0.950 . S
C5830 C5829 1.398 . S
C5830 C5831 1.391 . S
C5831 H5819 0.950 . S
C5831 C5827 1.393 . S
C5831 C5830 1.391 . S
H5832 C5840 0.950 . S
H5833 C5845 0.950 . S
H5834 C5842 0.950 . S
H5835 C5844 0.950 . S
H5836 C5846 0.950 . S
H5837 C5848 0.950 . S
H5838 C5850 0.950 . S
H5839 C5851 0.950 . S
C5840 H5832 0.950 . S
C5840 C5841 1.386 . S
C5840 C5842 1.391 . S
C5841 C5840 1.386 . S
C5841 C5845 1.393 . S
C5842 H5834 0.950 . S
C5842 C5840 1.391 . S
C5842 C5843 1.400 . S
C5843 C5842 1.400 . S
C5843 C5844 1.398 . S
C5843 C5849 1.491 . S
C5844 H5835 0.950 . S
C5844 C5843 1.398 . S
C5844 C5845 1.391 . S
C5845 H5833 0.950 . S
C5845 C5841 1.393 . S
C5845 C5844 1.391 . S
C5846 H5836 0.950 . S
C5846 C5847 1.386 . S
C5846 C5848 1.391 . S
C5847 C5846 1.386 . S
C5847 C5851 1.393 . S
C5848 H5837 0.950 . S
C5848 C5846 1.391 . S
C5848 C5849 1.400 . S
C5849 C5843 1.491 . S
C5849 C5848 1.400 . S
C5849 C5850 1.398 . S
C5850 H5838 0.950 . S
C5850 C5849 1.398 . S
C5850 C5851 1.391 . S
C5851 H5839 0.950 . S
C5851 C5847 1.393 . S
C5851 C5850 1.391 . S
H5852 C5860 0.950 . S
H5853 C5865 0.950 . S
H5854 C5862 0.950 . S
H5855 C5864 0.950 . S
H5856 C5866 0.950 . S
H5857 C5868 0.950 . S
H5858 C5870 0.950 . S
H5859 C5871 0.950 . S
C5860 H5852 0.950 . S
C5860 C5861 1.386 . S
C5860 C5862 1.391 . S
C5861 C5860 1.386 . S
C5861 C5865 1.393 . S
C5862 H5854 0.950 . S
C5862 C5860 1.391 . S
C5862 C5863 1.400 . S
C5863 C5862 1.400 . S
C5863 C5864 1.398 . S
C5863 C5869 1.491 . S
C5864 H5855 0.950 . S
C5864 C5863 1.398 . S
C5864 C5865 1.391 . S
C5865 H5853 0.950 . S
C5865 C5861 1.393 . S
C5865 C5864 1.391 . S
C5866 H5856 0.950 . S
C5866 C5867 1.386 . S
C5866 C5868 1.391 . S
C5867 C5866 1.386 . S
C5867 C5871 1.393 . S
C5868 H5857 0.950 . S
C5868 C5866 1.391 . S
C5868 C5869 1.400 . S
C5869 C5863 1.491 . S
C5869 C5868 1.400 . S
C5869 C5870 1.398 . S
C5870 H5858 0.950 . S
C5870 C5869 1.398 . S
C5870 C5871 1.391 . S
C5871 H5859 0.950 . S
C5871 C5867 1.393 . S
C5871 C5870 1.391 . S
H5872 C5880 0.950 . S
H5873 C5885 0.950 . S
H5874 C5882 0.950 . S
H5875 C5884 0.950 . S
H5876 C5886 0.950 . S
H5877 C5888 0.950 . S
H5878 C5890 0.950 . S
H5879 C5891 0.950 . S
C5880 H5872 0.950 . S
C5880 C5881 1.386 . S
C5880 C5882 1.391 . S
C5881 C5880 1.386 . S
C5881 C5885 1.393 . S
C5882 H5874 0.950 . S
C5882 C5880 1.391 . S
C5882 C5883 1.400 . S
C5883 C5882 1.400 . S
C5883 C5884 1.398 . S
C5883 C5889 1.491 . S
C5884 H5875 0.950 . S
C5884 C5883 1.398 . S
C5884 C5885 1.391 . S
C5885 H5873 0.950 . S
C5885 C5881 1.393 . S
C5885 C5884 1.391 . S
C5886 H5876 0.950 . S
C5886 C5887 1.386 . S
C5886 C5888 1.391 . S
C5887 C5886 1.386 . S
C5887 C5891 1.393 . S
C5888 H5877 0.950 . S
C5888 C5886 1.391 . S
C5888 C5889 1.400 . S
C5889 C5883 1.491 . S
C5889 C5888 1.400 . S
C5889 C5890 1.398 . S
C5890 H5878 0.950 . S
C5890 C5889 1.398 . S
C5890 C5891 1.391 . S
C5891 H5879 0.950 . S
C5891 C5887 1.393 . S
C5891 C5890 1.391 . S
H5892 C5900 0.950 . S
H5893 C5905 0.950 . S
H5894 C5902 0.950 . S
H5895 C5904 0.950 . S
H5896 C5906 0.950 . S
H5897 C5908 0.950 . S
H5898 C5910 0.950 . S
H5899 C5911 0.950 . S
C5900 H5892 0.950 . S
C5900 C5901 1.386 . S
C5900 C5902 1.391 . S
C5901 C5900 1.386 . S
C5901 C5905 1.393 . S
C5902 H5894 0.950 . S
C5902 C5900 1.391 . S
C5902 C5903 1.400 . S
C5903 C5902 1.400 . S
C5903 C5904 1.398 . S
C5903 C5909 1.491 . S
C5904 H5895 0.950 . S
C5904 C5903 1.398 . S
C5904 C5905 1.391 . S
C5905 H5893 0.950 . S
C5905 C5901 1.393 . S
C5905 C5904 1.391 . S
C5906 H5896 0.950 . S
C5906 C5907 1.386 . S
C5906 C5908 1.391 . S
C5907 C5906 1.386 . S
C5907 C5911 1.393 . S
C5908 H5897 0.950 . S
C5908 C5906 1.391 . S
C5908 C5909 1.400 . S
C5909 C5903 1.491 . S
C5909 C5908 1.400 . S
C5909 C5910 1.398 . S
C5910 H5898 0.950 . S
C5910 C5909 1.398 . S
C5910 C5911 1.391 . S
C5911 H5899 0.950 . S
C5911 C5907 1.393 . S
C5911 C5910 1.391 . S
H5912 C5920 0.950 . S
H5913 C5925 0.950 . S
H5914 C5922 0.950 . S
H5915 C5924 0.950 . S
H5916 C5926 0.950 . S
H5917 C5928 0.950 . S
H5918 C5930 0.950 . S
H5919 C5931 0.950 . S
C5920 H5912 0.950 . S
C5920 C5921 1.386 . S
C5920 C5922 1.391 . S
C5921 C5920 1.386 . S
C5921 C5925 1.393 . S
C5922 H5914 0.950 . S
C5922 C5920 1.391 . S
C5922 C5923 1.400 . S
C5923 C5922 1.400 . S
C5923 C5924 1.398 . S
C5923 C5929 1.491 . S
C5924 H5915 0.950 . S
C5924 C5923 1.398 . S
C5924 C5925 1.391 . S
C5925 H5913 0.950 . S
C5925 C5921 1.393 . S
C5925 C5924 1.391 . S
C5926 H5916 0.950 . S
C5926 C5927 1.386 . S
C5926 C5928 1.391 . S
C5927 C5926 1.386 . S
C5927 C5931 1.393 . S
C5928 H5917 0.950 . S
C5928 C5926 1.391 . S
C5928 C5929 1.400 . S
C5929 C5923 1.491 . S
C5929 C5928 1.400 . S
C5929 C5930 1.398 . S
C5930 H5918 0.950 . S
C5930 C5929 1.398 . S
C5930 C5931 1.391 . S
C5931 H5919 0.950 . S
C5931 C5927 1.393 . S
C5931 C5930 1.391 . S
H5932 C5940 0.950 . S
H5933 C5945 0.950 . S
H5934 C5942 0.950 . S
H5935 C5944 0.950 . S
H5936 C5946 0.950 . S
H5937 C5948 0.950 . S
H5938 C5950 0.950 . S
H5939 C5951 0.950 . S
C5940 H5932 0.950 . S
C5940 C5941 1.386 . S
C5940 C5942 1.391 . S
C5941 C5940 1.386 . S
C5941 C5945 1.393 . S
C5942 H5934 0.950 . S
C5942 C5940 1.391 . S
C5942 C5943 1.400 . S
C5943 C5942 1.400 . S
C5943 C5944 1.398 . S
C5943 C5949 1.491 . S
C5944 H5935 0.950 . S
C5944 C5943 1.398 . S
C5944 C5945 1.391 . S
C5945 H5933 0.950 . S
C5945 C5941 1.393 . S
C5945 C5944 1.391 . S
C5946 H5936 0.950 . S
C5946 C5947 1.386 . S
C5946 C5948 1.391 . S
C5947 C5946 1.386 . S
C5947 C5951 1.393 . S
C5948 H5937 0.950 . S
C5948 C5946 1.391 . S
C5948 C5949 1.400 . S
C5949 C5943 1.491 . S
C5949 C5948 1.400 . S
C5949 C5950 1.398 . S
C5950 H5938 0.950 . S
C5950 C5949 1.398 . S
C5950 C5951 1.391 . S
C5951 H5939 0.950 . S
C5951 C5947 1.393 . S
C5951 C5950 1.391 . S
H5952 C5960 0.950 . S
H5953 C5965 0.950 . S
H5954 C5962 0.950 . S
H5955 C5964 0.950 . S
H5956 C5966 0.950 . S
H5957 C5968 0.950 . S
H5958 C5970 0.950 . S
H5959 C5971 0.950 . S
C5960 H5952 0.950 . S
C5960 C5961 1.386 . S
C5960 C5962 1.391 . S
C5961 C5960 1.386 . S
C5961 C5965 1.393 . S
C5962 H5954 0.950 . S
C5962 C5960 1.391 . S
C5962 C5963 1.400 . S
C5963 C5962 1.400 . S
C5963 C5964 1.398 . S
C5963 C5969 1.491 . S
C5964 H5955 0.950 . S
C5964 C5963 1.398 . S
C5964 C5965 1.391 . S
C5965 H5953 0.950 . S
C5965 C5961 1.393 . S
C5965 C5964 1.391 . S
C5966 H5956 0.950 . S
C5966 C5967 1.386 . S
C5966 C5968 1.391 . S
C5967 C5966 1.386 . S
C5967 C5971 1.393 . S
C5968 H5957 0.950 . S
C5968 C5966 1.391 . S
C5968 C5969 1.400 . S
C5969 C5963 1.491 . S
C5969 C5968 1.400 . S
C5969 C5970 1.398 . S
C5970 H5958 0.950 . S
C5970 C5969 1.398 . S
C5970 C5971 1.391 . S
C5971 H5959 0.950 . S
C5971 C5967 1.393 . S
C5971 C5970 1.391 . S
H5972 C5980 0.950 . S
H5973 C5985 0.950 . S
H5974 C5982 0.950 . S
H5975 C5984 0.950 . S
H5976 C5986 0.950 . S
H5977 C5988 0.950 . S
H5978 C5990 0.950 . S
H5979 C5991 0.950 . S
C5980 H5972 0.950 . S
C5980 C5981 1.386 . S
C5980 C5982 1.391 . S
C5981 C5980 1.386 . S
C5981 C5985 1.393 . S
C5982 H5974 0.950 . S
C5982 C5980 1.391 . S
C5982 C5983 1.400 . S
C5983 C5982 1.400 . S
C5983 C5984 1.398 . S
C5983 C5989 1.491 . S
C5984 H5975 0.950 . S
C5984 C5983 1.398 . S
C5984 C5985 1.391 . S
C5985 H5973 0.950 . S
C5985 C5981 1.393 . S
C5985 C5984 1.391 . S
C5986 H5976 0.950 . S
C5986 C5987 1.386 . S
C5986 C5988 1.391 . S
C5987 C5986 1.386 . S
C5987 C5991 1.393 . S
C5988 H5977 0.950 . S
C5988 C5986 1.391 . S
C5988 C5989 1.400 . S
C5989 C5983 1.491 . S
C5989 C5988 1.400 . S
C5989 C5990 1.398 . S
C5990 H5978 0.950 . S
C5990 C5989 1.398 . S
C5990 C5991 1.391 . S
C5991 H5979 0.950 . S
C5991 C5987 1.393 . S
C5991 C5990 1.391 . S
H5992 C6000 0.950 . S
H5993 C6005 0.950 . S
H5994 C6002 0.950 . S
H5995 C6004 0.950 . S
H5996 C6006 0.950 . S
H5997 C6008 0.950 . S
H5998 C6010 0.950 . S
H5999 C6011 0.950 . S
C6000 H5992 0.950 . S
C6000 C6001 1.386 . S
C6000 C6002 1.391 . S
C6001 C6000 1.386 . S
C6001 C6005 1.393 . S
C6002 H5994 0.950 . S
C6002 C6000 1.391 . S
C6002 C6003 1.400 . S
C6003 C6002 1.400 . S
C6003 C6004 1.398 . S
C6003 C6009 1.491 . S
C6004 H5995 0.950 . S
C6004 C6003 1.398 . S
C6004 C6005 1.391 . S
C6005 H5993 0.950 . S
C6005 C6001 1.393 . S
C6005 C6004 1.391 . S
C6006 H5996 0.950 . S
C6006 C6007 1.386 . S
C6006 C6008 1.391 . S
C6007 C6006 1.386 . S
C6007 C6011 1.393 . S
C6008 H5997 0.950 . S
C6008 C6006 1.391 . S
C6008 C6009 1.400 . S
C6009 C6003 1.491 . S
C6009 C6008 1.400 . S
C6009 C6010 1.398 . S
C6010 H5998 0.950 . S
C6010 C6009 1.398 . S
C6010 C6011 1.391 . S
C6011 H5999 0.950 . S
C6011 C6007 1.393 . S
C6011 C6010 1.391 . S
H6012 C6020 0.950 . S
H6013 C6025 0.950 . S
H6014 C6022 0.950 . S
H6015 C6024 0.950 . S
H6016 C6026 0.950 . S
H6017 C6028 0.950 . S
H6018 C6030 0.950 . S
H6019 C6031 0.950 1_565 S
C6020 H6012 0.950 . S
C6020 C6021 1.386 . S
C6020 C6022 1.391 . S
C6021 C6020 1.386 . S
C6021 C6025 1.393 . S
C6022 H6014 0.950 . S
C6022 C6020 1.391 . S
C6022 C6023 1.400 . S
C6023 C6022 1.400 . S
C6023 C6024 1.398 . S
C6023 C6029 1.491 . S
C6024 H6015 0.950 . S
C6024 C6023 1.398 . S
C6024 C6025 1.391 . S
C6025 H6013 0.950 . S
C6025 C6021 1.393 . S
C6025 C6024 1.391 . S
C6026 H6016 0.950 . S
C6026 C6027 1.386 . S
C6026 C6028 1.391 . S
C6027 C6026 1.386 . S
C6027 C6031 1.393 . S
C6028 H6017 0.950 . S
C6028 C6026 1.391 . S
C6028 C6029 1.400 . S
C6029 C6023 1.491 . S
C6029 C6028 1.400 . S
C6029 C6030 1.398 . S
C6030 H6018 0.950 . S
C6030 C6029 1.398 . S
C6030 C6031 1.391 . S
C6031 H6019 0.950 1_545 S
C6031 C6027 1.393 . S
C6031 C6030 1.391 . S
H6032 C6040 0.950 . S
H6033 C6045 0.950 . S
H6034 C6042 0.950 . S
H6035 C6044 0.950 . S
H6036 C6046 0.950 . S
H6037 C6048 0.950 . S
H6038 C6050 0.950 . S
H6039 C6051 0.950 . S
C6040 H6032 0.950 . S
C6040 C6041 1.386 . S
C6040 C6042 1.391 . S
C6041 C6040 1.386 . S
C6041 C6045 1.393 . S
C6042 H6034 0.950 . S
C6042 C6040 1.391 . S
C6042 C6043 1.400 . S
C6043 C6042 1.400 . S
C6043 C6044 1.398 . S
C6043 C6049 1.491 . S
C6044 H6035 0.950 . S
C6044 C6043 1.398 . S
C6044 C6045 1.391 . S
C6045 H6033 0.950 . S
C6045 C6041 1.393 . S
C6045 C6044 1.391 . S
C6046 H6036 0.950 . S
C6046 C6047 1.386 . S
C6046 C6048 1.391 . S
C6047 C6046 1.386 . S
C6047 C6051 1.393 . S
C6048 H6037 0.950 . S
C6048 C6046 1.391 . S
C6048 C6049 1.400 . S
C6049 C6043 1.491 . S
C6049 C6048 1.400 . S
C6049 C6050 1.398 . S
C6050 H6038 0.950 . S
C6050 C6049 1.398 . S
C6050 C6051 1.391 . S
C6051 H6039 0.950 . S
C6051 C6047 1.393 . S
C6051 C6050 1.391 . S
H6052 C6060 0.950 . S
H6053 C6065 0.950 . S
H6054 C6062 0.950 . S
H6055 C6064 0.950 . S
H6056 C6066 0.950 . S
H6057 C6068 0.950 . S
H6058 C6070 0.950 . S
H6059 C6071 0.950 . S
C6060 H6052 0.950 . S
C6060 C6061 1.386 . S
C6060 C6062 1.391 . S
C6061 C6060 1.386 . S
C6061 C6065 1.393 . S
C6062 H6054 0.950 . S
C6062 C6060 1.391 . S
C6062 C6063 1.400 . S
C6063 C6062 1.400 . S
C6063 C6064 1.398 . S
C6063 C6069 1.491 . S
C6064 H6055 0.950 . S
C6064 C6063 1.398 . S
C6064 C6065 1.391 . S
C6065 H6053 0.950 . S
C6065 C6061 1.393 . S
C6065 C6064 1.391 . S
C6066 H6056 0.950 . S
C6066 C6067 1.386 . S
C6066 C6068 1.391 . S
C6067 C6066 1.386 . S
C6067 C6071 1.393 . S
C6068 H6057 0.950 . S
C6068 C6066 1.391 . S
C6068 C6069 1.400 . S
C6069 C6063 1.491 . S
C6069 C6068 1.400 . S
C6069 C6070 1.398 . S
C6070 H6058 0.950 . S
C6070 C6069 1.398 . S
C6070 C6071 1.391 . S
C6071 H6059 0.950 . S
C6071 C6067 1.393 . S
C6071 C6070 1.391 . S
H6072 C6080 0.950 . S
H6073 C6085 0.950 . S
H6074 C6082 0.950 . S
H6075 C6084 0.950 . S
H6076 C6086 0.950 . S
H6077 C6088 0.950 . S
H6078 C6090 0.950 . S
H6079 C6091 0.950 . S
C6080 H6072 0.950 . S
C6080 C6081 1.386 . S
C6080 C6082 1.391 . S
C6081 C6080 1.386 . S
C6081 C6085 1.393 . S
C6082 H6074 0.950 . S
C6082 C6080 1.391 . S
C6082 C6083 1.400 . S
C6083 C6082 1.400 . S
C6083 C6084 1.398 . S
C6083 C6089 1.491 . S
C6084 H6075 0.950 . S
C6084 C6083 1.398 . S
C6084 C6085 1.391 . S
C6085 H6073 0.950 . S
C6085 C6081 1.393 . S
C6085 C6084 1.391 . S
C6086 H6076 0.950 . S
C6086 C6087 1.386 1_455 S
C6086 C6088 1.391 . S
C6087 C6086 1.386 1_655 S
C6087 C6091 1.393 . S
C6088 H6077 0.950 . S
C6088 C6086 1.391 . S
C6088 C6089 1.400 . S
C6089 C6083 1.491 . S
C6089 C6088 1.400 . S
C6089 C6090 1.398 . S
C6090 H6078 0.950 . S
C6090 C6089 1.398 . S
C6090 C6091 1.391 1_455 S
C6091 H6079 0.950 . S
C6091 C6087 1.393 . S
C6091 C6090 1.391 1_655 S
H6092 C6100 0.950 . S
H6093 C6105 0.950 . S
H6094 C6102 0.950 . S
H6095 C6104 0.950 . S
H6096 C6106 0.950 . S
H6097 C6108 0.950 . S
H6098 C6110 0.950 . S
H6099 C6111 0.950 . S
C6100 H6092 0.950 . S
C6100 C6101 1.386 . S
C6100 C6102 1.391 . S
C6101 C6100 1.386 . S
C6101 C6105 1.393 . S
C6102 H6094 0.950 . S
C6102 C6100 1.391 . S
C6102 C6103 1.400 . S
C6103 C6102 1.400 . S
C6103 C6104 1.398 . S
C6103 C6109 1.491 . S
C6104 H6095 0.950 . S
C6104 C6103 1.398 . S
C6104 C6105 1.391 . S
C6105 H6093 0.950 . S
C6105 C6101 1.393 . S
C6105 C6104 1.391 . S
C6106 H6096 0.950 . S
C6106 C6107 1.386 . S
C6106 C6108 1.391 . S
C6107 C6106 1.386 . S
C6107 C6111 1.393 . S
C6108 H6097 0.950 . S
C6108 C6106 1.391 . S
C6108 C6109 1.400 . S
C6109 C6103 1.491 . S
C6109 C6108 1.400 . S
C6109 C6110 1.398 . S
C6110 H6098 0.950 . S
C6110 C6109 1.398 . S
C6110 C6111 1.391 . S
C6111 H6099 0.950 . S
C6111 C6107 1.393 . S
C6111 C6110 1.391 . S
H6112 C6120 0.950 . S
H6113 C6125 0.950 . S
H6114 C6122 0.950 . S
H6115 C6124 0.950 . S
H6116 C6126 0.950 . S
H6117 C6128 0.950 . S
H6118 C6130 0.950 . S
H6119 C6131 0.950 . S
C6120 H6112 0.950 . S
C6120 C6121 1.386 . S
C6120 C6122 1.391 . S
C6121 C6120 1.386 . S
C6121 C6125 1.393 . S
C6122 H6114 0.950 . S
C6122 C6120 1.391 . S
C6122 C6123 1.400 . S
C6123 C6122 1.400 . S
C6123 C6124 1.398 . S
C6123 C6129 1.491 . S
C6124 H6115 0.950 . S
C6124 C6123 1.398 . S
C6124 C6125 1.391 . S
C6125 H6113 0.950 . S
C6125 C6121 1.393 . S
C6125 C6124 1.391 . S
C6126 H6116 0.950 . S
C6126 C6127 1.386 . S
C6126 C6128 1.391 . S
C6127 C6126 1.386 . S
C6127 C6131 1.393 . S
C6128 H6117 0.950 . S
C6128 C6126 1.391 . S
C6128 C6129 1.400 . S
C6129 C6123 1.491 . S
C6129 C6128 1.400 . S
C6129 C6130 1.398 . S
C6130 H6118 0.950 . S
C6130 C6129 1.398 . S
C6130 C6131 1.391 . S
C6131 H6119 0.950 . S
C6131 C6127 1.393 . S
C6131 C6130 1.391 . S
H6132 C6140 0.950 . S
H6133 C6145 0.950 . S
H6134 C6142 0.950 . S
H6135 C6144 0.950 . S
H6136 C6146 0.950 . S
H6137 C6148 0.950 . S
H6138 C6150 0.950 . S
H6139 C6151 0.950 . S
C6140 H6132 0.950 . S
C6140 C6141 1.386 . S
C6140 C6142 1.391 . S
C6141 C6140 1.386 . S
C6141 C6145 1.393 . S
C6142 H6134 0.950 . S
C6142 C6140 1.391 . S
C6142 C6143 1.400 . S
C6143 C6142 1.400 . S
C6143 C6144 1.398 . S
C6143 C6149 1.491 . S
C6144 H6135 0.950 . S
C6144 C6143 1.398 . S
C6144 C6145 1.391 . S
C6145 H6133 0.950 . S
C6145 C6141 1.393 . S
C6145 C6144 1.391 . S
C6146 H6136 0.950 . S
C6146 C6147 1.386 . S
C6146 C6148 1.391 . S
C6147 C6146 1.386 . S
C6147 C6151 1.393 . S
C6148 H6137 0.950 . S
C6148 C6146 1.391 . S
C6148 C6149 1.400 . S
C6149 C6143 1.491 . S
C6149 C6148 1.400 . S
C6149 C6150 1.398 . S
C6150 H6138 0.950 . S
C6150 C6149 1.398 . S
C6150 C6151 1.391 . S
C6151 H6139 0.950 . S
C6151 C6147 1.393 . S
C6151 C6150 1.391 . S
H6152 C6160 0.950 . S
H6153 C6165 0.950 . S
H6154 C6162 0.950 . S
H6155 C6164 0.950 . S
H6156 C6166 0.950 . S
H6157 C6168 0.950 . S
H6158 C6170 0.950 . S
H6159 C6171 0.950 . S
C6160 H6152 0.950 . S
C6160 C6161 1.386 . S
C6160 C6162 1.391 . S
C6161 C6160 1.386 . S
C6161 C6165 1.393 1_545 S
C6162 H6154 0.950 . S
C6162 C6160 1.391 . S
C6162 C6163 1.400 1_545 S
C6163 C6162 1.400 1_565 S
C6163 C6164 1.398 . S
C6163 C6169 1.491 . S
C6164 H6155 0.950 . S
C6164 C6163 1.398 . S
C6164 C6165 1.391 . S
C6165 H6153 0.950 . S
C6165 C6161 1.393 1_565 S
C6165 C6164 1.391 . S
C6166 H6156 0.950 . S
C6166 C6167 1.386 . S
C6166 C6168 1.391 . S
C6167 C6166 1.386 . S
C6167 C6171 1.393 . S
C6168 H6157 0.950 . S
C6168 C6166 1.391 . S
C6168 C6169 1.400 . S
C6169 C6163 1.491 . S
C6169 C6168 1.400 . S
C6169 C6170 1.398 . S
C6170 H6158 0.950 . S
C6170 C6169 1.398 . S
C6170 C6171 1.391 . S
C6171 H6159 0.950 . S
C6171 C6167 1.393 . S
C6171 C6170 1.391 . S
H6172 C6180 0.950 . S
H6173 C6185 0.950 . S
H6174 C6182 0.950 . S
H6175 C6184 0.950 . S
H6176 C6186 0.950 . S
H6177 C6188 0.950 . S
H6178 C6190 0.950 . S
H6179 C6191 0.950 . S
C6180 H6172 0.950 . S
C6180 C6181 1.386 . S
C6180 C6182 1.391 . S
C6181 C6180 1.386 . S
C6181 C6185 1.393 . S
C6182 H6174 0.950 . S
C6182 C6180 1.391 . S
C6182 C6183 1.400 . S
C6183 C6182 1.400 . S
C6183 C6184 1.398 . S
C6183 C6189 1.491 . S
C6184 H6175 0.950 . S
C6184 C6183 1.398 . S
C6184 C6185 1.391 . S
C6185 H6173 0.950 . S
C6185 C6181 1.393 . S
C6185 C6184 1.391 . S
C6186 H6176 0.950 . S
C6186 C6187 1.386 . S
C6186 C6188 1.391 . S
C6187 C6186 1.386 . S
C6187 C6191 1.393 . S
C6188 H6177 0.950 . S
C6188 C6186 1.391 . S
C6188 C6189 1.400 . S
C6189 C6183 1.491 . S
C6189 C6188 1.400 . S
C6189 C6190 1.398 . S
C6190 H6178 0.950 . S
C6190 C6189 1.398 . S
C6190 C6191 1.391 . S
C6191 H6179 0.950 . S
C6191 C6187 1.393 . S
C6191 C6190 1.391 . S
H6192 C6200 0.950 . S
H6193 C6205 0.972 . S
H6194 C6202 0.950 . S
H6195 C6204 0.950 . S
H6196 C6206 0.950 . S
H6197 C6208 0.950 . S
H6198 C6210 0.950 . S
H6199 C6211 0.950 . S
C6200 H6192 0.950 . S
C6200 C6201 1.386 . S
C6200 C6202 1.391 . S
C6201 C6200 1.386 . S
C6201 C6205 1.393 . S
C6202 H6194 0.950 . S
C6202 C6200 1.391 . S
C6202 C6203 1.400 . S
C6203 C6202 1.400 . S
C6203 C6204 1.398 . S
C6203 C6209 1.491 . S
C6204 H6195 0.950 . S
C6204 C6203 1.398 . S
C6204 C6205 1.391 . S
C6205 H6193 0.972 . S
C6205 C6201 1.393 . S
C6205 C6204 1.391 . S
C6206 H6196 0.950 . S
C6206 C6207 1.386 . S
C6206 C6208 1.391 . S
C6207 C6206 1.386 . S
C6207 C6211 1.393 . S
C6208 H6197 0.950 . S
C6208 C6206 1.391 . S
C6208 C6209 1.400 . S
C6209 C6203 1.491 . S
C6209 C6208 1.400 . S
C6209 C6210 1.398 . S
C6210 H6198 0.950 . S
C6210 C6209 1.398 . S
C6210 C6211 1.391 . S
C6211 H6199 0.950 . S
C6211 C6207 1.393 . S
C6211 C6210 1.391 . S
H6212 C6220 0.950 . S
H6213 C6225 0.950 . S
H6214 C6222 0.950 . S
H6215 C6224 0.950 . S
H6216 C6226 0.950 . S
H6217 C6228 0.950 . S
H6218 C6230 0.950 . S
H6219 C6231 0.950 . S
C6220 H6212 0.950 . S
C6220 C6221 1.386 . S
C6220 C6222 1.391 . S
C6221 C6220 1.386 . S
C6221 C6225 1.393 . S
C6222 H6214 0.950 . S
C6222 C6220 1.391 . S
C6222 C6223 1.400 . S
C6223 C6222 1.400 . S
C6223 C6224 1.398 . S
C6223 C6229 1.491 . S
C6224 H6215 0.950 . S
C6224 C6223 1.398 . S
C6224 C6225 1.391 . S
C6225 H6213 0.950 . S
C6225 C6221 1.393 . S
C6225 C6224 1.391 . S
C6226 H6216 0.950 . S
C6226 C6227 1.386 . S
C6226 C6228 1.391 . S
C6227 C6226 1.386 . S
C6227 C6231 1.393 . S
C6228 H6217 0.950 . S
C6228 C6226 1.391 . S
C6228 C6229 1.400 . S
C6229 C6223 1.491 . S
C6229 C6228 1.400 . S
C6229 C6230 1.398 . S
C6230 H6218 0.950 . S
C6230 C6229 1.398 . S
C6230 C6231 1.391 . S
C6231 H6219 0.950 . S
C6231 C6227 1.393 . S
C6231 C6230 1.391 . S
H6232 C6240 0.950 . S
H6233 C6245 0.950 . S
H6234 C6242 0.950 . S
H6235 C6244 0.950 . S
H6236 C6246 0.950 . S
H6237 C6248 0.950 . S
H6238 C6250 0.950 . S
H6239 C6251 0.950 . S
C6240 H6232 0.950 . S
C6240 C6241 1.386 . S
C6240 C6242 1.391 . S
C6241 C6240 1.386 . S
C6241 C6245 1.393 . S
C6242 H6234 0.950 . S
C6242 C6240 1.391 . S
C6242 C6243 1.400 . S
C6243 C6242 1.400 . S
C6243 C6244 1.398 . S
C6243 C6249 1.491 . S
C6244 H6235 0.950 . S
C6244 C6243 1.398 . S
C6244 C6245 1.391 . S
C6245 H6233 0.950 . S
C6245 C6241 1.393 . S
C6245 C6244 1.391 . S
C6246 H6236 0.950 . S
C6246 C6247 1.386 . S
C6246 C6248 1.391 . S
C6247 C6246 1.386 . S
C6247 C6251 1.393 . S
C6248 H6237 0.950 . S
C6248 C6246 1.391 . S
C6248 C6249 1.400 . S
C6249 C6243 1.491 . S
C6249 C6248 1.400 . S
C6249 C6250 1.398 . S
C6250 H6238 0.950 . S
C6250 C6249 1.398 . S
C6250 C6251 1.391 . S
C6251 H6239 0.950 . S
C6251 C6247 1.393 . S
C6251 C6250 1.391 . S
H6252 C6260 0.950 . S
H6253 C6265 0.950 . S
H6254 C6262 0.950 . S
H6255 C6264 0.950 . S
H6256 C6266 0.950 . S
H6257 C6268 0.950 . S
H6258 C6270 0.950 . S
H6259 C6271 0.950 . S
C6260 H6252 0.950 . S
C6260 C6261 1.386 1_655 S
C6260 C6262 1.391 . S
C6261 C6260 1.386 1_455 S
C6261 C6265 1.393 . S
C6262 H6254 0.950 . S
C6262 C6260 1.391 . S
C6262 C6263 1.400 . S
C6263 C6262 1.400 . S
C6263 C6264 1.398 1_655 S
C6263 C6269 1.491 . S
C6264 H6255 0.950 . S
C6264 C6263 1.398 1_455 S
C6264 C6265 1.391 . S
C6265 H6253 0.950 . S
C6265 C6261 1.393 . S
C6265 C6264 1.391 . S
C6266 H6256 0.950 . S
C6266 C6267 1.386 . S
C6266 C6268 1.391 . S
C6267 C6266 1.386 . S
C6267 C6271 1.393 . S
C6268 H6257 0.950 . S
C6268 C6266 1.391 . S
C6268 C6269 1.400 . S
C6269 C6263 1.491 . S
C6269 C6268 1.400 . S
C6269 C6270 1.398 . S
C6270 H6258 0.950 . S
C6270 C6269 1.398 . S
C6270 C6271 1.391 . S
C6271 H6259 0.950 . S
C6271 C6267 1.393 . S
C6271 C6270 1.391 . S
H6272 C6280 0.950 . S
H6273 C6285 0.950 . S
H6274 C6282 0.950 . S
H6275 C6284 0.950 . S
H6276 C6286 0.950 . S
H6277 C6288 0.950 . S
H6278 C6290 0.950 . S
H6279 C6291 0.950 . S
C6280 H6272 0.950 . S
C6280 C6281 1.386 . S
C6280 C6282 1.391 . S
C6281 C6280 1.386 . S
C6281 C6285 1.393 . S
C6282 H6274 0.950 . S
C6282 C6280 1.391 . S
C6282 C6283 1.400 . S
C6283 C6282 1.400 . S
C6283 C6284 1.398 . S
C6283 C6289 1.491 . S
C6284 H6275 0.950 . S
C6284 C6283 1.398 . S
C6284 C6285 1.391 . S
C6285 H6273 0.950 . S
C6285 C6281 1.393 . S
C6285 C6284 1.391 . S
C6286 H6276 0.950 . S
C6286 C6287 1.386 . S
C6286 C6288 1.391 . S
C6287 C6286 1.386 . S
C6287 C6291 1.393 . S
C6288 H6277 0.950 . S
C6288 C6286 1.391 . S
C6288 C6289 1.400 . S
C6289 C6283 1.491 . S
C6289 C6288 1.400 . S
C6289 C6290 1.398 . S
C6290 H6278 0.950 . S
C6290 C6289 1.398 . S
C6290 C6291 1.391 . S
C6291 H6279 0.950 . S
C6291 C6287 1.393 . S
C6291 C6290 1.391 . S
H6292 C6300 0.950 . S
H6293 C6305 0.950 . S
H6294 C6302 0.950 . S
H6295 C6304 0.950 . S
H6296 C6306 0.950 . S
H6297 C6308 0.950 . S
H6298 C6310 0.950 . S
H6299 C6311 0.950 . S
C6300 H6292 0.950 . S
C6300 C6301 1.386 . S
C6300 C6302 1.391 . S
C6301 C6300 1.386 . S
C6301 C6305 1.393 . S
C6302 H6294 0.950 . S
C6302 C6300 1.391 . S
C6302 C6303 1.400 . S
C6303 C6302 1.400 . S
C6303 C6304 1.398 . S
C6303 C6309 1.491 . S
C6304 H6295 0.950 . S
C6304 C6303 1.398 . S
C6304 C6305 1.391 . S
C6305 H6293 0.950 . S
C6305 C6301 1.393 . S
C6305 C6304 1.391 . S
C6306 H6296 0.950 . S
C6306 C6307 1.386 . S
C6306 C6308 1.391 . S
C6307 C6306 1.386 . S
C6307 C6311 1.393 . S
C6308 H6297 0.950 . S
C6308 C6306 1.391 . S
C6308 C6309 1.400 . S
C6309 C6303 1.491 . S
C6309 C6308 1.400 . S
C6309 C6310 1.398 . S
C6310 H6298 0.950 . S
C6310 C6309 1.398 . S
C6310 C6311 1.391 . S
C6311 H6299 0.950 . S
C6311 C6307 1.393 . S
C6311 C6310 1.391 . S
H6312 C6320 0.950 . S
H6313 C6325 0.950 . S
H6314 C6322 0.950 . S
H6315 C6324 0.973 . S
H6316 C6326 0.950 . S
H6317 C6328 0.950 . S
H6318 C6330 0.950 . S
H6319 C6331 0.950 . S
C6320 H6312 0.950 . S
C6320 C6321 1.386 . S
C6320 C6322 1.391 . S
C6321 C6320 1.386 . S
C6321 C6325 1.393 . S
C6322 H6314 0.950 . S
C6322 C6320 1.391 . S
C6322 C6323 1.400 . S
C6323 C6322 1.400 . S
C6323 C6324 1.398 . S
C6323 C6329 1.491 1_554 S
C6324 H6315 0.973 . S
C6324 C6323 1.398 . S
C6324 C6325 1.391 . S
C6325 H6313 0.950 . S
C6325 C6321 1.393 . S
C6325 C6324 1.391 . S
C6326 H6316 0.950 . S
C6326 C6327 1.386 . S
C6326 C6328 1.391 . S
C6327 C6326 1.386 . S
C6327 C6331 1.393 . S
C6328 H6317 0.950 . S
C6328 C6326 1.391 . S
C6328 C6329 1.400 . S
C6329 C6323 1.491 1_556 S
C6329 C6328 1.400 . S
C6329 C6330 1.398 . S
C6330 H6318 0.950 . S
C6330 C6329 1.398 . S
C6330 C6331 1.391 . S
C6331 H6319 0.950 . S
C6331 C6327 1.393 . S
C6331 C6330 1.391 . S
H6332 C6340 0.950 . S
H6333 C6345 0.950 . S
H6334 C6342 0.950 . S
H6335 C6344 0.950 . S
H6336 C6346 0.950 . S
H6337 C6348 0.950 . S
H6338 C6350 0.950 . S
H6339 C6351 0.950 . S
C6340 H6332 0.950 . S
C6340 C6341 1.386 . S
C6340 C6342 1.391 . S
C6341 C6340 1.386 . S
C6341 C6345 1.393 . S
C6342 H6334 0.950 . S
C6342 C6340 1.391 . S
C6342 C6343 1.400 . S
C6343 C6342 1.400 . S
C6343 C6344 1.398 . S
C6343 C6349 1.491 . S
C6344 H6335 0.950 . S
C6344 C6343 1.398 . S
C6344 C6345 1.391 . S
C6345 H6333 0.950 . S
C6345 C6341 1.393 . S
C6345 C6344 1.391 . S
C6346 H6336 0.950 . S
C6346 C6347 1.386 . S
C6346 C6348 1.391 . S
C6347 C6346 1.386 . S
C6347 C6351 1.393 . S
C6348 H6337 0.950 . S
C6348 C6346 1.391 . S
C6348 C6349 1.400 . S
C6349 C6343 1.491 . S
C6349 C6348 1.400 . S
C6349 C6350 1.398 . S
C6350 H6338 0.950 . S
C6350 C6349 1.398 . S
C6350 C6351 1.391 . S
C6351 H6339 0.950 . S
C6351 C6347 1.393 . S
C6351 C6350 1.391 . S
H6352 C6360 0.950 . S
H6353 C6365 0.950 . S
H6354 C6362 0.950 . S
H6355 C6364 0.950 . S
H6356 C6366 0.950 . S
H6357 C6368 0.950 . S
H6358 C6370 0.950 . S
H6359 C6371 0.950 . S
C6360 H6352 0.950 . S
C6360 C6361 1.386 . S
C6360 C6362 1.391 . S
C6361 C6360 1.386 . S
C6361 C6365 1.393 . S
C6362 H6354 0.950 . S
C6362 C6360 1.391 . S
C6362 C6363 1.400 . S
C6363 C6362 1.400 . S
C6363 C6364 1.398 . S
C6363 C6369 1.491 . S
C6364 H6355 0.950 . S
C6364 C6363 1.398 . S
C6364 C6365 1.391 . S
C6365 H6353 0.950 . S
C6365 C6361 1.393 . S
C6365 C6364 1.391 . S
C6366 H6356 0.950 . S
C6366 C6367 1.386 . S
C6366 C6368 1.391 . S
C6367 C6366 1.386 . S
C6367 C6371 1.393 . S
C6368 H6357 0.950 . S
C6368 C6366 1.391 . S
C6368 C6369 1.400 . S
C6369 C6363 1.491 . S
C6369 C6368 1.400 . S
C6369 C6370 1.398 . S
C6370 H6358 0.950 . S
C6370 C6369 1.398 . S
C6370 C6371 1.391 . S
C6371 H6359 0.950 . S
C6371 C6367 1.393 . S
C6371 C6370 1.391 . S
H6372 C6380 0.950 . S
H6373 C6385 0.950 . S
H6374 C6382 0.950 . S
H6375 C6384 0.950 . S
H6376 C6386 0.950 . S
H6377 C6388 0.950 . S
H6378 C6390 0.950 . S
H6379 C6391 0.950 . S
C6380 H6372 0.950 . S
C6380 C6381 1.386 . S
C6380 C6382 1.391 . S
C6381 C6380 1.386 . S
C6381 C6385 1.393 . S
C6382 H6374 0.950 . S
C6382 C6380 1.391 . S
C6382 C6383 1.400 . S
C6383 C6382 1.400 . S
C6383 C6384 1.398 . S
C6383 C6389 1.491 . S
C6384 H6375 0.950 . S
C6384 C6383 1.398 . S
C6384 C6385 1.391 . S
C6385 H6373 0.950 . S
C6385 C6381 1.393 . S
C6385 C6384 1.391 . S
C6386 H6376 0.950 . S
C6386 C6387 1.386 . S
C6386 C6388 1.391 . S
C6387 C6386 1.386 . S
C6387 C6391 1.393 . S
C6388 H6377 0.950 . S
C6388 C6386 1.391 . S
C6388 C6389 1.400 . S
C6389 C6383 1.491 . S
C6389 C6388 1.400 . S
C6389 C6390 1.398 . S
C6390 H6378 0.950 . S
C6390 C6389 1.398 . S
C6390 C6391 1.391 . S
C6391 H6379 0.950 . S
C6391 C6387 1.393 . S
C6391 C6390 1.391 . S
H6392 C6400 0.950 . S
H6393 C6405 0.950 . S
H6394 C6402 0.950 . S
H6395 C6404 0.950 . S
H6396 C6406 0.950 . S
H6397 C6408 0.950 . S
H6398 C6410 0.950 . S
H6399 C6411 0.950 . S
C6400 H6392 0.950 . S
C6400 C6401 1.386 . S
C6400 C6402 1.391 . S
C6401 C6400 1.386 . S
C6401 C6405 1.393 . S
C6402 H6394 0.950 . S
C6402 C6400 1.391 . S
C6402 C6403 1.400 . S
C6403 C6402 1.400 . S
C6403 C6404 1.398 . S
C6403 C6409 1.491 . S
C6404 H6395 0.950 . S
C6404 C6403 1.398 . S
C6404 C6405 1.391 . S
C6405 H6393 0.950 . S
C6405 C6401 1.393 . S
C6405 C6404 1.391 . S
C6406 H6396 0.950 . S
C6406 C6407 1.386 . S
C6406 C6408 1.391 . S
C6407 C6406 1.386 . S
C6407 C6411 1.393 . S
C6408 H6397 0.950 . S
C6408 C6406 1.391 . S
C6408 C6409 1.400 . S
C6409 C6403 1.491 . S
C6409 C6408 1.400 . S
C6409 C6410 1.398 . S
C6410 H6398 0.950 . S
C6410 C6409 1.398 . S
C6410 C6411 1.391 . S
C6411 H6399 0.950 . S
C6411 C6407 1.393 . S
C6411 C6410 1.391 . S
H6412 C6420 0.950 . S
H6413 C6425 0.950 . S
H6414 C6422 0.950 . S
H6415 C6424 0.950 . S
H6416 C6426 0.950 . S
H6417 C6428 0.950 . S
H6418 C6430 0.950 . S
H6419 C6431 0.950 . S
C6420 H6412 0.950 . S
C6420 C6421 1.386 . S
C6420 C6422 1.391 . S
C6421 C6420 1.386 . S
C6421 C6425 1.393 . S
C6422 H6414 0.950 . S
C6422 C6420 1.391 . S
C6422 C6423 1.400 . S
C6423 C6422 1.400 . S
C6423 C6424 1.398 . S
C6423 C6429 1.491 . S
C6424 H6415 0.950 . S
C6424 C6423 1.398 . S
C6424 C6425 1.391 . S
C6425 H6413 0.950 . S
C6425 C6421 1.393 . S
C6425 C6424 1.391 . S
C6426 H6416 0.950 . S
C6426 C6427 1.386 . S
C6426 C6428 1.391 . S
C6427 C6426 1.386 . S
C6427 C6431 1.393 . S
C6428 H6417 0.950 . S
C6428 C6426 1.391 . S
C6428 C6429 1.400 . S
C6429 C6423 1.491 . S
C6429 C6428 1.400 . S
C6429 C6430 1.398 . S
C6430 H6418 0.950 . S
C6430 C6429 1.398 . S
C6430 C6431 1.391 . S
C6431 H6419 0.950 . S
C6431 C6427 1.393 . S
C6431 C6430 1.391 . S
H6432 C6440 0.950 . S
H6433 C6445 0.950 . S
H6434 C6442 0.950 . S
H6435 C6444 0.950 . S
H6436 C6446 0.950 . S
H6437 C6448 0.950 . S
H6438 C6450 0.950 . S
H6439 C6451 0.950 . S
C6440 H6432 0.950 . S
C6440 C6441 1.386 . S
C6440 C6442 1.391 1_455 S
C6441 C6440 1.386 . S
C6441 C6445 1.393 . S
C6442 H6434 0.950 . S
C6442 C6440 1.391 1_655 S
C6442 C6443 1.400 . S
C6443 C6442 1.400 . S
C6443 C6444 1.398 . S
C6443 C6449 1.491 . S
C6444 H6435 0.950 . S
C6444 C6443 1.398 . S
C6444 C6445 1.391 1_655 S
C6445 H6433 0.950 . S
C6445 C6441 1.393 . S
C6445 C6444 1.391 1_455 S
C6446 H6436 0.950 . S
C6446 C6447 1.386 . S
C6446 C6448 1.391 . S
C6447 C6446 1.386 . S
C6447 C6451 1.393 . S
C6448 H6437 0.950 . S
C6448 C6446 1.391 . S
C6448 C6449 1.400 . S
C6449 C6443 1.491 . S
C6449 C6448 1.400 . S
C6449 C6450 1.398 . S
C6450 H6438 0.950 . S
C6450 C6449 1.398 . S
C6450 C6451 1.391 . S
C6451 H6439 0.950 . S
C6451 C6447 1.393 . S
C6451 C6450 1.391 . S
H6452 C6460 0.950 . S
H6453 C6465 0.950 . S
H6454 C6462 0.950 . S
H6455 C6464 0.950 1_565 S
H6456 C6466 0.950 . S
H6457 C6468 0.950 . S
H6458 C6470 0.950 1_545 S
H6459 C6471 0.950 . S
C6460 H6452 0.950 . S
C6460 C6461 1.386 . S
C6460 C6462 1.391 . S
C6461 C6460 1.386 . S
C6461 C6465 1.393 . S
C6462 H6454 0.950 . S
C6462 C6460 1.391 . S
C6462 C6463 1.400 . S
C6463 C6462 1.400 . S
C6463 C6464 1.398 . S
C6463 C6469 1.491 1_545 S
C6464 H6455 0.950 1_545 S
C6464 C6463 1.398 . S
C6464 C6465 1.391 . S
C6465 H6453 0.950 . S
C6465 C6461 1.393 . S
C6465 C6464 1.391 . S
C6466 H6456 0.950 . S
C6466 C6467 1.386 . S
C6466 C6468 1.391 . S
C6467 C6466 1.386 . S
C6467 C6471 1.393 . S
C6468 H6457 0.950 . S
C6468 C6466 1.391 . S
C6468 C6469 1.400 . S
C6469 C6463 1.491 1_565 S
C6469 C6468 1.400 . S
C6469 C6470 1.398 . S
C6470 H6458 0.950 1_565 S
C6470 C6469 1.398 . S
C6470 C6471 1.391 . S
C6471 H6459 0.950 . S
C6471 C6467 1.393 . S
C6471 C6470 1.391 . S
H6472 C6480 0.950 . S
H6473 C6485 0.950 . S
H6474 C6482 0.950 . S
H6475 C6484 0.950 . S
H6476 C6486 0.950 . S
H6477 C6488 0.950 . S
H6478 C6490 0.950 . S
H6479 C6491 0.950 . S
C6480 H6472 0.950 . S
C6480 C6481 1.386 . S
C6480 C6482 1.391 . S
C6481 C6480 1.386 . S
C6481 C6485 1.393 . S
C6482 H6474 0.950 . S
C6482 C6480 1.391 . S
C6482 C6483 1.400 . S
C6483 C6482 1.400 . S
C6483 C6484 1.398 . S
C6483 C6489 1.491 . S
C6484 H6475 0.950 . S
C6484 C6483 1.398 . S
C6484 C6485 1.391 . S
C6485 H6473 0.950 . S
C6485 C6481 1.393 . S
C6485 C6484 1.391 . S
C6486 H6476 0.950 . S
C6486 C6487 1.386 . S
C6486 C6488 1.391 . S
C6487 C6486 1.386 . S
C6487 C6491 1.393 . S
C6488 H6477 0.950 . S
C6488 C6486 1.391 . S
C6488 C6489 1.400 . S
C6489 C6483 1.491 . S
C6489 C6488 1.400 . S
C6489 C6490 1.398 . S
C6490 H6478 0.950 . S
C6490 C6489 1.398 . S
C6490 C6491 1.391 . S
C6491 H6479 0.950 . S
C6491 C6487 1.393 . S
C6491 C6490 1.391 . S
H6492 C6500 0.950 . S
H6493 C6505 0.950 . S
H6494 C6502 0.950 . S
H6495 C6504 0.950 . S
H6496 C6506 0.950 . S
H6497 C6508 0.950 . S
H6498 C6510 0.950 . S
H6499 C6511 0.950 . S
C6500 H6492 0.950 . S
C6500 C6501 1.386 . S
C6500 C6502 1.391 . S
C6501 C6500 1.386 . S
C6501 C6505 1.393 . S
C6502 H6494 0.950 . S
C6502 C6500 1.391 . S
C6502 C6503 1.400 . S
C6503 C6502 1.400 . S
C6503 C6504 1.398 . S
C6503 C6509 1.491 . S
C6504 H6495 0.950 . S
C6504 C6503 1.398 . S
C6504 C6505 1.391 . S
C6505 H6493 0.950 . S
C6505 C6501 1.393 . S
C6505 C6504 1.391 . S
C6506 H6496 0.950 . S
C6506 C6507 1.386 . S
C6506 C6508 1.391 . S
C6507 C6506 1.386 . S
C6507 C6511 1.393 . S
C6508 H6497 0.950 . S
C6508 C6506 1.391 . S
C6508 C6509 1.400 . S
C6509 C6503 1.491 . S
C6509 C6508 1.400 . S
C6509 C6510 1.398 . S
C6510 H6498 0.950 . S
C6510 C6509 1.398 . S
C6510 C6511 1.391 . S
C6511 H6499 0.950 . S
C6511 C6507 1.393 . S
C6511 C6510 1.391 . S
H6512 C6520 0.950 . S
H6513 C6525 0.950 . S
H6514 C6522 0.950 . S
H6515 C6524 0.935 1_455 S
H6516 C6526 0.950 . S
H6517 C6528 0.950 . S
H6518 C6530 0.950 . S
H6519 C6531 0.950 . S
C6520 H6512 0.950 . S
C6520 C6521 1.386 1_655 S
C6520 C6522 1.391 . S
C6521 C6520 1.386 1_455 S
C6521 C6525 1.393 . S
C6522 H6514 0.950 . S
C6522 C6520 1.391 . S
C6522 C6523 1.400 . S
C6523 C6522 1.400 . S
C6523 C6524 1.398 . S
C6523 C6529 1.491 . S
C6524 H6515 0.935 1_655 S
C6524 C6523 1.398 . S
C6524 C6525 1.391 1_655 S
C6525 H6513 0.950 . S
C6525 C6521 1.393 . S
C6525 C6524 1.391 1_455 S
C6526 H6516 0.950 . S
C6526 C6527 1.386 . S
C6526 C6528 1.391 . S
C6527 C6526 1.386 . S
C6527 C6531 1.393 . S
C6528 H6517 0.950 . S
C6528 C6526 1.391 . S
C6528 C6529 1.400 . S
C6529 C6523 1.491 . S
C6529 C6528 1.400 . S
C6529 C6530 1.398 . S
C6530 H6518 0.950 . S
C6530 C6529 1.398 . S
C6530 C6531 1.391 . S
C6531 H6519 0.950 . S
C6531 C6527 1.393 . S
C6531 C6530 1.391 . S
H6532 C6540 0.950 . S
H6533 C6545 0.950 . S
H6534 C6542 0.950 . S
H6535 C6544 0.950 . S
H6536 C6546 0.950 . S
H6537 C6548 0.950 . S
H6538 C6550 0.950 . S
H6539 C6551 0.950 . S
C6540 H6532 0.950 . S
C6540 C6541 1.386 . S
C6540 C6542 1.391 . S
C6541 C6540 1.386 . S
C6541 C6545 1.393 . S
C6542 H6534 0.950 . S
C6542 C6540 1.391 . S
C6542 C6543 1.400 . S
C6543 C6542 1.400 . S
C6543 C6544 1.398 . S
C6543 C6549 1.491 . S
C6544 H6535 0.950 . S
C6544 C6543 1.398 . S
C6544 C6545 1.391 . S
C6545 H6533 0.950 . S
C6545 C6541 1.393 . S
C6545 C6544 1.391 . S
C6546 H6536 0.950 . S
C6546 C6547 1.386 . S
C6546 C6548 1.391 . S
C6547 C6546 1.386 . S
C6547 C6551 1.393 . S
C6548 H6537 0.950 . S
C6548 C6546 1.391 . S
C6548 C6549 1.400 . S
C6549 C6543 1.491 . S
C6549 C6548 1.400 . S
C6549 C6550 1.398 . S
C6550 H6538 0.950 . S
C6550 C6549 1.398 . S
C6550 C6551 1.391 . S
C6551 H6539 0.950 . S
C6551 C6547 1.393 . S
C6551 C6550 1.391 . S
H6552 C6560 0.950 . S
H6553 C6565 0.950 . S
H6554 C6562 0.950 . S
H6555 C6564 0.950 . S
H6556 C6566 0.950 . S
H6557 C6568 0.950 . S
H6558 C6570 0.950 . S
H6559 C6571 0.950 . S
C6560 H6552 0.950 . S
C6560 C6561 1.386 . S
C6560 C6562 1.391 . S
C6561 C6560 1.386 . S
C6561 C6565 1.393 . S
C6562 H6554 0.950 . S
C6562 C6560 1.391 . S
C6562 C6563 1.400 . S
C6563 C6562 1.400 . S
C6563 C6564 1.398 . S
C6563 C6569 1.491 . S
C6564 H6555 0.950 . S
C6564 C6563 1.398 . S
C6564 C6565 1.391 . S
C6565 H6553 0.950 . S
C6565 C6561 1.393 . S
C6565 C6564 1.391 . S
C6566 H6556 0.950 . S
C6566 C6567 1.386 . S
C6566 C6568 1.391 . S
C6567 C6566 1.386 . S
C6567 C6571 1.393 . S
C6568 H6557 0.950 . S
C6568 C6566 1.391 . S
C6568 C6569 1.400 . S
C6569 C6563 1.491 . S
C6569 C6568 1.400 . S
C6569 C6570 1.398 . S
C6570 H6558 0.950 . S
C6570 C6569 1.398 . S
C6570 C6571 1.391 . S
C6571 H6559 0.950 . S
C6571 C6567 1.393 . S
C6571 C6570 1.391 . S
H6572 C6580 0.950 . S
H6573 C6585 0.950 . S
H6574 C6582 0.950 . S
H6575 C6584 0.950 . S
H6576 C6586 0.950 . S
H6577 C6588 0.950 . S
H6578 C6590 0.950 . S
H6579 C6591 0.950 . S
C6580 H6572 0.950 . S
C6580 C6581 1.386 . S
C6580 C6582 1.391 . S
C6581 C6580 1.386 . S
C6581 C6585 1.393 . S
C6582 H6574 0.950 . S
C6582 C6580 1.391 . S
C6582 C6583 1.400 . S
C6583 C6582 1.400 . S
C6583 C6584 1.398 . S
C6583 C6589 1.491 . S
C6584 H6575 0.950 . S
C6584 C6583 1.398 . S
C6584 C6585 1.391 . S
C6585 H6573 0.950 . S
C6585 C6581 1.393 . S
C6585 C6584 1.391 . S
C6586 H6576 0.950 . S
C6586 C6587 1.386 . S
C6586 C6588 1.391 . S
C6587 C6586 1.386 . S
C6587 C6591 1.393 . S
C6588 H6577 0.950 . S
C6588 C6586 1.391 . S
C6588 C6589 1.400 . S
C6589 C6583 1.491 . S
C6589 C6588 1.400 . S
C6589 C6590 1.398 . S
C6590 H6578 0.950 . S
C6590 C6589 1.398 . S
C6590 C6591 1.391 . S
C6591 H6579 0.950 . S
C6591 C6587 1.393 . S
C6591 C6590 1.391 . S
H6592 C6600 0.950 . S
H6593 C6605 0.950 1_545 S
H6594 C6602 0.950 . S
H6595 C6604 0.950 . S
H6596 C6606 0.950 . S
H6597 C6608 0.950 . S
H6598 C6610 0.950 . S
H6599 C6611 0.950 . S
C6600 H6592 0.950 . S
C6600 C6601 1.386 . S
C6600 C6602 1.391 . S
C6601 C6600 1.386 . S
C6601 C6605 1.393 . S
C6602 H6594 0.950 . S
C6602 C6600 1.391 . S
C6602 C6603 1.400 . S
C6603 C6602 1.400 . S
C6603 C6604 1.398 . S
C6603 C6609 1.491 . S
C6604 H6595 0.950 . S
C6604 C6603 1.398 . S
C6604 C6605 1.391 . S
C6605 H6593 0.950 1_565 S
C6605 C6601 1.393 . S
C6605 C6604 1.391 . S
C6606 H6596 0.950 . S
C6606 C6607 1.386 . S
C6606 C6608 1.391 . S
C6607 C6606 1.386 . S
C6607 C6611 1.393 . S
C6608 H6597 0.950 . S
C6608 C6606 1.391 . S
C6608 C6609 1.400 . S
C6609 C6603 1.491 . S
C6609 C6608 1.400 . S
C6609 C6610 1.398 . S
C6610 H6598 0.950 . S
C6610 C6609 1.398 . S
C6610 C6611 1.391 . S
C6611 H6599 0.950 . S
C6611 C6607 1.393 . S
C6611 C6610 1.391 . S
H6612 C6620 0.950 . S
H6613 C6625 0.950 . S
H6614 C6622 0.950 . S
H6615 C6624 0.950 . S
H6616 C6626 0.950 . S
H6617 C6628 0.950 . S
H6618 C6630 0.950 . S
H6619 C6631 0.950 . S
C6620 H6612 0.950 . S
C6620 C6621 1.386 . S
C6620 C6622 1.391 . S
C6621 C6620 1.386 . S
C6621 C6625 1.393 . S
C6622 H6614 0.950 . S
C6622 C6620 1.391 . S
C6622 C6623 1.400 . S
C6623 C6622 1.400 . S
C6623 C6624 1.398 . S
C6623 C6629 1.491 . S
C6624 H6615 0.950 . S
C6624 C6623 1.398 . S
C6624 C6625 1.391 . S
C6625 H6613 0.950 . S
C6625 C6621 1.393 . S
C6625 C6624 1.391 . S
C6626 H6616 0.950 . S
C6626 C6627 1.386 . S
C6626 C6628 1.391 . S
C6627 C6626 1.386 . S
C6627 C6631 1.393 . S
C6628 H6617 0.950 . S
C6628 C6626 1.391 . S
C6628 C6629 1.400 . S
C6629 C6623 1.491 . S
C6629 C6628 1.400 . S
C6629 C6630 1.398 . S
C6630 H6618 0.950 . S
C6630 C6629 1.398 . S
C6630 C6631 1.391 . S
C6631 H6619 0.950 . S
C6631 C6627 1.393 . S
C6631 C6630 1.391 . S
H6632 C6640 0.950 . S
H6633 C6645 0.950 . S
H6634 C6642 0.950 . S
H6635 C6644 0.950 . S
H6636 C6646 0.950 . S
H6637 C6648 0.950 . S
H6638 C6650 0.950 . S
H6639 C6651 0.950 . S
C6640 H6632 0.950 . S
C6640 C6641 1.386 . S
C6640 C6642 1.391 . S
C6641 C6640 1.386 . S
C6641 C6645 1.393 . S
C6642 H6634 0.950 . S
C6642 C6640 1.391 . S
C6642 C6643 1.400 . S
C6643 C6642 1.400 . S
C6643 C6644 1.398 . S
C6643 C6649 1.491 . S
C6644 H6635 0.950 . S
C6644 C6643 1.398 . S
C6644 C6645 1.391 . S
C6645 H6633 0.950 . S
C6645 C6641 1.393 . S
C6645 C6644 1.391 . S
C6646 H6636 0.950 . S
C6646 C6647 1.386 . S
C6646 C6648 1.391 . S
C6647 C6646 1.386 . S
C6647 C6651 1.393 . S
C6648 H6637 0.950 . S
C6648 C6646 1.391 . S
C6648 C6649 1.400 . S
C6649 C6643 1.491 . S
C6649 C6648 1.400 . S
C6649 C6650 1.398 . S
C6650 H6638 0.950 . S
C6650 C6649 1.398 . S
C6650 C6651 1.391 . S
C6651 H6639 0.950 . S
C6651 C6647 1.393 . S
C6651 C6650 1.391 . S
H6652 C6660 0.950 . S
H6653 C6665 0.950 . S
H6654 C6662 0.950 . S
H6655 C6664 0.950 . S
H6656 C6666 0.950 . S
H6657 C6668 0.950 . S
H6658 C6670 0.950 1_455 S
H6659 C6671 0.950 . S
C6660 H6652 0.950 . S
C6660 C6661 1.386 . S
C6660 C6662 1.391 . S
C6661 C6660 1.386 . S
C6661 C6665 1.393 . S
C6662 H6654 0.950 . S
C6662 C6660 1.391 . S
C6662 C6663 1.349 1_455 S
C6663 C6662 1.349 1_655 S
C6663 C6664 1.412 . S
C6663 C6669 1.528 . S
C6664 H6655 0.950 . S
C6664 C6663 1.412 . S
C6664 C6665 1.391 1_655 S
C6665 H6653 0.950 . S
C6665 C6661 1.393 . S
C6665 C6664 1.391 1_455 S
C6666 H6656 0.950 . S
C6666 C6667 1.386 . S
C6666 C6668 1.391 . S
C6667 C6666 1.386 . S
C6667 C6671 1.393 . S
C6668 H6657 0.950 . S
C6668 C6666 1.391 . S
C6668 C6669 1.400 . S
C6669 C6663 1.528 . S
C6669 C6668 1.400 . S
C6669 C6670 1.398 . S
C6670 H6658 0.950 1_655 S
C6670 C6669 1.398 . S
C6670 C6671 1.391 . S
C6671 H6659 0.950 . S
C6671 C6667 1.393 . S
C6671 C6670 1.391 . S
H6672 C6680 0.950 . S
H6673 C6685 0.950 . S
H6674 C6682 0.950 . S
H6675 C6684 0.950 . S
H6676 C6686 0.950 . S
H6677 C6688 0.950 . S
H6678 C6690 0.950 . S
H6679 C6691 0.950 . S
C6680 H6672 0.950 . S
C6680 C6681 1.386 . S
C6680 C6682 1.391 . S
C6681 C6680 1.386 . S
C6681 C6685 1.393 . S
C6682 H6674 0.950 . S
C6682 C6680 1.391 . S
C6682 C6683 1.400 . S
C6683 C6682 1.400 . S
C6683 C6684 1.398 . S
C6683 C6689 1.491 . S
C6684 H6675 0.950 . S
C6684 C6683 1.398 . S
C6684 C6685 1.391 . S
C6685 H6673 0.950 . S
C6685 C6681 1.393 . S
C6685 C6684 1.391 . S
C6686 H6676 0.950 . S
C6686 C6687 1.386 . S
C6686 C6688 1.391 . S
C6687 C6686 1.386 . S
C6687 C6691 1.393 . S
C6688 H6677 0.950 . S
C6688 C6686 1.391 . S
C6688 C6689 1.400 . S
C6689 C6683 1.491 . S
C6689 C6688 1.400 . S
C6689 C6690 1.398 . S
C6690 H6678 0.950 . S
C6690 C6689 1.398 . S
C6690 C6691 1.391 . S
C6691 H6679 0.950 . S
C6691 C6687 1.393 . S
C6691 C6690 1.391 . S
H6692 C6700 0.950 . S
H6693 C6705 0.950 . S
H6694 C6702 0.950 . S
H6695 C6704 0.950 . S
H6696 C6706 0.950 . S
H6697 C6708 0.950 . S
H6698 C6710 0.950 . S
H6699 C6711 0.950 . S
C6700 H6692 0.950 . S
C6700 C6701 1.386 . S
C6700 C6702 1.391 . S
C6701 C6700 1.386 . S
C6701 C6705 1.393 . S
C6702 H6694 0.950 . S
C6702 C6700 1.391 . S
C6702 C6703 1.400 . S
C6703 C6702 1.400 . S
C6703 C6704 1.398 . S
C6703 C6709 1.491 . S
C6704 H6695 0.950 . S
C6704 C6703 1.398 . S
C6704 C6705 1.391 . S
C6705 H6693 0.950 . S
C6705 C6701 1.393 . S
C6705 C6704 1.391 . S
C6706 H6696 0.950 . S
C6706 C6707 1.386 . S
C6706 C6708 1.391 . S
C6707 C6706 1.386 . S
C6707 C6711 1.393 . S
C6708 H6697 0.950 . S
C6708 C6706 1.391 . S
C6708 C6709 1.400 . S
C6709 C6703 1.491 . S
C6709 C6708 1.400 . S
C6709 C6710 1.398 . S
C6710 H6698 0.950 . S
C6710 C6709 1.398 . S
C6710 C6711 1.391 . S
C6711 H6699 0.950 . S
C6711 C6707 1.393 . S
C6711 C6710 1.391 . S
H6712 C6720 0.950 . S
H6713 C6725 0.950 . S
H6714 C6722 0.950 . S
H6715 C6724 0.950 . S
H6716 C6726 0.950 . S
H6717 C6728 0.950 1_545 S
H6718 C6730 0.950 . S
H6719 C6731 0.950 . S
C6720 H6712 0.950 . S
C6720 C6721 1.386 . S
C6720 C6722 1.391 1_545 S
C6721 C6720 1.386 . S
C6721 C6725 1.393 . S
C6722 H6714 0.950 . S
C6722 C6720 1.391 1_565 S
C6722 C6723 1.400 1_565 S
C6723 C6722 1.400 1_545 S
C6723 C6724 1.398 . S
C6723 C6729 1.491 1_545 S
C6724 H6715 0.950 . S
C6724 C6723 1.398 . S
C6724 C6725 1.391 . S
C6725 H6713 0.950 . S
C6725 C6721 1.393 . S
C6725 C6724 1.391 . S
C6726 H6716 0.950 . S
C6726 C6727 1.386 . S
C6726 C6728 1.391 . S
C6727 C6726 1.386 . S
C6727 C6731 1.393 . S
C6728 H6717 0.950 1_565 S
C6728 C6726 1.391 . S
C6728 C6729 1.400 . S
C6729 C6723 1.491 1_565 S
C6729 C6728 1.400 . S
C6729 C6730 1.398 . S
C6730 H6718 0.950 . S
C6730 C6729 1.398 . S
C6730 C6731 1.391 . S
C6731 H6719 0.950 . S
C6731 C6727 1.393 . S
C6731 C6730 1.391 . S
H6732 C6740 0.950 . S
H6733 C6745 0.950 . S
H6734 C6742 0.950 . S
H6735 C6744 0.950 . S
H6736 C6746 0.950 . S
H6737 C6748 0.950 . S
H6738 C6750 0.950 . S
H6739 C6751 0.950 . S
C6740 H6732 0.950 . S
C6740 C6741 1.386 . S
C6740 C6742 1.391 . S
C6741 C6740 1.386 . S
C6741 C6745 1.393 . S
C6742 H6734 0.950 . S
C6742 C6740 1.391 . S
C6742 C6743 1.400 . S
C6743 C6742 1.400 . S
C6743 C6744 1.398 . S
C6743 C6749 1.491 . S
C6744 H6735 0.950 . S
C6744 C6743 1.398 . S
C6744 C6745 1.391 . S
C6745 H6733 0.950 . S
C6745 C6741 1.393 . S
C6745 C6744 1.391 . S
C6746 H6736 0.950 . S
C6746 C6747 1.386 . S
C6746 C6748 1.391 . S
C6747 C6746 1.386 . S
C6747 C6751 1.393 . S
C6748 H6737 0.950 . S
C6748 C6746 1.391 . S
C6748 C6749 1.400 . S
C6749 C6743 1.491 . S
C6749 C6748 1.400 . S
C6749 C6750 1.398 . S
C6750 H6738 0.950 . S
C6750 C6749 1.398 . S
C6750 C6751 1.391 . S
C6751 H6739 0.950 . S
C6751 C6747 1.393 . S
C6751 C6750 1.391 . S
H6752 C6760 0.950 . S
H6753 C6765 0.950 . S
H6754 C6762 0.950 . S
H6755 C6764 0.967 . S
H6756 C6766 0.950 . S
H6757 C6768 0.950 . S
H6758 C6770 0.950 . S
H6759 C6771 0.950 . S
C6760 H6752 0.950 . S
C6760 C6761 1.386 . S
C6760 C6762 1.391 1_554 S
C6761 C6760 1.386 . S
C6761 C6765 1.393 . S
C6762 H6754 0.950 . S
C6762 C6760 1.391 1_556 S
C6762 C6763 1.400 . S
C6763 C6762 1.400 . S
C6763 C6764 1.426 . S
C6763 C6769 1.491 . S
C6764 H6755 0.967 . S
C6764 C6763 1.426 . S
C6764 C6765 1.349 1_556 S
C6765 H6753 0.950 . S
C6765 C6761 1.393 . S
C6765 C6764 1.349 1_554 S
C6766 H6756 0.950 . S
C6766 C6767 1.386 . S
C6766 C6768 1.391 . S
C6767 C6766 1.386 . S
C6767 C6771 1.393 . S
C6768 H6757 0.950 . S
C6768 C6766 1.391 . S
C6768 C6769 1.400 . S
C6769 C6763 1.491 . S
C6769 C6768 1.400 . S
C6769 C6770 1.398 . S
C6770 H6758 0.950 . S
C6770 C6769 1.398 . S
C6770 C6771 1.391 . S
C6771 H6759 0.950 . S
C6771 C6767 1.393 . S
C6771 C6770 1.391 . S
H6772 C6780 0.950 . S
H6773 C6785 0.950 . S
H6774 C6782 0.950 . S
H6775 C6784 0.950 . S
H6776 C6786 0.950 . S
H6777 C6788 0.950 . S
H6778 C6790 0.950 . S
H6779 C6791 0.950 . S
C6780 H6772 0.950 . S
C6780 C6781 1.386 . S
C6780 C6782 1.391 . S
C6781 C6780 1.386 . S
C6781 C6785 1.393 . S
C6782 H6774 0.950 . S
C6782 C6780 1.391 . S
C6782 C6783 1.400 . S
C6783 C6782 1.400 . S
C6783 C6784 1.398 . S
C6783 C6789 1.491 . S
C6784 H6775 0.950 . S
C6784 C6783 1.398 . S
C6784 C6785 1.391 . S
C6785 H6773 0.950 . S
C6785 C6781 1.393 . S
C6785 C6784 1.391 . S
C6786 H6776 0.950 . S
C6786 C6787 1.386 . S
C6786 C6788 1.391 . S
C6787 C6786 1.386 . S
C6787 C6791 1.393 . S
C6788 H6777 0.950 . S
C6788 C6786 1.391 . S
C6788 C6789 1.400 . S
C6789 C6783 1.491 . S
C6789 C6788 1.400 . S
C6789 C6790 1.398 . S
C6790 H6778 0.950 . S
C6790 C6789 1.398 . S
C6790 C6791 1.391 . S
C6791 H6779 0.950 . S
C6791 C6787 1.393 . S
C6791 C6790 1.391 . S
H6792 C6800 0.950 . S
H6793 C6805 0.950 . S
H6794 C6802 0.950 . S
H6795 C6804 0.950 . S
H6796 C6806 0.950 . S
H6797 C6808 0.950 . S
H6798 C6810 0.950 . S
H6799 C6811 0.950 . S
C6800 H6792 0.950 . S
C6800 C6801 1.386 . S
C6800 C6802 1.391 . S
C6801 C6800 1.386 . S
C6801 C6805 1.393 . S
C6802 H6794 0.950 . S
C6802 C6800 1.391 . S
C6802 C6803 1.400 . S
C6803 C6802 1.400 . S
C6803 C6804 1.398 . S
C6803 C6809 1.491 . S
C6804 H6795 0.950 . S
C6804 C6803 1.398 . S
C6804 C6805 1.391 . S
C6805 H6793 0.950 . S
C6805 C6801 1.393 . S
C6805 C6804 1.391 . S
C6806 H6796 0.950 . S
C6806 C6807 1.386 . S
C6806 C6808 1.391 . S
C6807 C6806 1.386 . S
C6807 C6811 1.393 . S
C6808 H6797 0.950 . S
C6808 C6806 1.391 . S
C6808 C6809 1.400 . S
C6809 C6803 1.491 . S
C6809 C6808 1.400 . S
C6809 C6810 1.398 . S
C6810 H6798 0.950 . S
C6810 C6809 1.398 . S
C6810 C6811 1.391 . S
C6811 H6799 0.950 . S
C6811 C6807 1.393 . S
C6811 C6810 1.391 . S
H6812 C6820 0.950 . S
H6813 C6825 0.950 . S
H6814 C6822 0.950 . S
H6815 C6824 0.950 . S
H6816 C6826 0.950 . S
H6817 C6828 0.950 . S
H6818 C6830 0.950 . S
H6819 C6831 0.950 . S
C6820 H6812 0.950 . S
C6820 C6821 1.386 . S
C6820 C6822 1.391 . S
C6821 C6820 1.386 . S
C6821 C6825 1.393 . S
C6822 H6814 0.950 . S
C6822 C6820 1.391 . S
C6822 C6823 1.400 . S
C6823 C6822 1.400 . S
C6823 C6824 1.398 . S
C6823 C6829 1.491 . S
C6824 H6815 0.950 . S
C6824 C6823 1.398 . S
C6824 C6825 1.391 . S
C6825 H6813 0.950 . S
C6825 C6821 1.393 . S
C6825 C6824 1.391 . S
C6826 H6816 0.950 . S
C6826 C6827 1.386 . S
C6826 C6828 1.391 . S
C6827 C6826 1.386 . S
C6827 C6831 1.393 . S
C6828 H6817 0.950 . S
C6828 C6826 1.391 . S
C6828 C6829 1.400 . S
C6829 C6823 1.491 . S
C6829 C6828 1.400 . S
C6829 C6830 1.398 . S
C6830 H6818 0.950 . S
C6830 C6829 1.398 . S
C6830 C6831 1.391 . S
C6831 H6819 0.950 . S
C6831 C6827 1.393 . S
C6831 C6830 1.391 . S
H6832 C6840 0.950 . S
H6833 C6845 0.950 . S
H6834 C6842 0.950 . S
H6835 C6844 0.950 . S
H6836 C6846 0.950 . S
H6837 C6848 0.950 . S
H6838 C6850 0.950 . S
H6839 C6851 0.950 . S
C6840 H6832 0.950 . S
C6840 C6841 1.386 . S
C6840 C6842 1.391 . S
C6841 C6840 1.386 . S
C6841 C6845 1.393 . S
C6842 H6834 0.950 . S
C6842 C6840 1.391 . S
C6842 C6843 1.400 . S
C6843 C6842 1.400 . S
C6843 C6844 1.398 . S
C6843 C6849 1.491 . S
C6844 H6835 0.950 . S
C6844 C6843 1.398 . S
C6844 C6845 1.391 . S
C6845 H6833 0.950 . S
C6845 C6841 1.393 . S
C6845 C6844 1.391 . S
C6846 H6836 0.950 . S
C6846 C6847 1.386 . S
C6846 C6848 1.391 . S
C6847 C6846 1.386 . S
C6847 C6851 1.393 . S
C6848 H6837 0.950 . S
C6848 C6846 1.391 . S
C6848 C6849 1.400 . S
C6849 C6843 1.491 . S
C6849 C6848 1.400 . S
C6849 C6850 1.398 . S
C6850 H6838 0.950 . S
C6850 C6849 1.398 . S
C6850 C6851 1.391 . S
C6851 H6839 0.950 . S
C6851 C6847 1.393 . S
C6851 C6850 1.391 . S
H6852 C6860 0.950 . S
H6853 C6865 0.950 . S
H6854 C6862 0.950 . S
H6855 C6864 0.950 . S
H6856 C6866 0.950 . S
H6857 C6868 0.950 . S
H6858 C6870 0.950 . S
H6859 C6871 0.950 . S
C6860 H6852 0.950 . S
C6860 C6861 1.386 . S
C6860 C6862 1.391 . S
C6861 C6860 1.386 . S
C6861 C6865 1.393 . S
C6862 H6854 0.950 . S
C6862 C6860 1.391 . S
C6862 C6863 1.400 . S
C6863 C6862 1.400 . S
C6863 C6864 1.398 . S
C6863 C6869 1.491 . S
C6864 H6855 0.950 . S
C6864 C6863 1.398 . S
C6864 C6865 1.391 . S
C6865 H6853 0.950 . S
C6865 C6861 1.393 . S
C6865 C6864 1.391 . S
C6866 H6856 0.950 . S
C6866 C6867 1.386 . S
C6866 C6868 1.391 . S
C6867 C6866 1.386 . S
C6867 C6871 1.393 . S
C6868 H6857 0.950 . S
C6868 C6866 1.391 . S
C6868 C6869 1.400 . S
C6869 C6863 1.491 . S
C6869 C6868 1.400 . S
C6869 C6870 1.398 . S
C6870 H6858 0.950 . S
C6870 C6869 1.398 . S
C6870 C6871 1.391 . S
C6871 H6859 0.950 . S
C6871 C6867 1.393 . S
C6871 C6870 1.391 . S
H6872 C6880 0.950 . S
H6873 C6885 0.950 . S
H6874 C6882 0.950 . S
H6875 C6884 0.950 . S
H6876 C6886 0.950 . S
H6877 C6888 0.950 . S
H6878 C6890 0.950 . S
H6879 C6891 0.950 . S
C6880 H6872 0.950 . S
C6880 C6881 1.386 . S
C6880 C6882 1.391 . S
C6881 C6880 1.386 . S
C6881 C6885 1.393 . S
C6882 H6874 0.950 . S
C6882 C6880 1.391 . S
C6882 C6883 1.400 . S
C6883 C6882 1.400 . S
C6883 C6884 1.398 . S
C6883 C6889 1.491 . S
C6884 H6875 0.950 . S
C6884 C6883 1.398 . S
C6884 C6885 1.391 . S
C6885 H6873 0.950 . S
C6885 C6881 1.393 . S
C6885 C6884 1.391 . S
C6886 H6876 0.950 . S
C6886 C6887 1.386 . S
C6886 C6888 1.391 . S
C6887 C6886 1.386 . S
C6887 C6891 1.393 . S
C6888 H6877 0.950 . S
C6888 C6886 1.391 . S
C6888 C6889 1.400 . S
C6889 C6883 1.491 . S
C6889 C6888 1.400 . S
C6889 C6890 1.398 . S
C6890 H6878 0.950 . S
C6890 C6889 1.398 . S
C6890 C6891 1.391 . S
C6891 H6879 0.950 . S
C6891 C6887 1.393 . S
C6891 C6890 1.391 . S
H6892 C6900 0.950 . S
H6893 C6905 0.950 . S
H6894 C6902 0.951 . S
H6895 C6904 0.950 . S
H6896 C6906 0.950 . S
H6897 C6908 0.950 . S
H6898 C6910 0.950 . S
H6899 C6911 0.950 . S
C6900 H6892 0.950 . S
C6900 C6901 1.386 . S
C6900 C6902 1.391 . S
C6901 C6900 1.386 . S
C6901 C6905 1.393 . S
C6902 H6894 0.951 . S
C6902 C6900 1.391 . S
C6902 C6903 1.400 1_554 S
C6903 C6902 1.400 1_556 S
C6903 C6904 1.398 . S
C6903 C6909 1.491 . S
C6904 H6895 0.950 . S
C6904 C6903 1.398 . S
C6904 C6905 1.391 1_556 S
C6905 H6893 0.950 . S
C6905 C6901 1.393 . S
C6905 C6904 1.391 1_554 S
C6906 H6896 0.950 . S
C6906 C6907 1.386 . S
C6906 C6908 1.391 . S
C6907 C6906 1.386 . S
C6907 C6911 1.393 . S
C6908 H6897 0.950 . S
C6908 C6906 1.391 . S
C6908 C6909 1.400 . S
C6909 C6903 1.491 . S
C6909 C6908 1.400 . S
C6909 C6910 1.398 . S
C6910 H6898 0.950 . S
C6910 C6909 1.398 . S
C6910 C6911 1.391 . S
C6911 H6899 0.950 . S
C6911 C6907 1.393 . S
C6911 C6910 1.391 . S
C4041 C560 4.001 . S
C4047 C56 4.012 . S
C4061 C656 4.076 . S
C4067 C140 4.124 . S
C4081 C404 4.007 . S
C4087 C236 3.994 1_455 S
C4101 C488 4.125 . S
C4107 C308 4.081 . S
C4121 C896 4.131 . S
C4127 C728 4.147 . S
C4141 C992 4.110 . S
C4147 C824 4.092 . S
C4161 C1244 4.145 . S
C4167 C1076 4.131 . S
C4181 C1316 4.091 . S
C4187 C1148 4.110 . S
C4201 C1484 4.188 . S
C4207 C1399 4.151 . S
C4221 C1988 4.179 . S
C4227 C1568 4.149 . S
C4241 C1831 4.150 . S
C4247 C1664 4.188 . S
C4261 C1748 4.142 1_554 S
C4267 C1916 4.173 . S
C4281 C2072 4.009 . S
C4287 C2576 3.995 . S
C4301 C2156 4.125 . S
C4307 C2672 4.080 . S
C4321 C2252 3.998 . S
C4327 C2420 4.012 . S
C4341 C2324 4.079 . S
C4347 C2504 4.126 . S
C4361 C2744 4.148 1_455 S
C4367 C2912 4.135 . S
C4381 C2840 4.092 . S
C4387 C3008 4.110 . S
C4401 C3092 4.130 . S
C4407 C3260 4.144 . S
C4421 C3332 4.086 . S
C4427 C3164 4.107 1_545 S
C4441 C3415 4.156 . S
C4447 C3500 4.189 . S
C4461 C4004 4.179 . S
C4467 C3584 4.147 . S
C4481 C3680 4.189 1_545 S
C4487 C3847 4.156 . S
C4501 C3764 4.144 . S
C4507 C3932 4.175 1_455 S
C4521 C68 3.133 . S
C4527 C812 3.165 . S
C4541 C152 3.312 . S
C4547 C908 3.266 . S
C4561 C224 3.910 . S
C4567 C980 3.906 . S
C4581 C740 3.641 . S
C4587 C320 3.667 . S
C4601 C1328 3.163 . S
C4607 C392 3.136 . S
C4621 C1064 3.278 . S
C4627 C476 3.296 . S
C4641 C1160 3.903 . S
C4647 C572 3.915 . S
C4661 C644 3.656 . S
C4667 C1232 3.648 . S
C4681 C1580 2.297 . S
C4687 C1411 2.315 . S
C4701 C1904 4.715 . S
C4707 C1496 4.770 . S
C4721 C1652 4.764 . S
C4727 C2000 4.722 . S
C4741 C1819 2.321 . S
C4747 C1736 2.283 . S
C4761 C2084 3.150 . S
C4767 C2828 3.149 . S
C4781 C2924 3.269 . S
C4787 C2168 3.310 . S
C4801 C2996 3.911 . S
C4807 C2240 3.906 . S
C4821 C2336 3.666 . S
C4827 C2756 3.643 . S
C4841 C3344 3.157 . S
C4847 C2408 3.143 . S
C4861 C2492 3.302 . S
C4867 C3080 3.279 . S
C4881 C2588 3.903 . S
C4887 C3176 3.916 . S
C4901 C2660 3.666 . S
C4907 C3248 3.641 . S
C4921 C3427 2.314 . S
C4927 C3596 2.295 . S
C4941 C3920 4.716 . S
C4947 C3512 4.770 . S
C4961 C4016 4.714 . S
C4967 C3668 4.771 . S
C4981 C3752 2.275 . S
C4987 C3835 2.332 . S
C5001 C58 0.691 . S
C5007 C307 0.767 . S
C5021 C55 0.915 . S
C5027 C142 0.803 . S
C5041 C235 1.334 . S
C5047 C139 1.298 1_565 S
C5061 C310 0.782 . S
C5067 C238 0.929 . S
C5081 C490 0.718 1_565 S
C5087 C403 0.903 . S
C5101 C559 1.330 . S
C5107 C487 1.290 . S
C5121 C562 0.859 . S
C5127 C658 0.859 . S
C5141 C406 0.757 . S
C5147 C655 0.806 . S
C5161 C730 0.917 . S
C5167 C1567 0.244 . S
C5181 C823 0.977 . S
C5187 C1666 0.874 . S
C5201 C898 1.060 . S
C5207 C1750 1.129 . S
C5221 C991 2.878 . S
C5227 C1483 2.910 . S
C5241 C1075 1.395 . S
C5247 C1918 0.965 . S
C5261 C1400 0.598 . S
C5267 C1150 0.813 . S
C5281 C1987 2.423 1_556 S
C5287 C1243 2.382 . S
C5301 C1318 1.004 . S
C5307 C1822 1.576 . S
C5321 C1414 1.505 . S
C5327 C826 1.003 . S
C5341 C1486 0.793 . S
C5347 C1315 0.991 . S
C5361 C1570 1.141 1_554 S
C5367 C1078 1.006 . S
C5381 C1147 2.876 . S
C5387 C1663 2.909 1_556 S
C5401 C1246 0.933 . S
C5407 C1747 0.250 . S
C5421 C994 0.879 . S
C5427 C1832 0.513 . S
C5441 C727 2.388 . S
C5447 C1915 2.420 . S
C5461 C1990 0.963 . S
C5467 C895 1.395 . S
C5481 C2074 0.711 . S
C5487 C2323 0.764 . S
C5501 C2158 0.770 . S
C5507 C2071 0.914 . S
C5521 C2155 1.293 . S
C5527 C2251 1.335 . S
C5541 C2254 0.884 . S
C5547 C2326 0.836 . S
C5561 C2419 0.919 . S
C5567 C2506 0.814 . S
C5581 C2575 1.328 . S
C5587 C2503 1.294 . S
C5601 C2674 0.865 . S
C5607 C2578 0.853 . S
C5621 C2671 0.803 . S
C5627 C2422 0.778 . S
C5641 C2746 0.939 . S
C5647 C3583 0.240 . S
C5661 C3682 0.873 . S
C5667 C2839 0.979 . S
C5681 C3766 1.137 . S
C5687 C2914 1.045 . S
C5701 C3007 2.883 . S
C5707 C3499 2.905 . S
C5721 C3934 1.033 . S
C5727 C3091 1.389 . S
C5741 C3166 0.845 . S
C5747 C3416 0.576 . S
C5761 C3259 2.389 . S
C5767 C4003 2.420 . S
C5781 C3334 1.053 . S
C5787 C3838 1.519 . S
C5801 C2842 1.019 . S
C5807 C3430 1.533 . S
C5821 C3331 0.995 . S
C5827 C3502 0.792 . S
C5841 C3094 1.004 . S
C5847 C3586 1.182 . S
C5861 C3679 2.909 . S
C5867 C3163 2.881 . S
C5881 C3262 0.915 . S
C5887 C3763 0.166 . S
C5901 C3848 0.595 . S
C5907 C3010 0.811 . S
C5921 C3931 2.423 . S
C5927 C2743 2.379 . S
C5941 C2911 1.390 . S
C5947 C4006 1.035 . S
C5961 C67 0.784 . S
C5967 C3754 0.364 . S
C5981 C3511 2.527 . S
C5987 C151 2.529 . S
C6001 C226 0.581 . S
C6007 C3595 0.647 . S
C6021 C319 0.750 . S
C6027 C3670 0.744 . S
C6041 C394 0.600 . S
C6047 C4015 0.564 . S
C6061 C478 1.765 . S
C6067 C3850 2.062 . S
C6081 C571 0.760 . S
C6087 C3922 0.715 . S
C6101 C646 0.471 . S
C6107 C3428 0.500 . S
C6121 C739 2.347 . S
C6127 C3343 2.323 . S
C6141 C814 1.396 . S
C6147 C3082 1.256 . S
C6161 C907 2.797 . S
C6167 C3175 2.824 . S
C6181 C982 1.837 . S
C6187 C3250 1.855 . S
C6201 C1066 1.252 . S
C6207 C2830 1.389 . S
C6221 C1159 2.831 . S
C6227 C2923 2.802 . S
C6241 C1234 1.846 . S
C6247 C2998 1.844 . S
C6261 C1327 2.323 . S
C6267 C2755 2.359 . S
C6281 C1412 0.592 . S
C6287 C2662 0.419 . S
C6301 C1495 2.532 1_556 S
C6307 C2167 2.533 . S
C6321 C1579 0.606 . S
C6327 C2242 0.541 . S
C6341 C1654 0.688 . S
C6347 C2335 0.682 . S
C6361 C1738 0.341 . S
C6367 C2083 0.717 . S
C6381 C1834 2.066 . S
C6387 C2494 1.766 . S
C6401 C1906 0.733 . S
C6407 C2587 0.773 . S
C6421 C1999 0.536 . S
C6427 C2410 0.521 . S
C6441 C391 0.735 . S
C6447 C3598 0.402 . S
C6461 C475 2.531 . S
C6467 C3667 2.539 . S
C6481 C574 0.541 . S
C6487 C3751 0.655 . S
C6501 C643 0.721 . S
C6507 C3514 0.740 . S
C6521 C70 0.604 . S
C6527 C3919 0.508 . S
C6541 C154 1.800 . S
C6547 C3418 2.055 . S
C6561 C223 0.770 . S
C6567 C4018 0.725 . S
C6581 C3836 0.499 . S
C6587 C322 0.473 . S
C6601 C1231 2.344 1_565 S
C6607 C2827 2.309 . S
C6621 C1330 1.386 . S
C6627 C2926 1.219 . S
C6641 C1063 2.797 . S
C6647 C2995 2.823 . S
C6661 C1162 1.829 . S
C6667 C2758 1.860 . S
C6681 C910 1.223 . S
C6687 C3346 1.422 . S
C6701 C979 2.831 1_655 S
C6707 C3079 2.811 . S
C6721 C742 1.855 . S
C6727 C3178 1.837 . S
C6741 C811 2.324 . S
C6747 C3247 2.348 . S
C6761 C1820 0.513 . S
C6767 C2338 0.490 . S
C6781 C1651 2.534 . S
C6787 C2491 2.522 . S
C6801 C1735 0.599 . S
C6807 C2590 0.577 . S
C6821 C1498 0.745 . S
C6827 C2659 0.704 . S
C6841 C1582 0.354 . S
C6847 C2407 0.778 . S
C6861 C1402 2.066 . S
C6867 C2170 1.766 . S
C6881 C2002 0.777 . S
C6887 C2239 0.731 . S
C6901 C1903 0.546 . S
C6907 C2086 0.611 . S
