# Generated by pormake.
# Topology lcy-e, (6)-cn, num edge types: 1
# Building blocks:
#     Node 0, Type 0, BuildingBlock: VOLQOD_clean_sbu_1, # of connection points: 6
#     Node 1, Type 0, BuildingBlock: VOLQOD_clean_sbu_1, # of connection points: 6
#     Node 2, Type 0, BuildingBlock: VOLQOD_clean_sbu_1, # of connection points: 6
#     Node 3, Type 0, BuildingBlock: VOLQOD_clean_sbu_1, # of connection points: 6
#     Node 4, Type 0, BuildingBlock: VOLQOD_clean_sbu_1, # of connection points: 6
#     Node 5, Type 0, BuildingBlock: VOLQOD_clean_sbu_1, # of connection points: 6
#     Node 6, Type 0, BuildingBlock: VOLQOD_clean_sbu_1, # of connection points: 6
#     Node 7, Type 0, BuildingBlock: VOLQOD_clean_sbu_1, # of connection points: 6
#     Node 8, Type 0, BuildingBlock: VOLQOD_clean_sbu_1, # of connection points: 6
#     Node 9, Type 0, BuildingBlock: VOLQOD_clean_sbu_1, # of connection points: 6
#     Node 10, Type 0, BuildingBlock: VOLQOD_clean_sbu_1, # of connection points: 6
#     Node 11, Type 0, BuildingBlock: VOLQOD_clean_sbu_1, # of connection points: 6
#     Edge 12, Type (0, 0), BuildingBlock: XIVTED_clean_linker_0, # of connection points: 2
#     Edge 13, Type (0, 0), BuildingBlock: XIVTED_clean_linker_0, # of connection points: 2
#     Edge 14, Type (0, 0), BuildingBlock: XIVTED_clean_linker_0, # of connection points: 2
#     Edge 15, Type (0, 0), BuildingBlock: XIVTED_clean_linker_0, # of connection points: 2
#     Edge 16, Type (0, 0), BuildingBlock: XIVTED_clean_linker_0, # of connection points: 2
#     Edge 17, Type (0, 0), BuildingBlock: XIVTED_clean_linker_0, # of connection points: 2
#     Edge 18, Type (0, 0), BuildingBlock: XIVTED_clean_linker_0, # of connection points: 2
#     Edge 19, Type (0, 0), BuildingBlock: XIVTED_clean_linker_0, # of connection points: 2
#     Edge 20, Type (0, 0), BuildingBlock: XIVTED_clean_linker_0, # of connection points: 2
#     Edge 21, Type (0, 0), BuildingBlock: XIVTED_clean_linker_0, # of connection points: 2
#     Edge 22, Type (0, 0), BuildingBlock: XIVTED_clean_linker_0, # of connection points: 2
#     Edge 23, Type (0, 0), BuildingBlock: XIVTED_clean_linker_0, # of connection points: 2
#     Edge 24, Type (0, 0), BuildingBlock: XIVTED_clean_linker_0, # of connection points: 2
#     Edge 25, Type (0, 0), BuildingBlock: XIVTED_clean_linker_0, # of connection points: 2
#     Edge 26, Type (0, 0), BuildingBlock: XIVTED_clean_linker_0, # of connection points: 2
#     Edge 27, Type (0, 0), BuildingBlock: XIVTED_clean_linker_0, # of connection points: 2
#     Edge 28, Type (0, 0), BuildingBlock: XIVTED_clean_linker_0, # of connection points: 2
#     Edge 29, Type (0, 0), BuildingBlock: XIVTED_clean_linker_0, # of connection points: 2
#     Edge 30, Type (0, 0), BuildingBlock: XIVTED_clean_linker_0, # of connection points: 2
#     Edge 31, Type (0, 0), BuildingBlock: XIVTED_clean_linker_0, # of connection points: 2
#     Edge 32, Type (0, 0), BuildingBlock: XIVTED_clean_linker_0, # of connection points: 2
#     Edge 33, Type (0, 0), BuildingBlock: XIVTED_clean_linker_0, # of connection points: 2
#     Edge 34, Type (0, 0), BuildingBlock: XIVTED_clean_linker_0, # of connection points: 2
#     Edge 35, Type (0, 0), BuildingBlock: XIVTED_clean_linker_0, # of connection points: 2
#     Edge 36, Type (0, 0), BuildingBlock: XIVTED_clean_linker_0, # of connection points: 2
#     Edge 37, Type (0, 0), BuildingBlock: XIVTED_clean_linker_0, # of connection points: 2
#     Edge 38, Type (0, 0), BuildingBlock: XIVTED_clean_linker_0, # of connection points: 2
#     Edge 39, Type (0, 0), BuildingBlock: XIVTED_clean_linker_0, # of connection points: 2
#     Edge 40, Type (0, 0), BuildingBlock: XIVTED_clean_linker_0, # of connection points: 2
#     Edge 41, Type (0, 0), BuildingBlock: XIVTED_clean_linker_0, # of connection points: 2
#     Edge 42, Type (0, 0), BuildingBlock: XIVTED_clean_linker_0, # of connection points: 2
#     Edge 43, Type (0, 0), BuildingBlock: XIVTED_clean_linker_0, # of connection points: 2
#     Edge 44, Type (0, 0), BuildingBlock: XIVTED_clean_linker_0, # of connection points: 2
#     Edge 45, Type (0, 0), BuildingBlock: XIVTED_clean_linker_0, # of connection points: 2
#     Edge 46, Type (0, 0), BuildingBlock: XIVTED_clean_linker_0, # of connection points: 2
#     Edge 47, Type (0, 0), BuildingBlock: XIVTED_clean_linker_0, # of connection points: 2
# Relax obj value: 0.403
# Max RMSD: 0.291
# Mean RMSD: 0.282
data_MOF--net-lcy-e--node1-VOLQOD_clean_sbu_1--edge1-XIVTED_clean_linker_0
_symmetry_space_group_name_H-M    P1
_symmetry_Int_Tables_number       1
_symmetry_cell_setting            triclinic
loop_
_symmetry_equiv_pos_as_xyz
'x, y, z'
_cell_length_a     37.747874
_cell_length_b     37.847036
_cell_length_c     37.929457
_cell_angle_alpha  90.475632
_cell_angle_beta   90.54627
_cell_angle_gamma 90.41346
loop_
_atom_site_label
_atom_site_type_symbol
_atom_site_fract_x
_atom_site_fract_y
_atom_site_fract_z
_atom_type_partial_charge
O0 O 0.25264 0.13928 0.44675 0.0
Zn1 Zn 0.21493 0.15093 0.48195 0.0
O2 O 0.1768 0.17329 0.4561 0.0
Zn3 Zn 0.17662 0.22046 0.47156 0.0
Zn4 Zn 0.18109 0.17147 0.40599 0.0
Zn5 Zn 0.13216 0.15337 0.46691 0.0
O6 O 0.14447 0.22546 0.51239 0.0
O7 O 0.10998 0.17786 0.50838 0.0
O8 O 0.23771 0.18571 0.5178 0.0
O9 O 0.22441 0.23409 0.48785 0.0
O10 O 0.16192 0.25256 0.4338 0.0
O11 O 0.17228 0.22017 0.38587 0.0
O12 O 0.14265 0.14107 0.38437 0.0
O13 O 0.19728 0.10402 0.50205 0.0
O14 O 0.10055 0.15026 0.42392 0.0
O15 O 0.14176 0.10466 0.48146 0.0
C16 C 0.25436 0.14049 0.41323 0.0
C17 C 0.11921 0.2065 0.52386 0.0
C18 C 0.16297 0.2491 0.40052 0.0
C19 C 0.24273 0.21843 0.51112 0.0
C20 C 0.11021 0.14026 0.39331 0.0
C21 C 0.16749 0.08873 0.49605 0.0
O22 O 0.22897 0.15205 0.39418 0.0
O23 O 0.04383 0.72948 0.63575 0.0
Zn24 Zn -0.0005 0.75935 0.64003 0.0
O25 O 0.01363 0.80918 0.64868 0.0
Zn26 Zn -0.00394 0.82642 0.69326 0.0
Zn27 Zn 0.06451 0.81513 0.6485 0.0
Zn28 Zn 0.9944 0.83859 0.61244 0.0
O29 O 0.95423 0.85851 0.68669 0.0
O30 O 0.95071 0.86403 0.62851 0.0
O31 O 0.97336 0.73974 0.68294 0.0
O32 O 0.97968 0.78508 0.72033 0.0
O33 O 0.03375 0.8497 0.72353 0.0
O34 O 0.08221 0.83604 0.69387 0.0
O35 O 0.08099 0.84904 0.61211 0.0
O36 O 0.97106 0.75412 0.59358 0.0
O37 O 0.03049 0.87239 0.59341 0.0
O38 O 0.97882 0.80855 0.57293 0.0
C39 C 0.0768 0.73702 0.63734 0.0
C40 C 0.93869 0.87 0.65918 0.0
C41 C 0.06729 0.84981 0.72049 0.0
C42 C 0.97068 0.75325 0.71379 0.0
C43 C 0.06421 0.87163 0.59399 0.0
C44 C 0.96872 0.77673 0.56886 0.0
O45 O 0.08768 0.76865 0.64186 0.0
O46 O 0.39084 0.85264 0.95503 0.0
Zn47 Zn 0.35971 0.821 0.98489 0.0
O48 O 0.31075 0.83407 0.97679 0.0
Zn49 Zn 0.28429 0.83234 0.01997 0.0
Zn50 Zn 0.30707 0.87952 0.95518 0.0
Zn51 Zn 0.29197 0.80189 0.94297 0.0
O52 O 0.24595 0.79372 0.01747 0.0
O53 O 0.26203 0.76745 0.96748 0.0
O54 O 0.3717 0.82048 0.03788 0.0
O55 O 0.31716 0.81928 0.05955 0.0
O56 O 0.26918 0.88208 0.03373 0.0
O57 O 0.29689 0.91421 0.9931 0.0
O58 O 0.26719 0.88196 0.91962 0.0
O59 O 0.36888 0.77255 0.96378 0.0
O60 O 0.25898 0.82481 0.90902 0.0
O61 O 0.3308 0.77582 0.91882 0.0
C62 C 0.38362 0.8769 0.93289 0.0
C63 C 0.24345 0.76818 -0.00476 0.0
C64 C 0.27974 0.91183 0.02179 0.0
C65 C 0.35059 0.81753 0.06393 0.0
C66 C 0.25118 0.85689 0.90351 0.0
C67 C 0.35806 0.76245 0.93337 0.0
O68 O 0.35254 0.88963 0.93016 0.0
O69 O 0.4357 0.09025 0.15177 0.0
Zn70 Zn 0.47402 0.11686 0.1784 0.0
O71 O 0.4765 0.16594 0.16316 0.0
Zn72 Zn 0.52403 0.1797 0.14916 0.0
Zn73 Zn 0.44497 0.17201 0.12354 0.0
Zn74 Zn 0.46145 0.1966 0.20037 0.0
O75 O 0.54505 0.2192 0.17973 0.0
O76 O 0.50105 0.2264 0.21749 0.0
O77 O 0.52183 0.09348 0.17403 0.0
O78 O 0.5553 0.13858 0.15673 0.0
O79 O 0.52691 0.18817 0.09673 0.0
O80 O 0.47292 0.17137 0.07952 0.0
O81 O 0.41875 0.21759 0.12659 0.0
O82 O 0.45783 0.11377 0.22867 0.0
O83 O 0.42498 0.23007 0.18357 0.0
O84 O 0.44394 0.16936 0.24145 0.0
C85 C 0.41056 0.10077 0.13189 0.0
C86 C 0.53198 0.23392 0.20697 0.0
C87 C 0.50471 0.17987 0.07243 0.0
C88 C 0.55184 0.10643 0.16558 0.0
C89 C 0.41208 0.23682 0.15332 0.0
C90 C 0.44548 0.13689 0.24967 0.0
O91 O 0.40969 0.13229 0.12049 0.0
O92 O 0.72247 0.26199 0.48602 0.0
Zn93 Zn 0.67624 0.28342 0.49582 0.0
O94 O 0.68362 0.33062 0.5113 0.0
Zn95 Zn 0.68308 0.33178 0.56143 0.0
Zn96 Zn 0.72807 0.34782 0.49143 0.0
Zn97 Zn 0.64334 0.35675 0.49585 0.0
O98 O 0.64463 0.36229 0.58022 0.0
O99 O 0.60715 0.3638 0.53486 0.0
O100 O 0.65289 0.25407 0.53246 0.0
O101 O 0.67098 0.28381 0.58023 0.0
O102 O 0.72907 0.35026 0.57969 0.0
O103 O 0.76103 0.36252 0.53213 0.0
O104 O 0.717 0.39287 0.46287 0.0
O105 O 0.64953 0.28311 0.45019 0.0
O106 O 0.66167 0.40331 0.48089 0.0
O107 O 0.62249 0.33494 0.45156 0.0
C108 C 0.74966 0.27389 0.47049 0.0
C109 C 0.6141 0.36877 0.56753 0.0
C110 C 0.75724 0.36191 0.56554 0.0
C111 C 0.65616 0.25691 0.56578 0.0
C112 C 0.68995 0.41299 0.46557 0.0
C113 C 0.62929 0.30582 0.43606 0.0
O114 O 0.75379 0.30703 0.46488 0.0
O115 O 0.95241 0.23062 0.83853 0.0
Zn116 Zn 0.99359 0.26454 0.83098 0.0
O117 O 0.97612 0.31289 0.82936 0.0
Zn118 Zn -0.00217 0.34002 0.79302 0.0
Zn119 Zn 0.92638 0.31401 0.82345 0.0
Zn120 Zn 0.98795 0.33314 0.87421 0.0
O121 O 0.03542 0.37266 0.81303 0.0
O122 O 0.03543 0.35868 0.87 0.0
O123 O 0.01801 0.25254 0.78505 0.0
O124 O 0.02274 0.3063 0.76209 0.0
O125 O 0.96174 0.36329 0.76096 0.0
O126 O 0.91348 0.33312 0.77638 0.0
O127 O 0.90483 0.34717 0.85759 0.0
O128 O 0.02796 0.26155 0.87261 0.0
O129 O 0.94911 0.36522 0.89231 0.0
O130 O 0.99392 0.29314 0.90758 0.0
C131 C 0.91905 0.23592 0.83802 0.0
C132 C 0.04938 0.37423 0.84375 0.0
C133 C 0.92931 0.35466 0.75615 0.0
C134 C 0.02843 0.27325 0.76082 0.0
C135 C 0.91663 0.36628 0.8828 0.0
C136 C 0.01955 0.27201 0.90345 0.0
O137 O 0.90617 0.26626 0.83175 0.0
O138 O 0.87537 0.64762 0.04415 0.0
Zn139 Zn 0.84784 0.67527 0.00855 0.0
O140 O 0.79878 0.65851 0.00633 0.0
Zn141 Zn 0.78658 0.64189 0.95886 0.0
Zn142 Zn 0.79181 0.6207 0.03992 0.0
Zn143 Zn 0.76799 0.69636 0.01911 0.0
O144 O 0.74543 0.66891 0.93736 0.0
O145 O 0.73872 0.71043 0.97851 0.0
O146 O 0.87064 0.67351 0.96042 0.0
O147 O 0.8272 0.65155 0.92675 0.0
O148 O 0.78051 0.58882 0.95797 0.0
O149 O 0.7902 0.5747 0.014 0.0
O150 O 0.74769 0.62665 0.06912 0.0
O151 O 0.85129 0.72479 0.02824 0.0
O152 O 0.73432 0.68193 0.05601 0.0
O153 O 0.79501 0.73826 0.03731 0.0
C154 C 0.8655 0.6285 0.06979 0.0
C155 C 0.73076 0.69698 0.94868 0.0
C156 C 0.78515 0.56577 0.98191 0.0
C157 C 0.85858 0.66361 0.93036 0.0
C158 C 0.72835 0.65379 0.07302 0.0
C159 C 0.82781 0.74603 0.03923 0.0
O160 O 0.83354 0.61807 0.07276 0.0
O161 O 0.54226 0.6133 0.35355 0.0
Zn162 Zn 0.51059 0.64515 0.32493 0.0
O163 O 0.50403 0.6907 0.34886 0.0
Zn164 Zn 0.45364 0.70061 0.35488 0.0
Zn165 Zn 0.52899 0.69068 0.39384 0.0
Zn166 Zn 0.5241 0.72797 0.32114 0.0
O167 O 0.43629 0.74098 0.32287 0.0
O168 O 0.48651 0.75381 0.29579 0.0
O169 O 0.46343 0.62131 0.31334 0.0
O170 O 0.42572 0.6597 0.33632 0.0
O171 O 0.44112 0.70207 0.40711 0.0
O172 O 0.49287 0.68813 0.43198 0.0
O173 O 0.55939 0.73448 0.40127 0.0
O174 O 0.53766 0.65172 0.28014 0.0
O175 O 0.55217 0.76241 0.35048 0.0
O176 O 0.55462 0.70802 0.28336 0.0
C177 C 0.56192 0.61888 0.38057 0.0
C178 C 0.45328 0.7574 0.29892 0.0
C179 C 0.45971 0.69382 0.43416 0.0
C180 C 0.43188 0.63082 0.32029 0.0
C181 C 0.56493 0.76102 0.38158 0.0
C182 C 0.55543 0.67777 0.2685 0.0
O183 O 0.56051 0.64788 0.39782 0.0
O184 O 0.12972 0.46712 0.2332 0.0
Zn185 Zn 0.14277 0.50226 0.19514 0.0
O186 O 0.152 0.4776 0.15118 0.0
Zn187 Zn 0.1966 0.48971 0.13112 0.0
Zn188 Zn 0.1524 0.42864 0.15881 0.0
Zn189 Zn 0.11626 0.48676 0.11735 0.0
O190 O 0.19041 0.52306 0.09067 0.0
O191 O 0.13173 0.52783 0.08815 0.0
O192 O 0.18739 0.52853 0.21175 0.0
O193 O 0.22426 0.51533 0.16822 0.0
O194 O 0.2258 0.44676 0.12001 0.0
O195 O 0.20215 0.41314 0.16156 0.0
O196 O 0.13008 0.40175 0.11949 0.0
O197 O 0.09923 0.53274 0.18818 0.0
O198 O 0.10701 0.44371 0.08597 0.0
O199 O 0.07373 0.50231 0.14382 0.0
C200 C 0.12276 0.43418 0.23085 0.0
C201 C 0.16251 0.53775 0.07883 0.0
C202 C 0.22727 0.42044 0.14068 0.0
C203 C 0.21823 0.52939 0.19813 0.0
C204 C 0.11396 0.4113 0.0917 0.0
C205 C 0.07214 0.52448 0.16928 0.0
O206 O 0.12842 0.41671 0.20279 0.0
O207 O 0.72209 0.97518 0.76549 0.0
Zn208 Zn 0.69994 0.98555 0.81087 0.0
O209 O 0.65336 0.00265 0.80105 0.0
Zn210 Zn 0.65483 0.05289 0.80586 0.0
Zn211 Zn 0.63761 0.9868 0.75362 0.0
Zn212 Zn 0.62275 0.98483 0.83677 0.0
O213 O 0.62522 0.07036 0.84527 0.0
O214 O 0.60812 0.0215 0.87238 0.0
O215 O 0.73218 0.02154 0.83438 0.0
O216 O 0.70348 0.06985 0.81803 0.0
O217 O 0.63773 0.07472 0.7618 0.0
O218 O 0.62439 0.03012 0.72526 0.0
O219 O 0.59266 0.95567 0.75752 0.0
O220 O 0.69709 0.93974 0.83663 0.0
O221 O 0.57932 0.96786 0.8135 0.0
O222 O 0.64289 0.94128 0.85874 0.0
C223 C 0.71182 0.96561 0.73489 0.0
C224 C 0.60965 0.05505 0.87048 0.0
C225 C 0.62613 0.06311 0.73228 0.0
C226 C 0.73045 0.05499 0.83154 0.0
C227 C 0.57134 0.95481 0.78352 0.0
C228 C 0.67232 0.92572 0.85438 0.0
O229 O 0.67897 0.96403 0.72642 0.0
O230 O 0.85766 0.93454 0.39182 0.0
Zn231 Zn 0.82526 0.96852 0.36654 0.0
O232 O 0.83592 0.96505 0.31691 0.0
Zn233 Zn 0.83642 0.01059 0.2952 0.0
Zn234 Zn 0.87981 0.9413 0.30767 0.0
Zn235 Zn 0.79983 0.93636 0.2967 0.0
O236 O 0.7969 0.01454 0.25879 0.0
O237 O 0.76537 0.96665 0.27202 0.0
O238 O 0.82792 0.02009 0.38373 0.0
O239 O 0.82823 0.04768 0.33218 0.0
O240 O 0.88551 0.02222 0.27794 0.0
O241 O 0.9171 0.97843 0.30105 0.0
O242 O 0.87683 0.91219 0.26242 0.0
O243 O 0.77627 0.94823 0.37659 0.0
O244 O 0.81851 0.90592 0.2587 0.0
O245 O 0.77442 0.90855 0.3331 0.0
C246 C 0.87984 0.91144 0.38131 0.0
C247 C 0.76886 -0.00438 0.25563 0.0
C248 C 0.91522 0.00863 0.28647 0.0
C249 C 0.82717 0.04855 0.36573 0.0
C250 C 0.84925 0.9001 0.24676 0.0
C251 C 0.76355 0.92005 0.36266 0.0
O252 O 0.8904 0.91022 0.34943 0.0
O253 O 0.34198 0.53467 0.63087 0.0
Zn254 Zn 0.31339 0.50413 0.66384 0.0
O255 O 0.33666 0.50202 0.71001 0.0
Zn256 Zn 0.33989 0.4534 0.72647 0.0
Zn257 Zn 0.3828 0.52454 0.70814 0.0
Zn258 Zn 0.30967 0.52828 0.74304 0.0
O259 O 0.3076 0.44363 0.76912 0.0
O260 O 0.2817 0.49598 0.77251 0.0
O261 O 0.30671 0.4548 0.64296 0.0
O262 O 0.32122 0.42141 0.68873 0.0
O263 O 0.39178 0.4385 0.72862 0.0
O264 O 0.41864 0.4864 0.70723 0.0
O265 O 0.39291 0.55643 0.75002 0.0
O266 O 0.26671 0.53001 0.66709 0.0
O267 O 0.3403 0.55699 0.77559 0.0
O268 O 0.27546 0.55909 0.71766 0.0
C269 C 0.36961 0.55386 0.63517 0.0
C270 C 0.28392 0.46394 0.78194 0.0
C271 C 0.41931 0.45425 0.71686 0.0
C272 C 0.31033 0.42453 0.65712 0.0
C273 C 0.37276 0.56608 0.77496 0.0
C274 C 0.25842 0.5544 0.68883 0.0
O275 O 0.38736 0.55338 0.66391 0.0
H276 H 0.28352 0.27263 0.48921 0.0
H277 H 0.30246 0.35731 0.6818 0.0
H278 H 0.25217 0.21735 0.58294 0.0
H279 H 0.30451 0.41697 0.58527 0.0
H280 H 0.29497 0.30296 0.64724 0.0
H281 H 0.30532 0.32159 0.52571 0.0
C282 C 0.28223 0.27042 0.51764 0.0
C283 C 0.26582 0.24113 0.53318 0.0
C284 C 0.29714 0.32794 0.63368 0.0
C285 C 0.28968 0.29747 0.57501 0.0
C286 C 0.30129 0.35902 0.65331 0.0
C287 C 0.30388 0.39184 0.63637 0.0
C288 C 0.29595 0.32958 0.5968 0.0
C289 C 0.30227 0.39237 0.59945 0.0
C290 C 0.29428 0.29853 0.53842 0.0
C291 C 0.2648 0.23945 0.57004 0.0
N292 N 0.29846 0.36168 0.58091 0.0
N293 N 0.27601 0.26765 0.58981 0.0
H294 H 0.71749 0.90834 0.6895 0.0
H295 H 0.92126 0.91696 0.71048 0.0
H296 H 0.77125 0.00321 0.72507 0.0
H297 H 0.87943 0.86497 0.61725 0.0
H298 H 0.86371 0.94467 0.71948 0.0
H299 H 0.77349 0.88813 0.66302 0.0
C300 C 0.74065 0.92538 0.69059 0.0
C301 C 0.74008 0.95721 0.70976 0.0
C302 C 0.86724 0.92752 0.6968 0.0
C303 C 0.80356 0.93413 0.68086 0.0
C304 C 0.89996 0.91165 0.69178 0.0
C305 C 0.90498 0.88891 0.66304 0.0
C306 C 0.83901 0.91975 0.67353 0.0
C307 C 0.87651 0.88272 0.63956 0.0
C308 C 0.77253 0.91381 0.67577 0.0
C309 C 0.77083 0.97824 0.7109 0.0
N310 N 0.84437 0.89761 0.64564 0.0
N311 N 0.80148 0.96601 0.69738 0.0
H312 H 0.22799 0.714 0.94994 0.0
H313 H 0.21235 0.55247 0.0296 0.0
H314 H 0.20793 0.75054 0.05611 0.0
H315 H 0.12273 0.59719 0.0833 0.0
H316 H 0.22447 0.61025 0.00355 0.0
H317 H 0.20127 0.65729 0.96422 0.0
C318 C 0.21759 0.71035 0.97619 0.0
C319 C 0.22109 0.73685 0.00224 0.0
C320 C 0.20163 0.60713 0.02035 0.0
C321 C 0.19045 0.67188 0.01839 0.0
C322 C 0.19482 0.57431 0.03522 0.0
C323 C 0.16639 0.5702 0.05826 0.0
C324 C 0.18041 0.6361 0.02941 0.0
C325 C 0.14464 0.59935 0.0652 0.0
C326 C 0.20243 0.67791 0.9842 0.0
C327 C 0.20627 0.7307 0.03544 0.0
N328 N 0.1526 0.63145 0.05144 0.0
N329 N 0.19184 0.69854 0.04275 0.0
H330 H 0.61879 0.1247 0.14582 0.0
H331 H 0.7065 0.96083 0.24251 0.0
H332 H 0.55891 0.03961 0.19245 0.0
H333 H 0.76258 0.05758 0.21882 0.0
H334 H 0.65455 0.98321 0.21183 0.0
H335 H 0.67336 0.0937 0.15965 0.0
C336 C 0.61703 0.09927 0.15862 0.0
C337 C 0.5842 0.08505 0.1687 0.0
C338 C 0.67832 -0.0006 0.21308 0.0
C339 C 0.64672 0.04956 0.18457 0.0
C340 C 0.70805 0.98671 0.23062 0.0
C341 C 0.73881 0.00769 0.23382 0.0
C342 C 0.67928 0.03329 0.19856 0.0
C343 C 0.73932 0.04072 0.21739 0.0
C344 C 0.64827 0.08164 0.1665 0.0
C345 C 0.58363 0.05175 0.18462 0.0
N346 N 0.7098 0.05268 0.20073 0.0
N347 N 0.61453 0.0353 0.19248 0.0
H348 H 0.78102 0.26869 0.40535 0.0
H349 H 0.82086 0.06366 0.43667 0.0
H350 H 0.7732 0.21698 0.50579 0.0
H351 H 0.82705 0.11383 0.33506 0.0
H352 H 0.81207 0.12173 0.46393 0.0
H353 H 0.8079 0.21493 0.38074 0.0
C354 C 0.78609 0.24649 0.42246 0.0
C355 C 0.77481 0.24713 0.45755 0.0
C356 C 0.81565 0.12006 0.43568 0.0
C357 C 0.80452 0.18544 0.42963 0.0
C358 C 0.82061 0.08683 0.4201 0.0
C359 C 0.82425 0.08363 0.38344 0.0
C360 C 0.81418 0.1504 0.41449 0.0
C361 C 0.82396 0.1148 0.36339 0.0
C362 C 0.801 0.21564 0.40837 0.0
C363 C 0.78138 0.21742 0.47851 0.0
N364 N 0.81869 0.14673 0.3791 0.0
N365 N 0.79536 0.18772 0.46417 0.0
H366 H 0.10824 0.34478 0.87298 0.0
H367 H 0.23593 0.50238 0.81877 0.0
H368 H 0.07188 0.43817 0.81996 0.0
H369 H 0.2651 0.39448 0.79601 0.0
H370 H 0.18018 0.48138 0.84292 0.0
H371 H 0.16979 0.36586 0.86699 0.0
C372 C 0.11318 0.37022 0.86113 0.0
C373 C 0.08509 0.38998 0.84714 0.0
C374 C 0.19914 0.46231 0.83329 0.0
C375 C 0.15481 0.41411 0.84055 0.0
C376 C 0.23106 0.47415 0.81951 0.0
C377 C 0.25507 0.45018 0.80452 0.0
C378 C 0.19119 0.42618 0.83277 0.0
C379 C 0.24731 0.41391 0.80695 0.0
C380 C 0.14818 0.38196 0.85742 0.0
C381 C 0.09283 0.42234 0.83124 0.0
N382 N 0.21571 0.40295 0.82041 0.0
N383 N 0.12699 0.43348 0.82847 0.0
H384 H 0.62877 0.8884 0.8982 0.0
H385 H 0.74264 0.71246 0.87988 0.0
H386 H 0.72308 0.87834 0.83537 0.0
H387 H 0.67135 0.73279 0.96569 0.0
H388 H 0.72177 0.76623 0.85104 0.0
H389 H 0.63302 0.82576 0.91305 0.0
C390 C 0.65046 0.87311 0.88769 0.0
C391 C 0.67596 0.88879 0.86601 0.0
C392 C 0.70997 0.75833 0.87569 0.0
C393 C 0.68031 0.81707 0.88204 0.0
C394 C 0.72142 0.72737 0.89181 0.0
C395 C 0.70893 0.71867 0.9253 0.0
C396 C 0.68586 0.78027 0.89328 0.0
C397 C 0.6818 0.73901 0.93995 0.0
C398 C 0.65265 0.83734 0.8959 0.0
C399 C 0.70319 0.86756 0.8527 0.0
N400 N 0.67158 0.76933 0.92416 0.0
N401 N 0.70466 0.8328 0.86098 0.0
H402 H 0.43079 0.57899 0.26921 0.0
H403 H 0.2188 0.56429 0.26236 0.0
H404 H 0.36277 0.63638 0.34006 0.0
H405 H 0.28783 0.52745 0.17981 0.0
H406 H 0.27113 0.58518 0.29555 0.0
H407 H 0.37824 0.55231 0.24137 0.0
C408 C 0.40488 0.58556 0.27927 0.0
C409 C 0.40117 0.61022 0.30674 0.0
C410 C 0.27466 0.57252 0.27013 0.0
C411 C 0.34096 0.58017 0.27481 0.0
C412 C 0.24483 0.56074 0.25114 0.0
C413 C 0.24882 0.54426 0.21815 0.0
C414 C 0.30864 0.56746 0.25613 0.0
C415 C 0.28328 0.54016 0.20502 0.0
C416 C 0.37487 0.57056 0.2632 0.0
C417 C 0.36686 0.61779 0.31866 0.0
N418 N 0.31175 0.55158 0.22405 0.0
N419 N 0.33808 0.60301 0.30249 0.0
H420 H 0.60146 0.22477 0.22492 0.0
H421 H 0.58044 0.34393 0.39844 0.0
H422 H 0.5114 0.2913 0.24455 0.0
H423 H 0.65105 0.25503 0.38968 0.0
H424 H 0.5631 0.3351 0.33662 0.0
H425 H 0.62981 0.24819 0.27874 0.0
C426 C 0.58832 0.24532 0.23981 0.0
C427 C 0.55399 0.25593 0.23068 0.0
C428 C 0.58248 0.31766 0.34829 0.0
C429 C 0.58559 0.28202 0.29231 0.0
C430 C 0.59219 0.3225 0.38361 0.0
C431 C 0.61681 0.29984 0.39945 0.0
C432 C 0.59777 0.29021 0.32862 0.0
C433 C 0.63153 0.27279 0.37879 0.0
C434 C 0.60421 0.25827 0.27076 0.0
C435 C 0.53782 0.28228 0.25104 0.0
N436 N 0.62174 0.26871 0.34448 0.0
N437 N 0.55353 0.29407 0.28124 0.0
H438 H 0.12621 0.2691 0.55897 0.0
H439 H 0.02166 0.20718 0.73046 0.0
H440 H 0.0766 0.16624 0.56639 0.0
H441 H 0.07326 0.30844 0.71829 0.0
H442 H 0.04307 0.1896 0.67187 0.0
H443 H 0.10641 0.283 0.61802 0.0
C444 C 0.11085 0.24949 0.57294 0.0
C445 C 0.10314 0.21642 0.55774 0.0
C446 C 0.04988 0.21553 0.68227 0.0
C447 C 0.08064 0.23203 0.62589 0.0
C448 C 0.03799 0.22539 0.71575 0.0
C449 C 0.04549 0.25938 0.72896 0.0
C450 C 0.06939 0.23988 0.66231 0.0
C451 C 0.06649 0.28213 0.70888 0.0
C452 C 0.09967 0.25738 0.60682 0.0
C453 C 0.08301 0.19213 0.57711 0.0
N454 N 0.07749 0.27204 0.67654 0.0
N455 N 0.07256 0.20036 0.61038 0.0
H456 H 0.92262 0.69776 0.71436 0.0
H457 H 0.92512 0.69267 0.92561 0.0
H458 H 0.9916 0.76048 0.78169 0.0
H459 H 0.84134 0.64585 0.86202 0.0
H460 H 0.95688 0.70712 0.87186 0.0
H461 H 0.89923 0.66841 0.76715 0.0
C462 C 0.93313 0.70496 0.74013 0.0
C463 C 0.95856 0.73195 0.74382 0.0
C464 C 0.93166 0.6934 0.86967 0.0
C465 C 0.93243 0.69863 0.80379 0.0
C466 C 0.91355 0.68508 0.9004 0.0
C467 C 0.88023 0.66855 0.89839 0.0
C468 C 0.91637 0.68524 0.83662 0.0
C469 C 0.86675 0.65905 0.86488 0.0
C470 C 0.91977 0.68836 0.77017 0.0
C471 C 0.97145 0.74029 0.77773 0.0
N472 N 0.88469 0.66788 0.83528 0.0
N473 N 0.95815 0.72386 0.80632 0.0
H474 H 0.48133 0.80393 0.25211 0.0
H475 H 0.3132 0.7987 0.12239 0.0
H476 H 0.38303 0.75196 0.27839 0.0
H477 H 0.41923 0.82457 0.089 0.0
H478 H 0.33548 0.79032 0.18231 0.0
H479 H 0.45531 0.8221 0.19614 0.0
C480 C 0.45396 0.79693 0.24648 0.0
C481 C 0.43447 0.77601 0.26999 0.0
C482 C 0.35386 0.79792 0.16192 0.0
C483 C 0.40465 0.79647 0.20535 0.0
C484 C 0.34121 0.80273 0.12759 0.0
C485 C 0.36441 0.81224 0.10036 0.0
C486 C 0.38998 0.80295 0.16942 0.0
C487 C 0.40039 0.81702 0.10896 0.0
C488 C 0.43925 0.80711 0.21429 0.0
C489 C 0.39907 0.76806 0.26119 0.0
N490 N 0.41203 0.81237 0.14271 0.0
N491 N 0.38541 0.77795 0.22938 0.0
H492 H 0.16029 0.31873 0.41951 0.0
H493 H 0.08287 0.37453 0.23249 0.0
H494 H 0.13782 0.24702 0.33287 0.0
H495 H 0.14215 0.4466 0.2996 0.0
H496 H 0.08469 0.33048 0.27897 0.0
H497 H 0.13875 0.36775 0.38365 0.0
C498 C 0.15077 0.31331 0.39296 0.0
C499 C 0.15124 0.27888 0.37886 0.0
C500 C 0.09663 0.3562 0.28382 0.0
C501 C 0.12587 0.33446 0.33841 0.0
C502 C 0.09536 0.38141 0.25748 0.0
C503 C 0.11316 0.41378 0.26207 0.0
C504 C 0.11599 0.36346 0.31476 0.0
C505 C 0.12845 0.42172 0.29502 0.0
C506 C 0.13836 0.34123 0.3727 0.0
C507 C 0.13845 0.27324 0.3445 0.0
N508 N 0.13027 0.39628 0.32003 0.0
N509 N 0.12627 0.30081 0.32542 0.0
H510 H -0.00166 0.76701 0.50499 0.0
H511 H 0.84777 0.89277 0.44265 0.0
H512 H 0.89808 0.77517 0.5573 0.0
H513 H 0.93444 0.86407 0.37496 0.0
H514 H 0.86315 0.84437 0.48159 0.0
H515 H 0.97191 0.79264 0.45214 0.0
C516 C 0.97013 0.77217 0.50455 0.0
C517 C 0.95033 0.76919 0.53549 0.0
C518 C 0.8787 0.84839 0.4581 0.0
C519 C 0.92047 0.8005 0.47612 0.0
C520 C 0.87024 0.87643 0.43607 0.0
C521 C 0.89027 0.88297 0.40579 0.0
C522 C 0.9078 0.82689 0.45024 0.0
C523 C 0.91856 0.86029 0.39826 0.0
C524 C 0.9552 0.78755 0.47461 0.0
C525 C 0.91416 0.77698 0.53387 0.0
N526 N 0.92679 0.83354 0.4206 0.0
N527 N 0.90061 0.79344 0.50509 0.0
H528 H 0.41862 0.62156 0.76764 0.0
H529 H 0.37687 0.69823 0.95938 0.0
H530 H 0.35608 0.56626 0.84444 0.0
H531 H 0.37853 0.76121 0.86523 0.0
H532 H 0.39452 0.64646 0.92411 0.0
H533 H 0.42918 0.66917 0.81105 0.0
C534 C 0.40809 0.61897 0.79397 0.0
C535 C 0.38599 0.59044 0.80249 0.0
C536 C 0.39199 0.67191 0.91151 0.0
C537 C 0.3983 0.64401 0.85189 0.0
C538 C 0.38207 0.7013 0.93152 0.0
C539 C 0.37589 0.73358 0.91486 0.0
C540 C 0.39638 0.67536 0.87498 0.0
C541 C 0.38266 0.73647 0.87876 0.0
C542 C 0.41402 0.64606 0.81857 0.0
C543 C 0.37281 0.58822 0.83683 0.0
N544 N 0.39233 0.70758 0.85987 0.0
N545 N 0.3789 0.61489 0.86028 0.0
H546 H 0.57061 0.19378 0.04521 0.0
H547 H 0.55218 0.03846 0.91026 0.0
H548 H 0.46852 0.14828 0.01801 0.0
H549 H 0.62861 0.12152 0.89188 0.0
H550 H 0.52387 0.07609 0.95446 0.0
H551 H 0.595 0.16727 0.99158 0.0
C552 C 0.55314 0.17898 0.02763 0.0
C553 C 0.51763 0.17272 0.03647 0.0
C554 C 0.5467 0.0861 0.94051 0.0
C555 C 0.54552 0.14178 0.97602 0.0
C556 C 0.56302 0.06456 0.91566 0.0
C557 C 0.59275 0.07695 0.89761 0.0
C558 C 0.56076 0.11984 0.94788 0.0
C559 C 0.60564 0.1111 0.90527 0.0
C560 C 0.5671 0.16382 -0.00285 0.0
C561 C 0.49616 0.15346 0.01258 0.0
N562 N 0.58981 0.13128 0.93025 0.0
N563 N 0.51066 0.13796 0.98386 0.0
H564 H 0.63946 0.26147 0.63524 0.0
H565 H 0.62579 0.05448 0.66027 0.0
H566 H 0.64161 0.18804 0.54757 0.0
H567 H 0.60723 0.13139 0.7426 0.0
H568 H 0.62384 0.10204 0.6168 0.0
H569 H 0.62097 0.21371 0.6735 0.0
C570 C 0.63593 0.23523 0.62403 0.0
C571 C 0.64262 0.22853 0.58836 0.0
C572 C 0.61952 0.10834 0.64432 0.0
C573 C 0.62155 0.17355 0.63204 0.0
C574 C 0.62049 0.08121 0.66907 0.0
C575 C 0.61748 0.08923 0.70508 0.0
C576 C 0.6156 0.14346 0.6559 0.0
C577 C 0.61052 0.1242 0.71514 0.0
C578 C 0.62513 0.20796 0.64584 0.0
C579 C 0.63698 0.1942 0.57506 0.0
N580 N 0.61033 0.15008 0.69074 0.0
N581 N 0.62727 0.16777 0.59707 0.0
H582 H 0.09412 0.34331 0.10381 0.0
H583 H 0.08843 0.29142 0.90018 0.0
H584 H 0.11488 0.41675 0.01997 0.0
H585 H 0.00832 0.25605 0.97213 0.0
H586 H 0.11944 0.32108 0.94937 0.0
H587 H 0.08126 0.2971 0.05959 0.0
C588 C 0.09607 0.34962 0.07608 0.0
C589 C 0.10492 0.38394 0.06533 0.0
C590 C 0.09584 0.30556 0.95451 0.0
C591 C 0.09193 0.33112 0.01519 0.0
C592 C 0.07849 0.28824 0.92665 0.0
C593 C 0.04563 0.2719 0.93226 0.0
C594 C 0.08055 0.30541 0.98806 0.0
C595 C 0.03357 0.26862 0.96692 0.0
C596 C 0.08903 0.32326 0.05105 0.0
C597 C 0.10743 0.39077 0.02921 0.0
N598 N 0.05075 0.28588 0.9936 0.0
N599 N 0.10103 0.36449 0.00532 0.0
H600 H 0.90668 0.8663 0.21706 0.0
H601 H 0.78963 0.80572 0.05027 0.0
H602 H 0.7975 0.89386 0.19728 0.0
H603 H 0.88964 0.75741 0.07623 0.0
H604 H 0.80032 0.84981 0.0963 0.0
H605 H 0.90764 0.83577 0.15939 0.0
C606 C 0.88306 0.86604 0.20061 0.0
C607 C 0.85177 0.88198 0.21226 0.0
C608 C 0.82024 0.8299 0.09166 0.0
C609 C 0.85294 0.84819 0.14647 0.0
C610 C 0.81421 0.80486 0.06522 0.0
C611 C 0.83846 0.77755 0.05991 0.0
C612 C 0.85045 0.82728 0.11339 0.0
C613 C 0.87013 0.77794 0.0797 0.0
C614 C 0.88366 0.8488 0.16776 0.0
C615 C 0.82202 0.88128 0.1898 0.0
N616 N 0.87492 0.80201 0.1062 0.0
N617 N 0.82335 0.86463 0.15817 0.0
H618 H 0.33506 0.56756 0.57273 0.0
H619 H 0.48918 0.69139 0.50008 0.0
H620 H 0.42856 0.59659 0.63306 0.0
H621 H 0.39087 0.6725 0.44383 0.0
H622 H 0.46484 0.66141 0.5512 0.0
H623 H 0.35318 0.6086 0.52676 0.0
C624 C 0.35943 0.58249 0.57634 0.0
C625 C 0.38046 0.5783 0.60677 0.0
C626 C 0.44832 0.66428 0.52792 0.0
C627 C 0.40121 0.62564 0.55422 0.0
C628 C 0.46214 0.68161 0.49875 0.0
C629 C 0.44214 0.68423 0.4675 0.0
C630 C 0.41436 0.64897 0.52576 0.0
C631 C 0.40723 0.67114 0.46737 0.0
C632 C 0.36963 0.60612 0.55014 0.0
C633 C 0.41158 0.5987 0.61003 0.0
N634 N 0.39466 0.65353 0.49584 0.0
N635 N 0.42107 0.62128 0.58403 0.0
H636 H 0.3221 0.14855 0.43768 0.0
H637 H 0.40623 0.07724 0.2592 0.0
H638 H 0.26084 0.10731 0.34977 0.0
H639 H 0.44327 0.17174 0.31266 0.0
H640 H 0.36366 0.0677 0.30671 0.0
H641 H 0.3766 0.13691 0.40473 0.0
C642 C 0.32023 0.13635 0.41178 0.0
C643 C 0.28714 0.1294 0.39598 0.0
C644 C 0.38195 0.08985 0.30845 0.0
C645 C 0.34879 0.11529 0.35906 0.0
C646 C 0.4063 0.09521 0.28159 0.0
C647 C 0.42773 0.12562 0.28196 0.0
C648 C 0.37973 0.11473 0.33593 0.0
C649 C 0.42672 0.14827 0.31134 0.0
C650 C 0.35118 0.12972 0.39316 0.0
C651 C 0.28594 0.11359 0.36248 0.0
N652 N 0.40271 0.14258 0.3371 0.0
N653 N 0.31642 0.10718 0.34497 0.0
H654 H 0.1973 0.05064 0.55048 0.0
H655 H 0.04186 0.90994 0.53772 0.0
H656 H 0.12327 0.04263 0.46329 0.0
H657 H 0.132 0.89481 0.60672 0.0
H658 H 0.07337 0.95809 0.50931 0.0
H659 H 0.177 0.99226 0.57066 0.0
C660 C 0.17736 0.03631 0.53528 0.0
C661 C 0.16131 0.05166 0.50573 0.0
C662 C 0.08652 0.94403 0.5304 0.0
C663 C 0.138 0.98574 0.52848 0.0
C664 C 0.06842 0.91666 0.54671 0.0
C665 C 0.08426 0.89863 0.57472 0.0
C666 C 0.12046 0.95395 0.54263 0.0
C667 C 0.11887 0.90816 0.58517 0.0
C668 C 0.16574 0.00316 0.54678 0.0
C669 C 0.13569 0.0321 0.48678 0.0
N670 N 0.13571 0.93561 0.56943 0.0
N671 N 0.12454 0.00042 0.49873 0.0
H672 H 0.05269 0.84907 0.79076 0.0
H673 H 0.24636 0.90895 0.85391 0.0
H674 H 0.13335 0.87907 0.71666 0.0
H675 H 0.18863 0.822 0.89928 0.0
H676 H 0.19747 0.9169 0.81111 0.0
H677 H 0.0952 0.85934 0.83914 0.0
C678 C 0.07901 0.85875 0.78477 0.0
C679 C 0.08981 0.86279 0.74978 0.0
C680 C 0.19549 0.8965 0.83087 0.0
C681 C 0.13803 0.87479 0.80463 0.0
C682 C 0.22318 0.89198 0.85512 0.0
C683 C 0.22147 0.86449 0.87959 0.0
C684 C 0.16576 0.87406 0.8321 0.0
C685 C 0.19102 0.84314 0.88036 0.0
C686 C 0.1032 0.86441 0.81228 0.0
C687 C 0.12426 0.87521 0.74336 0.0
N688 N 0.16428 0.84838 0.85693 0.0
N689 N 0.14734 0.88057 0.77059 0.0
H690 H 0.39628 0.03562 0.15958 0.0
H691 H 0.2729 0.98033 0.00188 0.0
H692 H 0.35842 0.10975 0.08215 0.0
H693 H 0.28835 0.91485 0.09314 0.0
H694 H 0.29493 0.03119 0.03558 0.0
H695 H 0.35062 0.99365 0.14012 0.0
C696 C 0.37827 0.04315 0.13858 0.0
C697 C 0.38168 0.07596 0.12194 0.0
C698 C 0.29259 0.00596 0.04866 0.0
C699 C 0.3292 0.02809 0.09966 0.0
C700 C 0.27975 0.97699 0.02946 0.0
C701 C 0.27938 0.94337 0.04466 0.0
C702 C 0.30598 0.00095 0.08291 0.0
C703 C 0.28842 0.94036 0.08044 0.0
C704 C 0.35195 0.01929 0.12772 0.0
C705 C 0.35713 0.08454 0.09539 0.0
N706 N 0.30238 0.96864 0.09813 0.0
N707 N 0.3323 0.06054 0.0847 0.0
H708 H 0.95039 0.36394 0.68774 0.0
H709 H 0.74986 0.39481 0.62847 0.0
H710 H 0.86179 0.37733 0.75735 0.0
H711 H 0.82941 0.35717 0.55674 0.0
H712 H 0.79565 0.40568 0.67284 0.0
H713 H 0.91125 0.37728 0.63724 0.0
C714 C 0.92296 0.3706 0.69238 0.0
C715 C 0.90898 0.36917 0.72648 0.0
C716 C 0.80331 0.39543 0.6473 0.0
C717 C 0.86456 0.38442 0.66952 0.0
C718 C 0.77716 0.38922 0.62197 0.0
C719 C 0.78587 0.37437 0.58927 0.0
C720 C 0.83845 0.38606 0.64023 0.0
C721 C 0.82168 0.36833 0.58187 0.0
C722 C 0.90068 0.37799 0.66367 0.0
C723 C 0.87337 0.37773 0.73133 0.0
N724 N 0.84674 0.37351 0.60752 0.0
N725 N 0.85236 0.38474 0.70317 0.0
H726 H 0.85248 0.38794 0.858 0.0
H727 H 0.81429 0.5138 0.0223 0.0
H728 H 0.92404 0.40019 0.94688 0.0
H729 H 0.77451 0.53406 0.91725 0.0
H730 H 0.84166 0.45978 0.00055 0.0
H731 H 0.81243 0.43021 0.88524 0.0
C732 C 0.85967 0.39928 0.88342 0.0
C733 C 0.89187 0.39078 0.9001 0.0
C734 C 0.82637 0.47578 0.98248 0.0
C735 C 0.8458 0.43877 0.93143 0.0
C736 C 0.81042 0.50648 0.99486 0.0
C737 C 0.79261 0.52892 0.97136 0.0
C738 C 0.82404 0.46722 0.94654 0.0
C739 C 0.78841 0.51783 0.93617 0.0
C740 C 0.83675 0.42338 0.89887 0.0
C741 C 0.89971 0.40631 0.93297 0.0
N742 N 0.80442 0.4879 0.9247 0.0
N743 N 0.8768 0.42966 0.94759 0.0
H744 H 0.70755 0.60068 0.11784 0.0
H745 H 0.58239 0.72884 0.22618 0.0
H746 H 0.6829 0.70747 0.08699 0.0
H747 H 0.57958 0.6157 0.23999 0.0
H748 H 0.62147 0.72097 0.17617 0.0
H749 H 0.66223 0.6047 0.16365 0.0
C750 C 0.69248 0.62479 0.12047 0.0
C751 C 0.69932 0.6539 0.0988 0.0
C752 C 0.61215 0.6978 0.18995 0.0
C753 C 0.64792 0.65867 0.15099 0.0
C754 C 0.58996 0.7023 0.21862 0.0
C755 C 0.57786 0.67289 0.23732 0.0
C756 C 0.62275 0.66366 0.18011 0.0
C757 C 0.58831 0.63908 0.2262 0.0
C758 C 0.66665 0.62703 0.14654 0.0
C759 C 0.67889 0.68444 0.10326 0.0
N760 N 0.61049 0.63536 0.19842 0.0
N761 N 0.6544 0.6861 0.12901 0.0
H762 H 0.68422 0.42758 0.39575 0.0
H763 H 0.60371 0.61764 0.4402 0.0
H764 H 0.68852 0.47636 0.49865 0.0
H765 H 0.57997 0.55825 0.34507 0.0
H766 H 0.64585 0.57205 0.45749 0.0
H767 H 0.65904 0.4821 0.3718 0.0
C768 C 0.68141 0.4504 0.41291 0.0
C769 C 0.68884 0.44787 0.44904 0.0
C770 C 0.63156 0.56912 0.43273 0.0
C771 C 0.65881 0.5095 0.4224 0.0
C772 C 0.60737 0.59508 0.42288 0.0
C773 C 0.58782 0.59159 0.39134 0.0
C774 C 0.63646 0.53947 0.41084 0.0
C775 C 0.59403 0.56187 0.36986 0.0
C776 C 0.66646 0.48126 0.39943 0.0
C777 C 0.68357 0.47763 0.47052 0.0
N778 N 0.61766 0.53692 0.38007 0.0
N779 N 0.66848 0.5071 0.45698 0.0
H780 H 0.25394 0.388 0.19785 0.0
H781 H 0.38232 0.26335 0.09277 0.0
H782 H 0.27198 0.40286 0.08674 0.0
H783 H 0.38946 0.28079 0.2054 0.0
H784 H 0.34145 0.31319 0.08855 0.0
H785 H 0.30322 0.34723 0.20012 0.0
C786 C 0.2685 0.38269 0.17392 0.0
C787 C 0.25886 0.39835 0.14198 0.0
C788 C 0.35238 0.30622 0.11404 0.0
C789 C 0.31509 0.35158 0.14428 0.0
C790 C 0.37546 0.27771 0.11653 0.0
C791 C 0.38888 0.26762 0.14956 0.0
C792 C 0.34257 0.32427 0.14483 0.0
C793 C 0.37948 0.28734 0.17943 0.0
C794 C 0.29675 0.3596 0.17525 0.0
C795 C 0.27876 0.3911 0.11182 0.0
N796 N 0.35663 0.3145 0.17637 0.0
N797 N 0.30582 0.36764 0.11354 0.0
H798 H 0.85234 0.24196 0.86273 0.0
H799 H 0.80139 0.03891 0.83312 0.0
H800 H 0.92897 0.16404 0.8311 0.0
H801 H 0.72754 0.12266 0.85473 0.0
H802 H 0.85059 0.08104 0.8426 0.0
H803 H 0.8088 0.19539 0.87044 0.0
C804 C 0.86002 0.21492 0.85743 0.0
C805 C 0.8941 0.20689 0.84556 0.0
C806 C 0.8236 0.08994 0.84575 0.0
C807 C 0.84404 0.15315 0.8541 0.0
C808 C 0.79561 0.06595 0.84054 0.0
C809 C 0.76047 0.07758 0.84265 0.0
C810 C 0.81611 0.1255 0.8534 0.0
C811 C 0.75427 0.11278 0.85225 0.0
C812 C 0.83513 0.18825 0.86197 0.0
C813 C 0.90282 0.17131 0.83995 0.0
N814 N 0.78177 0.13549 0.85699 0.0
N815 N 0.87769 0.14565 0.84376 0.0
H816 H 0.06292 0.59552 0.17577 0.0
H817 H 0.86061 0.57464 0.1172 0.0
H818 H 0.00613 0.49639 0.1701 0.0
H819 H 0.93013 0.65871 0.08355 0.0
H820 H 0.90737 0.55391 0.1569 0.0
H821 H 0.00731 0.62661 0.16351 0.0
C822 C 0.03847 0.58049 0.17334 0.0
C823 C 0.03883 0.54351 0.17339 0.0
C824 C 0.91206 0.57725 0.14122 0.0
C825 C 0.97588 0.57843 0.15925 0.0
C826 C 0.88551 0.58901 0.11851 0.0
C827 C 0.8919 0.61787 0.09643 0.0
C828 C 0.945 0.59469 0.14202 0.0
C829 C 0.92446 0.6358 0.0995 0.0
C830 C 0.00692 0.59813 0.16607 0.0
C831 C 0.00673 0.52501 0.16979 0.0
N832 N 0.94999 0.62368 0.12162 0.0
N833 N 0.97651 0.54266 0.16236 0.0
H834 H 0.70308 0.94643 0.39176 0.0
H835 H 0.56162 0.83106 0.3662 0.0
H836 H 0.75873 0.8494 0.37152 0.0
H837 H 0.6248 0.75468 0.42181 0.0
H838 H 0.60899 0.87487 0.37469 0.0
H839 H 0.65074 0.91161 0.40916 0.0
C840 C 0.70448 0.91785 0.39186 0.0
C841 C 0.7348 0.90055 0.37979 0.0
C842 C 0.61199 0.84891 0.3861 0.0
C843 C 0.67582 0.86103 0.3995 0.0
C844 C 0.58513 0.82386 0.38102 0.0
C845 C 0.58953 0.78926 0.39316 0.0
C846 C 0.64377 0.83889 0.40257 0.0
C847 C 0.62043 0.78115 0.41213 0.0
C848 C 0.6747 0.89811 0.4015 0.0
C849 C 0.73553 0.86356 0.38024 0.0
N850 N 0.64692 0.80552 0.41534 0.0
N851 N 0.70636 0.84497 0.38977 0.0
H852 H 0.62297 0.40401 0.62988 0.0
H853 H 0.42014 0.38926 0.68564 0.0
H854 H 0.54218 0.35832 0.56199 0.0
H855 H 0.48864 0.47426 0.72115 0.0
H856 H 0.46913 0.36527 0.65094 0.0
H857 H 0.57741 0.41926 0.67274 0.0
C858 C 0.5956 0.39727 0.62396 0.0
C859 C 0.58625 0.38018 0.59218 0.0
C860 C 0.47357 0.38871 0.66701 0.0
C861 C 0.53427 0.39669 0.64154 0.0
C862 C 0.44589 0.40203 0.68728 0.0
C863 C 0.45051 0.4337 0.70633 0.0
C864 C 0.50609 0.40691 0.66637 0.0
C865 C 0.48413 0.44972 0.70686 0.0
C866 C 0.56971 0.40587 0.64847 0.0
C867 C 0.55042 0.37193 0.58594 0.0
N868 N 0.51063 0.43627 0.68696 0.0
N869 N 0.52569 0.3801 0.61053 0.0
H870 H 0.24949 0.62025 0.71587 0.0
H871 H 0.06657 0.66525 0.62727 0.0
H872 H 0.20375 0.54632 0.64063 0.0
H873 H 0.14772 0.7437 0.64942 0.0
H874 H 0.11078 0.61872 0.63698 0.0
H875 H 0.20527 0.66347 0.69897 0.0
C876 C 0.22995 0.61298 0.69594 0.0
C877 C 0.23032 0.57964 0.67958 0.0
C878 C 0.11872 0.64621 0.63919 0.0
C879 C 0.17959 0.62915 0.66015 0.0
C880 C 0.09363 0.67272 0.63371 0.0
C881 C 0.10333 0.70846 0.63793 0.0
C882 C 0.15328 0.65571 0.64958 0.0
C883 C 0.13881 0.71661 0.64615 0.0
C884 C 0.20492 0.63779 0.68612 0.0
C885 C 0.20442 0.57183 0.65374 0.0
N886 N 0.1623 0.69046 0.65221 0.0
N887 N 0.17978 0.59643 0.64491 0.0
H888 H 0.44648 0.84422 0.91849 0.0
H889 H 0.5059 0.98203 0.77492 0.0
H890 H 0.38052 0.93064 0.88485 0.0
H891 H 0.56142 0.88531 0.79522 0.0
H892 H 0.45518 0.95939 0.80754 0.0
H893 H 0.48652 0.85654 0.86992 0.0
C894 C 0.44059 0.86607 0.90118 0.0
C895 C 0.41024 0.88669 0.90612 0.0
C896 C 0.4779 0.94249 0.80384 0.0
C897 C 0.45573 0.90048 0.84981 0.0
C898 C 0.50653 0.95512 0.78445 0.0
C899 C 0.53771 0.93538 0.78227 0.0
C900 C 0.48094 0.9102 0.82159 0.0
C901 C 0.53764 0.90114 0.79602 0.0
C902 C 0.46323 0.87275 0.87307 0.0
C903 C 0.40373 0.91422 0.88231 0.0
N904 N 0.51011 0.88998 0.81601 0.0
N905 N 0.42637 0.92042 0.85536 0.0
H906 H 0.98452 0.98782 0.2877 0.0
H907 H 0.04012 0.15667 0.3894 0.0
H908 H 0.91874 0.08066 0.2864 0.0
H909 H 0.11971 0.09186 0.34049 0.0
H910 H 0.99516 0.12916 0.35109 0.0
H911 H 0.03537 0.02503 0.30431 0.0
C912 C 0.98099 0.01613 0.28996 0.0
C913 C 0.94729 0.03111 0.28623 0.0
C914 C 0.02256 0.12139 0.34833 0.0
C915 C 0.00489 0.07345 0.30607 0.0
C916 C 0.04811 0.13683 0.37038 0.0
C917 C 0.0835 0.12618 0.3683 0.0
C918 C 0.03236 0.09448 0.32475 0.0
C919 C 0.09261 0.10067 0.34296 0.0
C920 C 0.00998 0.03732 0.29944 0.0
C921 C 0.9442 0.06796 0.28926 0.0
N922 N 0.06704 0.08509 0.32259 0.0
N923 N 0.97247 0.08779 0.29996 0.0
loop_
_geom_bond_atom_site_label_1
_geom_bond_atom_site_label_2
_geom_bond_distance
_geom_bond_site_symmetry_2
_ccdc_geom_bond_type
O0 Zn1 1.953 . S
O0 C16 1.225 . S
Zn1 O0 1.953 . S
Zn1 O2 1.949 . S
Zn1 O8 1.919 . S
Zn1 O13 1.924 . S
O2 Zn1 1.949 . S
O2 Zn3 1.923 . S
O2 Zn4 1.950 . S
O2 Zn5 1.945 . S
Zn3 O2 1.923 . S
Zn3 O6 1.933 . S
Zn3 O9 1.941 . S
Zn3 O10 1.965 . S
Zn4 O2 1.950 . S
Zn4 O11 1.938 . S
Zn4 O12 1.906 . S
Zn4 O22 1.953 . S
Zn5 O2 1.945 . S
Zn5 O7 1.932 . S
Zn5 O14 1.977 . S
Zn5 O15 1.910 . S
O6 Zn3 1.933 . S
O6 C17 1.226 . S
O7 Zn5 1.932 . S
O7 C17 1.307 . S
O8 Zn1 1.919 . S
O8 C19 1.253 . S
O9 Zn3 1.941 . S
O9 C19 1.283 . S
O10 Zn3 1.965 . S
O10 C18 1.303 . S
O11 Zn4 1.938 . S
O11 C18 1.247 . S
O12 Zn4 1.906 . S
O12 C20 1.304 . S
O13 Zn1 1.924 . S
O13 C21 1.311 . S
O14 Zn5 1.977 . S
O14 C20 1.272 . S
O15 Zn5 1.910 . S
O15 C21 1.231 . S
C16 O0 1.225 . S
C16 O22 1.298 . S
C17 O6 1.226 . S
C17 O7 1.307 . S
C18 O10 1.303 . S
C18 O11 1.247 . S
C19 O8 1.253 . S
C19 O9 1.283 . S
C20 O12 1.304 . S
C20 O14 1.272 . S
C21 O13 1.311 . S
C21 O15 1.231 . S
O22 Zn4 1.953 . S
O22 C16 1.298 . S
O23 Zn24 1.953 . S
O23 C39 1.225 . S
Zn24 O23 1.953 . S
Zn24 O25 1.949 . S
Zn24 O31 1.919 . S
Zn24 O36 1.924 1_455 S
O25 Zn24 1.949 . S
O25 Zn26 1.923 . S
O25 Zn27 1.950 . S
O25 Zn28 1.945 . S
Zn26 O25 1.923 . S
Zn26 O29 1.933 . S
Zn26 O32 1.941 . S
Zn26 O33 1.965 . S
Zn27 O25 1.950 . S
Zn27 O34 1.938 . S
Zn27 O35 1.906 . S
Zn27 O45 1.953 . S
Zn28 O25 1.945 . S
Zn28 O30 1.932 1_455 S
Zn28 O37 1.977 . S
Zn28 O38 1.910 1_455 S
O29 Zn26 1.933 . S
O29 C40 1.226 1_455 S
O30 Zn28 1.932 1_655 S
O30 C40 1.307 . S
O31 Zn24 1.919 . S
O31 C42 1.253 . S
O32 Zn26 1.941 . S
O32 C42 1.281 . S
O33 Zn26 1.965 . S
O33 C41 1.303 . S
O34 Zn27 1.938 . S
O34 C41 1.247 . S
O35 Zn27 1.906 . S
O35 C43 1.304 . S
O36 Zn24 1.924 1_655 S
O36 C44 1.311 . S
O37 Zn28 1.977 . S
O37 C43 1.272 . S
O38 Zn28 1.910 1_655 S
O38 C44 1.231 . S
C39 O23 1.225 . S
C39 O45 1.298 . S
C40 O29 1.226 1_655 S
C40 O30 1.307 . S
C41 O33 1.303 . S
C41 O34 1.247 . S
C42 O31 1.253 . S
C42 O32 1.281 . S
C43 O35 1.304 . S
C43 O37 1.272 . S
C44 O36 1.311 . S
C44 O38 1.231 . S
O45 Zn27 1.953 . S
O45 C39 1.298 . S
O46 Zn47 1.953 . S
O46 C62 1.225 . S
Zn47 O46 1.953 . S
Zn47 O48 1.949 . S
Zn47 O54 1.919 . S
Zn47 O59 1.924 . S
O48 Zn47 1.949 . S
O48 Zn49 1.923 1_556 S
O48 Zn50 1.950 . S
O48 Zn51 1.945 . S
Zn49 O48 1.923 1_554 S
Zn49 O52 1.933 . S
Zn49 O55 1.941 . S
Zn49 O56 1.965 . S
Zn50 O48 1.950 . S
Zn50 O57 1.938 . S
Zn50 O58 1.906 . S
Zn50 O68 1.953 . S
Zn51 O48 1.945 . S
Zn51 O53 1.932 . S
Zn51 O60 1.977 . S
Zn51 O61 1.910 . S
O52 Zn49 1.933 . S
O52 C63 1.226 1_554 S
O53 Zn51 1.932 . S
O53 C63 1.307 . S
O54 Zn47 1.919 . S
O54 C65 1.253 1_556 S
O55 Zn49 1.941 . S
O55 C65 1.283 . S
O56 Zn49 1.965 . S
O56 C64 1.303 . S
O57 Zn50 1.938 . S
O57 C64 1.247 1_556 S
O58 Zn50 1.906 . S
O58 C66 1.304 . S
O59 Zn47 1.924 . S
O59 C67 1.311 . S
O60 Zn51 1.977 . S
O60 C66 1.272 . S
O61 Zn51 1.910 . S
O61 C67 1.231 . S
C62 O46 1.225 . S
C62 O68 1.298 . S
C63 O52 1.226 1_556 S
C63 O53 1.307 . S
C64 O56 1.303 . S
C64 O57 1.247 1_554 S
C65 O54 1.253 1_554 S
C65 O55 1.283 . S
C66 O58 1.304 . S
C66 O60 1.272 . S
C67 O59 1.311 . S
C67 O61 1.231 . S
O68 Zn50 1.953 . S
O68 C62 1.298 . S
O69 Zn70 1.953 . S
O69 C85 1.225 . S
Zn70 O69 1.953 . S
Zn70 O71 1.949 . S
Zn70 O77 1.919 . S
Zn70 O82 1.924 . S
O71 Zn70 1.949 . S
O71 Zn72 1.923 . S
O71 Zn73 1.950 . S
O71 Zn74 1.945 . S
Zn72 O71 1.923 . S
Zn72 O75 1.933 . S
Zn72 O78 1.941 . S
Zn72 O79 1.965 . S
Zn73 O71 1.950 . S
Zn73 O80 1.938 . S
Zn73 O81 1.906 . S
Zn73 O91 1.953 . S
Zn74 O71 1.945 . S
Zn74 O76 1.932 . S
Zn74 O83 1.977 . S
Zn74 O84 1.910 . S
O75 Zn72 1.933 . S
O75 C86 1.226 . S
O76 Zn74 1.932 . S
O76 C86 1.307 . S
O77 Zn70 1.919 . S
O77 C88 1.253 . S
O78 Zn72 1.941 . S
O78 C88 1.283 . S
O79 Zn72 1.965 . S
O79 C87 1.303 . S
O80 Zn73 1.938 . S
O80 C87 1.247 . S
O81 Zn73 1.906 . S
O81 C89 1.304 . S
O82 Zn70 1.924 . S
O82 C90 1.311 . S
O83 Zn74 1.977 . S
O83 C89 1.272 . S
O84 Zn74 1.910 . S
O84 C90 1.231 . S
C85 O69 1.225 . S
C85 O91 1.298 . S
C86 O75 1.226 . S
C86 O76 1.307 . S
C87 O79 1.303 . S
C87 O80 1.247 . S
C88 O77 1.253 . S
C88 O78 1.283 . S
C89 O81 1.304 . S
C89 O83 1.272 . S
C90 O82 1.311 . S
C90 O84 1.231 . S
O91 Zn73 1.953 . S
O91 C85 1.298 . S
O92 Zn93 1.953 . S
O92 C108 1.225 . S
Zn93 O92 1.953 . S
Zn93 O94 1.949 . S
Zn93 O100 1.919 . S
Zn93 O105 1.924 . S
O94 Zn93 1.949 . S
O94 Zn95 1.923 . S
O94 Zn96 1.950 . S
O94 Zn97 1.945 . S
Zn95 O94 1.923 . S
Zn95 O98 1.933 . S
Zn95 O101 1.941 . S
Zn95 O102 1.965 . S
Zn96 O94 1.950 . S
Zn96 O103 1.938 . S
Zn96 O104 1.906 . S
Zn96 O114 1.953 . S
Zn97 O94 1.945 . S
Zn97 O99 1.932 . S
Zn97 O106 1.977 . S
Zn97 O107 1.910 . S
O98 Zn95 1.933 . S
O98 C109 1.226 . S
O99 Zn97 1.932 . S
O99 C109 1.307 . S
O100 Zn93 1.919 . S
O100 C111 1.253 . S
O101 Zn95 1.941 . S
O101 C111 1.283 . S
O102 Zn95 1.965 . S
O102 C110 1.303 . S
O103 Zn96 1.938 . S
O103 C110 1.247 . S
O104 Zn96 1.906 . S
O104 C112 1.304 . S
O105 Zn93 1.924 . S
O105 C113 1.311 . S
O106 Zn97 1.977 . S
O106 C112 1.272 . S
O107 Zn97 1.910 . S
O107 C113 1.231 . S
C108 O92 1.225 . S
C108 O114 1.298 . S
C109 O98 1.226 . S
C109 O99 1.307 . S
C110 O102 1.303 . S
C110 O103 1.247 . S
C111 O100 1.253 . S
C111 O101 1.283 . S
C112 O104 1.304 . S
C112 O106 1.272 . S
C113 O105 1.311 . S
C113 O107 1.231 . S
O114 Zn96 1.953 . S
O114 C108 1.298 . S
O115 Zn116 1.953 . S
O115 C131 1.225 . S
Zn116 O115 1.953 . S
Zn116 O117 1.949 . S
Zn116 O123 1.919 . S
Zn116 O128 1.928 . S
O117 Zn116 1.949 . S
O117 Zn118 1.923 . S
O117 Zn119 1.950 . S
O117 Zn120 1.945 . S
Zn118 O117 1.923 . S
Zn118 O121 1.933 . S
Zn118 O124 1.941 . S
Zn118 O125 1.965 . S
Zn119 O117 1.950 . S
Zn119 O126 1.938 . S
Zn119 O127 1.906 . S
Zn119 O137 1.953 . S
Zn120 O117 1.945 . S
Zn120 O122 1.932 1_655 S
Zn120 O129 1.977 . S
Zn120 O130 1.910 1_655 S
O121 Zn118 1.933 . S
O121 C132 1.226 1_655 S
O122 Zn120 1.932 1_455 S
O122 C132 1.307 . S
O123 Zn116 1.919 . S
O123 C134 1.253 . S
O124 Zn118 1.941 . S
O124 C134 1.283 . S
O125 Zn118 1.965 . S
O125 C133 1.303 . S
O126 Zn119 1.938 . S
O126 C133 1.247 . S
O127 Zn119 1.906 . S
O127 C135 1.304 . S
O128 Zn116 1.928 . S
O128 C136 1.310 1_655 S
O129 Zn120 1.977 . S
O129 C135 1.272 . S
O130 Zn120 1.910 1_455 S
O130 C136 1.231 . S
C131 O115 1.225 . S
C131 O137 1.298 . S
C132 O121 1.226 1_455 S
C132 O122 1.307 . S
C133 O125 1.303 . S
C133 O126 1.247 . S
C134 O123 1.253 . S
C134 O124 1.283 . S
C135 O127 1.304 . S
C135 O129 1.272 . S
C136 O128 1.310 1_455 S
C136 O130 1.231 . S
O137 Zn119 1.953 . S
O137 C131 1.298 . S
O138 Zn139 1.953 . S
O138 C154 1.225 . S
Zn139 O138 1.953 . S
Zn139 O140 1.949 . S
Zn139 O146 1.919 . S
Zn139 O151 1.924 . S
O140 Zn139 1.949 . S
O140 Zn141 1.923 1_554 S
O140 Zn142 1.950 . S
O140 Zn143 1.945 . S
Zn141 O140 1.923 1_556 S
Zn141 O144 1.933 . S
Zn141 O147 1.941 . S
Zn141 O148 1.965 . S
Zn142 O140 1.950 . S
Zn142 O149 1.938 . S
Zn142 O150 1.906 . S
Zn142 O160 1.953 . S
Zn143 O140 1.945 . S
Zn143 O145 1.932 . S
Zn143 O152 1.977 . S
Zn143 O153 1.910 . S
O144 Zn141 1.933 . S
O144 C155 1.226 . S
O145 Zn143 1.932 . S
O145 C155 1.307 1_554 S
O146 Zn139 1.919 . S
O146 C157 1.253 1_554 S
O147 Zn141 1.941 . S
O147 C157 1.283 . S
O148 Zn141 1.965 . S
O148 C156 1.303 . S
O149 Zn142 1.938 . S
O149 C156 1.247 1_554 S
O150 Zn142 1.906 . S
O150 C158 1.304 . S
O151 Zn139 1.924 . S
O151 C159 1.311 . S
O152 Zn143 1.977 . S
O152 C158 1.272 . S
O153 Zn143 1.910 . S
O153 C159 1.231 . S
C154 O138 1.225 . S
C154 O160 1.298 . S
C155 O144 1.226 . S
C155 O145 1.307 1_556 S
C156 O148 1.303 . S
C156 O149 1.247 1_556 S
C157 O146 1.253 1_556 S
C157 O147 1.283 . S
C158 O150 1.304 . S
C158 O152 1.272 . S
C159 O151 1.311 . S
C159 O153 1.231 . S
O160 Zn142 1.953 . S
O160 C154 1.298 . S
O161 Zn162 1.953 . S
O161 C177 1.225 . S
Zn162 O161 1.953 . S
Zn162 O163 1.949 . S
Zn162 O169 1.919 . S
Zn162 O174 1.924 . S
O163 Zn162 1.949 . S
O163 Zn164 1.923 . S
O163 Zn165 1.950 . S
O163 Zn166 1.945 . S
Zn164 O163 1.923 . S
Zn164 O167 1.933 . S
Zn164 O170 1.941 . S
Zn164 O171 1.965 . S
Zn165 O163 1.950 . S
Zn165 O172 1.938 . S
Zn165 O173 1.906 . S
Zn165 O183 1.953 . S
Zn166 O163 1.945 . S
Zn166 O168 1.932 . S
Zn166 O175 1.977 . S
Zn166 O176 1.910 . S
O167 Zn164 1.933 . S
O167 C178 1.226 . S
O168 Zn166 1.932 . S
O168 C178 1.307 . S
O169 Zn162 1.919 . S
O169 C180 1.253 . S
O170 Zn164 1.941 . S
O170 C180 1.283 . S
O171 Zn164 1.965 . S
O171 C179 1.303 . S
O172 Zn165 1.938 . S
O172 C179 1.247 . S
O173 Zn165 1.906 . S
O173 C181 1.304 . S
O174 Zn162 1.924 . S
O174 C182 1.311 . S
O175 Zn166 1.977 . S
O175 C181 1.272 . S
O176 Zn166 1.910 . S
O176 C182 1.231 . S
C177 O161 1.225 . S
C177 O183 1.298 . S
C178 O167 1.226 . S
C178 O168 1.307 . S
C179 O171 1.303 . S
C179 O172 1.247 . S
C180 O169 1.253 . S
C180 O170 1.283 . S
C181 O173 1.304 . S
C181 O175 1.272 . S
C182 O174 1.311 . S
C182 O176 1.231 . S
O183 Zn165 1.953 . S
O183 C177 1.298 . S
O184 Zn185 1.953 . S
O184 C200 1.225 . S
Zn185 O184 1.953 . S
Zn185 O186 1.949 . S
Zn185 O192 1.919 . S
Zn185 O197 1.924 . S
O186 Zn185 1.949 . S
O186 Zn187 1.923 . S
O186 Zn188 1.950 . S
O186 Zn189 1.945 . S
Zn187 O186 1.923 . S
Zn187 O190 1.933 . S
Zn187 O193 1.941 . S
Zn187 O194 1.965 . S
Zn188 O186 1.950 . S
Zn188 O195 1.938 . S
Zn188 O196 1.906 . S
Zn188 O206 1.953 . S
Zn189 O186 1.945 . S
Zn189 O191 1.932 . S
Zn189 O198 1.977 . S
Zn189 O199 1.910 . S
O190 Zn187 1.933 . S
O190 C201 1.226 . S
O191 Zn189 1.932 . S
O191 C201 1.307 . S
O192 Zn185 1.919 . S
O192 C203 1.253 . S
O193 Zn187 1.941 . S
O193 C203 1.283 . S
O194 Zn187 1.965 . S
O194 C202 1.303 . S
O195 Zn188 1.938 . S
O195 C202 1.247 . S
O196 Zn188 1.906 . S
O196 C204 1.304 . S
O197 Zn185 1.924 . S
O197 C205 1.311 . S
O198 Zn189 1.977 . S
O198 C204 1.272 . S
O199 Zn189 1.910 . S
O199 C205 1.231 . S
C200 O184 1.225 . S
C200 O206 1.298 . S
C201 O190 1.226 . S
C201 O191 1.307 . S
C202 O194 1.303 . S
C202 O195 1.247 . S
C203 O192 1.253 . S
C203 O193 1.283 . S
C204 O196 1.304 . S
C204 O198 1.272 . S
C205 O197 1.311 . S
C205 O199 1.231 . S
O206 Zn188 1.953 . S
O206 C200 1.298 . S
O207 Zn208 1.953 . S
O207 C223 1.225 . S
Zn208 O207 1.953 . S
Zn208 O209 1.949 . S
Zn208 O215 1.919 . S
Zn208 O220 1.924 . S
O209 Zn208 1.949 . S
O209 Zn210 1.923 . S
O209 Zn211 1.950 . S
O209 Zn212 1.945 . S
Zn210 O209 1.923 . S
Zn210 O213 1.933 . S
Zn210 O216 1.941 . S
Zn210 O217 1.965 . S
Zn211 O209 1.950 . S
Zn211 O218 1.938 . S
Zn211 O219 1.906 1_545 S
Zn211 O229 1.953 1_545 S
Zn212 O209 1.945 . S
Zn212 O214 1.932 . S
Zn212 O221 1.977 1_545 S
Zn212 O222 1.910 1_545 S
O213 Zn210 1.933 . S
O213 C224 1.226 . S
O214 Zn212 1.932 . S
O214 C224 1.307 . S
O215 Zn208 1.919 . S
O215 C226 1.253 . S
O216 Zn210 1.941 . S
O216 C226 1.283 . S
O217 Zn210 1.965 . S
O217 C225 1.303 . S
O218 Zn211 1.938 . S
O218 C225 1.247 . S
O219 Zn211 1.906 1_565 S
O219 C227 1.304 . S
O220 Zn208 1.924 . S
O220 C228 1.311 1_545 S
O221 Zn212 1.977 1_565 S
O221 C227 1.272 . S
O222 Zn212 1.910 1_565 S
O222 C228 1.231 . S
C223 O207 1.225 . S
C223 O229 1.298 1_545 S
C224 O213 1.226 . S
C224 O214 1.307 . S
C225 O217 1.303 . S
C225 O218 1.247 . S
C226 O215 1.253 . S
C226 O216 1.283 . S
C227 O219 1.304 . S
C227 O221 1.272 . S
C228 O220 1.311 1_565 S
C228 O222 1.231 . S
O229 Zn211 1.953 1_565 S
O229 C223 1.298 1_565 S
O230 Zn231 1.953 . S
O230 C246 1.225 . S
Zn231 O230 1.953 . S
Zn231 O232 1.949 . S
Zn231 O238 1.919 . S
Zn231 O243 1.924 . S
O232 Zn231 1.949 . S
O232 Zn233 1.923 1_565 S
O232 Zn234 1.950 . S
O232 Zn235 1.945 . S
Zn233 O232 1.923 1_545 S
Zn233 O236 1.933 . S
Zn233 O239 1.941 . S
Zn233 O240 1.965 . S
Zn234 O232 1.950 . S
Zn234 O241 1.938 . S
Zn234 O242 1.906 . S
Zn234 O252 1.953 . S
Zn235 O232 1.945 . S
Zn235 O237 1.932 . S
Zn235 O244 1.977 . S
Zn235 O245 1.910 . S
O236 Zn233 1.933 . S
O236 C247 1.226 1_545 S
O237 Zn235 1.932 . S
O237 C247 1.307 . S
O238 Zn231 1.919 . S
O238 C249 1.253 1_565 S
O239 Zn233 1.941 . S
O239 C249 1.283 . S
O240 Zn233 1.965 . S
O240 C248 1.303 . S
O241 Zn234 1.938 . S
O241 C248 1.247 1_565 S
O242 Zn234 1.906 . S
O242 C250 1.304 . S
O243 Zn231 1.924 . S
O243 C251 1.311 . S
O244 Zn235 1.977 . S
O244 C250 1.272 . S
O245 Zn235 1.910 . S
O245 C251 1.231 . S
C246 O230 1.225 . S
C246 O252 1.298 . S
C247 O236 1.226 1_565 S
C247 O237 1.307 . S
C248 O240 1.303 . S
C248 O241 1.247 1_545 S
C249 O238 1.253 1_545 S
C249 O239 1.283 . S
C250 O242 1.304 . S
C250 O244 1.272 . S
C251 O243 1.311 . S
C251 O245 1.231 . S
O252 Zn234 1.953 . S
O252 C246 1.298 . S
O253 Zn254 1.953 . S
O253 C269 1.225 . S
Zn254 O253 1.953 . S
Zn254 O255 1.949 . S
Zn254 O261 1.919 . S
Zn254 O266 1.924 . S
O255 Zn254 1.949 . S
O255 Zn256 1.923 . S
O255 Zn257 1.950 . S
O255 Zn258 1.945 . S
Zn256 O255 1.923 . S
Zn256 O259 1.933 . S
Zn256 O262 1.941 . S
Zn256 O263 1.965 . S
Zn257 O255 1.950 . S
Zn257 O264 1.938 . S
Zn257 O265 1.906 . S
Zn257 O275 1.953 . S
Zn258 O255 1.945 . S
Zn258 O260 1.932 . S
Zn258 O267 1.977 . S
Zn258 O268 1.910 . S
O259 Zn256 1.933 . S
O259 C270 1.226 . S
O260 Zn258 1.932 . S
O260 C270 1.307 . S
O261 Zn254 1.919 . S
O261 C272 1.253 . S
O262 Zn256 1.941 . S
O262 C272 1.283 . S
O263 Zn256 1.965 . S
O263 C271 1.303 . S
O264 Zn257 1.938 . S
O264 C271 1.247 . S
O265 Zn257 1.906 . S
O265 C273 1.304 . S
O266 Zn254 1.924 . S
O266 C274 1.311 . S
O267 Zn258 1.977 . S
O267 C273 1.272 . S
O268 Zn258 1.910 . S
O268 C274 1.231 . S
C269 O253 1.225 . S
C269 O275 1.298 . S
C270 O259 1.226 . S
C270 O260 1.307 . S
C271 O263 1.303 . S
C271 O264 1.247 . S
C272 O261 1.253 . S
C272 O262 1.283 . S
C273 O265 1.304 . S
C273 O267 1.272 . S
C274 O266 1.311 . S
C274 O268 1.231 . S
O275 Zn257 1.953 . S
O275 C269 1.298 . S
H276 C282 0.930 . S
H277 C286 0.930 . S
H278 C291 0.929 . S
H279 C289 0.929 . S
H280 C284 0.929 . S
H281 C290 0.929 . S
C282 H276 0.930 . S
C282 C283 1.367 . S
C282 C290 1.378 . S
C283 C282 1.367 . S
C283 C291 1.433 . S
C284 H280 0.929 . S
C284 C286 1.378 . S
C284 C288 1.350 . S
C285 C288 1.463 . S
C285 C290 1.350 . S
C285 N293 1.427 . S
C286 H277 0.930 . S
C286 C284 1.378 . S
C286 C287 1.367 . S
C287 C286 1.367 . S
C287 C289 1.433 . S
C288 C284 1.350 . S
C288 C285 1.463 . S
C288 N292 1.427 . S
C289 H279 0.929 . S
C289 C287 1.433 . S
C289 N292 1.384 . S
C290 H281 0.929 . S
C290 C282 1.378 . S
C290 C285 1.350 . S
C291 H278 0.929 . S
C291 C283 1.433 . S
C291 N293 1.384 . S
N292 C288 1.427 . S
N292 C289 1.384 . S
N293 C285 1.427 . S
N293 C291 1.384 . S
H294 C300 0.930 . S
H295 C304 0.930 . S
H296 C309 0.932 . S
H297 C307 0.929 . S
H298 C302 0.929 . S
H299 C308 0.929 . S
C300 H294 0.930 . S
C300 C301 1.367 . S
C300 C308 1.378 . S
C301 C300 1.367 . S
C301 C309 1.432 1_565 S
C302 H298 0.929 . S
C302 C304 1.378 . S
C302 C306 1.350 . S
C303 C306 1.463 . S
C303 C308 1.350 . S
C303 N311 1.427 . S
C304 H295 0.930 . S
C304 C302 1.378 . S
C304 C305 1.367 . S
C305 C304 1.367 . S
C305 C307 1.433 . S
C306 C302 1.350 . S
C306 C303 1.463 . S
C306 N310 1.427 . S
C307 H297 0.929 . S
C307 C305 1.433 . S
C307 N310 1.384 . S
C308 H299 0.929 . S
C308 C300 1.378 . S
C308 C303 1.350 . S
C309 H296 0.932 . S
C309 C301 1.432 1_545 S
C309 N311 1.382 1_545 S
N310 C306 1.427 . S
N310 C307 1.384 . S
N311 C303 1.427 . S
N311 C309 1.382 1_565 S
H312 C318 0.930 . S
H313 C322 0.930 . S
H314 C327 0.929 . S
H315 C325 0.929 . S
H316 C320 0.929 . S
H317 C326 0.929 . S
C318 H312 0.930 . S
C318 C319 1.367 . S
C318 C326 1.378 . S
C319 C318 1.367 . S
C319 C327 1.433 . S
C320 H316 0.929 . S
C320 C322 1.378 . S
C320 C324 1.350 . S
C321 C324 1.463 . S
C321 C326 1.350 . S
C321 N329 1.427 . S
C322 H313 0.930 . S
C322 C320 1.378 . S
C322 C323 1.367 . S
C323 C322 1.367 . S
C323 C325 1.433 . S
C324 C320 1.350 . S
C324 C321 1.463 . S
C324 N328 1.427 . S
C325 H315 0.929 . S
C325 C323 1.433 . S
C325 N328 1.384 . S
C326 H317 0.929 . S
C326 C318 1.378 . S
C326 C321 1.350 . S
C327 H314 0.929 . S
C327 C319 1.433 . S
C327 N329 1.384 . S
N328 C324 1.427 . S
N328 C325 1.384 . S
N329 C321 1.427 . S
N329 C327 1.384 . S
H330 C336 0.930 . S
H331 C340 0.930 . S
H332 C345 0.929 . S
H333 C343 0.929 . S
H334 C338 0.929 1_565 S
H335 C344 0.929 . S
C336 H330 0.930 . S
C336 C337 1.367 . S
C336 C344 1.378 . S
C337 C336 1.367 . S
C337 C345 1.433 . S
C338 H334 0.929 1_545 S
C338 C340 1.378 1_545 S
C338 C342 1.350 . S
C339 C342 1.463 . S
C339 C344 1.350 . S
C339 N347 1.427 . S
C340 H331 0.930 . S
C340 C338 1.378 1_565 S
C340 C341 1.367 1_565 S
C341 C340 1.367 1_545 S
C341 C343 1.433 . S
C342 C338 1.350 . S
C342 C339 1.463 . S
C342 N346 1.427 . S
C343 H333 0.929 . S
C343 C341 1.433 . S
C343 N346 1.384 . S
C344 H335 0.929 . S
C344 C336 1.378 . S
C344 C339 1.350 . S
C345 H332 0.929 . S
C345 C337 1.433 . S
C345 N347 1.384 . S
N346 C342 1.427 . S
N346 C343 1.384 . S
N347 C339 1.427 . S
N347 C345 1.384 . S
H348 C354 0.930 . S
H349 C358 0.930 . S
H350 C363 0.929 . S
H351 C361 0.929 . S
H352 C356 0.929 . S
H353 C362 0.929 . S
C354 H348 0.930 . S
C354 C355 1.367 . S
C354 C362 1.378 . S
C355 C354 1.367 . S
C355 C363 1.433 . S
C356 H352 0.929 . S
C356 C358 1.378 . S
C356 C360 1.350 . S
C357 C360 1.463 . S
C357 C362 1.350 . S
C357 N365 1.427 . S
C358 H349 0.930 . S
C358 C356 1.378 . S
C358 C359 1.367 . S
C359 C358 1.367 . S
C359 C361 1.433 . S
C360 C356 1.350 . S
C360 C357 1.463 . S
C360 N364 1.427 . S
C361 H351 0.929 . S
C361 C359 1.433 . S
C361 N364 1.384 . S
C362 H353 0.929 . S
C362 C354 1.378 . S
C362 C357 1.350 . S
C363 H350 0.929 . S
C363 C355 1.433 . S
C363 N365 1.384 . S
N364 C360 1.427 . S
N364 C361 1.384 . S
N365 C357 1.427 . S
N365 C363 1.384 . S
H366 C372 0.930 . S
H367 C376 0.930 . S
H368 C381 0.929 . S
H369 C379 0.929 . S
H370 C374 0.929 . S
H371 C380 0.929 . S
C372 H366 0.930 . S
C372 C373 1.367 . S
C372 C380 1.378 . S
C373 C372 1.367 . S
C373 C381 1.433 . S
C374 H370 0.929 . S
C374 C376 1.378 . S
C374 C378 1.350 . S
C375 C378 1.463 . S
C375 C380 1.350 . S
C375 N383 1.427 . S
C376 H367 0.930 . S
C376 C374 1.378 . S
C376 C377 1.367 . S
C377 C376 1.367 . S
C377 C379 1.433 . S
C378 C374 1.350 . S
C378 C375 1.463 . S
C378 N382 1.427 . S
C379 H369 0.929 . S
C379 C377 1.433 . S
C379 N382 1.384 . S
C380 H371 0.929 . S
C380 C372 1.378 . S
C380 C375 1.350 . S
C381 H368 0.929 . S
C381 C373 1.433 . S
C381 N383 1.384 . S
N382 C378 1.427 . S
N382 C379 1.384 . S
N383 C375 1.427 . S
N383 C381 1.384 . S
H384 C390 0.930 . S
H385 C394 0.930 . S
H386 C399 0.929 . S
H387 C397 0.929 . S
H388 C392 0.929 . S
H389 C398 0.929 . S
C390 H384 0.930 . S
C390 C391 1.367 . S
C390 C398 1.378 . S
C391 C390 1.367 . S
C391 C399 1.433 . S
C392 H388 0.929 . S
C392 C394 1.378 . S
C392 C396 1.350 . S
C393 C396 1.463 . S
C393 C398 1.350 . S
C393 N401 1.427 . S
C394 H385 0.930 . S
C394 C392 1.378 . S
C394 C395 1.367 . S
C395 C394 1.367 . S
C395 C397 1.433 1_556 S
C396 C392 1.350 . S
C396 C393 1.463 . S
C396 N400 1.427 . S
C397 H387 0.929 . S
C397 C395 1.433 1_554 S
C397 N400 1.384 1_554 S
C398 H389 0.929 . S
C398 C390 1.378 . S
C398 C393 1.350 . S
C399 H386 0.929 . S
C399 C391 1.433 . S
C399 N401 1.384 . S
N400 C396 1.427 . S
N400 C397 1.384 1_556 S
N401 C393 1.427 . S
N401 C399 1.384 . S
H402 C408 0.930 . S
H403 C412 0.930 . S
H404 C417 0.929 . S
H405 C415 0.929 . S
H406 C410 0.929 . S
H407 C416 0.929 . S
C408 H402 0.930 . S
C408 C409 1.367 . S
C408 C416 1.378 . S
C409 C408 1.367 . S
C409 C417 1.433 . S
C410 H406 0.929 . S
C410 C412 1.378 . S
C410 C414 1.350 . S
C411 C414 1.463 . S
C411 C416 1.350 . S
C411 N419 1.427 . S
C412 H403 0.930 . S
C412 C410 1.378 . S
C412 C413 1.367 . S
C413 C412 1.367 . S
C413 C415 1.433 . S
C414 C410 1.350 . S
C414 C411 1.463 . S
C414 N418 1.427 . S
C415 H405 0.929 . S
C415 C413 1.433 . S
C415 N418 1.384 . S
C416 H407 0.929 . S
C416 C408 1.378 . S
C416 C411 1.350 . S
C417 H404 0.929 . S
C417 C409 1.433 . S
C417 N419 1.384 . S
N418 C414 1.427 . S
N418 C415 1.384 . S
N419 C411 1.427 . S
N419 C417 1.384 . S
H420 C426 0.930 . S
H421 C430 0.930 . S
H422 C435 0.929 . S
H423 C433 0.929 . S
H424 C428 0.929 . S
H425 C434 0.929 . S
C426 H420 0.930 . S
C426 C427 1.367 . S
C426 C434 1.378 . S
C427 C426 1.367 . S
C427 C435 1.433 . S
C428 H424 0.929 . S
C428 C430 1.378 . S
C428 C432 1.350 . S
C429 C432 1.463 . S
C429 C434 1.350 . S
C429 N437 1.427 . S
C430 H421 0.930 . S
C430 C428 1.378 . S
C430 C431 1.367 . S
C431 C430 1.367 . S
C431 C433 1.433 . S
C432 C428 1.350 . S
C432 C429 1.463 . S
C432 N436 1.427 . S
C433 H423 0.929 . S
C433 C431 1.433 . S
C433 N436 1.384 . S
C434 H425 0.929 . S
C434 C426 1.378 . S
C434 C429 1.350 . S
C435 H422 0.929 . S
C435 C427 1.433 . S
C435 N437 1.384 . S
N436 C432 1.427 . S
N436 C433 1.384 . S
N437 C429 1.427 . S
N437 C435 1.384 . S
H438 C444 0.930 . S
H439 C448 0.930 . S
H440 C453 0.929 . S
H441 C451 0.929 . S
H442 C446 0.929 . S
H443 C452 0.929 1_655 S
C444 H438 0.930 . S
C444 C445 1.367 . S
C444 C452 1.378 . S
C445 C444 1.367 . S
C445 C453 1.433 . S
C446 H442 0.929 . S
C446 C448 1.378 . S
C446 C450 1.350 . S
C447 C450 1.463 . S
C447 C452 1.350 . S
C447 N455 1.427 . S
C448 H439 0.930 . S
C448 C446 1.378 . S
C448 C449 1.367 . S
C449 C448 1.367 . S
C449 C451 1.433 1_455 S
C450 C446 1.350 . S
C450 C447 1.463 . S
C450 N454 1.427 1_455 S
C451 H441 0.929 . S
C451 C449 1.433 1_655 S
C451 N454 1.384 . S
C452 H443 0.929 1_455 S
C452 C444 1.378 . S
C452 C447 1.350 . S
C453 H440 0.929 . S
C453 C445 1.433 . S
C453 N455 1.384 . S
N454 C450 1.427 1_655 S
N454 C451 1.384 . S
N455 C447 1.427 . S
N455 C453 1.384 . S
H456 C462 0.930 . S
H457 C466 0.930 . S
H458 C471 0.929 1_455 S
H459 C469 0.929 . S
H460 C464 0.929 . S
H461 C470 0.929 . S
C462 H456 0.930 . S
C462 C463 1.367 . S
C462 C470 1.378 . S
C463 C462 1.367 . S
C463 C471 1.433 . S
C464 H460 0.929 . S
C464 C466 1.378 . S
C464 C468 1.350 . S
C465 C468 1.463 . S
C465 C470 1.350 . S
C465 N473 1.427 . S
C466 H457 0.930 . S
C466 C464 1.378 . S
C466 C467 1.367 . S
C467 C466 1.367 . S
C467 C469 1.433 . S
C468 C464 1.350 . S
C468 C465 1.463 . S
C468 N472 1.427 . S
C469 H459 0.929 . S
C469 C467 1.433 . S
C469 N472 1.384 . S
C470 H461 0.929 . S
C470 C462 1.378 . S
C470 C465 1.350 . S
C471 H458 0.929 1_655 S
C471 C463 1.433 . S
C471 N473 1.384 . S
N472 C468 1.427 . S
N472 C469 1.384 . S
N473 C465 1.427 . S
N473 C471 1.384 . S
H474 C480 0.930 . S
H475 C484 0.930 . S
H476 C489 0.929 . S
H477 C487 0.929 . S
H478 C482 0.929 . S
H479 C488 0.929 . S
C480 H474 0.930 . S
C480 C481 1.367 . S
C480 C488 1.378 . S
C481 C480 1.367 . S
C481 C489 1.433 . S
C482 H478 0.929 . S
C482 C484 1.378 . S
C482 C486 1.350 . S
C483 C486 1.463 . S
C483 C488 1.350 . S
C483 N491 1.427 . S
C484 H475 0.930 . S
C484 C482 1.378 . S
C484 C485 1.367 . S
C485 C484 1.367 . S
C485 C487 1.433 . S
C486 C482 1.350 . S
C486 C483 1.463 . S
C486 N490 1.427 . S
C487 H477 0.929 . S
C487 C485 1.433 . S
C487 N490 1.384 . S
C488 H479 0.929 . S
C488 C480 1.378 . S
C488 C483 1.350 . S
C489 H476 0.929 . S
C489 C481 1.433 . S
C489 N491 1.384 . S
N490 C486 1.427 . S
N490 C487 1.384 . S
N491 C483 1.427 . S
N491 C489 1.384 . S
H492 C498 0.930 . S
H493 C502 0.930 . S
H494 C507 0.929 . S
H495 C505 0.929 . S
H496 C500 0.929 . S
H497 C506 0.929 . S
C498 H492 0.930 . S
C498 C499 1.367 . S
C498 C506 1.378 . S
C499 C498 1.367 . S
C499 C507 1.433 . S
C500 H496 0.929 . S
C500 C502 1.378 . S
C500 C504 1.350 . S
C501 C504 1.463 . S
C501 C506 1.350 . S
C501 N509 1.427 . S
C502 H493 0.930 . S
C502 C500 1.378 . S
C502 C503 1.367 . S
C503 C502 1.367 . S
C503 C505 1.433 . S
C504 C500 1.350 . S
C504 C501 1.463 . S
C504 N508 1.427 . S
C505 H495 0.929 . S
C505 C503 1.433 . S
C505 N508 1.384 . S
C506 H497 0.929 . S
C506 C498 1.378 . S
C506 C501 1.350 . S
C507 H494 0.929 . S
C507 C499 1.433 . S
C507 N509 1.384 . S
N508 C504 1.427 . S
N508 C505 1.384 . S
N509 C501 1.427 . S
N509 C507 1.384 . S
H510 C516 0.930 . S
H511 C520 0.930 . S
H512 C525 0.929 . S
H513 C523 0.929 . S
H514 C518 0.929 . S
H515 C524 0.929 . S
C516 H510 0.930 . S
C516 C517 1.367 . S
C516 C524 1.378 . S
C517 C516 1.367 . S
C517 C525 1.433 . S
C518 H514 0.929 . S
C518 C520 1.378 . S
C518 C522 1.350 . S
C519 C522 1.463 . S
C519 C524 1.350 . S
C519 N527 1.427 . S
C520 H511 0.930 . S
C520 C518 1.378 . S
C520 C521 1.367 . S
C521 C520 1.367 . S
C521 C523 1.433 . S
C522 C518 1.350 . S
C522 C519 1.463 . S
C522 N526 1.427 . S
C523 H513 0.929 . S
C523 C521 1.433 . S
C523 N526 1.384 . S
C524 H515 0.929 . S
C524 C516 1.378 . S
C524 C519 1.350 . S
C525 H512 0.929 . S
C525 C517 1.433 . S
C525 N527 1.384 . S
N526 C522 1.427 . S
N526 C523 1.384 . S
N527 C519 1.427 . S
N527 C525 1.384 . S
H528 C534 0.930 . S
H529 C538 0.930 . S
H530 C543 0.929 . S
H531 C541 0.929 . S
H532 C536 0.929 . S
H533 C542 0.929 . S
C534 H528 0.930 . S
C534 C535 1.367 . S
C534 C542 1.378 . S
C535 C534 1.367 . S
C535 C543 1.433 . S
C536 H532 0.929 . S
C536 C538 1.378 . S
C536 C540 1.350 . S
C537 C540 1.463 . S
C537 C542 1.350 . S
C537 N545 1.427 . S
C538 H529 0.930 . S
C538 C536 1.378 . S
C538 C539 1.367 . S
C539 C538 1.367 . S
C539 C541 1.433 . S
C540 C536 1.350 . S
C540 C537 1.463 . S
C540 N544 1.427 . S
C541 H531 0.929 . S
C541 C539 1.433 . S
C541 N544 1.384 . S
C542 H533 0.929 . S
C542 C534 1.378 . S
C542 C537 1.350 . S
C543 H530 0.929 . S
C543 C535 1.433 . S
C543 N545 1.384 . S
N544 C540 1.427 . S
N544 C541 1.384 . S
N545 C537 1.427 . S
N545 C543 1.384 . S
H546 C552 0.930 . S
H547 C556 0.930 . S
H548 C561 0.929 . S
H549 C559 0.929 . S
H550 C554 0.929 . S
H551 C560 0.929 . S
C552 H546 0.930 . S
C552 C553 1.367 . S
C552 C560 1.378 . S
C553 C552 1.367 . S
C553 C561 1.433 . S
C554 H550 0.929 . S
C554 C556 1.378 . S
C554 C558 1.350 1_556 S
C555 C558 1.463 . S
C555 C560 1.350 . S
C555 N563 1.427 . S
C556 H547 0.930 . S
C556 C554 1.378 . S
C556 C557 1.367 . S
C557 C556 1.367 . S
C557 C559 1.433 . S
C558 C554 1.350 1_554 S
C558 C555 1.463 . S
C558 N562 1.422 1_554 S
C559 H549 0.929 . S
C559 C557 1.433 . S
C559 N562 1.404 . S
C560 H551 0.929 . S
C560 C552 1.378 . S
C560 C555 1.350 . S
C561 H548 0.929 . S
C561 C553 1.433 . S
C561 N563 1.384 . S
N562 C558 1.422 1_556 S
N562 C559 1.404 . S
N563 C555 1.427 . S
N563 C561 1.384 . S
H564 C570 0.930 . S
H565 C574 0.930 . S
H566 C579 0.929 . S
H567 C577 0.929 . S
H568 C572 0.929 . S
H569 C578 0.929 . S
C570 H564 0.930 . S
C570 C571 1.367 . S
C570 C578 1.378 . S
C571 C570 1.367 . S
C571 C579 1.433 . S
C572 H568 0.929 . S
C572 C574 1.378 . S
C572 C576 1.350 . S
C573 C576 1.463 . S
C573 C578 1.350 . S
C573 N581 1.427 . S
C574 H565 0.930 . S
C574 C572 1.378 . S
C574 C575 1.367 . S
C575 C574 1.367 . S
C575 C577 1.433 . S
C576 C572 1.350 . S
C576 C573 1.463 . S
C576 N580 1.427 . S
C577 H567 0.929 . S
C577 C575 1.433 . S
C577 N580 1.384 . S
C578 H569 0.929 . S
C578 C570 1.378 . S
C578 C573 1.350 . S
C579 H566 0.929 . S
C579 C571 1.433 . S
C579 N581 1.384 . S
N580 C576 1.427 . S
N580 C577 1.384 . S
N581 C573 1.427 . S
N581 C579 1.384 . S
H582 C588 0.930 . S
H583 C592 0.930 . S
H584 C597 0.929 1_556 S
H585 C595 0.929 1_655 S
H586 C590 0.929 . S
H587 C596 0.929 . S
C588 H582 0.930 . S
C588 C589 1.367 . S
C588 C596 1.378 . S
C589 C588 1.367 . S
C589 C597 1.433 . S
C590 H586 0.929 . S
C590 C592 1.378 . S
C590 C594 1.350 . S
C591 C594 1.463 . S
C591 C596 1.350 1_556 S
C591 N599 1.427 . S
C592 H583 0.930 . S
C592 C590 1.378 . S
C592 C593 1.367 . S
C593 C592 1.367 . S
C593 C595 1.433 . S
C594 C590 1.350 . S
C594 C591 1.463 . S
C594 N598 1.427 . S
C595 H585 0.929 1_455 S
C595 C593 1.433 . S
C595 N598 1.384 . S
C596 H587 0.929 . S
C596 C588 1.378 . S
C596 C591 1.350 1_554 S
C597 H584 0.929 1_554 S
C597 C589 1.433 . S
C597 N599 1.384 1_554 S
N598 C594 1.427 . S
N598 C595 1.384 . S
N599 C591 1.427 . S
N599 C597 1.384 1_556 S
H600 C606 0.930 . S
H601 C610 0.930 . S
H602 C615 0.929 . S
H603 C613 0.929 . S
H604 C608 0.929 . S
H605 C614 0.929 . S
C606 H600 0.930 . S
C606 C607 1.367 . S
C606 C614 1.378 . S
C607 C606 1.367 . S
C607 C615 1.433 . S
C608 H604 0.929 . S
C608 C610 1.378 . S
C608 C612 1.350 . S
C609 C612 1.463 . S
C609 C614 1.350 . S
C609 N617 1.427 . S
C610 H601 0.930 . S
C610 C608 1.378 . S
C610 C611 1.367 . S
C611 C610 1.367 . S
C611 C613 1.433 . S
C612 C608 1.350 . S
C612 C609 1.463 . S
C612 N616 1.427 . S
C613 H603 0.929 . S
C613 C611 1.433 . S
C613 N616 1.384 . S
C614 H605 0.929 . S
C614 C606 1.378 . S
C614 C609 1.350 . S
C615 H602 0.929 . S
C615 C607 1.433 . S
C615 N617 1.384 . S
N616 C612 1.427 . S
N616 C613 1.384 . S
N617 C609 1.427 . S
N617 C615 1.384 . S
H618 C624 0.930 . S
H619 C628 0.930 . S
H620 C633 0.929 . S
H621 C631 0.929 . S
H622 C626 0.929 . S
H623 C632 0.929 . S
C624 H618 0.930 . S
C624 C625 1.367 . S
C624 C632 1.378 . S
C625 C624 1.367 . S
C625 C633 1.433 . S
C626 H622 0.929 . S
C626 C628 1.378 . S
C626 C630 1.350 . S
C627 C630 1.463 . S
C627 C632 1.350 . S
C627 N635 1.427 . S
C628 H619 0.930 . S
C628 C626 1.378 . S
C628 C629 1.367 . S
C629 C628 1.367 . S
C629 C631 1.433 . S
C630 C626 1.350 . S
C630 C627 1.463 . S
C630 N634 1.427 . S
C631 H621 0.929 . S
C631 C629 1.433 . S
C631 N634 1.384 . S
C632 H623 0.929 . S
C632 C624 1.378 . S
C632 C627 1.350 . S
C633 H620 0.929 . S
C633 C625 1.433 . S
C633 N635 1.384 . S
N634 C630 1.427 . S
N634 C631 1.384 . S
N635 C627 1.427 . S
N635 C633 1.384 . S
H636 C642 0.930 . S
H637 C646 0.930 . S
H638 C651 0.929 . S
H639 C649 0.929 . S
H640 C644 0.929 . S
H641 C650 0.929 . S
C642 H636 0.930 . S
C642 C643 1.367 . S
C642 C650 1.378 . S
C643 C642 1.367 . S
C643 C651 1.433 . S
C644 H640 0.929 . S
C644 C646 1.378 . S
C644 C648 1.350 . S
C645 C648 1.463 . S
C645 C650 1.350 . S
C645 N653 1.427 . S
C646 H637 0.930 . S
C646 C644 1.378 . S
C646 C647 1.367 . S
C647 C646 1.367 . S
C647 C649 1.433 . S
C648 C644 1.350 . S
C648 C645 1.463 . S
C648 N652 1.427 . S
C649 H639 0.929 . S
C649 C647 1.433 . S
C649 N652 1.384 . S
C650 H641 0.929 . S
C650 C642 1.378 . S
C650 C645 1.350 . S
C651 H638 0.929 . S
C651 C643 1.433 . S
C651 N653 1.384 . S
N652 C648 1.427 . S
N652 C649 1.384 . S
N653 C645 1.427 . S
N653 C651 1.384 . S
H654 C660 0.930 . S
H655 C664 0.930 . S
H656 C669 0.929 . S
H657 C667 0.929 . S
H658 C662 0.929 . S
H659 C668 0.929 . S
C660 H654 0.930 . S
C660 C661 1.367 . S
C660 C668 1.378 . S
C661 C660 1.367 . S
C661 C669 1.433 . S
C662 H658 0.929 . S
C662 C664 1.378 . S
C662 C666 1.350 1_565 S
C663 C666 1.463 . S
C663 C668 1.350 . S
C663 N671 1.427 . S
C664 H655 0.930 . S
C664 C662 1.378 . S
C664 C665 1.367 . S
C665 C664 1.367 . S
C665 C667 1.433 . S
C666 C662 1.350 1_545 S
C666 C663 1.463 . S
C666 N670 1.427 . S
C667 H657 0.929 . S
C667 C665 1.433 . S
C667 N670 1.384 1_565 S
C668 H659 0.929 . S
C668 C660 1.378 . S
C668 C663 1.350 . S
C669 H656 0.929 . S
C669 C661 1.433 . S
C669 N671 1.384 . S
N670 C666 1.427 . S
N670 C667 1.384 1_545 S
N671 C663 1.427 . S
N671 C669 1.384 . S
H672 C678 0.930 . S
H673 C682 0.930 . S
H674 C687 0.929 . S
H675 C685 0.929 . S
H676 C680 0.929 . S
H677 C686 0.929 . S
C678 H672 0.930 . S
C678 C679 1.367 . S
C678 C686 1.378 . S
C679 C678 1.367 . S
C679 C687 1.433 . S
C680 H676 0.929 . S
C680 C682 1.378 . S
C680 C684 1.350 . S
C681 C684 1.463 . S
C681 C686 1.350 . S
C681 N689 1.427 . S
C682 H673 0.930 . S
C682 C680 1.378 . S
C682 C683 1.367 . S
C683 C682 1.367 . S
C683 C685 1.433 . S
C684 C680 1.350 . S
C684 C681 1.463 . S
C684 N688 1.427 . S
C685 H675 0.929 . S
C685 C683 1.433 . S
C685 N688 1.384 . S
C686 H677 0.929 . S
C686 C678 1.378 . S
C686 C681 1.350 . S
C687 H674 0.929 . S
C687 C679 1.433 . S
C687 N689 1.384 . S
N688 C684 1.427 . S
N688 C685 1.384 . S
N689 C681 1.427 . S
N689 C687 1.384 . S
H690 C696 0.930 . S
H691 C700 0.930 1_556 S
H692 C705 0.929 . S
H693 C703 0.929 . S
H694 C698 0.929 . S
H695 C704 0.929 . S
C696 H690 0.930 . S
C696 C697 1.367 . S
C696 C704 1.378 1_545 S
C697 C696 1.367 . S
C697 C705 1.433 . S
C698 H694 0.929 . S
C698 C700 1.378 . S
C698 C702 1.350 . S
C699 C702 1.463 . S
C699 C704 1.350 . S
C699 N707 1.427 1_565 S
C700 H691 0.930 1_554 S
C700 C698 1.378 . S
C700 C701 1.367 . S
C701 C700 1.367 . S
C701 C703 1.433 . S
C702 C698 1.350 . S
C702 C699 1.463 . S
C702 N706 1.427 . S
C703 H693 0.929 . S
C703 C701 1.433 . S
C703 N706 1.384 . S
C704 H695 0.929 . S
C704 C696 1.378 1_565 S
C704 C699 1.350 . S
C705 H692 0.929 . S
C705 C697 1.433 . S
C705 N707 1.384 . S
N706 C702 1.427 . S
N706 C703 1.384 . S
N707 C699 1.427 1_545 S
N707 C705 1.384 . S
H708 C714 0.930 . S
H709 C718 0.930 . S
H710 C723 0.929 . S
H711 C721 0.929 . S
H712 C716 0.929 . S
H713 C722 0.929 . S
C714 H708 0.930 . S
C714 C715 1.367 . S
C714 C722 1.378 . S
C715 C714 1.367 . S
C715 C723 1.433 . S
C716 H712 0.929 . S
C716 C718 1.378 . S
C716 C720 1.350 . S
C717 C720 1.463 . S
C717 C722 1.350 . S
C717 N725 1.427 . S
C718 H709 0.930 . S
C718 C716 1.378 . S
C718 C719 1.367 . S
C719 C718 1.367 . S
C719 C721 1.433 . S
C720 C716 1.350 . S
C720 C717 1.463 . S
C720 N724 1.427 . S
C721 H711 0.929 . S
C721 C719 1.433 . S
C721 N724 1.384 . S
C722 H713 0.929 . S
C722 C714 1.378 . S
C722 C717 1.350 . S
C723 H710 0.929 . S
C723 C715 1.433 . S
C723 N725 1.384 . S
N724 C720 1.427 . S
N724 C721 1.384 . S
N725 C717 1.427 . S
N725 C723 1.384 . S
H726 C732 0.930 . S
H727 C736 0.930 1_554 S
H728 C741 0.929 . S
H729 C739 0.929 . S
H730 C734 0.929 . S
H731 C740 0.929 . S
C732 H726 0.930 . S
C732 C733 1.367 . S
C732 C740 1.378 . S
C733 C732 1.367 . S
C733 C741 1.433 . S
C734 H730 0.929 . S
C734 C736 1.378 . S
C734 C738 1.350 . S
C735 C738 1.463 . S
C735 C740 1.350 . S
C735 N743 1.427 . S
C736 H727 0.930 1_556 S
C736 C734 1.378 . S
C736 C737 1.367 . S
C737 C736 1.367 . S
C737 C739 1.433 . S
C738 C734 1.350 . S
C738 C735 1.463 . S
C738 N742 1.427 . S
C739 H729 0.929 . S
C739 C737 1.433 . S
C739 N742 1.384 . S
C740 H731 0.929 . S
C740 C732 1.378 . S
C740 C735 1.350 . S
C741 H728 0.929 . S
C741 C733 1.433 . S
C741 N743 1.384 . S
N742 C738 1.427 . S
N742 C739 1.384 . S
N743 C735 1.427 . S
N743 C741 1.384 . S
H744 C750 0.930 . S
H745 C754 0.930 . S
H746 C759 0.929 . S
H747 C757 0.929 . S
H748 C752 0.929 . S
H749 C758 0.929 . S
C750 H744 0.930 . S
C750 C751 1.367 . S
C750 C758 1.378 . S
C751 C750 1.367 . S
C751 C759 1.433 . S
C752 H748 0.929 . S
C752 C754 1.378 . S
C752 C756 1.350 . S
C753 C756 1.463 . S
C753 C758 1.350 . S
C753 N761 1.427 . S
C754 H745 0.930 . S
C754 C752 1.378 . S
C754 C755 1.367 . S
C755 C754 1.367 . S
C755 C757 1.433 . S
C756 C752 1.350 . S
C756 C753 1.463 . S
C756 N760 1.427 . S
C757 H747 0.929 . S
C757 C755 1.433 . S
C757 N760 1.384 . S
C758 H749 0.929 . S
C758 C750 1.378 . S
C758 C753 1.350 . S
C759 H746 0.929 . S
C759 C751 1.433 . S
C759 N761 1.384 . S
N760 C756 1.427 . S
N760 C757 1.384 . S
N761 C753 1.427 . S
N761 C759 1.384 . S
H762 C768 0.930 . S
H763 C772 0.930 . S
H764 C777 0.929 . S
H765 C775 0.929 . S
H766 C770 0.929 . S
H767 C776 0.929 . S
C768 H762 0.930 . S
C768 C769 1.367 . S
C768 C776 1.378 . S
C769 C768 1.367 . S
C769 C777 1.433 . S
C770 H766 0.929 . S
C770 C772 1.378 . S
C770 C774 1.350 . S
C771 C774 1.463 . S
C771 C776 1.350 . S
C771 N779 1.427 . S
C772 H763 0.930 . S
C772 C770 1.378 . S
C772 C773 1.367 . S
C773 C772 1.367 . S
C773 C775 1.433 . S
C774 C770 1.350 . S
C774 C771 1.463 . S
C774 N778 1.427 . S
C775 H765 0.929 . S
C775 C773 1.433 . S
C775 N778 1.384 . S
C776 H767 0.929 . S
C776 C768 1.378 . S
C776 C771 1.350 . S
C777 H764 0.929 . S
C777 C769 1.433 . S
C777 N779 1.384 . S
N778 C774 1.427 . S
N778 C775 1.384 . S
N779 C771 1.427 . S
N779 C777 1.384 . S
H780 C786 0.930 . S
H781 C790 0.930 . S
H782 C795 0.929 . S
H783 C793 0.929 . S
H784 C788 0.929 . S
H785 C794 0.929 . S
C786 H780 0.930 . S
C786 C787 1.367 . S
C786 C794 1.378 . S
C787 C786 1.367 . S
C787 C795 1.433 . S
C788 H784 0.929 . S
C788 C790 1.378 . S
C788 C792 1.350 . S
C789 C792 1.463 . S
C789 C794 1.350 . S
C789 N797 1.427 . S
C790 H781 0.930 . S
C790 C788 1.378 . S
C790 C791 1.367 . S
C791 C790 1.367 . S
C791 C793 1.433 . S
C792 C788 1.350 . S
C792 C789 1.463 . S
C792 N796 1.427 . S
C793 H783 0.929 . S
C793 C791 1.433 . S
C793 N796 1.384 . S
C794 H785 0.929 . S
C794 C786 1.378 . S
C794 C789 1.350 . S
C795 H782 0.929 . S
C795 C787 1.433 . S
C795 N797 1.384 . S
N796 C792 1.427 . S
N796 C793 1.384 . S
N797 C789 1.427 . S
N797 C795 1.384 . S
H798 C804 0.930 . S
H799 C808 0.930 . S
H800 C813 0.929 . S
H801 C811 0.929 . S
H802 C806 0.929 . S
H803 C812 0.929 . S
C804 H798 0.930 . S
C804 C805 1.367 . S
C804 C812 1.378 . S
C805 C804 1.367 . S
C805 C813 1.433 . S
C806 H802 0.929 . S
C806 C808 1.378 . S
C806 C810 1.350 . S
C807 C810 1.463 . S
C807 C812 1.350 . S
C807 N815 1.427 . S
C808 H799 0.930 . S
C808 C806 1.378 . S
C808 C809 1.367 . S
C809 C808 1.367 . S
C809 C811 1.433 . S
C810 C806 1.350 . S
C810 C807 1.463 . S
C810 N814 1.427 . S
C811 H801 0.929 . S
C811 C809 1.433 . S
C811 N814 1.384 . S
C812 H803 0.929 . S
C812 C804 1.378 . S
C812 C807 1.350 . S
C813 H800 0.929 . S
C813 C805 1.433 . S
C813 N815 1.384 . S
N814 C810 1.427 . S
N814 C811 1.384 . S
N815 C807 1.427 . S
N815 C813 1.384 . S
H816 C822 0.930 . S
H817 C826 0.930 . S
H818 C831 0.929 . S
H819 C829 0.929 . S
H820 C824 0.929 . S
H821 C830 0.929 . S
C822 H816 0.930 . S
C822 C823 1.367 . S
C822 C830 1.378 . S
C823 C822 1.367 . S
C823 C831 1.433 . S
C824 H820 0.929 . S
C824 C826 1.378 . S
C824 C828 1.350 1_655 S
C825 C828 1.463 . S
C825 C830 1.350 . S
C825 N833 1.427 . S
C826 H817 0.930 . S
C826 C824 1.378 . S
C826 C827 1.367 . S
C827 C826 1.367 . S
C827 C829 1.433 . S
C828 C824 1.350 1_455 S
C828 C825 1.463 . S
C828 N832 1.427 . S
C829 H819 0.929 . S
C829 C827 1.433 . S
C829 N832 1.384 1_655 S
C830 H821 0.929 . S
C830 C822 1.378 . S
C830 C825 1.350 . S
C831 H818 0.929 . S
C831 C823 1.433 . S
C831 N833 1.384 . S
N832 C828 1.427 . S
N832 C829 1.384 1_455 S
N833 C825 1.427 . S
N833 C831 1.384 . S
H834 C840 0.930 . S
H835 C844 0.930 . S
H836 C849 0.929 . S
H837 C847 0.929 . S
H838 C842 0.929 . S
H839 C848 0.929 . S
C840 H834 0.930 . S
C840 C841 1.367 . S
C840 C848 1.378 . S
C841 C840 1.367 . S
C841 C849 1.433 . S
C842 H838 0.929 . S
C842 C844 1.378 . S
C842 C846 1.350 . S
C843 C846 1.463 . S
C843 C848 1.350 . S
C843 N851 1.427 . S
C844 H835 0.930 . S
C844 C842 1.378 . S
C844 C845 1.367 . S
C845 C844 1.367 . S
C845 C847 1.433 . S
C846 C842 1.350 . S
C846 C843 1.463 . S
C846 N850 1.427 . S
C847 H837 0.929 . S
C847 C845 1.433 . S
C847 N850 1.384 . S
C848 H839 0.929 . S
C848 C840 1.378 . S
C848 C843 1.350 . S
C849 H836 0.929 . S
C849 C841 1.433 . S
C849 N851 1.384 . S
N850 C846 1.427 . S
N850 C847 1.384 . S
N851 C843 1.427 . S
N851 C849 1.384 . S
H852 C858 0.930 . S
H853 C862 0.930 . S
H854 C867 0.929 . S
H855 C865 0.929 . S
H856 C860 0.929 . S
H857 C866 0.929 . S
C858 H852 0.930 . S
C858 C859 1.367 . S
C858 C866 1.378 . S
C859 C858 1.367 . S
C859 C867 1.433 . S
C860 H856 0.929 . S
C860 C862 1.378 . S
C860 C864 1.350 . S
C861 C864 1.463 . S
C861 C866 1.350 . S
C861 N869 1.427 . S
C862 H853 0.930 . S
C862 C860 1.378 . S
C862 C863 1.367 . S
C863 C862 1.367 . S
C863 C865 1.433 . S
C864 C860 1.350 . S
C864 C861 1.463 . S
C864 N868 1.427 . S
C865 H855 0.929 . S
C865 C863 1.433 . S
C865 N868 1.384 . S
C866 H857 0.929 . S
C866 C858 1.378 . S
C866 C861 1.350 . S
C867 H854 0.929 . S
C867 C859 1.433 . S
C867 N869 1.384 . S
N868 C864 1.427 . S
N868 C865 1.384 . S
N869 C861 1.427 . S
N869 C867 1.384 . S
H870 C876 0.930 . S
H871 C880 0.930 . S
H872 C885 0.929 . S
H873 C883 0.929 . S
H874 C878 0.929 . S
H875 C884 0.929 . S
C876 H870 0.930 . S
C876 C877 1.367 . S
C876 C884 1.378 . S
C877 C876 1.367 . S
C877 C885 1.433 . S
C878 H874 0.929 . S
C878 C880 1.378 . S
C878 C882 1.350 . S
C879 C882 1.463 . S
C879 C884 1.350 . S
C879 N887 1.427 . S
C880 H871 0.930 . S
C880 C878 1.378 . S
C880 C881 1.367 . S
C881 C880 1.367 . S
C881 C883 1.433 . S
C882 C878 1.350 . S
C882 C879 1.463 . S
C882 N886 1.427 . S
C883 H873 0.929 . S
C883 C881 1.433 . S
C883 N886 1.384 . S
C884 H875 0.929 . S
C884 C876 1.378 . S
C884 C879 1.350 . S
C885 H872 0.929 . S
C885 C877 1.433 . S
C885 N887 1.384 . S
N886 C882 1.427 . S
N886 C883 1.384 . S
N887 C879 1.427 . S
N887 C885 1.384 . S
H888 C894 0.930 . S
H889 C898 0.930 . S
H890 C903 0.929 . S
H891 C901 0.929 . S
H892 C896 0.929 . S
H893 C902 0.929 . S
C894 H888 0.930 . S
C894 C895 1.367 . S
C894 C902 1.378 . S
C895 C894 1.367 . S
C895 C903 1.433 . S
C896 H892 0.929 . S
C896 C898 1.378 . S
C896 C900 1.350 . S
C897 C900 1.463 . S
C897 C902 1.350 . S
C897 N905 1.427 . S
C898 H889 0.930 . S
C898 C896 1.378 . S
C898 C899 1.367 . S
C899 C898 1.367 . S
C899 C901 1.433 . S
C900 C896 1.350 . S
C900 C897 1.463 . S
C900 N904 1.427 . S
C901 H891 0.929 . S
C901 C899 1.433 . S
C901 N904 1.384 . S
C902 H893 0.929 . S
C902 C894 1.378 . S
C902 C897 1.350 . S
C903 H890 0.929 . S
C903 C895 1.433 . S
C903 N905 1.384 . S
N904 C900 1.427 . S
N904 C901 1.384 . S
N905 C897 1.427 . S
N905 C903 1.384 . S
H906 C912 0.930 . S
H907 C916 0.930 . S
H908 C921 0.929 . S
H909 C919 0.929 . S
H910 C914 0.929 . S
H911 C920 0.929 . S
C912 H906 0.930 . S
C912 C913 1.367 . S
C912 C920 1.378 . S
C913 C912 1.367 . S
C913 C921 1.433 . S
C914 H910 0.929 . S
C914 C916 1.378 1_655 S
C914 C918 1.350 . S
C915 C918 1.463 . S
C915 C920 1.350 . S
C915 N923 1.427 . S
C916 H907 0.930 . S
C916 C914 1.378 1_455 S
C916 C917 1.367 . S
C917 C916 1.367 . S
C917 C919 1.433 . S
C918 C914 1.350 . S
C918 C915 1.463 . S
C918 N922 1.427 1_655 S
C919 H909 0.929 . S
C919 C917 1.433 . S
C919 N922 1.384 . S
C920 H911 0.929 . S
C920 C912 1.378 . S
C920 C915 1.350 . S
C921 H908 0.929 . S
C921 C913 1.433 . S
C921 N923 1.384 . S
N922 C918 1.427 1_455 S
N922 C919 1.384 . S
N923 C915 1.427 . S
N923 C921 1.384 . S
C283 C19 1.330 . S
C287 C272 1.349 . S
C301 C223 1.604 1_565 S
C305 C40 1.649 . S
C319 C63 1.419 1_554 S
C323 C201 1.425 . S
C337 C88 1.405 . S
C341 C247 1.408 1_545 S
C355 C108 1.384 . S
C359 C249 1.406 . S
C373 C132 1.485 . S
C377 C270 1.470 . S
C391 C228 1.496 . S
C395 C155 1.457 . S
C409 C180 1.317 . S
C413 C203 1.311 . S
C427 C86 1.244 . S
C431 C113 1.282 . S
C445 C17 1.377 . S
C449 C134 1.351 1_455 S
C463 C42 1.444 1_655 S
C467 C157 1.444 . S
C481 C178 1.346 . S
C485 C65 1.342 . S
C499 C18 1.063 . S
C503 C200 1.058 . S
C517 C44 0.966 . S
C521 C246 1.030 . S
C535 C273 0.935 . S
C539 C67 0.935 . S
C553 C87 0.982 . S
C557 C224 0.976 . S
C571 C111 1.061 . S
C575 C225 1.129 . S
C589 C204 1.057 . S
C593 C136 1.008 . S
C607 C250 1.043 . S
C611 C159 1.026 . S
C625 C269 1.062 . S
C629 C179 1.068 . S
C643 C16 1.279 . S
C647 C90 1.232 . S
C661 C21 1.063 . S
C665 C43 1.107 . S
C679 C41 0.910 . S
C683 C66 0.884 . S
C697 C85 0.987 . S
C701 C64 0.991 . S
C715 C133 0.983 . S
C719 C110 0.974 . S
C733 C135 0.969 . S
C737 C156 0.976 . S
C751 C158 1.153 . S
C755 C182 1.117 . S
C769 C112 1.078 . S
C773 C177 1.085 . S
C787 C202 1.023 . S
C791 C89 1.003 . S
C805 C131 1.125 . S
C809 C226 1.051 . S
C823 C205 1.132 . S
C827 C154 1.215 . S
C841 C251 1.021 . S
C845 C181 1.030 . S
C859 C109 1.111 . S
C863 C271 1.113 . S
C877 C274 1.027 . S
C881 C39 1.061 . S
C895 C62 0.999 . S
C899 C227 1.006 . S
C913 C248 0.839 . S
C917 C20 0.833 . S
