# Generated by pormake.
# Topology tfs, (6)-cn, num edge types: 1
# Building blocks:
#     Node 0, Type 0, BuildingBlock: MIDCAF_clean_sbu_0, # of connection points: 6
#     Node 1, Type 0, BuildingBlock: MIDCAF_clean_sbu_0, # of connection points: 6
#     Node 2, Type 0, BuildingBlock: MIDCAF_clean_sbu_0, # of connection points: 6
#     Node 3, Type 0, BuildingBlock: MIDCAF_clean_sbu_0, # of connection points: 6
#     Node 4, Type 0, BuildingBlock: MIDCAF_clean_sbu_0, # of connection points: 6
#     Node 5, Type 0, BuildingBlock: MIDCAF_clean_sbu_0, # of connection points: 6
#     Edge 6, Type (0, 0), BuildingBlock: ZUJKAS_clean_linker_0, # of connection points: 2
#     Edge 7, Type (0, 0), BuildingBlock: ZUJKAS_clean_linker_0, # of connection points: 2
#     Edge 8, Type (0, 0), BuildingBlock: ZUJKAS_clean_linker_0, # of connection points: 2
#     Edge 9, Type (0, 0), BuildingBlock: ZUJKAS_clean_linker_0, # of connection points: 2
#     Edge 10, Type (0, 0), BuildingBlock: ZUJKAS_clean_linker_0, # of connection points: 2
#     Edge 11, Type (0, 0), BuildingBlock: ZUJKAS_clean_linker_0, # of connection points: 2
#     Edge 12, Type (0, 0), BuildingBlock: ZUJKAS_clean_linker_0, # of connection points: 2
#     Edge 13, Type (0, 0), BuildingBlock: ZUJKAS_clean_linker_0, # of connection points: 2
#     Edge 14, Type (0, 0), BuildingBlock: ZUJKAS_clean_linker_0, # of connection points: 2
#     Edge 15, Type (0, 0), BuildingBlock: ZUJKAS_clean_linker_0, # of connection points: 2
#     Edge 16, Type (0, 0), BuildingBlock: ZUJKAS_clean_linker_0, # of connection points: 2
#     Edge 17, Type (0, 0), BuildingBlock: ZUJKAS_clean_linker_0, # of connection points: 2
#     Edge 18, Type (0, 0), BuildingBlock: ZUJKAS_clean_linker_0, # of connection points: 2
#     Edge 19, Type (0, 0), BuildingBlock: ZUJKAS_clean_linker_0, # of connection points: 2
#     Edge 20, Type (0, 0), BuildingBlock: ZUJKAS_clean_linker_0, # of connection points: 2
#     Edge 21, Type (0, 0), BuildingBlock: ZUJKAS_clean_linker_0, # of connection points: 2
#     Edge 22, Type (0, 0), BuildingBlock: ZUJKAS_clean_linker_0, # of connection points: 2
#     Edge 23, Type (0, 0), BuildingBlock: ZUJKAS_clean_linker_0, # of connection points: 2
# Relax obj value: 0.134
# Max RMSD: 0.125
# Mean RMSD: 0.125
data_MOF--net-tfs--node1-MIDCAF_clean_sbu_0--edge1-ZUJKAS_clean_linker_0
_symmetry_space_group_name_H-M    P1
_symmetry_Int_Tables_number       1
_symmetry_cell_setting            triclinic
loop_
_symmetry_equiv_pos_as_xyz
'x, y, z'
_cell_length_a     53.920188
_cell_length_b     53.959087
_cell_length_c     19.627984
_cell_angle_alpha  89.964777
_cell_angle_beta   90.014004
_cell_angle_gamma 119.99528
loop_
_atom_site_label
_atom_site_type_symbol
_atom_site_fract_x
_atom_site_fract_y
_atom_site_fract_z
_atom_type_partial_charge
Zn0 Zn 0.17223 0.42159 0.95861 0.0
Zn1 Zn 0.25927 0.42731 0.07896 0.0
Zn2 Zn 0.21323 0.41946 0.0216 0.0
C3 C 0.25133 0.39154 0.97184 0.0
C4 C 0.21297 0.39525 0.16936 0.0
O5 O 0.22203 0.4644 0.00459 0.0
O6 O 0.18635 0.46262 0.94477 0.0
C7 C 0.19048 0.39128 0.875 0.0
O8 O 0.2284 0.39329 0.967 0.0
O9 O 0.27088 0.4076 0.01262 0.0
O10 O 0.23949 0.40492 0.16145 0.0
O11 O 0.19837 0.3989 0.1225 0.0
O12 O 0.17191 0.39893 0.87922 0.0
O13 O 0.20873 0.39722 0.92345 0.0
O14 O 0.17378 0.39354 0.08241 0.0
O15 O 0.14233 0.4011 0.02756 0.0
C16 C 0.14813 0.38916 0.07525 0.0
O17 O 0.2468 0.46607 0.03189 0.0
O18 O 0.28348 0.46896 0.08912 0.0
C19 C 0.20997 0.47704 0.97485 0.0
C20 C 0.27188 0.48117 0.05897 0.0
Zn21 Zn 0.75139 0.17508 0.97356 0.0
Zn22 Zn 0.82012 0.23919 0.14256 0.0
Zn23 Zn 0.79236 0.20568 0.056 0.0
C24 C 0.85621 0.22693 0.06159 0.0
C25 C 0.7887 0.19305 0.21692 0.0
O26 O 0.76192 0.22252 0.03621 0.0
O27 O 0.72855 0.19404 0.96297 0.0
C28 C 0.80402 0.19166 0.90592 0.0
O29 O 0.83565 0.21858 0.01823 0.0
O30 O 0.85309 0.23397 0.12096 0.0
O31 O 0.79798 0.21943 0.22409 0.0
O32 O 0.78716 0.1828 0.15656 0.0
O33 O 0.77718 0.17843 0.89848 0.0
O34 O 0.8154 0.20392 0.96302 0.0
O35 O 0.76979 0.16263 0.10283 0.0
O36 O 0.73489 0.13975 0.02818 0.0
C37 C 0.7476 0.13958 0.08201 0.0
O38 O 0.78749 0.24462 0.06137 0.0
O39 O 0.82368 0.27648 0.12301 0.0
C40 C 0.73902 0.21566 1.00118 0.0
C41 C 0.80262 0.27034 0.08484 0.0
Zn42 Zn 0.57768 0.84022 0.11556 0.0
Zn43 Zn 0.57028 0.747 0.89303 0.0
Zn44 Zn 0.58309 0.78756 0.97189 0.0
C45 C 0.60662 0.74398 0.98956 0.0
C46 C 0.60235 0.79753 0.81668 0.0
O47 O 0.54168 0.78652 0.01137 0.0
O48 O 0.53599 0.81355 0.09268 0.0
C49 C 0.60553 0.80264 0.10381 0.0
O50 O 0.607 0.76674 0.01102 0.0
O51 O 0.5904 0.72985 0.94086 0.0
O52 O 0.59 0.77062 0.81225 0.0
O53 O 0.60232 0.80949 0.87343 0.0
O54 O 0.59338 0.81573 0.08116 0.0
O55 O 0.60722 0.78561 0.06165 0.0
O56 O 0.60823 0.83059 0.92629 0.0
O57 O 0.59208 0.83385 0.02385 0.0
C58 C 0.60687 0.84668 0.97193 0.0
O59 O 0.53629 0.75979 0.97297 0.0
O60 O 0.52808 0.72682 0.89578 0.0
C61 C 0.52583 0.79367 0.04762 0.0
C62 C 0.51877 0.73719 0.93966 0.0
Zn63 Zn 0.74954 0.57195 0.0337 0.0
Zn64 Zn 0.83722 0.58076 0.9067 0.0
Zn65 Zn 0.79612 0.58255 0.9714 0.0
C66 C 0.86115 0.6144 0.02334 0.0
C67 C 0.81794 0.61012 0.82321 0.0
O68 O 0.76377 0.53545 0.98194 0.0
O69 O 0.72694 0.52994 0.04302 0.0
C70 C 0.79621 0.60691 0.1198 0.0
O71 O 0.8355 0.60994 0.031 0.0
O72 O 0.8668 0.60221 0.97594 0.0
O73 O 0.83678 0.60281 0.82701 0.0
O74 O 0.79979 0.60402 0.87203 0.0
O75 O 0.76931 0.59506 0.11499 0.0
O76 O 0.81092 0.6045 0.07116 0.0
O77 O 0.77828 0.60516 0.91292 0.0
O78 O 0.73705 0.5905 0.96587 0.0
C79 C 0.75464 0.60538 0.91999 0.0
O80 O 0.79001 0.53874 0.95935 0.0
O81 O 0.82432 0.53978 0.89528 0.0
C82 C 0.73913 0.51905 0.00983 0.0
C83 C 0.80188 0.52586 0.93009 0.0
Zn84 Zn 0.17439 0.75207 0.06847 0.0
Zn85 Zn 0.24865 0.82984 0.91361 0.0
Zn86 Zn 0.20969 0.79336 0.9925 0.0
C87 C 0.24332 0.86123 0.01932 0.0
C88 C 0.19815 0.80556 0.83858 0.0
O89 O 0.22313 0.76016 0.00917 0.0
O90 O 0.19123 0.72747 0.07856 0.0
C91 C 0.19363 0.80268 0.14369 0.0
O92 O 0.22484 0.83603 0.04074 0.0
O93 O 0.25742 0.86421 0.96571 0.0
O94 O 0.22461 0.82284 0.8328 0.0
O95 O 0.18768 0.79226 0.89519 0.0
O96 O 0.17695 0.776 0.14692 0.0
O97 O 0.20855 0.81418 0.08955 0.0
O98 O 0.16657 0.77483 0.94429 0.0
O99 O 0.13995 0.7381 0.01165 0.0
C100 C 0.14205 0.75333 0.96083 0.0
O101 O 0.24551 0.78377 0.97608 0.0
O102 O 0.27731 0.81786 0.90909 0.0
C103 C 0.21356 0.7365 0.04301 0.0
C104 C 0.26967 0.79555 0.94379 0.0
Zn105 Zn 0.4263 0.25823 0.95515 0.0
Zn106 Zn 0.42676 0.17343 0.06118 0.0
Zn107 Zn 0.42414 0.21414 0.00659 0.0
C108 C 0.39262 0.14821 0.95212 0.0
C109 C 0.39833 0.19001 0.15403 0.0
O110 O 0.47 0.24822 0.98582 0.0
O111 O 0.46709 0.28497 0.94527 0.0
C112 C 0.39723 0.21253 0.86189 0.0
O113 O 0.39668 0.17384 0.9477 0.0
O114 O 0.40631 0.14257 0.99547 0.0
O115 O 0.40548 0.17126 0.14514 0.0
O116 O 0.40375 0.20894 0.10759 0.0
O117 O 0.40484 0.23853 0.8714 0.0
O118 O 0.40252 0.19864 0.9075 0.0
O119 O 0.39735 0.22745 0.06753 0.0
O120 O 0.40576 0.26822 0.02121 0.0
C121 C 0.39272 0.24871 0.06452 0.0
O122 O 0.47058 0.22589 0.02158 0.0
O123 O 0.46758 0.18764 0.07069 0.0
C124 C 0.48206 0.27405 0.96217 0.0
C125 C 0.48275 0.21255 0.04737 0.0
H126 H 0.387 0.28069 0.16456 0.0
H127 H 0.34992 0.29414 0.16138 0.0
H128 H 0.30534 0.2303 0.0061 0.0
H129 H 0.34026 0.21483 0.0161 0.0
H130 H 0.34758 0.32008 0.06502 0.0
H131 H 0.23803 0.22895 0.07385 0.0
H132 H 0.26798 0.22547 0.10177 0.0
H133 H 0.25739 0.22052 0.01313 0.0
C134 C 0.368 0.26809 0.13407 0.0
C135 C 0.36627 0.2465 0.09129 0.0
C136 C 0.34703 0.27617 0.13088 0.0
C137 C 0.32472 0.2637 0.08249 0.0
C138 C 0.32155 0.24004 0.04517 0.0
H139 H 0.28825 0.38604 0.88586 0.0
H140 H 0.30243 0.34977 0.90154 0.0
C141 C 0.34169 0.23105 0.05104 0.0
C142 C 0.30897 0.27882 0.06138 0.0
H143 H 0.24503 0.26868 1.00068 0.0
C144 C 0.32496 0.30867 0.05263 0.0
C145 C 0.27938 0.26448 0.04488 0.0
C146 C 0.25975 0.23314 0.05975 0.0
C147 C 0.3126 0.32438 0.02768 0.0
C148 C 0.28371 0.30975 0.0052 0.0
C149 C 0.26742 0.27997 0.01528 0.0
C150 C 0.26969 0.32545 0.97678 0.0
C151 C 0.33066 0.35665 0.02846 0.0
C152 C 0.24399 0.32136 0.00524 0.0
C153 C 0.23468 0.34088 0.99208 0.0
C154 C 0.25138 0.36529 0.95208 0.0
C155 C 0.2749 0.36734 0.91659 0.0
C156 C 0.28345 0.34701 0.92722 0.0
H157 H 0.34816 0.36413 0.0667 0.0
H158 H 0.34083 0.3643 0.97787 0.0
H159 H 0.31762 0.36676 0.04055 0.0
H160 H 0.23254 0.3047 0.04266 0.0
H161 H 0.21667 0.33902 0.02089 0.0
H162 H 0.1085 0.38983 0.15946 0.0
H163 H 0.05829 0.35193 0.16135 0.0
H164 H 0.08044 0.29697 0.04898 0.0
H165 H 0.13069 0.33391 0.05267 0.0
H166 H 0.03095 0.33863 0.05117 0.0
H167 H 0.01712 0.23705 0.15296 0.0
H168 H 0.04955 0.27069 0.16641 0.0
H169 H 0.04406 0.25114 0.08808 0.0
C170 C 0.10282 0.36889 0.13978 0.0
C171 C 0.12344 0.36458 0.10696 0.0
C172 C 0.07402 0.34737 0.13951 0.0
C173 C 0.06525 0.3215 0.10453 0.0
C174 C 0.08636 0.31627 0.07762 0.0
H175 H 0.88896 0.24673 0.94425 0.0
H176 H 0.94096 0.26504 0.93883 0.0
C177 C 0.11528 0.33745 0.08012 0.0
C178 C 0.03442 0.30266 0.08651 0.0
H179 H 0.97953 0.23341 0.08119 0.0
C180 C 0.01968 0.31563 0.05861 0.0
C181 C 0.01964 0.27255 0.09481 0.0
C182 C 0.03337 0.25712 0.12782 0.0
C183 C 0.99053 0.29976 0.04158 0.0
C184 C 0.97578 0.26958 0.04888 0.0
C185 C 0.99081 0.25644 0.0744 0.0
C186 C 0.94401 0.25205 0.04172 0.0
C187 C 0.97565 0.31589 0.01968 0.0
C188 C 0.92802 0.23591 0.09785 0.0
C189 C 0.89854 0.22471 0.09984 0.0
C190 C 0.88427 0.22965 0.04619 0.0
C191 C 0.8995 0.2428 0.98645 0.0
C192 C 0.92927 0.25371 0.98399 0.0
H193 H 0.98856 0.33909 0.03154 0.0
H194 H 0.97218 0.31376 0.96379 0.0
H195 H 0.95456 0.30728 0.04523 0.0
H196 H 0.93855 0.23385 0.14275 0.0
H197 H 0.88722 0.21423 0.14621 0.0
H198 H 0.78173 0.11665 0.10236 0.0
H199 H 0.76475 0.06516 0.09519 0.0
H200 H 0.67755 0.04703 0.11171 0.0
H201 H 0.69435 0.09828 0.11739 0.0
H202 H 0.69795 0.00517 0.17912 0.0
H203 H 0.71679 0.03174 0.90231 0.0
H204 H 0.74382 0.05349 0.9639 0.0
H205 H 0.71101 0.05425 0.96056 0.0
C206 C 0.75908 0.10159 0.10848 0.0
C207 C 0.7393 0.11132 0.11073 0.0
C208 C 0.74939 0.07222 0.10347 0.0
C209 C 0.71991 0.05244 0.10196 0.0
C210 C 0.70038 0.06201 0.11274 0.0
H211 H 0.5911 0.88245 0.02647 0.0
H212 H 0.62215 0.9328 0.05464 0.0
C213 C 0.70999 0.09126 0.11671 0.0
C214 C 0.70899 0.02275 0.07809 0.0
H215 H 0.69047 0.98312 0.93179 0.0
C216 C 0.69675 1.00029 0.12521 0.0
C217 C 0.70758 0.01654 0.00766 0.0
C218 C 0.72041 0.04014 0.95523 0.0
C219 C 0.68223 0.97165 0.1035 0.0
C220 C 0.67913 0.96545 0.03276 0.0
C221 C 0.69269 0.98791 0.98584 0.0
C222 C 0.65985 0.93604 0.00704 0.0
C223 C 0.66992 0.94829 0.15659 0.0
C224 C 0.67017 0.92173 0.96618 0.0
C225 C 0.65215 0.89288 0.9486 0.0
C226 C 0.6237 0.87819 0.97188 0.0
C227 C 0.613 0.89326 0.00819 0.0
C228 C 0.63082 0.92192 0.02509 0.0
H229 H 0.68182 0.95564 0.20545 0.0
H230 H 0.64733 0.94224 0.16668 0.0
H231 H 0.67039 0.92896 0.13913 0.0
H232 H 0.69244 0.93241 0.95082 0.0
H233 H 0.66095 0.88162 0.92115 0.0
H234 H 0.70594 0.59865 0.86303 0.0
H235 H 0.69193 0.63518 0.86501 0.0
H236 H 0.77827 0.69892 0.91832 0.0
H237 H 0.79248 0.66229 0.91508 0.0
H238 H 0.73609 0.6891 0.01845 0.0
H239 H 0.70264 0.70698 0.76528 0.0
H240 H 0.68925 0.66978 0.78301 0.0
H241 H 0.72724 0.69366 0.77567 0.0
C242 C 0.72232 0.62077 0.87084 0.0
C243 C 0.75028 0.62769 0.88861 0.0
C244 C 0.71427 0.64166 0.87247 0.0
C245 C 0.73402 0.66977 0.89226 0.0
C246 C 0.76273 0.67738 0.90274 0.0
H247 H 0.66363 0.78063 0.009 0.0
H248 H 0.70109 0.76774 0.99452 0.0
C249 C 0.77092 0.6565 0.89993 0.0
C250 C 0.72321 0.68895 0.91435 0.0
H251 H 0.67968 0.71443 0.863 0.0
C252 C 0.72448 0.69545 0.98415 0.0
C253 C 0.70796 0.69708 0.86974 0.0
C254 C 0.70689 0.69176 0.79412 0.0
C255 C 0.70912 0.70794 0.01102 0.0
C256 C 0.69231 0.71416 0.96698 0.0
C257 C 0.69257 0.70947 0.89669 0.0
C258 C 0.67151 0.72215 0.99305 0.0
C259 C 0.70942 0.71283 0.08665 0.0
C260 C 0.64283 0.70071 1.00065 0.0
C261 C 0.62154 0.70797 0.00888 0.0
C262 C 0.62862 0.7368 0.00988 0.0
C263 C 0.65765 0.75824 0.00959 0.0
C264 C 0.67902 0.75094 1.00052 0.0
H265 H 0.7254 0.7091 0.11354 0.0
H266 H 0.71427 0.73506 0.09671 0.0
H267 H 0.68786 0.69815 0.108 0.0
H268 H 0.63669 0.67838 0.99501 0.0
H269 H 0.59933 0.69106 0.00837 0.0
H270 H 0.09664 0.7043 0.91499 0.0
H271 H 0.04696 0.69352 0.92253 0.0
H272 H 0.07597 0.78229 0.9643 0.0
H273 H 0.12585 0.79331 0.95452 0.0
H274 H 0.04265 0.73729 0.07359 0.0
H275 H 0.98907 0.71396 0.82111 0.0
H276 H 0.01311 0.70034 0.83441 0.0
H277 H 0.02706 0.73829 0.83182 0.0
C278 C 0.09239 0.72179 0.92141 0.0
C279 C 0.11502 0.74966 0.93341 0.0
C280 C 0.06401 0.71558 0.92644 0.0
C281 C 0.05783 0.73708 0.94446 0.0
C282 C 0.08033 0.76545 0.95001 0.0
H283 H 0.87568 0.67003 0.01831 0.0
H284 H 0.92556 0.70884 0.01191 0.0
C285 C 0.1088 0.77178 0.94346 0.0
C286 C 0.02868 0.72873 0.96905 0.0
H287 H 0.95882 0.69442 0.91866 0.0
C288 C 0.02431 0.72858 0.03969 0.0
C289 C 0.00489 0.71738 0.92481 0.0
C290 C 0.00861 0.71761 0.84868 0.0
C291 C 0.99657 0.71556 0.06741 0.0
C292 C 0.97271 0.70255 0.02335 0.0
C293 C 0.97716 0.7045 0.95249 0.0
C294 C 0.94327 0.68318 0.04882 0.0
C295 C 0.9929 0.7147 0.14365 0.0
C296 C 0.93666 0.6565 0.07601 0.0
C297 C 0.90822 0.63431 0.07932 0.0
C298 C 0.88601 0.63857 0.05599 0.0
C299 C 0.89236 0.66634 0.03791 0.0
C300 C 0.9209 0.68844 0.03328 0.0
H301 H 0.01234 0.73184 0.16913 0.0
H302 H 0.9742 0.71699 0.15773 0.0
H303 H 0.98905 0.69376 0.16313 0.0
H304 H 0.95356 0.65185 0.08763 0.0
H305 H 0.90392 0.61299 0.09221 0.0
H306 H 0.27681 0.89835 0.11924 0.0
H307 H 0.29237 0.94953 0.11898 0.0
H308 H 0.23111 0.93471 0.95986 0.0
H309 H 0.21387 0.88387 0.9659 0.0
H310 H 0.3198 0.98022 0.02604 0.0
H311 H 0.22884 0.99876 0.03785 0.0
H312 H 0.22497 0.96474 0.06162 0.0
H313 H 0.22069 0.97222 0.97389 0.0
C314 C 0.26535 0.90593 0.08814 0.0
C315 C 0.24377 0.88718 0.04365 0.0
C316 C 0.27459 0.93529 0.08678 0.0
C317 C 0.26314 0.94648 0.03902 0.0
C318 C 0.23991 0.92715 0.99881 0.0
H319 H 0.38734 0.10825 0.85881 0.0
H320 H 0.3507 0.05768 0.86929 0.0
C321 C 0.22997 0.89782 1.00223 0.0
C322 C 0.27863 0.97776 0.02203 0.0
H323 H 0.26905 0.03262 0.96711 0.0
C324 C 0.30856 0.9917 0.01474 0.0
C325 C 0.26447 0.99335 0.0074 0.0
C326 C 0.23302 0.98147 0.02147 0.0
C327 C 0.32449 0.02016 0.99242 0.0
C328 C 0.31005 0.0348 0.97138 0.0
C329 C 0.28021 0.02124 0.98046 0.0
C330 C 0.32596 0.06493 0.94562 0.0
C331 C 0.35677 0.0343 0.99426 0.0
C332 C 0.32172 0.08608 0.97618 0.0
C333 C 0.34149 0.11508 0.96593 0.0
C334 C 0.36628 0.12334 0.92698 0.0
C335 C 0.36835 0.10247 0.88883 0.0
C336 C 0.34783 0.07348 0.8966 0.0
H337 H 0.36397 0.02364 0.03139 0.0
H338 H 0.36474 0.03261 0.94336 0.0
H339 H 0.36682 0.05723 0.00849 0.0
H340 H 0.3048 0.0803 0.01318 0.0
H341 H 0.33957 0.13073 0.99666 0.0
H342 H 0.21604 0.70234 0.14091 0.0
H343 H 0.22827 0.66479 0.12638 0.0
H344 H 0.25215 0.69088 0.91769 0.0
H345 H 0.23882 0.72791 0.93139 0.0
H346 H 0.21091 0.63489 0.93136 0.0
H347 H 0.30129 0.66126 0.10064 0.0
H348 H 0.27094 0.65162 0.15405 0.0
H349 H 0.28425 0.68278 0.1007 0.0
C350 C 0.2246 0.70055 0.0924 0.0
C351 C 0.22676 0.71826 0.03745 0.0
C352 C 0.23179 0.6792 0.08433 0.0
C353 C 0.2415 0.6752 0.02123 0.0
C354 C 0.24503 0.69379 0.96711 0.0
H355 H 0.22624 0.51497 0.87042 0.0
H356 H 0.24054 0.56574 0.8773 0.0
C357 C 0.23763 0.7151 0.97508 0.0
C358 C 0.24329 0.64894 0.00905 0.0
H359 H 0.27203 0.60923 0.06853 0.0
C360 C 0.22464 0.62946 0.96051 0.0
C361 C 0.26052 0.64146 0.04867 0.0
C362 C 0.28041 0.66065 0.10353 0.0
C363 C 0.22173 0.6023 0.95242 0.0
C364 C 0.23935 0.59492 0.9911 0.0
C365 C 0.25869 0.61481 0.03826 0.0
C366 C 0.23637 0.56594 0.98712 0.0
C367 C 0.19834 0.58129 0.9058 0.0
C368 C 0.23205 0.54981 0.04683 0.0
C369 C 0.22533 0.52123 0.043 0.0
C370 C 0.22228 0.5082 0.97941 0.0
C371 C 0.22814 0.52462 0.91995 0.0
C372 C 0.23596 0.55349 0.92391 0.0
H373 H 0.18155 0.58718 0.89728 0.0
H374 H 0.20766 0.58134 0.8554 0.0
H375 H 0.18783 0.55926 0.9269 0.0
H376 H 0.23251 0.55888 0.09636 0.0
H377 H 0.22089 0.50885 0.08945 0.0
H378 H 0.5084 0.18165 0.02489 0.0
H379 H 0.55897 0.19772 0.01648 0.0
H380 H 0.57904 0.28497 0.04888 0.0
H381 H 0.52764 0.26811 0.06419 0.0
H382 H 0.59405 0.22954 0.92413 0.0
H383 H 0.63642 0.28359 0.17317 0.0
H384 H 0.59853 0.26281 0.15633 0.0
H385 H 0.61948 0.29795 0.12012 0.0
C386 C 0.52351 0.20427 0.03103 0.0
C387 C 0.51399 0.2238 0.04295 0.0
C388 C 0.55255 0.21351 0.02571 0.0
C389 C 0.57309 0.24266 0.0312 0.0
C390 C 0.56378 0.26235 0.04466 0.0
H391 H 0.73126 0.24714 0.90419 0.0
H392 H 0.69803 0.26565 0.90911 0.0
C393 C 0.53439 0.25285 0.05173 0.0
C394 C 0.60376 0.25128 0.02058 0.0
H395 H 0.66801 0.27748 0.10246 0.0
C396 C 0.61033 0.24025 0.96294 0.0
C397 C 0.62517 0.26569 0.07063 0.0
C398 C 0.61964 0.27808 0.13382 0.0
C399 C 0.63619 0.24015 0.95741 0.0
C400 C 0.65732 0.25352 0.00882 0.0
C401 C 0.65185 0.26707 0.06333 0.0
C402 C 0.6832 0.25022 0.01142 0.0
C403 C 0.63916 0.22334 0.8995 0.0
C404 C 0.68851 0.23844 0.06986 0.0
C405 C 0.70883 0.22952 0.06837 0.0
C406 C 0.72363 0.23163 0.00802 0.0
C407 C 0.71987 0.24518 0.95118 0.0
C408 C 0.70061 0.25539 0.95375 0.0
H409 H 0.61821 0.20861 0.87533 0.0
H410 H 0.65319 0.23832 0.85952 0.0
H411 H 0.6486 0.21033 0.91739 0.0
H412 H 0.67565 0.23438 0.11532 0.0
H413 H 0.71132 0.21896 0.11264 0.0
H414 H 0.47508 0.71719 0.84946 0.0
H415 H 0.42494 0.68177 0.8713 0.0
H416 H 0.44355 0.68381 0.08582 0.0
H417 H 0.49347 0.72042 0.06411 0.0
H418 H 0.41295 0.63156 0.91299 0.0
H419 H 0.36492 0.67386 0.09134 0.0
H420 H 0.40107 0.6959 0.06071 0.0
H421 H 0.39399 0.67324 0.13393 0.0
C422 C 0.46813 0.71079 0.90152 0.0
C423 C 0.48794 0.72136 0.95515 0.0
C424 C 0.43953 0.69057 0.91403 0.0
C425 C 0.43036 0.67998 0.9802 0.0
C426 C 0.44985 0.69193 0.03452 0.0
H427 H 0.30777 0.52024 0.15103 0.0
H428 H 0.34222 0.57081 0.13016 0.0
C429 C 0.47841 0.71273 0.02212 0.0
C430 C 0.4024 0.65326 0.98991 0.0
H431 H 0.34199 0.62075 0.08818 0.0
C432 C 0.39719 0.62944 0.95035 0.0
C433 C 0.382 0.65022 0.03957 0.0
C434 C 0.3858 0.67486 0.08321 0.0
C435 C 0.37286 0.60257 0.96044 0.0
C436 C 0.35262 0.59941 0.01053 0.0
C437 C 0.35739 0.62327 0.04934 0.0
C438 C 0.32798 0.57082 0.0271 0.0
C439 C 0.36993 0.57748 0.91969 0.0
C440 C 0.30784 0.55432 0.97697 0.0
C441 C 0.28857 0.52528 0.98836 0.0
C442 C 0.28847 0.51256 0.05082 0.0
C443 C 0.30731 0.5296 0.10252 0.0
C444 C 0.32685 0.55851 0.09082 0.0
H445 H 0.39034 0.58234 0.89456 0.0
H446 H 0.36292 0.55839 0.95266 0.0
H447 H 0.3536 0.57201 0.87931 0.0
H448 H 0.30816 0.56347 0.92763 0.0
H449 H 0.27501 0.51244 0.94688 0.0
H450 H 0.78637 0.48279 0.83843 0.0
H451 H 0.77547 0.43378 0.86281 0.0
H452 H 0.78776 0.45386 0.07761 0.0
H453 H 0.79565 0.50162 0.05337 0.0
H454 H 0.81036 0.4202 0.90716 0.0
H455 H 0.72329 0.37747 0.09701 0.0
H456 H 0.73505 0.4116 0.05634 0.0
H457 H 0.75358 0.40891 0.12984 0.0
C458 C 0.78571 0.4762 0.89086 0.0
C459 C 0.79154 0.49558 0.94419 0.0
C460 C 0.7796 0.44832 0.9049 0.0
C461 C 0.78037 0.43977 0.97229 0.0
C462 C 0.78586 0.45928 0.02553 0.0
H463 H 0.80939 0.31433 0.16481 0.0
H464 H 0.80081 0.35337 0.13399 0.0
C465 C 0.79071 0.48671 0.01167 0.0
C466 C 0.77919 0.41204 0.98568 0.0
H467 H 0.75188 0.35413 0.09205 0.0
C468 C 0.79705 0.40551 0.94669 0.0
C469 C 0.76235 0.39301 0.03829 0.0
C470 C 0.74234 0.39808 0.08214 0.0
C471 C 0.79923 0.38115 0.95991 0.0
C472 C 0.78267 0.3624 0.01285 0.0
C473 C 0.76441 0.3685 0.05117 0.0
C474 C 0.78563 0.33751 0.03233 0.0
C475 C 0.82029 0.37646 0.91914 0.0
C476 C 0.77958 0.3155 0.98565 0.0
C477 C 0.78487 0.29343 1.0029 0.0
C478 C 0.79561 0.29269 0.06752 0.0
C479 C 0.80101 0.31438 0.11467 0.0
C480 C 0.79595 0.33655 0.0973 0.0
H481 H 0.83593 0.3961 0.89147 0.0
H482 H 0.83231 0.36953 0.95259 0.0
H483 H 0.80847 0.35942 0.88086 0.0
H484 H 0.77132 0.31569 0.93548 0.0
H485 H 0.78138 0.27741 0.96507 0.0
H486 H 0.30156 0.7925 0.84147 0.0
H487 H 0.3401 0.78128 0.85012 0.0
H488 H 0.32231 0.76355 0.06448 0.0
H489 H 0.28332 0.77442 0.05561 0.0
H490 H 0.38679 0.81247 0.92753 0.0
H491 H 0.3353 0.69884 0.00619 0.0
H492 H 0.315 0.71464 0.97358 0.0
H493 H 0.32695 0.72036 0.06079 0.0
C494 C 0.30546 0.78554 0.89009 0.0
C495 C 0.28942 0.78413 0.94782 0.0
C496 C 0.32746 0.77914 0.89496 0.0
C497 C 0.33401 0.77138 0.95777 0.0
C498 C 0.31727 0.76888 0.01514 0.0
H499 H 0.48141 0.77764 0.13563 0.0
H500 H 0.4329 0.76744 0.1075 0.0
C501 C 0.29506 0.77515 0.01015 0.0
C502 C 0.36042 0.76944 0.96453 0.0
H503 H 0.38625 0.72676 0.02016 0.0
C504 C 0.38663 0.79355 0.94682 0.0
C505 C 0.36023 0.74482 0.98988 0.0
C506 C 0.33278 0.71805 0.00799 0.0
C507 C 0.41268 0.79408 0.95607 0.0
C508 C 0.41252 0.76965 0.9828 0.0
C509 C 0.38632 0.74535 0.99932 0.0
C510 C 0.4396 0.77005 0.99847 0.0
C511 C 0.44025 0.82122 0.93976 0.0
C512 C 0.45895 0.77363 0.94638 0.0
C513 C 0.48666 0.77952 0.96237 0.0
C514 C 0.49525 0.78149 0.03067 0.0
C515 C 0.47523 0.77607 0.08259 0.0
C516 C 0.44755 0.77019 0.06659 0.0
H517 H 0.43688 0.83972 0.93192 0.0
H518 H 0.45611 0.82656 0.98131 0.0
H519 H 0.44953 0.81808 0.89232 0.0
H520 H 0.4531 0.77333 0.89346 0.0
H521 H 0.5018 0.78405 0.92141 0.0
H522 H 0.70555 0.47752 0.10001 0.0
H523 H 0.67104 0.42756 0.0743 0.0
H524 H 0.70127 0.44016 0.86686 0.0
H525 H 0.7359 0.49038 0.89253 0.0
H526 H 0.64274 0.4237 0.88355 0.0
H527 H 0.66606 0.35035 0.03411 0.0
H528 H 0.67798 0.38529 0.06968 0.0
H529 H 0.69342 0.38191 0.99148 0.0
C530 C 0.70553 0.46935 0.04958 0.0
C531 C 0.72349 0.48776 0.99837 0.0
C532 C 0.68596 0.44071 0.03504 0.0
C533 C 0.68379 0.42993 0.96886 0.0
C534 C 0.70287 0.44787 0.91853 0.0
H535 H 0.5221 0.26491 0.89747 0.0
H536 H 0.57387 0.29973 0.88636 0.0
C537 C 0.7227 0.47653 0.9333 0.0
C538 C 0.65798 0.40245 0.9502 0.0
H539 H 0.61776 0.33285 1.00189 0.0
C540 C 0.63763 0.40364 0.90786 0.0
C541 C 0.6513 0.37614 0.98117 0.0
C542 C 0.67331 0.37304 0.02145 0.0
C543 C 0.61 0.37999 0.90077 0.0
C544 C 0.60247 0.35465 0.93745 0.0
C545 C 0.62349 0.35251 0.97475 0.0
C546 C 0.57208 0.33245 0.94633 0.0
C547 C 0.58847 0.38283 0.85734 0.0
C548 C 0.55439 0.3392 0.98487 0.0
C549 C 0.52531 0.3196 0.99131 0.0
C550 C 0.51335 0.29268 0.96008 0.0
C551 C 0.53105 0.28549 0.92255 0.0
C552 C 0.56043 0.3053 0.91605 0.0
H553 H 0.59915 0.39998 0.81852 0.0
H554 H 0.57391 0.36237 0.83116 0.0
H555 H 0.57528 0.38844 0.89035 0.0
H556 H 0.56306 0.35995 0.00903 0.0
H557 H 0.512 0.32563 0.0201 0.0
H558 H 0.14578 0.35403 0.79809 0.0
H559 H 0.14697 0.3443 0.67732 0.0
H560 H 0.23931 0.39064 0.68212 0.0
H561 H 0.23816 0.40051 0.80407 0.0
H562 H 0.21542 0.41258 0.59073 0.0
H563 H 0.16645 0.29561 0.5534 0.0
H564 H 0.14584 0.30524 0.60776 0.0
H565 H 0.18086 0.31279 0.63431 0.0
C566 C 0.16636 0.36118 0.77406 0.0
C567 C 0.19189 0.3781 0.81028 0.0
C568 C 0.167 0.35552 0.70495 0.0
C569 C 0.1932 0.36669 0.67057 0.0
C570 C 0.21884 0.38172 0.70783 0.0
H571 H 0.22697 0.36226 0.24507 0.0
H572 H 0.21777 0.35169 0.36631 0.0
C573 C 0.2182 0.38716 0.77753 0.0
C574 C 0.19347 0.36657 0.59489 0.0
H575 H 0.16863 0.32305 0.45515 0.0
C576 C 0.2054 0.393 0.56109 0.0
C577 C 0.1802 0.34101 0.55629 0.0
C578 C 0.16783 0.31205 0.5897 0.0
C579 C 0.20415 0.3946 0.48992 0.0
C580 C 0.1902 0.36906 0.45137 0.0
C581 C 0.17871 0.34258 0.48494 0.0
C582 C 0.19012 0.36981 0.37579 0.0
C583 C 0.21823 0.42368 0.45637 0.0
C584 C 0.17623 0.38202 0.33994 0.0
C585 C 0.18127 0.38789 0.27001 0.0
C586 C 0.20046 0.38183 0.23563 0.0
C587 C 0.21222 0.36732 0.27051 0.0
C588 C 0.20699 0.36125 0.33982 0.0
H589 H 0.23243 0.44098 0.49206 0.0
H590 H 0.23108 0.42417 0.41163 0.0
H591 H 0.20146 0.42828 0.43814 0.0
H592 H 0.16282 0.38846 0.36679 0.0
H593 H 0.17203 0.39916 0.24438 0.0
H594 H 0.82807 0.23501 0.8149 0.0
H595 H 0.83131 0.22761 0.69288 0.0
H596 H 0.81694 0.14295 0.73399 0.0
H597 H 0.81302 0.15015 0.85587 0.0
H598 H 0.85901 0.2099 0.59843 0.0
H599 H 0.74426 0.1278 0.63258 0.0
H600 H 0.76504 0.15258 0.69906 0.0
H601 H 0.76924 0.12221 0.6813 0.0
C602 C 0.82735 0.21551 0.79827 0.0
C603 C 0.8207 0.19331 0.84495 0.0
C604 C 0.82877 0.2111 0.7283 0.0
C605 C 0.82352 0.18439 0.70399 0.0
C606 C 0.82048 0.16352 0.75134 0.0
H607 H 0.81507 0.16323 0.25488 0.0
H608 H 0.8233 0.15469 0.37377 0.0
C609 C 0.81884 0.16786 0.82121 0.0
C610 C 0.81711 0.17723 0.63029 0.0
H611 H 0.76196 0.13677 0.52095 0.0
C612 C 0.83795 0.19359 0.5814 0.0
C613 C 0.78942 0.1562 0.60801 0.0
C614 C 0.76557 0.1388 0.65775 0.0
C615 C 0.8317 0.19002 0.51116 0.0
C616 C 0.80391 0.16924 0.48902 0.0
C617 C 0.78333 0.15235 0.53784 0.0
C618 C 0.79465 0.16776 0.41677 0.0
C619 C 0.85442 0.20962 0.46139 0.0
C620 C 0.77418 0.17572 0.40115 0.0
C621 C 0.76925 0.18022 0.33359 0.0
C622 C 0.7844 0.17653 0.28009 0.0
C623 C 0.80265 0.16565 0.29502 0.0
C624 C 0.80779 0.16134 0.36303 0.0
H625 H 0.87317 0.22742 0.48738 0.0
H626 H 0.86203 0.19719 0.43182 0.0
H627 H 0.84551 0.21887 0.42485 0.0
H628 H 0.76362 0.18064 0.44152 0.0
H629 H 0.75545 0.18907 0.32358 0.0
H630 H 0.64762 0.80113 0.74985 0.0
H631 H 0.65659 0.80977 0.62763 0.0
H632 H 0.59236 0.83493 0.6158 0.0
H633 H 0.58352 0.8264 0.73869 0.0
H634 H 0.58167 0.78679 0.53482 0.0
H635 H 0.69168 0.87745 0.49122 0.0
H636 H 0.68881 0.85179 0.55378 0.0
H637 H 0.67231 0.87305 0.56962 0.0
C638 C 0.63661 0.81008 0.72181 0.0
C639 C 0.61534 0.81372 0.75379 0.0
C640 C 0.6416 0.81483 0.65182 0.0
C641 C 0.6252 0.82305 0.61246 0.0
C642 C 0.60542 0.82878 0.6453 0.0
H643 H 0.62146 0.84927 0.1823 0.0
H644 H 0.62894 0.85364 0.30522 0.0
C645 C 0.60063 0.82429 0.71562 0.0
C646 C 0.62545 0.82112 0.53689 0.0
H647 H 0.66792 0.84781 0.39577 0.0
C648 C 0.6005 0.80021 0.50439 0.0
C649 C 0.65009 0.83848 0.49734 0.0
C650 C 0.67722 0.86164 0.52949 0.0
C651 C 0.5995 0.79616 0.43352 0.0
C652 C 0.62421 0.81329 0.39394 0.0
C653 C 0.64915 0.83436 0.42632 0.0
C654 C 0.62349 0.81142 0.31831 0.0
C655 C 0.57177 0.77403 0.40127 0.0
C656 C 0.61892 0.78652 0.2842 0.0
C657 C 0.61472 0.78397 0.21327 0.0
C658 C 0.61476 0.8062 0.17591 0.0
C659 C 0.62089 0.8316 0.20988 0.0
C660 C 0.62533 0.83422 0.28016 0.0
H661 H 0.55346 0.76605 0.43728 0.0
H662 H 0.56682 0.783 0.35572 0.0
H663 H 0.57388 0.75554 0.38445 0.0
H664 H 0.61774 0.76877 0.31269 0.0
H665 H 0.61005 0.76419 0.18837 0.0
H666 H 0.77011 0.59905 0.75019 0.0
H667 H 0.76956 0.60888 0.62788 0.0
H668 H 0.86176 0.65922 0.62796 0.0
H669 H 0.86239 0.64949 0.74919 0.0
H670 H 0.83378 0.67993 0.53648 0.0
H671 H 0.79849 0.56438 0.50703 0.0
H672 H 0.77619 0.57251 0.55968 0.0
H673 H 0.812 0.58318 0.5865 0.0
C674 C 0.79011 0.61317 0.72459 0.0
C675 C 0.8163 0.6233 0.75873 0.0
C676 C 0.78982 0.61854 0.65469 0.0
C677 C 0.81569 0.63428 0.61868 0.0
C678 C 0.8416 0.64692 0.65459 0.0
H679 H 0.83946 0.60622 0.19208 0.0
H680 H 0.84974 0.61809 0.31366 0.0
C681 C 0.84191 0.64136 0.7239 0.0
C682 C 0.81639 0.63438 0.54309 0.0
H683 H 0.80492 0.59072 0.40658 0.0
C684 C 0.82734 0.66045 0.50793 0.0
C685 C 0.80885 0.60905 0.50618 0.0
C686 C 0.79844 0.58068 0.54152 0.0
C687 C 0.83021 0.66169 0.43653 0.0
C688 C 0.82185 0.63619 0.39954 0.0
C689 C 0.81148 0.61028 0.43497 0.0
C690 C 0.82113 0.63518 0.32389 0.0
C691 C 0.84239 0.69028 0.40135 0.0
C692 C 0.80254 0.64181 0.28892 0.0
C693 C 0.79665 0.63499 0.2201 0.0
C694 C 0.80924 0.62142 0.1847 0.0
C695 C 0.82971 0.61694 0.218 0.0
C696 C 0.83541 0.62353 0.28747 0.0
H697 H 0.85567 0.70819 0.43662 0.0
H698 H 0.85563 0.69154 0.35674 0.0
H699 H 0.82453 0.69317 0.38301 0.0
H700 H 0.79091 0.65032 0.31593 0.0
H701 H 0.78072 0.63861 0.19562 0.0
H702 H 0.23705 0.82343 0.23473 0.0
H703 H 0.23138 0.82937 0.35645 0.0
H704 H 0.14926 0.82194 0.31657 0.0
H705 H 0.15452 0.8149 0.19525 0.0
H706 H 0.2203 0.86169 0.44497 0.0
H707 H 0.12708 0.75135 0.43046 0.0
H708 H 0.15116 0.76808 0.35988 0.0
H709 H 0.12393 0.77705 0.37864 0.0
C710 C 0.21849 0.82453 0.25162 0.0
C711 C 0.19635 0.81902 0.2058 0.0
C712 C 0.21506 0.82756 0.3213 0.0
C713 C 0.18945 0.82515 0.34595 0.0
C714 C 0.16884 0.82307 0.29901 0.0
H715 H 0.17815 0.83909 0.78954 0.0
H716 H 0.16965 0.84337 0.66847 0.0
C717 C 0.1721 0.81964 0.22954 0.0
C718 C 0.18313 0.82142 0.42031 0.0
H719 H 0.1386 0.77288 0.53855 0.0
C720 C 0.20226 0.84244 0.46546 0.0
C721 C 0.15983 0.79597 0.4471 0.0
C722 C 0.13945 0.77168 0.40169 0.0
C723 C 0.19911 0.83856 0.53645 0.0
C724 C 0.17568 0.81322 0.56322 0.0
C725 C 0.15624 0.79244 0.51806 0.0
C726 C 0.17292 0.80663 0.63745 0.0
C727 C 0.22182 0.86101 0.58191 0.0
C728 C 0.17471 0.78296 0.66102 0.0
C729 C 0.17863 0.78001 0.73042 0.0
C730 C 0.18076 0.80064 0.77716 0.0
C731 C 0.17597 0.82259 0.75456 0.0
C732 C 0.17173 0.82538 0.68523 0.0
H733 H 0.24149 0.87577 0.55307 0.0
H734 H 0.21339 0.87397 0.60561 0.0
H735 H 0.2278 0.85093 0.62326 0.0
H736 H 0.17549 0.76809 0.62523 0.0
H737 H 0.18302 0.76335 0.74643 0.0
H738 H 0.40344 0.17269 0.78841 0.0
H739 H 0.39398 0.16326 0.66577 0.0
H740 H 0.35449 0.21575 0.66166 0.0
H741 H 0.36389 0.22526 0.78323 0.0
H742 H 0.32794 0.16507 0.5729 0.0
H743 H 0.44579 0.23476 0.54192 0.0
H744 H 0.43408 0.20433 0.59727 0.0
H745 H 0.42763 0.23277 0.62071 0.0
C746 C 0.39187 0.18136 0.76174 0.0
C747 C 0.38472 0.19999 0.79498 0.0
C748 C 0.38667 0.17616 0.6917 0.0
C749 C 0.37401 0.18927 0.65459 0.0
C750 C 0.36441 0.20557 0.68925 0.0
H751 H 0.40445 0.23652 0.22532 0.0
H752 H 0.39396 0.23718 0.34706 0.0
C753 C 0.36982 0.21098 0.75872 0.0
C754 C 0.37394 0.18926 0.57908 0.0
H755 H 0.41857 0.21636 0.44193 0.0
C756 C 0.34771 0.17614 0.54411 0.0
C757 C 0.39976 0.20445 0.54189 0.0
C758 C 0.42846 0.22011 0.57707 0.0
C759 C 0.34671 0.17722 0.47259 0.0
C760 C 0.3726 0.19177 0.43538 0.0
C761 C 0.39874 0.20535 0.47057 0.0
C762 C 0.37348 0.19125 0.35988 0.0
C763 C 0.31801 0.16299 0.43741 0.0
C764 C 0.36465 0.16521 0.32649 0.0
C765 C 0.37073 0.16484 0.25759 0.0
C766 C 0.38577 0.1905 0.22057 0.0
C767 C 0.39268 0.21644 0.25252 0.0
C768 C 0.38682 0.21683 0.32203 0.0
H769 H 0.3006 0.16014 0.47249 0.0
H770 H 0.31817 0.1756 0.39251 0.0
H771 H 0.31306 0.1415 0.41939 0.0
H772 H 0.35475 0.14528 0.3547 0.0
H773 H 0.3651 0.14451 0.23418 0.0
loop_
_geom_bond_atom_site_label_1
_geom_bond_atom_site_label_2
_geom_bond_distance
_geom_bond_site_symmetry_2
_ccdc_geom_bond_type
Zn0 O6 1.920 . S
Zn0 O12 1.898 . S
Zn0 O15 1.905 . S
Zn1 O9 1.905 . S
Zn1 O10 1.898 . S
Zn1 O18 1.920 . S
Zn2 O5 2.080 . S
Zn2 O8 2.114 . S
Zn2 O11 2.120 . S
Zn2 O13 2.120 1_554 S
Zn2 O14 2.114 1_554 S
Zn2 O17 2.080 1_554 S
C3 O8 1.166 . S
C3 O9 1.182 . S
C4 O10 1.167 . S
C4 O11 1.299 . S
O5 Zn2 2.080 . S
O5 C19 1.305 1_554 S
O6 Zn0 1.920 . S
O6 C19 1.234 . S
C7 O12 1.167 . S
C7 O13 1.299 . S
O8 Zn2 2.114 . S
O8 C3 1.166 . S
O9 Zn1 1.905 . S
O9 C3 1.182 . S
O10 Zn1 1.898 . S
O10 C4 1.167 . S
O11 Zn2 2.120 . S
O11 C4 1.299 . S
O12 Zn0 1.898 . S
O12 C7 1.167 . S
O13 Zn2 2.120 1_556 S
O13 C7 1.299 . S
O14 Zn2 2.114 1_556 S
O14 C16 1.166 . S
O15 Zn0 1.905 . S
O15 C16 1.182 . S
C16 O14 1.166 . S
C16 O15 1.182 . S
O17 Zn2 2.080 1_556 S
O17 C20 1.305 1_556 S
O18 Zn1 1.920 . S
O18 C20 1.234 . S
C19 O5 1.305 1_556 S
C19 O6 1.234 . S
C20 O17 1.305 1_554 S
C20 O18 1.234 . S
Zn21 O27 1.920 . S
Zn21 O33 1.898 . S
Zn21 O36 1.905 . S
Zn22 O30 1.905 . S
Zn22 O31 1.898 . S
Zn22 O39 1.920 . S
Zn23 O26 2.080 . S
Zn23 O29 2.114 . S
Zn23 O32 2.120 . S
Zn23 O34 2.120 1_554 S
Zn23 O35 2.114 1_554 S
Zn23 O38 2.080 1_554 S
C24 O29 1.166 . S
C24 O30 1.182 . S
C25 O31 1.167 . S
C25 O32 1.299 . S
O26 Zn23 2.080 . S
O26 C40 1.305 1_554 S
O27 Zn21 1.920 . S
O27 C40 1.234 . S
C28 O33 1.167 . S
C28 O34 1.299 . S
O29 Zn23 2.114 . S
O29 C24 1.166 . S
O30 Zn22 1.905 . S
O30 C24 1.182 . S
O31 Zn22 1.898 . S
O31 C25 1.167 . S
O32 Zn23 2.120 . S
O32 C25 1.299 . S
O33 Zn21 1.898 . S
O33 C28 1.167 . S
O34 Zn23 2.120 1_556 S
O34 C28 1.299 . S
O35 Zn23 2.114 1_556 S
O35 C37 1.166 . S
O36 Zn21 1.905 . S
O36 C37 1.182 . S
C37 O35 1.166 . S
C37 O36 1.182 . S
O38 Zn23 2.080 1_556 S
O38 C41 1.305 1_556 S
O39 Zn22 1.920 . S
O39 C41 1.234 . S
C40 O26 1.305 1_556 S
C40 O27 1.234 . S
C41 O38 1.305 1_554 S
C41 O39 1.234 . S
Zn42 O48 1.920 . S
Zn42 O54 1.898 . S
Zn42 O57 1.905 . S
Zn43 O51 1.905 . S
Zn43 O52 1.898 . S
Zn43 O60 1.920 . S
Zn44 O47 2.080 1_554 S
Zn44 O50 2.114 1_554 S
Zn44 O53 2.120 1_554 S
Zn44 O55 2.120 . S
Zn44 O56 2.114 . S
Zn44 O59 2.080 . S
C45 O50 1.166 . S
C45 O51 1.182 . S
C46 O52 1.167 . S
C46 O53 1.299 . S
O47 Zn44 2.080 1_556 S
O47 C61 1.305 1_556 S
O48 Zn42 1.920 . S
O48 C61 1.234 . S
C49 O54 1.167 . S
C49 O55 1.299 . S
O50 Zn44 2.114 1_556 S
O50 C45 1.166 . S
O51 Zn43 1.905 . S
O51 C45 1.182 . S
O52 Zn43 1.898 . S
O52 C46 1.167 . S
O53 Zn44 2.120 1_556 S
O53 C46 1.299 . S
O54 Zn42 1.898 . S
O54 C49 1.167 . S
O55 Zn44 2.120 . S
O55 C49 1.299 . S
O56 Zn44 2.114 . S
O56 C58 1.166 . S
O57 Zn42 1.905 . S
O57 C58 1.182 . S
C58 O56 1.166 . S
C58 O57 1.182 . S
O59 Zn44 2.080 . S
O59 C62 1.305 1_554 S
O60 Zn43 1.920 . S
O60 C62 1.234 . S
C61 O47 1.305 1_554 S
C61 O48 1.234 . S
C62 O59 1.305 1_556 S
C62 O60 1.234 . S
Zn63 O69 1.920 . S
Zn63 O75 1.898 . S
Zn63 O78 1.905 . S
Zn64 O72 1.905 . S
Zn64 O73 1.898 . S
Zn64 O81 1.920 . S
Zn65 O68 2.080 1_554 S
Zn65 O71 2.114 1_554 S
Zn65 O74 2.120 1_554 S
Zn65 O76 2.120 . S
Zn65 O77 2.114 . S
Zn65 O80 2.080 . S
C66 O71 1.166 . S
C66 O72 1.182 . S
C67 O73 1.167 . S
C67 O74 1.299 . S
O68 Zn65 2.080 1_556 S
O68 C82 1.305 1_556 S
O69 Zn63 1.920 . S
O69 C82 1.234 . S
C70 O75 1.167 . S
C70 O76 1.299 . S
O71 Zn65 2.114 1_556 S
O71 C66 1.166 . S
O72 Zn64 1.905 . S
O72 C66 1.182 . S
O73 Zn64 1.898 . S
O73 C67 1.167 . S
O74 Zn65 2.120 1_556 S
O74 C67 1.299 . S
O75 Zn63 1.898 . S
O75 C70 1.167 . S
O76 Zn65 2.120 . S
O76 C70 1.299 . S
O77 Zn65 2.114 . S
O77 C79 1.166 . S
O78 Zn63 1.905 . S
O78 C79 1.182 . S
C79 O77 1.166 . S
C79 O78 1.182 . S
O80 Zn65 2.080 . S
O80 C83 1.305 1_554 S
O81 Zn64 1.920 . S
O81 C83 1.234 . S
C82 O68 1.305 1_554 S
C82 O69 1.234 . S
C83 O80 1.305 1_556 S
C83 O81 1.234 . S
Zn84 O90 1.920 . S
Zn84 O96 1.898 . S
Zn84 O99 1.905 . S
Zn85 O93 1.905 . S
Zn85 O94 1.898 . S
Zn85 O102 1.920 . S
Zn86 O89 2.080 1_554 S
Zn86 O92 2.114 1_554 S
Zn86 O95 2.120 1_554 S
Zn86 O97 2.120 . S
Zn86 O98 2.114 . S
Zn86 O101 2.080 . S
C87 O92 1.166 . S
C87 O93 1.182 . S
C88 O94 1.167 . S
C88 O95 1.299 . S
O89 Zn86 2.080 1_556 S
O89 C103 1.305 1_556 S
O90 Zn84 1.920 . S
O90 C103 1.234 . S
C91 O96 1.167 . S
C91 O97 1.299 . S
O92 Zn86 2.114 1_556 S
O92 C87 1.166 . S
O93 Zn85 1.905 . S
O93 C87 1.182 . S
O94 Zn85 1.898 . S
O94 C88 1.167 . S
O95 Zn86 2.120 1_556 S
O95 C88 1.299 . S
O96 Zn84 1.898 . S
O96 C91 1.167 . S
O97 Zn86 2.120 . S
O97 C91 1.299 . S
O98 Zn86 2.114 . S
O98 C100 1.166 . S
O99 Zn84 1.905 . S
O99 C100 1.182 . S
C100 O98 1.166 . S
C100 O99 1.182 . S
O101 Zn86 2.080 . S
O101 C104 1.305 1_554 S
O102 Zn85 1.920 . S
O102 C104 1.234 . S
C103 O89 1.305 1_554 S
C103 O90 1.234 . S
C104 O101 1.305 1_556 S
C104 O102 1.234 . S
Zn105 O111 1.920 . S
Zn105 O117 1.898 . S
Zn105 O120 1.905 . S
Zn106 O114 1.905 . S
Zn106 O115 1.898 . S
Zn106 O123 1.920 . S
Zn107 O110 2.080 . S
Zn107 O113 2.114 . S
Zn107 O116 2.120 . S
Zn107 O118 2.120 1_554 S
Zn107 O119 2.114 1_554 S
Zn107 O122 2.080 1_554 S
C108 O113 1.166 . S
C108 O114 1.182 . S
C109 O115 1.167 . S
C109 O116 1.299 . S
O110 Zn107 2.080 . S
O110 C124 1.305 1_554 S
O111 Zn105 1.920 . S
O111 C124 1.234 . S
C112 O117 1.167 . S
C112 O118 1.299 . S
O113 Zn107 2.114 . S
O113 C108 1.166 . S
O114 Zn106 1.905 . S
O114 C108 1.182 . S
O115 Zn106 1.898 . S
O115 C109 1.167 . S
O116 Zn107 2.120 . S
O116 C109 1.299 . S
O117 Zn105 1.898 . S
O117 C112 1.167 . S
O118 Zn107 2.120 1_556 S
O118 C112 1.299 . S
O119 Zn107 2.114 1_556 S
O119 C121 1.166 . S
O120 Zn105 1.905 . S
O120 C121 1.182 . S
C121 O119 1.166 . S
C121 O120 1.182 . S
O122 Zn107 2.080 1_556 S
O122 C125 1.305 1_556 S
O123 Zn106 1.920 . S
O123 C125 1.234 . S
C124 O110 1.305 1_556 S
C124 O111 1.234 . S
C125 O122 1.305 1_554 S
C125 O123 1.234 . S
H126 C134 0.929 . S
H127 C136 0.930 . S
H128 C138 0.930 . S
H129 C141 0.929 . S
H130 C144 0.930 . S
H131 C146 0.960 . S
H132 C146 0.960 . S
H133 C146 0.960 . S
C134 H126 0.929 . S
C134 C135 1.377 . S
C134 C136 1.384 . S
C135 C134 1.377 . S
C135 C141 1.390 1_554 S
C136 H127 0.930 . S
C136 C134 1.384 . S
C136 C137 1.372 . S
C137 C136 1.372 . S
C137 C138 1.400 1_554 S
C137 C142 1.490 . S
C138 H128 0.930 . S
C138 C137 1.400 1_556 S
C138 C141 1.386 . S
H139 C155 0.930 . S
H140 C156 0.931 . S
C141 H129 0.929 . S
C141 C135 1.390 1_556 S
C141 C138 1.386 . S
C142 C137 1.490 . S
C142 C144 1.395 . S
C142 C145 1.403 1_554 S
H143 C149 0.930 . S
C144 H130 0.930 . S
C144 C142 1.395 . S
C144 C147 1.403 . S
C145 C142 1.403 1_556 S
C145 C146 1.524 . S
C145 C149 1.400 . S
C146 H131 0.960 . S
C146 H132 0.960 . S
C146 H133 0.960 . S
C146 C145 1.524 . S
C147 C144 1.403 . S
C147 C148 1.392 . S
C147 C151 1.495 . S
C148 C147 1.392 . S
C148 C149 1.385 1_554 S
C148 C150 1.478 1_554 S
C149 H143 0.930 . S
C149 C145 1.400 . S
C149 C148 1.385 1_556 S
C150 C148 1.478 1_556 S
C150 C152 1.381 1_556 S
C150 C156 1.383 . S
C151 C147 1.495 . S
C151 H157 0.959 . S
C151 H158 0.961 . S
C151 H159 0.960 . S
C152 C150 1.381 1_554 S
C152 C153 1.394 . S
C152 H160 0.930 . S
C153 C152 1.394 . S
C153 C154 1.383 1_554 S
C153 H161 0.929 . S
C154 C153 1.383 1_556 S
C154 C155 1.377 . S
C155 H139 0.930 . S
C155 C154 1.377 . S
C155 C156 1.379 . S
C156 H140 0.931 . S
C156 C150 1.383 . S
C156 C155 1.379 . S
H157 C151 0.959 . S
H158 C151 0.961 . S
H159 C151 0.960 . S
H160 C152 0.930 . S
H161 C153 0.929 . S
H162 C170 0.929 . S
H163 C172 0.930 . S
H164 C174 0.930 . S
H165 C177 0.929 . S
H166 C180 0.930 . S
H167 C182 0.960 . S
H168 C182 0.960 . S
H169 C182 0.960 1_556 S
C170 H162 0.929 . S
C170 C171 1.377 . S
C170 C172 1.384 . S
C171 C170 1.377 . S
C171 C177 1.390 1_554 S
C172 H163 0.930 . S
C172 C170 1.384 . S
C172 C173 1.372 . S
C173 C172 1.372 . S
C173 C174 1.400 1_554 S
C173 C178 1.490 . S
C174 H164 0.930 . S
C174 C173 1.400 1_556 S
C174 C177 1.386 . S
H175 C191 0.930 . S
H176 C192 0.931 . S
C177 H165 0.929 . S
C177 C171 1.390 1_556 S
C177 C174 1.386 . S
C178 C173 1.490 . S
C178 C180 1.395 . S
C178 C181 1.403 . S
H179 C185 0.930 1_556 S
C180 H166 0.930 . S
C180 C178 1.395 . S
C180 C183 1.402 1_454 S
C181 C178 1.403 . S
C181 C182 1.524 . S
C181 C185 1.401 1_455 S
C182 H167 0.960 . S
C182 H168 0.960 . S
C182 H169 0.960 1_554 S
C182 C181 1.524 . S
C183 C180 1.402 1_656 S
C183 C184 1.393 . S
C183 C187 1.496 . S
C184 C183 1.393 . S
C184 C185 1.385 1_556 S
C184 C186 1.478 . S
C185 H179 0.930 1_554 S
C185 C181 1.401 1_655 S
C185 C184 1.385 1_554 S
C186 C184 1.478 . S
C186 C188 1.381 1_556 S
C186 C192 1.383 . S
C187 C183 1.496 . S
C187 H193 0.959 . S
C187 H194 0.961 . S
C187 H195 0.960 1_556 S
C188 C186 1.381 1_554 S
C188 C189 1.394 . S
C188 H196 0.930 . S
C189 C188 1.394 . S
C189 C190 1.383 1_554 S
C189 H197 0.929 . S
C190 C189 1.383 1_556 S
C190 C191 1.377 . S
C191 H175 0.930 . S
C191 C190 1.377 . S
C191 C192 1.379 . S
C192 H176 0.931 . S
C192 C186 1.383 . S
C192 C191 1.379 . S
H193 C187 0.959 . S
H194 C187 0.961 . S
H195 C187 0.960 1_554 S
H196 C188 0.930 . S
H197 C189 0.929 . S
H198 C206 0.929 . S
H199 C208 0.930 . S
H200 C210 0.930 . S
H201 C213 0.929 . S
H202 C216 0.930 . S
H203 C218 0.960 . S
H204 C218 0.960 . S
H205 C218 0.960 . S
C206 H198 0.929 . S
C206 C207 1.377 1_556 S
C206 C208 1.384 . S
C207 C206 1.377 1_554 S
C207 C213 1.390 . S
C208 H199 0.930 . S
C208 C206 1.384 . S
C208 C209 1.372 1_556 S
C209 C208 1.372 1_554 S
C209 C210 1.400 . S
C209 C214 1.490 . S
C210 H200 0.930 . S
C210 C209 1.400 . S
C210 C213 1.386 . S
H211 C227 0.930 . S
H212 C228 0.931 . S
C213 H201 0.929 . S
C213 C207 1.390 . S
C213 C210 1.386 . S
C214 C209 1.490 . S
C214 C216 1.395 . S
C214 C217 1.403 1_554 S
H215 C221 0.930 . S
C216 H202 0.930 . S
C216 C214 1.395 . S
C216 C219 1.403 1_545 S
C217 C214 1.403 1_556 S
C217 C218 1.524 . S
C217 C221 1.400 1_545 S
C218 H203 0.960 . S
C218 H204 0.960 . S
C218 H205 0.960 . S
C218 C217 1.524 . S
C219 C216 1.403 1_565 S
C219 C220 1.392 . S
C219 C223 1.495 . S
C220 C219 1.392 . S
C220 C221 1.385 1_554 S
C220 C222 1.478 1_554 S
C221 H215 0.930 . S
C221 C217 1.400 1_565 S
C221 C220 1.385 1_556 S
C222 C220 1.478 1_556 S
C222 C224 1.381 . S
C222 C228 1.383 1_556 S
C223 C219 1.495 . S
C223 H229 0.959 . S
C223 H230 0.961 . S
C223 H231 0.960 . S
C224 C222 1.381 . S
C224 C225 1.394 . S
C224 H232 0.930 . S
C225 C224 1.394 . S
C225 C226 1.383 . S
C225 H233 0.929 . S
C226 C225 1.383 . S
C226 C227 1.377 1_556 S
C227 H211 0.930 . S
C227 C226 1.377 1_554 S
C227 C228 1.379 . S
C228 H212 0.931 . S
C228 C222 1.383 1_554 S
C228 C227 1.379 . S
H229 C223 0.959 . S
H230 C223 0.961 . S
H231 C223 0.960 . S
H232 C224 0.930 . S
H233 C225 0.929 . S
H234 C242 0.929 . S
H235 C244 0.930 . S
H236 C246 0.930 . S
H237 C249 0.929 . S
H238 C252 0.930 . S
H239 C254 0.960 . S
H240 C254 0.960 . S
H241 C254 0.960 . S
C242 H234 0.929 . S
C242 C243 1.377 1_554 S
C242 C244 1.384 . S
C243 C242 1.377 1_556 S
C243 C249 1.390 . S
C244 H235 0.930 . S
C244 C242 1.384 . S
C244 C245 1.372 1_554 S
C245 C244 1.372 1_556 S
C245 C246 1.400 . S
C245 C250 1.490 1_556 S
C246 H236 0.930 . S
C246 C245 1.400 . S
C246 C249 1.386 . S
H247 C263 0.930 . S
H248 C264 0.931 . S
C249 H237 0.929 . S
C249 C243 1.390 . S
C249 C246 1.386 . S
C250 C245 1.490 1_554 S
C250 C252 1.395 . S
C250 C253 1.403 1_554 S
H251 C257 0.930 . S
C252 H238 0.930 . S
C252 C250 1.395 . S
C252 C255 1.403 . S
C253 C250 1.403 1_556 S
C253 C254 1.524 . S
C253 C257 1.400 . S
C254 H239 0.960 . S
C254 H240 0.960 . S
C254 H241 0.960 . S
C254 C253 1.524 . S
C255 C252 1.403 . S
C255 C256 1.392 . S
C255 C259 1.495 . S
C256 C255 1.392 . S
C256 C257 1.385 1_554 S
C256 C258 1.478 . S
C257 H251 0.930 . S
C257 C253 1.400 . S
C257 C256 1.385 1_556 S
C258 C256 1.478 . S
C258 C260 1.381 . S
C258 C264 1.383 1_554 S
C259 C255 1.495 . S
C259 H265 0.959 . S
C259 H266 0.961 . S
C259 H267 0.960 . S
C260 C258 1.381 . S
C260 C261 1.394 . S
C260 H268 0.930 . S
C261 C260 1.394 . S
C261 C262 1.383 . S
C261 H269 0.929 . S
C262 C261 1.383 . S
C262 C263 1.377 1_554 S
C263 H247 0.930 . S
C263 C262 1.377 1_556 S
C263 C264 1.379 . S
C264 H248 0.931 . S
C264 C258 1.383 1_556 S
C264 C263 1.379 . S
H265 C259 0.959 . S
H266 C259 0.961 . S
H267 C259 0.960 . S
H268 C260 0.930 . S
H269 C261 0.929 . S
H270 C278 0.929 . S
H271 C280 0.930 . S
H272 C282 0.930 . S
H273 C285 0.929 . S
H274 C288 0.930 . S
H275 C290 0.960 . S
H276 C290 0.960 . S
H277 C290 0.960 . S
C278 H270 0.929 . S
C278 C279 1.377 1_554 S
C278 C280 1.384 . S
C279 C278 1.377 1_556 S
C279 C285 1.390 . S
C280 H271 0.930 . S
C280 C278 1.384 . S
C280 C281 1.372 1_554 S
C281 C280 1.372 1_556 S
C281 C282 1.400 . S
C281 C286 1.490 . S
C282 H272 0.930 . S
C282 C281 1.400 . S
C282 C285 1.386 . S
H283 C299 0.930 . S
H284 C300 0.931 . S
C285 H273 0.929 . S
C285 C279 1.390 . S
C285 C282 1.386 . S
C286 C281 1.490 . S
C286 C288 1.395 1_556 S
C286 C289 1.403 . S
H287 C293 0.930 . S
C288 H274 0.930 . S
C288 C286 1.395 1_554 S
C288 C291 1.403 1_455 S
C289 C286 1.403 . S
C289 C290 1.524 . S
C289 C293 1.400 1_455 S
C290 H275 0.960 . S
C290 H276 0.960 . S
C290 H277 0.960 . S
C290 C289 1.524 . S
C291 C288 1.403 1_655 S
C291 C292 1.392 . S
C291 C295 1.495 . S
C292 C291 1.392 . S
C292 C293 1.385 1_554 S
C292 C294 1.478 . S
C293 H287 0.930 . S
C293 C289 1.400 1_655 S
C293 C292 1.385 1_556 S
C294 C292 1.478 . S
C294 C296 1.381 . S
C294 C300 1.383 1_554 S
C295 C291 1.495 . S
C295 H301 0.959 . S
C295 H302 0.961 . S
C295 H303 0.960 . S
C296 C294 1.381 . S
C296 C297 1.394 . S
C296 H304 0.930 . S
C297 C296 1.394 . S
C297 C298 1.383 . S
C297 H305 0.929 . S
C298 C297 1.383 . S
C298 C299 1.377 1_554 S
C299 H283 0.930 . S
C299 C298 1.377 1_556 S
C299 C300 1.379 . S
C300 H284 0.931 . S
C300 C294 1.383 1_556 S
C300 C299 1.379 . S
H301 C295 0.959 . S
H302 C295 0.961 . S
H303 C295 0.960 . S
H304 C296 0.930 . S
H305 C297 0.929 . S
H306 C314 0.929 . S
H307 C316 0.930 . S
H308 C318 0.930 . S
H309 C321 0.929 . S
H310 C324 0.930 . S
H311 C326 0.960 . S
H312 C326 0.960 . S
H313 C326 0.960 1_556 S
C314 H306 0.929 . S
C314 C315 1.377 . S
C314 C316 1.384 . S
C315 C314 1.377 . S
C315 C321 1.390 1_554 S
C316 H307 0.930 . S
C316 C314 1.384 . S
C316 C317 1.372 . S
C317 C316 1.372 . S
C317 C318 1.400 1_554 S
C317 C322 1.490 . S
C318 H308 0.930 . S
C318 C317 1.400 1_556 S
C318 C321 1.386 . S
H319 C335 0.930 . S
H320 C336 0.931 . S
C321 H309 0.929 . S
C321 C315 1.390 1_556 S
C321 C318 1.386 . S
C322 C317 1.490 . S
C322 C324 1.395 . S
C322 C325 1.403 . S
H323 C329 0.930 1_556 S
C324 H310 0.930 . S
C324 C322 1.395 . S
C324 C327 1.403 1_564 S
C325 C322 1.403 . S
C325 C326 1.524 . S
C325 C329 1.401 1_565 S
C326 H311 0.960 . S
C326 H312 0.960 . S
C326 H313 0.960 1_554 S
C326 C325 1.524 . S
C327 C324 1.403 1_546 S
C327 C328 1.392 . S
C327 C331 1.495 . S
C328 C327 1.392 . S
C328 C329 1.384 1_556 S
C328 C330 1.478 . S
C329 H323 0.930 1_554 S
C329 C325 1.401 1_545 S
C329 C328 1.384 1_554 S
C330 C328 1.478 . S
C330 C332 1.381 1_556 S
C330 C336 1.383 . S
C331 C327 1.495 . S
C331 H337 0.959 . S
C331 H338 0.961 . S
C331 H339 0.960 1_556 S
C332 C330 1.381 1_554 S
C332 C333 1.394 . S
C332 H340 0.930 . S
C333 C332 1.394 . S
C333 C334 1.383 1_554 S
C333 H341 0.929 . S
C334 C333 1.383 1_556 S
C334 C335 1.377 . S
C335 H319 0.930 . S
C335 C334 1.377 . S
C335 C336 1.379 . S
C336 H320 0.931 . S
C336 C330 1.383 . S
C336 C335 1.379 . S
H337 C331 0.959 . S
H338 C331 0.961 . S
H339 C331 0.960 1_554 S
H340 C332 0.930 . S
H341 C333 0.929 . S
H342 C350 0.929 . S
H343 C352 0.930 . S
H344 C354 0.930 . S
H345 C357 0.929 . S
H346 C360 0.930 . S
H347 C362 0.960 . S
H348 C362 0.960 . S
H349 C362 0.960 . S
C350 H342 0.929 . S
C350 C351 1.377 . S
C350 C352 1.384 . S
C351 C350 1.377 . S
C351 C357 1.390 1_554 S
C352 H343 0.930 . S
C352 C350 1.384 . S
C352 C353 1.372 . S
C353 C352 1.372 . S
C353 C354 1.400 1_554 S
C353 C358 1.490 . S
C354 H344 0.930 . S
C354 C353 1.400 1_556 S
C354 C357 1.386 . S
H355 C371 0.930 . S
H356 C372 0.931 . S
C357 H345 0.929 . S
C357 C351 1.390 1_556 S
C357 C354 1.386 . S
C358 C353 1.490 . S
C358 C360 1.395 1_554 S
C358 C361 1.403 . S
H359 C365 0.930 . S
C360 H346 0.930 . S
C360 C358 1.395 1_556 S
C360 C363 1.403 . S
C361 C358 1.403 . S
C361 C362 1.524 . S
C361 C365 1.400 . S
C362 H347 0.960 . S
C362 H348 0.960 . S
C362 H349 0.960 . S
C362 C361 1.524 . S
C363 C360 1.403 . S
C363 C364 1.392 . S
C363 C367 1.495 . S
C364 C363 1.392 . S
C364 C365 1.385 1_556 S
C364 C366 1.478 . S
C365 H359 0.930 . S
C365 C361 1.400 . S
C365 C364 1.385 1_554 S
C366 C364 1.478 . S
C366 C368 1.381 1_556 S
C366 C372 1.383 . S
C367 C363 1.495 . S
C367 H373 0.959 . S
C367 H374 0.961 . S
C367 H375 0.960 1_556 S
C368 C366 1.381 1_554 S
C368 C369 1.394 . S
C368 H376 0.930 . S
C369 C368 1.394 . S
C369 C370 1.383 1_554 S
C369 H377 0.929 . S
C370 C369 1.383 1_556 S
C370 C371 1.377 . S
C371 H355 0.930 . S
C371 C370 1.377 . S
C371 C372 1.379 . S
C372 H356 0.931 . S
C372 C366 1.383 . S
C372 C371 1.379 . S
H373 C367 0.959 . S
H374 C367 0.961 . S
H375 C367 0.960 1_554 S
H376 C368 0.930 . S
H377 C369 0.929 . S
H378 C386 0.929 . S
H379 C388 0.930 . S
H380 C390 0.930 . S
H381 C393 0.929 . S
H382 C396 0.930 . S
H383 C398 0.960 . S
H384 C398 0.960 . S
H385 C398 0.960 . S
C386 H378 0.929 . S
C386 C387 1.377 . S
C386 C388 1.384 . S
C387 C386 1.377 . S
C387 C393 1.390 . S
C388 H379 0.930 . S
C388 C386 1.384 . S
C388 C389 1.372 . S
C389 C388 1.372 . S
C389 C390 1.400 . S
C389 C394 1.490 . S
C390 H380 0.930 . S
C390 C389 1.400 . S
C390 C393 1.386 . S
H391 C407 0.930 . S
H392 C408 0.931 . S
C393 H381 0.929 . S
C393 C387 1.390 . S
C393 C390 1.386 . S
C394 C389 1.490 . S
C394 C396 1.395 1_554 S
C394 C397 1.403 . S
H395 C401 0.930 . S
C396 H382 0.930 . S
C396 C394 1.395 1_556 S
C396 C399 1.403 . S
C397 C394 1.403 . S
C397 C398 1.524 . S
C397 C401 1.400 . S
C398 H383 0.960 . S
C398 H384 0.960 . S
C398 H385 0.960 . S
C398 C397 1.524 . S
C399 C396 1.403 . S
C399 C400 1.392 . S
C399 C403 1.495 . S
C400 C399 1.392 . S
C400 C401 1.385 1_556 S
C400 C402 1.478 . S
C401 H395 0.930 . S
C401 C397 1.400 . S
C401 C400 1.385 1_554 S
C402 C400 1.478 . S
C402 C404 1.381 . S
C402 C408 1.383 . S
C403 C399 1.495 . S
C403 H409 0.959 . S
C403 H410 0.961 . S
C403 H411 0.960 . S
C404 C402 1.381 . S
C404 C405 1.394 . S
C404 H412 0.930 . S
C405 C404 1.394 . S
C405 C406 1.383 . S
C405 H413 0.929 . S
C406 C405 1.383 . S
C406 C407 1.377 . S
C407 H391 0.930 . S
C407 C406 1.377 . S
C407 C408 1.379 . S
C408 H392 0.931 . S
C408 C402 1.383 . S
C408 C407 1.379 . S
H409 C403 0.959 . S
H410 C403 0.961 . S
H411 C403 0.960 . S
H412 C404 0.930 . S
H413 C405 0.929 . S
H414 C422 0.929 . S
H415 C424 0.930 . S
H416 C426 0.930 . S
H417 C429 0.929 . S
H418 C432 0.930 . S
H419 C434 0.960 . S
H420 C434 0.960 . S
H421 C434 0.960 . S
C422 H414 0.929 . S
C422 C423 1.377 . S
C422 C424 1.384 . S
C423 C422 1.377 . S
C423 C429 1.390 1_556 S
C424 H415 0.930 . S
C424 C422 1.384 . S
C424 C425 1.372 . S
C425 C424 1.372 . S
C425 C426 1.400 1_556 S
C425 C430 1.490 . S
C426 H416 0.930 . S
C426 C425 1.400 1_554 S
C426 C429 1.386 . S
H427 C443 0.930 . S
H428 C444 0.931 . S
C429 H417 0.929 . S
C429 C423 1.390 1_554 S
C429 C426 1.386 . S
C430 C425 1.490 . S
C430 C432 1.395 . S
C430 C433 1.403 1_556 S
H431 C437 0.930 . S
C432 H418 0.930 . S
C432 C430 1.395 . S
C432 C435 1.403 . S
C433 C430 1.403 1_554 S
C433 C434 1.524 . S
C433 C437 1.400 . S
C434 H419 0.960 . S
C434 H420 0.960 . S
C434 H421 0.960 . S
C434 C433 1.524 . S
C435 C432 1.403 . S
C435 C436 1.392 . S
C435 C439 1.495 . S
C436 C435 1.392 . S
C436 C437 1.385 1_556 S
C436 C438 1.477 1_556 S
C437 H431 0.930 . S
C437 C433 1.400 . S
C437 C436 1.385 1_554 S
C438 C436 1.477 1_554 S
C438 C440 1.373 1_554 S
C438 C444 1.392 . S
C439 C435 1.495 . S
C439 H445 0.959 . S
C439 H446 0.961 . S
C439 H447 0.960 . S
C440 C438 1.373 1_556 S
C440 C441 1.394 . S
C440 H448 0.930 . S
C441 C440 1.394 . S
C441 C442 1.383 1_556 S
C441 H449 0.929 . S
C442 C441 1.383 1_554 S
C442 C443 1.377 . S
C443 H427 0.930 . S
C443 C442 1.377 . S
C443 C444 1.379 . S
C444 H428 0.931 . S
C444 C438 1.392 . S
C444 C443 1.379 . S
H445 C439 0.959 . S
H446 C439 0.961 . S
H447 C439 0.960 . S
H448 C440 0.930 . S
H449 C441 0.929 . S
H450 C458 0.929 . S
H451 C460 0.930 . S
H452 C462 0.930 . S
H453 C465 0.929 . S
H454 C468 0.930 . S
H455 C470 0.960 . S
H456 C470 0.960 . S
H457 C470 0.960 . S
C458 H450 0.929 . S
C458 C459 1.377 . S
C458 C460 1.384 . S
C459 C458 1.377 . S
C459 C465 1.390 1_556 S
C460 H451 0.930 . S
C460 C458 1.384 . S
C460 C461 1.372 . S
C461 C460 1.372 . S
C461 C462 1.400 1_556 S
C461 C466 1.490 . S
C462 H452 0.930 . S
C462 C461 1.400 1_554 S
C462 C465 1.386 . S
H463 C479 0.930 . S
H464 C480 0.931 . S
C465 H453 0.929 . S
C465 C459 1.390 1_554 S
C465 C462 1.386 . S
C466 C461 1.490 . S
C466 C468 1.395 . S
C466 C469 1.403 1_556 S
H467 C473 0.930 . S
C468 H454 0.930 . S
C468 C466 1.395 . S
C468 C471 1.403 . S
C469 C466 1.403 1_554 S
C469 C470 1.524 . S
C469 C473 1.400 . S
C470 H455 0.960 . S
C470 H456 0.960 . S
C470 H457 0.960 . S
C470 C469 1.524 . S
C471 C468 1.403 . S
C471 C472 1.392 . S
C471 C475 1.495 . S
C472 C471 1.392 . S
C472 C473 1.385 1_556 S
C472 C474 1.478 . S
C473 H467 0.930 . S
C473 C469 1.400 . S
C473 C472 1.385 1_554 S
C474 C472 1.478 . S
C474 C476 1.381 . S
C474 C480 1.383 1_556 S
C475 C471 1.495 . S
C475 H481 0.959 . S
C475 H482 0.961 . S
C475 H483 0.960 . S
C476 C474 1.381 . S
C476 C477 1.394 . S
C476 H484 0.930 . S
C477 C476 1.394 . S
C477 C478 1.383 1_556 S
C477 H485 0.929 . S
C478 C477 1.383 1_554 S
C478 C479 1.377 . S
C479 H463 0.930 . S
C479 C478 1.377 . S
C479 C480 1.379 . S
C480 H464 0.931 . S
C480 C474 1.383 1_554 S
C480 C479 1.379 . S
H481 C475 0.959 . S
H482 C475 0.961 . S
H483 C475 0.960 . S
H484 C476 0.930 . S
H485 C477 0.929 . S
H486 C494 0.929 . S
H487 C496 0.930 . S
H488 C498 0.930 . S
H489 C501 0.929 . S
H490 C504 0.930 . S
H491 C506 0.960 . S
H492 C506 0.960 1_556 S
H493 C506 0.960 . S
C494 H486 0.929 . S
C494 C495 1.377 . S
C494 C496 1.384 . S
C495 C494 1.377 . S
C495 C501 1.390 1_556 S
C496 H487 0.930 . S
C496 C494 1.384 . S
C496 C497 1.372 . S
C497 C496 1.372 . S
C497 C498 1.400 1_556 S
C497 C502 1.490 . S
C498 H488 0.930 . S
C498 C497 1.400 1_554 S
C498 C501 1.386 . S
H499 C515 0.930 . S
H500 C516 0.931 . S
C501 H489 0.929 . S
C501 C495 1.390 1_554 S
C501 C498 1.386 . S
C502 C497 1.490 . S
C502 C504 1.395 . S
C502 C505 1.403 1_556 S
H503 C509 0.930 . S
C504 H490 0.930 . S
C504 C502 1.395 . S
C504 C507 1.403 . S
C505 C502 1.403 1_554 S
C505 C506 1.524 . S
C505 C509 1.400 . S
C506 H491 0.960 . S
C506 H492 0.960 1_554 S
C506 H493 0.960 . S
C506 C505 1.524 . S
C507 C504 1.403 . S
C507 C508 1.395 . S
C507 C511 1.495 . S
C508 C507 1.395 . S
C508 C509 1.383 1_556 S
C508 C510 1.477 1_556 S
C509 H503 0.930 . S
C509 C505 1.400 . S
C509 C508 1.383 1_554 S
C510 C508 1.477 1_554 S
C510 C512 1.381 1_554 S
C510 C516 1.383 . S
C511 C507 1.495 . S
C511 H517 0.959 . S
C511 H518 0.958 1_556 S
C511 H519 0.960 . S
C512 C510 1.381 1_556 S
C512 C513 1.394 . S
C512 H520 0.930 . S
C513 C512 1.394 . S
C513 C514 1.383 1_556 S
C513 H521 0.929 . S
C514 C513 1.383 1_554 S
C514 C515 1.377 . S
C515 H499 0.930 . S
C515 C514 1.377 . S
C515 C516 1.379 . S
C516 H500 0.931 . S
C516 C510 1.383 . S
C516 C515 1.379 . S
H517 C511 0.959 . S
H518 C511 0.958 1_554 S
H519 C511 0.960 . S
H520 C512 0.930 . S
H521 C513 0.929 . S
H522 C530 0.929 . S
H523 C532 0.930 . S
H524 C534 0.930 . S
H525 C537 0.929 . S
H526 C540 0.930 . S
H527 C542 0.960 . S
H528 C542 0.960 . S
H529 C542 0.960 . S
C530 H522 0.929 . S
C530 C531 1.377 . S
C530 C532 1.384 . S
C531 C530 1.377 . S
C531 C537 1.390 1_554 S
C532 H523 0.930 . S
C532 C530 1.384 . S
C532 C533 1.372 . S
C533 C532 1.372 . S
C533 C534 1.400 1_554 S
C533 C538 1.490 . S
C534 H524 0.930 . S
C534 C533 1.400 1_556 S
C534 C537 1.386 . S
H535 C551 0.930 . S
H536 C552 0.931 . S
C537 H525 0.929 . S
C537 C531 1.390 1_556 S
C537 C534 1.386 . S
C538 C533 1.490 . S
C538 C540 1.395 1_554 S
C538 C541 1.403 . S
H539 C545 0.930 . S
C540 H526 0.930 . S
C540 C538 1.395 1_556 S
C540 C543 1.403 . S
C541 C538 1.403 . S
C541 C542 1.524 . S
C541 C545 1.400 . S
C542 H527 0.960 . S
C542 H528 0.960 . S
C542 H529 0.960 . S
C542 C541 1.524 . S
C543 C540 1.403 . S
C543 C544 1.392 . S
C543 C547 1.495 . S
C544 C543 1.392 . S
C544 C545 1.385 1_556 S
C544 C546 1.478 . S
C545 H539 0.930 . S
C545 C541 1.400 . S
C545 C544 1.385 1_554 S
C546 C544 1.478 . S
C546 C548 1.381 1_556 S
C546 C552 1.383 . S
C547 C543 1.495 . S
C547 H553 0.959 . S
C547 H554 0.961 . S
C547 H555 0.960 . S
C548 C546 1.381 1_554 S
C548 C549 1.394 . S
C548 H556 0.930 . S
C549 C548 1.394 . S
C549 C550 1.383 1_554 S
C549 H557 0.929 . S
C550 C549 1.383 1_556 S
C550 C551 1.377 . S
C551 H535 0.930 . S
C551 C550 1.377 . S
C551 C552 1.379 . S
C552 H536 0.931 . S
C552 C546 1.383 . S
C552 C551 1.379 . S
H553 C547 0.959 . S
H554 C547 0.961 . S
H555 C547 0.960 . S
H556 C548 0.930 . S
H557 C549 0.929 . S
H558 C566 0.929 . S
H559 C568 0.930 . S
H560 C570 0.930 . S
H561 C573 0.929 . S
H562 C576 0.930 . S
H563 C578 0.960 . S
H564 C578 0.960 . S
H565 C578 0.960 . S
C566 H558 0.929 . S
C566 C567 1.377 . S
C566 C568 1.384 . S
C567 C566 1.377 . S
C567 C573 1.390 . S
C568 H559 0.930 . S
C568 C566 1.384 . S
C568 C569 1.372 . S
C569 C568 1.372 . S
C569 C570 1.400 . S
C569 C574 1.490 . S
C570 H560 0.930 . S
C570 C569 1.400 . S
C570 C573 1.386 . S
H571 C587 0.930 . S
H572 C588 0.931 . S
C573 H561 0.929 . S
C573 C567 1.390 . S
C573 C570 1.386 . S
C574 C569 1.490 . S
C574 C576 1.395 . S
C574 C577 1.403 . S
H575 C581 0.930 . S
C576 H562 0.930 . S
C576 C574 1.395 . S
C576 C579 1.403 . S
C577 C574 1.403 . S
C577 C578 1.524 . S
C577 C581 1.400 . S
C578 H563 0.960 . S
C578 H564 0.960 . S
C578 H565 0.960 . S
C578 C577 1.524 . S
C579 C576 1.403 . S
C579 C580 1.392 . S
C579 C583 1.495 . S
C580 C579 1.392 . S
C580 C581 1.385 . S
C580 C582 1.478 . S
C581 H575 0.930 . S
C581 C577 1.400 . S
C581 C580 1.385 . S
C582 C580 1.478 . S
C582 C584 1.381 . S
C582 C588 1.383 . S
C583 C579 1.495 . S
C583 H589 0.959 . S
C583 H590 0.961 . S
C583 H591 0.960 . S
C584 C582 1.381 . S
C584 C585 1.394 . S
C584 H592 0.930 . S
C585 C584 1.394 . S
C585 C586 1.383 . S
C585 H593 0.929 . S
C586 C585 1.383 . S
C586 C587 1.377 . S
C587 H571 0.930 . S
C587 C586 1.377 . S
C587 C588 1.379 . S
C588 H572 0.931 . S
C588 C582 1.383 . S
C588 C587 1.379 . S
H589 C583 0.959 . S
H590 C583 0.961 . S
H591 C583 0.960 . S
H592 C584 0.930 . S
H593 C585 0.929 . S
H594 C602 0.929 . S
H595 C604 0.930 . S
H596 C606 0.930 . S
H597 C609 0.929 . S
H598 C612 0.930 . S
H599 C614 0.960 . S
H600 C614 0.960 . S
H601 C614 0.960 . S
C602 H594 0.929 . S
C602 C603 1.377 . S
C602 C604 1.384 . S
C603 C602 1.377 . S
C603 C609 1.390 . S
C604 H595 0.930 . S
C604 C602 1.384 . S
C604 C605 1.372 . S
C605 C604 1.372 . S
C605 C606 1.400 . S
C605 C610 1.490 . S
C606 H596 0.930 . S
C606 C605 1.400 . S
C606 C609 1.386 . S
H607 C623 0.930 . S
H608 C624 0.931 . S
C609 H597 0.929 . S
C609 C603 1.390 . S
C609 C606 1.386 . S
C610 C605 1.490 . S
C610 C612 1.395 . S
C610 C613 1.403 . S
H611 C617 0.930 . S
C612 H598 0.930 . S
C612 C610 1.395 . S
C612 C615 1.403 . S
C613 C610 1.403 . S
C613 C614 1.524 . S
C613 C617 1.400 . S
C614 H599 0.960 . S
C614 H600 0.960 . S
C614 H601 0.960 . S
C614 C613 1.524 . S
C615 C612 1.403 . S
C615 C616 1.392 . S
C615 C619 1.495 . S
C616 C615 1.392 . S
C616 C617 1.385 . S
C616 C618 1.478 . S
C617 H611 0.930 . S
C617 C613 1.400 . S
C617 C616 1.385 . S
C618 C616 1.478 . S
C618 C620 1.381 . S
C618 C624 1.383 . S
C619 C615 1.495 . S
C619 H625 0.959 . S
C619 H626 0.961 . S
C619 H627 0.960 . S
C620 C618 1.381 . S
C620 C621 1.394 . S
C620 H628 0.930 . S
C621 C620 1.394 . S
C621 C622 1.383 . S
C621 H629 0.929 . S
C622 C621 1.383 . S
C622 C623 1.377 . S
C623 H607 0.930 . S
C623 C622 1.377 . S
C623 C624 1.379 . S
C624 H608 0.931 . S
C624 C618 1.383 . S
C624 C623 1.379 . S
H625 C619 0.959 . S
H626 C619 0.961 . S
H627 C619 0.960 . S
H628 C620 0.930 . S
H629 C621 0.929 . S
H630 C638 0.929 . S
H631 C640 0.930 . S
H632 C642 0.930 . S
H633 C645 0.929 . S
H634 C648 0.930 . S
H635 C650 0.960 . S
H636 C650 0.960 . S
H637 C650 0.960 . S
C638 H630 0.929 . S
C638 C639 1.377 . S
C638 C640 1.384 . S
C639 C638 1.377 . S
C639 C645 1.390 . S
C640 H631 0.930 . S
C640 C638 1.384 . S
C640 C641 1.372 . S
C641 C640 1.372 . S
C641 C642 1.400 . S
C641 C646 1.490 . S
C642 H632 0.930 . S
C642 C641 1.400 . S
C642 C645 1.386 . S
H643 C659 0.930 . S
H644 C660 0.931 . S
C645 H633 0.929 . S
C645 C639 1.390 . S
C645 C642 1.386 . S
C646 C641 1.490 . S
C646 C648 1.395 . S
C646 C649 1.403 . S
H647 C653 0.930 . S
C648 H634 0.930 . S
C648 C646 1.395 . S
C648 C651 1.403 . S
C649 C646 1.403 . S
C649 C650 1.524 . S
C649 C653 1.400 . S
C650 H635 0.960 . S
C650 H636 0.960 . S
C650 H637 0.960 . S
C650 C649 1.524 . S
C651 C648 1.403 . S
C651 C652 1.392 . S
C651 C655 1.495 . S
C652 C651 1.392 . S
C652 C653 1.385 . S
C652 C654 1.478 . S
C653 H647 0.930 . S
C653 C649 1.400 . S
C653 C652 1.385 . S
C654 C652 1.478 . S
C654 C656 1.381 . S
C654 C660 1.383 . S
C655 C651 1.495 . S
C655 H661 0.959 . S
C655 H662 0.961 . S
C655 H663 0.960 . S
C656 C654 1.381 . S
C656 C657 1.394 . S
C656 H664 0.930 . S
C657 C656 1.394 . S
C657 C658 1.383 . S
C657 H665 0.929 . S
C658 C657 1.383 . S
C658 C659 1.377 . S
C659 H643 0.930 . S
C659 C658 1.377 . S
C659 C660 1.379 . S
C660 H644 0.931 . S
C660 C654 1.383 . S
C660 C659 1.379 . S
H661 C655 0.959 . S
H662 C655 0.961 . S
H663 C655 0.960 . S
H664 C656 0.930 . S
H665 C657 0.929 . S
H666 C674 0.929 . S
H667 C676 0.930 . S
H668 C678 0.930 . S
H669 C681 0.929 . S
H670 C684 0.930 . S
H671 C686 0.960 . S
H672 C686 0.960 . S
H673 C686 0.960 . S
C674 H666 0.929 . S
C674 C675 1.377 . S
C674 C676 1.384 . S
C675 C674 1.377 . S
C675 C681 1.390 . S
C676 H667 0.930 . S
C676 C674 1.384 . S
C676 C677 1.372 . S
C677 C676 1.372 . S
C677 C678 1.400 . S
C677 C682 1.490 . S
C678 H668 0.930 . S
C678 C677 1.400 . S
C678 C681 1.386 . S
H679 C695 0.930 . S
H680 C696 0.931 . S
C681 H669 0.929 . S
C681 C675 1.390 . S
C681 C678 1.386 . S
C682 C677 1.490 . S
C682 C684 1.395 . S
C682 C685 1.403 . S
H683 C689 0.930 . S
C684 H670 0.930 . S
C684 C682 1.395 . S
C684 C687 1.403 . S
C685 C682 1.403 . S
C685 C686 1.524 . S
C685 C689 1.400 . S
C686 H671 0.960 . S
C686 H672 0.960 . S
C686 H673 0.960 . S
C686 C685 1.524 . S
C687 C684 1.403 . S
C687 C688 1.392 . S
C687 C691 1.495 . S
C688 C687 1.392 . S
C688 C689 1.385 . S
C688 C690 1.478 . S
C689 H683 0.930 . S
C689 C685 1.400 . S
C689 C688 1.385 . S
C690 C688 1.478 . S
C690 C692 1.381 . S
C690 C696 1.383 . S
C691 C687 1.495 . S
C691 H697 0.959 . S
C691 H698 0.961 . S
C691 H699 0.960 . S
C692 C690 1.381 . S
C692 C693 1.394 . S
C692 H700 0.930 . S
C693 C692 1.394 . S
C693 C694 1.383 . S
C693 H701 0.929 . S
C694 C693 1.383 . S
C694 C695 1.377 . S
C695 H679 0.930 . S
C695 C694 1.377 . S
C695 C696 1.379 . S
C696 H680 0.931 . S
C696 C690 1.383 . S
C696 C695 1.379 . S
H697 C691 0.959 . S
H698 C691 0.961 . S
H699 C691 0.960 . S
H700 C692 0.930 . S
H701 C693 0.929 . S
H702 C710 0.929 . S
H703 C712 0.930 . S
H704 C714 0.930 . S
H705 C717 0.929 . S
H706 C720 0.930 . S
H707 C722 0.960 . S
H708 C722 0.960 . S
H709 C722 0.960 . S
C710 H702 0.929 . S
C710 C711 1.377 . S
C710 C712 1.384 . S
C711 C710 1.377 . S
C711 C717 1.390 . S
C712 H703 0.930 . S
C712 C710 1.384 . S
C712 C713 1.372 . S
C713 C712 1.372 . S
C713 C714 1.400 . S
C713 C718 1.490 . S
C714 H704 0.930 . S
C714 C713 1.400 . S
C714 C717 1.386 . S
H715 C731 0.930 . S
H716 C732 0.931 . S
C717 H705 0.929 . S
C717 C711 1.390 . S
C717 C714 1.386 . S
C718 C713 1.490 . S
C718 C720 1.395 . S
C718 C721 1.403 . S
H719 C725 0.930 . S
C720 H706 0.930 . S
C720 C718 1.395 . S
C720 C723 1.403 . S
C721 C718 1.403 . S
C721 C722 1.524 . S
C721 C725 1.400 . S
C722 H707 0.960 . S
C722 H708 0.960 . S
C722 H709 0.960 . S
C722 C721 1.524 . S
C723 C720 1.403 . S
C723 C724 1.392 . S
C723 C727 1.495 . S
C724 C723 1.392 . S
C724 C725 1.385 . S
C724 C726 1.478 . S
C725 H719 0.930 . S
C725 C721 1.400 . S
C725 C724 1.385 . S
C726 C724 1.478 . S
C726 C728 1.381 . S
C726 C732 1.383 . S
C727 C723 1.495 . S
C727 H733 0.959 . S
C727 H734 0.961 . S
C727 H735 0.960 . S
C728 C726 1.381 . S
C728 C729 1.394 . S
C728 H736 0.930 . S
C729 C728 1.394 . S
C729 C730 1.383 . S
C729 H737 0.929 . S
C730 C729 1.383 . S
C730 C731 1.377 . S
C731 H715 0.930 . S
C731 C730 1.377 . S
C731 C732 1.379 . S
C732 H716 0.931 . S
C732 C726 1.383 . S
C732 C731 1.379 . S
H733 C727 0.959 . S
H734 C727 0.961 . S
H735 C727 0.960 . S
H736 C728 0.930 . S
H737 C729 0.929 . S
H738 C746 0.929 . S
H739 C748 0.930 . S
H740 C750 0.930 . S
H741 C753 0.929 . S
H742 C756 0.930 . S
H743 C758 0.960 . S
H744 C758 0.960 . S
H745 C758 0.960 . S
C746 H738 0.929 . S
C746 C747 1.377 . S
C746 C748 1.384 . S
C747 C746 1.377 . S
C747 C753 1.390 . S
C748 H739 0.930 . S
C748 C746 1.384 . S
C748 C749 1.372 . S
C749 C748 1.372 . S
C749 C750 1.400 . S
C749 C754 1.490 . S
C750 H740 0.930 . S
C750 C749 1.400 . S
C750 C753 1.386 . S
H751 C767 0.930 . S
H752 C768 0.931 . S
C753 H741 0.929 . S
C753 C747 1.390 . S
C753 C750 1.386 . S
C754 C749 1.490 . S
C754 C756 1.395 . S
C754 C757 1.403 . S
H755 C761 0.930 . S
C756 H742 0.930 . S
C756 C754 1.395 . S
C756 C759 1.403 . S
C757 C754 1.403 . S
C757 C758 1.524 . S
C757 C761 1.400 . S
C758 H743 0.960 . S
C758 H744 0.960 . S
C758 H745 0.960 . S
C758 C757 1.524 . S
C759 C756 1.403 . S
C759 C760 1.392 . S
C759 C763 1.495 . S
C760 C759 1.392 . S
C760 C761 1.385 . S
C760 C762 1.478 . S
C761 H755 0.930 . S
C761 C757 1.400 . S
C761 C760 1.385 . S
C762 C760 1.478 . S
C762 C764 1.381 . S
C762 C768 1.383 . S
C763 C759 1.495 . S
C763 H769 0.959 . S
C763 H770 0.961 . S
C763 H771 0.960 . S
C764 C762 1.381 . S
C764 C765 1.394 . S
C764 H772 0.930 . S
C765 C764 1.394 . S
C765 C766 1.383 . S
C765 H773 0.929 . S
C766 C765 1.383 . S
C766 C767 1.377 . S
C767 H751 0.930 . S
C767 C766 1.377 . S
C767 C768 1.379 . S
C768 H752 0.931 . S
C768 C762 1.383 . S
C768 C767 1.379 . S
H769 C763 0.959 . S
H770 C763 0.961 . S
H771 C763 0.960 . S
H772 C764 0.930 . S
H773 C765 0.929 . S
C135 C121 1.272 1_554 S
C154 C3 1.212 1_556 S
C171 C16 1.274 1_554 S
C190 C24 1.239 1_556 S
C207 C37 1.255 1_554 S
C226 C58 1.252 1_556 S
C243 C79 1.253 1_556 S
C262 C45 1.309 1_554 S
C279 C100 1.256 1_556 S
C298 C66 1.313 1_554 S
C315 C87 1.274 1_554 S
C334 C108 1.239 1_556 S
C351 C103 1.404 . S
C370 C19 1.371 . S
C387 C125 1.399 . S
C406 C40 1.379 . S
C423 C62 1.410 . S
C442 C20 1.392 . S
C459 C83 1.412 . S
C478 C41 1.416 . S
C495 C104 1.407 . S
C514 C61 1.378 . S
C531 C82 1.402 . S
C550 C124 1.371 . S
C567 C7 1.269 . S
C586 C4 1.271 . S
C603 C28 1.263 . S
C622 C25 1.220 . S
C639 C46 1.274 . S
C658 C49 1.298 . S
C675 C67 1.274 . S
C694 C70 1.264 . S
C711 C91 1.262 . S
C730 C88 1.221 . S
C747 C112 1.270 . S
C766 C109 1.243 . S
