# Generated by pormake.
# Topology wnr, (7)-cn, num edge types: 1
# Building blocks:
#     Node 0, Type 0, BuildingBlock: NUHQUE_clean_sbu_2, # of connection points: 7
#     Node 1, Type 0, BuildingBlock: NUHQUE_clean_sbu_2, # of connection points: 7
#     Node 2, Type 0, BuildingBlock: NUHQUE_clean_sbu_2, # of connection points: 7
#     Node 3, Type 0, BuildingBlock: NUHQUE_clean_sbu_2, # of connection points: 7
#     Node 4, Type 0, BuildingBlock: NUHQUE_clean_sbu_2, # of connection points: 7
#     Node 5, Type 0, BuildingBlock: NUHQUE_clean_sbu_2, # of connection points: 7
#     Edge 6, Type (0, 0), BuildingBlock: MIFKUJ_clean_linker_0, # of connection points: 2
#     Edge 7, Type (0, 0), BuildingBlock: MIFKUJ_clean_linker_0, # of connection points: 2
#     Edge 8, Type (0, 0), BuildingBlock: MIFKUJ_clean_linker_0, # of connection points: 2
#     Edge 9, Type (0, 0), BuildingBlock: MIFKUJ_clean_linker_0, # of connection points: 2
#     Edge 10, Type (0, 0), BuildingBlock: MIFKUJ_clean_linker_0, # of connection points: 2
#     Edge 11, Type (0, 0), BuildingBlock: MIFKUJ_clean_linker_0, # of connection points: 2
#     Edge 12, Type (0, 0), BuildingBlock: MIFKUJ_clean_linker_0, # of connection points: 2
#     Edge 13, Type (0, 0), BuildingBlock: MIFKUJ_clean_linker_0, # of connection points: 2
#     Edge 14, Type (0, 0), BuildingBlock: MIFKUJ_clean_linker_0, # of connection points: 2
#     Edge 15, Type (0, 0), BuildingBlock: MIFKUJ_clean_linker_0, # of connection points: 2
#     Edge 16, Type (0, 0), BuildingBlock: MIFKUJ_clean_linker_0, # of connection points: 2
#     Edge 17, Type (0, 0), BuildingBlock: MIFKUJ_clean_linker_0, # of connection points: 2
#     Edge 18, Type (0, 0), BuildingBlock: MIFKUJ_clean_linker_0, # of connection points: 2
#     Edge 19, Type (0, 0), BuildingBlock: MIFKUJ_clean_linker_0, # of connection points: 2
#     Edge 20, Type (0, 0), BuildingBlock: MIFKUJ_clean_linker_0, # of connection points: 2
#     Edge 21, Type (0, 0), BuildingBlock: MIFKUJ_clean_linker_0, # of connection points: 2
#     Edge 22, Type (0, 0), BuildingBlock: MIFKUJ_clean_linker_0, # of connection points: 2
#     Edge 23, Type (0, 0), BuildingBlock: MIFKUJ_clean_linker_0, # of connection points: 2
#     Edge 24, Type (0, 0), BuildingBlock: MIFKUJ_clean_linker_0, # of connection points: 2
#     Edge 25, Type (0, 0), BuildingBlock: MIFKUJ_clean_linker_0, # of connection points: 2
#     Edge 26, Type (0, 0), BuildingBlock: MIFKUJ_clean_linker_0, # of connection points: 2
# Relax obj value: 0.183
# Max RMSD: 0.216
# Mean RMSD: 0.216
data_MOF--net-wnr--node1-NUHQUE_clean_sbu_2--edge1-MIFKUJ_clean_linker_0
_symmetry_space_group_name_H-M    P1
_symmetry_Int_Tables_number       1
_symmetry_cell_setting            triclinic
loop_
_symmetry_equiv_pos_as_xyz
'x, y, z'
_cell_length_a     58.320582
_cell_length_b     58.277143
_cell_length_c     22.388702
_cell_angle_alpha  90.098067
_cell_angle_beta   90.016767
_cell_angle_gamma 120.16377
loop_
_atom_site_label
_atom_site_type_symbol
_atom_site_fract_x
_atom_site_fract_y
_atom_site_fract_z
_atom_type_partial_charge
O0 O 0.25517 0.45716 0.92582 0.0
Tb1 Tb 0.27851 0.4725 0.00675 0.0
Eu2 Eu 0.24649 0.43095 0.13343 0.0
C3 C 0.24739 0.43336 0.90414 0.0
O4 O 0.25059 0.41627 0.93601 0.0
C5 C 0.29211 0.42752 0.05464 0.0
O6 O 0.24334 0.42305 0.23232 0.0
C7 C 0.19936 0.40179 0.08836 0.0
C8 C 0.26014 0.44105 0.26975 0.0
O9 O 0.27952 0.46349 0.2488 0.0
C10 C 0.25277 0.48722 0.11157 0.0
C11 C 0.17185 0.39663 0.09447 0.0
C12 C 0.15529 0.38815 0.04368 0.0
C13 C 0.12829 0.38014 0.0488 0.0
C14 C 0.11834 0.3822 0.10411 0.0
C15 C 0.13407 0.38979 0.15544 0.0
C16 C 0.16095 0.39695 0.15086 0.0
O17 O 0.29328 0.44459 0.01417 0.0
O18 O 0.27748 0.42122 0.10333 0.0
O19 O 0.30161 0.50287 0.94037 0.0
O20 O 0.3154 0.50935 0.02987 0.0
C21 C 0.32019 0.51931 0.97612 0.0
O22 O 0.25711 0.47311 0.1506 0.0
O23 O 0.25134 0.48174 0.05422 0.0
O24 O 0.20864 0.39434 0.1332 0.0
O25 O 0.21721 0.42438 0.06416 0.0
H26 H 0.16305 0.38629 1.00106 0.0
H27 H 0.09747 0.37604 0.1081 0.0
H28 H 0.17301 0.40201 0.19086 0.0
O29 O 0.57026 0.81843 0.58969 0.0
Tb30 Tb 0.54783 0.81345 0.67141 0.0
Eu31 Eu 0.59536 0.81656 0.78482 0.0
C32 C 0.57669 0.83925 0.5557 0.0
O33 O 0.57211 0.85775 0.57596 0.0
C34 C 0.59583 0.86744 0.72268 0.0
O35 O 0.60191 0.82155 0.88471 0.0
C36 C 0.62079 0.79414 0.74256 0.0
C37 C 0.60023 0.84008 0.91472 0.0
O38 O 0.59617 0.85723 0.88539 0.0
C39 C 0.53576 0.77036 0.7677 0.0
C40 C 0.62535 0.77138 0.74661 0.0
C41 C 0.62903 0.76091 0.69309 0.0
C42 C 0.63611 0.74124 0.69453 0.0
C43 C 0.63898 0.73157 0.74932 0.0
C44 C 0.63614 0.7421 0.80313 0.0
C45 C 0.62938 0.76216 0.80193 0.0
O46 O 0.57023 0.85336 0.71042 0.0
O47 O 0.60958 0.85669 0.74256 0.0
O48 O 0.51789 0.80602 0.60323 0.0
O49 O 0.51035 0.81214 0.69258 0.0
C50 C 0.50091 0.80735 0.63846 0.0
O51 O 0.55252 0.78776 0.80605 0.0
O52 O 0.53854 0.77531 0.71003 0.0
O53 O 0.62966 0.81143 0.78663 0.0
O54 O 0.59825 0.79013 0.71949 0.0
H55 H 0.62757 0.76889 0.65045 0.0
H56 H 0.64527 0.71691 0.75001 0.0
H57 H 0.62789 0.77088 0.84349 0.0
O58 O 0.19515 0.75302 0.26923 0.0
Tb59 Tb 0.20499 0.7392 0.35043 0.0
Eu60 Eu 0.20371 0.78665 0.46151 0.0
C61 C 0.21386 0.76955 0.23272 0.0
O62 O 0.23873 0.78081 0.25 0.0
C63 C 0.15303 0.73463 0.40391 0.0
O64 O 0.19866 0.78742 0.56146 0.0
C65 C 0.2257 0.83525 0.4231 0.0
C66 C 0.18508 0.76561 0.59294 0.0
O67 O 0.1726 0.74264 0.56515 0.0
C68 C 0.24986 0.77356 0.44023 0.0
C69 C 0.24803 0.86267 0.43206 0.0
C70 C 0.25673 0.87997 0.38262 0.0
C71 C 0.27567 0.90696 0.39002 0.0
C72 C 0.28707 0.91607 0.44626 0.0
C73 C 0.27813 0.89966 0.49635 0.0
C74 C 0.2584 0.8728 0.48953 0.0
O75 O 0.16729 0.72296 0.39812 0.0
O76 O 0.1639 0.76001 0.41766 0.0
O77 O 0.20979 0.71521 0.28163 0.0
O78 O 0.20859 0.70431 0.37219 0.0
C79 C 0.21083 0.69823 0.31735 0.0
O80 O 0.23327 0.77341 0.48007 0.0
O81 O 0.24362 0.77004 0.38314 0.0
O82 O 0.20741 0.82554 0.46487 0.0
O83 O 0.23076 0.81751 0.39959 0.0
H84 H 0.24761 0.87279 0.33925 0.0
H85 H 0.30188 0.93685 0.45207 0.0
H86 H 0.25077 0.86019 0.52852 0.0
O87 O 0.46092 0.24692 0.08372 0.0
Tb88 Tb 0.47682 0.27038 1.00306 0.0
Eu89 Eu 0.43574 0.23808 0.87581 0.0
C90 C 0.4372 0.23998 0.10443 0.0
O91 O 0.42092 0.24405 0.07162 0.0
C92 C 0.43302 0.28478 0.95097 0.0
O93 O 0.4274 0.23142 0.77724 0.0
C94 C 0.4066 0.19267 0.92827 0.0
C95 C 0.44151 0.25046 0.73904 0.0
O96 O 0.46019 0.27352 0.75939 0.0
C97 C 0.49271 0.24583 0.89787 0.0
C98 C 0.39932 0.16441 0.9245 0.0
C99 C 0.39061 0.14886 0.97675 0.0
C100 C 0.38036 0.12134 0.97365 0.0
C101 C 0.37996 0.10962 0.91896 0.0
C102 C 0.38815 0.12448 0.86649 0.0
C103 C 0.3978 0.152 0.86896 0.0
O104 O 0.44894 0.28506 0.99342 0.0
O105 O 0.42762 0.27071 0.90145 0.0
O106 O 0.50658 0.29432 0.07014 0.0
O107 O 0.5139 0.30686 0.97982 0.0
C108 C 0.52338 0.31235 0.03401 0.0
O109 O 0.478 0.24917 0.8585 0.0
O110 O 0.48693 0.2439 0.95513 0.0
O111 O 0.39815 0.20156 0.88457 0.0
O112 O 0.43058 0.2101 0.94708 0.0
H113 H 0.39045 0.15789 0.01902 0.0
H114 H 0.37184 0.0883 0.91667 0.0
H115 H 0.40332 0.16344 0.82804 0.0
O116 O 0.76662 0.19927 0.7493 0.0
Tb117 Tb 0.7504 0.20575 0.66739 0.0
Eu118 Eu 0.79437 0.20074 0.55238 0.0
C119 C 0.751 0.17886 0.78328 0.0
O120 O 0.72731 0.16163 0.76301 0.0
C121 C 0.7429 0.1515 0.61679 0.0
O122 O 0.79481 0.19448 0.45273 0.0
C123 C 0.84291 0.22276 0.59131 0.0
C124 C 0.77342 0.17771 0.42282 0.0
O125 O 0.75123 0.16299 0.45208 0.0
C126 C 0.78212 0.2474 0.57087 0.0
C127 C 0.87072 0.24454 0.58431 0.0
C128 C 0.88713 0.25262 0.63537 0.0
C129 C 0.91443 0.27046 0.63013 0.0
C130 C 0.92502 0.28137 0.5745 0.0
C131 C 0.9094 0.27336 0.52303 0.0
C132 C 0.88208 0.25471 0.52759 0.0
O133 O 0.73196 0.16627 0.62628 0.0
O134 O 0.76762 0.16154 0.59838 0.0
O135 O 0.72821 0.21372 0.73533 0.0
O136 O 0.71647 0.21087 0.64498 0.0
C137 C 0.7114 0.21493 0.69934 0.0
O138 O 0.78079 0.22988 0.53203 0.0
O139 O 0.78132 0.24272 0.62848 0.0
O140 O 0.83322 0.2044 0.54952 0.0
O141 O 0.82533 0.22824 0.61389 0.0
H142 H 0.87899 0.24378 0.67842 0.0
H143 H 0.9462 0.29511 0.57059 0.0
H144 H 0.87006 0.24765 0.48753 0.0
O145 O 0.82197 0.56453 0.41406 0.0
Tb146 Tb 0.81777 0.54254 0.33188 0.0
Eu147 Eu 0.81946 0.58984 0.21732 0.0
C148 C 0.844 0.57418 0.4457 0.0
O149 O 0.86441 0.57351 0.42291 0.0
C150 C 0.87049 0.59053 0.27888 0.0
O151 O 0.82313 0.59445 0.11661 0.0
C152 C 0.79656 0.61509 0.25841 0.0
C153 C 0.84549 0.60239 0.08753 0.0
O154 O 0.86728 0.60919 0.1179 0.0
C155 C 0.77376 0.53024 0.23864 0.0
C156 C 0.7734 0.61903 0.2529 0.0
C157 C 0.76069 0.62016 0.30552 0.0
C158 C 0.73991 0.62574 0.30284 0.0
C159 C 0.73179 0.63003 0.24721 0.0
C160 C 0.74474 0.63007 0.19465 0.0
C161 C 0.7656 0.62454 0.19735 0.0
O162 O 0.85654 0.56469 0.28827 0.0
O163 O 0.85957 0.60436 0.26053 0.0
O164 O 0.81538 0.51481 0.40085 0.0
O165 O 0.81169 0.50299 0.31033 0.0
C166 C 0.81179 0.4957 0.3652 0.0
O167 O 0.79091 0.5465 0.19933 0.0
O168 O 0.77927 0.53359 0.29609 0.0
O169 O 0.81408 0.62405 0.21491 0.0
O170 O 0.7928 0.59271 0.28184 0.0
H171 H 0.76743 0.61739 0.34863 0.0
H172 H 0.71645 0.63537 0.24513 0.0
H173 H 0.77597 0.62508 0.15675 0.0
H174 H 0.08234 0.33331 0.05492 0.0
H175 H 0.04736 0.31324 0.98056 0.0
H176 H 0.09572 0.37538 0.85591 0.0
H177 H 0.13083 0.39639 0.9322 0.0
H178 H 0.04674 0.36747 0.85729 0.0
H179 H 0.08353 0.31155 0.83577 0.0
H180 H 0.10122 0.28299 0.86789 0.0
H181 H 0.02589 0.22785 0.94493 0.0
H182 H 1.00784 0.25626 0.914 0.0
H183 H 0.95493 0.26075 0.6305 0.0
H184 H 0.99186 0.27758 0.70053 0.0
H185 H 0.95364 0.30909 0.81175 0.0
H186 H 0.91673 0.29283 0.73978 0.0
H187 H 1.00027 0.27127 0.80959 0.0
H188 H 1.00107 0.36826 0.87072 0.0
H189 H 0.98662 0.39791 0.82767 0.0
H190 H 0.99306 0.37297 0.65093 0.0
H191 H 1.00789 0.34349 0.69287 0.0
C192 C 0.08563 0.34269 0.01156 0.0
C193 C 0.10917 0.3666 0.99949 0.0
C194 C 0.06568 0.33104 0.96886 0.0
C195 C 0.06893 0.34266 0.91245 0.0
C196 C 0.09281 0.3661 0.89927 0.0
C197 C 0.1129 0.37795 0.94249 0.0
C198 C 0.04664 0.33073 0.86907 0.0
C199 C 0.03668 0.34647 0.84655 0.0
C200 C 0.03367 0.30339 0.85438 0.0
C201 C 0.04439 0.28615 0.8729 0.0
C202 C 0.07079 0.29343 0.85993 0.0
C203 C 0.08087 0.27725 0.87786 0.0
C204 C 0.0647 0.25365 0.90853 0.0
C205 C 0.03839 0.24615 0.92119 0.0
C206 C 0.02821 0.26226 0.90339 0.0
C207 C 0.95423 0.27091 0.67046 0.0
C208 C 0.93321 0.27578 0.67968 0.0
C209 C 0.97531 0.28048 0.7105 0.0
C210 C 0.97583 0.29507 0.76083 0.0
C211 C 0.9539 0.29834 0.7725 0.0
C212 C 0.93271 0.28882 0.73194 0.0
C213 C 1.00005 0.30788 0.79865 0.0
C214 C 1.01035 0.29228 0.82022 0.0
C215 C 1.01381 0.33549 0.81073 0.0
C216 C 1.00531 0.35347 0.78502 0.0
C217 C 0.99949 0.3692 0.82268 0.0
C218 C 0.99123 0.38596 0.79846 0.0
C219 C 0.98884 0.38726 0.73662 0.0
C220 C 0.99483 0.37188 0.69883 0.0
C221 C 1.00315 0.35513 0.7228 0.0
H222 H 0.98241 0.40022 0.71798 0.0
H223 H 0.07255 0.24115 0.92239 0.0
H224 H 0.76633 0.6606 0.39323 0.0
H225 H 0.74727 0.67843 0.46423 0.0
H226 H 0.66866 0.62106 0.40347 0.0
H227 H 0.68774 0.60355 0.33195 0.0
H228 H 0.67581 0.66877 0.39307 0.0
H229 H 0.69032 0.62178 0.55084 0.0
H230 H 0.71231 0.60691 0.62245 0.0
H231 H 0.76543 0.68767 0.67444 0.0
H232 H 0.74402 0.70307 0.60269 0.0
H233 H 0.60633 0.69892 0.62184 0.0
H234 H 0.6236 0.67898 0.55092 0.0
H235 H 0.70298 0.74398 0.58113 0.0
H236 H 0.68568 0.76407 0.65086 0.0
H237 H 0.69484 0.69263 0.60709 0.0
H238 H 0.6801 0.73949 0.45215 0.0
H239 H 0.65439 0.75426 0.39289 0.0
H240 H 0.60088 0.67386 0.33883 0.0
H241 H 0.62594 0.65847 0.39926 0.0
C242 C 0.74496 0.65113 0.39684 0.0
C243 C 0.72849 0.63075 0.35709 0.0
C244 C 0.73405 0.66139 0.43729 0.0
C245 C 0.70649 0.65124 0.43894 0.0
C246 C 0.68997 0.62938 0.40272 0.0
C247 C 0.70085 0.61925 0.36217 0.0
C248 C 0.6952 0.66545 0.47209 0.0
C249 C 0.67963 0.67353 0.4402 0.0
C250 C 0.70091 0.67262 0.533 0.0
C251 C 0.71566 0.66359 0.57106 0.0
C252 C 0.70702 0.63641 0.57668 0.0
C253 C 0.71927 0.62787 0.61762 0.0
C254 C 0.74009 0.64634 0.65328 0.0
C255 C 0.7492 0.6734 0.64702 0.0
C256 C 0.73704 0.68203 0.6062 0.0
C257 C 0.62727 0.70941 0.61113 0.0
C258 C 0.64471 0.73315 0.64062 0.0
C259 C 0.63714 0.69798 0.57111 0.0
C260 C 0.66457 0.71001 0.56109 0.0
C261 C 0.68177 0.73446 0.58824 0.0
C262 C 0.67189 0.74602 0.6275 0.0
C263 C 0.6756 0.69569 0.52813 0.0
C264 C 0.6911 0.68772 0.55998 0.0
C265 C 0.66988 0.68867 0.46736 0.0
C266 C 0.65473 0.69778 0.4309 0.0
C267 C 0.66267 0.72489 0.42824 0.0
C268 C 0.64825 0.7334 0.39426 0.0
C269 C 0.62598 0.71502 0.36208 0.0
C270 C 0.61811 0.68808 0.36384 0.0
C271 C 0.63242 0.67945 0.39801 0.0
H272 H 0.61487 0.72166 0.33571 0.0
H273 H 0.74914 0.63973 0.686 0.0
H274 H 0.27675 0.95376 0.4006 0.0
H275 H 0.29233 0.98955 0.32866 0.0
H276 H 0.30281 0.94106 0.1979 0.0
H277 H 0.2885 0.90526 0.27207 0.0
H278 H 0.34409 0.98873 0.19628 0.0
H279 H 0.25151 0.95552 0.18745 0.0
H280 H 0.20627 0.93947 0.22532 0.0
H281 H 0.2316 0.01536 0.30632 0.0
H282 H 0.2771 0.03177 0.26964 0.0
H283 H 0.32899 0.08328 0.98055 0.0
H284 H 0.30886 0.04693 0.0521 0.0
H285 H 0.38192 0.08213 0.15269 0.0
H286 H 0.40237 0.11854 0.07969 0.0
H287 H 0.29708 0.03874 0.1624 0.0
H288 H 0.39259 0.0337 0.2034 0.0
H289 H 0.43452 0.04575 0.15159 0.0
H290 H 0.39706 0.03881 0.98203 0.0
H291 H 0.35487 0.02632 0.03292 0.0
C292 C 0.28237 0.95063 0.35651 0.0
C293 C 0.28181 0.92684 0.34221 0.0
C294 C 0.291 0.97106 0.31511 0.0
C295 C 0.2985 0.96799 0.25753 0.0
C296 C 0.29712 0.94389 0.24215 0.0
C297 C 0.28874 0.92338 0.2842 0.0
C298 C 0.30881 0.99058 0.215 0.0
C299 C 0.33373 0.99956 0.1887 0.0
C300 C 0.29516 1.00455 0.20409 0.0
C301 C 0.26778 0.99482 0.22612 0.0
C302 C 0.24748 0.96874 0.21368 0.0
C303 C 0.22178 0.95958 0.23488 0.0
C304 C 0.21607 0.97637 0.26829 0.0
C305 C 0.23605 1.00237 0.28045 0.0
C306 C 0.26179 1.01163 0.25939 0.0
C307 C 0.34053 0.08355 0.01878 0.0
C308 C 0.36719 0.10355 0.02478 0.0
C309 C 0.32905 0.06275 0.05952 0.0
C310 C 0.34402 0.06142 0.10699 0.0
C311 C 0.37016 0.08246 0.11561 0.0
C312 C 0.38173 0.10339 0.07452 0.0
C313 C 0.33256 0.03717 0.14466 0.0
C314 C 0.30742 0.02789 0.17006 0.0
C315 C 0.34552 0.02235 0.15273 0.0
C316 C 0.37072 0.02944 0.12196 0.0
C317 C 0.39332 0.03468 0.15508 0.0
C318 C 0.41712 0.04157 0.12588 0.0
C319 C 0.41849 0.04315 0.06357 0.0
C320 C 0.39603 0.0377 0.03029 0.0
C321 C 0.37219 0.03074 0.05927 0.0
H322 H 0.43694 0.04853 0.04108 0.0
H323 H 0.19616 0.96924 0.28468 0.0
H324 H 0.24847 0.50001 0.22728 0.0
H325 H 0.24036 0.53499 0.26259 0.0
H326 H 0.23708 0.55725 0.08055 0.0
H327 H 0.24539 0.52238 0.0447 0.0
H328 H 0.2672 0.60033 0.14987 0.0
H329 H 0.1809 0.52287 0.16109 0.0
H330 H 0.1483 0.47707 0.19059 0.0
H331 H 0.16394 0.49901 0.37561 0.0
H332 H 0.19697 0.54488 0.34722 0.0
H333 H 0.21411 0.6839 0.20349 0.0
H334 H 0.22024 0.64738 0.17021 0.0
H335 H 0.22156 0.62541 0.35356 0.0
H336 H 0.21496 0.66186 0.3871 0.0
H337 H 0.19244 0.5819 0.28498 0.0
H338 H 0.27894 0.65931 0.27348 0.0
H339 H 0.3121 0.70487 0.24369 0.0
H340 H 0.2963 0.68273 0.05878 0.0
H341 H 0.26276 0.63711 0.08747 0.0
C342 C 0.24597 0.51227 0.19461 0.0
C343 C 0.2475 0.50827 0.13304 0.0
C344 C 0.24122 0.53223 0.21495 0.0
C345 C 0.23784 0.54861 0.17426 0.0
C346 C 0.23957 0.54482 0.1128 0.0
C347 C 0.24423 0.5248 0.09237 0.0
C348 C 0.23296 0.56998 0.19583 0.0
C349 C 0.25063 0.59625 0.17873 0.0
C350 C 0.21173 0.56475 0.23475 0.0
C351 C 0.19161 0.53727 0.25201 0.0
C352 C 0.17753 0.5179 0.20808 0.0
C353 C 0.15896 0.49192 0.22459 0.0
C354 C 0.1541 0.48512 0.28493 0.0
C355 C 0.16775 0.50431 0.32888 0.0
C356 C 0.18638 0.5303 0.3126 0.0
C357 C 0.21568 0.67128 0.23674 0.0
C358 C 0.2142 0.6758 0.29791 0.0
C359 C 0.21928 0.65044 0.21766 0.0
C360 C 0.22175 0.63381 0.25934 0.0
C361 C 0.21978 0.638 0.32054 0.0
C362 C 0.2161 0.65886 0.33968 0.0
C363 C 0.22665 0.61228 0.23879 0.0
C364 C 0.20901 0.58599 0.25614 0.0
C365 C 0.24792 0.61745 0.20003 0.0
C366 C 0.26815 0.64485 0.18264 0.0
C367 C 0.28239 0.66421 0.22646 0.0
C368 C 0.30128 0.69003 0.20978 0.0
C369 C 0.30626 0.69671 0.14938 0.0
C370 C 0.2924 0.67754 0.10554 0.0
C371 C 0.27346 0.65169 0.12199 0.0
H372 H 0.32089 0.71671 0.13655 0.0
H373 H 0.13972 0.465 0.29762 0.0
H374 H 0.33041 0.54062 0.86483 0.0
H375 H 0.36755 0.58304 0.83221 0.0
H376 H 0.39871 0.5991 0.01174 0.0
H377 H 0.36111 0.55654 0.04489 0.0
H378 H 0.40144 0.64277 0.96232 0.0
H379 H 0.42662 0.57944 0.90263 0.0
H380 H 0.42069 0.53884 0.85385 0.0
H381 H 0.41182 0.56743 0.68374 0.0
H382 H 0.41735 0.60807 0.73163 0.0
H383 H 0.52736 0.75125 0.88224 0.0
H384 H 0.49166 0.70884 0.91904 0.0
H385 H 0.45898 0.68814 0.74124 0.0
H386 H 0.49501 0.73039 0.70375 0.0
H387 H 0.45788 0.64666 0.79239 0.0
H388 H 0.43135 0.70911 0.8511 0.0
H389 H 0.43686 0.74977 0.89875 0.0
H390 H 0.44772 0.72293 0.06927 0.0
H391 H 0.44261 0.68224 0.02247 0.0
C392 C 0.34518 0.55315 0.89743 0.0
C393 C 0.34292 0.54518 0.95739 0.0
C394 C 0.3665 0.57739 0.87863 0.0
C395 C 0.38623 0.59419 0.91923 0.0
C396 C 0.38382 0.58646 0.97948 0.0
C397 C 0.3624 0.56212 0.99837 0.0
C398 C 0.40919 0.61982 0.89852 0.0
C399 C 0.41405 0.64357 0.9258 0.0
C400 C 0.42531 0.62104 0.84982 0.0
C401 C 0.42217 0.5967 0.82082 0.0
C402 C 0.42322 0.57699 0.85488 0.0
C403 C 0.41997 0.55398 0.82738 0.0
C404 C 0.41582 0.55053 0.76576 0.0
C405 C 0.41501 0.57012 0.73147 0.0
C406 C 0.41823 0.59316 0.75877 0.0
C407 C 0.5126 0.73773 0.85082 0.0
C408 C 0.51409 0.74436 0.78994 0.0
C409 C 0.49207 0.71346 0.87208 0.0
C410 C 0.47231 0.69533 0.83319 0.0
C411 C 0.47392 0.70175 0.77225 0.0
C412 C 0.49454 0.72599 0.75086 0.0
C413 C 0.45007 0.66965 0.85596 0.0
C414 C 0.44534 0.64587 0.82904 0.0
C415 C 0.43402 0.66843 0.90483 0.0
C416 C 0.43685 0.69275 0.93318 0.0
C417 C 0.43509 0.71196 0.89869 0.0
C418 C 0.43811 0.735 0.92556 0.0
C419 C 0.44271 0.73896 0.98697 0.0
C420 C 0.44419 0.71985 0.02169 0.0
C421 C 0.44121 0.69678 0.99503 0.0
H422 H 0.44507 0.75682 0.00768 0.0
H423 H 0.4133 0.5327 0.74455 0.0
H424 H 0.47867 0.79418 0.52777 0.0
H425 H 0.43626 0.78893 0.49527 0.0
H426 H 0.42271 0.80844 0.6729 0.0
H427 H 0.46494 0.81301 0.70596 0.0
H428 H 0.37851 0.76834 0.63049 0.0
H429 H 0.44278 0.8537 0.55504 0.0
H430 H 0.48279 0.88579 0.50008 0.0
H431 H 0.44961 0.84283 0.33702 0.0
H432 H 0.40953 0.81026 0.39117 0.0
H433 H 0.2722 0.78855 0.55137 0.0
H434 H 0.31484 0.79508 0.58526 0.0
H435 H 0.3296 0.77485 0.40957 0.0
H436 H 0.28714 0.76889 0.37483 0.0
H437 H 0.37329 0.81601 0.45229 0.0
H438 H 0.30894 0.73038 0.52928 0.0
H439 H 0.26892 0.69887 0.58509 0.0
H440 H 0.30244 0.7431 0.74658 0.0
H441 H 0.34247 0.77516 0.69152 0.0
C442 C 0.46664 0.79734 0.5599 0.0
C443 C 0.47514 0.80411 0.61934 0.0
C444 C 0.44244 0.79449 0.54119 0.0
C445 C 0.42638 0.79872 0.5813 0.0
C446 C 0.43473 0.80515 0.641 0.0
C447 C 0.45889 0.80783 0.65985 0.0
C448 C 0.40083 0.79622 0.56101 0.0
C449 C 0.37746 0.77908 0.59204 0.0
C450 C 0.39923 0.80976 0.51005 0.0
C451 C 0.42325 0.82941 0.47729 0.0
C452 C 0.44409 0.85099 0.50754 0.0
C453 C 0.46677 0.86928 0.47652 0.0
C454 C 0.46877 0.86631 0.41513 0.0
C455 C 0.44805 0.84508 0.38459 0.0
C456 C 0.42533 0.82672 0.41542 0.0
C457 C 0.28448 0.7855 0.51978 0.0
C458 C 0.27613 0.77808 0.46033 0.0
C459 C 0.30888 0.78913 0.53939 0.0
C460 C 0.32534 0.78504 0.50032 0.0
C461 C 0.31726 0.77807 0.44067 0.0
C462 C 0.29293 0.77463 0.42086 0.0
C463 C 0.35097 0.78805 0.52161 0.0
C464 C 0.37436 0.80529 0.49078 0.0
C465 C 0.35259 0.77467 0.57288 0.0
C466 C 0.32861 0.7553 0.60615 0.0
C467 C 0.3077 0.73349 0.57661 0.0
C468 C 0.28502 0.71553 0.60812 0.0
C469 C 0.28311 0.71903 0.66931 0.0
C470 C 0.30393 0.74045 0.69916 0.0
C471 C 0.32662 0.75851 0.66783 0.0
H472 H 0.26553 0.70512 0.69362 0.0
H473 H 0.48635 0.88049 0.3912 0.0
H474 H 0.52943 0.24124 0.96558 0.0
H475 H 0.56695 0.23712 0.93056 0.0
H476 H 0.54474 0.23959 0.74797 0.0
H477 H 0.50708 0.24347 0.78249 0.0
H478 H 0.55728 0.20123 0.76342 0.0
H479 H 0.59622 0.29353 0.81292 0.0
H480 H 0.60587 0.33145 0.87829 0.0
H481 H 0.64489 0.30662 1.00337 0.0
H482 H 0.63506 0.26826 0.93924 0.0
H483 H 0.67598 0.22012 0.62845 0.0
H484 H 0.6396 0.2269 0.66066 0.0
H485 H 0.66164 0.22712 0.84471 0.0
H486 H 0.6982 0.22077 0.81264 0.0
H487 H 0.64939 0.265 0.82711 0.0
H488 H 0.60915 0.17216 0.78147 0.0
H489 H 0.59836 0.13307 0.71912 0.0
H490 H 0.56126 0.15819 0.58951 0.0
H491 H 0.57215 0.19764 0.65075 0.0
C492 C 0.53245 0.24082 0.91796 0.0
C493 C 0.51519 0.24271 0.87692 0.0
C494 C 0.55403 0.23861 0.89798 0.0
C495 C 0.55888 0.23833 0.83656 0.0
C496 C 0.54146 0.23981 0.79554 0.0
C497 C 0.51994 0.24209 0.81544 0.0
C498 C 0.58204 0.2364 0.81498 0.0
C499 C 0.57746 0.21541 0.77666 0.0
C500 C 0.60835 0.25454 0.83329 0.0
C501 C 0.61467 0.27785 0.8715 0.0
C502 C 0.6067 0.29604 0.85456 0.0
C503 C 0.61221 0.31763 0.89138 0.0
C504 C 0.62593 0.32141 0.94502 0.0
C505 C 0.63423 0.30365 0.96184 0.0
C506 C 0.62871 0.28198 0.92526 0.0
C507 C 0.67306 0.22166 0.67574 0.0
C508 C 0.68978 0.21971 0.71806 0.0
C509 C 0.65223 0.22548 0.69415 0.0
C510 C 0.6476 0.22719 0.75526 0.0
C511 C 0.66473 0.22585 0.79739 0.0
C512 C 0.68557 0.22211 0.779 0.0
C513 C 0.62463 0.2298 0.77551 0.0
C514 C 0.62923 0.25089 0.81365 0.0
C515 C 0.59829 0.21169 0.75728 0.0
C516 C 0.59173 0.188 0.72037 0.0
C517 C 0.59889 0.16946 0.73943 0.0
C518 C 0.59272 0.14722 0.70434 0.0
C519 C 0.57921 0.14319 0.6503 0.0
C520 C 0.57177 0.16136 0.63132 0.0
C521 C 0.57792 0.18366 0.66622 0.0
H522 H 0.57444 0.12595 0.62321 0.0
H523 H 0.63016 0.33813 0.97349 0.0
H524 H 0.78975 0.29034 0.63718 0.0
H525 H 0.79419 0.33194 0.60092 0.0
H526 H 0.78506 0.30351 0.41953 0.0
H527 H 0.78126 0.26218 0.45526 0.0
H528 H 0.82335 0.35332 0.42476 0.0
H529 H 0.73409 0.3047 0.49673 0.0
H530 H 0.69914 0.2791 0.57079 0.0
H531 H 0.73247 0.34626 0.68913 0.0
H532 H 0.76791 0.37213 0.61621 0.0
H533 H 0.80215 0.45302 0.2958 0.0
H534 H 0.79602 0.41021 0.32925 0.0
H535 H 0.80725 0.43736 0.51204 0.0
H536 H 0.81294 0.4799 0.47886 0.0
H537 H 0.76678 0.38749 0.50422 0.0
H538 H 0.85686 0.43531 0.43251 0.0
H539 H 0.89213 0.46023 0.35866 0.0
H540 H 0.85651 0.39366 0.23871 0.0
H541 H 0.82081 0.36847 0.31156 0.0
C542 C 0.78872 0.29293 0.58956 0.0
C543 C 0.7851 0.27285 0.5492 0.0
C544 C 0.79112 0.31671 0.56887 0.0
C545 C 0.78959 0.32079 0.50745 0.0
C546 C 0.78628 0.30088 0.46709 0.0
C547 C 0.78405 0.27718 0.48768 0.0
C548 C 0.79161 0.34584 0.48517 0.0
C549 C 0.8107 0.36056 0.44155 0.0
C550 C 0.77544 0.35563 0.50773 0.0
C551 C 0.75381 0.34029 0.55118 0.0
C552 C 0.73407 0.31397 0.53869 0.0
C553 C 0.71416 0.2994 0.58046 0.0
C554 C 0.71362 0.31102 0.63468 0.0
C555 C 0.73293 0.33727 0.64714 0.0
C556 C 0.75293 0.3519 0.60558 0.0
C557 C 0.80332 0.44981 0.34307 0.0
C558 C 0.80814 0.46981 0.3847 0.0
C559 C 0.79988 0.42538 0.36217 0.0
C560 C 0.80144 0.42059 0.42322 0.0
C561 C 0.80594 0.44051 0.46478 0.0
C562 C 0.8093 0.46487 0.44573 0.0
C563 C 0.7986 0.39498 0.44397 0.0
C564 C 0.77935 0.38016 0.4873 0.0
C565 C 0.81453 0.38501 0.42098 0.0
C566 C 0.83602 0.40012 0.37723 0.0
C567 C 0.85643 0.42607 0.39019 0.0
C568 C 0.87652 0.44023 0.34855 0.0
C569 C 0.87652 0.42857 0.29396 0.0
C570 C 0.85646 0.40269 0.28097 0.0
C571 C 0.83631 0.38845 0.32243 0.0
H572 H 0.89209 0.43956 0.26178 0.0
H573 H 0.69822 0.2997 0.66699 0.0
H574 H 0.54127 0.32758 0.14731 0.0
H575 H 0.58368 0.36504 0.17967 0.0
H576 H 0.60649 0.38612 0.9958 0.0
H577 H 0.56382 0.34846 0.96307 0.0
H578 H 0.64694 0.38797 0.06381 0.0
H579 H 0.58738 0.42176 0.07706 0.0
H580 H 0.54659 0.42146 0.10745 0.0
H581 H 0.56676 0.42187 0.29205 0.0
H582 H 0.60748 0.42175 0.26278 0.0
H583 H 0.7571 0.51602 0.12314 0.0
H584 H 0.71483 0.47944 0.08783 0.0
H585 H 0.68911 0.45742 0.26985 0.0
H586 H 0.73145 0.49416 0.30577 0.0
H587 H 0.65006 0.4565 0.20092 0.0
H588 H 0.70901 0.422 0.18846 0.0
H589 H 0.74947 0.42148 0.15901 0.0
H590 H 0.73027 0.42177 0.97394 0.0
H591 H 0.68987 0.42272 1.00231 0.0
C592 C 0.55528 0.34023 0.11372 0.0
C593 C 0.54917 0.33522 0.05265 0.0
C594 C 0.5795 0.36169 0.1323 0.0
C595 C 0.5982 0.37864 0.09025 0.0
C596 C 0.59233 0.37341 0.02908 0.0
C597 C 0.56794 0.35198 0.01042 0.0
C598 C 0.62381 0.40168 0.11053 0.0
C599 C 0.64765 0.4032 0.09299 0.0
C600 C 0.62475 0.4212 0.14991 0.0
C601 C 0.60037 0.4215 0.1677 0.0
C602 C 0.58302 0.42158 0.12415 0.0
C603 C 0.55992 0.42152 0.14116 0.0
C604 C 0.55406 0.42158 0.20164 0.0
C605 C 0.57132 0.42179 0.24522 0.0
C606 C 0.59442 0.42181 0.22844 0.0
C607 C 0.7425 0.50345 0.15585 0.0
C608 C 0.7478 0.50807 0.21744 0.0
C609 C 0.71832 0.48243 0.13548 0.0
C610 C 0.69882 0.46545 0.1761 0.0
C611 C 0.70385 0.47021 0.23761 0.0
C612 C 0.72812 0.4912 0.25809 0.0
C613 C 0.67323 0.4428 0.15426 0.0
C614 C 0.64938 0.44134 0.17157 0.0
C615 C 0.67228 0.4233 0.11476 0.0
C616 C 0.69656 0.42274 0.09753 0.0
C617 C 0.71354 0.42221 0.14148 0.0
C618 C 0.73644 0.42179 0.12498 0.0
C619 C 0.74248 0.42168 0.06464 0.0
C620 C 0.72559 0.42191 0.02067 0.0
C621 C 0.70268 0.42238 0.03693 0.0
H622 H 0.76022 0.42134 0.05195 0.0
H623 H 0.53616 0.42152 0.21472 0.0
H624 H 0.92631 0.32076 0.46811 0.0
H625 H 0.96555 0.34286 0.40374 0.0
H626 H 0.96798 0.27024 0.39293 0.0
H627 H 0.92848 0.24808 0.45633 0.0
H628 H 1.01477 0.31417 0.43998 0.0
H629 H 0.95661 0.29321 0.27045 0.0
H630 H 0.92011 0.29238 0.21306 0.0
H631 H 0.96055 0.37756 0.21524 0.0
H632 H 0.99714 0.37889 0.27342 0.0
H633 H 0.11983 0.34925 0.23271 0.0
H634 H 0.08163 0.33177 0.29956 0.0
H635 H 0.07588 0.4019 0.27043 0.0
H636 H 0.11366 0.4189 0.20191 0.0
H637 H 0.03073 0.36111 0.24668 0.0
H638 H 0.08915 0.38389 0.41208 0.0
H639 H 0.1255 0.38684 0.47408 0.0
H640 H 0.08542 0.30188 0.48622 0.0
H641 H 0.04898 0.29836 0.42357 0.0
C642 C 0.93429 0.30915 0.44897 0.0
C643 C 0.92396 0.28253 0.4659 0.0
C644 C 0.95698 0.32188 0.41299 0.0
C645 C 0.9699 0.30828 0.39404 0.0
C646 C 0.9584 0.28115 0.40715 0.0
C647 C 0.93552 0.26834 0.4424 0.0
C648 C 0.99672 0.32293 0.36629 0.0
C649 C 0.01828 0.32414 0.39725 0.0
C650 C 1.00144 0.3369 0.31197 0.0
C651 C 0.97949 0.33613 0.27684 0.0
C652 C 0.95762 0.31176 0.25917 0.0
C653 C 0.93693 0.3112 0.22639 0.0
C654 C 0.93798 0.3349 0.21066 0.0
C655 C 0.95975 0.35921 0.22753 0.0
C656 C 0.98048 0.35988 0.26036 0.0
C657 C 0.11129 0.36154 0.24318 0.0
C658 C 0.11997 0.38561 0.21297 0.0
C659 C 0.08922 0.35143 0.28107 0.0
C660 C 0.07559 0.36538 0.29008 0.0
C661 C 0.08584 0.39061 0.26406 0.0
C662 C 0.10774 0.40058 0.22571 0.0
C663 C 0.04906 0.35227 0.32002 0.0
C664 C 0.02746 0.35132 0.28957 0.0
C665 C 0.04439 0.33888 0.37538 0.0
C666 C 0.06642 0.34086 0.41257 0.0
C667 C 0.08819 0.36581 0.42746 0.0
C668 C 0.10879 0.36759 0.46285 0.0
C669 C 0.1078 0.34457 0.48395 0.0
C670 C 0.08618 0.3197 0.46978 0.0
C671 C 0.06553 0.3178 0.43438 0.0
H672 H 0.12376 0.34599 0.51136 0.0
H673 H 0.92195 0.33442 0.18527 0.0
H674 H 0.69834 0.60488 0.1332 0.0
H675 H 0.68169 0.62535 0.06304 0.0
H676 H 0.75756 0.69766 0.06725 0.0
H677 H 0.7743 0.67697 0.13713 0.0
H678 H 0.71591 0.70572 0.09497 0.0
H679 H 0.73752 0.66339 0.94015 0.0
H680 H 0.7383 0.62653 0.88784 0.0
H681 H 0.65334 0.58462 0.87499 0.0
H682 H 0.65201 0.6211 0.92792 0.0
H683 H 0.68021 0.77086 0.87098 0.0
H684 H 0.70001 0.7527 0.93903 0.0
H685 H 0.62989 0.67535 0.92398 0.0
H686 H 0.61056 0.69344 0.85458 0.0
H687 H 0.67139 0.67158 0.89976 0.0
H688 H 0.64935 0.71283 0.05793 0.0
H689 H 0.64826 0.74936 0.11114 0.0
H690 H 0.73335 0.79284 0.11904 0.0
H691 H 0.73496 0.7567 0.06521 0.0
C692 C 0.71176 0.62474 0.11703 0.0
C693 C 0.73773 0.6392 0.13953 0.0
C694 C 0.70221 0.63652 0.07734 0.0
C695 C 0.71835 0.6631 0.05995 0.0
C696 C 0.74476 0.67713 0.08002 0.0
C697 C 0.75443 0.66521 0.11921 0.0
C698 C 0.7068 0.67675 0.02553 0.0
C699 C 0.70657 0.69856 0.05175 0.0
C700 C 0.69396 0.66697 0.97 0.0
C701 C 0.69466 0.64489 0.93851 0.0
C702 C 0.71898 0.64621 0.92667 0.0
C703 C 0.71953 0.62541 0.89678 0.0
C704 C 0.69588 0.60322 0.87823 0.0
C705 C 0.67164 0.60181 0.88943 0.0
C706 C 0.67098 0.62256 0.91932 0.0
C707 C 0.66862 0.75026 0.88441 0.0
C708 C 0.64369 0.73361 0.85845 0.0
C709 C 0.68001 0.73981 0.92299 0.0
C710 C 0.66652 0.71255 0.93673 0.0
C711 C 0.64079 0.69637 0.91396 0.0
C712 C 0.62956 0.70676 0.87501 0.0
C713 C 0.68006 0.70037 0.96954 0.0
C714 C 0.68074 0.67883 0.94293 0.0
C715 C 0.6932 0.71035 0.02484 0.0
C716 C 0.69228 0.73216 0.05697 0.0
C717 C 0.66784 0.73028 0.07054 0.0
C718 C 0.66712 0.75089 0.10093 0.0
C719 C 0.69072 0.77343 0.11832 0.0
C720 C 0.71508 0.77538 0.10547 0.0
C721 C 0.71591 0.75483 0.07508 0.0
H722 H 0.69012 0.78936 0.14186 0.0
H723 H 0.69635 0.58714 0.85506 0.0
H724 H 0.3446 0.10617 0.79683 0.0
H725 H 0.32707 0.06679 0.7326 0.0
H726 H 0.40053 0.06654 0.75075 0.0
H727 H 0.41789 0.10571 0.8159 0.0
H728 H 0.3743 0.04971 0.6328 0.0
H729 H 0.3566 0.03256 0.84442 0.0
H730 H 0.34004 0.03789 0.94167 0.0
H731 H 0.26198 1.00657 0.86773 0.0
H732 H 0.27823 1.00163 0.76952 0.0
H733 H 0.32672 0.91866 0.54698 0.0
H734 H 0.34754 0.95699 0.61427 0.0
H735 H 0.27212 0.95284 0.63739 0.0
H736 H 0.25124 0.91402 0.57158 0.0
H737 H 0.30054 0.97234 0.73544 0.0
H738 H 0.31578 0.9916 0.52634 0.0
H739 H 0.33018 0.98871 0.42441 0.0
H740 H 0.40941 0.01704 0.48794 0.0
H741 H 0.39549 0.02008 0.59037 0.0
C742 C 0.35748 0.09855 0.78444 0.0
C743 C 0.38279 0.10928 0.81022 0.0
C744 C 0.34733 0.07582 0.74849 0.0
C745 C 0.36236 0.06352 0.7376 0.0
C746 C 0.38861 0.07573 0.75851 0.0
C747 C 0.39865 0.09828 0.79513 0.0
C748 C 0.34968 0.03643 0.71107 0.0
C749 C 0.35844 0.03272 0.65554 0.0
C750 C 0.32853 0.01436 0.74015 0.0
C751 C 0.31869 0.01696 0.79945 0.0
C752 C 0.33596 0.02701 0.84873 0.0
C753 C 0.32661 0.02993 0.90408 0.0
C754 C 0.29998 0.02258 0.91089 0.0
C755 C 0.28262 1.01228 0.86237 0.0
C756 C 0.29188 1.00942 0.80685 0.0
C757 C 0.31436 0.92501 0.56927 0.0
C758 C 0.28731 0.91316 0.55478 0.0
C759 C 0.32635 0.94729 0.60671 0.0
C760 C 0.3116 0.95842 0.62936 0.0
C761 C 0.28401 0.94482 0.62017 0.0
C762 C 0.27197 0.92236 0.58318 0.0
C763 C 0.32516 0.98545 0.65693 0.0
C764 C 0.31654 0.98922 0.71271 0.0
C765 C 0.34612 1.00769 0.62755 0.0
C766 C 0.35454 1.0058 0.5661 0.0
C767 C 0.33624 0.99705 0.51864 0.0
C768 C 0.34431 0.99542 0.46077 0.0
C769 C 0.37064 1.00254 0.44976 0.0
C770 C 0.389 1.01146 0.49656 0.0
C771 C 0.38106 0.0132 0.55451 0.0
H772 H 0.37683 1.00123 0.40492 0.0
H773 H 0.29275 0.0248 0.95374 0.0
H774 H 0.31414 0.42351 0.94941 0.0
H775 H 0.33896 0.40053 0.93147 0.0
H776 H 0.33104 0.37835 0.11706 0.0
H777 H 0.30595 0.40105 0.13542 0.0
H778 H 0.38325 0.39787 0.07043 0.0
H779 H 0.29247 0.33341 0.02044 0.0
H780 H 0.25013 0.31787 0.96728 0.0
H781 H 0.28987 0.33031 0.79889 0.0
H782 H 0.33254 0.34629 0.85107 0.0
H783 H 0.42317 0.30153 0.0573 0.0
H784 H 0.40025 0.32633 0.07395 0.0
H785 H 0.39059 0.32984 0.88368 0.0
H786 H 0.41236 0.30379 0.86704 0.0
H787 H 0.3479 0.32124 0.93122 0.0
H788 H 0.43801 0.38516 0.97491 0.0
H789 H 0.4818 0.40316 0.02296 0.0
H790 H 0.44636 0.39554 0.19524 0.0
H791 H 0.40228 0.37716 0.14829 0.0
C792 C 0.31774 0.41386 0.98659 0.0
C793 C 0.30791 0.41415 0.04392 0.0
C794 C 0.33189 0.40063 0.97615 0.0
C795 C 0.33681 0.38757 0.02283 0.0
C796 C 0.32753 0.38827 0.08032 0.0
C797 C 0.31305 0.40119 0.09066 0.0
C798 C 0.35116 0.37277 0.0115 0.0
C799 C 0.37541 0.38092 0.04053 0.0
C800 C 0.34141 0.35118 0.97101 0.0
C801 C 0.31573 0.34128 0.93965 0.0
C802 C 0.29221 0.33302 0.97207 0.0
C803 C 0.26815 0.3241 0.94212 0.0
C804 C 0.26732 0.32317 0.87974 0.0
C805 C 0.29055 0.33107 0.8472 0.0
C806 C 0.31467 0.34004 0.87694 0.0
C807 C 0.41631 0.3077 0.01889 0.0
C808 C 0.4198 0.30074 0.96074 0.0
C809 C 0.40328 0.32209 0.02848 0.0
C810 C 0.39403 0.33063 0.98012 0.0
C811 C 0.39748 0.32364 0.92196 0.0
C812 C 0.41004 0.30876 0.91242 0.0
C813 C 0.38023 0.34623 0.99021 0.0
C814 C 0.35598 0.33824 0.96098 0.0
C815 C 0.39029 0.36832 0.02969 0.0
C816 C 0.41679 0.37954 0.0581 0.0
C817 C 0.43952 0.38716 0.02308 0.0
C818 C 0.4644 0.39745 0.05011 0.0
C819 C 0.46685 0.40042 0.11213 0.0
C820 C 0.44443 0.39319 0.14722 0.0
C821 C 0.41949 0.38286 0.12041 0.0
H822 H 0.48613 0.40838 0.13297 0.0
H823 H 0.24867 0.31628 0.85663 0.0
H824 H 0.64941 0.90213 0.71993 0.0
H825 H 0.67266 0.94988 0.70306 0.0
H826 H 0.59779 0.94774 0.69082 0.0
H827 H 0.57431 0.89958 0.70534 0.0
H828 H 0.62822 0.97926 0.60978 0.0
H829 H 0.64091 0.97265 0.81774 0.0
H830 H 0.65324 0.95759 0.90876 0.0
H831 H 0.73361 0.99293 0.84698 0.0
H832 H 0.72168 1.00786 0.75512 0.0
H833 H 0.68919 0.12125 0.6378 0.0
H834 H 0.66308 0.07343 0.65661 0.0
H835 H 0.73347 0.06748 0.63823 0.0
H836 H 0.7597 0.11516 0.61905 0.0
H837 H 0.70372 0.04083 0.73813 0.0
H838 H 0.68872 0.04642 0.52773 0.0
H839 H 0.67501 0.06237 0.44037 0.0
H840 H 0.59673 0.02996 0.51349 0.0
H841 H 0.61009 0.01414 0.60174 0.0
C842 C 0.6378 0.91176 0.71407 0.0
C843 C 0.6099 0.89687 0.71456 0.0
C844 C 0.6512 0.93925 0.70465 0.0
C845 C 0.63714 0.95281 0.69678 0.0
C846 C 0.60924 0.93795 0.69693 0.0
C847 C 0.59579 0.91034 0.7055 0.0
C848 C 0.65157 0.9823 0.68722 0.0
C849 C 0.64443 0.99268 0.63858 0.0
C850 C 0.67306 1.00011 0.72405 0.0
C851 C 0.68033 0.99116 0.77926 0.0
C852 C 0.66117 0.97704 0.82334 0.0
C853 C 0.6681 0.96855 0.87512 0.0
C854 C 0.69418 0.97425 0.88358 0.0
C855 C 0.71341 0.9885 0.84033 0.0
C856 C 0.70658 0.99699 0.78841 0.0
C857 C 0.69915 0.1098 0.63742 0.0
C858 C 0.72663 0.12221 0.62653 0.0
C859 C 0.68414 0.08239 0.64811 0.0
C860 C 0.69623 0.06673 0.64858 0.0
C861 C 0.72364 0.07907 0.6381 0.0
C862 C 0.73861 0.1064 0.62682 0.0
C863 C 0.68049 0.03756 0.66057 0.0
C864 C 0.6874 0.02731 0.70967 0.0
C865 C 0.65857 0.01997 0.62481 0.0
C866 C 0.65049 0.02934 0.57162 0.0
C867 C 0.66865 0.04289 0.52542 0.0
C868 C 0.66093 0.05187 0.47569 0.0
C869 C 0.63504 0.04725 0.47146 0.0
C870 C 0.61679 0.03356 0.51687 0.0
C871 C 0.62442 0.02457 0.56673 0.0
H872 H 0.6291 0.05422 0.43293 0.0
H873 H 0.6995 0.96766 0.92371 0.0
H874 H 0.90294 0.56914 0.29046 0.0
H875 H 0.95063 0.59243 0.31021 0.0
H876 H 0.95194 0.66711 0.31303 0.0
H877 H 0.90455 0.64405 0.29066 0.0
H878 H 0.99371 0.67498 0.25987 0.0
H879 H 0.95369 0.63218 0.44511 0.0
H880 H 0.92527 0.59478 0.51147 0.0
H881 H 0.96909 0.55618 0.46542 0.0
H882 H 0.99768 0.59326 0.39845 0.0
H883 H 0.11694 0.75175 0.4081 0.0
H884 H 0.06939 0.72634 0.38746 0.0
H885 H 0.07471 0.6561 0.35716 0.0
H886 H 0.12237 0.68134 0.37818 0.0
H887 H 0.03032 0.64534 0.42303 0.0
H888 H 0.07161 0.69117 0.23973 0.0
H889 H 0.10129 0.73126 0.18174 0.0
H890 H 0.05479 0.76656 0.23176 0.0
H891 H 0.02503 0.72681 0.29063 0.0
C892 C 0.91338 0.59054 0.295 0.0
C893 C 0.89977 0.60466 0.28893 0.0
C894 C 0.94073 0.60388 0.30683 0.0
C895 C 0.95509 0.63163 0.31444 0.0
C896 C 0.94154 0.64575 0.30749 0.0
C897 C 0.91431 0.63248 0.2947 0.0
C898 C 0.98412 0.64602 0.32946 0.0
C899 C 1.00154 0.66857 0.29606 0.0
C900 C 0.9948 0.63766 0.37603 0.0
C901 C 0.97765 0.61537 0.4163 0.0
C902 C 0.95715 0.61563 0.44882 0.0
C903 C 0.94102 0.59451 0.48658 0.0
C904 C 0.94529 0.57308 0.49244 0.0
C905 C 0.96577 0.57277 0.46074 0.0
C906 C 0.98197 0.59385 0.42296 0.0
C907 C 0.10807 0.73086 0.39741 0.0
C908 C 0.1237 0.71871 0.39464 0.0
C909 C 0.0808 0.71635 0.38534 0.0
C910 C 0.06841 0.68932 0.36991 0.0
C911 C 0.08376 0.67692 0.36877 0.0
C912 C 0.11109 0.69145 0.38071 0.0
C913 C 0.03962 0.67424 0.35375 0.0
C914 C 0.02235 0.65159 0.38681 0.0
C915 C 0.02901 0.6827 0.30748 0.0
C916 C 0.04623 0.70611 0.27001 0.0
C917 C 0.06777 0.70751 0.23848 0.0
C918 C 0.08461 0.73018 0.2055 0.0
C919 C 0.08001 0.7515 0.2034 0.0
C920 C 0.05837 0.75006 0.23362 0.0
C921 C 0.04148 0.72745 0.2667 0.0
H922 H 0.09319 0.76913 0.17831 0.0
H923 H 0.93277 0.55675 0.52168 0.0
H924 H 0.28016 0.47838 0.35762 0.0
H925 H 0.27357 0.47154 0.46499 0.0
H926 H 0.22611 0.38694 0.43689 0.0
H927 H 0.23165 0.39386 0.32871 0.0
H928 H 0.20407 0.40007 0.51911 0.0
H929 H 0.29208 0.41774 0.48948 0.0
H930 H 0.33811 0.44125 0.45248 0.0
H931 H 0.35395 0.51045 0.5533 0.0
H932 H 0.30789 0.4875 0.59025 0.0
H933 H 0.23284 0.3878 0.83978 0.0
H934 H 0.22906 0.38292 0.73062 0.0
H935 H 0.2429 0.46257 0.71489 0.0
H936 H 0.24613 0.46754 0.82311 0.0
H937 H 0.28105 0.44552 0.65621 0.0
H938 H 0.18944 0.42513 0.68007 0.0
H939 H 0.14366 0.3985 0.71735 0.0
H940 H 0.13566 0.3296 0.628 0.0
H941 H 0.18163 0.35572 0.59119 0.0
C942 C 0.26842 0.4583 0.37428 0.0
C943 C 0.25661 0.43663 0.33483 0.0
C944 C 0.26475 0.45438 0.43577 0.0
C945 C 0.24983 0.42865 0.45932 0.0
C946 C 0.2378 0.40696 0.41989 0.0
C947 C 0.24105 0.41093 0.35813 0.0
C948 C 0.24664 0.42465 0.52502 0.0
C949 C 0.22098 0.40965 0.54898 0.0
C950 C 0.26865 0.43704 0.56429 0.0
C951 C 0.29644 0.45093 0.54231 0.0
C952 C 0.30532 0.43803 0.50345 0.0
C953 C 0.33143 0.45126 0.48253 0.0
C954 C 0.34893 0.47734 0.50044 0.0
C955 C 0.34037 0.49025 0.53943 0.0
C956 C 0.31427 0.47713 0.56044 0.0
C957 C 0.23437 0.40401 0.81317 0.0
C958 C 0.24005 0.42815 0.84017 0.0
C959 C 0.23218 0.40116 0.75092 0.0
C960 C 0.23576 0.42242 0.71508 0.0
C961 C 0.24001 0.44595 0.74204 0.0
C962 C 0.24186 0.44871 0.80398 0.0
C963 C 0.23858 0.42173 0.64969 0.0
C964 C 0.26425 0.43574 0.62602 0.0
C965 C 0.21668 0.40799 0.61099 0.0
C966 C 0.18916 0.39228 0.63378 0.0
C967 C 0.1781 0.40421 0.66917 0.0
C968 C 0.15206 0.38923 0.69002 0.0
C969 C 0.1368 0.36234 0.67531 0.0
C970 C 0.14754 0.3504 0.63959 0.0
C971 C 0.17358 0.36528 0.61874 0.0
H972 H 0.11664 0.35079 0.69141 0.0
H973 H 0.36913 0.48755 0.48418 0.0
H974 H 0.57858 0.80015 0.49019 0.0
H975 H 0.58566 0.79988 0.38222 0.0
H976 H 0.59935 0.87964 0.36959 0.0
H977 H 0.59213 0.87998 0.47676 0.0
H978 H 0.56323 0.84756 0.28926 0.0
H979 H 0.64924 0.86422 0.35639 0.0
H980 H 0.68017 0.85452 0.41073 0.0
H981 H 0.65088 0.78151 0.31328 0.0
H982 H 0.61929 0.79039 0.25967 0.0
H983 H 0.60353 0.87871 0.99003 0.0
H984 H 0.60242 0.87822 0.09911 0.0
H985 H 0.59668 0.80147 0.09918 0.0
H986 H 0.59863 0.80224 0.98999 0.0
H987 H 0.62773 0.82949 0.18597 0.0
H988 H 0.54158 0.80907 0.12312 0.0
H989 H 0.50807 0.81466 0.06815 0.0
H990 H 0.53394 0.88917 0.15662 0.0
H991 H 0.56786 0.88419 0.21158 0.0
C992 C 0.58357 0.81779 0.46458 0.0
C993 C 0.58467 0.84004 0.49225 0.0
C994 C 0.58763 0.81762 0.40277 0.0
C995 C 0.59303 0.83975 0.36754 0.0
C996 C 0.59508 0.86227 0.39559 0.0
C997 C 0.59103 0.86246 0.45709 0.0
C998 C 0.59489 0.8391 0.30111 0.0
C999 C 0.57762 0.84398 0.26676 0.0
C1000 C 0.61283 0.83327 0.27145 0.0
C1001 C 0.63164 0.82783 0.30453 0.0
C1002 C 0.64913 0.84592 0.34715 0.0
C1003 C 0.66681 0.84057 0.37783 0.0
C1004 C 0.66739 0.81732 0.3658 0.0
C1005 C 0.65032 0.79941 0.32298 0.0
C1006 C 0.6325 0.80459 0.29246 0.0
C1007 C 0.60217 0.86177 0.01321 0.0
C1008 C 0.60101 0.84045 0.98113 0.0
C1009 C 0.60138 0.86144 0.07572 0.0
C1010 C 0.59891 0.83955 0.10771 0.0
C1011 C 0.59849 0.81856 0.07577 0.0
C1012 C 0.59957 0.81901 0.01321 0.0
C1013 C 0.59641 0.83845 0.17424 0.0
C1014 C 0.61338 0.83311 0.20852 0.0
C1015 C 0.57779 0.84327 0.20403 0.0
C1016 C 0.55744 0.84638 0.17103 0.0
C1017 C 0.54026 0.82675 0.13051 0.0
C1018 C 0.52117 0.82979 0.09941 0.0
C1019 C 0.51893 0.85229 0.10876 0.0
C1020 C 0.53573 0.87177 0.14936 0.0
C1021 C 0.55488 0.86884 0.18054 0.0
H1022 H 0.50413 0.85461 0.08466 0.0
H1023 H 0.68113 0.81324 0.38947 0.0
H1024 H 0.2168 0.80805 0.66449 0.0
H1025 H 0.21944 0.80929 0.77359 0.0
H1026 H 0.15715 0.72739 0.78114 0.0
H1027 H 0.15449 0.72588 0.67179 0.0
H1028 H 0.15129 0.76004 0.86595 0.0
H1029 H 0.21763 0.74032 0.7993 0.0
H1030 H 0.25606 0.74746 0.73919 0.0
H1031 H 0.30396 0.82374 0.82134 0.0
H1032 H 0.26563 0.81725 0.88123 0.0
H1033 H 0.17011 0.73464 0.16856 0.0
H1034 H 0.16312 0.7347 0.06109 0.0
H1035 H 0.23621 0.80956 0.04586 0.0
H1036 H 0.24394 0.80875 0.15299 0.0
H1037 H 0.23579 0.78002 0.96314 0.0
H1038 H 0.16905 0.79973 0.03078 0.0
H1039 H 0.12967 0.79325 0.0862 0.0
H1040 H 0.08216 0.7176 1.00115 0.0
H1041 H 0.1213 0.72345 0.94581 0.0
C1042 C 0.2035 0.79032 0.68926 0.0
C1043 C 0.18548 0.76682 0.65929 0.0
C1044 C 0.20512 0.79106 0.75169 0.0
C1045 C 0.18864 0.76838 0.78555 0.0
C1046 C 0.17007 0.74512 0.75592 0.0
C1047 C 0.16864 0.74428 0.69339 0.0
C1048 C 0.19134 0.76879 0.85174 0.0
C1049 C 0.16965 0.76413 0.88742 0.0
C1050 C 0.21546 0.77462 0.87957 0.0
C1051 C 0.23867 0.77841 0.84431 0.0
C1052 C 0.2363 0.7587 0.80423 0.0
C1053 C 0.25808 0.76262 0.77024 0.0
C1054 C 0.28243 0.78607 0.77633 0.0
C1055 C 0.28507 0.8056 0.81661 0.0
C1056 C 0.26332 0.80181 0.85061 0.0
C1057 C 0.18446 0.75136 0.14249 0.0
C1058 C 0.20757 0.77174 0.16941 0.0
C1059 C 0.1804 0.75144 0.08081 0.0
C1060 C 0.19896 0.7723 0.04478 0.0
C1061 C 0.22158 0.79315 0.07222 0.0
C1062 C 0.22593 0.79278 0.13365 0.0
C1063 C 0.19577 0.77166 0.97829 0.0
C1064 C 0.2174 0.77612 0.94221 0.0
C1065 C 0.17156 0.7657 0.95016 0.0
C1066 C 0.14816 0.76195 0.98447 0.0
C1067 C 0.15026 0.78161 0.02431 0.0
C1068 C 0.12797 0.77807 0.05562 0.0
C1069 C 0.10344 0.75504 0.04712 0.0
C1070 C 0.10117 0.73543 0.00762 0.0
C1071 C 0.12339 0.73886 0.97626 0.0
H1072 H 0.08614 0.75241 0.0709 0.0
H1073 H 0.29927 0.78909 0.74991 0.0
H1074 H 0.46814 0.28517 0.64854 0.0
H1075 H 0.46084 0.27744 0.54126 0.0
H1076 H 0.39692 0.19782 0.57446 0.0
H1077 H 0.40439 0.20526 0.68212 0.0
H1078 H 0.42755 0.19784 0.48631 0.0
H1079 H 0.38365 0.24596 0.53143 0.0
H1080 H 0.37858 0.28219 0.5742 0.0
H1081 H 0.44186 0.33865 0.46336 0.0
H1082 H 0.44757 0.30281 0.42051 0.0
H1083 H 0.39319 0.23111 0.16729 0.0
H1084 H 0.3866 0.22566 0.27536 0.0
H1085 H 0.46103 0.22729 0.29384 0.0
H1086 H 0.46759 0.23234 0.18607 0.0
H1087 H 0.4163 0.26062 0.35723 0.0
H1088 H 0.46055 0.1933 0.41627 0.0
H1089 H 0.46188 0.15494 0.37356 0.0
H1090 H 0.3902 0.1323 0.27595 0.0
H1091 H 0.38819 0.17026 0.31876 0.0
C1092 C 0.45247 0.26602 0.63314 0.0
C1093 C 0.43678 0.24587 0.67395 0.0
C1094 C 0.44825 0.26166 0.57172 0.0
C1095 C 0.42811 0.23715 0.54977 0.0
C1096 C 0.41254 0.2169 0.59037 0.0
C1097 C 0.41678 0.22123 0.6519 0.0
C1098 C 0.42366 0.23269 0.48438 0.0
C1099 C 0.42496 0.21148 0.45806 0.0
C1100 C 0.41959 0.25007 0.44764 0.0
C1101 C 0.41615 0.2717 0.47305 0.0
C1102 C 0.3966 0.26613 0.51646 0.0
C1103 C 0.3936 0.28659 0.54068 0.0
C1104 C 0.40992 0.31271 0.52158 0.0
C1105 C 0.42924 0.31841 0.47812 0.0
C1106 C 0.43235 0.29802 0.4538 0.0
C1107 C 0.40789 0.22972 0.19418 0.0
C1108 C 0.43099 0.2323 0.168 0.0
C1109 C 0.40414 0.22673 0.25601 0.0
C1110 C 0.42329 0.22604 0.29278 0.0
C1111 C 0.44579 0.22741 0.26641 0.0
C1112 C 0.44955 0.2304 0.20467 0.0
C1113 C 0.42105 0.22627 0.35888 0.0
C1114 C 0.41857 0.24676 0.38541 0.0
C1115 C 0.4235 0.20791 0.39578 0.0
C1116 C 0.42435 0.18478 0.37043 0.0
C1117 C 0.44499 0.18006 0.38596 0.0
C1118 C 0.44587 0.1584 0.36168 0.0
C1119 C 0.42617 0.14124 0.32196 0.0
C1120 C 0.40549 0.14566 0.30657 0.0
C1121 C 0.40449 0.16727 0.33078 0.0
H1122 H 0.42691 0.1245 0.30316 0.0
H1123 H 0.40757 0.32852 0.54039 0.0
H1124 H 0.81333 0.21113 0.34752 0.0
H1125 H 0.81321 0.21087 0.23821 0.0
H1126 H 0.73483 0.1419 0.23823 0.0
H1127 H 0.73474 0.14203 0.34762 0.0
H1128 H 0.76818 0.13818 0.15462 0.0
H1129 H 0.74182 0.20117 0.21348 0.0
H1130 H 0.74678 0.2404 0.26716 0.0
H1131 H 0.81995 0.29005 0.17522 0.0
H1132 H 0.81561 0.25101 0.12159 0.0
H1133 H 0.72184 0.14001 0.86417 0.0
H1134 H 0.72989 0.13971 0.97077 0.0
H1135 H 0.80355 0.2138 0.95379 0.0
H1136 H 0.79525 0.21454 0.84657 0.0
H1137 H 0.77658 0.21615 0.04586 0.0
H1138 H 0.80177 0.154 0.98137 0.0
H1139 H 0.7973 0.11491 0.92801 0.0
H1140 H 0.72767 0.06396 0.03004 0.0
H1141 H 0.7315 0.10279 0.08348 0.0
C1142 C 0.79611 0.19577 0.32436 0.0
C1143 C 0.77399 0.17665 0.35647 0.0
C1144 C 0.79605 0.19572 0.26179 0.0
C1145 C 0.77392 0.1765 0.22992 0.0
C1146 C 0.75212 0.15693 0.26181 0.0
C1147 C 0.75207 0.1571 0.3244 0.0
C1148 C 0.77316 0.1772 0.16342 0.0
C1149 C 0.76977 0.15512 0.13079 0.0
C1150 C 0.77601 0.19961 0.13221 0.0
C1151 C 0.77854 0.22313 0.16402 0.0
C1152 C 0.75908 0.22042 0.20506 0.0
C1153 C 0.76175 0.24262 0.23542 0.0
C1154 C 0.78371 0.26769 0.22474 0.0
C1155 C 0.80298 0.27061 0.18352 0.0
C1156 C 0.80042 0.24846 0.15311 0.0
C1157 C 0.73996 0.15612 0.88275 0.0
C1158 C 0.7579 0.17731 0.84658 0.0
C1159 C 0.74461 0.15585 0.94395 0.0
C1160 C 0.76747 0.1766 0.97062 0.0
C1161 C 0.78576 0.19753 0.93439 0.0
C1162 C 0.78107 0.19785 0.87297 0.0
C1163 C 0.77138 0.17699 0.03667 0.0
C1164 C 0.77528 0.19928 0.06939 0.0
C1165 C 0.76913 0.1548 0.06793 0.0
C1166 C 0.76681 0.13135 0.03612 0.0
C1167 C 0.78539 0.13448 0.99215 0.0
C1168 C 0.78299 0.11236 0.96193 0.0
C1169 C 0.76218 0.08697 0.97553 0.0
C1170 C 0.74377 0.08364 0.01952 0.0
C1171 C 0.74607 0.1057 0.04985 0.0
H1172 H 0.76035 0.06987 0.95206 0.0
H1173 H 0.78575 0.28486 0.24831 0.0
H1174 H 0.80178 0.56123 0.51955 0.0
H1175 H 0.80268 0.56792 0.62747 0.0
H1176 H 0.88822 0.60986 0.62502 0.0
H1177 H 0.88736 0.60247 0.51715 0.0
H1178 H 0.87046 0.57557 0.71469 0.0
H1179 H 0.85267 0.64456 0.64885 0.0
H1180 H 0.82784 0.65888 0.58438 0.0
H1181 H 0.75475 0.60071 0.66532 0.0
H1182 H 0.77923 0.58644 0.73092 0.0
H1183 H 0.88859 0.62201 0.01299 0.0
H1184 H 0.88885 0.6202 0.90391 0.0
H1185 H 0.80338 0.5802 0.9019 0.0
H1186 H 0.80302 0.58265 0.01094 0.0
H1187 H 0.82156 0.61434 0.81385 0.0
H1188 H 0.83871 0.54652 0.88296 0.0
H1189 H 0.86175 0.52794 0.94013 0.0
H1190 H 0.93437 0.57968 0.84841 0.0
H1191 H 0.91183 0.59881 0.79121 0.0
C1192 C 0.8208 0.57227 0.54177 0.0
C1193 C 0.84451 0.58138 0.50963 0.0
C1194 C 0.82131 0.57612 0.60367 0.0
C1195 C 0.84554 0.5897 0.63474 0.0
C1196 C 0.86926 0.59929 0.60238 0.0
C1197 C 0.86875 0.59516 0.5406 0.0
C1198 C 0.84615 0.59325 0.70103 0.0
C1199 C 0.86016 0.58448 0.73628 0.0
C1200 C 0.83215 0.60417 0.72968 0.0
C1201 C 0.81773 0.61446 0.69466 0.0
C1202 C 0.83133 0.63508 0.6533 0.0
C1203 C 0.81733 0.64317 0.61657 0.0
C1204 C 0.78974 0.63073 0.62074 0.0
C1205 C 0.77613 0.61046 0.66236 0.0
C1206 C 0.79007 0.6025 0.69965 0.0
C1207 C 0.86983 0.61293 0.98939 0.0
C1208 C 0.84578 0.60234 0.02096 0.0
C1209 C 0.86999 0.61178 0.92685 0.0
C1210 C 0.8461 0.59961 0.89429 0.0
C1211 C 0.8221 0.58964 0.92569 0.0
C1212 C 0.82193 0.591 0.98823 0.0
C1213 C 0.8461 0.59683 0.8278 0.0
C1214 C 0.83212 0.60566 0.79244 0.0
C1215 C 0.86006 0.5858 0.79905 0.0
C1216 C 0.87365 0.57429 0.83327 0.0
C1217 C 0.85964 0.55407 0.8753 0.0
C1218 C 0.8726 0.54342 0.90766 0.0
C1219 C 0.89953 0.55268 0.89803 0.0
C1220 C 0.91353 0.57256 0.85589 0.0
C1221 C 0.90067 0.5833 0.82346 0.0
H1222 H 0.90953 0.5444 0.92313 0.0
H1223 H 0.77892 0.63675 0.59157 0.0
loop_
_geom_bond_atom_site_label_1
_geom_bond_atom_site_label_2
_geom_bond_distance
_geom_bond_site_symmetry_2
_ccdc_geom_bond_type
O0 Tb1 2.302 . S
O0 C3 1.255 . S
Tb1 O0 2.302 . S
Tb1 O17 2.322 1_556 S
Tb1 O19 2.502 . S
Tb1 O20 2.466 1_556 S
Tb1 O23 2.315 1_556 S
Eu2 O6 2.292 . S
Eu2 C7 2.852 . S
Eu2 O18 2.324 . S
Eu2 O22 2.326 . S
Eu2 O24 2.500 . S
Eu2 O25 2.473 . S
C3 O0 1.255 . S
C3 O4 1.247 . S
O4 C3 1.247 . S
C5 O17 1.242 . S
C5 O18 1.258 . S
O6 Eu2 2.292 . S
O6 C8 1.255 . S
C7 Eu2 2.852 . S
C7 C11 1.503 . S
C7 O24 1.273 . S
C7 O25 1.257 . S
C8 O6 1.255 . S
C8 O9 1.247 . S
O9 C8 1.247 . S
C10 O22 1.242 . S
C10 O23 1.258 . S
C11 C7 1.503 . S
C11 C12 1.379 . S
C11 C16 1.392 . S
C12 C11 1.379 . S
C12 C13 1.404 . S
C12 H26 0.929 . S
C13 C12 1.404 . S
C13 C14 1.389 . S
C14 C13 1.389 . S
C14 C15 1.399 . S
C14 H27 0.931 . S
C15 C14 1.399 . S
C15 C16 1.390 . S
C16 C11 1.392 . S
C16 C15 1.390 . S
C16 H28 0.929 . S
O17 Tb1 2.322 1_554 S
O17 C5 1.242 . S
O18 Eu2 2.324 . S
O18 C5 1.258 . S
O19 Tb1 2.502 . S
O19 C21 1.273 1_556 S
O20 Tb1 2.466 1_554 S
O20 C21 1.257 . S
C21 O19 1.273 1_554 S
C21 O20 1.257 . S
O22 Eu2 2.326 . S
O22 C10 1.242 . S
O23 Tb1 2.315 1_554 S
O23 C10 1.258 . S
O24 Eu2 2.500 . S
O24 C7 1.273 . S
O25 Eu2 2.473 . S
O25 C7 1.257 . S
H26 C12 0.929 . S
H27 C14 0.931 . S
H28 C16 0.929 . S
O29 Tb30 2.292 . S
O29 C32 1.255 . S
Tb30 O29 2.292 . S
Tb30 O46 2.326 . S
Tb30 O48 2.500 . S
Tb30 O49 2.473 . S
Tb30 O52 2.324 . S
Eu31 O35 2.292 . S
Eu31 C36 2.852 . S
Eu31 O47 2.324 . S
Eu31 O51 2.326 . S
Eu31 O53 2.500 . S
Eu31 O54 2.473 . S
C32 O29 1.255 . S
C32 O33 1.247 . S
O33 C32 1.247 . S
C34 O46 1.242 . S
C34 O47 1.258 . S
O35 Eu31 2.292 . S
O35 C37 1.255 . S
C36 Eu31 2.852 . S
C36 C40 1.503 . S
C36 O53 1.273 . S
C36 O54 1.257 . S
C37 O35 1.255 . S
C37 O38 1.247 . S
O38 C37 1.247 . S
C39 O51 1.242 . S
C39 O52 1.258 . S
C40 C36 1.503 . S
C40 C41 1.379 . S
C40 C45 1.392 . S
C41 C40 1.379 . S
C41 C42 1.404 . S
C41 H55 0.929 . S
C42 C41 1.404 . S
C42 C43 1.389 . S
C43 C42 1.389 . S
C43 C44 1.399 . S
C43 H56 0.931 . S
C44 C43 1.399 . S
C44 C45 1.390 . S
C45 C40 1.392 . S
C45 C44 1.390 . S
C45 H57 0.929 . S
O46 Tb30 2.326 . S
O46 C34 1.242 . S
O47 Eu31 2.324 . S
O47 C34 1.258 . S
O48 Tb30 2.500 . S
O48 C50 1.273 . S
O49 Tb30 2.473 . S
O49 C50 1.257 . S
C50 O48 1.273 . S
C50 O49 1.257 . S
O51 Eu31 2.326 . S
O51 C39 1.242 . S
O52 Tb30 2.324 . S
O52 C39 1.258 . S
O53 Eu31 2.500 . S
O53 C36 1.273 . S
O54 Eu31 2.473 . S
O54 C36 1.257 . S
H55 C41 0.929 . S
H56 C43 0.931 . S
H57 C45 0.929 . S
O58 Tb59 2.292 . S
O58 C61 1.255 . S
Tb59 O58 2.292 . S
Tb59 O75 2.326 . S
Tb59 O77 2.500 . S
Tb59 O78 2.473 . S
Tb59 O81 2.324 . S
Eu60 O64 2.292 . S
Eu60 C65 2.852 . S
Eu60 O76 2.324 . S
Eu60 O80 2.326 . S
Eu60 O82 2.500 . S
Eu60 O83 2.473 . S
C61 O58 1.255 . S
C61 O62 1.247 . S
O62 C61 1.247 . S
C63 O75 1.242 . S
C63 O76 1.258 . S
O64 Eu60 2.292 . S
O64 C66 1.255 . S
C65 Eu60 2.852 . S
C65 C69 1.503 . S
C65 O82 1.273 . S
C65 O83 1.257 . S
C66 O64 1.255 . S
C66 O67 1.247 . S
O67 C66 1.247 . S
C68 O80 1.242 . S
C68 O81 1.258 . S
C69 C65 1.503 . S
C69 C70 1.379 . S
C69 C74 1.392 . S
C70 C69 1.379 . S
C70 C71 1.404 . S
C70 H84 0.929 . S
C71 C70 1.404 . S
C71 C72 1.389 . S
C72 C71 1.389 . S
C72 C73 1.399 . S
C72 H85 0.931 . S
C73 C72 1.399 . S
C73 C74 1.390 . S
C74 C69 1.392 . S
C74 C73 1.390 . S
C74 H86 0.929 . S
O75 Tb59 2.326 . S
O75 C63 1.242 . S
O76 Eu60 2.324 . S
O76 C63 1.258 . S
O77 Tb59 2.500 . S
O77 C79 1.273 . S
O78 Tb59 2.473 . S
O78 C79 1.257 . S
C79 O77 1.273 . S
C79 O78 1.257 . S
O80 Eu60 2.326 . S
O80 C68 1.242 . S
O81 Tb59 2.324 . S
O81 C68 1.258 . S
O82 Eu60 2.500 . S
O82 C65 1.273 . S
O83 Eu60 2.473 . S
O83 C65 1.257 . S
H84 C70 0.929 . S
H85 C72 0.931 . S
H86 C74 0.929 . S
O87 Tb88 2.302 . S
O87 C90 1.255 . S
Tb88 O87 2.302 . S
Tb88 O104 2.322 1_554 S
Tb88 O106 2.502 . S
Tb88 O107 2.466 1_554 S
Tb88 O110 2.315 1_554 S
Eu89 O93 2.292 . S
Eu89 C94 2.852 . S
Eu89 O105 2.324 . S
Eu89 O109 2.326 . S
Eu89 O111 2.500 . S
Eu89 O112 2.473 . S
C90 O87 1.255 . S
C90 O91 1.247 . S
O91 C90 1.247 . S
C92 O104 1.242 . S
C92 O105 1.258 . S
O93 Eu89 2.292 . S
O93 C95 1.255 . S
C94 Eu89 2.852 . S
C94 C98 1.503 . S
C94 O111 1.273 . S
C94 O112 1.257 . S
C95 O93 1.255 . S
C95 O96 1.247 . S
O96 C95 1.247 . S
C97 O109 1.242 . S
C97 O110 1.258 . S
C98 C94 1.503 . S
C98 C99 1.379 . S
C98 C103 1.392 . S
C99 C98 1.379 . S
C99 C100 1.404 . S
C99 H113 0.929 . S
C100 C99 1.404 . S
C100 C101 1.389 . S
C101 C100 1.389 . S
C101 C102 1.399 . S
C101 H114 0.931 . S
C102 C101 1.399 . S
C102 C103 1.390 . S
C103 C98 1.392 . S
C103 C102 1.390 . S
C103 H115 0.929 . S
O104 Tb88 2.322 1_556 S
O104 C92 1.242 . S
O105 Eu89 2.324 . S
O105 C92 1.258 . S
O106 Tb88 2.502 . S
O106 C108 1.273 1_554 S
O107 Tb88 2.466 1_556 S
O107 C108 1.257 . S
C108 O106 1.273 1_556 S
C108 O107 1.257 . S
O109 Eu89 2.326 . S
O109 C97 1.242 . S
O110 Tb88 2.315 1_556 S
O110 C97 1.258 . S
O111 Eu89 2.500 . S
O111 C94 1.273 . S
O112 Eu89 2.473 . S
O112 C94 1.257 . S
H113 C99 0.929 . S
H114 C101 0.931 . S
H115 C103 0.929 . S
O116 Tb117 2.292 . S
O116 C119 1.255 . S
Tb117 O116 2.292 . S
Tb117 O133 2.326 . S
Tb117 O135 2.500 . S
Tb117 O136 2.473 . S
Tb117 O139 2.324 . S
Eu118 O122 2.292 . S
Eu118 C123 2.852 . S
Eu118 O134 2.324 . S
Eu118 O138 2.326 . S
Eu118 O140 2.500 . S
Eu118 O141 2.473 . S
C119 O116 1.255 . S
C119 O120 1.247 . S
O120 C119 1.247 . S
C121 O133 1.242 . S
C121 O134 1.258 . S
O122 Eu118 2.292 . S
O122 C124 1.255 . S
C123 Eu118 2.852 . S
C123 C127 1.503 . S
C123 O140 1.273 . S
C123 O141 1.257 . S
C124 O122 1.255 . S
C124 O125 1.247 . S
O125 C124 1.247 . S
C126 O138 1.242 . S
C126 O139 1.258 . S
C127 C123 1.503 . S
C127 C128 1.379 . S
C127 C132 1.392 . S
C128 C127 1.379 . S
C128 C129 1.404 . S
C128 H142 0.929 . S
C129 C128 1.404 . S
C129 C130 1.389 . S
C130 C129 1.389 . S
C130 C131 1.399 . S
C130 H143 0.931 . S
C131 C130 1.399 . S
C131 C132 1.390 . S
C132 C127 1.392 . S
C132 C131 1.390 . S
C132 H144 0.929 . S
O133 Tb117 2.326 . S
O133 C121 1.242 . S
O134 Eu118 2.324 . S
O134 C121 1.258 . S
O135 Tb117 2.500 . S
O135 C137 1.273 . S
O136 Tb117 2.473 . S
O136 C137 1.257 . S
C137 O135 1.273 . S
C137 O136 1.257 . S
O138 Eu118 2.326 . S
O138 C126 1.242 . S
O139 Tb117 2.324 . S
O139 C126 1.258 . S
O140 Eu118 2.500 . S
O140 C123 1.273 . S
O141 Eu118 2.473 . S
O141 C123 1.257 . S
H142 C128 0.929 . S
H143 C130 0.931 . S
H144 C132 0.929 . S
O145 Tb146 2.292 . S
O145 C148 1.255 . S
Tb146 O145 2.292 . S
Tb146 O162 2.326 . S
Tb146 O164 2.500 . S
Tb146 O165 2.473 . S
Tb146 O168 2.324 . S
Eu147 O151 2.292 . S
Eu147 C152 2.852 . S
Eu147 O163 2.324 . S
Eu147 O167 2.326 . S
Eu147 O169 2.500 . S
Eu147 O170 2.473 . S
C148 O145 1.255 . S
C148 O149 1.247 . S
O149 C148 1.247 . S
C150 O162 1.242 . S
C150 O163 1.258 . S
O151 Eu147 2.292 . S
O151 C153 1.255 . S
C152 Eu147 2.852 . S
C152 C156 1.503 . S
C152 O169 1.273 . S
C152 O170 1.257 . S
C153 O151 1.255 . S
C153 O154 1.247 . S
O154 C153 1.247 . S
C155 O167 1.242 . S
C155 O168 1.258 . S
C156 C152 1.503 . S
C156 C157 1.379 . S
C156 C161 1.392 . S
C157 C156 1.379 . S
C157 C158 1.404 . S
C157 H171 0.929 . S
C158 C157 1.404 . S
C158 C159 1.389 . S
C159 C158 1.389 . S
C159 C160 1.399 . S
C159 H172 0.931 . S
C160 C159 1.399 . S
C160 C161 1.390 . S
C161 C156 1.392 . S
C161 C160 1.390 . S
C161 H173 0.929 . S
O162 Tb146 2.326 . S
O162 C150 1.242 . S
O163 Eu147 2.324 . S
O163 C150 1.258 . S
O164 Tb146 2.500 . S
O164 C166 1.273 . S
O165 Tb146 2.473 . S
O165 C166 1.257 . S
C166 O164 1.273 . S
C166 O165 1.257 . S
O167 Eu147 2.326 . S
O167 C155 1.242 . S
O168 Tb146 2.324 . S
O168 C155 1.258 . S
O169 Eu147 2.500 . S
O169 C152 1.273 . S
O170 Eu147 2.473 . S
O170 C152 1.257 . S
H171 C157 0.929 . S
H172 C159 0.931 . S
H173 C161 0.929 . S
H174 C192 0.953 1_554 S
H175 C194 0.951 . S
H176 C196 0.950 . S
H177 C197 0.950 . S
H178 C199 0.950 . S
H179 C202 0.950 . S
H180 C203 0.950 . S
H181 C205 0.950 . S
H182 C206 0.950 . S
H183 C207 0.951 . S
H184 C209 0.951 . S
H185 C211 0.950 . S
H186 C212 0.950 . S
H187 C214 0.950 . S
H188 C217 0.950 . S
H189 C218 0.950 . S
H190 C220 0.950 . S
H191 C221 0.950 . S
C192 H174 0.953 1_556 S
C192 C193 1.365 . S
C192 C194 1.387 . S
C193 C192 1.365 . S
C193 C197 1.385 . S
C194 H175 0.951 . S
C194 C192 1.387 . S
C194 C195 1.366 . S
C195 C194 1.366 . S
C195 C196 1.414 . S
C195 C198 1.499 . S
C196 H176 0.950 . S
C196 C195 1.414 . S
C196 C197 1.374 . S
C197 H177 0.950 . S
C197 C193 1.385 . S
C197 C196 1.374 . S
C198 C195 1.499 . S
C198 C199 1.373 . S
C198 C200 1.387 1_455 S
C199 H178 0.950 . S
C199 C198 1.373 . S
C199 C215 1.377 1_455 S
C200 C198 1.387 1_655 S
C200 C201 1.520 1_655 S
C200 C214 1.383 . S
C201 C200 1.520 1_455 S
C201 C202 1.397 . S
C201 C206 1.363 1_455 S
C202 H179 0.950 . S
C202 C201 1.397 . S
C202 C203 1.334 . S
C203 H180 0.950 . S
C203 C202 1.334 . S
C203 C204 1.287 . S
C204 C203 1.287 . S
C204 C205 1.524 1_455 S
C204 H223 0.913 . S
C205 H181 0.950 . S
C205 C204 1.524 1_655 S
C205 C206 1.415 . S
C206 H182 0.950 . S
C206 C201 1.363 1_655 S
C206 C205 1.415 . S
C207 H183 0.951 . S
C207 C208 1.366 . S
C207 C209 1.388 . S
C208 C207 1.366 . S
C208 C212 1.385 . S
C209 H184 0.951 . S
C209 C207 1.388 . S
C209 C210 1.366 . S
C210 C209 1.366 . S
C210 C211 1.414 . S
C210 C213 1.499 . S
C211 H185 0.950 . S
C211 C210 1.414 . S
C211 C212 1.374 . S
C212 H186 0.950 . S
C212 C208 1.385 . S
C212 C211 1.374 . S
C213 C210 1.499 . S
C213 C214 1.373 . S
C213 C215 1.389 . S
C214 H187 0.950 . S
C214 C200 1.383 . S
C214 C213 1.373 . S
C215 C199 1.377 1_655 S
C215 C213 1.389 . S
C215 C216 1.524 . S
C216 C215 1.524 . S
C216 C217 1.397 . S
C216 C221 1.363 1_655 S
C217 H188 0.950 . S
C217 C216 1.397 . S
C217 C218 1.334 . S
C218 H189 0.950 . S
C218 C217 1.334 . S
C218 C219 1.287 . S
C219 C218 1.287 . S
C219 C220 1.524 1_655 S
C219 H222 0.999 . S
C220 H190 0.950 . S
C220 C219 1.524 1_455 S
C220 C221 1.415 . S
C221 H191 0.950 . S
C221 C216 1.363 1_455 S
C221 C220 1.415 . S
H222 C219 0.999 . S
H223 C204 0.913 . S
H224 C242 0.951 . S
H225 C244 0.951 . S
H226 C246 0.950 . S
H227 C247 0.950 . S
H228 C249 0.950 . S
H229 C252 0.950 . S
H230 C253 0.950 . S
H231 C255 0.950 . S
H232 C256 0.950 . S
H233 C257 0.951 . S
H234 C259 0.951 . S
H235 C261 0.950 . S
H236 C262 0.950 . S
H237 C264 0.950 . S
H238 C267 0.950 . S
H239 C268 0.950 . S
H240 C270 0.950 . S
H241 C271 0.950 . S
C242 H224 0.951 . S
C242 C243 1.366 . S
C242 C244 1.388 . S
C243 C242 1.366 . S
C243 C247 1.385 . S
C244 H225 0.951 . S
C244 C242 1.388 . S
C244 C245 1.366 . S
C245 C244 1.366 . S
C245 C246 1.414 . S
C245 C248 1.499 . S
C246 H226 0.950 . S
C246 C245 1.414 . S
C246 C247 1.374 . S
C247 H227 0.950 . S
C247 C243 1.385 . S
C247 C246 1.374 . S
C248 C245 1.499 . S
C248 C249 1.373 . S
C248 C250 1.389 . S
C249 H228 0.950 . S
C249 C248 1.373 . S
C249 C265 1.377 . S
C250 C248 1.389 . S
C250 C251 1.524 . S
C250 C264 1.377 . S
C251 C250 1.524 . S
C251 C252 1.397 . S
C251 C256 1.363 . S
C252 H229 0.950 . S
C252 C251 1.397 . S
C252 C253 1.334 . S
C253 H230 0.950 . S
C253 C252 1.334 . S
C253 C254 1.287 . S
C254 C253 1.287 . S
C254 C255 1.524 . S
C254 H273 0.913 . S
C255 H231 0.950 . S
C255 C254 1.524 . S
C255 C256 1.415 . S
C256 H232 0.950 . S
C256 C251 1.363 . S
C256 C255 1.415 . S
C257 H233 0.951 . S
C257 C258 1.366 . S
C257 C259 1.388 . S
C258 C257 1.366 . S
C258 C262 1.385 . S
C259 H234 0.951 . S
C259 C257 1.388 . S
C259 C260 1.366 . S
C260 C259 1.366 . S
C260 C261 1.414 . S
C260 C263 1.499 . S
C261 H235 0.950 . S
C261 C260 1.414 . S
C261 C262 1.374 . S
C262 H236 0.950 . S
C262 C258 1.385 . S
C262 C261 1.374 . S
C263 C260 1.499 . S
C263 C264 1.373 . S
C263 C265 1.389 . S
C264 H237 0.950 . S
C264 C250 1.377 . S
C264 C263 1.373 . S
C265 C249 1.377 . S
C265 C263 1.389 . S
C265 C266 1.524 . S
C266 C265 1.524 . S
C266 C267 1.397 . S
C266 C271 1.363 . S
C267 H238 0.950 . S
C267 C266 1.397 . S
C267 C268 1.334 . S
C268 H239 0.950 . S
C268 C267 1.334 . S
C268 C269 1.287 . S
C269 C268 1.287 . S
C269 C270 1.524 . S
C269 H272 0.999 . S
C270 H240 0.950 . S
C270 C269 1.524 . S
C270 C271 1.415 . S
C271 H241 0.950 . S
C271 C266 1.363 . S
C271 C270 1.415 . S
H272 C269 0.999 . S
H273 C254 0.913 . S
H274 C292 0.951 . S
H275 C294 0.951 . S
H276 C296 0.950 . S
H277 C297 0.950 . S
H278 C299 0.950 . S
H279 C302 0.950 . S
H280 C303 0.950 . S
H281 C305 0.950 . S
H282 C306 0.950 . S
H283 C307 0.961 . S
H284 C309 0.951 . S
H285 C311 0.950 . S
H286 C312 0.950 . S
H287 C314 0.950 . S
H288 C317 0.950 . S
H289 C318 0.950 . S
H290 C320 0.950 . S
H291 C321 0.950 . S
C292 H274 0.951 . S
C292 C293 1.366 . S
C292 C294 1.388 . S
C293 C292 1.366 . S
C293 C297 1.385 . S
C294 H275 0.951 . S
C294 C292 1.388 . S
C294 C295 1.366 . S
C295 C294 1.366 . S
C295 C296 1.414 . S
C295 C298 1.499 . S
C296 H276 0.950 . S
C296 C295 1.414 . S
C296 C297 1.374 . S
C297 H277 0.950 . S
C297 C293 1.385 . S
C297 C296 1.374 . S
C298 C295 1.499 . S
C298 C299 1.373 . S
C298 C300 1.389 . S
C299 H278 0.950 . S
C299 C298 1.373 . S
C299 C315 1.377 . S
C300 C298 1.389 . S
C300 C301 1.524 . S
C300 C314 1.377 1_565 S
C301 C300 1.524 . S
C301 C302 1.397 . S
C301 C306 1.363 1_565 S
C302 H279 0.950 . S
C302 C301 1.397 . S
C302 C303 1.334 . S
C303 H280 0.950 . S
C303 C302 1.334 . S
C303 C304 1.287 . S
C304 C303 1.287 . S
C304 C305 1.524 1_565 S
C304 H323 0.913 . S
C305 H281 0.950 . S
C305 C304 1.524 1_545 S
C305 C306 1.415 . S
C306 H282 0.950 . S
C306 C301 1.363 1_545 S
C306 C305 1.415 . S
C307 H283 0.961 . S
C307 C308 1.362 1_556 S
C307 C309 1.382 1_556 S
C308 C307 1.362 1_554 S
C308 C312 1.385 . S
C309 H284 0.951 . S
C309 C307 1.382 1_554 S
C309 C310 1.366 . S
C310 C309 1.366 . S
C310 C311 1.414 . S
C310 C313 1.499 . S
C311 H285 0.950 . S
C311 C310 1.414 . S
C311 C312 1.374 . S
C312 H286 0.950 . S
C312 C308 1.385 . S
C312 C311 1.374 . S
C313 C310 1.499 . S
C313 C314 1.373 . S
C313 C315 1.389 1_545 S
C314 H287 0.950 . S
C314 C300 1.377 1_545 S
C314 C313 1.373 . S
C315 C299 1.377 . S
C315 C313 1.389 1_565 S
C315 C316 1.524 . S
C316 C315 1.524 . S
C316 C317 1.397 1_565 S
C316 C321 1.363 . S
C317 H288 0.950 . S
C317 C316 1.397 1_545 S
C317 C318 1.334 . S
C318 H289 0.950 . S
C318 C317 1.334 . S
C318 C319 1.287 1_544 S
C319 C318 1.287 1_566 S
C319 C320 1.524 . S
C319 H322 0.999 . S
C320 H290 0.950 . S
C320 C319 1.524 . S
C320 C321 1.415 1_556 S
C321 H291 0.950 . S
C321 C316 1.363 . S
C321 C320 1.415 1_554 S
H322 C319 0.999 . S
H323 C304 0.913 . S
H324 C342 0.951 . S
H325 C344 0.951 . S
H326 C346 0.950 . S
H327 C347 0.950 . S
H328 C349 0.950 . S
H329 C352 0.950 . S
H330 C353 0.950 . S
H331 C355 0.950 . S
H332 C356 0.950 . S
H333 C357 0.951 . S
H334 C359 0.951 . S
H335 C361 0.950 . S
H336 C362 0.950 . S
H337 C364 0.950 . S
H338 C367 0.950 . S
H339 C368 0.950 . S
H340 C370 0.950 . S
H341 C371 0.950 . S
C342 H324 0.951 . S
C342 C343 1.366 . S
C342 C344 1.388 . S
C343 C342 1.366 . S
C343 C347 1.385 . S
C344 H325 0.951 . S
C344 C342 1.388 . S
C344 C345 1.366 . S
C345 C344 1.366 . S
C345 C346 1.414 . S
C345 C348 1.499 . S
C346 H326 0.950 . S
C346 C345 1.414 . S
C346 C347 1.374 . S
C347 H327 0.950 . S
C347 C343 1.385 . S
C347 C346 1.374 . S
C348 C345 1.499 . S
C348 C349 1.373 . S
C348 C350 1.389 . S
C349 H328 0.950 . S
C349 C348 1.373 . S
C349 C365 1.377 . S
C350 C348 1.389 . S
C350 C351 1.524 . S
C350 C364 1.377 . S
C351 C350 1.524 . S
C351 C352 1.397 . S
C351 C356 1.363 . S
C352 H329 0.950 . S
C352 C351 1.397 . S
C352 C353 1.334 . S
C353 H330 0.950 . S
C353 C352 1.334 . S
C353 C354 1.287 . S
C354 C353 1.287 . S
C354 C355 1.524 . S
C354 H373 0.913 . S
C355 H331 0.950 . S
C355 C354 1.524 . S
C355 C356 1.415 . S
C356 H332 0.950 . S
C356 C351 1.363 . S
C356 C355 1.415 . S
C357 H333 0.951 . S
C357 C358 1.366 . S
C357 C359 1.388 . S
C358 C357 1.366 . S
C358 C362 1.385 . S
C359 H334 0.951 . S
C359 C357 1.388 . S
C359 C360 1.366 . S
C360 C359 1.366 . S
C360 C361 1.414 . S
C360 C363 1.499 . S
C361 H335 0.950 . S
C361 C360 1.414 . S
C361 C362 1.374 . S
C362 H336 0.950 . S
C362 C358 1.385 . S
C362 C361 1.374 . S
C363 C360 1.499 . S
C363 C364 1.373 . S
C363 C365 1.389 . S
C364 H337 0.950 . S
C364 C350 1.377 . S
C364 C363 1.373 . S
C365 C349 1.377 . S
C365 C363 1.389 . S
C365 C366 1.524 . S
C366 C365 1.524 . S
C366 C367 1.397 . S
C366 C371 1.363 . S
C367 H338 0.950 . S
C367 C366 1.397 . S
C367 C368 1.334 . S
C368 H339 0.950 . S
C368 C367 1.334 . S
C368 C369 1.287 . S
C369 C368 1.287 . S
C369 C370 1.524 . S
C369 H372 0.999 . S
C370 H340 0.950 . S
C370 C369 1.524 . S
C370 C371 1.415 . S
C371 H341 0.950 . S
C371 C366 1.363 . S
C371 C370 1.415 . S
H372 C369 0.999 . S
H373 C354 0.913 . S
H374 C392 0.951 . S
H375 C394 0.951 . S
H376 C396 0.950 . S
H377 C397 0.950 . S
H378 C399 0.950 1_554 S
H379 C402 0.950 . S
H380 C403 0.950 . S
H381 C405 0.950 . S
H382 C406 0.950 . S
H383 C407 0.951 . S
H384 C409 0.951 . S
H385 C411 0.950 . S
H386 C412 0.950 . S
H387 C414 0.950 . S
H388 C417 0.950 . S
H389 C418 0.950 . S
H390 C420 0.950 . S
H391 C421 0.950 . S
C392 H374 0.951 . S
C392 C393 1.366 1_556 S
C392 C394 1.388 . S
C393 C392 1.366 1_554 S
C393 C397 1.385 . S
C394 H375 0.951 . S
C394 C392 1.388 . S
C394 C395 1.366 . S
C395 C394 1.366 . S
C395 C396 1.414 1_556 S
C395 C398 1.499 . S
C396 H376 0.950 . S
C396 C395 1.414 1_554 S
C396 C397 1.374 . S
C397 H377 0.950 . S
C397 C393 1.385 . S
C397 C396 1.374 . S
C398 C395 1.499 . S
C398 C399 1.373 . S
C398 C400 1.389 . S
C399 H378 0.950 1_556 S
C399 C398 1.373 . S
C399 C415 1.377 . S
C400 C398 1.389 . S
C400 C401 1.524 . S
C400 C414 1.377 . S
C401 C400 1.524 . S
C401 C402 1.397 . S
C401 C406 1.363 . S
C402 H379 0.950 . S
C402 C401 1.397 . S
C402 C403 1.334 . S
C403 H380 0.950 . S
C403 C402 1.334 . S
C403 C404 1.287 . S
C404 C403 1.287 . S
C404 C405 1.524 . S
C404 H423 0.913 . S
C405 H381 0.950 . S
C405 C404 1.524 . S
C405 C406 1.415 . S
C406 H382 0.950 . S
C406 C401 1.363 . S
C406 C405 1.415 . S
C407 H383 0.951 . S
C407 C408 1.366 . S
C407 C409 1.388 . S
C408 C407 1.366 . S
C408 C412 1.385 . S
C409 H384 0.951 . S
C409 C407 1.388 . S
C409 C410 1.366 . S
C410 C409 1.366 . S
C410 C411 1.414 . S
C410 C413 1.499 . S
C411 H385 0.950 . S
C411 C410 1.414 . S
C411 C412 1.374 . S
C412 H386 0.950 . S
C412 C408 1.385 . S
C412 C411 1.374 . S
C413 C410 1.499 . S
C413 C414 1.373 . S
C413 C415 1.389 . S
C414 H387 0.950 . S
C414 C400 1.377 . S
C414 C413 1.373 . S
C415 C399 1.377 . S
C415 C413 1.389 . S
C415 C416 1.524 . S
C416 C415 1.524 . S
C416 C417 1.397 . S
C416 C421 1.363 1_556 S
C417 H388 0.950 . S
C417 C416 1.397 . S
C417 C418 1.334 . S
C418 H389 0.950 . S
C418 C417 1.334 . S
C418 C419 1.287 1_556 S
C419 C418 1.287 1_554 S
C419 C420 1.524 . S
C419 H422 0.999 . S
C420 H390 0.950 . S
C420 C419 1.524 . S
C420 C421 1.415 . S
C421 H391 0.950 . S
C421 C416 1.363 1_554 S
C421 C420 1.415 . S
H422 C419 0.999 . S
H423 C404 0.913 . S
H424 C442 0.951 . S
H425 C444 0.951 . S
H426 C446 0.950 . S
H427 C447 0.950 . S
H428 C449 0.950 . S
H429 C452 0.950 . S
H430 C453 0.950 . S
H431 C455 0.950 . S
H432 C456 0.950 . S
H433 C457 0.951 . S
H434 C459 0.951 . S
H435 C461 0.950 . S
H436 C462 0.950 . S
H437 C464 0.950 . S
H438 C467 0.950 . S
H439 C468 0.950 . S
H440 C470 0.950 . S
H441 C471 0.950 . S
C442 H424 0.951 . S
C442 C443 1.366 . S
C442 C444 1.388 . S
C443 C442 1.366 . S
C443 C447 1.385 . S
C444 H425 0.951 . S
C444 C442 1.388 . S
C444 C445 1.366 . S
C445 C444 1.366 . S
C445 C446 1.414 . S
C445 C448 1.499 . S
C446 H426 0.950 . S
C446 C445 1.414 . S
C446 C447 1.374 . S
C447 H427 0.950 . S
C447 C443 1.385 . S
C447 C446 1.374 . S
C448 C445 1.499 . S
C448 C449 1.373 . S
C448 C450 1.389 . S
C449 H428 0.950 . S
C449 C448 1.373 . S
C449 C465 1.377 . S
C450 C448 1.389 . S
C450 C451 1.524 . S
C450 C464 1.377 . S
C451 C450 1.524 . S
C451 C452 1.397 . S
C451 C456 1.363 . S
C452 H429 0.950 . S
C452 C451 1.397 . S
C452 C453 1.334 . S
C453 H430 0.950 . S
C453 C452 1.334 . S
C453 C454 1.287 . S
C454 C453 1.287 . S
C454 C455 1.524 . S
C454 H473 0.913 . S
C455 H431 0.950 . S
C455 C454 1.524 . S
C455 C456 1.415 . S
C456 H432 0.950 . S
C456 C451 1.363 . S
C456 C455 1.415 . S
C457 H433 0.951 . S
C457 C458 1.366 . S
C457 C459 1.388 . S
C458 C457 1.366 . S
C458 C462 1.385 . S
C459 H434 0.951 . S
C459 C457 1.388 . S
C459 C460 1.366 . S
C460 C459 1.366 . S
C460 C461 1.414 . S
C460 C463 1.499 . S
C461 H435 0.950 . S
C461 C460 1.414 . S
C461 C462 1.374 . S
C462 H436 0.950 . S
C462 C458 1.385 . S
C462 C461 1.374 . S
C463 C460 1.499 . S
C463 C464 1.373 . S
C463 C465 1.389 . S
C464 H437 0.950 . S
C464 C450 1.377 . S
C464 C463 1.373 . S
C465 C449 1.377 . S
C465 C463 1.389 . S
C465 C466 1.524 . S
C466 C465 1.524 . S
C466 C467 1.397 . S
C466 C471 1.363 . S
C467 H438 0.950 . S
C467 C466 1.397 . S
C467 C468 1.334 . S
C468 H439 0.950 . S
C468 C467 1.334 . S
C468 C469 1.287 . S
C469 C468 1.287 . S
C469 C470 1.524 . S
C469 H472 0.999 . S
C470 H440 0.950 . S
C470 C469 1.524 . S
C470 C471 1.415 . S
C471 H441 0.950 . S
C471 C466 1.363 . S
C471 C470 1.415 . S
H472 C469 0.999 . S
H473 C454 0.913 . S
H474 C492 0.951 . S
H475 C494 0.951 . S
H476 C496 0.950 . S
H477 C497 0.950 . S
H478 C499 0.950 . S
H479 C502 0.950 . S
H480 C503 0.950 . S
H481 C505 0.950 . S
H482 C506 0.950 . S
H483 C507 0.951 . S
H484 C509 0.951 . S
H485 C511 0.950 . S
H486 C512 0.950 . S
H487 C514 0.950 . S
H488 C517 0.950 . S
H489 C518 0.950 . S
H490 C520 0.950 . S
H491 C521 0.950 . S
C492 H474 0.951 . S
C492 C493 1.366 . S
C492 C494 1.388 . S
C493 C492 1.366 . S
C493 C497 1.385 . S
C494 H475 0.951 . S
C494 C492 1.388 . S
C494 C495 1.366 . S
C495 C494 1.366 . S
C495 C496 1.414 . S
C495 C498 1.499 . S
C496 H476 0.950 . S
C496 C495 1.414 . S
C496 C497 1.374 . S
C497 H477 0.950 . S
C497 C493 1.385 . S
C497 C496 1.374 . S
C498 C495 1.499 . S
C498 C499 1.373 . S
C498 C500 1.389 . S
C499 H478 0.950 . S
C499 C498 1.373 . S
C499 C515 1.377 . S
C500 C498 1.389 . S
C500 C501 1.524 . S
C500 C514 1.377 . S
C501 C500 1.524 . S
C501 C502 1.397 . S
C501 C506 1.363 . S
C502 H479 0.950 . S
C502 C501 1.397 . S
C502 C503 1.334 . S
C503 H480 0.950 . S
C503 C502 1.334 . S
C503 C504 1.287 . S
C504 C503 1.287 . S
C504 C505 1.524 . S
C504 H523 0.913 . S
C505 H481 0.950 . S
C505 C504 1.524 . S
C505 C506 1.415 . S
C506 H482 0.950 . S
C506 C501 1.363 . S
C506 C505 1.415 . S
C507 H483 0.951 . S
C507 C508 1.366 . S
C507 C509 1.388 . S
C508 C507 1.366 . S
C508 C512 1.385 . S
C509 H484 0.951 . S
C509 C507 1.388 . S
C509 C510 1.366 . S
C510 C509 1.366 . S
C510 C511 1.414 . S
C510 C513 1.499 . S
C511 H485 0.950 . S
C511 C510 1.414 . S
C511 C512 1.374 . S
C512 H486 0.950 . S
C512 C508 1.385 . S
C512 C511 1.374 . S
C513 C510 1.499 . S
C513 C514 1.373 . S
C513 C515 1.389 . S
C514 H487 0.950 . S
C514 C500 1.377 . S
C514 C513 1.373 . S
C515 C499 1.377 . S
C515 C513 1.389 . S
C515 C516 1.524 . S
C516 C515 1.524 . S
C516 C517 1.397 . S
C516 C521 1.363 . S
C517 H488 0.950 . S
C517 C516 1.397 . S
C517 C518 1.334 . S
C518 H489 0.950 . S
C518 C517 1.334 . S
C518 C519 1.287 . S
C519 C518 1.287 . S
C519 C520 1.524 . S
C519 H522 0.999 . S
C520 H490 0.950 . S
C520 C519 1.524 . S
C520 C521 1.415 . S
C521 H491 0.950 . S
C521 C516 1.363 . S
C521 C520 1.415 . S
H522 C519 0.999 . S
H523 C504 0.913 . S
H524 C542 0.951 . S
H525 C544 0.951 . S
H526 C546 0.950 . S
H527 C547 0.950 . S
H528 C549 0.950 . S
H529 C552 0.950 . S
H530 C553 0.950 . S
H531 C555 0.950 . S
H532 C556 0.950 . S
H533 C557 0.951 . S
H534 C559 0.951 . S
H535 C561 0.950 . S
H536 C562 0.950 . S
H537 C564 0.950 . S
H538 C567 0.950 . S
H539 C568 0.950 . S
H540 C570 0.950 . S
H541 C571 0.950 . S
C542 H524 0.951 . S
C542 C543 1.366 . S
C542 C544 1.388 . S
C543 C542 1.366 . S
C543 C547 1.385 . S
C544 H525 0.951 . S
C544 C542 1.388 . S
C544 C545 1.366 . S
C545 C544 1.366 . S
C545 C546 1.414 . S
C545 C548 1.499 . S
C546 H526 0.950 . S
C546 C545 1.414 . S
C546 C547 1.374 . S
C547 H527 0.950 . S
C547 C543 1.385 . S
C547 C546 1.374 . S
C548 C545 1.499 . S
C548 C549 1.373 . S
C548 C550 1.389 . S
C549 H528 0.950 . S
C549 C548 1.373 . S
C549 C565 1.377 . S
C550 C548 1.389 . S
C550 C551 1.524 . S
C550 C564 1.377 . S
C551 C550 1.524 . S
C551 C552 1.397 . S
C551 C556 1.363 . S
C552 H529 0.950 . S
C552 C551 1.397 . S
C552 C553 1.334 . S
C553 H530 0.950 . S
C553 C552 1.334 . S
C553 C554 1.287 . S
C554 C553 1.287 . S
C554 C555 1.524 . S
C554 H573 0.913 . S
C555 H531 0.950 . S
C555 C554 1.524 . S
C555 C556 1.415 . S
C556 H532 0.950 . S
C556 C551 1.363 . S
C556 C555 1.415 . S
C557 H533 0.951 . S
C557 C558 1.366 . S
C557 C559 1.388 . S
C558 C557 1.366 . S
C558 C562 1.385 . S
C559 H534 0.951 . S
C559 C557 1.388 . S
C559 C560 1.366 . S
C560 C559 1.366 . S
C560 C561 1.414 . S
C560 C563 1.499 . S
C561 H535 0.950 . S
C561 C560 1.414 . S
C561 C562 1.374 . S
C562 H536 0.950 . S
C562 C558 1.385 . S
C562 C561 1.374 . S
C563 C560 1.499 . S
C563 C564 1.373 . S
C563 C565 1.389 . S
C564 H537 0.950 . S
C564 C550 1.377 . S
C564 C563 1.373 . S
C565 C549 1.377 . S
C565 C563 1.389 . S
C565 C566 1.524 . S
C566 C565 1.524 . S
C566 C567 1.397 . S
C566 C571 1.363 . S
C567 H538 0.950 . S
C567 C566 1.397 . S
C567 C568 1.334 . S
C568 H539 0.950 . S
C568 C567 1.334 . S
C568 C569 1.287 . S
C569 C568 1.287 . S
C569 C570 1.524 . S
C569 H572 0.999 . S
C570 H540 0.950 . S
C570 C569 1.524 . S
C570 C571 1.415 . S
C571 H541 0.950 . S
C571 C566 1.363 . S
C571 C570 1.415 . S
H572 C569 0.999 . S
H573 C554 0.913 . S
H574 C592 0.951 . S
H575 C594 0.951 . S
H576 C596 0.950 . S
H577 C597 0.950 . S
H578 C599 0.950 . S
H579 C602 0.951 . S
H580 C603 0.950 . S
H581 C605 0.950 . S
H582 C606 0.950 . S
H583 C607 0.951 . S
H584 C609 0.951 . S
H585 C611 0.950 . S
H586 C612 0.950 . S
H587 C614 0.950 . S
H588 C617 0.950 . S
H589 C618 0.950 . S
H590 C620 0.950 1_556 S
H591 C621 0.950 1_556 S
C592 H574 0.951 . S
C592 C593 1.366 1_554 S
C592 C594 1.388 . S
C593 C592 1.366 1_556 S
C593 C597 1.385 . S
C594 H575 0.951 . S
C594 C592 1.388 . S
C594 C595 1.366 . S
C595 C594 1.366 . S
C595 C596 1.414 1_554 S
C595 C598 1.499 . S
C596 H576 0.950 . S
C596 C595 1.414 1_556 S
C596 C597 1.374 . S
C597 H577 0.950 . S
C597 C593 1.385 . S
C597 C596 1.374 . S
C598 C595 1.499 . S
C598 C599 1.373 . S
C598 C600 1.389 . S
C599 H578 0.950 . S
C599 C598 1.373 . S
C599 C615 1.377 . S
C600 C598 1.389 . S
C600 C601 1.524 . S
C600 C614 1.377 . S
C601 C600 1.524 . S
C601 C602 1.397 . S
C601 C606 1.363 . S
C602 H579 0.951 . S
C602 C601 1.397 . S
C602 C603 1.334 . S
C603 H580 0.950 . S
C603 C602 1.334 . S
C603 C604 1.287 . S
C604 C603 1.287 . S
C604 C605 1.524 . S
C604 H623 0.913 . S
C605 H581 0.950 . S
C605 C604 1.524 . S
C605 C606 1.415 . S
C606 H582 0.950 . S
C606 C601 1.363 . S
C606 C605 1.415 . S
C607 H583 0.951 . S
C607 C608 1.366 . S
C607 C609 1.388 . S
C608 C607 1.366 . S
C608 C612 1.385 . S
C609 H584 0.951 . S
C609 C607 1.388 . S
C609 C610 1.366 . S
C610 C609 1.366 . S
C610 C611 1.414 . S
C610 C613 1.499 . S
C611 H585 0.950 . S
C611 C610 1.414 . S
C611 C612 1.374 . S
C612 H586 0.950 . S
C612 C608 1.385 . S
C612 C611 1.374 . S
C613 C610 1.499 . S
C613 C614 1.373 . S
C613 C615 1.389 . S
C614 H587 0.950 . S
C614 C600 1.377 . S
C614 C613 1.373 . S
C615 C599 1.377 . S
C615 C613 1.389 . S
C615 C616 1.524 . S
C616 C615 1.524 . S
C616 C617 1.397 . S
C616 C621 1.363 . S
C617 H588 0.950 . S
C617 C616 1.397 . S
C617 C618 1.334 . S
C618 H589 0.950 . S
C618 C617 1.334 . S
C618 C619 1.287 . S
C619 C618 1.287 . S
C619 C620 1.524 . S
C619 H622 0.999 . S
C620 H590 0.950 1_554 S
C620 C619 1.524 . S
C620 C621 1.415 . S
C621 H591 0.950 1_554 S
C621 C616 1.363 . S
C621 C620 1.415 . S
H622 C619 0.999 . S
H623 C604 0.913 . S
H624 C642 0.951 . S
H625 C644 0.951 . S
H626 C646 0.950 . S
H627 C647 0.950 . S
H628 C649 0.950 . S
H629 C652 0.950 . S
H630 C653 0.950 . S
H631 C655 0.950 . S
H632 C656 0.950 . S
H633 C657 0.951 . S
H634 C659 0.951 . S
H635 C661 0.950 . S
H636 C662 0.950 . S
H637 C664 0.950 . S
H638 C667 0.950 . S
H639 C668 0.950 . S
H640 C670 0.950 . S
H641 C671 0.950 . S
C642 H624 0.951 . S
C642 C643 1.366 . S
C642 C644 1.388 . S
C643 C642 1.366 . S
C643 C647 1.385 . S
C644 H625 0.951 . S
C644 C642 1.388 . S
C644 C645 1.366 . S
C645 C644 1.366 . S
C645 C646 1.414 . S
C645 C648 1.499 . S
C646 H626 0.950 . S
C646 C645 1.414 . S
C646 C647 1.374 . S
C647 H627 0.950 . S
C647 C643 1.385 . S
C647 C646 1.374 . S
C648 C645 1.499 . S
C648 C649 1.373 . S
C648 C650 1.389 . S
C649 H628 0.950 . S
C649 C648 1.373 . S
C649 C665 1.377 1_655 S
C650 C648 1.389 . S
C650 C651 1.524 . S
C650 C664 1.377 . S
C651 C650 1.524 . S
C651 C652 1.397 . S
C651 C656 1.363 . S
C652 H629 0.950 . S
C652 C651 1.397 . S
C652 C653 1.334 . S
C653 H630 0.950 . S
C653 C652 1.334 . S
C653 C654 1.287 . S
C654 C653 1.287 . S
C654 C655 1.524 . S
C654 H673 0.913 . S
C655 H631 0.950 . S
C655 C654 1.524 . S
C655 C656 1.415 . S
C656 H632 0.950 . S
C656 C651 1.363 . S
C656 C655 1.415 . S
C657 H633 0.951 . S
C657 C658 1.366 . S
C657 C659 1.388 . S
C658 C657 1.366 . S
C658 C662 1.385 . S
C659 H634 0.951 . S
C659 C657 1.388 . S
C659 C660 1.366 . S
C660 C659 1.366 . S
C660 C661 1.414 . S
C660 C663 1.499 . S
C661 H635 0.950 . S
C661 C660 1.414 . S
C661 C662 1.374 . S
C662 H636 0.950 . S
C662 C658 1.385 . S
C662 C661 1.374 . S
C663 C660 1.499 . S
C663 C664 1.373 1_455 S
C663 C665 1.389 . S
C664 H637 0.950 . S
C664 C650 1.377 . S
C664 C663 1.373 1_655 S
C665 C649 1.377 1_455 S
C665 C663 1.389 . S
C665 C666 1.524 . S
C666 C665 1.524 . S
C666 C667 1.397 . S
C666 C671 1.363 . S
C667 H638 0.950 . S
C667 C666 1.397 . S
C667 C668 1.334 . S
C668 H639 0.950 . S
C668 C667 1.334 . S
C668 C669 1.287 . S
C669 C668 1.287 . S
C669 C670 1.524 . S
C669 H672 0.999 . S
C670 H640 0.950 . S
C670 C669 1.524 . S
C670 C671 1.415 . S
C671 H641 0.950 . S
C671 C666 1.363 . S
C671 C670 1.415 . S
H672 C669 0.999 . S
H673 C654 0.913 . S
H674 C692 0.951 . S
H675 C694 0.951 . S
H676 C696 0.950 . S
H677 C697 0.950 . S
H678 C699 0.950 . S
H679 C702 0.950 . S
H680 C703 0.950 . S
H681 C705 0.950 . S
H682 C706 0.950 . S
H683 C707 0.951 . S
H684 C709 0.951 . S
H685 C711 0.950 . S
H686 C712 0.950 . S
H687 C714 0.950 . S
H688 C717 0.950 . S
H689 C718 0.950 . S
H690 C720 0.950 . S
H691 C721 0.950 . S
C692 H674 0.951 . S
C692 C693 1.366 . S
C692 C694 1.388 . S
C693 C692 1.366 . S
C693 C697 1.385 . S
C694 H675 0.951 . S
C694 C692 1.388 . S
C694 C695 1.366 . S
C695 C694 1.366 . S
C695 C696 1.414 . S
C695 C698 1.499 . S
C696 H676 0.950 . S
C696 C695 1.414 . S
C696 C697 1.374 . S
C697 H677 0.950 . S
C697 C693 1.385 . S
C697 C696 1.374 . S
C698 C695 1.499 . S
C698 C699 1.373 . S
C698 C700 1.389 1_554 S
C699 H678 0.950 . S
C699 C698 1.373 . S
C699 C715 1.377 . S
C700 C698 1.389 1_556 S
C700 C701 1.524 . S
C700 C714 1.377 . S
C701 C700 1.524 . S
C701 C702 1.397 . S
C701 C706 1.363 . S
C702 H679 0.950 . S
C702 C701 1.397 . S
C702 C703 1.334 . S
C703 H680 0.950 . S
C703 C702 1.334 . S
C703 C704 1.287 . S
C704 C703 1.287 . S
C704 C705 1.524 . S
C704 H723 0.913 . S
C705 H681 0.950 . S
C705 C704 1.524 . S
C705 C706 1.415 . S
C706 H682 0.950 . S
C706 C701 1.363 . S
C706 C705 1.415 . S
C707 H683 0.951 . S
C707 C708 1.366 . S
C707 C709 1.388 . S
C708 C707 1.366 . S
C708 C712 1.385 . S
C709 H684 0.951 . S
C709 C707 1.388 . S
C709 C710 1.366 . S
C710 C709 1.366 . S
C710 C711 1.414 . S
C710 C713 1.499 . S
C711 H685 0.950 . S
C711 C710 1.414 . S
C711 C712 1.374 . S
C712 H686 0.950 . S
C712 C708 1.385 . S
C712 C711 1.374 . S
C713 C710 1.499 . S
C713 C714 1.373 . S
C713 C715 1.389 1_556 S
C714 H687 0.950 . S
C714 C700 1.377 . S
C714 C713 1.373 . S
C715 C699 1.377 . S
C715 C713 1.389 1_554 S
C715 C716 1.524 . S
C716 C715 1.524 . S
C716 C717 1.397 . S
C716 C721 1.363 . S
C717 H688 0.950 . S
C717 C716 1.397 . S
C717 C718 1.334 . S
C718 H689 0.950 . S
C718 C717 1.334 . S
C718 C719 1.287 . S
C719 C718 1.287 . S
C719 C720 1.524 . S
C719 H722 0.999 . S
C720 H690 0.950 . S
C720 C719 1.524 . S
C720 C721 1.415 . S
C721 H691 0.950 . S
C721 C716 1.363 . S
C721 C720 1.415 . S
H722 C719 0.999 . S
H723 C704 0.913 . S
H724 C742 0.951 . S
H725 C744 0.951 . S
H726 C746 0.950 . S
H727 C747 0.950 . S
H728 C749 0.950 . S
H729 C752 0.950 . S
H730 C753 0.950 . S
H731 C755 0.950 . S
H732 C756 0.950 1_565 S
H733 C757 0.951 . S
H734 C759 0.951 . S
H735 C761 0.950 . S
H736 C762 0.950 . S
H737 C764 0.950 . S
H738 C767 0.950 . S
H739 C768 0.950 . S
H740 C770 0.950 . S
H741 C771 0.950 . S
C742 H724 0.951 . S
C742 C743 1.366 . S
C742 C744 1.388 . S
C743 C742 1.366 . S
C743 C747 1.385 . S
C744 H725 0.951 . S
C744 C742 1.388 . S
C744 C745 1.366 . S
C745 C744 1.366 . S
C745 C746 1.414 . S
C745 C748 1.499 . S
C746 H726 0.950 . S
C746 C745 1.414 . S
C746 C747 1.374 . S
C747 H727 0.950 . S
C747 C743 1.385 . S
C747 C746 1.374 . S
C748 C745 1.499 . S
C748 C749 1.373 . S
C748 C750 1.390 1_545 S
C749 H728 0.950 . S
C749 C748 1.373 . S
C749 C765 1.377 1_545 S
C750 C748 1.390 1_565 S
C750 C751 1.526 1_565 S
C750 C764 1.374 . S
C751 C750 1.526 1_545 S
C751 C752 1.397 . S
C751 C756 1.348 . S
C752 H729 0.950 . S
C752 C751 1.397 . S
C752 C753 1.334 . S
C753 H730 0.950 . S
C753 C752 1.334 . S
C753 C754 1.287 . S
C754 C753 1.287 . S
C754 C755 1.524 . S
C754 H773 0.913 . S
C755 H731 0.950 . S
C755 C754 1.524 . S
C755 C756 1.431 . S
C756 H732 0.950 1_545 S
C756 C751 1.348 . S
C756 C755 1.431 . S
C757 H733 0.951 . S
C757 C758 1.366 . S
C757 C759 1.388 . S
C758 C757 1.366 . S
C758 C762 1.385 . S
C759 H734 0.951 . S
C759 C757 1.388 . S
C759 C760 1.366 . S
C760 C759 1.366 . S
C760 C761 1.414 . S
C760 C763 1.499 . S
C761 H735 0.950 . S
C761 C760 1.414 . S
C761 C762 1.374 . S
C762 H736 0.950 . S
C762 C758 1.385 . S
C762 C761 1.374 . S
C763 C760 1.499 . S
C763 C764 1.373 . S
C763 C765 1.389 . S
C764 H737 0.950 . S
C764 C750 1.374 . S
C764 C763 1.373 . S
C765 C749 1.377 1_565 S
C765 C763 1.389 . S
C765 C766 1.524 . S
C766 C765 1.524 . S
C766 C767 1.397 . S
C766 C771 1.363 . S
C767 H738 0.950 . S
C767 C766 1.397 . S
C767 C768 1.334 . S
C768 H739 0.950 . S
C768 C767 1.334 . S
C768 C769 1.287 . S
C769 C768 1.287 . S
C769 C770 1.524 . S
C769 H772 0.999 . S
C770 H740 0.950 . S
C770 C769 1.524 . S
C770 C771 1.415 . S
C771 H741 0.950 . S
C771 C766 1.363 . S
C771 C770 1.415 . S
H772 C769 0.999 . S
H773 C754 0.913 . S
H774 C792 0.951 . S
H775 C794 0.951 . S
H776 C796 0.950 . S
H777 C797 0.950 . S
H778 C799 0.950 . S
H779 C802 0.950 . S
H780 C803 0.950 . S
H781 C805 0.950 . S
H782 C806 0.950 . S
H783 C807 0.951 . S
H784 C809 0.951 . S
H785 C811 0.950 . S
H786 C812 0.950 . S
H787 C814 0.950 . S
H788 C817 0.950 . S
H789 C818 0.950 . S
H790 C820 0.950 . S
H791 C821 0.950 . S
C792 H774 0.951 . S
C792 C793 1.366 1_556 S
C792 C794 1.388 . S
C793 C792 1.366 1_554 S
C793 C797 1.385 . S
C794 H775 0.951 . S
C794 C792 1.388 . S
C794 C795 1.366 1_556 S
C795 C794 1.366 1_554 S
C795 C796 1.414 . S
C795 C798 1.499 . S
C796 H776 0.950 . S
C796 C795 1.414 . S
C796 C797 1.374 . S
C797 H777 0.950 . S
C797 C793 1.385 . S
C797 C796 1.374 . S
C798 C795 1.499 . S
C798 C799 1.373 . S
C798 C800 1.389 1_554 S
C799 H778 0.950 . S
C799 C798 1.373 . S
C799 C815 1.377 . S
C800 C798 1.389 1_556 S
C800 C801 1.524 . S
C800 C814 1.377 . S
C801 C800 1.524 . S
C801 C802 1.397 . S
C801 C806 1.363 . S
C802 H779 0.950 . S
C802 C801 1.397 . S
C802 C803 1.334 . S
C803 H780 0.950 . S
C803 C802 1.334 . S
C803 C804 1.287 . S
C804 C803 1.287 . S
C804 C805 1.524 . S
C804 H823 0.913 . S
C805 H781 0.950 . S
C805 C804 1.524 . S
C805 C806 1.415 . S
C806 H782 0.950 . S
C806 C801 1.363 . S
C806 C805 1.415 . S
C807 H783 0.951 . S
C807 C808 1.366 1_554 S
C807 C809 1.388 . S
C808 C807 1.366 1_556 S
C808 C812 1.385 . S
C809 H784 0.951 . S
C809 C807 1.388 . S
C809 C810 1.366 1_554 S
C810 C809 1.366 1_556 S
C810 C811 1.414 . S
C810 C813 1.499 . S
C811 H785 0.950 . S
C811 C810 1.414 . S
C811 C812 1.374 . S
C812 H786 0.950 . S
C812 C808 1.385 . S
C812 C811 1.374 . S
C813 C810 1.499 . S
C813 C814 1.373 . S
C813 C815 1.389 1_556 S
C814 H787 0.950 . S
C814 C800 1.377 . S
C814 C813 1.373 . S
C815 C799 1.377 . S
C815 C813 1.389 1_554 S
C815 C816 1.524 . S
C816 C815 1.524 . S
C816 C817 1.397 . S
C816 C821 1.363 . S
C817 H788 0.950 . S
C817 C816 1.397 . S
C817 C818 1.334 . S
C818 H789 0.950 . S
C818 C817 1.334 . S
C818 C819 1.287 . S
C819 C818 1.287 . S
C819 C820 1.524 . S
C819 H822 0.999 . S
C820 H790 0.950 . S
C820 C819 1.524 . S
C820 C821 1.415 . S
C821 H791 0.950 . S
C821 C816 1.363 . S
C821 C820 1.415 . S
H822 C819 0.999 . S
H823 C804 0.913 . S
H824 C842 0.951 . S
H825 C844 0.951 . S
H826 C846 0.950 . S
H827 C847 0.950 . S
H828 C849 0.950 . S
H829 C852 0.950 . S
H830 C853 0.950 . S
H831 C855 0.950 . S
H832 C856 0.950 . S
H833 C857 0.951 . S
H834 C859 0.951 . S
H835 C861 0.950 . S
H836 C862 0.950 . S
H837 C864 0.950 . S
H838 C867 0.950 . S
H839 C868 0.950 . S
H840 C870 0.950 . S
H841 C871 0.950 . S
C842 H824 0.951 . S
C842 C843 1.366 . S
C842 C844 1.388 . S
C843 C842 1.366 . S
C843 C847 1.385 . S
C844 H825 0.951 . S
C844 C842 1.388 . S
C844 C845 1.366 . S
C845 C844 1.366 . S
C845 C846 1.414 . S
C845 C848 1.499 . S
C846 H826 0.950 . S
C846 C845 1.414 . S
C846 C847 1.374 . S
C847 H827 0.950 . S
C847 C843 1.385 . S
C847 C846 1.374 . S
C848 C845 1.499 . S
C848 C849 1.373 . S
C848 C850 1.389 . S
C849 H828 0.950 . S
C849 C848 1.373 . S
C849 C865 1.377 1_565 S
C850 C848 1.389 . S
C850 C851 1.524 . S
C850 C864 1.377 1_565 S
C851 C850 1.524 . S
C851 C852 1.397 . S
C851 C856 1.363 . S
C852 H829 0.950 . S
C852 C851 1.397 . S
C852 C853 1.334 . S
C853 H830 0.950 . S
C853 C852 1.334 . S
C853 C854 1.287 . S
C854 C853 1.287 . S
C854 C855 1.524 . S
C854 H873 0.913 . S
C855 H831 0.950 . S
C855 C854 1.524 . S
C855 C856 1.415 . S
C856 H832 0.950 . S
C856 C851 1.363 . S
C856 C855 1.415 . S
C857 H833 0.951 . S
C857 C858 1.366 . S
C857 C859 1.388 . S
C858 C857 1.366 . S
C858 C862 1.385 . S
C859 H834 0.951 . S
C859 C857 1.388 . S
C859 C860 1.366 . S
C860 C859 1.366 . S
C860 C861 1.414 . S
C860 C863 1.499 . S
C861 H835 0.950 . S
C861 C860 1.414 . S
C861 C862 1.374 . S
C862 H836 0.950 . S
C862 C858 1.385 . S
C862 C861 1.374 . S
C863 C860 1.499 . S
C863 C864 1.373 . S
C863 C865 1.389 . S
C864 H837 0.950 . S
C864 C850 1.377 1_545 S
C864 C863 1.373 . S
C865 C849 1.377 1_545 S
C865 C863 1.389 . S
C865 C866 1.524 . S
C866 C865 1.524 . S
C866 C867 1.397 . S
C866 C871 1.363 . S
C867 H838 0.950 . S
C867 C866 1.397 . S
C867 C868 1.334 . S
C868 H839 0.950 . S
C868 C867 1.334 . S
C868 C869 1.287 . S
C869 C868 1.287 . S
C869 C870 1.524 . S
C869 H872 0.999 . S
C870 H840 0.950 . S
C870 C869 1.524 . S
C870 C871 1.415 . S
C871 H841 0.950 . S
C871 C866 1.363 . S
C871 C870 1.415 . S
H872 C869 0.999 . S
H873 C854 0.913 . S
H874 C892 0.951 . S
H875 C894 0.951 . S
H876 C896 0.950 . S
H877 C897 0.950 . S
H878 C899 0.950 . S
H879 C902 0.950 . S
H880 C903 0.950 . S
H881 C905 0.950 . S
H882 C906 0.950 . S
H883 C907 0.951 . S
H884 C909 0.951 . S
H885 C911 0.950 . S
H886 C912 0.950 . S
H887 C914 0.950 . S
H888 C917 0.950 . S
H889 C918 0.950 . S
H890 C920 0.950 . S
H891 C921 0.950 . S
C892 H874 0.951 . S
C892 C893 1.366 . S
C892 C894 1.388 . S
C893 C892 1.366 . S
C893 C897 1.385 . S
C894 H875 0.951 . S
C894 C892 1.388 . S
C894 C895 1.366 . S
C895 C894 1.366 . S
C895 C896 1.414 . S
C895 C898 1.499 . S
C896 H876 0.950 . S
C896 C895 1.414 . S
C896 C897 1.374 . S
C897 H877 0.950 . S
C897 C893 1.385 . S
C897 C896 1.374 . S
C898 C895 1.499 . S
C898 C899 1.373 . S
C898 C900 1.389 . S
C899 H878 0.950 . S
C899 C898 1.373 . S
C899 C915 1.377 1_655 S
C900 C898 1.389 . S
C900 C901 1.524 . S
C900 C914 1.377 1_655 S
C901 C900 1.524 . S
C901 C902 1.397 . S
C901 C906 1.363 . S
C902 H879 0.950 . S
C902 C901 1.397 . S
C902 C903 1.334 . S
C903 H880 0.950 . S
C903 C902 1.334 . S
C903 C904 1.287 . S
C904 C903 1.287 . S
C904 C905 1.524 . S
C904 H923 0.913 . S
C905 H881 0.950 . S
C905 C904 1.524 . S
C905 C906 1.415 . S
C906 H882 0.950 . S
C906 C901 1.363 . S
C906 C905 1.415 . S
C907 H883 0.951 . S
C907 C908 1.366 . S
C907 C909 1.388 . S
C908 C907 1.366 . S
C908 C912 1.385 . S
C909 H884 0.951 . S
C909 C907 1.388 . S
C909 C910 1.366 . S
C910 C909 1.366 . S
C910 C911 1.414 . S
C910 C913 1.499 . S
C911 H885 0.950 . S
C911 C910 1.414 . S
C911 C912 1.374 . S
C912 H886 0.950 . S
C912 C908 1.385 . S
C912 C911 1.374 . S
C913 C910 1.499 . S
C913 C914 1.373 . S
C913 C915 1.389 . S
C914 H887 0.950 . S
C914 C900 1.377 1_455 S
C914 C913 1.373 . S
C915 C899 1.377 1_455 S
C915 C913 1.389 . S
C915 C916 1.524 . S
C916 C915 1.524 . S
C916 C917 1.397 . S
C916 C921 1.363 . S
C917 H888 0.950 . S
C917 C916 1.397 . S
C917 C918 1.334 . S
C918 H889 0.950 . S
C918 C917 1.334 . S
C918 C919 1.287 . S
C919 C918 1.287 . S
C919 C920 1.524 . S
C919 H922 0.999 . S
C920 H890 0.950 . S
C920 C919 1.524 . S
C920 C921 1.415 . S
C921 H891 0.950 . S
C921 C916 1.363 . S
C921 C920 1.415 . S
H922 C919 0.999 . S
H923 C904 0.913 . S
H924 C942 0.951 . S
H925 C944 0.951 . S
H926 C946 0.950 . S
H927 C947 0.950 . S
H928 C949 0.950 . S
H929 C952 0.950 . S
H930 C953 0.950 . S
H931 C955 0.950 . S
H932 C956 0.950 . S
H933 C957 0.951 . S
H934 C959 0.951 . S
H935 C961 0.950 . S
H936 C962 0.950 . S
H937 C964 0.950 . S
H938 C967 0.950 . S
H939 C968 0.950 . S
H940 C970 0.950 . S
H941 C971 0.950 . S
C942 H924 0.951 . S
C942 C943 1.366 . S
C942 C944 1.388 . S
C943 C942 1.366 . S
C943 C947 1.385 . S
C944 H925 0.951 . S
C944 C942 1.388 . S
C944 C945 1.366 . S
C945 C944 1.366 . S
C945 C946 1.414 . S
C945 C948 1.499 . S
C946 H926 0.950 . S
C946 C945 1.414 . S
C946 C947 1.374 . S
C947 H927 0.950 . S
C947 C943 1.385 . S
C947 C946 1.374 . S
C948 C945 1.499 . S
C948 C949 1.373 . S
C948 C950 1.389 . S
C949 H928 0.950 . S
C949 C948 1.373 . S
C949 C965 1.377 . S
C950 C948 1.389 . S
C950 C951 1.524 . S
C950 C964 1.377 . S
C951 C950 1.524 . S
C951 C952 1.397 . S
C951 C956 1.363 . S
C952 H929 0.950 . S
C952 C951 1.397 . S
C952 C953 1.334 . S
C953 H930 0.950 . S
C953 C952 1.334 . S
C953 C954 1.287 . S
C954 C953 1.287 . S
C954 C955 1.524 . S
C954 H973 0.913 . S
C955 H931 0.950 . S
C955 C954 1.524 . S
C955 C956 1.415 . S
C956 H932 0.950 . S
C956 C951 1.363 . S
C956 C955 1.415 . S
C957 H933 0.951 . S
C957 C958 1.366 . S
C957 C959 1.388 . S
C958 C957 1.366 . S
C958 C962 1.385 . S
C959 H934 0.951 . S
C959 C957 1.388 . S
C959 C960 1.366 . S
C960 C959 1.366 . S
C960 C961 1.414 . S
C960 C963 1.499 . S
C961 H935 0.950 . S
C961 C960 1.414 . S
C961 C962 1.374 . S
C962 H936 0.950 . S
C962 C958 1.385 . S
C962 C961 1.374 . S
C963 C960 1.499 . S
C963 C964 1.373 . S
C963 C965 1.389 . S
C964 H937 0.950 . S
C964 C950 1.377 . S
C964 C963 1.373 . S
C965 C949 1.377 . S
C965 C963 1.389 . S
C965 C966 1.524 . S
C966 C965 1.524 . S
C966 C967 1.397 . S
C966 C971 1.363 . S
C967 H938 0.950 . S
C967 C966 1.397 . S
C967 C968 1.334 . S
C968 H939 0.950 . S
C968 C967 1.334 . S
C968 C969 1.287 . S
C969 C968 1.287 . S
C969 C970 1.524 . S
C969 H972 0.999 . S
C970 H940 0.950 . S
C970 C969 1.524 . S
C970 C971 1.415 . S
C971 H941 0.950 . S
C971 C966 1.363 . S
C971 C970 1.415 . S
H972 C969 0.999 . S
H973 C954 0.913 . S
H974 C992 0.951 . S
H975 C994 0.951 . S
H976 C996 0.950 . S
H977 C997 0.950 . S
H978 C999 0.950 . S
H979 C1002 0.950 . S
H980 C1003 0.950 . S
H981 C1005 0.950 . S
H982 C1006 0.950 . S
H983 C1007 0.951 . S
H984 C1009 0.951 . S
H985 C1011 0.950 . S
H986 C1012 0.950 . S
H987 C1014 0.950 . S
H988 C1017 0.950 . S
H989 C1018 0.950 . S
H990 C1020 0.950 . S
H991 C1021 0.950 . S
C992 H974 0.951 . S
C992 C993 1.366 . S
C992 C994 1.388 . S
C993 C992 1.366 . S
C993 C997 1.385 . S
C994 H975 0.951 . S
C994 C992 1.388 . S
C994 C995 1.366 . S
C995 C994 1.366 . S
C995 C996 1.414 . S
C995 C998 1.499 . S
C996 H976 0.950 . S
C996 C995 1.414 . S
C996 C997 1.374 . S
C997 H977 0.950 . S
C997 C993 1.385 . S
C997 C996 1.374 . S
C998 C995 1.499 . S
C998 C999 1.373 . S
C998 C1000 1.389 . S
C999 H978 0.950 . S
C999 C998 1.373 . S
C999 C1015 1.377 . S
C1000 C998 1.389 . S
C1000 C1001 1.524 . S
C1000 C1014 1.377 . S
C1001 C1000 1.524 . S
C1001 C1002 1.397 . S
C1001 C1006 1.363 . S
C1002 H979 0.950 . S
C1002 C1001 1.397 . S
C1002 C1003 1.334 . S
C1003 H980 0.950 . S
C1003 C1002 1.334 . S
C1003 C1004 1.287 . S
C1004 C1003 1.287 . S
C1004 C1005 1.524 . S
C1004 H1023 0.913 . S
C1005 H981 0.950 . S
C1005 C1004 1.524 . S
C1005 C1006 1.415 . S
C1006 H982 0.950 . S
C1006 C1001 1.363 . S
C1006 C1005 1.415 . S
C1007 H983 0.951 . S
C1007 C1008 1.366 . S
C1007 C1009 1.388 . S
C1008 C1007 1.366 . S
C1008 C1012 1.385 . S
C1009 H984 0.951 . S
C1009 C1007 1.388 . S
C1009 C1010 1.366 . S
C1010 C1009 1.366 . S
C1010 C1011 1.414 . S
C1010 C1013 1.499 . S
C1011 H985 0.950 . S
C1011 C1010 1.414 . S
C1011 C1012 1.374 . S
C1012 H986 0.950 . S
C1012 C1008 1.385 . S
C1012 C1011 1.374 . S
C1013 C1010 1.499 . S
C1013 C1014 1.373 . S
C1013 C1015 1.389 . S
C1014 H987 0.950 . S
C1014 C1000 1.377 . S
C1014 C1013 1.373 . S
C1015 C999 1.377 . S
C1015 C1013 1.389 . S
C1015 C1016 1.524 . S
C1016 C1015 1.524 . S
C1016 C1017 1.397 . S
C1016 C1021 1.363 . S
C1017 H988 0.950 . S
C1017 C1016 1.397 . S
C1017 C1018 1.334 . S
C1018 H989 0.950 . S
C1018 C1017 1.334 . S
C1018 C1019 1.287 . S
C1019 C1018 1.287 . S
C1019 C1020 1.524 . S
C1019 H1022 0.999 . S
C1020 H990 0.950 . S
C1020 C1019 1.524 . S
C1020 C1021 1.415 . S
C1021 H991 0.950 . S
C1021 C1016 1.363 . S
C1021 C1020 1.415 . S
H1022 C1019 0.999 . S
H1023 C1004 0.913 . S
H1024 C1042 0.951 . S
H1025 C1044 0.951 . S
H1026 C1046 0.950 . S
H1027 C1047 0.950 . S
H1028 C1049 0.950 . S
H1029 C1052 0.950 . S
H1030 C1053 0.950 . S
H1031 C1055 0.950 . S
H1032 C1056 0.950 . S
H1033 C1057 0.951 . S
H1034 C1059 0.951 . S
H1035 C1061 0.950 . S
H1036 C1062 0.950 . S
H1037 C1064 0.950 . S
H1038 C1067 0.950 1_554 S
H1039 C1068 0.950 . S
H1040 C1070 0.950 . S
H1041 C1071 0.950 . S
C1042 H1024 0.951 . S
C1042 C1043 1.366 . S
C1042 C1044 1.388 . S
C1043 C1042 1.366 . S
C1043 C1047 1.385 . S
C1044 H1025 0.951 . S
C1044 C1042 1.388 . S
C1044 C1045 1.366 . S
C1045 C1044 1.366 . S
C1045 C1046 1.414 . S
C1045 C1048 1.499 . S
C1046 H1026 0.950 . S
C1046 C1045 1.414 . S
C1046 C1047 1.374 . S
C1047 H1027 0.950 . S
C1047 C1043 1.385 . S
C1047 C1046 1.374 . S
C1048 C1045 1.499 . S
C1048 C1049 1.373 . S
C1048 C1050 1.389 . S
C1049 H1028 0.950 . S
C1049 C1048 1.373 . S
C1049 C1065 1.377 . S
C1050 C1048 1.389 . S
C1050 C1051 1.524 . S
C1050 C1064 1.377 . S
C1051 C1050 1.524 . S
C1051 C1052 1.397 . S
C1051 C1056 1.363 . S
C1052 H1029 0.950 . S
C1052 C1051 1.397 . S
C1052 C1053 1.334 . S
C1053 H1030 0.950 . S
C1053 C1052 1.334 . S
C1053 C1054 1.287 . S
C1054 C1053 1.287 . S
C1054 C1055 1.524 . S
C1054 H1073 0.913 . S
C1055 H1031 0.950 . S
C1055 C1054 1.524 . S
C1055 C1056 1.415 . S
C1056 H1032 0.950 . S
C1056 C1051 1.363 . S
C1056 C1055 1.415 . S
C1057 H1033 0.951 . S
C1057 C1058 1.366 . S
C1057 C1059 1.388 . S
C1058 C1057 1.366 . S
C1058 C1062 1.385 . S
C1059 H1034 0.951 . S
C1059 C1057 1.388 . S
C1059 C1060 1.366 . S
C1060 C1059 1.366 . S
C1060 C1061 1.414 . S
C1060 C1063 1.499 1_554 S
C1061 H1035 0.950 . S
C1061 C1060 1.414 . S
C1061 C1062 1.374 . S
C1062 H1036 0.950 . S
C1062 C1058 1.385 . S
C1062 C1061 1.374 . S
C1063 C1060 1.499 1_556 S
C1063 C1064 1.373 . S
C1063 C1065 1.389 . S
C1064 H1037 0.950 . S
C1064 C1050 1.377 . S
C1064 C1063 1.373 . S
C1065 C1049 1.377 . S
C1065 C1063 1.389 . S
C1065 C1066 1.524 . S
C1066 C1065 1.524 . S
C1066 C1067 1.397 . S
C1066 C1071 1.363 . S
C1067 H1038 0.950 1_556 S
C1067 C1066 1.397 . S
C1067 C1068 1.334 1_556 S
C1068 H1039 0.950 . S
C1068 C1067 1.334 1_554 S
C1068 C1069 1.287 . S
C1069 C1068 1.287 . S
C1069 C1070 1.524 1_554 S
C1069 H1072 0.999 . S
C1070 H1040 0.950 . S
C1070 C1069 1.524 1_556 S
C1070 C1071 1.415 . S
C1071 H1041 0.950 . S
C1071 C1066 1.363 . S
C1071 C1070 1.415 . S
H1072 C1069 0.999 . S
H1073 C1054 0.913 . S
H1074 C1092 0.951 . S
H1075 C1094 0.951 . S
H1076 C1096 0.950 . S
H1077 C1097 0.950 . S
H1078 C1099 0.950 . S
H1079 C1102 0.950 . S
H1080 C1103 0.950 . S
H1081 C1105 0.950 . S
H1082 C1106 0.950 . S
H1083 C1107 0.951 . S
H1084 C1109 0.951 . S
H1085 C1111 0.950 . S
H1086 C1112 0.950 . S
H1087 C1114 0.950 . S
H1088 C1117 0.950 . S
H1089 C1118 0.950 . S
H1090 C1120 0.950 . S
H1091 C1121 0.950 . S
C1092 H1074 0.951 . S
C1092 C1093 1.366 . S
C1092 C1094 1.388 . S
C1093 C1092 1.366 . S
C1093 C1097 1.385 . S
C1094 H1075 0.951 . S
C1094 C1092 1.388 . S
C1094 C1095 1.366 . S
C1095 C1094 1.366 . S
C1095 C1096 1.414 . S
C1095 C1098 1.499 . S
C1096 H1076 0.950 . S
C1096 C1095 1.414 . S
C1096 C1097 1.374 . S
C1097 H1077 0.950 . S
C1097 C1093 1.385 . S
C1097 C1096 1.374 . S
C1098 C1095 1.499 . S
C1098 C1099 1.373 . S
C1098 C1100 1.389 . S
C1099 H1078 0.950 . S
C1099 C1098 1.373 . S
C1099 C1115 1.377 . S
C1100 C1098 1.389 . S
C1100 C1101 1.524 . S
C1100 C1114 1.377 . S
C1101 C1100 1.524 . S
C1101 C1102 1.397 . S
C1101 C1106 1.363 . S
C1102 H1079 0.950 . S
C1102 C1101 1.397 . S
C1102 C1103 1.334 . S
C1103 H1080 0.950 . S
C1103 C1102 1.334 . S
C1103 C1104 1.287 . S
C1104 C1103 1.287 . S
C1104 C1105 1.524 . S
C1104 H1123 0.913 . S
C1105 H1081 0.950 . S
C1105 C1104 1.524 . S
C1105 C1106 1.415 . S
C1106 H1082 0.950 . S
C1106 C1101 1.363 . S
C1106 C1105 1.415 . S
C1107 H1083 0.951 . S
C1107 C1108 1.366 . S
C1107 C1109 1.388 . S
C1108 C1107 1.366 . S
C1108 C1112 1.385 . S
C1109 H1084 0.951 . S
C1109 C1107 1.388 . S
C1109 C1110 1.366 . S
C1110 C1109 1.366 . S
C1110 C1111 1.414 . S
C1110 C1113 1.499 . S
C1111 H1085 0.950 . S
C1111 C1110 1.414 . S
C1111 C1112 1.374 . S
C1112 H1086 0.950 . S
C1112 C1108 1.385 . S
C1112 C1111 1.374 . S
C1113 C1110 1.499 . S
C1113 C1114 1.373 . S
C1113 C1115 1.389 . S
C1114 H1087 0.950 . S
C1114 C1100 1.377 . S
C1114 C1113 1.373 . S
C1115 C1099 1.377 . S
C1115 C1113 1.389 . S
C1115 C1116 1.524 . S
C1116 C1115 1.524 . S
C1116 C1117 1.397 . S
C1116 C1121 1.363 . S
C1117 H1088 0.950 . S
C1117 C1116 1.397 . S
C1117 C1118 1.334 . S
C1118 H1089 0.950 . S
C1118 C1117 1.334 . S
C1118 C1119 1.287 . S
C1119 C1118 1.287 . S
C1119 C1120 1.524 . S
C1119 H1122 0.999 . S
C1120 H1090 0.950 . S
C1120 C1119 1.524 . S
C1120 C1121 1.415 . S
C1121 H1091 0.950 . S
C1121 C1116 1.363 . S
C1121 C1120 1.415 . S
H1122 C1119 0.999 . S
H1123 C1104 0.913 . S
H1124 C1142 0.951 . S
H1125 C1144 0.951 . S
H1126 C1146 0.950 . S
H1127 C1147 0.950 . S
H1128 C1149 0.950 . S
H1129 C1152 0.950 . S
H1130 C1153 0.950 . S
H1131 C1155 0.950 . S
H1132 C1156 0.950 . S
H1133 C1157 0.951 . S
H1134 C1159 0.951 . S
H1135 C1161 0.950 . S
H1136 C1162 0.950 . S
H1137 C1164 0.950 . S
H1138 C1167 0.950 . S
H1139 C1168 0.950 . S
H1140 C1170 0.950 . S
H1141 C1171 0.950 . S
C1142 H1124 0.951 . S
C1142 C1143 1.366 . S
C1142 C1144 1.388 . S
C1143 C1142 1.366 . S
C1143 C1147 1.385 . S
C1144 H1125 0.951 . S
C1144 C1142 1.388 . S
C1144 C1145 1.366 . S
C1145 C1144 1.366 . S
C1145 C1146 1.414 . S
C1145 C1148 1.499 . S
C1146 H1126 0.950 . S
C1146 C1145 1.414 . S
C1146 C1147 1.374 . S
C1147 H1127 0.950 . S
C1147 C1143 1.385 . S
C1147 C1146 1.374 . S
C1148 C1145 1.499 . S
C1148 C1149 1.373 . S
C1148 C1150 1.389 . S
C1149 H1128 0.950 . S
C1149 C1148 1.373 . S
C1149 C1165 1.377 . S
C1150 C1148 1.389 . S
C1150 C1151 1.524 . S
C1150 C1164 1.377 . S
C1151 C1150 1.524 . S
C1151 C1152 1.397 . S
C1151 C1156 1.363 . S
C1152 H1129 0.950 . S
C1152 C1151 1.397 . S
C1152 C1153 1.334 . S
C1153 H1130 0.950 . S
C1153 C1152 1.334 . S
C1153 C1154 1.287 . S
C1154 C1153 1.287 . S
C1154 C1155 1.524 . S
C1154 H1173 0.913 . S
C1155 H1131 0.950 . S
C1155 C1154 1.524 . S
C1155 C1156 1.415 . S
C1156 H1132 0.950 . S
C1156 C1151 1.363 . S
C1156 C1155 1.415 . S
C1157 H1133 0.951 . S
C1157 C1158 1.366 . S
C1157 C1159 1.388 . S
C1158 C1157 1.366 . S
C1158 C1162 1.385 . S
C1159 H1134 0.951 . S
C1159 C1157 1.388 . S
C1159 C1160 1.366 . S
C1160 C1159 1.366 . S
C1160 C1161 1.414 . S
C1160 C1163 1.499 1_556 S
C1161 H1135 0.950 . S
C1161 C1160 1.414 . S
C1161 C1162 1.374 . S
C1162 H1136 0.950 . S
C1162 C1158 1.385 . S
C1162 C1161 1.374 . S
C1163 C1160 1.499 1_554 S
C1163 C1164 1.373 . S
C1163 C1165 1.389 . S
C1164 H1137 0.950 . S
C1164 C1150 1.377 . S
C1164 C1163 1.373 . S
C1165 C1149 1.377 . S
C1165 C1163 1.389 . S
C1165 C1166 1.524 . S
C1166 C1165 1.524 . S
C1166 C1167 1.397 1_554 S
C1166 C1171 1.363 . S
C1167 H1138 0.950 . S
C1167 C1166 1.397 1_556 S
C1167 C1168 1.334 . S
C1168 H1139 0.950 . S
C1168 C1167 1.334 . S
C1168 C1169 1.287 . S
C1169 C1168 1.287 . S
C1169 C1170 1.524 1_556 S
C1169 H1172 0.999 . S
C1170 H1140 0.950 . S
C1170 C1169 1.524 1_554 S
C1170 C1171 1.415 . S
C1171 H1141 0.950 . S
C1171 C1166 1.363 . S
C1171 C1170 1.415 . S
H1172 C1169 0.999 . S
H1173 C1154 0.913 . S
H1174 C1192 0.951 . S
H1175 C1194 0.951 . S
H1176 C1196 0.950 . S
H1177 C1197 0.950 . S
H1178 C1199 0.950 . S
H1179 C1202 0.950 . S
H1180 C1203 0.950 . S
H1181 C1205 0.950 . S
H1182 C1206 0.950 . S
H1183 C1207 0.951 . S
H1184 C1209 0.951 . S
H1185 C1211 0.950 . S
H1186 C1212 0.950 . S
H1187 C1214 0.950 . S
H1188 C1217 0.950 . S
H1189 C1218 0.950 . S
H1190 C1220 0.950 . S
H1191 C1221 0.950 . S
C1192 H1174 0.951 . S
C1192 C1193 1.366 . S
C1192 C1194 1.388 . S
C1193 C1192 1.366 . S
C1193 C1197 1.385 . S
C1194 H1175 0.951 . S
C1194 C1192 1.388 . S
C1194 C1195 1.366 . S
C1195 C1194 1.366 . S
C1195 C1196 1.414 . S
C1195 C1198 1.499 . S
C1196 H1176 0.950 . S
C1196 C1195 1.414 . S
C1196 C1197 1.374 . S
C1197 H1177 0.950 . S
C1197 C1193 1.385 . S
C1197 C1196 1.374 . S
C1198 C1195 1.499 . S
C1198 C1199 1.373 . S
C1198 C1200 1.389 . S
C1199 H1178 0.950 . S
C1199 C1198 1.373 . S
C1199 C1215 1.377 . S
C1200 C1198 1.389 . S
C1200 C1201 1.524 . S
C1200 C1214 1.377 . S
C1201 C1200 1.524 . S
C1201 C1202 1.397 . S
C1201 C1206 1.363 . S
C1202 H1179 0.950 . S
C1202 C1201 1.397 . S
C1202 C1203 1.334 . S
C1203 H1180 0.950 . S
C1203 C1202 1.334 . S
C1203 C1204 1.287 . S
C1204 C1203 1.287 . S
C1204 C1205 1.524 . S
C1204 H1223 0.913 . S
C1205 H1181 0.950 . S
C1205 C1204 1.524 . S
C1205 C1206 1.415 . S
C1206 H1182 0.950 . S
C1206 C1201 1.363 . S
C1206 C1205 1.415 . S
C1207 H1183 0.951 . S
C1207 C1208 1.366 . S
C1207 C1209 1.388 . S
C1208 C1207 1.366 . S
C1208 C1212 1.385 . S
C1209 H1184 0.951 . S
C1209 C1207 1.388 . S
C1209 C1210 1.366 . S
C1210 C1209 1.366 . S
C1210 C1211 1.414 . S
C1210 C1213 1.499 . S
C1211 H1185 0.950 . S
C1211 C1210 1.414 . S
C1211 C1212 1.374 . S
C1212 H1186 0.950 . S
C1212 C1208 1.385 . S
C1212 C1211 1.374 . S
C1213 C1210 1.499 . S
C1213 C1214 1.373 . S
C1213 C1215 1.389 . S
C1214 H1187 0.950 . S
C1214 C1200 1.377 . S
C1214 C1213 1.373 . S
C1215 C1199 1.377 . S
C1215 C1213 1.389 . S
C1215 C1216 1.524 . S
C1216 C1215 1.524 . S
C1216 C1217 1.397 . S
C1216 C1221 1.363 . S
C1217 H1188 0.950 . S
C1217 C1216 1.397 . S
C1217 C1218 1.334 . S
C1218 H1189 0.950 . S
C1218 C1217 1.334 . S
C1218 C1219 1.287 . S
C1219 C1218 1.287 . S
C1219 C1220 1.524 . S
C1219 H1222 0.999 . S
C1220 H1190 0.950 . S
C1220 C1219 1.524 . S
C1220 C1221 1.415 . S
C1221 H1191 0.950 . S
C1221 C1216 1.363 . S
C1221 C1220 1.415 . S
H1222 C1219 0.999 . S
H1223 C1204 0.913 . S
C193 C13 2.475 1_556 S
C208 C129 2.475 . S
C243 C158 2.475 . S
C258 C42 2.475 . S
C293 C71 2.475 . S
C308 C100 2.475 1_554 S
C343 C10 1.799 . S
C358 C79 1.584 . S
C393 C21 1.582 . S
C408 C39 1.800 . S
C443 C50 1.583 . S
C458 C68 1.800 . S
C493 C97 1.800 . S
C508 C137 1.582 . S
C543 C126 1.800 . S
C558 C166 1.582 . S
C593 C108 1.582 . S
C608 C155 1.800 . S
C643 C131 1.404 . S
C658 C15 1.404 . S
C693 C160 1.404 . S
C708 C44 1.404 . S
C743 C102 1.405 . S
C758 C73 1.404 . S
C793 C5 2.879 . S
C808 C92 2.879 . S
C843 C34 2.879 . S
C858 C121 2.879 . S
C893 C150 2.878 . S
C908 C63 2.878 . S
C943 C8 0.967 . S
C958 C3 0.967 . S
C993 C32 0.967 . S
C1008 C37 0.967 1_554 S
C1043 C66 0.966 . S
C1058 C61 0.966 . S
C1093 C95 0.967 . S
C1108 C90 0.967 . S
C1143 C124 0.966 . S
C1158 C119 0.966 . S
C1193 C148 0.967 . S
C1208 C153 0.967 1_556 S
