# Generated by pormake.
# Topology xfg, (7)-cn, num edge types: 1
# Building blocks:
#     Node 0, Type 0, BuildingBlock: HICVOG_clean_sbu_0, # of connection points: 7
#     Node 1, Type 0, BuildingBlock: HICVOG_clean_sbu_0, # of connection points: 7
#     Node 2, Type 0, BuildingBlock: HICVOG_clean_sbu_0, # of connection points: 7
#     Node 3, Type 0, BuildingBlock: HICVOG_clean_sbu_0, # of connection points: 7
#     Node 4, Type 0, BuildingBlock: HICVOG_clean_sbu_0, # of connection points: 7
#     Node 5, Type 0, BuildingBlock: HICVOG_clean_sbu_0, # of connection points: 7
#     Node 6, Type 0, BuildingBlock: HICVOG_clean_sbu_0, # of connection points: 7
#     Node 7, Type 0, BuildingBlock: HICVOG_clean_sbu_0, # of connection points: 7
#     Node 8, Type 0, BuildingBlock: HICVOG_clean_sbu_0, # of connection points: 7
#     Node 9, Type 0, BuildingBlock: HICVOG_clean_sbu_0, # of connection points: 7
#     Node 10, Type 0, BuildingBlock: HICVOG_clean_sbu_0, # of connection points: 7
#     Node 11, Type 0, BuildingBlock: HICVOG_clean_sbu_0, # of connection points: 7
#     Node 12, Type 0, BuildingBlock: HICVOG_clean_sbu_0, # of connection points: 7
#     Node 13, Type 0, BuildingBlock: HICVOG_clean_sbu_0, # of connection points: 7
#     Node 14, Type 0, BuildingBlock: HICVOG_clean_sbu_0, # of connection points: 7
#     Node 15, Type 0, BuildingBlock: HICVOG_clean_sbu_0, # of connection points: 7
#     Edge 16, Type (0, 0), BuildingBlock: UVAHIK_clean_linker_0, # of connection points: 2
#     Edge 17, Type (0, 0), BuildingBlock: UVAHIK_clean_linker_0, # of connection points: 2
#     Edge 18, Type (0, 0), BuildingBlock: UVAHIK_clean_linker_0, # of connection points: 2
#     Edge 19, Type (0, 0), BuildingBlock: UVAHIK_clean_linker_0, # of connection points: 2
#     Edge 20, Type (0, 0), BuildingBlock: UVAHIK_clean_linker_0, # of connection points: 2
#     Edge 21, Type (0, 0), BuildingBlock: UVAHIK_clean_linker_0, # of connection points: 2
#     Edge 22, Type (0, 0), BuildingBlock: UVAHIK_clean_linker_0, # of connection points: 2
#     Edge 23, Type (0, 0), BuildingBlock: UVAHIK_clean_linker_0, # of connection points: 2
#     Edge 24, Type (0, 0), BuildingBlock: UVAHIK_clean_linker_0, # of connection points: 2
#     Edge 25, Type (0, 0), BuildingBlock: UVAHIK_clean_linker_0, # of connection points: 2
#     Edge 26, Type (0, 0), BuildingBlock: UVAHIK_clean_linker_0, # of connection points: 2
#     Edge 27, Type (0, 0), BuildingBlock: UVAHIK_clean_linker_0, # of connection points: 2
#     Edge 28, Type (0, 0), BuildingBlock: UVAHIK_clean_linker_0, # of connection points: 2
#     Edge 29, Type (0, 0), BuildingBlock: UVAHIK_clean_linker_0, # of connection points: 2
#     Edge 30, Type (0, 0), BuildingBlock: UVAHIK_clean_linker_0, # of connection points: 2
#     Edge 31, Type (0, 0), BuildingBlock: UVAHIK_clean_linker_0, # of connection points: 2
#     Edge 32, Type (0, 0), BuildingBlock: UVAHIK_clean_linker_0, # of connection points: 2
#     Edge 33, Type (0, 0), BuildingBlock: UVAHIK_clean_linker_0, # of connection points: 2
#     Edge 34, Type (0, 0), BuildingBlock: UVAHIK_clean_linker_0, # of connection points: 2
#     Edge 35, Type (0, 0), BuildingBlock: UVAHIK_clean_linker_0, # of connection points: 2
#     Edge 36, Type (0, 0), BuildingBlock: UVAHIK_clean_linker_0, # of connection points: 2
#     Edge 37, Type (0, 0), BuildingBlock: UVAHIK_clean_linker_0, # of connection points: 2
#     Edge 38, Type (0, 0), BuildingBlock: UVAHIK_clean_linker_0, # of connection points: 2
#     Edge 39, Type (0, 0), BuildingBlock: UVAHIK_clean_linker_0, # of connection points: 2
#     Edge 40, Type (0, 0), BuildingBlock: UVAHIK_clean_linker_0, # of connection points: 2
#     Edge 41, Type (0, 0), BuildingBlock: UVAHIK_clean_linker_0, # of connection points: 2
#     Edge 42, Type (0, 0), BuildingBlock: UVAHIK_clean_linker_0, # of connection points: 2
#     Edge 43, Type (0, 0), BuildingBlock: UVAHIK_clean_linker_0, # of connection points: 2
#     Edge 44, Type (0, 0), BuildingBlock: UVAHIK_clean_linker_0, # of connection points: 2
#     Edge 45, Type (0, 0), BuildingBlock: UVAHIK_clean_linker_0, # of connection points: 2
#     Edge 46, Type (0, 0), BuildingBlock: UVAHIK_clean_linker_0, # of connection points: 2
#     Edge 47, Type (0, 0), BuildingBlock: UVAHIK_clean_linker_0, # of connection points: 2
#     Edge 48, Type (0, 0), BuildingBlock: UVAHIK_clean_linker_0, # of connection points: 2
#     Edge 49, Type (0, 0), BuildingBlock: UVAHIK_clean_linker_0, # of connection points: 2
#     Edge 50, Type (0, 0), BuildingBlock: UVAHIK_clean_linker_0, # of connection points: 2
#     Edge 51, Type (0, 0), BuildingBlock: UVAHIK_clean_linker_0, # of connection points: 2
#     Edge 52, Type (0, 0), BuildingBlock: UVAHIK_clean_linker_0, # of connection points: 2
#     Edge 53, Type (0, 0), BuildingBlock: UVAHIK_clean_linker_0, # of connection points: 2
#     Edge 54, Type (0, 0), BuildingBlock: UVAHIK_clean_linker_0, # of connection points: 2
#     Edge 55, Type (0, 0), BuildingBlock: UVAHIK_clean_linker_0, # of connection points: 2
#     Edge 56, Type (0, 0), BuildingBlock: UVAHIK_clean_linker_0, # of connection points: 2
#     Edge 57, Type (0, 0), BuildingBlock: UVAHIK_clean_linker_0, # of connection points: 2
#     Edge 58, Type (0, 0), BuildingBlock: UVAHIK_clean_linker_0, # of connection points: 2
#     Edge 59, Type (0, 0), BuildingBlock: UVAHIK_clean_linker_0, # of connection points: 2
#     Edge 60, Type (0, 0), BuildingBlock: UVAHIK_clean_linker_0, # of connection points: 2
#     Edge 61, Type (0, 0), BuildingBlock: UVAHIK_clean_linker_0, # of connection points: 2
#     Edge 62, Type (0, 0), BuildingBlock: UVAHIK_clean_linker_0, # of connection points: 2
#     Edge 63, Type (0, 0), BuildingBlock: UVAHIK_clean_linker_0, # of connection points: 2
#     Edge 64, Type (0, 0), BuildingBlock: UVAHIK_clean_linker_0, # of connection points: 2
#     Edge 65, Type (0, 0), BuildingBlock: UVAHIK_clean_linker_0, # of connection points: 2
#     Edge 66, Type (0, 0), BuildingBlock: UVAHIK_clean_linker_0, # of connection points: 2
#     Edge 67, Type (0, 0), BuildingBlock: UVAHIK_clean_linker_0, # of connection points: 2
#     Edge 68, Type (0, 0), BuildingBlock: UVAHIK_clean_linker_0, # of connection points: 2
#     Edge 69, Type (0, 0), BuildingBlock: UVAHIK_clean_linker_0, # of connection points: 2
#     Edge 70, Type (0, 0), BuildingBlock: UVAHIK_clean_linker_0, # of connection points: 2
#     Edge 71, Type (0, 0), BuildingBlock: UVAHIK_clean_linker_0, # of connection points: 2
# Relax obj value: 0.124
# Max RMSD: 0.166
# Mean RMSD: 0.165
data_MOF--net-xfg--node1-HICVOG_clean_sbu_0--edge1-UVAHIK_clean_linker_0
_symmetry_space_group_name_H-M    P1
_symmetry_Int_Tables_number       1
_symmetry_cell_setting            triclinic
loop_
_symmetry_equiv_pos_as_xyz
'x, y, z'
_cell_length_a     37.975133
_cell_length_b     38.024547
_cell_length_c     85.802383
_cell_angle_alpha  90.044912
_cell_angle_beta   89.972292
_cell_angle_gamma 90.142343
loop_
_atom_site_label
_atom_site_type_symbol
_atom_site_fract_x
_atom_site_fract_y
_atom_site_fract_z
_atom_type_partial_charge
Zn0 Zn 0.20155 0.09186 0.04801 0.0
C1 C 0.20835 0.17888 0.02023 0.0
N2 N 0.18895 0.19216 0.03193 0.0
C3 C 0.18616 0.1651 0.04183 0.0
N4 N 0.20323 0.13638 0.03661 0.0
N5 N 0.21717 0.14464 0.02288 0.0
C6 C 0.21812 0.12454 0.98117 0.0
O7 O 0.18899 0.12661 0.98938 0.0
O8 O 0.22676 0.09391 0.06893 0.0
Zn9 Zn 0.24975 0.11379 0.01158 0.0
N10 N 0.15212 0.08287 0.05146 0.0
C11 C 0.099 0.06161 0.04022 0.0
C12 C 0.1348 0.0689 0.03907 0.0
C13 C 0.13504 0.09031 0.06503 0.0
N14 N 0.08189 0.06886 0.05371 0.0
C15 C 0.09868 0.0832 0.06623 0.0
O16 O 0.24226 0.06015 0.01366 0.0
C17 C 0.23198 0.03805 0.02388 0.0
O18 O 0.21856 0.04826 0.03667 0.0
H19 H 0.14882 0.06351 0.02836 0.0
H20 H 0.14973 0.10117 0.0747 0.0
C21 C 0.32459 0.10547 0.01353 0.0
C22 C 0.3584 0.11154 0.01973 0.0
C23 C 0.33421 0.15449 0.03674 0.0
C24 C 0.30075 0.1477 0.03084 0.0
N25 N 0.29663 0.12373 0.01922 0.0
N26 N 0.36212 0.13627 0.03111 0.0
H27 H 0.32025 0.08652 0.00432 0.0
C28 C 0.23263 0.06539 0.07622 0.0
O29 O 0.22232 0.03557 0.06995 0.0
O30 O 0.24743 0.12162 0.98824 0.0
H31 H 0.27825 0.16123 0.03562 0.0
H32 H 0.08485 0.05035 0.03047 0.0
H33 H 0.33795 0.1737 0.0459 0.0
Zn34 Zn 0.68099 0.44973 0.29907 0.0
C35 C 0.59359 0.45438 0.27165 0.0
N36 N 0.58056 0.43617 0.28378 0.0
C37 C 0.60742 0.43583 0.29385 0.0
N38 N 0.63583 0.453 0.28831 0.0
N39 N 0.62755 0.46485 0.27422 0.0
C40 C 0.6641 0.46254 0.23338 0.0
O41 O 0.67861 0.4398 0.24294 0.0
O42 O 0.68197 0.47342 0.3203 0.0
Zn43 Zn 0.65842 0.49642 0.26226 0.0
N44 N 0.6878 0.39993 0.30203 0.0
C45 C 0.70265 0.34538 0.29025 0.0
C46 C 0.69951 0.38177 0.28943 0.0
C47 C 0.67915 0.38323 0.31553 0.0
N48 N 0.6937 0.32859 0.30362 0.0
C49 C 0.68197 0.34634 0.31641 0.0
O50 O 0.7125 0.49026 0.26465 0.0
C51 C 0.73468 0.47957 0.27475 0.0
O52 O 0.72441 0.46579 0.28746 0.0
H53 H 0.70578 0.39553 0.27875 0.0
H54 H 0.66907 0.3985 0.32518 0.0
C55 C 0.66676 0.57155 0.26308 0.0
C56 C 0.66024 0.60577 0.26868 0.0
C57 C 0.61559 0.58282 0.28522 0.0
C58 C 0.62275 0.54901 0.27991 0.0
N59 N 0.64779 0.54403 0.2688 0.0
N60 N 0.63447 0.61027 0.27954 0.0
H61 H 0.68666 0.56656 0.25433 0.0
C62 C 0.67571 0.50581 0.32273 0.0
O63 O 0.66605 0.52584 0.31103 0.0
O64 O 0.6503 0.49016 0.23909 0.0
H65 H 0.60855 0.52692 0.28474 0.0
H66 H 0.71179 0.3305 0.28029 0.0
H67 H 0.59554 0.5872 0.29396 0.0
Zn68 Zn 0.27534 0.90866 0.51238 0.0
C69 C 0.33834 0.85559 0.5422 0.0
N70 N 0.33669 0.82928 0.53186 0.0
C71 C 0.31748 0.84304 0.52022 0.0
N72 N 0.30773 0.87688 0.52332 0.0
N73 N 0.32099 0.88435 0.53726 0.0
C74 C 0.27251 0.94584 0.57341 0.0
O75 O 0.26036 0.9677 0.56287 0.0
O76 O 0.27661 0.90156 0.48894 0.0
Zn77 Zn 0.32357 0.92837 0.54897 0.0
N78 N 0.22854 0.89938 0.52037 0.0
C79 C 0.19118 0.86894 0.5381 0.0
C80 C 0.22448 0.8752 0.5319 0.0
C81 C 0.20067 0.9183 0.51505 0.0
N82 N 0.16337 0.88776 0.5328 0.0
C83 C 0.16701 0.91265 0.52151 0.0
O84 O 0.30844 0.97269 0.53777 0.0
C85 C 0.29499 0.98372 0.52513 0.0
O86 O 0.28374 0.9622 0.51484 0.0
H87 H 0.24688 0.86091 0.53632 0.0
H88 H 0.20494 0.93741 0.5059 0.0
C89 C 0.38955 0.92825 0.56635 0.0
C90 C 0.42619 0.93355 0.56766 0.0
C91 C 0.42765 0.95328 0.54137 0.0
C92 C 0.39156 0.94775 0.54012 0.0
N93 N 0.37323 0.93554 0.55259 0.0
N94 N 0.44401 0.94612 0.55504 0.0
H95 H 0.37405 0.9188 0.57606 0.0
C96 C 0.30521 0.89679 0.48149 0.0
O97 O 0.33457 0.89223 0.48931 0.0
O98 O 0.29847 0.92619 0.56996 0.0
H99 H 0.3781 0.95304 0.52927 0.0
H100 H 0.18749 0.84956 0.54718 0.0
H101 H 0.44261 0.9631 0.53156 0.0
Zn102 Zn 0.84322 0.57705 0.79862 0.0
C103 C 0.92885 0.56881 0.7703 0.0
N104 N 0.943 0.58796 0.78189 0.0
C105 C 0.91681 0.58987 0.79228 0.0
N106 N 0.88767 0.57283 0.78738 0.0
N107 N 0.89494 0.55925 0.77348 0.0
C108 C 0.85813 0.55899 0.73297 0.0
O109 O 0.84512 0.58312 0.7423 0.0
O110 O 0.8432 0.55177 0.81957 0.0
Zn111 Zn 0.86344 0.52677 0.76232 0.0
N112 N 0.83731 0.62685 0.80201 0.0
C113 C 0.8205 0.68114 0.79055 0.0
C114 C 0.82548 0.645 0.78945 0.0
C115 C 0.84489 0.64341 0.8157 0.0
N116 N 0.82779 0.69771 0.80417 0.0
C117 C 0.84006 0.68005 0.81685 0.0
O118 O 0.80972 0.53366 0.76503 0.0
C119 C 0.78827 0.54733 0.77472 0.0
O120 O 0.7994 0.56286 0.78688 0.0
H121 H 0.81997 0.63137 0.77865 0.0
H122 H 0.85405 0.62812 0.82551 0.0
C123 C 0.85564 0.45178 0.76353 0.0
C124 C 0.86183 0.41781 0.76947 0.0
C125 C 0.90464 0.44171 0.78669 0.0
C126 C 0.89774 0.47529 0.78105 0.0
N127 N 0.8738 0.47964 0.76943 0.0
N128 N 0.88655 0.4139 0.78083 0.0
H129 H 0.83663 0.45631 0.75437 0.0
C130 C 0.81982 0.52936 0.82346 0.0
O131 O 0.79474 0.52146 0.81351 0.0
O132 O 0.87071 0.53112 0.73898 0.0
H133 H 0.91132 0.49769 0.78596 0.0
H134 H 0.81094 0.69594 0.78066 0.0
H135 H 0.92388 0.43779 0.79582 0.0
Zn136 Zn 0.8241 0.92745 0.95472 0.0
C137 C 0.81912 0.8414 0.98314 0.0
N138 N 0.83822 0.82793 0.97138 0.0
C139 C 0.83953 0.8544 0.96113 0.0
N140 N 0.82212 0.88303 0.96624 0.0
N141 N 0.80917 0.87524 0.98021 0.0
C142 C 0.80674 0.89408 0.02217 0.0
O143 O 0.83616 0.88988 0.01433 0.0
O144 O 0.79782 0.92592 0.93409 0.0
Zn145 Zn 0.77679 0.90652 0.99137 0.0
N146 N 0.87365 0.93476 0.95078 0.0
C147 C 0.92857 0.95157 0.96179 0.0
C148 C 0.89219 0.94821 0.96294 0.0
C149 C 0.88997 0.92464 0.93737 0.0
N150 N 0.94499 0.94099 0.94857 0.0
C151 C 0.92688 0.92749 0.93622 0.0
O152 O 0.78505 0.96009 0.98921 0.0
C153 C 0.79553 0.98198 0.97893 0.0
O154 O 0.80853 0.97149 0.9661 0.0
H155 H 0.87877 0.95562 0.97356 0.0
H156 H 0.87446 0.91336 0.92805 0.0
C157 C 0.70211 0.91585 0.98892 0.0
C158 C 0.6684 0.91013 0.98255 0.0
C159 C 0.69253 0.8668 0.96571 0.0
C160 C 0.72589 0.87316 0.97182 0.0
N161 N 0.72999 0.89719 0.98342 0.0
N162 N 0.66471 0.88539 0.97117 0.0
H163 H 0.70641 0.93481 0.99813 0.0
C164 C 0.79457 0.954 0.92617 0.0
O165 O 0.8081 0.98333 0.93166 0.0
O166 O 0.77814 0.89881 0.01475 0.0
H167 H 0.74831 0.85904 0.96727 0.0
H168 H 0.94375 0.96208 0.9714 0.0
H169 H 0.68881 0.84753 0.95658 0.0
Zn170 Zn 0.34371 0.57749 0.70464 0.0
C171 C 0.42914 0.56729 0.7331 0.0
N172 N 0.44385 0.58563 0.72139 0.0
C173 C 0.41746 0.58893 0.71117 0.0
N174 N 0.38774 0.57325 0.71625 0.0
N175 N 0.3947 0.5595 0.73013 0.0
C176 C 0.37309 0.55689 0.77164 0.0
O177 O 0.37655 0.58632 0.76377 0.0
O178 O 0.34451 0.55286 0.68355 0.0
Zn179 Zn 0.36248 0.52711 0.7408 0.0
N180 N 0.33876 0.62736 0.70119 0.0
C181 C 0.32482 0.68278 0.71237 0.0
C182 C 0.32689 0.64635 0.71351 0.0
C183 C 0.34869 0.64325 0.68766 0.0
N184 N 0.3348 0.69874 0.69894 0.0
C185 C 0.3467 0.68015 0.68643 0.0
O186 O 0.3091 0.53564 0.73813 0.0
C187 C 0.2878 0.54826 0.72811 0.0
O188 O 0.29905 0.5629 0.71576 0.0
H189 H 0.31963 0.63321 0.72422 0.0
H190 H 0.35889 0.62734 0.67824 0.0
C191 C 0.35337 0.45243 0.73814 0.0
C192 C 0.35932 0.41891 0.73167 0.0
C193 C 0.40261 0.44366 0.71494 0.0
C194 C 0.39603 0.47683 0.72113 0.0
N195 N 0.37193 0.48054 0.73274 0.0
N196 N 0.38414 0.41561 0.7203 0.0
H197 H 0.33432 0.4564 0.74734 0.0
C198 C 0.32594 0.52584 0.68043 0.0
O199 O 0.30585 0.5123 0.69136 0.0
O200 O 0.36924 0.52812 0.76424 0.0
H201 H 0.4099 0.49943 0.7166 0.0
H202 H 0.31557 0.69832 0.72211 0.0
H203 H 0.42192 0.44027 0.70579 0.0
Zn204 Zn 0.70227 0.09481 0.45402 0.0
C205 C 0.70603 0.18125 0.48217 0.0
N206 N 0.68737 0.1944 0.47022 0.0
C207 C 0.68668 0.16776 0.46003 0.0
N208 N 0.70407 0.13936 0.46535 0.0
N209 N 0.71641 0.14747 0.47938 0.0
C210 C 0.71538 0.11102 0.52026 0.0
O211 O 0.69185 0.09713 0.51085 0.0
O212 O 0.72669 0.09688 0.43291 0.0
Zn213 Zn 0.7483 0.11672 0.49107 0.0
N214 N 0.65269 0.08618 0.45077 0.0
C215 C 0.59938 0.06625 0.46231 0.0
C216 C 0.6353 0.07302 0.46332 0.0
C217 C 0.63556 0.09331 0.43719 0.0
N218 N 0.58222 0.07319 0.44881 0.0
C219 C 0.59908 0.08674 0.43614 0.0
O220 O 0.74162 0.06297 0.48856 0.0
C221 C 0.7319 0.04094 0.47819 0.0
O222 O 0.71889 0.05119 0.46534 0.0
H223 H 0.64936 0.0679 0.47403 0.0
H224 H 0.65031 0.10356 0.42741 0.0
C225 C 0.82344 0.10886 0.4902 0.0
C226 C 0.8576 0.11491 0.48435 0.0
C227 C 0.8343 0.15756 0.46698 0.0
C228 C 0.80053 0.15077 0.47253 0.0
N229 N 0.79578 0.12702 0.48418 0.0
N230 N 0.8619 0.13949 0.47296 0.0
H231 H 0.81861 0.08993 0.49936 0.0
C232 C 0.75362 0.07838 0.42969 0.0
O233 O 0.76699 0.05794 0.44049 0.0
O234 O 0.74306 0.12447 0.51435 0.0
H235 H 0.77829 0.16427 0.46749 0.0
H236 H 0.58517 0.05563 0.47218 0.0
H237 H 0.83852 0.17665 0.45783 0.0
Zn238 Zn 0.18174 0.4486 0.20228 0.0
C239 C 0.09422 0.45493 0.2298 0.0
N240 N 0.08113 0.43589 0.21792 0.0
C241 C 0.10808 0.43456 0.20789 0.0
N242 N 0.13658 0.452 0.2132 0.0
N243 N 0.12827 0.4649 0.22712 0.0
C244 C 0.15923 0.46528 0.26859 0.0
O245 O 0.16845 0.43836 0.25989 0.0
O246 O 0.18266 0.47194 0.18094 0.0
Zn247 Zn 0.15931 0.49697 0.23864 0.0
N248 N 0.18829 0.39872 0.19928 0.0
C249 C 0.20274 0.34406 0.21103 0.0
C250 C 0.19998 0.3805 0.21185 0.0
C251 C 0.17932 0.38203 0.1858 0.0
N252 N 0.19341 0.3273 0.19769 0.0
C253 C 0.18169 0.34511 0.18493 0.0
O254 O 0.21306 0.48911 0.23661 0.0
C255 C 0.23542 0.4782 0.22662 0.0
O256 O 0.22548 0.46459 0.21382 0.0
H257 H 0.20651 0.39424 0.22251 0.0
H258 H 0.16929 0.39735 0.17617 0.0
C259 C 0.1689 0.57173 0.23679 0.0
C260 C 0.16309 0.60565 0.23072 0.0
C261 C 0.11908 0.58215 0.214 0.0
C262 C 0.12547 0.54863 0.21981 0.0
N263 N 0.14992 0.54408 0.2312 0.0
N264 N 0.13799 0.60974 0.21954 0.0
H265 H 0.18816 0.56709 0.24583 0.0
C266 C 0.17683 0.50435 0.17836 0.0
O267 O 0.16777 0.5249 0.18998 0.0
O268 O 0.1509 0.49396 0.26191 0.0
H269 H 0.11119 0.5264 0.21515 0.0
H270 H 0.21186 0.32914 0.22096 0.0
H271 H 0.09957 0.58619 0.205 0.0
Zn272 Zn 0.70039 0.59697 0.54752 0.0
C273 C 0.70667 0.68258 0.51913 0.0
N274 N 0.68774 0.69633 0.53088 0.0
C275 C 0.68646 0.67007 0.54123 0.0
N276 N 0.70371 0.64131 0.53617 0.0
N277 N 0.71655 0.64875 0.52215 0.0
C278 C 0.71829 0.62873 0.48034 0.0
O279 O 0.68903 0.63262 0.48832 0.0
O280 O 0.72499 0.59771 0.56866 0.0
Zn281 Zn 0.74878 0.61705 0.51102 0.0
N282 N 0.65058 0.5906 0.55069 0.0
C283 C 0.59604 0.57621 0.53869 0.0
C284 C 0.63229 0.58103 0.53776 0.0
C285 C 0.63409 0.59609 0.56457 0.0
N286 N 0.57953 0.58125 0.55252 0.0
C287 C 0.59739 0.59124 0.56557 0.0
O288 O 0.74059 0.56337 0.51331 0.0
C289 C 0.72895 0.54188 0.52351 0.0
O290 O 0.7152 0.55297 0.53608 0.0
H291 H 0.64592 0.57724 0.52682 0.0
H292 H 0.64948 0.60355 0.57466 0.0
C293 C 0.82342 0.60709 0.51379 0.0
C294 C 0.8571 0.613 0.52016 0.0
C295 C 0.83318 0.6579 0.53623 0.0
C296 C 0.79985 0.65141 0.53012 0.0
N297 N 0.79565 0.62649 0.51889 0.0
N298 N 0.86088 0.6386 0.53115 0.0
H299 H 0.81906 0.58742 0.50488 0.0
C300 C 0.74887 0.57585 0.57242 0.0
O301 O 0.75905 0.5523 0.56217 0.0
O302 O 0.74715 0.62446 0.48763 0.0
H303 H 0.77754 0.66612 0.53438 0.0
H304 H 0.5811 0.56845 0.52851 0.0
H305 H 0.83697 0.67785 0.54506 0.0
Zn306 Zn 0.17913 0.94822 0.79954 0.0
C307 C 0.09165 0.95943 0.77244 0.0
N308 N 0.07791 0.94031 0.78414 0.0
C309 C 0.10519 0.93645 0.79385 0.0
N310 N 0.13438 0.95279 0.78858 0.0
N311 N 0.1263 0.96716 0.77494 0.0
C312 C 0.16485 0.96483 0.7342 0.0
O313 O 0.17928 0.94199 0.74372 0.0
O314 O 0.17994 0.97149 0.82087 0.0
Zn315 Zn 0.15776 0.99863 0.76325 0.0
N316 N 0.185 0.89826 0.80235 0.0
C317 C 0.19845 0.84337 0.79055 0.0
C318 C 0.1963 0.87985 0.78975 0.0
C319 C 0.17585 0.88174 0.81583 0.0
N320 N 0.18897 0.82677 0.8039 0.0
C321 C 0.17766 0.8448 0.81668 0.0
O322 O 0.21157 0.99238 0.76618 0.0
C323 C 0.23345 0.98009 0.77605 0.0
O324 O 0.22288 0.96458 0.78831 0.0
H325 H 0.20299 0.89349 0.77908 0.0
H326 H 0.16612 0.89723 0.82548 0.0
C327 C 0.16506 0.07378 0.76331 0.0
C328 C 0.15835 0.10814 0.76867 0.0
C329 C 0.11478 0.08536 0.78581 0.0
C330 C 0.12223 0.05141 0.78077 0.0
N331 N 0.14681 0.04628 0.76948 0.0
N332 N 0.13301 0.1128 0.77972 0.0
H333 H 0.18457 0.06863 0.75442 0.0
C334 C 0.17381 1.00389 0.82336 0.0
O335 O 0.16432 0.0241 0.8117 0.0
O336 O 0.15074 0.99226 0.73997 0.0
H337 H 0.1089 0.02932 0.78602 0.0
H338 H 0.20723 0.82829 0.78059 0.0
H339 H 0.09512 0.08985 0.79472 0.0
Zn340 Zn 0.77612 0.40612 0.01202 0.0
C341 C 0.83775 0.35389 0.04264 0.0
N342 N 0.83683 0.32739 0.0324 0.0
C343 C 0.81834 0.34089 0.02046 0.0
N344 N 0.80823 0.37475 0.02333 0.0
N345 N 0.82071 0.38251 0.03738 0.0
C346 C 0.77235 0.44274 0.0729 0.0
O347 O 0.75837 0.46235 0.06194 0.0
O348 O 0.78017 0.39857 0.98873 0.0
Zn349 Zn 0.82403 0.4268 0.0487 0.0
N350 N 0.72885 0.39602 0.01931 0.0
C351 C 0.69106 0.36466 0.03654 0.0
C352 C 0.72443 0.37097 0.03044 0.0
C353 C 0.7012 0.41563 0.01423 0.0
N354 N 0.6635 0.38419 0.03151 0.0
C355 C 0.6674 0.40972 0.02051 0.0
O356 O 0.80831 0.4708 0.0375 0.0
C357 C 0.79449 0.4816 0.0249 0.0
O358 O 0.78338 0.45992 0.01465 0.0
H359 H 0.74667 0.35626 0.03476 0.0
H360 H 0.70601 0.43632 0.00585 0.0
C361 C 0.89093 0.42388 0.06511 0.0
C362 C 0.92793 0.42654 0.06583 0.0
C363 C 0.92836 0.4492 0.04001 0.0
C364 C 0.89189 0.44614 0.03932 0.0
N365 N 0.87394 0.43352 0.05182 0.0
N366 N 0.94544 0.43922 0.05316 0.0
H367 H 0.87584 0.41315 0.07469 0.0
C368 C 0.8081 0.41096 0.9826 0.0
O369 O 0.83259 0.42378 0.99183 0.0
O370 O 0.79984 0.42496 0.06983 0.0
H371 H 0.87792 0.45316 0.02879 0.0
H372 H 0.68714 0.34475 0.04537 0.0
H373 H 0.94307 0.45906 0.03013 0.0
Zn374 Zn 0.34323 0.07217 0.29942 0.0
C375 C 0.43073 0.06666 0.27179 0.0
N376 N 0.44388 0.08589 0.28358 0.0
C377 C 0.41718 0.08701 0.29375 0.0
N378 N 0.38866 0.06931 0.28857 0.0
N379 N 0.39685 0.05642 0.27463 0.0
C380 C 0.36562 0.05638 0.2332 0.0
O381 O 0.35579 0.08287 0.24203 0.0
O382 O 0.34172 0.0489 0.32077 0.0
Zn383 Zn 0.36612 0.02419 0.26301 0.0
N384 N 0.33533 0.12192 0.30219 0.0
C385 C 0.3162 0.17504 0.29037 0.0
C386 C 0.32253 0.13908 0.28953 0.0
C387 C 0.34257 0.13933 0.3157 0.0
N388 N 0.32317 0.19245 0.30383 0.0
C389 C 0.33639 0.1758 0.31659 0.0
O390 O 0.3123 0.03137 0.26497 0.0
C391 C 0.28993 0.04184 0.27504 0.0
O392 O 0.29988 0.05542 0.28784 0.0
H393 H 0.31731 0.1248 0.27887 0.0
H394 H 0.35252 0.12479 0.32559 0.0
C395 C 0.3578 0.94925 0.26438 0.0
C396 C 0.36387 0.91529 0.27033 0.0
C397 C 0.40655 0.93908 0.28764 0.0
C398 C 0.39987 0.97265 0.28194 0.0
N399 N 0.37598 0.97707 0.27031 0.0
N400 N 0.38844 0.91132 0.28175 0.0
H401 H 0.33894 0.95381 0.25517 0.0
C402 C 0.34613 0.0162 0.32323 0.0
O403 O 0.35403 0.99547 0.3115 0.0
O404 O 0.37456 0.02773 0.23975 0.0
H405 H 0.41352 0.995 0.28685 0.0
H406 H 0.30585 0.18906 0.28042 0.0
H407 H 0.42567 0.93513 0.29681 0.0
Zn408 Zn 0.27578 0.40808 0.49087 0.0
C409 C 0.3369 0.35575 0.4599 0.0
N410 N 0.33599 0.32938 0.47021 0.0
C411 C 0.31752 0.34302 0.48212 0.0
N412 N 0.30748 0.37686 0.47922 0.0
N413 N 0.31987 0.3845 0.46513 0.0
C414 C 0.29306 0.45641 0.42541 0.0
O415 O 0.30462 0.48593 0.43153 0.0
O416 O 0.2814 0.40091 0.51418 0.0
Zn417 Zn 0.3228 0.42899 0.45379 0.0
N418 N 0.2282 0.39736 0.48425 0.0
C419 C 0.18949 0.36598 0.46743 0.0
C420 C 0.22334 0.37324 0.47274 0.0
C421 C 0.20054 0.41546 0.49033 0.0
N422 N 0.1619 0.38401 0.47346 0.0
C423 C 0.16629 0.40897 0.48469 0.0
O424 O 0.3068 0.47279 0.46516 0.0
C425 C 0.29301 0.48358 0.47778 0.0
O426 O 0.28222 0.46188 0.48807 0.0
H427 H 0.24555 0.35977 0.46765 0.0
H428 H 0.20544 0.4347 0.49937 0.0
C429 C 0.38954 0.42647 0.43712 0.0
C430 C 0.42647 0.42988 0.43625 0.0
C431 C 0.42686 0.45318 0.46197 0.0
C432 C 0.39047 0.44945 0.4628 0.0
N433 N 0.37257 0.43617 0.45043 0.0
N434 N 0.44392 0.44322 0.44881 0.0
H435 H 0.37451 0.41524 0.42763 0.0
C436 C 0.30867 0.41534 0.52002 0.0
O437 O 0.33165 0.42989 0.51054 0.0
O438 O 0.29766 0.42785 0.43286 0.0
H439 H 0.37652 0.45651 0.47334 0.0
H440 H 0.18519 0.34657 0.4584 0.0
H441 H 0.44152 0.46358 0.47176 0.0
Zn442 Zn 0.84442 0.07235 0.20347 0.0
C443 C 0.93165 0.0666 0.23102 0.0
N444 N 0.94494 0.08509 0.21902 0.0
C445 C 0.91826 0.08578 0.20886 0.0
N446 N 0.88965 0.06859 0.21423 0.0
N447 N 0.89769 0.05635 0.22829 0.0
C448 C 0.86122 0.05826 0.26908 0.0
O449 O 0.84705 0.08128 0.25955 0.0
O450 O 0.84266 0.04853 0.18228 0.0
Zn451 Zn 0.86665 0.02467 0.24011 0.0
N452 N 0.83804 0.12225 0.20053 0.0
C453 C 0.82321 0.17677 0.21234 0.0
C454 C 0.82622 0.14036 0.21312 0.0
C455 C 0.847 0.13902 0.18708 0.0
N456 N 0.83236 0.19361 0.19901 0.0
C457 C 0.84424 0.17593 0.18623 0.0
O458 O 0.81261 0.03107 0.23772 0.0
C459 C 0.79056 0.04236 0.2277 0.0
O460 O 0.80099 0.05656 0.21511 0.0
H461 H 0.81972 0.12655 0.22377 0.0
H462 H 0.85716 0.12378 0.17744 0.0
C463 C 0.85827 0.94953 0.2391 0.0
C464 C 0.86473 0.9154 0.23338 0.0
C465 C 0.90911 0.93861 0.21677 0.0
C466 C 0.90201 0.97234 0.2222 0.0
N467 N 0.87715 0.97715 0.2334 0.0
N468 N 0.89034 0.91107 0.22243 0.0
H469 H 0.8385 0.95437 0.24791 0.0
C470 C 0.84731 0.01579 0.18001 0.0
O471 O 0.85568 0.99557 0.19184 0.0
O472 O 0.87471 0.03052 0.26331 0.0
H473 H 0.91612 0.99451 0.21739 0.0
H474 H 0.81397 0.19161 0.22229 0.0
H475 H 0.92903 0.93437 0.20795 0.0
Zn476 Zn 0.25012 0.61429 0.98962 0.0
C477 C 0.18633 0.66686 0.9598 0.0
N478 N 0.18843 0.69342 0.96998 0.0
C479 C 0.20787 0.67985 0.98159 0.0
N480 N 0.21739 0.64587 0.97862 0.0
N481 N 0.20359 0.6381 0.9648 0.0
C482 C 0.2547 0.59658 0.93009 0.0
O483 O 0.27527 0.60518 0.94179 0.0
O484 O 0.24824 0.62122 0.01307 0.0
Zn485 Zn 0.19842 0.59334 0.95382 0.0
N486 N 0.29704 0.62429 0.98188 0.0
C487 C 0.33435 0.65593 0.96455 0.0
C488 C 0.30115 0.64956 0.97082 0.0
C489 C 0.32484 0.60468 0.98678 0.0
N490 N 0.36207 0.6364 0.9694 0.0
C491 C 0.35849 0.61077 0.98038 0.0
O492 O 0.21303 0.54961 0.96539 0.0
C493 C 0.22864 0.53885 0.97757 0.0
O494 O 0.24237 0.5606 0.98715 0.0
H495 H 0.27877 0.6643 0.96668 0.0
H496 H 0.32028 0.58393 0.99516 0.0
C497 C 0.13173 0.59446 0.93716 0.0
C498 C 0.09493 0.59009 0.93615 0.0
C499 C 0.09384 0.57213 0.96268 0.0
C500 C 0.13012 0.57673 0.96363 0.0
N501 N 0.14834 0.5876 0.95089 0.0
N502 N 0.07719 0.57883 0.94903 0.0
H503 H 0.14713 0.6028 0.92722 0.0
C504 C 0.2194 0.62549 0.02038 0.0
O505 O 0.19017 0.6297 0.01242 0.0
O506 O 0.22203 0.5916 0.93254 0.0
H507 H 0.14382 0.57169 0.97445 0.0
H508 H 0.338 0.67593 0.95573 0.0
H509 H 0.07896 0.56334 0.97271 0.0
Zn510 Zn 0.65782 0.9987 0.7403 0.0
C511 C 0.60429 0.93416 0.71108 0.0
N512 N 0.57806 0.93659 0.72144 0.0
C513 C 0.59215 0.95638 0.73283 0.0
N514 N 0.62605 0.96581 0.72957 0.0
N515 N 0.63337 0.95153 0.71581 0.0
C516 C 0.69854 0.99751 0.68014 0.0
O517 O 0.72099 1.00857 0.69071 0.0
O518 O 0.65075 0.99666 0.76369 0.0
Zn519 Zn 0.67775 0.94719 0.70446 0.0
N520 N 0.64822 0.04536 0.73242 0.0
C521 C 0.61781 0.08245 0.71466 0.0
C522 C 0.62422 0.04921 0.7208 0.0
C523 C 0.66686 0.07337 0.73788 0.0
N524 N 0.63636 0.11041 0.72009 0.0
C525 C 0.6611 0.10696 0.73148 0.0
O526 O 0.72198 0.96104 0.71607 0.0
C527 C 0.73293 0.97666 0.72825 0.0
O528 O 0.71134 0.99066 0.73779 0.0
H529 H 0.6102 0.02667 0.71626 0.0
H530 H 0.68585 0.06924 0.74709 0.0
C531 C 0.67633 0.88112 0.68713 0.0
C532 C 0.68087 0.84445 0.6859 0.0
C533 C 0.6988 0.8427 0.71242 0.0
C534 C 0.69414 0.87887 0.71359 0.0
N535 N 0.68325 0.89736 0.70095 0.0
N536 N 0.69218 0.82644 0.69866 0.0
H537 H 0.6679 0.89666 0.67726 0.0
C538 C 0.65608 0.96718 0.77028 0.0
O539 O 0.66161 0.9394 0.7615 0.0
O540 O 0.67763 0.97241 0.6835 0.0
H541 H 0.69916 0.89228 0.72449 0.0
H542 H 0.59855 0.08598 0.70551 0.0
H543 H 0.70761 0.82763 0.72236 0.0
C544 C 0.1992 1.00185 0.85029 0.0
C545 C 0.17769 0.01866 0.83926 0.0
C546 C 0.20408 0.01644 0.86511 0.0
C547 C 0.16324 0.06978 0.89481 0.0
H548 H 0.25794 0.08947 0.9093 0.0
C549 C 0.18642 0.13064 0.95569 0.0
C550 C 0.21613 0.11952 0.96406 0.0
C551 C 0.18261 0.12217 0.93988 0.0
C552 C 0.2313 0.08368 0.90561 0.0
H553 H 0.14371 0.06348 0.83525 0.0
H554 H 0.15128 0.0883 0.86144 0.0
H555 H 0.24889 0.0655 0.88324 0.0
H556 H 0.26545 0.09125 0.96237 0.0
H557 H 0.25827 0.07512 0.93519 0.0
H558 H 0.14542 0.08595 0.9173 0.0
C559 C 0.16479 0.06416 0.85845 0.0
C560 C 0.22619 0.07016 0.8906 0.0
C561 C 0.16055 0.05 0.84348 0.0
C562 C 0.24241 0.10056 0.9562 0.0
C563 C 0.23827 0.09142 0.94051 0.0
C564 C 0.16834 0.08256 0.90995 0.0
C565 C 0.1869 0.0477 0.86934 0.0
C566 C 0.19214 0.06299 0.88508 0.0
C567 C 0.20806 0.10163 0.93212 0.0
C568 C 0.20249 0.0896 0.91565 0.0
H569 H 0.21282 0.97772 0.84738 0.0
H570 H 0.22106 1.00314 0.87335 0.0
H571 H 0.13672 0.0642 0.89085 0.0
H572 H 0.16583 0.14551 0.96141 0.0
H573 H 0.15943 0.13145 0.93384 0.0
C574 C 0.77018 0.42 0.1004 0.0
C575 C 0.75712 0.44269 0.08884 0.0
C576 C 0.75641 0.42083 0.11554 0.0
C577 C 0.71096 0.47921 0.14308 0.0
H578 H 0.69065 0.39321 0.16561 0.0
C579 C 0.65421 0.48242 0.20571 0.0
C580 C 0.66817 0.45793 0.21629 0.0
C581 C 0.66121 0.47948 0.18971 0.0
C582 C 0.6965 0.41752 0.15957 0.0
H583 H 0.71914 0.48388 0.08415 0.0
H584 H 0.69542 0.4855 0.11057 0.0
H585 H 0.7113 0.39013 0.13873 0.0
H586 H 0.69974 0.41064 0.21824 0.0
H587 H 0.71251 0.406 0.19064 0.0
H588 H 0.6973 0.50667 0.16398 0.0
C589 C 0.71634 0.46712 0.10792 0.0
C590 C 0.70828 0.4157 0.14414 0.0
C591 C 0.72984 0.46604 0.09275 0.0
C592 C 0.68841 0.42994 0.21045 0.0
C593 C 0.69559 0.42714 0.19453 0.0
C594 C 0.69951 0.48104 0.15857 0.0
C595 C 0.72954 0.44462 0.1195 0.0
C596 C 0.71588 0.44652 0.13575 0.0
C597 C 0.68249 0.45209 0.18393 0.0
C598 C 0.6924 0.45021 0.16709 0.0
H599 H 0.79126 0.40179 0.09781 0.0
H600 H 0.76737 0.40338 0.12424 0.0
H601 H 0.71696 0.50343 0.13698 0.0
H602 H 0.63841 0.50423 0.20981 0.0
H603 H 0.65014 0.49886 0.18189 0.0
C604 C 0.358 0.96955 0.34323 0.0
C605 C 0.34232 1.00173 0.33918 0.0
C606 C 0.35395 0.95575 0.35827 0.0
C607 C 0.29442 0.95337 0.39125 0.0
H608 H 0.37593 0.93276 0.41677 0.0
C609 C 0.28091 0.92295 0.45697 0.0
C610 C 0.3065 0.90227 0.46439 0.0
C611 C 0.28457 0.93222 0.44127 0.0
C612 C 0.35276 0.93753 0.40976 0.0
H613 H 0.30994 0.04456 0.34768 0.0
H614 H 0.30196 0.0198 0.37378 0.0
H615 H 0.38404 0.95413 0.39024 0.0
H616 H 0.35501 0.8735 0.46094 0.0
H617 H 0.36047 0.88786 0.43337 0.0
H618 H 0.26292 0.93579 0.41036 0.0
C619 C 0.31769 1.00554 0.36536 0.0
C620 C 0.35753 0.95008 0.39456 0.0
C621 C 0.32242 0.01975 0.35046 0.0
C622 C 0.33498 0.88969 0.45557 0.0
C623 C 0.33827 0.89832 0.43976 0.0
C624 C 0.28958 0.94007 0.40631 0.0
C625 C 0.33345 0.97345 0.36941 0.0
C626 C 0.32842 0.95857 0.38525 0.0
C627 C 0.31356 0.92045 0.43243 0.0
C628 C 0.31868 0.93241 0.41592 0.0
H629 H 0.3736 0.95513 0.33482 0.0
H630 H 0.36633 0.93094 0.36112 0.0
H631 H 0.27153 0.95935 0.38421 0.0
H632 H 0.25884 0.93341 0.46348 0.0
H633 H 0.26521 0.94976 0.43629 0.0
C634 C 0.75433 0.6014 0.59939 0.0
C635 C 0.76404 0.57578 0.58837 0.0
C636 C 0.76797 0.60049 0.61455 0.0
C637 C 0.80636 0.53966 0.6433 0.0
H638 H 0.83652 0.62496 0.66421 0.0
C639 C 0.86505 0.53609 0.70556 0.0
C640 C 0.85388 0.56263 0.71583 0.0
C641 C 0.85773 0.53838 0.68957 0.0
C642 C 0.82791 0.6009 0.65862 0.0
H643 H 0.79601 0.52927 0.58469 0.0
H644 H 0.81959 0.52768 0.61109 0.0
H645 H 0.81579 0.62777 0.63734 0.0
H646 H 0.82709 0.61288 0.71724 0.0
H647 H 0.81387 0.61654 0.68963 0.0
H648 H 0.81758 0.51284 0.66463 0.0
C649 C 0.8013 0.54836 0.60803 0.0
C650 C 0.81604 0.60255 0.64319 0.0
C651 C 0.78789 0.54942 0.59286 0.0
C652 C 0.8362 0.59195 0.70968 0.0
C653 C 0.82876 0.59417 0.69377 0.0
C654 C 0.81799 0.53803 0.65877 0.0
C655 C 0.7914 0.57378 0.61909 0.0
C656 C 0.80493 0.57198 0.63537 0.0
C657 C 0.83898 0.56722 0.68349 0.0
C658 C 0.82869 0.56867 0.66669 0.0
H659 H 0.73595 0.62199 0.59635 0.0
H660 H 0.75953 0.62028 0.62283 0.0
H661 H 0.79758 0.51568 0.63769 0.0
H662 H 0.87884 0.51319 0.70989 0.0
H663 H 0.86656 0.51739 0.68199 0.0
C664 C 0.83649 0.88693 0.04807 0.0
C665 C 0.80795 0.89938 0.03928 0.0
C666 C 0.83971 0.89552 0.06389 0.0
C667 C 0.79081 0.93703 0.09739 0.0
H668 H 0.88521 0.95213 0.11332 0.0
C669 C 0.82331 0.01828 0.15284 0.0
C670 C 0.84342 1.00074 0.16417 0.0
C671 C 0.81858 1.00359 0.13802 0.0
C672 C 0.85872 0.94777 0.10903 0.0
H673 H 0.76008 0.9302 0.04025 0.0
H674 H 0.76632 0.94647 0.06746 0.0
H675 H 0.87718 0.93031 0.08683 0.0
H676 H 0.87504 0.95449 0.16872 0.0
H677 H 0.86775 0.92945 0.14256 0.0
H678 H 0.77267 0.95648 0.11946 0.0
C679 C 0.78579 0.92907 0.06245 0.0
C680 C 0.854 0.93497 0.09387 0.0
C681 C 0.78221 0.91984 0.04674 0.0
C682 C 0.85928 0.96854 0.16026 0.0
C683 C 0.85522 0.95426 0.14531 0.0
C684 C 0.79559 0.95057 0.11242 0.0
C685 C 0.81486 0.91747 0.07125 0.0
C686 C 0.81993 0.92951 0.08775 0.0
C687 C 0.83454 0.9715 0.13411 0.0
C688 C 0.82957 0.95617 0.11835 0.0
H689 H 0.85664 0.8709 0.04266 0.0
H690 H 0.86198 0.88518 0.07027 0.0
H691 H 0.76417 0.93248 0.09338 0.0
H692 H 0.8107 0.04309 0.1555 0.0
H693 H 0.80271 0.0175 0.12955 0.0
C694 C 0.30132 0.60895 0.91005 0.0
C695 C 0.26932 0.59273 0.91416 0.0
C696 C 0.31519 0.60497 0.89501 0.0
C697 C 0.31838 0.54529 0.86212 0.0
H698 H 0.33717 0.62696 0.83642 0.0
C699 C 0.34789 0.53209 0.79629 0.0
C700 C 0.36794 0.5581 0.78876 0.0
C701 C 0.33889 0.53558 0.81203 0.0
C702 C 0.33293 0.60376 0.84348 0.0
H703 H 0.22694 0.55941 0.90577 0.0
H704 H 0.25184 0.55156 0.87968 0.0
H705 H 0.31601 0.63477 0.86301 0.0
H706 H 0.39595 0.60721 0.79203 0.0
H707 H 0.38209 0.61243 0.81968 0.0
H708 H 0.33625 0.5141 0.84299 0.0
C709 C 0.26589 0.56766 0.88806 0.0
C710 C 0.32049 0.60836 0.85871 0.0
C711 C 0.2516 0.57231 0.90295 0.0
C712 C 0.38022 0.58686 0.7975 0.0
C713 C 0.37187 0.59 0.81334 0.0
C714 C 0.33156 0.54065 0.84702 0.0
C715 C 0.29776 0.584 0.88394 0.0
C716 C 0.31264 0.57917 0.86809 0.0
C717 C 0.35032 0.56485 0.82079 0.0
C718 C 0.33856 0.5698 0.83734 0.0
H719 H 0.31551 0.62495 0.91841 0.0
H720 H 0.33983 0.6178 0.89211 0.0
H721 H 0.31288 0.52235 0.86921 0.0
H722 H 0.33769 0.50978 0.78984 0.0
H723 H 0.32179 0.51588 0.81711 0.0
C724 C 0.72439 0.03818 0.66012 0.0
C725 C 0.69865 0.01323 0.6643 0.0
C726 C 0.72541 0.05217 0.64505 0.0
C727 C 0.67152 0.06622 0.60978 0.0
H728 H 0.76163 0.07143 0.58862 0.0
C729 C 0.68259 0.08789 0.54341 0.0
C730 C 0.71154 0.10659 0.53738 0.0
C731 C 0.68034 0.0802 0.5593 0.0
C732 C 0.7363 0.07082 0.59442 0.0
H733 H 0.65349 0.98382 0.65589 0.0
H734 H 0.65515 1.00841 0.62961 0.0
H735 H 0.75891 0.0507 0.61546 0.0
H736 H 0.7602 0.13309 0.54351 0.0
H737 H 0.7559 0.12037 0.57137 0.0
H738 H 0.64884 0.0864 0.5888 0.0
C739 C 0.67447 0.01724 0.63804 0.0
C740 C 0.73474 0.05877 0.60982 0.0
C741 C 0.67361 1.00302 0.65309 0.0
C742 C 0.73761 0.11853 0.54776 0.0
C743 C 0.73527 0.11095 0.56372 0.0
C744 C 0.67309 0.07852 0.59442 0.0
C745 C 0.70056 0.04179 0.6338 0.0
C746 C 0.70229 0.05596 0.61763 0.0
C747 C 0.70686 0.09118 0.56968 0.0
C748 C 0.70546 0.08059 0.58644 0.0
H749 H 0.74406 0.0467 0.66845 0.0
H750 H 0.7456 0.0713 0.64222 0.0
H751 H 0.64617 0.06491 0.61554 0.0
H752 H 0.66204 0.07816 0.53579 0.0
H753 H 0.65832 0.06451 0.56334 0.0
C754 C 0.17307 0.43177 0.29298 0.0
C755 C 0.1643 0.46375 0.28574 0.0
C756 C 0.18266 0.43085 0.30872 0.0
C757 C 0.22182 0.48741 0.33879 0.0
H758 H 0.19487 0.41263 0.36711 0.0
C759 C 0.26579 0.48877 0.40307 0.0
C760 C 0.27532 0.45669 0.41 0.0
C761 C 0.24977 0.48951 0.38842 0.0
C762 C 0.20301 0.43349 0.35931 0.0
H763 H 0.15725 0.51966 0.2896 0.0
H764 H 0.17393 0.51803 0.31709 0.0
H765 H 0.17001 0.41428 0.34087 0.0
H766 H 0.2752 0.40011 0.40693 0.0
H767 H 0.24804 0.40136 0.38114 0.0
H768 H 0.25543 0.50624 0.35695 0.0
C769 C 0.17373 0.4937 0.31052 0.0
C770 C 0.18861 0.43451 0.34428 0.0
C771 C 0.16388 0.49458 0.29479 0.0
C772 C 0.26813 0.42527 0.40195 0.0
C773 C 0.25233 0.42601 0.38718 0.0
C774 C 0.23637 0.48628 0.35375 0.0
C775 C 0.18394 0.46193 0.31759 0.0
C776 C 0.19787 0.46148 0.33383 0.0
C777 C 0.2431 0.45819 0.38017 0.0
C778 C 0.22721 0.45931 0.36424 0.0
H779 H 0.17363 0.4075 0.28637 0.0
H780 H 0.19056 0.40598 0.31376 0.0
H781 H 0.23008 0.50816 0.33094 0.0
H782 H 0.27063 0.51348 0.409 0.0
H783 H 0.24243 0.51475 0.38359 0.0
C784 C 0.6626 0.55228 0.34271 0.0
C785 C 0.67954 0.52077 0.3386 0.0
C786 C 0.66675 0.56657 0.35766 0.0
C787 C 0.72776 0.5719 0.39009 0.0
H788 H 0.6466 0.59034 0.41621 0.0
C789 C 0.74261 0.60325 0.45566 0.0
C790 C 0.71669 0.62326 0.46324 0.0
C791 C 0.73872 0.59381 0.43998 0.0
C792 C 0.66965 0.58618 0.40902 0.0
H793 H 0.71425 0.47964 0.34691 0.0
H794 H 0.72232 0.50526 0.37284 0.0
H795 H 0.63817 0.56823 0.3898 0.0
H796 H 0.66732 0.65072 0.46011 0.0
H797 H 0.6614 0.63606 0.43257 0.0
H798 H 0.7594 0.59076 0.40891 0.0
C799 C 0.70556 0.51862 0.36453 0.0
C800 C 0.6647 0.57321 0.3939 0.0
C801 C 0.70078 0.50391 0.34973 0.0
C802 C 0.68763 0.63505 0.4546 0.0
C803 C 0.68408 0.62625 0.43882 0.0
C804 C 0.73274 0.58559 0.40507 0.0
C805 C 0.68857 0.55006 0.36864 0.0
C806 C 0.69372 0.56548 0.38438 0.0
C807 C 0.70913 0.60473 0.43135 0.0
C808 C 0.70378 0.59247 0.4149 0.0
H809 H 0.64596 0.56579 0.33441 0.0
H810 H 0.6534 0.59086 0.36055 0.0
H811 H 0.75057 0.56653 0.38289 0.0
H812 H 0.76515 0.5934 0.46202 0.0
H813 H 0.75837 0.57677 0.43488 0.0
C814 C 0.26911 0.92155 0.60065 0.0
C815 C 0.25728 0.94556 0.58936 0.0
C816 C 0.25558 0.92237 0.61584 0.0
C817 C 0.21301 0.98199 0.64397 0.0
H818 H 0.19009 0.89618 0.66616 0.0
C819 C 0.15585 0.98548 0.70656 0.0
C820 C 0.16911 0.96049 0.71709 0.0
C821 C 0.16298 0.98269 0.69056 0.0
C822 C 0.19667 0.92043 0.66021 0.0
H823 H 0.22156 0.98902 0.5852 0.0
H824 H 0.19817 0.99049 0.61165 0.0
H825 H 0.21036 0.89305 0.63921 0.0
H826 H 0.19955 0.91244 0.71893 0.0
H827 H 0.21245 0.90797 0.69131 0.0
H828 H 0.20029 1.00939 0.66502 0.0
C829 C 0.21804 0.97115 0.60879 0.0
C830 C 0.20826 0.91859 0.64473 0.0
C831 C 0.23135 0.97015 0.59359 0.0
C832 C 0.18878 0.93215 0.71118 0.0
C833 C 0.19604 0.92946 0.69526 0.0
C834 C 0.20169 0.98383 0.65948 0.0
C835 C 0.23012 0.94742 0.62013 0.0
C836 C 0.21678 0.94933 0.63646 0.0
C837 C 0.18365 0.9549 0.68472 0.0
C838 C 0.1936 0.95306 0.66787 0.0
H839 H 0.28912 0.90234 0.59782 0.0
H840 H 0.26569 0.90392 0.62434 0.0
H841 H 0.21977 1.00617 0.638 0.0
H842 H 0.1405 1.00758 0.7107 0.0
H843 H 0.15247 1.00247 0.68279 0.0
C844 C 0.84092 0.43258 0.95917 0.0
C845 C 0.81126 0.41552 0.96547 0.0
C846 C 0.84259 0.44066 0.94331 0.0
C847 C 0.78477 0.45541 0.90926 0.0
H848 H 0.87315 0.45577 0.88659 0.0
C849 C 0.79276 0.49028 0.84375 0.0
C850 C 0.82005 0.51313 0.83919 0.0
C851 C 0.79218 0.47574 0.85872 0.0
C852 C 0.84831 0.45604 0.89279 0.0
H853 H 0.76068 0.39223 0.95983 0.0
H854 H 0.76389 0.40569 0.93202 0.0
H855 H 0.87127 0.43335 0.91321 0.0
H856 H 0.8684 0.53826 0.8468 0.0
H857 H 0.86742 0.51283 0.87293 0.0
H858 H 0.76186 0.47815 0.88883 0.0
C859 C 0.78558 0.4135 0.93945 0.0
C860 C 0.8472 0.44319 0.90807 0.0
C861 C 0.78386 0.4055 0.95538 0.0
C862 C 0.84704 0.52071 0.84991 0.0
C863 C 0.84656 0.50599 0.86487 0.0
C864 C 0.78585 0.46806 0.89395 0.0
C865 C 0.81472 0.43176 0.93325 0.0
C866 C 0.81548 0.44304 0.91658 0.0
C867 C 0.81897 0.48352 0.86949 0.0
C868 C 0.81769 0.46886 0.88558 0.0
H869 H 0.86252 0.44077 0.96659 0.0
H870 H 0.86525 0.4551 0.93906 0.0
H871 H 0.75999 0.45633 0.91549 0.0
H872 H 0.77158 0.48376 0.8358 0.0
H873 H 0.77078 0.45821 0.86183 0.0
C874 C 0.25611 0.09683 0.09992 0.0
C875 C 0.25036 0.0654 0.09164 0.0
C876 C 0.27184 0.09625 0.1147 0.0
C877 C 0.28991 0.03554 0.14776 0.0
H878 H 0.35339 0.1095 0.16126 0.0
C879 C 0.36201 0.02775 0.20681 0.0
C880 C 0.36059 0.05827 0.21606 0.0
C881 C 0.35226 0.02883 0.19108 0.0
C882 C 0.33559 0.08872 0.15768 0.0
H883 H 0.25757 1.00885 0.09225 0.0
H884 H 0.28559 1.00792 0.1177 0.0
H885 H 0.32866 0.11119 0.13499 0.0
H886 H 0.34954 0.11422 0.21575 0.0
H887 H 0.33273 0.11608 0.18836 0.0
H888 H 0.2968 0.01308 0.17041 0.0
C889 C 0.27719 0.03298 0.11303 0.0
C890 C 0.32127 0.08975 0.14263 0.0
C891 C 0.26127 0.03354 0.09835 0.0
C892 C 0.35089 0.09019 0.20899 0.0
C893 C 0.34136 0.0913 0.19325 0.0
C894 C 0.30436 0.03441 0.16273 0.0
C895 C 0.2824 0.06425 0.12151 0.0
C896 C 0.29813 0.06321 0.13747 0.0
C897 C 0.34111 0.06049 0.18418 0.0
C898 C 0.32728 0.06103 0.16792 0.0
H899 H 0.24793 0.12182 0.0951 0.0
H900 H 0.275 0.12084 0.12092 0.0
H901 H 0.27165 0.01499 0.14437 0.0
H902 H 0.36939 1.00273 0.21186 0.0
H903 H 0.35287 1.00472 0.18436 0.0
C904 C 0.30229 0.48334 0.66059 0.0
C905 C 0.32584 0.51057 0.66449 0.0
C906 C 0.30124 0.4697 0.64544 0.0
C907 C 0.35326 0.46116 0.60935 0.0
H908 H 0.26254 0.44962 0.58925 0.0
C909 C 0.3405 0.44034 0.54304 0.0
C910 C 0.31265 0.41988 0.53713 0.0
C911 C 0.34285 0.44783 0.55895 0.0
C912 C 0.2881 0.452 0.59474 0.0
H913 H 0.36694 0.54461 0.65546 0.0
H914 H 0.36547 0.52044 0.62909 0.0
H915 H 0.26532 0.4696 0.61623 0.0
H916 H 0.26604 0.39016 0.54348 0.0
H917 H 0.2706 0.40245 0.57138 0.0
H918 H 0.37615 0.44337 0.58798 0.0
C919 C 0.34787 0.50958 0.63779 0.0
C920 C 0.28967 0.46362 0.61022 0.0
C921 C 0.34865 0.52351 0.6529 0.0
C922 C 0.28777 0.4061 0.54763 0.0
C923 C 0.29025 0.41342 0.56362 0.0
C924 C 0.35171 0.44921 0.59393 0.0
C925 C 0.32396 0.48269 0.63385 0.0
C926 C 0.32228 0.46876 0.61764 0.0
C927 C 0.31757 0.43484 0.56948 0.0
C928 C 0.31912 0.44492 0.58632 0.0
H929 H 0.28432 0.47273 0.66921 0.0
H930 H 0.28274 0.44879 0.64282 0.0
H931 H 0.37878 0.46432 0.61482 0.0
H932 H 0.3601 0.45155 0.53531 0.0
H933 H 0.36394 0.46485 0.56289 0.0
C934 C 0.83749 0.0911 0.29206 0.0
C935 C 0.85717 0.06276 0.28618 0.0
C936 C 0.83031 0.09389 0.30798 0.0
C937 C 0.82514 0.03973 0.34383 0.0
H938 H 0.81541 0.13066 0.36388 0.0
C939 C 0.79539 0.05444 0.40969 0.0
C940 C 0.76877 0.07843 0.41373 0.0
C941 C 0.80876 0.0533 0.3945 0.0
C942 C 0.81783 0.10509 0.35841 0.0
H943 H 0.88595 0.0158 0.29259 0.0
H944 H 0.87422 0.02112 0.3205 0.0
H945 H 0.83593 0.12743 0.33698 0.0
H946 H 0.73571 0.12042 0.40497 0.0
H947 H 0.75935 0.11869 0.37849 0.0
H948 H 0.80722 0.01748 0.36537 0.0
C949 C 0.86358 0.04081 0.31272 0.0
C950 C 0.82955 0.10318 0.34297 0.0
C951 C 0.87058 0.03788 0.29672 0.0
C952 C 0.75626 0.1017 0.40228 0.0
C953 C 0.7699 0.10079 0.38711 0.0
C954 C 0.81375 0.04164 0.35933 0.0
C955 C 0.84285 0.06858 0.31854 0.0
C956 C 0.83294 0.0705 0.33538 0.0
C957 C 0.79609 0.07635 0.38302 0.0
C958 C 0.80958 0.07435 0.36674 0.0
H959 H 0.82659 0.11072 0.2843 0.0
H960 H 0.81383 0.11534 0.3119 0.0
H961 H 0.82679 0.01412 0.33836 0.0
H962 H 0.80567 0.03614 0.41821 0.0
H963 H 0.82916 0.03442 0.39176 0.0
C964 C 0.18874 0.63163 0.04615 0.0
C965 C 0.21774 0.61978 0.03747 0.0
C966 C 0.18518 0.62273 0.06192 0.0
C967 C 0.23378 0.58172 0.09557 0.0
H968 H 0.13918 0.56538 0.11105 0.0
C969 C 0.20146 0.50137 0.15127 0.0
C970 C 0.18059 0.51878 0.16239 0.0
C971 C 0.20623 0.51564 0.13638 0.0
C972 C 0.16572 0.57006 0.10689 0.0
H973 H 0.26605 0.58967 0.03858 0.0
H974 H 0.25923 0.57286 0.0657 0.0
H975 H 0.14761 0.58713 0.0846 0.0
H976 H 0.14762 0.56433 0.16648 0.0
H977 H 0.15501 0.58861 0.1402 0.0
H978 H 0.25161 0.56274 0.11775 0.0
C979 C 0.23965 0.59003 0.06064 0.0
C980 C 0.17067 0.58284 0.09174 0.0
C981 C 0.24356 0.59957 0.04499 0.0
C982 C 0.16397 0.55038 0.15818 0.0
C983 C 0.16809 0.56423 0.14316 0.0
C984 C 0.22879 0.56822 0.11058 0.0
C985 C 0.21014 0.60105 0.06934 0.0
C986 C 0.20481 0.5888 0.08579 0.0
C987 C 0.18957 0.54718 0.13218 0.0
C988 C 0.19474 0.5622 0.11638 0.0
H989 H 0.16852 0.64745 0.0407 0.0
H990 H 0.16257 0.63262 0.06821 0.0
H991 H 0.26045 0.58664 0.09168 0.0
H992 H 0.21467 0.47701 0.15416 0.0
H993 H 0.22272 0.50187 0.12809 0.0
C994 C 0.76581 0.92219 0.90376 0.0
C995 C 0.77623 0.95387 0.91088 0.0
C996 C 0.74924 0.92239 0.88917 0.0
C997 C 0.69998 0.97996 0.86196 0.0
H998 H 0.73103 0.91376 0.8305 0.0
C999 C 0.66604 0.99544 0.79644 0.0
C1000 C 0.6617 0.96491 0.78738 0.0
C1001 C 0.67625 0.9931 0.8121 0.0
C1002 C 0.72152 0.93208 0.8392 0.0
H1003 H 0.777 1.01063 0.90828 0.0
H1004 H 0.7482 1.01093 0.88293 0.0
H1005 H 0.75601 0.91113 0.8566 0.0
H1006 H 0.66271 0.9079 0.78797 0.0
H1007 H 0.67956 0.90379 0.81528 0.0
H1008 H 0.66558 1.00103 0.84456 0.0
C1009 C 0.75258 0.98593 0.88865 0.0
C1010 C 0.73596 0.93058 0.85418 0.0
C1011 C 0.76934 0.98572 0.90315 0.0
C1012 C 0.66612 0.93198 0.79455 0.0
C1013 C 0.67609 0.92963 0.81021 0.0
C1014 C 0.6854 0.98137 0.84699 0.0
C1015 C 0.74244 0.95429 0.88142 0.0
C1016 C 0.72564 0.95471 0.86572 0.0
C1017 C 0.68214 0.96015 0.81911 0.0
C1018 C 0.69619 0.95763 0.83534 0.0
H1019 H 0.77069 0.8972 0.9094 0.0
H1020 H 0.74152 0.89756 0.88399 0.0
H1021 H 0.69106 0.99864 0.87064 0.0
H1022 H 0.66301 0.02124 0.79127 0.0
H1023 H 0.68091 0.01721 0.8185 0.0
C1024 C 0.16048 0.28972 0.17227 0.0
C1025 C 0.17162 0.32487 0.17077 0.0
C1026 C 0.15383 0.2691 0.15911 0.0
C1027 C 0.14034 0.27282 0.11617 0.0
H1028 H 0.17993 0.17891 0.11724 0.0
C1029 C 0.20019 0.16894 0.06992 0.0
C1030 C 0.17502 0.17082 0.05803 0.0
C1031 C 0.19292 0.18245 0.0847 0.0
C1032 C 0.1686 0.205 0.11676 0.0
H1033 H 0.18387 0.36598 0.15405 0.0
H1034 H 0.17249 0.33001 0.13115 0.0
H1035 H 0.1802 0.21481 0.14074 0.0
H1036 H 0.12266 0.1884 0.05204 0.0
H1037 H 0.10955 0.21198 0.07801 0.0
H1038 H 0.1305 0.26367 0.09195 0.0
C1039 C 0.16828 0.31853 0.14255 0.0
C1040 C 0.16843 0.22552 0.13029 0.0
C1041 C 0.17483 0.33924 0.15573 0.0
C1042 C 0.14211 0.18588 0.0612 0.0
C1043 C 0.13484 0.1997 0.07598 0.0
C1044 C 0.14056 0.25231 0.10262 0.0
C1045 C 0.15833 0.283 0.14407 0.0
C1046 C 0.155 0.25999 0.13008 0.0
C1047 C 0.16052 0.19893 0.0878 0.0
C1048 C 0.15545 0.21846 0.10267 0.0
H1049 H 0.15727 0.27789 0.18366 0.0
H1050 H 0.14557 0.24207 0.16073 0.0
H1051 H 0.12932 0.29904 0.11565 0.0
H1052 H 0.22655 0.15973 0.06744 0.0
H1053 H 0.21369 0.18227 0.09335 0.0
C1054 C 0.58951 0.3914 0.31363 0.0
C1055 C 0.60226 0.42514 0.31013 0.0
C1056 C 0.57655 0.38383 0.32854 0.0
C1057 C 0.52284 0.38797 0.35484 0.0
H1058 H 0.55728 0.43158 0.39273 0.0
C1059 C 0.43295 0.42114 0.40716 0.0
C1060 C 0.44715 0.41941 0.42228 0.0
C1061 C 0.4542 0.4147 0.39413 0.0
C1062 C 0.54746 0.4187 0.38234 0.0
H1063 H 0.61019 0.47761 0.31905 0.0
H1064 H 0.58876 0.46454 0.34513 0.0
H1065 H 0.59388 0.43201 0.36942 0.0
H1066 H 0.49438 0.40763 0.4355 0.0
H1067 H 0.53111 0.39614 0.41286 0.0
H1068 H 0.47621 0.37508 0.36771 0.0
C1069 C 0.58987 0.4434 0.33668 0.0
C1070 C 0.56837 0.41923 0.36893 0.0
C1071 C 0.60271 0.45087 0.3218 0.0
C1072 C 0.48265 0.40969 0.42403 0.0
C1073 C 0.5038 0.40317 0.41104 0.0
C1074 C 0.50191 0.38743 0.36826 0.0
C1075 C 0.57556 0.41012 0.34009 0.0
C1076 C 0.55598 0.40462 0.35492 0.0
C1077 C 0.49009 0.40636 0.39591 0.0
C1078 C 0.51364 0.40348 0.38208 0.0
H1079 H 0.58823 0.37139 0.30466 0.0
H1080 H 0.56598 0.35786 0.33083 0.0
H1081 H 0.51229 0.37677 0.34421 0.0
H1082 H 0.40592 0.42902 0.40528 0.0
H1083 H 0.44285 0.41781 0.38264 0.0
C1084 C 0.32466 0.85109 0.57032 0.0
C1085 C 0.34959 0.84925 0.55833 0.0
C1086 C 0.33232 0.83774 0.58508 0.0
C1087 C 0.38555 0.76885 0.60312 0.0
H1088 H 0.34758 0.80808 0.64127 0.0
C1089 C 0.35313 0.68447 0.65718 0.0
C1090 C 0.35691 0.69952 0.67207 0.0
C1091 C 0.35938 0.70453 0.64378 0.0
C1092 C 0.3589 0.79691 0.6308 0.0
H1093 H 0.40189 0.83179 0.5521 0.0
H1094 H 0.41567 0.8085 0.57804 0.0
H1095 H 0.34674 0.84287 0.61747 0.0
H1096 H 0.37194 0.74698 0.68448 0.0
H1097 H 0.38316 0.78167 0.66117 0.0
H1098 H 0.39743 0.72275 0.61642 0.0
C1099 C 0.39026 0.82061 0.5761 0.0
C1100 C 0.35808 0.81677 0.61711 0.0
C1101 C 0.38259 0.83424 0.56134 0.0
C1102 C 0.36836 0.73464 0.6732 0.0
C1103 C 0.37471 0.75461 0.65983 0.0
C1104 C 0.38641 0.74898 0.61682 0.0
C1105 C 0.36489 0.82153 0.58805 0.0
C1106 C 0.3706 0.80266 0.60302 0.0
C1107 C 0.36957 0.74006 0.64495 0.0
C1108 C 0.37235 0.76245 0.63076 0.0
H1109 H 0.29825 0.86032 0.56797 0.0
H1110 H 0.31178 0.83797 0.59384 0.0
H1111 H 0.39516 0.75703 0.59245 0.0
H1112 H 0.3438 0.65774 0.65578 0.0
H1113 H 0.35467 0.69258 0.63251 0.0
C1114 C 0.08537 0.6225 0.91076 0.0
C1115 C 0.07481 0.59682 0.9216 0.0
C1116 C 0.06488 0.62941 0.89754 0.0
C1117 C 0.9751 0.61301 0.88086 0.0
H1118 H 0.02193 0.63001 0.84143 0.0
C1119 C 0.91892 0.57773 0.82064 0.0
C1120 C 0.92347 0.60156 0.80835 0.0
C1121 C 0.93252 0.58513 0.8354 0.0
C1122 C 1.00843 0.62596 0.85241 0.0
H1123 H 0.03476 0.55782 0.92683 0.0
H1124 H 1.00005 0.5687 0.90365 0.0
H1125 H 0.05665 0.62667 0.86524 0.0
H1126 H 0.94638 0.65144 0.80163 0.0
H1127 H 0.97111 0.66417 0.82748 0.0
H1128 H 0.92712 0.61015 0.86772 0.0
C1129 C 0.02339 0.58454 0.90554 0.0
C1130 C 0.02832 0.62405 0.86609 0.0
C1131 C 0.04355 0.57802 0.91881 0.0
C1132 C 0.94168 0.63314 0.81108 0.0
C1133 C 0.95598 0.64028 0.82578 0.0
C1134 C 0.95531 0.61441 0.86715 0.0
C1135 C 0.03356 0.61049 0.89476 0.0
C1136 C 1.01204 0.61666 0.88047 0.0
C1137 C 0.95209 0.61597 0.83799 0.0
C1138 C 0.97189 0.62016 0.85275 0.0
H1139 H 0.10902 0.63781 0.91259 0.0
H1140 H 0.07344 0.64987 0.88962 0.0
H1141 H 0.96146 0.60827 0.89175 0.0
H1142 H 0.90766 0.55202 0.81851 0.0
H1143 H 0.93011 0.56544 0.84446 0.0
C1144 C 0.87443 0.69073 0.84165 0.0
C1145 C 0.84719 0.70009 0.83137 0.0
C1146 C 0.88159 0.71132 0.85484 0.0
C1147 C 0.8624 0.79981 0.87212 0.0
H1148 H 0.88419 0.75354 0.91116 0.0
C1149 C 0.82635 0.85172 0.93289 0.0
C1150 C 0.85089 0.84843 0.94498 0.0
C1151 C 0.83415 0.83932 0.91797 0.0
C1152 C 0.87882 0.76692 0.90028 0.0
H1153 H 0.80574 0.73796 0.82707 0.0
H1154 H 0.81716 0.77281 0.85017 0.0
H1155 H 0.8812 0.71904 0.88725 0.0
H1156 H 0.9025 0.82905 0.95122 0.0
H1157 H 0.91602 0.80638 0.92507 0.0
H1158 H 0.85778 0.8473 0.88547 0.0
C1159 C 0.83395 0.75042 0.84788 0.0
C1160 C 0.8771 0.74715 0.88654 0.0
C1161 C 0.82713 0.73017 0.83466 0.0
C1162 C 0.88356 0.83268 0.94192 0.0
C1163 C 0.8912 0.81965 0.92704 0.0
C1164 C 0.86361 0.81944 0.88589 0.0
C1165 C 0.86145 0.74152 0.8581 0.0
C1166 C 0.86788 0.76316 0.87234 0.0
C1167 C 0.86621 0.82218 0.91503 0.0
C1168 C 0.87102 0.80302 0.90014 0.0
H1169 H 0.89074 0.66803 0.83936 0.0
H1170 H 0.9032 0.70378 0.86235 0.0
H1171 H 0.85623 0.81328 0.86135 0.0
H1172 H 0.80006 0.86123 0.93526 0.0
H1173 H 0.81403 0.84073 0.90905 0.0
C1174 C 0.5868 0.62081 0.59155 0.0
C1175 C 0.57768 0.59523 0.58037 0.0
C1176 C 0.56706 0.62424 0.60528 0.0
C1177 C 0.51285 0.57241 0.63148 0.0
H1178 H 0.47179 0.66002 0.64576 0.0
C1179 C 0.42085 0.57064 0.68362 0.0
C1180 C 0.4249 0.5972 0.69477 0.0
C1181 C 0.43558 0.57423 0.66883 0.0
C1182 C 0.48336 0.63543 0.64201 0.0
H1183 H 0.54072 0.55348 0.57481 0.0
H1184 H 0.50701 0.559 0.59881 0.0
H1185 H 0.50772 0.65922 0.62197 0.0
H1186 H 0.4478 0.64824 0.69945 0.0
H1187 H 0.47465 0.65439 0.67363 0.0
H1188 H 0.48998 0.54852 0.65151 0.0
C1189 C 0.52919 0.57647 0.59693 0.0
C1190 C 0.5039 0.63503 0.62842 0.0
C1191 C 0.54846 0.57341 0.58318 0.0
C1192 C 0.44348 0.62786 0.69082 0.0
C1193 C 0.4588 0.63132 0.67604 0.0
C1194 C 0.49286 0.57286 0.64509 0.0
C1195 C 0.53833 0.60178 0.60814 0.0
C1196 C 0.51841 0.60337 0.62296 0.0
C1197 C 0.45608 0.60391 0.66505 0.0
C1198 C 0.47736 0.60422 0.65045 0.0
H1199 H 0.60882 0.6384 0.58963 0.0
H1200 H 0.57464 0.64391 0.61379 0.0
H1201 H 0.52421 0.54777 0.62765 0.0
H1202 H 0.40881 0.54578 0.68673 0.0
H1203 H 0.43249 0.55277 0.66064 0.0
C1204 C 0.67547 0.34071 0.34563 0.0
C1205 C 0.67241 0.32609 0.33062 0.0
C1206 C 0.66932 0.32009 0.35886 0.0
C1207 C 0.67106 0.22741 0.37139 0.0
H1208 H 0.63149 0.26544 0.40947 0.0
C1209 C 0.64323 0.18802 0.44034 0.0
C1210 C 0.67625 0.1735 0.44375 0.0
C1211 C 0.63633 0.20169 0.42552 0.0
C1212 C 0.64203 0.25411 0.39887 0.0
H1213 H 0.65887 0.27867 0.31784 0.0
H1214 H 0.64792 0.24297 0.34086 0.0
H1215 H 0.63015 0.30038 0.38568 0.0
H1216 H 0.72832 0.16312 0.43472 0.0
H1217 H 0.71616 0.18562 0.40874 0.0
H1218 H 0.68321 0.18127 0.38461 0.0
C1219 C 0.6557 0.27017 0.34242 0.0
C1220 C 0.64171 0.27438 0.38528 0.0
C1221 C 0.66192 0.29072 0.32921 0.0
C1222 C 0.70194 0.17203 0.43206 0.0
C1223 C 0.69505 0.18545 0.41723 0.0
C1224 C 0.67135 0.20714 0.38497 0.0
C1225 C 0.65997 0.28439 0.35741 0.0
C1226 C 0.65691 0.26159 0.37146 0.0
C1227 C 0.66249 0.20131 0.4139 0.0
C1228 C 0.65758 0.22056 0.39897 0.0
H1229 H 0.68407 0.36761 0.34726 0.0
H1230 H 0.67335 0.33179 0.37023 0.0
H1231 H 0.68326 0.21678 0.361 0.0
H1232 H 0.62335 0.19019 0.44934 0.0
H1233 H 0.61089 0.21348 0.42329 0.0
C1234 C 0.93458 0.41811 0.09491 0.0
C1235 C 0.94858 0.41587 0.07976 0.0
C1236 C 0.9558 0.41135 0.1079 0.0
C1237 C 0.04918 0.41355 0.11949 0.0
H1238 H 0.01307 0.37378 0.15789 0.0
C1239 C 0.08978 0.38923 0.18855 0.0
C1240 C 0.10288 0.423 0.19172 0.0
C1241 C 0.07707 0.38092 0.17368 0.0
C1242 C 0.02389 0.38433 0.14719 0.0
H1243 H 0.99538 0.40285 0.06645 0.0
H1244 H 0.03208 0.39082 0.08903 0.0
H1245 H 0.97709 0.3718 0.13439 0.0
H1246 H 0.11174 0.47481 0.18226 0.0
H1247 H 0.09069 0.46047 0.15626 0.0
H1248 H 0.09576 0.42653 0.13234 0.0
C1249 C 1.00495 0.39848 0.0909 0.0
C1250 C 1.00302 0.38365 0.13376 0.0
C1251 C 0.98383 0.40533 0.07794 0.0
C1252 C 0.10394 0.44802 0.17978 0.0
C1253 C 0.09134 0.43982 0.16494 0.0
C1254 C 0.07004 0.41422 0.1329 0.0
C1255 C 0.99146 0.40217 0.10606 0.0
C1256 C 0.01505 0.39903 0.11984 0.0
C1257 C 0.07669 0.40652 0.16184 0.0
C1258 C 0.05728 0.40046 0.14702 0.0
H1259 H 0.90777 0.42663 0.09685 0.0
H1260 H 0.94463 0.41489 0.11941 0.0
H1261 H 0.05926 0.42589 0.10902 0.0
H1262 H 0.08808 0.36977 0.19774 0.0
H1263 H 0.06623 0.35496 0.17163 0.0
C1264 C 0.69863 0.67255 0.56958 0.0
C1265 C 0.67459 0.67617 0.55731 0.0
C1266 C 0.69067 0.68556 0.58438 0.0
C1267 C 0.6465 0.75898 0.60175 0.0
H1268 H 0.66665 0.71215 0.64082 0.0
C1269 C 0.64798 0.83443 0.66065 0.0
C1270 C 0.67454 0.82475 0.67121 0.0
C1271 C 0.64155 0.81413 0.64729 0.0
C1272 C 0.66118 0.72576 0.63001 0.0
H1273 H 0.62371 0.69673 0.55066 0.0
H1274 H 0.6099 0.72032 0.57661 0.0
H1275 H 0.66595 0.67829 0.61665 0.0
H1276 H 0.71556 0.78662 0.67586 0.0
H1277 H 0.7054 0.75226 0.6525 0.0
H1278 H 0.64386 0.8068 0.61483 0.0
C1279 C 0.63446 0.70643 0.57486 0.0
C1280 C 0.66047 0.70623 0.61621 0.0
C1281 C 0.64222 0.69279 0.5601 0.0
C1282 C 0.69468 0.79465 0.66804 0.0
C1283 C 0.68858 0.77469 0.65467 0.0
C1284 C 0.6477 0.77864 0.61553 0.0
C1285 C 0.65897 0.70354 0.58705 0.0
C1286 C 0.65392 0.7228 0.60191 0.0
C1287 C 0.66175 0.78389 0.64416 0.0
C1288 C 0.65601 0.76245 0.6298 0.0
H1289 H 0.72478 0.66242 0.56742 0.0
H1290 H 0.71047 0.68393 0.59344 0.0
H1291 H 0.64177 0.77248 0.59083 0.0
H1292 H 0.63161 0.85714 0.66284 0.0
H1293 H 0.62043 0.8219 0.63956 0.0
C1294 C 0.08669 0.89055 0.81288 0.0
C1295 C 0.09982 0.92441 0.80993 0.0
C1296 C 0.07383 0.88186 0.8277 0.0
C1297 C 0.02067 0.88466 0.85435 0.0
H1298 H 0.05675 0.92513 0.89263 0.0
C1299 C 0.93241 0.91813 0.90715 0.0
C1300 C 0.94686 0.91609 0.92221 0.0
C1301 C 0.95322 0.91106 0.89404 0.0
C1302 C 0.04646 0.91306 0.88214 0.0
H1303 H 0.10831 0.97603 0.81968 0.0
H1304 H 0.08717 0.96099 0.84557 0.0
H1305 H 0.09292 0.92615 0.86923 0.0
H1306 H 0.99388 0.90281 0.93528 0.0
H1307 H 0.02983 0.89013 0.91252 0.0
H1308 H 0.97396 0.87204 0.86723 0.0
C1309 C 0.08793 0.94056 0.83678 0.0
C1310 C 0.06714 0.91395 0.86867 0.0
C1311 C 0.1006 0.94916 0.822 0.0
C1312 C 0.98203 0.9052 0.92385 0.0
C1313 C 1.00272 0.89798 0.91079 0.0
C1314 C 0.99996 0.88374 0.86784 0.0
C1315 C 0.07338 0.90714 0.83969 0.0
C1316 C 0.05413 0.90064 0.85452 0.0
C1317 C 0.98889 0.90172 0.8957 0.0
C1318 C 0.01225 0.89872 0.88181 0.0
H1319 H 0.0851 0.87133 0.80358 0.0
H1320 H 0.06299 0.85584 0.82959 0.0
H1321 H 1.00969 0.87444 0.84362 0.0
H1322 H 0.90559 0.92683 0.90538 0.0
H1323 H 0.94177 0.91459 0.8826 0.0
C1324 C 0.85116 0.18169 0.15702 0.0
C1325 C 0.85388 0.19628 0.17205 0.0
C1326 C 0.85725 0.20243 0.14382 0.0
C1327 C 0.85438 0.29509 0.13136 0.0
H1328 H 0.89497 0.25787 0.09334 0.0
C1329 C 0.88163 0.33444 0.06235 0.0
C1330 C 0.84824 0.34805 0.0589 0.0
C1331 C 0.88898 0.32153 0.07727 0.0
C1332 C 0.88414 0.26898 0.10393 0.0
H1333 H 0.86678 0.2438 0.18489 0.0
H1334 H 0.87758 0.2797 0.16192 0.0
H1335 H 0.89659 0.22285 0.11711 0.0
H1336 H 0.79606 0.35782 0.06795 0.0
H1337 H 0.8087 0.33581 0.09398 0.0
H1338 H 0.84156 0.34105 0.11814 0.0
C1339 C 0.87014 0.25242 0.16033 0.0
C1340 C 0.88463 0.24866 0.11751 0.0
C1341 C 0.864 0.23175 0.17351 0.0
C1342 C 0.82257 0.34927 0.07061 0.0
C1343 C 0.82979 0.33631 0.08548 0.0
C1344 C 0.85389 0.3154 0.11779 0.0
C1345 C 0.86618 0.23823 0.14531 0.0
C1346 C 0.86907 0.26114 0.1313 0.0
C1347 C 0.86276 0.32137 0.08888 0.0
C1348 C 0.86803 0.30227 0.10382 0.0
H1349 H 0.84285 0.15471 0.15535 0.0
H1350 H 0.85348 0.19074 0.13243 0.0
H1351 H 0.84189 0.30548 0.14174 0.0
H1352 H 0.90156 0.33264 0.05336 0.0
H1353 H 0.91472 0.31047 0.07955 0.0
C1354 C 0.54801 0.07346 0.4188 0.0
C1355 C 0.57832 0.09364 0.42178 0.0
C1356 C 0.52704 0.08017 0.4058 0.0
C1357 C 0.5283 0.12322 0.36711 0.0
H1358 H 0.42786 0.10484 0.36941 0.0
C1359 C 0.44008 0.13098 0.31271 0.0
C1360 C 0.4229 0.09888 0.30987 0.0
C1361 C 0.45423 0.13826 0.32743 0.0
C1362 C 0.45582 0.11036 0.36865 0.0
H1363 H 0.61 0.13721 0.41336 0.0
H1364 H 0.57305 0.14944 0.39081 0.0
H1365 H 0.4634 0.10265 0.39308 0.0
H1366 H 0.40879 0.04877 0.31982 0.0
H1367 H 0.43059 0.06232 0.34583 0.0
H1368 H 0.52054 0.13057 0.34261 0.0
C1369 C 0.56587 0.12785 0.3984 0.0
C1370 C 0.4763 0.10881 0.38216 0.0
C1371 C 0.58715 0.12082 0.41136 0.0
C1372 C 0.41904 0.07477 0.32208 0.0
C1373 C 0.43241 0.08229 0.33686 0.0
C1374 C 0.50771 0.12521 0.35363 0.0
C1375 C 0.53544 0.10763 0.39548 0.0
C1376 C 0.51302 0.11405 0.38149 0.0
C1377 C 0.45122 0.11358 0.33954 0.0
C1378 C 0.47146 0.11779 0.3542 0.0
H1379 H 0.54055 0.05209 0.42648 0.0
H1380 H 0.50446 0.06335 0.40376 0.0
H1381 H 0.55645 0.12712 0.36607 0.0
H1382 H 0.44426 0.14955 0.30331 0.0
H1383 H 0.4687 0.16253 0.32918 0.0
C1384 C 0.32283 0.35285 0.43174 0.0
C1385 C 0.34775 0.34966 0.44368 0.0
C1386 C 0.32995 0.33979 0.41686 0.0
C1387 C 0.37443 0.26658 0.39931 0.0
H1388 H 0.34919 0.311 0.36026 0.0
C1389 C 0.37083 0.18848 0.34119 0.0
C1390 C 0.34316 0.19665 0.33093 0.0
C1391 C 0.37753 0.20968 0.35423 0.0
C1392 C 0.35608 0.29805 0.37107 0.0
H1393 H 0.39942 0.33004 0.44967 0.0
H1394 H 0.41182 0.3065 0.42358 0.0
H1395 H 0.35098 0.34592 0.38412 0.0
H1396 H 0.30055 0.23313 0.3265 0.0
H1397 H 0.31123 0.26905 0.34937 0.0
H1398 H 0.37745 0.21832 0.38658 0.0
C1399 C 0.38717 0.32 0.42563 0.0
C1400 C 0.35741 0.3182 0.38469 0.0
C1401 C 0.38019 0.33357 0.44048 0.0
C1402 C 0.32226 0.22624 0.33408 0.0
C1403 C 0.32864 0.2471 0.34717 0.0
C1404 C 0.37262 0.2463 0.38572 0.0
C1405 C 0.36172 0.32224 0.41379 0.0
C1406 C 0.36587 0.3025 0.39899 0.0
C1407 C 0.35651 0.23934 0.35738 0.0
C1408 C 0.36254 0.26158 0.37148 0.0
H1409 H 0.29673 0.36274 0.43422 0.0
H1410 H 0.30948 0.34102 0.40808 0.0
H1411 H 0.38059 0.2537 0.41022 0.0
H1412 H 0.38781 0.16623 0.339 0.0
H1413 H 0.39948 0.20303 0.36172 0.0
C1414 C 0.92056 0.0723 0.18066 0.0
C1415 C 0.92379 0.09705 0.19267 0.0
C1416 C 0.93339 0.07967 0.16577 0.0
C1417 C 1.00692 0.12421 0.14848 0.0
H1418 H 0.96311 0.09822 0.10934 0.0
C1419 C 0.08624 0.11835 0.09068 0.0
C1420 C 0.07798 0.09035 0.08058 0.0
C1421 C 0.0649 0.12562 0.10361 0.0
C1422 C 0.97587 0.10535 0.12018 0.0
H1423 H 0.94329 0.14876 0.19876 0.0
H1424 H 0.96662 0.1616 0.17266 0.0
H1425 H 0.92762 0.10072 0.13303 0.0
H1426 H 0.04126 0.04759 0.07644 0.0
H1427 H 1.00509 0.05929 0.09911 0.0
H1428 H 0.05556 0.12673 0.13596 0.0
C1429 C 0.95313 0.13688 0.17467 0.0
C1430 C 0.95541 0.10709 0.1337 0.0
C1431 C 0.93969 0.12965 0.18952 0.0
C1432 C 0.04823 0.06959 0.08386 0.0
C1433 C 0.02722 0.07655 0.09683 0.0
C1434 C 0.02752 0.12202 0.135 0.0
C1435 C 0.95091 0.11154 0.16277 0.0
C1436 C 0.97089 0.11574 0.14804 0.0
C1437 C 0.03499 0.10485 0.10682 0.0
C1438 C 0.01245 0.11159 0.12074 0.0
H1439 H 0.91108 0.0461 0.18314 0.0
H1440 H 0.93215 0.05926 0.15697 0.0
H1441 H 0.01964 0.13052 0.15944 0.0
H1442 H 0.10865 0.13518 0.08844 0.0
H1443 H 0.07159 0.14783 0.11094 0.0
C1444 C 0.14128 0.68825 0.94102 0.0
C1445 C 0.17417 0.67273 0.94376 0.0
C1446 C 0.13312 0.70183 0.9263 0.0
C1447 C 0.13772 0.75366 0.89936 0.0
H1448 H 0.17441 0.71476 0.86089 0.0
C1449 C 0.17144 0.83922 0.8459 0.0
C1450 C 0.1675 0.82483 0.83089 0.0
C1451 C 0.16482 0.81875 0.85913 0.0
C1452 C 0.16342 0.72586 0.87145 0.0
H1453 H 0.22476 0.66081 0.93366 0.0
H1454 H 0.21035 0.68266 0.90784 0.0
H1455 H 0.17479 0.67927 0.88448 0.0
H1456 H 0.15181 0.77811 0.8181 0.0
H1457 H 0.13993 0.74269 0.84113 0.0
H1458 H 0.12659 0.80036 0.88634 0.0
C1459 C 0.19023 0.68341 0.91679 0.0
C1460 C 0.16398 0.70558 0.88502 0.0
C1461 C 0.19838 0.6702 0.93151 0.0
C1462 C 0.15556 0.78993 0.82948 0.0
C1463 C 0.14881 0.76955 0.84269 0.0
C1464 C 0.13707 0.77393 0.88576 0.0
C1465 C 0.15789 0.70033 0.9141 0.0
C1466 C 0.15202 0.71956 0.89923 0.0
C1467 C 0.15404 0.78344 0.85769 0.0
C1468 C 0.15074 0.76061 0.87172 0.0
H1469 H 0.12254 0.69124 0.95045 0.0
H1470 H 0.10788 0.71445 0.9246 0.0
H1471 H 0.12854 0.7654 0.91011 0.0
H1472 H 0.18114 0.86576 0.84752 0.0
H1473 H 0.16964 0.83021 0.87049 0.0
C1474 C 0.60211 0.94531 0.68266 0.0
C1475 C 0.59764 0.92188 0.69509 0.0
C1476 C 0.58859 0.93736 0.66794 0.0
C1477 C 0.51286 0.89566 0.65119 0.0
H1478 H 0.55951 0.91367 0.61181 0.0
C1479 C 0.43575 0.90009 0.59282 0.0
C1480 C 0.44614 0.92636 0.58222 0.0
C1481 C 0.45625 0.89276 0.606 0.0
C1482 C 0.54597 0.90878 0.62271 0.0
H1483 H 0.57499 0.87211 0.70214 0.0
H1484 H 0.55041 0.85838 0.67636 0.0
H1485 H 0.59403 0.91174 0.63578 0.0
H1486 H 0.48588 0.96599 0.57742 0.0
H1487 H 0.52062 0.95424 0.60048 0.0
H1488 H 0.46455 0.89484 0.6384 0.0
C1489 C 0.56541 0.88239 0.6779 0.0
C1490 C 0.56585 0.90737 0.63639 0.0
C1491 C 0.57961 0.89011 0.69257 0.0
C1492 C 0.47721 0.94532 0.58523 0.0
C1493 C 0.4974 0.93832 0.59843 0.0
C1494 C 0.49287 0.89753 0.63753 0.0
C1495 C 0.56918 0.90633 0.66554 0.0
C1496 C 0.54937 0.90165 0.65081 0.0
C1497 C 0.48744 0.91176 0.60895 0.0
C1498 C 0.50904 0.90513 0.62316 0.0
H1499 H 0.61323 0.97114 0.68462 0.0
H1500 H 0.59094 0.95677 0.65876 0.0
H1501 H 0.49943 0.89159 0.66219 0.0
H1502 H 0.41226 0.88464 0.59083 0.0
H1503 H 0.44785 0.87189 0.61375 0.0
C1504 C 0.63997 0.96541 0.99285 0.0
C1505 C 0.63703 0.93052 0.98752 0.0
C1506 C 0.60985 0.9849 0.99644 0.0
C1507 C 0.51462 0.98884 0.98806 0.0
H1508 H 0.51197 0.05031 0.02411 0.0
C1509 C 0.38702 0.05649 0.00929 0.0
C1510 C 0.38982 0.09139 0.01463 0.0
C1511 C 0.4172 0.03718 0.00562 0.0
C1512 C 0.51244 0.03358 0.01389 0.0
H1513 H 0.60006 0.88873 0.98202 0.0
H1514 H 0.54769 0.9226 0.98842 0.0
H1515 H 0.56464 0.01571 0.01887 0.0
H1516 H 0.42663 0.13337 0.02006 0.0
H1517 H 0.47912 0.09979 0.01354 0.0
H1518 H 0.4624 1.00669 0.98308 0.0
C1519 C 0.57324 0.93503 0.98963 0.0
C1520 C 0.54262 0.01373 0.0109 0.0
C1521 C 0.6033 0.91557 0.98603 0.0
C1522 C 0.42349 0.10653 0.01605 0.0
C1523 C 0.45362 0.08724 0.01237 0.0
C1524 C 0.48444 1.00868 0.99105 0.0
C1525 C 0.57613 0.97002 0.99473 0.0
C1526 C 0.54405 0.9911 0.99796 0.0
C1527 C 0.45085 0.05223 0.00726 0.0
C1528 C 0.483 0.03129 0.00399 0.0
H1529 H 0.66536 0.97822 0.99376 0.0
H1530 H 0.61296 0.01198 1.00013 0.0
H1531 H 0.51508 0.97211 0.97784 0.0
H1532 H 0.3617 0.04353 0.00844 0.0
H1533 H 0.4142 1.01009 0.00194 0.0
C1534 C 0.66578 0.67049 0.26427 0.0
C1535 C 0.681 0.63685 0.26357 0.0
C1536 C 0.68555 0.70044 0.26072 0.0
C1537 C 0.77709 0.73235 0.25923 0.0
H1538 H 0.73662 0.80978 0.23599 0.0
C1539 C 0.85933 0.85063 0.23768 0.0
C1540 C 0.84406 0.88424 0.23846 0.0
C1541 C 0.83961 0.82062 0.24119 0.0
C1542 C 0.74815 0.78858 0.24268 0.0
H1543 H 0.72942 0.60857 0.25865 0.0
H1544 H 0.76359 0.66077 0.25212 0.0
H1545 H 0.70193 0.75666 0.24039 0.0
H1546 H 0.79563 0.91242 0.24348 0.0
H1547 H 0.76156 0.86011 0.24994 0.0
H1548 H 0.82331 0.76427 0.26151 0.0
C1549 C 0.7363 0.6639 0.2555 0.0
C1550 C 0.7283 0.75809 0.24516 0.0
C1551 C 0.71648 0.63388 0.25902 0.0
C1552 C 0.8086 0.88713 0.24304 0.0
C1553 C 0.78884 0.85705 0.24652 0.0
C1554 C 0.79694 0.76283 0.25674 0.0
C1555 C 0.72114 0.69755 0.25646 0.0
C1556 C 0.74253 0.72963 0.25347 0.0
C1557 C 0.80404 0.82343 0.24549 0.0
C1558 C 0.78269 0.79131 0.24844 0.0
H1559 H 0.63855 0.67378 0.26774 0.0
H1560 H 0.67316 0.72596 0.26175 0.0
H1561 H 0.78861 0.71116 0.26592 0.0
H1562 H 0.88654 0.84742 0.23417 0.0
H1563 H 0.85203 0.79512 0.24011 0.0
C1564 C 0.88583 0.05992 0.49505 0.0
C1565 C 0.8888 0.09482 0.48974 0.0
C1566 C 0.91592 0.04057 0.49884 0.0
C1567 C 1.01127 0.03696 0.49076 0.0
H1568 H 0.01354 0.97491 0.52657 0.0
C1569 C 0.13864 0.96821 0.51149 0.0
C1570 C 0.13565 0.93325 0.51671 0.0
C1571 C 0.10855 0.98784 0.50802 0.0
C1572 C 0.01319 0.99181 0.51641 0.0
H1573 H 0.92579 0.13681 0.48459 0.0
H1574 H 0.97806 0.10318 0.49132 0.0
H1575 H 0.96091 1.0096 0.52137 0.0
H1576 H 0.09859 0.89152 0.52215 0.0
H1577 H 0.04627 0.92561 0.51596 0.0
H1578 H 0.06349 0.01913 0.48577 0.0
C1579 C 0.95253 0.09064 0.49234 0.0
C1580 C 0.98303 0.01171 0.51346 0.0
C1581 C 0.92251 0.10996 0.48856 0.0
C1582 C 0.10188 0.9184 0.51823 0.0
C1583 C 0.07185 0.93799 0.51475 0.0
C1584 C 0.04141 0.01705 0.49371 0.0
C1585 C 0.94963 0.05559 0.49735 0.0
C1586 C 0.98173 0.03454 0.5006 0.0
C1587 C 0.07479 0.97304 0.50974 0.0
C1588 C 0.04272 0.99421 0.50657 0.0
H1589 H 0.86048 0.04696 0.49575 0.0
H1590 H 0.91281 0.01345 0.50245 0.0
H1591 H 1.01091 0.05384 0.4806 0.0
H1592 H 0.16407 0.98094 0.51056 0.0
H1593 H 0.11172 0.01495 0.50441 0.0
C1594 C 0.71641 0.13577 0.74174 0.0
C1595 C 0.68148 0.13845 0.73641 0.0
C1596 C 0.73586 0.16599 0.74534 0.0
C1597 C 0.73955 0.2613 0.73712 0.0
H1598 H 0.80107 0.26399 0.77314 0.0
C1599 C 0.80688 0.38904 0.75878 0.0
C1600 C 0.8418 0.38641 0.76414 0.0
C1601 C 0.78766 0.35881 0.75496 0.0
C1602 C 0.78433 0.26351 0.76293 0.0
H1603 H 0.63962 0.1751 0.73088 0.0
H1604 H 0.67339 0.22763 0.7373 0.0
H1605 H 0.76662 0.21117 0.76778 0.0
H1606 H 0.88392 0.34986 0.76941 0.0
H1607 H 0.8505 0.29732 0.76264 0.0
H1608 H 0.75722 0.31369 0.73229 0.0
C1609 C 0.68589 0.20221 0.7385 0.0
C1610 C 0.76456 0.23324 0.75986 0.0
C1611 C 0.66648 0.17205 0.7349 0.0
C1612 C 0.85706 0.35287 0.76539 0.0
C1613 C 0.83786 0.32271 0.76158 0.0
C1614 C 0.7593 0.29158 0.74018 0.0
C1615 C 0.72091 0.19957 0.74363 0.0
C1616 C 0.74192 0.23178 0.74693 0.0
C1617 C 0.80282 0.32528 0.75648 0.0
C1618 C 0.78194 0.29304 0.75312 0.0
H1619 H 0.72927 0.1105 0.74267 0.0
H1620 H 0.76296 0.16307 0.74904 0.0
H1621 H 0.7228 0.26083 0.7269 0.0
H1622 H 0.79382 0.41424 0.75803 0.0
H1623 H 0.76054 0.36166 0.75128 0.0
C1624 C 0.21381 0.1363 0.75821 0.0
C1625 C 0.1786 0.13921 0.76316 0.0
C1626 C 0.23326 0.16632 0.75433 0.0
C1627 C 0.22432 0.26044 0.74393 0.0
H1628 H 0.32035 0.26686 0.75905 0.0
C1629 C 0.30387 0.38987 0.74158 0.0
C1630 C 0.33903 0.38735 0.73652 0.0
C1631 C 0.28446 0.35956 0.74502 0.0
C1632 C 0.29368 0.26533 0.75462 0.0
H1633 H 0.13626 0.17604 0.76769 0.0
H1634 H 0.17027 0.22824 0.76112 0.0
H1635 H 0.28611 0.21365 0.76389 0.0
H1636 H 0.38131 0.35095 0.73126 0.0
H1637 H 0.34739 0.29821 0.73717 0.0
H1638 H 0.23187 0.31221 0.73473 0.0
C1639 C 0.1827 0.20275 0.76002 0.0
C1640 C 0.27409 0.2348 0.75736 0.0
C1641 C 0.16327 0.1728 0.7639 0.0
C1642 C 0.35433 0.35386 0.73515 0.0
C1643 C 0.33497 0.32361 0.73864 0.0
C1644 C 0.2439 0.29099 0.74122 0.0
C1645 C 0.21804 0.19992 0.75535 0.0
C1646 C 0.23916 0.23201 0.75206 0.0
C1647 C 0.29972 0.32609 0.74348 0.0
C1648 C 0.27878 0.29379 0.74655 0.0
H1649 H 0.22688 0.11107 0.75779 0.0
H1650 H 0.26035 0.16322 0.75063 0.0
H1651 H 0.19765 0.25895 0.73951 0.0
H1652 H 0.29088 0.41509 0.74246 0.0
H1653 H 0.25742 0.36234 0.74884 0.0
C1654 C 0.16879 0.67055 0.23461 0.0
C1655 C 0.18371 0.63685 0.23582 0.0
C1656 C 0.18838 0.70049 0.23835 0.0
C1657 C 0.26729 0.73062 0.2597 0.0
H1658 H 0.25994 0.81184 0.23257 0.0
C1659 C 0.35935 0.85042 0.26604 0.0
C1660 C 0.34398 0.88392 0.2649 0.0
C1661 C 0.34031 0.82028 0.26205 0.0
C1662 C 0.26202 0.78952 0.24034 0.0
H1663 H 0.2315 0.60849 0.24171 0.0
H1664 H 0.26549 0.66072 0.24834 0.0
H1665 H 0.22552 0.75914 0.2269 0.0
H1666 H 0.29598 0.91173 0.25882 0.0
H1667 H 0.26295 0.85919 0.25178 0.0
H1668 H 0.30373 0.76101 0.27316 0.0
C1669 C 0.23834 0.66386 0.24475 0.0
C1670 C 0.24228 0.75932 0.2371 0.0
C1671 C 0.21872 0.63384 0.24101 0.0
C1672 C 0.30911 0.88655 0.25949 0.0
C1673 C 0.29004 0.85635 0.2555 0.0
C1674 C 0.28702 0.76082 0.26294 0.0
C1675 C 0.22348 0.69754 0.24333 0.0
C1676 C 0.24463 0.72955 0.24676 0.0
C1677 C 0.30531 0.82284 0.25688 0.0
C1678 C 0.2846 0.79063 0.25331 0.0
H1679 H 0.14186 0.67385 0.23073 0.0
H1680 H 0.17596 0.72601 0.23737 0.0
H1681 H 0.26933 0.70832 0.26749 0.0
H1682 H 0.38619 0.84741 0.27009 0.0
H1683 H 0.35304 0.79491 0.26301 0.0
C1684 C 0.88522 0.55668 0.51083 0.0
C1685 C 0.88836 0.59196 0.5156 0.0
C1686 C 0.91524 0.53671 0.50761 0.0
C1687 C 1.01055 0.53296 0.51604 0.0
H1688 H 0.01282 0.46889 0.48089 0.0
C1689 C 0.13795 0.46419 0.49512 0.0
C1690 C 0.13509 0.42905 0.49011 0.0
C1691 C 0.10781 0.48354 0.49884 0.0
C1692 C 0.01246 0.48634 0.49087 0.0
H1693 H 0.92558 0.63391 0.52051 0.0
H1694 H 0.97775 0.59921 0.51474 0.0
H1695 H 0.96024 0.50389 0.48571 0.0
H1696 H 0.09828 0.3866 0.48544 0.0
H1697 H 0.04591 0.42025 0.49205 0.0
H1698 H 0.06283 0.51547 0.52116 0.0
C1699 C 0.95213 0.58685 0.51369 0.0
C1700 C 0.98232 0.50642 0.49362 0.0
C1701 C 0.92218 0.60679 0.51693 0.0
C1702 C 0.10145 0.41364 0.48918 0.0
C1703 C 0.07139 0.43297 0.4929 0.0
C1704 C 0.0407 0.51288 0.51328 0.0
C1705 C 0.94905 0.55149 0.50913 0.0
C1706 C 0.98103 0.53001 0.50622 0.0
C1707 C 0.07416 0.46828 0.49757 0.0
C1708 C 0.04201 0.48935 0.50066 0.0
H1709 H 0.85974 0.544 0.51006 0.0
H1710 H 0.91197 0.50938 0.50434 0.0
H1711 H 1.0102 0.55045 0.526 0.0
H1712 H 0.16323 0.47732 0.49561 0.0
H1713 H 0.11081 0.51085 0.5022 0.0
C1714 C 0.63342 0.44715 0.00136 0.0
C1715 C 0.63627 0.43116 0.01609 0.0
C1716 C 0.60349 0.46665 0.99746 0.0
C1717 C 0.51005 0.47873 0.0084 0.0
H1718 H 0.51936 0.56687 0.98609 0.0
C1719 C 0.39289 0.57355 0.99945 0.0
C1720 C 0.3898 0.58951 0.98472 0.0
C1721 C 0.42293 0.55415 0.00328 0.0
C1722 C 0.51627 0.54212 0.99218 0.0
H1723 H 0.60974 0.42343 0.03825 0.0
H1724 H 0.55792 0.45748 0.03147 0.0
H1725 H 0.57191 0.53317 0.99255 0.0
H1726 H 0.41609 0.59745 0.96252 0.0
H1727 H 0.46814 0.56359 0.96918 0.0
H1728 H 0.45443 0.48767 0.00804 0.0
C1729 C 0.57859 0.45459 0.02287 0.0
C1730 C 0.5464 0.5228 0.99587 0.0
C1731 C 0.60842 0.43513 0.02676 0.0
C1732 C 0.41758 0.58572 0.974 0.0
C1733 C 0.44754 0.56637 0.97783 0.0
C1734 C 0.47993 0.49804 0.00471 0.0
C1735 C 0.57568 0.47051 0.00816 0.0
C1736 C 0.54365 0.49089 0.00404 0.0
C1737 C 0.45063 0.5504 0.99252 0.0
C1738 C 0.48268 0.52997 0.99656 0.0
H1739 H 0.65385 0.44405 0.99267 0.0
H1740 H 0.60182 0.47815 0.98594 0.0
H1741 H 0.50696 0.45397 0.01449 0.0
H1742 H 0.37256 0.57655 0.00818 0.0
H1743 H 0.42475 0.54265 0.01479 0.0
C1744 C 0.19237 0.72131 0.00247 0.0
C1745 C 0.21928 0.70365 0.99437 0.0
C1746 C 0.19738 0.7556 0.00809 0.0
C1747 C 0.25909 0.82696 0.01782 0.0
H1748 H 0.19018 0.88774 0.99816 0.0
C1749 C 0.23694 0.97555 0.03349 0.0
C1750 C 0.23502 0.99935 0.02093 0.0
C1751 C 0.2384 0.93908 0.03092 0.0
C1752 C 0.20968 0.8712 0.00371 0.0
H1753 H 0.27373 0.70757 0.98715 0.0
H1754 H 0.28317 0.76668 0.99776 0.0
H1755 H 0.18677 0.82402 0.9944 0.0
H1756 H 0.23327 1.00299 0.99575 0.0
H1757 H 0.23449 0.93919 0.99129 0.0
H1758 H 0.28139 0.87435 0.02747 0.0
C1759 C 0.25793 0.75399 0.99955 0.0
C1760 C 0.20757 0.83463 0.00166 0.0
C1761 C 0.25269 0.71971 0.99369 0.0
C1762 C 0.23483 0.98555 0.0057 0.0
C1763 C 0.2354 0.94897 0.00314 0.0
C1764 C 0.26068 0.86362 0.0202 0.0
C1765 C 0.22969 0.77306 0.00599 0.0
C1766 C 0.23222 0.81197 0.00866 0.0
C1767 C 0.23712 0.92523 0.01573 0.0
C1768 C 0.23606 0.88623 0.0131 0.0
H1769 H 0.1661 0.71015 0.00289 0.0
H1770 H 0.17519 0.76934 0.01316 0.0
H1771 H 0.27852 0.81029 0.02332 0.0
H1772 H 0.2373 0.98513 0.04538 0.0
H1773 H 0.2395 0.92161 0.04088 0.0
C1774 C 0.05432 0.49981 0.24169 0.0
C1775 C 0.06983 0.46631 0.24237 0.0
C1776 C 0.02036 0.50565 0.24778 0.0
C1777 C 0.94644 0.46258 0.27065 0.0
H1778 H 0.88743 0.52123 0.24465 0.0
C1779 C 0.79756 0.47865 0.28423 0.0
C1780 C 0.77357 0.48251 0.27183 0.0
C1781 C 0.83406 0.47999 0.28171 0.0
C1782 C 0.90329 0.50442 0.25199 0.0
H1783 H 0.06236 0.41331 0.25081 0.0
H1784 H 1.00411 0.42318 0.26153 0.0
H1785 H 0.95036 0.51809 0.2396 0.0
H1786 H 0.76982 0.49111 0.24694 0.0
H1787 H 0.83339 0.49233 0.24241 0.0
H1788 H 0.89928 0.44732 0.28248 0.0
C1789 C 0.01787 0.44542 0.25653 0.0
C1790 C 0.93983 0.50311 0.24926 0.0
C1791 C 0.05175 0.43974 0.2505 0.0
C1792 C 0.78736 0.48818 0.2568 0.0
C1793 C 0.82404 0.48907 0.25423 0.0
C1794 C 0.90993 0.46361 0.27328 0.0
C1795 C 1.0008 0.47803 0.25462 0.0
C1796 C 0.96211 0.48192 0.25845 0.0
C1797 C 0.84813 0.48473 0.26664 0.0
C1798 C 0.88753 0.48439 0.26395 0.0
H1799 H 0.0668 0.52066 0.23515 0.0
H1800 H 1.00877 0.53143 0.24638 0.0
H1801 H 0.96234 0.44624 0.27818 0.0
H1802 H 0.78813 0.47465 0.29601 0.0
H1803 H 0.85122 0.47746 0.29171 0.0
C1804 C 0.29692 0.04608 0.53517 0.0
C1805 C 0.29253 0.02268 0.52258 0.0
C1806 C 0.29543 0.08264 0.533 0.0
C1807 C 0.26927 0.15265 0.50408 0.0
H1808 H 0.32804 0.21142 0.53031 0.0
C1809 C 0.27289 0.30347 0.49444 0.0
C1810 C 0.30643 0.31917 0.49492 0.0
C1811 C 0.2673 0.26953 0.50055 0.0
C1812 C 0.31153 0.1956 0.52277 0.0
H1813 H 0.28293 0.02 0.49773 0.0
H1814 H 0.28155 0.08361 0.49379 0.0
H1815 H 0.32758 0.14826 0.53414 0.0
H1816 H 0.35972 0.31216 0.50313 0.0
H1817 H 0.35029 0.25392 0.51385 0.0
H1818 H 0.25483 0.19988 0.49212 0.0
C1819 C 0.28529 0.07378 0.50551 0.0
C1820 C 0.31085 0.15903 0.52513 0.0
C1821 C 0.28632 0.03708 0.50773 0.0
C1822 C 0.33327 0.30139 0.50296 0.0
C1823 C 0.32784 0.2675 0.50898 0.0
C1824 C 0.27023 0.18923 0.50162 0.0
C1825 C 0.29 0.09731 0.51811 0.0
C1826 C 0.2899 0.13675 0.51577 0.0
C1827 C 0.29522 0.25017 0.50719 0.0
C1828 C 0.29164 0.21142 0.51082 0.0
H1829 H 0.30133 0.03616 0.54683 0.0
H1830 H 0.29831 0.09935 0.54314 0.0
H1831 H 0.25227 0.13689 0.49674 0.0
H1832 H 0.25182 0.31572 0.48799 0.0
H1833 H 0.24148 0.25776 0.49926 0.0
C1834 C 0.46566 0.57249 0.7569 0.0
C1835 C 0.45279 0.55117 0.74479 0.0
C1836 C 0.49962 0.56732 0.763 0.0
C1837 C 0.58061 0.50926 0.76042 0.0
H1838 H 0.62888 0.59776 0.76747 0.0
C1839 C 0.73445 0.52355 0.76053 0.0
C1840 C 0.74928 0.54541 0.77206 0.0
C1841 C 0.69768 0.5218 0.75843 0.0
C1842 C 0.61586 0.5727 0.7657 0.0
H1843 H 0.46521 0.50653 0.7302 0.0
H1844 H 0.52367 0.49722 0.7407 0.0
H1845 H 0.56571 0.59737 0.76318 0.0
H1846 H 0.73646 0.58259 0.79041 0.0
H1847 H 0.67304 0.57978 0.78666 0.0
H1848 H 0.63148 0.48494 0.76244 0.0
C1849 C 0.50764 0.51762 0.74587 0.0
C1850 C 0.5793 0.57239 0.76334 0.0
C1851 C 0.47354 0.52259 0.73994 0.0
C1852 C 0.72626 0.56547 0.78138 0.0
C1853 C 0.6897 0.564 0.77918 0.0
C1854 C 0.61735 0.50964 0.76263 0.0
C1855 C 0.52202 0.5411 0.7569 0.0
C1856 C 0.5609 0.5407 0.76062 0.0
C1857 C 0.67476 0.54219 0.76769 0.0
C1858 C 0.63554 0.5414 0.76529 0.0
H1859 H 0.4509 0.59538 0.76059 0.0
H1860 H 0.50903 0.58539 0.77182 0.0
H1861 H 0.56772 0.48419 0.75858 0.0
H1862 H 0.75122 0.50762 0.75316 0.0
H1863 H 0.68722 0.5049 0.74938 0.0
C1864 C 0.79144 0.04441 0.96915 0.0
C1865 C 0.79285 0.02076 0.98179 0.0
C1866 C 0.79002 0.08092 0.97162 0.0
C1867 C 0.81764 0.14915 0.99896 0.0
H1868 H 0.75013 0.20989 0.97836 0.0
C1869 C 0.83533 0.29896 1.00001 0.0
C1870 C 0.80786 0.31695 0.00758 0.0
C1871 C 0.8306 0.26457 0.99447 0.0
C1872 C 0.76918 0.19327 0.98415 0.0
H1873 H 0.79375 0.01744 0.00698 0.0
H1874 H 0.79259 0.08131 0.01127 0.0
H1875 H 0.74734 0.14578 0.9744 0.0
H1876 H 0.75281 0.31353 0.01389 0.0
H1877 H 0.74394 0.25419 0.00341 0.0
H1878 H 0.84009 0.19642 0.00839 0.0
C1879 C 0.79207 0.07138 0.99943 0.0
C1880 C 0.76765 0.15658 0.98187 0.0
C1881 C 0.79261 0.03476 0.99698 0.0
C1882 C 0.77432 0.3011 0.00777 0.0
C1883 C 0.76939 0.2667 0.00198 0.0
C1884 C 0.8197 0.18575 1.00092 0.0
C1885 C 0.79081 0.09496 0.98678 0.0
C1886 C 0.79179 0.13401 0.98931 0.0
C1887 C 0.79805 0.24731 0.99611 0.0
C1888 C 0.79554 0.20835 0.99356 0.0
H1889 H 0.7914 0.03468 0.95729 0.0
H1890 H 0.78929 0.09825 0.96161 0.0
H1891 H 0.83677 0.13266 0.00478 0.0
H1892 H 0.86169 0.30995 0.99999 0.0
H1893 H 0.85313 0.2506 0.98983 0.0
C1894 C 0.22568 0.54934 0.71781 0.0
C1895 C 0.24881 0.54546 0.73051 0.0
C1896 C 0.18908 0.54723 0.71982 0.0
C1897 C 0.11866 0.52069 0.74864 0.0
H1898 H 0.05975 0.57724 0.7217 0.0
C1899 C 0.96789 0.52354 0.75837 0.0
C1900 C 0.95215 0.55689 0.75749 0.0
C1901 C 1.00176 0.51774 0.75221 0.0
C1902 C 0.0756 0.56137 0.72945 0.0
H1903 H 0.25105 0.53617 0.75539 0.0
H1904 H 0.18731 0.53395 0.75907 0.0
H1905 H 0.123 0.57768 0.7181 0.0
H1906 H 0.95877 0.60948 0.74844 0.0
H1907 H 0.01692 0.59976 0.73768 0.0
H1908 H 0.07136 0.50621 0.76062 0.0
C1909 C 0.19737 0.53765 0.74739 0.0
C1910 C 0.11225 0.56118 0.72722 0.0
C1911 C 0.23414 0.53919 0.74532 0.0
C1912 C 0.96964 0.58318 0.74895 0.0
C1913 C 1.00348 0.57759 0.7429 0.0
C1914 C 0.08201 0.52126 0.75101 0.0
C1915 C 0.1741 0.54177 0.73467 0.0
C1916 C 0.13458 0.54105 0.73684 0.0
C1917 C 0.02096 0.54531 0.74513 0.0
C1918 C 0.05977 0.54189 0.74155 0.0
H1919 H 0.23589 0.55371 0.70618 0.0
H1920 H 0.17259 0.54963 0.7096 0.0
H1921 H 0.13445 0.50426 0.75617 0.0
H1922 H 0.95579 0.50294 0.76521 0.0
H1923 H 0.01363 0.49216 0.75383 0.0
C1924 C 0.73749 0.97866 0.46838 0.0
C1925 C 0.73507 1.00223 0.48103 0.0
C1926 C 0.73888 0.94216 0.47082 0.0
C1927 C 0.70926 0.87393 0.49767 0.0
H1928 H 0.778 0.81309 0.47786 0.0
C1929 C 0.6911 0.72427 0.4984 0.0
C1930 C 0.718 0.7063 0.50634 0.0
C1931 C 0.69631 0.75859 0.49288 0.0
C1932 C 0.7586 0.82975 0.48343 0.0
H1933 H 0.7324 1.00549 0.5062 0.0
H1934 H 0.73357 0.94161 0.51042 0.0
H1935 H 0.78126 0.87722 0.47405 0.0
H1936 H 0.77262 0.70956 0.51333 0.0
H1937 H 0.78238 0.76879 0.50292 0.0
H1938 H 0.68603 0.82668 0.50672 0.0
C1939 C 0.7349 0.95158 0.49861 0.0
C1940 C 0.76041 0.86644 0.48123 0.0
C1941 C 0.73437 0.9882 0.4962 0.0
C1942 C 0.75158 0.72201 0.50692 0.0
C1943 C 0.757 0.75634 0.50117 0.0
C1944 C 0.70696 0.83733 0.49954 0.0
C1945 C 0.73706 0.92806 0.48594 0.0
C1946 C 0.73583 0.88902 0.4884 0.0
C1947 C 0.72879 0.77576 0.49493 0.0
C1948 C 0.73155 0.8147 0.49246 0.0
H1949 H 0.73822 0.98845 0.45654 0.0
H1950 H 0.74032 0.92486 0.4608 0.0
H1951 H 0.68978 0.89044 0.50326 0.0
H1952 H 0.66473 0.71334 0.49806 0.0
H1953 H 0.67414 0.77259 0.48795 0.0
C1954 C 0.55429 0.49741 0.25798 0.0
C1955 C 0.56934 0.46364 0.25869 0.0
C1956 C 0.52009 0.50225 0.25193 0.0
C1957 C 0.43764 0.45329 0.2513 0.0
H1958 H 0.40073 0.52364 0.22307 0.0
C1959 C 0.28726 0.4818 0.2452 0.0
C1960 C 0.27413 0.4808 0.22986 0.0
C1961 C 0.32379 0.48206 0.24805 0.0
C1962 C 0.41066 0.5039 0.23101 0.0
H1963 H 0.56108 0.40913 0.25245 0.0
H1964 H 0.50212 0.41752 0.24184 0.0
H1965 H 0.46461 0.52014 0.22774 0.0
H1966 H 0.28953 0.48057 0.20552 0.0
H1967 H 0.35294 0.48216 0.21052 0.0
H1968 H 0.38392 0.43748 0.25489 0.0
C1969 C 0.51654 0.4403 0.24599 0.0
C1970 C 0.44723 0.50197 0.23371 0.0
C1971 C 0.55071 0.43562 0.25179 0.0
C1972 C 0.29857 0.48117 0.21749 0.0
C1973 C 0.335 0.48228 0.22034 0.0
C1974 C 0.40116 0.45576 0.24891 0.0
C1975 C 0.50007 0.47331 0.24669 0.0
C1976 C 0.46123 0.47631 0.24374 0.0
C1977 C 0.34817 0.48223 0.23566 0.0
C1978 C 0.38711 0.48088 0.23864 0.0
H1979 H 0.56719 0.51943 0.26353 0.0
H1980 H 0.50822 0.52808 0.25263 0.0
H1981 H 0.44744 0.43347 0.25924 0.0
H1982 H 0.26933 0.48145 0.25502 0.0
H1983 H 0.333 0.48215 0.26 0.0
C1984 C 0.72698 0.47971 0.53367 0.0
C1985 C 0.73142 0.5029 0.52102 0.0
C1986 C 0.72846 0.44314 0.53161 0.0
C1987 C 0.75446 0.37245 0.50294 0.0
H1988 H 0.69574 0.31449 0.52951 0.0
C1989 C 0.75072 0.22126 0.49415 0.0
C1990 C 0.71718 0.20561 0.49478 0.0
C1991 C 0.75636 0.25543 0.50002 0.0
C1992 C 0.71223 0.33007 0.52188 0.0
H1993 H 0.74113 0.50515 0.49617 0.0
H1994 H 0.74246 0.44142 0.49242 0.0
H1995 H 0.69622 0.37771 0.53302 0.0
H1996 H 0.66392 0.21294 0.50299 0.0
H1997 H 0.67341 0.27156 0.51332 0.0
H1998 H 0.76884 0.32486 0.4912 0.0
C1999 C 0.73868 0.45148 0.5041 0.0
C2000 C 0.71292 0.3667 0.52405 0.0
C2001 C 0.73769 0.48824 0.50621 0.0
C2002 C 0.69038 0.2237 0.50273 0.0
C2003 C 0.69584 0.2578 0.50851 0.0
C2004 C 0.75347 0.3358 0.50065 0.0
C2005 C 0.73389 0.42819 0.51677 0.0
C2006 C 0.73389 0.3887 0.51457 0.0
C2007 C 0.72847 0.27503 0.50657 0.0
C2008 C 0.73208 0.3139 0.50999 0.0
H2009 H 0.72255 0.48983 0.54531 0.0
H2010 H 0.72556 0.42663 0.5418 0.0
H2011 H 0.77146 0.388 0.4955 0.0
H2012 H 0.77175 0.20874 0.48776 0.0
H2013 H 0.78217 0.26715 0.49862 0.0
C2014 C 0.5511 0.94351 0.75429 0.0
C2015 C 0.56871 0.96919 0.74544 0.0
C2016 C 0.5173 0.94962 0.76029 0.0
C2017 C 0.43885 1.00594 0.75178 0.0
H2018 H 0.39827 0.95178 0.78551 0.0
C2019 C 0.28657 0.98936 0.75851 0.0
C2020 C 0.27233 0.98361 0.77344 0.0
C2021 C 0.3233 0.99082 0.75622 0.0
C2022 C 0.4089 0.96767 0.77616 0.0
H2023 H 0.56524 0.0226 0.73702 0.0
H2024 H 0.50743 0.03434 0.74828 0.0
H2025 H 0.46139 0.95153 0.78162 0.0
H2026 H 0.28596 0.97636 0.79775 0.0
H2027 H 0.34915 0.98043 0.79396 0.0
H2028 H 0.38639 0.02305 0.74667 0.0
C2029 C 0.5192 1.00882 0.75022 0.0
C2030 C 0.44548 0.96706 0.77376 0.0
C2031 C 0.55305 1.0025 0.74411 0.0
C2032 C 0.29583 0.98035 0.78603 0.0
C2033 C 0.33238 0.98241 0.78381 0.0
C2034 C 0.40225 1.00694 0.75432 0.0
C2035 C 0.49993 0.98183 0.75769 0.0
C2036 C 0.46118 0.9857 0.76136 0.0
C2037 C 0.34696 0.98715 0.76883 0.0
C2038 C 0.38645 0.98743 0.76643 0.0
H2039 H 0.56189 0.91721 0.75514 0.0
H2040 H 0.50381 0.92784 0.7658 0.0
H2041 H 0.44938 0.02035 0.74195 0.0
H2042 H 0.26936 0.99183 0.74851 0.0
H2043 H 0.33302 0.99399 0.74445 0.0
C2044 C 0.79475 0.54383 0.03506 0.0
C2045 C 0.79154 0.52052 0.02237 0.0
C2046 C 0.79314 0.58038 0.03294 0.0
C2047 C 0.76915 0.65064 0.00375 0.0
H2048 H 0.82554 0.70917 0.03109 0.0
C2049 C 0.77351 0.80166 0.99456 0.0
C2050 C 0.80701 0.81729 0.99565 0.0
C2051 C 0.76739 0.76762 1.00046 0.0
C2052 C 0.80971 0.69342 0.02323 0.0
H2053 H 0.78384 0.51797 0.99739 0.0
H2054 H 0.78227 0.58164 0.99355 0.0
H2055 H 0.8249 0.64599 0.03474 0.0
H2056 H 0.85955 0.81016 0.00471 0.0
H2057 H 0.8492 0.75177 0.0151 0.0
H2058 H 0.75567 0.69801 0.99167 0.0
C2059 C 0.78517 0.57172 0.00529 0.0
C2060 C 0.80891 0.65683 0.02549 0.0
C2061 C 0.78629 0.53499 0.00746 0.0
C2062 C 0.83314 0.79939 0.00407 0.0
C2063 C 0.82718 0.76543 0.0099 0.0
C2064 C 0.77026 0.68726 0.00139 0.0
C2065 C 0.7888 0.59516 0.018 0.0
C2066 C 0.7888 0.63463 0.01574 0.0
C2067 C 0.79472 0.74816 0.00752 0.0
C2068 C 0.79084 0.70936 0.011 0.0
H2069 H 0.79838 0.53383 0.04677 0.0
H2070 H 0.79511 0.59701 0.04314 0.0
H2071 H 0.75282 0.63494 0.99609 0.0
H2072 H 0.75303 0.81409 0.9878 0.0
H2073 H 0.7417 0.75588 0.99871 0.0
C2074 C 0.23789 0.03852 0.25657 0.0
C2075 C 0.25122 0.03898 0.27188 0.0
C2076 C 0.20133 0.03823 0.25382 0.0
C2077 C 0.11476 0.01545 0.27089 0.0
H2078 H 0.07742 0.08722 0.24348 0.0
C2079 C 0.97089 0.02297 0.24427 0.0
C2080 C 0.95573 0.05672 0.24394 0.0
C2081 C 1.00513 0.01791 0.25023 0.0
C2082 C 0.08738 0.06703 0.2512 0.0
H2083 H 0.23617 0.03818 0.29626 0.0
H2084 H 0.1727 0.0365 0.29142 0.0
H2085 H 0.14102 0.08311 0.2476 0.0
H2086 H 0.96382 0.11089 0.25077 0.0
H2087 H 0.02287 0.10211 0.26123 0.0
H2088 H 0.06089 0.99894 0.27416 0.0
C2089 C 0.1905 0.03684 0.28156 0.0
C2090 C 0.1239 0.0645 0.25345 0.0
C2091 C 0.22696 0.03799 0.28432 0.0
C2092 C 0.97427 0.0844 0.25113 0.0
C2093 C 1.00849 0.07952 0.25685 0.0
C2094 C 0.07815 0.01745 0.26833 0.0
C2095 C 0.17712 0.03748 0.26628 0.0
C2096 C 0.13814 0.03889 0.26342 0.0
C2097 C 0.02507 0.04661 0.25576 0.0
C2098 C 0.06395 0.04359 0.25859 0.0
H2099 H 0.25569 0.03938 0.24671 0.0
H2100 H 0.19194 0.03861 0.2419 0.0
H2101 H 0.12484 0.99534 0.27861 0.0
H2102 H 0.95807 1.00123 0.23847 0.0
H2103 H 0.01709 0.99217 0.24924 0.0
C2104 C 0.33104 0.80145 0.49905 0.0
C2105 C 0.30507 0.81917 0.50767 0.0
C2106 C 0.32507 0.76752 0.49316 0.0
C2107 C 0.26854 0.68907 0.50175 0.0
H2108 H 0.32279 0.6482 0.46813 0.0
C2109 C 0.28474 0.53688 0.49531 0.0
C2110 C 0.28996 0.52249 0.48037 0.0
C2111 C 0.28356 0.57359 0.49755 0.0
C2112 C 0.30691 0.65892 0.47746 0.0
H2113 H 0.25132 0.81568 0.51582 0.0
H2114 H 0.23991 0.75755 0.50479 0.0
H2115 H 0.3233 0.71134 0.47192 0.0
H2116 H 0.2967 0.53599 0.456 0.0
H2117 H 0.29328 0.59912 0.45974 0.0
H2118 H 0.25129 0.63667 0.50699 0.0
C2119 C 0.26551 0.7694 0.50293 0.0
C2120 C 0.30764 0.6955 0.47979 0.0
C2121 C 0.27167 0.8034 0.50889 0.0
C2122 C 0.29308 0.5459 0.46772 0.0
C2123 C 0.29139 0.58244 0.46992 0.0
C2124 C 0.26748 0.65247 0.49931 0.0
C2125 C 0.29274 0.7501 0.49568 0.0
C2126 C 0.2889 0.7113 0.49213 0.0
C2127 C 0.28708 0.59712 0.48489 0.0
C2128 C 0.287 0.63658 0.48723 0.0
H2129 H 0.3574 0.81232 0.49829 0.0
H2130 H 0.347 0.75401 0.48781 0.0
H2131 H 0.25406 0.6997 0.51154 0.0
H2132 H 0.28239 0.51979 0.50535 0.0
H2133 H 0.2807 0.58342 0.50932 0.0
C2134 C 0.73767 0.03356 0.24551 0.0
C2135 C 0.75165 0.03943 0.23053 0.0
C2136 C 0.70096 0.03261 0.24797 0.0
C2137 C 0.61528 0.05802 0.2287 0.0
H2138 H 0.57449 1.00342 0.26225 0.0
C2139 C 0.47315 0.08167 0.25107 0.0
C2140 C 0.45506 0.05515 0.25923 0.0
C2141 C 0.50708 0.07599 0.24511 0.0
C2142 C 0.58512 0.01843 0.25262 0.0
H2143 H 0.73742 0.04755 0.20633 0.0
H2144 H 0.67429 0.04457 0.21045 0.0
H2145 H 0.63748 1.00041 0.25738 0.0
H2146 H 0.45809 1.00087 0.26654 0.0
H2147 H 0.5162 0.99006 0.25541 0.0
H2148 H 0.56291 0.07525 0.22363 0.0
C2149 C 0.6913 0.04197 0.22049 0.0
C2150 C 0.6217 0.0172 0.24999 0.0
C2151 C 0.72783 0.04341 0.21808 0.0
C2152 C 0.47058 0.02167 0.25997 0.0
C2153 C 0.5046 0.01582 0.25394 0.0
C2154 C 0.57873 0.05896 0.23122 0.0
C2155 C 0.67703 0.03705 0.23551 0.0
C2156 C 0.63759 0.03729 0.23808 0.0
C2157 C 0.52418 0.04342 0.2471 0.0
C2158 C 0.56293 0.03958 0.24337 0.0
H2159 H 0.75508 0.03053 0.25541 0.0
H2160 H 0.69145 0.02921 0.25977 0.0
H2161 H 0.62602 0.07437 0.21953 0.0
H2162 H 0.46251 0.10809 0.2507 0.0
H2163 H 0.52085 0.09821 0.24009 0.0
C2164 C 0.21017 0.47664 0.9713 0.0
C2165 C 0.23037 0.49996 0.98046 0.0
C2166 C 0.21141 0.44019 0.97374 0.0
C2167 C 0.26541 0.36846 0.99089 0.0
H2168 H 0.17754 0.31651 0.99013 0.0
C2169 C 0.25212 0.22498 0.01393 0.0
C2170 C 0.22403 0.20371 0.00883 0.0
C2171 C 0.25692 0.25915 0.00807 0.0
C2172 C 0.20256 0.33019 0.99005 0.0
H2173 H 0.26813 0.50245 0.99937 0.0
H2174 H 0.27043 0.43867 0.00357 0.0
H2175 H 0.17734 0.3795 0.98552 0.0
H2176 H 0.18018 0.20129 0.99284 0.0
H2177 H 0.18979 0.25967 0.98178 0.0
H2178 H 0.2907 0.31911 0.99534 0.0
C2179 C 0.25362 0.44881 0.99444 0.0
C2180 C 0.20237 0.36666 0.98749 0.0
C2181 C 0.25211 0.48548 0.9921 0.0
C2182 C 0.20277 0.21642 0.99669 0.0
C2183 C 0.20774 0.25049 0.99068 0.0
C2184 C 0.26567 0.33183 0.9933 0.0
C2185 C 0.2331 0.42561 0.98533 0.0
C2186 C 0.23372 0.38647 0.98797 0.0
C2187 C 0.23368 0.2732 0.99689 0.0
C2188 C 0.23418 0.31199 0.99303 0.0
H2189 H 0.1931 0.48655 0.96221 0.0
H2190 H 0.19554 0.42334 0.96636 0.0
H2191 H 0.29016 0.38265 0.99113 0.0
H2192 H 0.26803 0.21687 0.02374 0.0
H2193 H 0.27705 0.27544 0.01335 0.0
C2194 C 0.79527 0.95901 0.72175 0.0
C2195 C 0.77187 0.97854 0.73111 0.0
C2196 C 0.83178 0.96061 0.72416 0.0
C2197 C 0.903 0.01493 0.74191 0.0
H2198 H 0.95631 0.92825 0.74024 0.0
C2199 C 0.04495 1.00235 0.7664 0.0
C2200 C 0.06724 0.97545 0.76101 0.0
C2201 C 1.01116 1.00695 0.76013 0.0
C2202 C 0.94221 0.95295 0.74042 0.0
H2203 H 0.76923 0.01544 0.75034 0.0
H2204 H 0.83302 0.0183 0.75451 0.0
H2205 H 0.89328 0.92715 0.73534 0.0
H2206 H 0.07188 0.93353 0.74415 0.0
H2207 H 0.01379 0.94264 0.73254 0.0
H2208 H 0.95192 0.04078 0.74697 0.0
C2209 C 0.82296 1.00177 0.74523 0.0
C2210 C 0.90576 0.95224 0.73769 0.0
C2211 C 0.78628 0.99994 0.74292 0.0
C2212 C 0.0559 0.95521 0.74825 0.0
C2213 C 0.02206 0.95989 0.74189 0.0
C2214 C 0.93958 0.0157 0.74451 0.0
C2215 C 0.84629 0.98199 0.73592 0.0
C2216 C 0.88546 0.98314 0.73853 0.0
C2217 C 0.9984 0.98462 0.74829 0.0
C2218 C 0.95984 0.98465 0.74398 0.0
H2219 H 0.7854 0.94226 0.71251 0.0
H2220 H 0.84874 0.9453 0.71661 0.0
H2221 H 0.88847 0.03937 0.74242 0.0
H2222 H 0.05193 0.0173 0.77668 0.0
H2223 H 0.99405 0.02606 0.7656 0.0
loop_
_geom_bond_atom_site_label_1
_geom_bond_atom_site_label_2
_geom_bond_distance
_geom_bond_site_symmetry_2
_ccdc_geom_bond_type
Zn0 N4 2.020 . S
Zn0 O8 2.019 . S
Zn0 N10 2.119 . S
Zn0 O18 1.975 1_545 S
C1 N2 1.334 . S
C1 N5 1.336 . S
N2 C1 1.334 . S
N2 C3 1.334 . S
C3 N2 1.334 . S
C3 N4 1.336 . S
N4 Zn0 2.020 . S
N4 C3 1.336 . S
N4 N5 1.354 . S
N5 C1 1.336 . S
N5 N4 1.354 . S
N5 Zn9 2.020 . S
C6 O7 1.280 . S
C6 O30 1.273 . S
O7 C6 1.280 . S
O8 Zn0 2.019 . S
O8 C28 1.257 . S
Zn9 N5 2.020 . S
Zn9 O16 1.975 . S
Zn9 N25 2.119 . S
Zn9 O30 2.019 . S
N10 Zn0 2.119 . S
N10 C12 1.334 . S
N10 C13 1.328 . S
C11 C12 1.391 . S
C11 N14 1.329 . S
C11 H32 0.930 . S
C12 N10 1.334 . S
C12 C11 1.391 . S
C12 H19 0.930 . S
C13 N10 1.328 . S
C13 C15 1.392 . S
C13 H20 0.930 . S
N14 C11 1.329 . S
N14 C15 1.331 . S
C15 C13 1.392 . S
C15 N14 1.331 . S
O16 Zn9 1.975 . S
O16 C17 1.252 1_545 S
C17 O16 1.252 1_565 S
C17 O18 1.252 . S
O18 Zn0 1.975 1_565 S
O18 C17 1.252 . S
H19 C12 0.930 . S
H20 C13 0.930 . S
C21 C22 1.392 . S
C21 N25 1.328 . S
C21 H27 0.930 . S
C22 C21 1.392 . S
C22 N26 1.331 . S
C23 C24 1.391 . S
C23 N26 1.329 . S
C23 H33 0.930 . S
C24 C23 1.391 . S
C24 N25 1.334 . S
C24 H31 0.930 . S
N25 Zn9 2.119 . S
N25 C21 1.328 . S
N25 C24 1.334 . S
N26 C22 1.331 . S
N26 C23 1.329 . S
H27 C21 0.930 . S
C28 O8 1.257 . S
C28 O29 1.244 . S
O29 C28 1.244 . S
O30 C6 1.273 . S
O30 Zn9 2.019 . S
H31 C24 0.930 . S
H32 C11 0.930 . S
H33 C23 0.930 . S
Zn34 N38 2.020 . S
Zn34 O42 2.019 . S
Zn34 N44 2.119 . S
Zn34 O52 1.975 . S
C35 N36 1.334 . S
C35 N39 1.336 . S
N36 C35 1.334 . S
N36 C37 1.334 . S
C37 N36 1.334 . S
C37 N38 1.336 . S
N38 Zn34 2.020 . S
N38 C37 1.336 . S
N38 N39 1.354 . S
N39 C35 1.336 . S
N39 N38 1.354 . S
N39 Zn43 2.020 . S
C40 O41 1.244 . S
C40 O64 1.257 . S
O41 C40 1.244 . S
O42 Zn34 2.019 . S
O42 C62 1.257 . S
Zn43 N39 2.020 . S
Zn43 O50 1.975 . S
Zn43 N59 2.119 . S
Zn43 O64 2.019 . S
N44 Zn34 2.119 . S
N44 C46 1.334 . S
N44 C47 1.328 . S
C45 C46 1.391 . S
C45 N48 1.329 . S
C45 H66 0.930 . S
C46 N44 1.334 . S
C46 C45 1.391 . S
C46 H53 0.930 . S
C47 N44 1.328 . S
C47 C49 1.392 . S
C47 H54 0.930 . S
N48 C45 1.329 . S
N48 C49 1.331 . S
C49 C47 1.392 . S
C49 N48 1.331 . S
O50 Zn43 1.975 . S
O50 C51 1.252 . S
C51 O50 1.252 . S
C51 O52 1.252 . S
O52 Zn34 1.975 . S
O52 C51 1.252 . S
H53 C46 0.930 . S
H54 C47 0.930 . S
C55 C56 1.392 . S
C55 N59 1.328 . S
C55 H61 0.930 . S
C56 C55 1.392 . S
C56 N60 1.331 . S
C57 C58 1.391 . S
C57 N60 1.329 . S
C57 H67 0.930 . S
C58 C57 1.391 . S
C58 N59 1.334 . S
C58 H65 0.930 . S
N59 Zn43 2.119 . S
N59 C55 1.328 . S
N59 C58 1.334 . S
N60 C56 1.331 . S
N60 C57 1.329 . S
H61 C55 0.930 . S
C62 O42 1.257 . S
C62 O63 1.244 . S
O63 C62 1.244 . S
O64 C40 1.257 . S
O64 Zn43 2.019 . S
H65 C58 0.930 . S
H66 C45 0.930 . S
H67 C57 0.930 . S
Zn68 N72 2.020 . S
Zn68 O76 2.019 . S
Zn68 N78 2.119 . S
Zn68 O86 1.975 . S
C69 N70 1.334 . S
C69 N73 1.336 . S
N70 C69 1.334 . S
N70 C71 1.334 . S
C71 N70 1.334 . S
C71 N72 1.336 . S
N72 Zn68 2.020 . S
N72 C71 1.336 . S
N72 N73 1.354 . S
N73 C69 1.336 . S
N73 N72 1.354 . S
N73 Zn77 2.020 . S
C74 O75 1.244 . S
C74 O98 1.257 . S
O75 C74 1.244 . S
O76 Zn68 2.019 . S
O76 C96 1.257 . S
Zn77 N73 2.020 . S
Zn77 O84 1.975 1_565 S
Zn77 N93 2.119 . S
Zn77 O98 2.019 . S
N78 Zn68 2.119 . S
N78 C80 1.334 . S
N78 C81 1.328 . S
C79 C80 1.391 . S
C79 N82 1.329 . S
C79 H100 0.930 . S
C80 N78 1.334 . S
C80 C79 1.391 . S
C80 H87 0.930 . S
C81 N78 1.328 . S
C81 C83 1.392 . S
C81 H88 0.930 . S
N82 C79 1.329 . S
N82 C83 1.331 . S
C83 C81 1.392 . S
C83 N82 1.331 . S
O84 Zn77 1.975 1_545 S
O84 C85 1.252 . S
C85 O84 1.252 . S
C85 O86 1.252 1_545 S
O86 Zn68 1.975 . S
O86 C85 1.252 1_565 S
H87 C80 0.930 . S
H88 C81 0.930 . S
C89 C90 1.392 . S
C89 N93 1.328 . S
C89 H95 0.930 . S
C90 C89 1.392 . S
C90 N94 1.331 . S
C91 C92 1.391 . S
C91 N94 1.329 . S
C91 H101 0.930 . S
C92 C91 1.391 . S
C92 N93 1.334 . S
C92 H99 0.930 . S
N93 Zn77 2.119 . S
N93 C89 1.328 . S
N93 C92 1.334 . S
N94 C90 1.331 . S
N94 C91 1.329 . S
H95 C89 0.930 . S
C96 O76 1.257 . S
C96 O97 1.244 . S
O97 C96 1.244 . S
O98 C74 1.257 . S
O98 Zn77 2.019 . S
H99 C92 0.930 . S
H100 C79 0.930 . S
H101 C91 0.930 . S
Zn102 N106 2.020 . S
Zn102 O110 2.019 . S
Zn102 N112 2.119 . S
Zn102 O120 1.975 . S
C103 N104 1.334 . S
C103 N107 1.336 . S
N104 C103 1.334 . S
N104 C105 1.334 . S
C105 N104 1.334 . S
C105 N106 1.336 . S
N106 Zn102 2.020 . S
N106 C105 1.336 . S
N106 N107 1.354 . S
N107 C103 1.336 . S
N107 N106 1.354 . S
N107 Zn111 2.020 . S
C108 O109 1.244 . S
C108 O132 1.257 . S
O109 C108 1.244 . S
O110 Zn102 2.019 . S
O110 C130 1.257 . S
Zn111 N107 2.020 . S
Zn111 O118 1.975 . S
Zn111 N127 2.119 . S
Zn111 O132 2.019 . S
N112 Zn102 2.119 . S
N112 C114 1.334 . S
N112 C115 1.328 . S
C113 C114 1.391 . S
C113 N116 1.329 . S
C113 H134 0.930 . S
C114 N112 1.334 . S
C114 C113 1.391 . S
C114 H121 0.930 . S
C115 N112 1.328 . S
C115 C117 1.392 . S
C115 H122 0.930 . S
N116 C113 1.329 . S
N116 C117 1.331 . S
C117 C115 1.392 . S
C117 N116 1.331 . S
O118 Zn111 1.975 . S
O118 C119 1.252 . S
C119 O118 1.252 . S
C119 O120 1.252 . S
O120 Zn102 1.975 . S
O120 C119 1.252 . S
H121 C114 0.930 . S
H122 C115 0.930 . S
C123 C124 1.392 . S
C123 N127 1.328 . S
C123 H129 0.930 . S
C124 C123 1.392 . S
C124 N128 1.331 . S
C125 C126 1.391 . S
C125 N128 1.329 . S
C125 H135 0.930 . S
C126 C125 1.391 . S
C126 N127 1.334 . S
C126 H133 0.930 . S
N127 Zn111 2.119 . S
N127 C123 1.328 . S
N127 C126 1.334 . S
N128 C124 1.331 . S
N128 C125 1.329 . S
H129 C123 0.930 . S
C130 O110 1.257 . S
C130 O131 1.244 . S
O131 C130 1.244 . S
O132 C108 1.257 . S
O132 Zn111 2.019 . S
H133 C126 0.930 . S
H134 C113 0.930 . S
H135 C125 0.930 . S
Zn136 N140 2.020 . S
Zn136 O144 2.019 . S
Zn136 N146 2.119 . S
Zn136 O154 1.975 1_565 S
C137 N138 1.334 . S
C137 N141 1.336 . S
N138 C137 1.334 . S
N138 C139 1.334 . S
C139 N138 1.334 . S
C139 N140 1.336 . S
N140 Zn136 2.020 . S
N140 C139 1.336 . S
N140 N141 1.354 . S
N141 C137 1.336 . S
N141 N140 1.354 . S
N141 Zn145 2.020 . S
C142 O143 1.280 . S
C142 O166 1.273 . S
O143 C142 1.280 . S
O144 Zn136 2.019 . S
O144 C164 1.257 . S
Zn145 N141 2.020 . S
Zn145 O152 1.975 . S
Zn145 N161 2.119 . S
Zn145 O166 2.019 . S
N146 Zn136 2.119 . S
N146 C148 1.334 . S
N146 C149 1.328 . S
C147 C148 1.391 . S
C147 N150 1.329 . S
C147 H168 0.930 . S
C148 N146 1.334 . S
C148 C147 1.391 . S
C148 H155 0.930 . S
C149 N146 1.328 . S
C149 C151 1.392 . S
C149 H156 0.930 . S
N150 C147 1.329 . S
N150 C151 1.331 . S
C151 C149 1.392 . S
C151 N150 1.331 . S
O152 Zn145 1.975 . S
O152 C153 1.252 1_565 S
C153 O152 1.252 1_545 S
C153 O154 1.252 . S
O154 Zn136 1.975 1_545 S
O154 C153 1.252 . S
H155 C148 0.930 . S
H156 C149 0.930 . S
C157 C158 1.392 . S
C157 N161 1.328 . S
C157 H163 0.930 . S
C158 C157 1.392 . S
C158 N162 1.331 . S
C159 C160 1.391 . S
C159 N162 1.329 . S
C159 H169 0.930 . S
C160 C159 1.391 . S
C160 N161 1.334 . S
C160 H167 0.930 . S
N161 Zn145 2.119 . S
N161 C157 1.328 . S
N161 C160 1.334 . S
N162 C158 1.331 . S
N162 C159 1.329 . S
H163 C157 0.930 . S
C164 O144 1.257 . S
C164 O165 1.244 . S
O165 C164 1.244 . S
O166 C142 1.273 . S
O166 Zn145 2.019 . S
H167 C160 0.930 . S
H168 C147 0.930 . S
H169 C159 0.930 . S
Zn170 N174 2.020 . S
Zn170 O178 2.019 . S
Zn170 N180 2.119 . S
Zn170 O188 1.975 . S
C171 N172 1.334 . S
C171 N175 1.336 . S
N172 C171 1.334 . S
N172 C173 1.334 . S
C173 N172 1.334 . S
C173 N174 1.336 . S
N174 Zn170 2.020 . S
N174 C173 1.336 . S
N174 N175 1.354 . S
N175 C171 1.336 . S
N175 N174 1.354 . S
N175 Zn179 2.020 . S
C176 O177 1.244 . S
C176 O200 1.257 . S
O177 C176 1.244 . S
O178 Zn170 2.019 . S
O178 C198 1.257 . S
Zn179 N175 2.020 . S
Zn179 O186 1.975 . S
Zn179 N195 2.119 . S
Zn179 O200 2.019 . S
N180 Zn170 2.119 . S
N180 C182 1.334 . S
N180 C183 1.328 . S
C181 C182 1.391 . S
C181 N184 1.329 . S
C181 H202 0.930 . S
C182 N180 1.334 . S
C182 C181 1.391 . S
C182 H189 0.930 . S
C183 N180 1.328 . S
C183 C185 1.392 . S
C183 H190 0.930 . S
N184 C181 1.329 . S
N184 C185 1.331 . S
C185 C183 1.392 . S
C185 N184 1.331 . S
O186 Zn179 1.975 . S
O186 C187 1.252 . S
C187 O186 1.252 . S
C187 O188 1.252 . S
O188 Zn170 1.975 . S
O188 C187 1.252 . S
H189 C182 0.930 . S
H190 C183 0.930 . S
C191 C192 1.392 . S
C191 N195 1.328 . S
C191 H197 0.930 . S
C192 C191 1.392 . S
C192 N196 1.331 . S
C193 C194 1.391 . S
C193 N196 1.329 . S
C193 H203 0.930 . S
C194 C193 1.391 . S
C194 N195 1.334 . S
C194 H201 0.930 . S
N195 Zn179 2.119 . S
N195 C191 1.328 . S
N195 C194 1.334 . S
N196 C192 1.331 . S
N196 C193 1.329 . S
H197 C191 0.930 . S
C198 O178 1.257 . S
C198 O199 1.244 . S
O199 C198 1.244 . S
O200 C176 1.257 . S
O200 Zn179 2.019 . S
H201 C194 0.930 . S
H202 C181 0.930 . S
H203 C193 0.930 . S
Zn204 N208 2.020 . S
Zn204 O212 2.019 . S
Zn204 N214 2.119 . S
Zn204 O222 1.975 1_545 S
C205 N206 1.334 . S
C205 N209 1.336 . S
N206 C205 1.334 . S
N206 C207 1.334 . S
C207 N206 1.334 . S
C207 N208 1.336 . S
N208 Zn204 2.020 . S
N208 C207 1.336 . S
N208 N209 1.354 . S
N209 C205 1.336 . S
N209 N208 1.354 . S
N209 Zn213 2.020 . S
C210 O211 1.244 . S
C210 O234 1.257 . S
O211 C210 1.244 . S
O212 Zn204 2.019 . S
O212 C232 1.257 . S
Zn213 N209 2.020 . S
Zn213 O220 1.975 . S
Zn213 N229 2.119 . S
Zn213 O234 2.019 . S
N214 Zn204 2.119 . S
N214 C216 1.334 . S
N214 C217 1.328 . S
C215 C216 1.391 . S
C215 N218 1.329 . S
C215 H236 0.930 . S
C216 N214 1.334 . S
C216 C215 1.391 . S
C216 H223 0.930 . S
C217 N214 1.328 . S
C217 C219 1.392 . S
C217 H224 0.930 . S
N218 C215 1.329 . S
N218 C219 1.331 . S
C219 C217 1.392 . S
C219 N218 1.331 . S
O220 Zn213 1.975 . S
O220 C221 1.252 1_545 S
C221 O220 1.252 1_565 S
C221 O222 1.252 . S
O222 Zn204 1.975 1_565 S
O222 C221 1.252 . S
H223 C216 0.930 . S
H224 C217 0.930 . S
C225 C226 1.392 . S
C225 N229 1.328 . S
C225 H231 0.930 . S
C226 C225 1.392 . S
C226 N230 1.331 . S
C227 C228 1.391 . S
C227 N230 1.329 . S
C227 H237 0.930 . S
C228 C227 1.391 . S
C228 N229 1.334 . S
C228 H235 0.930 . S
N229 Zn213 2.119 . S
N229 C225 1.328 . S
N229 C228 1.334 . S
N230 C226 1.331 . S
N230 C227 1.329 . S
H231 C225 0.930 . S
C232 O212 1.257 . S
C232 O233 1.244 . S
O233 C232 1.244 . S
O234 C210 1.257 . S
O234 Zn213 2.019 . S
H235 C228 0.930 . S
H236 C215 0.930 . S
H237 C227 0.930 . S
Zn238 N242 2.020 . S
Zn238 O246 2.019 . S
Zn238 N248 2.119 . S
Zn238 O256 1.975 . S
C239 N240 1.334 . S
C239 N243 1.336 . S
N240 C239 1.334 . S
N240 C241 1.334 . S
C241 N240 1.334 . S
C241 N242 1.336 . S
N242 Zn238 2.020 . S
N242 C241 1.336 . S
N242 N243 1.354 . S
N243 C239 1.336 . S
N243 N242 1.354 . S
N243 Zn247 2.020 . S
C244 O245 1.244 . S
C244 O268 1.257 . S
O245 C244 1.244 . S
O246 Zn238 2.019 . S
O246 C266 1.257 . S
Zn247 N243 2.020 . S
Zn247 O254 1.975 . S
Zn247 N263 2.119 . S
Zn247 O268 2.019 . S
N248 Zn238 2.119 . S
N248 C250 1.334 . S
N248 C251 1.328 . S
C249 C250 1.391 . S
C249 N252 1.329 . S
C249 H270 0.930 . S
C250 N248 1.334 . S
C250 C249 1.391 . S
C250 H257 0.930 . S
C251 N248 1.328 . S
C251 C253 1.392 . S
C251 H258 0.930 . S
N252 C249 1.329 . S
N252 C253 1.331 . S
C253 C251 1.392 . S
C253 N252 1.331 . S
O254 Zn247 1.975 . S
O254 C255 1.252 . S
C255 O254 1.252 . S
C255 O256 1.252 . S
O256 Zn238 1.975 . S
O256 C255 1.252 . S
H257 C250 0.930 . S
H258 C251 0.930 . S
C259 C260 1.392 . S
C259 N263 1.328 . S
C259 H265 0.930 . S
C260 C259 1.392 . S
C260 N264 1.331 . S
C261 C262 1.391 . S
C261 N264 1.329 . S
C261 H271 0.930 . S
C262 C261 1.391 . S
C262 N263 1.334 . S
C262 H269 0.930 . S
N263 Zn247 2.119 . S
N263 C259 1.328 . S
N263 C262 1.334 . S
N264 C260 1.331 . S
N264 C261 1.329 . S
H265 C259 0.930 . S
C266 O246 1.257 . S
C266 O267 1.244 . S
O267 C266 1.244 . S
O268 C244 1.257 . S
O268 Zn247 2.019 . S
H269 C262 0.930 . S
H270 C249 0.930 . S
H271 C261 0.930 . S
Zn272 N276 2.020 . S
Zn272 O280 2.019 . S
Zn272 N282 2.119 . S
Zn272 O290 1.975 . S
C273 N274 1.334 . S
C273 N277 1.336 . S
N274 C273 1.334 . S
N274 C275 1.334 . S
C275 N274 1.334 . S
C275 N276 1.336 . S
N276 Zn272 2.020 . S
N276 C275 1.336 . S
N276 N277 1.354 . S
N277 C273 1.336 . S
N277 N276 1.354 . S
N277 Zn281 2.020 . S
C278 O279 1.244 . S
C278 O302 1.257 . S
O279 C278 1.244 . S
O280 Zn272 2.019 . S
O280 C300 1.257 . S
Zn281 N277 2.020 . S
Zn281 O288 1.975 . S
Zn281 N297 2.119 . S
Zn281 O302 2.019 . S
N282 Zn272 2.119 . S
N282 C284 1.334 . S
N282 C285 1.328 . S
C283 C284 1.391 . S
C283 N286 1.329 . S
C283 H304 0.930 . S
C284 N282 1.334 . S
C284 C283 1.391 . S
C284 H291 0.930 . S
C285 N282 1.328 . S
C285 C287 1.392 . S
C285 H292 0.930 . S
N286 C283 1.329 . S
N286 C287 1.331 . S
C287 C285 1.392 . S
C287 N286 1.331 . S
O288 Zn281 1.975 . S
O288 C289 1.252 . S
C289 O288 1.252 . S
C289 O290 1.252 . S
O290 Zn272 1.975 . S
O290 C289 1.252 . S
H291 C284 0.930 . S
H292 C285 0.930 . S
C293 C294 1.392 . S
C293 N297 1.328 . S
C293 H299 0.930 . S
C294 C293 1.392 . S
C294 N298 1.331 . S
C295 C296 1.391 . S
C295 N298 1.329 . S
C295 H305 0.930 . S
C296 C295 1.391 . S
C296 N297 1.334 . S
C296 H303 0.930 . S
N297 Zn281 2.119 . S
N297 C293 1.328 . S
N297 C296 1.334 . S
N298 C294 1.331 . S
N298 C295 1.329 . S
H299 C293 0.930 . S
C300 O280 1.257 . S
C300 O301 1.244 . S
O301 C300 1.244 . S
O302 C278 1.257 . S
O302 Zn281 2.019 . S
H303 C296 0.930 . S
H304 C283 0.930 . S
H305 C295 0.930 . S
Zn306 N310 2.020 . S
Zn306 O314 2.019 . S
Zn306 N316 2.119 . S
Zn306 O324 1.975 1_565 S
C307 N308 1.334 . S
C307 N311 1.336 . S
N308 C307 1.334 . S
N308 C309 1.334 1_545 S
C309 N308 1.334 1_565 S
C309 N310 1.336 . S
N310 Zn306 2.020 . S
N310 C309 1.336 . S
N310 N311 1.354 1_565 S
N311 C307 1.336 . S
N311 N310 1.354 1_545 S
N311 Zn315 2.020 . S
C312 O313 1.244 . S
C312 O336 1.257 1_565 S
O313 C312 1.244 . S
O314 Zn306 2.019 . S
O314 C334 1.257 1_565 S
Zn315 N311 2.020 . S
Zn315 O322 1.975 1_545 S
Zn315 N331 2.119 . S
Zn315 O336 2.019 . S
N316 Zn306 2.119 . S
N316 C318 1.334 . S
N316 C319 1.328 . S
C317 C318 1.391 . S
C317 N320 1.329 . S
C317 H338 0.930 . S
C318 N316 1.334 . S
C318 C317 1.391 . S
C318 H325 0.930 . S
C319 N316 1.328 . S
C319 C321 1.392 . S
C319 H326 0.930 . S
N320 C317 1.329 . S
N320 C321 1.331 . S
C321 C319 1.392 . S
C321 N320 1.331 . S
O322 Zn315 1.975 1_565 S
O322 C323 1.254 . S
C323 O322 1.254 . S
C323 O324 1.251 1_565 S
O324 Zn306 1.975 1_545 S
O324 C323 1.251 1_545 S
H325 C318 0.930 . S
H326 C319 0.930 . S
C327 C328 1.392 . S
C327 N331 1.328 . S
C327 H333 0.930 . S
C328 C327 1.392 . S
C328 N332 1.331 . S
C329 C330 1.391 . S
C329 N332 1.329 . S
C329 H339 0.930 . S
C330 C329 1.391 . S
C330 N331 1.334 . S
C330 H337 0.930 . S
N331 Zn315 2.119 . S
N331 C327 1.328 . S
N331 C330 1.334 . S
N332 C328 1.331 . S
N332 C329 1.329 . S
H333 C327 0.930 . S
C334 O314 1.257 1_545 S
C334 O335 1.244 . S
O335 C334 1.244 . S
O336 C312 1.257 1_545 S
O336 Zn315 2.019 . S
H337 C330 0.930 . S
H338 C317 0.930 . S
H339 C329 0.930 . S
Zn340 N344 2.020 . S
Zn340 O348 2.019 . S
Zn340 N350 2.119 . S
Zn340 O358 1.975 . S
C341 N342 1.334 . S
C341 N345 1.336 . S
N342 C341 1.334 . S
N342 C343 1.334 . S
C343 N342 1.334 . S
C343 N344 1.336 . S
N344 Zn340 2.020 . S
N344 C343 1.336 . S
N344 N345 1.354 . S
N345 C341 1.336 . S
N345 N344 1.354 . S
N345 Zn349 2.020 . S
C346 O347 1.244 . S
C346 O370 1.257 . S
O347 C346 1.244 . S
O348 Zn340 2.019 . S
O348 C368 1.275 . S
Zn349 N345 2.020 . S
Zn349 O356 1.975 . S
Zn349 N365 2.119 . S
Zn349 O370 2.019 . S
N350 Zn340 2.119 . S
N350 C352 1.334 . S
N350 C353 1.328 . S
C351 C352 1.391 . S
C351 N354 1.329 . S
C351 H372 0.930 . S
C352 N350 1.334 . S
C352 C351 1.391 . S
C352 H359 0.930 . S
C353 N350 1.328 . S
C353 C355 1.392 . S
C353 H360 0.930 . S
N354 C351 1.329 . S
N354 C355 1.331 . S
C355 C353 1.392 . S
C355 N354 1.331 . S
O356 Zn349 1.975 . S
O356 C357 1.252 . S
C357 O356 1.252 . S
C357 O358 1.252 . S
O358 Zn340 1.975 . S
O358 C357 1.252 . S
H359 C352 0.930 . S
H360 C353 0.930 . S
C361 C362 1.392 . S
C361 N365 1.328 . S
C361 H367 0.930 . S
C362 C361 1.392 . S
C362 N366 1.331 . S
C363 C364 1.391 . S
C363 N366 1.329 . S
C363 H373 0.930 . S
C364 C363 1.391 . S
C364 N365 1.334 . S
C364 H371 0.930 . S
N365 Zn349 2.119 . S
N365 C361 1.328 . S
N365 C364 1.334 . S
N366 C362 1.331 . S
N366 C363 1.329 . S
H367 C361 0.930 . S
C368 O348 1.275 . S
C368 O369 1.286 . S
O369 C368 1.286 . S
O370 C346 1.257 . S
O370 Zn349 2.019 . S
H371 C364 0.930 . S
H372 C351 0.930 . S
H373 C363 0.930 . S
Zn374 N378 2.020 . S
Zn374 O382 2.019 . S
Zn374 N384 2.119 . S
Zn374 O392 1.975 1_545 S
C375 N376 1.334 . S
C375 N379 1.336 . S
N376 C375 1.334 . S
N376 C377 1.334 1_565 S
C377 N376 1.334 1_545 S
C377 N378 1.336 . S
N378 Zn374 2.020 . S
N378 C377 1.336 . S
N378 N379 1.354 1_545 S
N379 C375 1.336 . S
N379 N378 1.354 1_565 S
N379 Zn383 2.020 . S
C380 O381 1.244 . S
C380 O404 1.257 1_545 S
O381 C380 1.244 . S
O382 Zn374 2.019 . S
O382 C402 1.257 1_545 S
Zn383 N379 2.020 . S
Zn383 O390 1.975 1_565 S
Zn383 N399 2.119 . S
Zn383 O404 2.019 . S
N384 Zn374 2.119 . S
N384 C386 1.334 . S
N384 C387 1.328 . S
C385 C386 1.391 . S
C385 N388 1.329 . S
C385 H406 0.930 . S
C386 N384 1.334 . S
C386 C385 1.391 . S
C386 H393 0.930 . S
C387 N384 1.328 . S
C387 C389 1.392 . S
C387 H394 0.930 . S
N388 C385 1.329 . S
N388 C389 1.331 . S
C389 C387 1.392 . S
C389 N388 1.331 . S
O390 Zn383 1.975 1_545 S
O390 C391 1.254 . S
C391 O390 1.254 . S
C391 O392 1.251 1_545 S
O392 Zn374 1.975 1_565 S
O392 C391 1.251 1_565 S
H393 C386 0.930 . S
H394 C387 0.930 . S
C395 C396 1.392 . S
C395 N399 1.328 . S
C395 H401 0.930 . S
C396 C395 1.392 . S
C396 N400 1.331 . S
C397 C398 1.391 . S
C397 N400 1.329 . S
C397 H407 0.930 . S
C398 C397 1.391 . S
C398 N399 1.334 . S
C398 H405 0.930 . S
N399 Zn383 2.119 . S
N399 C395 1.328 . S
N399 C398 1.334 . S
N400 C396 1.331 . S
N400 C397 1.329 . S
H401 C395 0.930 . S
C402 O382 1.257 1_565 S
C402 O403 1.244 . S
O403 C402 1.244 . S
O404 C380 1.257 1_565 S
O404 Zn383 2.019 . S
H405 C398 0.930 . S
H406 C385 0.930 . S
H407 C397 0.930 . S
Zn408 N412 2.020 . S
Zn408 O416 2.019 . S
Zn408 N418 2.119 . S
Zn408 O426 1.975 . S
C409 N410 1.334 . S
C409 N413 1.336 . S
N410 C409 1.334 . S
N410 C411 1.334 . S
C411 N410 1.334 . S
C411 N412 1.336 . S
N412 Zn408 2.020 . S
N412 C411 1.336 . S
N412 N413 1.354 . S
N413 C409 1.336 . S
N413 N412 1.354 . S
N413 Zn417 2.020 . S
C414 O415 1.244 . S
C414 O438 1.257 . S
O415 C414 1.244 . S
O416 Zn408 2.019 . S
O416 C436 1.257 . S
Zn417 N413 2.020 . S
Zn417 O424 1.975 . S
Zn417 N433 2.119 . S
Zn417 O438 2.019 . S
N418 Zn408 2.119 . S
N418 C420 1.334 . S
N418 C421 1.328 . S
C419 C420 1.391 . S
C419 N422 1.329 . S
C419 H440 0.930 . S
C420 N418 1.334 . S
C420 C419 1.391 . S
C420 H427 0.930 . S
C421 N418 1.328 . S
C421 C423 1.392 . S
C421 H428 0.930 . S
N422 C419 1.329 . S
N422 C423 1.331 . S
C423 C421 1.392 . S
C423 N422 1.331 . S
O424 Zn417 1.975 . S
O424 C425 1.252 . S
C425 O424 1.252 . S
C425 O426 1.252 . S
O426 Zn408 1.975 . S
O426 C425 1.252 . S
H427 C420 0.930 . S
H428 C421 0.930 . S
C429 C430 1.392 . S
C429 N433 1.328 . S
C429 H435 0.930 . S
C430 C429 1.392 . S
C430 N434 1.331 . S
C431 C432 1.391 . S
C431 N434 1.329 . S
C431 H441 0.930 . S
C432 C431 1.391 . S
C432 N433 1.334 . S
C432 H439 0.930 . S
N433 Zn417 2.119 . S
N433 C429 1.328 . S
N433 C432 1.334 . S
N434 C430 1.331 . S
N434 C431 1.329 . S
H435 C429 0.930 . S
C436 O416 1.257 . S
C436 O437 1.244 . S
O437 C436 1.244 . S
O438 C414 1.257 . S
O438 Zn417 2.019 . S
H439 C432 0.930 . S
H440 C419 0.930 . S
H441 C431 0.930 . S
Zn442 N446 2.020 . S
Zn442 O450 2.019 . S
Zn442 N452 2.119 . S
Zn442 O460 1.975 1_545 S
C443 N444 1.334 . S
C443 N447 1.336 . S
N444 C443 1.334 . S
N444 C445 1.334 1_565 S
C445 N444 1.334 1_545 S
C445 N446 1.336 . S
N446 Zn442 2.020 . S
N446 C445 1.336 . S
N446 N447 1.354 1_545 S
N447 C443 1.336 . S
N447 N446 1.354 1_565 S
N447 Zn451 2.020 . S
C448 O449 1.244 . S
C448 O472 1.257 1_545 S
O449 C448 1.244 . S
O450 Zn442 2.019 . S
O450 C470 1.257 1_545 S
Zn451 N447 2.020 . S
Zn451 O458 1.975 1_565 S
Zn451 N467 2.119 . S
Zn451 O472 2.019 . S
N452 Zn442 2.119 . S
N452 C454 1.334 . S
N452 C455 1.328 . S
C453 C454 1.391 . S
C453 N456 1.329 . S
C453 H474 0.930 . S
C454 N452 1.334 . S
C454 C453 1.391 . S
C454 H461 0.930 . S
C455 N452 1.328 . S
C455 C457 1.392 . S
C455 H462 0.930 . S
N456 C453 1.329 . S
N456 C457 1.331 . S
C457 C455 1.392 . S
C457 N456 1.331 . S
O458 Zn451 1.975 1_545 S
O458 C459 1.254 . S
C459 O458 1.254 . S
C459 O460 1.251 1_545 S
O460 Zn442 1.975 1_565 S
O460 C459 1.251 1_565 S
H461 C454 0.930 . S
H462 C455 0.930 . S
C463 C464 1.392 . S
C463 N467 1.328 . S
C463 H469 0.930 . S
C464 C463 1.392 . S
C464 N468 1.331 . S
C465 C466 1.391 . S
C465 N468 1.329 . S
C465 H475 0.930 . S
C466 C465 1.391 . S
C466 N467 1.334 . S
C466 H473 0.930 . S
N467 Zn451 2.119 . S
N467 C463 1.328 . S
N467 C466 1.334 . S
N468 C464 1.331 . S
N468 C465 1.329 . S
H469 C463 0.930 . S
C470 O450 1.257 1_565 S
C470 O471 1.244 . S
O471 C470 1.244 . S
O472 C448 1.257 1_565 S
O472 Zn451 2.019 . S
H473 C466 0.930 . S
H474 C453 0.930 . S
H475 C465 0.930 . S
Zn476 N480 2.020 . S
Zn476 O484 2.019 . S
Zn476 N486 2.119 . S
Zn476 O494 1.975 . S
C477 N478 1.334 . S
C477 N481 1.336 . S
N478 C477 1.334 . S
N478 C479 1.334 . S
C479 N478 1.334 . S
C479 N480 1.336 . S
N480 Zn476 2.020 . S
N480 C479 1.336 . S
N480 N481 1.354 . S
N481 C477 1.336 . S
N481 N480 1.354 . S
N481 Zn485 2.020 . S
C482 O483 1.244 . S
C482 O506 1.257 . S
O483 C482 1.244 . S
O484 Zn476 2.019 . S
O484 C504 1.275 . S
Zn485 N481 2.020 . S
Zn485 O492 1.975 . S
Zn485 N501 2.119 . S
Zn485 O506 2.019 . S
N486 Zn476 2.119 . S
N486 C488 1.334 . S
N486 C489 1.328 . S
C487 C488 1.391 . S
C487 N490 1.329 . S
C487 H508 0.930 . S
C488 N486 1.334 . S
C488 C487 1.391 . S
C488 H495 0.930 . S
C489 N486 1.328 . S
C489 C491 1.392 . S
C489 H496 0.930 . S
N490 C487 1.329 . S
N490 C491 1.331 . S
C491 C489 1.392 . S
C491 N490 1.331 . S
O492 Zn485 1.975 . S
O492 C493 1.252 . S
C493 O492 1.252 . S
C493 O494 1.252 . S
O494 Zn476 1.975 . S
O494 C493 1.252 . S
H495 C488 0.930 . S
H496 C489 0.930 . S
C497 C498 1.392 . S
C497 N501 1.328 . S
C497 H503 0.930 . S
C498 C497 1.392 . S
C498 N502 1.331 . S
C499 C500 1.391 . S
C499 N502 1.329 . S
C499 H509 0.930 . S
C500 C499 1.391 . S
C500 N501 1.334 . S
C500 H507 0.930 . S
N501 Zn485 2.119 . S
N501 C497 1.328 . S
N501 C500 1.334 . S
N502 C498 1.331 . S
N502 C499 1.329 . S
H503 C497 0.930 . S
C504 O484 1.275 . S
C504 O505 1.286 . S
O505 C504 1.286 . S
O506 C482 1.257 . S
O506 Zn485 2.019 . S
H507 C500 0.930 . S
H508 C487 0.930 . S
H509 C499 0.930 . S
Zn510 N514 2.020 . S
Zn510 O518 2.019 . S
Zn510 N520 2.119 . S
Zn510 O528 1.975 1_545 S
C511 N512 1.334 1_565 S
C511 N515 1.336 . S
N512 C511 1.334 1_545 S
N512 C513 1.334 . S
C513 N512 1.334 . S
C513 N514 1.336 . S
N514 Zn510 2.020 . S
N514 C513 1.336 . S
N514 N515 1.354 1_545 S
N515 C511 1.336 . S
N515 N514 1.354 1_565 S
N515 Zn519 2.020 . S
C516 O517 1.244 . S
C516 O540 1.257 1_545 S
O517 C516 1.244 . S
O518 Zn510 2.019 . S
O518 C538 1.257 1_545 S
Zn519 N515 2.020 . S
Zn519 O526 1.975 1_565 S
Zn519 N535 2.119 . S
Zn519 O540 2.019 . S
N520 Zn510 2.119 . S
N520 C522 1.334 . S
N520 C523 1.328 . S
C521 C522 1.391 . S
C521 N524 1.329 . S
C521 H542 0.930 . S
C522 N520 1.334 . S
C522 C521 1.391 . S
C522 H529 0.930 . S
C523 N520 1.328 . S
C523 C525 1.392 . S
C523 H530 0.930 . S
N524 C521 1.329 . S
N524 C525 1.331 . S
C525 C523 1.392 . S
C525 N524 1.331 . S
O526 Zn519 1.975 1_545 S
O526 C527 1.251 1_545 S
C527 O526 1.251 1_565 S
C527 O528 1.254 . S
O528 Zn510 1.975 1_565 S
O528 C527 1.254 . S
H529 C522 0.930 . S
H530 C523 0.930 . S
C531 C532 1.392 . S
C531 N535 1.328 . S
C531 H537 0.930 . S
C532 C531 1.392 . S
C532 N536 1.331 . S
C533 C534 1.391 . S
C533 N536 1.329 . S
C533 H543 0.930 . S
C534 C533 1.391 . S
C534 N535 1.334 . S
C534 H541 0.930 . S
N535 Zn519 2.119 . S
N535 C531 1.328 . S
N535 C534 1.334 . S
N536 C532 1.331 . S
N536 C533 1.329 . S
H537 C531 0.930 . S
C538 O518 1.257 1_565 S
C538 O539 1.244 . S
O539 C538 1.244 . S
O540 C516 1.257 1_565 S
O540 Zn519 2.019 . S
H541 C534 0.930 . S
H542 C521 0.930 . S
H543 C533 0.930 . S
C544 C545 1.349 1_565 S
C544 C546 1.327 . S
C544 H569 0.950 . S
C545 C544 1.349 1_545 S
C545 C561 1.349 . S
C546 C544 1.327 . S
C546 C565 1.429 1_565 S
C546 H570 0.950 . S
C547 C564 1.574 . S
C547 C566 1.368 . S
C547 H571 0.949 . S
H548 C552 0.949 1_565 S
C549 C550 1.349 . S
C549 C551 1.327 . S
C549 H572 0.950 . S
C550 C549 1.349 . S
C550 C562 1.349 . S
C551 C549 1.327 . S
C551 C567 1.429 . S
C551 H573 0.950 . S
C552 H548 0.949 1_545 S
C552 C560 1.574 . S
C552 C568 1.368 . S
H553 C561 0.950 . S
H554 C559 0.950 . S
H555 C560 0.949 1_565 S
H556 C562 0.950 . S
H557 C563 0.950 1_565 S
H558 C564 0.949 . S
C559 H554 0.950 . S
C559 C561 1.327 . S
C559 C565 1.429 . S
C560 C552 1.574 . S
C560 H555 0.949 1_545 S
C560 C566 1.368 . S
C561 C545 1.349 . S
C561 H553 0.950 . S
C561 C559 1.327 . S
C562 C550 1.349 . S
C562 H556 0.950 . S
C562 C563 1.327 . S
C563 H557 0.950 1_545 S
C563 C562 1.327 . S
C563 C567 1.429 . S
C564 C547 1.574 . S
C564 H558 0.949 . S
C564 C568 1.368 . S
C565 C546 1.429 1_545 S
C565 C559 1.429 . S
C565 C566 1.523 . S
C566 C547 1.368 . S
C566 C560 1.368 . S
C566 C565 1.523 . S
C567 C551 1.429 . S
C567 C563 1.429 . S
C567 C568 1.523 . S
C568 C552 1.368 . S
C568 C564 1.368 . S
C568 C567 1.523 . S
H569 C544 0.950 . S
H570 C546 0.950 . S
H571 C547 0.949 . S
H572 C549 0.950 . S
H573 C551 0.950 . S
C574 C575 1.349 . S
C574 C576 1.327 . S
C574 H599 0.950 . S
C575 C574 1.349 . S
C575 C591 1.349 . S
C576 C574 1.327 . S
C576 C595 1.429 . S
C576 H600 0.950 . S
C577 C594 1.574 . S
C577 C596 1.368 . S
C577 H601 0.949 . S
H578 C582 0.949 . S
C579 C580 1.349 . S
C579 C581 1.327 . S
C579 H602 0.950 . S
C580 C579 1.349 . S
C580 C592 1.349 . S
C581 C579 1.327 . S
C581 C597 1.429 . S
C581 H603 0.950 . S
C582 H578 0.949 . S
C582 C590 1.574 . S
C582 C598 1.368 . S
H583 C591 0.950 . S
H584 C589 0.950 . S
H585 C590 0.949 . S
H586 C592 0.950 . S
H587 C593 0.950 . S
H588 C594 0.949 . S
C589 H584 0.950 . S
C589 C591 1.327 . S
C589 C595 1.429 . S
C590 C582 1.574 . S
C590 H585 0.949 . S
C590 C596 1.368 . S
C591 C575 1.349 . S
C591 H583 0.950 . S
C591 C589 1.327 . S
C592 C580 1.349 . S
C592 H586 0.950 . S
C592 C593 1.327 . S
C593 H587 0.950 . S
C593 C592 1.327 . S
C593 C597 1.429 . S
C594 C577 1.574 . S
C594 H588 0.949 . S
C594 C598 1.368 . S
C595 C576 1.429 . S
C595 C589 1.429 . S
C595 C596 1.523 . S
C596 C577 1.368 . S
C596 C590 1.368 . S
C596 C595 1.523 . S
C597 C581 1.429 . S
C597 C593 1.429 . S
C597 C598 1.523 . S
C598 C582 1.368 . S
C598 C594 1.368 . S
C598 C597 1.523 . S
H599 C574 0.950 . S
H600 C576 0.950 . S
H601 C577 0.949 . S
H602 C579 0.950 . S
H603 C581 0.950 . S
C604 C605 1.349 . S
C604 C606 1.327 . S
C604 H629 0.950 . S
C605 C604 1.349 . S
C605 C621 1.349 1_565 S
C606 C604 1.327 . S
C606 C625 1.429 . S
C606 H630 0.950 . S
C607 C624 1.574 . S
C607 C626 1.368 . S
C607 H631 0.949 1_565 S
H608 C612 0.949 . S
C609 C610 1.349 . S
C609 C611 1.327 . S
C609 H632 0.950 . S
C610 C609 1.349 . S
C610 C622 1.349 . S
C611 C609 1.327 . S
C611 C627 1.429 . S
C611 H633 0.950 1_565 S
C612 H608 0.949 . S
C612 C620 1.574 . S
C612 C628 1.368 . S
H613 C621 0.950 . S
H614 C619 0.950 . S
H615 C620 0.949 . S
H616 C622 0.950 . S
H617 C623 0.950 . S
H618 C624 0.949 1_545 S
C619 H614 0.950 . S
C619 C621 1.327 . S
C619 C625 1.429 1_545 S
C620 C612 1.574 . S
C620 H615 0.949 . S
C620 C626 1.368 . S
C621 C605 1.349 1_545 S
C621 H613 0.950 . S
C621 C619 1.327 . S
C622 C610 1.349 . S
C622 H616 0.950 . S
C622 C623 1.327 . S
C623 H617 0.950 . S
C623 C622 1.327 . S
C623 C627 1.429 . S
C624 C607 1.574 . S
C624 H618 0.949 1_565 S
C624 C628 1.368 . S
C625 C606 1.429 . S
C625 C619 1.429 1_565 S
C625 C626 1.523 . S
C626 C607 1.368 . S
C626 C620 1.368 . S
C626 C625 1.523 . S
C627 C611 1.429 . S
C627 C623 1.429 . S
C627 C628 1.523 . S
C628 C612 1.368 . S
C628 C624 1.368 . S
C628 C627 1.523 . S
H629 C604 0.950 . S
H630 C606 0.950 . S
H631 C607 0.949 1_545 S
H632 C609 0.950 . S
H633 C611 0.950 1_545 S
C634 C635 1.349 . S
C634 C636 1.327 . S
C634 H659 0.950 . S
C635 C634 1.349 . S
C635 C651 1.349 . S
C636 C634 1.327 . S
C636 C655 1.429 . S
C636 H660 0.950 . S
C637 C654 1.574 . S
C637 C656 1.368 . S
C637 H661 0.949 . S
H638 C642 0.949 . S
C639 C640 1.349 . S
C639 C641 1.327 . S
C639 H662 0.950 . S
C640 C639 1.349 . S
C640 C652 1.349 . S
C641 C639 1.327 . S
C641 C657 1.429 . S
C641 H663 0.950 . S
C642 H638 0.949 . S
C642 C650 1.574 . S
C642 C658 1.368 . S
H643 C651 0.950 . S
H644 C649 0.950 . S
H645 C650 0.949 . S
H646 C652 0.950 . S
H647 C653 0.950 . S
H648 C654 0.949 . S
C649 H644 0.950 . S
C649 C651 1.327 . S
C649 C655 1.429 . S
C650 C642 1.574 . S
C650 H645 0.949 . S
C650 C656 1.368 . S
C651 C635 1.349 . S
C651 H643 0.950 . S
C651 C649 1.327 . S
C652 C640 1.349 . S
C652 H646 0.950 . S
C652 C653 1.327 . S
C653 H647 0.950 . S
C653 C652 1.327 . S
C653 C657 1.429 . S
C654 C637 1.574 . S
C654 H648 0.949 . S
C654 C658 1.368 . S
C655 C636 1.429 . S
C655 C649 1.429 . S
C655 C656 1.523 . S
C656 C637 1.368 . S
C656 C650 1.368 . S
C656 C655 1.523 . S
C657 C641 1.429 . S
C657 C653 1.429 . S
C657 C658 1.523 . S
C658 C642 1.368 . S
C658 C654 1.368 . S
C658 C657 1.523 . S
H659 C634 0.950 . S
H660 C636 0.950 . S
H661 C637 0.949 . S
H662 C639 0.950 . S
H663 C641 0.950 . S
C664 C665 1.349 . S
C664 C666 1.327 . S
C664 H689 0.950 . S
C665 C664 1.349 . S
C665 C681 1.349 . S
C666 C664 1.327 . S
C666 C685 1.429 . S
C666 H690 0.950 . S
C667 C684 1.575 . S
C667 C686 1.368 . S
C667 H691 0.949 1_565 S
H668 C672 0.949 . S
C669 C670 1.349 1_545 S
C669 C671 1.327 . S
C669 H692 0.950 . S
C670 C669 1.349 1_565 S
C670 C682 1.349 . S
C671 C669 1.327 . S
C671 C687 1.429 1_545 S
C671 H693 0.950 . S
C672 H668 0.949 . S
C672 C680 1.574 . S
C672 C688 1.368 . S
H673 C681 0.970 . S
H674 C679 0.950 1_545 S
H675 C680 0.949 . S
H676 C682 0.950 . S
H677 C683 0.950 . S
H678 C684 0.936 1_545 S
C679 H674 0.950 1_565 S
C679 C681 1.327 . S
C679 C685 1.429 . S
C680 C672 1.574 . S
C680 H675 0.949 . S
C680 C686 1.368 . S
C681 C665 1.349 . S
C681 H673 0.970 . S
C681 C679 1.327 . S
C682 C670 1.349 . S
C682 H676 0.950 . S
C682 C683 1.327 . S
C683 H677 0.950 . S
C683 C682 1.327 . S
C683 C687 1.429 . S
C684 C667 1.575 . S
C684 H678 0.936 1_565 S
C684 C688 1.381 . S
C685 C666 1.429 . S
C685 C679 1.429 . S
C685 C686 1.523 . S
C686 C667 1.368 . S
C686 C680 1.368 . S
C686 C685 1.523 . S
C687 C671 1.429 1_565 S
C687 C683 1.429 . S
C687 C688 1.523 . S
C688 C672 1.368 . S
C688 C684 1.381 . S
C688 C687 1.523 . S
H689 C664 0.950 . S
H690 C666 0.950 . S
H691 C667 0.949 1_545 S
H692 C669 0.950 . S
H693 C671 0.950 . S
C694 C695 1.349 . S
C694 C696 1.327 . S
C694 H719 0.950 . S
C695 C694 1.349 . S
C695 C711 1.349 . S
C696 C694 1.327 . S
C696 C715 1.429 . S
C696 H720 0.950 . S
C697 C714 1.574 . S
C697 C716 1.368 . S
C697 H721 0.949 . S
H698 C702 0.949 . S
C699 C700 1.349 . S
C699 C701 1.327 . S
C699 H722 0.950 . S
C700 C699 1.349 . S
C700 C712 1.349 . S
C701 C699 1.327 . S
C701 C717 1.429 . S
C701 H723 0.950 . S
C702 H698 0.949 . S
C702 C710 1.574 . S
C702 C718 1.368 . S
H703 C711 0.950 . S
H704 C709 0.950 . S
H705 C710 0.949 . S
H706 C712 0.950 . S
H707 C713 0.950 . S
H708 C714 0.949 . S
C709 H704 0.950 . S
C709 C711 1.327 . S
C709 C715 1.429 . S
C710 C702 1.574 . S
C710 H705 0.949 . S
C710 C716 1.368 . S
C711 C695 1.349 . S
C711 H703 0.950 . S
C711 C709 1.327 . S
C712 C700 1.349 . S
C712 H706 0.950 . S
C712 C713 1.327 . S
C713 H707 0.950 . S
C713 C712 1.327 . S
C713 C717 1.429 . S
C714 C697 1.574 . S
C714 H708 0.949 . S
C714 C718 1.368 . S
C715 C696 1.429 . S
C715 C709 1.429 . S
C715 C716 1.523 . S
C716 C697 1.368 . S
C716 C710 1.368 . S
C716 C715 1.523 . S
C717 C701 1.429 . S
C717 C713 1.429 . S
C717 C718 1.523 . S
C718 C702 1.368 . S
C718 C714 1.368 . S
C718 C717 1.523 . S
H719 C694 0.950 . S
H720 C696 0.950 . S
H721 C697 0.949 . S
H722 C699 0.950 . S
H723 C701 0.950 . S
C724 C725 1.349 . S
C724 C726 1.327 . S
C724 H749 0.950 . S
C725 C724 1.349 . S
C725 C741 1.349 1_545 S
C726 C724 1.327 . S
C726 C745 1.429 . S
C726 H750 0.950 . S
C727 C744 1.575 . S
C727 C746 1.381 . S
C727 H751 0.936 1_545 S
H728 C732 0.949 . S
C729 C730 1.349 . S
C729 C731 1.327 . S
C729 H752 0.968 . S
C730 C729 1.349 . S
C730 C742 1.349 . S
C731 C729 1.327 . S
C731 C747 1.429 . S
C731 H753 0.950 1_545 S
C732 H728 0.949 . S
C732 C740 1.574 . S
C732 C748 1.368 . S
H733 C741 0.950 . S
H734 C739 0.950 . S
H735 C740 0.949 . S
H736 C742 0.950 . S
H737 C743 0.950 . S
H738 C744 0.949 1_565 S
C739 H734 0.950 . S
C739 C741 1.327 . S
C739 C745 1.429 1_565 S
C740 C732 1.574 . S
C740 H735 0.949 . S
C740 C746 1.368 . S
C741 C725 1.349 1_565 S
C741 H733 0.950 . S
C741 C739 1.327 . S
C742 C730 1.349 . S
C742 H736 0.950 . S
C742 C743 1.327 . S
C743 H737 0.950 . S
C743 C742 1.327 . S
C743 C747 1.429 . S
C744 C727 1.575 . S
C744 H738 0.949 1_545 S
C744 C748 1.368 . S
C745 C726 1.429 . S
C745 C739 1.429 1_545 S
C745 C746 1.523 . S
C746 C727 1.381 . S
C746 C740 1.368 . S
C746 C745 1.523 . S
C747 C731 1.429 . S
C747 C743 1.429 . S
C747 C748 1.523 . S
C748 C732 1.368 . S
C748 C744 1.368 . S
C748 C747 1.523 . S
H749 C724 0.950 . S
H750 C726 0.950 . S
H751 C727 0.936 1_565 S
H752 C729 0.968 . S
H753 C731 0.950 1_565 S
C754 C755 1.349 . S
C754 C756 1.327 . S
C754 H779 0.950 . S
C755 C754 1.349 . S
C755 C771 1.349 . S
C756 C754 1.327 . S
C756 C775 1.429 . S
C756 H780 0.950 . S
C757 C774 1.574 . S
C757 C776 1.368 . S
C757 H781 0.949 . S
H758 C762 0.949 . S
C759 C760 1.349 . S
C759 C761 1.327 . S
C759 H782 0.950 . S
C760 C759 1.349 . S
C760 C772 1.349 . S
C761 C759 1.327 . S
C761 C777 1.429 . S
C761 H783 0.950 . S
C762 H758 0.949 . S
C762 C770 1.574 . S
C762 C778 1.368 . S
H763 C771 0.950 . S
H764 C769 0.950 . S
H765 C770 0.949 . S
H766 C772 0.950 . S
H767 C773 0.950 . S
H768 C774 0.949 . S
C769 H764 0.950 . S
C769 C771 1.327 . S
C769 C775 1.429 . S
C770 C762 1.574 . S
C770 H765 0.949 . S
C770 C776 1.368 . S
C771 C755 1.349 . S
C771 H763 0.950 . S
C771 C769 1.327 . S
C772 C760 1.349 . S
C772 H766 0.950 . S
C772 C773 1.327 . S
C773 H767 0.950 . S
C773 C772 1.327 . S
C773 C777 1.429 . S
C774 C757 1.574 . S
C774 H768 0.949 . S
C774 C778 1.368 . S
C775 C756 1.429 . S
C775 C769 1.429 . S
C775 C776 1.523 . S
C776 C757 1.368 . S
C776 C770 1.368 . S
C776 C775 1.523 . S
C777 C761 1.429 . S
C777 C773 1.429 . S
C777 C778 1.523 . S
C778 C762 1.368 . S
C778 C774 1.368 . S
C778 C777 1.523 . S
H779 C754 0.950 . S
H780 C756 0.950 . S
H781 C757 0.949 . S
H782 C759 0.950 . S
H783 C761 0.950 . S
C784 C785 1.349 . S
C784 C786 1.327 . S
C784 H809 0.950 . S
C785 C784 1.349 . S
C785 C801 1.349 . S
C786 C784 1.327 . S
C786 C805 1.429 . S
C786 H810 0.950 . S
C787 C804 1.574 . S
C787 C806 1.368 . S
C787 H811 0.949 . S
H788 C792 0.949 . S
C789 C790 1.349 . S
C789 C791 1.327 . S
C789 H812 0.950 . S
C790 C789 1.349 . S
C790 C802 1.349 . S
C791 C789 1.327 . S
C791 C807 1.429 . S
C791 H813 0.950 . S
C792 H788 0.949 . S
C792 C800 1.574 . S
C792 C808 1.368 . S
H793 C801 0.950 . S
H794 C799 0.950 . S
H795 C800 0.949 . S
H796 C802 0.950 . S
H797 C803 0.950 . S
H798 C804 0.949 . S
C799 H794 0.950 . S
C799 C801 1.327 . S
C799 C805 1.429 . S
C800 C792 1.574 . S
C800 H795 0.949 . S
C800 C806 1.368 . S
C801 C785 1.349 . S
C801 H793 0.950 . S
C801 C799 1.327 . S
C802 C790 1.349 . S
C802 H796 0.950 . S
C802 C803 1.327 . S
C803 H797 0.950 . S
C803 C802 1.327 . S
C803 C807 1.429 . S
C804 C787 1.574 . S
C804 H798 0.949 . S
C804 C808 1.368 . S
C805 C786 1.429 . S
C805 C799 1.429 . S
C805 C806 1.523 . S
C806 C787 1.368 . S
C806 C800 1.368 . S
C806 C805 1.523 . S
C807 C791 1.429 . S
C807 C803 1.429 . S
C807 C808 1.523 . S
C808 C792 1.368 . S
C808 C804 1.368 . S
C808 C807 1.523 . S
H809 C784 0.950 . S
H810 C786 0.950 . S
H811 C787 0.949 . S
H812 C789 0.950 . S
H813 C791 0.950 . S
C814 C815 1.349 . S
C814 C816 1.327 . S
C814 H839 0.950 . S
C815 C814 1.349 . S
C815 C831 1.349 1_565 S
C816 C814 1.327 . S
C816 C835 1.429 . S
C816 H840 0.950 . S
C817 C834 1.574 . S
C817 C836 1.368 1_545 S
C817 H841 0.949 . S
H818 C822 0.949 . S
C819 C820 1.349 1_545 S
C819 C821 1.327 . S
C819 H842 0.950 . S
C820 C819 1.349 1_565 S
C820 C832 1.349 . S
C821 C819 1.327 . S
C821 C837 1.429 1_545 S
C821 H843 0.950 . S
C822 H818 0.949 . S
C822 C830 1.574 . S
C822 C838 1.368 . S
H823 C831 0.950 . S
H824 C829 0.950 . S
H825 C830 0.949 . S
H826 C832 0.950 . S
H827 C833 0.950 . S
H828 C834 0.949 . S
C829 H824 0.950 . S
C829 C831 1.327 . S
C829 C835 1.429 1_545 S
C830 C822 1.574 . S
C830 H825 0.949 . S
C830 C836 1.368 . S
C831 C815 1.349 1_545 S
C831 H823 0.950 . S
C831 C829 1.327 . S
C832 C820 1.349 . S
C832 H826 0.950 . S
C832 C833 1.327 . S
C833 H827 0.950 . S
C833 C832 1.327 . S
C833 C837 1.429 . S
C834 C817 1.574 . S
C834 H828 0.949 . S
C834 C838 1.368 1_545 S
C835 C816 1.429 . S
C835 C829 1.429 1_565 S
C835 C836 1.523 . S
C836 C817 1.368 1_565 S
C836 C830 1.368 . S
C836 C835 1.523 . S
C837 C821 1.429 1_565 S
C837 C833 1.429 . S
C837 C838 1.523 . S
C838 C822 1.368 . S
C838 C834 1.368 1_565 S
C838 C837 1.523 . S
H839 C814 0.950 . S
H840 C816 0.950 . S
H841 C817 0.949 . S
H842 C819 0.950 . S
H843 C821 0.950 . S
C844 C845 1.349 . S
C844 C846 1.327 . S
C844 H869 0.950 . S
C845 C844 1.349 . S
C845 C861 1.349 . S
C846 C844 1.327 . S
C846 C865 1.429 . S
C846 H870 0.950 . S
C847 C864 1.574 . S
C847 C866 1.368 . S
C847 H871 0.949 . S
H848 C852 0.949 . S
C849 C850 1.349 . S
C849 C851 1.327 . S
C849 H872 0.950 . S
C850 C849 1.349 . S
C850 C862 1.349 . S
C851 C849 1.327 . S
C851 C867 1.429 . S
C851 H873 0.950 . S
C852 H848 0.949 . S
C852 C860 1.574 . S
C852 C868 1.368 . S
H853 C861 0.950 . S
H854 C859 0.950 . S
H855 C860 0.949 . S
H856 C862 0.950 . S
H857 C863 0.950 . S
H858 C864 0.949 . S
C859 H854 0.950 . S
C859 C861 1.327 . S
C859 C865 1.429 . S
C860 C852 1.574 . S
C860 H855 0.949 . S
C860 C866 1.368 . S
C861 C845 1.349 . S
C861 H853 0.950 . S
C861 C859 1.327 . S
C862 C850 1.349 . S
C862 H856 0.950 . S
C862 C863 1.327 . S
C863 H857 0.950 . S
C863 C862 1.327 . S
C863 C867 1.429 . S
C864 C847 1.574 . S
C864 H858 0.949 . S
C864 C868 1.368 . S
C865 C846 1.429 . S
C865 C859 1.429 . S
C865 C866 1.523 . S
C866 C847 1.368 . S
C866 C860 1.368 . S
C866 C865 1.523 . S
C867 C851 1.429 . S
C867 C863 1.429 . S
C867 C868 1.523 . S
C868 C852 1.368 . S
C868 C864 1.368 . S
C868 C867 1.523 . S
H869 C844 0.950 . S
H870 C846 0.950 . S
H871 C847 0.949 . S
H872 C849 0.950 . S
H873 C851 0.950 . S
C874 C875 1.349 . S
C874 C876 1.327 . S
C874 H899 0.950 . S
C875 C874 1.349 . S
C875 C891 1.349 1_545 S
C876 C874 1.327 . S
C876 C895 1.429 . S
C876 H900 0.950 . S
C877 C894 1.574 . S
C877 C896 1.368 1_565 S
C877 H901 0.949 . S
H878 C882 0.949 . S
C879 C880 1.349 1_565 S
C879 C881 1.327 . S
C879 H902 0.950 . S
C880 C879 1.349 1_545 S
C880 C892 1.349 . S
C881 C879 1.327 . S
C881 C897 1.429 1_565 S
C881 H903 0.950 . S
C882 H878 0.949 . S
C882 C890 1.574 . S
C882 C898 1.368 . S
H883 C891 0.950 . S
H884 C889 0.950 . S
H885 C890 0.949 . S
H886 C892 0.950 . S
H887 C893 0.950 . S
H888 C894 0.949 . S
C889 H884 0.950 . S
C889 C891 1.327 . S
C889 C895 1.429 1_565 S
C890 C882 1.574 . S
C890 H885 0.949 . S
C890 C896 1.368 . S
C891 C875 1.349 1_565 S
C891 H883 0.950 . S
C891 C889 1.327 . S
C892 C880 1.349 . S
C892 H886 0.950 . S
C892 C893 1.327 . S
C893 H887 0.950 . S
C893 C892 1.327 . S
C893 C897 1.429 . S
C894 C877 1.574 . S
C894 H888 0.949 . S
C894 C898 1.368 1_565 S
C895 C876 1.429 . S
C895 C889 1.429 1_545 S
C895 C896 1.523 . S
C896 C877 1.368 1_545 S
C896 C890 1.368 . S
C896 C895 1.523 . S
C897 C881 1.429 1_545 S
C897 C893 1.429 . S
C897 C898 1.523 . S
C898 C882 1.368 . S
C898 C894 1.368 1_545 S
C898 C897 1.523 . S
H899 C874 0.950 . S
H900 C876 0.950 . S
H901 C877 0.949 . S
H902 C879 0.950 . S
H903 C881 0.950 . S
C904 C905 1.349 . S
C904 C906 1.327 . S
C904 H929 0.950 . S
C905 C904 1.349 . S
C905 C921 1.349 . S
C906 C904 1.327 . S
C906 C925 1.429 . S
C906 H930 0.950 . S
C907 C924 1.574 . S
C907 C926 1.368 . S
C907 H931 0.949 . S
H908 C912 0.949 . S
C909 C910 1.349 . S
C909 C911 1.327 . S
C909 H932 0.950 . S
C910 C909 1.349 . S
C910 C922 1.349 . S
C911 C909 1.327 . S
C911 C927 1.429 . S
C911 H933 0.950 . S
C912 H908 0.949 . S
C912 C920 1.574 . S
C912 C928 1.368 . S
H913 C921 0.950 . S
H914 C919 0.950 . S
H915 C920 0.949 . S
H916 C922 0.950 . S
H917 C923 0.950 . S
H918 C924 0.949 . S
C919 H914 0.950 . S
C919 C921 1.327 . S
C919 C925 1.429 . S
C920 C912 1.574 . S
C920 H915 0.949 . S
C920 C926 1.368 . S
C921 C905 1.349 . S
C921 H913 0.950 . S
C921 C919 1.327 . S
C922 C910 1.349 . S
C922 H916 0.950 . S
C922 C923 1.327 . S
C923 H917 0.950 . S
C923 C922 1.327 . S
C923 C927 1.429 . S
C924 C907 1.574 . S
C924 H918 0.949 . S
C924 C928 1.368 . S
C925 C906 1.429 . S
C925 C919 1.429 . S
C925 C926 1.523 . S
C926 C907 1.368 . S
C926 C920 1.368 . S
C926 C925 1.523 . S
C927 C911 1.429 . S
C927 C923 1.429 . S
C927 C928 1.523 . S
C928 C912 1.368 . S
C928 C924 1.368 . S
C928 C927 1.523 . S
H929 C904 0.950 . S
H930 C906 0.950 . S
H931 C907 0.949 . S
H932 C909 0.950 . S
H933 C911 0.950 . S
C934 C935 1.349 . S
C934 C936 1.327 . S
C934 H959 0.950 . S
C935 C934 1.349 . S
C935 C951 1.349 1_545 S
C936 C934 1.327 . S
C936 C955 1.429 . S
C936 H960 0.950 . S
C937 C954 1.574 . S
C937 C956 1.368 1_565 S
C937 H961 0.949 . S
H938 C942 0.949 . S
C939 C940 1.349 1_565 S
C939 C941 1.327 . S
C939 H962 0.950 . S
C940 C939 1.349 1_545 S
C940 C952 1.349 . S
C941 C939 1.327 . S
C941 C957 1.429 1_565 S
C941 H963 0.950 . S
C942 H938 0.949 . S
C942 C950 1.574 . S
C942 C958 1.368 . S
H943 C951 0.950 . S
H944 C949 0.950 . S
H945 C950 0.949 . S
H946 C952 0.950 . S
H947 C953 0.950 . S
H948 C954 0.949 . S
C949 H944 0.950 . S
C949 C951 1.327 . S
C949 C955 1.429 1_565 S
C950 C942 1.574 . S
C950 H945 0.949 . S
C950 C956 1.368 . S
C951 C935 1.349 1_565 S
C951 H943 0.950 . S
C951 C949 1.327 . S
C952 C940 1.349 . S
C952 H946 0.950 . S
C952 C953 1.327 . S
C953 H947 0.950 . S
C953 C952 1.327 . S
C953 C957 1.429 . S
C954 C937 1.574 . S
C954 H948 0.949 . S
C954 C958 1.368 1_565 S
C955 C936 1.429 . S
C955 C949 1.429 1_545 S
C955 C956 1.523 . S
C956 C937 1.368 1_545 S
C956 C950 1.368 . S
C956 C955 1.523 . S
C957 C941 1.429 1_545 S
C957 C953 1.429 . S
C957 C958 1.523 . S
C958 C942 1.368 . S
C958 C954 1.368 1_545 S
C958 C957 1.523 . S
H959 C934 0.950 . S
H960 C936 0.950 . S
H961 C937 0.949 . S
H962 C939 0.950 . S
H963 C941 0.950 . S
C964 C965 1.349 . S
C964 C966 1.327 . S
C964 H989 0.950 . S
C965 C964 1.349 . S
C965 C981 1.349 . S
C966 C964 1.327 . S
C966 C985 1.429 . S
C966 H990 0.950 . S
C967 C984 1.574 . S
C967 C986 1.368 . S
C967 H991 0.949 . S
H968 C972 0.949 . S
C969 C970 1.349 . S
C969 C971 1.327 . S
C969 H992 0.950 . S
C970 C969 1.349 . S
C970 C982 1.349 . S
C971 C969 1.327 . S
C971 C987 1.429 . S
C971 H993 0.950 . S
C972 H968 0.949 . S
C972 C980 1.574 . S
C972 C988 1.368 . S
H973 C981 0.950 . S
H974 C979 0.950 . S
H975 C980 0.949 . S
H976 C982 0.950 . S
H977 C983 0.950 . S
H978 C984 0.949 . S
C979 H974 0.950 . S
C979 C981 1.327 . S
C979 C985 1.429 . S
C980 C972 1.574 . S
C980 H975 0.949 . S
C980 C986 1.368 . S
C981 C965 1.349 . S
C981 H973 0.950 . S
C981 C979 1.327 . S
C982 C970 1.349 . S
C982 H976 0.950 . S
C982 C983 1.327 . S
C983 H977 0.950 . S
C983 C982 1.327 . S
C983 C987 1.429 . S
C984 C967 1.574 . S
C984 H978 0.949 . S
C984 C988 1.368 . S
C985 C966 1.429 . S
C985 C979 1.429 . S
C985 C986 1.523 . S
C986 C967 1.368 . S
C986 C980 1.368 . S
C986 C985 1.523 . S
C987 C971 1.429 . S
C987 C983 1.429 . S
C987 C988 1.523 . S
C988 C972 1.368 . S
C988 C984 1.368 . S
C988 C987 1.523 . S
H989 C964 0.950 . S
H990 C966 0.950 . S
H991 C967 0.949 . S
H992 C969 0.950 . S
H993 C971 0.950 . S
C994 C995 1.349 . S
C994 C996 1.327 . S
C994 H1019 0.950 . S
C995 C994 1.349 . S
C995 C1011 1.349 1_565 S
C996 C994 1.327 . S
C996 C1015 1.429 . S
C996 H1020 0.950 . S
C997 C1014 1.574 . S
C997 C1016 1.368 1_545 S
C997 H1021 0.949 . S
H998 C1002 0.949 . S
C999 C1000 1.349 1_545 S
C999 C1001 1.327 . S
C999 H1022 0.950 . S
C1000 C999 1.349 1_565 S
C1000 C1012 1.349 . S
C1001 C999 1.327 . S
C1001 C1017 1.429 1_545 S
C1001 H1023 0.950 . S
C1002 H998 0.949 . S
C1002 C1010 1.574 . S
C1002 C1018 1.368 . S
H1003 C1011 0.950 . S
H1004 C1009 0.950 . S
H1005 C1010 0.949 . S
H1006 C1012 0.950 . S
H1007 C1013 0.950 . S
H1008 C1014 0.949 . S
C1009 H1004 0.950 . S
C1009 C1011 1.327 . S
C1009 C1015 1.429 1_545 S
C1010 C1002 1.574 . S
C1010 H1005 0.949 . S
C1010 C1016 1.368 . S
C1011 C995 1.349 1_545 S
C1011 H1003 0.950 . S
C1011 C1009 1.327 . S
C1012 C1000 1.349 . S
C1012 H1006 0.950 . S
C1012 C1013 1.327 . S
C1013 H1007 0.950 . S
C1013 C1012 1.327 . S
C1013 C1017 1.429 . S
C1014 C997 1.574 . S
C1014 H1008 0.949 . S
C1014 C1018 1.368 1_545 S
C1015 C996 1.429 . S
C1015 C1009 1.429 1_565 S
C1015 C1016 1.523 . S
C1016 C997 1.368 1_565 S
C1016 C1010 1.368 . S
C1016 C1015 1.523 . S
C1017 C1001 1.429 1_565 S
C1017 C1013 1.429 . S
C1017 C1018 1.523 . S
C1018 C1002 1.368 . S
C1018 C1014 1.368 1_565 S
C1018 C1017 1.523 . S
H1019 C994 0.950 . S
H1020 C996 0.950 . S
H1021 C997 0.949 . S
H1022 C999 0.950 . S
H1023 C1001 0.950 . S
C1024 C1025 1.349 . S
C1024 C1026 1.327 . S
C1024 H1049 0.950 . S
C1025 C1024 1.349 . S
C1025 C1041 1.349 . S
C1026 C1024 1.327 . S
C1026 C1045 1.429 . S
C1026 H1050 0.950 . S
C1027 C1044 1.574 . S
C1027 C1046 1.368 . S
C1027 H1051 0.949 . S
H1028 C1032 0.949 . S
C1029 C1030 1.349 . S
C1029 C1031 1.327 . S
C1029 H1052 0.950 . S
C1030 C1029 1.349 . S
C1030 C1042 1.349 . S
C1031 C1029 1.327 . S
C1031 C1047 1.429 . S
C1031 H1053 0.950 . S
C1032 H1028 0.949 . S
C1032 C1040 1.574 . S
C1032 C1048 1.368 . S
H1033 C1041 0.950 . S
H1034 C1039 0.950 . S
H1035 C1040 0.949 . S
H1036 C1042 0.950 . S
H1037 C1043 0.950 . S
H1038 C1044 0.949 . S
C1039 H1034 0.950 . S
C1039 C1041 1.327 . S
C1039 C1045 1.429 . S
C1040 C1032 1.574 . S
C1040 H1035 0.949 . S
C1040 C1046 1.368 . S
C1041 C1025 1.349 . S
C1041 H1033 0.950 . S
C1041 C1039 1.327 . S
C1042 C1030 1.349 . S
C1042 H1036 0.950 . S
C1042 C1043 1.327 . S
C1043 H1037 0.950 . S
C1043 C1042 1.327 . S
C1043 C1047 1.429 . S
C1044 C1027 1.574 . S
C1044 H1038 0.949 . S
C1044 C1048 1.368 . S
C1045 C1026 1.429 . S
C1045 C1039 1.429 . S
C1045 C1046 1.523 . S
C1046 C1027 1.368 . S
C1046 C1040 1.368 . S
C1046 C1045 1.523 . S
C1047 C1031 1.429 . S
C1047 C1043 1.429 . S
C1047 C1048 1.523 . S
C1048 C1032 1.368 . S
C1048 C1044 1.368 . S
C1048 C1047 1.523 . S
H1049 C1024 0.950 . S
H1050 C1026 0.950 . S
H1051 C1027 0.949 . S
H1052 C1029 0.950 . S
H1053 C1031 0.950 . S
C1054 C1055 1.349 . S
C1054 C1056 1.327 . S
C1054 H1079 0.950 . S
C1055 C1054 1.349 . S
C1055 C1071 1.349 . S
C1056 C1054 1.327 . S
C1056 C1075 1.429 . S
C1056 H1080 0.950 . S
C1057 C1074 1.574 . S
C1057 C1076 1.368 . S
C1057 H1081 0.949 . S
H1058 C1062 0.949 . S
C1059 C1060 1.349 . S
C1059 C1061 1.327 . S
C1059 H1082 0.950 . S
C1060 C1059 1.349 . S
C1060 C1072 1.349 . S
C1061 C1059 1.327 . S
C1061 C1077 1.429 . S
C1061 H1083 0.950 . S
C1062 H1058 0.949 . S
C1062 C1070 1.574 . S
C1062 C1078 1.368 . S
H1063 C1071 0.950 . S
H1064 C1069 0.950 . S
H1065 C1070 0.949 . S
H1066 C1072 0.950 . S
H1067 C1073 0.950 . S
H1068 C1074 0.949 . S
C1069 H1064 0.950 . S
C1069 C1071 1.327 . S
C1069 C1075 1.429 . S
C1070 C1062 1.574 . S
C1070 H1065 0.949 . S
C1070 C1076 1.368 . S
C1071 C1055 1.349 . S
C1071 H1063 0.950 . S
C1071 C1069 1.327 . S
C1072 C1060 1.349 . S
C1072 H1066 0.950 . S
C1072 C1073 1.327 . S
C1073 H1067 0.950 . S
C1073 C1072 1.327 . S
C1073 C1077 1.429 . S
C1074 C1057 1.574 . S
C1074 H1068 0.949 . S
C1074 C1078 1.368 . S
C1075 C1056 1.429 . S
C1075 C1069 1.429 . S
C1075 C1076 1.523 . S
C1076 C1057 1.368 . S
C1076 C1070 1.368 . S
C1076 C1075 1.523 . S
C1077 C1061 1.429 . S
C1077 C1073 1.429 . S
C1077 C1078 1.523 . S
C1078 C1062 1.368 . S
C1078 C1074 1.368 . S
C1078 C1077 1.523 . S
H1079 C1054 0.950 . S
H1080 C1056 0.950 . S
H1081 C1057 0.949 . S
H1082 C1059 0.950 . S
H1083 C1061 0.950 . S
C1084 C1085 1.349 . S
C1084 C1086 1.327 . S
C1084 H1109 0.950 . S
C1085 C1084 1.349 . S
C1085 C1101 1.349 . S
C1086 C1084 1.327 . S
C1086 C1105 1.429 . S
C1086 H1110 0.950 . S
C1087 C1104 1.574 . S
C1087 C1106 1.368 . S
C1087 H1111 0.949 . S
H1088 C1092 0.949 . S
C1089 C1090 1.349 . S
C1089 C1091 1.327 . S
C1089 H1112 0.950 . S
C1090 C1089 1.349 . S
C1090 C1102 1.349 . S
C1091 C1089 1.327 . S
C1091 C1107 1.429 . S
C1091 H1113 0.950 . S
C1092 H1088 0.949 . S
C1092 C1100 1.574 . S
C1092 C1108 1.368 . S
H1093 C1101 0.950 . S
H1094 C1099 0.950 . S
H1095 C1100 0.949 . S
H1096 C1102 0.950 . S
H1097 C1103 0.950 . S
H1098 C1104 0.949 . S
C1099 H1094 0.950 . S
C1099 C1101 1.327 . S
C1099 C1105 1.429 . S
C1100 C1092 1.574 . S
C1100 H1095 0.949 . S
C1100 C1106 1.368 . S
C1101 C1085 1.349 . S
C1101 H1093 0.950 . S
C1101 C1099 1.327 . S
C1102 C1090 1.349 . S
C1102 H1096 0.950 . S
C1102 C1103 1.327 . S
C1103 H1097 0.950 . S
C1103 C1102 1.327 . S
C1103 C1107 1.429 . S
C1104 C1087 1.574 . S
C1104 H1098 0.949 . S
C1104 C1108 1.368 . S
C1105 C1086 1.429 . S
C1105 C1099 1.429 . S
C1105 C1106 1.523 . S
C1106 C1087 1.368 . S
C1106 C1100 1.368 . S
C1106 C1105 1.523 . S
C1107 C1091 1.429 . S
C1107 C1103 1.429 . S
C1107 C1108 1.523 . S
C1108 C1092 1.368 . S
C1108 C1104 1.368 . S
C1108 C1107 1.523 . S
H1109 C1084 0.950 . S
H1110 C1086 0.950 . S
H1111 C1087 0.949 . S
H1112 C1089 0.950 . S
H1113 C1091 0.950 . S
C1114 C1115 1.349 . S
C1114 C1116 1.327 . S
C1114 H1139 0.950 . S
C1115 C1114 1.349 . S
C1115 C1131 1.349 . S
C1116 C1114 1.327 . S
C1116 C1135 1.429 . S
C1116 H1140 0.950 . S
C1117 C1134 1.574 . S
C1117 C1136 1.368 1_655 S
C1117 H1141 0.949 . S
H1118 C1122 0.949 . S
C1119 C1120 1.349 . S
C1119 C1121 1.327 . S
C1119 H1142 0.950 . S
C1120 C1119 1.349 . S
C1120 C1132 1.349 . S
C1121 C1119 1.327 . S
C1121 C1137 1.429 . S
C1121 H1143 0.950 . S
C1122 H1118 0.949 . S
C1122 C1130 1.574 1_655 S
C1122 C1138 1.368 . S
H1123 C1131 0.950 . S
H1124 C1129 0.950 . S
H1125 C1130 0.949 . S
H1126 C1132 0.950 . S
H1127 C1133 0.950 . S
H1128 C1134 0.949 . S
C1129 H1124 0.950 . S
C1129 C1131 1.327 . S
C1129 C1135 1.429 . S
C1130 C1122 1.574 1_455 S
C1130 H1125 0.949 . S
C1130 C1136 1.368 . S
C1131 C1115 1.349 . S
C1131 H1123 0.950 . S
C1131 C1129 1.327 . S
C1132 C1120 1.349 . S
C1132 H1126 0.950 . S
C1132 C1133 1.327 . S
C1133 H1127 0.950 . S
C1133 C1132 1.327 . S
C1133 C1137 1.429 . S
C1134 C1117 1.574 . S
C1134 H1128 0.949 . S
C1134 C1138 1.368 . S
C1135 C1116 1.429 . S
C1135 C1129 1.429 . S
C1135 C1136 1.523 . S
C1136 C1117 1.368 1_455 S
C1136 C1130 1.368 . S
C1136 C1135 1.523 . S
C1137 C1121 1.429 . S
C1137 C1133 1.429 . S
C1137 C1138 1.523 . S
C1138 C1122 1.368 . S
C1138 C1134 1.368 . S
C1138 C1137 1.523 . S
H1139 C1114 0.950 . S
H1140 C1116 0.950 . S
H1141 C1117 0.949 . S
H1142 C1119 0.950 . S
H1143 C1121 0.950 . S
C1144 C1145 1.349 . S
C1144 C1146 1.327 . S
C1144 H1169 0.950 . S
C1145 C1144 1.349 . S
C1145 C1161 1.349 . S
C1146 C1144 1.327 . S
C1146 C1165 1.429 . S
C1146 H1170 0.950 . S
C1147 C1164 1.574 . S
C1147 C1166 1.368 . S
C1147 H1171 0.949 . S
H1148 C1152 0.949 . S
C1149 C1150 1.349 . S
C1149 C1151 1.327 . S
C1149 H1172 0.950 . S
C1150 C1149 1.349 . S
C1150 C1162 1.349 . S
C1151 C1149 1.327 . S
C1151 C1167 1.429 . S
C1151 H1173 0.950 . S
C1152 H1148 0.949 . S
C1152 C1160 1.574 . S
C1152 C1168 1.368 . S
H1153 C1161 0.950 . S
H1154 C1159 0.950 . S
H1155 C1160 0.949 . S
H1156 C1162 0.950 . S
H1157 C1163 0.950 . S
H1158 C1164 0.949 . S
C1159 H1154 0.950 . S
C1159 C1161 1.327 . S
C1159 C1165 1.429 . S
C1160 C1152 1.574 . S
C1160 H1155 0.949 . S
C1160 C1166 1.368 . S
C1161 C1145 1.349 . S
C1161 H1153 0.950 . S
C1161 C1159 1.327 . S
C1162 C1150 1.349 . S
C1162 H1156 0.950 . S
C1162 C1163 1.327 . S
C1163 H1157 0.950 . S
C1163 C1162 1.327 . S
C1163 C1167 1.429 . S
C1164 C1147 1.574 . S
C1164 H1158 0.949 . S
C1164 C1168 1.368 . S
C1165 C1146 1.429 . S
C1165 C1159 1.429 . S
C1165 C1166 1.523 . S
C1166 C1147 1.368 . S
C1166 C1160 1.368 . S
C1166 C1165 1.523 . S
C1167 C1151 1.429 . S
C1167 C1163 1.429 . S
C1167 C1168 1.523 . S
C1168 C1152 1.368 . S
C1168 C1164 1.368 . S
C1168 C1167 1.523 . S
H1169 C1144 0.950 . S
H1170 C1146 0.950 . S
H1171 C1147 0.949 . S
H1172 C1149 0.950 . S
H1173 C1151 0.950 . S
C1174 C1175 1.349 . S
C1174 C1176 1.327 . S
C1174 H1199 0.950 . S
C1175 C1174 1.349 . S
C1175 C1191 1.349 . S
C1176 C1174 1.327 . S
C1176 C1195 1.429 . S
C1176 H1200 0.950 . S
C1177 C1194 1.574 . S
C1177 C1196 1.368 . S
C1177 H1201 0.949 . S
H1178 C1182 0.949 . S
C1179 C1180 1.349 . S
C1179 C1181 1.327 . S
C1179 H1202 0.950 . S
C1180 C1179 1.349 . S
C1180 C1192 1.349 . S
C1181 C1179 1.327 . S
C1181 C1197 1.429 . S
C1181 H1203 0.950 . S
C1182 H1178 0.949 . S
C1182 C1190 1.574 . S
C1182 C1198 1.368 . S
H1183 C1191 0.950 . S
H1184 C1189 0.950 . S
H1185 C1190 0.949 . S
H1186 C1192 0.950 . S
H1187 C1193 0.950 . S
H1188 C1194 0.949 . S
C1189 H1184 0.950 . S
C1189 C1191 1.327 . S
C1189 C1195 1.429 . S
C1190 C1182 1.574 . S
C1190 H1185 0.949 . S
C1190 C1196 1.368 . S
C1191 C1175 1.349 . S
C1191 H1183 0.950 . S
C1191 C1189 1.327 . S
C1192 C1180 1.349 . S
C1192 H1186 0.950 . S
C1192 C1193 1.327 . S
C1193 H1187 0.950 . S
C1193 C1192 1.327 . S
C1193 C1197 1.429 . S
C1194 C1177 1.574 . S
C1194 H1188 0.949 . S
C1194 C1198 1.368 . S
C1195 C1176 1.429 . S
C1195 C1189 1.429 . S
C1195 C1196 1.523 . S
C1196 C1177 1.368 . S
C1196 C1190 1.368 . S
C1196 C1195 1.523 . S
C1197 C1181 1.429 . S
C1197 C1193 1.429 . S
C1197 C1198 1.523 . S
C1198 C1182 1.368 . S
C1198 C1194 1.368 . S
C1198 C1197 1.523 . S
H1199 C1174 0.950 . S
H1200 C1176 0.950 . S
H1201 C1177 0.949 . S
H1202 C1179 0.950 . S
H1203 C1181 0.950 . S
C1204 C1205 1.349 . S
C1204 C1206 1.327 . S
C1204 H1229 0.950 . S
C1205 C1204 1.349 . S
C1205 C1221 1.349 . S
C1206 C1204 1.327 . S
C1206 C1225 1.429 . S
C1206 H1230 0.950 . S
C1207 C1224 1.574 . S
C1207 C1226 1.368 . S
C1207 H1231 0.949 . S
H1208 C1212 0.949 . S
C1209 C1210 1.349 . S
C1209 C1211 1.327 . S
C1209 H1232 0.950 . S
C1210 C1209 1.349 . S
C1210 C1222 1.349 . S
C1211 C1209 1.327 . S
C1211 C1227 1.429 . S
C1211 H1233 0.950 . S
C1212 H1208 0.949 . S
C1212 C1220 1.574 . S
C1212 C1228 1.368 . S
H1213 C1221 0.950 . S
H1214 C1219 0.950 . S
H1215 C1220 0.949 . S
H1216 C1222 0.950 . S
H1217 C1223 0.950 . S
H1218 C1224 0.949 . S
C1219 H1214 0.950 . S
C1219 C1221 1.327 . S
C1219 C1225 1.429 . S
C1220 C1212 1.574 . S
C1220 H1215 0.949 . S
C1220 C1226 1.368 . S
C1221 C1205 1.349 . S
C1221 H1213 0.950 . S
C1221 C1219 1.327 . S
C1222 C1210 1.349 . S
C1222 H1216 0.950 . S
C1222 C1223 1.327 . S
C1223 H1217 0.950 . S
C1223 C1222 1.327 . S
C1223 C1227 1.429 . S
C1224 C1207 1.574 . S
C1224 H1218 0.949 . S
C1224 C1228 1.368 . S
C1225 C1206 1.429 . S
C1225 C1219 1.429 . S
C1225 C1226 1.523 . S
C1226 C1207 1.368 . S
C1226 C1220 1.368 . S
C1226 C1225 1.523 . S
C1227 C1211 1.429 . S
C1227 C1223 1.429 . S
C1227 C1228 1.523 . S
C1228 C1212 1.368 . S
C1228 C1224 1.368 . S
C1228 C1227 1.523 . S
H1229 C1204 0.950 . S
H1230 C1206 0.950 . S
H1231 C1207 0.949 . S
H1232 C1209 0.950 . S
H1233 C1211 0.950 . S
C1234 C1235 1.349 . S
C1234 C1236 1.327 . S
C1234 H1259 0.950 . S
C1235 C1234 1.349 . S
C1235 C1251 1.349 . S
C1236 C1234 1.327 . S
C1236 C1255 1.429 . S
C1236 H1260 0.950 . S
C1237 C1254 1.574 . S
C1237 C1256 1.368 1_455 S
C1237 H1261 0.949 . S
H1238 C1242 0.949 . S
C1239 C1240 1.349 . S
C1239 C1241 1.327 . S
C1239 H1262 0.950 . S
C1240 C1239 1.349 . S
C1240 C1252 1.349 . S
C1241 C1239 1.327 . S
C1241 C1257 1.429 . S
C1241 H1263 0.950 . S
C1242 H1238 0.949 . S
C1242 C1250 1.574 1_455 S
C1242 C1258 1.368 . S
H1243 C1251 0.950 . S
H1244 C1249 0.950 . S
H1245 C1250 0.949 . S
H1246 C1252 0.950 . S
H1247 C1253 0.950 . S
H1248 C1254 0.949 . S
C1249 H1244 0.950 . S
C1249 C1251 1.327 . S
C1249 C1255 1.429 . S
C1250 C1242 1.574 1_655 S
C1250 H1245 0.949 . S
C1250 C1256 1.368 . S
C1251 C1235 1.349 . S
C1251 H1243 0.950 . S
C1251 C1249 1.327 . S
C1252 C1240 1.349 . S
C1252 H1246 0.950 . S
C1252 C1253 1.327 . S
C1253 H1247 0.950 . S
C1253 C1252 1.327 . S
C1253 C1257 1.429 . S
C1254 C1237 1.574 . S
C1254 H1248 0.949 . S
C1254 C1258 1.368 . S
C1255 C1236 1.429 . S
C1255 C1249 1.429 . S
C1255 C1256 1.523 . S
C1256 C1237 1.368 1_655 S
C1256 C1250 1.368 . S
C1256 C1255 1.523 . S
C1257 C1241 1.429 . S
C1257 C1253 1.429 . S
C1257 C1258 1.523 . S
C1258 C1242 1.368 . S
C1258 C1254 1.368 . S
C1258 C1257 1.523 . S
H1259 C1234 0.950 . S
H1260 C1236 0.950 . S
H1261 C1237 0.949 . S
H1262 C1239 0.950 . S
H1263 C1241 0.950 . S
C1264 C1265 1.349 . S
C1264 C1266 1.327 . S
C1264 H1289 0.950 . S
C1265 C1264 1.349 . S
C1265 C1281 1.349 . S
C1266 C1264 1.327 . S
C1266 C1285 1.429 . S
C1266 H1290 0.950 . S
C1267 C1284 1.574 . S
C1267 C1286 1.368 . S
C1267 H1291 0.949 . S
H1268 C1272 0.949 . S
C1269 C1270 1.349 . S
C1269 C1271 1.327 . S
C1269 H1292 0.950 . S
C1270 C1269 1.349 . S
C1270 C1282 1.349 . S
C1271 C1269 1.327 . S
C1271 C1287 1.429 . S
C1271 H1293 0.950 . S
C1272 H1268 0.949 . S
C1272 C1280 1.574 . S
C1272 C1288 1.368 . S
H1273 C1281 0.950 . S
H1274 C1279 0.950 . S
H1275 C1280 0.949 . S
H1276 C1282 0.950 . S
H1277 C1283 0.950 . S
H1278 C1284 0.949 . S
C1279 H1274 0.950 . S
C1279 C1281 1.327 . S
C1279 C1285 1.429 . S
C1280 C1272 1.574 . S
C1280 H1275 0.949 . S
C1280 C1286 1.368 . S
C1281 C1265 1.349 . S
C1281 H1273 0.950 . S
C1281 C1279 1.327 . S
C1282 C1270 1.349 . S
C1282 H1276 0.950 . S
C1282 C1283 1.327 . S
C1283 H1277 0.950 . S
C1283 C1282 1.327 . S
C1283 C1287 1.429 . S
C1284 C1267 1.574 . S
C1284 H1278 0.949 . S
C1284 C1288 1.368 . S
C1285 C1266 1.429 . S
C1285 C1279 1.429 . S
C1285 C1286 1.523 . S
C1286 C1267 1.368 . S
C1286 C1280 1.368 . S
C1286 C1285 1.523 . S
C1287 C1271 1.429 . S
C1287 C1283 1.429 . S
C1287 C1288 1.523 . S
C1288 C1272 1.368 . S
C1288 C1284 1.368 . S
C1288 C1287 1.523 . S
H1289 C1264 0.950 . S
H1290 C1266 0.950 . S
H1291 C1267 0.949 . S
H1292 C1269 0.950 . S
H1293 C1271 0.950 . S
C1294 C1295 1.349 . S
C1294 C1296 1.327 . S
C1294 H1319 0.950 . S
C1295 C1294 1.349 . S
C1295 C1311 1.349 1_565 S
C1296 C1294 1.327 . S
C1296 C1315 1.429 . S
C1296 H1320 0.950 . S
C1297 C1314 1.574 1_455 S
C1297 C1316 1.368 1_545 S
C1297 H1321 0.949 . S
H1298 C1302 0.949 . S
C1299 C1300 1.349 1_545 S
C1299 C1301 1.327 . S
C1299 H1322 0.950 . S
C1300 C1299 1.349 1_565 S
C1300 C1312 1.349 . S
C1301 C1299 1.327 . S
C1301 C1317 1.429 1_545 S
C1301 H1323 0.950 . S
C1302 H1298 0.949 . S
C1302 C1310 1.574 . S
C1302 C1318 1.368 1_455 S
H1303 C1311 0.950 . S
H1304 C1309 0.950 . S
H1305 C1310 0.949 . S
H1306 C1312 0.950 . S
H1307 C1313 0.950 . S
H1308 C1314 0.949 . S
C1309 H1304 0.950 . S
C1309 C1311 1.327 . S
C1309 C1315 1.429 1_545 S
C1310 C1302 1.574 . S
C1310 H1305 0.949 . S
C1310 C1316 1.368 . S
C1311 C1295 1.349 1_545 S
C1311 H1303 0.950 . S
C1311 C1309 1.327 . S
C1312 C1300 1.349 . S
C1312 H1306 0.950 . S
C1312 C1313 1.327 . S
C1313 H1307 0.950 . S
C1313 C1312 1.327 . S
C1313 C1317 1.429 . S
C1314 C1297 1.574 1_655 S
C1314 H1308 0.949 . S
C1314 C1318 1.368 1_545 S
C1315 C1296 1.429 . S
C1315 C1309 1.429 1_565 S
C1315 C1316 1.523 . S
C1316 C1297 1.368 1_565 S
C1316 C1310 1.368 . S
C1316 C1315 1.523 . S
C1317 C1301 1.429 1_565 S
C1317 C1313 1.429 . S
C1317 C1318 1.523 . S
C1318 C1302 1.368 1_655 S
C1318 C1314 1.368 1_565 S
C1318 C1317 1.523 . S
H1319 C1294 0.950 . S
H1320 C1296 0.950 . S
H1321 C1297 0.949 . S
H1322 C1299 0.950 . S
H1323 C1301 0.950 . S
C1324 C1325 1.349 . S
C1324 C1326 1.327 . S
C1324 H1349 0.950 . S
C1325 C1324 1.349 . S
C1325 C1341 1.349 . S
C1326 C1324 1.327 . S
C1326 C1345 1.429 . S
C1326 H1350 0.950 . S
C1327 C1344 1.574 . S
C1327 C1346 1.368 . S
C1327 H1351 0.949 . S
H1328 C1332 0.949 . S
C1329 C1330 1.349 . S
C1329 C1331 1.327 . S
C1329 H1352 0.950 . S
C1330 C1329 1.349 . S
C1330 C1342 1.349 . S
C1331 C1329 1.327 . S
C1331 C1347 1.429 . S
C1331 H1353 0.950 . S
C1332 H1328 0.949 . S
C1332 C1340 1.574 . S
C1332 C1348 1.368 . S
H1333 C1341 0.950 . S
H1334 C1339 0.950 . S
H1335 C1340 0.949 . S
H1336 C1342 0.950 . S
H1337 C1343 0.950 . S
H1338 C1344 0.949 . S
C1339 H1334 0.950 . S
C1339 C1341 1.327 . S
C1339 C1345 1.429 . S
C1340 C1332 1.574 . S
C1340 H1335 0.949 . S
C1340 C1346 1.368 . S
C1341 C1325 1.349 . S
C1341 H1333 0.950 . S
C1341 C1339 1.327 . S
C1342 C1330 1.349 . S
C1342 H1336 0.950 . S
C1342 C1343 1.327 . S
C1343 H1337 0.950 . S
C1343 C1342 1.327 . S
C1343 C1347 1.429 . S
C1344 C1327 1.574 . S
C1344 H1338 0.949 . S
C1344 C1348 1.368 . S
C1345 C1326 1.429 . S
C1345 C1339 1.429 . S
C1345 C1346 1.523 . S
C1346 C1327 1.368 . S
C1346 C1340 1.368 . S
C1346 C1345 1.523 . S
C1347 C1331 1.429 . S
C1347 C1343 1.429 . S
C1347 C1348 1.523 . S
C1348 C1332 1.368 . S
C1348 C1344 1.368 . S
C1348 C1347 1.523 . S
H1349 C1324 0.950 . S
H1350 C1326 0.950 . S
H1351 C1327 0.949 . S
H1352 C1329 0.950 . S
H1353 C1331 0.950 . S
C1354 C1355 1.349 1_565 S
C1354 C1356 1.327 . S
C1354 H1379 0.950 . S
C1355 C1354 1.349 1_545 S
C1355 C1371 1.349 . S
C1356 C1354 1.327 . S
C1356 C1375 1.429 1_565 S
C1356 H1380 0.950 . S
C1357 C1374 1.574 . S
C1357 C1376 1.368 . S
C1357 H1381 0.949 . S
H1358 C1362 0.949 . S
C1359 C1360 1.349 . S
C1359 C1361 1.327 . S
C1359 H1382 0.950 . S
C1360 C1359 1.349 . S
C1360 C1372 1.349 1_545 S
C1361 C1359 1.327 . S
C1361 C1377 1.429 . S
C1361 H1383 0.950 . S
C1362 H1358 0.949 . S
C1362 C1370 1.574 . S
C1362 C1378 1.368 1_565 S
H1363 C1371 0.950 . S
H1364 C1369 0.950 . S
H1365 C1370 0.949 . S
H1366 C1372 0.950 . S
H1367 C1373 0.950 . S
H1368 C1374 0.949 . S
C1369 H1364 0.950 . S
C1369 C1371 1.327 . S
C1369 C1375 1.429 . S
C1370 C1362 1.574 . S
C1370 H1365 0.949 . S
C1370 C1376 1.368 1_565 S
C1371 C1355 1.349 . S
C1371 H1363 0.950 . S
C1371 C1369 1.327 . S
C1372 C1360 1.349 1_565 S
C1372 H1366 0.950 . S
C1372 C1373 1.327 . S
C1373 H1367 0.950 . S
C1373 C1372 1.327 . S
C1373 C1377 1.429 1_565 S
C1374 C1357 1.574 . S
C1374 H1368 0.949 . S
C1374 C1378 1.368 . S
C1375 C1356 1.429 1_545 S
C1375 C1369 1.429 . S
C1375 C1376 1.523 . S
C1376 C1357 1.368 . S
C1376 C1370 1.368 1_545 S
C1376 C1375 1.523 . S
C1377 C1361 1.429 . S
C1377 C1373 1.429 1_545 S
C1377 C1378 1.523 . S
C1378 C1362 1.368 1_545 S
C1378 C1374 1.368 . S
C1378 C1377 1.523 . S
H1379 C1354 0.950 . S
H1380 C1356 0.950 . S
H1381 C1357 0.949 . S
H1382 C1359 0.950 . S
H1383 C1361 0.950 . S
C1384 C1385 1.349 . S
C1384 C1386 1.327 . S
C1384 H1409 0.950 . S
C1385 C1384 1.349 . S
C1385 C1401 1.349 . S
C1386 C1384 1.327 . S
C1386 C1405 1.429 . S
C1386 H1410 0.950 . S
C1387 C1404 1.574 . S
C1387 C1406 1.368 . S
C1387 H1411 0.949 . S
H1388 C1392 0.949 . S
C1389 C1390 1.349 . S
C1389 C1391 1.327 . S
C1389 H1412 0.950 . S
C1390 C1389 1.349 . S
C1390 C1402 1.349 . S
C1391 C1389 1.327 . S
C1391 C1407 1.429 . S
C1391 H1413 0.950 . S
C1392 H1388 0.949 . S
C1392 C1400 1.574 . S
C1392 C1408 1.368 . S
H1393 C1401 0.950 . S
H1394 C1399 0.950 . S
H1395 C1400 0.949 . S
H1396 C1402 0.950 . S
H1397 C1403 0.950 . S
H1398 C1404 0.949 . S
C1399 H1394 0.950 . S
C1399 C1401 1.327 . S
C1399 C1405 1.429 . S
C1400 C1392 1.574 . S
C1400 H1395 0.949 . S
C1400 C1406 1.368 . S
C1401 C1385 1.349 . S
C1401 H1393 0.950 . S
C1401 C1399 1.327 . S
C1402 C1390 1.349 . S
C1402 H1396 0.950 . S
C1402 C1403 1.327 . S
C1403 H1397 0.950 . S
C1403 C1402 1.327 . S
C1403 C1407 1.429 . S
C1404 C1387 1.574 . S
C1404 H1398 0.949 . S
C1404 C1408 1.368 . S
C1405 C1386 1.429 . S
C1405 C1399 1.429 . S
C1405 C1406 1.523 . S
C1406 C1387 1.368 . S
C1406 C1400 1.368 . S
C1406 C1405 1.523 . S
C1407 C1391 1.429 . S
C1407 C1403 1.429 . S
C1407 C1408 1.523 . S
C1408 C1392 1.368 . S
C1408 C1404 1.368 . S
C1408 C1407 1.523 . S
H1409 C1384 0.950 . S
H1410 C1386 0.950 . S
H1411 C1387 0.949 . S
H1412 C1389 0.950 . S
H1413 C1391 0.950 . S
C1414 C1415 1.349 1_565 S
C1414 C1416 1.327 . S
C1414 H1439 0.950 . S
C1415 C1414 1.349 1_545 S
C1415 C1431 1.349 . S
C1416 C1414 1.327 . S
C1416 C1435 1.429 1_565 S
C1416 H1440 0.950 . S
C1417 C1434 1.574 1_655 S
C1417 C1436 1.368 . S
C1417 H1441 0.949 . S
H1418 C1422 0.949 . S
C1419 C1420 1.349 . S
C1419 C1421 1.327 . S
C1419 H1442 0.950 . S
C1420 C1419 1.349 . S
C1420 C1432 1.349 . S
C1421 C1419 1.327 . S
C1421 C1437 1.429 . S
C1421 H1443 0.950 . S
C1422 H1418 0.949 . S
C1422 C1430 1.574 . S
C1422 C1438 1.368 1_665 S
H1423 C1431 0.950 . S
H1424 C1429 0.950 . S
H1425 C1430 0.949 . S
H1426 C1432 0.950 1_565 S
H1427 C1433 0.950 1_565 S
H1428 C1434 0.949 . S
C1429 H1424 0.950 . S
C1429 C1431 1.327 . S
C1429 C1435 1.429 . S
C1430 C1422 1.574 . S
C1430 H1425 0.949 . S
C1430 C1436 1.368 1_565 S
C1431 C1415 1.349 . S
C1431 H1423 0.950 . S
C1431 C1429 1.327 . S
C1432 C1420 1.349 . S
C1432 H1426 0.950 1_545 S
C1432 C1433 1.327 . S
C1433 H1427 0.950 1_545 S
C1433 C1432 1.327 . S
C1433 C1437 1.429 . S
C1434 C1417 1.574 1_455 S
C1434 H1428 0.949 . S
C1434 C1438 1.368 . S
C1435 C1416 1.429 1_545 S
C1435 C1429 1.429 . S
C1435 C1436 1.523 . S
C1436 C1417 1.368 . S
C1436 C1430 1.368 1_545 S
C1436 C1435 1.523 . S
C1437 C1421 1.429 . S
C1437 C1433 1.429 . S
C1437 C1438 1.523 . S
C1438 C1422 1.368 1_445 S
C1438 C1434 1.368 . S
C1438 C1437 1.523 . S
H1439 C1414 0.950 . S
H1440 C1416 0.950 . S
H1441 C1417 0.949 . S
H1442 C1419 0.950 . S
H1443 C1421 0.950 . S
C1444 C1445 1.349 . S
C1444 C1446 1.327 . S
C1444 H1469 0.950 . S
C1445 C1444 1.349 . S
C1445 C1461 1.349 . S
C1446 C1444 1.327 . S
C1446 C1465 1.429 . S
C1446 H1470 0.950 . S
C1447 C1464 1.574 . S
C1447 C1466 1.368 . S
C1447 H1471 0.949 . S
H1448 C1452 0.949 . S
C1449 C1450 1.349 . S
C1449 C1451 1.327 . S
C1449 H1472 0.950 . S
C1450 C1449 1.349 . S
C1450 C1462 1.349 . S
C1451 C1449 1.327 . S
C1451 C1467 1.429 . S
C1451 H1473 0.950 . S
C1452 H1448 0.949 . S
C1452 C1460 1.574 . S
C1452 C1468 1.368 . S
H1453 C1461 0.950 . S
H1454 C1459 0.950 . S
H1455 C1460 0.949 . S
H1456 C1462 0.950 . S
H1457 C1463 0.950 . S
H1458 C1464 0.949 . S
C1459 H1454 0.950 . S
C1459 C1461 1.327 . S
C1459 C1465 1.429 . S
C1460 C1452 1.574 . S
C1460 H1455 0.949 . S
C1460 C1466 1.368 . S
C1461 C1445 1.349 . S
C1461 H1453 0.950 . S
C1461 C1459 1.327 . S
C1462 C1450 1.349 . S
C1462 H1456 0.950 . S
C1462 C1463 1.327 . S
C1463 H1457 0.950 . S
C1463 C1462 1.327 . S
C1463 C1467 1.429 . S
C1464 C1447 1.574 . S
C1464 H1458 0.949 . S
C1464 C1468 1.368 . S
C1465 C1446 1.429 . S
C1465 C1459 1.429 . S
C1465 C1466 1.523 . S
C1466 C1447 1.368 . S
C1466 C1460 1.368 . S
C1466 C1465 1.523 . S
C1467 C1451 1.429 . S
C1467 C1463 1.429 . S
C1467 C1468 1.523 . S
C1468 C1452 1.368 . S
C1468 C1464 1.368 . S
C1468 C1467 1.523 . S
H1469 C1444 0.950 . S
H1470 C1446 0.950 . S
H1471 C1447 0.949 . S
H1472 C1449 0.950 . S
H1473 C1451 0.950 . S
C1474 C1475 1.349 1_545 S
C1474 C1476 1.327 . S
C1474 H1499 0.950 . S
C1475 C1474 1.349 1_565 S
C1475 C1491 1.349 . S
C1476 C1474 1.327 . S
C1476 C1495 1.429 1_545 S
C1476 H1500 0.950 . S
C1477 C1494 1.574 . S
C1477 C1496 1.368 . S
C1477 H1501 0.949 . S
H1478 C1482 0.949 . S
C1479 C1480 1.349 . S
C1479 C1481 1.327 . S
C1479 H1502 0.950 . S
C1480 C1479 1.349 . S
C1480 C1492 1.349 1_565 S
C1481 C1479 1.327 . S
C1481 C1497 1.429 . S
C1481 H1503 0.950 . S
C1482 H1478 0.949 . S
C1482 C1490 1.574 . S
C1482 C1498 1.368 1_545 S
H1483 C1491 0.950 . S
H1484 C1489 0.950 . S
H1485 C1490 0.949 . S
H1486 C1492 0.950 . S
H1487 C1493 0.950 . S
H1488 C1494 0.949 . S
C1489 H1484 0.950 . S
C1489 C1491 1.327 . S
C1489 C1495 1.429 . S
C1490 C1482 1.574 . S
C1490 H1485 0.949 . S
C1490 C1496 1.368 1_545 S
C1491 C1475 1.349 . S
C1491 H1483 0.950 . S
C1491 C1489 1.327 . S
C1492 C1480 1.349 1_545 S
C1492 H1486 0.950 . S
C1492 C1493 1.327 . S
C1493 H1487 0.950 . S
C1493 C1492 1.327 . S
C1493 C1497 1.429 1_545 S
C1494 C1477 1.574 . S
C1494 H1488 0.949 . S
C1494 C1498 1.368 . S
C1495 C1476 1.429 1_565 S
C1495 C1489 1.429 . S
C1495 C1496 1.523 . S
C1496 C1477 1.368 . S
C1496 C1490 1.368 1_565 S
C1496 C1495 1.523 . S
C1497 C1481 1.429 . S
C1497 C1493 1.429 1_565 S
C1497 C1498 1.523 . S
C1498 C1482 1.368 1_565 S
C1498 C1494 1.368 . S
C1498 C1497 1.523 . S
H1499 C1474 0.950 . S
H1500 C1476 0.950 . S
H1501 C1477 0.949 . S
H1502 C1479 0.950 . S
H1503 C1481 0.950 . S
C1504 C1505 1.316 1_554 S
C1504 C1506 1.336 . S
C1504 H1529 0.975 . S
C1505 C1504 1.316 1_556 S
C1505 C1521 1.349 . S
C1506 C1504 1.336 . S
C1506 C1525 1.429 1_554 S
C1506 H1530 0.950 . S
C1507 C1524 1.574 1_565 S
C1507 C1526 1.368 . S
C1507 H1531 0.949 . S
H1508 C1512 0.949 . S
C1509 C1510 1.316 1_556 S
C1509 C1511 1.336 . S
C1509 H1532 0.975 . S
C1510 C1509 1.316 1_554 S
C1510 C1522 1.349 . S
C1511 C1509 1.336 . S
C1511 C1527 1.429 1_556 S
C1511 H1533 0.950 . S
C1512 H1508 0.949 . S
C1512 C1520 1.574 1_545 S
C1512 C1528 1.368 . S
H1513 C1521 0.950 . S
H1514 C1519 0.950 . S
H1515 C1520 0.949 . S
H1516 C1522 0.950 . S
H1517 C1523 0.950 . S
H1518 C1524 0.949 . S
C1519 H1514 0.950 . S
C1519 C1521 1.327 . S
C1519 C1525 1.429 . S
C1520 C1512 1.574 1_565 S
C1520 H1515 0.949 . S
C1520 C1526 1.368 1_554 S
C1521 C1505 1.349 . S
C1521 H1513 0.950 . S
C1521 C1519 1.327 . S
C1522 C1510 1.349 . S
C1522 H1516 0.950 . S
C1522 C1523 1.327 . S
C1523 H1517 0.950 . S
C1523 C1522 1.327 . S
C1523 C1527 1.429 . S
C1524 C1507 1.574 1_545 S
C1524 H1518 0.949 . S
C1524 C1528 1.368 1_556 S
C1525 C1506 1.429 1_556 S
C1525 C1519 1.429 . S
C1525 C1526 1.523 . S
C1526 C1507 1.368 . S
C1526 C1520 1.368 1_556 S
C1526 C1525 1.523 . S
C1527 C1511 1.429 1_554 S
C1527 C1523 1.429 . S
C1527 C1528 1.523 . S
C1528 C1512 1.368 . S
C1528 C1524 1.368 1_554 S
C1528 C1527 1.523 . S
H1529 C1504 0.975 . S
H1530 C1506 0.950 . S
H1531 C1507 0.949 . S
H1532 C1509 0.975 . S
H1533 C1511 0.950 . S
C1534 C1535 1.349 . S
C1534 C1536 1.327 . S
C1534 H1559 0.950 . S
C1535 C1534 1.349 . S
C1535 C1551 1.349 . S
C1536 C1534 1.327 . S
C1536 C1555 1.429 . S
C1536 H1560 0.950 . S
C1537 C1554 1.574 . S
C1537 C1556 1.368 . S
C1537 H1561 0.949 . S
H1538 C1542 0.949 . S
C1539 C1540 1.349 . S
C1539 C1541 1.327 . S
C1539 H1562 0.950 . S
C1540 C1539 1.349 . S
C1540 C1552 1.349 . S
C1541 C1539 1.327 . S
C1541 C1557 1.429 . S
C1541 H1563 0.950 . S
C1542 H1538 0.949 . S
C1542 C1550 1.574 . S
C1542 C1558 1.368 . S
H1543 C1551 0.950 . S
H1544 C1549 0.950 . S
H1545 C1550 0.949 . S
H1546 C1552 0.950 . S
H1547 C1553 0.950 . S
H1548 C1554 0.949 . S
C1549 H1544 0.950 . S
C1549 C1551 1.327 . S
C1549 C1555 1.429 . S
C1550 C1542 1.574 . S
C1550 H1545 0.949 . S
C1550 C1556 1.368 . S
C1551 C1535 1.349 . S
C1551 H1543 0.950 . S
C1551 C1549 1.327 . S
C1552 C1540 1.349 . S
C1552 H1546 0.950 . S
C1552 C1553 1.327 . S
C1553 H1547 0.950 . S
C1553 C1552 1.327 . S
C1553 C1557 1.429 . S
C1554 C1537 1.574 . S
C1554 H1548 0.949 . S
C1554 C1558 1.368 . S
C1555 C1536 1.429 . S
C1555 C1549 1.429 . S
C1555 C1556 1.523 . S
C1556 C1537 1.368 . S
C1556 C1550 1.368 . S
C1556 C1555 1.523 . S
C1557 C1541 1.429 . S
C1557 C1553 1.429 . S
C1557 C1558 1.523 . S
C1558 C1542 1.368 . S
C1558 C1554 1.368 . S
C1558 C1557 1.523 . S
H1559 C1534 0.950 . S
H1560 C1536 0.950 . S
H1561 C1537 0.949 . S
H1562 C1539 0.950 . S
H1563 C1541 0.950 . S
C1564 C1565 1.349 . S
C1564 C1566 1.327 . S
C1564 H1589 0.950 . S
C1565 C1564 1.349 . S
C1565 C1581 1.349 . S
C1566 C1564 1.327 . S
C1566 C1585 1.429 . S
C1566 H1590 0.950 . S
C1567 C1584 1.574 1_645 S
C1567 C1586 1.368 . S
C1567 H1591 0.949 . S
H1568 C1572 0.949 . S
C1569 C1570 1.349 . S
C1569 C1571 1.327 . S
C1569 H1592 0.950 . S
C1570 C1569 1.349 . S
C1570 C1582 1.349 . S
C1571 C1569 1.327 . S
C1571 C1587 1.429 . S
C1571 H1593 0.950 . S
C1572 H1568 0.949 . S
C1572 C1580 1.574 1_465 S
C1572 C1588 1.368 . S
H1573 C1581 0.950 . S
H1574 C1579 0.950 . S
H1575 C1580 0.949 . S
H1576 C1582 0.950 . S
H1577 C1583 0.950 . S
H1578 C1584 0.949 . S
C1579 H1574 0.950 . S
C1579 C1581 1.327 . S
C1579 C1585 1.429 . S
C1580 C1572 1.574 1_645 S
C1580 H1575 0.949 . S
C1580 C1586 1.368 . S
C1581 C1565 1.349 . S
C1581 H1573 0.950 . S
C1581 C1579 1.327 . S
C1582 C1570 1.349 . S
C1582 H1576 0.950 . S
C1582 C1583 1.327 . S
C1583 H1577 0.950 . S
C1583 C1582 1.327 . S
C1583 C1587 1.429 . S
C1584 C1567 1.574 1_465 S
C1584 H1578 0.949 . S
C1584 C1588 1.368 . S
C1585 C1566 1.429 . S
C1585 C1579 1.429 . S
C1585 C1586 1.523 . S
C1586 C1567 1.368 . S
C1586 C1580 1.368 . S
C1586 C1585 1.523 . S
C1587 C1571 1.429 . S
C1587 C1583 1.429 . S
C1587 C1588 1.523 . S
C1588 C1572 1.368 . S
C1588 C1584 1.368 . S
C1588 C1587 1.523 . S
H1589 C1564 0.950 . S
H1590 C1566 0.950 . S
H1591 C1567 0.949 . S
H1592 C1569 0.950 . S
H1593 C1571 0.950 . S
C1594 C1595 1.349 . S
C1594 C1596 1.327 . S
C1594 H1619 0.950 . S
C1595 C1594 1.349 . S
C1595 C1611 1.349 . S
C1596 C1594 1.327 . S
C1596 C1615 1.429 . S
C1596 H1620 0.950 . S
C1597 C1614 1.574 . S
C1597 C1616 1.368 . S
C1597 H1621 0.949 . S
H1598 C1602 0.949 . S
C1599 C1600 1.349 . S
C1599 C1601 1.327 . S
C1599 H1622 0.950 . S
C1600 C1599 1.349 . S
C1600 C1612 1.349 . S
C1601 C1599 1.327 . S
C1601 C1617 1.429 . S
C1601 H1623 0.950 . S
C1602 H1598 0.949 . S
C1602 C1610 1.574 . S
C1602 C1618 1.368 . S
H1603 C1611 0.950 . S
H1604 C1609 0.950 . S
H1605 C1610 0.949 . S
H1606 C1612 0.950 . S
H1607 C1613 0.950 . S
H1608 C1614 0.949 . S
C1609 H1604 0.950 . S
C1609 C1611 1.327 . S
C1609 C1615 1.429 . S
C1610 C1602 1.574 . S
C1610 H1605 0.949 . S
C1610 C1616 1.368 . S
C1611 C1595 1.349 . S
C1611 H1603 0.950 . S
C1611 C1609 1.327 . S
C1612 C1600 1.349 . S
C1612 H1606 0.950 . S
C1612 C1613 1.327 . S
C1613 H1607 0.950 . S
C1613 C1612 1.327 . S
C1613 C1617 1.429 . S
C1614 C1597 1.574 . S
C1614 H1608 0.949 . S
C1614 C1618 1.368 . S
C1615 C1596 1.429 . S
C1615 C1609 1.429 . S
C1615 C1616 1.523 . S
C1616 C1597 1.368 . S
C1616 C1610 1.368 . S
C1616 C1615 1.523 . S
C1617 C1601 1.429 . S
C1617 C1613 1.429 . S
C1617 C1618 1.523 . S
C1618 C1602 1.368 . S
C1618 C1614 1.368 . S
C1618 C1617 1.523 . S
H1619 C1594 0.950 . S
H1620 C1596 0.950 . S
H1621 C1597 0.949 . S
H1622 C1599 0.950 . S
H1623 C1601 0.950 . S
C1624 C1625 1.349 . S
C1624 C1626 1.327 . S
C1624 H1649 0.950 . S
C1625 C1624 1.349 . S
C1625 C1641 1.349 . S
C1626 C1624 1.327 . S
C1626 C1645 1.429 . S
C1626 H1650 0.950 . S
C1627 C1644 1.574 . S
C1627 C1646 1.368 . S
C1627 H1651 0.949 . S
H1628 C1632 0.949 . S
C1629 C1630 1.349 . S
C1629 C1631 1.327 . S
C1629 H1652 0.950 . S
C1630 C1629 1.349 . S
C1630 C1642 1.349 . S
C1631 C1629 1.327 . S
C1631 C1647 1.429 . S
C1631 H1653 0.950 . S
C1632 H1628 0.949 . S
C1632 C1640 1.574 . S
C1632 C1648 1.368 . S
H1633 C1641 0.950 . S
H1634 C1639 0.950 . S
H1635 C1640 0.949 . S
H1636 C1642 0.950 . S
H1637 C1643 0.950 . S
H1638 C1644 0.949 . S
C1639 H1634 0.950 . S
C1639 C1641 1.327 . S
C1639 C1645 1.429 . S
C1640 C1632 1.574 . S
C1640 H1635 0.949 . S
C1640 C1646 1.368 . S
C1641 C1625 1.349 . S
C1641 H1633 0.950 . S
C1641 C1639 1.327 . S
C1642 C1630 1.349 . S
C1642 H1636 0.950 . S
C1642 C1643 1.327 . S
C1643 H1637 0.950 . S
C1643 C1642 1.327 . S
C1643 C1647 1.429 . S
C1644 C1627 1.574 . S
C1644 H1638 0.949 . S
C1644 C1648 1.368 . S
C1645 C1626 1.429 . S
C1645 C1639 1.429 . S
C1645 C1646 1.523 . S
C1646 C1627 1.368 . S
C1646 C1640 1.368 . S
C1646 C1645 1.523 . S
C1647 C1631 1.429 . S
C1647 C1643 1.429 . S
C1647 C1648 1.523 . S
C1648 C1632 1.368 . S
C1648 C1644 1.368 . S
C1648 C1647 1.523 . S
H1649 C1624 0.950 . S
H1650 C1626 0.950 . S
H1651 C1627 0.949 . S
H1652 C1629 0.950 . S
H1653 C1631 0.950 . S
C1654 C1655 1.349 . S
C1654 C1656 1.327 . S
C1654 H1679 0.950 . S
C1655 C1654 1.349 . S
C1655 C1671 1.349 . S
C1656 C1654 1.327 . S
C1656 C1675 1.429 . S
C1656 H1680 0.950 . S
C1657 C1674 1.574 . S
C1657 C1676 1.368 . S
C1657 H1681 0.949 . S
H1658 C1662 0.949 . S
C1659 C1660 1.349 . S
C1659 C1661 1.327 . S
C1659 H1682 0.950 . S
C1660 C1659 1.349 . S
C1660 C1672 1.349 . S
C1661 C1659 1.327 . S
C1661 C1677 1.429 . S
C1661 H1683 0.950 . S
C1662 H1658 0.949 . S
C1662 C1670 1.574 . S
C1662 C1678 1.368 . S
H1663 C1671 0.950 . S
H1664 C1669 0.950 . S
H1665 C1670 0.949 . S
H1666 C1672 0.950 . S
H1667 C1673 0.950 . S
H1668 C1674 0.949 . S
C1669 H1664 0.950 . S
C1669 C1671 1.327 . S
C1669 C1675 1.429 . S
C1670 C1662 1.574 . S
C1670 H1665 0.949 . S
C1670 C1676 1.368 . S
C1671 C1655 1.349 . S
C1671 H1663 0.950 . S
C1671 C1669 1.327 . S
C1672 C1660 1.349 . S
C1672 H1666 0.950 . S
C1672 C1673 1.327 . S
C1673 H1667 0.950 . S
C1673 C1672 1.327 . S
C1673 C1677 1.429 . S
C1674 C1657 1.574 . S
C1674 H1668 0.949 . S
C1674 C1678 1.368 . S
C1675 C1656 1.429 . S
C1675 C1669 1.429 . S
C1675 C1676 1.523 . S
C1676 C1657 1.368 . S
C1676 C1670 1.368 . S
C1676 C1675 1.523 . S
C1677 C1661 1.429 . S
C1677 C1673 1.429 . S
C1677 C1678 1.523 . S
C1678 C1662 1.368 . S
C1678 C1674 1.368 . S
C1678 C1677 1.523 . S
H1679 C1654 0.950 . S
H1680 C1656 0.950 . S
H1681 C1657 0.949 . S
H1682 C1659 0.950 . S
H1683 C1661 0.950 . S
C1684 C1685 1.349 . S
C1684 C1686 1.327 . S
C1684 H1709 0.950 . S
C1685 C1684 1.349 . S
C1685 C1701 1.349 . S
C1686 C1684 1.327 . S
C1686 C1705 1.429 . S
C1686 H1710 0.950 . S
C1687 C1704 1.574 1_655 S
C1687 C1706 1.368 . S
C1687 H1711 0.949 . S
H1688 C1692 0.949 . S
C1689 C1690 1.349 . S
C1689 C1691 1.327 . S
C1689 H1712 0.950 . S
C1690 C1689 1.349 . S
C1690 C1702 1.349 . S
C1691 C1689 1.327 . S
C1691 C1707 1.429 . S
C1691 H1713 0.950 . S
C1692 H1688 0.949 . S
C1692 C1700 1.574 1_455 S
C1692 C1708 1.368 . S
H1693 C1701 0.950 . S
H1694 C1699 0.950 . S
H1695 C1700 0.949 . S
H1696 C1702 0.950 . S
H1697 C1703 0.950 . S
H1698 C1704 0.949 . S
C1699 H1694 0.950 . S
C1699 C1701 1.327 . S
C1699 C1705 1.429 . S
C1700 C1692 1.574 1_655 S
C1700 H1695 0.949 . S
C1700 C1706 1.368 . S
C1701 C1685 1.349 . S
C1701 H1693 0.950 . S
C1701 C1699 1.327 . S
C1702 C1690 1.349 . S
C1702 H1696 0.950 . S
C1702 C1703 1.327 . S
C1703 H1697 0.950 . S
C1703 C1702 1.327 . S
C1703 C1707 1.429 . S
C1704 C1687 1.574 1_455 S
C1704 H1698 0.949 . S
C1704 C1708 1.368 . S
C1705 C1686 1.429 . S
C1705 C1699 1.429 . S
C1705 C1706 1.523 . S
C1706 C1687 1.368 . S
C1706 C1700 1.368 . S
C1706 C1705 1.523 . S
C1707 C1691 1.429 . S
C1707 C1703 1.429 . S
C1707 C1708 1.523 . S
C1708 C1692 1.368 . S
C1708 C1704 1.368 . S
C1708 C1707 1.523 . S
H1709 C1684 0.950 . S
H1710 C1686 0.950 . S
H1711 C1687 0.949 . S
H1712 C1689 0.950 . S
H1713 C1691 0.950 . S
C1714 C1715 1.349 . S
C1714 C1716 1.327 . S
C1714 H1739 0.950 . S
C1715 C1714 1.349 . S
C1715 C1731 1.349 . S
C1716 C1714 1.327 . S
C1716 C1735 1.429 . S
C1716 H1740 0.950 . S
C1717 C1734 1.574 . S
C1717 C1736 1.368 1_556 S
C1717 H1741 0.949 . S
H1718 C1722 0.949 . S
C1719 C1720 1.349 . S
C1719 C1721 1.327 . S
C1719 H1742 0.950 . S
C1720 C1719 1.349 . S
C1720 C1732 1.349 . S
C1721 C1719 1.327 . S
C1721 C1737 1.429 . S
C1721 H1743 0.950 . S
C1722 H1718 0.949 . S
C1722 C1730 1.574 . S
C1722 C1738 1.368 1_554 S
H1723 C1731 0.950 . S
H1724 C1729 0.950 1_556 S
H1725 C1730 0.949 . S
H1726 C1732 0.950 . S
H1727 C1733 0.950 1_554 S
H1728 C1734 0.949 . S
C1729 H1724 0.950 1_554 S
C1729 C1731 1.327 . S
C1729 C1735 1.429 . S
C1730 C1722 1.574 . S
C1730 H1725 0.949 . S
C1730 C1736 1.368 . S
C1731 C1715 1.349 . S
C1731 H1723 0.950 . S
C1731 C1729 1.327 . S
C1732 C1720 1.349 . S
C1732 H1726 0.950 . S
C1732 C1733 1.327 . S
C1733 H1727 0.950 1_556 S
C1733 C1732 1.327 . S
C1733 C1737 1.429 . S
C1734 C1717 1.574 . S
C1734 H1728 0.949 . S
C1734 C1738 1.368 . S
C1735 C1716 1.429 . S
C1735 C1729 1.429 . S
C1735 C1736 1.523 . S
C1736 C1717 1.368 1_554 S
C1736 C1730 1.368 . S
C1736 C1735 1.523 . S
C1737 C1721 1.429 . S
C1737 C1733 1.429 . S
C1737 C1738 1.523 . S
C1738 C1722 1.368 1_556 S
C1738 C1734 1.368 . S
C1738 C1737 1.523 . S
H1739 C1714 0.950 . S
H1740 C1716 0.950 . S
H1741 C1717 0.949 . S
H1742 C1719 0.950 . S
H1743 C1721 0.950 . S
C1744 C1745 1.349 . S
C1744 C1746 1.327 . S
C1744 H1769 0.950 . S
C1745 C1744 1.349 . S
C1745 C1761 1.349 . S
C1746 C1744 1.327 . S
C1746 C1765 1.429 . S
C1746 H1770 0.950 . S
C1747 C1764 1.574 . S
C1747 C1766 1.315 1_554 S
C1747 H1771 0.949 . S
H1748 C1752 0.959 . S
C1749 C1750 1.349 . S
C1749 C1751 1.327 . S
C1749 H1772 0.950 . S
C1750 C1749 1.349 . S
C1750 C1762 1.349 . S
C1751 C1749 1.327 . S
C1751 C1767 1.429 . S
C1751 H1773 0.950 . S
C1752 H1748 0.959 . S
C1752 C1760 1.586 . S
C1752 C1768 1.346 1_556 S
H1753 C1761 0.950 . S
H1754 C1759 0.950 1_554 S
H1755 C1760 0.949 . S
H1756 C1762 0.950 . S
H1757 C1763 0.950 . S
H1758 C1764 0.949 . S
C1759 H1754 0.950 1_556 S
C1759 C1761 1.327 . S
C1759 C1765 1.429 . S
C1760 C1752 1.586 . S
C1760 H1755 0.949 . S
C1760 C1766 1.401 . S
C1761 C1745 1.349 . S
C1761 H1753 0.950 . S
C1761 C1759 1.327 . S
C1762 C1750 1.349 . S
C1762 H1756 0.950 . S
C1762 C1763 1.327 . S
C1763 H1757 0.950 . S
C1763 C1762 1.327 . S
C1763 C1767 1.429 . S
C1764 C1747 1.574 . S
C1764 H1758 0.949 . S
C1764 C1768 1.368 . S
C1765 C1746 1.429 . S
C1765 C1759 1.429 . S
C1765 C1766 1.553 . S
C1766 C1747 1.315 1_556 S
C1766 C1760 1.401 . S
C1766 C1765 1.553 . S
C1767 C1751 1.429 . S
C1767 C1763 1.429 . S
C1767 C1768 1.523 . S
C1768 C1752 1.346 1_554 S
C1768 C1764 1.368 . S
C1768 C1767 1.523 . S
H1769 C1744 0.950 . S
H1770 C1746 0.950 . S
H1771 C1747 0.949 . S
H1772 C1749 0.950 . S
H1773 C1751 0.950 . S
C1774 C1775 1.349 . S
C1774 C1776 1.327 . S
C1774 H1799 0.950 . S
C1775 C1774 1.349 . S
C1775 C1791 1.349 . S
C1776 C1774 1.327 . S
C1776 C1795 1.429 . S
C1776 H1800 0.950 . S
C1777 C1794 1.574 . S
C1777 C1796 1.368 . S
C1777 H1801 0.949 . S
H1778 C1782 0.949 . S
C1779 C1780 1.349 . S
C1779 C1781 1.327 . S
C1779 H1802 0.950 . S
C1780 C1779 1.349 . S
C1780 C1792 1.349 . S
C1781 C1779 1.327 . S
C1781 C1797 1.429 . S
C1781 H1803 0.950 . S
C1782 H1778 0.949 . S
C1782 C1790 1.574 . S
C1782 C1798 1.368 . S
H1783 C1791 0.950 . S
H1784 C1789 0.950 . S
H1785 C1790 0.949 . S
H1786 C1792 0.950 . S
H1787 C1793 0.950 . S
H1788 C1794 0.949 . S
C1789 H1784 0.950 . S
C1789 C1791 1.327 . S
C1789 C1795 1.429 . S
C1790 C1782 1.574 . S
C1790 H1785 0.949 . S
C1790 C1796 1.368 . S
C1791 C1775 1.349 . S
C1791 H1783 0.950 . S
C1791 C1789 1.327 . S
C1792 C1780 1.349 . S
C1792 H1786 0.950 . S
C1792 C1793 1.327 . S
C1793 H1787 0.950 . S
C1793 C1792 1.327 . S
C1793 C1797 1.429 . S
C1794 C1777 1.574 . S
C1794 H1788 0.949 . S
C1794 C1798 1.368 . S
C1795 C1776 1.429 . S
C1795 C1789 1.429 . S
C1795 C1796 1.523 1_455 S
C1796 C1777 1.368 . S
C1796 C1790 1.368 . S
C1796 C1795 1.523 1_655 S
C1797 C1781 1.429 . S
C1797 C1793 1.429 . S
C1797 C1798 1.523 . S
C1798 C1782 1.368 . S
C1798 C1794 1.368 . S
C1798 C1797 1.523 . S
H1799 C1774 0.950 . S
H1800 C1776 0.950 . S
H1801 C1777 0.949 . S
H1802 C1779 0.950 . S
H1803 C1781 0.950 . S
C1804 C1805 1.349 . S
C1804 C1806 1.327 . S
C1804 H1829 0.950 . S
C1805 C1804 1.349 . S
C1805 C1821 1.349 . S
C1806 C1804 1.327 . S
C1806 C1825 1.429 . S
C1806 H1830 0.950 . S
C1807 C1824 1.574 . S
C1807 C1826 1.368 . S
C1807 H1831 0.949 . S
H1808 C1812 0.949 . S
C1809 C1810 1.349 . S
C1809 C1811 1.327 . S
C1809 H1832 0.950 . S
C1810 C1809 1.349 . S
C1810 C1822 1.349 . S
C1811 C1809 1.327 . S
C1811 C1827 1.429 . S
C1811 H1833 0.950 . S
C1812 H1808 0.949 . S
C1812 C1820 1.574 . S
C1812 C1828 1.368 . S
H1813 C1821 0.950 . S
H1814 C1819 0.950 . S
H1815 C1820 0.949 . S
H1816 C1822 0.950 . S
H1817 C1823 0.950 . S
H1818 C1824 0.949 . S
C1819 H1814 0.950 . S
C1819 C1821 1.327 . S
C1819 C1825 1.429 . S
C1820 C1812 1.574 . S
C1820 H1815 0.949 . S
C1820 C1826 1.368 . S
C1821 C1805 1.349 . S
C1821 H1813 0.950 . S
C1821 C1819 1.327 . S
C1822 C1810 1.349 . S
C1822 H1816 0.950 . S
C1822 C1823 1.327 . S
C1823 H1817 0.950 . S
C1823 C1822 1.327 . S
C1823 C1827 1.429 . S
C1824 C1807 1.574 . S
C1824 H1818 0.949 . S
C1824 C1828 1.368 . S
C1825 C1806 1.429 . S
C1825 C1819 1.429 . S
C1825 C1826 1.523 . S
C1826 C1807 1.368 . S
C1826 C1820 1.368 . S
C1826 C1825 1.523 . S
C1827 C1811 1.429 . S
C1827 C1823 1.429 . S
C1827 C1828 1.523 . S
C1828 C1812 1.368 . S
C1828 C1824 1.368 . S
C1828 C1827 1.523 . S
H1829 C1804 0.950 . S
H1830 C1806 0.950 . S
H1831 C1807 0.949 . S
H1832 C1809 0.950 . S
H1833 C1811 0.950 . S
C1834 C1835 1.349 . S
C1834 C1836 1.327 . S
C1834 H1859 0.950 . S
C1835 C1834 1.349 . S
C1835 C1851 1.349 . S
C1836 C1834 1.327 . S
C1836 C1855 1.429 . S
C1836 H1860 0.950 . S
C1837 C1854 1.574 . S
C1837 C1856 1.368 . S
C1837 H1861 0.949 . S
H1838 C1842 0.949 . S
C1839 C1840 1.349 . S
C1839 C1841 1.327 . S
C1839 H1862 0.950 . S
C1840 C1839 1.349 . S
C1840 C1852 1.349 . S
C1841 C1839 1.327 . S
C1841 C1857 1.429 . S
C1841 H1863 0.950 . S
C1842 H1838 0.949 . S
C1842 C1850 1.574 . S
C1842 C1858 1.368 . S
H1843 C1851 0.950 . S
H1844 C1849 0.950 . S
H1845 C1850 0.949 . S
H1846 C1852 0.950 . S
H1847 C1853 0.950 . S
H1848 C1854 0.949 . S
C1849 H1844 0.950 . S
C1849 C1851 1.327 . S
C1849 C1855 1.429 . S
C1850 C1842 1.574 . S
C1850 H1845 0.949 . S
C1850 C1856 1.368 . S
C1851 C1835 1.349 . S
C1851 H1843 0.950 . S
C1851 C1849 1.327 . S
C1852 C1840 1.349 . S
C1852 H1846 0.950 . S
C1852 C1853 1.327 . S
C1853 H1847 0.950 . S
C1853 C1852 1.327 . S
C1853 C1857 1.429 . S
C1854 C1837 1.574 . S
C1854 H1848 0.949 . S
C1854 C1858 1.368 . S
C1855 C1836 1.429 . S
C1855 C1849 1.429 . S
C1855 C1856 1.523 . S
C1856 C1837 1.368 . S
C1856 C1850 1.368 . S
C1856 C1855 1.523 . S
C1857 C1841 1.429 . S
C1857 C1853 1.429 . S
C1857 C1858 1.523 . S
C1858 C1842 1.368 . S
C1858 C1854 1.368 . S
C1858 C1857 1.523 . S
H1859 C1834 0.950 . S
H1860 C1836 0.950 . S
H1861 C1837 0.949 . S
H1862 C1839 0.950 . S
H1863 C1841 0.950 . S
C1864 C1865 1.349 . S
C1864 C1866 1.327 . S
C1864 H1889 0.950 . S
C1865 C1864 1.349 . S
C1865 C1881 1.349 . S
C1866 C1864 1.327 . S
C1866 C1885 1.429 . S
C1866 H1890 0.950 . S
C1867 C1884 1.574 1_556 S
C1867 C1886 1.368 . S
C1867 H1891 0.949 1_556 S
H1868 C1872 0.949 . S
C1869 C1870 1.349 . S
C1869 C1871 1.327 . S
C1869 H1892 0.950 . S
C1870 C1869 1.349 . S
C1870 C1882 1.349 . S
C1871 C1869 1.327 . S
C1871 C1887 1.429 . S
C1871 H1893 0.950 . S
C1872 H1868 0.949 . S
C1872 C1880 1.574 . S
C1872 C1888 1.322 1_556 S
H1873 C1881 0.950 . S
H1874 C1879 0.950 . S
H1875 C1880 0.949 . S
H1876 C1882 0.950 . S
H1877 C1883 0.950 1_556 S
H1878 C1884 0.949 . S
C1879 H1874 0.950 . S
C1879 C1881 1.327 . S
C1879 C1885 1.429 . S
C1880 C1872 1.574 . S
C1880 H1875 0.949 . S
C1880 C1886 1.368 . S
C1881 C1865 1.349 . S
C1881 H1873 0.950 . S
C1881 C1879 1.327 . S
C1882 C1870 1.349 . S
C1882 H1876 0.950 . S
C1882 C1883 1.327 . S
C1883 H1877 0.950 1_554 S
C1883 C1882 1.327 . S
C1883 C1887 1.429 . S
C1884 C1867 1.574 1_554 S
C1884 H1878 0.949 . S
C1884 C1888 1.394 . S
C1885 C1866 1.429 . S
C1885 C1879 1.429 . S
C1885 C1886 1.523 . S
C1886 C1867 1.368 . S
C1886 C1880 1.368 . S
C1886 C1885 1.523 . S
C1887 C1871 1.429 . S
C1887 C1883 1.429 . S
C1887 C1888 1.553 . S
C1888 C1872 1.322 1_554 S
C1888 C1884 1.394 . S
C1888 C1887 1.553 . S
H1889 C1864 0.950 . S
H1890 C1866 0.950 . S
H1891 C1867 0.949 1_554 S
H1892 C1869 0.950 . S
H1893 C1871 0.950 . S
C1894 C1895 1.349 . S
C1894 C1896 1.327 . S
C1894 H1919 0.950 . S
C1895 C1894 1.349 . S
C1895 C1911 1.349 . S
C1896 C1894 1.327 . S
C1896 C1915 1.429 . S
C1896 H1920 0.950 . S
C1897 C1914 1.574 . S
C1897 C1916 1.368 . S
C1897 H1921 0.949 . S
H1898 C1902 0.942 1_655 S
C1899 C1900 1.349 . S
C1899 C1901 1.327 . S
C1899 H1922 0.950 . S
C1900 C1899 1.349 . S
C1900 C1912 1.349 . S
C1901 C1899 1.327 . S
C1901 C1917 1.429 . S
C1901 H1923 0.950 . S
C1902 H1898 0.942 1_455 S
C1902 C1910 1.574 . S
C1902 C1918 1.368 . S
H1903 C1911 0.950 . S
H1904 C1909 0.950 . S
H1905 C1910 0.949 . S
H1906 C1912 0.950 . S
H1907 C1913 0.950 . S
H1908 C1914 0.949 . S
C1909 H1904 0.950 . S
C1909 C1911 1.327 . S
C1909 C1915 1.429 . S
C1910 C1902 1.574 . S
C1910 H1905 0.949 . S
C1910 C1916 1.368 . S
C1911 C1895 1.349 . S
C1911 H1903 0.950 . S
C1911 C1909 1.327 . S
C1912 C1900 1.349 . S
C1912 H1906 0.950 . S
C1912 C1913 1.327 . S
C1913 H1907 0.950 . S
C1913 C1912 1.327 . S
C1913 C1917 1.429 . S
C1914 C1897 1.574 . S
C1914 H1908 0.949 . S
C1914 C1918 1.368 . S
C1915 C1896 1.429 . S
C1915 C1909 1.429 . S
C1915 C1916 1.523 . S
C1916 C1897 1.368 . S
C1916 C1910 1.368 . S
C1916 C1915 1.523 . S
C1917 C1901 1.429 . S
C1917 C1913 1.429 . S
C1917 C1918 1.523 1_655 S
C1918 C1902 1.368 . S
C1918 C1914 1.368 . S
C1918 C1917 1.523 1_455 S
H1919 C1894 0.950 . S
H1920 C1896 0.950 . S
H1921 C1897 0.949 . S
H1922 C1899 0.950 . S
H1923 C1901 0.950 . S
C1924 C1925 1.349 . S
C1924 C1926 1.327 . S
C1924 H1949 0.950 . S
C1925 C1924 1.349 . S
C1925 C1941 1.349 . S
C1926 C1924 1.327 . S
C1926 C1945 1.429 . S
C1926 H1950 0.950 . S
C1927 C1944 1.574 . S
C1927 C1946 1.368 . S
C1927 H1951 0.949 . S
H1928 C1932 0.949 . S
C1929 C1930 1.349 . S
C1929 C1931 1.327 . S
C1929 H1952 0.950 . S
C1930 C1929 1.349 . S
C1930 C1942 1.349 . S
C1931 C1929 1.327 . S
C1931 C1947 1.429 . S
C1931 H1953 0.950 . S
C1932 H1928 0.949 . S
C1932 C1940 1.574 . S
C1932 C1948 1.368 . S
H1933 C1941 0.950 . S
H1934 C1939 0.950 . S
H1935 C1940 0.949 . S
H1936 C1942 0.950 . S
H1937 C1943 0.950 . S
H1938 C1944 0.949 . S
C1939 H1934 0.950 . S
C1939 C1941 1.327 . S
C1939 C1945 1.429 . S
C1940 C1932 1.574 . S
C1940 H1935 0.949 . S
C1940 C1946 1.368 . S
C1941 C1925 1.349 . S
C1941 H1933 0.950 . S
C1941 C1939 1.327 . S
C1942 C1930 1.349 . S
C1942 H1936 0.950 . S
C1942 C1943 1.327 . S
C1943 H1937 0.950 . S
C1943 C1942 1.327 . S
C1943 C1947 1.429 . S
C1944 C1927 1.574 . S
C1944 H1938 0.949 . S
C1944 C1948 1.368 . S
C1945 C1926 1.429 . S
C1945 C1939 1.429 . S
C1945 C1946 1.523 . S
C1946 C1927 1.368 . S
C1946 C1940 1.368 . S
C1946 C1945 1.523 . S
C1947 C1931 1.429 . S
C1947 C1943 1.429 . S
C1947 C1948 1.523 . S
C1948 C1932 1.368 . S
C1948 C1944 1.368 . S
C1948 C1947 1.523 . S
H1949 C1924 0.950 . S
H1950 C1926 0.950 . S
H1951 C1927 0.949 . S
H1952 C1929 0.950 . S
H1953 C1931 0.950 . S
C1954 C1955 1.349 . S
C1954 C1956 1.327 . S
C1954 H1979 0.950 . S
C1955 C1954 1.349 . S
C1955 C1971 1.349 . S
C1956 C1954 1.327 . S
C1956 C1975 1.429 . S
C1956 H1980 0.950 . S
C1957 C1974 1.574 . S
C1957 C1976 1.368 . S
C1957 H1981 0.949 . S
H1958 C1962 0.949 . S
C1959 C1960 1.349 . S
C1959 C1961 1.327 . S
C1959 H1982 0.950 . S
C1960 C1959 1.349 . S
C1960 C1972 1.349 . S
C1961 C1959 1.327 . S
C1961 C1977 1.429 . S
C1961 H1983 0.950 . S
C1962 H1958 0.949 . S
C1962 C1970 1.574 . S
C1962 C1978 1.368 . S
H1963 C1971 0.950 . S
H1964 C1969 0.950 . S
H1965 C1970 0.949 . S
H1966 C1972 0.950 . S
H1967 C1973 0.950 . S
H1968 C1974 0.949 . S
C1969 H1964 0.950 . S
C1969 C1971 1.327 . S
C1969 C1975 1.429 . S
C1970 C1962 1.574 . S
C1970 H1965 0.949 . S
C1970 C1976 1.368 . S
C1971 C1955 1.349 . S
C1971 H1963 0.950 . S
C1971 C1969 1.327 . S
C1972 C1960 1.349 . S
C1972 H1966 0.950 . S
C1972 C1973 1.327 . S
C1973 H1967 0.950 . S
C1973 C1972 1.327 . S
C1973 C1977 1.429 . S
C1974 C1957 1.574 . S
C1974 H1968 0.949 . S
C1974 C1978 1.368 . S
C1975 C1956 1.429 . S
C1975 C1969 1.429 . S
C1975 C1976 1.523 . S
C1976 C1957 1.368 . S
C1976 C1970 1.368 . S
C1976 C1975 1.523 . S
C1977 C1961 1.429 . S
C1977 C1973 1.429 . S
C1977 C1978 1.523 . S
C1978 C1962 1.368 . S
C1978 C1974 1.368 . S
C1978 C1977 1.523 . S
H1979 C1954 0.950 . S
H1980 C1956 0.950 . S
H1981 C1957 0.949 . S
H1982 C1959 0.950 . S
H1983 C1961 0.950 . S
C1984 C1985 1.349 . S
C1984 C1986 1.327 . S
C1984 H2009 0.950 . S
C1985 C1984 1.349 . S
C1985 C2001 1.349 . S
C1986 C1984 1.327 . S
C1986 C2005 1.429 . S
C1986 H2010 0.950 . S
C1987 C2004 1.574 . S
C1987 C2006 1.368 . S
C1987 H2011 0.949 . S
H1988 C1992 0.949 . S
C1989 C1990 1.349 . S
C1989 C1991 1.327 . S
C1989 H2012 0.950 . S
C1990 C1989 1.349 . S
C1990 C2002 1.349 . S
C1991 C1989 1.327 . S
C1991 C2007 1.429 . S
C1991 H2013 0.950 . S
C1992 H1988 0.949 . S
C1992 C2000 1.574 . S
C1992 C2008 1.368 . S
H1993 C2001 0.950 . S
H1994 C1999 0.950 . S
H1995 C2000 0.949 . S
H1996 C2002 0.950 . S
H1997 C2003 0.950 . S
H1998 C2004 0.949 . S
C1999 H1994 0.950 . S
C1999 C2001 1.327 . S
C1999 C2005 1.429 . S
C2000 C1992 1.574 . S
C2000 H1995 0.949 . S
C2000 C2006 1.368 . S
C2001 C1985 1.349 . S
C2001 H1993 0.950 . S
C2001 C1999 1.327 . S
C2002 C1990 1.349 . S
C2002 H1996 0.950 . S
C2002 C2003 1.327 . S
C2003 H1997 0.950 . S
C2003 C2002 1.327 . S
C2003 C2007 1.429 . S
C2004 C1987 1.574 . S
C2004 H1998 0.949 . S
C2004 C2008 1.368 . S
C2005 C1986 1.429 . S
C2005 C1999 1.429 . S
C2005 C2006 1.523 . S
C2006 C1987 1.368 . S
C2006 C2000 1.368 . S
C2006 C2005 1.523 . S
C2007 C1991 1.429 . S
C2007 C2003 1.429 . S
C2007 C2008 1.523 . S
C2008 C1992 1.368 . S
C2008 C2004 1.368 . S
C2008 C2007 1.523 . S
H2009 C1984 0.950 . S
H2010 C1986 0.950 . S
H2011 C1987 0.949 . S
H2012 C1989 0.950 . S
H2013 C1991 0.950 . S
C2014 C2015 1.349 1_565 S
C2014 C2016 1.327 . S
C2014 H2039 0.950 . S
C2015 C2014 1.349 1_545 S
C2015 C2031 1.349 . S
C2016 C2014 1.327 . S
C2016 C2035 1.429 1_565 S
C2016 H2040 0.950 . S
C2017 C2034 1.574 . S
C2017 C2036 1.368 . S
C2017 H2041 0.949 . S
H2018 C2022 0.949 . S
C2019 C2020 1.371 . S
C2019 C2021 1.327 . S
C2019 H2042 0.950 . S
C2020 C2019 1.371 . S
C2020 C2032 1.328 1_545 S
C2021 C2019 1.327 . S
C2021 C2037 1.429 . S
C2021 H2043 0.950 . S
C2022 H2018 0.949 . S
C2022 C2030 1.574 . S
C2022 C2038 1.368 1_565 S
H2023 C2031 0.950 . S
H2024 C2029 0.950 . S
H2025 C2030 0.949 . S
H2026 C2032 0.950 . S
H2027 C2033 0.950 . S
H2028 C2034 0.949 . S
C2029 H2024 0.950 . S
C2029 C2031 1.327 . S
C2029 C2035 1.429 . S
C2030 C2022 1.574 . S
C2030 H2025 0.949 . S
C2030 C2036 1.368 1_565 S
C2031 C2015 1.349 . S
C2031 H2023 0.950 . S
C2031 C2029 1.327 . S
C2032 C2020 1.328 1_565 S
C2032 H2026 0.950 . S
C2032 C2033 1.327 . S
C2033 H2027 0.950 . S
C2033 C2032 1.327 . S
C2033 C2037 1.429 1_565 S
C2034 C2017 1.574 . S
C2034 H2028 0.949 . S
C2034 C2038 1.368 . S
C2035 C2016 1.429 1_545 S
C2035 C2029 1.429 . S
C2035 C2036 1.523 . S
C2036 C2017 1.368 . S
C2036 C2030 1.368 1_545 S
C2036 C2035 1.523 . S
C2037 C2021 1.429 . S
C2037 C2033 1.429 1_545 S
C2037 C2038 1.523 . S
C2038 C2022 1.368 1_545 S
C2038 C2034 1.368 . S
C2038 C2037 1.523 . S
H2039 C2014 0.950 . S
H2040 C2016 0.950 . S
H2041 C2017 0.949 . S
H2042 C2019 0.950 . S
H2043 C2021 0.950 . S
C2044 C2045 1.349 . S
C2044 C2046 1.327 . S
C2044 H2069 0.950 . S
C2045 C2044 1.349 . S
C2045 C2061 1.349 . S
C2046 C2044 1.327 . S
C2046 C2065 1.429 . S
C2046 H2070 0.950 . S
C2047 C2064 1.570 . S
C2047 C2066 1.375 1_556 S
C2047 H2071 0.947 . S
H2048 C2052 0.949 . S
C2049 C2050 1.349 . S
C2049 C2051 1.327 . S
C2049 H2072 0.950 . S
C2050 C2049 1.349 . S
C2050 C2062 1.349 . S
C2051 C2049 1.327 . S
C2051 C2067 1.429 . S
C2051 H2073 0.950 . S
C2052 H2048 0.949 . S
C2052 C2060 1.574 . S
C2052 C2068 1.323 1_554 S
H2053 C2061 0.950 . S
H2054 C2059 0.950 . S
H2055 C2060 0.949 . S
H2056 C2062 0.950 . S
H2057 C2063 0.950 1_554 S
H2058 C2064 0.949 . S
C2059 H2054 0.950 . S
C2059 C2061 1.327 . S
C2059 C2065 1.429 . S
C2060 C2052 1.574 . S
C2060 H2055 0.949 . S
C2060 C2066 1.368 . S
C2061 C2045 1.349 . S
C2061 H2053 0.950 . S
C2061 C2059 1.327 . S
C2062 C2050 1.349 . S
C2062 H2056 0.950 . S
C2062 C2063 1.327 . S
C2063 H2057 0.950 1_556 S
C2063 C2062 1.327 . S
C2063 C2067 1.429 . S
C2064 C2047 1.570 . S
C2064 H2058 0.949 . S
C2064 C2068 1.395 . S
C2065 C2046 1.429 . S
C2065 C2059 1.429 . S
C2065 C2066 1.523 . S
C2066 C2047 1.375 1_554 S
C2066 C2060 1.368 . S
C2066 C2065 1.523 . S
C2067 C2051 1.429 . S
C2067 C2063 1.429 . S
C2067 C2068 1.549 . S
C2068 C2052 1.323 1_556 S
C2068 C2064 1.395 . S
C2068 C2067 1.549 . S
H2069 C2044 0.950 . S
H2070 C2046 0.950 . S
H2071 C2047 0.947 . S
H2072 C2049 0.950 . S
H2073 C2051 0.950 . S
C2074 C2075 1.327 1_545 S
C2074 C2076 1.327 . S
C2074 H2099 0.950 . S
C2075 C2074 1.327 1_565 S
C2075 C2091 1.372 . S
C2076 C2074 1.327 . S
C2076 C2095 1.429 1_545 S
C2076 H2100 0.950 . S
C2077 C2094 1.574 . S
C2077 C2096 1.368 . S
C2077 H2101 0.949 . S
H2078 C2082 0.949 . S
C2079 C2080 1.349 . S
C2079 C2081 1.327 . S
C2079 H2102 0.950 . S
C2080 C2079 1.349 . S
C2080 C2092 1.349 1_565 S
C2081 C2079 1.327 . S
C2081 C2097 1.429 . S
C2081 H2103 0.950 . S
C2082 H2078 0.949 . S
C2082 C2090 1.574 . S
C2082 C2098 1.368 1_545 S
H2083 C2091 0.950 . S
H2084 C2089 0.950 . S
H2085 C2090 0.949 . S
H2086 C2092 0.950 . S
H2087 C2093 0.950 . S
H2088 C2094 0.947 1_655 S
C2089 H2084 0.950 . S
C2089 C2091 1.327 . S
C2089 C2095 1.429 . S
C2090 C2082 1.574 . S
C2090 H2085 0.949 . S
C2090 C2096 1.368 1_545 S
C2091 C2075 1.372 . S
C2091 H2083 0.950 . S
C2091 C2089 1.327 . S
C2092 C2080 1.349 1_545 S
C2092 H2086 0.950 . S
C2092 C2093 1.327 . S
C2093 H2087 0.950 . S
C2093 C2092 1.327 . S
C2093 C2097 1.429 1_545 S
C2094 C2077 1.574 . S
C2094 H2088 0.947 1_455 S
C2094 C2098 1.368 . S
C2095 C2076 1.429 1_565 S
C2095 C2089 1.429 . S
C2095 C2096 1.523 . S
C2096 C2077 1.368 . S
C2096 C2090 1.368 1_565 S
C2096 C2095 1.523 . S
C2097 C2081 1.429 . S
C2097 C2093 1.429 1_565 S
C2097 C2098 1.523 1_655 S
C2098 C2082 1.368 1_565 S
C2098 C2094 1.368 . S
C2098 C2097 1.523 1_455 S
H2099 C2074 0.950 . S
H2100 C2076 0.950 . S
H2101 C2077 0.949 . S
H2102 C2079 0.950 . S
H2103 C2081 0.950 . S
C2104 C2105 1.349 . S
C2104 C2106 1.327 . S
C2104 H2129 0.950 . S
C2105 C2104 1.349 . S
C2105 C2121 1.349 . S
C2106 C2104 1.327 . S
C2106 C2125 1.429 . S
C2106 H2130 0.950 . S
C2107 C2124 1.574 . S
C2107 C2126 1.368 . S
C2107 H2131 0.949 . S
H2108 C2112 0.949 . S
C2109 C2110 1.349 . S
C2109 C2111 1.327 . S
C2109 H2132 0.950 . S
C2110 C2109 1.349 . S
C2110 C2122 1.349 . S
C2111 C2109 1.327 . S
C2111 C2127 1.429 . S
C2111 H2133 0.950 . S
C2112 H2108 0.949 . S
C2112 C2120 1.574 . S
C2112 C2128 1.368 . S
H2113 C2121 0.950 . S
H2114 C2119 0.950 . S
H2115 C2120 0.949 . S
H2116 C2122 0.950 . S
H2117 C2123 0.950 . S
H2118 C2124 0.949 . S
C2119 H2114 0.950 . S
C2119 C2121 1.327 . S
C2119 C2125 1.429 . S
C2120 C2112 1.574 . S
C2120 H2115 0.949 . S
C2120 C2126 1.368 . S
C2121 C2105 1.349 . S
C2121 H2113 0.950 . S
C2121 C2119 1.327 . S
C2122 C2110 1.349 . S
C2122 H2116 0.950 . S
C2122 C2123 1.327 . S
C2123 H2117 0.950 . S
C2123 C2122 1.327 . S
C2123 C2127 1.429 . S
C2124 C2107 1.574 . S
C2124 H2118 0.949 . S
C2124 C2128 1.368 . S
C2125 C2106 1.429 . S
C2125 C2119 1.429 . S
C2125 C2126 1.523 . S
C2126 C2107 1.368 . S
C2126 C2120 1.368 . S
C2126 C2125 1.523 . S
C2127 C2111 1.429 . S
C2127 C2123 1.429 . S
C2127 C2128 1.523 . S
C2128 C2112 1.368 . S
C2128 C2124 1.368 . S
C2128 C2127 1.523 . S
H2129 C2104 0.950 . S
H2130 C2106 0.950 . S
H2131 C2107 0.949 . S
H2132 C2109 0.950 . S
H2133 C2111 0.950 . S
C2134 C2135 1.374 . S
C2134 C2136 1.327 . S
C2134 H2159 0.950 . S
C2135 C2134 1.374 . S
C2135 C2151 1.326 1_565 S
C2136 C2134 1.327 . S
C2136 C2155 1.429 . S
C2136 H2160 0.950 . S
C2137 C2154 1.574 . S
C2137 C2156 1.368 1_545 S
C2137 H2161 0.949 . S
H2138 C2142 0.949 . S
C2139 C2140 1.349 1_545 S
C2139 C2141 1.327 . S
C2139 H2162 0.950 . S
C2140 C2139 1.349 1_565 S
C2140 C2152 1.349 . S
C2141 C2139 1.327 . S
C2141 C2157 1.429 1_545 S
C2141 H2163 0.950 . S
C2142 H2138 0.949 . S
C2142 C2150 1.574 . S
C2142 C2158 1.368 . S
H2143 C2151 0.950 . S
H2144 C2149 0.950 . S
H2145 C2150 0.949 . S
H2146 C2152 0.950 . S
H2147 C2153 0.950 . S
H2148 C2154 0.949 . S
C2149 H2144 0.950 . S
C2149 C2151 1.327 . S
C2149 C2155 1.429 1_545 S
C2150 C2142 1.574 . S
C2150 H2145 0.949 . S
C2150 C2156 1.368 . S
C2151 C2135 1.326 1_545 S
C2151 H2143 0.950 . S
C2151 C2149 1.327 . S
C2152 C2140 1.349 . S
C2152 H2146 0.950 . S
C2152 C2153 1.327 . S
C2153 H2147 0.950 . S
C2153 C2152 1.327 . S
C2153 C2157 1.429 . S
C2154 C2137 1.574 . S
C2154 H2148 0.949 . S
C2154 C2158 1.368 1_545 S
C2155 C2136 1.429 . S
C2155 C2149 1.429 1_565 S
C2155 C2156 1.523 . S
C2156 C2137 1.368 1_565 S
C2156 C2150 1.368 . S
C2156 C2155 1.523 . S
C2157 C2141 1.429 1_565 S
C2157 C2153 1.429 . S
C2157 C2158 1.523 . S
C2158 C2142 1.368 . S
C2158 C2154 1.368 1_565 S
C2158 C2157 1.523 . S
H2159 C2134 0.950 . S
H2160 C2136 0.950 . S
H2161 C2137 0.949 . S
H2162 C2139 0.950 . S
H2163 C2141 0.950 . S
C2164 C2165 1.349 . S
C2164 C2166 1.327 . S
C2164 H2189 0.950 . S
C2165 C2164 1.349 . S
C2165 C2181 1.349 . S
C2166 C2164 1.327 . S
C2166 C2185 1.429 . S
C2166 H2190 0.950 . S
C2167 C2184 1.574 . S
C2167 C2186 1.368 . S
C2167 H2191 0.949 . S
H2168 C2172 0.942 1_554 S
C2169 C2170 1.349 . S
C2169 C2171 1.327 . S
C2169 H2192 0.950 . S
C2170 C2169 1.349 . S
C2170 C2182 1.349 . S
C2171 C2169 1.327 . S
C2171 C2187 1.429 . S
C2171 H2193 0.950 . S
C2172 H2168 0.942 1_556 S
C2172 C2180 1.583 . S
C2172 C2188 1.365 1_556 S
H2173 C2181 0.950 . S
H2174 C2179 0.950 . S
H2175 C2180 0.949 . S
H2176 C2182 0.950 . S
H2177 C2183 0.950 . S
H2178 C2184 0.949 . S
C2179 H2174 0.950 . S
C2179 C2181 1.327 . S
C2179 C2185 1.429 . S
C2180 C2172 1.583 . S
C2180 H2175 0.949 . S
C2180 C2186 1.368 . S
C2181 C2165 1.349 . S
C2181 H2173 0.950 . S
C2181 C2179 1.327 . S
C2182 C2170 1.349 . S
C2182 H2176 0.950 . S
C2182 C2183 1.327 . S
C2183 H2177 0.950 . S
C2183 C2182 1.327 . S
C2183 C2187 1.429 . S
C2184 C2167 1.574 . S
C2184 H2178 0.949 . S
C2184 C2188 1.354 1_556 S
C2185 C2166 1.429 . S
C2185 C2179 1.429 . S
C2185 C2186 1.523 . S
C2186 C2167 1.368 . S
C2186 C2180 1.368 . S
C2186 C2185 1.523 . S
C2187 C2171 1.429 . S
C2187 C2183 1.429 . S
C2187 C2188 1.549 . S
C2188 C2172 1.365 1_554 S
C2188 C2184 1.354 1_554 S
C2188 C2187 1.549 . S
H2189 C2164 0.950 . S
H2190 C2166 0.950 . S
H2191 C2167 0.949 . S
H2192 C2169 0.950 . S
H2193 C2171 0.950 . S
C2194 C2195 1.326 1_565 S
C2194 C2196 1.327 . S
C2194 H2219 0.950 . S
C2195 C2194 1.326 1_545 S
C2195 C2211 1.374 . S
C2196 C2194 1.327 . S
C2196 C2215 1.429 1_565 S
C2196 H2220 0.950 . S
C2197 C2214 1.574 . S
C2197 C2216 1.368 . S
C2197 H2221 0.949 . S
H2198 C2202 0.924 1_455 S
C2199 C2200 1.349 . S
C2199 C2201 1.327 . S
C2199 H2222 0.950 . S
C2200 C2199 1.349 . S
C2200 C2212 1.349 1_545 S
C2201 C2199 1.327 . S
C2201 C2217 1.429 . S
C2201 H2223 0.950 . S
C2202 H2198 0.924 1_655 S
C2202 C2210 1.574 . S
C2202 C2218 1.368 1_565 S
H2203 C2211 0.950 . S
H2204 C2209 0.950 . S
H2205 C2210 0.949 . S
H2206 C2212 0.950 . S
H2207 C2213 0.950 . S
H2208 C2214 0.949 . S
C2209 H2204 0.950 . S
C2209 C2211 1.327 . S
C2209 C2215 1.429 . S
C2210 C2202 1.574 . S
C2210 H2205 0.949 . S
C2210 C2216 1.368 1_565 S
C2211 C2195 1.374 . S
C2211 H2203 0.950 . S
C2211 C2209 1.327 . S
C2212 C2200 1.349 1_565 S
C2212 H2206 0.950 . S
C2212 C2213 1.327 . S
C2213 H2207 0.950 . S
C2213 C2212 1.327 . S
C2213 C2217 1.429 1_565 S
C2214 C2197 1.574 . S
C2214 H2208 0.949 . S
C2214 C2218 1.368 . S
C2215 C2196 1.429 1_545 S
C2215 C2209 1.429 . S
C2215 C2216 1.523 . S
C2216 C2197 1.368 . S
C2216 C2210 1.368 1_545 S
C2216 C2215 1.523 . S
C2217 C2201 1.429 . S
C2217 C2213 1.429 1_545 S
C2217 C2218 1.523 1_455 S
C2218 C2202 1.368 1_545 S
C2218 C2214 1.368 . S
C2218 C2217 1.523 1_655 S
H2219 C2194 0.950 . S
H2220 C2196 0.950 . S
H2221 C2197 0.949 . S
H2222 C2199 0.950 . S
H2223 C2201 0.950 . S
C545 C334 0.986 . S
C550 C6 0.934 1_556 S
C575 C346 0.995 . S
C580 C40 0.994 . S
C605 C402 0.986 . S
C610 C96 0.986 . S
C635 C300 0.995 . S
C640 C108 0.995 . S
C665 C142 0.934 1_554 S
C670 C470 0.985 . S
C695 C482 0.995 . S
C700 C176 0.994 . S
C725 C516 0.986 . S
C730 C210 0.986 . S
C755 C244 0.995 . S
C760 C414 0.995 . S
C785 C62 1.007 . S
C790 C278 1.006 . S
C815 C74 1.008 . S
C820 C312 1.009 . S
C845 C368 0.946 1_556 S
C850 C130 1.007 . S
C875 C28 1.008 . S
C880 C380 1.009 . S
C905 C198 1.007 . S
C910 C436 1.006 . S
C935 C448 1.008 . S
C940 C232 1.009 . S
C965 C504 0.946 1_554 S
C970 C266 1.007 . S
C995 C164 1.008 . S
C1000 C538 1.009 . S
C1025 C253 1.318 . S
C1030 C3 1.248 . S
C1055 C37 1.253 . S
C1060 C430 1.323 . S
C1085 C69 1.248 . S
C1090 C185 1.318 . S
C1115 C498 1.323 . S
C1120 C105 1.253 . S
C1145 C117 1.318 . S
C1150 C139 1.248 . S
C1175 C287 1.323 . S
C1180 C173 1.253 . S
C1205 C49 1.318 . S
C1210 C207 1.248 . S
C1235 C362 1.323 . S
C1240 C241 1.253 . S
C1265 C275 1.288 . S
C1270 C532 1.363 . S
C1295 C309 1.256 . S
C1300 C151 1.326 . S
C1325 C457 1.361 . S
C1330 C341 1.289 . S
C1355 C219 1.326 . S
C1360 C377 1.257 . S
C1385 C409 1.288 . S
C1390 C389 1.363 . S
C1415 C445 1.256 . S
C1420 C15 1.326 . S
C1445 C477 1.288 . S
C1450 C321 1.363 . S
C1475 C511 1.256 . S
C1480 C90 1.326 . S
C1505 C158 0.560 . S
C1510 C22 0.560 . S
C1535 C56 0.574 . S
C1540 C464 0.574 . S
C1565 C226 0.560 . S
C1570 C83 0.560 . S
C1595 C525 0.573 . S
C1600 C124 0.576 . S
C1625 C328 0.573 . S
C1630 C192 0.576 . S
C1655 C260 0.574 . S
C1660 C396 0.574 . S
C1685 C294 0.559 . S
C1690 C423 0.559 . S
C1715 C355 0.559 . S
C1720 C491 0.559 . S
C1745 C479 2.481 . S
C1750 C17 2.593 . S
C1775 C239 2.493 . S
C1780 C51 2.604 . S
C1805 C85 2.593 . S
C1810 C411 2.481 . S
C1835 C171 2.493 . S
C1840 C119 2.604 . S
C1865 C153 2.593 . S
C1870 C343 2.481 . S
C1895 C187 2.604 . S
C1900 C103 2.493 . S
C1925 C221 2.593 . S
C1930 C273 2.481 . S
C1955 C35 2.493 . S
C1960 C255 2.604 . S
C1985 C289 2.619 . S
C1990 C205 2.510 . S
C2015 C513 2.501 . S
C2020 C323 2.611 1_545 S
C2045 C357 2.619 . S
C2050 C137 2.510 . S
C2075 C391 2.611 1_565 S
C2080 C443 2.501 . S
C2105 C71 2.510 . S
C2110 C425 2.619 . S
C2135 C459 2.611 1_565 S
C2140 C375 2.501 . S
C2165 C493 2.619 . S
C2170 C1 2.510 . S
C2195 C527 2.611 1_545 S
C2200 C307 2.501 . S
