# Generated by pormake.
# Topology wjk, (5)-cn, num edge types: 1
# Building blocks:
#     Node 0, Type 0, BuildingBlock: XOMCOT_clean_sbu_0, # of connection points: 5
#     Node 1, Type 0, BuildingBlock: XOMCOT_clean_sbu_0, # of connection points: 5
#     Node 2, Type 0, BuildingBlock: XOMCOT_clean_sbu_0, # of connection points: 5
#     Node 3, Type 0, BuildingBlock: XOMCOT_clean_sbu_0, # of connection points: 5
#     Node 4, Type 0, BuildingBlock: XOMCOT_clean_sbu_0, # of connection points: 5
#     Node 5, Type 0, BuildingBlock: XOMCOT_clean_sbu_0, # of connection points: 5
#     Node 6, Type 0, BuildingBlock: XOMCOT_clean_sbu_0, # of connection points: 5
#     Node 7, Type 0, BuildingBlock: XOMCOT_clean_sbu_0, # of connection points: 5
#     Node 8, Type 0, BuildingBlock: XOMCOT_clean_sbu_0, # of connection points: 5
#     Node 9, Type 0, BuildingBlock: XOMCOT_clean_sbu_0, # of connection points: 5
#     Node 10, Type 0, BuildingBlock: XOMCOT_clean_sbu_0, # of connection points: 5
#     Node 11, Type 0, BuildingBlock: XOMCOT_clean_sbu_0, # of connection points: 5
#     Edge 12, Type (0, 0), BuildingBlock: KIFKEQ_clean_linker_1, # of connection points: 2
#     Edge 13, Type (0, 0), BuildingBlock: KIFKEQ_clean_linker_1, # of connection points: 2
#     Edge 14, Type (0, 0), BuildingBlock: KIFKEQ_clean_linker_1, # of connection points: 2
#     Edge 15, Type (0, 0), BuildingBlock: KIFKEQ_clean_linker_1, # of connection points: 2
#     Edge 16, Type (0, 0), BuildingBlock: KIFKEQ_clean_linker_1, # of connection points: 2
#     Edge 17, Type (0, 0), BuildingBlock: KIFKEQ_clean_linker_1, # of connection points: 2
#     Edge 18, Type (0, 0), BuildingBlock: KIFKEQ_clean_linker_1, # of connection points: 2
#     Edge 19, Type (0, 0), BuildingBlock: KIFKEQ_clean_linker_1, # of connection points: 2
#     Edge 20, Type (0, 0), BuildingBlock: KIFKEQ_clean_linker_1, # of connection points: 2
#     Edge 21, Type (0, 0), BuildingBlock: KIFKEQ_clean_linker_1, # of connection points: 2
#     Edge 22, Type (0, 0), BuildingBlock: KIFKEQ_clean_linker_1, # of connection points: 2
#     Edge 23, Type (0, 0), BuildingBlock: KIFKEQ_clean_linker_1, # of connection points: 2
#     Edge 24, Type (0, 0), BuildingBlock: KIFKEQ_clean_linker_1, # of connection points: 2
#     Edge 25, Type (0, 0), BuildingBlock: KIFKEQ_clean_linker_1, # of connection points: 2
#     Edge 26, Type (0, 0), BuildingBlock: KIFKEQ_clean_linker_1, # of connection points: 2
#     Edge 27, Type (0, 0), BuildingBlock: KIFKEQ_clean_linker_1, # of connection points: 2
#     Edge 28, Type (0, 0), BuildingBlock: KIFKEQ_clean_linker_1, # of connection points: 2
#     Edge 29, Type (0, 0), BuildingBlock: KIFKEQ_clean_linker_1, # of connection points: 2
#     Edge 30, Type (0, 0), BuildingBlock: KIFKEQ_clean_linker_1, # of connection points: 2
#     Edge 31, Type (0, 0), BuildingBlock: KIFKEQ_clean_linker_1, # of connection points: 2
#     Edge 32, Type (0, 0), BuildingBlock: KIFKEQ_clean_linker_1, # of connection points: 2
#     Edge 33, Type (0, 0), BuildingBlock: KIFKEQ_clean_linker_1, # of connection points: 2
#     Edge 34, Type (0, 0), BuildingBlock: KIFKEQ_clean_linker_1, # of connection points: 2
#     Edge 35, Type (0, 0), BuildingBlock: KIFKEQ_clean_linker_1, # of connection points: 2
#     Edge 36, Type (0, 0), BuildingBlock: KIFKEQ_clean_linker_1, # of connection points: 2
#     Edge 37, Type (0, 0), BuildingBlock: KIFKEQ_clean_linker_1, # of connection points: 2
#     Edge 38, Type (0, 0), BuildingBlock: KIFKEQ_clean_linker_1, # of connection points: 2
#     Edge 39, Type (0, 0), BuildingBlock: KIFKEQ_clean_linker_1, # of connection points: 2
#     Edge 40, Type (0, 0), BuildingBlock: KIFKEQ_clean_linker_1, # of connection points: 2
#     Edge 41, Type (0, 0), BuildingBlock: KIFKEQ_clean_linker_1, # of connection points: 2
# Relax obj value: 0.573
# Max RMSD: 0.270
# Mean RMSD: 0.270
data_MOF--net-wjk--node1-XOMCOT_clean_sbu_0--edge1-KIFKEQ_clean_linker_1
_symmetry_space_group_name_H-M    P1
_symmetry_Int_Tables_number       1
_symmetry_cell_setting            triclinic
loop_
_symmetry_equiv_pos_as_xyz
'x, y, z'
_cell_length_a     33.213198
_cell_length_b     33.058151
_cell_length_c     68.921008
_cell_angle_alpha  89.916598
_cell_angle_beta   89.920199
_cell_angle_gamma 120.16027
loop_
_atom_site_label
_atom_site_type_symbol
_atom_site_fract_x
_atom_site_fract_y
_atom_site_fract_z
_atom_type_partial_charge
Co0 Co 0.236 0.30831 0.26071 0.0
C1 C 0.30474 0.402 0.27502 0.0
C2 C 0.26504 0.40787 0.25208 0.0
C3 C 0.30638 0.44979 0.2538 0.0
N4 N 0.2649 0.37651 0.26467 0.0
N5 N 0.33228 0.44547 0.26781 0.0
H6 H 0.31794 0.38678 0.28524 0.0
H7 H 0.2395 0.40028 0.24101 0.0
C8 C 0.17582 0.314 0.2271 0.0
O9 O 0.21257 0.34117 0.21651 0.0
N10 N 0.21001 0.24191 0.25736 0.0
C11 C 0.23449 0.21963 0.2559 0.0
C12 C 0.20381 0.17242 0.25437 0.0
C13 C 0.16488 0.20817 0.25692 0.0
N14 N 0.16011 0.16529 0.25502 0.0
C15 C 0.32311 0.34799 0.2407 0.0
C16 C 0.29068 0.29554 0.20739 0.0
C17 C 0.33892 0.32399 0.2101 0.0
C18 C 0.35482 0.35191 0.22662 0.0
C19 C 0.25995 0.29324 0.22178 0.0
N20 N 0.27619 0.31947 0.23825 0.0
H21 H 0.33728 0.36472 0.25429 0.0
H22 H 0.22333 0.26802 0.22024 0.0
H23 H 0.27209 0.23665 0.25592 0.0
H24 H 0.13627 0.21477 0.25844 0.0
O25 O 0.2767 0.30606 0.28021 0.0
O26 O 0.20699 0.2964 0.28631 0.0
O27 O 0.18092 0.3029 0.24451 0.0
C28 C 0.24448 0.29783 0.2929 0.0
H29 H 0.31829 0.47938 0.24407 0.0
H30 H 0.21302 0.14551 0.25273 0.0
H31 H 0.27692 0.27185 0.19518 0.0
H32 H 0.39176 0.37312 0.22956 0.0
Co33 Co 0.9402 0.22883 0.59971 0.0
C34 C 0.92498 0.30868 0.60511 0.0
C35 C 0.88638 0.26859 0.58066 0.0
C36 C 0.89013 0.31216 0.57974 0.0
N37 N 0.91023 0.26692 0.59618 0.0
N38 N 0.91581 0.338 0.59489 0.0
H39 H 0.94853 0.32064 0.61726 0.0
H40 H 0.87025 0.24192 0.56978 0.0
C41 C 0.88956 0.17368 0.56256 0.0
O42 O 0.91242 0.21125 0.55172 0.0
N43 N 0.97213 0.19408 0.60384 0.0
C44 C 0.01657 0.21373 0.61001 0.0
C45 C 0.03076 0.18151 0.60872 0.0
C46 C 0.95968 0.14977 0.59897 0.0
N47 N 0.99527 0.14154 0.60161 0.0
C48 C 1.01215 0.31165 0.58189 0.0
C49 C 0.04443 0.26639 0.55855 0.0
C50 C 0.07376 0.31384 0.56281 0.0
C51 C 0.05605 0.3372 0.5735 0.0
C52 C 1.00063 0.24212 0.5672 0.0
N53 N 0.98563 0.26426 0.5795 0.0
H54 H 1.00298 0.32965 0.59232 0.0
H55 H 0.98125 0.20456 0.56566 0.0
H56 H 0.03823 0.24992 0.6142 0.0
H57 H 0.92656 0.12504 0.5926 0.0
O58 O 0.9751 0.26795 0.62126 0.0
O59 O 0.90664 0.20321 0.62407 0.0
O60 O 0.8946 0.17674 0.58114 0.0
C61 C 0.94223 0.23816 0.63253 0.0
H62 H 0.87804 0.32485 0.56791 0.0
H63 H 0.06505 0.18747 0.61228 0.0
H64 H 0.05694 0.24721 0.55017 0.0
H65 H 0.0779 0.37371 0.57733 0.0
Co66 Co 0.7147 0.9399 0.92185 0.0
C67 C 0.62113 0.91385 0.93558 0.0
C68 C 0.61662 0.87856 0.9092 0.0
C69 C 0.57671 0.88129 0.91134 0.0
N70 N 0.64624 0.90153 0.92391 0.0
N71 N 0.58057 0.9055 0.92759 0.0
H72 H 0.6348 0.93502 0.9484 0.0
H73 H 0.625 0.86605 0.89637 0.0
C74 C 0.71298 0.87419 0.88922 0.0
O75 O 0.69126 0.88799 0.87742 0.0
N76 N 0.78133 0.98011 0.92041 0.0
C77 C 0.80327 0.02719 0.9209 0.0
C78 C 0.85026 0.04445 0.92024 0.0
C79 C 0.81522 0.96917 0.91957 0.0
N80 N 0.85792 1.00809 0.91936 0.0
C81 C 0.6849 0.99316 0.9005 0.0
C82 C 0.75724 0.0256 0.87427 0.0
C83 C 0.73948 0.05451 0.87964 0.0
C84 C 0.69955 0.03574 0.89119 0.0
C85 C 0.74228 0.98376 0.88424 0.0
N86 N 0.70933 0.97024 0.89853 0.0
H87 H 0.65944 0.9837 0.91179 0.0
H88 H 0.76304 0.96716 0.88282 0.0
H89 H 0.78615 0.04763 0.92177 0.0
H90 H 0.80864 0.93367 0.91924 0.0
O91 O 0.71449 0.98381 0.94031 0.0
O92 O 0.72219 0.92326 0.94835 0.0
O93 O 0.72098 0.88896 0.90689 0.0
C94 C 0.72153 0.96072 0.95384 0.0
H95 H 0.55032 0.87215 0.90033 0.0
H96 H 0.8766 0.08108 0.92096 0.0
H97 H 0.78774 0.03877 0.86504 0.0
H98 H 0.6845 0.05679 0.89556 0.0
Co99 Co 0.7812 0.71558 0.25606 0.0
C100 C 0.70899 0.62545 0.27245 0.0
C101 C 0.74743 0.6141 0.25043 0.0
C102 C 0.7054 0.57331 0.25316 0.0
N103 N 0.74901 0.64795 0.26186 0.0
N104 N 0.68041 0.58098 0.26659 0.0
H105 H 0.69674 0.64322 0.28176 0.0
H106 H 0.77225 0.61929 0.23929 0.0
C107 C 0.84433 0.70443 0.22558 0.0
O108 O 0.80912 0.67802 0.21421 0.0
N109 N 0.8106 0.78174 0.25087 0.0
C110 C 0.78804 0.80522 0.2471 0.0
C111 C 0.82012 0.85208 0.24587 0.0
C112 C 0.85602 0.81449 0.25209 0.0
N113 N 0.86278 0.8579 0.24908 0.0
C114 C 0.69745 0.67476 0.23378 0.0
C115 C 0.73555 0.72338 0.19987 0.0
C116 C 0.68699 0.69495 0.20141 0.0
C117 C 0.66823 0.66913 0.21836 0.0
C118 C 0.76369 0.72754 0.21564 0.0
N119 N 0.74468 0.70301 0.23237 0.0
H120 H 0.6811 0.65926 0.24733 0.0
H121 H 0.80057 0.75243 0.21474 0.0
H122 H 0.7507 0.78929 0.24562 0.0
H123 H 0.88318 0.80687 0.2558 0.0
O124 O 0.73944 0.723 0.2734 0.0
O125 O 0.80647 0.72938 0.28218 0.0
O126 O 0.8371 0.7162 0.24248 0.0
C127 C 0.76964 0.7315 0.28706 0.0
H128 H 0.69246 0.54205 0.24442 0.0
H129 H 0.81255 0.87974 0.24293 0.0
H130 H 0.75142 0.74557 0.18732 0.0
H131 H 0.63086 0.64811 0.22037 0.0
Co132 Co 0.09083 0.78368 0.59088 0.0
C133 C 0.11421 0.71484 0.60587 0.0
C134 C 0.1626 0.75625 0.58386 0.0
C135 C 0.16282 0.71473 0.58568 0.0
N136 N 0.12994 0.75543 0.59578 0.0
N137 N 0.13083 0.68775 0.59907 0.0
H138 H 0.08467 0.70098 0.61553 0.0
H139 H 0.18197 0.78263 0.57315 0.0
C140 C 0.16051 0.8462 0.55848 0.0
O141 O 0.1526 0.81013 0.54777 0.0
N142 N 0.05023 0.80862 0.58651 0.0
C143 C 1.00379 0.78298 0.58402 0.0
C144 C 0.98638 0.81272 0.58249 0.0
C145 C 0.06057 0.85352 0.58668 0.0
N146 N 0.02206 0.85704 0.58419 0.0
C147 C 0.04465 0.69668 0.57046 0.0
C148 C 0.03055 0.73142 0.53639 0.0
C149 C 1.00931 0.68282 0.53892 0.0
C150 C 0.01806 0.66563 0.55592 0.0
C151 C 0.05708 0.76131 0.55133 0.0
N152 N 0.06432 0.74399 0.56813 0.0
H153 H 0.04529 0.68184 0.58421 0.0
H154 H 0.06906 0.79819 0.54987 0.0
H155 H 0.9839 0.74516 0.58369 0.0
H156 H 0.09538 0.88275 0.5888 0.0
O157 O 0.04615 0.74219 0.60995 0.0
O158 O 0.10558 0.81255 0.61642 0.0
O159 O 0.1419 0.83982 0.57545 0.0
C160 C 0.06899 0.77473 0.6227 0.0
H161 H 0.18169 0.70357 0.57639 0.0
H162 H 0.95002 0.80233 0.58096 0.0
H163 H 0.0229 0.74614 0.52383 0.0
H164 H 1.00081 0.62834 0.55872 0.0
Co165 Co 0.30945 0.0893 0.9317 0.0
C166 C 0.40436 0.10875 0.93983 0.0
C167 C 0.40412 0.14342 0.91381 0.0
C168 C 0.44322 0.13879 0.91389 0.0
N169 N 0.37799 0.12223 0.92968 0.0
N170 N 0.44228 0.11516 0.92997 0.0
H171 H 0.39303 0.0883 0.95298 0.0
H172 H 0.39388 0.15694 0.90183 0.0
C173 C 0.30684 0.14842 0.89727 0.0
O174 O 0.32256 0.12845 0.88541 0.0
N175 N 0.24253 0.05462 0.93441 0.0
C176 C 0.21728 1.00832 0.93826 0.0
C177 C 0.17114 0.99525 0.93898 0.0
C178 C 0.2114 0.06915 0.93273 0.0
N179 N 0.16761 0.03339 0.93546 0.0
C180 C 0.32632 0.02629 0.91011 0.0
C181 C 0.24744 0.99346 0.88769 0.0
C182 C 0.26643 0.96467 0.89115 0.0
C183 C 0.3085 0.98303 0.9011 0.0
C184 C 0.26618 0.03638 0.89708 0.0
N185 N 0.30339 0.05092 0.90926 0.0
H186 H 0.35448 0.03592 0.92004 0.0
H187 H 0.24684 0.05462 0.89656 0.0
H188 H 0.23135 0.98528 0.93989 0.0
H189 H 0.2203 0.10471 0.92948 0.0
O190 O 0.31116 0.04781 0.9509 0.0
O191 O 0.3133 0.11406 0.9579 0.0
O192 O 0.3038 0.13934 0.91561 0.0
C193 C 0.31129 0.0757 0.96413 0.0
H194 H 0.467 0.14681 0.90183 0.0
H195 H 0.14221 0.96013 0.94119 0.0
H196 H 0.21517 0.98058 0.87974 0.0
H197 H 0.3242 0.96182 0.90412 0.0
Co198 Co 0.71925 0.79513 0.45932 0.0
C199 C 0.62452 0.71633 0.45248 0.0
C200 C 0.62742 0.74738 0.4799 0.0
C201 C 0.58917 0.70266 0.47967 0.0
N202 N 0.65131 0.75551 0.46309 0.0
N203 N 0.58847 0.68251 0.46262 0.0
H204 H 0.63448 0.70937 0.43854 0.0
H205 H 0.63909 0.76957 0.49243 0.0
C206 C 0.72519 0.85267 0.49563 0.0
O207 O 0.71349 0.81623 0.50681 0.0
N208 N 0.78562 0.8317 0.45477 0.0
C209 C 0.81211 0.81388 0.44858 0.0
C210 C 0.85726 0.84944 0.4469 0.0
C211 C 0.81513 0.87798 0.45693 0.0
N212 N 0.85904 0.88948 0.45217 0.0
C213 C 0.70862 0.71484 0.47899 0.0
C214 C 0.79052 0.7617 0.49954 0.0
C215 C 0.77093 0.71365 0.49611 0.0
C216 C 0.72777 0.68966 0.48696 0.0
C217 C 0.77024 0.78564 0.49128 0.0
N218 N 0.73101 0.76255 0.48017 0.0
H219 H 0.67917 0.696 0.46969 0.0
H220 H 0.78906 0.82338 0.49206 0.0
H221 H 0.79967 0.77724 0.44594 0.0
H222 H 0.80505 0.90262 0.46197 0.0
O223 O 0.71672 0.75445 0.43891 0.0
O224 O 0.7098 0.81682 0.43413 0.0
O225 O 0.72434 0.84814 0.47702 0.0
C226 C 0.71277 0.78206 0.42666 0.0
H227 H 0.56733 0.68453 0.49204 0.0
H228 H 0.88689 0.84598 0.44283 0.0
H229 H 0.82364 0.78138 0.50691 0.0
H230 H 0.71162 0.65261 0.48387 0.0
Co231 Co 0.93837 0.71383 0.79415 0.0
C232 C 0.9161 0.62236 0.77828 0.0
C233 C 0.87524 0.61326 0.80345 0.0
C234 C 0.87862 0.57365 0.80088 0.0
N235 N 0.90119 0.6455 0.7899 0.0
N236 N 0.90625 0.58024 0.78545 0.0
H237 H 0.93983 0.63848 0.76632 0.0
H238 H 0.85977 0.61947 0.81591 0.0
C239 C 0.86966 0.70623 0.82694 0.0
O240 O 0.88022 0.68085 0.83818 0.0
N241 N 0.97687 0.78035 0.79789 0.0
C242 C 0.02359 0.80368 0.79962 0.0
C243 C 0.03883 0.8505 0.80159 0.0
C244 C 0.96419 0.81313 0.79866 0.0
N245 N 1.00149 0.85639 0.80097 0.0
C246 C 0.98647 0.67606 0.81465 0.0
C247 C 1.00251 0.72692 0.84824 0.0
C248 C 0.02343 0.69946 0.8458 0.0
C249 C 1.01399 0.67276 0.82901 0.0
C250 C 0.97507 0.72919 0.83344 0.0
N251 N 0.96673 0.70342 0.81693 0.0
H252 H 0.98456 0.65951 0.80104 0.0
H253 H 0.96279 0.75375 0.83482 0.0
H254 H 0.04503 0.78759 0.79955 0.0
H255 H 0.92868 0.80562 0.79715 0.0
O256 O 0.98347 0.71817 0.77524 0.0
O257 O 0.92246 0.7257 0.76837 0.0
O258 O 0.88637 0.7168 0.80959 0.0
C259 C 0.95983 0.72605 0.76227 0.0
H260 H 0.8669 0.54518 0.81119 0.0
H261 H 0.07458 0.878 0.80357 0.0
H262 H 1.01075 0.74984 0.86064 0.0
H263 H 0.03101 0.65265 0.82627 0.0
Co264 Co 0.23963 0.93872 0.13523 0.0
C265 C 0.31075 0.91614 0.12307 0.0
C266 C 0.27931 0.88128 0.14957 0.0
C267 C 0.32261 0.88521 0.14798 0.0
N268 N 0.2725 0.90297 0.13437 0.0
N269 N 0.34324 0.90903 0.13163 0.0
H270 H 0.31848 0.93725 0.11016 0.0
H271 H 0.25796 0.86923 0.16236 0.0
C272 C 0.17554 0.87436 0.16821 0.0
O273 O 0.21039 0.89052 0.18046 0.0
N274 N 0.2104 0.97655 0.13556 0.0
C275 C 0.23408 0.02366 0.13452 0.0
C276 C 0.2032 0.03942 0.13553 0.0
C277 C 0.1652 0.96409 0.13707 0.0
N278 N 0.15992 1.00211 0.13722 0.0
C279 C 0.32132 0.9951 0.15694 0.0
C280 C 0.27882 0.02719 0.1819 0.0
C281 C 0.32592 0.05619 0.17718 0.0
C282 C 0.34821 0.0378 0.1662 0.0
C283 C 0.25308 0.98502 0.17212 0.0
N284 N 0.27384 0.97142 0.15848 0.0
H285 H 0.33838 0.98587 0.14608 0.0
H286 H 0.21561 0.96781 0.1732 0.0
H287 H 0.27152 0.04523 0.13334 0.0
H288 H 0.13705 0.92826 0.1382 0.0
O289 O 0.28309 0.98291 0.1166 0.0
O290 O 0.21689 0.91964 0.10877 0.0
O291 O 0.18298 0.88682 0.15022 0.0
C292 C 0.25385 0.95812 0.1031 0.0
H293 H 0.33999 0.87723 0.15937 0.0
H294 H 0.21206 0.07565 0.13466 0.0
H295 H 0.26061 0.0402 0.19064 0.0
H296 H 0.38463 0.05909 0.16229 0.0
Co297 Co 0.31605 0.2369 0.46427 0.0
C298 C 0.40696 0.30214 0.44721 0.0
C299 C 0.41553 0.26871 0.47192 0.0
C300 C 0.45572 0.31124 0.46924 0.0
N301 N 0.38322 0.26396 0.45884 0.0
N302 N 0.44946 0.33348 0.45417 0.0
H303 H 0.39113 0.31084 0.43554 0.0
H304 H 0.40919 0.24648 0.48424 0.0
C305 C 0.32216 0.17283 0.49626 0.0
O306 O 0.34972 0.20838 0.5073 0.0
N307 N 0.25099 0.21362 0.4692 0.0
C308 C 0.23186 0.24074 0.47181 0.0
C309 C 0.18452 0.21261 0.47311 0.0
C310 C 0.21518 0.16935 0.46878 0.0
N311 N 0.17388 0.16767 0.47117 0.0
C312 C 0.35912 0.32368 0.4846 0.0
C313 C 0.31042 0.29037 0.51883 0.0
C314 C 0.33835 0.33884 0.51609 0.0
C315 C 0.3641 0.35533 0.49899 0.0
C316 C 0.3063 0.25992 0.504 0.0
N317 N 0.33078 0.27657 0.48711 0.0
H318 H 0.37478 0.33769 0.47079 0.0
H319 H 0.28084 0.22322 0.50557 0.0
H320 H 0.25108 0.27857 0.47218 0.0
H321 H 0.21943 0.13941 0.46633 0.0
O322 O 0.31325 0.27921 0.4455 0.0
O323 O 0.30026 0.20829 0.43865 0.0
O324 O 0.31028 0.17994 0.47936 0.0
C325 C 0.30196 0.2465 0.43263 0.0
H326 H 0.48438 0.32708 0.47939 0.0
H327 H 0.15988 0.22477 0.47444 0.0
H328 H 0.28819 0.27625 0.53149 0.0
H329 H 0.38457 0.39252 0.49602 0.0
Co330 Co 0.07703 0.30501 0.80263 0.0
C331 C 0.10131 0.39385 0.78327 0.0
C332 C 0.14221 0.40659 0.8087 0.0
C333 C 0.13974 0.44615 0.80445 0.0
N334 N 0.11559 0.37223 0.79608 0.0
N335 N 0.11203 0.43732 0.78889 0.0
H336 H 0.07736 0.37606 0.77161 0.0
H337 H 0.15668 0.40191 0.82184 0.0
C338 C 0.14945 0.31458 0.8337 0.0
O339 O 0.14118 0.34204 0.84465 0.0
N340 N 0.0376 0.23949 0.80849 0.0
C341 C 0.99147 0.21755 0.81207 0.0
C342 C 0.97509 0.17036 0.81369 0.0
C343 C 0.04868 0.20557 0.80773 0.0
N344 N 1.01107 0.16291 0.81091 0.0
C345 C 0.03684 0.3505 0.82337 0.0
C346 C 0.01727 0.2992 0.85709 0.0
C347 C 0.99731 0.32747 0.85411 0.0
C348 C 1.00998 0.35557 0.83755 0.0
C349 C 0.04515 0.29606 0.84266 0.0
N350 N 0.05394 0.32087 0.82579 0.0
H351 H 0.03968 0.36718 0.80968 0.0
H352 H 0.0563 0.27067 0.84439 0.0
H353 H 0.97107 0.23468 0.8131 0.0
H354 H 0.08302 0.21179 0.80407 0.0
O355 O 0.0292 0.29953 0.78506 0.0
O356 O 0.08684 0.28771 0.77671 0.0
O357 O 0.13042 0.30215 0.81684 0.0
C358 C 0.04905 0.28787 0.77168 0.0
H359 H 0.15172 0.47622 0.81385 0.0
H360 H 0.9394 0.14361 0.81652 0.0
H361 H 1.00742 0.27577 0.86943 0.0
H362 H 0.99486 0.3773 0.83452 0.0
Co363 Co 0.79745 0.09283 0.12326 0.0
C364 C 0.72247 0.11427 0.11709 0.0
C365 C 0.75818 0.14553 0.14336 0.0
C366 C 0.71457 0.14112 0.14406 0.0
N367 N 0.76254 0.12619 0.12681 0.0
N368 N 0.69131 0.11953 0.1278 0.0
H369 H 0.7129 0.09549 0.10356 0.0
H370 H 0.78239 0.15771 0.15518 0.0
C371 C 0.85715 0.14498 0.1593 0.0
O372 O 0.82074 0.1227 0.17071 0.0
N373 N 0.82884 0.0577 0.11903 0.0
C374 C 0.80744 0.01271 0.11311 0.0
C375 C 0.83926 0.99798 0.11267 0.0
C376 C 0.87348 0.06975 0.12225 0.0
N377 N 0.88051 0.03371 0.11849 0.0
C378 C 0.71562 0.02562 0.14272 0.0
C379 C 0.75954 0.98775 0.1635 0.0
C380 C 0.71222 0.95972 0.15896 0.0
C381 C 0.68945 0.98032 0.14991 0.0
C382 C 0.7845 0.03282 0.1559 0.0
N383 N 0.76303 0.05008 0.1444 0.0
H384 H 0.69804 0.0374 0.1333 0.0
H385 H 0.82197 0.05097 0.15709 0.0
H386 H 0.77067 0.99128 0.11008 0.0
H387 H 0.89996 0.10349 0.12758 0.0
O388 O 0.75519 0.05625 0.10282 0.0
O389 O 0.82102 0.1228 0.098 0.0
O390 O 0.85233 0.139 0.14076 0.0
C391 C 0.78446 0.08668 0.09059 0.0
H392 H 0.6993 0.14781 0.15665 0.0
H393 H 0.83219 0.96305 0.10927 0.0
H394 H 0.77818 0.97322 0.17091 0.0
H395 H 0.65292 0.95991 0.14613 0.0
H396 H 0.61582 0.52708 0.23953 0.0
H397 H 0.62975 0.58082 0.29766 0.0
H398 H 0.53223 0.49631 0.2409 0.0
H399 H 0.54592 0.55127 0.29883 0.0
H400 H 0.38486 0.45286 0.29928 0.0
H401 H 0.4688 0.48287 0.29996 0.0
H402 H 0.47883 0.52521 0.24003 0.0
H403 H 0.39513 0.49397 0.23921 0.0
C404 C 0.60109 0.53167 0.25278 0.0
C405 C 0.62996 0.55646 0.26853 0.0
C406 C 0.55297 0.51469 0.25344 0.0
C407 C 0.532 0.52185 0.26986 0.0
C408 C 0.56053 0.54492 0.28592 0.0
C409 C 0.60876 0.56203 0.28525 0.0
C410 C 0.40509 0.46907 0.28632 0.0
C411 C 0.38282 0.47093 0.26922 0.0
C412 C 0.45337 0.48642 0.2867 0.0
C413 C 0.48088 0.506 0.26997 0.0
C414 C 0.45888 0.50956 0.25312 0.0
C415 C 0.41071 0.49236 0.25274 0.0
H416 H 0.12334 0.62588 0.5711 0.0
H417 H 0.07836 0.63324 0.62912 0.0
H418 H 0.07035 0.54188 0.57085 0.0
H419 H 0.02321 0.54955 0.62846 0.0
H420 H 0.95465 0.38981 0.6274 0.0
H421 H 1.00994 0.47323 0.62913 0.0
H422 H 0.99081 0.48647 0.56794 0.0
H423 H 0.93782 0.40258 0.56599 0.0
C424 C 0.10276 0.60967 0.58397 0.0
C425 C 0.10543 0.63691 0.60014 0.0
C426 C 0.0714 0.56128 0.58367 0.0
C427 C 0.04142 0.53845 0.59948 0.0
C428 C 0.04557 0.56538 0.61598 0.0
C429 C 0.07719 0.6137 0.61634 0.0
C430 C 0.96216 0.41039 0.61428 0.0
C431 C 0.9418 0.38875 0.59651 0.0
C432 C 0.9938 0.45864 0.6153 0.0
C433 C 1.00581 0.4871 0.59862 0.0
C434 C 0.98365 0.46585 0.58104 0.0
C435 C 0.9523 0.4175 0.57999 0.0
H436 H 0.40347 0.02722 0.94518 0.0
H437 H 0.52928 0.13669 0.91866 0.0
H438 H 0.4363 0.97625 0.94576 0.0
H439 H 0.56232 0.08487 0.91922 0.0
H440 H 0.62155 0.99457 0.94164 0.0
H441 H 0.58862 0.04533 0.94323 0.0
H442 H 0.45822 0.934 0.92126 0.0
H443 H 0.49133 0.88234 0.9197 0.0
C444 C 0.43855 0.04097 0.93977 0.0
C445 C 0.46394 0.08667 0.93204 0.0
C446 C 0.45709 1.01122 0.93987 0.0
C447 C 0.50179 0.02628 0.93246 0.0
C448 C 0.5278 0.07226 0.92515 0.0
C449 C 0.50894 0.10195 0.92479 0.0
C450 C 0.58551 0.98014 0.93751 0.0
C451 C 0.55893 0.93373 0.93071 0.0
C452 C 0.56688 1.00979 0.93816 0.0
C453 C 0.52095 0.99396 0.93226 0.0
C454 C 0.49374 0.94725 0.926 0.0
C455 C 0.51264 0.91762 0.92509 0.0
H456 H 0.50202 0.61375 0.4733 0.0
H457 H 0.628 0.6374 0.44489 0.0
H458 H 0.46922 0.52896 0.46967 0.0
H459 H 0.59556 0.55353 0.44139 0.0
H460 H 0.53926 0.39875 0.46257 0.0
H461 H 0.57284 0.48384 0.46369 0.0
H462 H 0.44368 0.46847 0.44264 0.0
H463 H 0.41028 0.38452 0.4414 0.0
C464 C 0.52246 0.60095 0.46614 0.0
C465 C 0.56734 0.63263 0.45919 0.0
C466 C 0.50375 0.55246 0.46402 0.0
C467 C 0.52987 0.53447 0.45526 0.0
C468 C 0.57464 0.56613 0.4483 0.0
C469 C 0.59298 0.61443 0.45011 0.0
C470 C 0.51822 0.41352 0.45794 0.0
C471 C 0.47191 0.38404 0.45194 0.0
C472 C 0.53746 0.46232 0.45858 0.0
C473 C 0.51067 0.48291 0.45349 0.0
C474 C 0.46503 0.45375 0.44693 0.0
C475 C 0.4461 0.40524 0.44598 0.0
H476 H 0.88264 0.49059 0.79424 0.0
H477 H 0.9947 0.61944 0.77062 0.0
H478 H 0.9333 0.45676 0.79347 0.0
H479 H 0.04425 0.58534 0.76939 0.0
H480 H 0.13669 0.52861 0.79402 0.0
H481 H 0.08612 0.56247 0.79158 0.0
H482 H 0.97309 0.42936 0.77245 0.0
H483 H 0.02246 0.39539 0.77543 0.0
C484 C 0.91767 0.51152 0.78862 0.0
C485 C 0.93394 0.55782 0.78246 0.0
C486 C 0.94679 0.49205 0.78809 0.0
C487 C 0.9932 0.51837 0.78147 0.0
C488 C 1.00905 0.56414 0.77482 0.0
C489 C 0.97998 0.5835 0.77526 0.0
C490 C 0.10122 0.50671 0.78911 0.0
C491 C 0.08432 0.45925 0.78483 0.0
C492 C 0.07215 0.52616 0.78762 0.0
C493 C 0.0252 0.49861 0.78192 0.0
C494 C 1.00873 0.45158 0.77713 0.0
C495 C 0.03769 0.43224 0.77853 0.0
H496 H 0.39067 0.99884 0.11834 0.0
H497 H 0.4098 0.8863 0.13908 0.0
H498 H 0.47447 0.05029 0.11667 0.0
H499 H 0.49464 0.93839 0.13715 0.0
H500 H 0.64108 0.03405 0.11056 0.0
H501 H 0.55726 0.98291 0.11082 0.0
H502 H 0.5415 0.08771 0.14153 0.0
H503 H 0.62643 0.13947 0.14155 0.0
C504 C 0.41261 0.98458 0.12221 0.0
C505 C 0.39312 0.93788 0.12868 0.0
C506 C 0.46087 0.01452 0.12147 0.0
C507 C 0.49125 0.99861 0.12686 0.0
C508 C 0.47208 0.95167 0.13284 0.0
C509 C 0.42357 0.92181 0.13393 0.0
C510 C 0.62017 0.04693 0.11717 0.0
C511 C 0.64101 0.09146 0.12599 0.0
C512 C 0.57186 0.01707 0.11749 0.0
C513 C 0.5427 0.031 0.1263 0.0
C514 C 0.56309 0.07597 0.13459 0.0
C515 C 0.61169 0.10564 0.1346 0.0
H516 H 0.25028 0.1796 0.40554 0.0
H517 H 0.33202 0.32909 0.41361 0.0
H518 H 0.23388 0.19199 0.37195 0.0
H519 H 0.31673 0.34128 0.38002 0.0
H520 H 0.32654 0.33079 0.31201 0.0
H521 H 0.33901 0.31809 0.3459 0.0
H522 H 0.19052 0.23496 0.3546 0.0
H523 H 0.17783 0.24885 0.32064 0.0
C524 C 0.26491 0.21502 0.40011 0.0
C525 C 0.29251 0.25336 0.4122 0.0
C526 C 0.25527 0.22209 0.38097 0.0
C527 C 0.274 0.2676 0.37341 0.0
C528 C 0.30191 0.30584 0.38545 0.0
C529 C 0.31059 0.29882 0.40468 0.0
C530 C 0.29649 0.31001 0.32116 0.0
C531 C 0.25117 0.29093 0.31368 0.0
C532 C 0.30367 0.30283 0.34057 0.0
C533 C 0.26576 0.27545 0.35286 0.0
C534 C 0.22036 0.25604 0.3454 0.0
C535 C 0.21311 0.26422 0.32604 0.0
H536 H 0.91905 0.16841 0.65925 0.0
H537 H 0.98285 0.31816 0.65347 0.0
H538 H 0.94333 0.17806 0.69347 0.0
H539 H 1.00566 0.32766 0.68764 0.0
H540 H 0.9922 0.31498 0.75507 0.0
H541 H 0.96143 0.30043 0.72206 0.0
H542 H 0.03121 0.22294 0.7099 0.0
H543 H 0.06334 0.23863 0.74297 0.0
C544 C 0.93705 0.20319 0.66545 0.0
C545 C 0.94865 0.24252 0.65381 0.0
C546 C 0.95142 0.20874 0.68491 0.0
C547 C 0.97654 0.25363 0.69315 0.0
C548 C 0.98625 0.29269 0.68169 0.0
C549 C 0.97304 0.28723 0.66218 0.0
C550 C 1.001 0.29476 0.7454 0.0
C551 C 0.03038 0.27809 0.75161 0.0
C552 C 0.98335 0.28648 0.7265 0.0
C553 C 0.99371 0.26035 0.71348 0.0
C554 C 0.02236 0.24284 0.71973 0.0
C555 C 0.04099 0.25209 0.73857 0.0
H556 H 0.8499 0.10228 0.06277 0.0
H557 H 0.7024 0.04494 0.07139 0.0
H558 H 0.83495 0.07092 0.02952 0.0
H559 H 0.68762 0.01485 0.03823 0.0
H560 H 0.6905 0.01416 0.97064 0.0
H561 H 0.7076 0.04862 1.00302 0.0
H562 H 0.78935 0.98336 1.01514 0.0
H563 H 0.7713 0.94776 0.98265 0.0
C564 C 0.81451 0.08421 0.05737 0.0
C565 C 0.77737 0.0766 0.06955 0.0
C566 C 0.80589 0.06569 0.03848 0.0
C567 C 0.76007 0.04017 0.03133 0.0
C568 C 0.72326 0.03442 0.04329 0.0
C569 C 0.73176 0.05188 0.06224 0.0
C570 C 0.71179 1.00675 0.98025 0.0
C571 C 0.72927 0.97793 0.97414 0.0
C572 C 0.72163 0.0266 0.99879 0.0
C573 C 0.75011 0.01903 1.01157 0.0
C574 C 0.76767 0.99017 1.00551 0.0
C575 C 0.75693 0.96938 0.98704 0.0
H576 H 0.71953 0.71182 0.40981 0.0
H577 H 0.71399 0.83634 0.39569 0.0
H578 H 0.73379 0.70287 0.37604 0.0
H579 H 0.72787 0.82669 0.36132 0.0
H580 H 0.70393 0.75227 0.29955 0.0
H581 H 0.68876 0.76704 0.33283 0.0
H582 H 0.8019 0.7495 0.35317 0.0
H583 H 0.81736 0.73512 0.31994 0.0
C584 C 0.72093 0.73721 0.39947 0.0
C585 C 0.71582 0.77504 0.40554 0.0
C586 C 0.72946 0.73213 0.38007 0.0
C587 C 0.73268 0.76441 0.36606 0.0
C588 C 0.72567 0.8013 0.37185 0.0
C589 C 0.71763 0.80678 0.39148 0.0
C590 C 0.72574 0.75182 0.31113 0.0
C591 C 0.76169 0.7422 0.30713 0.0
C592 C 0.7172 0.76059 0.33015 0.0
C593 C 0.74397 0.75924 0.34561 0.0
C594 C 0.78039 0.75037 0.34156 0.0
C595 C 0.78934 0.74225 0.32253 0.0
H596 H 0.01771 0.69279 0.64226 0.0
H597 H 0.08486 0.84252 0.64941 0.0
H598 H 0.99084 0.6817 0.67598 0.0
H599 H 0.05658 0.8312 0.68309 0.0
H600 H 0.94055 0.77243 0.73397 0.0
H601 H 0.9679 0.78601 0.70009 0.0
H602 H 0.03877 0.70872 0.71022 0.0
H603 H 1.01291 0.69642 0.74404 0.0
C604 C 0.02657 0.72332 0.65102 0.0
C605 C 0.05356 0.76854 0.64323 0.0
C606 C 1.01122 0.71694 0.6703 0.0
C607 C 0.02148 0.75558 0.68207 0.0
C608 C 0.04798 0.80084 0.67426 0.0
C609 C 0.06439 0.80729 0.65507 0.0
C610 C 0.96193 0.75837 0.72891 0.0
C611 C 0.97455 0.73334 0.74164 0.0
C612 C 0.97776 0.76636 0.70961 0.0
C613 C 1.00543 0.74839 0.70259 0.0
C614 C 0.01741 0.72284 0.71525 0.0
C615 C 1.00264 0.7159 0.73461 0.0
H616 H 0.29696 0.99301 0.97847 0.0
H617 H 0.31126 0.12456 0.99671 0.0
H618 H 0.28205 0.96502 1.01175 0.0
H619 H 0.29645 0.09622 0.03042 0.0
H620 H 0.32048 0.04341 0.08982 0.0
H621 H 0.33422 0.07331 0.05668 0.0
H622 H 0.21978 0.94184 0.03687 0.0
H623 H 0.20576 0.91177 0.07023 0.0
C624 C 0.29721 0.01621 0.98961 0.0
C625 C 0.30546 0.06123 0.98487 0.0
C626 C 0.2882 0.99985 1.00872 0.0
C627 C 0.28763 0.02812 1.02375 0.0
C628 C 0.29678 0.07358 1.01916 0.0
C629 C 0.30529 0.08987 0.99987 0.0
C630 C 0.2982 0.02072 0.07842 0.0
C631 C 0.26213 0.97499 0.08268 0.0
C632 C 0.3059 0.03812 0.05942 0.0
C633 C 0.2781 1.01009 0.04411 0.0
C634 C 0.24206 0.96425 0.04833 0.0
C635 C 0.23396 0.94699 0.06743 0.0
H636 H 0.07701 0.149 0.2412 0.0
H637 H 0.14656 0.08109 0.26661 0.0
H638 H 1.00498 0.0738 0.23938 0.0
H639 H 0.0746 1.00601 0.26492 0.0
H640 H 0.94914 0.87349 0.24062 0.0
H641 H 0.02198 0.9484 0.24166 0.0
H642 H 0.94663 0.01615 0.26094 0.0
H643 H 0.87421 0.94166 0.25977 0.0
C644 C 0.0768 0.11809 0.24655 0.0
C645 C 0.11747 0.121 0.25406 0.0
C646 C 0.03557 0.075 0.2455 0.0
C647 C 0.03408 0.03391 0.25201 0.0
C648 C 0.07478 0.03686 0.25949 0.0
C649 C 0.11601 0.07991 0.26049 0.0
C650 C 0.9483 0.90437 0.24519 0.0
C651 C 0.90592 0.90172 0.25 0.0
C652 C 0.98995 0.94726 0.24579 0.0
C653 C 0.99003 0.98828 0.25129 0.0
C654 C 0.94766 0.98542 0.25626 0.0
C655 C 0.90612 0.94268 0.2556 0.0
H656 H 0.07069 0.13894 0.58883 0.0
H657 H 0.92455 0.05163 0.60223 0.0
H658 H 0.07675 0.0698 0.58276 0.0
H659 H 0.93057 0.98185 0.5961 0.0
H660 H 0.08114 0.939 0.60181 0.0
H661 H 0.07328 1.00806 0.604 0.0
H662 H 0.94697 0.93897 0.57021 0.0
H663 H 0.95505 0.86979 0.56779 0.0
C664 C 0.03986 0.10488 0.59056 0.0
C665 C 0.99733 0.10056 0.59641 0.0
C666 C 0.04334 0.06532 0.58704 0.0
C667 C 1.00433 0.02052 0.58925 0.0
C668 C 0.96118 0.01606 0.59422 0.0
C669 C 0.9577 0.05585 0.59775 0.0
C670 C 0.05211 0.93867 0.59457 0.0
C671 C 0.0187 0.89876 0.58466 0.0
C672 C 0.04754 0.97824 0.59586 0.0
C673 C 1.00947 0.97881 0.58728 0.0
C674 C 0.97632 0.93922 0.57717 0.0
C675 C 0.98098 0.89964 0.57581 0.0
H676 H 0.14745 0.0787 0.9081 0.0
H677 H 0.09191 0.98807 0.95796 0.0
H678 H 0.07143 0.07129 0.90231 0.0
H679 H 0.01654 0.98205 0.95291 0.0
H680 H 0.87654 0.93921 0.9288 0.0
H681 H 0.95263 0.94642 0.93148 0.0
H682 H 0.01753 0.09173 0.91432 0.0
H683 H 0.94157 0.08362 0.91013 0.0
C684 C 0.11906 0.05804 0.91802 0.0
C685 C 0.12502 0.03379 0.9334 0.0
C686 C 0.0756 0.05367 0.91474 0.0
C687 C 0.03772 0.02555 0.92701 0.0
C688 C 0.04454 1.00285 0.94285 0.0
C689 C 0.08767 1.00662 0.94589 0.0
C690 C 0.90684 0.97245 0.92522 0.0
C691 C 0.90266 1.01102 0.91957 0.0
C692 C 0.95063 0.9768 0.92704 0.0
C693 C 0.99123 0.01993 0.92349 0.0
C694 C 0.98703 0.05797 0.91713 0.0
C695 C 0.94327 0.05344 0.91503 0.0
H696 H 0.88243 0.94982 0.48198 0.0
H697 H 0.92975 0.92784 0.42685 0.0
H698 H 0.9592 0.01838 0.48768 0.0
H699 H 1.00572 0.99715 0.43193 0.0
H700 H 0.14929 0.08254 0.45584 0.0
H701 H 0.07125 0.01699 0.45173 0.0
H702 H 1.01465 0.09622 0.47824 0.0
H703 H 0.0929 0.16069 0.48366 0.0
C704 C 0.90904 0.9606 0.47089 0.0
C705 C 0.90076 0.93378 0.45407 0.0
C706 C 0.95294 0.99967 0.47412 0.0
C707 C 0.98889 0.0127 0.46041 0.0
C708 C 0.97933 0.98724 0.44306 0.0
C709 C 0.93583 0.94794 0.44002 0.0
C710 C 0.12048 0.08594 0.46113 0.0
C711 C 0.12774 0.12744 0.46987 0.0
C712 C 0.0755 0.04847 0.45848 0.0
C713 C 0.03662 0.05171 0.46429 0.0
C714 C 0.0438 0.09254 0.47359 0.0
C715 C 0.08883 0.12983 0.47646 0.0
H716 H 0.93311 0.86991 0.81525 0.0
H717 H 0.0709 0.94175 0.79002 0.0
H718 H 0.93505 0.94442 0.81848 0.0
H719 H 0.07281 0.01596 0.7931 0.0
H720 H 0.08025 0.14536 0.81966 0.0
H721 H 0.07727 0.07022 0.8178 0.0
H722 H 0.93441 1.00472 0.79848 0.0
H723 H 0.93737 0.07965 0.80047 0.0
C724 C 0.96359 0.90153 0.81024 0.0
C725 C 1.00191 0.9 0.80245 0.0
C726 C 0.96476 0.9442 0.8121 0.0
C727 C 1.00421 0.98613 0.80614 0.0
C728 C 0.0423 0.98444 0.7982 0.0
C729 C 0.04117 0.94188 0.7964 0.0
C730 C 0.04832 0.11493 0.81495 0.0
C731 C 1.00908 0.11845 0.81021 0.0
C732 C 0.04658 0.07191 0.81387 0.0
C733 C 1.0056 0.03152 0.80795 0.0
C734 C 0.96626 0.035 0.80338 0.0
C735 C 0.96797 0.07798 0.80451 0.0
H736 H 0.91283 0.98964 0.09635 0.0
H737 H 0.93964 0.07077 0.14861 0.0
H738 H 0.97917 0.97955 0.10316 0.0
H739 H 1.00522 0.05938 0.15602 0.0
H740 H 0.14963 0.07435 0.14918 0.0
H741 H 0.08134 0.08201 0.1454 0.0
H742 H 1.00392 0.93976 0.1244 0.0
H743 H 0.07353 0.9333 0.12685 0.0
C744 C 0.93305 1.00512 0.10935 0.0
C745 C 0.92156 0.03106 0.12193 0.0
C746 C 0.97065 0.99897 0.11339 0.0
C747 C 0.99712 0.01811 0.13028 0.0
C748 C 0.9858 0.04455 0.14279 0.0
C749 C 0.94848 0.05125 0.13857 0.0
C750 C 0.11819 0.04475 0.14363 0.0
C751 C 0.11744 1.00363 0.13782 0.0
C752 C 0.07873 0.04893 0.14176 0.0
C753 C 0.03736 1.01176 0.13432 0.0
C754 C 0.03567 0.96948 0.12972 0.0
C755 C 0.0754 0.96551 0.13137 0.0
H756 H 0.94543 0.18523 0.14263 0.0
H757 H 0.87657 0.16981 0.19753 0.0
H758 H 0.02101 0.22598 0.15897 0.0
H759 H 0.95146 0.21132 0.2137 0.0
H760 H 0.09042 0.24523 0.24148 0.0
H761 H 1.01535 0.20603 0.22493 0.0
H762 H 0.07789 0.29436 0.17477 0.0
H763 H 0.15296 0.33239 0.1911 0.0
C764 C 0.94625 0.19095 0.15812 0.0
C765 C 0.90434 0.17386 0.16862 0.0
C766 C 0.98985 0.21459 0.16759 0.0
C767 C 0.99313 0.22211 0.18789 0.0
C768 C 0.95109 0.20571 0.19822 0.0
C769 C 0.90772 0.18206 0.18881 0.0
C770 C 0.08821 0.25658 0.22698 0.0
C771 C 0.12832 0.29232 0.21779 0.0
C772 C 0.0448 0.23408 0.2174 0.0
C773 C 0.03974 0.24657 0.19828 0.0
C774 C 0.07986 0.2828 0.18926 0.0
C775 C 0.1232 0.30513 0.1988 0.0
H776 H 0.82651 0.08786 0.57869 0.0
H777 H 0.88903 0.15276 0.52402 0.0
H778 H 0.78338 1.01223 0.56256 0.0
H779 H 0.84842 0.0773 0.50805 0.0
H780 H 0.74856 0.93876 0.47919 0.0
H781 H 0.78361 0.01507 0.4951 0.0
H782 H 0.78509 0.95025 0.54941 0.0
H783 H 0.74801 0.87465 0.5338 0.0
C784 C 0.8312 0.08607 0.56322 0.0
C785 C 0.86131 0.12691 0.55277 0.0
C786 C 0.80669 0.04229 0.55387 0.0
C787 C 0.81202 0.03748 0.53375 0.0
C788 C 0.84207 0.07867 0.52337 0.0
C789 C 0.8659 0.12243 0.53266 0.0
C790 C 0.75583 0.94081 0.49458 0.0
C791 C 0.74481 0.89997 0.5051 0.0
C792 C 0.77657 0.98493 0.50379 0.0
C793 C 0.78775 0.98995 0.52381 0.0
C794 C 0.77646 0.94879 0.5342 0.0
C795 C 0.75521 0.90486 0.52509 0.0
H796 H 0.83286 0.69394 0.86366 0.0
H797 H 0.84632 0.76809 0.81026 0.0
H798 H 0.79454 0.73218 0.87884 0.0
H799 H 0.8086 0.80713 0.8256 0.0
H800 H 0.70092 0.83756 0.85263 0.0
H801 H 0.73645 0.79643 0.83779 0.0
H802 H 0.80717 0.80547 0.89149 0.0
H803 H 0.77083 0.84641 0.90654 0.0
C804 C 0.82753 0.71826 0.85504 0.0
C805 C 0.8428 0.7275 0.83557 0.0
C806 C 0.8058 0.74069 0.8639 0.0
C807 C 0.79831 0.7732 0.85363 0.0
C808 C 0.81303 0.78201 0.83405 0.0
C809 C 0.83491 0.75959 0.82518 0.0
C810 C 0.72379 0.83066 0.86144 0.0
C811 C 0.73267 0.84555 0.88093 0.0
C812 C 0.74465 0.80723 0.85277 0.0
C813 C 0.77526 0.79759 0.86324 0.0
C814 C 0.78356 0.81168 0.88289 0.0
C815 C 0.76269 0.83534 0.89158 0.0
H816 H 0.14638 0.87777 0.20483 0.0
H817 H 0.09388 0.80957 0.14989 0.0
H818 H 0.06866 0.83759 0.21832 0.0
H819 H 0.01571 0.76577 0.16372 0.0
H820 H 0.87096 0.71867 0.18747 0.0
H821 H 0.94857 0.75839 0.1737 0.0
H822 H 1.00651 0.77718 0.23141 0.0
H823 H 0.92828 0.74053 0.24507 0.0
C824 C 0.11816 0.85326 0.19566 0.0
C825 C 0.12686 0.84691 0.17622 0.0
C826 C 0.07297 0.82954 0.20353 0.0
C827 C 0.03436 0.79728 0.19246 0.0
C828 C 0.0434 0.7906 0.17294 0.0
C829 C 0.08868 0.8155 0.1649 0.0
C830 C 0.90029 0.73111 0.19725 0.0
C831 C 0.89292 0.726 0.21747 0.0
C832 C 0.94545 0.75394 0.18927 0.0
C833 C 0.9854 0.77175 0.20114 0.0
C834 C 0.97768 0.76554 0.22146 0.0
C835 C 0.93238 0.74376 0.22946 0.0
H836 H 0.18442 0.93157 0.57519 0.0
H837 H 0.19626 0.87095 0.52158 0.0
H838 H 0.22335 1.00902 0.55996 0.0
H839 H 0.23523 0.94811 0.50646 0.0
H840 H 0.25967 0.08769 0.47948 0.0
H841 H 0.22188 1.00986 0.49448 0.0
H842 H 0.29773 0.06987 0.54742 0.0
H843 H 0.33514 0.14716 0.53257 0.0
C844 C 0.19564 0.93464 0.56023 0.0
C845 C 0.18716 0.89453 0.54977 0.0
C846 C 0.21815 0.97928 0.55144 0.0
C847 C 0.2326 0.98533 0.53183 0.0
C848 C 0.22425 0.94519 0.52145 0.0
C849 C 0.20213 0.90071 0.53026 0.0
C850 C 0.26863 0.08429 0.49425 0.0
C851 C 0.30084 0.12421 0.50466 0.0
C852 C 0.24692 0.03946 0.50291 0.0
C853 C 0.25635 0.0331 0.52232 0.0
C854 C 0.28882 0.07302 0.5326 0.0
C855 C 0.31072 0.11761 0.52394 0.0
H856 H 0.31115 0.17525 0.85932 0.0
H857 H 0.25817 0.18657 0.91501 0.0
H858 H 0.27581 0.21608 0.84404 0.0
H859 H 0.22171 0.22692 0.89956 0.0
H860 H 0.19464 0.33422 0.86877 0.0
H861 H 0.23359 0.29683 0.88411 0.0
H862 H 0.20363 0.20789 0.83406 0.0
H863 H 0.16532 0.24611 0.81852 0.0
C864 C 0.29205 0.18653 0.86842 0.0
C865 C 0.28783 0.17732 0.88855 0.0
C866 C 0.27122 0.20976 0.85952 0.0
C867 C 0.24522 0.22484 0.87036 0.0
C868 C 0.24169 0.21646 0.8906 0.0
C869 C 0.26261 0.1931 0.89954 0.0
C870 C 0.1966 0.30696 0.86088 0.0
C871 C 0.17672 0.29362 0.84223 0.0
C872 C 0.21872 0.28504 0.86985 0.0
C873 C 0.22195 0.24884 0.86054 0.0
C874 C 0.20263 0.23591 0.84174 0.0
C875 C 0.18043 0.25788 0.83276 0.0
H876 H 0.40497 0.30724 0.22464 0.0
H877 H 0.34461 0.31691 0.17061 0.0
H878 H 0.42635 0.25474 0.20995 0.0
H879 H 0.36847 0.26563 0.15542 0.0
H880 H 0.28525 0.10443 0.16539 0.0
H881 H 0.31578 0.18736 0.16587 0.0
H882 H 0.44588 0.20843 0.18923 0.0
H883 H 0.41386 0.12323 0.18906 0.0
C884 C 0.39892 0.3006 0.20923 0.0
C885 C 0.37103 0.31416 0.19896 0.0
C886 C 0.41154 0.27044 0.20072 0.0
C887 C 0.39641 0.25377 0.18187 0.0
C888 C 0.37854 0.27631 0.17032 0.0
C889 C 0.36485 0.30565 0.17896 0.0
C890 C 0.32027 0.12659 0.17079 0.0
C891 C 0.34646 0.10737 0.17804 0.0
C892 C 0.33851 0.17454 0.1705 0.0
C893 C 0.38363 0.20492 0.17745 0.0
C894 C 0.41099 0.18591 0.18378 0.0
C895 C 0.39259 0.13735 0.18394 0.0
H896 H 0.13515 0.40206 0.54902 0.0
H897 H 0.12687 0.27602 0.57143 0.0
H898 H 0.21953 0.43664 0.54461 0.0
H899 H 0.20932 0.30909 0.5666 0.0
H900 H 0.34009 0.34557 0.55573 0.0
H901 H 0.28881 0.36495 0.57376 0.0
H902 H 0.2618 0.41845 0.52113 0.0
H903 H 0.31448 0.40153 0.5036 0.0
C904 C 0.15144 0.38193 0.55303 0.0
C905 C 0.12446 0.33582 0.55988 0.0
C906 C 0.19962 0.40179 0.55069 0.0
C907 C 0.22139 0.37589 0.55537 0.0
C908 C 0.1943 0.3307 0.5632 0.0
C909 C 0.14658 0.31103 0.56544 0.0
C910 C 0.32539 0.36416 0.54838 0.0
C911 C 0.32954 0.37032 0.5282 0.0
C912 C 0.29587 0.37509 0.55863 0.0
C913 C 0.26911 0.39044 0.54856 0.0
C914 C 0.281 0.40565 0.52928 0.0
C915 C 0.31132 0.39576 0.51914 0.0
H916 H 0.97979 0.31441 0.89332 0.0
H917 H 0.91628 0.31436 0.83864 0.0
H918 H 0.90303 0.25961 0.90642 0.0
H919 H 0.84083 0.25905 0.8514 0.0
H920 H 0.71871 0.12325 0.87007 0.0
H921 H 0.77203 0.20846 0.87173 0.0
H922 H 0.88163 0.18412 0.89155 0.0
H923 H 0.82958 0.10128 0.88997 0.0
C924 C 0.94938 0.30465 0.88444 0.0
C925 C 0.95424 0.31669 0.86471 0.0
C926 C 0.90539 0.27338 0.89193 0.0
C927 C 0.86656 0.25294 0.87949 0.0
C928 C 0.87023 0.2732 0.86122 0.0
C929 C 0.91398 0.30504 0.85384 0.0
C930 C 0.7543 0.13661 0.87475 0.0
C931 C 0.77052 0.10577 0.8792 0.0
C932 C 0.78447 0.1851 0.87599 0.0
C933 C 0.8308 0.20312 0.88213 0.0
C934 C 0.84595 0.17183 0.88728 0.0
C935 C 0.81636 0.12403 0.88579 0.0
H936 H 0.68819 0.69675 0.16154 0.0
H937 H 0.61858 0.71293 0.21135 0.0
H938 H 0.66785 0.74626 0.1426 0.0
H939 H 0.60098 0.76397 0.19313 0.0
H940 H 0.62268 0.895 0.16996 0.0
H941 H 0.58806 0.80986 0.17106 0.0
H942 H 0.71781 0.82515 0.1498 0.0
H943 H 0.7505 0.90832 0.14778 0.0
C944 C 0.6668 0.70915 0.16817 0.0
C945 C 0.65696 0.70304 0.18809 0.0
C946 C 0.65527 0.73767 0.1574 0.0
C947 C 0.63601 0.76189 0.1668 0.0
C948 C 0.61717 0.74725 0.18548 0.0
C949 C 0.62755 0.71782 0.19607 0.0
C950 C 0.64327 0.8797 0.16533 0.0
C951 C 0.68993 0.90826 0.15965 0.0
C952 C 0.62343 0.83103 0.16581 0.0
C953 C 0.65007 0.8103 0.16069 0.0
C954 C 0.69562 0.83915 0.15366 0.0
C955 C 0.71513 0.88734 0.1531 0.0
H956 H 0.74395 0.62526 0.50975 0.0
H957 H 0.86109 0.74992 0.48595 0.0
H958 H 0.7925 0.58909 0.51255 0.0
H959 H 0.90952 0.7155 0.48947 0.0
H960 H 1.00338 0.67789 0.49922 0.0
H961 H 0.93243 0.65999 0.48184 0.0
H962 H 0.85318 0.60428 0.53471 0.0
H963 H 0.92288 0.61963 0.55152 0.0
C964 C 0.77998 0.64482 0.50512 0.0
C965 C 0.79928 0.691 0.49831 0.0
C966 C 0.80763 0.62405 0.50657 0.0
C967 C 0.85493 0.64916 0.50118 0.0
C968 C 0.87314 0.69444 0.49343 0.0
C969 C 0.84569 0.71495 0.49197 0.0
C970 C 0.97027 0.65918 0.50673 0.0
C971 C 0.96871 0.65203 0.52683 0.0
C972 C 0.92965 0.64913 0.49685 0.0
C973 C 0.88789 0.6337 0.50725 0.0
C974 C 0.8849 0.6173 0.52631 0.0
C975 C 0.92523 0.62628 0.53605 0.0
H976 H 0.29148 0.90267 0.87676 0.0
H977 H 0.17665 0.9113 0.90167 0.0
H978 H 0.24081 0.81783 0.87306 0.0
H979 H 0.12629 0.8286 0.89739 0.0
H980 H 0.10975 0.72363 0.83319 0.0
H981 H 0.1799 0.77539 0.85057 0.0
H982 H 0.10014 0.74892 0.90343 0.0
H983 H 0.02884 0.69888 0.88547 0.0
C984 C 0.25551 0.88638 0.88143 0.0
C985 C 0.23733 0.91361 0.8887 0.0
C986 C 0.22666 0.83792 0.87949 0.0
C987 C 0.17938 0.81615 0.8849 0.0
C988 C 0.16252 0.8435 0.89333 0.0
C989 C 0.1911 0.89144 0.89524 0.0
C990 C 0.10734 0.72687 0.84873 0.0
C991 C 0.06385 0.70912 0.85788 0.0
C992 C 0.14789 0.7566 0.8588 0.0
C993 C 0.14513 0.76847 0.87812 0.0
C994 C 0.10285 0.74209 0.88825 0.0
C995 C 0.06204 0.71331 0.87805 0.0
loop_
_geom_bond_atom_site_label_1
_geom_bond_atom_site_label_2
_geom_bond_distance
_geom_bond_site_symmetry_2
_ccdc_geom_bond_type
Co0 N4 2.148 . S
Co0 N10 2.128 . S
Co0 N20 2.194 . S
Co0 O25 2.351 . S
Co0 O26 2.155 . S
Co0 O27 2.096 . S
C1 N4 1.301 . S
C1 N5 1.328 . S
C1 H6 0.930 . S
C2 C3 1.333 . S
C2 N4 1.317 . S
C2 H7 0.930 . S
C3 C2 1.333 . S
C3 N5 1.350 . S
C3 H29 0.931 . S
N4 Co0 2.148 . S
N4 C1 1.301 . S
N4 C2 1.317 . S
N5 C1 1.328 . S
N5 C3 1.350 . S
H6 C1 0.930 . S
H7 C2 0.930 . S
C8 O9 1.224 . S
C8 O27 1.247 . S
O9 C8 1.224 . S
N10 Co0 2.128 . S
N10 C11 1.355 . S
N10 C13 1.311 . S
C11 N10 1.355 . S
C11 C12 1.363 . S
C11 H23 0.929 . S
C12 C11 1.363 . S
C12 N14 1.375 . S
C12 H30 0.931 . S
C13 N10 1.311 . S
C13 N14 1.347 . S
C13 H24 0.929 . S
N14 C12 1.375 . S
N14 C13 1.347 . S
C15 C18 1.365 . S
C15 N20 1.328 . S
C15 H21 0.929 . S
C16 C17 1.362 . S
C16 C19 1.378 . S
C16 H31 0.929 . S
C17 C16 1.362 . S
C17 C18 1.366 . S
C18 C15 1.365 . S
C18 C17 1.366 . S
C18 H32 0.930 . S
C19 C16 1.378 . S
C19 N20 1.315 . S
C19 H22 0.930 . S
N20 Co0 2.194 . S
N20 C15 1.328 . S
N20 C19 1.315 . S
H21 C15 0.929 . S
H22 C19 0.930 . S
H23 C11 0.929 . S
H24 C13 0.929 . S
O25 Co0 2.351 . S
O25 C28 1.244 . S
O26 Co0 2.155 . S
O26 C28 1.240 . S
O27 Co0 2.096 . S
O27 C8 1.247 . S
C28 O25 1.244 . S
C28 O26 1.240 . S
H29 C3 0.931 . S
H30 C12 0.931 . S
H31 C16 0.929 . S
H32 C18 0.930 . S
Co33 N37 2.148 . S
Co33 N43 2.128 . S
Co33 N53 2.194 . S
Co33 O58 2.351 . S
Co33 O59 2.155 . S
Co33 O60 2.096 . S
C34 N37 1.301 . S
C34 N38 1.328 . S
C34 H39 0.930 . S
C35 C36 1.333 . S
C35 N37 1.317 . S
C35 H40 0.930 . S
C36 C35 1.333 . S
C36 N38 1.350 . S
C36 H62 0.931 . S
N37 Co33 2.148 . S
N37 C34 1.301 . S
N37 C35 1.317 . S
N38 C34 1.328 . S
N38 C36 1.350 . S
H39 C34 0.930 . S
H40 C35 0.930 . S
C41 O42 1.224 . S
C41 O60 1.247 . S
O42 C41 1.224 . S
N43 Co33 2.128 . S
N43 C44 1.355 . S
N43 C46 1.311 . S
C44 N43 1.355 . S
C44 C45 1.363 . S
C44 H56 0.929 1_655 S
C45 C44 1.363 . S
C45 N47 1.375 . S
C45 H63 0.931 1_655 S
C46 N43 1.311 . S
C46 N47 1.347 . S
C46 H57 0.929 . S
N47 C45 1.375 . S
N47 C46 1.347 . S
C48 C51 1.365 . S
C48 N53 1.328 1_455 S
C48 H54 0.929 . S
C49 C50 1.362 . S
C49 C52 1.378 1_455 S
C49 H64 0.929 . S
C50 C49 1.362 . S
C50 C51 1.366 . S
C51 C48 1.365 . S
C51 C50 1.366 . S
C51 H65 0.930 . S
C52 C49 1.378 1_655 S
C52 N53 1.315 . S
C52 H55 0.930 . S
N53 Co33 2.194 . S
N53 C48 1.328 1_655 S
N53 C52 1.315 . S
H54 C48 0.929 . S
H55 C52 0.930 . S
H56 C44 0.929 1_455 S
H57 C46 0.929 . S
O58 Co33 2.351 . S
O58 C61 1.244 . S
O59 Co33 2.155 . S
O59 C61 1.240 . S
O60 Co33 2.096 . S
O60 C41 1.247 . S
C61 O58 1.244 . S
C61 O59 1.240 . S
H62 C36 0.931 . S
H63 C45 0.931 1_455 S
H64 C49 0.929 . S
H65 C51 0.930 . S
Co66 N70 2.148 . S
Co66 N76 2.128 . S
Co66 N86 2.194 . S
Co66 O91 2.351 . S
Co66 O92 2.155 . S
Co66 O93 2.096 . S
C67 N70 1.301 . S
C67 N71 1.328 . S
C67 H72 0.930 . S
C68 C69 1.333 . S
C68 N70 1.317 . S
C68 H73 0.930 . S
C69 C68 1.333 . S
C69 N71 1.350 . S
C69 H95 0.931 . S
N70 Co66 2.148 . S
N70 C67 1.301 . S
N70 C68 1.317 . S
N71 C67 1.328 . S
N71 C69 1.350 . S
H72 C67 0.930 . S
H73 C68 0.930 . S
C74 O75 1.224 . S
C74 O93 1.247 . S
O75 C74 1.224 . S
N76 Co66 2.128 . S
N76 C77 1.355 . S
N76 C79 1.311 . S
C77 N76 1.355 . S
C77 C78 1.363 . S
C77 H89 0.929 1_565 S
C78 C77 1.363 . S
C78 N80 1.375 . S
C78 H96 0.931 1_565 S
C79 N76 1.311 . S
C79 N80 1.347 . S
C79 H90 0.929 . S
N80 C78 1.375 . S
N80 C79 1.347 . S
C81 C84 1.365 . S
C81 N86 1.328 1_545 S
C81 H87 0.929 . S
C82 C83 1.362 . S
C82 C85 1.378 1_545 S
C82 H97 0.929 . S
C83 C82 1.362 . S
C83 C84 1.366 . S
C84 C81 1.365 . S
C84 C83 1.366 . S
C84 H98 0.930 . S
C85 C82 1.378 1_565 S
C85 N86 1.315 . S
C85 H88 0.930 . S
N86 Co66 2.194 . S
N86 C81 1.328 1_565 S
N86 C85 1.315 . S
H87 C81 0.929 . S
H88 C85 0.930 . S
H89 C77 0.929 1_545 S
H90 C79 0.929 . S
O91 Co66 2.351 . S
O91 C94 1.244 . S
O92 Co66 2.155 . S
O92 C94 1.240 . S
O93 Co66 2.096 . S
O93 C74 1.247 . S
C94 O91 1.244 . S
C94 O92 1.240 . S
H95 C69 0.931 . S
H96 C78 0.931 1_545 S
H97 C82 0.929 . S
H98 C84 0.930 . S
Co99 N103 2.148 . S
Co99 N109 2.128 . S
Co99 N119 2.194 . S
Co99 O124 2.351 . S
Co99 O125 2.155 . S
Co99 O126 2.096 . S
C100 N103 1.301 . S
C100 N104 1.328 . S
C100 H105 0.930 . S
C101 C102 1.333 . S
C101 N103 1.317 . S
C101 H106 0.930 . S
C102 C101 1.333 . S
C102 N104 1.350 . S
C102 H128 0.931 . S
N103 Co99 2.148 . S
N103 C100 1.301 . S
N103 C101 1.317 . S
N104 C100 1.328 . S
N104 C102 1.350 . S
H105 C100 0.930 . S
H106 C101 0.930 . S
C107 O108 1.224 . S
C107 O126 1.247 . S
O108 C107 1.224 . S
N109 Co99 2.128 . S
N109 C110 1.355 . S
N109 C112 1.311 . S
C110 N109 1.355 . S
C110 C111 1.363 . S
C110 H122 0.929 . S
C111 C110 1.363 . S
C111 N113 1.375 . S
C111 H129 0.931 . S
C112 N109 1.311 . S
C112 N113 1.347 . S
C112 H123 0.929 . S
N113 C111 1.375 . S
N113 C112 1.347 . S
C114 C117 1.365 . S
C114 N119 1.328 . S
C114 H120 0.929 . S
C115 C116 1.362 . S
C115 C118 1.378 . S
C115 H130 0.929 . S
C116 C115 1.362 . S
C116 C117 1.366 . S
C117 C114 1.365 . S
C117 C116 1.366 . S
C117 H131 0.930 . S
C118 C115 1.378 . S
C118 N119 1.315 . S
C118 H121 0.930 . S
N119 Co99 2.194 . S
N119 C114 1.328 . S
N119 C118 1.315 . S
H120 C114 0.929 . S
H121 C118 0.930 . S
H122 C110 0.929 . S
H123 C112 0.929 . S
O124 Co99 2.351 . S
O124 C127 1.244 . S
O125 Co99 2.155 . S
O125 C127 1.240 . S
O126 Co99 2.096 . S
O126 C107 1.247 . S
C127 O124 1.244 . S
C127 O125 1.240 . S
H128 C102 0.931 . S
H129 C111 0.931 . S
H130 C115 0.929 . S
H131 C117 0.930 . S
Co132 N136 2.148 . S
Co132 N142 2.128 . S
Co132 N152 2.194 . S
Co132 O157 2.351 . S
Co132 O158 2.155 . S
Co132 O159 2.096 . S
C133 N136 1.301 . S
C133 N137 1.328 . S
C133 H138 0.930 . S
C134 C135 1.333 . S
C134 N136 1.317 . S
C134 H139 0.930 . S
C135 C134 1.333 . S
C135 N137 1.350 . S
C135 H161 0.931 . S
N136 Co132 2.148 . S
N136 C133 1.301 . S
N136 C134 1.317 . S
N137 C133 1.328 . S
N137 C135 1.350 . S
H138 C133 0.930 . S
H139 C134 0.930 . S
C140 O141 1.224 . S
C140 O159 1.247 . S
O141 C140 1.224 . S
N142 Co132 2.128 . S
N142 C143 1.355 . S
N142 C145 1.311 . S
C143 N142 1.355 . S
C143 C144 1.363 . S
C143 H155 0.929 1_455 S
C144 C143 1.363 . S
C144 N146 1.375 . S
C144 H162 0.931 1_455 S
C145 N142 1.311 . S
C145 N146 1.347 . S
C145 H156 0.929 . S
N146 C144 1.375 . S
N146 C145 1.347 . S
C147 C150 1.365 . S
C147 N152 1.328 1_655 S
C147 H153 0.929 . S
C148 C149 1.362 . S
C148 C151 1.378 1_655 S
C148 H163 0.929 . S
C149 C148 1.362 . S
C149 C150 1.366 . S
C150 C147 1.365 . S
C150 C149 1.366 . S
C150 H164 0.930 . S
C151 C148 1.378 1_455 S
C151 N152 1.315 . S
C151 H154 0.930 . S
N152 Co132 2.194 . S
N152 C147 1.328 1_455 S
N152 C151 1.315 . S
H153 C147 0.929 . S
H154 C151 0.930 . S
H155 C143 0.929 1_655 S
H156 C145 0.929 . S
O157 Co132 2.351 . S
O157 C160 1.244 . S
O158 Co132 2.155 . S
O158 C160 1.240 . S
O159 Co132 2.096 . S
O159 C140 1.247 . S
C160 O157 1.244 . S
C160 O158 1.240 . S
H161 C135 0.931 . S
H162 C144 0.931 1_655 S
H163 C148 0.929 . S
H164 C150 0.930 . S
Co165 N169 2.148 . S
Co165 N175 2.128 . S
Co165 N185 2.194 . S
Co165 O190 2.351 . S
Co165 O191 2.155 . S
Co165 O192 2.096 . S
C166 N169 1.301 . S
C166 N170 1.328 . S
C166 H171 0.930 . S
C167 C168 1.333 . S
C167 N169 1.317 . S
C167 H172 0.930 . S
C168 C167 1.333 . S
C168 N170 1.350 . S
C168 H194 0.931 . S
N169 Co165 2.148 . S
N169 C166 1.301 . S
N169 C167 1.317 . S
N170 C166 1.328 . S
N170 C168 1.350 . S
H171 C166 0.930 . S
H172 C167 0.930 . S
C173 O174 1.224 . S
C173 O192 1.247 . S
O174 C173 1.224 . S
N175 Co165 2.128 . S
N175 C176 1.355 . S
N175 C178 1.311 . S
C176 N175 1.355 . S
C176 C177 1.363 . S
C176 H188 0.929 1_545 S
C177 C176 1.363 . S
C177 N179 1.375 . S
C177 H195 0.931 1_545 S
C178 N175 1.311 . S
C178 N179 1.347 . S
C178 H189 0.929 . S
N179 C177 1.375 . S
N179 C178 1.347 . S
C180 C183 1.365 . S
C180 N185 1.328 1_565 S
C180 H186 0.929 . S
C181 C182 1.362 . S
C181 C184 1.378 1_565 S
C181 H196 0.929 . S
C182 C181 1.362 . S
C182 C183 1.366 . S
C183 C180 1.365 . S
C183 C182 1.366 . S
C183 H197 0.930 . S
C184 C181 1.378 1_545 S
C184 N185 1.315 . S
C184 H187 0.930 . S
N185 Co165 2.194 . S
N185 C180 1.328 1_545 S
N185 C184 1.315 . S
H186 C180 0.929 . S
H187 C184 0.930 . S
H188 C176 0.929 1_565 S
H189 C178 0.929 . S
O190 Co165 2.351 . S
O190 C193 1.244 . S
O191 Co165 2.155 . S
O191 C193 1.240 . S
O192 Co165 2.096 . S
O192 C173 1.247 . S
C193 O190 1.244 . S
C193 O191 1.240 . S
H194 C168 0.931 . S
H195 C177 0.931 1_565 S
H196 C181 0.929 . S
H197 C183 0.930 . S
Co198 N202 2.148 . S
Co198 N208 2.128 . S
Co198 N218 2.194 . S
Co198 O223 2.351 . S
Co198 O224 2.155 . S
Co198 O225 2.096 . S
C199 N202 1.301 . S
C199 N203 1.328 . S
C199 H204 0.930 . S
C200 C201 1.333 . S
C200 N202 1.317 . S
C200 H205 0.930 . S
C201 C200 1.333 . S
C201 N203 1.350 . S
C201 H227 0.931 . S
N202 Co198 2.148 . S
N202 C199 1.301 . S
N202 C200 1.317 . S
N203 C199 1.328 . S
N203 C201 1.350 . S
H204 C199 0.930 . S
H205 C200 0.930 . S
C206 O207 1.224 . S
C206 O225 1.247 . S
O207 C206 1.224 . S
N208 Co198 2.128 . S
N208 C209 1.355 . S
N208 C211 1.311 . S
C209 N208 1.355 . S
C209 C210 1.363 . S
C209 H221 0.929 . S
C210 C209 1.363 . S
C210 N212 1.375 . S
C210 H228 0.931 . S
C211 N208 1.311 . S
C211 N212 1.347 . S
C211 H222 0.929 . S
N212 C210 1.375 . S
N212 C211 1.347 . S
C213 C216 1.365 . S
C213 N218 1.328 . S
C213 H219 0.929 . S
C214 C215 1.362 . S
C214 C217 1.378 . S
C214 H229 0.929 . S
C215 C214 1.362 . S
C215 C216 1.366 . S
C216 C213 1.365 . S
C216 C215 1.366 . S
C216 H230 0.930 . S
C217 C214 1.378 . S
C217 N218 1.315 . S
C217 H220 0.930 . S
N218 Co198 2.194 . S
N218 C213 1.328 . S
N218 C217 1.315 . S
H219 C213 0.929 . S
H220 C217 0.930 . S
H221 C209 0.929 . S
H222 C211 0.929 . S
O223 Co198 2.351 . S
O223 C226 1.244 . S
O224 Co198 2.155 . S
O224 C226 1.240 . S
O225 Co198 2.096 . S
O225 C206 1.247 . S
C226 O223 1.244 . S
C226 O224 1.240 . S
H227 C201 0.931 . S
H228 C210 0.931 . S
H229 C214 0.929 . S
H230 C216 0.930 . S
Co231 N235 2.148 . S
Co231 N241 2.128 . S
Co231 N251 2.194 . S
Co231 O256 2.351 . S
Co231 O257 2.155 . S
Co231 O258 2.096 . S
C232 N235 1.301 . S
C232 N236 1.328 . S
C232 H237 0.930 . S
C233 C234 1.333 . S
C233 N235 1.317 . S
C233 H238 0.930 . S
C234 C233 1.333 . S
C234 N236 1.350 . S
C234 H260 0.931 . S
N235 Co231 2.148 . S
N235 C232 1.301 . S
N235 C233 1.317 . S
N236 C232 1.328 . S
N236 C234 1.350 . S
H237 C232 0.930 . S
H238 C233 0.930 . S
C239 O240 1.224 . S
C239 O258 1.247 . S
O240 C239 1.224 . S
N241 Co231 2.128 . S
N241 C242 1.355 . S
N241 C244 1.311 . S
C242 N241 1.355 . S
C242 C243 1.363 . S
C242 H254 0.929 1_655 S
C243 C242 1.363 . S
C243 N245 1.375 . S
C243 H261 0.931 1_655 S
C244 N241 1.311 . S
C244 N245 1.347 . S
C244 H255 0.929 . S
N245 C243 1.375 . S
N245 C244 1.347 . S
C246 C249 1.365 . S
C246 N251 1.328 1_455 S
C246 H252 0.929 . S
C247 C248 1.362 . S
C247 C250 1.378 1_455 S
C247 H262 0.929 . S
C248 C247 1.362 . S
C248 C249 1.366 . S
C249 C246 1.365 . S
C249 C248 1.366 . S
C249 H263 0.930 . S
C250 C247 1.378 1_655 S
C250 N251 1.315 . S
C250 H253 0.930 . S
N251 Co231 2.194 . S
N251 C246 1.328 1_655 S
N251 C250 1.315 . S
H252 C246 0.929 . S
H253 C250 0.930 . S
H254 C242 0.929 1_455 S
H255 C244 0.929 . S
O256 Co231 2.351 . S
O256 C259 1.244 . S
O257 Co231 2.155 . S
O257 C259 1.240 . S
O258 Co231 2.096 . S
O258 C239 1.247 . S
C259 O256 1.244 . S
C259 O257 1.240 . S
H260 C234 0.931 . S
H261 C243 0.931 1_455 S
H262 C247 0.929 . S
H263 C249 0.930 . S
Co264 N268 2.148 . S
Co264 N274 2.128 . S
Co264 N284 2.194 . S
Co264 O289 2.351 . S
Co264 O290 2.155 . S
Co264 O291 2.096 . S
C265 N268 1.301 . S
C265 N269 1.328 . S
C265 H270 0.930 . S
C266 C267 1.333 . S
C266 N268 1.317 . S
C266 H271 0.930 . S
C267 C266 1.333 . S
C267 N269 1.350 . S
C267 H293 0.931 . S
N268 Co264 2.148 . S
N268 C265 1.301 . S
N268 C266 1.317 . S
N269 C265 1.328 . S
N269 C267 1.350 . S
H270 C265 0.930 . S
H271 C266 0.930 . S
C272 O273 1.224 . S
C272 O291 1.247 . S
O273 C272 1.224 . S
N274 Co264 2.128 . S
N274 C275 1.355 . S
N274 C277 1.311 . S
C275 N274 1.355 . S
C275 C276 1.363 . S
C275 H287 0.929 1_565 S
C276 C275 1.363 . S
C276 N278 1.375 . S
C276 H294 0.931 1_565 S
C277 N274 1.311 . S
C277 N278 1.347 . S
C277 H288 0.929 . S
N278 C276 1.375 . S
N278 C277 1.347 . S
C279 C282 1.365 . S
C279 N284 1.328 1_545 S
C279 H285 0.929 . S
C280 C281 1.362 . S
C280 C283 1.378 1_545 S
C280 H295 0.929 . S
C281 C280 1.362 . S
C281 C282 1.366 . S
C282 C279 1.365 . S
C282 C281 1.366 . S
C282 H296 0.930 . S
C283 C280 1.378 1_565 S
C283 N284 1.315 . S
C283 H286 0.930 . S
N284 Co264 2.194 . S
N284 C279 1.328 1_565 S
N284 C283 1.315 . S
H285 C279 0.929 . S
H286 C283 0.930 . S
H287 C275 0.929 1_545 S
H288 C277 0.929 . S
O289 Co264 2.351 . S
O289 C292 1.244 . S
O290 Co264 2.155 . S
O290 C292 1.240 . S
O291 Co264 2.096 . S
O291 C272 1.247 . S
C292 O289 1.244 . S
C292 O290 1.240 . S
H293 C267 0.931 . S
H294 C276 0.931 1_545 S
H295 C280 0.929 . S
H296 C282 0.930 . S
Co297 N301 2.148 . S
Co297 N307 2.128 . S
Co297 N317 2.194 . S
Co297 O322 2.351 . S
Co297 O323 2.155 . S
Co297 O324 2.096 . S
C298 N301 1.301 . S
C298 N302 1.328 . S
C298 H303 0.930 . S
C299 C300 1.333 . S
C299 N301 1.317 . S
C299 H304 0.930 . S
C300 C299 1.333 . S
C300 N302 1.350 . S
C300 H326 0.931 . S
N301 Co297 2.148 . S
N301 C298 1.301 . S
N301 C299 1.317 . S
N302 C298 1.328 . S
N302 C300 1.350 . S
H303 C298 0.930 . S
H304 C299 0.930 . S
C305 O306 1.224 . S
C305 O324 1.247 . S
O306 C305 1.224 . S
N307 Co297 2.128 . S
N307 C308 1.355 . S
N307 C310 1.311 . S
C308 N307 1.355 . S
C308 C309 1.363 . S
C308 H320 0.929 . S
C309 C308 1.363 . S
C309 N311 1.375 . S
C309 H327 0.931 . S
C310 N307 1.311 . S
C310 N311 1.347 . S
C310 H321 0.929 . S
N311 C309 1.375 . S
N311 C310 1.347 . S
C312 C315 1.365 . S
C312 N317 1.328 . S
C312 H318 0.929 . S
C313 C314 1.362 . S
C313 C316 1.378 . S
C313 H328 0.929 . S
C314 C313 1.362 . S
C314 C315 1.366 . S
C315 C312 1.365 . S
C315 C314 1.366 . S
C315 H329 0.930 . S
C316 C313 1.378 . S
C316 N317 1.315 . S
C316 H319 0.930 . S
N317 Co297 2.194 . S
N317 C312 1.328 . S
N317 C316 1.315 . S
H318 C312 0.929 . S
H319 C316 0.930 . S
H320 C308 0.929 . S
H321 C310 0.929 . S
O322 Co297 2.351 . S
O322 C325 1.244 . S
O323 Co297 2.155 . S
O323 C325 1.240 . S
O324 Co297 2.096 . S
O324 C305 1.247 . S
C325 O322 1.244 . S
C325 O323 1.240 . S
H326 C300 0.931 . S
H327 C309 0.931 . S
H328 C313 0.929 . S
H329 C315 0.930 . S
Co330 N334 2.148 . S
Co330 N340 2.128 . S
Co330 N350 2.194 . S
Co330 O355 2.351 . S
Co330 O356 2.155 . S
Co330 O357 2.096 . S
C331 N334 1.301 . S
C331 N335 1.328 . S
C331 H336 0.930 . S
C332 C333 1.333 . S
C332 N334 1.317 . S
C332 H337 0.930 . S
C333 C332 1.333 . S
C333 N335 1.350 . S
C333 H359 0.931 . S
N334 Co330 2.148 . S
N334 C331 1.301 . S
N334 C332 1.317 . S
N335 C331 1.328 . S
N335 C333 1.350 . S
H336 C331 0.930 . S
H337 C332 0.930 . S
C338 O339 1.224 . S
C338 O357 1.247 . S
O339 C338 1.224 . S
N340 Co330 2.128 . S
N340 C341 1.355 . S
N340 C343 1.311 . S
C341 N340 1.355 . S
C341 C342 1.363 . S
C341 H353 0.929 1_455 S
C342 C341 1.363 . S
C342 N344 1.375 . S
C342 H360 0.931 1_455 S
C343 N340 1.311 . S
C343 N344 1.347 . S
C343 H354 0.929 . S
N344 C342 1.375 . S
N344 C343 1.347 . S
C345 C348 1.365 . S
C345 N350 1.328 1_655 S
C345 H351 0.929 . S
C346 C347 1.362 . S
C346 C349 1.378 1_655 S
C346 H361 0.929 . S
C347 C346 1.362 . S
C347 C348 1.366 . S
C348 C345 1.365 . S
C348 C347 1.366 . S
C348 H362 0.930 . S
C349 C346 1.378 1_455 S
C349 N350 1.315 . S
C349 H352 0.930 . S
N350 Co330 2.194 . S
N350 C345 1.328 1_455 S
N350 C349 1.315 . S
H351 C345 0.929 . S
H352 C349 0.930 . S
H353 C341 0.929 1_655 S
H354 C343 0.929 . S
O355 Co330 2.351 . S
O355 C358 1.244 . S
O356 Co330 2.155 . S
O356 C358 1.240 . S
O357 Co330 2.096 . S
O357 C338 1.247 . S
C358 O355 1.244 . S
C358 O356 1.240 . S
H359 C333 0.931 . S
H360 C342 0.931 1_655 S
H361 C346 0.929 . S
H362 C348 0.930 . S
Co363 N367 2.148 . S
Co363 N373 2.128 . S
Co363 N383 2.194 . S
Co363 O388 2.351 . S
Co363 O389 2.155 . S
Co363 O390 2.096 . S
C364 N367 1.301 . S
C364 N368 1.328 . S
C364 H369 0.930 . S
C365 C366 1.333 . S
C365 N367 1.317 . S
C365 H370 0.930 . S
C366 C365 1.333 . S
C366 N368 1.350 . S
C366 H392 0.931 . S
N367 Co363 2.148 . S
N367 C364 1.301 . S
N367 C365 1.317 . S
N368 C364 1.328 . S
N368 C366 1.350 . S
H369 C364 0.930 . S
H370 C365 0.930 . S
C371 O372 1.224 . S
C371 O390 1.247 . S
O372 C371 1.224 . S
N373 Co363 2.128 . S
N373 C374 1.355 . S
N373 C376 1.311 . S
C374 N373 1.355 . S
C374 C375 1.363 . S
C374 H386 0.929 1_545 S
C375 C374 1.363 . S
C375 N377 1.375 . S
C375 H393 0.931 1_545 S
C376 N373 1.311 . S
C376 N377 1.347 . S
C376 H387 0.929 . S
N377 C375 1.375 . S
N377 C376 1.347 . S
C378 C381 1.365 . S
C378 N383 1.328 1_565 S
C378 H384 0.929 . S
C379 C380 1.362 . S
C379 C382 1.378 1_565 S
C379 H394 0.929 . S
C380 C379 1.362 . S
C380 C381 1.366 . S
C381 C378 1.365 . S
C381 C380 1.366 . S
C381 H395 0.930 . S
C382 C379 1.378 1_545 S
C382 N383 1.315 . S
C382 H385 0.930 . S
N383 Co363 2.194 . S
N383 C378 1.328 1_545 S
N383 C382 1.315 . S
H384 C378 0.929 . S
H385 C382 0.930 . S
H386 C374 0.929 1_565 S
H387 C376 0.929 . S
O388 Co363 2.351 . S
O388 C391 1.244 . S
O389 Co363 2.155 . S
O389 C391 1.240 . S
O390 Co363 2.096 . S
O390 C371 1.247 . S
C391 O388 1.244 . S
C391 O389 1.240 . S
H392 C366 0.931 . S
H393 C375 0.931 1_565 S
H394 C379 0.929 . S
H395 C381 0.930 . S
H396 C404 0.950 . S
H397 C409 0.950 . S
H398 C406 0.950 . S
H399 C408 0.950 . S
H400 C410 0.950 . S
H401 C412 0.950 . S
H402 C414 0.950 . S
H403 C415 0.950 . S
C404 H396 0.950 . S
C404 C405 1.386 . S
C404 C406 1.391 . S
C405 C404 1.386 . S
C405 C409 1.393 . S
C406 H398 0.950 . S
C406 C404 1.391 . S
C406 C407 1.400 . S
C407 C406 1.400 . S
C407 C408 1.398 . S
C407 C413 1.491 . S
C408 H399 0.950 . S
C408 C407 1.398 . S
C408 C409 1.391 . S
C409 H397 0.950 . S
C409 C405 1.393 . S
C409 C408 1.391 . S
C410 H400 0.950 . S
C410 C411 1.386 . S
C410 C412 1.391 . S
C411 C410 1.386 . S
C411 C415 1.393 . S
C412 H401 0.950 . S
C412 C410 1.391 . S
C412 C413 1.400 . S
C413 C407 1.491 . S
C413 C412 1.400 . S
C413 C414 1.398 . S
C414 H402 0.950 . S
C414 C413 1.398 . S
C414 C415 1.391 . S
C415 H403 0.950 . S
C415 C411 1.393 . S
C415 C414 1.391 . S
H416 C424 0.950 . S
H417 C429 0.950 . S
H418 C426 0.950 . S
H419 C428 0.950 . S
H420 C430 0.950 . S
H421 C432 0.950 . S
H422 C434 0.950 . S
H423 C435 0.950 . S
C424 H416 0.950 . S
C424 C425 1.386 . S
C424 C426 1.391 . S
C425 C424 1.386 . S
C425 C429 1.393 . S
C426 H418 0.950 . S
C426 C424 1.391 . S
C426 C427 1.400 . S
C427 C426 1.400 . S
C427 C428 1.398 . S
C427 C433 1.491 1_455 S
C428 H419 0.950 . S
C428 C427 1.398 . S
C428 C429 1.391 . S
C429 H417 0.950 . S
C429 C425 1.393 . S
C429 C428 1.391 . S
C430 H420 0.950 . S
C430 C431 1.386 . S
C430 C432 1.391 . S
C431 C430 1.386 . S
C431 C435 1.393 . S
C432 H421 0.950 . S
C432 C430 1.391 . S
C432 C433 1.400 . S
C433 C427 1.491 1_655 S
C433 C432 1.400 . S
C433 C434 1.398 . S
C434 H422 0.950 . S
C434 C433 1.398 . S
C434 C435 1.391 . S
C435 H423 0.950 . S
C435 C431 1.393 . S
C435 C434 1.391 . S
H436 C444 0.950 . S
H437 C449 0.950 . S
H438 C446 0.950 . S
H439 C448 0.950 . S
H440 C450 0.950 . S
H441 C452 0.950 . S
H442 C454 0.950 . S
H443 C455 0.950 . S
C444 H436 0.950 . S
C444 C445 1.386 . S
C444 C446 1.391 1_545 S
C445 C444 1.386 . S
C445 C449 1.393 . S
C446 H438 0.950 . S
C446 C444 1.391 1_565 S
C446 C447 1.400 1_565 S
C447 C446 1.400 1_545 S
C447 C448 1.398 . S
C447 C453 1.491 1_545 S
C448 H439 0.950 . S
C448 C447 1.398 . S
C448 C449 1.391 . S
C449 H437 0.950 . S
C449 C445 1.393 . S
C449 C448 1.391 . S
C450 H440 0.950 . S
C450 C451 1.386 . S
C450 C452 1.391 1_565 S
C451 C450 1.386 . S
C451 C455 1.393 . S
C452 H441 0.950 . S
C452 C450 1.391 1_545 S
C452 C453 1.400 1_545 S
C453 C447 1.491 1_565 S
C453 C452 1.400 1_565 S
C453 C454 1.398 . S
C454 H442 0.950 . S
C454 C453 1.398 . S
C454 C455 1.391 . S
C455 H443 0.950 . S
C455 C451 1.393 . S
C455 C454 1.391 . S
H456 C464 0.950 . S
H457 C469 0.950 . S
H458 C466 0.950 . S
H459 C468 0.950 . S
H460 C470 0.950 . S
H461 C472 0.950 . S
H462 C474 0.950 . S
H463 C475 0.950 . S
C464 H456 0.950 . S
C464 C465 1.386 . S
C464 C466 1.391 . S
C465 C464 1.386 . S
C465 C469 1.393 . S
C466 H458 0.950 . S
C466 C464 1.391 . S
C466 C467 1.400 . S
C467 C466 1.400 . S
C467 C468 1.398 . S
C467 C473 1.491 . S
C468 H459 0.950 . S
C468 C467 1.398 . S
C468 C469 1.391 . S
C469 H457 0.950 . S
C469 C465 1.393 . S
C469 C468 1.391 . S
C470 H460 0.950 . S
C470 C471 1.386 . S
C470 C472 1.391 . S
C471 C470 1.386 . S
C471 C475 1.393 . S
C472 H461 0.950 . S
C472 C470 1.391 . S
C472 C473 1.400 . S
C473 C467 1.491 . S
C473 C472 1.400 . S
C473 C474 1.398 . S
C474 H462 0.950 . S
C474 C473 1.398 . S
C474 C475 1.391 . S
C475 H463 0.950 . S
C475 C471 1.393 . S
C475 C474 1.391 . S
H476 C484 0.950 . S
H477 C489 0.950 . S
H478 C486 0.950 . S
H479 C488 0.950 . S
H480 C490 0.950 . S
H481 C492 0.950 . S
H482 C494 0.950 . S
H483 C495 0.950 . S
C484 H476 0.950 . S
C484 C485 1.386 . S
C484 C486 1.391 . S
C485 C484 1.386 . S
C485 C489 1.393 . S
C486 H478 0.950 . S
C486 C484 1.391 . S
C486 C487 1.400 . S
C487 C486 1.400 . S
C487 C488 1.398 1_655 S
C487 C493 1.491 1_655 S
C488 H479 0.950 . S
C488 C487 1.398 1_455 S
C488 C489 1.391 1_455 S
C489 H477 0.950 . S
C489 C485 1.393 . S
C489 C488 1.391 1_655 S
C490 H480 0.950 . S
C490 C491 1.386 . S
C490 C492 1.391 . S
C491 C490 1.386 . S
C491 C495 1.393 . S
C492 H481 0.950 . S
C492 C490 1.391 . S
C492 C493 1.400 . S
C493 C487 1.491 1_455 S
C493 C492 1.400 . S
C493 C494 1.398 1_455 S
C494 H482 0.950 . S
C494 C493 1.398 1_655 S
C494 C495 1.391 1_655 S
C495 H483 0.950 . S
C495 C491 1.393 . S
C495 C494 1.391 1_455 S
H496 C504 0.950 . S
H497 C509 0.950 . S
H498 C506 0.950 . S
H499 C508 0.950 . S
H500 C510 0.950 . S
H501 C512 0.950 . S
H502 C514 0.950 . S
H503 C515 0.950 . S
C504 H496 0.950 . S
C504 C505 1.386 . S
C504 C506 1.391 1_565 S
C505 C504 1.386 . S
C505 C509 1.393 . S
C506 H498 0.950 . S
C506 C504 1.391 1_545 S
C506 C507 1.400 1_545 S
C507 C506 1.400 1_565 S
C507 C508 1.398 . S
C507 C513 1.491 1_565 S
C508 H499 0.950 . S
C508 C507 1.398 . S
C508 C509 1.391 . S
C509 H497 0.950 . S
C509 C505 1.393 . S
C509 C508 1.391 . S
C510 H500 0.950 . S
C510 C511 1.386 . S
C510 C512 1.391 1_545 S
C511 C510 1.386 . S
C511 C515 1.393 . S
C512 H501 0.950 . S
C512 C510 1.391 1_565 S
C512 C513 1.400 1_565 S
C513 C507 1.491 1_545 S
C513 C512 1.400 1_545 S
C513 C514 1.398 . S
C514 H502 0.950 . S
C514 C513 1.398 . S
C514 C515 1.391 . S
C515 H503 0.950 . S
C515 C511 1.393 . S
C515 C514 1.391 . S
H516 C524 0.950 . S
H517 C529 0.950 . S
H518 C526 0.950 . S
H519 C528 0.950 . S
H520 C530 0.950 . S
H521 C532 0.950 . S
H522 C534 0.950 . S
H523 C535 0.950 . S
C524 H516 0.950 . S
C524 C525 1.386 . S
C524 C526 1.391 . S
C525 C524 1.386 . S
C525 C529 1.393 . S
C526 H518 0.950 . S
C526 C524 1.391 . S
C526 C527 1.400 . S
C527 C526 1.400 . S
C527 C528 1.398 . S
C527 C533 1.491 . S
C528 H519 0.950 . S
C528 C527 1.398 . S
C528 C529 1.391 . S
C529 H517 0.950 . S
C529 C525 1.393 . S
C529 C528 1.391 . S
C530 H520 0.950 . S
C530 C531 1.386 . S
C530 C532 1.391 . S
C531 C530 1.386 . S
C531 C535 1.393 . S
C532 H521 0.950 . S
C532 C530 1.391 . S
C532 C533 1.400 . S
C533 C527 1.491 . S
C533 C532 1.400 . S
C533 C534 1.398 . S
C534 H522 0.950 . S
C534 C533 1.398 . S
C534 C535 1.391 . S
C535 H523 0.950 . S
C535 C531 1.393 . S
C535 C534 1.391 . S
H536 C544 0.950 . S
H537 C549 0.950 . S
H538 C546 0.950 . S
H539 C548 0.950 . S
H540 C550 0.950 . S
H541 C552 0.950 . S
H542 C554 0.950 . S
H543 C555 0.950 . S
C544 H536 0.950 . S
C544 C545 1.386 . S
C544 C546 1.391 . S
C545 C544 1.386 . S
C545 C549 1.393 . S
C546 H538 0.950 . S
C546 C544 1.391 . S
C546 C547 1.400 . S
C547 C546 1.400 . S
C547 C548 1.398 . S
C547 C553 1.491 1_655 S
C548 H539 0.950 . S
C548 C547 1.398 . S
C548 C549 1.391 . S
C549 H537 0.950 . S
C549 C545 1.393 . S
C549 C548 1.391 . S
C550 H540 0.950 . S
C550 C551 1.386 . S
C550 C552 1.391 . S
C551 C550 1.386 . S
C551 C555 1.393 . S
C552 H541 0.950 . S
C552 C550 1.391 . S
C552 C553 1.400 . S
C553 C547 1.491 1_455 S
C553 C552 1.400 . S
C553 C554 1.398 . S
C554 H542 0.950 . S
C554 C553 1.398 . S
C554 C555 1.391 . S
C555 H543 0.950 . S
C555 C551 1.393 . S
C555 C554 1.391 . S
H556 C564 0.950 . S
H557 C569 0.950 . S
H558 C566 0.950 1_565 S
H559 C568 0.950 . S
H560 C570 0.950 . S
H561 C572 0.950 1_545 S
H562 C574 0.950 . S
H563 C575 0.950 . S
C564 H556 0.950 . S
C564 C565 1.386 . S
C564 C566 1.391 . S
C565 C564 1.386 . S
C565 C569 1.393 . S
C566 H558 0.950 1_545 S
C566 C564 1.391 . S
C566 C567 1.400 . S
C567 C566 1.400 . S
C567 C568 1.398 . S
C567 C573 1.491 1_544 S
C568 H559 0.950 . S
C568 C567 1.398 . S
C568 C569 1.391 . S
C569 H557 0.950 . S
C569 C565 1.393 . S
C569 C568 1.391 . S
C570 H560 0.950 . S
C570 C571 1.386 . S
C570 C572 1.391 . S
C571 C570 1.386 . S
C571 C575 1.393 . S
C572 H561 0.950 1_565 S
C572 C570 1.391 . S
C572 C573 1.400 . S
C573 C567 1.491 1_566 S
C573 C572 1.400 . S
C573 C574 1.398 . S
C574 H562 0.950 . S
C574 C573 1.398 . S
C574 C575 1.391 . S
C575 H563 0.950 . S
C575 C571 1.393 . S
C575 C574 1.391 . S
H576 C584 0.950 . S
H577 C589 0.950 . S
H578 C586 0.950 . S
H579 C588 0.950 . S
H580 C590 0.950 . S
H581 C592 0.950 . S
H582 C594 0.950 . S
H583 C595 0.950 . S
C584 H576 0.950 . S
C584 C585 1.386 . S
C584 C586 1.391 . S
C585 C584 1.386 . S
C585 C589 1.393 . S
C586 H578 0.950 . S
C586 C584 1.391 . S
C586 C587 1.400 . S
C587 C586 1.400 . S
C587 C588 1.398 . S
C587 C593 1.491 . S
C588 H579 0.950 . S
C588 C587 1.398 . S
C588 C589 1.391 . S
C589 H577 0.950 . S
C589 C585 1.393 . S
C589 C588 1.391 . S
C590 H580 0.950 . S
C590 C591 1.386 . S
C590 C592 1.391 . S
C591 C590 1.386 . S
C591 C595 1.393 . S
C592 H581 0.950 . S
C592 C590 1.391 . S
C592 C593 1.400 . S
C593 C587 1.491 . S
C593 C592 1.400 . S
C593 C594 1.398 . S
C594 H582 0.950 . S
C594 C593 1.398 . S
C594 C595 1.391 . S
C595 H583 0.950 . S
C595 C591 1.393 . S
C595 C594 1.391 . S
H596 C604 0.950 . S
H597 C609 0.950 . S
H598 C606 0.950 . S
H599 C608 0.935 1_655 S
H600 C610 0.950 . S
H601 C612 0.950 . S
H602 C614 0.935 1_455 S
H603 C615 0.950 . S
C604 H596 0.950 . S
C604 C605 1.386 . S
C604 C606 1.391 . S
C605 C604 1.386 . S
C605 C609 1.393 . S
C606 H598 0.950 . S
C606 C604 1.391 . S
C606 C607 1.400 . S
C607 C606 1.400 . S
C607 C608 1.398 . S
C607 C613 1.491 1_455 S
C608 H599 0.935 1_455 S
C608 C607 1.398 . S
C608 C609 1.391 . S
C609 H597 0.950 . S
C609 C605 1.393 . S
C609 C608 1.391 . S
C610 H600 0.950 . S
C610 C611 1.386 . S
C610 C612 1.391 . S
C611 C610 1.386 . S
C611 C615 1.393 . S
C612 H601 0.950 . S
C612 C610 1.391 . S
C612 C613 1.400 . S
C613 C607 1.491 1_655 S
C613 C612 1.400 . S
C613 C614 1.398 . S
C614 H602 0.935 1_655 S
C614 C613 1.398 . S
C614 C615 1.391 . S
C615 H603 0.950 . S
C615 C611 1.393 . S
C615 C614 1.391 . S
H616 C624 0.931 1_565 S
H617 C629 0.950 . S
H618 C626 0.950 . S
H619 C628 0.950 . S
H620 C630 0.931 1_545 S
H621 C632 0.950 . S
H622 C634 0.950 . S
H623 C635 0.950 . S
C624 H616 0.931 1_545 S
C624 C625 1.413 . S
C624 C626 1.383 1_545 S
C625 C624 1.413 . S
C625 C629 1.393 . S
C626 H618 0.950 . S
C626 C624 1.383 1_565 S
C626 C627 1.400 1_565 S
C627 C626 1.400 1_545 S
C627 C628 1.398 . S
C627 C633 1.491 1_546 S
C628 H619 0.950 . S
C628 C627 1.398 . S
C628 C629 1.391 . S
C629 H617 0.950 . S
C629 C625 1.393 . S
C629 C628 1.391 . S
C630 H620 0.931 1_565 S
C630 C631 1.413 . S
C630 C632 1.383 1_565 S
C631 C630 1.413 . S
C631 C635 1.393 . S
C632 H621 0.950 . S
C632 C630 1.383 1_545 S
C632 C633 1.400 1_545 S
C633 C627 1.491 1_564 S
C633 C632 1.400 1_565 S
C633 C634 1.398 . S
C634 H622 0.950 . S
C634 C633 1.398 . S
C634 C635 1.391 . S
C635 H623 0.950 . S
C635 C631 1.393 . S
C635 C634 1.391 . S
H636 C644 0.950 1_655 S
H637 C649 0.950 . S
H638 C646 0.950 . S
H639 C648 0.950 . S
H640 C650 0.950 1_455 S
H641 C652 0.950 . S
H642 C654 0.950 . S
H643 C655 0.950 . S
C644 H636 0.950 1_455 S
C644 C645 1.386 . S
C644 C646 1.391 1_455 S
C645 C644 1.386 . S
C645 C649 1.393 . S
C646 H638 0.950 . S
C646 C644 1.391 1_655 S
C646 C647 1.400 1_655 S
C647 C646 1.400 1_455 S
C647 C648 1.398 . S
C647 C653 1.491 1_445 S
C648 H639 0.950 . S
C648 C647 1.398 . S
C648 C649 1.391 . S
C649 H637 0.950 . S
C649 C645 1.393 . S
C649 C648 1.391 . S
C650 H640 0.950 1_655 S
C650 C651 1.386 . S
C650 C652 1.391 1_655 S
C651 C650 1.386 . S
C651 C655 1.393 . S
C652 H641 0.950 . S
C652 C650 1.391 1_455 S
C652 C653 1.400 1_455 S
C653 C647 1.491 1_665 S
C653 C652 1.400 1_655 S
C653 C654 1.398 . S
C654 H642 0.950 . S
C654 C653 1.398 . S
C654 C655 1.391 . S
C655 H643 0.950 . S
C655 C651 1.393 . S
C655 C654 1.391 . S
H656 C664 0.950 . S
H657 C669 0.950 . S
H658 C666 0.950 . S
H659 C668 0.950 . S
H660 C670 0.950 . S
H661 C672 0.950 . S
H662 C674 0.950 . S
H663 C675 0.950 . S
C664 H656 0.950 . S
C664 C665 1.386 . S
C664 C666 1.391 . S
C665 C664 1.386 . S
C665 C669 1.393 . S
C666 H658 0.950 . S
C666 C664 1.391 . S
C666 C667 1.400 . S
C667 C666 1.400 . S
C667 C668 1.398 . S
C667 C673 1.491 1_645 S
C668 H659 0.950 . S
C668 C667 1.398 . S
C668 C669 1.391 . S
C669 H657 0.950 . S
C669 C665 1.393 . S
C669 C668 1.391 . S
C670 H660 0.950 . S
C670 C671 1.386 . S
C670 C672 1.391 . S
C671 C670 1.386 . S
C671 C675 1.393 . S
C672 H661 0.950 . S
C672 C670 1.391 . S
C672 C673 1.400 . S
C673 C667 1.491 1_465 S
C673 C672 1.400 . S
C673 C674 1.398 . S
C674 H662 0.950 . S
C674 C673 1.398 . S
C674 C675 1.391 . S
C675 H663 0.950 . S
C675 C671 1.393 . S
C675 C674 1.391 . S
H676 C684 0.950 . S
H677 C689 0.950 . S
H678 C686 0.950 . S
H679 C688 0.950 . S
H680 C690 0.950 . S
H681 C692 0.950 . S
H682 C694 0.950 . S
H683 C695 0.950 . S
C684 H676 0.950 . S
C684 C685 1.386 . S
C684 C686 1.391 . S
C685 C684 1.386 . S
C685 C689 1.393 . S
C686 H678 0.950 . S
C686 C684 1.391 . S
C686 C687 1.400 . S
C687 C686 1.400 . S
C687 C688 1.398 . S
C687 C693 1.491 1_445 S
C688 H679 0.950 . S
C688 C687 1.398 . S
C688 C689 1.391 . S
C689 H677 0.950 . S
C689 C685 1.393 . S
C689 C688 1.391 . S
C690 H680 0.950 . S
C690 C691 1.386 . S
C690 C692 1.391 . S
C691 C690 1.386 . S
C691 C695 1.393 . S
C692 H681 0.950 . S
C692 C690 1.391 . S
C692 C693 1.400 . S
C693 C687 1.491 1_665 S
C693 C692 1.400 . S
C693 C694 1.398 . S
C694 H682 0.950 . S
C694 C693 1.398 . S
C694 C695 1.391 . S
C695 H683 0.950 . S
C695 C691 1.393 . S
C695 C694 1.391 . S
H696 C704 0.950 . S
H697 C709 0.950 . S
H698 C706 0.950 . S
H699 C708 0.950 . S
H700 C710 0.950 . S
H701 C712 0.950 . S
H702 C714 0.950 . S
H703 C715 0.950 . S
C704 H696 0.950 . S
C704 C705 1.386 . S
C704 C706 1.391 1_565 S
C705 C704 1.386 . S
C705 C709 1.393 . S
C706 H698 0.950 . S
C706 C704 1.391 1_545 S
C706 C707 1.400 1_545 S
C707 C706 1.400 1_565 S
C707 C708 1.398 . S
C707 C713 1.491 1_665 S
C708 H699 0.950 . S
C708 C707 1.398 . S
C708 C709 1.391 . S
C709 H697 0.950 . S
C709 C705 1.393 . S
C709 C708 1.391 . S
C710 H700 0.950 . S
C710 C711 1.386 . S
C710 C712 1.391 1_545 S
C711 C710 1.386 . S
C711 C715 1.393 . S
C712 H701 0.950 . S
C712 C710 1.391 1_565 S
C712 C713 1.400 1_565 S
C713 C707 1.491 1_445 S
C713 C712 1.400 1_545 S
C713 C714 1.398 . S
C714 H702 0.950 . S
C714 C713 1.398 . S
C714 C715 1.391 . S
C715 H703 0.950 . S
C715 C711 1.393 . S
C715 C714 1.391 . S
H716 C724 0.950 . S
H717 C729 0.950 . S
H718 C726 0.950 . S
H719 C728 0.939 1_455 S
H720 C730 0.950 . S
H721 C732 0.950 . S
H722 C734 0.939 1_655 S
H723 C735 0.950 . S
C724 H716 0.950 . S
C724 C725 1.386 . S
C724 C726 1.391 . S
C725 C724 1.386 . S
C725 C729 1.393 . S
C726 H718 0.950 . S
C726 C724 1.391 . S
C726 C727 1.400 . S
C727 C726 1.400 . S
C727 C728 1.409 . S
C727 C733 1.491 1_665 S
C728 H719 0.939 1_655 S
C728 C727 1.409 . S
C728 C729 1.391 . S
C729 H717 0.950 . S
C729 C725 1.393 . S
C729 C728 1.391 . S
C730 H720 0.950 . S
C730 C731 1.386 . S
C730 C732 1.391 . S
C731 C730 1.386 . S
C731 C735 1.393 . S
C732 H721 0.950 . S
C732 C730 1.391 . S
C732 C733 1.400 . S
C733 C727 1.491 1_445 S
C733 C732 1.400 . S
C733 C734 1.409 . S
C734 H722 0.939 1_455 S
C734 C733 1.409 . S
C734 C735 1.391 . S
C735 H723 0.950 . S
C735 C731 1.393 . S
C735 C734 1.391 . S
H736 C744 0.950 . S
H737 C749 0.950 . S
H738 C746 0.950 . S
H739 C748 0.950 . S
H740 C750 0.950 . S
H741 C752 0.950 . S
H742 C754 0.950 . S
H743 C755 0.950 . S
C744 H736 0.950 . S
C744 C745 1.386 . S
C744 C746 1.391 . S
C745 C744 1.386 . S
C745 C749 1.393 . S
C746 H738 0.950 . S
C746 C744 1.391 . S
C746 C747 1.400 . S
C747 C746 1.400 . S
C747 C748 1.398 . S
C747 C753 1.491 1_645 S
C748 H739 0.950 . S
C748 C747 1.398 . S
C748 C749 1.391 . S
C749 H737 0.950 . S
C749 C745 1.393 . S
C749 C748 1.391 . S
C750 H740 0.950 . S
C750 C751 1.386 . S
C750 C752 1.391 . S
C751 C750 1.386 . S
C751 C755 1.393 . S
C752 H741 0.950 . S
C752 C750 1.391 . S
C752 C753 1.400 . S
C753 C747 1.491 1_465 S
C753 C752 1.400 . S
C753 C754 1.398 . S
C754 H742 0.950 . S
C754 C753 1.398 . S
C754 C755 1.391 . S
C755 H743 0.950 . S
C755 C751 1.393 . S
C755 C754 1.391 . S
H756 C764 0.950 . S
H757 C769 0.950 . S
H758 C766 0.950 1_455 S
H759 C768 0.950 . S
H760 C770 0.950 . S
H761 C772 0.950 1_655 S
H762 C774 0.950 . S
H763 C775 0.950 . S
C764 H756 0.950 . S
C764 C765 1.386 . S
C764 C766 1.391 . S
C765 C764 1.386 . S
C765 C769 1.393 . S
C766 H758 0.950 1_655 S
C766 C764 1.391 . S
C766 C767 1.400 . S
C767 C766 1.400 . S
C767 C768 1.398 . S
C767 C773 1.491 1_655 S
C768 H759 0.950 . S
C768 C767 1.398 . S
C768 C769 1.391 . S
C769 H757 0.950 . S
C769 C765 1.393 . S
C769 C768 1.391 . S
C770 H760 0.950 . S
C770 C771 1.386 . S
C770 C772 1.391 . S
C771 C770 1.386 . S
C771 C775 1.393 . S
C772 H761 0.950 1_455 S
C772 C770 1.391 . S
C772 C773 1.400 . S
C773 C767 1.491 1_455 S
C773 C772 1.400 . S
C773 C774 1.398 . S
C774 H762 0.950 . S
C774 C773 1.398 . S
C774 C775 1.391 . S
C775 H763 0.950 . S
C775 C771 1.393 . S
C775 C774 1.391 . S
H776 C784 0.950 . S
H777 C789 0.950 . S
H778 C786 0.950 . S
H779 C788 0.950 . S
H780 C790 0.950 . S
H781 C792 0.950 . S
H782 C794 0.950 . S
H783 C795 0.950 . S
C784 H776 0.950 . S
C784 C785 1.386 . S
C784 C786 1.391 . S
C785 C784 1.386 . S
C785 C789 1.393 . S
C786 H778 0.950 . S
C786 C784 1.391 . S
C786 C787 1.400 . S
C787 C786 1.400 . S
C787 C788 1.398 . S
C787 C793 1.491 1_545 S
C788 H779 0.950 . S
C788 C787 1.398 . S
C788 C789 1.391 . S
C789 H777 0.950 . S
C789 C785 1.393 . S
C789 C788 1.391 . S
C790 H780 0.950 . S
C790 C791 1.386 . S
C790 C792 1.391 . S
C791 C790 1.386 . S
C791 C795 1.393 . S
C792 H781 0.950 . S
C792 C790 1.391 . S
C792 C793 1.400 . S
C793 C787 1.491 1_565 S
C793 C792 1.400 . S
C793 C794 1.398 . S
C794 H782 0.950 . S
C794 C793 1.398 . S
C794 C795 1.391 . S
C795 H783 0.950 . S
C795 C791 1.393 . S
C795 C794 1.391 . S
H796 C804 0.950 . S
H797 C809 0.950 . S
H798 C806 0.950 . S
H799 C808 0.950 . S
H800 C810 0.950 . S
H801 C812 0.950 . S
H802 C814 0.950 . S
H803 C815 0.950 . S
C804 H796 0.950 . S
C804 C805 1.386 . S
C804 C806 1.391 . S
C805 C804 1.386 . S
C805 C809 1.393 . S
C806 H798 0.950 . S
C806 C804 1.391 . S
C806 C807 1.400 . S
C807 C806 1.400 . S
C807 C808 1.398 . S
C807 C813 1.491 . S
C808 H799 0.950 . S
C808 C807 1.398 . S
C808 C809 1.391 . S
C809 H797 0.950 . S
C809 C805 1.393 . S
C809 C808 1.391 . S
C810 H800 0.950 . S
C810 C811 1.386 . S
C810 C812 1.391 . S
C811 C810 1.386 . S
C811 C815 1.393 . S
C812 H801 0.950 . S
C812 C810 1.391 . S
C812 C813 1.400 . S
C813 C807 1.491 . S
C813 C812 1.400 . S
C813 C814 1.398 . S
C814 H802 0.950 . S
C814 C813 1.398 . S
C814 C815 1.391 . S
C815 H803 0.950 . S
C815 C811 1.393 . S
C815 C814 1.391 . S
H816 C824 0.950 . S
H817 C829 0.950 . S
H818 C826 0.950 . S
H819 C828 0.950 . S
H820 C830 0.950 . S
H821 C832 0.950 . S
H822 C834 0.950 . S
H823 C835 0.950 . S
C824 H816 0.950 . S
C824 C825 1.386 . S
C824 C826 1.391 . S
C825 C824 1.386 . S
C825 C829 1.393 . S
C826 H818 0.950 . S
C826 C824 1.391 . S
C826 C827 1.400 . S
C827 C826 1.400 . S
C827 C828 1.398 . S
C827 C833 1.491 1_455 S
C828 H819 0.950 . S
C828 C827 1.398 . S
C828 C829 1.391 . S
C829 H817 0.950 . S
C829 C825 1.393 . S
C829 C828 1.391 . S
C830 H820 0.950 . S
C830 C831 1.386 . S
C830 C832 1.391 . S
C831 C830 1.386 . S
C831 C835 1.393 . S
C832 H821 0.950 . S
C832 C830 1.391 . S
C832 C833 1.400 . S
C833 C827 1.491 1_655 S
C833 C832 1.400 . S
C833 C834 1.398 . S
C834 H822 0.950 . S
C834 C833 1.398 . S
C834 C835 1.391 . S
C835 H823 0.950 . S
C835 C831 1.393 . S
C835 C834 1.391 . S
H836 C844 0.950 . S
H837 C849 0.950 . S
H838 C846 0.950 . S
H839 C848 0.950 . S
H840 C850 0.950 . S
H841 C852 0.950 . S
H842 C854 0.950 . S
H843 C855 0.950 . S
C844 H836 0.950 . S
C844 C845 1.386 . S
C844 C846 1.391 . S
C845 C844 1.386 . S
C845 C849 1.393 . S
C846 H838 0.950 . S
C846 C844 1.391 . S
C846 C847 1.400 . S
C847 C846 1.400 . S
C847 C848 1.398 . S
C847 C853 1.491 1_565 S
C848 H839 0.950 . S
C848 C847 1.398 . S
C848 C849 1.391 . S
C849 H837 0.950 . S
C849 C845 1.393 . S
C849 C848 1.391 . S
C850 H840 0.950 . S
C850 C851 1.386 . S
C850 C852 1.391 . S
C851 C850 1.386 . S
C851 C855 1.393 . S
C852 H841 0.950 . S
C852 C850 1.391 . S
C852 C853 1.400 . S
C853 C847 1.491 1_545 S
C853 C852 1.400 . S
C853 C854 1.398 . S
C854 H842 0.950 . S
C854 C853 1.398 . S
C854 C855 1.391 . S
C855 H843 0.950 . S
C855 C851 1.393 . S
C855 C854 1.391 . S
H856 C864 0.950 . S
H857 C869 0.950 . S
H858 C866 0.950 . S
H859 C868 0.950 . S
H860 C870 0.950 . S
H861 C872 0.950 . S
H862 C874 0.950 . S
H863 C875 0.950 . S
C864 H856 0.950 . S
C864 C865 1.386 . S
C864 C866 1.391 . S
C865 C864 1.386 . S
C865 C869 1.393 . S
C866 H858 0.950 . S
C866 C864 1.391 . S
C866 C867 1.400 . S
C867 C866 1.400 . S
C867 C868 1.398 . S
C867 C873 1.491 . S
C868 H859 0.950 . S
C868 C867 1.398 . S
C868 C869 1.391 . S
C869 H857 0.950 . S
C869 C865 1.393 . S
C869 C868 1.391 . S
C870 H860 0.950 . S
C870 C871 1.386 . S
C870 C872 1.391 . S
C871 C870 1.386 . S
C871 C875 1.393 . S
C872 H861 0.950 . S
C872 C870 1.391 . S
C872 C873 1.400 . S
C873 C867 1.491 . S
C873 C872 1.400 . S
C873 C874 1.398 . S
C874 H862 0.950 . S
C874 C873 1.398 . S
C874 C875 1.391 . S
C875 H863 0.950 . S
C875 C871 1.393 . S
C875 C874 1.391 . S
H876 C884 0.950 . S
H877 C889 0.950 . S
H878 C886 0.950 . S
H879 C888 0.950 . S
H880 C890 0.950 . S
H881 C892 0.950 . S
H882 C894 0.950 . S
H883 C895 0.950 . S
C884 H876 0.950 . S
C884 C885 1.386 . S
C884 C886 1.391 . S
C885 C884 1.386 . S
C885 C889 1.393 . S
C886 H878 0.950 . S
C886 C884 1.391 . S
C886 C887 1.400 . S
C887 C886 1.400 . S
C887 C888 1.398 . S
C887 C893 1.491 . S
C888 H879 0.950 . S
C888 C887 1.398 . S
C888 C889 1.391 . S
C889 H877 0.950 . S
C889 C885 1.393 . S
C889 C888 1.391 . S
C890 H880 0.950 . S
C890 C891 1.386 . S
C890 C892 1.391 . S
C891 C890 1.386 . S
C891 C895 1.393 . S
C892 H881 0.950 . S
C892 C890 1.391 . S
C892 C893 1.400 . S
C893 C887 1.491 . S
C893 C892 1.400 . S
C893 C894 1.398 . S
C894 H882 0.950 . S
C894 C893 1.398 . S
C894 C895 1.391 . S
C895 H883 0.950 . S
C895 C891 1.393 . S
C895 C894 1.391 . S
H896 C904 0.950 . S
H897 C909 0.950 . S
H898 C906 0.950 . S
H899 C908 0.950 . S
H900 C910 0.950 . S
H901 C912 0.950 . S
H902 C914 0.950 . S
H903 C915 0.950 . S
C904 H896 0.950 . S
C904 C905 1.386 . S
C904 C906 1.391 . S
C905 C904 1.386 . S
C905 C909 1.393 . S
C906 H898 0.950 . S
C906 C904 1.391 . S
C906 C907 1.400 . S
C907 C906 1.400 . S
C907 C908 1.398 . S
C907 C913 1.491 . S
C908 H899 0.950 . S
C908 C907 1.398 . S
C908 C909 1.391 . S
C909 H897 0.950 . S
C909 C905 1.393 . S
C909 C908 1.391 . S
C910 H900 0.950 . S
C910 C911 1.386 . S
C910 C912 1.391 . S
C911 C910 1.386 . S
C911 C915 1.393 . S
C912 H901 0.950 . S
C912 C910 1.391 . S
C912 C913 1.400 . S
C913 C907 1.491 . S
C913 C912 1.400 . S
C913 C914 1.398 . S
C914 H902 0.950 . S
C914 C913 1.398 . S
C914 C915 1.391 . S
C915 H903 0.950 . S
C915 C911 1.393 . S
C915 C914 1.391 . S
H916 C924 0.950 . S
H917 C929 0.950 . S
H918 C926 0.950 . S
H919 C928 0.950 . S
H920 C930 0.950 . S
H921 C932 0.950 . S
H922 C934 0.950 . S
H923 C935 0.950 . S
C924 H916 0.950 . S
C924 C925 1.386 . S
C924 C926 1.391 . S
C925 C924 1.386 . S
C925 C929 1.393 . S
C926 H918 0.950 . S
C926 C924 1.391 . S
C926 C927 1.400 . S
C927 C926 1.400 . S
C927 C928 1.398 . S
C927 C933 1.491 . S
C928 H919 0.950 . S
C928 C927 1.398 . S
C928 C929 1.391 . S
C929 H917 0.950 . S
C929 C925 1.393 . S
C929 C928 1.391 . S
C930 H920 0.950 . S
C930 C931 1.386 . S
C930 C932 1.391 . S
C931 C930 1.386 . S
C931 C935 1.393 . S
C932 H921 0.950 . S
C932 C930 1.391 . S
C932 C933 1.400 . S
C933 C927 1.491 . S
C933 C932 1.400 . S
C933 C934 1.398 . S
C934 H922 0.950 . S
C934 C933 1.398 . S
C934 C935 1.391 . S
C935 H923 0.950 . S
C935 C931 1.393 . S
C935 C934 1.391 . S
H936 C944 0.950 . S
H937 C949 0.950 . S
H938 C946 0.950 . S
H939 C948 0.950 . S
H940 C950 0.950 . S
H941 C952 0.950 . S
H942 C954 0.950 . S
H943 C955 0.950 . S
C944 H936 0.950 . S
C944 C945 1.386 . S
C944 C946 1.391 . S
C945 C944 1.386 . S
C945 C949 1.393 . S
C946 H938 0.950 . S
C946 C944 1.391 . S
C946 C947 1.400 . S
C947 C946 1.400 . S
C947 C948 1.398 . S
C947 C953 1.491 . S
C948 H939 0.950 . S
C948 C947 1.398 . S
C948 C949 1.391 . S
C949 H937 0.950 . S
C949 C945 1.393 . S
C949 C948 1.391 . S
C950 H940 0.950 . S
C950 C951 1.386 . S
C950 C952 1.391 . S
C951 C950 1.386 . S
C951 C955 1.393 . S
C952 H941 0.950 . S
C952 C950 1.391 . S
C952 C953 1.400 . S
C953 C947 1.491 . S
C953 C952 1.400 . S
C953 C954 1.398 . S
C954 H942 0.950 . S
C954 C953 1.398 . S
C954 C955 1.391 . S
C955 H943 0.950 . S
C955 C951 1.393 . S
C955 C954 1.391 . S
H956 C964 0.950 . S
H957 C969 0.950 . S
H958 C966 0.950 . S
H959 C968 0.950 . S
H960 C970 0.950 . S
H961 C972 0.950 . S
H962 C974 0.950 . S
H963 C975 0.950 . S
C964 H956 0.950 . S
C964 C965 1.386 . S
C964 C966 1.391 . S
C965 C964 1.386 . S
C965 C969 1.393 . S
C966 H958 0.950 . S
C966 C964 1.391 . S
C966 C967 1.400 . S
C967 C966 1.400 . S
C967 C968 1.398 . S
C967 C973 1.491 . S
C968 H959 0.950 . S
C968 C967 1.398 . S
C968 C969 1.391 . S
C969 H957 0.950 . S
C969 C965 1.393 . S
C969 C968 1.391 . S
C970 H960 0.950 . S
C970 C971 1.386 . S
C970 C972 1.391 . S
C971 C970 1.386 . S
C971 C975 1.393 . S
C972 H961 0.950 . S
C972 C970 1.391 . S
C972 C973 1.400 . S
C973 C967 1.491 . S
C973 C972 1.400 . S
C973 C974 1.398 . S
C974 H962 0.950 . S
C974 C973 1.398 . S
C974 C975 1.391 . S
C975 H963 0.950 . S
C975 C971 1.393 . S
C975 C974 1.391 . S
H976 C984 0.950 . S
H977 C989 0.950 . S
H978 C986 0.950 . S
H979 C988 0.950 . S
H980 C990 0.950 . S
H981 C992 0.950 . S
H982 C994 0.950 . S
H983 C995 0.950 . S
C984 H976 0.950 . S
C984 C985 1.386 . S
C984 C986 1.391 . S
C985 C984 1.386 . S
C985 C989 1.393 . S
C986 H978 0.950 . S
C986 C984 1.391 . S
C986 C987 1.400 . S
C987 C986 1.400 . S
C987 C988 1.398 . S
C987 C993 1.491 . S
C988 H979 0.950 . S
C988 C987 1.398 . S
C988 C989 1.391 . S
C989 H977 0.950 . S
C989 C985 1.393 . S
C989 C988 1.391 . S
C990 H980 0.950 . S
C990 C991 1.386 . S
C990 C992 1.391 . S
C991 C990 1.386 . S
C991 C995 1.393 . S
C992 H981 0.950 . S
C992 C990 1.391 . S
C992 C993 1.400 . S
C993 C987 1.491 . S
C993 C992 1.400 . S
C993 C994 1.398 . S
C994 H982 0.950 . S
C994 C993 1.398 . S
C994 C995 1.391 . S
C995 H983 0.950 . S
C995 C991 1.393 . S
C995 C994 1.391 . S
C405 N104 1.733 . S
C411 N5 1.731 . S
C425 N137 1.733 . S
C431 N38 1.732 . S
C445 N170 1.725 . S
C451 N71 1.730 . S
C465 N203 1.732 . S
C471 N302 1.727 . S
C485 N236 1.728 . S
C491 N335 1.723 . S
C505 N269 1.728 . S
C511 N368 1.732 . S
C525 C325 1.793 . S
C531 C28 1.784 . S
C545 C61 1.790 . S
C551 C358 1.786 . S
C565 C391 1.790 . S
C571 C94 1.786 . S
C585 C226 1.794 . S
C591 C127 1.784 . S
C605 C160 1.794 . S
C611 C259 1.799 . S
C625 C193 1.800 . S
C631 C292 1.790 . S
C645 N14 0.865 . S
C651 N113 0.857 . S
C665 N47 0.819 . S
C671 N146 0.821 . S
C685 N179 0.818 . S
C691 N80 0.818 . S
C705 N212 0.836 . S
C711 N311 0.829 . S
C725 N245 0.873 . S
C731 N344 0.866 . S
C745 N377 0.885 . S
C751 N278 0.884 . S
C765 C371 1.613 . S
C771 C8 1.595 . S
C785 C41 1.614 . S
C791 C206 1.603 . S
C805 C239 1.594 . S
C811 C74 1.614 . S
C825 C272 1.597 . S
C831 C107 1.611 . S
C845 C140 1.617 . S
C851 C305 1.599 . S
C865 C173 1.599 . S
C871 C338 1.617 . S
C885 C17 0.540 . S
C891 C281 0.584 . S
C905 C50 0.577 . S
C911 C314 0.539 . S
C925 C347 0.583 . S
C931 C83 0.539 . S
C945 C116 0.584 . S
C951 C380 0.540 . S
C965 C215 0.579 . S
C971 C149 0.539 . S
C985 C182 0.548 . S
C991 C248 0.562 . S
