# Generated by pormake.
# Topology wjv, (5)-cn, num edge types: 1
# Building blocks:
#     Node 0, Type 0, BuildingBlock: XOMCOT_clean_sbu_0, # of connection points: 5
#     Node 1, Type 0, BuildingBlock: XOMCOT_clean_sbu_0, # of connection points: 5
#     Node 2, Type 0, BuildingBlock: XOMCOT_clean_sbu_0, # of connection points: 5
#     Node 3, Type 0, BuildingBlock: XOMCOT_clean_sbu_0, # of connection points: 5
#     Node 4, Type 0, BuildingBlock: XOMCOT_clean_sbu_0, # of connection points: 5
#     Node 5, Type 0, BuildingBlock: XOMCOT_clean_sbu_0, # of connection points: 5
#     Node 6, Type 0, BuildingBlock: XOMCOT_clean_sbu_0, # of connection points: 5
#     Node 7, Type 0, BuildingBlock: XOMCOT_clean_sbu_0, # of connection points: 5
#     Node 8, Type 0, BuildingBlock: XOMCOT_clean_sbu_0, # of connection points: 5
#     Node 9, Type 0, BuildingBlock: XOMCOT_clean_sbu_0, # of connection points: 5
#     Node 10, Type 0, BuildingBlock: XOMCOT_clean_sbu_0, # of connection points: 5
#     Node 11, Type 0, BuildingBlock: XOMCOT_clean_sbu_0, # of connection points: 5
#     Edge 12, Type (0, 0), BuildingBlock: AJUNOK_clean_linker_0, # of connection points: 2
#     Edge 13, Type (0, 0), BuildingBlock: AJUNOK_clean_linker_0, # of connection points: 2
#     Edge 14, Type (0, 0), BuildingBlock: AJUNOK_clean_linker_0, # of connection points: 2
#     Edge 15, Type (0, 0), BuildingBlock: AJUNOK_clean_linker_0, # of connection points: 2
#     Edge 16, Type (0, 0), BuildingBlock: AJUNOK_clean_linker_0, # of connection points: 2
#     Edge 17, Type (0, 0), BuildingBlock: AJUNOK_clean_linker_0, # of connection points: 2
#     Edge 18, Type (0, 0), BuildingBlock: AJUNOK_clean_linker_0, # of connection points: 2
#     Edge 19, Type (0, 0), BuildingBlock: AJUNOK_clean_linker_0, # of connection points: 2
#     Edge 20, Type (0, 0), BuildingBlock: AJUNOK_clean_linker_0, # of connection points: 2
#     Edge 21, Type (0, 0), BuildingBlock: AJUNOK_clean_linker_0, # of connection points: 2
#     Edge 22, Type (0, 0), BuildingBlock: AJUNOK_clean_linker_0, # of connection points: 2
#     Edge 23, Type (0, 0), BuildingBlock: AJUNOK_clean_linker_0, # of connection points: 2
#     Edge 24, Type (0, 0), BuildingBlock: AJUNOK_clean_linker_0, # of connection points: 2
#     Edge 25, Type (0, 0), BuildingBlock: AJUNOK_clean_linker_0, # of connection points: 2
#     Edge 26, Type (0, 0), BuildingBlock: AJUNOK_clean_linker_0, # of connection points: 2
#     Edge 27, Type (0, 0), BuildingBlock: AJUNOK_clean_linker_0, # of connection points: 2
#     Edge 28, Type (0, 0), BuildingBlock: AJUNOK_clean_linker_0, # of connection points: 2
#     Edge 29, Type (0, 0), BuildingBlock: AJUNOK_clean_linker_0, # of connection points: 2
#     Edge 30, Type (0, 0), BuildingBlock: AJUNOK_clean_linker_0, # of connection points: 2
#     Edge 31, Type (0, 0), BuildingBlock: AJUNOK_clean_linker_0, # of connection points: 2
#     Edge 32, Type (0, 0), BuildingBlock: AJUNOK_clean_linker_0, # of connection points: 2
#     Edge 33, Type (0, 0), BuildingBlock: AJUNOK_clean_linker_0, # of connection points: 2
#     Edge 34, Type (0, 0), BuildingBlock: AJUNOK_clean_linker_0, # of connection points: 2
#     Edge 35, Type (0, 0), BuildingBlock: AJUNOK_clean_linker_0, # of connection points: 2
#     Edge 36, Type (0, 0), BuildingBlock: AJUNOK_clean_linker_0, # of connection points: 2
#     Edge 37, Type (0, 0), BuildingBlock: AJUNOK_clean_linker_0, # of connection points: 2
#     Edge 38, Type (0, 0), BuildingBlock: AJUNOK_clean_linker_0, # of connection points: 2
#     Edge 39, Type (0, 0), BuildingBlock: AJUNOK_clean_linker_0, # of connection points: 2
#     Edge 40, Type (0, 0), BuildingBlock: AJUNOK_clean_linker_0, # of connection points: 2
#     Edge 41, Type (0, 0), BuildingBlock: AJUNOK_clean_linker_0, # of connection points: 2
# Relax obj value: 0.145
# Max RMSD: 0.185
# Mean RMSD: 0.185
data_MOF--net-wjv--node1-XOMCOT_clean_sbu_0--edge1-AJUNOK_clean_linker_0
_symmetry_space_group_name_H-M    P1
_symmetry_Int_Tables_number       1
_symmetry_cell_setting            triclinic
loop_
_symmetry_equiv_pos_as_xyz
'x, y, z'
_cell_length_a     28.490275
_cell_length_b     28.469836
_cell_length_c     39.436178
_cell_angle_alpha  90.3583
_cell_angle_beta   89.933174
_cell_angle_gamma 120.066
loop_
_atom_site_label
_atom_site_type_symbol
_atom_site_fract_x
_atom_site_fract_y
_atom_site_fract_z
_atom_type_partial_charge
Co0 Co 0.20401 0.29304 0.1956 0.0
C1 C 0.182 0.30082 0.12268 0.0
C2 C 0.17937 0.22588 0.13446 0.0
C3 C 0.17018 0.22631 0.10036 0.0
N4 N 0.18761 0.27285 0.14837 0.0
N5 N 0.17198 0.27327 0.0931 0.0
H6 H 0.18492 0.34003 0.12554 0.0
H7 H 0.17935 0.19309 0.14813 0.0
C8 C 0.28191 0.24866 0.20372 0.0
O9 O 0.32396 0.29461 0.21368 0.0
N10 N 0.21842 0.31048 0.24384 0.0
C11 C 0.20787 0.34442 0.2621 0.0
C12 C 0.21705 0.3402 0.29592 0.0
C13 C 0.2319 0.28467 0.26727 0.0
N14 N 0.23252 0.3028 0.29911 0.0
C15 C 0.29506 0.40417 0.19932 0.0
C16 C 0.35925 0.38743 0.15375 0.0
C17 C 0.38291 0.43525 0.17309 0.0
C18 C 0.34968 0.44417 0.19537 0.0
C19 C 0.30488 0.34836 0.15878 0.0
N20 N 0.27416 0.35543 0.1828 0.0
H21 H 0.2704 0.41202 0.21649 0.0
H22 H 0.28898 0.31046 0.14507 0.0
H23 H 0.19275 0.36943 0.25182 0.0
H24 H 0.2392 0.25179 0.26165 0.0
O25 O 0.15489 0.32288 0.19451 0.0
O26 O 0.13196 0.23835 0.207 0.0
O27 O 0.23621 0.24492 0.19777 0.0
C28 C 0.11689 0.27395 0.20279 0.0
H29 H 0.16103 0.19393 0.08238 0.0
H30 H 0.21029 0.36121 0.31663 0.0
H31 H 0.38333 0.37869 0.13632 0.0
H32 H 0.36609 0.48132 0.21014 0.0
Co33 Co 0.93154 0.20594 0.52669 0.0
C34 C 0.89669 0.18494 0.45379 0.0
C35 C 0.97857 0.203 0.46053 0.0
C36 C 0.96489 0.1902 0.42702 0.0
N37 N 0.93673 0.20207 0.47736 0.0
N38 N 0.91336 0.17855 0.42282 0.0
H39 H 0.85559 0.17512 0.45935 0.0
H40 H 0.01552 0.20882 0.472 0.0
C41 C 0.04677 0.29157 0.51405 0.0
O42 O 0.02978 0.31356 0.49152 0.0
N43 N 0.92633 0.20658 0.57577 0.0
C44 C 0.88359 0.20036 0.59407 0.0
C45 C 0.89761 0.20723 0.62796 0.0
C46 C 0.96547 0.21653 0.59871 0.0
N47 N 0.94919 0.21793 0.63064 0.0
C48 C 0.90244 0.28554 0.50115 0.0
C49 C 0.97168 0.36627 0.5456 0.0
C50 C 0.94717 0.37992 0.51988 0.0
C51 C 0.91131 0.33862 0.49769 0.0
C52 C 0.9622 0.31363 0.54796 0.0
N53 N 0.92985 0.27411 0.52513 0.0
H54 H 0.87469 0.25452 0.48404 0.0
H55 H 0.98492 0.30625 0.56687 0.0
H56 H 0.84562 0.19334 0.58343 0.0
H57 H 0.00573 0.22465 0.59222 0.0
O58 O 0.85459 0.15011 0.52456 0.0
O59 O 0.92363 0.13541 0.52934 0.0
O60 O 0.0129 0.24907 0.53013 0.0
C61 C 0.87154 0.11533 0.52776 0.0
H62 H 0.98975 0.18643 0.40762 0.0
H63 H 0.87292 0.20722 0.64886 0.0
H64 H 0.00058 0.39681 0.56287 0.0
H65 H 0.89092 0.34741 0.47767 0.0
Co66 Co 0.72162 0.91536 0.86061 0.0
C67 C 0.7041 0.8814 0.78732 0.0
C68 C 0.77879 0.95582 0.79598 0.0
C69 C 0.77466 0.9439 0.76201 0.0
N70 N 0.73426 0.91732 0.81194 0.0
N71 N 0.7278 0.89735 0.75651 0.0
H72 H 0.6663 0.84423 0.79183 0.0
H73 H 0.81295 0.98971 0.80814 0.0
C74 C 0.76897 0.03744 0.87057 0.0
O75 O 0.72508 0.03248 0.88492 0.0
N76 N 0.71196 0.91391 0.90996 0.0
C77 C 0.67953 0.87046 0.92928 0.0
C78 C 0.68804 0.8854 0.96308 0.0
C79 C 0.74121 0.95398 0.93271 0.0
N80 N 0.72647 0.93813 0.96508 0.0
C81 C 0.61269 0.8988 0.87063 0.0
C82 C 0.62627 0.97932 0.82604 0.0
C83 C 0.57973 0.95516 0.84625 0.0
C84 C 0.57254 0.91349 0.86828 0.0
C85 C 0.66503 0.96344 0.8291 0.0
N86 N 0.6596 0.92569 0.85245 0.0
H87 H 0.60628 0.86663 0.88756 0.0
H88 H 0.70148 0.98476 0.81419 0.0
H89 H 0.65171 0.83025 0.91965 0.0
H90 H 0.77449 0.99344 0.92628 0.0
O91 O 0.68785 0.8363 0.85909 0.0
O92 O 0.77546 0.89489 0.86695 0.0
O93 O 0.772 0.99571 0.86206 0.0
C94 C 0.73706 0.8449 0.86319 0.0
H95 H 0.80503 0.96634 0.74295 0.0
H96 H 0.66727 0.85969 0.98449 0.0
H97 H 0.63416 0.0122 0.80904 0.0
H98 H 0.53651 0.89287 0.88381 0.0
Co99 Co 0.79948 0.72063 0.19074 0.0
C100 C 0.81893 0.70725 0.11821 0.0
C101 C 0.81729 0.78092 0.12728 0.0
C102 C 0.82572 0.77745 0.09326 0.0
N103 N 0.81243 0.73667 0.14287 0.0
N104 N 0.82689 0.73135 0.08768 0.0
H105 H 0.81831 0.66944 0.12251 0.0
H106 H 0.81565 0.81403 0.13969 0.0
C107 C 0.729 0.76957 0.20768 0.0
O108 O 0.69138 0.72494 0.22203 0.0
N109 N 0.78837 0.70699 0.23938 0.0
C110 C 0.78454 0.66512 0.25743 0.0
C111 C 0.77869 0.67348 0.29125 0.0
C112 C 0.78911 0.74197 0.26302 0.0
N113 N 0.7809 0.72172 0.29478 0.0
C114 C 0.70841 0.60876 0.19172 0.0
C115 C 0.63911 0.63136 0.15544 0.0
C116 C 0.61774 0.58077 0.17107 0.0
C117 C 0.65344 0.56898 0.18857 0.0
C118 C 0.69389 0.66991 0.15959 0.0
N119 N 0.72712 0.6599 0.17958 0.0
H120 H 0.73545 0.59829 0.20409 0.0
H121 H 0.70879 0.70913 0.14805 0.0
H122 H 0.78804 0.63172 0.24734 0.0
H123 H 0.79814 0.7826 0.25716 0.0
O124 O 0.8451 0.687 0.1892 0.0
O125 O 0.87316 0.7736 0.20022 0.0
O126 O 0.77065 0.77172 0.1941 0.0
C127 C 0.88511 0.73559 0.19652 0.0
H128 H 0.83265 0.80751 0.07424 0.0
H129 H 0.77319 0.64589 0.31161 0.0
H130 H 0.61324 0.64211 0.14139 0.0
H131 H 0.63889 0.52953 0.19993 0.0
Co132 Co 0.06391 0.7897 0.52104 0.0
C133 C 0.09851 0.81132 0.44935 0.0
C134 C 0.02133 0.80608 0.45704 0.0
C135 C 0.03473 0.8162 0.42331 0.0
N136 N 0.06095 0.80229 0.4732 0.0
N137 N 0.08314 0.81955 0.41865 0.0
H138 H 0.13655 0.81278 0.45443 0.0
H139 H 0.98592 0.80327 0.46905 0.0
C140 C 0.94781 0.7035 0.53409 0.0
O141 O 0.96292 0.67382 0.5512 0.0
N142 N 0.06741 0.77975 0.56984 0.0
C143 C 0.11181 0.78924 0.5876 0.0
C144 C 0.09991 0.78349 0.62159 0.0
C145 C 0.03016 0.77197 0.59388 0.0
N146 N 0.0486 0.7731 0.6257 0.0
C147 C 0.09226 0.70398 0.52707 0.0
C148 C 0.00979 0.6328 0.48435 0.0
C149 C 0.03448 0.61252 0.5056 0.0
C150 C 0.07806 0.64918 0.52596 0.0
C151 C 0.02444 0.68739 0.48678 0.0
N152 N 0.06234 0.7215 0.5099 0.0
H153 H 0.12576 0.73122 0.54277 0.0
H154 H 0.00117 0.70058 0.4722 0.0
H155 H 0.15115 0.80135 0.57687 0.0
H156 H 0.99103 0.76772 0.58848 0.0
O157 O 0.14159 0.84419 0.52074 0.0
O158 O 0.07424 0.86002 0.53049 0.0
O159 O 0.98267 0.74954 0.52216 0.0
C160 C 0.12599 0.8794 0.52734 0.0
H161 H 0.01202 0.8232 0.40396 0.0
H162 H 0.1272 0.78631 0.64155 0.0
H163 H 0.97647 0.60591 0.46792 0.0
H164 H 0.09955 0.63517 0.54182 0.0
Co165 Co 0.28628 0.07701 0.85734 0.0
C166 C 0.30149 0.11329 0.78527 0.0
C167 C 0.23624 0.03143 0.79072 0.0
C168 C 0.23993 0.04515 0.75722 0.0
N169 N 0.2752 0.07373 0.80845 0.0
N170 N 0.28065 0.09653 0.75384 0.0
H171 H 0.33415 0.15374 0.79123 0.0
H172 H 0.20631 0.99321 0.80111 0.0
C173 C 0.23975 0.95604 0.86968 0.0
O174 O 0.28391 0.96359 0.88507 0.0
N175 N 0.29545 0.08055 0.90668 0.0
C176 C 0.32857 0.12479 0.92558 0.0
C177 C 0.32107 0.11128 0.95945 0.0
C178 C 0.26667 0.04152 0.92976 0.0
N179 N 0.2826 0.05873 0.96184 0.0
C180 C 0.39633 0.09657 0.86794 0.0
C181 C 0.38353 0.01305 0.82562 0.0
C182 C 0.4307 0.04002 0.84522 0.0
C183 C 0.43743 0.08308 0.86615 0.0
C184 C 0.34383 0.02774 0.82813 0.0
N185 N 0.34894 0.06714 0.85036 0.0
H186 H 0.40253 0.13005 0.88385 0.0
H187 H 0.30713 0.00435 0.81369 0.0
H188 H 0.3564 0.16451 0.91562 0.0
H189 H 0.23315 0.00179 0.92385 0.0
O190 O 0.31944 0.15605 0.85567 0.0
O191 O 0.23184 0.09708 0.86249 0.0
O192 O 0.23595 0.99639 0.85926 0.0
C193 C 0.27003 0.14714 0.85911 0.0
H194 H 0.21299 0.02027 0.73705 0.0
H195 H 0.3427 0.13768 0.98064 0.0
H196 H 0.37598 0.97902 0.8095 0.0
H197 H 0.4739 0.10578 0.8812 0.0
Co198 Co 0.71973 0.78957 0.52418 0.0
C199 C 0.7002 0.79971 0.59782 0.0
C200 C 0.76266 0.77989 0.59049 0.0
C201 C 0.7588 0.7875 0.62456 0.0
N202 N 0.72437 0.78519 0.57352 0.0
N203 N 0.7197 0.80017 0.62916 0.0
H204 H 0.67115 0.81265 0.5926 0.0
H205 H 0.79452 0.77527 0.57899 0.0
C206 C 0.74789 0.70185 0.53139 0.0
O207 O 0.70686 0.67635 0.55227 0.0
N208 N 0.71733 0.79673 0.47546 0.0
C209 C 0.67785 0.79928 0.45835 0.0
C210 C 0.68592 0.79645 0.42418 0.0
C211 C 0.74954 0.79344 0.45151 0.0
N212 N 0.73108 0.79286 0.41978 0.0
C213 C 0.60972 0.70742 0.54534 0.0
C214 C 0.60131 0.63227 0.49728 0.0
C215 C 0.56296 0.61509 0.52321 0.0
C216 C 0.56644 0.65369 0.54698 0.0
C217 C 0.64377 0.68556 0.49682 0.0
N218 N 0.64964 0.72195 0.52167 0.0
H219 H 0.61177 0.73631 0.56381 0.0
H220 H 0.67472 0.69582 0.4779 0.0
H221 H 0.64364 0.79965 0.47 0.0
H222 H 0.78427 0.78906 0.45722 0.0
O223 O 0.69894 0.84522 0.5297 0.0
O224 O 0.78291 0.85991 0.5263 0.0
O225 O 0.75781 0.74667 0.51789 0.0
C226 C 0.75104 0.87991 0.52952 0.0
H227 H 0.78577 0.78826 0.64415 0.0
H228 H 0.65819 0.79321 0.40438 0.0
H229 H 0.60085 0.60387 0.47869 0.0
H230 H 0.53682 0.64212 0.56709 0.0
Co231 Co 0.91775 0.70729 0.85528 0.0
C232 C 0.89108 0.69509 0.92959 0.0
C233 C 0.9684 0.76457 0.91914 0.0
C234 C 0.95904 0.76355 0.95328 0.0
N235 N 0.92712 0.72026 0.90419 0.0
N236 N 0.91063 0.71981 0.95984 0.0
H237 H 0.85037 0.6614 0.92594 0.0
H238 H 0.00148 0.79794 0.90607 0.0
C239 C 0.0373 0.75164 0.86416 0.0
O240 O 0.02679 0.71381 0.88669 0.0
N241 N 0.90865 0.69719 0.8066 0.0
C242 C 0.87371 0.65164 0.7898 0.0
C243 C 0.88657 0.65892 0.75581 0.0
C244 C 0.94116 0.73198 0.78268 0.0
N245 N 0.92951 0.70929 0.75128 0.0
C246 C 0.89969 0.60322 0.88208 0.0
C247 C 0.97314 0.59838 0.83826 0.0
C248 C 0.95185 0.56086 0.8646 0.0
C249 C 0.91331 0.56243 0.88616 0.0
C250 C 0.95873 0.63807 0.8352 0.0
N251 N 0.92464 0.64224 0.85794 0.0
H252 H 0.86985 0.60358 0.89863 0.0
H253 H 0.9782 0.66788 0.81554 0.0
H254 H 0.84323 0.61469 0.80169 0.0
H255 H 0.97325 0.77261 0.78857 0.0
O256 O 0.83952 0.67774 0.86009 0.0
O257 O 0.90115 0.7643 0.85204 0.0
O258 O 0.99844 0.75326 0.849 0.0
C259 C 0.85058 0.72779 0.85595 0.0
H260 H 0.98386 0.79479 0.97155 0.0
H261 H 0.86762 0.62818 0.73625 0.0
H262 H 0.00286 0.59882 0.82091 0.0
H263 H 0.89422 0.53278 0.90607 0.0
Co264 Co 0.20159 0.92265 0.18982 0.0
C265 C 0.18829 0.89408 0.26328 0.0
C266 C 0.19408 0.97111 0.25425 0.0
C267 C 0.18665 0.96064 0.28831 0.0
N268 N 0.19594 0.92985 0.23848 0.0
N269 N 0.18306 0.91239 0.29396 0.0
H270 H 0.18478 0.85488 0.25891 0.0
H271 H 0.19586 0.0057 0.24193 0.0
C272 C 0.27646 0.04492 0.17872 0.0
O273 O 0.31687 0.04057 0.16621 0.0
N274 N 0.20481 0.91543 0.14047 0.0
C275 C 0.18399 0.86852 0.12262 0.0
C276 C 0.19088 0.87987 0.08853 0.0
C277 C 0.22317 0.95455 0.1165 0.0
N278 N 0.21615 0.93413 0.08465 0.0
C279 C 0.29351 0.90798 0.17481 0.0
C280 C 0.36501 0.99007 0.21766 0.0
C281 C 0.38595 0.9693 0.1935 0.0
C282 C 0.34909 0.92563 0.17313 0.0
C283 C 0.30941 0.97128 0.21854 0.0
N284 N 0.27476 0.9335 0.19559 0.0
H285 H 0.26611 0.87538 0.15832 0.0
H286 H 0.29559 0.99164 0.23551 0.0
H287 H 0.1645 0.82831 0.13335 0.0
H288 H 0.24054 0.99713 0.12171 0.0
O289 O 0.15628 0.8438 0.19425 0.0
O290 O 0.12636 0.90131 0.18586 0.0
O291 O 0.23119 0.00291 0.18591 0.0
C292 C 0.11518 0.85177 0.19081 0.0
H293 H 0.18088 0.98499 0.30724 0.0
H294 H 0.17664 0.85006 0.06829 0.0
H295 H 0.39166 0.02329 0.23426 0.0
H296 H 0.36314 0.90624 0.15536 0.0
Co297 Co 0.27368 0.20491 0.5259 0.0
C298 C 0.28973 0.19059 0.59855 0.0
C299 C 0.21669 0.19342 0.59005 0.0
C300 C 0.22132 0.18711 0.62418 0.0
N301 N 0.25994 0.19637 0.57411 0.0
N302 N 0.26728 0.18561 0.62943 0.0
H303 H 0.32656 0.1894 0.59381 0.0
H304 H 0.18337 0.19441 0.57767 0.0
C305 C 0.24681 0.29393 0.51407 0.0
O306 O 0.29289 0.32482 0.49841 0.0
N307 N 0.28491 0.21079 0.4767 0.0
C308 C 0.31217 0.19193 0.45824 0.0
C309 C 0.30826 0.20076 0.4243 0.0
C310 C 0.2629 0.22864 0.45323 0.0
N311 N 0.27776 0.22434 0.42144 0.0
C312 C 0.38607 0.28969 0.51405 0.0
C313 C 0.38245 0.36187 0.55988 0.0
C314 C 0.42414 0.3814 0.53607 0.0
C315 C 0.42731 0.34428 0.51395 0.0
C316 C 0.34169 0.30765 0.55861 0.0
N317 N 0.34172 0.27287 0.53441 0.0
H318 H 0.38876 0.26208 0.4965 0.0
H319 H 0.30723 0.29571 0.57497 0.0
H320 H 0.33402 0.17334 0.46861 0.0
H321 H 0.23478 0.24256 0.45857 0.0
O322 O 0.29612 0.15013 0.52795 0.0
O323 O 0.21244 0.13402 0.51935 0.0
O324 O 0.23381 0.24637 0.5241 0.0
C325 C 0.24471 0.11473 0.52366 0.0
H326 H 0.19184 0.18132 0.64347 0.0
H327 H 0.32701 0.19146 0.4034 0.0
H328 H 0.37875 0.3892 0.57749 0.0
H329 H 0.46015 0.35778 0.49587 0.0
Co330 Co 0.08876 0.28352 0.85779 0.0
C331 C 0.11451 0.29277 0.93141 0.0
C332 C 0.04367 0.21684 0.91841 0.0
C333 C 0.0512 0.2184 0.95285 0.0
N334 N 0.08276 0.26375 0.90505 0.0
N335 N 0.09539 0.2661 0.9609 0.0
H336 H 0.15027 0.3325 0.92913 0.0
H337 H 0.01186 0.18357 0.90415 0.0
C338 C 0.96718 0.24088 0.84816 0.0
O339 O 0.9721 0.28755 0.83938 0.0
N340 N 0.09437 0.30055 0.80938 0.0
C341 C 0.14059 0.33006 0.79168 0.0
C342 C 0.12876 0.32506 0.75758 0.0
C343 C 0.05527 0.27724 0.78533 0.0
N344 N 0.07485 0.29211 0.75352 0.0
C345 C 0.10717 0.39324 0.85187 0.0
C346 C 0.02751 0.37888 0.89778 0.0
C347 C 0.04923 0.42406 0.87658 0.0
C348 C 0.0911 0.43225 0.85434 0.0
C349 C 0.04398 0.3405 0.89408 0.0
N350 N 0.08087 0.34611 0.86979 0.0
H351 H 0.13884 0.39993 0.83429 0.0
H352 H 0.02269 0.30369 0.9086 0.0
H353 H 0.1808 0.35234 0.80255 0.0
H354 H 0.01352 0.24824 0.79057 0.0
O355 O 0.16731 0.31362 0.86107 0.0
O356 O 0.1066 0.22871 0.84735 0.0
O357 O 0.00848 0.23583 0.85385 0.0
C358 C 0.15694 0.26474 0.85289 0.0
H359 H 0.027 0.18641 0.97061 0.0
H360 H 0.15834 0.34218 0.73747 0.0
H361 H 0.99496 0.37098 0.9152 0.0
H362 H 0.1098 0.46752 0.8381 0.0
Co363 Co 0.79604 0.09141 0.19079 0.0
C364 C 0.82011 0.10566 0.26554 0.0
C365 C 0.73581 0.07486 0.25647 0.0
C366 C 0.74504 0.08266 0.29078 0.0
N367 N 0.783 0.08966 0.24013 0.0
N368 N 0.79813 0.10199 0.29653 0.0
H369 H 0.8626 0.12004 0.2618 0.0
H370 H 0.69663 0.05985 0.24478 0.0
C371 C 0.72458 0.97062 0.20485 0.0
O372 O 0.68552 0.97547 0.21893 0.0
N373 N 0.80922 0.09331 0.14186 0.0
C374 C 0.83414 0.13837 0.12267 0.0
C375 C 0.83081 0.12367 0.08913 0.0
C376 C 0.79124 0.0516 0.11926 0.0
N377 N 0.80255 0.06905 0.08675 0.0
C378 C 0.71389 0.12325 0.19384 0.0
C379 C 0.63495 0.0318 0.16047 0.0
C380 C 0.61971 0.06537 0.17728 0.0
C381 C 0.6601 0.11269 0.19326 0.0
C382 C 0.6883 0.04294 0.16251 0.0
N383 N 0.72625 0.08607 0.18098 0.0
H384 H 0.74449 0.15845 0.20741 0.0
H385 H 0.69764 0.01422 0.1511 0.0
H386 H 0.85234 0.17958 0.13195 0.0
H387 H 0.76805 0.00927 0.12616 0.0
O388 O 0.84567 0.17057 0.19369 0.0
O389 O 0.86882 0.10755 0.19907 0.0
O390 O 0.76494 0.01074 0.19071 0.0
C391 C 0.88397 0.15868 0.19854 0.0
H392 H 0.71514 0.07652 0.30982 0.0
H393 H 0.84765 0.15153 0.06816 0.0
H394 H 0.60506 0.99505 0.14772 0.0
H395 H 0.64983 0.14 0.20618 0.0
C396 C 0.24177 0.20966 0.36307 0.0
C397 C 0.26634 0.24427 0.39098 0.0
C398 C 0.23054 0.22891 0.33321 0.0
C399 C 0.24414 0.28365 0.33011 0.0
H400 H 0.23059 0.16735 0.3646 0.0
H401 H 0.21051 0.20056 0.31257 0.0
S402 S 0.31591 0.39175 0.3949 0.0
N403 N 0.30767 0.33605 0.41313 0.0
N404 N 0.28797 0.37289 0.35692 0.0
C405 C 0.27012 0.31883 0.35774 0.0
C406 C 0.28093 0.29899 0.38817 0.0
C407 C 0.96492 0.20504 0.69046 0.0
C408 C 0.98228 0.23586 0.66072 0.0
C409 C 0.99571 0.22319 0.72041 0.0
C410 C 0.04455 0.27356 0.722 0.0
H411 H 0.9274 0.16645 0.69041 0.0
H412 H 0.98105 0.19723 0.74239 0.0
S413 S 0.10433 0.37142 0.65096 0.0
N414 N 0.04962 0.31942 0.63445 0.0
N415 N 0.10647 0.3552 0.69084 0.0
C416 C 0.06168 0.30507 0.69223 0.0
C417 C 0.03077 0.28587 0.66162 0.0
C418 C 0.7572 0.95156 0.02508 0.0
C419 C 0.74614 0.9714 0.99533 0.0
C420 C 0.77587 0.98364 0.05475 0.0
C421 C 0.78368 0.03662 0.05592 0.0
H422 H 0.752 0.91119 0.02524 0.0
H423 H 0.78472 0.967 0.07683 0.0
S424 S 0.75361 0.10437 0.98567 0.0
N425 N 0.74063 0.04549 0.96946 0.0
N426 N 0.77374 0.10503 0.02498 0.0
C427 C 0.77116 0.05612 0.02642 0.0
C428 C 0.75291 0.02374 0.99623 0.0
C429 C 0.7838 0.72928 0.35757 0.0
C430 C 0.77341 0.74483 0.32583 0.0
C431 C 0.77189 0.74673 0.38809 0.0
C432 C 0.74932 0.78084 0.38832 0.0
H433 H 0.8005 0.70259 0.35896 0.0
H434 H 0.77857 0.7316 0.41163 0.0
S435 S 0.71913 0.83813 0.31258 0.0
N436 N 0.74109 0.79877 0.29694 0.0
N437 N 0.72206 0.83394 0.35416 0.0
C438 C 0.74137 0.79909 0.35691 0.0
C439 C 0.75266 0.78066 0.32576 0.0
C440 C 0.96252 0.72618 0.65782 0.0
C441 C 0.01882 0.76235 0.65723 0.0
C442 C 0.93357 0.71071 0.68844 0.0
C443 C 0.9596 0.73044 0.71999 0.0
H444 H 0.94083 0.70818 0.63451 0.0
H445 H 0.89043 0.68226 0.68732 0.0
S446 S 0.10613 0.83066 0.73223 0.0
N447 N 0.09869 0.82199 0.69078 0.0
N448 N 0.04549 0.79049 0.74826 0.0
C449 C 0.01575 0.7683 0.71967 0.0
C450 C 0.04502 0.7847 0.68838 0.0
C451 C 0.25099 0.04579 1.02122 0.0
C452 C 0.26468 0.02655 0.99215 0.0
C453 C 0.23448 0.01513 0.05113 0.0
C454 C 0.23195 0.96444 0.05328 0.0
H455 H 0.25253 0.08457 1.02064 0.0
H456 H 0.22329 0.03121 0.07262 0.0
S457 S 0.26955 0.89933 0.9847 0.0
N458 N 0.2774 0.95553 0.96752 0.0
N459 N 0.24864 0.89874 1.02383 0.0
C460 C 0.24671 0.94545 1.02435 0.0
C461 C 0.26256 0.97631 0.99381 0.0
C462 C 0.17192 0.29048 0.9995 0.0
C463 C 0.11926 0.28122 0.99401 0.0
C464 C 0.19095 0.29207 0.03254 0.0
C465 C 0.15837 0.28592 0.06085 0.0
H466 H 0.1967 0.29221 0.97817 0.0
H467 H 0.23002 0.29498 0.03604 0.0
S468 S 0.01972 0.26582 0.05975 0.0
N469 N 0.03639 0.26946 1.01931 0.0
N470 N 0.07289 0.27385 0.08144 0.0
C471 C 0.10734 0.28061 0.05567 0.0
C472 C 0.08757 0.27791 1.02215 0.0
C473 C 0.87898 0.16562 0.32997 0.0
C474 C 0.82637 0.12009 0.32862 0.0
C475 C 0.90663 0.1848 0.36089 0.0
C476 C 0.88271 0.15957 0.39174 0.0
H477 H 0.89872 0.18709 0.307 0.0
H478 H 0.94705 0.21995 0.36078 0.0
S479 S 0.74829 0.036 0.40203 0.0
N480 N 0.75307 0.04802 0.36088 0.0
N481 N 0.80497 0.08484 0.41895 0.0
C482 C 0.8305 0.11376 0.39085 0.0
C483 C 0.80239 0.09385 0.35932 0.0
C484 C 0.7058 0.81587 0.72261 0.0
C485 C 0.71282 0.86827 0.72476 0.0
C486 C 0.70489 0.79238 0.69098 0.0
C487 C 0.70992 0.82008 0.66051 0.0
H488 H 0.705 0.79469 0.74552 0.0
H489 H 0.7027 0.7533 0.69029 0.0
S490 S 0.72467 0.95645 0.65268 0.0
N491 N 0.72142 0.94571 0.69396 0.0
N492 N 0.71899 0.90134 0.63458 0.0
C493 C 0.71342 0.871 0.66235 0.0
C494 C 0.71509 0.89514 0.69449 0.0
C495 C 0.83558 0.7135 0.99413 0.0
C496 C 0.88285 0.70993 0.99166 0.0
C497 C 0.81538 0.71727 0.02591 0.0
C498 C 0.84124 0.71644 0.0561 0.0
H499 H 0.81658 0.71735 0.9714 0.0
H500 H 0.7808 0.72336 0.02695 0.0
S501 S 0.96408 0.70391 0.06295 0.0
N502 N 0.95339 0.70314 1.02172 0.0
N503 N 0.91466 0.70885 0.08148 0.0
C504 C 0.88649 0.70945 0.0539 0.0
C505 C 0.90755 0.70662 1.02161 0.0
C506 C 0.09188 0.81035 0.35726 0.0
C507 C 0.11455 0.83714 0.38812 0.0
C508 C 0.11743 0.83265 0.32629 0.0
C509 C 0.16547 0.88324 0.32529 0.0
H510 H 0.05303 0.77312 0.35712 0.0
H511 H 0.09754 0.81226 0.30293 0.0
S512 S 0.24259 0.96756 0.39914 0.0
N513 N 0.18947 0.91457 0.41599 0.0
N514 N 0.23662 0.95745 0.35768 0.0
C515 C 0.18985 0.90887 0.35607 0.0
C516 C 0.16455 0.8856 0.38756 0.0
C517 C 0.29654 0.10628 0.69252 0.0
C518 C 0.29117 0.12778 0.72352 0.0
C519 C 0.29305 0.12826 0.66156 0.0
C520 C 0.28279 0.17162 0.66073 0.0
H521 H 0.30046 0.07036 0.69231 0.0
H522 H 0.29434 0.10875 0.6382 0.0
S523 S 0.27057 0.24539 0.73484 0.0
N524 N 0.27984 0.19756 0.75154 0.0
N525 N 0.27204 0.23828 0.69329 0.0
C526 C 0.28063 0.19551 0.69152 0.0
C527 C 0.28522 0.17377 0.723 0.0
C528 C 0.53004 0.52196 0.20129 0.0
C529 C 0.55816 0.5421 0.1706 0.0
C530 C 0.47334 0.48856 0.20186 0.0
C531 C 0.44257 0.4734 0.17174 0.0
H532 H 0.55195 0.53294 0.22513 0.0
H533 H 0.45349 0.47381 0.22608 0.0
S534 S 0.49669 0.51453 0.08469 0.0
N535 N 0.55095 0.544 0.10929 0.0
N536 N 0.44456 0.4811 0.11036 0.0
C537 C 0.47023 0.4929 0.14087 0.0
C538 C 0.52789 0.52732 0.14031 0.0
C539 C 0.9817 0.46354 0.48399 0.0
C540 C 0.96296 0.43795 0.51555 0.0
C541 C 0.00491 0.5201 0.48077 0.0
C542 C 0.01082 0.55299 0.50908 0.0
H543 H 0.98022 0.44 0.46191 0.0
H544 H 0.0194 0.53839 0.45616 0.0
S545 S 0.9616 0.50536 0.59615 0.0
N546 N 0.94675 0.44952 0.57477 0.0
N547 N 0.99135 0.55551 0.56878 0.0
C548 C 0.99034 0.52771 0.54038 0.0
C549 C 0.96615 0.47032 0.54359 0.0
C550 C 0.48914 0.01059 0.87549 0.0
C551 C 0.47081 0.02096 0.84483 0.0
C552 C 0.52329 0.98819 0.87574 0.0
C553 C 0.54067 0.97553 0.84535 0.0
H554 H 0.47612 0.01884 0.89951 0.0
H555 H 0.5368 0.98143 0.89995 0.0
S556 S 0.50468 0.99543 0.75825 0.0
N557 N 0.4737 0.01803 0.78327 0.0
N558 N 0.53632 0.97452 0.78374 0.0
C559 C 0.5227 0.98584 0.81453 0.0
C560 C 0.4882 0.00884 0.81427 0.0
C561 C 0.48784 0.47342 0.56052 0.0
C562 C 0.46 0.44082 0.53231 0.0
C563 C 0.51927 0.53011 0.55776 0.0
C564 C 0.52348 0.5562 0.52677 0.0
H565 H 0.48574 0.45487 0.5848 0.0
H566 H 0.54167 0.55351 0.57978 0.0
S567 S 0.45274 0.4895 0.44657 0.0
N568 N 0.43498 0.43889 0.47324 0.0
N569 N 0.49348 0.5453 0.46807 0.0
C570 C 0.49421 0.52408 0.49871 0.0
C571 C 0.46266 0.46646 0.50147 0.0
C572 C 0.97885 0.49604 0.84085 0.0
C573 C 0.97206 0.52215 0.86934 0.0
C574 C 0.00443 0.46513 0.84351 0.0
C575 C 0.02388 0.45856 0.87481 0.0
H576 H 0.96485 0.50011 0.8161 0.0
H577 H 0.00867 0.44582 0.82086 0.0
S578 S 0.01647 0.51798 0.95716 0.0
N579 N 0.98736 0.53942 0.92995 0.0
N580 N 0.03423 0.47992 0.93501 0.0
C581 C 0.01633 0.48321 0.90369 0.0
C582 C 0.99066 0.51523 0.90095 0.0
C583 C 0.53729 0.03586 0.21317 0.0
C584 C 0.56111 0.04691 0.18082 0.0
C585 C 0.48075 0.01043 0.21706 0.0
C586 C 0.44585 0.99518 0.18874 0.0
H587 H 0.56241 0.0451 0.2356 0.0
H588 H 0.46422 0.00165 0.24248 0.0
S589 S 0.48901 0.02052 0.09861 0.0
N590 N 0.54622 0.04372 0.12008 0.0
N591 N 0.44024 0.99744 0.12723 0.0
C592 C 0.46955 0.00777 0.15626 0.0
C593 C 0.52704 0.03326 0.15235 0.0
C594 C 0.02748 0.21227 0.2281 0.0
C595 C 0.05844 0.25636 0.2066 0.0
C596 C 0.97091 0.18403 0.22692 0.0
C597 C 0.94218 0.19884 0.20455 0.0
H598 H 0.04719 0.19716 0.24469 0.0
H599 H 0.94968 0.14813 0.24243 0.0
S600 S 0.00353 0.31558 0.14576 0.0
N601 N 0.05626 0.31689 0.16424 0.0
N602 N 0.94892 0.264 0.16254 0.0
C603 C 0.97224 0.24569 0.18486 0.0
C604 C 0.03062 0.27449 0.1858 0.0
C605 C 0.82783 0.9692 0.54648 0.0
C606 C 0.77528 0.93956 0.53285 0.0
C607 C 0.85704 0.02577 0.54564 0.0
C608 C 0.83529 0.05574 0.53107 0.0
H609 H 0.84742 0.94841 0.55719 0.0
H610 H 0.89782 0.0461 0.55594 0.0
S611 S 0.69756 0.998 0.494 0.0
N612 N 0.70097 0.94425 0.50604 0.0
N613 N 0.75632 0.05158 0.50447 0.0
C614 C 0.78162 0.02699 0.51884 0.0
C615 C 0.7515 0.96867 0.51974 0.0
C616 C 0.78732 0.81047 0.83076 0.0
C617 C 0.75209 0.80288 0.85775 0.0
C618 C 0.81538 0.78195 0.82904 0.0
C619 C 0.80924 0.74455 0.8542 0.0
H620 H 0.79591 0.84133 0.81192 0.0
H621 H 0.84464 0.79163 0.80886 0.0
S622 S 0.71834 0.70666 0.9287 0.0
N623 N 0.70955 0.75285 0.90906 0.0
N624 N 0.76222 0.69834 0.90565 0.0
C625 C 0.77112 0.7335 0.88006 0.0
C626 C 0.74256 0.76303 0.88191 0.0
C627 C 0.97011 0.742 0.17287 0.0
C628 C 0.94253 0.75001 0.19996 0.0
C629 C 0.02737 0.77151 0.1712 0.0
C630 C 0.05826 0.80936 0.19668 0.0
H631 H 0.94742 0.71659 0.15157 0.0
H632 H 0.04719 0.7678 0.14871 0.0
S633 S 0.00545 0.8398 0.27461 0.0
N634 N 0.95068 0.79418 0.25423 0.0
N635 N 0.05731 0.84947 0.25089 0.0
C636 C 0.0311 0.81431 0.22494 0.0
C637 C 0.97342 0.78453 0.22667 0.0
C638 C 0.14171 0.97005 0.54434 0.0
C639 C 0.16281 0.93914 0.52996 0.0
C640 C 0.16992 0.02658 0.543 0.0
C641 C 0.22102 0.05534 0.52756 0.0
H642 H 0.10191 0.95041 0.55594 0.0
H643 H 0.15079 0.04799 0.55369 0.0
S644 S 0.29742 0.99491 0.48888 0.0
N645 N 0.24006 0.94192 0.50161 0.0
N646 N 0.29393 0.0493 0.49969 0.0
C647 C 0.24456 0.02563 0.51481 0.0
C648 C 0.21526 0.96727 0.51588 0.0
C649 C 0.19163 0.21006 0.82537 0.0
C650 C 0.19836 0.24808 0.85057 0.0
C651 C 0.21911 0.18097 0.82709 0.0
C652 C 0.25482 0.18903 0.85388 0.0
H653 H 0.16216 0.20012 0.80526 0.0
H654 H 0.20973 0.14939 0.80838 0.0
S655 S 0.28951 0.28624 0.92518 0.0
N656 N 0.24575 0.29461 0.90221 0.0
N657 N 0.29802 0.23977 0.90524 0.0
C658 C 0.26496 0.22948 0.87807 0.0
C659 C 0.23665 0.25925 0.87639 0.0
C660 C 0.2357 0.14873 0.20004 0.0
C661 C 0.28466 0.19853 0.19938 0.0
C662 C 0.23403 0.10014 0.19276 0.0
C663 C 0.28133 0.09858 0.18476 0.0
H664 H 0.1977 0.147 0.20591 0.0
H665 H 0.19476 0.06342 0.19331 0.0
S666 S 0.42059 0.21758 0.18038 0.0
N667 N 0.38211 0.2438 0.19042 0.0
N668 N 0.37927 0.15133 0.17727 0.0
C669 C 0.33104 0.14794 0.18445 0.0
C670 C 0.33268 0.19809 0.19182 0.0
C671 C 0.17291 0.29576 0.54552 0.0
C672 C 0.20495 0.30943 0.51619 0.0
C673 C 0.12364 0.29515 0.54554 0.0
C674 C 0.10459 0.30785 0.51612 0.0
H675 H 0.18445 0.28222 0.568 0.0
H676 H 0.09872 0.28126 0.5681 0.0
S677 S 0.1772 0.35324 0.4341 0.0
N678 N 0.21771 0.34181 0.45826 0.0
N679 N 0.12452 0.34047 0.45801 0.0
C680 C 0.13872 0.32662 0.48759 0.0
C681 C 0.1892 0.32741 0.48768 0.0
C682 C 0.86478 0.09267 0.85282 0.0
C683 C 0.81728 0.09119 0.86428 0.0
C684 C 0.91161 0.14135 0.84607 0.0
C685 C 0.91382 0.19127 0.85091 0.0
H686 H 0.86665 0.05589 0.84947 0.0
H687 H 0.94698 0.13966 0.83765 0.0
S688 S 0.8012 0.211 0.88026 0.0
N689 N 0.77492 0.14441 0.87956 0.0
N690 N 0.86468 0.23712 0.8675 0.0
C691 C 0.86675 0.19109 0.86182 0.0
C692 C 0.81822 0.14082 0.86857 0.0
C693 C 0.67654 0.86882 0.20829 0.0
C694 C 0.72503 0.91919 0.20732 0.0
C695 C 0.67758 0.81997 0.20933 0.0
C696 C 0.72713 0.82035 0.2095 0.0
H697 H 0.63772 0.86712 0.20739 0.0
H698 H 0.63957 0.78184 0.20903 0.0
S699 S 0.865 0.94195 0.21321 0.0
N700 N 0.82356 0.96647 0.21068 0.0
N701 N 0.82556 0.87542 0.21273 0.0
C702 C 0.77569 0.87063 0.21034 0.0
C703 C 0.77462 0.91989 0.20921 0.0
C704 C 0.82494 0.70397 0.50099 0.0
C705 C 0.79027 0.68672 0.52918 0.0
C706 C 0.87404 0.70428 0.50171 0.0
C707 C 0.89029 0.68751 0.53065 0.0
H708 H 0.81572 0.72061 0.47902 0.0
H709 H 0.90094 0.72084 0.48018 0.0
S710 S 0.81014 0.63012 0.60889 0.0
N711 N 0.77214 0.64565 0.58518 0.0
N712 N 0.86493 0.64615 0.58628 0.0
C713 C 0.85361 0.66476 0.55759 0.0
C714 C 0.80334 0.66443 0.55692 0.0
C715 C 0.14633 0.89565 0.84799 0.0
C716 C 0.19137 0.90123 0.86615 0.0
C717 C 0.09833 0.84618 0.84561 0.0
C718 C 0.0922 0.79993 0.86218 0.0
H719 H 0.14693 0.93012 0.83627 0.0
H720 H 0.0649 0.84524 0.83194 0.0
S721 S 0.19874 0.79088 0.91099 0.0
N722 N 0.22815 0.85488 0.89896 0.0
N723 N 0.13645 0.76144 0.89557 0.0
C724 C 0.13735 0.80392 0.87944 0.0
C725 C 0.18713 0.85463 0.88128 0.0
loop_
_geom_bond_atom_site_label_1
_geom_bond_atom_site_label_2
_geom_bond_distance
_geom_bond_site_symmetry_2
_ccdc_geom_bond_type
Co0 N4 2.148 . S
Co0 N10 2.128 . S
Co0 N20 2.194 . S
Co0 O25 2.351 . S
Co0 O26 2.155 . S
Co0 O27 2.096 . S
C1 N4 1.301 . S
C1 N5 1.328 . S
C1 H6 0.930 . S
C2 C3 1.333 . S
C2 N4 1.317 . S
C2 H7 0.930 . S
C3 C2 1.333 . S
C3 N5 1.350 . S
C3 H29 0.931 . S
N4 Co0 2.148 . S
N4 C1 1.301 . S
N4 C2 1.317 . S
N5 C1 1.328 . S
N5 C3 1.350 . S
H6 C1 0.930 . S
H7 C2 0.930 . S
C8 O9 1.224 . S
C8 O27 1.247 . S
O9 C8 1.224 . S
N10 Co0 2.128 . S
N10 C11 1.355 . S
N10 C13 1.311 . S
C11 N10 1.355 . S
C11 C12 1.363 . S
C11 H23 0.929 . S
C12 C11 1.363 . S
C12 N14 1.375 . S
C12 H30 0.931 . S
C13 N10 1.311 . S
C13 N14 1.347 . S
C13 H24 0.929 . S
N14 C12 1.375 . S
N14 C13 1.347 . S
C15 C18 1.365 . S
C15 N20 1.328 . S
C15 H21 0.929 . S
C16 C17 1.362 . S
C16 C19 1.378 . S
C16 H31 0.929 . S
C17 C16 1.362 . S
C17 C18 1.366 . S
C18 C15 1.365 . S
C18 C17 1.366 . S
C18 H32 0.930 . S
C19 C16 1.378 . S
C19 N20 1.315 . S
C19 H22 0.930 . S
N20 Co0 2.194 . S
N20 C15 1.328 . S
N20 C19 1.315 . S
H21 C15 0.929 . S
H22 C19 0.930 . S
H23 C11 0.929 . S
H24 C13 0.929 . S
O25 Co0 2.351 . S
O25 C28 1.244 . S
O26 Co0 2.155 . S
O26 C28 1.240 . S
O27 Co0 2.096 . S
O27 C8 1.247 . S
C28 O25 1.244 . S
C28 O26 1.240 . S
H29 C3 0.931 . S
H30 C12 0.931 . S
H31 C16 0.929 . S
H32 C18 0.930 . S
Co33 N37 2.148 . S
Co33 N43 2.128 . S
Co33 N53 2.194 . S
Co33 O58 2.351 . S
Co33 O59 2.155 . S
Co33 O60 2.096 . S
C34 N37 1.301 . S
C34 N38 1.328 . S
C34 H39 0.930 . S
C35 C36 1.333 . S
C35 N37 1.317 . S
C35 H40 0.930 . S
C36 C35 1.333 . S
C36 N38 1.350 . S
C36 H62 0.931 . S
N37 Co33 2.148 . S
N37 C34 1.301 . S
N37 C35 1.317 . S
N38 C34 1.328 . S
N38 C36 1.350 . S
H39 C34 0.930 . S
H40 C35 0.930 . S
C41 O42 1.224 . S
C41 O60 1.247 1_455 S
O42 C41 1.224 . S
N43 Co33 2.128 . S
N43 C44 1.355 . S
N43 C46 1.311 . S
C44 N43 1.355 . S
C44 C45 1.363 . S
C44 H56 0.929 . S
C45 C44 1.363 . S
C45 N47 1.375 . S
C45 H63 0.931 . S
C46 N43 1.311 . S
C46 N47 1.347 . S
C46 H57 0.929 . S
N47 C45 1.375 . S
N47 C46 1.347 . S
C48 C51 1.365 . S
C48 N53 1.328 . S
C48 H54 0.929 . S
C49 C50 1.362 . S
C49 C52 1.378 . S
C49 H64 0.929 . S
C50 C49 1.362 . S
C50 C51 1.366 . S
C51 C48 1.365 . S
C51 C50 1.366 . S
C51 H65 0.930 . S
C52 C49 1.378 . S
C52 N53 1.315 . S
C52 H55 0.930 . S
N53 Co33 2.194 . S
N53 C48 1.328 . S
N53 C52 1.315 . S
H54 C48 0.929 . S
H55 C52 0.930 . S
H56 C44 0.929 . S
H57 C46 0.929 . S
O58 Co33 2.351 . S
O58 C61 1.244 . S
O59 Co33 2.155 . S
O59 C61 1.240 . S
O60 Co33 2.096 . S
O60 C41 1.247 1_655 S
C61 O58 1.244 . S
C61 O59 1.240 . S
H62 C36 0.931 . S
H63 C45 0.931 . S
H64 C49 0.929 . S
H65 C51 0.930 . S
Co66 N70 2.148 . S
Co66 N76 2.128 . S
Co66 N86 2.194 . S
Co66 O91 2.351 . S
Co66 O92 2.155 . S
Co66 O93 2.096 . S
C67 N70 1.301 . S
C67 N71 1.328 . S
C67 H72 0.930 . S
C68 C69 1.333 . S
C68 N70 1.317 . S
C68 H73 0.930 . S
C69 C68 1.333 . S
C69 N71 1.350 . S
C69 H95 0.931 . S
N70 Co66 2.148 . S
N70 C67 1.301 . S
N70 C68 1.317 . S
N71 C67 1.328 . S
N71 C69 1.350 . S
H72 C67 0.930 . S
H73 C68 0.930 . S
C74 O75 1.224 . S
C74 O93 1.247 1_545 S
O75 C74 1.224 . S
N76 Co66 2.128 . S
N76 C77 1.355 . S
N76 C79 1.311 . S
C77 N76 1.355 . S
C77 C78 1.363 . S
C77 H89 0.929 . S
C78 C77 1.363 . S
C78 N80 1.375 . S
C78 H96 0.931 . S
C79 N76 1.311 . S
C79 N80 1.347 . S
C79 H90 0.929 . S
N80 C78 1.375 . S
N80 C79 1.347 . S
C81 C84 1.365 . S
C81 N86 1.328 . S
C81 H87 0.929 . S
C82 C83 1.362 . S
C82 C85 1.378 . S
C82 H97 0.929 . S
C83 C82 1.362 . S
C83 C84 1.366 . S
C84 C81 1.365 . S
C84 C83 1.366 . S
C84 H98 0.930 . S
C85 C82 1.378 . S
C85 N86 1.315 . S
C85 H88 0.930 . S
N86 Co66 2.194 . S
N86 C81 1.328 . S
N86 C85 1.315 . S
H87 C81 0.929 . S
H88 C85 0.930 . S
H89 C77 0.929 . S
H90 C79 0.929 . S
O91 Co66 2.351 . S
O91 C94 1.244 . S
O92 Co66 2.155 . S
O92 C94 1.240 . S
O93 Co66 2.096 . S
O93 C74 1.247 1_565 S
C94 O91 1.244 . S
C94 O92 1.240 . S
H95 C69 0.931 . S
H96 C78 0.931 . S
H97 C82 0.929 . S
H98 C84 0.930 . S
Co99 N103 2.148 . S
Co99 N109 2.128 . S
Co99 N119 2.194 . S
Co99 O124 2.351 . S
Co99 O125 2.155 . S
Co99 O126 2.096 . S
C100 N103 1.301 . S
C100 N104 1.328 . S
C100 H105 0.930 . S
C101 C102 1.333 . S
C101 N103 1.317 . S
C101 H106 0.930 . S
C102 C101 1.333 . S
C102 N104 1.350 . S
C102 H128 0.931 . S
N103 Co99 2.148 . S
N103 C100 1.301 . S
N103 C101 1.317 . S
N104 C100 1.328 . S
N104 C102 1.350 . S
H105 C100 0.930 . S
H106 C101 0.930 . S
C107 O108 1.224 . S
C107 O126 1.247 . S
O108 C107 1.224 . S
N109 Co99 2.128 . S
N109 C110 1.355 . S
N109 C112 1.311 . S
C110 N109 1.355 . S
C110 C111 1.363 . S
C110 H122 0.929 . S
C111 C110 1.363 . S
C111 N113 1.375 . S
C111 H129 0.931 . S
C112 N109 1.311 . S
C112 N113 1.347 . S
C112 H123 0.929 . S
N113 C111 1.375 . S
N113 C112 1.347 . S
C114 C117 1.365 . S
C114 N119 1.328 . S
C114 H120 0.929 . S
C115 C116 1.362 . S
C115 C118 1.378 . S
C115 H130 0.929 . S
C116 C115 1.362 . S
C116 C117 1.366 . S
C117 C114 1.365 . S
C117 C116 1.366 . S
C117 H131 0.930 . S
C118 C115 1.378 . S
C118 N119 1.315 . S
C118 H121 0.930 . S
N119 Co99 2.194 . S
N119 C114 1.328 . S
N119 C118 1.315 . S
H120 C114 0.929 . S
H121 C118 0.930 . S
H122 C110 0.929 . S
H123 C112 0.929 . S
O124 Co99 2.351 . S
O124 C127 1.244 . S
O125 Co99 2.155 . S
O125 C127 1.240 . S
O126 Co99 2.096 . S
O126 C107 1.247 . S
C127 O124 1.244 . S
C127 O125 1.240 . S
H128 C102 0.931 . S
H129 C111 0.931 . S
H130 C115 0.929 . S
H131 C117 0.930 . S
Co132 N136 2.148 . S
Co132 N142 2.128 . S
Co132 N152 2.194 . S
Co132 O157 2.351 . S
Co132 O158 2.155 . S
Co132 O159 2.096 . S
C133 N136 1.301 . S
C133 N137 1.328 . S
C133 H138 0.930 . S
C134 C135 1.333 . S
C134 N136 1.317 . S
C134 H139 0.930 . S
C135 C134 1.333 . S
C135 N137 1.350 . S
C135 H161 0.931 . S
N136 Co132 2.148 . S
N136 C133 1.301 . S
N136 C134 1.317 . S
N137 C133 1.328 . S
N137 C135 1.350 . S
H138 C133 0.930 . S
H139 C134 0.930 . S
C140 O141 1.224 . S
C140 O159 1.247 1_655 S
O141 C140 1.224 . S
N142 Co132 2.128 . S
N142 C143 1.355 . S
N142 C145 1.311 . S
C143 N142 1.355 . S
C143 C144 1.363 . S
C143 H155 0.929 . S
C144 C143 1.363 . S
C144 N146 1.375 . S
C144 H162 0.931 . S
C145 N142 1.311 . S
C145 N146 1.347 . S
C145 H156 0.929 . S
N146 C144 1.375 . S
N146 C145 1.347 . S
C147 C150 1.365 . S
C147 N152 1.328 . S
C147 H153 0.929 . S
C148 C149 1.362 . S
C148 C151 1.378 . S
C148 H163 0.929 . S
C149 C148 1.362 . S
C149 C150 1.366 . S
C150 C147 1.365 . S
C150 C149 1.366 . S
C150 H164 0.930 . S
C151 C148 1.378 . S
C151 N152 1.315 . S
C151 H154 0.930 . S
N152 Co132 2.194 . S
N152 C147 1.328 . S
N152 C151 1.315 . S
H153 C147 0.929 . S
H154 C151 0.930 . S
H155 C143 0.929 . S
H156 C145 0.929 . S
O157 Co132 2.351 . S
O157 C160 1.244 . S
O158 Co132 2.155 . S
O158 C160 1.240 . S
O159 Co132 2.096 . S
O159 C140 1.247 1_455 S
C160 O157 1.244 . S
C160 O158 1.240 . S
H161 C135 0.931 . S
H162 C144 0.931 . S
H163 C148 0.929 . S
H164 C150 0.930 . S
Co165 N169 2.148 . S
Co165 N175 2.128 . S
Co165 N185 2.194 . S
Co165 O190 2.351 . S
Co165 O191 2.155 . S
Co165 O192 2.096 . S
C166 N169 1.301 . S
C166 N170 1.328 . S
C166 H171 0.930 . S
C167 C168 1.333 . S
C167 N169 1.317 . S
C167 H172 0.930 . S
C168 C167 1.333 . S
C168 N170 1.350 . S
C168 H194 0.931 . S
N169 Co165 2.148 . S
N169 C166 1.301 . S
N169 C167 1.317 . S
N170 C166 1.328 . S
N170 C168 1.350 . S
H171 C166 0.930 . S
H172 C167 0.930 . S
C173 O174 1.224 . S
C173 O192 1.247 1_565 S
O174 C173 1.224 . S
N175 Co165 2.128 . S
N175 C176 1.355 . S
N175 C178 1.311 . S
C176 N175 1.355 . S
C176 C177 1.363 . S
C176 H188 0.929 . S
C177 C176 1.363 . S
C177 N179 1.375 . S
C177 H195 0.931 . S
C178 N175 1.311 . S
C178 N179 1.347 . S
C178 H189 0.929 . S
N179 C177 1.375 . S
N179 C178 1.347 . S
C180 C183 1.365 . S
C180 N185 1.328 . S
C180 H186 0.929 . S
C181 C182 1.362 . S
C181 C184 1.378 . S
C181 H196 0.929 . S
C182 C181 1.362 . S
C182 C183 1.366 . S
C183 C180 1.365 . S
C183 C182 1.366 . S
C183 H197 0.930 . S
C184 C181 1.378 . S
C184 N185 1.315 . S
C184 H187 0.930 . S
N185 Co165 2.194 . S
N185 C180 1.328 . S
N185 C184 1.315 . S
H186 C180 0.929 . S
H187 C184 0.930 . S
H188 C176 0.929 . S
H189 C178 0.929 . S
O190 Co165 2.351 . S
O190 C193 1.244 . S
O191 Co165 2.155 . S
O191 C193 1.240 . S
O192 Co165 2.096 . S
O192 C173 1.247 1_545 S
C193 O190 1.244 . S
C193 O191 1.240 . S
H194 C168 0.931 . S
H195 C177 0.931 . S
H196 C181 0.929 . S
H197 C183 0.930 . S
Co198 N202 2.148 . S
Co198 N208 2.128 . S
Co198 N218 2.194 . S
Co198 O223 2.351 . S
Co198 O224 2.155 . S
Co198 O225 2.096 . S
C199 N202 1.301 . S
C199 N203 1.328 . S
C199 H204 0.930 . S
C200 C201 1.333 . S
C200 N202 1.317 . S
C200 H205 0.930 . S
C201 C200 1.333 . S
C201 N203 1.350 . S
C201 H227 0.931 . S
N202 Co198 2.148 . S
N202 C199 1.301 . S
N202 C200 1.317 . S
N203 C199 1.328 . S
N203 C201 1.350 . S
H204 C199 0.930 . S
H205 C200 0.930 . S
C206 O207 1.224 . S
C206 O225 1.247 . S
O207 C206 1.224 . S
N208 Co198 2.128 . S
N208 C209 1.355 . S
N208 C211 1.311 . S
C209 N208 1.355 . S
C209 C210 1.363 . S
C209 H221 0.929 . S
C210 C209 1.363 . S
C210 N212 1.375 . S
C210 H228 0.931 . S
C211 N208 1.311 . S
C211 N212 1.347 . S
C211 H222 0.929 . S
N212 C210 1.375 . S
N212 C211 1.347 . S
C213 C216 1.365 . S
C213 N218 1.328 . S
C213 H219 0.929 . S
C214 C215 1.362 . S
C214 C217 1.378 . S
C214 H229 0.929 . S
C215 C214 1.362 . S
C215 C216 1.366 . S
C216 C213 1.365 . S
C216 C215 1.366 . S
C216 H230 0.930 . S
C217 C214 1.378 . S
C217 N218 1.315 . S
C217 H220 0.930 . S
N218 Co198 2.194 . S
N218 C213 1.328 . S
N218 C217 1.315 . S
H219 C213 0.929 . S
H220 C217 0.930 . S
H221 C209 0.929 . S
H222 C211 0.929 . S
O223 Co198 2.351 . S
O223 C226 1.244 . S
O224 Co198 2.155 . S
O224 C226 1.240 . S
O225 Co198 2.096 . S
O225 C206 1.247 . S
C226 O223 1.244 . S
C226 O224 1.240 . S
H227 C201 0.931 . S
H228 C210 0.931 . S
H229 C214 0.929 . S
H230 C216 0.930 . S
Co231 N235 2.148 . S
Co231 N241 2.128 . S
Co231 N251 2.194 . S
Co231 O256 2.351 . S
Co231 O257 2.155 . S
Co231 O258 2.096 . S
C232 N235 1.301 . S
C232 N236 1.328 . S
C232 H237 0.930 . S
C233 C234 1.333 . S
C233 N235 1.317 . S
C233 H238 0.930 . S
C234 C233 1.333 . S
C234 N236 1.350 . S
C234 H260 0.931 . S
N235 Co231 2.148 . S
N235 C232 1.301 . S
N235 C233 1.317 . S
N236 C232 1.328 . S
N236 C234 1.350 . S
H237 C232 0.930 . S
H238 C233 0.930 . S
C239 O240 1.224 . S
C239 O258 1.247 1_455 S
O240 C239 1.224 . S
N241 Co231 2.128 . S
N241 C242 1.355 . S
N241 C244 1.311 . S
C242 N241 1.355 . S
C242 C243 1.363 . S
C242 H254 0.929 . S
C243 C242 1.363 . S
C243 N245 1.375 . S
C243 H261 0.931 . S
C244 N241 1.311 . S
C244 N245 1.347 . S
C244 H255 0.929 . S
N245 C243 1.375 . S
N245 C244 1.347 . S
C246 C249 1.365 . S
C246 N251 1.328 . S
C246 H252 0.929 . S
C247 C248 1.362 . S
C247 C250 1.378 . S
C247 H262 0.929 . S
C248 C247 1.362 . S
C248 C249 1.366 . S
C249 C246 1.365 . S
C249 C248 1.366 . S
C249 H263 0.930 . S
C250 C247 1.378 . S
C250 N251 1.315 . S
C250 H253 0.930 . S
N251 Co231 2.194 . S
N251 C246 1.328 . S
N251 C250 1.315 . S
H252 C246 0.929 . S
H253 C250 0.930 . S
H254 C242 0.929 . S
H255 C244 0.929 . S
O256 Co231 2.351 . S
O256 C259 1.244 . S
O257 Co231 2.155 . S
O257 C259 1.240 . S
O258 Co231 2.096 . S
O258 C239 1.247 1_655 S
C259 O256 1.244 . S
C259 O257 1.240 . S
H260 C234 0.931 . S
H261 C243 0.931 . S
H262 C247 0.929 . S
H263 C249 0.930 . S
Co264 N268 2.148 . S
Co264 N274 2.128 . S
Co264 N284 2.194 . S
Co264 O289 2.351 . S
Co264 O290 2.155 . S
Co264 O291 2.096 . S
C265 N268 1.301 . S
C265 N269 1.328 . S
C265 H270 0.930 . S
C266 C267 1.333 . S
C266 N268 1.317 . S
C266 H271 0.930 . S
C267 C266 1.333 . S
C267 N269 1.350 . S
C267 H293 0.931 . S
N268 Co264 2.148 . S
N268 C265 1.301 . S
N268 C266 1.317 . S
N269 C265 1.328 . S
N269 C267 1.350 . S
H270 C265 0.930 . S
H271 C266 0.930 . S
C272 O273 1.224 . S
C272 O291 1.247 1_545 S
O273 C272 1.224 . S
N274 Co264 2.128 . S
N274 C275 1.355 . S
N274 C277 1.311 . S
C275 N274 1.355 . S
C275 C276 1.363 . S
C275 H287 0.929 . S
C276 C275 1.363 . S
C276 N278 1.375 . S
C276 H294 0.931 . S
C277 N274 1.311 . S
C277 N278 1.347 . S
C277 H288 0.929 . S
N278 C276 1.375 . S
N278 C277 1.347 . S
C279 C282 1.365 . S
C279 N284 1.328 . S
C279 H285 0.929 . S
C280 C281 1.362 . S
C280 C283 1.378 . S
C280 H295 0.929 . S
C281 C280 1.362 . S
C281 C282 1.366 . S
C282 C279 1.365 . S
C282 C281 1.366 . S
C282 H296 0.930 . S
C283 C280 1.378 . S
C283 N284 1.315 . S
C283 H286 0.930 . S
N284 Co264 2.194 . S
N284 C279 1.328 . S
N284 C283 1.315 . S
H285 C279 0.929 . S
H286 C283 0.930 . S
H287 C275 0.929 . S
H288 C277 0.929 . S
O289 Co264 2.351 . S
O289 C292 1.244 . S
O290 Co264 2.155 . S
O290 C292 1.240 . S
O291 Co264 2.096 . S
O291 C272 1.247 1_565 S
C292 O289 1.244 . S
C292 O290 1.240 . S
H293 C267 0.931 . S
H294 C276 0.931 . S
H295 C280 0.929 . S
H296 C282 0.930 . S
Co297 N301 2.148 . S
Co297 N307 2.128 . S
Co297 N317 2.194 . S
Co297 O322 2.351 . S
Co297 O323 2.155 . S
Co297 O324 2.096 . S
C298 N301 1.301 . S
C298 N302 1.328 . S
C298 H303 0.930 . S
C299 C300 1.333 . S
C299 N301 1.317 . S
C299 H304 0.930 . S
C300 C299 1.333 . S
C300 N302 1.350 . S
C300 H326 0.931 . S
N301 Co297 2.148 . S
N301 C298 1.301 . S
N301 C299 1.317 . S
N302 C298 1.328 . S
N302 C300 1.350 . S
H303 C298 0.930 . S
H304 C299 0.930 . S
C305 O306 1.224 . S
C305 O324 1.247 . S
O306 C305 1.224 . S
N307 Co297 2.128 . S
N307 C308 1.355 . S
N307 C310 1.311 . S
C308 N307 1.355 . S
C308 C309 1.363 . S
C308 H320 0.929 . S
C309 C308 1.363 . S
C309 N311 1.375 . S
C309 H327 0.931 . S
C310 N307 1.311 . S
C310 N311 1.347 . S
C310 H321 0.929 . S
N311 C309 1.375 . S
N311 C310 1.347 . S
C312 C315 1.365 . S
C312 N317 1.328 . S
C312 H318 0.929 . S
C313 C314 1.362 . S
C313 C316 1.378 . S
C313 H328 0.929 . S
C314 C313 1.362 . S
C314 C315 1.366 . S
C315 C312 1.365 . S
C315 C314 1.366 . S
C315 H329 0.930 . S
C316 C313 1.378 . S
C316 N317 1.315 . S
C316 H319 0.930 . S
N317 Co297 2.194 . S
N317 C312 1.328 . S
N317 C316 1.315 . S
H318 C312 0.929 . S
H319 C316 0.930 . S
H320 C308 0.929 . S
H321 C310 0.929 . S
O322 Co297 2.351 . S
O322 C325 1.244 . S
O323 Co297 2.155 . S
O323 C325 1.240 . S
O324 Co297 2.096 . S
O324 C305 1.247 . S
C325 O322 1.244 . S
C325 O323 1.240 . S
H326 C300 0.931 . S
H327 C309 0.931 . S
H328 C313 0.929 . S
H329 C315 0.930 . S
Co330 N334 2.148 . S
Co330 N340 2.128 . S
Co330 N350 2.194 . S
Co330 O355 2.351 . S
Co330 O356 2.155 . S
Co330 O357 2.096 . S
C331 N334 1.301 . S
C331 N335 1.328 . S
C331 H336 0.930 . S
C332 C333 1.333 . S
C332 N334 1.317 . S
C332 H337 0.930 . S
C333 C332 1.333 . S
C333 N335 1.350 . S
C333 H359 0.931 . S
N334 Co330 2.148 . S
N334 C331 1.301 . S
N334 C332 1.317 . S
N335 C331 1.328 . S
N335 C333 1.350 . S
H336 C331 0.930 . S
H337 C332 0.930 . S
C338 O339 1.224 . S
C338 O357 1.247 1_655 S
O339 C338 1.224 . S
N340 Co330 2.128 . S
N340 C341 1.355 . S
N340 C343 1.311 . S
C341 N340 1.355 . S
C341 C342 1.363 . S
C341 H353 0.929 . S
C342 C341 1.363 . S
C342 N344 1.375 . S
C342 H360 0.931 . S
C343 N340 1.311 . S
C343 N344 1.347 . S
C343 H354 0.929 . S
N344 C342 1.375 . S
N344 C343 1.347 . S
C345 C348 1.365 . S
C345 N350 1.328 . S
C345 H351 0.929 . S
C346 C347 1.362 . S
C346 C349 1.378 . S
C346 H361 0.929 . S
C347 C346 1.362 . S
C347 C348 1.366 . S
C348 C345 1.365 . S
C348 C347 1.366 . S
C348 H362 0.930 . S
C349 C346 1.378 . S
C349 N350 1.315 . S
C349 H352 0.930 . S
N350 Co330 2.194 . S
N350 C345 1.328 . S
N350 C349 1.315 . S
H351 C345 0.929 . S
H352 C349 0.930 . S
H353 C341 0.929 . S
H354 C343 0.929 . S
O355 Co330 2.351 . S
O355 C358 1.244 . S
O356 Co330 2.155 . S
O356 C358 1.240 . S
O357 Co330 2.096 . S
O357 C338 1.247 1_455 S
C358 O355 1.244 . S
C358 O356 1.240 . S
H359 C333 0.931 . S
H360 C342 0.931 . S
H361 C346 0.929 . S
H362 C348 0.930 . S
Co363 N367 2.148 . S
Co363 N373 2.128 . S
Co363 N383 2.194 . S
Co363 O388 2.351 . S
Co363 O389 2.155 . S
Co363 O390 2.096 . S
C364 N367 1.301 . S
C364 N368 1.328 . S
C364 H369 0.930 . S
C365 C366 1.333 . S
C365 N367 1.317 . S
C365 H370 0.930 . S
C366 C365 1.333 . S
C366 N368 1.350 . S
C366 H392 0.931 . S
N367 Co363 2.148 . S
N367 C364 1.301 . S
N367 C365 1.317 . S
N368 C364 1.328 . S
N368 C366 1.350 . S
H369 C364 0.930 . S
H370 C365 0.930 . S
C371 O372 1.224 . S
C371 O390 1.247 1_565 S
O372 C371 1.224 . S
N373 Co363 2.128 . S
N373 C374 1.355 . S
N373 C376 1.311 . S
C374 N373 1.355 . S
C374 C375 1.363 . S
C374 H386 0.929 . S
C375 C374 1.363 . S
C375 N377 1.375 . S
C375 H393 0.931 . S
C376 N373 1.311 . S
C376 N377 1.347 . S
C376 H387 0.929 . S
N377 C375 1.375 . S
N377 C376 1.347 . S
C378 C381 1.365 . S
C378 N383 1.328 . S
C378 H384 0.929 . S
C379 C380 1.362 . S
C379 C382 1.378 . S
C379 H394 0.929 . S
C380 C379 1.362 . S
C380 C381 1.366 . S
C381 C378 1.365 . S
C381 C380 1.366 . S
C381 H395 0.930 . S
C382 C379 1.378 . S
C382 N383 1.315 . S
C382 H385 0.930 . S
N383 Co363 2.194 . S
N383 C378 1.328 . S
N383 C382 1.315 . S
H384 C378 0.929 . S
H385 C382 0.930 . S
H386 C374 0.929 . S
H387 C376 0.929 . S
O388 Co363 2.351 . S
O388 C391 1.244 . S
O389 Co363 2.155 . S
O389 C391 1.240 . S
O390 Co363 2.096 . S
O390 C371 1.247 1_545 S
C391 O388 1.244 . S
C391 O389 1.240 . S
H392 C366 0.931 . S
H393 C375 0.931 . S
H394 C379 0.929 . S
H395 C381 0.930 . S
C396 C397 1.369 . S
C396 C398 1.419 . S
C396 H400 0.930 . S
C397 C396 1.369 . S
C397 C406 1.429 . S
C398 C396 1.419 . S
C398 C399 1.363 . S
C398 H401 0.929 . S
C399 C398 1.363 . S
C399 C405 1.428 . S
H400 C396 0.930 . S
H401 C398 0.929 . S
S402 N403 1.613 . S
S402 N404 1.610 . S
N403 S402 1.613 . S
N403 C406 1.350 . S
N404 S402 1.610 . S
N404 C405 1.351 . S
C405 C399 1.428 . S
C405 N404 1.351 . S
C405 C406 1.434 . S
C406 C397 1.429 . S
C406 N403 1.350 . S
C406 C405 1.434 . S
C407 C408 1.369 . S
C407 C409 1.419 1_655 S
C407 H411 0.930 . S
C408 C407 1.369 . S
C408 C417 1.429 1_655 S
C409 C407 1.419 1_455 S
C409 C410 1.364 . S
C409 H412 0.933 1_455 S
C410 C409 1.364 . S
C410 C416 1.428 . S
H411 C407 0.930 . S
H412 C409 0.933 1_655 S
S413 N414 1.613 . S
S413 N415 1.610 . S
N414 S413 1.613 . S
N414 C417 1.350 . S
N415 S413 1.610 . S
N415 C416 1.351 . S
C416 C410 1.428 . S
C416 N415 1.351 . S
C416 C417 1.434 . S
C417 C408 1.429 1_455 S
C417 N414 1.350 . S
C417 C416 1.434 . S
C418 C419 1.369 . S
C418 C420 1.419 1_556 S
C418 H422 0.930 . S
C419 C418 1.369 . S
C419 C428 1.429 1_565 S
C420 C418 1.419 1_554 S
C420 C421 1.363 1_565 S
C420 H423 0.929 . S
C421 C420 1.363 1_545 S
C421 C427 1.428 . S
H422 C418 0.930 . S
H423 C420 0.929 . S
S424 N425 1.613 . S
S424 N426 1.610 1_556 S
N425 S424 1.613 . S
N425 C428 1.350 . S
N426 S424 1.610 1_554 S
N426 C427 1.351 . S
C427 C421 1.428 . S
C427 N426 1.351 . S
C427 C428 1.434 1_554 S
C428 C419 1.429 1_545 S
C428 N425 1.350 . S
C428 C427 1.434 1_556 S
C429 C430 1.369 . S
C429 C431 1.419 . S
C429 H433 0.930 . S
C430 C429 1.369 . S
C430 C439 1.429 . S
C431 C429 1.419 . S
C431 C432 1.363 . S
C431 H434 0.929 . S
C432 C431 1.363 . S
C432 C438 1.428 . S
H433 C429 0.930 . S
H434 C431 0.929 . S
S435 N436 1.613 . S
S435 N437 1.610 . S
N436 S435 1.613 . S
N436 C439 1.350 . S
N437 S435 1.610 . S
N437 C438 1.351 . S
C438 C432 1.428 . S
C438 N437 1.351 . S
C438 C439 1.434 . S
C439 C430 1.429 . S
C439 N436 1.350 . S
C439 C438 1.434 . S
C440 C441 1.369 1_655 S
C440 C442 1.419 . S
C440 H444 0.930 . S
C441 C440 1.369 1_455 S
C441 C450 1.429 . S
C442 C440 1.419 . S
C442 C443 1.363 . S
C442 H445 0.929 . S
C443 C442 1.363 . S
C443 C449 1.428 1_655 S
H444 C440 0.930 . S
H445 C442 0.929 . S
S446 N447 1.613 . S
S446 N448 1.610 . S
N447 S446 1.613 . S
N447 C450 1.350 . S
N448 S446 1.610 . S
N448 C449 1.351 . S
C449 C443 1.428 1_455 S
C449 N448 1.351 . S
C449 C450 1.434 . S
C450 C441 1.429 . S
C450 N447 1.350 . S
C450 C449 1.434 . S
C451 C452 1.369 . S
C451 C453 1.419 1_556 S
C451 H455 0.930 . S
C452 C451 1.369 . S
C452 C461 1.429 1_545 S
C453 C451 1.419 1_554 S
C453 C454 1.363 1_545 S
C453 H456 0.929 . S
C454 C453 1.363 1_565 S
C454 C460 1.428 . S
H455 C451 0.930 . S
H456 C453 0.929 . S
S457 N458 1.613 . S
S457 N459 1.610 1_556 S
N458 S457 1.613 . S
N458 C461 1.350 . S
N459 S457 1.610 1_554 S
N459 C460 1.351 . S
C460 C454 1.428 . S
C460 N459 1.351 . S
C460 C461 1.434 1_554 S
C461 C452 1.429 1_565 S
C461 N458 1.350 . S
C461 C460 1.434 1_556 S
C462 C463 1.369 . S
C462 C464 1.419 1_556 S
C462 H466 0.930 . S
C463 C462 1.369 . S
C463 C472 1.429 . S
C464 C462 1.419 1_554 S
C464 C465 1.363 . S
C464 H467 0.929 . S
C465 C464 1.363 . S
C465 C471 1.428 . S
H466 C462 0.930 . S
H467 C464 0.929 . S
S468 N469 1.613 1_554 S
S468 N470 1.610 . S
N469 S468 1.613 1_556 S
N469 C472 1.350 . S
N470 S468 1.610 . S
N470 C471 1.351 . S
C471 C465 1.428 . S
C471 N470 1.351 . S
C471 C472 1.434 1_554 S
C472 C463 1.429 . S
C472 N469 1.350 . S
C472 C471 1.434 1_556 S
C473 C474 1.369 . S
C473 C475 1.419 . S
C473 H477 0.930 . S
C474 C473 1.369 . S
C474 C483 1.429 . S
C475 C473 1.419 . S
C475 C476 1.363 . S
C475 H478 0.929 . S
C476 C475 1.363 . S
C476 C482 1.428 . S
H477 C473 0.930 . S
H478 C475 0.929 . S
S479 N480 1.613 . S
S479 N481 1.610 . S
N480 S479 1.613 . S
N480 C483 1.350 . S
N481 S479 1.610 . S
N481 C482 1.351 . S
C482 C476 1.428 . S
C482 N481 1.351 . S
C482 C483 1.434 . S
C483 C474 1.429 . S
C483 N480 1.350 . S
C483 C482 1.434 . S
C484 C485 1.369 . S
C484 C486 1.419 . S
C484 H488 0.930 . S
C485 C484 1.369 . S
C485 C494 1.429 . S
C486 C484 1.419 . S
C486 C487 1.363 . S
C486 H489 0.929 . S
C487 C486 1.363 . S
C487 C493 1.428 . S
H488 C484 0.930 . S
H489 C486 0.929 . S
S490 N491 1.613 . S
S490 N492 1.610 . S
N491 S490 1.613 . S
N491 C494 1.350 . S
N492 S490 1.610 . S
N492 C493 1.351 . S
C493 C487 1.428 . S
C493 N492 1.351 . S
C493 C494 1.434 . S
C494 C485 1.429 . S
C494 N491 1.350 . S
C494 C493 1.434 . S
C495 C496 1.369 . S
C495 C497 1.419 1_556 S
C495 H499 0.930 . S
C496 C495 1.369 . S
C496 C505 1.429 . S
C497 C495 1.419 1_554 S
C497 C498 1.363 . S
C497 H500 0.929 . S
C498 C497 1.363 . S
C498 C504 1.428 . S
H499 C495 0.930 . S
H500 C497 0.929 . S
S501 N502 1.613 1_554 S
S501 N503 1.610 . S
N502 S501 1.613 1_556 S
N502 C505 1.350 . S
N503 S501 1.610 . S
N503 C504 1.351 . S
C504 C498 1.428 . S
C504 N503 1.351 . S
C504 C505 1.434 1_554 S
C505 C496 1.429 . S
C505 N502 1.350 . S
C505 C504 1.434 1_556 S
C506 C507 1.369 . S
C506 C508 1.419 . S
C506 H510 0.930 . S
C507 C506 1.369 . S
C507 C516 1.429 . S
C508 C506 1.419 . S
C508 C509 1.363 . S
C508 H511 0.929 . S
C509 C508 1.363 . S
C509 C515 1.428 . S
H510 C506 0.930 . S
H511 C508 0.929 . S
S512 N513 1.613 . S
S512 N514 1.610 . S
N513 S512 1.613 . S
N513 C516 1.350 . S
N514 S512 1.610 . S
N514 C515 1.351 . S
C515 C509 1.428 . S
C515 N514 1.351 . S
C515 C516 1.434 . S
C516 C507 1.429 . S
C516 N513 1.350 . S
C516 C515 1.434 . S
C517 C518 1.369 . S
C517 C519 1.419 . S
C517 H521 0.930 . S
C518 C517 1.369 . S
C518 C527 1.429 . S
C519 C517 1.419 . S
C519 C520 1.363 . S
C519 H522 0.929 . S
C520 C519 1.363 . S
C520 C526 1.428 . S
H521 C517 0.930 . S
H522 C519 0.929 . S
S523 N524 1.613 . S
S523 N525 1.610 . S
N524 S523 1.613 . S
N524 C527 1.350 . S
N525 S523 1.610 . S
N525 C526 1.351 . S
C526 C520 1.428 . S
C526 N525 1.351 . S
C526 C527 1.434 . S
C527 C518 1.429 . S
C527 N524 1.350 . S
C527 C526 1.434 . S
C528 C529 1.369 . S
C528 C530 1.419 . S
C528 H532 0.930 . S
C529 C528 1.369 . S
C529 C538 1.429 . S
C530 C528 1.419 . S
C530 C531 1.363 . S
C530 H533 0.929 . S
C531 C530 1.363 . S
C531 C537 1.428 . S
H532 C528 0.930 . S
H533 C530 0.929 . S
S534 N535 1.613 . S
S534 N536 1.610 . S
N535 S534 1.613 . S
N535 C538 1.350 . S
N536 S534 1.610 . S
N536 C537 1.351 . S
C537 C531 1.428 . S
C537 N536 1.351 . S
C537 C538 1.434 . S
C538 C529 1.429 . S
C538 N535 1.350 . S
C538 C537 1.434 . S
C539 C540 1.369 . S
C539 C541 1.419 1_655 S
C539 H543 0.930 . S
C540 C539 1.369 . S
C540 C549 1.429 . S
C541 C539 1.419 1_455 S
C541 C542 1.363 . S
C541 H544 0.929 . S
C542 C541 1.363 . S
C542 C548 1.428 . S
H543 C539 0.930 . S
H544 C541 0.929 . S
S545 N546 1.613 1_455 S
S545 N547 1.610 . S
N546 S545 1.613 1_655 S
N546 C549 1.350 . S
N547 S545 1.610 . S
N547 C548 1.351 . S
C548 C542 1.428 . S
C548 N547 1.351 . S
C548 C549 1.434 1_455 S
C549 C540 1.429 . S
C549 N546 1.350 . S
C549 C548 1.434 1_655 S
C550 C551 1.361 1_565 S
C550 C552 1.431 . S
C550 H554 0.926 . S
C551 C550 1.361 1_545 S
C551 C560 1.429 . S
C552 C550 1.431 . S
C552 C553 1.363 . S
C552 H555 0.929 . S
C553 C552 1.363 . S
C553 C559 1.428 1_565 S
H554 C550 0.926 . S
H555 C552 0.929 . S
S556 N557 1.613 . S
S556 N558 1.610 . S
N557 S556 1.613 . S
N557 C560 1.350 . S
N558 S556 1.610 . S
N558 C559 1.351 . S
C559 C553 1.428 1_545 S
C559 N558 1.351 . S
C559 C560 1.434 . S
C560 C551 1.429 . S
C560 N557 1.350 . S
C560 C559 1.434 . S
C561 C562 1.369 . S
C561 C563 1.419 . S
C561 H565 0.930 . S
C562 C561 1.369 . S
C562 C571 1.429 . S
C563 C561 1.419 . S
C563 C564 1.363 . S
C563 H566 0.929 . S
C564 C563 1.363 . S
C564 C570 1.428 . S
H565 C561 0.930 . S
H566 C563 0.929 . S
S567 N568 1.613 . S
S567 N569 1.610 . S
N568 S567 1.613 . S
N568 C571 1.350 . S
N569 S567 1.610 . S
N569 C570 1.351 . S
C570 C564 1.428 . S
C570 N569 1.351 . S
C570 C571 1.434 . S
C571 C562 1.429 . S
C571 N568 1.350 . S
C571 C570 1.434 . S
C572 C573 1.369 . S
C572 C574 1.419 1_655 S
C572 H576 0.930 . S
C573 C572 1.369 . S
C573 C582 1.429 . S
C574 C572 1.419 1_455 S
C574 C575 1.363 . S
C574 H577 0.929 . S
C575 C574 1.363 . S
C575 C581 1.428 . S
H576 C572 0.930 . S
H577 C574 0.929 . S
S578 N579 1.613 . S
S578 N580 1.610 1_655 S
N579 S578 1.613 . S
N579 C582 1.350 . S
N580 S578 1.610 1_455 S
N580 C581 1.351 . S
C581 C575 1.428 . S
C581 N580 1.351 . S
C581 C582 1.434 1_455 S
C582 C573 1.429 . S
C582 N579 1.350 . S
C582 C581 1.434 1_655 S
C583 C584 1.369 . S
C583 C585 1.419 . S
C583 H587 0.930 . S
C584 C583 1.369 . S
C584 C593 1.429 1_545 S
C585 C583 1.419 . S
C585 C586 1.363 1_545 S
C585 H588 0.929 . S
C586 C585 1.363 1_565 S
C586 C592 1.428 . S
H587 C583 0.930 . S
H588 C585 0.929 . S
S589 N590 1.613 . S
S589 N591 1.610 . S
N590 S589 1.613 . S
N590 C593 1.350 . S
N591 S589 1.610 . S
N591 C592 1.351 . S
C592 C586 1.428 . S
C592 N591 1.351 . S
C592 C593 1.434 . S
C593 C584 1.429 1_565 S
C593 N590 1.350 . S
C593 C592 1.434 . S
C594 C595 1.369 . S
C594 C596 1.419 1_455 S
C594 H598 0.930 . S
C595 C594 1.369 . S
C595 C604 1.429 . S
C596 C594 1.419 1_655 S
C596 C597 1.363 . S
C596 H599 0.929 . S
C597 C596 1.363 . S
C597 C603 1.428 . S
H598 C594 0.930 . S
H599 C596 0.929 . S
S600 N601 1.613 . S
S600 N602 1.610 1_455 S
N601 S600 1.613 . S
N601 C604 1.350 . S
N602 S600 1.610 1_655 S
N602 C603 1.351 . S
C603 C597 1.428 . S
C603 N602 1.351 . S
C603 C604 1.434 1_655 S
C604 C595 1.429 . S
C604 N601 1.350 . S
C604 C603 1.434 1_455 S
C605 C606 1.369 . S
C605 C607 1.419 1_565 S
C605 H609 0.930 . S
C606 C605 1.369 . S
C606 C615 1.429 . S
C607 C605 1.419 1_545 S
C607 C608 1.363 . S
C607 H610 0.929 . S
C608 C607 1.363 . S
C608 C614 1.428 . S
H609 C605 0.930 . S
H610 C607 0.929 . S
S611 N612 1.613 1_545 S
S611 N613 1.610 . S
N612 S611 1.613 1_565 S
N612 C615 1.350 . S
N613 S611 1.610 . S
N613 C614 1.351 . S
C614 C608 1.428 . S
C614 N613 1.351 . S
C614 C615 1.434 1_545 S
C615 C606 1.429 . S
C615 N612 1.350 . S
C615 C614 1.434 1_565 S
C616 C617 1.369 . S
C616 C618 1.419 . S
C616 H620 0.930 . S
C617 C616 1.369 . S
C617 C626 1.429 . S
C618 C616 1.419 . S
C618 C619 1.363 . S
C618 H621 0.929 . S
C619 C618 1.363 . S
C619 C625 1.428 . S
H620 C616 0.930 . S
H621 C618 0.929 . S
S622 N623 1.613 . S
S622 N624 1.610 . S
N623 S622 1.613 . S
N623 C626 1.350 . S
N624 S622 1.610 . S
N624 C625 1.351 . S
C625 C619 1.428 . S
C625 N624 1.351 . S
C625 C626 1.434 . S
C626 C617 1.429 . S
C626 N623 1.350 . S
C626 C625 1.434 . S
C627 C628 1.369 . S
C627 C629 1.419 1_655 S
C627 H631 0.930 . S
C628 C627 1.369 . S
C628 C637 1.429 . S
C629 C627 1.419 1_455 S
C629 C630 1.363 . S
C629 H632 0.929 . S
C630 C629 1.363 . S
C630 C636 1.428 . S
H631 C627 0.930 . S
H632 C629 0.929 . S
S633 N634 1.613 1_455 S
S633 N635 1.610 . S
N634 S633 1.613 1_655 S
N634 C637 1.350 . S
N635 S633 1.610 . S
N635 C636 1.351 . S
C636 C630 1.428 . S
C636 N635 1.351 . S
C636 C637 1.434 1_455 S
C637 C628 1.429 . S
C637 N634 1.350 . S
C637 C636 1.434 1_655 S
C638 C639 1.369 . S
C638 C640 1.419 1_565 S
C638 H642 0.930 . S
C639 C638 1.369 . S
C639 C648 1.429 . S
C640 C638 1.419 1_545 S
C640 C641 1.363 . S
C640 H643 0.929 . S
C641 C640 1.363 . S
C641 C647 1.428 . S
H642 C638 0.930 . S
H643 C640 0.929 . S
S644 N645 1.613 . S
S644 N646 1.610 1_565 S
N645 S644 1.613 . S
N645 C648 1.350 . S
N646 S644 1.610 1_545 S
N646 C647 1.351 . S
C647 C641 1.428 . S
C647 N646 1.351 . S
C647 C648 1.434 1_545 S
C648 C639 1.429 . S
C648 N645 1.350 . S
C648 C647 1.434 1_565 S
C649 C650 1.369 . S
C649 C651 1.419 . S
C649 H653 0.930 . S
C650 C649 1.369 . S
C650 C659 1.429 . S
C651 C649 1.419 . S
C651 C652 1.363 . S
C651 H654 0.929 . S
C652 C651 1.363 . S
C652 C658 1.428 . S
H653 C649 0.930 . S
H654 C651 0.929 . S
S655 N656 1.613 . S
S655 N657 1.610 . S
N656 S655 1.613 . S
N656 C659 1.350 . S
N657 S655 1.610 . S
N657 C658 1.351 . S
C658 C652 1.428 . S
C658 N657 1.351 . S
C658 C659 1.434 . S
C659 C650 1.429 . S
C659 N656 1.350 . S
C659 C658 1.434 . S
C660 C661 1.369 . S
C660 C662 1.419 . S
C660 H664 0.930 . S
C661 C660 1.369 . S
C661 C670 1.429 . S
C662 C660 1.419 . S
C662 C663 1.363 . S
C662 H665 0.929 . S
C663 C662 1.363 . S
C663 C669 1.428 . S
H664 C660 0.930 . S
H665 C662 0.929 . S
S666 N667 1.613 . S
S666 N668 1.610 . S
N667 S666 1.613 . S
N667 C670 1.350 . S
N668 S666 1.610 . S
N668 C669 1.351 . S
C669 C663 1.428 . S
C669 N668 1.351 . S
C669 C670 1.434 . S
C670 C661 1.429 . S
C670 N667 1.350 . S
C670 C669 1.434 . S
C671 C672 1.369 . S
C671 C673 1.419 . S
C671 H675 0.930 . S
C672 C671 1.369 . S
C672 C681 1.429 . S
C673 C671 1.419 . S
C673 C674 1.363 . S
C673 H676 0.929 . S
C674 C673 1.363 . S
C674 C680 1.428 . S
H675 C671 0.930 . S
H676 C673 0.929 . S
S677 N678 1.613 . S
S677 N679 1.610 . S
N678 S677 1.613 . S
N678 C681 1.350 . S
N679 S677 1.610 . S
N679 C680 1.351 . S
C680 C674 1.428 . S
C680 N679 1.351 . S
C680 C681 1.434 . S
C681 C672 1.429 . S
C681 N678 1.350 . S
C681 C680 1.434 . S
C682 C683 1.369 . S
C682 C684 1.419 . S
C682 H686 0.930 . S
C683 C682 1.369 . S
C683 C692 1.429 . S
C684 C682 1.419 . S
C684 C685 1.363 . S
C684 H687 0.929 . S
C685 C684 1.363 . S
C685 C691 1.428 . S
H686 C682 0.930 . S
H687 C684 0.929 . S
S688 N689 1.613 . S
S688 N690 1.610 . S
N689 S688 1.613 . S
N689 C692 1.350 . S
N690 S688 1.610 . S
N690 C691 1.351 . S
C691 C685 1.428 . S
C691 N690 1.351 . S
C691 C692 1.434 . S
C692 C683 1.429 . S
C692 N689 1.350 . S
C692 C691 1.434 . S
C693 C694 1.369 . S
C693 C695 1.419 . S
C693 H697 0.930 . S
C694 C693 1.369 . S
C694 C703 1.429 . S
C695 C693 1.419 . S
C695 C696 1.363 . S
C695 H698 0.929 . S
C696 C695 1.363 . S
C696 C702 1.428 . S
H697 C693 0.930 . S
H698 C695 0.929 . S
S699 N700 1.613 . S
S699 N701 1.610 . S
N700 S699 1.613 . S
N700 C703 1.350 . S
N701 S699 1.610 . S
N701 C702 1.351 . S
C702 C696 1.428 . S
C702 N701 1.351 . S
C702 C703 1.434 . S
C703 C694 1.429 . S
C703 N700 1.350 . S
C703 C702 1.434 . S
C704 C705 1.369 . S
C704 C706 1.419 . S
C704 H708 0.930 . S
C705 C704 1.369 . S
C705 C714 1.429 . S
C706 C704 1.419 . S
C706 C707 1.363 . S
C706 H709 0.929 . S
C707 C706 1.363 . S
C707 C713 1.428 . S
H708 C704 0.930 . S
H709 C706 0.929 . S
S710 N711 1.613 . S
S710 N712 1.610 . S
N711 S710 1.613 . S
N711 C714 1.350 . S
N712 S710 1.610 . S
N712 C713 1.351 . S
C713 C707 1.428 . S
C713 N712 1.351 . S
C713 C714 1.434 . S
C714 C705 1.429 . S
C714 N711 1.350 . S
C714 C713 1.434 . S
C715 C716 1.369 . S
C715 C717 1.419 . S
C715 H719 0.930 . S
C716 C715 1.369 . S
C716 C725 1.429 . S
C717 C715 1.419 . S
C717 C718 1.363 . S
C717 H720 0.929 . S
C718 C717 1.363 . S
C718 C724 1.428 . S
H719 C715 0.930 . S
H720 C717 0.929 . S
S721 N722 1.613 . S
S721 N723 1.610 . S
N722 S721 1.613 . S
N722 C725 1.350 . S
N723 S721 1.610 . S
N723 C724 1.351 . S
C724 C718 1.428 . S
C724 N723 1.351 . S
C724 C725 1.434 . S
C725 C716 1.429 . S
C725 N722 1.350 . S
C725 C724 1.434 . S
C397 N311 1.527 . S
C399 N14 1.523 . S
C408 N47 1.526 . S
C410 N344 1.524 . S
C419 N80 1.527 . S
C421 N377 1.523 . S
C430 N113 1.529 . S
C432 N212 1.524 . S
C441 N146 1.523 . S
C443 N245 1.528 . S
C452 N179 1.526 . S
C454 N278 1.523 . S
C463 N335 1.404 . S
C465 N5 1.405 . S
C474 N368 1.400 . S
C476 N38 1.402 . S
C485 N71 1.406 . S
C487 N203 1.406 . S
C496 N236 1.405 . S
C498 N104 1.406 . S
C507 N137 1.404 . S
C509 N269 1.403 . S
C518 N170 1.401 . S
C520 N302 1.401 . S
C529 C116 1.867 . S
C531 C17 1.875 . S
C540 C50 1.874 . S
C542 C149 1.871 . S
C551 C182 1.874 . S
C553 C83 1.869 . S
C562 C314 1.873 . S
C564 C215 1.871 . S
C573 C248 1.872 . S
C575 C347 1.870 . S
C584 C380 1.868 . S
C586 C281 1.875 . S
C595 C28 1.350 . S
C597 C391 1.350 . S
C606 C226 1.345 . S
C608 C61 1.345 . S
C617 C94 1.351 . S
C619 C259 1.350 . S
C628 C127 1.344 . S
C630 C292 1.344 . S
C639 C160 1.349 . S
C641 C325 1.349 . S
C650 C358 1.349 . S
C652 C193 1.349 . S
C661 C8 0.921 . S
C663 C272 0.921 . S
C672 C305 0.921 . S
C674 C41 0.920 . S
C683 C74 0.921 . S
C685 C338 0.920 . S
C694 C371 0.920 . S
C696 C107 0.920 . S
C705 C206 0.921 . S
C707 C140 0.921 . S
C716 C173 0.921 . S
C718 C239 0.920 . S
