# Generated by pormake.
# Topology wme, (6)-cn, num edge types: 1
# Building blocks:
#     Node 0, Type 0, BuildingBlock: HISSIN_clean_sbu_0, # of connection points: 6
#     Node 1, Type 0, BuildingBlock: HISSIN_clean_sbu_0, # of connection points: 6
#     Node 2, Type 0, BuildingBlock: HISSIN_clean_sbu_0, # of connection points: 6
#     Node 3, Type 0, BuildingBlock: HISSIN_clean_sbu_0, # of connection points: 6
#     Node 4, Type 0, BuildingBlock: HISSIN_clean_sbu_0, # of connection points: 6
#     Node 5, Type 0, BuildingBlock: HISSIN_clean_sbu_0, # of connection points: 6
#     Node 6, Type 0, BuildingBlock: HISSIN_clean_sbu_0, # of connection points: 6
#     Node 7, Type 0, BuildingBlock: HISSIN_clean_sbu_0, # of connection points: 6
#     Node 8, Type 0, BuildingBlock: HISSIN_clean_sbu_0, # of connection points: 6
#     Node 9, Type 0, BuildingBlock: HISSIN_clean_sbu_0, # of connection points: 6
#     Node 10, Type 0, BuildingBlock: HISSIN_clean_sbu_0, # of connection points: 6
#     Node 11, Type 0, BuildingBlock: HISSIN_clean_sbu_0, # of connection points: 6
#     Edge 12, Type (0, 0), BuildingBlock: ZUJKAS_clean_linker_0, # of connection points: 2
#     Edge 13, Type (0, 0), BuildingBlock: ZUJKAS_clean_linker_0, # of connection points: 2
#     Edge 14, Type (0, 0), BuildingBlock: ZUJKAS_clean_linker_0, # of connection points: 2
#     Edge 15, Type (0, 0), BuildingBlock: ZUJKAS_clean_linker_0, # of connection points: 2
#     Edge 16, Type (0, 0), BuildingBlock: ZUJKAS_clean_linker_0, # of connection points: 2
#     Edge 17, Type (0, 0), BuildingBlock: ZUJKAS_clean_linker_0, # of connection points: 2
#     Edge 18, Type (0, 0), BuildingBlock: ZUJKAS_clean_linker_0, # of connection points: 2
#     Edge 19, Type (0, 0), BuildingBlock: ZUJKAS_clean_linker_0, # of connection points: 2
#     Edge 20, Type (0, 0), BuildingBlock: ZUJKAS_clean_linker_0, # of connection points: 2
#     Edge 21, Type (0, 0), BuildingBlock: ZUJKAS_clean_linker_0, # of connection points: 2
#     Edge 22, Type (0, 0), BuildingBlock: ZUJKAS_clean_linker_0, # of connection points: 2
#     Edge 23, Type (0, 0), BuildingBlock: ZUJKAS_clean_linker_0, # of connection points: 2
#     Edge 24, Type (0, 0), BuildingBlock: ZUJKAS_clean_linker_0, # of connection points: 2
#     Edge 25, Type (0, 0), BuildingBlock: ZUJKAS_clean_linker_0, # of connection points: 2
#     Edge 26, Type (0, 0), BuildingBlock: ZUJKAS_clean_linker_0, # of connection points: 2
#     Edge 27, Type (0, 0), BuildingBlock: ZUJKAS_clean_linker_0, # of connection points: 2
#     Edge 28, Type (0, 0), BuildingBlock: ZUJKAS_clean_linker_0, # of connection points: 2
#     Edge 29, Type (0, 0), BuildingBlock: ZUJKAS_clean_linker_0, # of connection points: 2
#     Edge 30, Type (0, 0), BuildingBlock: ZUJKAS_clean_linker_0, # of connection points: 2
#     Edge 31, Type (0, 0), BuildingBlock: ZUJKAS_clean_linker_0, # of connection points: 2
#     Edge 32, Type (0, 0), BuildingBlock: ZUJKAS_clean_linker_0, # of connection points: 2
#     Edge 33, Type (0, 0), BuildingBlock: ZUJKAS_clean_linker_0, # of connection points: 2
#     Edge 34, Type (0, 0), BuildingBlock: ZUJKAS_clean_linker_0, # of connection points: 2
#     Edge 35, Type (0, 0), BuildingBlock: ZUJKAS_clean_linker_0, # of connection points: 2
#     Edge 36, Type (0, 0), BuildingBlock: ZUJKAS_clean_linker_0, # of connection points: 2
#     Edge 37, Type (0, 0), BuildingBlock: ZUJKAS_clean_linker_0, # of connection points: 2
#     Edge 38, Type (0, 0), BuildingBlock: ZUJKAS_clean_linker_0, # of connection points: 2
#     Edge 39, Type (0, 0), BuildingBlock: ZUJKAS_clean_linker_0, # of connection points: 2
#     Edge 40, Type (0, 0), BuildingBlock: ZUJKAS_clean_linker_0, # of connection points: 2
#     Edge 41, Type (0, 0), BuildingBlock: ZUJKAS_clean_linker_0, # of connection points: 2
#     Edge 42, Type (0, 0), BuildingBlock: ZUJKAS_clean_linker_0, # of connection points: 2
#     Edge 43, Type (0, 0), BuildingBlock: ZUJKAS_clean_linker_0, # of connection points: 2
#     Edge 44, Type (0, 0), BuildingBlock: ZUJKAS_clean_linker_0, # of connection points: 2
#     Edge 45, Type (0, 0), BuildingBlock: ZUJKAS_clean_linker_0, # of connection points: 2
#     Edge 46, Type (0, 0), BuildingBlock: ZUJKAS_clean_linker_0, # of connection points: 2
#     Edge 47, Type (0, 0), BuildingBlock: ZUJKAS_clean_linker_0, # of connection points: 2
# Relax obj value: 0.081
# Max RMSD: 0.176
# Mean RMSD: 0.176
data_MOF--net-wme--node1-HISSIN_clean_sbu_0--edge1-ZUJKAS_clean_linker_0
_symmetry_space_group_name_H-M    P1
_symmetry_Int_Tables_number       1
_symmetry_cell_setting            triclinic
loop_
_symmetry_equiv_pos_as_xyz
'x, y, z'
_cell_length_a     49.48413
_cell_length_b     49.465015
_cell_length_c     70.461303
_cell_angle_alpha  90.074848
_cell_angle_beta   90.049884
_cell_angle_gamma 119.95047
loop_
_atom_site_label
_atom_site_type_symbol
_atom_site_fract_x
_atom_site_fract_y
_atom_site_fract_z
_atom_type_partial_charge
Eu0 Eu 0.20269 0.36118 0.10834 0.0
Eu1 Eu 0.23684 0.32121 0.12172 0.0
C2 C 0.21279 0.35215 0.15272 0.0
C3 C 0.17431 0.42079 0.10009 0.0
C4 C 0.17986 0.43432 0.11825 0.0
C5 C 0.16189 0.45975 0.08872 0.0
C6 C 0.17608 0.46021 0.12165 0.0
C7 C 0.16565 0.43394 0.08535 0.0
C8 C 0.16663 0.47303 0.10697 0.0
C9 C 0.1756 0.39204 0.09634 0.0
O10 O 0.1875 0.28574 0.11262 0.0
O11 O 0.16408 0.31479 0.11811 0.0
C12 C 0.16236 0.2877 0.11585 0.0
O13 O 0.20807 0.33525 0.08304 0.0
O14 O 0.25314 0.29859 0.14174 0.0
O15 O 0.25708 0.29364 0.11151 0.0
O16 O 0.25458 0.34383 0.09363 0.0
C17 C 0.23505 0.33709 0.07964 0.0
O18 O 0.25338 0.39743 0.11173 0.0
O19 O 0.27494 0.37125 0.1271 0.0
O20 O 0.21592 0.32808 0.14818 0.0
O21 O 0.20116 0.39509 0.08897 0.0
O22 O 0.16402 0.37041 0.10931 0.0
O23 O 0.21169 0.37089 0.13984 0.0
C24 C 0.24684 0.25054 0.13034 0.0
C25 C 0.26675 0.23819 0.12856 0.0
C26 C 0.20255 0.19778 0.13243 0.0
C27 C 0.25472 0.20589 0.12857 0.0
C28 C 0.21465 0.23015 0.13237 0.0
C29 C 0.22242 0.18518 0.13035 0.0
C30 C 0.25967 0.28444 0.12838 0.0
C31 C 0.27673 0.39714 0.12055 0.0
H32 H 0.18653 0.42453 0.12987 0.0
H33 H 0.15523 0.4693 0.07698 0.0
H34 H 0.17977 0.46966 0.1359 0.0
H35 H 0.16132 0.42391 0.07123 0.0
H36 H 0.2916 0.25354 0.1267 0.0
H37 H 0.17763 0.18264 0.13403 0.0
H38 H 0.27071 0.19717 0.12658 0.0
H39 H 0.19884 0.23926 0.13358 0.0
Eu40 Eu 0.85881 0.20143 0.61069 0.0
Eu41 Eu 0.93015 0.23055 0.62763 0.0
C42 C 0.87399 0.21493 0.65572 0.0
C43 C 0.77191 0.17653 0.60197 0.0
C44 C 0.7594 0.17008 0.62041 0.0
C45 C 0.72542 0.17665 0.59082 0.0
C46 C 0.72994 0.16659 0.62395 0.0
C47 C 0.75474 0.17998 0.58728 0.0
C48 C 0.71249 0.16968 0.60917 0.0
C49 C 0.80197 0.17835 0.59745 0.0
O50 O 0.90531 0.17833 0.63276 0.0
O51 O 0.87067 0.16319 0.6081 0.0
C52 C 0.88573 0.15671 0.62101 0.0
O53 O 0.89314 0.22273 0.58612 0.0
O54 O 0.96324 0.23323 0.64911 0.0
O55 O 0.98022 0.26058 0.6234 0.0
O56 O 0.92942 0.21243 0.5985 0.0
C57 C 0.91782 0.21955 0.58397 0.0
O58 O 0.87172 0.24896 0.62152 0.0
O59 O 0.9248 0.27199 0.61848 0.0
O60 O 0.90312 0.23499 0.65161 0.0
O61 O 0.82509 0.20551 0.59249 0.0
O62 O 0.81096 0.16301 0.60836 0.0
O63 O 0.85438 0.19585 0.64281 0.0
C64 C 1.00995 0.23968 0.63612 0.0
C65 C 1.00255 0.21382 0.62449 0.0
C66 C 0.06024 0.24438 0.643 0.0
C67 C 0.0239 0.20334 0.6221 0.0
C68 C 0.03887 0.25484 0.64538 0.0
C69 C 0.05309 0.21853 0.6313 0.0
C70 C 0.98758 0.25081 0.63869 0.0
C71 C 0.89927 0.27403 0.62005 0.0
H72 H 0.77223 0.16742 0.63203 0.0
H73 H 0.71254 0.17879 0.57905 0.0
H74 H 0.72086 0.16159 0.63828 0.0
H75 H 0.76383 0.18478 0.57294 0.0
H76 H 0.98028 0.20181 0.61722 0.0
H77 H 0.08226 0.25637 0.65053 0.0
H78 H 1.01772 0.18362 0.61282 0.0
H79 H 0.04491 0.27474 0.65448 0.0
Eu80 Eu 0.66746 0.84623 0.11082 0.0
Eu81 Eu 0.70746 0.92007 0.12437 0.0
C82 C 0.6769 0.86505 0.15502 0.0
C83 C 0.60869 0.7579 0.10299 0.0
C84 C 0.58325 0.75597 0.11298 0.0
C85 C 0.58111 0.70132 0.10023 0.0
C86 C 0.5568 0.72679 0.11651 0.0
C87 C 0.60739 0.7304 0.09668 0.0
C88 C 0.55544 0.69906 0.11021 0.0
C89 C 0.63706 0.78804 0.09915 0.0
O90 O 0.74278 0.90664 0.11443 0.0
O91 O 0.71416 0.85444 0.12049 0.0
C92 C 0.7411 0.87972 0.11779 0.0
O93 O 0.69296 0.87717 0.08546 0.0
O94 O 0.73094 0.95852 0.14468 0.0
O95 O 0.73404 0.96817 0.11458 0.0
O96 O 0.68512 0.91566 0.09614 0.0
C97 C 0.6911 0.9023 0.0821 0.0
O98 O 0.63166 0.86147 0.11317 0.0
O99 O 0.65739 0.90765 0.13017 0.0
O100 O 0.70178 0.89148 0.15035 0.0
O101 O 0.63357 0.81029 0.09177 0.0
O102 O 0.65867 0.79839 0.11216 0.0
O103 O 0.65713 0.84626 0.14211 0.0
C104 C 0.77815 1.00092 0.13284 0.0
C105 C 0.79025 0.03281 0.12949 0.0
C106 C 0.83114 1.0101 0.13572 0.0
C107 C 0.82249 0.05322 0.12914 0.0
C108 C 0.79881 0.98965 0.13597 0.0
C109 C 0.84347 0.04219 0.13218 0.0
C110 C 0.74419 0.97956 0.13144 0.0
C111 C 0.63172 0.88448 0.12268 0.0
H112 H 0.58388 0.77695 0.11809 0.0
H113 H 0.58076 0.68061 0.09489 0.0
H114 H 0.53759 0.72593 0.12438 0.0
H115 H 0.62678 0.7314 0.08894 0.0
H116 H 0.77471 0.04188 0.12673 0.0
H117 H 0.84645 1.00073 0.13832 0.0
H118 H 0.83094 0.07756 0.12598 0.0
H119 H 0.78994 0.965 0.13835 0.0
Eu120 Eu 0.83556 0.66179 0.6082 0.0
Eu121 Eu 0.80511 0.7024 0.62631 0.0
C122 C 0.82163 0.66123 0.65334 0.0
C123 C 0.86379 0.60261 0.59714 0.0
C124 C 0.85257 0.58467 0.61371 0.0
C125 C 0.8838 0.56911 0.58655 0.0
C126 C 0.85701 0.55907 0.61668 0.0
C127 C 0.87931 0.59457 0.5836 0.0
C128 C 0.87286 0.55105 0.60316 0.0
C129 C 0.86034 0.63019 0.59372 0.0
O130 O 0.85719 0.7301 0.63174 0.0
O131 O 0.87306 0.71231 0.60656 0.0
C132 C 0.8791 0.73303 0.61997 0.0
O133 O 0.81359 0.67525 0.58412 0.0
O134 O 0.80223 0.73191 0.64845 0.0
O135 O 0.77374 0.72114 0.62311 0.0
O136 O 0.82263 0.72097 0.59731 0.0
C137 C 0.81575 0.70279 0.58251 0.0
O138 O 0.78816 0.62602 0.6185 0.0
O139 O 0.76433 0.6556 0.61668 0.0
O140 O 0.80109 0.66984 0.6495 0.0
O141 O 0.83262 0.62524 0.5893 0.0
O142 O 0.87487 0.65364 0.60538 0.0
O143 O 0.84105 0.66171 0.64033 0.0
C144 C 0.79301 0.77141 0.63675 0.0
C145 C 0.80536 0.78782 0.61975 0.0
C146 C 0.79885 0.81882 0.65111 0.0
C147 C 0.81411 0.8194 0.6184 0.0
C148 C 0.7899 0.78719 0.6524 0.0
C149 C 0.81098 0.83531 0.63407 0.0
C150 C 0.78371 0.73809 0.63851 0.0
C151 C 0.76283 0.6282 0.61756 0.0
H152 H 0.8406 0.59059 0.62437 0.0
H153 H 0.89558 0.56339 0.57567 0.0
H154 H 0.84848 0.54589 0.6297 0.0
H155 H 0.88809 0.60808 0.5707 0.0
H156 H 0.80833 0.77628 0.60751 0.0
H157 H 0.79583 0.83025 0.66338 0.0
H158 H 0.82371 0.83148 0.60515 0.0
H159 H 0.7805 0.77501 0.66566 0.0
Eu160 Eu 0.18205 0.82519 0.11025 0.0
Eu161 Eu 0.10831 0.79211 0.12378 0.0
C162 C 0.16341 0.81698 0.15443 0.0
C163 C 0.26975 0.85165 0.10373 0.0
C164 C 0.28299 0.85922 0.12201 0.0
C165 C 0.31496 0.84873 0.09285 0.0
C166 C 0.31211 0.86194 0.12559 0.0
C167 C 0.28595 0.84622 0.08926 0.0
C168 C 0.32859 0.85697 0.11102 0.0
C169 C 0.24032 0.85132 0.09916 0.0
O170 O 0.12203 0.84109 0.1141 0.0
O171 O 0.17454 0.86436 0.11938 0.0
C172 C 0.1493 0.86624 0.11687 0.0
O173 O 0.15135 0.82093 0.08491 0.0
O174 O 0.06996 0.77655 0.14412 0.0
O175 O 0.0603 0.77169 0.11397 0.0
O176 O 0.11251 0.77473 0.0953 0.0
C177 C 0.12575 0.7944 0.08144 0.0
O178 O 0.16608 0.77397 0.11232 0.0
O179 O 0.12015 0.75394 0.12937 0.0
O180 O 0.13708 0.81559 0.14964 0.0
O181 O 0.21781 0.82614 0.09138 0.0
O182 O 0.22999 0.86355 0.11158 0.0
O183 O 0.18192 0.81532 0.14163 0.0
C184 C 0.02794 0.78255 0.13288 0.0
C185 C 0.99573 0.76271 0.13091 0.0
C186 C 0.01951 0.82691 0.13513 0.0
C187 C 0.97551 0.77481 0.13089 0.0
C188 C 0.03974 0.81474 0.13507 0.0
C189 C 0.9871 0.80711 0.13288 0.0
C190 C 0.04895 0.76964 0.13091 0.0
C191 C 0.14308 0.75117 0.1218 0.0
H192 H 0.27109 0.86348 0.13352 0.0
H193 H 0.32712 0.84505 0.08125 0.0
H194 H 0.32172 0.86791 0.13979 0.0
H195 H 0.27642 0.84061 0.07502 0.0
H196 H 0.98623 0.73786 0.12891 0.0
H197 H 0.0293 0.85182 0.1369 0.0
H198 H 0.95085 0.75886 0.12877 0.0
H199 H 0.06463 0.83051 0.13641 0.0
Eu200 Eu 0.37296 0.17826 0.61054 0.0
Eu201 Eu 0.33328 0.10572 0.62677 0.0
C202 C 0.3688 0.16369 0.65522 0.0
C203 C 0.43223 0.26542 0.59897 0.0
C204 C 0.45166 0.27257 0.61493 0.0
C205 C 0.46612 0.31783 0.58695 0.0
C206 C 0.47807 0.30232 0.61694 0.0
C207 C 0.43986 0.28816 0.58494 0.0
C208 C 0.48541 0.3255 0.60307 0.0
C209 C 0.40293 0.23532 0.59709 0.0
O210 O 0.29743 0.11834 0.6167 0.0
O211 O 0.3269 0.17114 0.62072 0.0
C212 C 0.29968 0.14582 0.61873 0.0
O213 O 0.34398 0.14568 0.58648 0.0
O214 O 0.30848 0.0708 0.64886 0.0
O215 O 0.30942 0.05602 0.62015 0.0
O216 O 0.3502 0.10614 0.59733 0.0
C217 C 0.34347 0.1192 0.58345 0.0
O218 O 0.40741 0.16114 0.61121 0.0
O219 O 0.38377 0.11855 0.63124 0.0
O220 O 0.3429 0.13742 0.65179 0.0
O221 O 0.40436 0.21198 0.58951 0.0
O222 O 0.38377 0.22669 0.61142 0.0
O223 O 0.38713 0.18097 0.64138 0.0
C224 C 0.26376 0.02514 0.63771 0.0
C225 C 0.24242 0.03261 0.62956 0.0
C226 C 0.22079 0.97363 0.64554 0.0
C227 C 0.21049 1.01065 0.62927 0.0
C228 C 0.25271 0.99561 0.64579 0.0
C229 C 0.19926 0.98075 0.63714 0.0
C230 C 0.29758 0.04737 0.63704 0.0
C231 C 0.40836 0.13972 0.62183 0.0
H232 H 0.44609 0.25536 0.62598 0.0
H233 H 0.47129 0.33481 0.57582 0.0
H234 H 0.49223 0.30743 0.6296 0.0
H235 H 0.42517 0.28311 0.57252 0.0
H236 H 0.25051 0.0553 0.62322 0.0
H237 H 0.21311 0.95077 0.65151 0.0
H238 H 0.1946 0.01712 0.6229 0.0
H239 H 0.26884 0.98934 0.65204 0.0
Eu240 Eu 0.66648 0.82776 0.39916 0.0
Eu241 Eu 0.70765 0.79559 0.38483 0.0
C242 C 0.67661 0.82062 0.35478 0.0
C243 C 0.60547 0.85436 0.40611 0.0
C244 C 0.60076 0.86312 0.38796 0.0
C245 C 0.5569 0.85096 0.41648 0.0
C246 C 0.57458 0.86616 0.3842 0.0
C247 C 0.58316 0.84812 0.42027 0.0
C248 C 0.55243 0.86034 0.39845 0.0
C249 C 0.63419 0.85343 0.41092 0.0
O250 O 0.74217 0.84415 0.3956 0.0
O251 O 0.71286 0.86715 0.38991 0.0
C252 C 0.74002 0.86923 0.39259 0.0
O253 O 0.69182 0.82163 0.42446 0.0
O254 O 0.73191 0.78267 0.3638 0.0
O255 O 0.73469 0.77406 0.39362 0.0
O256 O 0.68577 0.77636 0.41296 0.0
C257 C 0.69101 0.79498 0.42731 0.0
O258 O 0.63127 0.77683 0.39561 0.0
O259 O 0.65794 0.75733 0.37871 0.0
O260 O 0.70167 0.81932 0.35936 0.0
O261 O 0.63089 0.8275 0.41786 0.0
O262 O 0.65745 0.86657 0.39907 0.0
O263 O 0.65657 0.81879 0.36771 0.0
C264 C 0.77938 0.78796 0.37535 0.0
C265 C 0.79961 0.81749 0.38311 0.0
C266 C 0.82409 0.7821 0.36781 0.0
C267 C 0.83183 0.82902 0.38352 0.0
C268 C 0.79186 0.77056 0.36747 0.0
C269 C 0.84449 0.81126 0.37615 0.0
C270 C 0.74529 0.77433 0.37666 0.0
C271 C 0.63194 0.75439 0.3859 0.0
H272 H 0.61746 0.86801 0.3767 0.0
H273 H 0.5405 0.8466 0.42784 0.0
H274 H 0.57166 0.87303 0.3701 0.0
H275 H 0.58634 0.84156 0.43441 0.0
H276 H 0.79041 0.83124 0.38934 0.0
H277 H 0.833 0.76801 0.36169 0.0
H278 H 0.84667 0.85138 0.39023 0.0
H279 H 0.77663 0.74774 0.3614 0.0
Eu280 Eu 0.85384 0.66 0.89767 0.0
Eu281 Eu 0.92736 0.70049 0.88383 0.0
C282 C 0.87193 0.67012 0.8535 0.0
C283 C 0.7663 0.59912 0.90581 0.0
C284 C 0.75721 0.58644 0.8875 0.0
C285 C 0.71664 0.55816 0.91801 0.0
C286 C 0.72784 0.56002 0.88445 0.0
C287 C 0.74589 0.58457 0.92103 0.0
C288 C 0.70705 0.54568 0.89966 0.0
C289 C 0.79583 0.62851 0.90928 0.0
O290 O 0.91429 0.73582 0.89446 0.0
O291 O 0.86171 0.7071 0.88929 0.0
C292 C 0.88706 0.73401 0.89209 0.0
O293 O 0.88479 0.68651 0.92294 0.0
O294 O 0.96437 0.7254 0.86283 0.0
O295 O 0.97613 0.72536 0.89239 0.0
O296 O 0.9241 0.67981 0.91245 0.0
C297 C 0.91063 0.68597 0.92633 0.0
O298 O 0.8701 0.62494 0.89577 0.0
O299 O 0.91501 0.65047 0.87778 0.0
O300 O 0.89791 0.69528 0.85839 0.0
O301 O 0.81861 0.62662 0.91732 0.0
O302 O 0.8056 0.64941 0.89587 0.0
O303 O 0.85359 0.64984 0.86627 0.0
C304 C 1.007 0.77166 0.87527 0.0
C305 C 1.00249 0.79106 0.88791 0.0
C306 C 0.05271 0.81733 0.86267 0.0
C307 C 0.02328 0.82323 0.88818 0.0
C308 C 0.03206 0.78507 0.86253 0.0
C309 C 0.04878 0.83671 0.87568 0.0
C310 C 0.98625 0.73749 0.87569 0.0
C311 C 0.89259 0.62494 0.88578 0.0
H312 H 0.7726 0.59722 0.87552 0.0
H313 H 0.70117 0.54805 0.93003 0.0
H314 H 0.72142 0.55083 0.87018 0.0
H315 H 0.75233 0.59407 0.93524 0.0
H316 H 0.98312 0.7813 0.89776 0.0
H317 H 0.07225 0.82701 0.85294 0.0
H318 H 1.01939 0.83759 0.89819 0.0
H319 H 0.03592 0.77053 0.85266 0.0
Eu320 Eu 0.2039 0.85033 0.39829 0.0
Eu321 Eu 0.23693 0.92371 0.38381 0.0
C322 C 0.21116 0.86757 0.35393 0.0
C323 C 0.17787 0.76284 0.40573 0.0
C324 C 0.17103 0.74936 0.3875 0.0
C325 C 0.18007 0.71766 0.41744 0.0
C326 C 0.16829 0.7201 0.38436 0.0
C327 C 0.18261 0.7468 0.4206 0.0
C328 C 0.17249 0.70374 0.39933 0.0
C329 C 0.17799 0.79232 0.40985 0.0
O330 O 0.18837 0.91085 0.39368 0.0
O331 O 0.16448 0.85787 0.38984 0.0
C332 C 0.16302 0.88346 0.3918 0.0
O333 O 0.20838 0.88162 0.4233 0.0
O334 O 0.25149 0.96113 0.36289 0.0
O335 O 0.25882 0.97228 0.39282 0.0
O336 O 0.25431 0.92055 0.41254 0.0
C337 C 0.23477 0.90752 0.4265 0.0
O338 O 0.25523 0.86672 0.3965 0.0
O339 O 0.27437 0.91101 0.37796 0.0
O340 O 0.21241 0.89393 0.35847 0.0
O341 O 0.20299 0.8151 0.41762 0.0
O342 O 0.16585 0.80223 0.39712 0.0
O343 O 0.21332 0.84961 0.3669 0.0
C344 C 0.24677 1.00396 0.37409 0.0
C345 C 0.21467 0.99229 0.3716 0.0
C346 C 0.25447 0.05629 0.377 0.0
C347 C 0.20252 1.01254 0.37186 0.0
C348 C 0.26655 0.03607 0.37667 0.0
C349 C 0.22225 0.04483 0.37472 0.0
C350 C 0.2596 0.98282 0.37579 0.0
C351 C 0.27757 0.88883 0.38626 0.0
H352 H 0.16732 0.76115 0.37571 0.0
H353 H 0.18314 0.7056 0.42934 0.0
H354 H 0.16283 0.71026 0.3702 0.0
H355 H 0.18765 0.75653 0.4348 0.0
H356 H 0.19894 0.96748 0.36978 0.0
H357 H 0.27035 0.08084 0.37961 0.0
H358 H 0.17767 1.00286 0.36987 0.0
H359 H 0.29132 0.04545 0.37892 0.0
Eu360 Eu 0.37107 0.19948 0.89712 0.0
Eu361 Eu 0.32876 0.22826 0.87751 0.0
C362 C 0.36848 0.20736 0.85214 0.0
C363 C 0.43276 0.17416 0.90871 0.0
C364 C 0.44995 0.18295 0.89175 0.0
C365 C 0.46829 0.15804 0.92141 0.0
C366 C 0.47603 0.17905 0.88961 0.0
C367 C 0.44239 0.16205 0.92355 0.0
C368 C 0.48526 0.16608 0.90433 0.0
C369 C 0.40349 0.17504 0.91089 0.0
O370 O 0.29355 0.18047 0.88821 0.0
O371 O 0.32492 0.15857 0.88832 0.0
C372 C 0.29716 0.15592 0.88844 0.0
O373 O 0.34205 0.20202 0.92147 0.0
O374 O 0.29579 0.22428 0.85555 0.0
O375 O 0.31347 0.26268 0.87547 0.0
O376 O 0.32729 0.23571 0.90861 0.0
C377 C 0.32967 0.2202 0.92296 0.0
O378 O 0.40052 0.25158 0.89911 0.0
O379 O 0.37946 0.26677 0.87509 0.0
O380 O 0.34106 0.20463 0.85482 0.0
O381 O 0.40518 0.20047 0.91752 0.0
O382 O 0.38302 0.16263 0.89729 0.0
O383 O 0.38714 0.21152 0.86653 0.0
C384 C 0.26099 0.24098 0.86522 0.0
C385 C 0.24625 0.2303 0.88285 0.0
C386 C 0.21301 0.236 0.85249 0.0
C387 C 0.21512 0.22262 0.8853 0.0
C388 C 0.24417 0.24385 0.8501 0.0
C389 C 0.19803 0.22515 0.87009 0.0
C390 C 0.29318 0.24751 0.86209 0.0
C391 C 0.40228 0.27264 0.88707 0.0
H392 H 0.44283 0.1922 0.88006 0.0
H393 H 0.47497 0.14853 0.93317 0.0
H394 H 0.48839 0.18532 0.87622 0.0
H395 H 0.42945 0.15507 0.93674 0.0
H396 H 0.25869 0.2275 0.89466 0.0
H397 H 0.20066 0.23856 0.84055 0.0
H398 H 0.20422 0.21401 0.89897 0.0
H399 H 0.25507 0.25189 0.83636 0.0
Eu400 Eu 0.18337 0.3643 0.39698 0.0
Eu401 Eu 0.10875 0.32437 0.38485 0.0
C402 C 0.1623 0.35417 0.35301 0.0
C403 C 0.27206 0.42257 0.40379 0.0
C404 C 0.27401 0.44817 0.39398 0.0
C405 C 0.32867 0.44951 0.40581 0.0
C406 C 0.30321 0.4744 0.39019 0.0
C407 C 0.29957 0.42345 0.40962 0.0
C408 C 0.33095 0.47537 0.39605 0.0
C409 C 0.24188 0.3945 0.408 0.0
O410 O 0.12262 0.28896 0.39406 0.0
O411 O 0.17459 0.31746 0.3873 0.0
C412 C 0.14944 0.29059 0.39039 0.0
O413 O 0.15341 0.3391 0.42273 0.0
O414 O 0.06902 0.30106 0.36542 0.0
O415 O 0.06135 0.29777 0.39576 0.0
O416 O 0.11502 0.34765 0.41294 0.0
C417 C 0.12874 0.34149 0.42666 0.0
O418 O 0.16856 0.40043 0.39468 0.0
O419 O 0.12091 0.37442 0.37924 0.0
O420 O 0.13541 0.33017 0.35801 0.0
O421 O 0.22003 0.39851 0.41552 0.0
O422 O 0.23097 0.37254 0.3952 0.0
O423 O 0.18252 0.37346 0.36557 0.0
C424 C 0.02733 0.25387 0.37773 0.0
C425 C 0.9954 0.24199 0.38076 0.0
C426 C 1.01786 0.20073 0.37513 0.0
C427 C 0.97482 0.20977 0.38108 0.0
C428 C 0.03847 0.23304 0.37489 0.0
C429 C 0.98573 0.18862 0.37835 0.0
C430 C 0.04884 0.2878 0.37911 0.0
C431 C 0.14485 0.40024 0.38601 0.0
H432 H 0.25302 0.44786 0.38924 0.0
H433 H 0.3494 0.44957 0.41081 0.0
H434 H 0.30409 0.49375 0.3825 0.0
H435 H 0.29855 0.40393 0.41721 0.0
H436 H 0.98642 0.25768 0.38328 0.0
H437 H 0.02713 0.18528 0.37277 0.0
H438 H 0.95043 0.20147 0.38397 0.0
H439 H 0.06313 0.24176 0.37273 0.0
Eu440 Eu 0.83201 0.1759 0.89981 0.0
Eu441 Eu 0.80351 0.10477 0.8824 0.0
C442 C 0.82001 0.16149 0.85453 0.0
C443 C 0.85826 0.26304 0.90915 0.0
C444 C 0.85383 0.27075 0.89068 0.0
C445 C 0.87186 0.31516 0.91968 0.0
C446 C 0.85863 0.30065 0.88671 0.0
C447 C 0.86704 0.28536 0.9236 0.0
C448 C 0.86804 0.32337 0.90115 0.0
C449 C 0.85517 0.23248 0.91363 0.0
O450 O 0.85571 0.12999 0.8774 0.0
O451 O 0.8704 0.16419 0.90229 0.0
C452 C 0.87718 0.14957 0.88924 0.0
O453 O 0.81017 0.14103 0.92408 0.0
O454 O 0.80142 0.0718 0.86099 0.0
O455 O 0.77355 0.05463 0.88649 0.0
O456 O 0.82134 0.10543 0.9116 0.0
C457 C 0.81357 0.11645 0.92613 0.0
O458 O 0.78487 0.16323 0.88842 0.0
O459 O 0.7618 0.11004 0.89103 0.0
O460 O 0.80003 0.13216 0.85828 0.0
O461 O 0.82735 0.20962 0.91769 0.0
O462 O 0.87074 0.22345 0.90298 0.0
O463 O 0.83828 0.18099 0.86777 0.0
C464 C 0.79479 0.02497 0.87401 0.0
C465 C 0.82016 0.03212 0.88601 0.0
C466 C 0.79047 0.97484 0.86697 0.0
C467 C 0.83059 1.01072 0.88851 0.0
C468 C 0.78008 0.99626 0.86448 0.0
C469 C 0.81583 0.98173 0.87905 0.0
C470 C 0.78369 0.04737 0.87131 0.0
C471 C 0.75979 0.13561 0.88948 0.0
H472 H 0.8471 0.25383 0.8793 0.0
H473 H 0.87848 0.33176 0.93122 0.0
H474 H 0.85564 0.30618 0.87227 0.0
H475 H 0.8705 0.27984 0.93796 0.0
H476 H 0.83183 0.05422 0.8935 0.0
H477 H 0.77883 0.953 0.85923 0.0
H478 H 0.84991 0.0167 0.89809 0.0
H479 H 0.76057 0.9904 0.85508 0.0
H480 H 0.10336 0.88193 0.11219 0.0
H481 H 0.10976 0.93454 0.11279 0.0
H482 H 0.20811 0.97386 0.1236 0.0
H483 H 0.20219 0.92208 0.12276 0.0
H484 H 0.13248 0.98001 0.14166 0.0
H485 H 0.20772 0.02418 0.07812 0.0
H486 H 0.18533 0.98313 0.08369 0.0
H487 H 0.2223 1.0076 0.0951 0.0
C488 C 0.12637 0.90182 0.11458 0.0
C489 C 0.15229 0.89769 0.11723 0.0
C490 C 0.12997 0.93186 0.11495 0.0
C491 C 0.15955 0.95822 0.11785 0.0
C492 C 0.18521 0.95401 0.12085 0.0
H493 H 0.24739 0.15134 0.14555 0.0
H494 H 0.22857 0.09553 0.14197 0.0
C495 C 0.18169 0.92422 0.12046 0.0
C496 C 0.16401 0.99029 0.1182 0.0
H497 H 0.20884 0.06299 0.09922 0.0
C498 C 0.14875 0.99804 0.13217 0.0
C499 C 0.18513 0.01384 0.10574 0.0
C500 C 0.20081 1.00672 0.08969 0.0
C501 C 0.15531 0.029 0.13459 0.0
C502 C 0.17763 0.05266 0.12279 0.0
C503 C 0.19194 0.04476 0.10836 0.0
C504 C 0.18766 0.08604 0.12576 0.0
C505 C 0.13929 0.03663 0.15015 0.0
C506 C 0.17077 0.0991 0.11786 0.0
C507 C 0.18164 0.13114 0.11968 0.0
C508 C 0.20965 0.15071 0.12944 0.0
C509 C 0.22605 0.1372 0.13767 0.0
C510 C 0.21523 0.10525 0.13577 0.0
H511 H 0.12252 0.0156 0.15821 0.0
H512 H 0.15699 0.05367 0.16014 0.0
H513 H 0.1266 0.04775 0.14394 0.0
H514 H 0.14953 0.08463 0.10996 0.0
H515 H 0.16857 0.14069 0.11294 0.0
H516 H 0.29713 0.19957 0.62046 0.0
H517 H 0.25123 0.20557 0.62094 0.0
H518 H 0.19175 0.10577 0.61742 0.0
H519 H 0.2379 0.09937 0.61705 0.0
H520 H 0.20318 0.18548 0.59324 0.0
H521 H 0.15777 0.13128 0.66382 0.0
H522 H 0.19721 0.14386 0.65639 0.0
H523 H 0.16536 0.10868 0.64686 0.0
C524 C 0.27436 0.17876 0.61983 0.0
C525 C 0.2713 0.14892 0.6188 0.0
C526 C 0.2481 0.1823 0.62007 0.0
C527 C 0.21806 0.15615 0.61941 0.0
C528 C 0.21473 0.12626 0.61823 0.0
H529 H 0.04188 0.15824 0.62957 0.0
H530 H 0.07985 0.14072 0.62513 0.0
C531 C 0.24113 0.12266 0.61793 0.0
C532 C 0.19059 0.16076 0.6198 0.0
H533 H 0.13018 0.15164 0.64775 0.0
C534 C 0.18706 0.17786 0.60509 0.0
C535 C 0.16948 0.15067 0.63521 0.0
C536 C 0.17257 0.13276 0.65158 0.0
C537 C 0.16339 0.18567 0.60552 0.0
C538 C 0.14307 0.17673 0.62131 0.0
C539 C 0.14586 0.15863 0.6357 0.0
C540 C 0.11985 0.18725 0.62359 0.0
C541 C 0.1604 0.20346 0.58904 0.0
C542 C 0.1297 0.21922 0.62441 0.0
C543 C 0.10808 0.22931 0.62682 0.0
C544 C 0.07606 0.20764 0.62863 0.0
C545 C 0.06627 0.17558 0.62795 0.0
C546 C 0.08797 0.16551 0.62554 0.0
H547 H 0.17071 0.19999 0.5759 0.0
H548 H 0.13561 0.19622 0.58622 0.0
H549 H 0.17313 0.22876 0.59241 0.0
H550 H 0.15423 0.23645 0.62332 0.0
H551 H 0.11648 0.25415 0.6271 0.0
H552 H 0.87647 0.10281 0.14479 0.0
H553 H 0.93216 0.13953 0.14162 0.0
H554 H 0.945 0.06793 0.11542 0.0
H555 H 0.88894 0.03139 0.1176 0.0
H556 H 0.98233 0.13891 0.15603 0.0
H557 H 0.98722 0.1374 0.07727 0.0
H558 H 0.95085 0.12025 0.09008 0.0
H559 H 0.97237 0.0999 0.08824 0.0
C560 C 0.89096 0.09487 0.13809 0.0
C561 C 0.87792 0.06409 0.13126 0.0
C562 C 0.92295 0.1159 0.13644 0.0
C563 C 0.94281 0.10676 0.12796 0.0
C564 C 0.93012 0.07583 0.12161 0.0
H565 H 0.14649 0.22626 0.10981 0.0
H566 H 0.0945 0.17967 0.11297 0.0
C567 C 0.89803 0.05478 0.12314 0.0
C568 C 0.97673 0.12978 0.12597 0.0
H569 H 0.03482 0.1684 0.09338 0.0
C570 C 0.99379 0.14517 0.14232 0.0
C571 C 0.99186 0.13797 0.10809 0.0
C572 C 0.97464 0.12326 0.08988 0.0
C573 C 0.02518 0.16885 0.14126 0.0
C574 C 0.03999 0.17758 0.12338 0.0
C575 C 0.02341 0.16152 0.10708 0.0
C576 C 0.07155 0.20535 0.12122 0.0
C577 C 0.04223 0.1848 0.15928 0.0
C578 C 0.07573 0.23513 0.12454 0.0
C579 C 0.10512 0.26162 0.12263 0.0
C580 C 0.1312 0.25905 0.11736 0.0
C581 C 0.12696 0.22912 0.11389 0.0
C582 C 0.0973 0.20249 0.11569 0.0
H583 H 0.03041 0.17066 0.17204 0.0
H584 H 0.06661 0.18942 0.15895 0.0
H585 H 0.04301 0.20754 0.16062 0.0
H586 H 0.05613 0.23789 0.1286 0.0
H587 H 0.10733 0.28418 0.12542 0.0
H588 H 0.84323 0.88196 0.66003 0.0
H589 H 0.85706 0.93687 0.65793 0.0
H590 H 0.81375 0.91972 0.60278 0.0
H591 H 0.79948 0.86474 0.60485 0.0
H592 H 0.89338 0.98224 0.6283 0.0
H593 H 0.77218 0.96053 0.6346 0.0
H594 H 0.783 0.9321 0.64162 0.0
H595 H 0.77812 0.93771 0.61696 0.0
C596 C 0.83646 0.88982 0.64751 0.0
C597 C 0.82009 0.86889 0.63265 0.0
C598 C 0.84455 0.92124 0.64628 0.0
C599 C 0.83615 0.9323 0.63029 0.0
C600 C 0.82016 0.9116 0.61534 0.0
H601 H 0.85058 0.10759 0.59729 0.0
H602 H 0.84039 0.05408 0.59965 0.0
C603 C 0.81224 0.88024 0.61649 0.0
C604 C 0.84405 0.96546 0.62924 0.0
H605 H 0.81145 1.01213 0.62762 0.0
C606 C 0.87552 0.98886 0.62823 0.0
C607 C 0.8207 0.97397 0.62912 0.0
C608 C 0.78658 0.94986 0.63078 0.0
C609 C 0.88424 0.02055 0.62663 0.0
C610 C 0.86086 0.02911 0.62653 0.0
C611 C 0.82939 1.00563 0.62768 0.0
C612 C 0.86832 0.06217 0.62491 0.0
C613 C 0.91835 0.04444 0.6245 0.0
C614 C 0.88739 0.08469 0.63837 0.0
C615 C 0.89346 0.1155 0.637 0.0
C616 C 0.88027 0.12435 0.62226 0.0
C617 C 0.86115 0.1017 0.60884 0.0
C618 C 0.85525 0.07101 0.61017 0.0
H619 H 0.9321 0.03362 0.61955 0.0
H620 H 0.92172 0.063 0.61433 0.0
H621 H 0.92783 0.05551 0.63848 0.0
H622 H 0.89718 0.07834 0.65014 0.0
H623 H 0.90812 0.13225 0.64765 0.0
H624 H 0.92816 0.78183 0.14778 0.0
H625 H 0.89143 0.8009 0.14469 0.0
H626 H 0.96032 0.88133 0.1141 0.0
H627 H 0.99677 0.86162 0.11628 0.0
H628 H 0.89398 0.85398 0.15705 0.0
H629 H 0.88683 0.84896 0.07828 0.0
H630 H 0.90511 0.83131 0.09162 0.0
H631 H 0.92546 0.87273 0.08763 0.0
C632 C 0.93547 0.80339 0.14018 0.0
C633 C 0.96542 0.81993 0.13209 0.0
C634 C 0.91447 0.81442 0.13857 0.0
C635 C 0.92284 0.84228 0.12886 0.0
C636 C 0.95302 0.85942 0.12128 0.0
H637 H 0.80196 0.925 0.11038 0.0
H638 H 0.8489 0.92002 0.11311 0.0
C639 C 0.97403 0.8483 0.12279 0.0
C640 C 0.89976 0.85309 0.1268 0.0
H641 H 0.85766 0.86798 0.0941 0.0
C642 C 0.88625 0.85724 0.14327 0.0
C643 C 0.88963 0.85744 0.10881 0.0
C644 C 0.90226 0.85214 0.09056 0.0
C645 C 0.86251 0.86491 0.14225 0.0
C646 C 0.85189 0.86845 0.12431 0.0
C647 C 0.86605 0.86543 0.10783 0.0
C648 C 0.82394 0.87199 0.12244 0.0
C649 C 0.84844 0.8686 0.16037 0.0
C650 C 0.79448 0.84656 0.12655 0.0
C651 C 0.76779 0.84919 0.12486 0.0
C652 C 0.76988 0.87741 0.11907 0.0
C653 C 0.7995 0.90294 0.11487 0.0
C654 C 0.82631 0.90016 0.11642 0.0
H655 H 0.86348 0.87188 0.17287 0.0
H656 H 0.84452 0.88879 0.15937 0.0
H657 H 0.82549 0.84732 0.1627 0.0
H658 H 0.79214 0.82455 0.13105 0.0
H659 H 0.74547 0.82902 0.12825 0.0
H660 H 0.93029 0.74601 0.5985 0.0
H661 H 0.98365 0.78907 0.60231 0.0
H662 H 0.95493 0.82392 0.6497 0.0
H663 H 0.90122 0.78101 0.64589 0.0
H664 H 0.99429 0.8708 0.62434 0.0
H665 H 0.04387 0.79607 0.64444 0.0
H666 H 0.02264 0.78498 0.62246 0.0
H667 H 1.00246 0.78194 0.64426 0.0
C668 C 0.93521 0.76279 0.60975 0.0
C669 C 0.91138 0.75985 0.62197 0.0
C670 C 0.96584 0.78735 0.61197 0.0
C671 C 0.97345 0.80944 0.6265 0.0
C672 C 0.94965 0.80703 0.63846 0.0
H673 H 0.16315 0.93883 0.66458 0.0
H674 H 0.10815 0.89846 0.66253 0.0
C675 C 0.91895 0.78244 0.63627 0.0
C676 C 1.00622 0.83505 0.62914 0.0
H677 H 0.08017 0.84922 0.63772 0.0
C678 C 1.01306 0.86612 0.62735 0.0
C679 C 0.03066 0.82896 0.63333 0.0
C680 C 0.0246 0.79621 0.63643 0.0
C681 C 0.04377 0.89118 0.62919 0.0
C682 C 0.06838 0.88502 0.63265 0.0
C683 C 0.06139 0.85398 0.63488 0.0
C684 C 0.10156 0.91034 0.63402 0.0
C685 C 0.04951 0.92405 0.62764 0.0
C686 C 0.11631 0.93039 0.61864 0.0
C687 C 0.14782 0.95345 0.61974 0.0
C688 C 0.16539 0.95686 0.63621 0.0
C689 C 0.15049 0.93671 0.6516 0.0
C690 C 0.11898 0.91369 0.65049 0.0
H691 H 0.02789 0.92507 0.63029 0.0
H692 H 0.06771 0.93984 0.63784 0.0
H693 H 0.05766 0.93289 0.61309 0.0
H694 H 0.10362 0.9278 0.6056 0.0
H695 H 0.15861 0.96811 0.60748 0.0
H696 H 0.1064 0.83019 0.3929 0.0
H697 H 0.05482 0.82491 0.39132 0.0
H698 H 0.09638 0.92491 0.38863 0.0
H699 H 0.14859 0.93058 0.39018 0.0
H700 H 0.02822 0.85159 0.41663 0.0
H701 H 0.03625 0.89088 0.34174 0.0
H702 H 0.06218 0.87844 0.35126 0.0
H703 H 0.06722 0.91577 0.35772 0.0
C704 C 0.10476 0.85119 0.39198 0.0
C705 C 0.13177 0.88085 0.39157 0.0
C706 C 0.07516 0.84807 0.39111 0.0
C707 C 0.07174 0.87445 0.38966 0.0
C708 C 0.09853 0.90421 0.3895 0.0
H709 H 0.89389 0.87104 0.37203 0.0
H710 H 0.94951 0.8892 0.3764 0.0
C711 C 0.12833 0.9074 0.39049 0.0
C712 C 0.03991 0.87025 0.38835 0.0
H713 H 0.98841 0.87345 0.35736 0.0
C714 C 0.01957 0.85665 0.40374 0.0
C715 C 0.02875 0.87701 0.37156 0.0
C716 C 0.04955 0.89118 0.35452 0.0
C717 C 0.98821 0.84903 0.40267 0.0
C718 C 0.97661 0.85442 0.38557 0.0
C719 C 0.99725 0.86914 0.37042 0.0
C720 C 0.94288 0.84353 0.38285 0.0
C721 C 0.96778 0.83522 0.41991 0.0
C722 C 0.92067 0.81176 0.38467 0.0
C723 C 0.88891 0.80134 0.38235 0.0
C724 C 0.87854 0.82242 0.37792 0.0
C725 C 0.90094 0.8542 0.37571 0.0
C726 C 0.93278 0.86462 0.37808 0.0
H727 H 0.98183 0.84176 0.43317 0.0
H728 H 0.95029 0.84295 0.42105 0.0
H729 H 0.9552 0.80939 0.41877 0.0
H730 H 0.92792 0.79492 0.38793 0.0
H731 H 0.87243 0.77678 0.38437 0.0
H732 H 0.07588 0.87219 0.90725 0.0
H733 H 0.11503 0.9276 0.90879 0.0
H734 H 0.11247 0.93365 0.8478 0.0
H735 H 0.07381 0.87792 0.84617 0.0
H736 H 0.17037 0.96151 0.85971 0.0
H737 H 0.10661 1.00354 0.90396 0.0
H738 H 0.10949 0.97276 0.91544 0.0
H739 H 0.08781 0.96499 0.89362 0.0
C740 C 0.08336 0.88544 0.89418 0.0
C741 C 0.07166 0.87072 0.87659 0.0
C742 C 0.10564 0.91719 0.89509 0.0
C743 C 0.11629 0.93509 0.87845 0.0
C744 C 0.10453 0.92043 0.86086 0.0
H745 H 0.23655 0.13902 0.87977 0.0
H746 H 0.19194 0.08599 0.87668 0.0
C747 C 0.0825 0.88857 0.85993 0.0
C748 C 0.14106 0.96856 0.87932 0.0
H749 H 0.16185 0.03808 0.90112 0.0
C750 C 0.16832 0.97828 0.86864 0.0
C751 C 0.13832 0.99072 0.89069 0.0
C752 C 0.10883 0.98256 0.90141 0.0
C753 C 0.19319 1.00914 0.86945 0.0
C754 C 0.19124 0.03078 0.88174 0.0
C755 C 0.16359 0.0214 0.89194 0.0
C756 C 0.21787 0.06303 0.88439 0.0
C757 C 0.22117 0.01825 0.85692 0.0
C758 C 0.24705 0.06783 0.89029 0.0
C759 C 0.27256 0.09799 0.89188 0.0
C760 C 0.26939 0.12415 0.88795 0.0
C761 C 0.23982 0.1194 0.88285 0.0
C762 C 0.21431 0.08909 0.88107 0.0
H763 H 0.21499 1.00268 0.84434 0.0
H764 H 0.23142 0.0427 0.85192 0.0
H765 H 0.2392 0.01612 0.86509 0.0
H766 H 0.25019 0.04818 0.89354 0.0
H767 H 0.29486 0.10077 0.89612 0.0
H768 H 0.10409 0.22944 0.39731 0.0
H769 H 0.11029 0.18308 0.39655 0.0
H770 H 0.20666 0.24079 0.38055 0.0
H771 H 0.20099 0.28677 0.38156 0.0
H772 H 0.12875 0.15752 0.36699 0.0
H773 H 0.2131 0.19449 0.42633 0.0
H774 H 0.18988 0.2126 0.42167 0.0
H775 H 0.22515 0.22411 0.4085 0.0
C776 C 0.12662 0.23222 0.39373 0.0
C777 C 0.15211 0.26196 0.38973 0.0
C778 C 0.13011 0.20571 0.39327 0.0
C779 C 0.15914 0.20856 0.3889 0.0
C780 C 0.18427 0.23808 0.38446 0.0
H781 H 0.24803 0.10461 0.36106 0.0
H782 H 0.22914 0.14141 0.36523 0.0
C783 C 0.18088 0.26441 0.38496 0.0
C784 C 0.16366 0.18099 0.3886 0.0
H785 H 0.21183 0.15542 0.40536 0.0
C786 C 0.14649 0.15673 0.37563 0.0
C787 C 0.18671 0.17985 0.39995 0.0
C788 C 0.20453 0.204 0.41503 0.0
C789 C 0.15302 0.13233 0.373 0.0
C790 C 0.17724 0.13226 0.3836 0.0
C791 C 0.19348 0.15575 0.39711 0.0
C792 C 0.1873 0.10899 0.38025 0.0
C793 C 0.13498 0.10742 0.35838 0.0
C794 C 0.16994 0.07851 0.38729 0.0
C795 C 0.18089 0.05743 0.38516 0.0
C796 C 0.20942 0.06647 0.37593 0.0
C797 C 0.22629 0.09692 0.36854 0.0
C798 C 0.21543 0.11796 0.37078 0.0
H799 H 0.11811 0.11179 0.35047 0.0
H800 H 0.15132 0.10611 0.34813 0.0
H801 H 0.12198 0.0844 0.36549 0.0
H802 H 0.14831 0.07126 0.39481 0.0
H803 H 0.16745 0.03439 0.39128 0.0
H804 H 0.17091 0.23837 0.89994 0.0
H805 H 0.11601 0.22381 0.9036 0.0
H806 H 0.09483 0.17758 0.84923 0.0
H807 H 0.14951 0.19165 0.84557 0.0
H808 H 0.07998 0.23934 0.87801 0.0
H809 H 0.02964 0.11131 0.88589 0.0
H810 H 0.0706 0.13873 0.88942 0.0
H811 H 0.05492 0.12859 0.86583 0.0
C812 C 0.15451 0.22482 0.88886 0.0
C813 C 0.16463 0.21616 0.87247 0.0
C814 C 0.12318 0.21665 0.89093 0.0
C815 C 0.10127 0.19931 0.87679 0.0
C816 C 0.11125 0.1906 0.86044 0.0
H817 H 0.90202 0.12821 0.86221 0.0
H818 H 0.9563 0.14049 0.85921 0.0
C819 C 0.14258 0.19893 0.85829 0.0
C820 C 0.06816 0.1912 0.87885 0.0
H821 H 0.99388 0.12971 0.88293 0.0
C822 C 0.06114 0.21539 0.87918 0.0
C823 C 0.04363 0.15992 0.88023 0.0
C824 C 0.04993 0.13307 0.88049 0.0
C825 C 0.03021 0.20917 0.88054 0.0
C826 C 1.00562 0.17788 0.88211 0.0
C827 C 1.01268 0.15367 0.88175 0.0
C828 C 0.97248 0.16985 0.88421 0.0
C829 C 0.02414 0.23617 0.87977 0.0
C830 C 0.9633 0.18169 0.89948 0.0
C831 C 0.93236 0.17487 0.90117 0.0
C832 C 0.90974 0.15571 0.88775 0.0
C833 C 0.9188 0.14313 0.87277 0.0
C834 C 0.94984 0.15011 0.87103 0.0
H835 H 0.04382 0.25704 0.87308 0.0
H836 H 1.00247 0.22988 0.87174 0.0
H837 H 0.02141 0.24266 0.89443 0.0
H838 H 0.98011 0.19627 0.91012 0.0
H839 H 0.92623 0.18474 0.91301 0.0
H840 H 0.92561 0.15585 0.36497 0.0
H841 H 0.88859 0.10017 0.368 0.0
H842 H 0.95885 0.08703 0.39576 0.0
H843 H 0.99568 0.14307 0.39366 0.0
H844 H 0.88992 0.04979 0.35409 0.0
H845 H 0.88752 0.04519 0.43291 0.0
H846 H 0.90521 0.08152 0.42002 0.0
H847 H 0.92552 0.06008 0.42265 0.0
C848 C 0.93318 0.14128 0.37197 0.0
C849 C 0.96366 0.15421 0.37925 0.0
C850 C 0.91199 0.10931 0.37354 0.0
C851 C 0.92067 0.08938 0.38241 0.0
C852 C 0.95132 0.10197 0.38925 0.0
H853 H 0.80112 0.88585 0.40046 0.0
H854 H 0.84752 0.93806 0.39787 0.0
C855 C 0.97253 0.13404 0.38777 0.0
C856 C 0.89751 0.05549 0.38429 0.0
H857 H 0.85733 0.9975 0.41668 0.0
C858 C 0.88297 0.03837 0.36779 0.0
C859 C 0.88843 0.04043 0.40216 0.0
C860 C 0.90224 0.05774 0.42048 0.0
C861 C 0.85929 1.00695 0.36868 0.0
C862 C 0.84968 0.9922 0.38654 0.0
C863 C 0.86487 1.00887 0.40301 0.0
C864 C 0.82198 0.96053 0.38842 0.0
C865 C 0.84435 0.98981 0.3505 0.0
C866 C 0.79231 0.95601 0.38426 0.0
C867 C 0.76591 0.92647 0.38582 0.0
C868 C 0.76848 0.90059 0.39157 0.0
C869 C 0.79828 0.90519 0.39593 0.0
C870 C 0.8248 0.935 0.39448 0.0
H871 H 0.85916 1.0016 0.33795 0.0
H872 H 0.83977 0.96544 0.35107 0.0
H873 H 0.82168 0.98895 0.34854 0.0
H874 H 0.78956 0.97546 0.37978 0.0
H875 H 0.74344 0.92397 0.38235 0.0
H876 H 0.83366 0.73715 0.89041 0.0
H877 H 0.82811 0.7833 0.89007 0.0
H878 H 0.92788 0.84213 0.89434 0.0
H879 H 0.93384 0.79567 0.89452 0.0
H880 H 0.84727 0.8308 0.91766 0.0
H881 H 0.90438 0.8774 0.84791 0.0
H882 H 0.89161 0.83786 0.85524 0.0
H883 H 0.92637 0.86965 0.86523 0.0
C884 C 0.85457 0.75983 0.89126 0.0
C885 C 0.88427 0.7626 0.89241 0.0
C886 C 0.85128 0.78625 0.8911 0.0
C887 C 0.87754 0.8162 0.89197 0.0
C888 C 0.9073 0.81924 0.89335 0.0
H889 H 0.87603 0.9929 0.88176 0.0
H890 H 0.89337 0.95482 0.88644 0.0
C891 C 0.91065 0.79266 0.89357 0.0
C892 C 0.87315 0.84384 0.89151 0.0
H893 H 0.88351 0.90483 0.86365 0.0
C894 C 0.85543 0.84715 0.90593 0.0
C895 C 0.88391 0.86526 0.87625 0.0
C896 C 0.90246 0.86244 0.86017 0.0
C897 C 0.84764 0.87084 0.90533 0.0
C898 C 0.85727 0.89146 0.88966 0.0
C899 C 0.876 0.88892 0.8756 0.0
C900 C 0.84683 0.91475 0.88718 0.0
C901 C 0.82911 0.87351 0.92148 0.0
C902 C 0.81492 0.90491 0.88582 0.0
C903 C 0.80492 0.92659 0.88326 0.0
C904 C 0.82662 0.95868 0.88186 0.0
C905 C 0.85863 0.96846 0.88306 0.0
C906 C 0.86862 0.9467 0.88561 0.0
H907 H 0.83195 0.86292 0.93469 0.0
H908 H 0.83623 0.89825 0.9244 0.0
H909 H 0.80399 0.86087 0.91768 0.0
H910 H 0.79766 0.88034 0.8866 0.0
H911 H 0.78011 0.91818 0.88257 0.0
H912 H 0.19029 0.74047 0.11215 0.0
H913 H 0.19005 0.6912 0.1117 0.0
H914 H 0.09633 0.64392 0.1337 0.0
H915 H 0.09631 0.69366 0.13433 0.0
H916 H 0.13826 0.6254 0.15071 0.0
H917 H 0.14013 0.62236 0.07208 0.0
H918 H 0.17024 0.65823 0.08213 0.0
H919 H 0.13003 0.64756 0.08505 0.0
C920 C 0.16951 0.71972 0.11696 0.0
C921 C 0.14312 0.72111 0.12307 0.0
C922 C 0.16945 0.69147 0.11664 0.0
C923 C 0.14299 0.66375 0.12231 0.0
C924 C 0.11695 0.66503 0.12913 0.0
H925 H 0.1199 0.48181 0.09285 0.0
H926 H 0.11207 0.52633 0.09769 0.0
C927 C 0.11697 0.69347 0.12948 0.0
C928 C 0.14272 0.63361 0.12059 0.0
H929 H 0.15151 0.58699 0.08828 0.0
C930 C 0.14087 0.61681 0.13706 0.0
C931 C 0.14578 0.6222 0.10275 0.0
C932 C 0.14637 0.63833 0.08446 0.0
C933 C 0.14304 0.58949 0.1362 0.0
C934 C 0.14757 0.57892 0.11843 0.0
C935 C 0.14838 0.5952 0.10193 0.0
C936 C 0.15159 0.5511 0.11648 0.0
C937 C 0.14026 0.57208 0.15432 0.0
C938 C 0.17654 0.55012 0.12536 0.0
C939 C 0.18123 0.52469 0.12253 0.0
C940 C 0.16122 0.49976 0.1106 0.0
C941 C 0.13611 0.50075 0.10188 0.0
C942 C 0.13144 0.52614 0.10473 0.0
H943 H 0.12833 0.5779 0.16561 0.0
H944 H 0.12722 0.54647 0.15192 0.0
H945 H 0.16395 0.5787 0.15951 0.0
H946 H 0.19287 0.5694 0.13414 0.0
H947 H 0.20103 0.52497 0.12928 0.0
H948 H 0.66559 0.12517 0.63123 0.0
H949 H 0.61245 0.11603 0.63527 0.0
H950 H 0.63431 0.19453 0.5991 0.0
H951 H 0.68734 0.20388 0.59503 0.0
H952 H 0.58962 0.15419 0.6491 0.0
H953 H 0.55723 0.12354 0.57363 0.0
H954 H 0.5916 0.12559 0.58395 0.0
H955 H 0.592 0.16064 0.57666 0.0
C956 C 0.65919 0.14069 0.62428 0.0
C957 C 0.6807 0.16508 0.61263 0.0
C958 C 0.62875 0.13534 0.62655 0.0
C959 C 0.61917 0.15418 0.61717 0.0
C960 C 0.64089 0.17917 0.60608 0.0
H961 H 0.46347 0.18133 0.60528 0.0
H962 H 0.51272 0.18164 0.60566 0.0
C963 C 0.67124 0.18449 0.60377 0.0
C964 C 0.58649 0.14778 0.61879 0.0
H965 H 0.52311 0.13398 0.59216 0.0
C966 C 0.57489 0.14938 0.6367 0.0
C967 C 0.56717 0.14121 0.60263 0.0
C968 C 0.57747 0.13731 0.58316 0.0
C969 C 0.54511 0.1462 0.63872 0.0
C970 C 0.52634 0.14089 0.62243 0.0
C971 C 0.53755 0.13819 0.60464 0.0
C972 C 0.4961 0.14051 0.62316 0.0
C973 C 0.53446 0.14988 0.65812 0.0
C974 C 0.47013 0.11719 0.63292 0.0
C975 C 0.44157 0.11687 0.63274 0.0
C976 C 0.43848 0.13981 0.62273 0.0
C977 C 0.46472 0.16316 0.61312 0.0
C978 C 0.49305 0.16343 0.6133 0.0
H979 H 0.55375 0.15921 0.66867 0.0
H980 H 0.52463 0.16571 0.65749 0.0
H981 H 0.51581 0.1268 0.66317 0.0
H982 H 0.47181 0.09897 0.6404 0.0
H983 H 0.42188 0.0985 0.64026 0.0
H984 H 0.4937 0.68265 0.10773 0.0
H985 H 0.44784 0.63085 0.11191 0.0
H986 H 0.50756 0.59275 0.12409 0.0
H987 H 0.55347 0.64454 0.12043 0.0
H988 H 0.43377 0.57732 0.09067 0.0
H989 H 0.44369 0.55749 0.1673 0.0
H990 H 0.46463 0.59569 0.1566 0.0
H991 H 0.47819 0.56836 0.15356 0.0
C992 C 0.4971 0.66339 0.11164 0.0
C993 C 0.52736 0.66786 0.11373 0.0
C994 C 0.47084 0.63373 0.11392 0.0
C995 C 0.47419 0.60792 0.11852 0.0
C996 C 0.50431 0.61234 0.12085 0.0
H997 H 0.33583 0.40806 0.12933 0.0
H998 H 0.38468 0.45857 0.1292 0.0
C999 C 0.53058 0.64196 0.11853 0.0
C1000 C 0.44624 0.57615 0.11979 0.0
H1001 H 0.40475 0.51473 0.14982 0.0
C1002 C 0.42741 0.5637 0.10362 0.0
C1003 C 0.43812 0.55817 0.13663 0.0
C1004 C 0.45702 0.57062 0.15459 0.0
C1005 C 0.40075 0.53386 0.10379 0.0
C1006 C 0.39217 0.51613 0.12074 0.0
C1007 C 0.41129 0.52831 0.13685 0.0
C1008 C 0.36265 0.48561 0.12212 0.0
C1009 C 0.38221 0.52145 0.08569 0.0
C1010 C 0.33399 0.48412 0.11881 0.0
C1011 C 0.30625 0.45549 0.1188 0.0
C1012 C 0.30632 0.42749 0.12232 0.0
C1013 C 0.33491 0.4291 0.12652 0.0
C1014 C 0.36284 0.45795 0.12642 0.0
H1015 H 0.39656 0.53328 0.07299 0.0
H1016 H 0.37287 0.49595 0.08424 0.0
H1017 H 0.36226 0.52577 0.0859 0.0
H1018 H 0.3331 0.50518 0.11597 0.0
H1019 H 0.2847 0.45534 0.11581 0.0
H1020 H 0.92505 0.54704 0.59502 0.0
H1021 H 0.9322 0.50175 0.59823 0.0
H1022 H 0.83992 0.4486 0.62186 0.0
H1023 H 0.83219 0.49349 0.6182 0.0
H1024 H 0.92962 0.46647 0.63029 0.0
H1025 H 0.8384 0.3938 0.57768 0.0
H1026 H 0.85379 0.43532 0.57986 0.0
H1027 H 0.82499 0.40893 0.59634 0.0
C1028 C 0.90613 0.52566 0.60076 0.0
C1029 C 0.87788 0.52392 0.60616 0.0
C1030 C 0.91038 0.49983 0.60272 0.0
C1031 C 0.88644 0.47157 0.61 0.0
C1032 C 0.85854 0.46997 0.61589 0.0
H1033 H 0.85305 0.28601 0.62984 0.0
H1034 H 0.85284 0.33496 0.6277 0.0
C1035 C 0.85428 0.49581 0.61397 0.0
C1036 C 0.89051 0.44371 0.61124 0.0
H1037 H 0.85962 0.36846 0.59581 0.0
C1038 C 0.91445 0.44507 0.62268 0.0
C1039 C 0.87086 0.41585 0.60119 0.0
C1040 C 0.84574 0.41335 0.58793 0.0
C1041 C 0.91852 0.419 0.62489 0.0
C1042 C 0.89847 0.39095 0.61511 0.0
C1043 C 0.87495 0.38987 0.60338 0.0
C1044 C 0.9002 0.36186 0.61745 0.0
C1045 C 0.94354 0.42138 0.63817 0.0
C1046 C 0.92709 0.3605 0.61257 0.0
C1047 C 0.92739 0.33227 0.61389 0.0
C1048 C 0.90067 0.30482 0.6199 0.0
C1049 C 0.87405 0.30653 0.62503 0.0
C1050 C 0.87384 0.3346 0.62381 0.0
H1051 H 0.95185 0.44167 0.64793 0.0
H1052 H 0.93491 0.39984 0.64677 0.0
H1053 H 0.96376 0.42436 0.62973 0.0
H1054 H 0.94757 0.38104 0.60728 0.0
H1055 H 0.94819 0.33177 0.6097 0.0
H1056 H 0.57482 0.83954 0.10969 0.0
H1057 H 0.52538 0.83872 0.11093 0.0
H1058 H 0.56929 0.92663 0.14078 0.0
H1059 H 0.6196 0.92803 0.1393 0.0
H1060 H 0.49092 0.83831 0.14139 0.0
H1061 H 0.52565 0.94357 0.09705 0.0
H1062 H 0.54901 0.92497 0.09864 0.0
H1063 H 0.5494 0.94939 0.11765 0.0
C1064 C 0.57424 0.85887 0.11652 0.0
C1065 C 0.60147 0.88403 0.12428 0.0
C1066 C 0.54576 0.85827 0.11724 0.0
C1067 C 0.54358 0.88277 0.12571 0.0
C1068 C 0.57049 0.90772 0.13383 0.0
H1069 H 0.37699 0.90325 0.13132 0.0
H1070 H 0.42909 0.91026 0.13664 0.0
C1071 C 0.59921 0.9084 0.13309 0.0
C1072 C 0.51288 0.88159 0.12591 0.0
H1073 H 0.47401 0.91721 0.10845 0.0
C1074 C 0.4873 0.85569 0.13428 0.0
C1075 C 0.50809 0.90426 0.11666 0.0
C1076 C 0.53437 0.93202 0.10684 0.0
C1077 C 0.4571 0.85158 0.13339 0.0
C1078 C 0.45216 0.87375 0.12368 0.0
C1079 C 0.47784 0.90019 0.11585 0.0
C1080 C 0.42035 0.86918 0.1208 0.0
C1081 C 0.43065 0.82345 0.14283 0.0
C1082 C 0.39818 0.8439 0.11 0.0
C1083 C 0.36841 0.83983 0.10693 0.0
C1084 C 0.36012 0.86096 0.11461 0.0
C1085 C 0.38242 0.88629 0.12543 0.0
C1086 C 0.41228 0.89045 0.12839 0.0
H1087 H 0.43927 0.81339 0.15375 0.0
H1088 H 0.41411 0.82951 0.1496 0.0
H1089 H 0.41768 0.80521 0.13196 0.0
H1090 H 0.40402 0.82744 0.10378 0.0
H1091 H 0.3518 0.81999 0.09864 0.0
H1092 H 0.70447 0.61957 0.60923 0.0
H1093 H 0.65483 0.56985 0.60801 0.0
H1094 H 0.70256 0.5206 0.62426 0.0
H1095 H 0.7518 0.56963 0.62554 0.0
H1096 H 0.64105 0.51592 0.58495 0.0
H1097 H 0.62874 0.48781 0.66171 0.0
H1098 H 0.65416 0.52668 0.65281 0.0
H1099 H 0.66624 0.49792 0.65211 0.0
C1100 C 0.70431 0.59818 0.61271 0.0
C1101 C 0.73219 0.59871 0.6175 0.0
C1102 C 0.67595 0.56978 0.61196 0.0
C1103 C 0.6749 0.54152 0.61629 0.0
C1104 C 0.70265 0.5421 0.62118 0.0
H1105 H 0.54404 0.34291 0.61665 0.0
H1106 H 0.58877 0.39576 0.61981 0.0
C1107 C 0.73089 0.57027 0.62179 0.0
C1108 C 0.64527 0.51111 0.61498 0.0
H1109 H 0.59632 0.44631 0.64068 0.0
C1110 C 0.631 0.50084 0.59716 0.0
C1111 C 0.63232 0.49134 0.6309 0.0
C1112 C 0.64595 0.50154 0.65051 0.0
C1113 C 0.60481 0.47092 0.59472 0.0
C1114 C 0.5921 0.45093 0.61061 0.0
C1115 C 0.60607 0.46149 0.62848 0.0
C1116 C 0.56461 0.41885 0.60895 0.0
C1117 C 0.59178 0.46056 0.57499 0.0
C1118 C 0.5359 0.41414 0.60213 0.0
C1119 C 0.51029 0.38396 0.60032 0.0
C1120 C 0.51266 0.35769 0.60543 0.0
C1121 C 0.54127 0.36252 0.61267 0.0
C1122 C 0.56692 0.39276 0.61442 0.0
H1123 H 0.6089 0.47496 0.5639 0.0
H1124 H 0.58478 0.43572 0.57257 0.0
H1125 H 0.57083 0.46303 0.57324 0.0
H1126 H 0.5332 0.43386 0.59831 0.0
H1127 H 0.48848 0.38123 0.5951 0.0
H1128 H 0.28983 0.8442 0.39939 0.0
H1129 H 0.33846 0.84338 0.39805 0.0
H1130 H 0.38196 0.9309 0.36801 0.0
H1131 H 0.33299 0.93223 0.3695 0.0
H1132 H 0.37253 0.84327 0.36683 0.0
H1133 H 0.44236 0.94753 0.41235 0.0
H1134 H 0.40038 0.9285 0.41093 0.0
H1135 H 0.42393 0.95331 0.39199 0.0
C1136 C 0.30963 0.86345 0.3925 0.0
C1137 C 0.3074 0.88845 0.38466 0.0
C1138 C 0.3375 0.86284 0.39172 0.0
C1139 C 0.36403 0.88722 0.38315 0.0
C1140 C 0.36194 0.91206 0.375 0.0
H1141 H 0.55121 0.90779 0.37903 0.0
H1142 H 0.50639 0.91516 0.37344 0.0
C1143 C 0.33387 0.9127 0.37575 0.0
C1144 C 0.39353 0.88605 0.38291 0.0
H1145 H 0.46753 0.92097 0.40105 0.0
C1146 C 0.39338 0.8604 0.37419 0.0
C1147 C 0.42077 0.90841 0.39249 0.0
C1148 C 0.42202 0.93591 0.40262 0.0
C1149 C 0.41944 0.85622 0.37508 0.0
C1150 C 0.44629 0.87801 0.38519 0.0
C1151 C 0.44689 0.90423 0.39336 0.0
C1152 C 0.47338 0.87321 0.38818 0.0
C1153 C 0.41797 0.82843 0.36522 0.0
C1154 C 0.4698 0.84731 0.39845 0.0
C1155 C 0.49534 0.84302 0.40166 0.0
C1156 C 0.52507 0.86457 0.39467 0.0
C1157 C 0.52857 0.89051 0.38438 0.0
C1158 C 0.50303 0.89488 0.38127 0.0
H1159 H 0.3998 0.81905 0.35396 0.0
H1160 H 0.4408 0.83459 0.35876 0.0
H1161 H 0.41207 0.80964 0.37575 0.0
H1162 H 0.44726 0.83053 0.40418 0.0
H1163 H 0.49174 0.82271 0.40954 0.0
H1164 H 0.66629 0.53602 0.87043 0.0
H1165 H 0.61299 0.49242 0.8663 0.0
H1166 H 0.62232 0.45005 0.91745 0.0
H1167 H 0.67553 0.49331 0.92164 0.0
H1168 H 0.58953 0.42811 0.86267 0.0
H1169 H 0.54312 0.45413 0.92738 0.0
H1170 H 0.5804 0.48163 0.91728 0.0
H1171 H 0.57669 0.45022 0.93196 0.0
C1172 C 0.65713 0.51727 0.88071 0.0
C1173 C 0.67519 0.51838 0.89648 0.0
C1174 C 0.62657 0.49244 0.87837 0.0
C1175 C 0.61338 0.46827 0.89178 0.0
C1176 C 0.63166 0.46883 0.90719 0.0
H1177 H 0.4505 0.29376 0.91226 0.0
H1178 H 0.49988 0.34254 0.91167 0.0
C1179 C 0.66214 0.49361 0.90956 0.0
C1180 C 0.5806 0.44234 0.88972 0.0
H1181 H 0.51109 0.40407 0.91325 0.0
C1182 C 0.57222 0.42305 0.87359 0.0
C1183 C 0.55793 0.4359 0.9039 0.0
C1184 C 0.56484 0.45674 0.92102 0.0
C1185 C 0.54232 0.39659 0.87177 0.0
C1186 C 0.52008 0.38951 0.88633 0.0
C1187 C 0.52815 0.40944 0.90211 0.0
C1188 C 0.48933 0.36016 0.88635 0.0
C1189 C 0.5352 0.37563 0.85471 0.0
C1190 C 0.46656 0.35387 0.8724 0.0
C1191 C 0.43794 0.32572 0.87268 0.0
C1192 C 0.43164 0.30339 0.88692 0.0
C1193 C 0.45441 0.31019 0.90099 0.0
C1194 C 0.48277 0.3382 0.90073 0.0
H1195 H 0.55652 0.38131 0.84647 0.0
H1196 H 0.5238 0.35079 0.85912 0.0
H1197 H 0.51885 0.37838 0.8452 0.0
H1198 H 0.4709 0.37072 0.86133 0.0
H1199 H 0.42097 0.3213 0.86164 0.0
H1200 H 0.1269 0.65531 0.37865 0.0
H1201 H 0.11857 0.60243 0.3749 0.0
H1202 H 0.20006 0.62739 0.40909 0.0
H1203 H 0.20839 0.68014 0.413 0.0
H1204 H 0.15467 0.58003 0.35981 0.0
H1205 H 0.13447 0.55035 0.43614 0.0
H1206 H 0.13512 0.58439 0.42639 0.0
H1207 H 0.17102 0.58512 0.43187 0.0
C1208 C 0.14319 0.64962 0.38526 0.0
C1209 C 0.16819 0.67195 0.39627 0.0
C1210 C 0.13832 0.61931 0.38316 0.0
C1211 C 0.15828 0.61066 0.39204 0.0
C1212 C 0.18379 0.63319 0.40255 0.0
H1213 H 0.19074 0.4573 0.39818 0.0
H1214 H 0.19091 0.50652 0.39828 0.0
C1215 C 0.18858 0.6634 0.40474 0.0
C1216 C 0.15259 0.57819 0.39034 0.0
H1217 H 0.14364 0.5162 0.41661 0.0
C1218 C 0.15188 0.56591 0.37221 0.0
C1219 C 0.14862 0.55958 0.40651 0.0
C1220 C 0.147 0.57038 0.42631 0.0
C1221 C 0.14876 0.53619 0.3699 0.0
C1222 C 0.14608 0.51822 0.38612 0.0
C1223 C 0.14585 0.53009 0.40419 0.0
C1224 C 0.1458 0.48807 0.38487 0.0
C1225 C 0.14957 0.52464 0.35021 0.0
C1226 C 0.12032 0.46116 0.37717 0.0
C1227 C 0.12 0.43258 0.37714 0.0
C1228 C 0.14518 0.43048 0.38482 0.0
C1229 C 0.17081 0.45776 0.39218 0.0
C1230 C 0.17103 0.48608 0.39227 0.0
H1231 H 0.15595 0.54304 0.3393 0.0
H1232 H 0.16654 0.51617 0.3496 0.0
H1233 H 0.12623 0.50471 0.34663 0.0
H1234 H 0.10043 0.46212 0.37156 0.0
H1235 H 0.09987 0.4121 0.3714 0.0
H1236 H 0.7021 0.08717 0.90024 0.0
H1237 H 0.65254 0.08753 0.9015 0.0
H1238 H 0.69864 0.18131 0.87956 0.0
H1239 H 0.74775 0.18121 0.87825 0.0
H1240 H 0.64159 0.13189 0.92241 0.0
H1241 H 0.62075 0.1347 0.84531 0.0
H1242 H 0.64685 0.12234 0.85466 0.0
H1243 H 0.65933 0.16317 0.85292 0.0
C1244 C 0.70155 0.10769 0.89547 0.0
C1245 C 0.72897 0.13413 0.88915 0.0
C1246 C 0.67325 0.10791 0.89626 0.0
C1247 C 0.67178 0.13434 0.89042 0.0
C1248 C 0.69902 0.16048 0.88385 0.0
H1249 H 0.54197 0.20367 0.88724 0.0
H1250 H 0.58592 0.19427 0.88401 0.0
C1251 C 0.7272 0.1604 0.88323 0.0
C1252 C 0.64239 0.13561 0.89199 0.0
H1253 H 0.59097 0.1478 0.86607 0.0
C1254 C 0.63023 0.13494 0.91009 0.0
C1255 C 0.62776 0.13991 0.87592 0.0
C1256 C 0.63912 0.13982 0.85607 0.0
C1257 C 0.60458 0.13955 0.91261 0.0
C1258 C 0.59015 0.14424 0.89654 0.0
C1259 C 0.602 0.14433 0.8784 0.0
C1260 C 0.56306 0.14956 0.89824 0.0
C1261 C 0.59401 0.14061 0.93254 0.0
C1262 C 0.53526 0.12736 0.90698 0.0
C1263 C 0.51012 0.13271 0.90887 0.0
C1264 C 0.51199 0.16027 0.90189 0.0
C1265 C 0.5396 0.18214 0.89271 0.0
C1266 C 0.56481 0.17682 0.89091 0.0
H1267 H 0.61244 0.14525 0.94317 0.0
H1268 H 0.58734 0.15887 0.93396 0.0
H1269 H 0.57334 0.11773 0.93598 0.0
H1270 H 0.53289 0.10574 0.91227 0.0
H1271 H 0.48903 0.115 0.91563 0.0
H1272 H 0.34796 0.53722 0.39898 0.0
H1273 H 0.39984 0.58283 0.39464 0.0
H1274 H 0.43684 0.52256 0.38121 0.0
H1275 H 0.38492 0.47687 0.38503 0.0
H1276 H 0.45347 0.59577 0.41546 0.0
H1277 H 0.47196 0.58737 0.3384 0.0
H1278 H 0.4339 0.56657 0.34927 0.0
H1279 H 0.4609 0.55253 0.35184 0.0
C1280 C 0.36698 0.53364 0.39474 0.0
C1281 C 0.36217 0.5033 0.39236 0.0
C1282 C 0.39669 0.55976 0.39238 0.0
C1283 C 0.42222 0.55618 0.3874 0.0
C1284 C 0.41746 0.52598 0.38475 0.0
H1285 H 0.62196 0.69587 0.37627 0.0
H1286 H 0.57182 0.64654 0.37616 0.0
C1287 C 0.38778 0.49984 0.38716 0.0
C1288 C 0.45407 0.58397 0.38612 0.0
H1289 H 0.51487 0.62613 0.35583 0.0
C1290 C 0.46685 0.6024 0.40241 0.0
C1291 C 0.47173 0.59242 0.36915 0.0
C1292 C 0.45892 0.57388 0.3511 0.0
C1293 C 0.49666 0.62907 0.4022 0.0
C1294 C 0.51402 0.63806 0.38512 0.0
C1295 C 0.50157 0.61927 0.3689 0.0
C1296 C 0.54426 0.66783 0.38371 0.0
C1297 C 0.5094 0.64725 0.4204 0.0
C1298 C 0.5453 0.6962 0.38734 0.0
C1299 C 0.5737 0.72417 0.38749 0.0
C1300 C 0.60189 0.72462 0.3838 0.0
C1301 C 0.60073 0.69635 0.37922 0.0
C1302 C 0.57211 0.66816 0.37918 0.0
H1303 H 0.4979 0.6326 0.43305 0.0
H1304 H 0.53494 0.65669 0.42158 0.0
H1305 H 0.50496 0.66713 0.42059 0.0
H1306 H 0.52408 0.69668 0.39036 0.0
H1307 H 0.57351 0.74548 0.39075 0.0
H1308 H 0.84549 0.56711 0.89542 0.0
H1309 H 0.84581 0.51812 0.89571 0.0
H1310 H 0.93932 0.56451 0.87337 0.0
H1311 H 0.93923 0.61423 0.87288 0.0
H1312 H 0.89767 0.5041 0.85652 0.0
H1313 H 0.89603 0.49957 0.93513 0.0
H1314 H 0.8657 0.50506 0.92518 0.0
H1315 H 0.90582 0.53474 0.92216 0.0
C1316 C 0.86623 0.56712 0.8905 0.0
C1317 C 0.89254 0.59487 0.88435 0.0
C1318 C 0.86634 0.53896 0.89073 0.0
C1319 C 0.89278 0.53772 0.88493 0.0
C1320 C 0.91872 0.565 0.87804 0.0
H1321 H 0.9152 0.37881 0.91498 0.0
H1322 H 0.92362 0.43128 0.90977 0.0
C1323 C 0.91863 0.59339 0.87777 0.0
C1324 C 0.89318 0.50792 0.88664 0.0
H1325 H 0.88448 0.4527 0.91895 0.0
C1326 C 0.89509 0.49295 0.87017 0.0
C1327 C 0.89019 0.49355 0.90448 0.0
C1328 C 0.88961 0.50916 0.92278 0.0
C1329 C 0.89299 0.4635 0.87103 0.0
C1330 C 0.88846 0.44847 0.8888 0.0
C1331 C 0.88762 0.46399 0.9053 0.0
C1332 C 0.88437 0.41662 0.89076 0.0
C1333 C 0.89584 0.44884 0.85291 0.0
C1334 C 0.85945 0.39074 0.88183 0.0
C1335 C 0.85445 0.36056 0.88486 0.0
C1336 C 0.87411 0.35557 0.89705 0.0
C1337 C 0.89928 0.38164 0.90575 0.0
C1338 C 0.90427 0.41174 0.90269 0.0
H1339 H 0.90793 0.46658 0.84167 0.0
H1340 H 0.90876 0.43614 0.85534 0.0
H1341 H 0.87217 0.4319 0.84763 0.0
H1342 H 0.8433 0.39374 0.87292 0.0
H1343 H 0.83462 0.34104 0.87812 0.0
H1344 H 0.12121 0.3307 0.32366 0.0
H1345 H 0.13244 0.33589 0.2898 0.0
H1346 H 0.23065 0.39348 0.30166 0.0
H1347 H 0.21948 0.38909 0.33586 0.0
H1348 H 0.21135 0.41478 0.27075 0.0
H1349 H 0.16898 0.28825 0.26393 0.0
H1350 H 0.14023 0.2961 0.27386 0.0
H1351 H 0.17585 0.30744 0.28665 0.0
C1352 C 0.14525 0.34453 0.31913 0.0
C1353 C 0.16953 0.35908 0.33248 0.0
C1354 C 0.15161 0.34742 0.29974 0.0
C1355 C 0.18242 0.36442 0.29321 0.0
C1356 C 0.2067 0.38004 0.30642 0.0
H1357 H 0.23443 0.33304 0.18213 0.0
H1358 H 0.22957 0.33969 0.21593 0.0
C1359 C 0.2003 0.37746 0.32593 0.0
C1360 C 0.18907 0.36474 0.27265 0.0
H1361 H 0.17761 0.3164 0.23519 0.0
C1362 C 0.20419 0.39333 0.26295 0.0
C1363 C 0.18009 0.33676 0.26255 0.0
C1364 C 0.16568 0.30544 0.27231 0.0
C1365 C 0.21006 0.39459 0.24333 0.0
C1366 C 0.19991 0.36645 0.23312 0.0
C1367 C 0.18515 0.33798 0.24294 0.0
C1368 C 0.20529 0.3656 0.21243 0.0
C1369 C 0.2276 0.42603 0.23383 0.0
C1370 C 0.19363 0.37834 0.19906 0.0
C1371 C 0.19676 0.37489 0.17955 0.0
C1372 C 0.21097 0.35805 0.17315 0.0
C1373 C 0.223 0.34582 0.18658 0.0
C1374 C 0.22032 0.34967 0.20594 0.0
H1375 H 0.24114 0.44493 0.24426 0.0
H1376 H 0.24384 0.42625 0.2229 0.0
H1377 H 0.2107 0.43129 0.22678 0.0
H1378 H 0.18132 0.39013 0.20368 0.0
H1379 H 0.18716 0.38446 0.16952 0.0
H1380 H 0.82124 0.16881 0.67303 0.0
H1381 H 0.80894 0.16401 0.70701 0.0
H1382 H 0.89193 0.25248 0.71745 0.0
H1383 H 0.90458 0.25727 0.6838 0.0
H1384 H 0.88812 0.20548 0.73991 0.0
H1385 H 0.77717 0.20777 0.74241 0.0
H1386 H 0.77701 0.17969 0.72614 0.0
H1387 H 0.80249 0.22062 0.72194 0.0
C1388 C 0.83655 0.18748 0.68253 0.0
C1389 C 0.864 0.21329 0.67571 0.0
C1390 C 0.82942 0.18478 0.70193 0.0
C1391 C 0.84943 0.20802 0.71475 0.0
C1392 C 0.87617 0.23429 0.70783 0.0
H1393 H 0.8633 0.21767 0.839 0.0
H1394 H 0.87013 0.23195 0.80531 0.0
C1395 C 0.88337 0.23693 0.68855 0.0
C1396 C 0.84426 0.20387 0.73554 0.0
H1397 H 0.79269 0.19327 0.77088 0.0
C1398 C 0.86739 0.20311 0.74671 0.0
C1399 C 0.81717 0.2007 0.74435 0.0
C1400 C 0.79213 0.2025 0.73315 0.0
C1401 C 0.86385 0.19849 0.76639 0.0
C1402 C 0.83667 0.19511 0.77521 0.0
C1403 C 0.81361 0.1961 0.76408 0.0
C1404 C 0.83091 0.18834 0.79577 0.0
C1405 C 0.88874 0.19616 0.77746 0.0
C1406 C 0.8059 0.15967 0.80161 0.0
C1407 C 0.80187 0.15152 0.82077 0.0
C1408 C 0.82274 0.17194 0.83455 0.0
C1409 C 0.84696 0.20132 0.82877 0.0
C1410 C 0.85098 0.20946 0.80951 0.0
H1411 H 0.90467 0.19257 0.76804 0.0
H1412 H 0.90291 0.21812 0.78552 0.0
H1413 H 0.87812 0.17664 0.78779 0.0
H1414 H 0.79007 0.1431 0.79126 0.0
H1415 H 0.78276 0.12881 0.82468 0.0
H1416 H 0.62736 0.81374 0.17145 0.0
H1417 H 0.61769 0.80227 0.20547 0.0
H1418 H 0.70344 0.88665 0.21865 0.0
H1419 H 0.71316 0.89843 0.18502 0.0
H1420 H 0.65414 0.79371 0.23222 0.0
H1421 H 0.64043 0.89431 0.25223 0.0
H1422 H 0.63851 0.88189 0.22791 0.0
H1423 H 0.67568 0.90609 0.23917 0.0
C1424 C 0.64411 0.82988 0.1816 0.0
C1425 C 0.67097 0.85709 0.17546 0.0
C1426 C 0.63851 0.82331 0.20102 0.0
C1427 C 0.6595 0.84397 0.2146 0.0
C1428 C 0.68649 0.87081 0.20847 0.0
H1429 H 0.7136 0.82536 0.32484 0.0
H1430 H 0.70397 0.82794 0.29124 0.0
C1431 C 0.69213 0.87736 0.18916 0.0
C1432 C 0.65433 0.83713 0.23519 0.0
H1433 H 0.6535 0.87016 0.27764 0.0
C1434 C 0.65343 0.81013 0.24214 0.0
C1435 C 0.65282 0.85827 0.24813 0.0
C1436 C 0.65157 0.8866 0.24147 0.0
C1437 C 0.65315 0.80477 0.26172 0.0
C1438 C 0.6543 0.82724 0.27466 0.0
C1439 C 0.65307 0.85317 0.26772 0.0
C1440 C 0.65951 0.82558 0.29526 0.0
C1441 C 0.65231 0.77538 0.26838 0.0
C1442 C 0.63819 0.8245 0.30881 0.0
C1443 C 0.64372 0.82322 0.32823 0.0
C1444 C 0.67082 0.82328 0.33438 0.0
C1445 C 0.69236 0.82505 0.3207 0.0
C1446 C 0.6868 0.82628 0.30141 0.0
H1447 H 0.6415 0.75655 0.25756 0.0
H1448 H 0.67651 0.78031 0.27083 0.0
H1449 H 0.63914 0.76683 0.28187 0.0
H1450 H 0.61714 0.82432 0.30435 0.0
H1451 H 0.62669 0.82195 0.33837 0.0
H1452 H 0.77746 0.644 0.68078 0.0
H1453 H 0.78339 0.6387 0.71469 0.0
H1454 H 0.87639 0.65491 0.70535 0.0
H1455 H 0.87061 0.66008 0.6711 0.0
H1456 H 0.83812 0.60671 0.7343 0.0
H1457 H 0.8431 0.72064 0.74419 0.0
H1458 H 0.80984 0.69185 0.7312 0.0
H1459 H 0.84821 0.70731 0.72133 0.0
C1460 C 0.79908 0.64603 0.68584 0.0
C1461 C 0.82378 0.65297 0.67327 0.0
C1462 C 0.80237 0.64295 0.70525 0.0
C1463 C 0.83048 0.64694 0.71253 0.0
C1464 C 0.85453 0.65186 0.69996 0.0
H1465 H 0.90534 0.70752 0.82408 0.0
H1466 H 0.89401 0.69908 0.79034 0.0
C1467 C 0.85119 0.65479 0.68042 0.0
C1468 C 0.83554 0.64884 0.73334 0.0
H1469 H 0.84218 0.69355 0.77192 0.0
C1470 C 0.83902 0.62564 0.74258 0.0
C1471 C 0.83693 0.67374 0.74402 0.0
C1472 C 0.83459 0.69999 0.73472 0.0
C1473 C 0.84368 0.62664 0.76235 0.0
C1474 C 0.84457 0.65132 0.77304 0.0
C1475 C 0.84116 0.67449 0.76372 0.0
C1476 C 0.85127 0.65505 0.79371 0.0
C1477 C 0.84839 0.6018 0.77157 0.0
C1478 C 0.83082 0.63313 0.80692 0.0
C1479 C 0.83722 0.63788 0.82644 0.0
C1480 C 0.86412 0.66473 0.833 0.0
C1481 C 0.88437 0.68658 0.81964 0.0
C1482 C 0.87798 0.6818 0.80027 0.0
H1483 H 0.85319 0.5881 0.76096 0.0
H1484 H 0.868 0.61235 0.78187 0.0
H1485 H 0.82697 0.58549 0.77945 0.0
H1486 H 0.80975 0.61258 0.80217 0.0
H1487 H 0.82114 0.62061 0.83633 0.0
H1488 H 0.21516 0.81974 0.17105 0.0
H1489 H 0.2272 0.823 0.20508 0.0
H1490 H 0.14259 0.82414 0.21788 0.0
H1491 H 0.13024 0.8206 0.18424 0.0
H1492 H 0.23572 0.86896 0.23117 0.0
H1493 H 0.13617 0.7551 0.2525 0.0
H1494 H 0.14817 0.76472 0.22807 0.0
H1495 H 0.12391 0.77786 0.23904 0.0
C1496 C 0.19908 0.82058 0.18112 0.0
C1497 C 0.17165 0.81974 0.17487 0.0
C1498 C 0.20598 0.8224 0.20055 0.0
C1499 C 0.18543 0.82311 0.21403 0.0
C1500 C 0.15836 0.82277 0.20778 0.0
H1501 H 0.20603 0.89935 0.32382 0.0
H1502 H 0.20284 0.88643 0.29027 0.0
C1503 C 0.15148 0.821 0.18847 0.0
C1504 C 0.19261 0.82566 0.23462 0.0
H1505 H 0.16057 0.79323 0.27744 0.0
C1506 C 0.21958 0.85214 0.24128 0.0
C1507 C 0.17184 0.80344 0.24781 0.0
C1508 C 0.14357 0.77351 0.24149 0.0
C1509 C 0.22529 0.85796 0.2608 0.0
C1510 C 0.20319 0.83699 0.27398 0.0
C1511 C 0.17727 0.80952 0.26733 0.0
C1512 C 0.20531 0.84441 0.29453 0.0
C1513 C 0.25467 0.88682 0.26714 0.0
C1514 C 0.20666 0.82447 0.30819 0.0
C1515 C 0.20828 0.83168 0.32756 0.0
C1516 C 0.20829 0.85884 0.33356 0.0
C1517 C 0.2063 0.87834 0.31979 0.0
C1518 C 0.20472 0.87115 0.30053 0.0
H1519 H 0.27327 0.89458 0.25623 0.0
H1520 H 0.24957 0.90604 0.26938 0.0
H1521 H 0.26359 0.88274 0.28067 0.0
H1522 H 0.20678 0.8035 0.30386 0.0
H1523 H 0.20972 0.81611 0.33779 0.0
H1524 H 0.42227 0.20958 0.8389 0.0
H1525 H 0.43701 0.20958 0.80547 0.0
H1526 H 0.35096 0.20364 0.78739 0.0
H1527 H 0.33617 0.20362 0.82013 0.0
H1528 H 0.40283 0.16321 0.77673 0.0
H1529 H 0.41778 0.27784 0.75675 0.0
H1530 H 0.41861 0.26694 0.78113 0.0
H1531 H 0.38197 0.25447 0.76931 0.0
C1532 C 0.40659 0.20835 0.82776 0.0
C1533 C 0.37808 0.20668 0.83226 0.0
C1534 C 0.41506 0.20842 0.80871 0.0
C1535 C 0.39536 0.20732 0.79396 0.0
C1536 C 0.36687 0.20529 0.7985 0.0
H1537 H 0.33625 0.13282 0.68677 0.0
H1538 H 0.35056 0.14635 0.71984 0.0
C1539 C 0.35835 0.20502 0.81734 0.0
C1540 C 0.40303 0.20661 0.77369 0.0
H1541 H 0.40346 0.24005 0.73123 0.0
C1542 C 0.40383 0.18042 0.76679 0.0
C1543 C 0.40485 0.2293 0.76072 0.0
C1544 C 0.4061 0.25889 0.76738 0.0
C1545 C 0.40362 0.17498 0.7472 0.0
C1546 C 0.40208 0.19605 0.73424 0.0
C1547 C 0.40415 0.22364 0.74114 0.0
C1548 C 0.39448 0.18804 0.71388 0.0
C1549 C 0.40387 0.1461 0.74057 0.0
C1550 C 0.4139 0.20762 0.69941 0.0
C1551 C 0.40563 0.20004 0.68028 0.0
C1552 C 0.37761 0.17293 0.67534 0.0
C1553 C 0.35808 0.15379 0.68994 0.0
C1554 C 0.36637 0.16132 0.70894 0.0
H1555 H 0.41584 0.13883 0.75101 0.0
H1556 H 0.37948 0.12667 0.73913 0.0
H1557 H 0.41559 0.14988 0.7266 0.0
H1558 H 0.43551 0.22861 0.70293 0.0
H1559 H 0.42119 0.21531 0.6694 0.0
H1560 H 0.35797 0.23768 0.95787 0.0
H1561 H 0.33901 0.25457 0.98528 0.0
H1562 H 0.2532 0.22814 0.95548 0.0
H1563 H 0.27216 0.21189 0.92816 0.0
H1564 H 0.31812 0.30331 0.97806 0.0
H1565 H 0.22856 0.19354 0.01236 0.0
H1566 H 0.2611 0.19585 0.9993 0.0
H1567 H 0.22922 0.19521 0.98681 0.0
C1568 C 0.33469 0.23455 0.9575 0.0
C1569 C 0.31639 0.22329 0.94104 0.0
C1570 C 0.32397 0.24439 0.97305 0.0
C1571 C 0.29462 0.24244 0.97242 0.0
C1572 C 0.27572 0.22953 0.95636 0.0
H1573 H 0.19544 0.30209 0.05047 0.0
H1574 H 0.20878 0.28025 0.02293 0.0
C1575 C 0.28657 0.22023 0.94079 0.0
C1576 C 0.28498 0.257 0.98741 0.0
H1577 H 0.23278 0.24063 0.02337 0.0
C1578 C 0.29961 0.28965 0.98807 0.0
C1579 C 0.26027 0.23909 1.00006 0.0
C1580 C 0.24383 0.20395 0.99979 0.0
C1581 C 0.29024 0.30493 1.00108 0.0
C1582 C 0.26613 0.28709 0.0142 0.0
C1583 C 0.25118 0.25435 0.01333 0.0
C1584 C 0.25792 0.30202 0.02983 0.0
C1585 C 0.30595 0.34006 1.00037 0.0
C1586 C 0.28101 0.32165 0.04273 0.0
C1587 C 0.27355 0.33426 0.05821 0.0
C1588 C 0.24265 0.32728 0.06142 0.0
C1589 C 0.21949 0.3082 0.04828 0.0
C1590 C 0.22706 0.29552 0.03264 0.0
H1591 H 0.31522 0.34901 0.98597 0.0
H1592 H 0.28967 0.34839 0.00443 0.0
H1593 H 0.32596 0.3502 0.01039 0.0
H1594 H 0.3048 0.3265 0.0412 0.0
H1595 H 0.29202 0.34877 0.06805 0.0
H1596 H 0.13066 0.30263 0.45403 0.0
H1597 H 0.0951 0.28043 0.4813 0.0
H1598 H 0.0542 0.33726 0.46783 0.0
H1599 H 0.0892 0.35925 0.44081 0.0
H1600 H 0.0814 0.30931 0.51373 0.0
H1601 H 0.98023 0.24612 0.46526 0.0
H1602 H 0.02007 0.26225 0.45742 0.0
H1603 H 1.00367 0.28718 0.46061 0.0
C1604 C 0.11457 0.31085 0.45719 0.0
C1605 C 0.11253 0.33246 0.44519 0.0
C1606 C 0.09414 0.29802 0.47266 0.0
C1607 C 0.07149 0.30665 0.47626 0.0
C1608 C 0.07096 0.32973 0.46504 0.0
H1609 H 0.91735 0.25569 0.5544 0.0
H1610 H 0.95422 0.27575 0.52773 0.0
C1611 C 0.09115 0.34241 0.44966 0.0
C1612 C 0.04752 0.29099 0.49122 0.0
H1613 H 0.96872 0.24684 0.49793 0.0
C1614 C 0.0568 0.29541 0.5103 0.0
C1615 C 1.01539 0.27302 0.48669 0.0
C1616 C 1.00415 0.26656 0.46638 0.0
C1617 C 0.03473 0.28303 0.52502 0.0
C1618 C 1.00255 0.26519 0.52049 0.0
C1619 C 0.99333 0.26058 0.50138 0.0
C1620 C 0.97826 0.25086 0.53544 0.0
C1621 C 0.04604 0.28992 0.5453 0.0
C1622 C 0.97861 0.22918 0.54807 0.0
C1623 C 0.9577 0.21776 0.56321 0.0
C1624 C 0.93566 0.2275 0.56598 0.0
C1625 C 0.93395 0.24768 0.55262 0.0
C1626 C 0.95512 0.25928 0.53746 0.0
H1627 H 0.06992 0.31046 0.54631 0.0
H1628 H 0.03012 0.29434 0.5542 0.0
H1629 H 0.04673 0.26951 0.55124 0.0
H1630 H 0.99562 0.22165 0.5465 0.0
H1631 H 0.95945 0.20197 0.57311 0.0
H1632 H 0.7291 0.90051 0.05406 0.0
H1633 H 0.75109 0.93665 0.02704 0.0
H1634 H 0.69575 0.9785 0.04218 0.0
H1635 H 0.674 0.94296 0.06898 0.0
H1636 H 0.72248 0.95146 0.99538 0.0
H1637 H 0.78676 0.05182 0.04427 0.0
H1638 H 0.77027 1.01182 0.05189 0.0
H1639 H 0.74574 0.02876 0.04907 0.0
C1640 C 0.72117 0.91697 0.05134 0.0
C1641 C 0.70006 0.91909 0.06374 0.0
C1642 C 0.73388 0.93773 0.03601 0.0
C1643 C 0.72563 0.96079 0.03293 0.0
C1644 C 0.70302 0.96144 0.04457 0.0
H1645 H 0.77715 0.11647 0.95571 0.0
H1646 H 0.75669 0.07908 0.98212 0.0
C1647 C 0.69048 0.94093 0.05982 0.0
C1648 C 0.74116 0.985 0.01807 0.0
H1649 H 0.78562 0.0639 0.01175 0.0
C1650 C 0.73651 0.97601 0.99893 0.0
C1651 C 0.75933 0.01707 0.02276 0.0
C1652 C 0.76612 0.02803 0.04311 0.0
C1653 C 0.74888 0.99829 0.98433 0.0
C1654 C 0.7669 0.0304 0.98902 0.0
C1655 C 0.77172 0.03935 0.00817 0.0
C1656 C 0.78134 0.0549 0.97418 0.0
C1657 C 0.74181 0.9873 0.96399 0.0
C1658 C 0.803 0.05461 0.96151 0.0
C1659 C 0.81467 0.07582 0.94653 0.0
C1660 C 0.80519 0.0981 0.94395 0.0
C1661 C 0.78497 0.09969 0.95734 0.0
C1662 C 0.77314 0.07822 0.97235 0.0
H1663 H 0.72119 0.96348 0.9629 0.0
H1664 H 0.73746 1.00343 0.95528 0.0
H1665 H 0.76211 0.98657 0.9579 0.0
H1666 H 0.81036 0.03743 0.96294 0.0
H1667 H 0.83048 0.07414 0.93661 0.0
H1668 H 0.829 0.76148 0.57316 0.0
H1669 H 0.80767 0.77728 0.54703 0.0
H1670 H 0.76043 0.68295 0.52568 0.0
H1671 H 0.78157 0.6667 0.55211 0.0
H1672 H 0.81107 0.7737 0.50739 0.0
H1673 H 0.68946 0.70282 0.53356 0.0
H1674 H 0.7229 0.71075 0.54789 0.0
H1675 H 0.70965 0.68157 0.52958 0.0
C1676 C 0.81437 0.74405 0.56281 0.0
C1677 C 0.80682 0.71271 0.56482 0.0
C1678 C 0.80218 0.75319 0.54786 0.0
C1679 C 0.78196 0.73124 0.5346 0.0
C1680 C 0.77554 0.70019 0.53597 0.0
H1681 H 0.67745 0.73737 0.43892 0.0
H1682 H 0.69918 0.72378 0.46584 0.0
C1683 C 0.7879 0.69099 0.55095 0.0
C1684 C 0.767 0.74093 0.51983 0.0
H1685 H 0.69644 0.72949 0.50456 0.0
C1686 C 0.78601 0.7641 0.50677 0.0
C1687 C 0.73432 0.72861 0.51917 0.0
C1688 C 0.71282 0.70476 0.53338 0.0
C1689 C 0.77319 0.77464 0.49275 0.0
C1690 C 0.74048 0.76218 0.49202 0.0
C1691 C 0.72151 0.7392 0.50519 0.0
C1692 C 0.72532 0.77085 0.47679 0.0
C1693 C 0.79471 0.7983 0.47846 0.0
C1694 C 0.73179 0.80177 0.47432 0.0
C1695 C 0.71922 0.8097 0.45882 0.0
C1696 C 0.70003 0.78679 0.44559 0.0
C1697 C 0.69234 0.75566 0.44876 0.0
C1698 C 0.70475 0.7478 0.46417 0.0
H1699 H 0.81814 0.80041 0.47844 0.0
H1700 H 0.78475 0.79196 0.46393 0.0
H1701 H 0.79768 0.82149 0.48203 0.0
H1702 H 0.74711 0.81986 0.48412 0.0
H1703 H 0.72563 0.83386 0.45675 0.0
H1704 H 0.95279 0.67134 0.93998 0.0
H1705 H 0.98869 0.6953 0.96646 0.0
H1706 H 0.94549 0.75011 0.97987 0.0
H1707 H 0.90892 0.72575 0.9532 0.0
H1708 H 0.03133 0.75943 0.96965 0.0
H1709 H 0.95147 0.71457 0.03177 0.0
H1710 H 0.94014 0.69689 0.00856 0.0
H1711 H 0.94157 0.73323 0.01331 0.0
C1712 C 0.95047 0.68808 0.94875 0.0
C1713 C 0.92795 0.69662 0.94451 0.0
C1714 C 0.97117 0.7019 0.96384 0.0
C1715 C 0.96995 0.72461 0.97512 0.0
C1716 C 0.9467 0.73241 0.97146 0.0
H1717 H 0.12714 0.83565 0.05456 0.0
H1718 H 0.09053 0.82312 0.02787 0.0
C1719 C 0.92572 0.71839 0.95629 0.0
C1720 C 0.99405 0.74061 0.99009 0.0
H1721 H 1.00497 0.74643 0.03811 0.0
C1722 C 0.02559 0.75695 0.98463 0.0
C1723 C 0.98652 0.73727 0.00961 0.0
C1724 C 0.95314 0.7194 0.0163 0.0
C1725 C 0.04978 0.769 0.99815 0.0
C1726 C 0.04224 0.7649 0.01767 0.0
C1727 C 1.0107 0.74961 0.02312 0.0
C1728 C 0.06637 0.77322 0.03264 0.0
C1729 C 0.08316 0.7846 0.99147 0.0
C1730 C 0.06533 0.74941 0.04393 0.0
C1731 C 0.08605 0.75648 0.05903 0.0
C1732 C 0.1084 0.78758 0.06327 0.0
C1733 C 0.11046 0.81146 0.05148 0.0
C1734 C 0.08946 0.80432 0.0363 0.0
H1735 H 0.08487 0.7814 0.97599 0.0
H1736 H 0.09462 0.80999 0.99445 0.0
H1737 H 0.09625 0.77521 0.99921 0.0
H1738 H 0.04794 0.72526 0.04131 0.0
H1739 H 0.08387 0.73751 0.06779 0.0
H1740 H 0.19369 0.90497 0.45389 0.0
H1741 H 0.20593 0.9415 0.48062 0.0
H1742 H 0.30352 0.98653 0.4662 0.0
H1743 H 0.29158 0.95075 0.43965 0.0
H1744 H 0.24515 0.95668 0.51234 0.0
H1745 H 0.28616 0.059 0.46524 0.0
H1746 H 0.26412 0.01941 0.45657 0.0
H1747 H 0.30553 0.03728 0.46038 0.0
C1748 C 0.21777 0.92235 0.45666 0.0
C1749 C 0.24163 0.92515 0.44457 0.0
C1750 C 0.22471 0.94334 0.47182 0.0
C1751 C 0.25555 0.96739 0.47503 0.0
C1752 C 0.27946 0.96887 0.46364 0.0
H1753 H 0.35492 0.07437 0.57047 0.0
H1754 H 0.33008 0.03863 0.54404 0.0
C1755 C 0.27259 0.94815 0.44856 0.0
C1756 C 0.26332 0.99115 0.49018 0.0
H1757 H 0.30314 0.06999 0.49785 0.0
C1758 C 0.25737 0.98143 0.50916 0.0
C1759 C 0.27867 0.02351 0.48606 0.0
C1760 C 0.2837 0.03543 0.46594 0.0
C1761 C 0.26819 1.00319 0.52412 0.0
C1762 C 0.28593 0.0355 0.52001 0.0
C1763 C 0.29003 0.04525 0.50103 0.0
C1764 C 0.3024 0.05911 0.53517 0.0
C1765 C 0.26096 0.9913 0.54424 0.0
C1766 C 0.29656 0.08384 0.53833 0.0
C1767 C 0.31118 0.1048 0.55344 0.0
C1768 C 0.33186 0.10128 0.56552 0.0
C1769 C 0.33882 0.07753 0.56159 0.0
C1770 C 0.32441 0.05685 0.54656 0.0
H1771 H 0.23946 0.96806 0.54492 0.0
H1772 H 0.28051 0.98873 0.54986 0.0
H1773 H 0.25796 1.00772 0.55358 0.0
H1774 H 0.27997 0.08629 0.52952 0.0
H1775 H 0.30526 0.12277 0.55616 0.0
loop_
_geom_bond_atom_site_label_1
_geom_bond_atom_site_label_2
_geom_bond_distance
_geom_bond_site_symmetry_2
_ccdc_geom_bond_type
Eu0 C9 2.828 . S
Eu0 O11 2.392 . S
Eu0 O13 2.418 . S
Eu0 O18 2.373 . S
Eu0 O21 2.488 . S
Eu0 O22 2.471 . S
Eu0 O23 2.349 . S
Eu1 O10 2.373 . S
Eu1 O14 2.488 . S
Eu1 O15 2.471 . S
Eu1 O16 2.349 . S
Eu1 O19 2.392 . S
Eu1 O20 2.418 . S
Eu1 C30 2.828 . S
C2 O20 1.244 . S
C2 O23 1.265 . S
C3 C4 1.379 . S
C3 C7 1.373 . S
C3 C9 1.505 . S
C4 C3 1.379 . S
C4 C6 1.369 . S
C4 H32 0.930 . S
C5 C7 1.383 . S
C5 C8 1.382 . S
C5 H33 0.930 . S
C6 C4 1.369 . S
C6 C8 1.392 . S
C6 H34 0.930 . S
C7 C3 1.373 . S
C7 C5 1.383 . S
C7 H35 0.931 . S
C8 C5 1.382 . S
C8 C6 1.392 . S
C9 Eu0 2.828 . S
C9 C3 1.505 . S
C9 O21 1.249 . S
C9 O22 1.244 . S
O10 Eu1 2.373 . S
O10 C12 1.258 . S
O11 Eu0 2.392 . S
O11 C12 1.242 . S
C12 O10 1.258 . S
C12 O11 1.242 . S
O13 Eu0 2.418 . S
O13 C17 1.244 . S
O14 Eu1 2.488 . S
O14 C30 1.249 . S
O15 Eu1 2.471 . S
O15 C30 1.244 . S
O16 Eu1 2.349 . S
O16 C17 1.265 . S
C17 O13 1.244 . S
C17 O16 1.265 . S
O18 Eu0 2.373 . S
O18 C31 1.258 . S
O19 Eu1 2.392 . S
O19 C31 1.242 . S
O20 Eu1 2.418 . S
O20 C2 1.244 . S
O21 Eu0 2.488 . S
O21 C9 1.249 . S
O22 Eu0 2.471 . S
O22 C9 1.244 . S
O23 Eu0 2.349 . S
O23 C2 1.265 . S
C24 C25 1.379 . S
C24 C28 1.373 . S
C24 C30 1.505 . S
C25 C24 1.379 . S
C25 C27 1.369 . S
C25 H36 0.930 . S
C26 C28 1.383 . S
C26 C29 1.382 . S
C26 H37 0.930 . S
C27 C25 1.369 . S
C27 C29 1.392 . S
C27 H38 0.930 . S
C28 C24 1.373 . S
C28 C26 1.383 . S
C28 H39 0.931 . S
C29 C26 1.382 . S
C29 C27 1.392 . S
C30 Eu1 2.828 . S
C30 O14 1.249 . S
C30 O15 1.244 . S
C30 C24 1.505 . S
C31 O18 1.258 . S
C31 O19 1.242 . S
H32 C4 0.930 . S
H33 C5 0.930 . S
H34 C6 0.930 . S
H35 C7 0.931 . S
H36 C25 0.930 . S
H37 C26 0.930 . S
H38 C27 0.930 . S
H39 C28 0.931 . S
Eu40 C49 2.828 . S
Eu40 O51 2.392 . S
Eu40 O53 2.418 . S
Eu40 O58 2.373 . S
Eu40 O61 2.488 . S
Eu40 O62 2.471 . S
Eu40 O63 2.349 . S
Eu41 O50 2.373 . S
Eu41 O54 2.488 . S
Eu41 O55 2.471 . S
Eu41 O56 2.349 . S
Eu41 O59 2.392 . S
Eu41 O60 2.418 . S
Eu41 C70 2.828 . S
C42 O60 1.244 . S
C42 O63 1.265 . S
C43 C44 1.379 . S
C43 C47 1.373 . S
C43 C49 1.505 . S
C44 C43 1.379 . S
C44 C46 1.369 . S
C44 H72 0.930 . S
C45 C47 1.383 . S
C45 C48 1.382 . S
C45 H73 0.930 . S
C46 C44 1.369 . S
C46 C48 1.392 . S
C46 H74 0.930 . S
C47 C43 1.373 . S
C47 C45 1.383 . S
C47 H75 0.931 . S
C48 C45 1.382 . S
C48 C46 1.392 . S
C49 Eu40 2.828 . S
C49 C43 1.505 . S
C49 O61 1.249 . S
C49 O62 1.244 . S
O50 Eu41 2.373 . S
O50 C52 1.258 . S
O51 Eu40 2.392 . S
O51 C52 1.242 . S
C52 O50 1.258 . S
C52 O51 1.242 . S
O53 Eu40 2.418 . S
O53 C57 1.244 . S
O54 Eu41 2.488 . S
O54 C70 1.249 . S
O55 Eu41 2.471 . S
O55 C70 1.244 . S
O56 Eu41 2.349 . S
O56 C57 1.265 . S
C57 O53 1.244 . S
C57 O56 1.265 . S
O58 Eu40 2.373 . S
O58 C71 1.258 . S
O59 Eu41 2.392 . S
O59 C71 1.242 . S
O60 Eu41 2.418 . S
O60 C42 1.244 . S
O61 Eu40 2.488 . S
O61 C49 1.249 . S
O62 Eu40 2.471 . S
O62 C49 1.244 . S
O63 Eu40 2.349 . S
O63 C42 1.265 . S
C64 C65 1.379 . S
C64 C68 1.373 . S
C64 C70 1.505 . S
C65 C64 1.379 . S
C65 C67 1.369 1_655 S
C65 H76 0.930 . S
C66 C68 1.383 1_455 S
C66 C69 1.382 . S
C66 H77 0.930 . S
C67 C65 1.369 1_455 S
C67 C69 1.392 . S
C67 H78 0.930 . S
C68 C64 1.373 . S
C68 C66 1.383 1_655 S
C68 H79 0.931 . S
C69 C66 1.382 . S
C69 C67 1.392 . S
C70 Eu41 2.828 . S
C70 O54 1.249 . S
C70 O55 1.244 . S
C70 C64 1.505 . S
C71 O58 1.258 . S
C71 O59 1.242 . S
H72 C44 0.930 . S
H73 C45 0.930 . S
H74 C46 0.930 . S
H75 C47 0.931 . S
H76 C65 0.930 . S
H77 C66 0.930 . S
H78 C67 0.930 . S
H79 C68 0.931 . S
Eu80 C89 2.828 . S
Eu80 O91 2.392 . S
Eu80 O93 2.418 . S
Eu80 O98 2.373 . S
Eu80 O101 2.488 . S
Eu80 O102 2.471 . S
Eu80 O103 2.349 . S
Eu81 O90 2.373 . S
Eu81 O94 2.488 . S
Eu81 O95 2.471 . S
Eu81 O96 2.349 . S
Eu81 O99 2.392 . S
Eu81 O100 2.418 . S
Eu81 C110 2.828 . S
C82 O100 1.244 . S
C82 O103 1.265 . S
C83 C84 1.379 . S
C83 C87 1.373 . S
C83 C89 1.505 . S
C84 C83 1.379 . S
C84 C86 1.369 . S
C84 H112 0.930 . S
C85 C87 1.383 . S
C85 C88 1.382 . S
C85 H113 0.930 . S
C86 C84 1.369 . S
C86 C88 1.392 . S
C86 H114 0.930 . S
C87 C83 1.373 . S
C87 C85 1.383 . S
C87 H115 0.931 . S
C88 C85 1.382 . S
C88 C86 1.392 . S
C89 Eu80 2.828 . S
C89 C83 1.505 . S
C89 O101 1.249 . S
C89 O102 1.244 . S
O90 Eu81 2.373 . S
O90 C92 1.258 . S
O91 Eu80 2.392 . S
O91 C92 1.242 . S
C92 O90 1.258 . S
C92 O91 1.242 . S
O93 Eu80 2.418 . S
O93 C97 1.244 . S
O94 Eu81 2.488 . S
O94 C110 1.249 . S
O95 Eu81 2.471 . S
O95 C110 1.244 . S
O96 Eu81 2.349 . S
O96 C97 1.265 . S
C97 O93 1.244 . S
C97 O96 1.265 . S
O98 Eu80 2.373 . S
O98 C111 1.258 . S
O99 Eu81 2.392 . S
O99 C111 1.242 . S
O100 Eu81 2.418 . S
O100 C82 1.244 . S
O101 Eu80 2.488 . S
O101 C89 1.249 . S
O102 Eu80 2.471 . S
O102 C89 1.244 . S
O103 Eu80 2.349 . S
O103 C82 1.265 . S
C104 C105 1.379 . S
C104 C108 1.373 . S
C104 C110 1.505 . S
C105 C104 1.379 . S
C105 C107 1.369 1_565 S
C105 H116 0.930 . S
C106 C108 1.383 1_545 S
C106 C109 1.382 . S
C106 H117 0.930 . S
C107 C105 1.369 1_545 S
C107 C109 1.392 . S
C107 H118 0.930 . S
C108 C104 1.373 . S
C108 C106 1.383 1_565 S
C108 H119 0.931 . S
C109 C106 1.382 . S
C109 C107 1.392 . S
C110 Eu81 2.828 . S
C110 O94 1.249 . S
C110 O95 1.244 . S
C110 C104 1.505 . S
C111 O98 1.258 . S
C111 O99 1.242 . S
H112 C84 0.930 . S
H113 C85 0.930 . S
H114 C86 0.930 . S
H115 C87 0.931 . S
H116 C105 0.930 . S
H117 C106 0.930 . S
H118 C107 0.930 . S
H119 C108 0.931 . S
Eu120 C129 2.828 . S
Eu120 O131 2.392 . S
Eu120 O133 2.418 . S
Eu120 O138 2.373 . S
Eu120 O141 2.488 . S
Eu120 O142 2.471 . S
Eu120 O143 2.349 . S
Eu121 O130 2.373 . S
Eu121 O134 2.488 . S
Eu121 O135 2.471 . S
Eu121 O136 2.349 . S
Eu121 O139 2.392 . S
Eu121 O140 2.418 . S
Eu121 C150 2.828 . S
C122 O140 1.244 . S
C122 O143 1.265 . S
C123 C124 1.379 . S
C123 C127 1.373 . S
C123 C129 1.505 . S
C124 C123 1.379 . S
C124 C126 1.369 . S
C124 H152 0.930 . S
C125 C127 1.383 . S
C125 C128 1.382 . S
C125 H153 0.930 . S
C126 C124 1.369 . S
C126 C128 1.392 . S
C126 H154 0.930 . S
C127 C123 1.373 . S
C127 C125 1.383 . S
C127 H155 0.931 . S
C128 C125 1.382 . S
C128 C126 1.392 . S
C129 Eu120 2.828 . S
C129 C123 1.505 . S
C129 O141 1.249 . S
C129 O142 1.244 . S
O130 Eu121 2.373 . S
O130 C132 1.258 . S
O131 Eu120 2.392 . S
O131 C132 1.242 . S
C132 O130 1.258 . S
C132 O131 1.242 . S
O133 Eu120 2.418 . S
O133 C137 1.244 . S
O134 Eu121 2.488 . S
O134 C150 1.249 . S
O135 Eu121 2.471 . S
O135 C150 1.244 . S
O136 Eu121 2.349 . S
O136 C137 1.265 . S
C137 O133 1.244 . S
C137 O136 1.265 . S
O138 Eu120 2.373 . S
O138 C151 1.258 . S
O139 Eu121 2.392 . S
O139 C151 1.242 . S
O140 Eu121 2.418 . S
O140 C122 1.244 . S
O141 Eu120 2.488 . S
O141 C129 1.249 . S
O142 Eu120 2.471 . S
O142 C129 1.244 . S
O143 Eu120 2.349 . S
O143 C122 1.265 . S
C144 C145 1.379 . S
C144 C148 1.373 . S
C144 C150 1.505 . S
C145 C144 1.379 . S
C145 C147 1.369 . S
C145 H156 0.930 . S
C146 C148 1.383 . S
C146 C149 1.382 . S
C146 H157 0.930 . S
C147 C145 1.369 . S
C147 C149 1.392 . S
C147 H158 0.930 . S
C148 C144 1.373 . S
C148 C146 1.383 . S
C148 H159 0.931 . S
C149 C146 1.382 . S
C149 C147 1.392 . S
C150 Eu121 2.828 . S
C150 O134 1.249 . S
C150 O135 1.244 . S
C150 C144 1.505 . S
C151 O138 1.258 . S
C151 O139 1.242 . S
H152 C124 0.930 . S
H153 C125 0.930 . S
H154 C126 0.930 . S
H155 C127 0.931 . S
H156 C145 0.930 . S
H157 C146 0.930 . S
H158 C147 0.930 . S
H159 C148 0.931 . S
Eu160 C169 2.828 . S
Eu160 O171 2.392 . S
Eu160 O173 2.418 . S
Eu160 O178 2.373 . S
Eu160 O181 2.488 . S
Eu160 O182 2.471 . S
Eu160 O183 2.349 . S
Eu161 O170 2.373 . S
Eu161 O174 2.488 . S
Eu161 O175 2.471 . S
Eu161 O176 2.349 . S
Eu161 O179 2.392 . S
Eu161 O180 2.418 . S
Eu161 C190 2.828 . S
C162 O180 1.244 . S
C162 O183 1.265 . S
C163 C164 1.379 . S
C163 C167 1.373 . S
C163 C169 1.505 . S
C164 C163 1.379 . S
C164 C166 1.369 . S
C164 H192 0.930 . S
C165 C167 1.383 . S
C165 C168 1.382 . S
C165 H193 0.930 . S
C166 C164 1.369 . S
C166 C168 1.392 . S
C166 H194 0.930 . S
C167 C163 1.373 . S
C167 C165 1.383 . S
C167 H195 0.931 . S
C168 C165 1.382 . S
C168 C166 1.392 . S
C169 Eu160 2.828 . S
C169 C163 1.505 . S
C169 O181 1.249 . S
C169 O182 1.244 . S
O170 Eu161 2.373 . S
O170 C172 1.258 . S
O171 Eu160 2.392 . S
O171 C172 1.242 . S
C172 O170 1.258 . S
C172 O171 1.242 . S
O173 Eu160 2.418 . S
O173 C177 1.244 . S
O174 Eu161 2.488 . S
O174 C190 1.249 . S
O175 Eu161 2.471 . S
O175 C190 1.244 . S
O176 Eu161 2.349 . S
O176 C177 1.265 . S
C177 O173 1.244 . S
C177 O176 1.265 . S
O178 Eu160 2.373 . S
O178 C191 1.258 . S
O179 Eu161 2.392 . S
O179 C191 1.242 . S
O180 Eu161 2.418 . S
O180 C162 1.244 . S
O181 Eu160 2.488 . S
O181 C169 1.249 . S
O182 Eu160 2.471 . S
O182 C169 1.244 . S
O183 Eu160 2.349 . S
O183 C162 1.265 . S
C184 C185 1.379 . S
C184 C188 1.373 . S
C184 C190 1.505 . S
C185 C184 1.379 . S
C185 C187 1.369 1_455 S
C185 H196 0.930 . S
C186 C188 1.383 1_655 S
C186 C189 1.382 . S
C186 H197 0.930 . S
C187 C185 1.369 1_655 S
C187 C189 1.392 . S
C187 H198 0.930 . S
C188 C184 1.373 . S
C188 C186 1.383 1_455 S
C188 H199 0.931 . S
C189 C186 1.382 . S
C189 C187 1.392 . S
C190 Eu161 2.828 . S
C190 O174 1.249 . S
C190 O175 1.244 . S
C190 C184 1.505 . S
C191 O178 1.258 . S
C191 O179 1.242 . S
H192 C164 0.930 . S
H193 C165 0.930 . S
H194 C166 0.930 . S
H195 C167 0.931 . S
H196 C185 0.930 . S
H197 C186 0.930 . S
H198 C187 0.930 . S
H199 C188 0.931 . S
Eu200 C209 2.828 . S
Eu200 O211 2.392 . S
Eu200 O213 2.418 . S
Eu200 O218 2.373 . S
Eu200 O221 2.488 . S
Eu200 O222 2.471 . S
Eu200 O223 2.349 . S
Eu201 O210 2.373 . S
Eu201 O214 2.488 . S
Eu201 O215 2.471 . S
Eu201 O216 2.349 . S
Eu201 O219 2.392 . S
Eu201 O220 2.418 . S
Eu201 C230 2.828 . S
C202 O220 1.244 . S
C202 O223 1.265 . S
C203 C204 1.379 . S
C203 C207 1.373 . S
C203 C209 1.505 . S
C204 C203 1.379 . S
C204 C206 1.369 . S
C204 H232 0.930 . S
C205 C207 1.383 . S
C205 C208 1.382 . S
C205 H233 0.930 . S
C206 C204 1.369 . S
C206 C208 1.392 . S
C206 H234 0.930 . S
C207 C203 1.373 . S
C207 C205 1.383 . S
C207 H235 0.931 . S
C208 C205 1.382 . S
C208 C206 1.392 . S
C209 Eu200 2.828 . S
C209 C203 1.505 . S
C209 O221 1.249 . S
C209 O222 1.244 . S
O210 Eu201 2.373 . S
O210 C212 1.258 . S
O211 Eu200 2.392 . S
O211 C212 1.242 . S
C212 O210 1.258 . S
C212 O211 1.242 . S
O213 Eu200 2.418 . S
O213 C217 1.244 . S
O214 Eu201 2.488 . S
O214 C230 1.249 . S
O215 Eu201 2.471 . S
O215 C230 1.244 . S
O216 Eu201 2.349 . S
O216 C217 1.265 . S
C217 O213 1.244 . S
C217 O216 1.265 . S
O218 Eu200 2.373 . S
O218 C231 1.258 . S
O219 Eu201 2.392 . S
O219 C231 1.242 . S
O220 Eu201 2.418 . S
O220 C202 1.244 . S
O221 Eu200 2.488 . S
O221 C209 1.249 . S
O222 Eu200 2.471 . S
O222 C209 1.244 . S
O223 Eu200 2.349 . S
O223 C202 1.265 . S
C224 C225 1.379 . S
C224 C228 1.373 . S
C224 C230 1.505 . S
C225 C224 1.379 . S
C225 C227 1.369 1_545 S
C225 H236 0.930 . S
C226 C228 1.383 1_565 S
C226 C229 1.382 . S
C226 H237 0.930 . S
C227 C225 1.369 1_565 S
C227 C229 1.392 . S
C227 H238 0.930 . S
C228 C224 1.373 . S
C228 C226 1.383 1_545 S
C228 H239 0.931 . S
C229 C226 1.382 . S
C229 C227 1.392 . S
C230 Eu201 2.828 . S
C230 O214 1.249 . S
C230 O215 1.244 . S
C230 C224 1.505 . S
C231 O218 1.258 . S
C231 O219 1.242 . S
H232 C204 0.930 . S
H233 C205 0.930 . S
H234 C206 0.930 . S
H235 C207 0.931 . S
H236 C225 0.930 . S
H237 C226 0.930 . S
H238 C227 0.930 . S
H239 C228 0.931 . S
Eu240 C249 2.828 . S
Eu240 O251 2.392 . S
Eu240 O253 2.418 . S
Eu240 O258 2.373 . S
Eu240 O261 2.488 . S
Eu240 O262 2.471 . S
Eu240 O263 2.349 . S
Eu241 O250 2.373 . S
Eu241 O254 2.488 . S
Eu241 O255 2.471 . S
Eu241 O256 2.349 . S
Eu241 O259 2.392 . S
Eu241 O260 2.418 . S
Eu241 C270 2.828 . S
C242 O260 1.244 . S
C242 O263 1.265 . S
C243 C244 1.379 . S
C243 C247 1.373 . S
C243 C249 1.505 . S
C244 C243 1.379 . S
C244 C246 1.369 . S
C244 H272 0.930 . S
C245 C247 1.383 . S
C245 C248 1.382 . S
C245 H273 0.930 . S
C246 C244 1.369 . S
C246 C248 1.392 . S
C246 H274 0.930 . S
C247 C243 1.373 . S
C247 C245 1.383 . S
C247 H275 0.931 . S
C248 C245 1.382 . S
C248 C246 1.392 . S
C249 Eu240 2.828 . S
C249 C243 1.505 . S
C249 O261 1.249 . S
C249 O262 1.244 . S
O250 Eu241 2.373 . S
O250 C252 1.258 . S
O251 Eu240 2.392 . S
O251 C252 1.242 . S
C252 O250 1.258 . S
C252 O251 1.242 . S
O253 Eu240 2.418 . S
O253 C257 1.244 . S
O254 Eu241 2.488 . S
O254 C270 1.249 . S
O255 Eu241 2.471 . S
O255 C270 1.244 . S
O256 Eu241 2.349 . S
O256 C257 1.265 . S
C257 O253 1.244 . S
C257 O256 1.265 . S
O258 Eu240 2.373 . S
O258 C271 1.258 . S
O259 Eu241 2.392 . S
O259 C271 1.242 . S
O260 Eu241 2.418 . S
O260 C242 1.244 . S
O261 Eu240 2.488 . S
O261 C249 1.249 . S
O262 Eu240 2.471 . S
O262 C249 1.244 . S
O263 Eu240 2.349 . S
O263 C242 1.265 . S
C264 C265 1.379 . S
C264 C268 1.373 . S
C264 C270 1.505 . S
C265 C264 1.379 . S
C265 C267 1.369 . S
C265 H276 0.930 . S
C266 C268 1.383 . S
C266 C269 1.382 . S
C266 H277 0.930 . S
C267 C265 1.369 . S
C267 C269 1.392 . S
C267 H278 0.930 . S
C268 C264 1.373 . S
C268 C266 1.383 . S
C268 H279 0.931 . S
C269 C266 1.382 . S
C269 C267 1.392 . S
C270 Eu241 2.828 . S
C270 O254 1.249 . S
C270 O255 1.244 . S
C270 C264 1.505 . S
C271 O258 1.258 . S
C271 O259 1.242 . S
H272 C244 0.930 . S
H273 C245 0.930 . S
H274 C246 0.930 . S
H275 C247 0.931 . S
H276 C265 0.930 . S
H277 C266 0.930 . S
H278 C267 0.930 . S
H279 C268 0.931 . S
Eu280 C289 2.828 . S
Eu280 O291 2.392 . S
Eu280 O293 2.418 . S
Eu280 O298 2.373 . S
Eu280 O301 2.488 . S
Eu280 O302 2.471 . S
Eu280 O303 2.349 . S
Eu281 O290 2.373 . S
Eu281 O294 2.488 . S
Eu281 O295 2.471 . S
Eu281 O296 2.349 . S
Eu281 O299 2.392 . S
Eu281 O300 2.418 . S
Eu281 C310 2.828 . S
C282 O300 1.244 . S
C282 O303 1.265 . S
C283 C284 1.379 . S
C283 C287 1.373 . S
C283 C289 1.505 . S
C284 C283 1.379 . S
C284 C286 1.369 . S
C284 H312 0.930 . S
C285 C287 1.383 . S
C285 C288 1.382 . S
C285 H313 0.930 . S
C286 C284 1.369 . S
C286 C288 1.392 . S
C286 H314 0.930 . S
C287 C283 1.373 . S
C287 C285 1.383 . S
C287 H315 0.931 . S
C288 C285 1.382 . S
C288 C286 1.392 . S
C289 Eu280 2.828 . S
C289 C283 1.505 . S
C289 O301 1.249 . S
C289 O302 1.244 . S
O290 Eu281 2.373 . S
O290 C292 1.258 . S
O291 Eu280 2.392 . S
O291 C292 1.242 . S
C292 O290 1.258 . S
C292 O291 1.242 . S
O293 Eu280 2.418 . S
O293 C297 1.244 . S
O294 Eu281 2.488 . S
O294 C310 1.249 . S
O295 Eu281 2.471 . S
O295 C310 1.244 . S
O296 Eu281 2.349 . S
O296 C297 1.265 . S
C297 O293 1.244 . S
C297 O296 1.265 . S
O298 Eu280 2.373 . S
O298 C311 1.258 . S
O299 Eu281 2.392 . S
O299 C311 1.242 . S
O300 Eu281 2.418 . S
O300 C282 1.244 . S
O301 Eu280 2.488 . S
O301 C289 1.249 . S
O302 Eu280 2.471 . S
O302 C289 1.244 . S
O303 Eu280 2.349 . S
O303 C282 1.265 . S
C304 C305 1.379 . S
C304 C308 1.373 . S
C304 C310 1.505 . S
C305 C304 1.379 . S
C305 C307 1.369 1_655 S
C305 H316 0.930 . S
C306 C308 1.383 1_455 S
C306 C309 1.382 . S
C306 H317 0.930 . S
C307 C305 1.369 1_455 S
C307 C309 1.392 . S
C307 H318 0.930 . S
C308 C304 1.373 . S
C308 C306 1.383 1_655 S
C308 H319 0.931 . S
C309 C306 1.382 . S
C309 C307 1.392 . S
C310 Eu281 2.828 . S
C310 O294 1.249 . S
C310 O295 1.244 . S
C310 C304 1.505 . S
C311 O298 1.258 . S
C311 O299 1.242 . S
H312 C284 0.930 . S
H313 C285 0.930 . S
H314 C286 0.930 . S
H315 C287 0.931 . S
H316 C305 0.930 . S
H317 C306 0.930 . S
H318 C307 0.930 . S
H319 C308 0.931 . S
Eu320 C329 2.828 . S
Eu320 O331 2.392 . S
Eu320 O333 2.418 . S
Eu320 O338 2.373 . S
Eu320 O341 2.488 . S
Eu320 O342 2.471 . S
Eu320 O343 2.349 . S
Eu321 O330 2.373 . S
Eu321 O334 2.488 . S
Eu321 O335 2.471 . S
Eu321 O336 2.349 . S
Eu321 O339 2.392 . S
Eu321 O340 2.418 . S
Eu321 C350 2.828 . S
C322 O340 1.244 . S
C322 O343 1.265 . S
C323 C324 1.379 . S
C323 C327 1.373 . S
C323 C329 1.505 . S
C324 C323 1.379 . S
C324 C326 1.369 . S
C324 H352 0.930 . S
C325 C327 1.383 . S
C325 C328 1.382 . S
C325 H353 0.930 . S
C326 C324 1.369 . S
C326 C328 1.392 . S
C326 H354 0.930 . S
C327 C323 1.373 . S
C327 C325 1.383 . S
C327 H355 0.931 . S
C328 C325 1.382 . S
C328 C326 1.392 . S
C329 Eu320 2.828 . S
C329 C323 1.505 . S
C329 O341 1.249 . S
C329 O342 1.244 . S
O330 Eu321 2.373 . S
O330 C332 1.258 . S
O331 Eu320 2.392 . S
O331 C332 1.242 . S
C332 O330 1.258 . S
C332 O331 1.242 . S
O333 Eu320 2.418 . S
O333 C337 1.244 . S
O334 Eu321 2.488 . S
O334 C350 1.249 . S
O335 Eu321 2.471 . S
O335 C350 1.244 . S
O336 Eu321 2.349 . S
O336 C337 1.265 . S
C337 O333 1.244 . S
C337 O336 1.265 . S
O338 Eu320 2.373 . S
O338 C351 1.258 . S
O339 Eu321 2.392 . S
O339 C351 1.242 . S
O340 Eu321 2.418 . S
O340 C322 1.244 . S
O341 Eu320 2.488 . S
O341 C329 1.249 . S
O342 Eu320 2.471 . S
O342 C329 1.244 . S
O343 Eu320 2.349 . S
O343 C322 1.265 . S
C344 C345 1.379 . S
C344 C348 1.373 . S
C344 C350 1.505 . S
C345 C344 1.379 . S
C345 C347 1.369 1_565 S
C345 H356 0.930 . S
C346 C348 1.383 1_545 S
C346 C349 1.382 . S
C346 H357 0.930 . S
C347 C345 1.369 1_545 S
C347 C349 1.392 . S
C347 H358 0.930 . S
C348 C344 1.373 . S
C348 C346 1.383 1_565 S
C348 H359 0.931 . S
C349 C346 1.382 . S
C349 C347 1.392 . S
C350 Eu321 2.828 . S
C350 O334 1.249 . S
C350 O335 1.244 . S
C350 C344 1.505 . S
C351 O338 1.258 . S
C351 O339 1.242 . S
H352 C324 0.930 . S
H353 C325 0.930 . S
H354 C326 0.930 . S
H355 C327 0.931 . S
H356 C345 0.930 . S
H357 C346 0.930 . S
H358 C347 0.930 . S
H359 C348 0.931 . S
Eu360 C369 2.828 . S
Eu360 O371 2.392 . S
Eu360 O373 2.418 . S
Eu360 O378 2.373 . S
Eu360 O381 2.488 . S
Eu360 O382 2.471 . S
Eu360 O383 2.349 . S
Eu361 O370 2.373 . S
Eu361 O374 2.488 . S
Eu361 O375 2.471 . S
Eu361 O376 2.349 . S
Eu361 O379 2.392 . S
Eu361 O380 2.418 . S
Eu361 C390 2.828 . S
C362 O380 1.244 . S
C362 O383 1.265 . S
C363 C364 1.379 . S
C363 C367 1.373 . S
C363 C369 1.505 . S
C364 C363 1.379 . S
C364 C366 1.369 . S
C364 H392 0.930 . S
C365 C367 1.383 . S
C365 C368 1.382 . S
C365 H393 0.930 . S
C366 C364 1.369 . S
C366 C368 1.392 . S
C366 H394 0.930 . S
C367 C363 1.373 . S
C367 C365 1.383 . S
C367 H395 0.931 . S
C368 C365 1.382 . S
C368 C366 1.392 . S
C369 Eu360 2.828 . S
C369 C363 1.505 . S
C369 O381 1.249 . S
C369 O382 1.244 . S
O370 Eu361 2.373 . S
O370 C372 1.258 . S
O371 Eu360 2.392 . S
O371 C372 1.242 . S
C372 O370 1.258 . S
C372 O371 1.242 . S
O373 Eu360 2.418 . S
O373 C377 1.244 . S
O374 Eu361 2.488 . S
O374 C390 1.249 . S
O375 Eu361 2.471 . S
O375 C390 1.244 . S
O376 Eu361 2.349 . S
O376 C377 1.265 . S
C377 O373 1.244 . S
C377 O376 1.265 . S
O378 Eu360 2.373 . S
O378 C391 1.258 . S
O379 Eu361 2.392 . S
O379 C391 1.242 . S
O380 Eu361 2.418 . S
O380 C362 1.244 . S
O381 Eu360 2.488 . S
O381 C369 1.249 . S
O382 Eu360 2.471 . S
O382 C369 1.244 . S
O383 Eu360 2.349 . S
O383 C362 1.265 . S
C384 C385 1.379 . S
C384 C388 1.373 . S
C384 C390 1.505 . S
C385 C384 1.379 . S
C385 C387 1.369 . S
C385 H396 0.930 . S
C386 C388 1.383 . S
C386 C389 1.382 . S
C386 H397 0.930 . S
C387 C385 1.369 . S
C387 C389 1.392 . S
C387 H398 0.930 . S
C388 C384 1.373 . S
C388 C386 1.383 . S
C388 H399 0.931 . S
C389 C386 1.382 . S
C389 C387 1.392 . S
C390 Eu361 2.828 . S
C390 O374 1.249 . S
C390 O375 1.244 . S
C390 C384 1.505 . S
C391 O378 1.258 . S
C391 O379 1.242 . S
H392 C364 0.930 . S
H393 C365 0.930 . S
H394 C366 0.930 . S
H395 C367 0.931 . S
H396 C385 0.930 . S
H397 C386 0.930 . S
H398 C387 0.930 . S
H399 C388 0.931 . S
Eu400 C409 2.828 . S
Eu400 O411 2.392 . S
Eu400 O413 2.418 . S
Eu400 O418 2.373 . S
Eu400 O421 2.488 . S
Eu400 O422 2.471 . S
Eu400 O423 2.349 . S
Eu401 O410 2.373 . S
Eu401 O414 2.488 . S
Eu401 O415 2.471 . S
Eu401 O416 2.349 . S
Eu401 O419 2.392 . S
Eu401 O420 2.418 . S
Eu401 C430 2.828 . S
C402 O420 1.244 . S
C402 O423 1.265 . S
C403 C404 1.379 . S
C403 C407 1.373 . S
C403 C409 1.505 . S
C404 C403 1.379 . S
C404 C406 1.369 . S
C404 H432 0.930 . S
C405 C407 1.383 . S
C405 C408 1.382 . S
C405 H433 0.930 . S
C406 C404 1.369 . S
C406 C408 1.392 . S
C406 H434 0.930 . S
C407 C403 1.373 . S
C407 C405 1.383 . S
C407 H435 0.931 . S
C408 C405 1.382 . S
C408 C406 1.392 . S
C409 Eu400 2.828 . S
C409 C403 1.505 . S
C409 O421 1.249 . S
C409 O422 1.244 . S
O410 Eu401 2.373 . S
O410 C412 1.258 . S
O411 Eu400 2.392 . S
O411 C412 1.242 . S
C412 O410 1.258 . S
C412 O411 1.242 . S
O413 Eu400 2.418 . S
O413 C417 1.244 . S
O414 Eu401 2.488 . S
O414 C430 1.249 . S
O415 Eu401 2.471 . S
O415 C430 1.244 . S
O416 Eu401 2.349 . S
O416 C417 1.265 . S
C417 O413 1.244 . S
C417 O416 1.265 . S
O418 Eu400 2.373 . S
O418 C431 1.258 . S
O419 Eu401 2.392 . S
O419 C431 1.242 . S
O420 Eu401 2.418 . S
O420 C402 1.244 . S
O421 Eu400 2.488 . S
O421 C409 1.249 . S
O422 Eu400 2.471 . S
O422 C409 1.244 . S
O423 Eu400 2.349 . S
O423 C402 1.265 . S
C424 C425 1.379 . S
C424 C428 1.373 . S
C424 C430 1.505 . S
C425 C424 1.379 . S
C425 C427 1.369 1_455 S
C425 H436 0.930 . S
C426 C428 1.383 1_655 S
C426 C429 1.382 . S
C426 H437 0.930 . S
C427 C425 1.369 1_655 S
C427 C429 1.392 . S
C427 H438 0.930 . S
C428 C424 1.373 . S
C428 C426 1.383 1_455 S
C428 H439 0.931 . S
C429 C426 1.382 . S
C429 C427 1.392 . S
C430 Eu401 2.828 . S
C430 O414 1.249 . S
C430 O415 1.244 . S
C430 C424 1.505 . S
C431 O418 1.258 . S
C431 O419 1.242 . S
H432 C404 0.930 . S
H433 C405 0.930 . S
H434 C406 0.930 . S
H435 C407 0.931 . S
H436 C425 0.930 . S
H437 C426 0.930 . S
H438 C427 0.930 . S
H439 C428 0.931 . S
Eu440 C449 2.828 . S
Eu440 O451 2.392 . S
Eu440 O453 2.418 . S
Eu440 O458 2.373 . S
Eu440 O461 2.488 . S
Eu440 O462 2.471 . S
Eu440 O463 2.349 . S
Eu441 O450 2.373 . S
Eu441 O454 2.488 . S
Eu441 O455 2.471 . S
Eu441 O456 2.349 . S
Eu441 O459 2.392 . S
Eu441 O460 2.418 . S
Eu441 C470 2.828 . S
C442 O460 1.244 . S
C442 O463 1.265 . S
C443 C444 1.379 . S
C443 C447 1.373 . S
C443 C449 1.505 . S
C444 C443 1.379 . S
C444 C446 1.369 . S
C444 H472 0.930 . S
C445 C447 1.383 . S
C445 C448 1.382 . S
C445 H473 0.930 . S
C446 C444 1.369 . S
C446 C448 1.392 . S
C446 H474 0.930 . S
C447 C443 1.373 . S
C447 C445 1.383 . S
C447 H475 0.931 . S
C448 C445 1.382 . S
C448 C446 1.392 . S
C449 Eu440 2.828 . S
C449 C443 1.505 . S
C449 O461 1.249 . S
C449 O462 1.244 . S
O450 Eu441 2.373 . S
O450 C452 1.258 . S
O451 Eu440 2.392 . S
O451 C452 1.242 . S
C452 O450 1.258 . S
C452 O451 1.242 . S
O453 Eu440 2.418 . S
O453 C457 1.244 . S
O454 Eu441 2.488 . S
O454 C470 1.249 . S
O455 Eu441 2.471 . S
O455 C470 1.244 . S
O456 Eu441 2.349 . S
O456 C457 1.265 . S
C457 O453 1.244 . S
C457 O456 1.265 . S
O458 Eu440 2.373 . S
O458 C471 1.258 . S
O459 Eu441 2.392 . S
O459 C471 1.242 . S
O460 Eu441 2.418 . S
O460 C442 1.244 . S
O461 Eu440 2.488 . S
O461 C449 1.249 . S
O462 Eu440 2.471 . S
O462 C449 1.244 . S
O463 Eu440 2.349 . S
O463 C442 1.265 . S
C464 C465 1.379 . S
C464 C468 1.373 . S
C464 C470 1.505 . S
C465 C464 1.379 . S
C465 C467 1.369 1_545 S
C465 H476 0.930 . S
C466 C468 1.383 1_565 S
C466 C469 1.382 . S
C466 H477 0.930 . S
C467 C465 1.369 1_565 S
C467 C469 1.392 . S
C467 H478 0.930 . S
C468 C464 1.373 . S
C468 C466 1.383 1_545 S
C468 H479 0.931 . S
C469 C466 1.382 . S
C469 C467 1.392 . S
C470 Eu441 2.828 . S
C470 O454 1.249 . S
C470 O455 1.244 . S
C470 C464 1.505 . S
C471 O458 1.258 . S
C471 O459 1.242 . S
H472 C444 0.930 . S
H473 C445 0.930 . S
H474 C446 0.930 . S
H475 C447 0.931 . S
H476 C465 0.930 . S
H477 C466 0.930 . S
H478 C467 0.930 . S
H479 C468 0.931 . S
H480 C488 0.929 . S
H481 C490 0.930 . S
H482 C492 0.930 . S
H483 C495 0.929 . S
H484 C498 0.930 . S
H485 C500 0.960 1_545 S
H486 C500 0.960 . S
H487 C500 0.960 . S
C488 H480 0.929 . S
C488 C489 1.377 . S
C488 C490 1.384 . S
C489 C488 1.377 . S
C489 C495 1.390 . S
C490 H481 0.930 . S
C490 C488 1.384 . S
C490 C491 1.372 . S
C491 C490 1.372 . S
C491 C492 1.400 . S
C491 C496 1.490 . S
C492 H482 0.930 . S
C492 C491 1.400 . S
C492 C495 1.386 . S
H493 C509 0.930 . S
H494 C510 0.931 . S
C495 H483 0.929 . S
C495 C489 1.390 . S
C495 C492 1.386 . S
C496 C491 1.490 . S
C496 C498 1.395 . S
C496 C499 1.403 . S
H497 C503 0.930 . S
C498 H484 0.930 . S
C498 C496 1.395 . S
C498 C501 1.403 1_565 S
C499 C496 1.403 . S
C499 C500 1.524 . S
C499 C503 1.400 1_565 S
C500 H485 0.960 1_565 S
C500 H486 0.960 . S
C500 H487 0.960 . S
C500 C499 1.524 . S
C501 C498 1.403 1_545 S
C501 C502 1.392 . S
C501 C505 1.495 . S
C502 C501 1.392 . S
C502 C503 1.385 . S
C502 C504 1.478 . S
C503 H497 0.930 . S
C503 C499 1.400 1_545 S
C503 C502 1.385 . S
C504 C502 1.478 . S
C504 C506 1.381 . S
C504 C510 1.383 . S
C505 C501 1.495 . S
C505 H511 0.959 . S
C505 H512 0.961 . S
C505 H513 0.960 . S
C506 C504 1.381 . S
C506 C507 1.394 . S
C506 H514 0.930 . S
C507 C506 1.394 . S
C507 C508 1.383 . S
C507 H515 0.929 . S
C508 C507 1.383 . S
C508 C509 1.377 . S
C509 H493 0.930 . S
C509 C508 1.377 . S
C509 C510 1.379 . S
C510 H494 0.931 . S
C510 C504 1.383 . S
C510 C509 1.379 . S
H511 C505 0.959 . S
H512 C505 0.961 . S
H513 C505 0.960 . S
H514 C506 0.930 . S
H515 C507 0.929 . S
H516 C524 0.929 . S
H517 C526 0.930 . S
H518 C528 0.930 . S
H519 C531 0.929 . S
H520 C534 0.930 . S
H521 C536 0.960 . S
H522 C536 0.960 . S
H523 C536 0.960 . S
C524 H516 0.929 . S
C524 C525 1.377 . S
C524 C526 1.384 . S
C525 C524 1.377 . S
C525 C531 1.390 . S
C526 H517 0.930 . S
C526 C524 1.384 . S
C526 C527 1.372 . S
C527 C526 1.372 . S
C527 C528 1.400 . S
C527 C532 1.490 . S
C528 H518 0.930 . S
C528 C527 1.400 . S
C528 C531 1.386 . S
H529 C545 0.930 . S
H530 C546 0.931 . S
C531 H519 0.929 . S
C531 C525 1.390 . S
C531 C528 1.386 . S
C532 C527 1.490 . S
C532 C534 1.395 . S
C532 C535 1.403 . S
H533 C539 0.930 . S
C534 H520 0.930 . S
C534 C532 1.395 . S
C534 C537 1.403 . S
C535 C532 1.403 . S
C535 C536 1.524 . S
C535 C539 1.400 . S
C536 H521 0.960 . S
C536 H522 0.960 . S
C536 H523 0.960 . S
C536 C535 1.524 . S
C537 C534 1.403 . S
C537 C538 1.392 . S
C537 C541 1.495 . S
C538 C537 1.392 . S
C538 C539 1.385 . S
C538 C540 1.478 . S
C539 H533 0.930 . S
C539 C535 1.400 . S
C539 C538 1.385 . S
C540 C538 1.478 . S
C540 C542 1.381 . S
C540 C546 1.383 . S
C541 C537 1.495 . S
C541 H547 0.959 . S
C541 H548 0.961 . S
C541 H549 0.960 . S
C542 C540 1.381 . S
C542 C543 1.394 . S
C542 H550 0.930 . S
C543 C542 1.394 . S
C543 C544 1.383 . S
C543 H551 0.929 . S
C544 C543 1.383 . S
C544 C545 1.377 . S
C545 H529 0.930 . S
C545 C544 1.377 . S
C545 C546 1.379 . S
C546 H530 0.931 . S
C546 C540 1.383 . S
C546 C545 1.379 . S
H547 C541 0.959 . S
H548 C541 0.961 . S
H549 C541 0.960 . S
H550 C542 0.930 . S
H551 C543 0.929 . S
H552 C560 0.929 . S
H553 C562 0.930 . S
H554 C564 0.930 . S
H555 C567 0.929 . S
H556 C570 0.930 . S
H557 C572 0.960 1_455 S
H558 C572 0.960 . S
H559 C572 0.960 . S
C560 H552 0.929 . S
C560 C561 1.377 . S
C560 C562 1.384 . S
C561 C560 1.377 . S
C561 C567 1.390 . S
C562 H553 0.930 . S
C562 C560 1.384 . S
C562 C563 1.372 . S
C563 C562 1.372 . S
C563 C564 1.400 . S
C563 C568 1.490 . S
C564 H554 0.930 . S
C564 C563 1.400 . S
C564 C567 1.386 . S
H565 C581 0.930 . S
H566 C582 0.931 . S
C567 H555 0.929 . S
C567 C561 1.390 . S
C567 C564 1.386 . S
C568 C563 1.490 . S
C568 C570 1.395 . S
C568 C571 1.403 . S
H569 C575 0.930 . S
C570 H556 0.930 . S
C570 C568 1.395 . S
C570 C573 1.403 . S
C571 C568 1.403 . S
C571 C572 1.524 . S
C571 C575 1.400 1_655 S
C572 H557 0.960 1_655 S
C572 H558 0.960 . S
C572 H559 0.960 . S
C572 C571 1.524 . S
C573 C570 1.403 . S
C573 C574 1.392 1_655 S
C573 C577 1.495 . S
C574 C573 1.392 1_455 S
C574 C575 1.385 . S
C574 C576 1.478 . S
C575 H569 0.930 . S
C575 C571 1.400 1_455 S
C575 C574 1.385 . S
C576 C574 1.478 . S
C576 C578 1.381 . S
C576 C582 1.383 . S
C577 C573 1.495 . S
C577 H583 0.959 . S
C577 H584 0.961 1_655 S
C577 H585 0.960 1_655 S
C578 C576 1.381 . S
C578 C579 1.394 . S
C578 H586 0.930 . S
C579 C578 1.394 . S
C579 C580 1.383 . S
C579 H587 0.929 . S
C580 C579 1.383 . S
C580 C581 1.377 . S
C581 H565 0.930 . S
C581 C580 1.377 . S
C581 C582 1.379 . S
C582 H566 0.931 . S
C582 C576 1.383 . S
C582 C581 1.379 . S
H583 C577 0.959 . S
H584 C577 0.961 1_455 S
H585 C577 0.960 1_455 S
H586 C578 0.930 . S
H587 C579 0.929 . S
H588 C596 0.929 . S
H589 C598 0.930 . S
H590 C600 0.930 . S
H591 C603 0.929 . S
H592 C606 0.930 . S
H593 C608 0.960 . S
H594 C608 0.960 . S
H595 C608 0.960 . S
C596 H588 0.929 . S
C596 C597 1.377 . S
C596 C598 1.384 . S
C597 C596 1.377 . S
C597 C603 1.390 . S
C598 H589 0.930 . S
C598 C596 1.384 . S
C598 C599 1.372 . S
C599 C598 1.372 . S
C599 C600 1.400 . S
C599 C604 1.490 . S
C600 H590 0.930 . S
C600 C599 1.400 . S
C600 C603 1.386 . S
H601 C617 0.930 . S
H602 C618 0.931 . S
C603 H591 0.929 . S
C603 C597 1.390 . S
C603 C600 1.386 . S
C604 C599 1.490 . S
C604 C606 1.395 . S
C604 C607 1.403 . S
H605 C611 0.930 . S
C606 H592 0.930 . S
C606 C604 1.395 . S
C606 C609 1.403 1_565 S
C607 C604 1.403 . S
C607 C608 1.524 . S
C607 C611 1.400 1_565 S
C608 H593 0.960 . S
C608 H594 0.960 . S
C608 H595 0.960 . S
C608 C607 1.524 . S
C609 C606 1.403 1_545 S
C609 C610 1.392 . S
C609 C613 1.495 . S
C610 C609 1.392 . S
C610 C611 1.385 . S
C610 C612 1.478 . S
C611 H605 0.930 . S
C611 C607 1.400 1_545 S
C611 C610 1.385 . S
C612 C610 1.478 . S
C612 C614 1.381 . S
C612 C618 1.383 . S
C613 C609 1.495 . S
C613 H619 0.959 . S
C613 H620 0.961 . S
C613 H621 0.960 . S
C614 C612 1.381 . S
C614 C615 1.394 . S
C614 H622 0.930 . S
C615 C614 1.394 . S
C615 C616 1.383 . S
C615 H623 0.929 . S
C616 C615 1.383 . S
C616 C617 1.377 . S
C617 H601 0.930 . S
C617 C616 1.377 . S
C617 C618 1.379 . S
C618 H602 0.931 . S
C618 C612 1.383 . S
C618 C617 1.379 . S
H619 C613 0.959 . S
H620 C613 0.961 . S
H621 C613 0.960 . S
H622 C614 0.930 . S
H623 C615 0.929 . S
H624 C632 0.929 . S
H625 C634 0.930 . S
H626 C636 0.930 . S
H627 C639 0.929 . S
H628 C642 0.930 . S
H629 C644 0.960 . S
H630 C644 0.960 . S
H631 C644 0.960 . S
C632 H624 0.929 . S
C632 C633 1.377 . S
C632 C634 1.384 . S
C633 C632 1.377 . S
C633 C639 1.390 . S
C634 H625 0.930 . S
C634 C632 1.384 . S
C634 C635 1.372 . S
C635 C634 1.372 . S
C635 C636 1.400 . S
C635 C640 1.490 . S
C636 H626 0.930 . S
C636 C635 1.400 . S
C636 C639 1.386 . S
H637 C653 0.930 . S
H638 C654 0.931 . S
C639 H627 0.929 . S
C639 C633 1.390 . S
C639 C636 1.386 . S
C640 C635 1.490 . S
C640 C642 1.395 . S
C640 C643 1.403 . S
H641 C647 0.930 . S
C642 H628 0.930 . S
C642 C640 1.395 . S
C642 C645 1.403 . S
C643 C640 1.403 . S
C643 C644 1.524 . S
C643 C647 1.400 . S
C644 H629 0.960 . S
C644 H630 0.960 . S
C644 H631 0.960 . S
C644 C643 1.524 . S
C645 C642 1.403 . S
C645 C646 1.392 . S
C645 C649 1.495 . S
C646 C645 1.392 . S
C646 C647 1.385 . S
C646 C648 1.478 . S
C647 H641 0.930 . S
C647 C643 1.400 . S
C647 C646 1.385 . S
C648 C646 1.478 . S
C648 C650 1.381 . S
C648 C654 1.383 . S
C649 C645 1.495 . S
C649 H655 0.959 . S
C649 H656 0.961 . S
C649 H657 0.960 . S
C650 C648 1.381 . S
C650 C651 1.394 . S
C650 H658 0.930 . S
C651 C650 1.394 . S
C651 C652 1.383 . S
C651 H659 0.929 . S
C652 C651 1.383 . S
C652 C653 1.377 . S
C653 H637 0.930 . S
C653 C652 1.377 . S
C653 C654 1.379 . S
C654 H638 0.931 . S
C654 C648 1.383 . S
C654 C653 1.379 . S
H655 C649 0.959 . S
H656 C649 0.961 . S
H657 C649 0.960 . S
H658 C650 0.930 . S
H659 C651 0.929 . S
H660 C668 0.929 . S
H661 C670 0.930 . S
H662 C672 0.930 . S
H663 C675 0.929 . S
H664 C678 0.930 . S
H665 C680 0.929 1_455 S
H666 C680 0.959 . S
H667 C680 0.981 . S
C668 H660 0.929 . S
C668 C669 1.377 . S
C668 C670 1.384 . S
C669 C668 1.377 . S
C669 C675 1.390 . S
C670 H661 0.930 . S
C670 C668 1.384 . S
C670 C671 1.372 . S
C671 C670 1.372 . S
C671 C672 1.400 . S
C671 C676 1.490 . S
C672 H662 0.930 . S
C672 C671 1.400 . S
C672 C675 1.386 . S
H673 C689 0.930 . S
H674 C690 0.931 . S
C675 H663 0.929 . S
C675 C669 1.390 . S
C675 C672 1.386 . S
C676 C671 1.490 . S
C676 C678 1.395 . S
C676 C679 1.403 1_655 S
H677 C683 0.930 . S
C678 H664 0.930 . S
C678 C676 1.395 . S
C678 C681 1.403 1_655 S
C679 C676 1.403 1_455 S
C679 C680 1.537 1_455 S
C679 C683 1.400 . S
C680 H665 0.929 1_655 S
C680 H666 0.959 . S
C680 H667 0.981 . S
C680 C679 1.537 1_655 S
C681 C678 1.403 1_455 S
C681 C682 1.392 . S
C681 C685 1.495 . S
C682 C681 1.392 . S
C682 C683 1.385 . S
C682 C684 1.478 . S
C683 H677 0.930 . S
C683 C679 1.400 . S
C683 C682 1.385 . S
C684 C682 1.478 . S
C684 C686 1.381 . S
C684 C690 1.383 . S
C685 C681 1.495 . S
C685 H691 0.959 1_455 S
C685 H692 0.961 . S
C685 H693 0.960 . S
C686 C684 1.381 . S
C686 C687 1.394 . S
C686 H694 0.930 . S
C687 C686 1.394 . S
C687 C688 1.383 . S
C687 H695 0.929 . S
C688 C687 1.383 . S
C688 C689 1.377 . S
C689 H673 0.930 . S
C689 C688 1.377 . S
C689 C690 1.379 . S
C690 H674 0.931 . S
C690 C684 1.383 . S
C690 C689 1.379 . S
H691 C685 0.959 1_655 S
H692 C685 0.961 . S
H693 C685 0.960 . S
H694 C686 0.930 . S
H695 C687 0.929 . S
H696 C704 0.929 . S
H697 C706 0.930 . S
H698 C708 0.930 . S
H699 C711 0.929 . S
H700 C714 0.930 1_455 S
H701 C716 0.960 . S
H702 C716 0.960 . S
H703 C716 0.960 . S
C704 H696 0.929 . S
C704 C705 1.377 . S
C704 C706 1.384 . S
C705 C704 1.377 . S
C705 C711 1.390 . S
C706 H697 0.930 . S
C706 C704 1.384 . S
C706 C707 1.372 . S
C707 C706 1.372 . S
C707 C708 1.400 . S
C707 C712 1.490 . S
C708 H698 0.930 . S
C708 C707 1.400 . S
C708 C711 1.386 . S
H709 C725 0.930 . S
H710 C726 0.931 . S
C711 H699 0.929 . S
C711 C705 1.390 . S
C711 C708 1.386 . S
C712 C707 1.490 . S
C712 C714 1.395 1_455 S
C712 C715 1.403 . S
H713 C719 0.930 . S
C714 H700 0.930 1_655 S
C714 C712 1.395 1_655 S
C714 C717 1.403 . S
C715 C712 1.403 . S
C715 C716 1.524 . S
C715 C719 1.400 1_455 S
C716 H701 0.960 . S
C716 H702 0.960 . S
C716 H703 0.960 . S
C716 C715 1.524 . S
C717 C714 1.403 . S
C717 C718 1.392 . S
C717 C721 1.495 . S
C718 C717 1.392 . S
C718 C719 1.385 . S
C718 C720 1.478 . S
C719 H713 0.930 . S
C719 C715 1.400 1_655 S
C719 C718 1.385 . S
C720 C718 1.478 . S
C720 C722 1.381 . S
C720 C726 1.383 . S
C721 C717 1.495 . S
C721 H727 0.959 . S
C721 H728 0.961 . S
C721 H729 0.960 . S
C722 C720 1.381 . S
C722 C723 1.394 . S
C722 H730 0.930 . S
C723 C722 1.394 . S
C723 C724 1.383 . S
C723 H731 0.929 . S
C724 C723 1.383 . S
C724 C725 1.377 . S
C725 H709 0.930 . S
C725 C724 1.377 . S
C725 C726 1.379 . S
C726 H710 0.931 . S
C726 C720 1.383 . S
C726 C725 1.379 . S
H727 C721 0.959 . S
H728 C721 0.961 . S
H729 C721 0.960 . S
H730 C722 0.930 . S
H731 C723 0.929 . S
H732 C740 0.929 . S
H733 C742 0.930 . S
H734 C744 0.930 . S
H735 C747 0.929 . S
H736 C750 0.930 . S
H737 C752 0.960 1_545 S
H738 C752 0.960 . S
H739 C752 0.960 . S
C740 H732 0.929 . S
C740 C741 1.377 . S
C740 C742 1.384 . S
C741 C740 1.377 . S
C741 C747 1.390 . S
C742 H733 0.930 . S
C742 C740 1.384 . S
C742 C743 1.372 . S
C743 C742 1.372 . S
C743 C744 1.400 . S
C743 C748 1.490 . S
C744 H734 0.930 . S
C744 C743 1.400 . S
C744 C747 1.386 . S
H745 C761 0.930 . S
H746 C762 0.931 . S
C747 H735 0.929 . S
C747 C741 1.390 . S
C747 C744 1.386 . S
C748 C743 1.490 . S
C748 C750 1.395 . S
C748 C751 1.403 . S
H749 C755 0.930 . S
C750 H736 0.930 . S
C750 C748 1.395 . S
C750 C753 1.403 . S
C751 C748 1.403 . S
C751 C752 1.524 . S
C751 C755 1.400 1_565 S
C752 H737 0.960 1_565 S
C752 H738 0.960 . S
C752 H739 0.960 . S
C752 C751 1.524 . S
C753 C750 1.403 . S
C753 C754 1.392 1_565 S
C753 C757 1.495 . S
C754 C753 1.392 1_545 S
C754 C755 1.385 . S
C754 C756 1.478 . S
C755 H749 0.930 . S
C755 C751 1.400 1_545 S
C755 C754 1.385 . S
C756 C754 1.478 . S
C756 C758 1.381 . S
C756 C762 1.383 . S
C757 C753 1.495 . S
C757 H763 0.959 . S
C757 H764 0.961 1_565 S
C757 H765 0.960 1_565 S
C758 C756 1.381 . S
C758 C759 1.394 . S
C758 H766 0.930 . S
C759 C758 1.394 . S
C759 C760 1.383 . S
C759 H767 0.929 . S
C760 C759 1.383 . S
C760 C761 1.377 . S
C761 H745 0.930 . S
C761 C760 1.377 . S
C761 C762 1.379 . S
C762 H746 0.931 . S
C762 C756 1.383 . S
C762 C761 1.379 . S
H763 C757 0.959 . S
H764 C757 0.961 1_545 S
H765 C757 0.960 1_545 S
H766 C758 0.930 . S
H767 C759 0.929 . S
H768 C776 0.929 . S
H769 C778 0.930 . S
H770 C780 0.930 . S
H771 C783 0.929 . S
H772 C786 0.930 . S
H773 C788 0.960 . S
H774 C788 0.960 . S
H775 C788 0.960 . S
C776 H768 0.929 . S
C776 C777 1.377 . S
C776 C778 1.384 . S
C777 C776 1.377 . S
C777 C783 1.390 . S
C778 H769 0.930 . S
C778 C776 1.384 . S
C778 C779 1.372 . S
C779 C778 1.372 . S
C779 C780 1.400 . S
C779 C784 1.490 . S
C780 H770 0.930 . S
C780 C779 1.400 . S
C780 C783 1.386 . S
H781 C797 0.930 . S
H782 C798 0.931 . S
C783 H771 0.929 . S
C783 C777 1.390 . S
C783 C780 1.386 . S
C784 C779 1.490 . S
C784 C786 1.395 . S
C784 C787 1.403 . S
H785 C791 0.930 . S
C786 H772 0.930 . S
C786 C784 1.395 . S
C786 C789 1.403 . S
C787 C784 1.403 . S
C787 C788 1.524 . S
C787 C791 1.400 . S
C788 H773 0.960 . S
C788 H774 0.960 . S
C788 H775 0.960 . S
C788 C787 1.524 . S
C789 C786 1.403 . S
C789 C790 1.392 . S
C789 C793 1.495 . S
C790 C789 1.392 . S
C790 C791 1.385 . S
C790 C792 1.478 . S
C791 H785 0.930 . S
C791 C787 1.400 . S
C791 C790 1.385 . S
C792 C790 1.478 . S
C792 C794 1.381 . S
C792 C798 1.383 . S
C793 C789 1.495 . S
C793 H799 0.959 . S
C793 H800 0.961 . S
C793 H801 0.960 . S
C794 C792 1.381 . S
C794 C795 1.394 . S
C794 H802 0.930 . S
C795 C794 1.394 . S
C795 C796 1.383 . S
C795 H803 0.929 . S
C796 C795 1.383 . S
C796 C797 1.377 . S
C797 H781 0.930 . S
C797 C796 1.377 . S
C797 C798 1.379 . S
C798 H782 0.931 . S
C798 C792 1.383 . S
C798 C797 1.379 . S
H799 C793 0.959 . S
H800 C793 0.961 . S
H801 C793 0.960 . S
H802 C794 0.930 . S
H803 C795 0.929 . S
H804 C812 0.929 . S
H805 C814 0.930 . S
H806 C816 0.930 . S
H807 C819 0.929 . S
H808 C822 0.930 . S
H809 C824 0.960 1_655 S
H810 C824 0.960 . S
H811 C824 0.960 . S
C812 H804 0.929 . S
C812 C813 1.377 . S
C812 C814 1.384 . S
C813 C812 1.377 . S
C813 C819 1.390 . S
C814 H805 0.930 . S
C814 C812 1.384 . S
C814 C815 1.372 . S
C815 C814 1.372 . S
C815 C816 1.400 . S
C815 C820 1.490 . S
C816 H806 0.930 . S
C816 C815 1.400 . S
C816 C819 1.386 . S
H817 C833 0.930 . S
H818 C834 0.931 . S
C819 H807 0.929 . S
C819 C813 1.390 . S
C819 C816 1.386 . S
C820 C815 1.490 . S
C820 C822 1.395 . S
C820 C823 1.403 . S
H821 C827 0.930 . S
C822 H808 0.930 . S
C822 C820 1.395 . S
C822 C825 1.403 . S
C823 C820 1.403 . S
C823 C824 1.524 . S
C823 C827 1.400 1_455 S
C824 H809 0.960 1_455 S
C824 H810 0.960 . S
C824 H811 0.960 . S
C824 C823 1.524 . S
C825 C822 1.403 . S
C825 C826 1.392 1_455 S
C825 C829 1.495 . S
C826 C825 1.392 1_655 S
C826 C827 1.385 . S
C826 C828 1.478 . S
C827 H821 0.930 . S
C827 C823 1.400 1_655 S
C827 C826 1.385 . S
C828 C826 1.478 . S
C828 C830 1.381 . S
C828 C834 1.383 . S
C829 C825 1.495 . S
C829 H835 0.959 . S
C829 H836 0.961 1_455 S
C829 H837 0.960 1_455 S
C830 C828 1.381 . S
C830 C831 1.394 . S
C830 H838 0.930 . S
C831 C830 1.394 . S
C831 C832 1.383 . S
C831 H839 0.929 . S
C832 C831 1.383 . S
C832 C833 1.377 . S
C833 H817 0.930 . S
C833 C832 1.377 . S
C833 C834 1.379 . S
C834 H818 0.931 . S
C834 C828 1.383 . S
C834 C833 1.379 . S
H835 C829 0.959 . S
H836 C829 0.961 1_655 S
H837 C829 0.960 1_655 S
H838 C830 0.930 . S
H839 C831 0.929 . S
H840 C848 0.929 . S
H841 C850 0.930 . S
H842 C852 0.930 . S
H843 C855 0.929 . S
H844 C858 0.930 . S
H845 C860 0.930 1_565 S
H846 C860 0.960 . S
H847 C860 0.960 . S
C848 H840 0.929 . S
C848 C849 1.377 . S
C848 C850 1.384 . S
C849 C848 1.377 . S
C849 C855 1.390 . S
C850 H841 0.930 . S
C850 C848 1.384 . S
C850 C851 1.372 . S
C851 C850 1.372 . S
C851 C852 1.400 . S
C851 C856 1.490 . S
C852 H842 0.930 . S
C852 C851 1.400 . S
C852 C855 1.386 . S
H853 C869 0.930 . S
H854 C870 0.931 . S
C855 H843 0.929 . S
C855 C849 1.390 . S
C855 C852 1.386 . S
C856 C851 1.490 . S
C856 C858 1.395 . S
C856 C859 1.403 . S
H857 C863 0.930 . S
C858 H844 0.930 . S
C858 C856 1.395 . S
C858 C861 1.403 . S
C859 C856 1.403 . S
C859 C860 1.524 . S
C859 C863 1.400 1_545 S
C860 H845 0.930 1_545 S
C860 H846 0.960 . S
C860 H847 0.960 . S
C860 C859 1.524 . S
C861 C858 1.403 . S
C861 C862 1.392 1_545 S
C861 C865 1.510 1_545 S
C862 C861 1.392 1_565 S
C862 C863 1.385 . S
C862 C864 1.478 . S
C863 H857 0.930 . S
C863 C859 1.400 1_565 S
C863 C862 1.385 . S
C864 C862 1.478 . S
C864 C866 1.381 . S
C864 C870 1.383 . S
C865 C861 1.510 1_565 S
C865 H871 0.921 1_565 S
C865 H872 0.987 . S
C865 H873 0.959 . S
C866 C864 1.381 . S
C866 C867 1.394 . S
C866 H874 0.930 . S
C867 C866 1.394 . S
C867 C868 1.383 . S
C867 H875 0.929 . S
C868 C867 1.383 . S
C868 C869 1.377 . S
C869 H853 0.930 . S
C869 C868 1.377 . S
C869 C870 1.379 . S
C870 H854 0.931 . S
C870 C864 1.383 . S
C870 C869 1.379 . S
H871 C865 0.921 1_545 S
H872 C865 0.987 . S
H873 C865 0.959 . S
H874 C866 0.930 . S
H875 C867 0.929 . S
H876 C884 0.929 . S
H877 C886 0.930 . S
H878 C888 0.930 . S
H879 C891 0.929 . S
H880 C894 0.930 . S
H881 C896 0.960 . S
H882 C896 0.960 . S
H883 C896 0.960 . S
C884 H876 0.929 . S
C884 C885 1.377 . S
C884 C886 1.384 . S
C885 C884 1.377 . S
C885 C891 1.390 . S
C886 H877 0.930 . S
C886 C884 1.384 . S
C886 C887 1.372 . S
C887 C886 1.372 . S
C887 C888 1.400 . S
C887 C892 1.490 . S
C888 H878 0.930 . S
C888 C887 1.400 . S
C888 C891 1.386 . S
H889 C905 0.930 . S
H890 C906 0.931 . S
C891 H879 0.929 . S
C891 C885 1.390 . S
C891 C888 1.386 . S
C892 C887 1.490 . S
C892 C894 1.395 . S
C892 C895 1.403 . S
H893 C899 0.930 . S
C894 H880 0.930 . S
C894 C892 1.395 . S
C894 C897 1.403 . S
C895 C892 1.403 . S
C895 C896 1.524 . S
C895 C899 1.400 . S
C896 H881 0.960 . S
C896 H882 0.960 . S
C896 H883 0.960 . S
C896 C895 1.524 . S
C897 C894 1.403 . S
C897 C898 1.392 . S
C897 C901 1.495 . S
C898 C897 1.392 . S
C898 C899 1.385 . S
C898 C900 1.478 . S
C899 H893 0.930 . S
C899 C895 1.400 . S
C899 C898 1.385 . S
C900 C898 1.478 . S
C900 C902 1.381 . S
C900 C906 1.383 . S
C901 C897 1.495 . S
C901 H907 0.959 . S
C901 H908 0.961 . S
C901 H909 0.960 . S
C902 C900 1.381 . S
C902 C903 1.394 . S
C902 H910 0.930 . S
C903 C902 1.394 . S
C903 C904 1.383 . S
C903 H911 0.929 . S
C904 C903 1.383 . S
C904 C905 1.377 . S
C905 H889 0.930 . S
C905 C904 1.377 . S
C905 C906 1.379 . S
C906 H890 0.931 . S
C906 C900 1.383 . S
C906 C905 1.379 . S
H907 C901 0.959 . S
H908 C901 0.961 . S
H909 C901 0.960 . S
H910 C902 0.930 . S
H911 C903 0.929 . S
H912 C920 0.929 . S
H913 C922 0.930 . S
H914 C924 0.930 . S
H915 C927 0.929 . S
H916 C930 0.930 . S
H917 C932 0.960 . S
H918 C932 0.960 . S
H919 C932 0.960 . S
C920 H912 0.929 . S
C920 C921 1.377 . S
C920 C922 1.384 . S
C921 C920 1.377 . S
C921 C927 1.390 . S
C922 H913 0.930 . S
C922 C920 1.384 . S
C922 C923 1.372 . S
C923 C922 1.372 . S
C923 C924 1.400 . S
C923 C928 1.490 . S
C924 H914 0.930 . S
C924 C923 1.400 . S
C924 C927 1.386 . S
H925 C941 0.930 . S
H926 C942 0.931 . S
C927 H915 0.929 . S
C927 C921 1.390 . S
C927 C924 1.386 . S
C928 C923 1.490 . S
C928 C930 1.395 . S
C928 C931 1.403 . S
H929 C935 0.930 . S
C930 H916 0.930 . S
C930 C928 1.395 . S
C930 C933 1.403 . S
C931 C928 1.403 . S
C931 C932 1.524 . S
C931 C935 1.400 . S
C932 H917 0.960 . S
C932 H918 0.960 . S
C932 H919 0.960 . S
C932 C931 1.524 . S
C933 C930 1.403 . S
C933 C934 1.392 . S
C933 C937 1.495 . S
C934 C933 1.392 . S
C934 C935 1.385 . S
C934 C936 1.478 . S
C935 H929 0.930 . S
C935 C931 1.400 . S
C935 C934 1.385 . S
C936 C934 1.478 . S
C936 C938 1.381 . S
C936 C942 1.383 . S
C937 C933 1.495 . S
C937 H943 0.959 . S
C937 H944 0.961 . S
C937 H945 0.960 . S
C938 C936 1.381 . S
C938 C939 1.394 . S
C938 H946 0.930 . S
C939 C938 1.394 . S
C939 C940 1.383 . S
C939 H947 0.929 . S
C940 C939 1.383 . S
C940 C941 1.377 . S
C941 H925 0.930 . S
C941 C940 1.377 . S
C941 C942 1.379 . S
C942 H926 0.931 . S
C942 C936 1.383 . S
C942 C941 1.379 . S
H943 C937 0.959 . S
H944 C937 0.961 . S
H945 C937 0.960 . S
H946 C938 0.930 . S
H947 C939 0.929 . S
H948 C956 0.929 . S
H949 C958 0.930 . S
H950 C960 0.930 . S
H951 C963 0.929 . S
H952 C966 0.930 . S
H953 C968 0.960 . S
H954 C968 0.960 . S
H955 C968 0.960 . S
C956 H948 0.929 . S
C956 C957 1.377 . S
C956 C958 1.384 . S
C957 C956 1.377 . S
C957 C963 1.390 . S
C958 H949 0.930 . S
C958 C956 1.384 . S
C958 C959 1.372 . S
C959 C958 1.372 . S
C959 C960 1.400 . S
C959 C964 1.490 . S
C960 H950 0.930 . S
C960 C959 1.400 . S
C960 C963 1.386 . S
H961 C977 0.930 . S
H962 C978 0.931 . S
C963 H951 0.929 . S
C963 C957 1.390 . S
C963 C960 1.386 . S
C964 C959 1.490 . S
C964 C966 1.395 . S
C964 C967 1.403 . S
H965 C971 0.930 . S
C966 H952 0.930 . S
C966 C964 1.395 . S
C966 C969 1.403 . S
C967 C964 1.403 . S
C967 C968 1.524 . S
C967 C971 1.400 . S
C968 H953 0.960 . S
C968 H954 0.960 . S
C968 H955 0.960 . S
C968 C967 1.524 . S
C969 C966 1.403 . S
C969 C970 1.392 . S
C969 C973 1.495 . S
C970 C969 1.392 . S
C970 C971 1.385 . S
C970 C972 1.478 . S
C971 H965 0.930 . S
C971 C967 1.400 . S
C971 C970 1.385 . S
C972 C970 1.478 . S
C972 C974 1.381 . S
C972 C978 1.383 . S
C973 C969 1.495 . S
C973 H979 0.959 . S
C973 H980 0.961 . S
C973 H981 0.960 . S
C974 C972 1.381 . S
C974 C975 1.394 . S
C974 H982 0.930 . S
C975 C974 1.394 . S
C975 C976 1.383 . S
C975 H983 0.929 . S
C976 C975 1.383 . S
C976 C977 1.377 . S
C977 H961 0.930 . S
C977 C976 1.377 . S
C977 C978 1.379 . S
C978 H962 0.931 . S
C978 C972 1.383 . S
C978 C977 1.379 . S
H979 C973 0.959 . S
H980 C973 0.961 . S
H981 C973 0.960 . S
H982 C974 0.930 . S
H983 C975 0.929 . S
H984 C992 0.929 . S
H985 C994 0.930 . S
H986 C996 0.930 . S
H987 C999 0.929 . S
H988 C1002 0.930 . S
H989 C1004 0.960 . S
H990 C1004 0.960 . S
H991 C1004 0.960 . S
C992 H984 0.929 . S
C992 C993 1.377 . S
C992 C994 1.384 . S
C993 C992 1.377 . S
C993 C999 1.390 . S
C994 H985 0.930 . S
C994 C992 1.384 . S
C994 C995 1.372 . S
C995 C994 1.372 . S
C995 C996 1.400 . S
C995 C1000 1.490 . S
C996 H986 0.930 . S
C996 C995 1.400 . S
C996 C999 1.386 . S
H997 C1013 0.930 . S
H998 C1014 0.931 . S
C999 H987 0.929 . S
C999 C993 1.390 . S
C999 C996 1.386 . S
C1000 C995 1.490 . S
C1000 C1002 1.395 . S
C1000 C1003 1.403 . S
H1001 C1007 0.930 . S
C1002 H988 0.930 . S
C1002 C1000 1.395 . S
C1002 C1005 1.403 . S
C1003 C1000 1.403 . S
C1003 C1004 1.524 . S
C1003 C1007 1.400 . S
C1004 H989 0.960 . S
C1004 H990 0.960 . S
C1004 H991 0.960 . S
C1004 C1003 1.524 . S
C1005 C1002 1.403 . S
C1005 C1006 1.392 . S
C1005 C1009 1.495 . S
C1006 C1005 1.392 . S
C1006 C1007 1.385 . S
C1006 C1008 1.478 . S
C1007 H1001 0.930 . S
C1007 C1003 1.400 . S
C1007 C1006 1.385 . S
C1008 C1006 1.478 . S
C1008 C1010 1.381 . S
C1008 C1014 1.383 . S
C1009 C1005 1.495 . S
C1009 H1015 0.959 . S
C1009 H1016 0.961 . S
C1009 H1017 0.960 . S
C1010 C1008 1.381 . S
C1010 C1011 1.394 . S
C1010 H1018 0.930 . S
C1011 C1010 1.394 . S
C1011 C1012 1.383 . S
C1011 H1019 0.929 . S
C1012 C1011 1.383 . S
C1012 C1013 1.377 . S
C1013 H997 0.930 . S
C1013 C1012 1.377 . S
C1013 C1014 1.379 . S
C1014 H998 0.931 . S
C1014 C1008 1.383 . S
C1014 C1013 1.379 . S
H1015 C1009 0.959 . S
H1016 C1009 0.961 . S
H1017 C1009 0.960 . S
H1018 C1010 0.930 . S
H1019 C1011 0.929 . S
H1020 C1028 0.929 . S
H1021 C1030 0.930 . S
H1022 C1032 0.930 . S
H1023 C1035 0.929 . S
H1024 C1038 0.930 . S
H1025 C1040 0.960 . S
H1026 C1040 0.960 . S
H1027 C1040 0.960 . S
C1028 H1020 0.929 . S
C1028 C1029 1.377 . S
C1028 C1030 1.384 . S
C1029 C1028 1.377 . S
C1029 C1035 1.390 . S
C1030 H1021 0.930 . S
C1030 C1028 1.384 . S
C1030 C1031 1.372 . S
C1031 C1030 1.372 . S
C1031 C1032 1.400 . S
C1031 C1036 1.490 . S
C1032 H1022 0.930 . S
C1032 C1031 1.400 . S
C1032 C1035 1.386 . S
H1033 C1049 0.930 . S
H1034 C1050 0.931 . S
C1035 H1023 0.929 . S
C1035 C1029 1.390 . S
C1035 C1032 1.386 . S
C1036 C1031 1.490 . S
C1036 C1038 1.395 . S
C1036 C1039 1.403 . S
H1037 C1043 0.930 . S
C1038 H1024 0.930 . S
C1038 C1036 1.395 . S
C1038 C1041 1.403 . S
C1039 C1036 1.403 . S
C1039 C1040 1.524 . S
C1039 C1043 1.400 . S
C1040 H1025 0.960 . S
C1040 H1026 0.960 . S
C1040 H1027 0.960 . S
C1040 C1039 1.524 . S
C1041 C1038 1.403 . S
C1041 C1042 1.392 . S
C1041 C1045 1.495 . S
C1042 C1041 1.392 . S
C1042 C1043 1.385 . S
C1042 C1044 1.478 . S
C1043 H1037 0.930 . S
C1043 C1039 1.400 . S
C1043 C1042 1.385 . S
C1044 C1042 1.478 . S
C1044 C1046 1.381 . S
C1044 C1050 1.383 . S
C1045 C1041 1.495 . S
C1045 H1051 0.959 . S
C1045 H1052 0.961 . S
C1045 H1053 0.960 . S
C1046 C1044 1.381 . S
C1046 C1047 1.394 . S
C1046 H1054 0.930 . S
C1047 C1046 1.394 . S
C1047 C1048 1.383 . S
C1047 H1055 0.929 . S
C1048 C1047 1.383 . S
C1048 C1049 1.377 . S
C1049 H1033 0.930 . S
C1049 C1048 1.377 . S
C1049 C1050 1.379 . S
C1050 H1034 0.931 . S
C1050 C1044 1.383 . S
C1050 C1049 1.379 . S
H1051 C1045 0.959 . S
H1052 C1045 0.961 . S
H1053 C1045 0.960 . S
H1054 C1046 0.930 . S
H1055 C1047 0.929 . S
H1056 C1064 0.929 . S
H1057 C1066 0.930 . S
H1058 C1068 0.930 . S
H1059 C1071 0.929 . S
H1060 C1074 0.930 . S
H1061 C1076 0.960 . S
H1062 C1076 0.960 . S
H1063 C1076 0.960 . S
C1064 H1056 0.929 . S
C1064 C1065 1.377 . S
C1064 C1066 1.384 . S
C1065 C1064 1.377 . S
C1065 C1071 1.390 . S
C1066 H1057 0.930 . S
C1066 C1064 1.384 . S
C1066 C1067 1.372 . S
C1067 C1066 1.372 . S
C1067 C1068 1.400 . S
C1067 C1072 1.490 . S
C1068 H1058 0.930 . S
C1068 C1067 1.400 . S
C1068 C1071 1.386 . S
H1069 C1085 0.930 . S
H1070 C1086 0.931 . S
C1071 H1059 0.929 . S
C1071 C1065 1.390 . S
C1071 C1068 1.386 . S
C1072 C1067 1.490 . S
C1072 C1074 1.395 . S
C1072 C1075 1.403 . S
H1073 C1079 0.930 . S
C1074 H1060 0.930 . S
C1074 C1072 1.395 . S
C1074 C1077 1.403 . S
C1075 C1072 1.403 . S
C1075 C1076 1.524 . S
C1075 C1079 1.400 . S
C1076 H1061 0.960 . S
C1076 H1062 0.960 . S
C1076 H1063 0.960 . S
C1076 C1075 1.524 . S
C1077 C1074 1.403 . S
C1077 C1078 1.392 . S
C1077 C1081 1.495 . S
C1078 C1077 1.392 . S
C1078 C1079 1.385 . S
C1078 C1080 1.478 . S
C1079 H1073 0.930 . S
C1079 C1075 1.400 . S
C1079 C1078 1.385 . S
C1080 C1078 1.478 . S
C1080 C1082 1.381 . S
C1080 C1086 1.383 . S
C1081 C1077 1.495 . S
C1081 H1087 0.959 . S
C1081 H1088 0.961 . S
C1081 H1089 0.960 . S
C1082 C1080 1.381 . S
C1082 C1083 1.394 . S
C1082 H1090 0.930 . S
C1083 C1082 1.394 . S
C1083 C1084 1.383 . S
C1083 H1091 0.929 . S
C1084 C1083 1.383 . S
C1084 C1085 1.377 . S
C1085 H1069 0.930 . S
C1085 C1084 1.377 . S
C1085 C1086 1.379 . S
C1086 H1070 0.931 . S
C1086 C1080 1.383 . S
C1086 C1085 1.379 . S
H1087 C1081 0.959 . S
H1088 C1081 0.961 . S
H1089 C1081 0.960 . S
H1090 C1082 0.930 . S
H1091 C1083 0.929 . S
H1092 C1100 0.929 . S
H1093 C1102 0.930 . S
H1094 C1104 0.930 . S
H1095 C1107 0.929 . S
H1096 C1110 0.930 . S
H1097 C1112 0.960 . S
H1098 C1112 0.960 . S
H1099 C1112 0.960 . S
C1100 H1092 0.929 . S
C1100 C1101 1.377 . S
C1100 C1102 1.384 . S
C1101 C1100 1.377 . S
C1101 C1107 1.390 . S
C1102 H1093 0.930 . S
C1102 C1100 1.384 . S
C1102 C1103 1.372 . S
C1103 C1102 1.372 . S
C1103 C1104 1.400 . S
C1103 C1108 1.490 . S
C1104 H1094 0.930 . S
C1104 C1103 1.400 . S
C1104 C1107 1.386 . S
H1105 C1121 0.930 . S
H1106 C1122 0.931 . S
C1107 H1095 0.929 . S
C1107 C1101 1.390 . S
C1107 C1104 1.386 . S
C1108 C1103 1.490 . S
C1108 C1110 1.395 . S
C1108 C1111 1.403 . S
H1109 C1115 0.930 . S
C1110 H1096 0.930 . S
C1110 C1108 1.395 . S
C1110 C1113 1.403 . S
C1111 C1108 1.403 . S
C1111 C1112 1.524 . S
C1111 C1115 1.400 . S
C1112 H1097 0.960 . S
C1112 H1098 0.960 . S
C1112 H1099 0.960 . S
C1112 C1111 1.524 . S
C1113 C1110 1.403 . S
C1113 C1114 1.392 . S
C1113 C1117 1.495 . S
C1114 C1113 1.392 . S
C1114 C1115 1.385 . S
C1114 C1116 1.478 . S
C1115 H1109 0.930 . S
C1115 C1111 1.400 . S
C1115 C1114 1.385 . S
C1116 C1114 1.478 . S
C1116 C1118 1.381 . S
C1116 C1122 1.383 . S
C1117 C1113 1.495 . S
C1117 H1123 0.959 . S
C1117 H1124 0.961 . S
C1117 H1125 0.960 . S
C1118 C1116 1.381 . S
C1118 C1119 1.394 . S
C1118 H1126 0.930 . S
C1119 C1118 1.394 . S
C1119 C1120 1.383 . S
C1119 H1127 0.929 . S
C1120 C1119 1.383 . S
C1120 C1121 1.377 . S
C1121 H1105 0.930 . S
C1121 C1120 1.377 . S
C1121 C1122 1.379 . S
C1122 H1106 0.931 . S
C1122 C1116 1.383 . S
C1122 C1121 1.379 . S
H1123 C1117 0.959 . S
H1124 C1117 0.961 . S
H1125 C1117 0.960 . S
H1126 C1118 0.930 . S
H1127 C1119 0.929 . S
H1128 C1136 0.929 . S
H1129 C1138 0.930 . S
H1130 C1140 0.930 . S
H1131 C1143 0.929 . S
H1132 C1146 0.930 . S
H1133 C1148 0.960 . S
H1134 C1148 0.960 . S
H1135 C1148 0.960 . S
C1136 H1128 0.929 . S
C1136 C1137 1.377 . S
C1136 C1138 1.384 . S
C1137 C1136 1.377 . S
C1137 C1143 1.390 . S
C1138 H1129 0.930 . S
C1138 C1136 1.384 . S
C1138 C1139 1.372 . S
C1139 C1138 1.372 . S
C1139 C1140 1.400 . S
C1139 C1144 1.490 . S
C1140 H1130 0.930 . S
C1140 C1139 1.400 . S
C1140 C1143 1.386 . S
H1141 C1157 0.930 . S
H1142 C1158 0.931 . S
C1143 H1131 0.929 . S
C1143 C1137 1.390 . S
C1143 C1140 1.386 . S
C1144 C1139 1.490 . S
C1144 C1146 1.395 . S
C1144 C1147 1.403 . S
H1145 C1151 0.930 . S
C1146 H1132 0.930 . S
C1146 C1144 1.395 . S
C1146 C1149 1.403 . S
C1147 C1144 1.403 . S
C1147 C1148 1.524 . S
C1147 C1151 1.400 . S
C1148 H1133 0.960 . S
C1148 H1134 0.960 . S
C1148 H1135 0.960 . S
C1148 C1147 1.524 . S
C1149 C1146 1.403 . S
C1149 C1150 1.392 . S
C1149 C1153 1.495 . S
C1150 C1149 1.392 . S
C1150 C1151 1.385 . S
C1150 C1152 1.478 . S
C1151 H1145 0.930 . S
C1151 C1147 1.400 . S
C1151 C1150 1.385 . S
C1152 C1150 1.478 . S
C1152 C1154 1.381 . S
C1152 C1158 1.383 . S
C1153 C1149 1.495 . S
C1153 H1159 0.959 . S
C1153 H1160 0.961 . S
C1153 H1161 0.960 . S
C1154 C1152 1.381 . S
C1154 C1155 1.394 . S
C1154 H1162 0.930 . S
C1155 C1154 1.394 . S
C1155 C1156 1.383 . S
C1155 H1163 0.929 . S
C1156 C1155 1.383 . S
C1156 C1157 1.377 . S
C1157 H1141 0.930 . S
C1157 C1156 1.377 . S
C1157 C1158 1.379 . S
C1158 H1142 0.931 . S
C1158 C1152 1.383 . S
C1158 C1157 1.379 . S
H1159 C1153 0.959 . S
H1160 C1153 0.961 . S
H1161 C1153 0.960 . S
H1162 C1154 0.930 . S
H1163 C1155 0.929 . S
H1164 C1172 0.929 . S
H1165 C1174 0.930 . S
H1166 C1176 0.930 . S
H1167 C1179 0.929 . S
H1168 C1182 0.930 . S
H1169 C1184 0.960 . S
H1170 C1184 0.960 . S
H1171 C1184 0.960 . S
C1172 H1164 0.929 . S
C1172 C1173 1.377 . S
C1172 C1174 1.384 . S
C1173 C1172 1.377 . S
C1173 C1179 1.390 . S
C1174 H1165 0.930 . S
C1174 C1172 1.384 . S
C1174 C1175 1.372 . S
C1175 C1174 1.372 . S
C1175 C1176 1.400 . S
C1175 C1180 1.490 . S
C1176 H1166 0.930 . S
C1176 C1175 1.400 . S
C1176 C1179 1.386 . S
H1177 C1193 0.930 . S
H1178 C1194 0.931 . S
C1179 H1167 0.929 . S
C1179 C1173 1.390 . S
C1179 C1176 1.386 . S
C1180 C1175 1.490 . S
C1180 C1182 1.395 . S
C1180 C1183 1.403 . S
H1181 C1187 0.930 . S
C1182 H1168 0.930 . S
C1182 C1180 1.395 . S
C1182 C1185 1.403 . S
C1183 C1180 1.403 . S
C1183 C1184 1.524 . S
C1183 C1187 1.400 . S
C1184 H1169 0.960 . S
C1184 H1170 0.960 . S
C1184 H1171 0.960 . S
C1184 C1183 1.524 . S
C1185 C1182 1.403 . S
C1185 C1186 1.392 . S
C1185 C1189 1.495 . S
C1186 C1185 1.392 . S
C1186 C1187 1.385 . S
C1186 C1188 1.478 . S
C1187 H1181 0.930 . S
C1187 C1183 1.400 . S
C1187 C1186 1.385 . S
C1188 C1186 1.478 . S
C1188 C1190 1.381 . S
C1188 C1194 1.383 . S
C1189 C1185 1.495 . S
C1189 H1195 0.959 . S
C1189 H1196 0.961 . S
C1189 H1197 0.960 . S
C1190 C1188 1.381 . S
C1190 C1191 1.394 . S
C1190 H1198 0.930 . S
C1191 C1190 1.394 . S
C1191 C1192 1.383 . S
C1191 H1199 0.929 . S
C1192 C1191 1.383 . S
C1192 C1193 1.377 . S
C1193 H1177 0.930 . S
C1193 C1192 1.377 . S
C1193 C1194 1.379 . S
C1194 H1178 0.931 . S
C1194 C1188 1.383 . S
C1194 C1193 1.379 . S
H1195 C1189 0.959 . S
H1196 C1189 0.961 . S
H1197 C1189 0.960 . S
H1198 C1190 0.930 . S
H1199 C1191 0.929 . S
H1200 C1208 0.929 . S
H1201 C1210 0.930 . S
H1202 C1212 0.930 . S
H1203 C1215 0.929 . S
H1204 C1218 0.930 . S
H1205 C1220 0.960 . S
H1206 C1220 0.960 . S
H1207 C1220 0.960 . S
C1208 H1200 0.929 . S
C1208 C1209 1.377 . S
C1208 C1210 1.384 . S
C1209 C1208 1.377 . S
C1209 C1215 1.390 . S
C1210 H1201 0.930 . S
C1210 C1208 1.384 . S
C1210 C1211 1.372 . S
C1211 C1210 1.372 . S
C1211 C1212 1.400 . S
C1211 C1216 1.490 . S
C1212 H1202 0.930 . S
C1212 C1211 1.400 . S
C1212 C1215 1.386 . S
H1213 C1229 0.930 . S
H1214 C1230 0.931 . S
C1215 H1203 0.929 . S
C1215 C1209 1.390 . S
C1215 C1212 1.386 . S
C1216 C1211 1.490 . S
C1216 C1218 1.395 . S
C1216 C1219 1.403 . S
H1217 C1223 0.930 . S
C1218 H1204 0.930 . S
C1218 C1216 1.395 . S
C1218 C1221 1.403 . S
C1219 C1216 1.403 . S
C1219 C1220 1.524 . S
C1219 C1223 1.400 . S
C1220 H1205 0.960 . S
C1220 H1206 0.960 . S
C1220 H1207 0.960 . S
C1220 C1219 1.524 . S
C1221 C1218 1.403 . S
C1221 C1222 1.392 . S
C1221 C1225 1.495 . S
C1222 C1221 1.392 . S
C1222 C1223 1.385 . S
C1222 C1224 1.478 . S
C1223 H1217 0.930 . S
C1223 C1219 1.400 . S
C1223 C1222 1.385 . S
C1224 C1222 1.478 . S
C1224 C1226 1.381 . S
C1224 C1230 1.383 . S
C1225 C1221 1.495 . S
C1225 H1231 0.959 . S
C1225 H1232 0.961 . S
C1225 H1233 0.960 . S
C1226 C1224 1.381 . S
C1226 C1227 1.394 . S
C1226 H1234 0.930 . S
C1227 C1226 1.394 . S
C1227 C1228 1.383 . S
C1227 H1235 0.929 . S
C1228 C1227 1.383 . S
C1228 C1229 1.377 . S
C1229 H1213 0.930 . S
C1229 C1228 1.377 . S
C1229 C1230 1.379 . S
C1230 H1214 0.931 . S
C1230 C1224 1.383 . S
C1230 C1229 1.379 . S
H1231 C1225 0.959 . S
H1232 C1225 0.961 . S
H1233 C1225 0.960 . S
H1234 C1226 0.930 . S
H1235 C1227 0.929 . S
H1236 C1244 0.929 . S
H1237 C1246 0.930 . S
H1238 C1248 0.930 . S
H1239 C1251 0.929 . S
H1240 C1254 0.930 . S
H1241 C1256 0.960 . S
H1242 C1256 0.960 . S
H1243 C1256 0.960 . S
C1244 H1236 0.929 . S
C1244 C1245 1.377 . S
C1244 C1246 1.384 . S
C1245 C1244 1.377 . S
C1245 C1251 1.390 . S
C1246 H1237 0.930 . S
C1246 C1244 1.384 . S
C1246 C1247 1.372 . S
C1247 C1246 1.372 . S
C1247 C1248 1.400 . S
C1247 C1252 1.490 . S
C1248 H1238 0.930 . S
C1248 C1247 1.400 . S
C1248 C1251 1.386 . S
H1249 C1265 0.930 . S
H1250 C1266 0.931 . S
C1251 H1239 0.929 . S
C1251 C1245 1.390 . S
C1251 C1248 1.386 . S
C1252 C1247 1.490 . S
C1252 C1254 1.395 . S
C1252 C1255 1.403 . S
H1253 C1259 0.930 . S
C1254 H1240 0.930 . S
C1254 C1252 1.395 . S
C1254 C1257 1.403 . S
C1255 C1252 1.403 . S
C1255 C1256 1.524 . S
C1255 C1259 1.400 . S
C1256 H1241 0.960 . S
C1256 H1242 0.960 . S
C1256 H1243 0.960 . S
C1256 C1255 1.524 . S
C1257 C1254 1.403 . S
C1257 C1258 1.392 . S
C1257 C1261 1.495 . S
C1258 C1257 1.392 . S
C1258 C1259 1.385 . S
C1258 C1260 1.478 . S
C1259 H1253 0.930 . S
C1259 C1255 1.400 . S
C1259 C1258 1.385 . S
C1260 C1258 1.478 . S
C1260 C1262 1.381 . S
C1260 C1266 1.383 . S
C1261 C1257 1.495 . S
C1261 H1267 0.959 . S
C1261 H1268 0.961 . S
C1261 H1269 0.960 . S
C1262 C1260 1.381 . S
C1262 C1263 1.394 . S
C1262 H1270 0.930 . S
C1263 C1262 1.394 . S
C1263 C1264 1.383 . S
C1263 H1271 0.929 . S
C1264 C1263 1.383 . S
C1264 C1265 1.377 . S
C1265 H1249 0.930 . S
C1265 C1264 1.377 . S
C1265 C1266 1.379 . S
C1266 H1250 0.931 . S
C1266 C1260 1.383 . S
C1266 C1265 1.379 . S
H1267 C1261 0.959 . S
H1268 C1261 0.961 . S
H1269 C1261 0.960 . S
H1270 C1262 0.930 . S
H1271 C1263 0.929 . S
H1272 C1280 0.929 . S
H1273 C1282 0.930 . S
H1274 C1284 0.930 . S
H1275 C1287 0.929 . S
H1276 C1290 0.930 . S
H1277 C1292 0.960 . S
H1278 C1292 0.960 . S
H1279 C1292 0.960 . S
C1280 H1272 0.929 . S
C1280 C1281 1.377 . S
C1280 C1282 1.384 . S
C1281 C1280 1.377 . S
C1281 C1287 1.390 . S
C1282 H1273 0.930 . S
C1282 C1280 1.384 . S
C1282 C1283 1.372 . S
C1283 C1282 1.372 . S
C1283 C1284 1.400 . S
C1283 C1288 1.490 . S
C1284 H1274 0.930 . S
C1284 C1283 1.400 . S
C1284 C1287 1.386 . S
H1285 C1301 0.930 . S
H1286 C1302 0.931 . S
C1287 H1275 0.929 . S
C1287 C1281 1.390 . S
C1287 C1284 1.386 . S
C1288 C1283 1.490 . S
C1288 C1290 1.395 . S
C1288 C1291 1.403 . S
H1289 C1295 0.930 . S
C1290 H1276 0.930 . S
C1290 C1288 1.395 . S
C1290 C1293 1.403 . S
C1291 C1288 1.403 . S
C1291 C1292 1.524 . S
C1291 C1295 1.400 . S
C1292 H1277 0.960 . S
C1292 H1278 0.960 . S
C1292 H1279 0.960 . S
C1292 C1291 1.524 . S
C1293 C1290 1.403 . S
C1293 C1294 1.392 . S
C1293 C1297 1.495 . S
C1294 C1293 1.392 . S
C1294 C1295 1.385 . S
C1294 C1296 1.478 . S
C1295 H1289 0.930 . S
C1295 C1291 1.400 . S
C1295 C1294 1.385 . S
C1296 C1294 1.478 . S
C1296 C1298 1.381 . S
C1296 C1302 1.383 . S
C1297 C1293 1.495 . S
C1297 H1303 0.959 . S
C1297 H1304 0.961 . S
C1297 H1305 0.960 . S
C1298 C1296 1.381 . S
C1298 C1299 1.394 . S
C1298 H1306 0.930 . S
C1299 C1298 1.394 . S
C1299 C1300 1.383 . S
C1299 H1307 0.929 . S
C1300 C1299 1.383 . S
C1300 C1301 1.377 . S
C1301 H1285 0.930 . S
C1301 C1300 1.377 . S
C1301 C1302 1.379 . S
C1302 H1286 0.931 . S
C1302 C1296 1.383 . S
C1302 C1301 1.379 . S
H1303 C1297 0.959 . S
H1304 C1297 0.961 . S
H1305 C1297 0.960 . S
H1306 C1298 0.930 . S
H1307 C1299 0.929 . S
H1308 C1316 0.929 . S
H1309 C1318 0.930 . S
H1310 C1320 0.930 . S
H1311 C1323 0.929 . S
H1312 C1326 0.930 . S
H1313 C1328 0.960 . S
H1314 C1328 0.960 . S
H1315 C1328 0.960 . S
C1316 H1308 0.929 . S
C1316 C1317 1.377 . S
C1316 C1318 1.384 . S
C1317 C1316 1.377 . S
C1317 C1323 1.390 . S
C1318 H1309 0.930 . S
C1318 C1316 1.384 . S
C1318 C1319 1.372 . S
C1319 C1318 1.372 . S
C1319 C1320 1.400 . S
C1319 C1324 1.490 . S
C1320 H1310 0.930 . S
C1320 C1319 1.400 . S
C1320 C1323 1.386 . S
H1321 C1337 0.930 . S
H1322 C1338 0.931 . S
C1323 H1311 0.929 . S
C1323 C1317 1.390 . S
C1323 C1320 1.386 . S
C1324 C1319 1.490 . S
C1324 C1326 1.395 . S
C1324 C1327 1.403 . S
H1325 C1331 0.930 . S
C1326 H1312 0.930 . S
C1326 C1324 1.395 . S
C1326 C1329 1.403 . S
C1327 C1324 1.403 . S
C1327 C1328 1.524 . S
C1327 C1331 1.400 . S
C1328 H1313 0.960 . S
C1328 H1314 0.960 . S
C1328 H1315 0.960 . S
C1328 C1327 1.524 . S
C1329 C1326 1.403 . S
C1329 C1330 1.392 . S
C1329 C1333 1.495 . S
C1330 C1329 1.392 . S
C1330 C1331 1.385 . S
C1330 C1332 1.478 . S
C1331 H1325 0.930 . S
C1331 C1327 1.400 . S
C1331 C1330 1.385 . S
C1332 C1330 1.478 . S
C1332 C1334 1.381 . S
C1332 C1338 1.383 . S
C1333 C1329 1.495 . S
C1333 H1339 0.959 . S
C1333 H1340 0.961 . S
C1333 H1341 0.960 . S
C1334 C1332 1.381 . S
C1334 C1335 1.394 . S
C1334 H1342 0.930 . S
C1335 C1334 1.394 . S
C1335 C1336 1.383 . S
C1335 H1343 0.929 . S
C1336 C1335 1.383 . S
C1336 C1337 1.377 . S
C1337 H1321 0.930 . S
C1337 C1336 1.377 . S
C1337 C1338 1.379 . S
C1338 H1322 0.931 . S
C1338 C1332 1.383 . S
C1338 C1337 1.379 . S
H1339 C1333 0.959 . S
H1340 C1333 0.961 . S
H1341 C1333 0.960 . S
H1342 C1334 0.930 . S
H1343 C1335 0.929 . S
H1344 C1352 0.929 . S
H1345 C1354 0.930 . S
H1346 C1356 0.930 . S
H1347 C1359 0.929 . S
H1348 C1362 0.930 . S
H1349 C1364 0.960 . S
H1350 C1364 0.960 . S
H1351 C1364 0.960 . S
C1352 H1344 0.929 . S
C1352 C1353 1.377 . S
C1352 C1354 1.384 . S
C1353 C1352 1.377 . S
C1353 C1359 1.390 . S
C1354 H1345 0.930 . S
C1354 C1352 1.384 . S
C1354 C1355 1.372 . S
C1355 C1354 1.372 . S
C1355 C1356 1.400 . S
C1355 C1360 1.490 . S
C1356 H1346 0.930 . S
C1356 C1355 1.400 . S
C1356 C1359 1.386 . S
H1357 C1373 0.930 . S
H1358 C1374 0.931 . S
C1359 H1347 0.929 . S
C1359 C1353 1.390 . S
C1359 C1356 1.386 . S
C1360 C1355 1.490 . S
C1360 C1362 1.395 . S
C1360 C1363 1.403 . S
H1361 C1367 0.930 . S
C1362 H1348 0.930 . S
C1362 C1360 1.395 . S
C1362 C1365 1.403 . S
C1363 C1360 1.403 . S
C1363 C1364 1.524 . S
C1363 C1367 1.400 . S
C1364 H1349 0.960 . S
C1364 H1350 0.960 . S
C1364 H1351 0.960 . S
C1364 C1363 1.524 . S
C1365 C1362 1.403 . S
C1365 C1366 1.392 . S
C1365 C1369 1.495 . S
C1366 C1365 1.392 . S
C1366 C1367 1.385 . S
C1366 C1368 1.478 . S
C1367 H1361 0.930 . S
C1367 C1363 1.400 . S
C1367 C1366 1.385 . S
C1368 C1366 1.478 . S
C1368 C1370 1.381 . S
C1368 C1374 1.383 . S
C1369 C1365 1.495 . S
C1369 H1375 0.959 . S
C1369 H1376 0.961 . S
C1369 H1377 0.960 . S
C1370 C1368 1.381 . S
C1370 C1371 1.394 . S
C1370 H1378 0.930 . S
C1371 C1370 1.394 . S
C1371 C1372 1.383 . S
C1371 H1379 0.929 . S
C1372 C1371 1.383 . S
C1372 C1373 1.377 . S
C1373 H1357 0.930 . S
C1373 C1372 1.377 . S
C1373 C1374 1.379 . S
C1374 H1358 0.931 . S
C1374 C1368 1.383 . S
C1374 C1373 1.379 . S
H1375 C1369 0.959 . S
H1376 C1369 0.961 . S
H1377 C1369 0.960 . S
H1378 C1370 0.930 . S
H1379 C1371 0.929 . S
H1380 C1388 0.929 . S
H1381 C1390 0.930 . S
H1382 C1392 0.930 . S
H1383 C1395 0.929 . S
H1384 C1398 0.930 . S
H1385 C1400 0.960 . S
H1386 C1400 0.960 . S
H1387 C1400 0.960 . S
C1388 H1380 0.929 . S
C1388 C1389 1.377 . S
C1388 C1390 1.384 . S
C1389 C1388 1.377 . S
C1389 C1395 1.390 . S
C1390 H1381 0.930 . S
C1390 C1388 1.384 . S
C1390 C1391 1.372 . S
C1391 C1390 1.372 . S
C1391 C1392 1.400 . S
C1391 C1396 1.490 . S
C1392 H1382 0.930 . S
C1392 C1391 1.400 . S
C1392 C1395 1.386 . S
H1393 C1409 0.930 . S
H1394 C1410 0.931 . S
C1395 H1383 0.929 . S
C1395 C1389 1.390 . S
C1395 C1392 1.386 . S
C1396 C1391 1.490 . S
C1396 C1398 1.395 . S
C1396 C1399 1.403 . S
H1397 C1403 0.930 . S
C1398 H1384 0.930 . S
C1398 C1396 1.395 . S
C1398 C1401 1.403 . S
C1399 C1396 1.403 . S
C1399 C1400 1.524 . S
C1399 C1403 1.400 . S
C1400 H1385 0.960 . S
C1400 H1386 0.960 . S
C1400 H1387 0.960 . S
C1400 C1399 1.524 . S
C1401 C1398 1.403 . S
C1401 C1402 1.392 . S
C1401 C1405 1.495 . S
C1402 C1401 1.392 . S
C1402 C1403 1.385 . S
C1402 C1404 1.478 . S
C1403 H1397 0.930 . S
C1403 C1399 1.400 . S
C1403 C1402 1.385 . S
C1404 C1402 1.478 . S
C1404 C1406 1.381 . S
C1404 C1410 1.383 . S
C1405 C1401 1.495 . S
C1405 H1411 0.959 . S
C1405 H1412 0.961 . S
C1405 H1413 0.960 . S
C1406 C1404 1.381 . S
C1406 C1407 1.394 . S
C1406 H1414 0.930 . S
C1407 C1406 1.394 . S
C1407 C1408 1.383 . S
C1407 H1415 0.929 . S
C1408 C1407 1.383 . S
C1408 C1409 1.377 . S
C1409 H1393 0.930 . S
C1409 C1408 1.377 . S
C1409 C1410 1.379 . S
C1410 H1394 0.931 . S
C1410 C1404 1.383 . S
C1410 C1409 1.379 . S
H1411 C1405 0.959 . S
H1412 C1405 0.961 . S
H1413 C1405 0.960 . S
H1414 C1406 0.930 . S
H1415 C1407 0.929 . S
H1416 C1424 0.929 . S
H1417 C1426 0.930 . S
H1418 C1428 0.930 . S
H1419 C1431 0.929 . S
H1420 C1434 0.930 . S
H1421 C1436 0.960 . S
H1422 C1436 0.960 . S
H1423 C1436 0.960 . S
C1424 H1416 0.929 . S
C1424 C1425 1.377 . S
C1424 C1426 1.384 . S
C1425 C1424 1.377 . S
C1425 C1431 1.390 . S
C1426 H1417 0.930 . S
C1426 C1424 1.384 . S
C1426 C1427 1.372 . S
C1427 C1426 1.372 . S
C1427 C1428 1.400 . S
C1427 C1432 1.490 . S
C1428 H1418 0.930 . S
C1428 C1427 1.400 . S
C1428 C1431 1.386 . S
H1429 C1445 0.930 . S
H1430 C1446 0.931 . S
C1431 H1419 0.929 . S
C1431 C1425 1.390 . S
C1431 C1428 1.386 . S
C1432 C1427 1.490 . S
C1432 C1434 1.395 . S
C1432 C1435 1.403 . S
H1433 C1439 0.930 . S
C1434 H1420 0.930 . S
C1434 C1432 1.395 . S
C1434 C1437 1.403 . S
C1435 C1432 1.403 . S
C1435 C1436 1.524 . S
C1435 C1439 1.400 . S
C1436 H1421 0.960 . S
C1436 H1422 0.960 . S
C1436 H1423 0.960 . S
C1436 C1435 1.524 . S
C1437 C1434 1.403 . S
C1437 C1438 1.392 . S
C1437 C1441 1.495 . S
C1438 C1437 1.392 . S
C1438 C1439 1.385 . S
C1438 C1440 1.478 . S
C1439 H1433 0.930 . S
C1439 C1435 1.400 . S
C1439 C1438 1.385 . S
C1440 C1438 1.478 . S
C1440 C1442 1.381 . S
C1440 C1446 1.383 . S
C1441 C1437 1.495 . S
C1441 H1447 0.959 . S
C1441 H1448 0.961 . S
C1441 H1449 0.960 . S
C1442 C1440 1.381 . S
C1442 C1443 1.394 . S
C1442 H1450 0.930 . S
C1443 C1442 1.394 . S
C1443 C1444 1.383 . S
C1443 H1451 0.929 . S
C1444 C1443 1.383 . S
C1444 C1445 1.377 . S
C1445 H1429 0.930 . S
C1445 C1444 1.377 . S
C1445 C1446 1.379 . S
C1446 H1430 0.931 . S
C1446 C1440 1.383 . S
C1446 C1445 1.379 . S
H1447 C1441 0.959 . S
H1448 C1441 0.961 . S
H1449 C1441 0.960 . S
H1450 C1442 0.930 . S
H1451 C1443 0.929 . S
H1452 C1460 0.929 . S
H1453 C1462 0.930 . S
H1454 C1464 0.930 . S
H1455 C1467 0.929 . S
H1456 C1470 0.930 . S
H1457 C1472 0.960 . S
H1458 C1472 0.960 . S
H1459 C1472 0.960 . S
C1460 H1452 0.929 . S
C1460 C1461 1.377 . S
C1460 C1462 1.384 . S
C1461 C1460 1.377 . S
C1461 C1467 1.390 . S
C1462 H1453 0.930 . S
C1462 C1460 1.384 . S
C1462 C1463 1.372 . S
C1463 C1462 1.372 . S
C1463 C1464 1.400 . S
C1463 C1468 1.490 . S
C1464 H1454 0.930 . S
C1464 C1463 1.400 . S
C1464 C1467 1.386 . S
H1465 C1481 0.930 . S
H1466 C1482 0.931 . S
C1467 H1455 0.929 . S
C1467 C1461 1.390 . S
C1467 C1464 1.386 . S
C1468 C1463 1.490 . S
C1468 C1470 1.395 . S
C1468 C1471 1.403 . S
H1469 C1475 0.930 . S
C1470 H1456 0.930 . S
C1470 C1468 1.395 . S
C1470 C1473 1.403 . S
C1471 C1468 1.403 . S
C1471 C1472 1.524 . S
C1471 C1475 1.400 . S
C1472 H1457 0.960 . S
C1472 H1458 0.960 . S
C1472 H1459 0.960 . S
C1472 C1471 1.524 . S
C1473 C1470 1.403 . S
C1473 C1474 1.392 . S
C1473 C1477 1.495 . S
C1474 C1473 1.392 . S
C1474 C1475 1.385 . S
C1474 C1476 1.478 . S
C1475 H1469 0.930 . S
C1475 C1471 1.400 . S
C1475 C1474 1.385 . S
C1476 C1474 1.478 . S
C1476 C1478 1.381 . S
C1476 C1482 1.383 . S
C1477 C1473 1.495 . S
C1477 H1483 0.959 . S
C1477 H1484 0.961 . S
C1477 H1485 0.960 . S
C1478 C1476 1.381 . S
C1478 C1479 1.394 . S
C1478 H1486 0.930 . S
C1479 C1478 1.394 . S
C1479 C1480 1.383 . S
C1479 H1487 0.929 . S
C1480 C1479 1.383 . S
C1480 C1481 1.377 . S
C1481 H1465 0.930 . S
C1481 C1480 1.377 . S
C1481 C1482 1.379 . S
C1482 H1466 0.931 . S
C1482 C1476 1.383 . S
C1482 C1481 1.379 . S
H1483 C1477 0.959 . S
H1484 C1477 0.961 . S
H1485 C1477 0.960 . S
H1486 C1478 0.930 . S
H1487 C1479 0.929 . S
H1488 C1496 0.929 . S
H1489 C1498 0.930 . S
H1490 C1500 0.930 . S
H1491 C1503 0.929 . S
H1492 C1506 0.930 . S
H1493 C1508 0.960 . S
H1494 C1508 0.960 . S
H1495 C1508 0.960 . S
C1496 H1488 0.929 . S
C1496 C1497 1.377 . S
C1496 C1498 1.384 . S
C1497 C1496 1.377 . S
C1497 C1503 1.390 . S
C1498 H1489 0.930 . S
C1498 C1496 1.384 . S
C1498 C1499 1.372 . S
C1499 C1498 1.372 . S
C1499 C1500 1.400 . S
C1499 C1504 1.490 . S
C1500 H1490 0.930 . S
C1500 C1499 1.400 . S
C1500 C1503 1.386 . S
H1501 C1517 0.930 . S
H1502 C1518 0.931 . S
C1503 H1491 0.929 . S
C1503 C1497 1.390 . S
C1503 C1500 1.386 . S
C1504 C1499 1.490 . S
C1504 C1506 1.395 . S
C1504 C1507 1.403 . S
H1505 C1511 0.930 . S
C1506 H1492 0.930 . S
C1506 C1504 1.395 . S
C1506 C1509 1.403 . S
C1507 C1504 1.403 . S
C1507 C1508 1.524 . S
C1507 C1511 1.400 . S
C1508 H1493 0.960 . S
C1508 H1494 0.960 . S
C1508 H1495 0.960 . S
C1508 C1507 1.524 . S
C1509 C1506 1.403 . S
C1509 C1510 1.392 . S
C1509 C1513 1.495 . S
C1510 C1509 1.392 . S
C1510 C1511 1.385 . S
C1510 C1512 1.478 . S
C1511 H1505 0.930 . S
C1511 C1507 1.400 . S
C1511 C1510 1.385 . S
C1512 C1510 1.478 . S
C1512 C1514 1.381 . S
C1512 C1518 1.383 . S
C1513 C1509 1.495 . S
C1513 H1519 0.959 . S
C1513 H1520 0.961 . S
C1513 H1521 0.960 . S
C1514 C1512 1.381 . S
C1514 C1515 1.394 . S
C1514 H1522 0.930 . S
C1515 C1514 1.394 . S
C1515 C1516 1.383 . S
C1515 H1523 0.929 . S
C1516 C1515 1.383 . S
C1516 C1517 1.377 . S
C1517 H1501 0.930 . S
C1517 C1516 1.377 . S
C1517 C1518 1.379 . S
C1518 H1502 0.931 . S
C1518 C1512 1.383 . S
C1518 C1517 1.379 . S
H1519 C1513 0.959 . S
H1520 C1513 0.961 . S
H1521 C1513 0.960 . S
H1522 C1514 0.930 . S
H1523 C1515 0.929 . S
H1524 C1532 0.929 . S
H1525 C1534 0.930 . S
H1526 C1536 0.930 . S
H1527 C1539 0.929 . S
H1528 C1542 0.930 . S
H1529 C1544 0.960 . S
H1530 C1544 0.960 . S
H1531 C1544 0.960 . S
C1532 H1524 0.929 . S
C1532 C1533 1.377 . S
C1532 C1534 1.384 . S
C1533 C1532 1.377 . S
C1533 C1539 1.390 . S
C1534 H1525 0.930 . S
C1534 C1532 1.384 . S
C1534 C1535 1.372 . S
C1535 C1534 1.372 . S
C1535 C1536 1.400 . S
C1535 C1540 1.490 . S
C1536 H1526 0.930 . S
C1536 C1535 1.400 . S
C1536 C1539 1.386 . S
H1537 C1553 0.930 . S
H1538 C1554 0.931 . S
C1539 H1527 0.929 . S
C1539 C1533 1.390 . S
C1539 C1536 1.386 . S
C1540 C1535 1.490 . S
C1540 C1542 1.395 . S
C1540 C1543 1.403 . S
H1541 C1547 0.930 . S
C1542 H1528 0.930 . S
C1542 C1540 1.395 . S
C1542 C1545 1.403 . S
C1543 C1540 1.403 . S
C1543 C1544 1.524 . S
C1543 C1547 1.400 . S
C1544 H1529 0.960 . S
C1544 H1530 0.960 . S
C1544 H1531 0.960 . S
C1544 C1543 1.524 . S
C1545 C1542 1.403 . S
C1545 C1546 1.392 . S
C1545 C1549 1.495 . S
C1546 C1545 1.392 . S
C1546 C1547 1.385 . S
C1546 C1548 1.478 . S
C1547 H1541 0.930 . S
C1547 C1543 1.400 . S
C1547 C1546 1.385 . S
C1548 C1546 1.478 . S
C1548 C1550 1.381 . S
C1548 C1554 1.383 . S
C1549 C1545 1.495 . S
C1549 H1555 0.959 . S
C1549 H1556 0.961 . S
C1549 H1557 0.960 . S
C1550 C1548 1.381 . S
C1550 C1551 1.394 . S
C1550 H1558 0.930 . S
C1551 C1550 1.394 . S
C1551 C1552 1.383 . S
C1551 H1559 0.929 . S
C1552 C1551 1.383 . S
C1552 C1553 1.377 . S
C1553 H1537 0.930 . S
C1553 C1552 1.377 . S
C1553 C1554 1.379 . S
C1554 H1538 0.931 . S
C1554 C1548 1.383 . S
C1554 C1553 1.379 . S
H1555 C1549 0.959 . S
H1556 C1549 0.961 . S
H1557 C1549 0.960 . S
H1558 C1550 0.930 . S
H1559 C1551 0.929 . S
H1560 C1568 0.929 . S
H1561 C1570 0.930 . S
H1562 C1572 0.930 . S
H1563 C1575 0.929 . S
H1564 C1578 0.930 . S
H1565 C1580 0.960 . S
H1566 C1580 0.960 . S
H1567 C1580 0.960 . S
C1568 H1560 0.929 . S
C1568 C1569 1.377 . S
C1568 C1570 1.384 . S
C1569 C1568 1.377 . S
C1569 C1575 1.390 . S
C1570 H1561 0.930 . S
C1570 C1568 1.384 . S
C1570 C1571 1.372 . S
C1571 C1570 1.372 . S
C1571 C1572 1.400 . S
C1571 C1576 1.490 . S
C1572 H1562 0.930 . S
C1572 C1571 1.400 . S
C1572 C1575 1.386 . S
H1573 C1589 0.930 . S
H1574 C1590 0.931 . S
C1575 H1563 0.929 . S
C1575 C1569 1.390 . S
C1575 C1572 1.386 . S
C1576 C1571 1.490 . S
C1576 C1578 1.395 . S
C1576 C1579 1.403 . S
H1577 C1583 0.930 . S
C1578 H1564 0.930 . S
C1578 C1576 1.395 . S
C1578 C1581 1.403 1_556 S
C1579 C1576 1.403 . S
C1579 C1580 1.524 . S
C1579 C1583 1.400 1_556 S
C1580 H1565 0.960 . S
C1580 H1566 0.960 . S
C1580 H1567 0.960 . S
C1580 C1579 1.524 . S
C1581 C1578 1.403 1_554 S
C1581 C1582 1.392 . S
C1581 C1585 1.495 . S
C1582 C1581 1.392 . S
C1582 C1583 1.385 . S
C1582 C1584 1.478 . S
C1583 H1577 0.930 . S
C1583 C1579 1.400 1_554 S
C1583 C1582 1.385 . S
C1584 C1582 1.478 . S
C1584 C1586 1.381 . S
C1584 C1590 1.383 . S
C1585 C1581 1.495 . S
C1585 H1591 0.959 . S
C1585 H1592 0.961 . S
C1585 H1593 0.960 . S
C1586 C1584 1.381 . S
C1586 C1587 1.394 . S
C1586 H1594 0.930 . S
C1587 C1586 1.394 . S
C1587 C1588 1.383 . S
C1587 H1595 0.929 . S
C1588 C1587 1.383 . S
C1588 C1589 1.377 . S
C1589 H1573 0.930 . S
C1589 C1588 1.377 . S
C1589 C1590 1.379 . S
C1590 H1574 0.931 . S
C1590 C1584 1.383 . S
C1590 C1589 1.379 . S
H1591 C1585 0.959 . S
H1592 C1585 0.961 . S
H1593 C1585 0.960 . S
H1594 C1586 0.930 . S
H1595 C1587 0.929 . S
H1596 C1604 0.929 . S
H1597 C1606 0.930 . S
H1598 C1608 0.930 . S
H1599 C1611 0.929 . S
H1600 C1614 0.930 . S
H1601 C1616 0.960 . S
H1602 C1616 0.960 . S
H1603 C1616 0.960 1_455 S
C1604 H1596 0.929 . S
C1604 C1605 1.377 . S
C1604 C1606 1.384 . S
C1605 C1604 1.377 . S
C1605 C1611 1.390 . S
C1606 H1597 0.930 . S
C1606 C1604 1.384 . S
C1606 C1607 1.372 . S
C1607 C1606 1.372 . S
C1607 C1608 1.400 . S
C1607 C1612 1.490 . S
C1608 H1598 0.930 . S
C1608 C1607 1.400 . S
C1608 C1611 1.386 . S
H1609 C1625 0.930 . S
H1610 C1626 0.931 . S
C1611 H1599 0.929 . S
C1611 C1605 1.390 . S
C1611 C1608 1.386 . S
C1612 C1607 1.490 . S
C1612 C1614 1.395 . S
C1612 C1615 1.397 1_455 S
H1613 C1619 0.930 . S
C1614 H1600 0.930 . S
C1614 C1612 1.395 . S
C1614 C1617 1.420 . S
C1615 C1612 1.397 1_655 S
C1615 C1616 1.527 . S
C1615 C1619 1.403 . S
C1616 H1601 0.960 . S
C1616 H1602 0.960 . S
C1616 H1603 0.960 1_655 S
C1616 C1615 1.527 . S
C1617 C1614 1.420 . S
C1617 C1618 1.364 1_455 S
C1617 C1621 1.508 . S
C1618 C1617 1.364 1_655 S
C1618 C1619 1.385 . S
C1618 C1620 1.478 . S
C1619 H1613 0.930 . S
C1619 C1615 1.403 . S
C1619 C1618 1.385 . S
C1620 C1618 1.478 . S
C1620 C1622 1.381 . S
C1620 C1626 1.383 . S
C1621 C1617 1.508 . S
C1621 H1627 0.959 . S
C1621 H1628 0.961 . S
C1621 H1629 0.960 1_455 S
C1622 C1620 1.381 . S
C1622 C1623 1.394 . S
C1622 H1630 0.930 . S
C1623 C1622 1.394 . S
C1623 C1624 1.383 . S
C1623 H1631 0.929 . S
C1624 C1623 1.383 . S
C1624 C1625 1.377 . S
C1625 H1609 0.930 . S
C1625 C1624 1.377 . S
C1625 C1626 1.379 . S
C1626 H1610 0.931 . S
C1626 C1620 1.383 . S
C1626 C1625 1.379 . S
H1627 C1621 0.959 . S
H1628 C1621 0.961 . S
H1629 C1621 0.960 1_655 S
H1630 C1622 0.930 . S
H1631 C1623 0.929 . S
H1632 C1640 0.929 . S
H1633 C1642 0.930 . S
H1634 C1644 0.930 . S
H1635 C1647 0.929 . S
H1636 C1650 0.930 . S
H1637 C1652 0.960 . S
H1638 C1652 0.960 . S
H1639 C1652 0.960 . S
C1640 H1632 0.929 . S
C1640 C1641 1.377 . S
C1640 C1642 1.384 . S
C1641 C1640 1.377 . S
C1641 C1647 1.390 . S
C1642 H1633 0.930 . S
C1642 C1640 1.384 . S
C1642 C1643 1.372 . S
C1643 C1642 1.372 . S
C1643 C1644 1.400 . S
C1643 C1648 1.490 . S
C1644 H1634 0.930 . S
C1644 C1643 1.400 . S
C1644 C1647 1.386 . S
H1645 C1661 0.930 . S
H1646 C1662 0.931 . S
C1647 H1635 0.929 . S
C1647 C1641 1.390 . S
C1647 C1644 1.386 . S
C1648 C1643 1.490 . S
C1648 C1650 1.395 1_554 S
C1648 C1651 1.403 1_565 S
H1649 C1655 0.930 . S
C1650 H1636 0.930 . S
C1650 C1648 1.395 1_556 S
C1650 C1653 1.403 . S
C1651 C1648 1.403 1_545 S
C1651 C1652 1.524 . S
C1651 C1655 1.400 . S
C1652 H1637 0.960 . S
C1652 H1638 0.960 . S
C1652 H1639 0.960 . S
C1652 C1651 1.524 . S
C1653 C1650 1.403 . S
C1653 C1654 1.392 1_565 S
C1653 C1657 1.495 . S
C1654 C1653 1.392 1_545 S
C1654 C1655 1.385 1_556 S
C1654 C1656 1.478 . S
C1655 H1649 0.930 . S
C1655 C1651 1.400 . S
C1655 C1654 1.385 1_554 S
C1656 C1654 1.478 . S
C1656 C1658 1.381 . S
C1656 C1662 1.383 . S
C1657 C1653 1.495 . S
C1657 H1663 0.959 . S
C1657 H1664 0.961 . S
C1657 H1665 0.960 . S
C1658 C1656 1.381 . S
C1658 C1659 1.394 . S
C1658 H1666 0.930 . S
C1659 C1658 1.394 . S
C1659 C1660 1.383 . S
C1659 H1667 0.929 . S
C1660 C1659 1.383 . S
C1660 C1661 1.377 . S
C1661 H1645 0.930 . S
C1661 C1660 1.377 . S
C1661 C1662 1.379 . S
C1662 H1646 0.931 . S
C1662 C1656 1.383 . S
C1662 C1661 1.379 . S
H1663 C1657 0.959 . S
H1664 C1657 0.961 . S
H1665 C1657 0.960 . S
H1666 C1658 0.930 . S
H1667 C1659 0.929 . S
H1668 C1676 0.929 . S
H1669 C1678 0.930 . S
H1670 C1680 0.930 . S
H1671 C1683 0.929 . S
H1672 C1686 0.930 . S
H1673 C1688 0.960 . S
H1674 C1688 0.960 . S
H1675 C1688 0.960 . S
C1676 H1668 0.929 . S
C1676 C1677 1.377 . S
C1676 C1678 1.384 . S
C1677 C1676 1.377 . S
C1677 C1683 1.390 . S
C1678 H1669 0.930 . S
C1678 C1676 1.384 . S
C1678 C1679 1.372 . S
C1679 C1678 1.372 . S
C1679 C1680 1.400 . S
C1679 C1684 1.490 . S
C1680 H1670 0.930 . S
C1680 C1679 1.400 . S
C1680 C1683 1.386 . S
H1681 C1697 0.930 . S
H1682 C1698 0.931 . S
C1683 H1671 0.929 . S
C1683 C1677 1.390 . S
C1683 C1680 1.386 . S
C1684 C1679 1.490 . S
C1684 C1686 1.395 . S
C1684 C1687 1.403 . S
H1685 C1691 0.930 . S
C1686 H1672 0.930 . S
C1686 C1684 1.395 . S
C1686 C1689 1.403 . S
C1687 C1684 1.403 . S
C1687 C1688 1.524 . S
C1687 C1691 1.400 . S
C1688 H1673 0.960 . S
C1688 H1674 0.960 . S
C1688 H1675 0.960 . S
C1688 C1687 1.524 . S
C1689 C1686 1.403 . S
C1689 C1690 1.392 . S
C1689 C1693 1.495 . S
C1690 C1689 1.392 . S
C1690 C1691 1.385 . S
C1690 C1692 1.478 . S
C1691 H1685 0.930 . S
C1691 C1687 1.400 . S
C1691 C1690 1.385 . S
C1692 C1690 1.478 . S
C1692 C1694 1.381 . S
C1692 C1698 1.383 . S
C1693 C1689 1.495 . S
C1693 H1699 0.959 . S
C1693 H1700 0.961 . S
C1693 H1701 0.960 . S
C1694 C1692 1.381 . S
C1694 C1695 1.394 . S
C1694 H1702 0.930 . S
C1695 C1694 1.394 . S
C1695 C1696 1.383 . S
C1695 H1703 0.929 . S
C1696 C1695 1.383 . S
C1696 C1697 1.377 . S
C1697 H1681 0.930 . S
C1697 C1696 1.377 . S
C1697 C1698 1.379 . S
C1698 H1682 0.931 . S
C1698 C1692 1.383 . S
C1698 C1697 1.379 . S
H1699 C1693 0.959 . S
H1700 C1693 0.961 . S
H1701 C1693 0.960 . S
H1702 C1694 0.930 . S
H1703 C1695 0.929 . S
H1704 C1712 0.929 . S
H1705 C1714 0.930 . S
H1706 C1716 0.930 . S
H1707 C1719 0.929 . S
H1708 C1722 0.930 . S
H1709 C1724 0.960 . S
H1710 C1724 0.960 . S
H1711 C1724 0.960 1_556 S
C1712 H1704 0.929 . S
C1712 C1713 1.377 . S
C1712 C1714 1.384 . S
C1713 C1712 1.377 . S
C1713 C1719 1.390 . S
C1714 H1705 0.930 . S
C1714 C1712 1.384 . S
C1714 C1715 1.372 . S
C1715 C1714 1.372 . S
C1715 C1716 1.400 . S
C1715 C1720 1.490 . S
C1716 H1706 0.930 . S
C1716 C1715 1.400 . S
C1716 C1719 1.386 . S
H1717 C1733 0.930 . S
H1718 C1734 0.931 . S
C1719 H1707 0.929 . S
C1719 C1713 1.390 . S
C1719 C1716 1.386 . S
C1720 C1715 1.490 . S
C1720 C1722 1.395 1_655 S
C1720 C1723 1.403 1_556 S
H1721 C1727 0.930 . S
C1722 H1708 0.930 . S
C1722 C1720 1.395 1_455 S
C1722 C1725 1.403 . S
C1723 C1720 1.403 1_554 S
C1723 C1724 1.524 . S
C1723 C1727 1.400 1_655 S
C1724 H1709 0.960 . S
C1724 H1710 0.960 . S
C1724 H1711 0.960 1_554 S
C1724 C1723 1.524 . S
C1725 C1722 1.403 . S
C1725 C1726 1.392 1_556 S
C1725 C1729 1.495 . S
C1726 C1725 1.392 1_554 S
C1726 C1727 1.385 . S
C1726 C1728 1.478 . S
C1727 H1721 0.930 . S
C1727 C1723 1.400 1_455 S
C1727 C1726 1.385 . S
C1728 C1726 1.478 . S
C1728 C1730 1.381 . S
C1728 C1734 1.383 . S
C1729 C1725 1.495 . S
C1729 H1735 0.959 . S
C1729 H1736 0.961 . S
C1729 H1737 0.960 1_556 S
C1730 C1728 1.381 . S
C1730 C1731 1.394 . S
C1730 H1738 0.930 . S
C1731 C1730 1.394 . S
C1731 C1732 1.383 . S
C1731 H1739 0.929 . S
C1732 C1731 1.383 . S
C1732 C1733 1.377 . S
C1733 H1717 0.930 . S
C1733 C1732 1.377 . S
C1733 C1734 1.379 . S
C1734 H1718 0.931 . S
C1734 C1728 1.383 . S
C1734 C1733 1.379 . S
H1735 C1729 0.959 . S
H1736 C1729 0.961 . S
H1737 C1729 0.960 1_554 S
H1738 C1730 0.930 . S
H1739 C1731 0.929 . S
H1740 C1748 0.929 . S
H1741 C1750 0.930 . S
H1742 C1752 0.930 . S
H1743 C1755 0.929 . S
H1744 C1758 0.930 . S
H1745 C1760 0.960 . S
H1746 C1760 0.960 . S
H1747 C1760 0.960 . S
C1748 H1740 0.929 . S
C1748 C1749 1.377 . S
C1748 C1750 1.384 . S
C1749 C1748 1.377 . S
C1749 C1755 1.390 . S
C1750 H1741 0.930 . S
C1750 C1748 1.384 . S
C1750 C1751 1.372 . S
C1751 C1750 1.372 . S
C1751 C1752 1.400 . S
C1751 C1756 1.490 . S
C1752 H1742 0.930 . S
C1752 C1751 1.400 . S
C1752 C1755 1.386 . S
H1753 C1769 0.930 . S
H1754 C1770 0.931 . S
C1755 H1743 0.929 . S
C1755 C1749 1.390 . S
C1755 C1752 1.386 . S
C1756 C1751 1.490 . S
C1756 C1758 1.395 . S
C1756 C1759 1.403 1_565 S
H1757 C1763 0.930 . S
C1758 H1744 0.930 . S
C1758 C1756 1.395 . S
C1758 C1761 1.403 . S
C1759 C1756 1.403 1_545 S
C1759 C1760 1.524 . S
C1759 C1763 1.400 . S
C1760 H1745 0.960 . S
C1760 H1746 0.960 . S
C1760 H1747 0.960 . S
C1760 C1759 1.524 . S
C1761 C1758 1.403 . S
C1761 C1762 1.392 1_565 S
C1761 C1765 1.495 . S
C1762 C1761 1.392 1_545 S
C1762 C1763 1.385 . S
C1762 C1764 1.478 . S
C1763 H1757 0.930 . S
C1763 C1759 1.400 . S
C1763 C1762 1.385 . S
C1764 C1762 1.478 . S
C1764 C1766 1.381 . S
C1764 C1770 1.383 . S
C1765 C1761 1.495 . S
C1765 H1771 0.959 . S
C1765 H1772 0.961 . S
C1765 H1773 0.960 . S
C1766 C1764 1.381 . S
C1766 C1767 1.394 . S
C1766 H1774 0.930 . S
C1767 C1766 1.394 . S
C1767 C1768 1.383 . S
C1767 H1775 0.929 . S
C1768 C1767 1.383 . S
C1768 C1769 1.377 . S
C1769 H1753 0.930 . S
C1769 C1768 1.377 . S
C1769 C1770 1.379 . S
C1770 H1754 0.931 . S
C1770 C1764 1.383 . S
C1770 C1769 1.379 . S
H1771 C1765 0.959 . S
H1772 C1765 0.961 . S
H1773 C1765 0.960 . S
H1774 C1766 0.930 . S
H1775 C1767 0.929 . S
C489 C172 1.230 . S
C508 C29 1.236 . S
C525 C212 1.227 . S
C544 C69 1.228 . S
C561 C109 1.234 . S
C580 C12 1.209 . S
C597 C149 1.235 . S
C616 C52 1.239 . S
C633 C189 1.234 . S
C652 C92 1.210 . S
C669 C132 1.225 . S
C688 C229 1.235 . S
C705 C332 1.225 . S
C724 C269 1.227 . S
C741 C309 1.235 . S
C760 C372 1.212 . S
C777 C412 1.226 . S
C796 C349 1.235 . S
C813 C389 1.235 . S
C832 C452 1.211 . S
C849 C429 1.234 . S
C868 C252 1.209 . S
C885 C292 1.226 . S
C904 C469 1.228 . S
C921 C191 1.719 . S
C940 C8 1.671 . S
C957 C48 1.682 . S
C976 C231 1.717 . S
C993 C88 1.686 . S
C1012 C31 1.710 . S
C1029 C128 1.687 . S
C1048 C71 1.724 . S
C1065 C111 1.721 . S
C1084 C168 1.701 . S
C1101 C151 1.722 . S
C1120 C208 1.679 . S
C1137 C351 1.719 . S
C1156 C248 1.691 . S
C1173 C288 1.684 . S
C1192 C391 1.712 . S
C1209 C328 1.682 . S
C1228 C431 1.716 . S
C1245 C471 1.722 . S
C1264 C368 1.694 . S
C1281 C408 1.686 . S
C1300 C271 1.710 . S
C1317 C311 1.719 . S
C1336 C448 1.673 . S
C1353 C402 1.664 . S
C1372 C2 1.692 . S
C1389 C42 1.673 . S
C1408 C442 1.658 . S
C1425 C82 1.663 . S
C1444 C242 1.653 . S
C1461 C122 1.661 . S
C1480 C282 1.679 . S
C1497 C162 1.668 . S
C1516 C322 1.637 . S
C1533 C362 1.668 . S
C1552 C202 1.636 . S
C1569 C377 2.076 . S
C1588 C17 2.072 . S
C1605 C417 2.075 . S
C1624 C57 2.069 . S
C1641 C97 2.075 . S
C1660 C457 2.068 . S
C1677 C137 2.075 . S
C1696 C257 2.068 . S
C1713 C297 2.076 . S
C1732 C177 2.074 . S
C1749 C337 2.075 . S
C1768 C217 2.068 . S
