# Generated by pormake.
# Topology wjp, (5)-cn, num edge types: 1
# Building blocks:
#     Node 0, Type 0, BuildingBlock: BEQFEK_clean_sbu_0, # of connection points: 5
#     Node 1, Type 0, BuildingBlock: BEQFEK_clean_sbu_0, # of connection points: 5
#     Node 2, Type 0, BuildingBlock: BEQFEK_clean_sbu_0, # of connection points: 5
#     Node 3, Type 0, BuildingBlock: BEQFEK_clean_sbu_0, # of connection points: 5
#     Node 4, Type 0, BuildingBlock: BEQFEK_clean_sbu_0, # of connection points: 5
#     Node 5, Type 0, BuildingBlock: BEQFEK_clean_sbu_0, # of connection points: 5
#     Node 6, Type 0, BuildingBlock: BEQFEK_clean_sbu_0, # of connection points: 5
#     Node 7, Type 0, BuildingBlock: BEQFEK_clean_sbu_0, # of connection points: 5
#     Node 8, Type 0, BuildingBlock: BEQFEK_clean_sbu_0, # of connection points: 5
#     Node 9, Type 0, BuildingBlock: BEQFEK_clean_sbu_0, # of connection points: 5
#     Node 10, Type 0, BuildingBlock: BEQFEK_clean_sbu_0, # of connection points: 5
#     Node 11, Type 0, BuildingBlock: BEQFEK_clean_sbu_0, # of connection points: 5
#     Edge 12, Type (0, 0), BuildingBlock: AJUNOK_clean_linker_0, # of connection points: 2
#     Edge 13, Type (0, 0), BuildingBlock: AJUNOK_clean_linker_0, # of connection points: 2
#     Edge 14, Type (0, 0), BuildingBlock: AJUNOK_clean_linker_0, # of connection points: 2
#     Edge 15, Type (0, 0), BuildingBlock: AJUNOK_clean_linker_0, # of connection points: 2
#     Edge 16, Type (0, 0), BuildingBlock: AJUNOK_clean_linker_0, # of connection points: 2
#     Edge 17, Type (0, 0), BuildingBlock: AJUNOK_clean_linker_0, # of connection points: 2
#     Edge 18, Type (0, 0), BuildingBlock: AJUNOK_clean_linker_0, # of connection points: 2
#     Edge 19, Type (0, 0), BuildingBlock: AJUNOK_clean_linker_0, # of connection points: 2
#     Edge 20, Type (0, 0), BuildingBlock: AJUNOK_clean_linker_0, # of connection points: 2
#     Edge 21, Type (0, 0), BuildingBlock: AJUNOK_clean_linker_0, # of connection points: 2
#     Edge 22, Type (0, 0), BuildingBlock: AJUNOK_clean_linker_0, # of connection points: 2
#     Edge 23, Type (0, 0), BuildingBlock: AJUNOK_clean_linker_0, # of connection points: 2
#     Edge 24, Type (0, 0), BuildingBlock: AJUNOK_clean_linker_0, # of connection points: 2
#     Edge 25, Type (0, 0), BuildingBlock: AJUNOK_clean_linker_0, # of connection points: 2
#     Edge 26, Type (0, 0), BuildingBlock: AJUNOK_clean_linker_0, # of connection points: 2
#     Edge 27, Type (0, 0), BuildingBlock: AJUNOK_clean_linker_0, # of connection points: 2
#     Edge 28, Type (0, 0), BuildingBlock: AJUNOK_clean_linker_0, # of connection points: 2
#     Edge 29, Type (0, 0), BuildingBlock: AJUNOK_clean_linker_0, # of connection points: 2
#     Edge 30, Type (0, 0), BuildingBlock: AJUNOK_clean_linker_0, # of connection points: 2
#     Edge 31, Type (0, 0), BuildingBlock: AJUNOK_clean_linker_0, # of connection points: 2
#     Edge 32, Type (0, 0), BuildingBlock: AJUNOK_clean_linker_0, # of connection points: 2
#     Edge 33, Type (0, 0), BuildingBlock: AJUNOK_clean_linker_0, # of connection points: 2
#     Edge 34, Type (0, 0), BuildingBlock: AJUNOK_clean_linker_0, # of connection points: 2
#     Edge 35, Type (0, 0), BuildingBlock: AJUNOK_clean_linker_0, # of connection points: 2
#     Edge 36, Type (0, 0), BuildingBlock: AJUNOK_clean_linker_0, # of connection points: 2
#     Edge 37, Type (0, 0), BuildingBlock: AJUNOK_clean_linker_0, # of connection points: 2
#     Edge 38, Type (0, 0), BuildingBlock: AJUNOK_clean_linker_0, # of connection points: 2
#     Edge 39, Type (0, 0), BuildingBlock: AJUNOK_clean_linker_0, # of connection points: 2
#     Edge 40, Type (0, 0), BuildingBlock: AJUNOK_clean_linker_0, # of connection points: 2
#     Edge 41, Type (0, 0), BuildingBlock: AJUNOK_clean_linker_0, # of connection points: 2
# Relax obj value: 0.484
# Max RMSD: 0.252
# Mean RMSD: 0.252
data_MOF--net-wjp--node1-BEQFEK_clean_sbu_0--edge1-AJUNOK_clean_linker_0
_symmetry_space_group_name_H-M    P1
_symmetry_Int_Tables_number       1
_symmetry_cell_setting            triclinic
loop_
_symmetry_equiv_pos_as_xyz
'x, y, z'
_cell_length_a     33.049486
_cell_length_b     33.055497
_cell_length_c     42.797281
_cell_angle_alpha  90.10622
_cell_angle_beta   89.958672
_cell_angle_gamma 120.05626
loop_
_atom_site_label
_atom_site_type_symbol
_atom_site_fract_x
_atom_site_fract_y
_atom_site_fract_z
_atom_type_partial_charge
Co0 Co 0.24817 0.18417 0.53446 0.0
Co1 Co 0.33162 0.27762 0.51337 0.0
C2 C 0.34457 0.23016 0.56616 0.0
O3 O 0.30102 0.20168 0.5635 0.0
O4 O 0.36592 0.26432 0.54728 0.0
C5 C 0.2239 0.09519 0.54836 0.0
O6 O 0.26954 0.11575 0.54586 0.0
C7 C 0.41644 0.36181 0.48802 0.0
C8 C 0.38266 0.37902 0.44974 0.0
C9 C 0.42549 0.39283 0.46349 0.0
N10 N 0.3703 0.33074 0.48826 0.0
N11 N 0.35051 0.34133 0.4653 0.0
C12 C 0.45001 0.36313 0.51196 0.0
H13 H 0.43272 0.35314 0.53513 0.0
H14 H 0.46068 0.33729 0.5055 0.0
H15 H 0.48157 0.39837 0.51341 0.0
C16 C 0.25773 0.1541 0.47118 0.0
N17 N 0.26858 0.18723 0.49315 0.0
N18 N 0.30697 0.22544 0.48499 0.0
C19 C 0.32313 0.21684 0.45814 0.0
C20 C 0.2922 0.17133 0.44855 0.0
C21 C 0.21654 0.10563 0.47236 0.0
H22 H 0.18775 0.10495 0.48606 0.0
H23 H 0.22728 0.08195 0.48311 0.0
H24 H 0.20387 0.09252 0.44839 0.0
O25 O 0.21921 0.22178 0.54038 0.0
O26 O 0.28139 0.29121 0.53139 0.0
H27 H 0.36538 0.27662 0.43002 0.0
H28 H 0.38061 0.23146 0.42728 0.0
C29 C 0.36906 0.24998 0.44346 0.0
H30 H 0.39583 0.26825 0.46185 0.0
H31 H 0.31484 0.32264 0.46028 0.0
O32 O 0.20404 0.11915 0.5443 0.0
C33 C 0.23851 0.26593 0.53947 0.0
Co34 Co 0.05392 0.24218 0.6892 0.0
Co35 Co 0.04639 0.33006 0.67828 0.0
C36 C 0.10626 0.33342 0.72805 0.0
O37 O 0.09205 0.29115 0.72059 0.0
O38 O 0.09265 0.35796 0.71327 0.0
C39 C 0.1213 0.22057 0.68742 0.0
O40 O 0.14354 0.26631 0.68487 0.0
C41 C 0.05331 0.41955 0.65683 0.0
C42 C -0.00496 0.39032 0.62283 0.0
C43 C 0.03084 0.43194 0.63452 0.0
N44 N 0.03162 0.37254 0.65804 0.0
N45 N -0.00328 0.35551 0.6378 0.0
C46 C 0.09672 0.45143 0.67466 0.0
H47 H 0.11878 0.43512 0.67741 0.0
H48 H 0.11685 0.48575 0.6628 0.0
H49 H 0.08682 0.45708 0.69836 0.0
C50 C 0.08338 0.25634 0.62376 0.0
N51 N 0.06531 0.26665 0.64867 0.0
N52 N 0.07211 0.30905 0.64583 0.0
C53 C 0.09852 0.32863 0.62 0.0
C54 C 0.10671 0.29572 0.60518 0.0
C55 C 0.08113 0.2104 0.61858 0.0
H56 H 0.05687 0.18365 0.63527 0.0
H57 H 0.11666 0.21498 0.62041 0.0
H58 H 0.06831 0.19765 0.59462 0.0
O59 O 0.98873 0.21302 0.69959 0.0
O60 O 0.98405 0.27768 0.69695 0.0
H61 H 0.08856 0.38441 0.60463 0.0
H62 H 0.14169 0.38787 0.59043 0.0
C63 C 0.11782 0.37855 0.61077 0.0
H64 H 0.1367 0.40154 0.63087 0.0
H65 H 0.97489 0.3199 0.6335 0.0
O66 O 0.07736 0.19886 0.69156 0.0
C67 C 0.96579 0.23403 0.70321 0.0
Co68 Co 0.80066 0.0532 0.86777 0.0
Co69 Co 0.70849 0.0467 0.8472 0.0
C70 C 0.75807 0.10598 0.90034 0.0
O71 O 0.78511 0.08926 0.89767 0.0
O72 O 0.72428 0.09454 0.88135 0.0
C73 C 0.88957 0.11521 0.88341 0.0
O74 O 0.8706 0.14158 0.88013 0.0
C75 C 0.6292 0.05648 0.82305 0.0
C76 C 0.60288 0.00179 0.78645 0.0
C77 C 0.59566 0.03584 0.79971 0.0
N78 N 0.655 0.03534 0.82347 0.0
N79 N 0.63892 0.00269 0.80159 0.0
C80 C 0.63894 0.09757 0.84302 0.0
H81 H 0.67718 0.12205 0.84432 0.0
H82 H 0.62137 0.11617 0.83373 0.0
H83 H 0.6263 0.08529 0.86708 0.0
C84 C 0.83133 0.09369 0.80477 0.0
N85 N 0.79804 0.07166 0.82664 0.0
N86 N 0.7602 0.07258 0.81848 0.0
C87 C 0.76921 0.09742 0.7917 0.0
C88 C 0.81454 0.11129 0.7821 0.0
C89 C 0.87993 0.10143 0.80657 0.0
H90 H 0.88024 0.07264 0.81959 0.0
H91 H 0.90283 0.13515 0.81851 0.0
H92 H 0.89428 0.10354 0.78279 0.0
O93 O 0.76123 0.98663 0.87313 0.0
O94 O 0.69277 0.98186 0.86446 0.0
H95 H 0.70693 0.08016 0.76649 0.0
H96 H 0.75476 0.13836 0.75896 0.0
C97 C 0.73684 0.11134 0.77724 0.0
H98 H 0.72288 0.12479 0.79557 0.0
H99 H 0.65312 0.98141 0.7967 0.0
O100 O 0.86512 0.07173 0.87797 0.0
C101 C 0.71701 0.96297 0.87212 0.0
Co102 Co 0.74793 0.80625 1.01285 0.0
Co103 Co 0.65667 0.71276 1.01073 0.0
C104 C 0.66015 0.78131 0.05357 0.0
O105 O 0.70177 0.80608 0.04343 0.0
O106 O 0.63392 0.73968 0.04372 0.0
C107 C 0.77645 0.89615 1.00429 0.0
O108 O 0.73125 0.87482 0.99898 0.0
C109 C 0.56386 0.63131 0.9919 0.0
C110 C 0.58918 0.58647 0.9716 0.0
C111 C 0.54953 0.58964 0.97615 0.0
N112 N 0.61047 0.65229 0.99625 0.0
N113 N 0.62504 0.62487 0.98432 0.0
C114 C 0.53382 0.65111 1.00147 0.0
H115 H 0.55493 0.68576 1.01273 0.0
H116 H 0.51545 0.65417 0.9807 0.0
H117 H 0.50667 0.62672 1.018 0.0
C118 C 0.72884 0.8113 0.94716 0.0
N119 N 0.72039 0.78597 0.97342 0.0
N120 N 0.67627 0.75333 0.9744 0.0
C121 C 0.65423 0.7601 0.94997 0.0
C122 C 0.6869 0.79738 0.93192 0.0
C123 C 0.7754 0.85217 0.93855 0.0
H124 H 0.80341 0.85459 0.95404 0.0
H125 H 0.77391 0.88495 0.9394 0.0
H126 H 0.78406 0.84797 0.91416 0.0
O127 O 0.77487 0.77003 0.02732 0.0
O128 O 0.70865 0.70225 0.02961 0.0
H129 H 0.58919 0.69743 0.94286 0.0
H130 H 0.59216 0.74858 0.92544 0.0
C131 C 0.60239 0.7353 0.94601 0.0
H132 H 0.58626 0.7401 0.96738 0.0
H133 H 0.65994 0.63323 0.98388 0.0
O134 O 0.79521 0.87183 1.01066 0.0
C135 C 0.75294 0.72685 0.03377 0.0
Co136 Co 0.93173 0.74335 0.19761 0.0
Co137 Co 0.9375 0.65653 0.18007 0.0
C138 C 0.87774 0.64916 0.23204 0.0
O139 O 0.89367 0.69253 0.2276 0.0
O140 O 0.89035 0.62588 0.21479 0.0
C141 C 0.86887 0.77061 0.20622 0.0
O142 O 0.84317 0.72504 0.20325 0.0
C143 C 0.92863 0.56812 0.15438 0.0
C144 C 0.98465 0.59939 0.11884 0.0
C145 C 0.94977 0.55711 0.13031 0.0
N146 N 0.94987 0.61499 0.1566 0.0
N147 N 0.98342 0.63326 0.1354 0.0
C148 C 0.88718 0.53504 0.17338 0.0
H149 H 0.86557 0.55103 0.17923 0.0
H150 H 0.86569 0.50162 0.16069 0.0
H151 H 0.89956 0.52759 0.19556 0.0
C152 C 0.89452 0.73259 0.13356 0.0
N153 N 0.9149 0.7213 0.15655 0.0
N154 N 0.91138 0.6808 0.15025 0.0
C155 C 0.88587 0.66366 0.12377 0.0
C156 C 0.87453 0.69614 0.11235 0.0
C157 C 0.89167 0.77635 0.13236 0.0
H158 H 0.91961 0.80429 0.14671 0.0
H159 H 0.85684 0.76882 0.1408 0.0
H160 H 0.89522 0.78876 0.1079 0.0
O161 O -0.00204 0.77048 0.20428 0.0
O162 O 0.00237 0.70637 0.19708 0.0
H163 H 0.9 0.61512 0.10025 0.0
H164 H 0.84236 0.60629 0.09288 0.0
C165 C 0.86981 0.61591 0.11093 0.0
H166 H 0.85622 0.58998 0.13016 0.0
H167 H 0.00483 0.66909 0.13178 0.0
O168 O 0.91299 0.78946 0.20509 0.0
C169 C 0.02146 0.74977 0.20419 0.0
Co170 Co 0.18044 0.93439 0.35019 0.0
Co171 Co 0.27477 0.93893 0.34377 0.0
C172 C 0.21112 0.8749 0.38918 0.0
O173 O 0.18502 0.89081 0.38034 0.0
O174 O 0.25164 0.89003 0.37735 0.0
C175 C 0.09071 0.87041 0.344 0.0
O176 O 0.11261 0.84685 0.33985 0.0
C177 C 0.35733 0.93071 0.32377 0.0
C178 C 0.38996 0.99177 0.29213 0.0
C179 C 0.39362 0.95419 0.30254 0.0
N180 N 0.33313 0.9535 0.32551 0.0
N181 N 0.35322 0.99009 0.30675 0.0
C182 C 0.34342 0.88548 0.33985 0.0
H183 H 0.30498 0.86521 0.3431 0.0
H184 H 0.35533 0.8646 0.3264 0.0
H185 H 0.3599 0.89297 0.36331 0.0
C186 C 0.17056 0.90863 0.28437 0.0
N187 N 0.19734 0.92592 0.31005 0.0
N188 N 0.23119 0.91624 0.30927 0.0
C189 C 0.22443 0.88861 0.28409 0.0
C190 C 0.18532 0.88251 0.26754 0.0
C191 C 0.12869 0.91333 0.27729 0.0
H192 H 0.12629 0.93817 0.29355 0.0
H193 H 0.09645 0.87858 0.27824 0.0
H194 H 0.13153 0.92673 0.25318 0.0
O195 O 0.21708 -0.00165 0.36343 0.0
O196 O 0.28564 0.00132 0.36294 0.0
H197 H 0.28936 0.89252 0.27331 0.0
H198 H 0.23896 0.84232 0.25666 0.0
C199 C 0.25243 0.86542 0.27748 0.0
H200 H 0.25146 0.84475 0.29813 0.0
H201 H 0.34066 0.01304 0.30306 0.0
O202 O 0.11427 0.91379 0.35002 0.0
C203 C 0.26076 0.02037 0.36835 0.0
Co204 Co 0.80201 0.74288 0.35724 0.0
Co205 Co 0.70949 0.65692 0.37617 0.0
C206 C 0.75986 0.64723 0.32416 0.0
O207 O 0.78692 0.69094 0.32756 0.0
O208 O 0.72529 0.62421 0.34251 0.0
C209 C 0.89107 0.77036 0.3425 0.0
O210 O 0.87247 0.72501 0.34567 0.0
C211 C 0.6252 0.57092 0.40039 0.0
C212 C 0.60583 0.60384 0.43816 0.0
C213 C 0.59313 0.56126 0.42437 0.0
N214 N 0.65575 0.6172 0.40047 0.0
N215 N 0.64388 0.63644 0.42313 0.0
C216 C 0.6254 0.53778 0.37666 0.0
H217 H 0.63637 0.5553 0.35361 0.0
H218 H 0.65119 0.5274 0.3838 0.0
H219 H 0.5904 0.506 0.37461 0.0
C220 C 0.83096 0.73269 0.4205 0.0
N221 N 0.79832 0.72174 0.39821 0.0
N222 N 0.76058 0.68236 0.40548 0.0
C223 C 0.76901 0.66571 0.4321 0.0
C224 C 0.81385 0.69736 0.44255 0.0
C225 C 0.87934 0.77411 0.41954 0.0
H226 H 0.87968 0.80321 0.40649 0.0
H227 H 0.90304 0.76401 0.40798 0.0
H228 H 0.89273 0.7861 0.44354 0.0
O229 O 0.76322 0.77017 0.35088 0.0
O230 O 0.6947 0.70569 0.35708 0.0
H231 H 0.70847 0.62057 0.45877 0.0
H232 H 0.7551 0.60748 0.46194 0.0
C233 C 0.73649 0.61874 0.44568 0.0
H234 H 0.71986 0.59264 0.42667 0.0
H235 H 0.66191 0.6721 0.4283 0.0
O236 O 0.86635 0.78906 0.34776 0.0
C237 C 0.71901 0.74904 0.34995 0.0
Co238 Co 0.05599 0.80736 0.5312 0.0
Co239 Co 0.0481 0.71194 0.54258 0.0
C240 C 0.10634 0.76707 0.49168 0.0
O241 O 0.09239 0.79528 0.49921 0.0
O242 O 0.0934 0.72935 0.5069 0.0
C243 C 0.12398 0.89608 0.53131 0.0
O244 O 0.14596 0.87229 0.53321 0.0
C245 C 0.05399 0.62925 0.56601 0.0
C246 C -0.00286 0.60399 0.60095 0.0
C247 C 0.03201 0.59648 0.58963 0.0
N248 N 0.03324 0.65538 0.56392 0.0
N249 N -0.00088 0.63965 0.58471 0.0
C250 C 0.09605 0.63785 0.54766 0.0
H251 H 0.11582 0.67469 0.53971 0.0
H252 H 0.11897 0.62942 0.56185 0.0
H253 H 0.08448 0.61485 0.52676 0.0
C254 C 0.08847 0.82428 0.59614 0.0
N255 N 0.06925 0.79547 0.57153 0.0
N256 N 0.07556 0.75957 0.57434 0.0
C257 C 0.10273 0.76656 0.59977 0.0
C258 C 0.11167 0.80793 0.61449 0.0
C259 C 0.08753 0.86864 0.60132 0.0
H260 H 0.06235 0.87098 0.58542 0.0
H261 H 0.12314 0.89908 0.5982 0.0
H262 H 0.07697 0.86995 0.62573 0.0
O263 O 0.99031 0.7715 0.52244 0.0
O264 O 0.98487 0.70185 0.5253 0.0
H265 H 0.09376 0.70275 0.61828 0.0
H266 H 0.15028 0.75303 0.62634 0.0
C267 C 0.12223 0.73599 0.60857 0.0
H268 H 0.136 0.72748 0.58745 0.0
H269 H 0.9781 0.65446 0.58855 0.0
O270 O 0.07984 0.87408 0.52829 0.0
C271 C 0.96661 0.72741 0.51967 0.0
Co272 Co 0.24819 0.05908 0.68609 0.0
Co273 Co 0.33322 0.05184 0.70759 0.0
C274 C 0.34506 0.11245 0.65511 0.0
O275 O 0.30131 0.09632 0.65748 0.0
O276 O 0.36671 0.09999 0.67395 0.0
C277 C 0.22138 0.12165 0.67204 0.0
O278 O 0.26686 0.14772 0.67499 0.0
C279 C 0.4203 0.05953 0.73465 0.0
C280 C 0.38804 0.00423 0.77052 0.0
C281 C 0.43071 0.03819 0.75886 0.0
N282 N 0.37348 0.0392 0.73244 0.0
N283 N 0.3546 0.00613 0.75389 0.0
C284 C 0.45393 0.10027 0.71533 0.0
H285 H 0.43965 0.12373 0.71078 0.0
H286 H 0.48837 0.12012 0.72712 0.0
H287 H 0.45876 0.08728 0.6925 0.0
C288 C 0.25549 0.097 0.74966 0.0
N289 N 0.26769 0.07589 0.72765 0.0
N290 N 0.3067 0.07752 0.73598 0.0
C291 C 0.32193 0.10222 0.76292 0.0
C292 C 0.28968 0.11506 0.77249 0.0
C293 C 0.21374 0.10326 0.74798 0.0
H294 H 0.18553 0.0748 0.7341 0.0
H295 H 0.22405 0.13756 0.73719 0.0
H296 H 0.20039 0.10332 0.77177 0.0
O297 O 0.22128 0.99285 0.67958 0.0
O298 O 0.28441 0.98753 0.68923 0.0
H299 H 0.36695 0.08593 0.78892 0.0
H300 H 0.37713 0.14422 0.79563 0.0
C301 C 0.36822 0.11674 0.77767 0.0
H302 H 0.39576 0.12976 0.75945 0.0
H303 H 0.31869 0.98531 0.75749 0.0
O304 O 0.20241 0.07789 0.67615 0.0
C305 C 0.24159 0.969 0.68076 0.0
Co306 Co 0.17917 0.24272 0.87174 0.0
Co307 Co 0.27405 0.33258 0.87663 0.0
C308 C 0.2091 0.33261 0.8324 0.0
O309 O 0.18295 0.2907 0.84157 0.0
O310 O 0.25008 0.35793 0.84357 0.0
C311 C 0.08945 0.21667 0.87965 0.0
O312 O 0.11156 0.2621 0.88404 0.0
C313 C 0.35645 0.42272 0.89831 0.0
C314 C 0.395 0.39286 0.92203 0.0
C315 C 0.39512 0.43425 0.91712 0.0
N316 N 0.3342 0.37626 0.89295 0.0
N317 N 0.35806 0.35905 0.90674 0.0
C318 C 0.3385 0.45416 0.88831 0.0
H319 H 0.30141 0.43346 0.88097 0.0
H320 H 0.34248 0.47852 0.90751 0.0
H321 H 0.35919 0.47524 0.86805 0.0
C322 C 0.17204 0.25918 0.93781 0.0
N323 N 0.19802 0.26857 0.91174 0.0
N324 N 0.23174 0.31227 0.91208 0.0
C325 C 0.2253 0.33328 0.93734 0.0
C326 C 0.18701 0.30023 0.95445 0.0
C327 C 0.13026 0.21268 0.94529 0.0
H328 H 0.12736 0.18526 0.929 0.0
H329 H 0.09806 0.21525 0.94478 0.0
H330 H 0.13363 0.20229 0.96933 0.0
O331 O 0.21476 0.21481 0.85749 0.0
O332 O 0.28328 0.28042 0.85682 0.0
H333 H 0.28954 0.39651 0.94554 0.0
H334 H 0.23976 0.39379 0.96504 0.0
C335 C 0.25183 0.3847 0.94332 0.0
H336 H 0.24706 0.40311 0.92328 0.0
H337 H 0.3477 0.32361 0.90705 0.0
O338 O 0.11288 0.197 0.87293 0.0
C339 C 0.25814 0.23647 0.85149 0.0
Co340 Co 0.93308 0.18679 1.022 0.0
Co341 Co 0.93939 0.27936 0.04064 0.0
C342 C 0.87918 0.22727 0.98845 0.0
O343 O 0.89549 0.20006 0.99215 0.0
O344 O 0.89155 0.26253 1.00628 0.0
C345 C 0.87231 0.09649 1.00827 0.0
O346 O 0.84464 0.1141 1.01117 0.0
C347 C 0.92941 0.35872 0.06449 0.0
C348 C 0.98429 0.38522 0.10093 0.0
C349 C 0.94995 0.39212 0.08794 0.0
N350 N 0.95082 0.33321 0.06383 0.0
N351 N 0.98362 0.34941 0.08558 0.0
C352 C 0.88815 0.34882 0.0447 0.0
H353 H 0.86412 0.31054 0.04296 0.0
H354 H 0.86912 0.36573 0.0544 0.0
H355 H 0.90039 0.36216 1.02075 0.0
C356 C 0.89371 0.15846 0.08546 0.0
N357 N 0.91527 0.19083 0.06301 0.0
N358 N 0.91377 0.22868 0.07023 0.0
C359 C 0.88894 0.22055 0.09697 0.0
C360 C 0.87574 0.17585 0.10754 0.0
C361 C 0.88654 0.11003 0.08466 0.0
H362 H 0.9152 0.10943 0.0716 0.0
H363 H 0.8526 0.08622 0.07328 0.0
H364 H 0.88522 0.09698 0.10873 0.0
O365 O -0.0006 0.22641 1.01596 0.0
O366 O 0.00435 0.29509 1.02363 0.0
H367 H 0.90524 0.28355 0.12097 0.0
H368 H 0.84732 0.23554 0.12887 0.0
C369 C 0.87434 0.25299 0.11051 0.0
H370 H 0.86063 0.26589 0.09172 0.0
H371 H 0.00502 0.33533 0.09033 0.0
O372 O 0.9158 0.1226 1.01281 0.0
C373 C 0.02318 0.27061 1.01647 0.0
Co374 Co 0.74607 0.93701 0.19637 0.0
Co375 Co 0.6571 0.94145 0.20848 0.0
C376 C 0.65595 0.88619 0.15644 0.0
O377 O 0.69852 0.90169 0.16365 0.0
O378 O 0.62986 0.89652 0.17257 0.0
C379 C 0.77057 0.87204 0.19167 0.0
O380 O 0.72473 0.84804 0.19344 0.0
C381 C 0.56777 0.93324 0.23225 0.0
C382 C 0.59833 0.9885 0.26841 0.0
C383 C 0.55631 0.95368 0.25654 0.0
N384 N 0.61473 0.95473 0.23032 0.0
N385 N 0.63253 0.98792 0.25182 0.0
C386 C 0.5349 0.89187 0.21307 0.0
H387 H 0.5522 0.87231 0.20511 0.0
H388 H 0.50292 0.86851 0.22661 0.0
H389 H 0.52443 0.90422 0.19215 0.0
C390 C 0.72967 0.89997 0.26038 0.0
N391 N 0.72021 0.9202 0.23637 0.0
N392 N 0.67826 0.91444 0.2398 0.0
C393 C 0.65828 0.88722 0.26522 0.0
C394 C 0.69045 0.87733 0.27916 0.0
C395 C 0.77408 0.89876 0.26427 0.0
H396 H 0.80248 0.92591 0.2498 0.0
H397 H 0.76794 0.86357 0.25794 0.0
H398 H 0.7852 0.90492 0.2891 0.0
O399 O 0.77462 0.00291 0.18937 0.0
O400 O 0.70867 0.00514 0.19095 0.0
H401 H 0.60441 0.89692 0.28484 0.0
H402 H 0.59738 0.84002 0.29218 0.0
C403 C 0.60845 0.86828 0.27462 0.0
H404 H 0.58565 0.85492 0.25371 0.0
H405 H 0.66828 0.00916 0.25591 0.0
O406 O 0.79101 0.9163 0.19166 0.0
C407 C 0.75276 0.02496 0.18581 0.0
C408 C 0.50916 0.5167 0.43837 0.0
C409 C 0.55122 0.51685 0.4332 0.0
C410 C 0.469 0.47636 0.44838 0.0
C411 C 0.46953 0.43483 0.45421 0.0
H412 H 0.50718 0.54806 0.43451 0.0
H413 H 0.43728 0.47785 0.45185 0.0
S414 S 0.57091 0.41685 0.44444 0.0
N415 N 0.59141 0.47223 0.43509 0.0
N416 N 0.51524 0.39573 0.45334 0.0
C417 C 0.5113 0.43432 0.44914 0.0
C418 C 0.55234 0.47554 0.43874 0.0
C419 C 0.04237 0.48768 0.59168 0.0
C420 C 0.04087 0.47859 0.62392 0.0
C421 C 0.0432 0.52801 0.58057 0.0
C422 C 0.04154 0.56003 0.60138 0.0
H423 H 0.0411 0.46249 0.57489 0.0
H424 H 0.04205 0.53254 0.55559 0.0
S425 S 0.04011 0.55378 0.68793 0.0
N426 N 0.04029 0.50614 0.67645 0.0
N427 N 0.04132 0.58169 0.65565 0.0
C428 C 0.04215 0.5524 0.63366 0.0
C429 C 0.04201 0.51173 0.64495 0.0
C430 C 0.51 0.04914 0.74838 0.0
C431 C 0.47652 0.04617 0.76991 0.0
C432 C 0.54987 0.04818 0.75846 0.0
C433 C 0.55791 0.0449 0.79039 0.0
H434 H 0.50409 0.04942 0.72351 0.0
H435 H 0.57382 0.04838 0.74107 0.0
S436 S 0.48185 0.03843 0.85612 0.0
N437 N 0.45492 0.04188 0.82461 0.0
N438 N 0.52975 0.03983 0.84349 0.0
C439 C 0.52573 0.0439 0.81221 0.0
C440 C 0.48499 0.04452 0.80196 0.0
C441 C 0.47405 0.51566 0.97989 0.0
C442 C 0.50347 0.55638 0.96314 0.0
C443 C 0.43665 0.47739 0.96508 0.0
C444 C 0.42753 0.47859 0.93305 0.0
H445 H 0.48181 0.51227 1.00402 0.0
H446 H 0.41618 0.44568 0.97844 0.0
S447 S 0.49344 0.5786 0.87954 0.0
N448 N 0.52008 0.59713 0.91358 0.0
N449 N 0.44982 0.52492 0.88554 0.0
C450 C 0.4551 0.52023 0.91654 0.0
C451 C 0.49323 0.55923 0.93168 0.0
C452 C 0.93721 0.43705 0.12965 0.0
C453 C 0.94053 0.42946 0.09762 0.0
C454 C 0.93676 0.47702 0.14013 0.0
C455 C 0.94037 0.51101 0.1189 0.0
H456 H 0.93679 0.41277 0.1468 0.0
H457 H 0.93659 0.48269 0.16505 0.0
S458 S 0.94764 0.50658 0.03259 0.0
N459 N 0.94565 0.45824 0.04476 0.0
N460 N 0.94467 0.53335 0.06439 0.0
C461 C 0.94168 0.50283 0.08676 0.0
C462 C 0.94173 0.46198 0.0761 0.0
C463 C 0.47694 0.94293 0.24767 0.0
C464 C 0.51 0.94304 0.26828 0.0
C465 C 0.43745 0.94352 0.25909 0.0
C466 C 0.42932 0.94323 0.29141 0.0
H467 H 0.48323 0.94571 0.22271 0.0
H468 H 0.41416 0.9463 0.24255 0.0
S469 S 0.5031 0.93865 0.3548 0.0
N470 N 0.53045 0.93931 0.32231 0.0
N471 N 0.45581 0.93977 0.3437 0.0
C472 C 0.46045 0.94011 0.31214 0.0
C473 C 0.50099 0.94024 0.30056 0.0
C474 C 0.12823 0.97317 0.5297 0.0
C475 C 0.14908 0.9465 0.53747 0.0
C476 C 0.15156 0.02126 0.5351 0.0
C477 C 0.19648 0.04409 0.54837 0.0
H478 H 0.09412 0.95702 0.51871 0.0
H479 H 0.13508 0.04083 0.52755 0.0
S480 S 0.26304 0.989 0.57757 0.0
N481 N 0.21494 0.94553 0.56239 0.0
N482 N 0.25871 0.03616 0.57252 0.0
C483 C 0.21659 0.0175 0.55789 0.0
C484 C 0.19296 0.96859 0.55234 0.0
C485 C 0.12563 0.14778 0.69045 0.0
C486 C 0.14579 0.1947 0.68116 0.0
C487 C 0.14897 0.12291 0.68554 0.0
C488 C 0.19314 0.14435 0.67124 0.0
H489 H 0.09225 0.13055 0.70241 0.0
H490 H 0.13331 0.08753 0.69437 0.0
S491 S 0.25707 0.26343 0.63761 0.0
N492 N 0.20977 0.2597 0.65345 0.0
N493 N 0.25342 0.21258 0.64422 0.0
C494 C 0.21224 0.19011 0.66002 0.0
C495 C 0.18867 0.21551 0.66507 0.0
C496 C 0.01361 0.14367 0.8716 0.0
C497 C 0.03877 0.18896 0.88422 0.0
C498 C 0.96489 0.11829 0.87319 0.0
C499 C 0.94013 0.13762 0.88741 0.0
H500 H 0.03145 0.12844 0.85931 0.0
H501 H 0.94654 0.08453 0.86175 0.0
S502 S 0.98989 0.25093 0.92907 0.0
N503 N 0.03567 0.24943 0.91508 0.0
N504 N 0.94387 0.20141 0.91799 0.0
C505 C 0.96493 0.18133 0.90207 0.0
C506 C 0.01443 0.20719 0.90046 0.0
C507 C 0.78234 0.97184 0.99182 0.0
C508 C 0.80415 0.94723 1.00232 0.0
C509 C 0.80569 0.02041 0.99256 0.0
C510 C 0.85171 0.04608 1.00373 0.0
H511 H 0.74647 0.95359 0.98367 0.0
H512 H 0.78702 0.03786 0.98505 0.0
S513 S 0.92599 -0.00153 0.03116 0.0
N514 N 0.87551 0.95199 1.02212 0.0
N515 N 0.9197 0.04392 1.02343 0.0
C516 C 0.87498 0.02217 1.01269 0.0
C517 C 0.85106 0.97248 1.01203 0.0
C518 C 0.77343 0.80043 0.20353 0.0
C519 C 0.79731 0.84792 0.19528 0.0
C520 C 0.79741 0.77643 0.2083 0.0
C521 C 0.84615 0.79891 0.20485 0.0
H522 H 0.73582 0.78143 0.20651 0.0
H523 H 0.77733 0.7397 0.21431 0.0
S524 S 0.92527 0.92332 0.18407 0.0
N525 N 0.8725 0.91708 0.18438 0.0
N526 N 0.91791 0.8716 0.1933 0.0
C527 C 0.87077 0.84667 0.1972 0.0
C528 C 0.84622 0.87124 0.19231 0.0
C529 C 0.01491 0.8664 0.35409 0.0
C530 C 0.04 0.84723 0.34007 0.0
C531 C 0.96616 0.84256 0.35318 0.0
C532 C 0.94142 0.799 0.33824 0.0
H533 H 0.03287 0.89899 0.36695 0.0
H534 H 0.94783 0.85712 0.36564 0.0
S535 S 0.99082 0.7385 0.29279 0.0
N536 N 0.03677 0.78549 0.30705 0.0
N537 N 0.94484 0.74073 0.30548 0.0
C538 C 0.96607 0.78116 0.32221 0.0
C539 C 0.01558 0.80529 0.32312 0.0
C540 C 0.30895 0.07761 0.41024 0.0
C541 C 0.28067 0.06697 0.38346 0.0
C542 C 0.31651 0.11485 0.43007 0.0
C543 C 0.29679 0.14303 0.4234 0.0
H544 H 0.32187 0.0547 0.41735 0.0
H545 H 0.33502 0.11952 0.45187 0.0
S546 S 0.22581 0.13383 0.35413 0.0
N547 N 0.23716 0.09083 0.34976 0.0
N548 N 0.25193 0.16074 0.38687 0.0
C549 C 0.2719 0.13516 0.39548 0.0
C550 C 0.26378 0.09718 0.37551 0.0
C551 C 0.16229 0.26392 0.54043 0.0
C552 C 0.20961 0.2865 0.5495 0.0
C553 C 0.12976 0.27201 0.55614 0.0
C554 C 0.14302 0.30231 0.58195 0.0
H555 H 0.14964 0.23724 0.52243 0.0
H556 H 0.09319 0.25127 0.54979 0.0
S557 S 0.26366 0.3752 0.61222 0.0
N558 N 0.26924 0.34533 0.58316 0.0
N559 N 0.20761 0.35906 0.61367 0.0
C560 C 0.1909 0.32842 0.58942 0.0
C561 C 0.22435 0.32083 0.57295 0.0
C562 C 0.85362 0.12906 0.7302 0.0
C563 C 0.84349 0.14533 0.75773 0.0
C564 C 0.89085 0.15939 0.71085 0.0
C565 C 0.91926 0.20713 0.71831 0.0
H566 H 0.83481 0.09206 0.72477 0.0
H567 H 0.8994 0.14472 0.69098 0.0
S568 S 0.9052 0.26713 0.7872 0.0
N569 N 0.8629 0.21224 0.79087 0.0
N570 N 0.93272 0.26951 0.75439 0.0
C571 C 0.90734 0.22439 0.74469 0.0
C572 C 0.86954 0.19335 0.7645 0.0
C573 C 0.66905 0.89771 0.90926 0.0
C574 C 0.69502 0.9132 0.88143 0.0
C575 C 0.6615 0.85637 0.924 0.0
C576 C 0.67941 0.82916 0.91123 0.0
H577 H 0.65834 0.91975 0.92119 0.0
H578 H 0.64534 0.84801 0.9469 0.0
S579 S 0.74332 0.85105 0.83644 0.0
N580 N 0.73403 0.89551 0.84003 0.0
N581 N 0.71893 0.81765 0.86733 0.0
C582 C 0.70143 0.84207 0.882 0.0
C583 C 0.70952 0.88419 0.86722 0.0
C584 C 0.76305 0.67914 0.07554 0.0
C585 C 0.78009 0.70734 0.0487 0.0
C586 C 0.79318 0.67156 0.09484 0.0
C587 C 0.84097 0.69128 0.08762 0.0
H588 H 0.72735 0.66621 0.08308 0.0
H589 H 0.77982 0.65312 0.11671 0.0
S590 S 0.90116 0.76167 1.01781 0.0
N591 N 0.84671 0.7504 1.01421 0.0
N592 N 0.90268 0.73581 0.05041 0.0
C593 C 0.85735 0.71603 0.05961 0.0
C594 C 0.82703 0.72407 0.04014 0.0
C595 C 0.09764 0.82407 0.20321 0.0
C596 C 0.07114 0.77773 0.21397 0.0
C597 C 0.13876 0.8568 0.21843 0.0
C598 C 0.15451 0.84477 0.2454 0.0
H599 H 0.08468 0.83602 0.18418 0.0
H600 H 0.15603 0.89281 0.21066 0.0
S601 S 0.10125 0.72667 0.28076 0.0
N602 N 0.06693 0.71998 0.25078 0.0
N603 N 0.14305 0.7821 0.28042 0.0
C604 C 0.13075 0.79759 0.25476 0.0
C605 C 0.08928 0.76389 0.23877 0.0
C606 C 0.90538 0.677 0.48048 0.0
C607 C 0.91899 0.70766 0.50621 0.0
C608 C 0.86768 0.66984 0.46129 0.0
C609 C 0.84212 0.69253 0.46757 0.0
H610 H 0.92646 0.66187 0.47347 0.0
H611 H 0.86082 0.64938 0.44012 0.0
S612 S 0.85911 0.7703 0.53459 0.0
N613 N 0.90032 0.75637 0.53885 0.0
N614 N 0.82965 0.7425 0.50295 0.0
C615 C 0.85273 0.71974 0.49468 0.0
C616 C 0.8911 0.72734 0.51401 0.0
C617 C 0.19529 0.86343 0.62788 0.0
C618 C 0.14828 0.83735 0.63756 0.0
C619 C 0.2278 0.9038 0.64429 0.0
C620 C 0.21398 0.91955 0.67056 0.0
H621 H 0.20589 0.85509 0.60597 0.0
H622 H 0.2625 0.92511 0.63463 0.0
S623 S 0.09692 0.85969 0.70775 0.0
N624 N 0.0914 0.82675 0.67716 0.0
N625 N 0.15177 0.9028 0.70753 0.0
C626 C 0.16825 0.89134 0.68191 0.0
C627 C 0.13556 0.85016 0.66551 0.0
C628 C 0.25767 0.16158 0.84285 0.0
C629 C 0.27738 0.2095 0.83587 0.0
C630 C 0.26566 0.13173 0.82375 0.0
C631 C 0.29366 0.14862 0.79697 0.0
H632 H 0.23359 0.14643 0.86224 0.0
H633 H 0.24718 0.09462 0.82876 0.0
S634 S 0.3558 0.27114 0.76914 0.0
N635 N 0.32866 0.27275 0.80117 0.0
N636 N 0.34321 0.21631 0.76513 0.0
C637 C 0.316 0.19678 0.79073 0.0
C638 C 0.30811 0.22738 0.81029 0.0
C639 C 0.08971 0.32091 0.9806 0.0
C640 C 0.07297 0.29217 1.00718 0.0
C641 C 0.13059 0.3282 0.96523 0.0
C642 C 0.15624 0.30757 0.97629 0.0
H643 H 0.06884 0.33402 0.96993 0.0
H644 H 0.1397 0.34644 0.94307 0.0
S645 S 0.13186 0.23712 0.04822 0.0
N646 N 0.08857 0.2484 0.04613 0.0
N647 N 0.16579 0.26335 1.01784 0.0
C648 C 0.14255 0.2832 1.00464 0.0
C649 C 0.1008 0.27519 1.01995 0.0
C650 C 0.82692 0.10056 0.17904 0.0
C651 C 0.77929 0.07196 0.17135 0.0
C652 C 0.85745 0.13765 0.1597 0.0
C653 C 0.84147 0.14752 0.13199 0.0
H654 H 0.84143 0.09206 0.19899 0.0
H655 H 0.89441 0.15644 0.16523 0.0
S656 S 0.71989 0.0859 0.10222 0.0
N657 N 0.71721 0.05846 0.13508 0.0
N658 N 0.77483 0.12815 0.09868 0.0
C659 C 0.79348 0.12159 0.12514 0.0
C660 C 0.76224 0.08387 0.14492 0.0
C661 C 0.71604 0.82265 0.34758 0.0
C662 C 0.69756 0.77596 0.33775 0.0
C663 C 0.70879 0.85448 0.33025 0.0
C664 C 0.68302 0.8409 0.30234 0.0
H665 H 0.73927 0.8356 0.36756 0.0
H666 H 0.7268 0.89087 0.3373 0.0
S667 S 0.62418 0.72217 0.26763 0.0
N668 N 0.64925 0.71697 0.29959 0.0
N669 N 0.63616 0.77706 0.26676 0.0
C670 C 0.66127 0.79357 0.29354 0.0
C671 C 0.66837 0.76097 0.31135 0.0
C672 C 0.3718 0.17516 0.57911 0.0
C673 C 0.36952 0.2152 0.58772 0.0
C674 C 0.37124 0.14401 0.60171 0.0
C675 C 0.36977 0.15261 0.6337 0.0
H676 H 0.36786 0.16466 0.55479 0.0
H677 H 0.36657 0.11068 0.59404 0.0
S678 S 0.37255 0.2568 0.66846 0.0
N679 N 0.37185 0.26459 0.63037 0.0
N680 N 0.37343 0.20758 0.67285 0.0
C681 C 0.37396 0.19564 0.64252 0.0
C682 C 0.37323 0.22666 0.61952 0.0
C683 C 0.18427 0.36049 0.7518 0.0
C684 C 0.13817 0.35185 0.75506 0.0
C685 C 0.21005 0.36 0.77785 0.0
C686 C 0.19005 0.34991 0.80784 0.0
H687 H 0.19895 0.36358 0.72868 0.0
H688 H 0.24382 0.36291 0.77403 0.0
S689 S 0.07241 0.32933 0.82911 0.0
N690 N 0.07538 0.33701 0.79086 0.0
N691 N 0.12336 0.3357 0.83968 0.0
C692 C 0.14548 0.34494 0.81162 0.0
C693 C 0.11959 0.34595 0.78524 0.0
C694 C 0.76596 0.13755 0.95407 0.0
C695 C 0.77439 0.14614 0.92194 0.0
C696 C 0.79721 0.16919 0.97627 0.0
C697 C 0.83859 0.20987 0.96713 0.0
H698 H 0.73799 0.10402 0.96203 0.0
H699 H 0.79181 0.15893 1.00064 0.0
S700 S 0.87343 0.25105 0.88597 0.0
N701 N 0.82364 0.20122 0.88221 0.0
N702 N 0.88337 0.25936 0.92394 0.0
C703 C 0.8449 0.22105 0.93528 0.0
C704 C 0.81249 0.18943 0.91269 0.0
C705 C 0.62786 0.78184 0.10668 0.0
C706 C 0.64388 0.80284 0.07729 0.0
C707 C 0.62577 0.80785 0.13216 0.0
C708 C 0.63874 0.85526 0.12886 0.0
H709 H 0.62111 0.74665 0.11073 0.0
H710 H 0.61802 0.79202 0.15515 0.0
S711 S 0.67658 0.92418 0.0558 0.0
N712 N 0.66756 0.87207 0.04563 0.0
N713 N 0.66374 0.92051 0.09337 0.0
C714 C 0.65066 0.87512 0.099 0.0
C715 C 0.65314 0.84897 0.07324 0.0
C716 C 0.79652 0.62583 0.24647 0.0
C717 C 0.83828 0.62645 0.25429 0.0
C718 C 0.76601 0.6252 0.26966 0.0
C719 C 0.7758 0.62434 0.30148 0.0
H720 H 0.78999 0.63109 0.22243 0.0
H721 H 0.73749 0.63053 0.26273 0.0
S722 S 0.87683 0.61877 0.33408 0.0
N723 N 0.88509 0.6212 0.29588 0.0
N724 N 0.8271 0.61837 0.33945 0.0
C725 C 0.81457 0.61953 0.30937 0.0
C726 C 0.84604 0.621 0.28578 0.0
C727 C 0.14582 0.80014 0.40932 0.0
C728 C 0.19172 0.83779 0.41329 0.0
C729 C 0.11985 0.77222 0.43464 0.0
C730 C 0.13876 0.78102 0.4649 0.0
H731 H 0.12856 0.79451 0.3869 0.0
H732 H 0.08331 0.7466 0.43103 0.0
S733 S 0.25842 0.87266 0.48741 0.0
N734 N 0.25618 0.87981 0.44935 0.0
N735 N 0.2071 0.82775 0.4971 0.0
C736 C 0.18577 0.8161 0.46875 0.0
C737 C 0.21241 0.84436 0.44287 0.0
loop_
_geom_bond_atom_site_label_1
_geom_bond_atom_site_label_2
_geom_bond_distance
_geom_bond_site_symmetry_2
_ccdc_geom_bond_type
Co0 O3 1.970 . S
Co0 N17 1.989 . S
Co0 O25 1.967 . S
Co0 O32 1.920 . S
Co1 O4 1.966 . S
Co1 N10 2.022 . S
Co1 N18 1.993 . S
Co1 O26 1.941 . S
C2 O3 1.258 . S
C2 O4 1.263 . S
O3 Co0 1.970 . S
O3 C2 1.258 . S
O4 Co1 1.966 . S
O4 C2 1.263 . S
C5 O6 1.235 . S
C5 O32 1.289 . S
O6 C5 1.235 . S
C7 C9 1.400 . S
C7 N10 1.351 . S
C7 C12 1.501 . S
C8 C9 1.387 . S
C8 N11 1.341 . S
C9 C7 1.400 . S
C9 C8 1.387 . S
N10 Co1 2.022 . S
N10 C7 1.351 . S
N10 N11 1.365 . S
N11 C8 1.341 . S
N11 N10 1.365 . S
N11 H31 0.862 . S
C12 C7 1.501 . S
C12 H13 0.961 . S
C12 H14 0.961 . S
C12 H15 0.960 . S
H13 C12 0.961 . S
H14 C12 0.961 . S
H15 C12 0.960 . S
C16 N17 1.342 . S
C16 C20 1.401 . S
C16 C21 1.499 . S
N17 Co0 1.989 . S
N17 C16 1.342 . S
N17 N18 1.388 . S
N18 Co1 1.993 . S
N18 N17 1.388 . S
N18 C19 1.346 . S
C19 N18 1.346 . S
C19 C20 1.396 . S
C19 C29 1.510 . S
C20 C16 1.401 . S
C20 C19 1.396 . S
C21 C16 1.499 . S
C21 H22 0.959 . S
C21 H23 0.960 . S
C21 H24 0.961 . S
H22 C21 0.959 . S
H23 C21 0.960 . S
H24 C21 0.961 . S
O25 Co0 1.967 . S
O25 C33 1.258 . S
O26 Co1 1.941 . S
O26 C33 1.266 . S
H27 C29 0.959 . S
H28 C29 0.961 . S
C29 C19 1.510 . S
C29 H27 0.959 . S
C29 H28 0.961 . S
C29 H30 0.960 . S
H30 C29 0.960 . S
H31 N11 0.862 . S
O32 Co0 1.920 . S
O32 C5 1.289 . S
C33 O25 1.258 . S
C33 O26 1.266 . S
Co34 O37 1.970 . S
Co34 N51 1.989 . S
Co34 O59 1.967 . S
Co34 O66 1.920 . S
Co35 O38 1.966 . S
Co35 N44 2.022 . S
Co35 N52 1.993 . S
Co35 O60 1.935 1_455 S
C36 O37 1.258 . S
C36 O38 1.263 . S
O37 Co34 1.970 . S
O37 C36 1.258 . S
O38 Co35 1.966 . S
O38 C36 1.263 . S
C39 O40 1.235 . S
C39 O66 1.289 . S
O40 C39 1.235 . S
C41 C43 1.400 . S
C41 N44 1.351 . S
C41 C46 1.501 . S
C42 C43 1.387 . S
C42 N45 1.341 . S
C43 C41 1.400 . S
C43 C42 1.387 . S
N44 Co35 2.022 . S
N44 C41 1.351 . S
N44 N45 1.365 . S
N45 C42 1.341 . S
N45 N44 1.365 . S
N45 H65 0.862 . S
C46 C41 1.501 . S
C46 H47 0.961 . S
C46 H48 0.961 . S
C46 H49 0.960 . S
H47 C46 0.961 . S
H48 C46 0.961 . S
H49 C46 0.960 . S
C50 N51 1.342 . S
C50 C54 1.401 . S
C50 C55 1.499 . S
N51 Co34 1.989 . S
N51 C50 1.342 . S
N51 N52 1.388 . S
N52 Co35 1.993 . S
N52 N51 1.388 . S
N52 C53 1.346 . S
C53 N52 1.346 . S
C53 C54 1.396 . S
C53 C63 1.510 . S
C54 C50 1.401 . S
C54 C53 1.396 . S
C55 C50 1.499 . S
C55 H56 0.959 . S
C55 H57 0.960 . S
C55 H58 0.961 . S
H56 C55 0.959 . S
H57 C55 0.960 . S
H58 C55 0.961 . S
O59 Co34 1.967 . S
O59 C67 1.258 1_455 S
O60 Co35 1.935 1_655 S
O60 C67 1.262 . S
H61 C63 0.959 . S
H62 C63 0.961 . S
C63 C53 1.510 . S
C63 H61 0.959 . S
C63 H62 0.961 . S
C63 H64 0.960 . S
H64 C63 0.960 . S
H65 N45 0.862 . S
O66 Co34 1.920 . S
O66 C39 1.289 . S
C67 O59 1.258 1_655 S
C67 O60 1.262 . S
Co68 O71 1.970 . S
Co68 N85 1.989 . S
Co68 O93 1.967 . S
Co68 O100 1.920 . S
Co69 O72 1.966 . S
Co69 N78 2.022 . S
Co69 N86 1.993 . S
Co69 O94 1.930 1_545 S
C70 O71 1.258 . S
C70 O72 1.263 . S
O71 Co68 1.970 . S
O71 C70 1.258 . S
O72 Co69 1.966 . S
O72 C70 1.263 . S
C73 O74 1.235 . S
C73 O100 1.289 . S
O74 C73 1.235 . S
C75 C77 1.400 . S
C75 N78 1.351 . S
C75 C80 1.501 . S
C76 C77 1.387 . S
C76 N79 1.341 . S
C77 C75 1.400 . S
C77 C76 1.387 . S
N78 Co69 2.022 . S
N78 C75 1.351 . S
N78 N79 1.365 . S
N79 C76 1.341 . S
N79 N78 1.365 . S
N79 H99 0.862 . S
C80 C75 1.501 . S
C80 H81 0.961 . S
C80 H82 0.961 . S
C80 H83 0.960 . S
H81 C80 0.961 . S
H82 C80 0.961 . S
H83 C80 0.960 . S
C84 N85 1.342 . S
C84 C88 1.401 . S
C84 C89 1.499 . S
N85 Co68 1.989 . S
N85 C84 1.342 . S
N85 N86 1.388 . S
N86 Co69 1.993 . S
N86 N85 1.388 . S
N86 C87 1.346 . S
C87 N86 1.346 . S
C87 C88 1.396 . S
C87 C97 1.510 . S
C88 C84 1.401 . S
C88 C87 1.396 . S
C89 C84 1.499 . S
C89 H90 0.959 . S
C89 H91 0.960 . S
C89 H92 0.961 . S
H90 C89 0.959 . S
H91 C89 0.960 . S
H92 C89 0.961 . S
O93 Co68 1.967 . S
O93 C101 1.258 1_545 S
O94 Co69 1.930 1_565 S
O94 C101 1.273 . S
H95 C97 0.959 . S
H96 C97 0.961 . S
C97 C87 1.510 . S
C97 H95 0.959 . S
C97 H96 0.961 . S
C97 H98 0.960 . S
H98 C97 0.960 . S
H99 N79 0.862 . S
O100 Co68 1.920 . S
O100 C73 1.289 . S
C101 O93 1.258 1_565 S
C101 O94 1.273 . S
Co102 O105 1.970 1_556 S
Co102 N119 1.989 . S
Co102 O127 1.967 . S
Co102 O134 1.920 . S
Co103 O106 1.951 1_556 S
Co103 N112 2.022 . S
Co103 N120 1.993 . S
Co103 O128 1.941 . S
C104 O105 1.258 . S
C104 O106 1.274 . S
O105 Co102 1.970 1_554 S
O105 C104 1.258 . S
O106 Co103 1.951 1_554 S
O106 C104 1.274 . S
C107 O108 1.235 . S
C107 O134 1.289 . S
O108 C107 1.235 . S
C109 C111 1.400 . S
C109 N112 1.351 . S
C109 C114 1.501 . S
C110 C111 1.387 . S
C110 N113 1.341 . S
C111 C109 1.400 . S
C111 C110 1.387 . S
N112 Co103 2.022 . S
N112 C109 1.351 . S
N112 N113 1.365 . S
N113 C110 1.341 . S
N113 N112 1.365 . S
N113 H133 0.862 . S
C114 C109 1.501 . S
C114 H115 0.961 . S
C114 H116 0.961 . S
C114 H117 0.960 . S
H115 C114 0.961 . S
H116 C114 0.961 . S
H117 C114 0.960 . S
C118 N119 1.342 . S
C118 C122 1.401 . S
C118 C123 1.499 . S
N119 Co102 1.989 . S
N119 C118 1.342 . S
N119 N120 1.388 . S
N120 Co103 1.993 . S
N120 N119 1.388 . S
N120 C121 1.346 . S
C121 N120 1.346 . S
C121 C122 1.396 . S
C121 C131 1.510 . S
C122 C118 1.401 . S
C122 C121 1.396 . S
C123 C118 1.499 . S
C123 H124 0.959 . S
C123 H125 0.960 . S
C123 H126 0.961 . S
H124 C123 0.959 . S
H125 C123 0.960 . S
H126 C123 0.961 . S
O127 Co102 1.967 . S
O127 C135 1.258 . S
O128 Co103 1.941 . S
O128 C135 1.266 . S
H129 C131 0.959 . S
H130 C131 0.961 . S
C131 C121 1.510 . S
C131 H129 0.959 . S
C131 H130 0.961 . S
C131 H132 0.960 . S
H132 C131 0.960 . S
H133 N113 0.862 . S
O134 Co102 1.920 . S
O134 C107 1.289 . S
C135 O127 1.258 . S
C135 O128 1.266 . S
Co136 O139 1.970 . S
Co136 N153 1.989 . S
Co136 O161 1.967 . S
Co136 O168 1.920 . S
Co137 O140 1.966 . S
Co137 N146 2.022 . S
Co137 N154 1.993 . S
Co137 O162 1.935 1_655 S
C138 O139 1.258 . S
C138 O140 1.263 . S
O139 Co136 1.970 . S
O139 C138 1.258 . S
O140 Co137 1.966 . S
O140 C138 1.263 . S
C141 O142 1.235 . S
C141 O168 1.289 . S
O142 C141 1.235 . S
C143 C145 1.400 . S
C143 N146 1.351 . S
C143 C148 1.501 . S
C144 C145 1.387 . S
C144 N147 1.341 . S
C145 C143 1.400 . S
C145 C144 1.387 . S
N146 Co137 2.022 . S
N146 C143 1.351 . S
N146 N147 1.365 . S
N147 C144 1.341 . S
N147 N146 1.365 . S
N147 H167 0.862 . S
C148 C143 1.501 . S
C148 H149 0.961 . S
C148 H150 0.961 . S
C148 H151 0.960 . S
H149 C148 0.961 . S
H150 C148 0.961 . S
H151 C148 0.960 . S
C152 N153 1.342 . S
C152 C156 1.401 . S
C152 C157 1.499 . S
N153 Co136 1.989 . S
N153 C152 1.342 . S
N153 N154 1.388 . S
N154 Co137 1.993 . S
N154 N153 1.388 . S
N154 C155 1.346 . S
C155 N154 1.346 . S
C155 C156 1.396 . S
C155 C165 1.510 . S
C156 C152 1.401 . S
C156 C155 1.396 . S
C157 C152 1.499 . S
C157 H158 0.959 . S
C157 H159 0.960 . S
C157 H160 0.961 . S
H158 C157 0.959 . S
H159 C157 0.960 . S
H160 C157 0.961 . S
O161 Co136 1.967 . S
O161 C169 1.258 1_655 S
O162 Co137 1.935 1_455 S
O162 C169 1.262 . S
H163 C165 0.959 . S
H164 C165 0.961 . S
C165 C155 1.510 . S
C165 H163 0.959 . S
C165 H164 0.961 . S
C165 H166 0.960 . S
H166 C165 0.960 . S
H167 N147 0.862 . S
O168 Co136 1.920 . S
O168 C141 1.289 . S
C169 O161 1.258 1_455 S
C169 O162 1.262 . S
Co170 O173 1.970 . S
Co170 N187 1.989 . S
Co170 O195 1.967 . S
Co170 O202 1.920 . S
Co171 O174 1.966 . S
Co171 N180 2.022 . S
Co171 N188 1.993 . S
Co171 O196 1.930 1_565 S
C172 O173 1.258 . S
C172 O174 1.263 . S
O173 Co170 1.970 . S
O173 C172 1.258 . S
O174 Co171 1.966 . S
O174 C172 1.263 . S
C175 O176 1.235 . S
C175 O202 1.289 . S
O176 C175 1.235 . S
C177 C179 1.400 . S
C177 N180 1.351 . S
C177 C182 1.501 . S
C178 C179 1.387 . S
C178 N181 1.341 . S
C179 C177 1.400 . S
C179 C178 1.387 . S
N180 Co171 2.022 . S
N180 C177 1.351 . S
N180 N181 1.365 . S
N181 C178 1.341 . S
N181 N180 1.365 . S
N181 H201 0.862 . S
C182 C177 1.501 . S
C182 H183 0.961 . S
C182 H184 0.961 . S
C182 H185 0.960 . S
H183 C182 0.961 . S
H184 C182 0.961 . S
H185 C182 0.960 . S
C186 N187 1.342 . S
C186 C190 1.401 . S
C186 C191 1.499 . S
N187 Co170 1.989 . S
N187 C186 1.342 . S
N187 N188 1.388 . S
N188 Co171 1.993 . S
N188 N187 1.388 . S
N188 C189 1.346 . S
C189 N188 1.346 . S
C189 C190 1.396 . S
C189 C199 1.510 . S
C190 C186 1.401 . S
C190 C189 1.396 . S
C191 C186 1.499 . S
C191 H192 0.959 . S
C191 H193 0.960 . S
C191 H194 0.961 . S
H192 C191 0.959 . S
H193 C191 0.960 . S
H194 C191 0.961 . S
O195 Co170 1.967 . S
O195 C203 1.258 1_565 S
O196 Co171 1.930 1_545 S
O196 C203 1.273 . S
H197 C199 0.959 . S
H198 C199 0.961 . S
C199 C189 1.510 . S
C199 H197 0.959 . S
C199 H198 0.961 . S
C199 H200 0.960 . S
H200 C199 0.960 . S
H201 N181 0.862 . S
O202 Co170 1.920 . S
O202 C175 1.289 . S
C203 O195 1.258 1_545 S
C203 O196 1.273 . S
Co204 O207 1.970 . S
Co204 N221 1.989 . S
Co204 O229 1.967 . S
Co204 O236 1.920 . S
Co205 O208 1.966 . S
Co205 N214 2.022 . S
Co205 N222 1.993 . S
Co205 O230 1.941 . S
C206 O207 1.258 . S
C206 O208 1.263 . S
O207 Co204 1.970 . S
O207 C206 1.258 . S
O208 Co205 1.966 . S
O208 C206 1.263 . S
C209 O210 1.235 . S
C209 O236 1.289 . S
O210 C209 1.235 . S
C211 C213 1.400 . S
C211 N214 1.351 . S
C211 C216 1.501 . S
C212 C213 1.387 . S
C212 N215 1.341 . S
C213 C211 1.400 . S
C213 C212 1.387 . S
N214 Co205 2.022 . S
N214 C211 1.351 . S
N214 N215 1.365 . S
N215 C212 1.341 . S
N215 N214 1.365 . S
N215 H235 0.862 . S
C216 C211 1.501 . S
C216 H217 0.961 . S
C216 H218 0.961 . S
C216 H219 0.960 . S
H217 C216 0.961 . S
H218 C216 0.961 . S
H219 C216 0.960 . S
C220 N221 1.342 . S
C220 C224 1.401 . S
C220 C225 1.499 . S
N221 Co204 1.989 . S
N221 C220 1.342 . S
N221 N222 1.388 . S
N222 Co205 1.993 . S
N222 N221 1.388 . S
N222 C223 1.346 . S
C223 N222 1.346 . S
C223 C224 1.396 . S
C223 C233 1.510 . S
C224 C220 1.401 . S
C224 C223 1.396 . S
C225 C220 1.499 . S
C225 H226 0.959 . S
C225 H227 0.960 . S
C225 H228 0.961 . S
H226 C225 0.959 . S
H227 C225 0.960 . S
H228 C225 0.961 . S
O229 Co204 1.967 . S
O229 C237 1.258 . S
O230 Co205 1.941 . S
O230 C237 1.266 . S
H231 C233 0.959 . S
H232 C233 0.961 . S
C233 C223 1.510 . S
C233 H231 0.959 . S
C233 H232 0.961 . S
C233 H234 0.960 . S
H234 C233 0.960 . S
H235 N215 0.862 . S
O236 Co204 1.920 . S
O236 C209 1.289 . S
C237 O229 1.258 . S
C237 O230 1.266 . S
Co238 O241 1.970 . S
Co238 N255 1.989 . S
Co238 O263 1.967 . S
Co238 O270 1.920 . S
Co239 O242 1.966 . S
Co239 N248 2.022 . S
Co239 N256 1.993 . S
Co239 O264 1.930 1_455 S
C240 O241 1.258 . S
C240 O242 1.263 . S
O241 Co238 1.970 . S
O241 C240 1.258 . S
O242 Co239 1.966 . S
O242 C240 1.263 . S
C243 O244 1.235 . S
C243 O270 1.289 . S
O244 C243 1.235 . S
C245 C247 1.400 . S
C245 N248 1.351 . S
C245 C250 1.501 . S
C246 C247 1.387 . S
C246 N249 1.341 . S
C247 C245 1.400 . S
C247 C246 1.387 . S
N248 Co239 2.022 . S
N248 C245 1.351 . S
N248 N249 1.365 . S
N249 C246 1.341 . S
N249 N248 1.365 . S
N249 H269 0.862 . S
C250 C245 1.501 . S
C250 H251 0.961 . S
C250 H252 0.961 . S
C250 H253 0.960 . S
H251 C250 0.961 . S
H252 C250 0.961 . S
H253 C250 0.960 . S
C254 N255 1.342 . S
C254 C258 1.401 . S
C254 C259 1.499 . S
N255 Co238 1.989 . S
N255 C254 1.342 . S
N255 N256 1.388 . S
N256 Co239 1.993 . S
N256 N255 1.388 . S
N256 C257 1.346 . S
C257 N256 1.346 . S
C257 C258 1.396 . S
C257 C267 1.510 . S
C258 C254 1.401 . S
C258 C257 1.396 . S
C259 C254 1.499 . S
C259 H260 0.959 . S
C259 H261 0.960 . S
C259 H262 0.961 . S
H260 C259 0.959 . S
H261 C259 0.960 . S
H262 C259 0.961 . S
O263 Co238 1.967 . S
O263 C271 1.258 1_455 S
O264 Co239 1.930 1_655 S
O264 C271 1.273 . S
H265 C267 0.959 . S
H266 C267 0.961 . S
C267 C257 1.510 . S
C267 H265 0.959 . S
C267 H266 0.961 . S
C267 H268 0.960 . S
H268 C267 0.960 . S
H269 N249 0.862 . S
O270 Co238 1.920 . S
O270 C243 1.289 . S
C271 O263 1.258 1_655 S
C271 O264 1.273 . S
Co272 O275 1.970 . S
Co272 N289 1.989 . S
Co272 O297 1.967 . S
Co272 O304 1.920 . S
Co273 O276 1.966 . S
Co273 N282 2.022 . S
Co273 N290 1.993 . S
Co273 O298 1.935 1_545 S
C274 O275 1.258 . S
C274 O276 1.263 . S
O275 Co272 1.970 . S
O275 C274 1.258 . S
O276 Co273 1.966 . S
O276 C274 1.263 . S
C277 O278 1.235 . S
C277 O304 1.289 . S
O278 C277 1.235 . S
C279 C281 1.400 . S
C279 N282 1.351 . S
C279 C284 1.501 . S
C280 C281 1.387 . S
C280 N283 1.341 . S
C281 C279 1.400 . S
C281 C280 1.387 . S
N282 Co273 2.022 . S
N282 C279 1.351 . S
N282 N283 1.365 . S
N283 C280 1.341 . S
N283 N282 1.365 . S
N283 H303 0.862 . S
C284 C279 1.501 . S
C284 H285 0.961 . S
C284 H286 0.961 . S
C284 H287 0.960 . S
H285 C284 0.961 . S
H286 C284 0.961 . S
H287 C284 0.960 . S
C288 N289 1.342 . S
C288 C292 1.401 . S
C288 C293 1.499 . S
N289 Co272 1.989 . S
N289 C288 1.342 . S
N289 N290 1.388 . S
N290 Co273 1.993 . S
N290 N289 1.388 . S
N290 C291 1.346 . S
C291 N290 1.346 . S
C291 C292 1.396 . S
C291 C301 1.510 . S
C292 C288 1.401 . S
C292 C291 1.396 . S
C293 C288 1.499 . S
C293 H294 0.959 . S
C293 H295 0.960 . S
C293 H296 0.961 . S
H294 C293 0.959 . S
H295 C293 0.960 . S
H296 C293 0.961 . S
O297 Co272 1.967 . S
O297 C305 1.258 1_545 S
O298 Co273 1.935 1_565 S
O298 C305 1.262 . S
H299 C301 0.959 . S
H300 C301 0.961 . S
C301 C291 1.510 . S
C301 H299 0.959 . S
C301 H300 0.961 . S
C301 H302 0.960 . S
H302 C301 0.960 . S
H303 N283 0.862 . S
O304 Co272 1.920 . S
O304 C277 1.289 . S
C305 O297 1.258 1_565 S
C305 O298 1.262 . S
Co306 O309 1.970 . S
Co306 N323 1.989 . S
Co306 O331 1.967 . S
Co306 O338 1.920 . S
Co307 O310 1.966 . S
Co307 N316 2.022 . S
Co307 N324 1.993 . S
Co307 O332 1.941 . S
C308 O309 1.258 . S
C308 O310 1.263 . S
O309 Co306 1.970 . S
O309 C308 1.258 . S
O310 Co307 1.966 . S
O310 C308 1.263 . S
C311 O312 1.235 . S
C311 O338 1.289 . S
O312 C311 1.235 . S
C313 C315 1.400 . S
C313 N316 1.351 . S
C313 C318 1.501 . S
C314 C315 1.387 . S
C314 N317 1.341 . S
C315 C313 1.400 . S
C315 C314 1.387 . S
N316 Co307 2.022 . S
N316 C313 1.351 . S
N316 N317 1.365 . S
N317 C314 1.341 . S
N317 N316 1.365 . S
N317 H337 0.862 . S
C318 C313 1.501 . S
C318 H319 0.961 . S
C318 H320 0.961 . S
C318 H321 0.960 . S
H319 C318 0.961 . S
H320 C318 0.961 . S
H321 C318 0.960 . S
C322 N323 1.342 . S
C322 C326 1.401 . S
C322 C327 1.499 . S
N323 Co306 1.989 . S
N323 C322 1.342 . S
N323 N324 1.388 . S
N324 Co307 1.993 . S
N324 N323 1.388 . S
N324 C325 1.346 . S
C325 N324 1.346 . S
C325 C326 1.396 . S
C325 C335 1.510 . S
C326 C322 1.401 . S
C326 C325 1.396 . S
C327 C322 1.499 . S
C327 H328 0.959 . S
C327 H329 0.960 . S
C327 H330 0.961 . S
H328 C327 0.959 . S
H329 C327 0.960 . S
H330 C327 0.961 . S
O331 Co306 1.967 . S
O331 C339 1.258 . S
O332 Co307 1.941 . S
O332 C339 1.266 . S
H333 C335 0.959 . S
H334 C335 0.961 . S
C335 C325 1.510 . S
C335 H333 0.959 . S
C335 H334 0.961 . S
C335 H336 0.960 . S
H336 C335 0.960 . S
H337 N317 0.862 . S
O338 Co306 1.920 . S
O338 C311 1.289 . S
C339 O331 1.258 . S
C339 O332 1.266 . S
Co340 O343 1.970 1_554 S
Co340 N357 1.989 . S
Co340 O365 1.967 . S
Co340 O372 1.920 . S
Co341 O344 1.951 1_554 S
Co341 N350 2.022 . S
Co341 N358 1.993 . S
Co341 O366 1.930 1_655 S
C342 O343 1.258 . S
C342 O344 1.274 . S
O343 Co340 1.970 1_556 S
O343 C342 1.258 . S
O344 Co341 1.951 1_556 S
O344 C342 1.274 . S
C345 O346 1.235 . S
C345 O372 1.289 . S
O346 C345 1.235 . S
C347 C349 1.400 . S
C347 N350 1.351 . S
C347 C352 1.501 . S
C348 C349 1.387 . S
C348 N351 1.341 . S
C349 C347 1.400 . S
C349 C348 1.387 . S
N350 Co341 2.022 . S
N350 C347 1.351 . S
N350 N351 1.365 . S
N351 C348 1.341 . S
N351 N350 1.365 . S
N351 H371 0.862 . S
C352 C347 1.501 . S
C352 H353 0.961 . S
C352 H354 0.961 . S
C352 H355 0.960 . S
H353 C352 0.961 . S
H354 C352 0.961 . S
H355 C352 0.960 . S
C356 N357 1.342 . S
C356 C360 1.401 . S
C356 C361 1.499 . S
N357 Co340 1.989 . S
N357 C356 1.342 . S
N357 N358 1.388 . S
N358 Co341 1.993 . S
N358 N357 1.388 . S
N358 C359 1.346 . S
C359 N358 1.346 . S
C359 C360 1.396 . S
C359 C369 1.510 . S
C360 C356 1.401 . S
C360 C359 1.396 . S
C361 C356 1.499 . S
C361 H362 0.959 . S
C361 H363 0.960 . S
C361 H364 0.961 . S
H362 C361 0.959 . S
H363 C361 0.960 . S
H364 C361 0.961 . S
O365 Co340 1.967 . S
O365 C373 1.258 1_655 S
O366 Co341 1.930 1_455 S
O366 C373 1.273 . S
H367 C369 0.959 . S
H368 C369 0.961 . S
C369 C359 1.510 . S
C369 H367 0.959 . S
C369 H368 0.961 . S
C369 H370 0.960 . S
H370 C369 0.960 . S
H371 N351 0.862 . S
O372 Co340 1.920 . S
O372 C345 1.289 . S
C373 O365 1.258 1_455 S
C373 O366 1.273 . S
Co374 O377 1.970 . S
Co374 N391 1.989 . S
Co374 O399 1.967 . S
Co374 O406 1.920 . S
Co375 O378 1.966 . S
Co375 N384 2.022 . S
Co375 N392 1.993 . S
Co375 O400 1.935 1_565 S
C376 O377 1.258 . S
C376 O378 1.263 . S
O377 Co374 1.970 . S
O377 C376 1.258 . S
O378 Co375 1.966 . S
O378 C376 1.263 . S
C379 O380 1.235 . S
C379 O406 1.289 . S
O380 C379 1.235 . S
C381 C383 1.400 . S
C381 N384 1.351 . S
C381 C386 1.501 . S
C382 C383 1.387 . S
C382 N385 1.341 . S
C383 C381 1.400 . S
C383 C382 1.387 . S
N384 Co375 2.022 . S
N384 C381 1.351 . S
N384 N385 1.365 . S
N385 C382 1.341 . S
N385 N384 1.365 . S
N385 H405 0.862 . S
C386 C381 1.501 . S
C386 H387 0.961 . S
C386 H388 0.961 . S
C386 H389 0.960 . S
H387 C386 0.961 . S
H388 C386 0.961 . S
H389 C386 0.960 . S
C390 N391 1.342 . S
C390 C394 1.401 . S
C390 C395 1.499 . S
N391 Co374 1.989 . S
N391 C390 1.342 . S
N391 N392 1.388 . S
N392 Co375 1.993 . S
N392 N391 1.388 . S
N392 C393 1.346 . S
C393 N392 1.346 . S
C393 C394 1.396 . S
C393 C403 1.510 . S
C394 C390 1.401 . S
C394 C393 1.396 . S
C395 C390 1.499 . S
C395 H396 0.959 . S
C395 H397 0.960 . S
C395 H398 0.961 . S
H396 C395 0.959 . S
H397 C395 0.960 . S
H398 C395 0.961 . S
O399 Co374 1.967 . S
O399 C407 1.258 1_565 S
O400 Co375 1.935 1_545 S
O400 C407 1.262 . S
H401 C403 0.959 . S
H402 C403 0.961 . S
C403 C393 1.510 . S
C403 H401 0.959 . S
C403 H402 0.961 . S
C403 H404 0.960 . S
H404 C403 0.960 . S
H405 N385 0.862 . S
O406 Co374 1.920 . S
O406 C379 1.289 . S
C407 O399 1.258 1_545 S
C407 O400 1.262 . S
C408 C409 1.369 . S
C408 C410 1.419 . S
C408 H412 0.930 . S
C409 C408 1.369 . S
C409 C418 1.429 . S
C410 C408 1.419 . S
C410 C411 1.363 . S
C410 H413 0.929 . S
C411 C410 1.363 . S
C411 C417 1.428 . S
H412 C408 0.930 . S
H413 C410 0.929 . S
S414 N415 1.613 . S
S414 N416 1.610 . S
N415 S414 1.613 . S
N415 C418 1.350 . S
N416 S414 1.610 . S
N416 C417 1.351 . S
C417 C411 1.428 . S
C417 N416 1.351 . S
C417 C418 1.434 . S
C418 C409 1.429 . S
C418 N415 1.350 . S
C418 C417 1.434 . S
C419 C420 1.369 . S
C419 C421 1.419 . S
C419 H423 0.930 . S
C420 C419 1.369 . S
C420 C429 1.429 . S
C421 C419 1.419 . S
C421 C422 1.363 . S
C421 H424 0.929 . S
C422 C421 1.363 . S
C422 C428 1.428 . S
H423 C419 0.930 . S
H424 C421 0.929 . S
S425 N426 1.613 . S
S425 N427 1.610 . S
N426 S425 1.613 . S
N426 C429 1.350 . S
N427 S425 1.610 . S
N427 C428 1.351 . S
C428 C422 1.428 . S
C428 N427 1.351 . S
C428 C429 1.434 . S
C429 C420 1.429 . S
C429 N426 1.350 . S
C429 C428 1.434 . S
C430 C431 1.369 . S
C430 C432 1.419 . S
C430 H434 0.930 . S
C431 C430 1.369 . S
C431 C440 1.429 . S
C432 C430 1.419 . S
C432 C433 1.363 . S
C432 H435 0.929 . S
C433 C432 1.363 . S
C433 C439 1.428 . S
H434 C430 0.930 . S
H435 C432 0.929 . S
S436 N437 1.613 . S
S436 N438 1.610 . S
N437 S436 1.613 . S
N437 C440 1.350 . S
N438 S436 1.610 . S
N438 C439 1.351 . S
C439 C433 1.428 . S
C439 N438 1.351 . S
C439 C440 1.434 . S
C440 C431 1.429 . S
C440 N437 1.350 . S
C440 C439 1.434 . S
C441 C442 1.369 . S
C441 C443 1.419 . S
C441 H445 0.930 . S
C442 C441 1.369 . S
C442 C451 1.429 . S
C443 C441 1.419 . S
C443 C444 1.363 . S
C443 H446 0.929 . S
C444 C443 1.363 . S
C444 C450 1.428 . S
H445 C441 0.930 . S
H446 C443 0.929 . S
S447 N448 1.613 . S
S447 N449 1.610 . S
N448 S447 1.613 . S
N448 C451 1.350 . S
N449 S447 1.610 . S
N449 C450 1.351 . S
C450 C444 1.428 . S
C450 N449 1.351 . S
C450 C451 1.434 . S
C451 C442 1.429 . S
C451 N448 1.350 . S
C451 C450 1.434 . S
C452 C453 1.369 . S
C452 C454 1.419 . S
C452 H456 0.930 . S
C453 C452 1.369 . S
C453 C462 1.429 . S
C454 C452 1.419 . S
C454 C455 1.363 . S
C454 H457 0.929 . S
C455 C454 1.363 . S
C455 C461 1.428 . S
H456 C452 0.930 . S
H457 C454 0.929 . S
S458 N459 1.613 . S
S458 N460 1.610 . S
N459 S458 1.613 . S
N459 C462 1.350 . S
N460 S458 1.610 . S
N460 C461 1.351 . S
C461 C455 1.428 . S
C461 N460 1.351 . S
C461 C462 1.434 . S
C462 C453 1.429 . S
C462 N459 1.350 . S
C462 C461 1.434 . S
C463 C464 1.369 . S
C463 C465 1.419 . S
C463 H467 0.930 . S
C464 C463 1.369 . S
C464 C473 1.429 . S
C465 C463 1.419 . S
C465 C466 1.363 . S
C465 H468 0.929 . S
C466 C465 1.363 . S
C466 C472 1.428 . S
H467 C463 0.930 . S
H468 C465 0.929 . S
S469 N470 1.613 . S
S469 N471 1.610 . S
N470 S469 1.613 . S
N470 C473 1.350 . S
N471 S469 1.610 . S
N471 C472 1.351 . S
C472 C466 1.428 . S
C472 N471 1.351 . S
C472 C473 1.434 . S
C473 C464 1.429 . S
C473 N470 1.350 . S
C473 C472 1.434 . S
C474 C475 1.369 . S
C474 C476 1.419 1_565 S
C474 H478 0.930 . S
C475 C474 1.369 . S
C475 C484 1.429 . S
C476 C474 1.419 1_545 S
C476 C477 1.363 . S
C476 H479 0.929 . S
C477 C476 1.363 . S
C477 C483 1.428 . S
H478 C474 0.930 . S
H479 C476 0.929 . S
S480 N481 1.613 1_545 S
S480 N482 1.610 . S
N481 S480 1.613 1_565 S
N481 C484 1.350 . S
N482 S480 1.610 . S
N482 C483 1.351 . S
C483 C477 1.428 . S
C483 N482 1.351 . S
C483 C484 1.434 1_545 S
C484 C475 1.429 . S
C484 N481 1.350 . S
C484 C483 1.434 1_565 S
C485 C486 1.369 . S
C485 C487 1.419 . S
C485 H489 0.930 . S
C486 C485 1.369 . S
C486 C495 1.429 . S
C487 C485 1.419 . S
C487 C488 1.363 . S
C487 H490 0.929 . S
C488 C487 1.363 . S
C488 C494 1.428 . S
H489 C485 0.930 . S
H490 C487 0.929 . S
S491 N492 1.613 . S
S491 N493 1.610 . S
N492 S491 1.613 . S
N492 C495 1.350 . S
N493 S491 1.610 . S
N493 C494 1.351 . S
C494 C488 1.428 . S
C494 N493 1.351 . S
C494 C495 1.434 . S
C495 C486 1.429 . S
C495 N492 1.350 . S
C495 C494 1.434 . S
C496 C497 1.369 . S
C496 C498 1.419 1_455 S
C496 H500 0.930 . S
C497 C496 1.369 . S
C497 C506 1.429 . S
C498 C496 1.419 1_655 S
C498 C499 1.363 . S
C498 H501 0.929 . S
C499 C498 1.363 . S
C499 C505 1.428 . S
H500 C496 0.930 . S
H501 C498 0.929 . S
S502 N503 1.613 . S
S502 N504 1.610 1_455 S
N503 S502 1.613 . S
N503 C506 1.350 . S
N504 S502 1.610 1_655 S
N504 C505 1.351 . S
C505 C499 1.428 . S
C505 N504 1.351 . S
C505 C506 1.434 1_655 S
C506 C497 1.429 . S
C506 N503 1.350 . S
C506 C505 1.434 1_455 S
C507 C508 1.369 1_554 S
C507 C509 1.419 1_565 S
C507 H511 0.930 . S
C508 C507 1.369 1_556 S
C508 C517 1.429 . S
C509 C507 1.419 1_545 S
C509 C510 1.363 . S
C509 H512 0.929 . S
C510 C509 1.363 . S
C510 C516 1.428 1_554 S
H511 C507 0.930 . S
H512 C509 0.929 . S
S513 N514 1.613 1_545 S
S513 N515 1.610 . S
N514 S513 1.613 1_565 S
N514 C517 1.350 . S
N515 S513 1.610 . S
N515 C516 1.351 . S
C516 C510 1.428 1_556 S
C516 N515 1.351 . S
C516 C517 1.434 1_545 S
C517 C508 1.429 . S
C517 N514 1.350 . S
C517 C516 1.434 1_565 S
C518 C519 1.369 . S
C518 C520 1.419 . S
C518 H522 0.930 . S
C519 C518 1.369 . S
C519 C528 1.429 . S
C520 C518 1.419 . S
C520 C521 1.363 . S
C520 H523 0.929 . S
C521 C520 1.363 . S
C521 C527 1.428 . S
H522 C518 0.930 . S
H523 C520 0.929 . S
S524 N525 1.613 . S
S524 N526 1.610 . S
N525 S524 1.613 . S
N525 C528 1.350 . S
N526 S524 1.610 . S
N526 C527 1.351 . S
C527 C521 1.428 . S
C527 N526 1.351 . S
C527 C528 1.434 . S
C528 C519 1.429 . S
C528 N525 1.350 . S
C528 C527 1.434 . S
C529 C530 1.369 . S
C529 C531 1.419 1_455 S
C529 H533 0.930 . S
C530 C529 1.369 . S
C530 C539 1.429 . S
C531 C529 1.419 1_655 S
C531 C532 1.363 . S
C531 H534 0.929 . S
C532 C531 1.363 . S
C532 C538 1.428 . S
H533 C529 0.930 . S
H534 C531 0.929 . S
S535 N536 1.613 1_655 S
S535 N537 1.610 . S
N536 S535 1.613 1_455 S
N536 C539 1.350 . S
N537 S535 1.610 . S
N537 C538 1.351 . S
C538 C532 1.428 . S
C538 N537 1.351 . S
C538 C539 1.434 1_655 S
C539 C530 1.429 . S
C539 N536 1.350 . S
C539 C538 1.434 1_455 S
C540 C541 1.369 . S
C540 C542 1.419 . S
C540 H544 0.930 . S
C541 C540 1.369 . S
C541 C550 1.429 . S
C542 C540 1.419 . S
C542 C543 1.363 . S
C542 H545 0.929 . S
C543 C542 1.363 . S
C543 C549 1.428 . S
H544 C540 0.930 . S
H545 C542 0.929 . S
S546 N547 1.613 . S
S546 N548 1.610 . S
N547 S546 1.613 . S
N547 C550 1.350 . S
N548 S546 1.610 . S
N548 C549 1.351 . S
C549 C543 1.428 . S
C549 N548 1.351 . S
C549 C550 1.434 . S
C550 C541 1.429 . S
C550 N547 1.350 . S
C550 C549 1.434 . S
C551 C552 1.369 . S
C551 C553 1.419 . S
C551 H555 0.930 . S
C552 C551 1.369 . S
C552 C561 1.429 . S
C553 C551 1.419 . S
C553 C554 1.363 . S
C553 H556 0.929 . S
C554 C553 1.363 . S
C554 C560 1.428 . S
H555 C551 0.930 . S
H556 C553 0.929 . S
S557 N558 1.613 . S
S557 N559 1.610 . S
N558 S557 1.613 . S
N558 C561 1.350 . S
N559 S557 1.610 . S
N559 C560 1.351 . S
C560 C554 1.428 . S
C560 N559 1.351 . S
C560 C561 1.434 . S
C561 C552 1.429 . S
C561 N558 1.350 . S
C561 C560 1.434 . S
C562 C563 1.369 . S
C562 C564 1.419 . S
C562 H566 0.930 . S
C563 C562 1.369 . S
C563 C572 1.429 . S
C564 C562 1.419 . S
C564 C565 1.363 . S
C564 H567 0.929 . S
C565 C564 1.363 . S
C565 C571 1.428 . S
H566 C562 0.930 . S
H567 C564 0.929 . S
S568 N569 1.613 . S
S568 N570 1.610 . S
N569 S568 1.613 . S
N569 C572 1.350 . S
N570 S568 1.610 . S
N570 C571 1.351 . S
C571 C565 1.428 . S
C571 N570 1.351 . S
C571 C572 1.434 . S
C572 C563 1.429 . S
C572 N569 1.350 . S
C572 C571 1.434 . S
C573 C574 1.369 . S
C573 C575 1.419 . S
C573 H577 0.930 . S
C574 C573 1.369 . S
C574 C583 1.429 . S
C575 C573 1.419 . S
C575 C576 1.363 . S
C575 H578 0.929 . S
C576 C575 1.363 . S
C576 C582 1.428 . S
H577 C573 0.930 . S
H578 C575 0.929 . S
S579 N580 1.613 . S
S579 N581 1.610 . S
N580 S579 1.613 . S
N580 C583 1.350 . S
N581 S579 1.610 . S
N581 C582 1.351 . S
C582 C576 1.428 . S
C582 N581 1.351 . S
C582 C583 1.434 . S
C583 C574 1.429 . S
C583 N580 1.350 . S
C583 C582 1.434 . S
C584 C585 1.369 1_554 S
C584 C586 1.419 . S
C584 H588 0.930 . S
C585 C584 1.369 1_556 S
C585 C594 1.429 . S
C586 C584 1.419 . S
C586 C587 1.363 . S
C586 H589 0.929 . S
C587 C586 1.363 . S
C587 C593 1.435 . S
H588 C584 0.930 . S
H589 C586 0.929 . S
S590 N591 1.613 . S
S590 N592 1.610 . S
N591 S590 1.613 . S
N591 C594 1.350 . S
N592 S590 1.610 . S
N592 C593 1.347 1_556 S
C593 C587 1.435 . S
C593 N592 1.347 1_554 S
C593 C594 1.431 1_554 S
C594 C585 1.429 . S
C594 N591 1.350 . S
C594 C593 1.431 1_556 S
C595 C596 1.369 . S
C595 C597 1.419 . S
C595 H599 0.930 . S
C596 C595 1.369 . S
C596 C605 1.429 . S
C597 C595 1.419 . S
C597 C598 1.363 . S
C597 H600 0.929 . S
C598 C597 1.363 . S
C598 C604 1.428 . S
H599 C595 0.930 . S
H600 C597 0.929 . S
S601 N602 1.613 . S
S601 N603 1.610 . S
N602 S601 1.613 . S
N602 C605 1.350 . S
N603 S601 1.610 . S
N603 C604 1.351 . S
C604 C598 1.428 . S
C604 N603 1.351 . S
C604 C605 1.434 . S
C605 C596 1.429 . S
C605 N602 1.350 . S
C605 C604 1.434 . S
C606 C607 1.369 . S
C606 C608 1.419 . S
C606 H610 0.930 . S
C607 C606 1.369 . S
C607 C616 1.429 . S
C608 C606 1.419 . S
C608 C609 1.363 . S
C608 H611 0.929 . S
C609 C608 1.363 . S
C609 C615 1.428 . S
H610 C606 0.930 . S
H611 C608 0.929 . S
S612 N613 1.613 . S
S612 N614 1.610 . S
N613 S612 1.613 . S
N613 C616 1.350 . S
N614 S612 1.610 . S
N614 C615 1.351 . S
C615 C609 1.428 . S
C615 N614 1.351 . S
C615 C616 1.434 . S
C616 C607 1.429 . S
C616 N613 1.350 . S
C616 C615 1.434 . S
C617 C618 1.369 . S
C617 C619 1.419 . S
C617 H621 0.930 . S
C618 C617 1.369 . S
C618 C627 1.429 . S
C619 C617 1.419 . S
C619 C620 1.363 . S
C619 H622 0.929 . S
C620 C619 1.363 . S
C620 C626 1.428 . S
H621 C617 0.930 . S
H622 C619 0.929 . S
S623 N624 1.613 . S
S623 N625 1.610 . S
N624 S623 1.613 . S
N624 C627 1.350 . S
N625 S623 1.610 . S
N625 C626 1.351 . S
C626 C620 1.428 . S
C626 N625 1.351 . S
C626 C627 1.434 . S
C627 C618 1.429 . S
C627 N624 1.350 . S
C627 C626 1.434 . S
C628 C629 1.369 . S
C628 C630 1.419 . S
C628 H632 0.930 . S
C629 C628 1.369 . S
C629 C638 1.429 . S
C630 C628 1.419 . S
C630 C631 1.363 . S
C630 H633 0.929 . S
C631 C630 1.363 . S
C631 C637 1.428 . S
H632 C628 0.930 . S
H633 C630 0.929 . S
S634 N635 1.613 . S
S634 N636 1.610 . S
N635 S634 1.613 . S
N635 C638 1.350 . S
N636 S634 1.610 . S
N636 C637 1.351 . S
C637 C631 1.428 . S
C637 N636 1.351 . S
C637 C638 1.434 . S
C638 C629 1.429 . S
C638 N635 1.350 . S
C638 C637 1.434 . S
C639 C640 1.369 1_556 S
C639 C641 1.419 . S
C639 H643 0.930 . S
C640 C639 1.369 1_554 S
C640 C649 1.429 . S
C641 C639 1.419 . S
C641 C642 1.363 . S
C641 H644 0.929 . S
C642 C641 1.363 . S
C642 C648 1.424 . S
H643 C639 0.930 . S
H644 C641 0.929 . S
S645 N646 1.613 . S
S645 N647 1.610 . S
N646 S645 1.613 . S
N646 C649 1.350 . S
N647 S645 1.610 . S
N647 C648 1.354 1_554 S
C648 C642 1.424 . S
C648 N647 1.354 1_556 S
C648 C649 1.436 1_556 S
C649 C640 1.429 . S
C649 N646 1.350 . S
C649 C648 1.436 1_554 S
C650 C651 1.369 . S
C650 C652 1.419 . S
C650 H654 0.930 . S
C651 C650 1.369 . S
C651 C660 1.429 . S
C652 C650 1.419 . S
C652 C653 1.363 . S
C652 H655 0.929 . S
C653 C652 1.363 . S
C653 C659 1.428 . S
H654 C650 0.930 . S
H655 C652 0.929 . S
S656 N657 1.613 . S
S656 N658 1.610 . S
N657 S656 1.613 . S
N657 C660 1.350 . S
N658 S656 1.610 . S
N658 C659 1.351 . S
C659 C653 1.428 . S
C659 N658 1.351 . S
C659 C660 1.434 . S
C660 C651 1.429 . S
C660 N657 1.350 . S
C660 C659 1.434 . S
C661 C662 1.369 . S
C661 C663 1.419 . S
C661 H665 0.930 . S
C662 C661 1.369 . S
C662 C671 1.429 . S
C663 C661 1.419 . S
C663 C664 1.363 . S
C663 H666 0.929 . S
C664 C663 1.363 . S
C664 C670 1.428 . S
H665 C661 0.930 . S
H666 C663 0.929 . S
S667 N668 1.613 . S
S667 N669 1.610 . S
N668 S667 1.613 . S
N668 C671 1.350 . S
N669 S667 1.610 . S
N669 C670 1.351 . S
C670 C664 1.428 . S
C670 N669 1.351 . S
C670 C671 1.434 . S
C671 C662 1.429 . S
C671 N668 1.350 . S
C671 C670 1.434 . S
C672 C673 1.369 . S
C672 C674 1.419 . S
C672 H676 0.930 . S
C673 C672 1.369 . S
C673 C682 1.429 . S
C674 C672 1.419 . S
C674 C675 1.363 . S
C674 H677 0.929 . S
C675 C674 1.363 . S
C675 C681 1.428 . S
H676 C672 0.930 . S
H677 C674 0.929 . S
S678 N679 1.613 . S
S678 N680 1.610 . S
N679 S678 1.613 . S
N679 C682 1.350 . S
N680 S678 1.610 . S
N680 C681 1.351 . S
C681 C675 1.428 . S
C681 N680 1.351 . S
C681 C682 1.434 . S
C682 C673 1.429 . S
C682 N679 1.350 . S
C682 C681 1.434 . S
C683 C684 1.369 . S
C683 C685 1.419 . S
C683 H687 0.930 . S
C684 C683 1.369 . S
C684 C693 1.429 . S
C685 C683 1.419 . S
C685 C686 1.363 . S
C685 H688 0.929 . S
C686 C685 1.363 . S
C686 C692 1.428 . S
H687 C683 0.930 . S
H688 C685 0.929 . S
S689 N690 1.613 . S
S689 N691 1.610 . S
N690 S689 1.613 . S
N690 C693 1.350 . S
N691 S689 1.610 . S
N691 C692 1.351 . S
C692 C686 1.428 . S
C692 N691 1.351 . S
C692 C693 1.434 . S
C693 C684 1.429 . S
C693 N690 1.350 . S
C693 C692 1.434 . S
C694 C695 1.369 . S
C694 C696 1.419 . S
C694 H698 0.930 . S
C695 C694 1.369 . S
C695 C704 1.429 . S
C696 C694 1.419 . S
C696 C697 1.363 . S
C696 H699 0.929 . S
C697 C696 1.363 . S
C697 C703 1.428 . S
H698 C694 0.930 . S
H699 C696 0.929 . S
S700 N701 1.613 . S
S700 N702 1.610 . S
N701 S700 1.613 . S
N701 C704 1.350 . S
N702 S700 1.610 . S
N702 C703 1.351 . S
C703 C697 1.428 . S
C703 N702 1.351 . S
C703 C704 1.434 . S
C704 C695 1.429 . S
C704 N701 1.350 . S
C704 C703 1.434 . S
C705 C706 1.369 . S
C705 C707 1.419 . S
C705 H709 0.930 . S
C706 C705 1.369 . S
C706 C715 1.429 . S
C707 C705 1.419 . S
C707 C708 1.363 . S
C707 H710 0.929 . S
C708 C707 1.363 . S
C708 C714 1.428 . S
H709 C705 0.930 . S
H710 C707 0.929 . S
S711 N712 1.613 . S
S711 N713 1.610 . S
N712 S711 1.613 . S
N712 C715 1.350 . S
N713 S711 1.610 . S
N713 C714 1.351 . S
C714 C708 1.428 . S
C714 N713 1.351 . S
C714 C715 1.434 . S
C715 C706 1.429 . S
C715 N712 1.350 . S
C715 C714 1.434 . S
C716 C717 1.369 . S
C716 C718 1.419 . S
C716 H720 0.930 . S
C717 C716 1.369 . S
C717 C726 1.429 . S
C718 C716 1.419 . S
C718 C719 1.363 . S
C718 H721 0.929 . S
C719 C718 1.363 . S
C719 C725 1.428 . S
H720 C716 0.930 . S
H721 C718 0.929 . S
S722 N723 1.613 . S
S722 N724 1.610 . S
N723 S722 1.613 . S
N723 C726 1.350 . S
N724 S722 1.610 . S
N724 C725 1.351 . S
C725 C719 1.428 . S
C725 N724 1.351 . S
C725 C726 1.434 . S
C726 C717 1.429 . S
C726 N723 1.350 . S
C726 C725 1.434 . S
C727 C728 1.369 . S
C727 C729 1.419 . S
C727 H731 0.930 . S
C728 C727 1.369 . S
C728 C737 1.429 . S
C729 C727 1.419 . S
C729 C730 1.363 . S
C729 H732 0.929 . S
C730 C729 1.363 . S
C730 C736 1.428 . S
H731 C727 0.930 . S
H732 C729 0.929 . S
S733 N734 1.613 . S
S733 N735 1.610 . S
N734 S733 1.613 . S
N734 C737 1.350 . S
N735 S733 1.610 . S
N735 C736 1.351 . S
C736 C730 1.428 . S
C736 N735 1.351 . S
C736 C737 1.434 . S
C737 C728 1.429 . S
C737 N734 1.350 . S
C737 C736 1.434 . S
C409 C213 1.431 . S
C411 C9 1.428 . S
C420 C43 1.429 . S
C422 C247 1.427 . S
C431 C281 1.425 . S
C433 C77 1.428 . S
C442 C111 1.429 . S
C444 C315 1.430 . S
C453 C349 1.427 . S
C455 C145 1.425 . S
C464 C383 1.429 . S
C466 C179 1.430 . S
C475 C243 0.503 . S
C477 C5 0.500 . S
C486 C39 0.502 . S
C488 C277 0.499 . S
C497 C311 0.493 . S
C499 C73 0.496 . S
C508 C107 0.518 . S
C510 C345 0.514 . S
C519 C379 0.513 . S
C521 C141 0.514 . S
C530 C175 0.513 . S
C532 C209 0.507 . S
C541 C203 1.565 . S
C543 C20 1.463 . S
C552 C33 1.561 . S
C554 C54 1.453 . S
C563 C88 1.452 . S
C565 C67 1.561 . S
C574 C101 1.564 . S
C576 C122 1.463 . S
C585 C135 1.564 . S
C587 C156 1.463 . S
C596 C169 1.561 . S
C598 C190 1.454 . S
C607 C271 1.564 . S
C609 C224 1.462 . S
C618 C258 1.458 . S
C620 C305 1.563 . S
C629 C339 1.561 . S
C631 C292 1.453 . S
C640 C373 1.565 . S
C642 C326 1.463 . S
C651 C407 1.560 . S
C653 C360 1.454 . S
C662 C237 1.560 . S
C664 C394 1.454 . S
C673 C2 1.991 . S
C675 C274 1.989 . S
C684 C36 1.989 . S
C686 C308 1.985 . S
C695 C70 1.986 . S
C697 C342 1.990 . S
C706 C104 1.984 . S
C708 C376 1.986 . S
C717 C138 1.992 . S
C719 C206 1.989 . S
C728 C172 1.991 . S
C730 C240 1.990 . S
