# Generated by pormake.
# Topology wjd, (6)-cn, num edge types: 1
# Building blocks:
#     Node 0, Type 0, BuildingBlock: CUKXOW_clean_sbu_0, # of connection points: 6
#     Node 1, Type 0, BuildingBlock: CUKXOW_clean_sbu_0, # of connection points: 6
#     Node 2, Type 0, BuildingBlock: CUKXOW_clean_sbu_0, # of connection points: 6
#     Node 3, Type 0, BuildingBlock: CUKXOW_clean_sbu_0, # of connection points: 6
#     Node 4, Type 0, BuildingBlock: CUKXOW_clean_sbu_0, # of connection points: 6
#     Node 5, Type 0, BuildingBlock: CUKXOW_clean_sbu_0, # of connection points: 6
#     Node 6, Type 0, BuildingBlock: CUKXOW_clean_sbu_0, # of connection points: 6
#     Node 7, Type 0, BuildingBlock: CUKXOW_clean_sbu_0, # of connection points: 6
#     Node 8, Type 0, BuildingBlock: CUKXOW_clean_sbu_0, # of connection points: 6
#     Node 9, Type 0, BuildingBlock: CUKXOW_clean_sbu_0, # of connection points: 6
#     Node 10, Type 0, BuildingBlock: CUKXOW_clean_sbu_0, # of connection points: 6
#     Node 11, Type 0, BuildingBlock: CUKXOW_clean_sbu_0, # of connection points: 6
#     Edge 12, Type (0, 0), BuildingBlock: MIFKUJ_clean_linker_0, # of connection points: 2
#     Edge 13, Type (0, 0), BuildingBlock: MIFKUJ_clean_linker_0, # of connection points: 2
#     Edge 14, Type (0, 0), BuildingBlock: MIFKUJ_clean_linker_0, # of connection points: 2
#     Edge 15, Type (0, 0), BuildingBlock: MIFKUJ_clean_linker_0, # of connection points: 2
#     Edge 16, Type (0, 0), BuildingBlock: MIFKUJ_clean_linker_0, # of connection points: 2
#     Edge 17, Type (0, 0), BuildingBlock: MIFKUJ_clean_linker_0, # of connection points: 2
#     Edge 18, Type (0, 0), BuildingBlock: MIFKUJ_clean_linker_0, # of connection points: 2
#     Edge 19, Type (0, 0), BuildingBlock: MIFKUJ_clean_linker_0, # of connection points: 2
#     Edge 20, Type (0, 0), BuildingBlock: MIFKUJ_clean_linker_0, # of connection points: 2
#     Edge 21, Type (0, 0), BuildingBlock: MIFKUJ_clean_linker_0, # of connection points: 2
#     Edge 22, Type (0, 0), BuildingBlock: MIFKUJ_clean_linker_0, # of connection points: 2
#     Edge 23, Type (0, 0), BuildingBlock: MIFKUJ_clean_linker_0, # of connection points: 2
#     Edge 24, Type (0, 0), BuildingBlock: MIFKUJ_clean_linker_0, # of connection points: 2
#     Edge 25, Type (0, 0), BuildingBlock: MIFKUJ_clean_linker_0, # of connection points: 2
#     Edge 26, Type (0, 0), BuildingBlock: MIFKUJ_clean_linker_0, # of connection points: 2
#     Edge 27, Type (0, 0), BuildingBlock: MIFKUJ_clean_linker_0, # of connection points: 2
#     Edge 28, Type (0, 0), BuildingBlock: MIFKUJ_clean_linker_0, # of connection points: 2
#     Edge 29, Type (0, 0), BuildingBlock: MIFKUJ_clean_linker_0, # of connection points: 2
#     Edge 30, Type (0, 0), BuildingBlock: MIFKUJ_clean_linker_0, # of connection points: 2
#     Edge 31, Type (0, 0), BuildingBlock: MIFKUJ_clean_linker_0, # of connection points: 2
#     Edge 32, Type (0, 0), BuildingBlock: MIFKUJ_clean_linker_0, # of connection points: 2
#     Edge 33, Type (0, 0), BuildingBlock: MIFKUJ_clean_linker_0, # of connection points: 2
#     Edge 34, Type (0, 0), BuildingBlock: MIFKUJ_clean_linker_0, # of connection points: 2
#     Edge 35, Type (0, 0), BuildingBlock: MIFKUJ_clean_linker_0, # of connection points: 2
#     Edge 36, Type (0, 0), BuildingBlock: MIFKUJ_clean_linker_0, # of connection points: 2
#     Edge 37, Type (0, 0), BuildingBlock: MIFKUJ_clean_linker_0, # of connection points: 2
#     Edge 38, Type (0, 0), BuildingBlock: MIFKUJ_clean_linker_0, # of connection points: 2
#     Edge 39, Type (0, 0), BuildingBlock: MIFKUJ_clean_linker_0, # of connection points: 2
#     Edge 40, Type (0, 0), BuildingBlock: MIFKUJ_clean_linker_0, # of connection points: 2
#     Edge 41, Type (0, 0), BuildingBlock: MIFKUJ_clean_linker_0, # of connection points: 2
#     Edge 42, Type (0, 0), BuildingBlock: MIFKUJ_clean_linker_0, # of connection points: 2
#     Edge 43, Type (0, 0), BuildingBlock: MIFKUJ_clean_linker_0, # of connection points: 2
#     Edge 44, Type (0, 0), BuildingBlock: MIFKUJ_clean_linker_0, # of connection points: 2
#     Edge 45, Type (0, 0), BuildingBlock: MIFKUJ_clean_linker_0, # of connection points: 2
#     Edge 46, Type (0, 0), BuildingBlock: MIFKUJ_clean_linker_0, # of connection points: 2
#     Edge 47, Type (0, 0), BuildingBlock: MIFKUJ_clean_linker_0, # of connection points: 2
# Relax obj value: 0.059
# Max RMSD: 0.157
# Mean RMSD: 0.157
data_MOF--net-wjd--node1-CUKXOW_clean_sbu_0--edge1-MIFKUJ_clean_linker_0
_symmetry_space_group_name_H-M    P1
_symmetry_Int_Tables_number       1
_symmetry_cell_setting            triclinic
loop_
_symmetry_equiv_pos_as_xyz
'x, y, z'
_cell_length_a     41.020464
_cell_length_b     40.90635
_cell_length_c     74.053039
_cell_angle_alpha  90.025384
_cell_angle_beta   89.894984
_cell_angle_gamma 120.04489
loop_
_atom_site_label
_atom_site_type_symbol
_atom_site_fract_x
_atom_site_fract_y
_atom_site_fract_z
_atom_type_partial_charge
Tb0 Tb 0.37386 0.13066 0.12161 0.0
C1 C 0.33031 0.11457 0.08368 0.0
Tb2 Tb 0.31384 0.1528 0.11683 0.0
O3 O 0.33516 0.0796 0.13689 0.0
O4 O 0.31511 0.10203 0.11765 0.0
O5 O 0.35982 0.11765 0.09273 0.0
C6 C 0.25273 0.16047 0.1184 0.0
O7 O 0.30615 0.12335 0.09115 0.0
C8 C 0.38318 0.20591 0.1089 0.0
C9 C 0.35117 0.16043 0.15557 0.0
O10 O 0.28443 0.18372 0.11072 0.0
O11 O 0.25528 0.13262 0.12523 0.0
O12 O 0.3532 0.20236 0.10122 0.0
O13 O 0.37306 0.18199 0.12145 0.0
O14 O 0.32189 0.15718 0.14631 0.0
O15 O 0.37858 0.15728 0.14768 0.0
C16 C 0.4394 0.13172 0.11855 0.0
O17 O 0.41297 0.11172 0.13012 0.0
O18 O 0.42878 0.15084 0.10864 0.0
C19 C 0.30528 0.07834 0.13019 0.0
Tb20 Tb 0.85967 0.71496 0.39231 0.0
C21 C 0.82513 0.67531 0.35454 0.0
Tb22 Tb 0.77619 0.65239 0.39047 0.0
O23 O 0.87069 0.67973 0.41087 0.0
O24 O 0.82885 0.65507 0.39168 0.0
O25 O 0.8535 0.70387 0.36325 0.0
C26 C 0.71467 0.58416 0.39037 0.0
O27 O 0.79325 0.65039 0.36268 0.0
C28 C 0.78839 0.72156 0.38832 0.0
C29 C 0.80786 0.70027 0.42601 0.0
O30 O 0.72083 0.61166 0.37947 0.0
O31 O 0.74288 0.59536 0.40138 0.0
O32 O 0.7569 0.69336 0.39419 0.0
O33 O 0.80889 0.70923 0.3824 0.0
O34 O 0.78431 0.66632 0.41928 0.0
O35 O 0.83741 0.72594 0.41681 0.0
C36 C 0.9288 0.77445 0.38888 0.0
O37 O 0.8993 0.77586 0.39418 0.0
O38 O 0.91921 0.73969 0.38537 0.0
C39 C 0.84346 0.64798 0.40487 0.0
Tb40 Tb 0.88387 0.24056 0.12523 0.0
C41 C 0.89469 0.20716 0.08941 0.0
Tb42 Tb 0.86472 0.15866 0.12569 0.0
O43 O 0.94317 0.26018 0.11928 0.0
O44 O 0.91066 0.21061 0.13402 0.0
O45 O 0.88782 0.23295 0.09646 0.0
C46 C 0.85687 0.08979 0.12357 0.0
O47 O 0.88989 0.17726 0.09875 0.0
C48 C 0.80711 0.16987 0.1256 0.0
C49 C 0.86544 0.19602 0.16273 0.0
O50 O 0.83254 0.09898 0.11813 0.0
O51 O 0.88608 0.11956 0.12997 0.0
O52 O 0.80767 0.14237 0.13394 0.0
O53 O 0.83732 0.18852 0.11676 0.0
O54 O 0.86848 0.1686 0.15469 0.0
O55 O 0.86725 0.22488 0.15356 0.0
C56 C 0.87858 0.30307 0.12628 0.0
O57 O 0.90858 0.30137 0.13004 0.0
O58 O 0.85161 0.2696 0.12202 0.0
C59 C 0.94213 0.23069 0.12648 0.0
Tb60 Tb 0.31144 0.16168 0.38798 0.0
C61 C 0.34609 0.16015 0.35037 0.0
Tb62 Tb 0.37649 0.14465 0.38737 0.0
O63 O 0.35037 0.21918 0.37917 0.0
O64 O 0.36939 0.19039 0.39535 0.0
O65 O 0.31599 0.15677 0.35892 0.0
C66 C 0.44628 0.15523 0.3863 0.0
O67 O 0.37439 0.15979 0.35903 0.0
C68 C 0.30947 0.08479 0.38799 0.0
C69 C 0.33284 0.13302 0.42379 0.0
O70 O 0.41631 0.12554 0.38031 0.0
O71 O 0.43688 0.1788 0.39276 0.0
O72 O 0.33958 0.08446 0.39321 0.0
O73 O 0.31884 0.11602 0.38052 0.0
O74 O 0.365 0.13951 0.41626 0.0
O75 O 0.30713 0.13741 0.41489 0.0
C76 C 0.25011 0.16811 0.39171 0.0
O77 O 0.28277 0.19041 0.39878 0.0
O78 O 0.25176 0.14196 0.38251 0.0
C79 C 0.37955 0.2203 0.38649 0.0
Tb80 Tb 0.77697 0.64154 0.12455 0.0
C81 C 0.80716 0.68251 0.08676 0.0
Tb82 Tb 0.85907 0.70557 0.12121 0.0
O83 O 0.76036 0.67952 0.13767 0.0
O84 O 0.80564 0.70021 0.11986 0.0
O85 O 0.78376 0.65028 0.09512 0.0
C86 C 0.92564 0.76946 0.12353 0.0
O87 O 0.83581 0.71079 0.09547 0.0
C88 C 0.84779 0.63723 0.11542 0.0
C89 C 0.82397 0.67127 0.16019 0.0
O90 O 0.91566 0.74437 0.11086 0.0
O91 O 0.89802 0.75874 0.13488 0.0
O92 O 0.87518 0.66758 0.10839 0.0
O93 O 0.83106 0.64682 0.12662 0.0
O94 O 0.85187 0.69878 0.1507 0.0
O95 O 0.79319 0.64364 0.15256 0.0
C96 C 0.71595 0.57263 0.12232 0.0
O97 O 0.71569 0.60428 0.12206 0.0
O98 O 0.75043 0.5799 0.1238 0.0
C99 C 0.78894 0.70984 0.13098 0.0
Tb100 Tb 0.86342 0.16962 0.39569 0.0
C101 C 0.86387 0.20594 0.3573 0.0
Tb102 Tb 0.88691 0.25608 0.39302 0.0
O103 O 0.81043 0.1566 0.40866 0.0
O104 O 0.83658 0.20231 0.39162 0.0
O105 O 0.86057 0.17634 0.36648 0.0
C106 C 0.87893 0.31662 0.39556 0.0
O107 O 0.87089 0.23829 0.36504 0.0
C108 C 0.94507 0.24481 0.39131 0.0
C109 C 0.90064 0.22352 0.42923 0.0
O110 O 0.90037 0.31248 0.38388 0.0
O111 O 0.86241 0.28687 0.40577 0.0
O112 O 0.94888 0.27839 0.39035 0.0
O113 O 0.91065 0.22227 0.3929 0.0
O114 O 0.89219 0.24814 0.42195 0.0
O115 O 0.89584 0.19301 0.42044 0.0
C116 C 0.85753 0.10172 0.39313 0.0
O117 O 0.84102 0.11161 0.40511 0.0
O118 O 0.8774 0.13007 0.38247 0.0
C119 C 0.80988 0.18614 0.40273 0.0
Tb120 Tb 0.16555 0.31579 0.62114 0.0
C121 C 0.16075 0.34686 0.66023 0.0
Tb122 Tb 0.14469 0.3779 0.62475 0.0
O123 O 0.21619 0.3547 0.60621 0.0
O124 O 0.19462 0.37492 0.62575 0.0
O125 O 0.16074 0.31931 0.65061 0.0
C126 C 0.15154 0.44633 0.6229 0.0
O127 O 0.15857 0.37517 0.65273 0.0
C128 C 0.09017 0.3093 0.63162 0.0
C129 C 0.13784 0.33886 0.58636 0.0
O130 O 0.12026 0.41451 0.62087 0.0
O131 O 0.1786 0.43946 0.62606 0.0
O132 O 0.09143 0.33926 0.63851 0.0
O133 O 0.11619 0.31938 0.62021 0.0
O134 O 0.14226 0.36911 0.59531 0.0
O135 O 0.1424 0.31218 0.59424 0.0
C136 C 0.17529 0.25588 0.62254 0.0
O137 O 0.14327 0.25445 0.62011 0.0
O138 O 0.20148 0.29082 0.62431 0.0
C139 C 0.2192 0.38487 0.61355 0.0
Tb140 Tb 0.23961 0.86851 0.88841 0.0
C141 C 0.20764 0.88622 0.92278 0.0
Tb142 Tb 0.15923 0.85573 0.88672 0.0
O143 O 0.26286 0.92938 0.89305 0.0
O144 O 0.21327 0.89792 0.87851 0.0
O145 O 0.2302 0.87389 0.91691 0.0
C146 C 0.09442 0.85653 0.88739 0.0
O147 O 0.1806 0.8854 0.91253 0.0
C148 C 0.16445 0.7945 0.88872 0.0
C149 C 0.19684 0.85103 0.85043 0.0
O150 O 0.10401 0.83857 0.89868 0.0
O151 O 0.12157 0.87448 0.87588 0.0
O152 O 0.13711 0.79607 0.88084 0.0
O153 O 0.18532 0.82547 0.89658 0.0
O154 O 0.17013 0.85597 0.85792 0.0
O155 O 0.22475 0.85188 0.85999 0.0
C156 C 0.29794 0.85629 0.88892 0.0
O157 O 0.30014 0.8886 0.88588 0.0
O158 O 0.26298 0.83099 0.89159 0.0
C159 C 0.23461 0.92982 0.88531 0.0
Tb160 Tb 0.71548 0.86303 0.62368 0.0
C161 C 0.67841 0.82509 0.66164 0.0
Tb162 Tb 0.6527 0.77923 0.62495 0.0
O163 O 0.67923 0.8761 0.60691 0.0
O164 O 0.65595 0.83238 0.62539 0.0
O165 O 0.70601 0.85437 0.65286 0.0
C166 C 0.58423 0.71833 0.62472 0.0
O167 O 0.65324 0.7935 0.65339 0.0
C168 C 0.72174 0.79114 0.62492 0.0
C169 C 0.69736 0.81336 0.58878 0.0
O170 O 0.61275 0.72158 0.63392 0.0
O171 O 0.59444 0.74919 0.61571 0.0
O172 O 0.6931 0.76013 0.61894 0.0
O173 O 0.71001 0.81125 0.632 0.0
O174 O 0.6642 0.78934 0.59605 0.0
O175 O 0.7239 0.84249 0.59788 0.0
C176 C 0.77631 0.931 0.62823 0.0
O177 O 0.77607 0.90238 0.62046 0.0
O178 O 0.74236 0.92132 0.63334 0.0
C179 C 0.648 0.84814 0.61301 0.0
Tb180 Tb 0.13871 0.36491 0.89138 0.0
C181 C 0.11865 0.31667 0.92673 0.0
Tb182 Tb 0.1534 0.29831 0.89209 0.0
O183 O 0.07775 0.32666 0.89476 0.0
O184 O 0.1113 0.30852 0.88213 0.0
O185 O 0.1278 0.35016 0.91983 0.0
C186 C 0.1536 0.23317 0.89506 0.0
O187 O 0.12313 0.29113 0.91762 0.0
C188 C 0.21407 0.36521 0.89406 0.0
C189 C 0.16318 0.34024 0.8552 0.0
O190 O 0.17291 0.26297 0.90493 0.0
O191 O 0.13381 0.23989 0.88356 0.0
O192 O 0.21315 0.33556 0.88728 0.0
O193 O 0.18237 0.35573 0.90105 0.0
O194 O 0.15672 0.30827 0.86303 0.0
O195 O 0.16206 0.36779 0.86429 0.0
C196 C 0.14641 0.434 0.8906 0.0
O197 O 0.12338 0.40563 0.88063 0.0
O198 O 0.16478 0.42332 0.90092 0.0
C199 C 0.07876 0.29778 0.88805 0.0
Tb200 Tb 0.16996 0.86941 0.61978 0.0
C201 C 0.20627 0.86354 0.65608 0.0
Tb202 Tb 0.25206 0.88482 0.61897 0.0
O203 O 0.14765 0.80926 0.6244 0.0
O204 O 0.19843 0.84079 0.6108 0.0
O205 O 0.18069 0.87015 0.64858 0.0
C206 C 0.31189 0.87513 0.61789 0.0
O207 O 0.23388 0.86348 0.64658 0.0
C208 C 0.2459 0.94535 0.62193 0.0
C209 C 0.22061 0.9047 0.58462 0.0
O210 O 0.30957 0.90085 0.62718 0.0
O211 O 0.28064 0.85508 0.60917 0.0
O212 O 0.27606 0.94611 0.61586 0.0
O213 O 0.22362 0.91279 0.62797 0.0
O214 O 0.24511 0.89497 0.59067 0.0
O215 O 0.19149 0.90044 0.59441 0.0
C216 C 0.10348 0.86671 0.61854 0.0
O217 O 0.11638 0.85322 0.60639 0.0
O218 O 0.12814 0.88202 0.63135 0.0
C219 C 0.17713 0.80933 0.61815 0.0
Tb220 Tb 0.64417 0.76593 0.89074 0.0
C221 C 0.68402 0.79522 0.92919 0.0
Tb222 Tb 0.70373 0.8495 0.89546 0.0
O223 O 0.68447 0.75312 0.8775 0.0
O224 O 0.70248 0.79749 0.89593 0.0
O225 O 0.65438 0.76895 0.92011 0.0
C226 C 0.76477 0.91836 0.89411 0.0
O227 O 0.70953 0.82737 0.92143 0.0
C228 C 0.63313 0.83183 0.90018 0.0
C229 C 0.67215 0.81671 0.85598 0.0
O230 O 0.73466 0.909 0.90353 0.0
O231 O 0.76058 0.88893 0.88545 0.0
O232 O 0.66124 0.85956 0.90842 0.0
O233 O 0.64594 0.8182 0.88894 0.0
O234 O 0.69859 0.84465 0.86585 0.0
O235 O 0.64511 0.78488 0.86325 0.0
C236 C 0.57564 0.70482 0.89303 0.0
O237 O 0.6056 0.70506 0.88699 0.0
O238 O 0.58453 0.73871 0.89792 0.0
C239 C 0.7136 0.78256 0.88443 0.0
H240 H 1.00784 0.26834 0.10772 0.0
H241 H 0.05909 0.25426 0.10634 0.0
H242 H 0.99686 0.15872 0.14169 0.0
H243 H 0.94665 0.17433 0.14397 0.0
H244 H 0.06617 0.19346 0.1515 0.0
H245 H 1.00622 0.14948 0.09374 0.0
H246 H 0.98057 0.15337 0.06427 0.0
H247 H 0.08854 0.24591 0.04885 0.0
H248 H 0.1149 0.24241 0.07825 0.0
H249 H 0.18523 0.11534 0.1352 0.0
H250 H 0.13057 0.12458 0.13646 0.0
H251 H 0.1913 0.22661 0.10501 0.0
H252 H 0.24552 0.21709 0.10346 0.0
H253 H 0.12087 0.18529 0.09304 0.0
H254 H 0.18045 0.22916 0.15094 0.0
H255 H 0.20648 0.22365 0.18003 0.0
H256 H 0.09853 0.13069 0.1951 0.0
H257 H 0.07197 0.13533 0.16598 0.0
C258 C 1.00517 0.24438 0.11521 0.0
C259 C 0.97301 0.22203 0.12573 0.0
C260 C 0.03431 0.23608 0.11427 0.0
C261 C 0.03158 0.20481 0.12355 0.0
C262 C 0.99958 0.18277 0.13426 0.0
C263 C 0.97068 0.19143 0.13541 0.0
C264 C 0.06255 0.19581 0.12253 0.0
C265 C 0.07764 0.19104 0.13868 0.0
C266 C 0.07829 0.19346 0.10586 0.0
C267 C 0.06244 0.19584 0.08824 0.0
C268 C 0.02443 0.1708 0.0841 0.0
C269 C 1.00979 0.1729 0.06739 0.0
C270 C 0.03289 0.19998 0.0547 0.0
C271 C 0.0707 0.22495 0.05869 0.0
C272 C 0.08553 0.22283 0.07535 0.0
C273 C 0.1868 0.13969 0.12856 0.0
C274 C 0.21956 0.16555 0.11926 0.0
C275 C 0.15566 0.14503 0.12934 0.0
C276 C 0.15694 0.17652 0.12097 0.0
C277 C 0.18961 0.20211 0.11155 0.0
C278 C 0.22062 0.19673 0.11074 0.0
C279 C 0.12442 0.18307 0.12198 0.0
C280 C 0.10913 0.18744 0.10583 0.0
C281 C 0.10847 0.18498 0.13864 0.0
C282 C 0.12433 0.18235 0.1562 0.0
C283 C 0.16233 0.20737 0.1604 0.0
C284 C 0.17717 0.20443 0.1769 0.0
C285 C 0.1542 0.17677 0.18938 0.0
C286 C 0.1163 0.15206 0.18541 0.0
C287 C 0.10134 0.15485 0.16891 0.0
H288 H 0.16574 0.17453 0.20215 0.0
H289 H 0.02161 0.20154 0.04173 0.0
H290 H 0.28715 0.01042 0.38379 0.0
H291 H 0.22245 0.95666 0.38458 0.0
H292 H 0.18091 0.0326 0.39644 0.0
H293 H 0.24548 0.08574 0.39618 0.0
H294 H 0.14622 0.96868 0.41689 0.0
H295 H 0.17559 1.00101 0.35419 0.0
H296 H 0.21307 0.01355 0.32634 0.0
H297 H 0.19577 0.901 0.32777 0.0
H298 H 0.15863 0.88797 0.3558 0.0
H299 H 0.95283 0.84863 0.39595 0.0
H300 H 0.01795 0.90129 0.39614 0.0
H301 H 0.05729 0.82504 0.38094 0.0
H302 H 0.9923 0.77263 0.38037 0.0
H303 H 0.09366 0.88868 0.36235 0.0
H304 H 0.06327 0.85589 0.42486 0.0
H305 H 0.02599 0.8435 0.45277 0.0
H306 H 0.04519 0.95677 0.45186 0.0
H307 H 0.0822 0.96968 0.4238 0.0
C308 C 0.2641 0.01548 0.38654 0.0
C309 C 0.27091 0.05236 0.38916 0.0
C310 C 0.22724 0.98486 0.38694 0.0
C311 C 0.19679 0.99075 0.39018 0.0
C312 C 0.20389 0.02745 0.39364 0.0
C313 C 0.24065 0.05794 0.39311 0.0
C314 C 0.15744 0.95889 0.38961 0.0
C315 C 0.13456 0.95141 0.40491 0.0
C316 C 0.14252 0.93595 0.37409 0.0
C317 C 0.16467 0.94366 0.35719 0.0
C318 C 0.18004 0.97904 0.34864 0.0
C319 C 0.20118 0.98622 0.33281 0.0
C320 C 0.20689 0.95813 0.32531 0.0
C321 C 0.19138 0.92276 0.33361 0.0
C322 C 0.17026 0.91545 0.34946 0.0
C323 C 0.97541 0.84324 0.39257 0.0
C324 C 0.96765 0.80662 0.38821 0.0
C325 C 0.01259 0.87325 0.39278 0.0
C326 C 0.04258 0.86701 0.38882 0.0
C327 C 0.03466 0.83053 0.38408 0.0
C328 C 0.99754 0.80061 0.38379 0.0
C329 C 0.08226 0.89838 0.38965 0.0
C330 C 0.10526 0.90583 0.37437 0.0
C331 C 0.09727 0.92126 0.40521 0.0
C332 C 0.07519 0.91363 0.42213 0.0
C333 C 0.05931 0.87807 0.43054 0.0
C334 C 0.03827 0.87097 0.4464 0.0
C335 C 0.03314 0.8993 0.45406 0.0
C336 C 0.04915 0.93484 0.4459 0.0
C337 C 0.07019 0.94207 0.43002 0.0
H338 H 0.01683 0.89374 0.46634 0.0
H339 H 0.22325 0.96373 0.31305 0.0
H340 H 0.7904 0.02462 0.11925 0.0
H341 H 0.77863 0.95981 0.12173 0.0
H342 H 0.89683 1.00248 0.13114 0.0
H343 H 0.90869 0.06759 0.12926 0.0
H344 H 0.84154 0.93558 0.10016 0.0
H345 H 0.86932 0.97639 0.16403 0.0
H346 H 0.85862 1.00486 0.19114 0.0
H347 H 0.7406 0.92289 0.18951 0.0
H348 H 0.75059 0.89435 0.16219 0.0
H349 H 0.84993 0.77325 0.11878 0.0
H350 H 0.86099 0.83743 0.11883 0.0
H351 H 0.75325 0.79869 0.14458 0.0
H352 H 0.74327 0.73424 0.14566 0.0
H353 H 0.7998 0.86371 0.15764 0.0
H354 H 0.76881 0.81715 0.09771 0.0
H355 H 0.77182 0.78832 0.06899 0.0
H356 H 0.88511 0.87856 0.06049 0.0
H357 H 0.88312 0.90753 0.08937 0.0
C358 C 0.81388 0.02017 0.12181 0.0
C359 C 0.85045 0.05099 0.12407 0.0
C360 C 0.80709 0.98322 0.12327 0.0
C361 C 0.83682 0.97657 0.12675 0.0
C362 C 0.87354 1.00724 0.12858 0.0
C363 C 0.88026 0.04427 0.12747 0.0
C364 C 0.82943 0.93743 0.12824 0.0
C365 C 0.83302 0.9199 0.11274 0.0
C366 C 0.81651 0.91672 0.14447 0.0
C367 C 0.81063 0.93359 0.16097 0.0
C368 C 0.84105 0.96473 0.16934 0.0
C369 C 0.83513 0.9808 0.18477 0.0
C370 C 0.79893 0.96578 0.19201 0.0
C371 C 0.76861 0.93455 0.18387 0.0
C372 C 0.77439 0.91841 0.16842 0.0
C373 C 0.8289 0.77845 0.12479 0.0
C374 C 0.79581 0.74879 0.13228 0.0
C375 C 0.835 0.81516 0.12457 0.0
C376 C 0.80752 0.8229 0.13123 0.0
C377 C 0.7748 0.79345 0.13924 0.0
C378 C 0.76907 0.75665 0.13984 0.0
C379 C 0.81306 0.86165 0.12959 0.0
C380 C 0.80862 0.87914 0.145 0.0
C381 C 0.8244 0.88208 0.11308 0.0
C382 C 0.8259 0.86437 0.09581 0.0
C383 C 0.79451 0.83067 0.08981 0.0
C384 C 0.79601 0.81432 0.07348 0.0
C385 C 0.82864 0.83163 0.06291 0.0
C386 C 0.85987 0.8652 0.06869 0.0
C387 C 0.85857 0.88158 0.08505 0.0
H388 H 0.82974 0.81916 0.05022 0.0
H389 H 0.7944 0.97826 0.20395 0.0
H390 H 0.25028 0.23365 0.39677 0.0
H391 H 0.19619 0.24311 0.39816 0.0
H392 H 0.12131 0.12282 0.39271 0.0
H393 H 0.17594 0.11391 0.38979 0.0
H394 H 0.0931 0.15213 0.37466 0.0
H395 H 0.1369 0.17586 0.43441 0.0
H396 H 0.18141 0.20223 0.45981 0.0
H397 H 0.20463 0.31383 0.44609 0.0
H398 H 0.16075 0.28825 0.42038 0.0
H399 H 0.93751 0.1763 0.39875 0.0
H400 H 0.98695 0.15988 0.40071 0.0
H401 H 0.07042 0.27535 0.3888 0.0
H402 H 0.02063 0.29191 0.38683 0.0
H403 H 0.08918 0.24263 0.418 0.0
H404 H 0.03975 0.20765 0.35593 0.0
H405 H 0.98652 0.17193 0.33512 0.0
H406 H 0.96324 0.06797 0.36045 0.0
H407 H 0.01622 0.10316 0.38144 0.0
C408 C 0.22222 0.20928 0.39591 0.0
C409 C 0.2171 0.17308 0.39323 0.0
C410 C 0.19121 0.21461 0.39689 0.0
C411 C 0.15434 0.18362 0.39603 0.0
C412 C 0.14932 0.14727 0.39345 0.0
C413 C 0.18047 0.14212 0.39183 0.0
C414 C 0.12132 0.18955 0.39708 0.0
C415 C 0.09219 0.17151 0.38438 0.0
C416 C 0.11938 0.21446 0.40983 0.0
C417 C 0.14582 0.23014 0.42531 0.0
C418 C 0.15173 0.20607 0.4367 0.0
C419 C 0.17685 0.22088 0.45116 0.0
C420 C 0.19603 0.2597 0.45448 0.0
C421 C 0.18989 0.28378 0.44343 0.0
C422 C 0.16487 0.26913 0.42892 0.0
C423 C 0.96628 0.19808 0.39634 0.0
C424 C 0.97519 0.23521 0.39232 0.0
C425 C 0.99455 0.1887 0.39754 0.0
C426 C 0.03228 0.21629 0.39467 0.0
C427 C 0.0414 0.25362 0.39099 0.0
C428 C 0.01302 0.26301 0.38979 0.0
C429 C 0.06225 0.20618 0.39532 0.0
C430 C 0.09051 0.22328 0.4084 0.0
C431 C 0.06241 0.17905 0.38353 0.0
C432 C 0.03178 0.15802 0.37031 0.0
C433 C 0.02327 0.17718 0.35705 0.0
C434 C 0.99315 0.15704 0.34523 0.0
C435 C 0.97149 0.11771 0.34647 0.0
C436 C 0.98005 0.09842 0.35947 0.0
C437 C 1.01016 0.11843 0.3713 0.0
H438 H 0.94808 0.10219 0.33737 0.0
H439 H 0.21554 0.2711 0.46565 0.0
H440 H 0.26541 0.02989 0.10355 0.0
H441 H 0.2002 0.97815 0.10482 0.0
H442 H 0.19307 1.00354 0.16072 0.0
H443 H 0.25961 0.05397 0.15981 0.0
H444 H 0.15548 0.93009 0.15585 0.0
H445 H 0.15832 0.03442 0.12499 0.0
H446 H 0.18105 0.08493 0.10207 0.0
H447 H 0.14306 1.00233 0.05975 0.0
H448 H 0.12063 0.95129 0.08233 0.0
H449 H 0.95352 0.81847 0.15194 0.0
H450 H 0.01722 0.87315 0.15509 0.0
H451 H 0.04576 0.85156 0.10202 0.0
H452 H 0.98238 0.79692 0.09888 0.0
H453 H 0.06994 0.92721 0.10777 0.0
H454 H 0.07405 0.82479 0.13807 0.0
H455 H 0.05352 0.7735 0.16043 0.0
H456 H 0.07851 0.85287 0.20351 0.0
H457 H 0.09871 0.90458 0.18136 0.0
C458 C 0.24998 0.02405 0.11616 0.0
C459 C 0.26714 0.04569 0.13158 0.0
C460 C 0.21267 0.99481 0.11681 0.0
C461 C 0.19125 0.98774 0.13265 0.0
C462 C 0.20886 1.00867 0.14829 0.0
C463 C 0.24674 0.03737 0.14779 0.0
C464 C 0.15045 0.95888 0.13258 0.0
C465 C 0.13663 0.92993 0.14555 0.0
C466 C 0.12581 0.95828 0.11898 0.0
C467 C 0.13799 0.98898 0.10539 0.0
C468 C 0.15487 0.027 0.1108 0.0
C469 C 0.16771 0.05574 0.09787 0.0
C470 C 0.16351 0.04686 0.0795 0.0
C471 C 0.14624 1.00918 0.07399 0.0
C472 C 0.13338 0.98032 0.08685 0.0
C473 C 0.97339 0.82559 0.14093 0.0
C474 C 0.96316 0.8035 0.12518 0.0
C475 C 1.00974 0.85669 0.14277 0.0
C476 C 0.03629 0.86625 0.12883 0.0
C477 C 0.02572 0.84469 0.11293 0.0
C478 C 0.98956 0.81346 0.11117 0.0
C479 C 0.07535 0.89827 0.13081 0.0
C480 C 0.08875 0.92781 0.11822 0.0
C481 C 0.09951 0.89948 0.14474 0.0
C482 C 0.08743 0.86845 0.15806 0.0
C483 C 0.07483 0.83124 0.1523 0.0
C484 C 0.06333 0.80211 0.16494 0.0
C485 C 0.06459 0.8099 0.18338 0.0
C486 C 0.07747 0.84687 0.18922 0.0
C487 C 0.08896 0.8761 0.17664 0.0
H488 H 0.05568 0.78731 0.19314 0.0
H489 H 0.1736 0.06918 0.06952 0.0
H490 H 0.75384 0.75308 0.40685 0.0
H491 H 0.76943 0.81915 0.4065 0.0
H492 H 0.8605 0.84594 0.36923 0.0
H493 H 0.84565 0.77996 0.37005 0.0
H494 H 0.88226 0.90059 0.39283 0.0
H495 H 0.77526 0.83525 0.35478 0.0
H496 H 0.71148 0.78553 0.34601 0.0
H497 H 0.66384 0.81928 0.3888 0.0
H498 H 0.7274 0.86889 0.39799 0.0
H499 H 0.89492 0.07872 0.37049 0.0
H500 H 0.88677 0.0151 0.36819 0.0
H501 H 0.80298 0.97645 0.41044 0.0
H502 H 0.81102 0.03968 0.41276 0.0
H503 H 0.78001 0.92906 0.38098 0.0
H504 H 0.89048 0.99336 0.4193 0.0
H505 H 0.95504 0.04408 0.42623 0.0
H506 H 0.99693 0.01355 0.37985 0.0
H507 H 0.9325 0.96288 0.37252 0.0
C508 C 0.77717 0.77312 0.39859 0.0
C509 C 0.79832 0.7615 0.38833 0.0
C510 C 0.78601 0.81082 0.39834 0.0
C511 C 0.81566 0.83744 0.38752 0.0
C512 C 0.83742 0.82596 0.37761 0.0
C513 C 0.82886 0.78828 0.37804 0.0
C514 C 0.82343 0.87701 0.38641 0.0
C515 C 0.86 0.90682 0.38996 0.0
C516 C 0.79446 0.88529 0.38269 0.0
C517 C 0.75613 0.85561 0.37716 0.0
C518 C 0.7512 0.83191 0.3624 0.0
C519 C 0.71508 0.80377 0.35734 0.0
C520 C 0.68363 0.7992 0.36687 0.0
C521 C 0.68823 0.82283 0.38144 0.0
C522 C 0.72429 0.851 0.38657 0.0
C523 C 0.87486 0.05658 0.37928 0.0
C524 C 0.85353 0.06395 0.39178 0.0
C525 C 0.87031 0.02037 0.378 0.0
C526 C 0.84433 0.99111 0.38919 0.0
C527 C 0.82311 0.9986 0.40166 0.0
C528 C 0.8278 0.03472 0.40301 0.0
C529 C 0.83847 0.95237 0.38786 0.0
C530 C 0.80226 0.92275 0.38374 0.0
C531 C 0.86788 0.94442 0.39076 0.0
C532 C 0.90664 0.97455 0.39528 0.0
C533 C 0.91343 0.99761 0.41052 0.0
C534 C 0.95 0.02631 0.41453 0.0
C535 C 0.98006 0.03203 0.40349 0.0
C536 C 0.97361 1.00905 0.3884 0.0
C537 C 0.93709 0.98032 0.38432 0.0
H538 H 1.00835 0.05425 0.40663 0.0
H539 H 0.65569 0.77739 0.36293 0.0
H540 H 0.29768 0.0204 0.61992 0.0
H541 H 0.28552 0.07342 0.61946 0.0
H542 H 0.16598 0.99492 0.62107 0.0
H543 H 0.17832 0.94236 0.62158 0.0
H544 H 0.18823 0.05414 0.59542 0.0
H545 H 0.20511 0.03604 0.65831 0.0
H546 H 0.23899 0.02974 0.68433 0.0
H547 H 0.33235 0.14084 0.67426 0.0
H548 H 0.29922 0.14757 0.648 0.0
H549 H 0.12329 0.1811 0.61818 0.0
H550 H 0.1351 0.12791 0.61738 0.0
H551 H 0.25376 0.20501 0.62536 0.0
H552 H 0.24196 0.25789 0.62652 0.0
H553 H 0.23197 0.1459 0.64602 0.0
H554 H 0.21799 0.16564 0.58358 0.0
H555 H 0.18747 0.17302 0.55646 0.0
H556 H 0.09315 0.06144 0.56415 0.0
H557 H 0.12293 0.05358 0.59146 0.0
C558 C 0.26886 0.01457 0.62022 0.0
C559 C 0.23876 0.97727 0.62125 0.0
C560 C 0.26195 0.04479 0.61997 0.0
C561 C 0.22484 0.03803 0.62044 0.0
C562 C 0.19482 1.00075 0.62083 0.0
C563 C 0.20181 0.97071 0.62136 0.0
C564 C 0.21721 0.06976 0.62091 0.0
C565 C 0.19735 0.074 0.60657 0.0
C566 C 0.22998 0.09607 0.63525 0.0
C567 C 0.24986 0.09215 0.65108 0.0
C568 C 0.233 0.059 0.66154 0.0
C569 C 0.25204 0.05537 0.67636 0.0
C570 C 0.28784 0.08483 0.68092 0.0
C571 C 0.30464 0.11802 0.6707 0.0
C572 C 0.28574 0.12177 0.65585 0.0
C573 C 0.15182 0.18654 0.61982 0.0
C574 C 0.18172 0.2235 0.62242 0.0
C575 C 0.15859 0.15623 0.61925 0.0
C576 C 0.19541 0.16249 0.62111 0.0
C577 C 0.22515 0.19945 0.62389 0.0
C578 C 0.21838 0.22965 0.62452 0.0
C579 C 0.20306 0.13063 0.62045 0.0
C580 C 0.22282 0.1262 0.63482 0.0
C581 C 0.19066 0.10446 0.60598 0.0
C582 C 0.17248 0.10922 0.58969 0.0
C583 C 0.19057 0.14283 0.57959 0.0
C584 C 0.17345 0.14706 0.56416 0.0
C585 C 0.13834 0.11777 0.55862 0.0
C586 C 0.12032 0.08414 0.56848 0.0
C587 C 0.13731 0.07977 0.58393 0.0
H588 H 0.12514 0.12109 0.54666 0.0
H589 H 0.30253 0.08197 0.69239 0.0
H590 H 0.0387 0.82691 0.9127 0.0
H591 H 0.97484 0.81683 0.91009 0.0
H592 H 1.00114 0.86637 0.85681 0.0
H593 H 0.06555 0.8781 0.85979 0.0
H594 H 0.95984 0.88767 0.87223 0.0
H595 H 0.94958 0.76751 0.86437 0.0
H596 H 0.95835 0.71364 0.87181 0.0
H597 H 0.89388 0.69378 0.92043 0.0
H598 H 0.88516 0.74786 0.91341 0.0
H599 H 0.74157 0.74847 0.86261 0.0
H600 H 0.80732 0.76351 0.85996 0.0
H601 H 0.84084 0.8544 0.89817 0.0
H602 H 0.77528 0.83896 0.90116 0.0
H603 H 0.85159 0.7609 0.88612 0.0
H604 H 0.93473 0.9275 0.88469 0.0
H605 H 0.92941 0.97973 0.87137 0.0
H606 H 0.8471 0.90313 0.83372 0.0
H607 H 0.85328 0.8507 0.84614 0.0
C608 C 0.03089 0.83598 0.90052 0.0
C609 C 0.05691 0.85311 0.88641 0.0
C610 C 0.99429 0.82992 0.89896 0.0
C611 C 0.98273 0.83997 0.88306 0.0
C612 C 1.0092 0.85818 0.86918 0.0
C613 C 0.046 0.86485 0.87088 0.0
C614 C 0.94302 0.83114 0.88082 0.0
C615 C 0.93615 0.86001 0.87534 0.0
C616 C 0.912 0.79463 0.8842 0.0
C617 C 0.91699 0.76194 0.88843 0.0
C618 C 0.93748 0.7518 0.8767 0.0
C619 C 0.94241 0.72121 0.88084 0.0
C620 C 0.92675 0.70036 0.8966 0.0
C621 C 0.90603 0.70998 0.90824 0.0
C622 C 0.90105 0.74058 0.90418 0.0
C623 C 0.76304 0.77178 0.87034 0.0
C624 C 0.75336 0.79266 0.88201 0.0
C625 C 0.80054 0.78035 0.86882 0.0
C626 C 0.82905 0.81027 0.87876 0.0
C627 C 0.81944 0.83155 0.89018 0.0
C628 C 0.78194 0.8227 0.89186 0.0
C629 C 0.86844 0.81782 0.87812 0.0
C630 C 0.87524 0.78865 0.88306 0.0
C631 C 0.89929 0.85379 0.8737 0.0
C632 C 0.89409 0.88489 0.86659 0.0
C633 C 0.91551 0.92171 0.87354 0.0
C634 C 0.91253 0.95145 0.86605 0.0
C635 C 0.88794 0.94476 0.85168 0.0
C636 C 0.8662 0.90828 0.84482 0.0
C637 C 0.86945 0.8785 0.85209 0.0
H638 H 0.88565 0.96782 0.84589 0.0
H639 H 0.93062 0.67669 0.89978 0.0
H640 H 0.78124 0.98878 0.6484 0.0
H641 H 0.83549 0.05232 0.65167 0.0
H642 H 0.90023 0.0226 0.61619 0.0
H643 H 0.84628 0.9584 0.61349 0.0
H644 H 0.94337 0.06435 0.64242 0.0
H645 H 0.8586 0.07477 0.60158 0.0
H646 H 0.79809 0.06721 0.59124 0.0
H647 H 0.79841 0.1354 0.63542 0.0
H648 H 0.85873 0.14295 0.64616 0.0
H649 H 0.07851 0.24804 0.61224 0.0
H650 H 0.0264 0.18328 0.61483 0.0
H651 H 0.97759 0.21734 0.6573 0.0
H652 H 0.03056 0.28248 0.65503 0.0
H653 H 0.92674 0.17421 0.62967 0.0
H654 H 0.01727 0.1677 0.66823 0.0
H655 H 0.07976 0.17684 0.67587 0.0
H656 H 0.0704 0.1021 0.6329 0.0
H657 H 1.00819 0.09313 0.62475 0.0
C658 C 0.80712 0.9958 0.64137 0.0
C659 C 0.80956 0.96888 0.63058 0.0
C660 C 0.83807 0.03217 0.64318 0.0
C661 C 0.8718 0.04259 0.63389 0.0
C662 C 0.87452 0.01533 0.62345 0.0
C663 C 0.84368 0.97872 0.62185 0.0
C664 C 0.9039 0.08207 0.63478 0.0
C665 C 0.93976 0.08832 0.63946 0.0
C666 C 0.89921 0.11353 0.63122 0.0
C667 C 0.86296 0.10908 0.62478 0.0
C668 C 0.84562 0.08791 0.60917 0.0
C669 C 0.81139 0.08367 0.60322 0.0
C670 C 0.79436 0.10072 0.6127 0.0
C671 C 0.8116 0.12215 0.62811 0.0
C672 C 0.84582 0.12644 0.63413 0.0
C673 C 0.05716 0.24164 0.62241 0.0
C674 C 0.05888 0.27013 0.63365 0.0
C675 C 0.02729 0.20464 0.62381 0.0
C676 C 0.99837 0.19543 0.63639 0.0
C677 C 0.99978 0.22388 0.64757 0.0
C678 C 0.02998 0.26097 0.64628 0.0
C679 C 0.96601 0.15633 0.63725 0.0
C680 C 0.93017 0.1502 0.63282 0.0
C681 C 0.9709 0.12503 0.64073 0.0
C682 C 1.00813 0.12997 0.64579 0.0
C683 C 0.02865 0.15344 0.66031 0.0
C684 C 0.06404 0.15859 0.66474 0.0
C685 C 0.07911 0.14016 0.65484 0.0
C686 C 0.05874 0.11642 0.64054 0.0
C687 C 0.0234 0.11129 0.63602 0.0
H688 H 0.10654 0.14422 0.65826 0.0
H689 H 0.76786 0.09741 0.60807 0.0
H690 H 0.11933 0.17112 0.87318 0.0
H691 H 0.12978 0.11709 0.87262 0.0
H692 H 0.20577 0.16402 0.91777 0.0
H693 H 0.19583 0.21819 0.91817 0.0
H694 H 0.23657 0.14443 0.89138 0.0
H695 H 0.11691 0.08612 0.92187 0.0
H696 H 0.04978 0.0662 0.9257 0.0
H697 H 0.02269 0.99887 0.87762 0.0
H698 H 0.0898 0.01898 0.87329 0.0
H699 H 0.26374 0.98916 0.90886 0.0
H700 H 0.24675 0.03857 0.91161 0.0
H701 H 0.16825 0.98875 0.86761 0.0
H702 H 0.18458 0.93897 0.86508 0.0
H703 H 0.13778 1.00923 0.89342 0.0
H704 H 0.25566 0.06705 0.86233 0.0
H705 H 0.32266 0.08818 0.85702 0.0
H706 H 0.35298 0.15784 0.9044 0.0
H707 H 0.28605 0.1364 0.91026 0.0
C708 C 0.1379 0.16961 0.8831 0.0
C709 C 0.15686 0.19883 0.89569 0.0
C710 C 0.14375 0.13868 0.88282 0.0
C711 C 0.16844 0.13636 0.89521 0.0
C712 C 0.18665 0.16519 0.90806 0.0
C713 C 0.18087 0.19607 0.90831 0.0
C714 C 0.1772 0.10522 0.89419 0.0
C715 C 0.21501 0.11485 0.89214 0.0
C716 C 0.14893 0.06661 0.89453 0.0
C717 C 0.10851 0.05442 0.89715 0.0
C718 C 0.09672 0.06736 0.91201 0.0
C719 C 0.05865 0.05599 0.91428 0.0
C720 C 0.03201 0.03138 0.90188 0.0
C721 C 0.04338 0.01801 0.88719 0.0
C722 C 0.08143 0.02939 0.88483 0.0
C723 C 0.24307 0.98898 0.89972 0.0
C724 C 0.22558 0.96044 0.88669 0.0
C725 C 0.23339 0.01718 0.9013 0.0
C726 C 0.20661 0.01775 0.88966 0.0
C727 C 0.18895 0.98897 0.87675 0.0
C728 C 0.19834 0.96059 0.87529 0.0
C729 C 0.19726 0.04849 0.89081 0.0
C730 C 0.15936 0.0388 0.89278 0.0
C731 C 0.22542 0.08714 0.89025 0.0
C732 C 0.26571 0.09965 0.88689 0.0
C733 C 0.27654 0.08648 0.87176 0.0
C734 C 0.31454 0.09857 0.86863 0.0
C735 C 0.34205 0.12423 0.8804 0.0
C736 C 0.33163 0.13793 0.8953 0.0
C737 C 0.29366 0.12572 0.89856 0.0
H738 H 0.37146 0.1336 0.87794 0.0
H739 H 1.00255 0.0226 0.90366 0.0
H740 H 0.07642 0.90026 0.64113 0.0
H741 H 0.01262 0.89096 0.6419 0.0
H742 H 0.98129 0.81348 0.59708 0.0
H743 H 0.04541 0.8239 0.59587 0.0
H744 H 0.95128 0.85533 0.59259 0.0
H745 H 0.95779 0.78363 0.64228 0.0
H746 H 0.98362 0.77307 0.6703 0.0
H747 H 0.96416 0.85398 0.69802 0.0
H748 H 0.93866 0.8654 0.67008 0.0
H749 H 0.75191 0.75696 0.60487 0.0
H750 H 0.81817 0.77335 0.60349 0.0
H751 H 0.84726 0.86375 0.6415 0.0
H752 H 0.78109 0.84755 0.64287 0.0
H753 H 0.87851 0.81779 0.64985 0.0
H754 H 0.86882 0.88609 0.59898 0.0
H755 H 0.84232 0.89353 0.57042 0.0
H756 H 0.86535 0.81298 0.54485 0.0
H757 H 0.89164 0.80487 0.5732 0.0
C758 C 0.05591 0.88145 0.63139 0.0
C759 C 0.06568 0.86264 0.61849 0.0
C760 C 0.01941 0.87595 0.6319 0.0
C761 C 0.99183 0.85092 0.61977 0.0
C762 C 1.00196 0.83284 0.60662 0.0
C763 C 0.03858 0.83874 0.60594 0.0
C764 C 0.95236 0.84323 0.62084 0.0
C765 C 0.93531 0.84672 0.60509 0.0
C766 C 0.93154 0.8326 0.6372 0.0
C767 C 0.94669 0.82566 0.65404 0.0
C768 C 0.95927 0.79937 0.65431 0.0
C769 C 0.97382 0.7932 0.67019 0.0
C770 C 0.97563 0.81292 0.68591 0.0
C771 C 0.9628 0.83877 0.68582 0.0
C772 C 0.94827 0.84509 0.66997 0.0
C773 C 0.77249 0.7803 0.61292 0.0
C774 C 0.76153 0.80101 0.62397 0.0
C775 C 0.81028 0.78973 0.61207 0.0
C776 C 0.8376 0.81986 0.62235 0.0
C777 C 0.8266 0.84041 0.63348 0.0
C778 C 0.78889 0.83123 0.63419 0.0
C779 C 0.87761 0.82965 0.6216 0.0
C780 C 0.89468 0.82655 0.6374 0.0
C781 C 0.89826 0.84009 0.60526 0.0
C782 C 0.88207 0.84476 0.58824 0.0
C783 C 0.86798 0.86978 0.58728 0.0
C784 C 0.8531 0.87422 0.5711 0.0
C785 C 0.85238 0.85395 0.55577 0.0
C786 C 0.86618 0.82893 0.55664 0.0
C787 C 0.8811 0.82442 0.57276 0.0
H788 H 0.84127 0.85773 0.5432 0.0
H789 H 0.98691 0.80811 0.69819 0.0
H790 H 0.01317 0.26853 0.90709 0.0
H791 H 0.96186 0.20275 0.90776 0.0
H792 H 0.02296 0.17226 0.87032 0.0
H793 H 0.07379 0.23824 0.86926 0.0
H794 H 0.95148 0.13877 0.86088 0.0
H795 H 0.01728 0.14842 0.91505 0.0
H796 H 0.04724 0.17069 0.94481 0.0
H797 H 0.94289 0.15392 0.96663 0.0
H798 H 0.91247 0.13187 0.93708 0.0
H799 H 0.82992 0.94059 0.87557 0.0
H800 H 0.8851 1.00443 0.87396 0.0
H801 H 0.82944 0.04567 0.90886 0.0
H802 H 0.77455 0.98201 0.91069 0.0
H803 H 0.90127 0.07159 0.91896 0.0
H804 H 0.83726 0.06191 0.86212 0.0
H805 H 0.80889 0.03032 0.83327 0.0
H806 H 0.9144 0.04163 0.81664 0.0
H807 H 0.94328 0.07299 0.84546 0.0
C808 C 0.01553 0.24777 0.89898 0.0
C809 C 0.04753 0.2583 0.88826 0.0
C810 C 0.98637 0.21015 0.89947 0.0
C811 C 0.98874 0.18238 0.88928 0.0
C812 C 0.02053 0.19308 0.87835 0.0
C813 C 0.04968 0.2307 0.87787 0.0
C814 C 0.95773 0.14238 0.88984 0.0
C815 C 0.94082 0.12399 0.87358 0.0
C816 C 0.94367 0.12289 0.90636 0.0
C817 C 0.96264 0.13866 0.92383 0.0
C818 C 1.00088 0.14997 0.92615 0.0
C819 C 0.01791 0.16235 0.94303 0.0
C820 C 0.9969 0.16335 0.95767 0.0
C821 C 0.95909 0.15279 0.95538 0.0
C822 C 0.94193 0.14037 0.93857 0.0
C823 C 0.82957 0.96337 0.88285 0.0
C824 C 0.79807 0.95654 0.8932 0.0
C825 C 0.86095 0.99972 0.88187 0.0
C826 C 0.86122 0.02985 0.89109 0.0
C827 C 0.82983 0.02288 0.90158 0.0
C828 C 0.7985 0.98655 0.9026 0.0
C829 C 0.89441 0.06855 0.89012 0.0
C830 C 0.91188 0.08656 0.90629 0.0
C831 C 0.90939 0.08731 0.87351 0.0
C832 C 0.89235 0.06962 0.85596 0.0
C833 C 0.85437 0.0576 0.85231 0.0
C834 C 0.8382 0.03973 0.83597 0.0
C835 C 0.85982 0.03393 0.82314 0.0
C836 C 0.8977 0.04616 0.82658 0.0
C837 C 0.914 0.06405 0.8429 0.0
H838 H 0.84722 0.01999 0.81052 0.0
H839 H 1.00984 0.17207 0.97082 0.0
H840 H 0.39734 0.15794 0.32726 0.0
H841 H 0.39875 0.16168 0.29433 0.0
H842 H 0.30018 0.17382 0.29506 0.0
H843 H 0.29802 0.16919 0.32797 0.0
H844 H 0.29335 0.12585 0.26958 0.0
H845 H 0.39047 0.24987 0.28699 0.0
H846 H 0.44803 0.29614 0.30291 0.0
H847 H 0.51201 0.25519 0.2747 0.0
H848 H 0.45471 0.2083 0.25879 0.0
H849 H 0.3035 0.17293 0.17683 0.0
H850 H 0.30391 0.17796 0.20976 0.0
H851 H 0.40244 0.16591 0.21222 0.0
H852 H 0.40289 0.16196 0.17937 0.0
H853 H 0.40854 0.21626 0.23612 0.0
H854 H 0.31148 0.09059 0.21986 0.0
H855 H 0.25424 0.04406 0.2038 0.0
H856 H 0.19041 0.08768 0.22992 0.0
H857 H 0.24744 0.13489 0.24593 0.0
C858 C 0.37601 0.16155 0.32046 0.0
C859 C 0.34761 0.16334 0.33034 0.0
C860 C 0.37695 0.16385 0.30158 0.0
C861 C 0.34986 0.16857 0.29214 0.0
C862 C 0.32143 0.17024 0.30198 0.0
C863 C 0.3203 0.16767 0.32085 0.0
C864 C 0.35078 0.17108 0.27203 0.0
C865 C 0.31838 0.14604 0.26229 0.0
C866 C 0.38363 0.19686 0.26242 0.0
C867 C 0.41822 0.22536 0.27181 0.0
C868 C 0.41677 0.25058 0.28426 0.0
C869 C 0.44936 0.27694 0.29327 0.0
C870 C 0.48364 0.27856 0.28985 0.0
C871 C 0.48543 0.25389 0.27735 0.0
C872 C 0.45291 0.22744 0.26832 0.0
C873 C 0.32549 0.17173 0.18435 0.0
C874 C 0.35299 0.16676 0.1754 0.0
C875 C 0.32558 0.17441 0.20322 0.0
C876 C 0.35278 0.17157 0.21356 0.0
C877 C 0.38106 0.16806 0.2046 0.0
C878 C 0.3812 0.16571 0.18575 0.0
C879 C 0.35119 0.17092 0.23369 0.0
C880 C 0.38345 0.19624 0.24342 0.0
C881 C 0.31825 0.14534 0.24331 0.0
C882 C 0.2838 0.1165 0.23396 0.0
C883 C 0.28528 0.09039 0.2221 0.0
C884 C 0.25288 0.06389 0.21301 0.0
C885 C 0.21873 0.06297 0.21581 0.0
C886 C 0.21689 0.08846 0.22775 0.0
C887 C 0.24924 0.11508 0.23684 0.0
H888 H 0.19368 0.04246 0.20875 0.0
H889 H 0.50883 0.29896 0.29685 0.0
H890 H 0.88382 0.72254 0.33255 0.0
H891 H 0.8869 0.72103 0.29967 0.0
H892 H 0.77677 0.62136 0.29847 0.0
H893 H 0.77354 0.62228 0.33141 0.0
H894 H 0.82411 0.61599 0.2747 0.0
H895 H 0.78767 0.70761 0.28973 0.0
H896 H 0.79387 0.76401 0.30502 0.0
H897 H 0.90042 0.83323 0.27891 0.0
H898 H 0.89511 0.77711 0.26366 0.0
H899 H 0.77281 0.62056 0.18415 0.0
H900 H 0.77684 0.62125 0.21696 0.0
H901 H 0.88596 0.72215 0.2146 0.0
H902 H 0.88196 0.72211 0.18161 0.0
H903 H 0.84254 0.72797 0.24016 0.0
H904 H 0.8774 0.63659 0.22393 0.0
H905 H 0.87064 0.5803 0.20845 0.0
H906 H 0.76699 0.51041 0.23669 0.0
H907 H 0.77276 0.56651 0.25216 0.0
C908 C 0.86031 0.70008 0.32536 0.0
C909 C 0.82827 0.67271 0.33468 0.0
C910 C 0.86209 0.69937 0.30652 0.0
C911 C 0.83181 0.67144 0.29658 0.0
C912 C 0.8004 0.64327 0.30586 0.0
C913 C 0.79858 0.64392 0.32471 0.0
C914 C 0.83242 0.67219 0.27652 0.0
C915 C 0.82774 0.64031 0.26714 0.0
C916 C 0.83805 0.70428 0.26665 0.0
C917 C 0.84118 0.7381 0.27571 0.0
C918 C 0.81256 0.73481 0.28736 0.0
C919 C 0.81589 0.76674 0.296 0.0
C920 C 0.84757 0.80216 0.29298 0.0
C921 C 0.87593 0.80575 0.28126 0.0
C922 C 0.87276 0.7739 0.27261 0.0
C923 C 0.79782 0.64289 0.19053 0.0
C924 C 0.82714 0.67123 0.18016 0.0
C925 C 0.80011 0.64312 0.20934 0.0
C926 C 0.8319 0.67147 0.21826 0.0
C927 C 0.8612 0.69993 0.208 0.0
C928 C 0.85891 0.69978 0.18913 0.0
C929 C 0.83406 0.67168 0.23831 0.0
C930 C 0.83918 0.70372 0.2477 0.0
C931 C 0.82878 0.63972 0.24819 0.0
C932 C 0.82537 0.60582 0.23909 0.0
C933 C 0.85302 0.60926 0.22676 0.0
C934 C 0.84938 0.57736 0.21799 0.0
C935 C 0.81839 0.54177 0.22154 0.0
C936 C 0.79098 0.538 0.23393 0.0
C937 C 0.79443 0.56985 0.24272 0.0
H938 H 0.81565 0.51711 0.21472 0.0
H939 H 0.8501 0.82685 0.29968 0.0
H940 H 0.86094 0.14232 0.18635 0.0
H941 H 0.85757 0.14277 0.21928 0.0
H942 H 0.85858 0.24864 0.21739 0.0
H943 H 0.86234 0.24869 0.18445 0.0
H944 H 0.90739 0.25005 0.24229 0.0
H945 H 0.77774 0.16649 0.22673 0.0
H946 H 0.72525 0.11154 0.21174 0.0
H947 H 0.75217 0.03702 0.24052 0.0
H948 H 0.80516 0.09159 0.25551 0.0
H949 H 0.86203 0.25661 0.33368 0.0
H950 H 0.85911 0.25318 0.30078 0.0
H951 H 0.8545 0.14556 0.30258 0.0
H952 H 0.85675 0.14837 0.33555 0.0
H953 H 0.8069 0.14465 0.27768 0.0
H954 H 0.93658 0.22659 0.29269 0.0
H955 H 0.99042 0.2807 0.30743 0.0
H956 H 0.96517 0.35724 0.27942 0.0
H957 H 0.91082 0.30352 0.2647 0.0
C958 C 0.86027 0.16566 0.1929 0.0
C959 C 0.86192 0.19548 0.1827 0.0
C960 C 0.85819 0.16578 0.21175 0.0
C961 C 0.8575 0.19559 0.22081 0.0
C962 C 0.85905 0.22534 0.21069 0.0
C963 C 0.86109 0.22524 0.19183 0.0
C964 C 0.85618 0.19626 0.24087 0.0
C965 C 0.88509 0.22727 0.25001 0.0
C966 C 0.8277 0.16604 0.25098 0.0
C967 C 0.79562 0.13316 0.24212 0.0
C968 C 0.77262 0.1384 0.22977 0.0
C969 C 0.74275 0.10732 0.22129 0.0
C970 C 0.73543 0.07082 0.22515 0.0
C971 C 0.75789 0.06531 0.23753 0.0
C972 C 0.78783 0.09631 0.24604 0.0
C973 C 0.8602 0.23207 0.32714 0.0
C974 C 0.85985 0.20287 0.33733 0.0
C975 C 0.85867 0.23023 0.30828 0.0
C976 C 0.85719 0.1994 0.29917 0.0
C977 C 0.85572 0.16968 0.3093 0.0
C978 C 0.85708 0.1714 0.32818 0.0
C979 C 0.85801 0.19856 0.27909 0.0
C980 C 0.82911 0.1675 0.26995 0.0
C981 C 0.88665 0.22863 0.26896 0.0
C982 C 0.9194 0.26101 0.27773 0.0
C983 C 0.94233 0.25495 0.28978 0.0
C984 C 0.97297 0.28555 0.29812 0.0
C985 C 0.98115 0.32238 0.2944 0.0
C986 C 0.95876 0.32869 0.2823 0.0
C987 C 0.92805 0.29818 0.27395 0.0
H988 H 1.00489 0.34604 0.30086 0.0
H989 H 0.7123 0.04679 0.21856 0.0
H990 H 0.1799 0.30374 0.6813 0.0
H991 H 0.18343 0.30323 0.71429 0.0
H992 H 0.14805 0.38624 0.71738 0.0
H993 H 0.14571 0.38782 0.68454 0.0
H994 H 0.20236 0.40463 0.7398 0.0
H995 H 0.08804 0.28947 0.72682 0.0
H996 H 0.04939 0.22786 0.71193 0.0
H997 H 0.11545 0.18569 0.73689 0.0
H998 H 0.1549 0.24727 0.75171 0.0
H999 H 0.15358 0.38766 0.83265 0.0
H1000 H 0.15594 0.38939 0.79977 0.0
H1001 H 0.18799 0.3037 0.79962 0.0
H1002 H 0.1838 0.30056 0.8326 0.0
H1003 H 0.13741 0.2864 0.77555 0.0
H1004 H 0.25394 0.40515 0.78715 0.0
H1005 H 0.29336 0.46897 0.79993 0.0
H1006 H 0.21945 0.50416 0.77758 0.0
H1007 H 0.18015 0.44094 0.76424 0.0
C1008 C 0.17284 0.32185 0.68902 0.0
C1009 C 0.16258 0.34585 0.68024 0.0
C1010 C 0.17469 0.32141 0.70791 0.0
C1011 C 0.16557 0.34438 0.71842 0.0
C1012 C 0.15532 0.36831 0.70964 0.0
C1013 C 0.15394 0.36913 0.6908 0.0
C1014 C 0.16719 0.34415 0.73855 0.0
C1015 C 0.18781 0.37875 0.7476 0.0
C1016 C 0.14885 0.31042 0.74882 0.0
C1017 C 0.12466 0.27311 0.74023 0.0
C1018 C 0.09446 0.26712 0.72905 0.0
C1019 C 0.07241 0.23221 0.72063 0.0
C1020 C 0.08003 0.20292 0.72342 0.0
C1021 C 0.10962 0.20843 0.73472 0.0
C1022 C 0.13182 0.24333 0.74314 0.0
C1023 C 0.16165 0.36953 0.82566 0.0
C1024 C 0.16859 0.34402 0.8353 0.0
C1025 C 0.16324 0.37071 0.80677 0.0
C1026 C 0.17282 0.34716 0.79704 0.0
C1027 C 0.18055 0.32222 0.80671 0.0
C1028 C 0.17827 0.32052 0.8256 0.0
C1029 C 0.17269 0.34698 0.77685 0.0
C1030 C 0.15221 0.31226 0.76776 0.0
C1031 C 0.19083 0.38064 0.76651 0.0
C1032 C 0.21396 0.41828 0.77487 0.0
C1033 C 0.24599 0.42644 0.78508 0.0
C1034 C 0.26834 0.4625 0.79238 0.0
C1035 C 0.25868 0.49041 0.78977 0.0
C1036 C 0.22684 0.48248 0.77966 0.0
C1037 C 0.20467 0.44665 0.77212 0.0
H1038 H 0.276 0.51824 0.7955 0.0
H1039 H 0.06298 0.17593 0.71686 0.0
H1040 H 0.24218 0.83433 0.82963 0.0
H1041 H 0.2437 0.83104 0.79667 0.0
H1042 H 0.1541 0.85698 0.79309 0.0
H1043 H 0.15171 0.85933 0.82592 0.0
H1044 H 0.14227 0.8042 0.76967 0.0
H1045 H 0.24904 0.92465 0.78586 0.0
H1046 H 0.30839 0.96683 0.80172 0.0
H1047 H 0.36152 0.91119 0.77623 0.0
H1048 H 0.30231 0.86837 0.76038 0.0
H1049 H 0.16036 0.87103 0.6805 0.0
H1050 H 0.1593 0.86411 0.71318 0.0
H1051 H 0.24751 0.83617 0.70966 0.0
H1052 H 0.2494 0.84392 0.67681 0.0
H1053 H 0.26132 0.88488 0.73647 0.0
H1054 H 0.15464 0.76767 0.71821 0.0
H1055 H 0.09516 0.72722 0.70209 0.0
H1056 H 0.04153 0.77818 0.7313 0.0
H1057 H 0.10082 0.81926 0.74745 0.0
C1058 C 0.22267 0.83917 0.82184 0.0
C1059 C 0.19695 0.84728 0.83047 0.0
C1060 C 0.22369 0.83744 0.80296 0.0
C1061 C 0.19939 0.84432 0.79233 0.0
C1062 C 0.17316 0.85158 0.80095 0.0
C1063 C 0.1719 0.85299 0.81978 0.0
C1064 C 0.20142 0.84459 0.77222 0.0
C1065 C 0.16826 0.82209 0.76243 0.0
C1066 C 0.23548 0.86717 0.76269 0.0
C1067 C 0.27115 0.89306 0.7721 0.0
C1068 C 0.27331 0.92126 0.78374 0.0
C1069 C 0.30693 0.9453 0.7927 0.0
C1070 C 0.33867 0.94161 0.79002 0.0
C1071 C 0.33689 0.91396 0.77831 0.0
C1072 C 0.30332 0.88982 0.76933 0.0
C1073 C 0.17944 0.86318 0.68659 0.0
C1074 C 0.20489 0.8579 0.67595 0.0
C1075 C 0.17868 0.85908 0.70534 0.0
C1076 C 0.20291 0.84903 0.71392 0.0
C1077 C 0.22844 0.84381 0.70336 0.0
C1078 C 0.22941 0.84816 0.68456 0.0
C1079 C 0.20205 0.84492 0.73393 0.0
C1080 C 0.23541 0.86668 0.74371 0.0
C1081 C 0.16813 0.8218 0.74346 0.0
C1082 C 0.13226 0.79671 0.73396 0.0
C1083 C 0.13021 0.77038 0.72113 0.0
C1084 C 0.09653 0.74732 0.712 0.0
C1085 C 0.06461 0.75017 0.71565 0.0
C1086 C 0.06627 0.776 0.72849 0.0
C1087 C 0.0999 0.79913 0.73766 0.0
H1088 H 0.03857 0.73234 0.70854 0.0
H1089 H 0.36467 0.96024 0.79698 0.0
H1090 H 0.6346 0.76811 0.68519 0.0
H1091 H 0.63379 0.77101 0.71807 0.0
H1092 H 0.71707 0.88955 0.71632 0.0
H1093 H 0.7188 0.88671 0.68339 0.0
H1094 H 0.73463 0.85558 0.74159 0.0
H1095 H 0.62257 0.8582 0.72589 0.0
H1096 H 0.56162 0.83628 0.71077 0.0
H1097 H 0.51528 0.72978 0.7382 0.0
H1098 H 0.57608 0.75091 0.75341 0.0
H1099 H 0.71517 0.88044 0.83568 0.0
H1100 H 0.71611 0.88636 0.80277 0.0
H1101 H 0.63185 0.76846 0.79841 0.0
H1102 H 0.62993 0.7626 0.83116 0.0
H1103 H 0.61565 0.80762 0.77618 0.0
H1104 H 0.72844 0.80342 0.79048 0.0
H1105 H 0.78957 0.82463 0.80537 0.0
H1106 H 0.83458 0.93355 0.78039 0.0
H1107 H 0.77354 0.91315 0.76555 0.0
C1108 C 0.65261 0.7949 0.69175 0.0
C1109 C 0.67671 0.8272 0.68159 0.0
C1110 C 0.65199 0.79655 0.71059 0.0
C1111 C 0.67499 0.83064 0.71971 0.0
C1112 C 0.69903 0.86295 0.70961 0.0
C1113 C 0.6999 0.86126 0.69076 0.0
C1114 C 0.67459 0.83226 0.73978 0.0
C1115 C 0.70868 0.84568 0.74915 0.0
C1116 C 0.64069 0.81872 0.74969 0.0
C1117 C 0.60398 0.80605 0.74068 0.0
C1118 C 0.59945 0.83002 0.72862 0.0
C1119 C 0.56492 0.81775 0.72004 0.0
C1120 C 0.53463 0.78164 0.72346 0.0
C1121 C 0.53877 0.75775 0.73554 0.0
C1122 C 0.57324 0.76988 0.74418 0.0
C1123 C 0.69675 0.85581 0.82771 0.0
C1124 C 0.67249 0.82104 0.83609 0.0
C1125 C 0.69745 0.85919 0.80888 0.0
C1126 C 0.67439 0.82772 0.79805 0.0
C1127 C 0.64987 0.79317 0.80644 0.0
C1128 C 0.64887 0.78986 0.82521 0.0
C1129 C 0.67561 0.83037 0.778 0.0
C1130 C 0.64165 0.81779 0.76862 0.0
C1131 C 0.70963 0.84461 0.7681 0.0
C1132 C 0.74632 0.85687 0.77704 0.0
C1133 C 0.75129 0.83198 0.78827 0.0
C1134 C 0.78593 0.84384 0.79668 0.0
C1135 C 0.81592 0.88042 0.79383 0.0
C1136 C 0.81132 0.90523 0.78259 0.0
C1137 C 0.77672 0.89353 0.77416 0.0
H1138 H 0.84277 0.88949 0.80027 0.0
H1139 H 0.50794 0.7722 0.71677 0.0
H1140 H 0.18788 0.9376 0.93401 0.0
H1141 H 0.209 0.97689 0.96113 0.0
H1142 H 0.26922 0.92108 0.97825 0.0
H1143 H 0.24857 0.88185 0.95098 0.0
H1144 H 0.22941 0.93252 0.00662 0.0
H1145 H 0.31776 1.00247 0.96012 0.0
H1146 H 0.33795 0.03083 0.9299 0.0
H1147 H 0.28953 0.10109 0.93961 0.0
H1148 H 0.2684 0.07262 0.96981 0.0
H1149 H 0.35582 0.06983 0.06928 0.0
H1150 H 0.33424 0.03183 0.04173 0.0
H1151 H 0.26111 0.0765 0.03022 0.0
H1152 H 0.28187 0.11409 0.05804 0.0
H1153 H 0.30781 0.07149 0.99897 0.0
H1154 H 0.21398 0.99666 0.04384 0.0
H1155 H 0.19262 0.96742 0.07374 0.0
H1156 H 0.25324 0.90782 0.06705 0.0
H1157 H 0.27467 0.93653 0.03687 0.0
C1158 C 0.20507 0.93314 0.94367 0.0
C1159 C 0.21643 0.90643 0.94034 0.0
C1160 C 0.21736 0.95587 0.95912 0.0
C1161 C 0.24094 0.95215 0.97165 0.0
C1162 C 0.25107 0.92446 0.96875 0.0
C1163 C 0.23925 0.90207 0.95316 0.0
C1164 C 0.25605 0.97805 0.98743 0.0
C1165 C 0.24691 0.96283 1.0049 0.0
C1166 C 0.27839 0.01772 0.98525 0.0
C1167 C 0.29117 0.03514 0.96716 0.0
C1168 C 0.31112 0.02374 0.95576 0.0
C1169 C 0.32282 0.03989 0.93866 0.0
C1170 C 0.31507 0.06776 0.93286 0.0
C1171 C 0.29557 0.07954 0.94414 0.0
C1172 C 0.28371 0.06339 0.96126 0.0
C1173 C 0.33556 0.07209 0.06079 0.0
C1174 C 0.32063 0.09511 0.06589 0.0
C1175 C 0.32316 0.0502 0.04507 0.0
C1176 C 0.29606 0.05133 0.03396 0.0
C1177 C 0.28214 0.07534 0.03859 0.0
C1178 C 0.29401 0.09674 0.0545 0.0
C1179 C 0.28097 0.02588 0.01805 0.0
C1180 C 0.29024 0.04118 1.0006 0.0
C1181 C 0.25881 0.9863 0.02019 0.0
C1182 C 0.2462 0.96899 0.03824 0.0
C1183 C 0.22296 0.97752 0.04881 0.0
C1184 C 0.21078 0.96099 0.06579 0.0
C1185 C 0.22181 0.93601 0.07241 0.0
C1186 C 0.2448 0.92726 0.06194 0.0
C1187 C 0.25685 0.94352 0.04485 0.0
H1188 H 0.21239 0.92333 0.08561 0.0
H1189 H 0.32409 0.08009 0.91959 0.0
H1190 H 0.84363 0.76991 0.44201 0.0
H1191 H 0.82468 0.79016 0.46905 0.0
H1192 H 0.73188 0.67698 0.47677 0.0
H1193 H 0.75023 0.65651 0.44943 0.0
H1194 H 0.70944 0.72839 0.48057 0.0
H1195 H 0.81141 0.71371 0.50511 0.0
H1196 H 0.87638 0.72488 0.5054 0.0
H1197 H 0.91982 0.84457 0.50784 0.0
H1198 H 0.85508 0.83406 0.50745 0.0
H1199 H 0.65891 0.74746 0.56982 0.0
H1200 H 0.67778 0.73012 0.54187 0.0
H1201 H 0.7752 0.84173 0.53839 0.0
H1202 H 0.75743 0.85877 0.56693 0.0
H1203 H 0.7958 0.79254 0.53184 0.0
H1204 H 0.69629 0.8097 0.50957 0.0
H1205 H 0.63247 0.8013 0.50839 0.0
H1206 H 0.58556 0.68227 0.49976 0.0
H1207 H 0.64908 0.68987 0.50114 0.0
C1208 C 0.81947 0.74908 0.44955 0.0
C1209 C 0.79861 0.71145 0.44354 0.0
C1210 C 0.80868 0.76077 0.46507 0.0
C1211 C 0.77703 0.73505 0.47509 0.0
C1212 C 0.75641 0.69735 0.46927 0.0
C1213 C 0.76709 0.68564 0.45368 0.0
C1214 C 0.76488 0.74775 0.49132 0.0
C1215 C 0.72816 0.74202 0.4919 0.0
C1216 C 0.78966 0.76679 0.5058 0.0
C1217 C 0.8285 0.7731 0.50619 0.0
C1218 C 0.83486 0.74239 0.50565 0.0
C1219 C 0.87161 0.74861 0.50584 0.0
C1220 C 0.90221 0.78542 0.50662 0.0
C1221 C 0.89611 0.81609 0.50722 0.0
C1222 C 0.8594 0.81001 0.50703 0.0
C1223 C 0.68411 0.76859 0.56302 0.0
C1224 C 0.70653 0.80463 0.57063 0.0
C1225 C 0.69485 0.7586 0.54695 0.0
C1226 C 0.72782 0.78466 0.53784 0.0
C1227 C 0.74979 0.821 0.54518 0.0
C1228 C 0.73941 0.83082 0.56144 0.0
C1229 C 0.74028 0.77334 0.52119 0.0
C1230 C 0.77708 0.77924 0.52051 0.0
C1231 C 0.7157 0.75501 0.50648 0.0
C1232 C 0.67744 0.75032 0.50562 0.0
C1233 C 0.67234 0.78168 0.50756 0.0
C1234 C 0.63622 0.77707 0.50683 0.0
C1235 C 0.60497 0.74126 0.50405 0.0
C1236 C 0.60979 0.70999 0.50194 0.0
C1237 C 0.64585 0.71444 0.50267 0.0
H1238 H 0.57703 0.73775 0.50349 0.0
H1239 H 0.93065 0.79017 0.50677 0.0
H1240 H 0.09442 0.35616 0.94732 0.0
H1241 H 0.05806 0.33614 0.97529 0.0
H1242 H 0.06359 0.23366 0.97508 0.0
H1243 H 0.09882 0.25275 0.94668 0.0
H1244 H 0.99263 0.21856 0.98123 0.0
H1245 H 0.11378 0.30304 1.00567 0.0
H1246 H 0.17409 0.36267 0.0087 0.0
H1247 H 0.11483 0.42142 0.0216 0.0
H1248 H 0.05411 0.36221 0.01841 0.0
H1249 H 0.91486 0.16262 0.07014 0.0
H1250 H 0.95277 0.17928 0.04267 0.0
H1251 H 0.95585 0.28613 0.04064 0.0
H1252 H 0.91776 0.26968 0.06805 0.0
H1253 H 0.02455 0.29738 0.03635 0.0
H1254 H 0.90311 0.21106 0.00836 0.0
H1255 H 0.84399 0.14994 1.00585 0.0
H1256 H 0.90711 0.09244 1.00127 0.0
H1257 H 0.96656 0.15323 1.00387 0.0
C1258 C 0.08822 0.32946 0.95325 0.0
C1259 C 0.09963 0.3061 0.94466 0.0
C1260 C 0.06744 0.31808 0.96933 0.0
C1261 C 0.05792 0.28328 0.97734 0.0
C1262 C 0.07005 0.26033 0.96904 0.0
C1263 C 0.09053 0.2715 0.95285 0.0
C1264 C 0.03391 0.27018 0.99389 0.0
C1265 C 1.00008 0.23543 0.9934 0.0
C1266 C 0.04295 0.29257 0.00969 0.0
C1267 C 0.07939 0.32825 0.01163 0.0
C1268 C 0.1136 0.32874 0.009 0.0
C1269 C 0.14786 0.36245 0.01078 0.0
C1270 C 0.14829 0.39583 0.0153 0.0
C1271 C 0.11445 0.39554 0.01809 0.0
C1272 C 0.0801 0.36191 0.01631 0.0
C1273 C 0.92303 0.18943 0.06372 0.0
C1274 C 0.91312 0.21474 0.07138 0.0
C1275 C 0.9449 0.199 0.04798 0.0
C1276 C 0.95755 0.23414 0.03957 0.0
C1277 C 0.94675 0.25897 0.04691 0.0
C1278 C 0.92467 0.24934 0.06256 0.0
C1279 C 0.9832 0.24579 0.0236 0.0
C1280 C 0.01735 0.28029 0.02422 0.0
C1281 C 0.97476 0.22295 0.00801 0.0
C1282 C 0.93914 0.18656 1.00631 0.0
C1283 C 0.9043 0.18533 0.00685 0.0
C1284 C 0.87077 0.15078 1.00542 0.0
C1285 C 0.87179 0.11732 1.00341 0.0
C1286 C 0.90635 0.11836 1.00284 0.0
C1287 C 0.93996 0.15284 1.00427 0.0
H1288 H 0.8458 0.09061 1.00229 0.0
H1289 H 0.17485 0.4219 0.01667 0.0
H1290 H 0.36863 0.10304 0.44298 0.0
H1291 H 0.34707 0.06568 0.47064 0.0
H1292 H 0.25303 0.08487 0.47365 0.0
H1293 H 0.27414 0.12209 0.44576 0.0
H1294 H 0.28825 0.08857 0.50812 0.0
H1295 H 0.23333 1.00654 0.4579 0.0
H1296 H 0.23326 0.98066 0.42784 0.0
H1297 H 0.30858 0.94404 0.44695 0.0
H1298 H 0.30953 0.97027 0.4771 0.0
H1299 H 0.18368 0.93863 0.56996 0.0
H1300 H 0.20048 0.97783 0.54288 0.0
H1301 H 0.29232 0.95749 0.53264 0.0
H1302 H 0.27561 0.91792 0.55969 0.0
H1303 H 0.25427 0.95437 0.5015 0.0
H1304 H 0.30804 0.0385 0.55249 0.0
H1305 H 0.3064 0.06552 0.58203 0.0
H1306 H 0.22878 0.09747 0.56109 0.0
H1307 H 0.22958 0.07018 0.53146 0.0
C1308 C 0.34375 0.10002 0.44964 0.0
C1309 C 0.32307 0.11554 0.44205 0.0
C1310 C 0.33137 0.07847 0.46545 0.0
C1311 C 0.29827 0.07221 0.47411 0.0
C1312 C 0.27865 0.08935 0.46718 0.0
C1313 C 0.29076 0.11057 0.45121 0.0
C1314 C 0.28297 0.0456 0.48962 0.0
C1315 C 0.28031 0.05911 0.50666 0.0
C1316 C 0.27277 1.00721 0.4877 0.0
C1317 C 0.27181 0.99072 0.46971 0.0
C1318 C 0.25012 0.99323 0.45566 0.0
C1319 C 0.24988 0.97847 0.4386 0.0
C1320 C 0.27101 0.96083 0.43546 0.0
C1321 C 0.29227 0.95777 0.4494 0.0
C1322 C 0.29264 0.97255 0.46649 0.0
C1323 C 0.20718 0.942 0.56186 0.0
C1324 C 0.22834 0.92509 0.5671 0.0
C1325 C 0.21689 0.9647 0.54641 0.0
C1326 C 0.24801 0.9711 0.53585 0.0
C1327 C 0.26828 0.95308 0.54061 0.0
C1328 C 0.25868 0.93046 0.55611 0.0
C1329 C 0.26012 0.99741 0.52016 0.0
C1330 C 0.26209 0.98378 0.50302 0.0
C1331 C 0.26915 0.03557 0.52198 0.0
C1332 C 0.26866 0.05203 0.53979 0.0
C1333 C 0.2904 0.05103 0.55422 0.0
C1334 C 0.28966 0.06644 0.57097 0.0
C1335 C 0.26754 0.08323 0.57342 0.0
C1336 C 0.24596 0.0845 0.55915 0.0
C1337 C 0.24657 0.0691 0.54237 0.0
H1338 H 0.26729 0.09543 0.58634 0.0
H1339 H 0.27083 0.94946 0.42223 0.0
H1340 H 0.74217 0.63856 0.06777 0.0
H1341 H 0.72044 0.65629 0.0408 0.0
H1342 H 0.82584 0.76131 0.03792 0.0
H1343 H 0.84742 0.74439 0.0652 0.0
H1344 H 0.76752 0.77325 0.03606 0.0
H1345 H 0.80235 0.69014 0.00692 0.0
H1346 H 0.80218 0.63035 1.0023 0.0
H1347 H 0.68263 0.57222 0.99373 0.0
H1348 H 0.68202 0.6316 0.99852 0.0
H1349 H 0.74718 0.83643 0.9497 0.0
H1350 H 0.76607 0.81602 0.97665 0.0
H1351 H 0.66041 0.71095 0.97637 0.0
H1352 H 0.64152 0.73085 0.9491 0.0
H1353 H 0.7164 0.6975 0.98032 0.0
H1354 H 0.68213 0.78142 0.00816 0.0
H1355 H 0.68195 0.84077 0.01363 0.0
H1356 H 0.80015 0.89735 0.02565 0.0
H1357 H 0.80125 0.83854 0.01992 0.0
C1358 C 0.76106 0.66517 0.06125 0.0
C1359 C 0.79654 0.69011 0.06874 0.0
C1360 C 0.74855 0.67526 0.04579 0.0
C1361 C 0.77143 0.71025 0.03735 0.0
C1362 C 0.80751 0.73439 0.04432 0.0
C1363 C 0.81993 0.72449 0.05985 0.0
C1364 C 0.75694 0.72284 0.02202 0.0
C1365 C 0.75696 0.75703 0.02374 0.0
C1366 C 0.74175 0.70095 1.00622 0.0
C1367 C 0.74209 0.66526 1.00325 0.0
C1368 C 0.77598 0.66455 1.00418 0.0
C1369 C 0.77604 0.63075 1.00151 0.0
C1370 C 0.7424 0.59749 0.99777 0.0
C1371 C 0.70866 0.59799 0.99665 0.0
C1372 C 0.70845 0.63173 0.99932 0.0
C1373 C 0.72758 0.80922 0.9555 0.0
C1374 C 0.6928 0.78528 0.94714 0.0
C1375 C 0.73846 0.79759 0.97099 0.0
C1376 C 0.71465 0.76195 0.97864 0.0
C1377 C 0.67935 0.73852 0.9707 0.0
C1378 C 0.66849 0.75006 0.95515 0.0
C1379 C 0.72752 0.74834 0.99425 0.0
C1380 C 0.72706 0.71385 0.99262 0.0
C1381 C 0.74233 0.77001 0.01017 0.0
C1382 C 0.74185 0.80561 0.01337 0.0
C1383 C 0.70819 0.80661 0.01175 0.0
C1384 C 0.70791 0.84015 0.01494 0.0
C1385 C 0.74104 0.87284 0.01992 0.0
C1386 C 0.77453 0.87204 0.02174 0.0
C1387 C 0.77499 0.8386 0.01852 0.0
H1388 H 0.74074 0.89877 0.02241 0.0
H1389 H 0.7425 0.57134 0.99571 0.0
H1390 H 0.12033 0.27855 0.56416 0.0
H1391 H 0.08271 0.26111 0.5366 0.0
H1392 H 0.07844 0.36419 0.53948 0.0
H1393 H 0.11583 0.3818 0.56712 0.0
H1394 H 1.0093 0.30412 0.5356 0.0
H1395 H 0.12869 0.35057 0.50671 0.0
H1396 H 0.1904 0.35631 0.5005 0.0
H1397 H 0.13596 0.23935 0.4854 0.0
H1398 H 0.0739 0.2327 0.49182 0.0
H1399 H 0.9214 0.28605 0.45036 0.0
H1400 H 0.96309 0.30643 0.47653 0.0
H1401 H 0.96995 0.20474 0.47352 0.0
H1402 H 0.92878 0.18438 0.44715 0.0
H1403 H 0.03844 0.26499 0.47719 0.0
H1404 H 0.91938 0.218 0.50708 0.0
H1405 H 0.85756 0.21222 0.5131 0.0
H1406 H 0.9116 0.33025 0.5261 0.0
H1407 H 0.97375 0.33684 0.51993 0.0
C1408 C 0.11209 0.29795 0.55877 0.0
C1409 C 0.12106 0.33155 0.56798 0.0
C1410 C 0.09055 0.28791 0.54295 0.0
C1411 C 0.07763 0.31129 0.53595 0.0
C1412 C 0.08793 0.34561 0.54466 0.0
C1413 C 0.10954 0.35573 0.56044 0.0
C1414 C 0.05115 0.2987 0.52037 0.0
C1415 C 0.01595 0.29615 0.52273 0.0
C1416 C 0.05931 0.28722 0.50374 0.0
C1417 C 0.09662 0.29103 0.49998 0.0
C1418 C 0.12986 0.32595 0.50226 0.0
C1419 C 0.16492 0.3294 0.49866 0.0
C1420 C 0.16711 0.29819 0.49263 0.0
C1421 C 0.13423 0.26348 0.49012 0.0
C1422 C 0.0991 0.25986 0.49373 0.0
C1423 C 0.93125 0.26767 0.4554 0.0
C1424 C 0.92155 0.23348 0.44661 0.0
C1425 C 0.95514 0.2794 0.47041 0.0
C1426 C 0.96962 0.25708 0.47708 0.0
C1427 C 0.95925 0.22252 0.46861 0.0
C1428 C 0.93542 0.21078 0.45359 0.0
C1429 C 0.99662 0.27039 0.49245 0.0
C1430 C 0.03186 0.27302 0.49007 0.0
C1431 C 0.98852 0.28189 0.50909 0.0
C1432 C 0.95119 0.27798 0.51287 0.0
C1433 C 0.91806 0.24278 0.51109 0.0
C1434 C 0.88297 0.23935 0.51456 0.0
C1435 C 0.88065 0.27087 0.51994 0.0
C1436 C 0.91344 0.30587 0.52191 0.0
C1437 C 0.94861 0.30946 0.51845 0.0
H1438 H 0.85345 0.26816 0.52261 0.0
H1439 H 0.19429 0.30095 0.4899 0.0
H1440 H 0.7857 0.2006 0.09815 0.0
H1441 H 0.72384 0.19572 0.09456 0.0
H1442 H 0.69001 0.14174 0.14673 0.0
H1443 H 0.7507 0.145 0.14984 0.0
H1444 H 0.63783 0.10257 0.12447 0.0
H1445 H 0.70758 0.23952 0.13658 0.0
H1446 H 0.7545 0.30645 0.13116 0.0
H1447 H 0.71719 0.29664 0.07624 0.0
H1448 H 0.66953 0.2298 0.08148 0.0
H1449 H 0.47141 0.10723 0.14333 0.0
H1450 H 0.53432 0.11459 0.14238 0.0
H1451 H 0.55341 0.16774 0.09005 0.0
H1452 H 0.49116 0.16214 0.09148 0.0
H1453 H 0.61241 0.20529 0.10843 0.0
H1454 H 0.53666 0.0734 0.09713 0.0
H1455 H 0.48541 1.00803 0.10223 0.0
H1456 H 0.53298 1.00623 0.15357 0.0
H1457 H 0.58426 0.07177 0.14889 0.0
C1458 C 0.76515 0.18828 0.10892 0.0
C1459 C 0.77279 0.17295 0.12421 0.0
C1460 C 0.72981 0.1856 0.10692 0.0
C1461 C 0.70194 0.16832 0.12039 0.0
C1462 C 0.71063 0.15481 0.13603 0.0
C1463 C 0.74544 0.15684 0.13785 0.0
C1464 C 0.66291 0.16171 0.11798 0.0
C1465 C 0.63236 0.12522 0.12118 0.0
C1466 C 0.65528 0.1905 0.11278 0.0
C1467 C 0.68542 0.22973 0.10936 0.0
C1468 C 0.70973 0.25158 0.12331 0.0
C1469 C 0.73627 0.28953 0.12029 0.0
C1470 C 0.73892 0.30571 0.10333 0.0
C1471 C 0.71511 0.28402 0.08935 0.0
C1472 C 0.68824 0.2462 0.09236 0.0
C1473 C 0.48898 0.12023 0.13158 0.0
C1474 C 0.47645 0.13402 0.11745 0.0
C1475 C 0.52489 0.1242 0.13097 0.0
C1476 C 0.54862 0.14111 0.11597 0.0
C1477 C 0.53578 0.15453 0.10176 0.0
C1478 C 0.50016 0.15122 0.10254 0.0
C1479 C 0.58741 0.1465 0.11555 0.0
C1480 C 0.61782 0.18256 0.11165 0.0
C1481 C 0.59485 0.11714 0.11989 0.0
C1482 C 0.56416 0.07762 0.1227 0.0
C1483 C 0.53607 0.05915 0.10956 0.0
C1484 C 0.50703 0.02205 0.11237 0.0
C1485 C 0.5059 1.00302 0.12823 0.0
C1486 C 0.53388 0.02102 0.14129 0.0
C1487 C 0.56297 0.05812 0.13856 0.0
H1488 H 0.48339 0.9743 0.13038 0.0
H1489 H 0.75914 0.3351 0.10101 0.0
H1490 H 0.70048 0.52525 0.4124 0.0
H1491 H 0.64609 0.4612 0.41173 0.0
H1492 H 0.60068 0.4919 0.36652 0.0
H1493 H 0.65478 0.55626 0.36738 0.0
H1494 H 0.5478 0.45397 0.39137 0.0
H1495 H 0.64319 0.43763 0.36144 0.0
H1496 H 0.70573 0.44309 0.3591 0.0
H1497 H 0.68166 0.37259 0.40588 0.0
H1498 H 0.61916 0.36712 0.40865 0.0
H1499 H 0.40568 0.27795 0.3627 0.0
H1500 H 0.46578 0.33706 0.36332 0.0
H1501 H 0.49929 0.29848 0.41017 0.0
H1502 H 0.43882 0.23877 0.40951 0.0
H1503 H 0.55909 0.33904 0.38613 0.0
H1504 H 0.46486 0.35518 0.41633 0.0
H1505 H 0.40311 0.35103 0.41986 0.0
H1506 H 0.42595 0.42286 0.3737 0.0
H1507 H 0.48764 0.42698 0.36973 0.0
C1508 C 0.67885 0.5183 0.40233 0.0
C1509 C 0.68171 0.54566 0.38995 0.0
C1510 C 0.64793 0.48163 0.40188 0.0
C1511 C 0.6195 0.47156 0.38893 0.0
C1512 C 0.62231 0.49899 0.37661 0.0
C1513 C 0.65319 0.53571 0.37709 0.0
C1514 C 0.5862 0.43282 0.38854 0.0
C1515 C 0.55032 0.42892 0.38996 0.0
C1516 C 0.5895 0.39999 0.38735 0.0
C1517 C 0.62663 0.40231 0.38537 0.0
C1518 C 0.65131 0.42346 0.37129 0.0
C1519 C 0.68676 0.42656 0.36989 0.0
C1520 C 0.69775 0.40839 0.3824 0.0
C1521 C 0.67319 0.38682 0.39625 0.0
C1522 C 0.63771 0.38363 0.39772 0.0
C1523 C 0.42601 0.28187 0.37302 0.0
C1524 C 0.41759 0.25392 0.38611 0.0
C1525 C 0.46034 0.31565 0.37336 0.0
C1526 C 0.48678 0.32244 0.38696 0.0
C1527 C 0.47925 0.29383 0.39957 0.0
C1528 C 0.44478 0.25977 0.39918 0.0
C1529 C 0.52083 0.36045 0.38859 0.0
C1530 C 0.55671 0.36417 0.38751 0.0
C1531 C 0.51769 0.39327 0.3902 0.0
C1532 C 0.48074 0.39112 0.39264 0.0
C1533 C 0.4566 0.36987 0.40685 0.0
C1534 C 0.42163 0.36755 0.40895 0.0
C1535 C 0.41058 0.3866 0.39699 0.0
C1536 C 0.43453 0.40809 0.38294 0.0
C1537 C 0.46952 0.41045 0.38077 0.0
H1538 H 0.38349 0.38477 0.39863 0.0
H1539 H 0.72522 0.41087 0.3813 0.0
H1540 H 0.81586 0.30804 0.12079 0.0
H1541 H 0.81129 0.36554 0.11947 0.0
H1542 H 0.93038 0.43337 0.12922 0.0
H1543 H 0.93502 0.3759 0.13128 0.0
H1544 H 0.89112 0.45916 0.14795 0.0
H1545 H 0.89607 0.42295 0.08724 0.0
H1546 H 0.87743 0.38019 0.06103 0.0
H1547 H 0.76757 0.36886 0.06165 0.0
H1548 H 0.78531 0.41102 0.08808 0.0
H1549 H 0.88193 0.61356 0.09168 0.0
H1550 H 0.88709 0.5566 0.09353 0.0
H1551 H 0.81809 0.52223 0.14154 0.0
H1552 H 0.81295 0.57939 0.13978 0.0
H1553 H 0.83633 0.48193 0.09296 0.0
H1554 H 0.85627 0.48231 0.17058 0.0
H1555 H 0.88139 0.52757 0.19583 0.0
H1556 H 0.95151 0.61646 0.159 0.0
H1557 H 0.92747 0.57156 0.1336 0.0
C1558 C 0.84099 0.33521 0.12276 0.0
C1559 C 0.8758 0.33764 0.12606 0.0
C1560 C 0.83835 0.3679 0.12185 0.0
C1561 C 0.87049 0.40361 0.12381 0.0
C1562 C 0.90521 0.40608 0.12756 0.0
C1563 C 0.90785 0.3733 0.12869 0.0
C1564 C 0.86767 0.43819 0.12165 0.0
C1565 C 0.87907 0.4641 0.13595 0.0
C1566 C 0.85254 0.44497 0.10583 0.0
C1567 C 0.8419 0.41982 0.08981 0.0
C1568 C 0.86782 0.41108 0.0819 0.0
C1569 C 0.85743 0.38697 0.06698 0.0
C1570 C 0.8213 0.37171 0.05972 0.0
C1571 C 0.79555 0.38069 0.0673 0.0
C1572 C 0.80577 0.40472 0.08224 0.0
C1573 C 0.86752 0.59363 0.10251 0.0
C1574 C 0.84709 0.60083 0.11559 0.0
C1575 C 0.87045 0.56111 0.10354 0.0
C1576 C 0.85335 0.53541 0.11778 0.0
C1577 C 0.83186 0.54193 0.13056 0.0
C1578 C 0.8287 0.5744 0.12946 0.0
C1579 C 0.85894 0.50239 0.11944 0.0
C1580 C 0.84812 0.47682 0.10502 0.0
C1581 C 0.87523 0.4963 0.13499 0.0
C1582 C 0.88967 0.52363 0.15016 0.0
C1583 C 0.87708 0.51151 0.16788 0.0
C1584 C 0.89118 0.5371 0.18222 0.0
C1585 C 0.91793 0.57492 0.17901 0.0
C1586 C 0.93068 0.5872 0.16146 0.0
C1587 C 0.9168 0.56169 0.14708 0.0
H1588 H 0.92889 0.59469 0.19013 0.0
H1589 H 0.81329 0.35302 0.04818 0.0
H1590 H 0.51021 0.2168 0.39831 0.0
H1591 H 0.57336 0.22479 0.40046 0.0
H1592 H 0.53208 0.11407 0.3774 0.0
H1593 H 0.46873 0.10584 0.37539 0.0
H1594 H 0.57398 0.12424 0.40725 0.0
H1595 H 0.5858 0.19409 0.35299 0.0
H1596 H 0.58234 0.24264 0.33473 0.0
H1597 H 0.66375 0.32948 0.36916 0.0
H1598 H 0.66708 0.28143 0.38791 0.0
H1599 H 0.74444 0.12862 0.39028 0.0
H1600 H 0.68408 0.12633 0.38689 0.0
H1601 H 0.73355 0.24001 0.40751 0.0
H1602 H 0.79421 0.24238 0.41065 0.0
H1603 H 0.68831 0.23079 0.37982 0.0
H1604 H 0.67693 0.16308 0.43417 0.0
H1605 H 0.6803 0.11572 0.45344 0.0
H1606 H 0.59834 0.0266 0.4201 0.0
H1607 H 0.59485 0.07347 0.40047 0.0
C1608 C 0.5147 0.19429 0.39359 0.0
C1609 C 0.48466 0.16069 0.38668 0.0
C1610 C 0.55081 0.19894 0.39476 0.0
C1611 C 0.55753 0.17014 0.38897 0.0
C1612 C 0.52753 0.13667 0.38194 0.0
C1613 C 0.49142 0.13203 0.38074 0.0
C1614 C 0.59548 0.17427 0.39084 0.0
C1615 C 0.59889 0.14724 0.40103 0.0
C1616 C 0.62821 0.20508 0.38328 0.0
C1617 C 0.62637 0.23408 0.37198 0.0
C1618 C 0.60269 0.22351 0.35679 0.0
C1619 C 0.60076 0.25096 0.34635 0.0
C1620 C 0.62266 0.28913 0.35085 0.0
C1621 C 0.64665 0.29992 0.36577 0.0
C1622 C 0.64857 0.27258 0.3763 0.0
C1623 C 0.74238 0.15311 0.39408 0.0
C1624 C 0.77396 0.18576 0.40067 0.0
C1625 C 0.70788 0.15177 0.39218 0.0
C1626 C 0.70404 0.18279 0.3972 0.0
C1627 C 0.73581 0.21573 0.40353 0.0
C1628 C 0.77053 0.21717 0.40526 0.0
C1629 C 0.66669 0.1804 0.39602 0.0
C1630 C 0.6634 0.2078 0.38604 0.0
C1631 C 0.63403 0.15013 0.40392 0.0
C1632 C 0.63588 0.12182 0.41576 0.0
C1633 C 0.65982 0.13339 0.43087 0.0
C1634 C 0.66172 0.10664 0.44187 0.0
C1635 C 0.63961 0.06818 0.43797 0.0
C1636 C 0.61547 0.0564 0.42309 0.0
C1637 C 0.61349 0.08305 0.41204 0.0
H1638 H 0.64113 0.04751 0.4465 0.0
H1639 H 0.62117 0.31035 0.34275 0.0
H1640 H 0.45 0.21984 0.12376 0.0
H1641 H 0.50919 0.28024 0.12484 0.0
H1642 H 0.45691 0.33321 0.09561 0.0
H1643 H 0.39891 0.27248 0.09337 0.0
H1644 H 0.52327 0.3631 0.0846 0.0
H1645 H 0.47023 0.33724 0.14438 0.0
H1646 H 0.44468 0.29975 0.17222 0.0
H1647 H 0.54977 0.30333 0.18135 0.0
H1648 H 0.57577 0.3404 0.15342 0.0
H1649 H 0.64384 0.55346 0.1136 0.0
H1650 H 0.58913 0.48963 0.11074 0.0
H1651 H 0.6582 0.44187 0.12547 0.0
H1652 H 0.71307 0.50554 0.12806 0.0
H1653 H 0.58632 0.40923 0.1438 0.0
H1654 H 0.63863 0.43976 0.08352 0.0
H1655 H 0.66169 0.47968 0.05627 0.0
H1656 H 0.55354 0.47056 0.0493 0.0
H1657 H 0.52999 0.43101 0.07667 0.0
C1658 C 0.45146 0.24429 0.11731 0.0
C1659 C 0.41986 0.24146 0.10849 0.0
C1660 C 0.48517 0.27897 0.11812 0.0
C1661 C 0.48748 0.31179 0.11072 0.0
C1662 C 0.4561 0.30855 0.10147 0.0
C1663 C 0.42281 0.27375 0.10023 0.0
C1664 C 0.52202 0.34965 0.11286 0.0
C1665 C 0.53666 0.37317 0.09763 0.0
C1666 C 0.54017 0.36303 0.12977 0.0
C1667 C 0.52481 0.34126 0.14671 0.0
C1668 C 0.48782 0.32986 0.15228 0.0
C1669 C 0.47326 0.30869 0.16808 0.0
C1670 C 0.49555 0.29907 0.17852 0.0
C1671 C 0.53251 0.31074 0.17323 0.0
C1672 C 0.54718 0.33185 0.15742 0.0
C1673 C 0.64728 0.52932 0.11625 0.0
C1674 C 0.68264 0.53437 0.121 0.0
C1675 C 0.61608 0.49293 0.11459 0.0
C1676 C 0.61967 0.46103 0.11783 0.0
C1677 C 0.65483 0.46609 0.12293 0.0
C1678 C 0.68613 0.50243 0.12434 0.0
C1679 C 0.58686 0.42238 0.11564 0.0
C1680 C 0.57273 0.39886 0.13083 0.0
C1681 C 0.56866 0.40932 0.09881 0.0
C1682 C 0.58266 0.43271 0.08223 0.0
C1683 C 0.61985 0.4465 0.07625 0.0
C1684 C 0.633 0.46902 0.06077 0.0
C1685 C 0.60913 0.47772 0.05108 0.0
C1686 C 0.57202 0.46382 0.05683 0.0
C1687 C 0.55875 0.44133 0.07231 0.0
H1688 H 0.61936 0.49518 0.03911 0.0
H1689 H 0.48421 0.28265 0.19073 0.0
H1690 H 0.89113 0.63311 0.42428 0.0
H1691 H 0.89415 0.57487 0.42392 0.0
H1692 H 0.79375 0.52125 0.39118 0.0
H1693 H 0.79268 0.58025 0.39021 0.0
H1694 H 0.85538 0.50583 0.43385 0.0
H1695 H 0.79509 0.461 0.36226 0.0
H1696 H 0.78838 0.48979 0.33426 0.0
H1697 H 0.88781 0.5944 0.34752 0.0
H1698 H 0.89532 0.56607 0.37549 0.0
H1699 H 0.82811 0.32333 0.41649 0.0
H1700 H 0.81906 0.37787 0.41915 0.0
H1701 H 0.90898 0.439 0.38086 0.0
H1702 H 0.91733 0.38395 0.37778 0.0
H1703 H 0.85311 0.45073 0.37383 0.0
H1704 H 0.92161 0.45552 0.42717 0.0
H1705 H 0.93388 0.43064 0.45509 0.0
H1706 H 0.83009 0.41342 0.47786 0.0
H1707 H 0.81696 0.43776 0.44997 0.0
C1708 C 0.86953 0.60876 0.41715 0.0
C1709 C 0.84166 0.61125 0.40727 0.0
C1710 C 0.8712 0.57542 0.41699 0.0
C1711 C 0.8447 0.54381 0.40716 0.0
C1712 C 0.81519 0.54549 0.39843 0.0
C1713 C 0.81418 0.57911 0.39814 0.0
C1714 C 0.84928 0.51008 0.40519 0.0
C1715 C 0.85478 0.49376 0.42073 0.0
C1716 C 0.84913 0.49452 0.38805 0.0
C1717 C 0.8456 0.51148 0.371 0.0
C1718 C 0.81565 0.49005 0.35912 0.0
C1719 C 0.81167 0.50631 0.34328 0.0
C1720 C 0.83761 0.54392 0.33913 0.0
C1721 C 0.8677 0.5653 0.35077 0.0
C1722 C 0.87183 0.54916 0.36661 0.0
C1723 C 0.84594 0.34843 0.40865 0.0
C1724 C 0.87359 0.3496 0.39702 0.0
C1725 C 0.84085 0.37963 0.41023 0.0
C1726 C 0.86371 0.41281 0.40042 0.0
C1727 C 0.89103 0.41376 0.38859 0.0
C1728 C 0.89589 0.3824 0.38688 0.0
C1729 C 0.85921 0.44651 0.40248 0.0
C1730 C 0.85361 0.46274 0.38696 0.0
C1731 C 0.8602 0.46252 0.41959 0.0
C1732 C 0.86815 0.44814 0.43642 0.0
C1733 C 0.90129 0.4462 0.43809 0.0
C1734 C 0.90841 0.43223 0.45391 0.0
C1735 C 0.88273 0.42037 0.46822 0.0
C1736 C 0.84993 0.42257 0.46675 0.0
C1737 C 0.84265 0.43649 0.45095 0.0
H1738 H 0.88829 0.40955 0.48046 0.0
H1739 H 0.83442 0.55649 0.32689 0.0
H1740 H 0.23527 0.79809 0.62741 0.0
H1741 H 0.23528 0.73811 0.62699 0.0
H1742 H 0.12256 0.68226 0.60527 0.0
H1743 H 0.12269 0.74211 0.60575 0.0
H1744 H 0.12693 0.64518 0.63343 0.0
H1745 H 0.20283 0.70229 0.57998 0.0
H1746 H 0.25734 0.75209 0.56344 0.0
H1747 H 0.33262 0.73515 0.59718 0.0
H1748 H 0.27862 0.68591 0.61423 0.0
H1749 H 0.09935 0.46527 0.61247 0.0
H1750 H 0.10743 0.52868 0.61057 0.0
H1751 H 0.222 0.57655 0.62922 0.0
H1752 H 0.21437 0.51328 0.63047 0.0
H1753 H 0.22022 0.61934 0.6038 0.0
H1754 H 0.14913 0.56575 0.65758 0.0
H1755 H 0.09747 0.51821 0.67641 0.0
H1756 H 0.01688 0.53074 0.64468 0.0
H1757 H 0.06803 0.57801 0.6255 0.0
C1758 C 0.21121 0.77329 0.6219 0.0
C1759 C 0.17945 0.77479 0.61608 0.0
C1760 C 0.21101 0.73893 0.62184 0.0
C1761 C 0.17903 0.70566 0.61591 0.0
C1762 C 0.14756 0.70749 0.60987 0.0
C1763 C 0.14769 0.74166 0.61007 0.0
C1764 C 0.17703 0.66839 0.61701 0.0
C1765 C 0.14706 0.63941 0.62672 0.0
C1766 C 0.2042 0.66129 0.60893 0.0
C1767 C 0.23664 0.69066 0.59852 0.0
C1768 C 0.23101 0.70941 0.58399 0.0
C1769 C 0.26183 0.73755 0.57452 0.0
C1770 C 0.29842 0.74689 0.5793 0.0
C1771 C 0.30427 0.72801 0.59353 0.0
C1772 C 0.27356 0.7 0.60311 0.0
C1773 C 0.12622 0.48936 0.61615 0.0
C1774 C 0.15612 0.48442 0.62175 0.0
C1775 C 0.13082 0.52559 0.61513 0.0
C1776 C 0.16517 0.55747 0.62006 0.0
C1777 C 0.19523 0.55249 0.62539 0.0
C1778 C 0.19078 0.51631 0.62619 0.0
C1779 C 0.16954 0.59588 0.61984 0.0
C1780 C 0.20005 0.6251 0.61046 0.0
C1781 C 0.14325 0.60353 0.62847 0.0
C1782 C 0.11239 0.57516 0.64 0.0
C1783 C 0.12036 0.55817 0.65454 0.0
C1784 C 0.09118 0.5313 0.66529 0.0
C1785 C 0.05391 0.52139 0.66172 0.0
C1786 C 0.04576 0.5384 0.64742 0.0
C1787 C 0.07484 0.56526 0.63661 0.0
H1788 H 0.03135 0.50059 0.67005 0.0
H1789 H 0.32223 0.76875 0.57199 0.0
H1790 H 0.37276 0.90824 0.88679 0.0
H1791 H 0.4258 0.89679 0.88831 0.0
H1792 H 0.34839 0.77716 0.89376 0.0
H1793 H 0.29527 0.78872 0.89278 0.0
H1794 H 0.40445 0.7965 0.9159 0.0
H1795 H 0.39435 0.81621 0.8534 0.0
H1796 H 0.38925 0.84855 0.82637 0.0
H1797 H 0.49722 0.94509 0.8379 0.0
H1798 H 0.50274 0.91353 0.86515 0.0
H1799 H 0.57954 0.79453 0.87451 0.0
H1800 H 0.5178 0.78991 0.87208 0.0
H1801 H 0.53782 0.85102 0.92211 0.0
H1802 H 0.59997 0.85629 0.92446 0.0
H1803 H 0.50586 0.8514 0.86977 0.0
H1804 H 0.45019 0.81141 0.94358 0.0
H1805 H 0.45117 0.77155 0.96833 0.0
H1806 H 0.46818 0.70258 0.93007 0.0
H1807 H 0.46693 0.74174 0.90507 0.0
C1808 C 0.3671 0.87952 0.88829 0.0
C1809 C 0.32997 0.84936 0.88958 0.0
C1810 C 0.39741 0.87295 0.88908 0.0
C1811 C 0.39117 0.83602 0.89089 0.0
C1812 C 0.35399 0.80588 0.89235 0.0
C1813 C 0.32366 0.81249 0.89171 0.0
C1814 C 0.42349 0.82902 0.89131 0.0
C1815 C 0.42656 0.80848 0.90579 0.0
C1816 C 0.45189 0.84356 0.87784 0.0
C1817 C 0.44881 0.8626 0.8614 0.0
C1818 C 0.4169 0.84443 0.85024 0.0
C1819 C 0.41395 0.86261 0.83487 0.0
C1820 C 0.44286 0.89888 0.83044 0.0
C1821 C 0.47483 0.917 0.84135 0.0
C1822 C 0.47791 0.89897 0.85675 0.0
C1823 C 0.57059 0.80661 0.8851 0.0
C1824 C 0.59454 0.82591 0.89966 0.0
C1825 C 0.53539 0.80403 0.88365 0.0
C1826 C 0.52324 0.82008 0.89691 0.0
C1827 C 0.54658 0.83823 0.91179 0.0
C1828 C 0.58206 0.84132 0.9131 0.0
C1829 C 0.48734 0.82014 0.89465 0.0
C1830 C 0.48363 0.83935 0.87982 0.0
C1831 C 0.45791 0.80343 0.90749 0.0
C1832 C 0.45886 0.77982 0.92247 0.0
C1833 C 0.45408 0.78771 0.94044 0.0
C1834 C 0.4547 0.76524 0.95451 0.0
C1835 C 0.45988 0.73465 0.95077 0.0
C1836 C 0.46438 0.72641 0.93295 0.0
C1837 C 0.46383 0.74881 0.91883 0.0
H1838 H 0.46032 0.7173 0.96169 0.0
H1839 H 0.44052 0.91291 0.81854 0.0
H1840 H 0.52234 0.71208 0.60816 0.0
H1841 H 0.45932 0.65639 0.60659 0.0
H1842 H 0.49705 0.59351 0.63853 0.0
H1843 H 0.56033 0.64929 0.64011 0.0
H1844 H 0.45713 0.55482 0.60815 0.0
H1845 H 0.44282 0.62449 0.65723 0.0
H1846 H 0.44652 0.68091 0.6713 0.0
H1847 H 0.36979 0.68037 0.63177 0.0
H1848 H 0.36605 0.62425 0.6173 0.0
H1849 H 0.28373 0.39311 0.62715 0.0
H1850 H 0.34481 0.4511 0.62935 0.0
H1851 H 0.29784 0.51346 0.60409 0.0
H1852 H 0.23612 0.45528 0.60255 0.0
H1853 H 0.3423 0.55389 0.63011 0.0
H1854 H 0.35548 0.48682 0.58065 0.0
H1855 H 0.35224 0.43248 0.56456 0.0
H1856 H 0.43118 0.43043 0.60188 0.0
H1857 H 0.43451 0.48446 0.61835 0.0
C1858 C 0.51714 0.6864 0.6149 0.0
C1859 C 0.54613 0.68488 0.62425 0.0
C1860 C 0.48111 0.65468 0.61405 0.0
C1861 C 0.47343 0.6209 0.62256 0.0
C1862 C 0.5024 0.61934 0.6319 0.0
C1863 C 0.53844 0.65117 0.63284 0.0
C1864 C 0.43543 0.58691 0.6213 0.0
C1865 C 0.43206 0.55439 0.61318 0.0
C1866 C 0.40261 0.58694 0.62723 0.0
C1867 C 0.40444 0.62037 0.63608 0.0
C1868 C 0.42694 0.63656 0.65146 0.0
C1869 C 0.42902 0.66846 0.65952 0.0
C1870 C 0.40849 0.68428 0.6524 0.0
C1871 C 0.38572 0.66813 0.63725 0.0
C1872 C 0.38358 0.63624 0.62913 0.0
C1873 C 0.2866 0.41928 0.62207 0.0
C1874 C 0.25561 0.42002 0.61461 0.0
C1875 C 0.32148 0.45235 0.62324 0.0
C1876 C 0.32625 0.48662 0.61654 0.0
C1877 C 0.29494 0.48739 0.6093 0.0
C1878 C 0.25979 0.45427 0.60839 0.0
C1879 C 0.36394 0.52144 0.61714 0.0
C1880 C 0.3673 0.5542 0.62506 0.0
C1881 C 0.39676 0.5219 0.61075 0.0
C1882 C 0.39499 0.4895 0.60083 0.0
C1883 C 0.37196 0.47462 0.5855 0.0
C1884 C 0.37013 0.4439 0.5763 0.0
C1885 C 0.39142 0.42796 0.58222 0.0
C1886 C 0.41467 0.44278 0.59732 0.0
C1887 C 0.41657 0.47348 0.60658 0.0
H1888 H 0.38997 0.40417 0.57508 0.0
H1889 H 0.41017 0.709 0.65865 0.0
H1890 H 0.12967 0.73406 0.86673 0.0
H1891 H 0.13107 0.6752 0.86793 0.0
H1892 H 0.20773 0.71778 0.913 0.0
H1893 H 0.20643 0.77729 0.91179 0.0
H1894 H 0.22665 0.6782 0.88869 0.0
H1895 H 0.11691 0.6574 0.92085 0.0
H1896 H 0.05806 0.65863 0.9257 0.0
H1897 H 1.00789 0.58555 0.88009 0.0
H1898 H 0.06667 0.58432 0.8748 0.0
H1899 H 0.19255 0.49366 0.9119 0.0
H1900 H 0.19943 0.55665 0.91234 0.0
H1901 H 0.11817 0.52392 0.86931 0.0
H1902 H 0.11064 0.46055 0.86913 0.0
H1903 H 0.10365 0.55992 0.89496 0.0
H1904 H 0.21502 0.58216 0.8626 0.0
H1905 H 0.274 0.58085 0.85835 0.0
H1906 H 0.32146 0.65102 0.9051 0.0
H1907 H 0.26253 0.65227 0.9098 0.0
C1908 C 0.14699 0.73101 0.87686 0.0
C1909 C 0.16791 0.76022 0.88919 0.0
C1910 C 0.14773 0.69731 0.87755 0.0
C1911 C 0.16904 0.69178 0.89073 0.0
C1912 C 0.19102 0.72139 0.90273 0.0
C1913 C 0.19033 0.75535 0.90202 0.0
C1914 C 0.16689 0.65444 0.8922 0.0
C1915 C 0.19987 0.65234 0.89034 0.0
C1916 C 0.13186 0.62064 0.89411 0.0
C1917 C 0.09632 0.62101 0.89734 0.0
C1918 C 0.09342 0.6418 0.91178 0.0
C1919 C 0.06006 0.64247 0.91462 0.0
C1920 C 0.02928 0.62224 0.90319 0.0
C1921 C 0.03177 0.60122 0.88892 0.0
C1922 C 0.06509 0.60049 0.88601 0.0
C1923 C 0.17622 0.49997 0.90251 0.0
C1924 C 0.15103 0.47225 0.89048 0.0
C1925 C 0.18035 0.53606 0.9027 0.0
C1926 C 0.15967 0.5453 0.89071 0.0
C1927 C 0.13449 0.51754 0.87867 0.0
C1928 C 0.13023 0.48137 0.87854 0.0
C1929 C 0.16331 0.58343 0.89105 0.0
C1930 C 0.13052 0.5857 0.89334 0.0
C1931 C 0.19854 0.61729 0.88962 0.0
C1932 C 0.23418 0.61696 0.88666 0.0
C1933 C 0.23793 0.59709 0.87205 0.0
C1934 C 0.27137 0.59638 0.86955 0.0
C1935 C 0.30141 0.61574 0.88148 0.0
C1936 C 0.29814 0.63598 0.89589 0.0
C1937 C 0.26473 0.63671 0.89847 0.0
H1938 H 0.32726 0.61512 0.87954 0.0
H1939 H 1.00348 0.62281 0.90541 0.0
H1940 H 0.38282 0.92287 0.63012 0.0
H1941 H 0.43796 0.91483 0.62801 0.0
H1942 H 0.36989 0.80619 0.60278 0.0
H1943 H 0.31503 0.8149 0.60422 0.0
H1944 H 0.45585 0.86829 0.64167 0.0
H1945 H 0.4217 0.78552 0.57487 0.0
H1946 H 0.38644 0.77761 0.5467 0.0
H1947 H 0.40332 0.88951 0.55248 0.0
H1948 H 0.43912 0.89826 0.58054 0.0
H1949 H 0.58392 0.80247 0.63193 0.0
H1950 H 0.52427 0.80228 0.63121 0.0
H1951 H 0.56837 0.88775 0.58968 0.0
H1952 H 0.62798 0.88736 0.59004 0.0
H1953 H 0.49446 0.83663 0.58371 0.0
H1954 H 0.57038 0.91281 0.63313 0.0
H1955 H 0.60845 0.92583 0.66075 0.0
H1956 H 0.5132 0.83723 0.68857 0.0
H1957 H 0.47472 0.82333 0.66102 0.0
C1958 C 0.37971 0.89733 0.62408 0.0
C1959 C 0.34483 0.86968 0.61718 0.0
C1960 C 0.41119 0.89267 0.62293 0.0
C1961 C 0.40835 0.8601 0.61499 0.0
C1962 C 0.37311 0.83194 0.60856 0.0
C1963 C 0.34175 0.83686 0.60946 0.0
C1964 C 0.44231 0.85585 0.61347 0.0
C1965 C 0.46412 0.86126 0.62898 0.0
C1966 C 0.45355 0.84697 0.59692 0.0
C1967 C 0.43282 0.8424 0.57986 0.0
C1968 C 0.41808 0.80851 0.57006 0.0
C1969 C 0.39799 0.80388 0.55412 0.0
C1970 C 0.39258 0.83301 0.54783 0.0
C1971 C 0.40744 0.86692 0.5574 0.0
C1972 C 0.42763 0.87173 0.57332 0.0
C1973 C 0.58067 0.82064 0.62236 0.0
C1974 C 0.61065 0.84499 0.61104 0.0
C1975 C 0.54662 0.8207 0.62206 0.0
C1976 C 0.54201 0.84542 0.61059 0.0
C1977 C 0.5713 0.86848 0.59866 0.0
C1978 C 0.60537 0.86833 0.59892 0.0
C1979 C 0.50774 0.84903 0.61189 0.0
C1980 C 0.48592 0.84342 0.59639 0.0
C1981 C 0.49682 0.85841 0.62836 0.0
C1982 C 0.51979 0.86683 0.64498 0.0
C1983 C 0.55764 0.89594 0.64511 0.0
C1984 C 0.57928 0.9035 0.66075 0.0
C1985 C 0.56329 0.88234 0.67639 0.0
C1986 C 0.52558 0.85358 0.67644 0.0
C1987 C 0.50383 0.84587 0.66082 0.0
H1988 H 0.58011 0.88834 0.68848 0.0
H1989 H 0.37691 0.82932 0.53552 0.0
H1990 H 0.51106 0.70419 0.90218 0.0
H1991 H 0.44689 0.65006 0.9026 0.0
H1992 H 0.48918 0.57719 0.88569 0.0
H1993 H 0.55334 0.63149 0.8849 0.0
H1994 H 0.42721 0.56306 0.86695 0.0
H1995 H 0.46333 0.58095 0.93072 0.0
H1996 H 0.48556 0.61964 0.95838 0.0
H1997 H 0.39161 0.63843 0.95617 0.0
H1998 H 0.36899 0.60007 0.92841 0.0
H1999 H 0.2834 0.38134 0.88324 0.0
H2000 H 0.34193 0.44123 0.88457 0.0
H2001 H 0.28362 0.49342 0.90893 0.0
H2002 H 0.22549 0.4318 0.90955 0.0
H2003 H 0.34929 0.52396 0.92265 0.0
H2004 H 0.30792 0.50112 0.86167 0.0
H2005 H 0.2834 0.46213 0.83426 0.0
H2006 H 0.38519 0.45717 0.82949 0.0
H2007 H 0.40991 0.49525 0.85716 0.0
C2008 C 0.50663 0.67656 0.89863 0.0
C2009 C 0.53713 0.67189 0.89361 0.0
C2010 C 0.46996 0.64564 0.89892 0.0
C2011 C 0.46319 0.60941 0.8944 0.0
C2012 C 0.4937 0.60485 0.88926 0.0
C2013 C 0.53034 0.63581 0.88887 0.0
C2014 C 0.42443 0.57613 0.89486 0.0
C2015 C 0.41029 0.55432 0.87916 0.0
C2016 C 0.40155 0.56568 0.91054 0.0
C2017 C 0.4146 0.58784 0.92747 0.0
C2018 C 0.44747 0.5934 0.93613 0.0
C2019 C 0.46013 0.61525 0.95181 0.0
C2020 C 0.44001 0.63147 0.95902 0.0
C2021 C 0.40711 0.62577 0.95059 0.0
C2022 C 0.39433 0.60394 0.9349 0.0
C2023 C 0.28291 0.40547 0.88897 0.0
C2024 C 0.24928 0.40212 0.89563 0.0
C2025 C 0.31648 0.43994 0.88956 0.0
C2026 C 0.3171 0.47252 0.89604 0.0
C2027 C 0.28385 0.46899 0.90344 0.0
C2028 C 0.25035 0.43391 0.90347 0.0
C2029 C 0.35252 0.5099 0.89488 0.0
C2030 C 0.36593 0.53274 0.91036 0.0
C2031 C 0.37449 0.52181 0.87885 0.0
C2032 C 0.36067 0.50086 0.86158 0.0
C2033 C 0.32508 0.4917 0.85478 0.0
C2034 C 0.3111 0.46966 0.83922 0.0
C2035 C 0.3327 0.45709 0.83016 0.0
C2036 C 0.36847 0.46686 0.83654 0.0
C2037 C 0.38249 0.48868 0.85217 0.0
H2038 H 0.32174 0.43974 0.81821 0.0
H2039 H 0.4499 0.64845 0.97114 0.0
loop_
_geom_bond_atom_site_label_1
_geom_bond_atom_site_label_2
_geom_bond_distance
_geom_bond_site_symmetry_2
_ccdc_geom_bond_type
Tb0 O3 2.453 . S
Tb0 O4 2.596 . S
Tb0 O5 2.374 . S
Tb0 O13 2.343 . S
Tb0 O15 2.353 . S
Tb0 O17 2.427 . S
Tb0 O18 2.513 . S
C1 O5 1.251 . S
C1 O7 1.263 . S
Tb2 O4 2.343 . S
Tb2 O7 2.353 . S
Tb2 O10 2.427 . S
Tb2 O11 2.513 . S
Tb2 O12 2.453 . S
Tb2 O13 2.596 . S
Tb2 O14 2.374 . S
O3 Tb0 2.453 . S
O3 C19 1.245 . S
O4 Tb0 2.596 . S
O4 Tb2 2.343 . S
O4 C19 1.259 . S
O5 Tb0 2.374 . S
O5 C1 1.251 . S
C6 O10 1.275 . S
C6 O11 1.246 . S
O7 C1 1.263 . S
O7 Tb2 2.353 . S
C8 O12 1.245 . S
C8 O13 1.259 . S
C9 O14 1.250 . S
C9 O15 1.263 . S
O10 Tb2 2.427 . S
O10 C6 1.275 . S
O11 Tb2 2.513 . S
O11 C6 1.246 . S
O12 Tb2 2.453 . S
O12 C8 1.245 . S
O13 Tb0 2.343 . S
O13 Tb2 2.596 . S
O13 C8 1.259 . S
O14 Tb2 2.374 . S
O14 C9 1.250 . S
O15 Tb0 2.353 . S
O15 C9 1.263 . S
C16 O17 1.275 . S
C16 O18 1.246 . S
O17 Tb0 2.427 . S
O17 C16 1.275 . S
O18 Tb0 2.513 . S
O18 C16 1.246 . S
C19 O3 1.245 . S
C19 O4 1.259 . S
Tb20 O23 2.453 . S
Tb20 O24 2.596 . S
Tb20 O25 2.374 . S
Tb20 O33 2.343 . S
Tb20 O35 2.353 . S
Tb20 O37 2.427 . S
Tb20 O38 2.513 . S
C21 O25 1.251 . S
C21 O27 1.263 . S
Tb22 O24 2.343 . S
Tb22 O27 2.353 . S
Tb22 O30 2.427 . S
Tb22 O31 2.513 . S
Tb22 O32 2.453 . S
Tb22 O33 2.596 . S
Tb22 O34 2.374 . S
O23 Tb20 2.453 . S
O23 C39 1.245 . S
O24 Tb20 2.596 . S
O24 Tb22 2.343 . S
O24 C39 1.259 . S
O25 Tb20 2.374 . S
O25 C21 1.251 . S
C26 O30 1.275 . S
C26 O31 1.246 . S
O27 C21 1.263 . S
O27 Tb22 2.353 . S
C28 O32 1.245 . S
C28 O33 1.259 . S
C29 O34 1.250 . S
C29 O35 1.263 . S
O30 Tb22 2.427 . S
O30 C26 1.275 . S
O31 Tb22 2.513 . S
O31 C26 1.246 . S
O32 Tb22 2.453 . S
O32 C28 1.245 . S
O33 Tb20 2.343 . S
O33 Tb22 2.596 . S
O33 C28 1.259 . S
O34 Tb22 2.374 . S
O34 C29 1.250 . S
O35 Tb20 2.353 . S
O35 C29 1.263 . S
C36 O37 1.275 . S
C36 O38 1.246 . S
O37 Tb20 2.427 . S
O37 C36 1.275 . S
O38 Tb20 2.513 . S
O38 C36 1.246 . S
C39 O23 1.245 . S
C39 O24 1.259 . S
Tb40 O43 2.453 . S
Tb40 O44 2.596 . S
Tb40 O45 2.374 . S
Tb40 O53 2.343 . S
Tb40 O55 2.353 . S
Tb40 O57 2.427 . S
Tb40 O58 2.513 . S
C41 O45 1.251 . S
C41 O47 1.263 . S
Tb42 O44 2.343 . S
Tb42 O47 2.353 . S
Tb42 O50 2.427 . S
Tb42 O51 2.513 . S
Tb42 O52 2.453 . S
Tb42 O53 2.596 . S
Tb42 O54 2.374 . S
O43 Tb40 2.453 . S
O43 C59 1.245 . S
O44 Tb40 2.596 . S
O44 Tb42 2.343 . S
O44 C59 1.259 . S
O45 Tb40 2.374 . S
O45 C41 1.251 . S
C46 O50 1.275 . S
C46 O51 1.246 . S
O47 C41 1.263 . S
O47 Tb42 2.353 . S
C48 O52 1.245 . S
C48 O53 1.259 . S
C49 O54 1.250 . S
C49 O55 1.263 . S
O50 Tb42 2.427 . S
O50 C46 1.275 . S
O51 Tb42 2.513 . S
O51 C46 1.246 . S
O52 Tb42 2.453 . S
O52 C48 1.245 . S
O53 Tb40 2.343 . S
O53 Tb42 2.596 . S
O53 C48 1.259 . S
O54 Tb42 2.374 . S
O54 C49 1.250 . S
O55 Tb40 2.353 . S
O55 C49 1.263 . S
C56 O57 1.275 . S
C56 O58 1.246 . S
O57 Tb40 2.427 . S
O57 C56 1.275 . S
O58 Tb40 2.513 . S
O58 C56 1.246 . S
C59 O43 1.245 . S
C59 O44 1.259 . S
Tb60 O63 2.453 . S
Tb60 O64 2.596 . S
Tb60 O65 2.374 . S
Tb60 O73 2.343 . S
Tb60 O75 2.353 . S
Tb60 O77 2.427 . S
Tb60 O78 2.513 . S
C61 O65 1.251 . S
C61 O67 1.263 . S
Tb62 O64 2.343 . S
Tb62 O67 2.353 . S
Tb62 O70 2.427 . S
Tb62 O71 2.513 . S
Tb62 O72 2.453 . S
Tb62 O73 2.596 . S
Tb62 O74 2.374 . S
O63 Tb60 2.453 . S
O63 C79 1.245 . S
O64 Tb60 2.596 . S
O64 Tb62 2.343 . S
O64 C79 1.259 . S
O65 Tb60 2.374 . S
O65 C61 1.251 . S
C66 O70 1.275 . S
C66 O71 1.246 . S
O67 C61 1.263 . S
O67 Tb62 2.353 . S
C68 O72 1.245 . S
C68 O73 1.259 . S
C69 O74 1.250 . S
C69 O75 1.263 . S
O70 Tb62 2.427 . S
O70 C66 1.275 . S
O71 Tb62 2.513 . S
O71 C66 1.246 . S
O72 Tb62 2.453 . S
O72 C68 1.245 . S
O73 Tb60 2.343 . S
O73 Tb62 2.596 . S
O73 C68 1.259 . S
O74 Tb62 2.374 . S
O74 C69 1.250 . S
O75 Tb60 2.353 . S
O75 C69 1.263 . S
C76 O77 1.275 . S
C76 O78 1.246 . S
O77 Tb60 2.427 . S
O77 C76 1.275 . S
O78 Tb60 2.513 . S
O78 C76 1.246 . S
C79 O63 1.245 . S
C79 O64 1.259 . S
Tb80 O83 2.453 . S
Tb80 O84 2.596 . S
Tb80 O85 2.374 . S
Tb80 O93 2.343 . S
Tb80 O95 2.353 . S
Tb80 O97 2.427 . S
Tb80 O98 2.513 . S
C81 O85 1.251 . S
C81 O87 1.263 . S
Tb82 O84 2.343 . S
Tb82 O87 2.353 . S
Tb82 O90 2.427 . S
Tb82 O91 2.513 . S
Tb82 O92 2.453 . S
Tb82 O93 2.596 . S
Tb82 O94 2.374 . S
O83 Tb80 2.453 . S
O83 C99 1.245 . S
O84 Tb80 2.596 . S
O84 Tb82 2.343 . S
O84 C99 1.259 . S
O85 Tb80 2.374 . S
O85 C81 1.251 . S
C86 O90 1.275 . S
C86 O91 1.246 . S
O87 C81 1.263 . S
O87 Tb82 2.353 . S
C88 O92 1.245 . S
C88 O93 1.259 . S
C89 O94 1.250 . S
C89 O95 1.263 . S
O90 Tb82 2.427 . S
O90 C86 1.275 . S
O91 Tb82 2.513 . S
O91 C86 1.246 . S
O92 Tb82 2.453 . S
O92 C88 1.245 . S
O93 Tb80 2.343 . S
O93 Tb82 2.596 . S
O93 C88 1.259 . S
O94 Tb82 2.374 . S
O94 C89 1.250 . S
O95 Tb80 2.353 . S
O95 C89 1.263 . S
C96 O97 1.275 . S
C96 O98 1.246 . S
O97 Tb80 2.427 . S
O97 C96 1.275 . S
O98 Tb80 2.513 . S
O98 C96 1.246 . S
C99 O83 1.245 . S
C99 O84 1.259 . S
Tb100 O103 2.453 . S
Tb100 O104 2.596 . S
Tb100 O105 2.374 . S
Tb100 O113 2.343 . S
Tb100 O115 2.353 . S
Tb100 O117 2.427 . S
Tb100 O118 2.513 . S
C101 O105 1.251 . S
C101 O107 1.263 . S
Tb102 O104 2.343 . S
Tb102 O107 2.353 . S
Tb102 O110 2.427 . S
Tb102 O111 2.513 . S
Tb102 O112 2.453 . S
Tb102 O113 2.596 . S
Tb102 O114 2.374 . S
O103 Tb100 2.453 . S
O103 C119 1.245 . S
O104 Tb100 2.596 . S
O104 Tb102 2.343 . S
O104 C119 1.259 . S
O105 Tb100 2.374 . S
O105 C101 1.251 . S
C106 O110 1.275 . S
C106 O111 1.246 . S
O107 C101 1.263 . S
O107 Tb102 2.353 . S
C108 O112 1.245 . S
C108 O113 1.259 . S
C109 O114 1.250 . S
C109 O115 1.263 . S
O110 Tb102 2.427 . S
O110 C106 1.275 . S
O111 Tb102 2.513 . S
O111 C106 1.246 . S
O112 Tb102 2.453 . S
O112 C108 1.245 . S
O113 Tb100 2.343 . S
O113 Tb102 2.596 . S
O113 C108 1.259 . S
O114 Tb102 2.374 . S
O114 C109 1.250 . S
O115 Tb100 2.353 . S
O115 C109 1.263 . S
C116 O117 1.275 . S
C116 O118 1.246 . S
O117 Tb100 2.427 . S
O117 C116 1.275 . S
O118 Tb100 2.513 . S
O118 C116 1.246 . S
C119 O103 1.245 . S
C119 O104 1.259 . S
Tb120 O123 2.453 . S
Tb120 O124 2.596 . S
Tb120 O125 2.374 . S
Tb120 O133 2.343 . S
Tb120 O135 2.353 . S
Tb120 O137 2.427 . S
Tb120 O138 2.513 . S
C121 O125 1.251 . S
C121 O127 1.263 . S
Tb122 O124 2.343 . S
Tb122 O127 2.353 . S
Tb122 O130 2.427 . S
Tb122 O131 2.513 . S
Tb122 O132 2.453 . S
Tb122 O133 2.596 . S
Tb122 O134 2.374 . S
O123 Tb120 2.453 . S
O123 C139 1.245 . S
O124 Tb120 2.596 . S
O124 Tb122 2.343 . S
O124 C139 1.259 . S
O125 Tb120 2.374 . S
O125 C121 1.251 . S
C126 O130 1.275 . S
C126 O131 1.246 . S
O127 C121 1.263 . S
O127 Tb122 2.353 . S
C128 O132 1.245 . S
C128 O133 1.259 . S
C129 O134 1.250 . S
C129 O135 1.263 . S
O130 Tb122 2.427 . S
O130 C126 1.275 . S
O131 Tb122 2.513 . S
O131 C126 1.246 . S
O132 Tb122 2.453 . S
O132 C128 1.245 . S
O133 Tb120 2.343 . S
O133 Tb122 2.596 . S
O133 C128 1.259 . S
O134 Tb122 2.374 . S
O134 C129 1.250 . S
O135 Tb120 2.353 . S
O135 C129 1.263 . S
C136 O137 1.275 . S
C136 O138 1.246 . S
O137 Tb120 2.427 . S
O137 C136 1.275 . S
O138 Tb120 2.513 . S
O138 C136 1.246 . S
C139 O123 1.245 . S
C139 O124 1.259 . S
Tb140 O143 2.453 . S
Tb140 O144 2.596 . S
Tb140 O145 2.374 . S
Tb140 O153 2.343 . S
Tb140 O155 2.353 . S
Tb140 O157 2.427 . S
Tb140 O158 2.513 . S
C141 O145 1.251 . S
C141 O147 1.263 . S
Tb142 O144 2.343 . S
Tb142 O147 2.353 . S
Tb142 O150 2.427 . S
Tb142 O151 2.513 . S
Tb142 O152 2.453 . S
Tb142 O153 2.596 . S
Tb142 O154 2.374 . S
O143 Tb140 2.453 . S
O143 C159 1.245 . S
O144 Tb140 2.596 . S
O144 Tb142 2.343 . S
O144 C159 1.259 . S
O145 Tb140 2.374 . S
O145 C141 1.251 . S
C146 O150 1.275 . S
C146 O151 1.246 . S
O147 C141 1.263 . S
O147 Tb142 2.353 . S
C148 O152 1.245 . S
C148 O153 1.259 . S
C149 O154 1.250 . S
C149 O155 1.263 . S
O150 Tb142 2.427 . S
O150 C146 1.275 . S
O151 Tb142 2.513 . S
O151 C146 1.246 . S
O152 Tb142 2.453 . S
O152 C148 1.245 . S
O153 Tb140 2.343 . S
O153 Tb142 2.596 . S
O153 C148 1.259 . S
O154 Tb142 2.374 . S
O154 C149 1.250 . S
O155 Tb140 2.353 . S
O155 C149 1.263 . S
C156 O157 1.275 . S
C156 O158 1.246 . S
O157 Tb140 2.427 . S
O157 C156 1.275 . S
O158 Tb140 2.513 . S
O158 C156 1.246 . S
C159 O143 1.245 . S
C159 O144 1.259 . S
Tb160 O163 2.453 . S
Tb160 O164 2.596 . S
Tb160 O165 2.374 . S
Tb160 O173 2.343 . S
Tb160 O175 2.353 . S
Tb160 O177 2.427 . S
Tb160 O178 2.513 . S
C161 O165 1.251 . S
C161 O167 1.263 . S
Tb162 O164 2.343 . S
Tb162 O167 2.353 . S
Tb162 O170 2.427 . S
Tb162 O171 2.513 . S
Tb162 O172 2.453 . S
Tb162 O173 2.596 . S
Tb162 O174 2.374 . S
O163 Tb160 2.453 . S
O163 C179 1.245 . S
O164 Tb160 2.596 . S
O164 Tb162 2.343 . S
O164 C179 1.259 . S
O165 Tb160 2.374 . S
O165 C161 1.251 . S
C166 O170 1.275 . S
C166 O171 1.246 . S
O167 C161 1.263 . S
O167 Tb162 2.353 . S
C168 O172 1.245 . S
C168 O173 1.259 . S
C169 O174 1.250 . S
C169 O175 1.263 . S
O170 Tb162 2.427 . S
O170 C166 1.275 . S
O171 Tb162 2.513 . S
O171 C166 1.246 . S
O172 Tb162 2.453 . S
O172 C168 1.245 . S
O173 Tb160 2.343 . S
O173 Tb162 2.596 . S
O173 C168 1.259 . S
O174 Tb162 2.374 . S
O174 C169 1.250 . S
O175 Tb160 2.353 . S
O175 C169 1.263 . S
C176 O177 1.275 . S
C176 O178 1.246 . S
O177 Tb160 2.427 . S
O177 C176 1.275 . S
O178 Tb160 2.513 . S
O178 C176 1.246 . S
C179 O163 1.245 . S
C179 O164 1.259 . S
Tb180 O183 2.453 . S
Tb180 O184 2.596 . S
Tb180 O185 2.374 . S
Tb180 O193 2.343 . S
Tb180 O195 2.353 . S
Tb180 O197 2.427 . S
Tb180 O198 2.513 . S
C181 O185 1.251 . S
C181 O187 1.263 . S
Tb182 O184 2.343 . S
Tb182 O187 2.353 . S
Tb182 O190 2.427 . S
Tb182 O191 2.513 . S
Tb182 O192 2.453 . S
Tb182 O193 2.596 . S
Tb182 O194 2.374 . S
O183 Tb180 2.453 . S
O183 C199 1.245 . S
O184 Tb180 2.596 . S
O184 Tb182 2.343 . S
O184 C199 1.259 . S
O185 Tb180 2.374 . S
O185 C181 1.251 . S
C186 O190 1.275 . S
C186 O191 1.246 . S
O187 C181 1.263 . S
O187 Tb182 2.353 . S
C188 O192 1.245 . S
C188 O193 1.259 . S
C189 O194 1.250 . S
C189 O195 1.263 . S
O190 Tb182 2.427 . S
O190 C186 1.275 . S
O191 Tb182 2.513 . S
O191 C186 1.246 . S
O192 Tb182 2.453 . S
O192 C188 1.245 . S
O193 Tb180 2.343 . S
O193 Tb182 2.596 . S
O193 C188 1.259 . S
O194 Tb182 2.374 . S
O194 C189 1.250 . S
O195 Tb180 2.353 . S
O195 C189 1.263 . S
C196 O197 1.275 . S
C196 O198 1.246 . S
O197 Tb180 2.427 . S
O197 C196 1.275 . S
O198 Tb180 2.513 . S
O198 C196 1.246 . S
C199 O183 1.245 . S
C199 O184 1.259 . S
Tb200 O203 2.453 . S
Tb200 O204 2.596 . S
Tb200 O205 2.374 . S
Tb200 O213 2.343 . S
Tb200 O215 2.353 . S
Tb200 O217 2.427 . S
Tb200 O218 2.513 . S
C201 O205 1.251 . S
C201 O207 1.263 . S
Tb202 O204 2.343 . S
Tb202 O207 2.353 . S
Tb202 O210 2.427 . S
Tb202 O211 2.513 . S
Tb202 O212 2.453 . S
Tb202 O213 2.596 . S
Tb202 O214 2.374 . S
O203 Tb200 2.453 . S
O203 C219 1.245 . S
O204 Tb200 2.596 . S
O204 Tb202 2.343 . S
O204 C219 1.259 . S
O205 Tb200 2.374 . S
O205 C201 1.251 . S
C206 O210 1.275 . S
C206 O211 1.246 . S
O207 C201 1.263 . S
O207 Tb202 2.353 . S
C208 O212 1.245 . S
C208 O213 1.259 . S
C209 O214 1.250 . S
C209 O215 1.263 . S
O210 Tb202 2.427 . S
O210 C206 1.275 . S
O211 Tb202 2.513 . S
O211 C206 1.246 . S
O212 Tb202 2.453 . S
O212 C208 1.245 . S
O213 Tb200 2.343 . S
O213 Tb202 2.596 . S
O213 C208 1.259 . S
O214 Tb202 2.374 . S
O214 C209 1.250 . S
O215 Tb200 2.353 . S
O215 C209 1.263 . S
C216 O217 1.275 . S
C216 O218 1.246 . S
O217 Tb200 2.427 . S
O217 C216 1.275 . S
O218 Tb200 2.513 . S
O218 C216 1.246 . S
C219 O203 1.245 . S
C219 O204 1.259 . S
Tb220 O223 2.453 . S
Tb220 O224 2.596 . S
Tb220 O225 2.374 . S
Tb220 O233 2.343 . S
Tb220 O235 2.353 . S
Tb220 O237 2.427 . S
Tb220 O238 2.513 . S
C221 O225 1.251 . S
C221 O227 1.263 . S
Tb222 O224 2.343 . S
Tb222 O227 2.353 . S
Tb222 O230 2.427 . S
Tb222 O231 2.513 . S
Tb222 O232 2.453 . S
Tb222 O233 2.596 . S
Tb222 O234 2.374 . S
O223 Tb220 2.453 . S
O223 C239 1.245 . S
O224 Tb220 2.596 . S
O224 Tb222 2.343 . S
O224 C239 1.259 . S
O225 Tb220 2.374 . S
O225 C221 1.251 . S
C226 O230 1.275 . S
C226 O231 1.246 . S
O227 C221 1.263 . S
O227 Tb222 2.353 . S
C228 O232 1.245 . S
C228 O233 1.259 . S
C229 O234 1.250 . S
C229 O235 1.263 . S
O230 Tb222 2.427 . S
O230 C226 1.275 . S
O231 Tb222 2.513 . S
O231 C226 1.246 . S
O232 Tb222 2.453 . S
O232 C228 1.245 . S
O233 Tb220 2.343 . S
O233 Tb222 2.596 . S
O233 C228 1.259 . S
O234 Tb222 2.374 . S
O234 C229 1.250 . S
O235 Tb220 2.353 . S
O235 C229 1.263 . S
C236 O237 1.275 . S
C236 O238 1.246 . S
O237 Tb220 2.427 . S
O237 C236 1.275 . S
O238 Tb220 2.513 . S
O238 C236 1.246 . S
C239 O223 1.245 . S
C239 O224 1.259 . S
H240 C258 0.951 . S
H241 C260 0.951 . S
H242 C262 0.950 . S
H243 C263 0.950 . S
H244 C265 0.950 . S
H245 C268 0.950 . S
H246 C269 0.950 . S
H247 C271 0.950 . S
H248 C272 0.950 . S
H249 C273 0.951 . S
H250 C275 0.951 . S
H251 C277 0.950 . S
H252 C278 0.950 . S
H253 C280 0.950 . S
H254 C283 0.950 . S
H255 C284 0.950 . S
H256 C286 0.950 . S
H257 C287 0.950 . S
C258 H240 0.951 . S
C258 C259 1.366 . S
C258 C260 1.388 1_655 S
C259 C258 1.366 . S
C259 C263 1.385 . S
C260 H241 0.951 . S
C260 C258 1.388 1_455 S
C260 C261 1.366 . S
C261 C260 1.366 . S
C261 C262 1.414 1_455 S
C261 C264 1.499 . S
C262 H242 0.950 . S
C262 C261 1.414 1_655 S
C262 C263 1.374 . S
C263 H243 0.950 . S
C263 C259 1.385 . S
C263 C262 1.374 . S
C264 C261 1.499 . S
C264 C265 1.373 . S
C264 C266 1.389 . S
C265 H244 0.950 . S
C265 C264 1.373 . S
C265 C281 1.377 . S
C266 C264 1.389 . S
C266 C267 1.524 . S
C266 C280 1.377 . S
C267 C266 1.524 . S
C267 C268 1.397 . S
C267 C272 1.363 . S
C268 H245 0.950 . S
C268 C267 1.397 . S
C268 C269 1.334 . S
C269 H246 0.950 . S
C269 C268 1.334 . S
C269 C270 1.287 . S
C270 C269 1.287 . S
C270 C271 1.524 . S
C270 H289 0.913 . S
C271 H247 0.950 . S
C271 C270 1.524 . S
C271 C272 1.415 . S
C272 H248 0.950 . S
C272 C267 1.363 . S
C272 C271 1.415 . S
C273 H249 0.951 . S
C273 C274 1.366 . S
C273 C275 1.388 . S
C274 C273 1.366 . S
C274 C278 1.385 . S
C275 H250 0.951 . S
C275 C273 1.388 . S
C275 C276 1.366 . S
C276 C275 1.366 . S
C276 C277 1.414 . S
C276 C279 1.499 . S
C277 H251 0.950 . S
C277 C276 1.414 . S
C277 C278 1.374 . S
C278 H252 0.950 . S
C278 C274 1.385 . S
C278 C277 1.374 . S
C279 C276 1.499 . S
C279 C280 1.373 . S
C279 C281 1.389 . S
C280 H253 0.950 . S
C280 C266 1.377 . S
C280 C279 1.373 . S
C281 C265 1.377 . S
C281 C279 1.389 . S
C281 C282 1.524 . S
C282 C281 1.524 . S
C282 C283 1.397 . S
C282 C287 1.363 . S
C283 H254 0.950 . S
C283 C282 1.397 . S
C283 C284 1.334 . S
C284 H255 0.950 . S
C284 C283 1.334 . S
C284 C285 1.287 . S
C285 C284 1.287 . S
C285 C286 1.524 . S
C285 H288 0.999 . S
C286 H256 0.950 . S
C286 C285 1.524 . S
C286 C287 1.415 . S
C287 H257 0.950 . S
C287 C282 1.363 . S
C287 C286 1.415 . S
H288 C285 0.999 . S
H289 C270 0.913 . S
H290 C308 0.951 . S
H291 C310 0.951 . S
H292 C312 0.950 . S
H293 C313 0.950 . S
H294 C315 0.950 . S
H295 C318 0.950 1_545 S
H296 C319 0.950 . S
H297 C321 0.950 . S
H298 C322 0.950 . S
H299 C323 0.951 . S
H300 C325 0.951 . S
H301 C327 0.950 . S
H302 C328 0.950 . S
H303 C330 0.950 . S
H304 C333 0.950 . S
H305 C334 0.950 . S
H306 C336 0.950 . S
H307 C337 0.950 . S
C308 H290 0.951 . S
C308 C309 1.366 . S
C308 C310 1.388 1_545 S
C309 C308 1.366 . S
C309 C313 1.385 . S
C310 H291 0.951 . S
C310 C308 1.388 1_565 S
C310 C311 1.366 . S
C311 C310 1.366 . S
C311 C312 1.414 1_565 S
C311 C314 1.499 . S
C312 H292 0.950 . S
C312 C311 1.414 1_545 S
C312 C313 1.374 . S
C313 H293 0.950 . S
C313 C309 1.385 . S
C313 C312 1.374 . S
C314 C311 1.499 . S
C314 C315 1.373 . S
C314 C316 1.389 . S
C315 H294 0.950 . S
C315 C314 1.373 . S
C315 C331 1.377 . S
C316 C314 1.389 . S
C316 C317 1.524 . S
C316 C330 1.377 . S
C317 C316 1.524 . S
C317 C318 1.397 . S
C317 C322 1.363 . S
C318 H295 0.950 1_565 S
C318 C317 1.397 . S
C318 C319 1.334 1_565 S
C319 H296 0.950 . S
C319 C318 1.334 1_545 S
C319 C320 1.287 1_545 S
C320 C319 1.287 1_565 S
C320 C321 1.524 . S
C320 H339 0.913 . S
C321 H297 0.950 . S
C321 C320 1.524 . S
C321 C322 1.415 . S
C322 H298 0.950 . S
C322 C317 1.363 . S
C322 C321 1.415 . S
C323 H299 0.951 . S
C323 C324 1.366 . S
C323 C325 1.388 . S
C324 C323 1.366 . S
C324 C328 1.385 . S
C325 H300 0.951 . S
C325 C323 1.388 . S
C325 C326 1.366 1_655 S
C326 C325 1.366 1_455 S
C326 C327 1.414 . S
C326 C329 1.499 . S
C327 H301 0.950 . S
C327 C326 1.414 . S
C327 C328 1.374 1_455 S
C328 H302 0.950 . S
C328 C324 1.385 . S
C328 C327 1.374 1_655 S
C329 C326 1.499 . S
C329 C330 1.373 . S
C329 C331 1.389 . S
C330 H303 0.950 . S
C330 C316 1.377 . S
C330 C329 1.373 . S
C331 C315 1.377 . S
C331 C329 1.389 . S
C331 C332 1.524 . S
C332 C331 1.524 . S
C332 C333 1.397 . S
C332 C337 1.363 . S
C333 H304 0.950 . S
C333 C332 1.397 . S
C333 C334 1.334 . S
C334 H305 0.950 . S
C334 C333 1.334 . S
C334 C335 1.287 . S
C335 C334 1.287 . S
C335 C336 1.524 . S
C335 H338 0.999 . S
C336 H306 0.950 . S
C336 C335 1.524 . S
C336 C337 1.415 . S
C337 H307 0.950 . S
C337 C332 1.363 . S
C337 C336 1.415 . S
H338 C335 0.999 . S
H339 C320 0.913 . S
H340 C358 0.951 . S
H341 C360 0.951 . S
H342 C362 0.950 . S
H343 C363 0.950 . S
H344 C365 0.950 . S
H345 C368 0.950 . S
H346 C369 0.950 . S
H347 C371 0.950 . S
H348 C372 0.950 . S
H349 C373 0.951 . S
H350 C375 0.951 . S
H351 C377 0.950 . S
H352 C378 0.950 . S
H353 C380 0.950 . S
H354 C383 0.950 . S
H355 C384 0.950 . S
H356 C386 0.950 . S
H357 C387 0.950 . S
C358 H340 0.951 . S
C358 C359 1.366 . S
C358 C360 1.388 1_545 S
C359 C358 1.366 . S
C359 C363 1.385 . S
C360 H341 0.951 . S
C360 C358 1.388 1_565 S
C360 C361 1.366 . S
C361 C360 1.366 . S
C361 C362 1.414 1_565 S
C361 C364 1.499 . S
C362 H342 0.950 . S
C362 C361 1.414 1_545 S
C362 C363 1.374 . S
C363 H343 0.950 . S
C363 C359 1.385 . S
C363 C362 1.374 . S
C364 C361 1.499 . S
C364 C365 1.373 . S
C364 C366 1.389 . S
C365 H344 0.950 . S
C365 C364 1.373 . S
C365 C381 1.377 . S
C366 C364 1.389 . S
C366 C367 1.524 . S
C366 C380 1.377 . S
C367 C366 1.524 . S
C367 C368 1.397 . S
C367 C372 1.363 . S
C368 H345 0.950 . S
C368 C367 1.397 . S
C368 C369 1.334 . S
C369 H346 0.950 . S
C369 C368 1.334 . S
C369 C370 1.287 . S
C370 C369 1.287 . S
C370 C371 1.524 . S
C370 H389 0.913 . S
C371 H347 0.950 . S
C371 C370 1.524 . S
C371 C372 1.415 . S
C372 H348 0.950 . S
C372 C367 1.363 . S
C372 C371 1.415 . S
C373 H349 0.951 . S
C373 C374 1.366 . S
C373 C375 1.388 . S
C374 C373 1.366 . S
C374 C378 1.385 . S
C375 H350 0.951 . S
C375 C373 1.388 . S
C375 C376 1.366 . S
C376 C375 1.366 . S
C376 C377 1.414 . S
C376 C379 1.499 . S
C377 H351 0.950 . S
C377 C376 1.414 . S
C377 C378 1.374 . S
C378 H352 0.950 . S
C378 C374 1.385 . S
C378 C377 1.374 . S
C379 C376 1.499 . S
C379 C380 1.373 . S
C379 C381 1.389 . S
C380 H353 0.950 . S
C380 C366 1.377 . S
C380 C379 1.373 . S
C381 C365 1.377 . S
C381 C379 1.389 . S
C381 C382 1.524 . S
C382 C381 1.524 . S
C382 C383 1.397 . S
C382 C387 1.363 . S
C383 H354 0.950 . S
C383 C382 1.397 . S
C383 C384 1.334 . S
C384 H355 0.950 . S
C384 C383 1.334 . S
C384 C385 1.287 . S
C385 C384 1.287 . S
C385 C386 1.524 . S
C385 H388 0.999 . S
C386 H356 0.950 . S
C386 C385 1.524 . S
C386 C387 1.415 . S
C387 H357 0.950 . S
C387 C382 1.363 . S
C387 C386 1.415 . S
H388 C385 0.999 . S
H389 C370 0.913 . S
H390 C408 0.951 . S
H391 C410 0.951 . S
H392 C412 0.950 . S
H393 C413 0.950 . S
H394 C415 0.950 . S
H395 C418 0.950 . S
H396 C419 0.950 . S
H397 C421 0.950 . S
H398 C422 0.950 . S
H399 C423 0.951 . S
H400 C425 0.951 . S
H401 C427 0.950 . S
H402 C428 0.950 . S
H403 C430 0.950 . S
H404 C433 0.950 . S
H405 C434 0.950 . S
H406 C436 0.950 . S
H407 C437 0.950 1_455 S
C408 H390 0.951 . S
C408 C409 1.366 . S
C408 C410 1.388 . S
C409 C408 1.366 . S
C409 C413 1.385 . S
C410 H391 0.951 . S
C410 C408 1.388 . S
C410 C411 1.366 . S
C411 C410 1.366 . S
C411 C412 1.414 . S
C411 C414 1.499 . S
C412 H392 0.950 . S
C412 C411 1.414 . S
C412 C413 1.374 . S
C413 H393 0.950 . S
C413 C409 1.385 . S
C413 C412 1.374 . S
C414 C411 1.499 . S
C414 C415 1.373 . S
C414 C416 1.389 . S
C415 H394 0.950 . S
C415 C414 1.373 . S
C415 C431 1.377 . S
C416 C414 1.389 . S
C416 C417 1.524 . S
C416 C430 1.377 . S
C417 C416 1.524 . S
C417 C418 1.397 . S
C417 C422 1.363 . S
C418 H395 0.950 . S
C418 C417 1.397 . S
C418 C419 1.334 . S
C419 H396 0.950 . S
C419 C418 1.334 . S
C419 C420 1.287 . S
C420 C419 1.287 . S
C420 C421 1.524 . S
C420 H439 0.913 . S
C421 H397 0.950 . S
C421 C420 1.524 . S
C421 C422 1.415 . S
C422 H398 0.950 . S
C422 C417 1.363 . S
C422 C421 1.415 . S
C423 H399 0.951 . S
C423 C424 1.366 . S
C423 C425 1.388 . S
C424 C423 1.366 . S
C424 C428 1.385 . S
C425 H400 0.951 . S
C425 C423 1.388 . S
C425 C426 1.366 1_655 S
C426 C425 1.366 1_455 S
C426 C427 1.414 . S
C426 C429 1.499 . S
C427 H401 0.950 . S
C427 C426 1.414 . S
C427 C428 1.374 1_455 S
C428 H402 0.950 . S
C428 C424 1.385 . S
C428 C427 1.374 1_655 S
C429 C426 1.499 . S
C429 C430 1.373 . S
C429 C431 1.389 . S
C430 H403 0.950 . S
C430 C416 1.377 . S
C430 C429 1.373 . S
C431 C415 1.377 . S
C431 C429 1.389 . S
C431 C432 1.524 . S
C432 C431 1.524 . S
C432 C433 1.397 . S
C432 C437 1.363 1_455 S
C433 H404 0.950 . S
C433 C432 1.397 . S
C433 C434 1.334 1_455 S
C434 H405 0.950 . S
C434 C433 1.334 1_655 S
C434 C435 1.287 . S
C435 C434 1.287 . S
C435 C436 1.524 . S
C435 H438 0.999 . S
C436 H406 0.950 . S
C436 C435 1.524 . S
C436 C437 1.415 . S
C437 H407 0.950 1_655 S
C437 C432 1.363 1_655 S
C437 C436 1.415 . S
H438 C435 0.999 . S
H439 C420 0.913 . S
H440 C458 0.951 . S
H441 C460 0.951 1_565 S
H442 C462 0.950 . S
H443 C463 0.950 . S
H444 C465 0.950 . S
H445 C468 0.950 . S
H446 C469 0.950 . S
H447 C471 0.950 . S
H448 C472 0.950 . S
H449 C473 0.951 . S
H450 C475 0.951 1_455 S
H451 C477 0.950 . S
H452 C478 0.950 . S
H453 C480 0.950 . S
H454 C483 0.950 . S
H455 C484 0.950 . S
H456 C486 0.950 . S
H457 C487 0.950 . S
C458 H440 0.951 . S
C458 C459 1.366 . S
C458 C460 1.388 . S
C459 C458 1.366 . S
C459 C463 1.385 . S
C460 H441 0.951 1_545 S
C460 C458 1.388 . S
C460 C461 1.366 1_545 S
C461 C460 1.366 1_565 S
C461 C462 1.414 1_565 S
C461 C464 1.499 . S
C462 H442 0.950 . S
C462 C461 1.414 1_545 S
C462 C463 1.374 . S
C463 H443 0.950 . S
C463 C459 1.385 . S
C463 C462 1.374 . S
C464 C461 1.499 . S
C464 C465 1.373 . S
C464 C466 1.389 . S
C465 H444 0.950 . S
C465 C464 1.373 . S
C465 C481 1.377 . S
C466 C464 1.389 . S
C466 C467 1.524 . S
C466 C480 1.377 . S
C467 C466 1.524 . S
C467 C468 1.397 1_565 S
C467 C472 1.363 . S
C468 H445 0.950 . S
C468 C467 1.397 1_545 S
C468 C469 1.334 . S
C469 H446 0.950 . S
C469 C468 1.334 . S
C469 C470 1.287 . S
C470 C469 1.287 . S
C470 C471 1.524 . S
C470 H489 0.913 . S
C471 H447 0.950 . S
C471 C470 1.524 . S
C471 C472 1.415 1_545 S
C472 H448 0.950 . S
C472 C467 1.363 . S
C472 C471 1.415 1_565 S
C473 H449 0.951 . S
C473 C474 1.366 . S
C473 C475 1.388 . S
C474 C473 1.366 . S
C474 C478 1.385 . S
C475 H450 0.951 1_655 S
C475 C473 1.388 . S
C475 C476 1.366 1_655 S
C476 C475 1.366 1_455 S
C476 C477 1.414 . S
C476 C479 1.499 . S
C477 H451 0.950 . S
C477 C476 1.414 . S
C477 C478 1.374 1_455 S
C478 H452 0.950 . S
C478 C474 1.385 . S
C478 C477 1.374 1_655 S
C479 C476 1.499 . S
C479 C480 1.373 . S
C479 C481 1.389 . S
C480 H453 0.950 . S
C480 C466 1.377 . S
C480 C479 1.373 . S
C481 C465 1.377 . S
C481 C479 1.389 . S
C481 C482 1.524 . S
C482 C481 1.524 . S
C482 C483 1.397 . S
C482 C487 1.363 . S
C483 H454 0.950 . S
C483 C482 1.397 . S
C483 C484 1.334 . S
C484 H455 0.950 . S
C484 C483 1.334 . S
C484 C485 1.287 . S
C485 C484 1.287 . S
C485 C486 1.524 . S
C485 H488 0.999 . S
C486 H456 0.950 . S
C486 C485 1.524 . S
C486 C487 1.415 . S
C487 H457 0.950 . S
C487 C482 1.363 . S
C487 C486 1.415 . S
H488 C485 0.999 . S
H489 C470 0.913 . S
H490 C508 0.951 . S
H491 C510 0.951 . S
H492 C512 0.950 . S
H493 C513 0.950 . S
H494 C515 0.950 . S
H495 C518 0.950 . S
H496 C519 0.950 . S
H497 C521 0.950 . S
H498 C522 0.950 . S
H499 C523 0.951 . S
H500 C525 0.951 . S
H501 C527 0.950 . S
H502 C528 0.950 . S
H503 C530 0.950 . S
H504 C533 0.950 . S
H505 C534 0.950 1_545 S
H506 C536 0.950 . S
H507 C537 0.950 . S
C508 H490 0.951 . S
C508 C509 1.366 . S
C508 C510 1.388 . S
C509 C508 1.366 . S
C509 C513 1.385 . S
C510 H491 0.951 . S
C510 C508 1.388 . S
C510 C511 1.366 . S
C511 C510 1.366 . S
C511 C512 1.414 . S
C511 C514 1.499 . S
C512 H492 0.950 . S
C512 C511 1.414 . S
C512 C513 1.374 . S
C513 H493 0.950 . S
C513 C509 1.385 . S
C513 C512 1.374 . S
C514 C511 1.499 . S
C514 C515 1.373 . S
C514 C516 1.389 . S
C515 H494 0.950 . S
C515 C514 1.373 . S
C515 C531 1.377 . S
C516 C514 1.389 . S
C516 C517 1.524 . S
C516 C530 1.377 . S
C517 C516 1.524 . S
C517 C518 1.397 . S
C517 C522 1.363 . S
C518 H495 0.950 . S
C518 C517 1.397 . S
C518 C519 1.334 . S
C519 H496 0.950 . S
C519 C518 1.334 . S
C519 C520 1.287 . S
C520 C519 1.287 . S
C520 C521 1.524 . S
C520 H539 0.913 . S
C521 H497 0.950 . S
C521 C520 1.524 . S
C521 C522 1.415 . S
C522 H498 0.950 . S
C522 C517 1.363 . S
C522 C521 1.415 . S
C523 H499 0.951 . S
C523 C524 1.366 . S
C523 C525 1.388 . S
C524 C523 1.366 . S
C524 C528 1.385 . S
C525 H500 0.951 . S
C525 C523 1.388 . S
C525 C526 1.366 1_545 S
C526 C525 1.366 1_565 S
C526 C527 1.414 . S
C526 C529 1.499 . S
C527 H501 0.950 . S
C527 C526 1.414 . S
C527 C528 1.374 1_565 S
C528 H502 0.950 . S
C528 C524 1.385 . S
C528 C527 1.374 1_545 S
C529 C526 1.499 . S
C529 C530 1.373 . S
C529 C531 1.389 . S
C530 H503 0.950 . S
C530 C516 1.377 . S
C530 C529 1.373 . S
C531 C515 1.377 . S
C531 C529 1.389 . S
C531 C532 1.524 . S
C532 C531 1.524 . S
C532 C533 1.397 . S
C532 C537 1.363 . S
C533 H504 0.950 . S
C533 C532 1.397 . S
C533 C534 1.334 . S
C534 H505 0.950 1_565 S
C534 C533 1.334 . S
C534 C535 1.289 1_565 S
C535 C534 1.289 1_545 S
C535 C536 1.519 1_545 S
C535 H538 1.002 . S
C536 H506 0.950 . S
C536 C535 1.519 1_565 S
C536 C537 1.415 . S
C537 H507 0.950 . S
C537 C532 1.363 . S
C537 C536 1.415 . S
H538 C535 1.002 . S
H539 C520 0.913 . S
H540 C558 0.951 . S
H541 C560 0.951 . S
H542 C562 0.950 . S
H543 C563 0.950 . S
H544 C565 0.950 . S
H545 C568 0.950 1_565 S
H546 C569 0.941 1_565 S
H547 C571 0.950 . S
H548 C572 0.950 . S
H549 C573 0.951 . S
H550 C575 0.951 . S
H551 C577 0.950 . S
H552 C578 0.950 . S
H553 C580 0.950 . S
H554 C583 0.950 . S
H555 C584 0.950 . S
H556 C586 0.950 . S
H557 C587 0.950 . S
C558 H540 0.951 . S
C558 C559 1.366 . S
C558 C560 1.388 1_565 S
C559 C558 1.366 . S
C559 C563 1.385 . S
C560 H541 0.951 . S
C560 C558 1.388 1_545 S
C560 C561 1.366 . S
C561 C560 1.366 . S
C561 C562 1.414 1_545 S
C561 C564 1.499 . S
C562 H542 0.950 . S
C562 C561 1.414 1_565 S
C562 C563 1.374 . S
C563 H543 0.950 . S
C563 C559 1.385 . S
C563 C562 1.374 . S
C564 C561 1.499 . S
C564 C565 1.373 . S
C564 C566 1.389 . S
C565 H544 0.950 . S
C565 C564 1.373 . S
C565 C581 1.377 . S
C566 C564 1.389 . S
C566 C567 1.524 . S
C566 C580 1.377 . S
C567 C566 1.524 . S
C567 C568 1.397 . S
C567 C572 1.363 . S
C568 H545 0.950 1_545 S
C568 C567 1.397 . S
C568 C569 1.340 . S
C569 H546 0.941 1_545 S
C569 C568 1.340 . S
C569 C570 1.291 . S
C570 C569 1.291 . S
C570 C571 1.524 . S
C570 H589 0.913 . S
C571 H547 0.950 . S
C571 C570 1.524 . S
C571 C572 1.415 . S
C572 H548 0.950 . S
C572 C567 1.363 . S
C572 C571 1.415 . S
C573 H549 0.951 . S
C573 C574 1.366 . S
C573 C575 1.388 . S
C574 C573 1.366 . S
C574 C578 1.385 . S
C575 H550 0.951 . S
C575 C573 1.388 . S
C575 C576 1.366 . S
C576 C575 1.366 . S
C576 C577 1.414 . S
C576 C579 1.499 . S
C577 H551 0.950 . S
C577 C576 1.414 . S
C577 C578 1.374 . S
C578 H552 0.950 . S
C578 C574 1.385 . S
C578 C577 1.374 . S
C579 C576 1.499 . S
C579 C580 1.373 . S
C579 C581 1.389 . S
C580 H553 0.950 . S
C580 C566 1.377 . S
C580 C579 1.373 . S
C581 C565 1.377 . S
C581 C579 1.389 . S
C581 C582 1.524 . S
C582 C581 1.524 . S
C582 C583 1.397 . S
C582 C587 1.363 . S
C583 H554 0.950 . S
C583 C582 1.397 . S
C583 C584 1.334 . S
C584 H555 0.950 . S
C584 C583 1.334 . S
C584 C585 1.287 . S
C585 C584 1.287 . S
C585 C586 1.524 . S
C585 H588 0.999 . S
C586 H556 0.950 . S
C586 C585 1.524 . S
C586 C587 1.415 . S
C587 H557 0.950 . S
C587 C582 1.363 . S
C587 C586 1.415 . S
H588 C585 0.999 . S
H589 C570 0.913 . S
H590 C608 0.951 . S
H591 C610 0.950 . S
H592 C612 0.950 . S
H593 C613 0.950 . S
H594 C615 0.950 . S
H595 C618 0.950 . S
H596 C619 0.950 . S
H597 C621 0.950 . S
H598 C622 0.950 . S
H599 C623 0.951 . S
H600 C625 0.951 . S
H601 C627 0.950 . S
H602 C628 0.950 . S
H603 C630 0.950 . S
H604 C633 0.950 . S
H605 C634 0.950 . S
H606 C636 0.950 . S
H607 C637 0.950 . S
C608 H590 0.951 . S
C608 C609 1.366 . S
C608 C610 1.390 1_455 S
C609 C608 1.366 . S
C609 C613 1.385 . S
C610 H591 0.950 . S
C610 C608 1.390 1_655 S
C610 C611 1.365 . S
C611 C610 1.365 . S
C611 C612 1.414 . S
C611 C614 1.499 . S
C612 H592 0.950 . S
C612 C611 1.414 . S
C612 C613 1.374 1_655 S
C613 H593 0.950 . S
C613 C609 1.385 . S
C613 C612 1.374 1_455 S
C614 C611 1.499 . S
C614 C615 1.373 . S
C614 C616 1.389 . S
C615 H594 0.950 . S
C615 C614 1.373 . S
C615 C631 1.377 . S
C616 C614 1.389 . S
C616 C617 1.524 . S
C616 C630 1.377 . S
C617 C616 1.524 . S
C617 C618 1.397 . S
C617 C622 1.363 . S
C618 H595 0.950 . S
C618 C617 1.397 . S
C618 C619 1.334 . S
C619 H596 0.950 . S
C619 C618 1.334 . S
C619 C620 1.287 . S
C620 C619 1.287 . S
C620 C621 1.524 . S
C620 H639 0.913 . S
C621 H597 0.950 . S
C621 C620 1.524 . S
C621 C622 1.415 . S
C622 H598 0.950 . S
C622 C617 1.363 . S
C622 C621 1.415 . S
C623 H599 0.951 . S
C623 C624 1.366 . S
C623 C625 1.388 . S
C624 C623 1.366 . S
C624 C628 1.385 . S
C625 H600 0.951 . S
C625 C623 1.388 . S
C625 C626 1.366 . S
C626 C625 1.366 . S
C626 C627 1.414 . S
C626 C629 1.499 . S
C627 H601 0.950 . S
C627 C626 1.414 . S
C627 C628 1.374 . S
C628 H602 0.950 . S
C628 C624 1.385 . S
C628 C627 1.374 . S
C629 C626 1.499 . S
C629 C630 1.373 . S
C629 C631 1.389 . S
C630 H603 0.950 . S
C630 C616 1.377 . S
C630 C629 1.373 . S
C631 C615 1.377 . S
C631 C629 1.389 . S
C631 C632 1.524 . S
C632 C631 1.524 . S
C632 C633 1.397 . S
C632 C637 1.363 . S
C633 H604 0.950 . S
C633 C632 1.397 . S
C633 C634 1.334 . S
C634 H605 0.950 . S
C634 C633 1.334 . S
C634 C635 1.287 . S
C635 C634 1.287 . S
C635 C636 1.524 . S
C635 H638 0.999 . S
C636 H606 0.950 . S
C636 C635 1.524 . S
C636 C637 1.415 . S
C637 H607 0.950 . S
C637 C632 1.363 . S
C637 C636 1.415 . S
H638 C635 0.999 . S
H639 C620 0.913 . S
H640 C658 0.951 . S
H641 C660 0.951 . S
H642 C662 0.950 1_545 S
H643 C663 0.950 . S
H644 C665 0.950 . S
H645 C668 0.950 . S
H646 C669 0.950 . S
H647 C671 0.950 . S
H648 C672 0.950 . S
H649 C673 0.951 . S
H650 C675 0.951 . S
H651 C677 0.950 1_655 S
H652 C678 0.950 . S
H653 C680 0.950 . S
H654 C683 0.950 . S
H655 C684 0.950 . S
H656 C686 0.950 . S
H657 C687 0.950 1_655 S
C658 H640 0.951 . S
C658 C659 1.366 . S
C658 C660 1.388 1_565 S
C659 C658 1.366 . S
C659 C663 1.385 . S
C660 H641 0.951 . S
C660 C658 1.388 1_545 S
C660 C661 1.366 . S
C661 C660 1.366 . S
C661 C662 1.414 1_545 S
C661 C664 1.499 . S
C662 H642 0.950 1_565 S
C662 C661 1.414 1_565 S
C662 C663 1.374 . S
C663 H643 0.950 . S
C663 C659 1.385 . S
C663 C662 1.374 . S
C664 C661 1.499 . S
C664 C665 1.373 . S
C664 C666 1.389 . S
C665 H644 0.950 . S
C665 C664 1.373 . S
C665 C681 1.377 . S
C666 C664 1.389 . S
C666 C667 1.524 . S
C666 C680 1.377 . S
C667 C666 1.524 . S
C667 C668 1.397 . S
C667 C672 1.363 . S
C668 H645 0.950 . S
C668 C667 1.397 . S
C668 C669 1.334 . S
C669 H646 0.950 . S
C669 C668 1.334 . S
C669 C670 1.287 . S
C670 C669 1.287 . S
C670 C671 1.524 . S
C670 H689 0.913 . S
C671 H647 0.950 . S
C671 C670 1.524 . S
C671 C672 1.415 . S
C672 H648 0.950 . S
C672 C667 1.363 . S
C672 C671 1.415 . S
C673 H649 0.951 . S
C673 C674 1.366 . S
C673 C675 1.388 . S
C674 C673 1.366 . S
C674 C678 1.385 . S
C675 H650 0.951 . S
C675 C673 1.388 . S
C675 C676 1.366 1_455 S
C676 C675 1.366 1_655 S
C676 C677 1.414 1_655 S
C676 C679 1.499 . S
C677 H651 0.950 1_455 S
C677 C676 1.414 1_455 S
C677 C678 1.374 . S
C678 H652 0.950 . S
C678 C674 1.385 . S
C678 C677 1.374 . S
C679 C676 1.499 . S
C679 C680 1.373 . S
C679 C681 1.389 . S
C680 H653 0.950 . S
C680 C666 1.377 . S
C680 C679 1.373 . S
C681 C665 1.377 . S
C681 C679 1.389 . S
C681 C682 1.524 1_655 S
C682 C681 1.524 1_455 S
C682 C683 1.397 . S
C682 C687 1.363 . S
C683 H654 0.950 . S
C683 C682 1.397 . S
C683 C684 1.334 . S
C684 H655 0.950 . S
C684 C683 1.334 . S
C684 C685 1.287 . S
C685 C684 1.287 . S
C685 C686 1.524 . S
C685 H688 0.999 . S
C686 H656 0.950 . S
C686 C685 1.524 . S
C686 C687 1.415 . S
C687 H657 0.950 1_455 S
C687 C682 1.363 . S
C687 C686 1.415 . S
H688 C685 0.999 . S
H689 C670 0.913 . S
H690 C708 0.951 . S
H691 C710 0.951 . S
H692 C712 0.950 . S
H693 C713 0.950 . S
H694 C715 0.950 . S
H695 C718 0.950 . S
H696 C719 0.950 . S
H697 C721 0.950 1_655 S
H698 C722 0.950 . S
H699 C723 0.951 . S
H700 C725 0.951 . S
H701 C727 0.950 . S
H702 C728 0.950 . S
H703 C730 0.950 . S
H704 C733 0.950 . S
H705 C734 0.950 . S
H706 C736 0.950 . S
H707 C737 0.950 . S
C708 H690 0.951 . S
C708 C709 1.366 . S
C708 C710 1.388 . S
C709 C708 1.366 . S
C709 C713 1.385 . S
C710 H691 0.951 . S
C710 C708 1.388 . S
C710 C711 1.366 . S
C711 C710 1.366 . S
C711 C712 1.414 . S
C711 C714 1.499 . S
C712 H692 0.950 . S
C712 C711 1.414 . S
C712 C713 1.374 . S
C713 H693 0.950 . S
C713 C709 1.385 . S
C713 C712 1.374 . S
C714 C711 1.499 . S
C714 C715 1.373 . S
C714 C716 1.389 . S
C715 H694 0.950 . S
C715 C714 1.373 . S
C715 C731 1.377 . S
C716 C714 1.389 . S
C716 C717 1.524 . S
C716 C730 1.377 . S
C717 C716 1.524 . S
C717 C718 1.397 . S
C717 C722 1.363 . S
C718 H695 0.950 . S
C718 C717 1.397 . S
C718 C719 1.334 . S
C719 H696 0.950 . S
C719 C718 1.334 . S
C719 C720 1.287 . S
C720 C719 1.287 . S
C720 C721 1.524 . S
C720 H739 0.913 1_455 S
C721 H697 0.950 1_455 S
C721 C720 1.524 . S
C721 C722 1.415 . S
C722 H698 0.950 . S
C722 C717 1.363 . S
C722 C721 1.415 . S
C723 H699 0.951 . S
C723 C724 1.366 . S
C723 C725 1.388 1_565 S
C724 C723 1.366 . S
C724 C728 1.385 . S
C725 H700 0.951 . S
C725 C723 1.388 1_545 S
C725 C726 1.366 . S
C726 C725 1.366 . S
C726 C727 1.414 1_545 S
C726 C729 1.499 . S
C727 H701 0.950 . S
C727 C726 1.414 1_565 S
C727 C728 1.374 . S
C728 H702 0.950 . S
C728 C724 1.385 . S
C728 C727 1.374 . S
C729 C726 1.499 . S
C729 C730 1.373 . S
C729 C731 1.389 . S
C730 H703 0.950 . S
C730 C716 1.377 . S
C730 C729 1.373 . S
C731 C715 1.377 . S
C731 C729 1.389 . S
C731 C732 1.524 . S
C732 C731 1.524 . S
C732 C733 1.397 . S
C732 C737 1.363 . S
C733 H704 0.950 . S
C733 C732 1.397 . S
C733 C734 1.334 . S
C734 H705 0.950 . S
C734 C733 1.334 . S
C734 C735 1.287 . S
C735 C734 1.287 . S
C735 C736 1.524 . S
C735 H738 0.999 . S
C736 H706 0.950 . S
C736 C735 1.524 . S
C736 C737 1.415 . S
C737 H707 0.950 . S
C737 C732 1.363 . S
C737 C736 1.415 . S
H738 C735 0.999 . S
H739 C720 0.913 1_655 S
H740 C758 0.951 . S
H741 C760 0.964 . S
H742 C762 0.950 . S
H743 C763 0.950 . S
H744 C765 0.950 . S
H745 C768 0.950 . S
H746 C769 0.950 . S
H747 C771 0.950 . S
H748 C772 0.950 . S
H749 C773 0.951 . S
H750 C775 0.951 . S
H751 C777 0.950 . S
H752 C778 0.950 . S
H753 C780 0.950 . S
H754 C783 0.950 . S
H755 C784 0.950 . S
H756 C786 0.950 . S
H757 C787 0.950 . S
C758 H740 0.951 . S
C758 C759 1.366 . S
C758 C760 1.388 . S
C759 C758 1.366 . S
C759 C763 1.385 . S
C760 H741 0.964 . S
C760 C758 1.388 . S
C760 C761 1.366 1_455 S
C761 C760 1.366 1_655 S
C761 C762 1.414 . S
C761 C764 1.499 . S
C762 H742 0.950 . S
C762 C761 1.414 . S
C762 C763 1.374 1_655 S
C763 H743 0.950 . S
C763 C759 1.385 . S
C763 C762 1.374 1_455 S
C764 C761 1.499 . S
C764 C765 1.373 . S
C764 C766 1.389 . S
C765 H744 0.950 . S
C765 C764 1.373 . S
C765 C781 1.377 . S
C766 C764 1.389 . S
C766 C767 1.524 . S
C766 C780 1.377 . S
C767 C766 1.524 . S
C767 C768 1.397 . S
C767 C772 1.363 . S
C768 H745 0.950 . S
C768 C767 1.397 . S
C768 C769 1.334 . S
C769 H746 0.950 . S
C769 C768 1.334 . S
C769 C770 1.287 . S
C770 C769 1.287 . S
C770 C771 1.524 . S
C770 H789 0.913 . S
C771 H747 0.950 . S
C771 C770 1.524 . S
C771 C772 1.415 . S
C772 H748 0.950 . S
C772 C767 1.363 . S
C772 C771 1.415 . S
C773 H749 0.951 . S
C773 C774 1.366 . S
C773 C775 1.388 . S
C774 C773 1.366 . S
C774 C778 1.385 . S
C775 H750 0.951 . S
C775 C773 1.388 . S
C775 C776 1.366 . S
C776 C775 1.366 . S
C776 C777 1.414 . S
C776 C779 1.499 . S
C777 H751 0.950 . S
C777 C776 1.414 . S
C777 C778 1.374 . S
C778 H752 0.950 . S
C778 C774 1.385 . S
C778 C777 1.374 . S
C779 C776 1.499 . S
C779 C780 1.373 . S
C779 C781 1.389 . S
C780 H753 0.950 . S
C780 C766 1.377 . S
C780 C779 1.373 . S
C781 C765 1.377 . S
C781 C779 1.389 . S
C781 C782 1.524 . S
C782 C781 1.524 . S
C782 C783 1.397 . S
C782 C787 1.363 . S
C783 H754 0.950 . S
C783 C782 1.397 . S
C783 C784 1.334 . S
C784 H755 0.950 . S
C784 C783 1.334 . S
C784 C785 1.287 . S
C785 C784 1.287 . S
C785 C786 1.524 . S
C785 H788 0.999 . S
C786 H756 0.950 . S
C786 C785 1.524 . S
C786 C787 1.415 . S
C787 H757 0.950 . S
C787 C782 1.363 . S
C787 C786 1.415 . S
H788 C785 0.999 . S
H789 C770 0.913 . S
H790 C808 0.951 . S
H791 C810 0.951 . S
H792 C812 0.950 . S
H793 C813 0.950 . S
H794 C815 0.950 . S
H795 C818 0.950 1_455 S
H796 C819 0.950 . S
H797 C821 0.950 . S
H798 C822 0.950 . S
H799 C823 0.951 . S
H800 C825 0.951 . S
H801 C827 0.950 . S
H802 C828 0.950 . S
H803 C830 0.950 . S
H804 C833 0.950 . S
H805 C834 0.950 . S
H806 C836 0.950 . S
H807 C837 0.950 . S
C808 H790 0.951 . S
C808 C809 1.366 . S
C808 C810 1.388 1_455 S
C809 C808 1.366 . S
C809 C813 1.385 . S
C810 H791 0.951 . S
C810 C808 1.388 1_655 S
C810 C811 1.366 . S
C811 C810 1.366 . S
C811 C812 1.414 1_655 S
C811 C814 1.499 . S
C812 H792 0.950 . S
C812 C811 1.414 1_455 S
C812 C813 1.374 . S
C813 H793 0.950 . S
C813 C809 1.385 . S
C813 C812 1.374 . S
C814 C811 1.499 . S
C814 C815 1.373 . S
C814 C816 1.389 . S
C815 H794 0.950 . S
C815 C814 1.373 . S
C815 C831 1.377 . S
C816 C814 1.389 . S
C816 C817 1.524 . S
C816 C830 1.377 . S
C817 C816 1.524 . S
C817 C818 1.397 . S
C817 C822 1.363 . S
C818 H795 0.950 1_655 S
C818 C817 1.397 . S
C818 C819 1.334 1_655 S
C819 H796 0.950 . S
C819 C818 1.334 1_455 S
C819 C820 1.287 1_455 S
C820 C819 1.287 1_655 S
C820 C821 1.524 . S
C820 H839 0.913 1_655 S
C821 H797 0.950 . S
C821 C820 1.524 . S
C821 C822 1.415 . S
C822 H798 0.950 . S
C822 C817 1.363 . S
C822 C821 1.415 . S
C823 H799 0.951 . S
C823 C824 1.366 . S
C823 C825 1.388 . S
C824 C823 1.366 . S
C824 C828 1.385 . S
C825 H800 0.951 . S
C825 C823 1.388 . S
C825 C826 1.366 1_565 S
C826 C825 1.366 1_545 S
C826 C827 1.414 . S
C826 C829 1.499 . S
C827 H801 0.950 . S
C827 C826 1.414 . S
C827 C828 1.374 1_545 S
C828 H802 0.950 . S
C828 C824 1.385 . S
C828 C827 1.374 1_565 S
C829 C826 1.499 . S
C829 C830 1.373 . S
C829 C831 1.389 . S
C830 H803 0.950 . S
C830 C816 1.377 . S
C830 C829 1.373 . S
C831 C815 1.377 . S
C831 C829 1.389 . S
C831 C832 1.524 . S
C832 C831 1.524 . S
C832 C833 1.397 . S
C832 C837 1.363 . S
C833 H804 0.950 . S
C833 C832 1.397 . S
C833 C834 1.334 . S
C834 H805 0.950 . S
C834 C833 1.334 . S
C834 C835 1.287 . S
C835 C834 1.287 . S
C835 C836 1.524 . S
C835 H838 0.999 . S
C836 H806 0.950 . S
C836 C835 1.524 . S
C836 C837 1.415 . S
C837 H807 0.950 . S
C837 C832 1.363 . S
C837 C836 1.415 . S
H838 C835 0.999 . S
H839 C820 0.913 1_455 S
H840 C858 0.951 . S
H841 C860 0.951 . S
H842 C862 0.950 . S
H843 C863 0.950 . S
H844 C865 0.950 . S
H845 C868 0.950 . S
H846 C869 0.950 . S
H847 C871 0.950 . S
H848 C872 0.950 . S
H849 C873 0.951 . S
H850 C875 0.951 . S
H851 C877 0.950 . S
H852 C878 0.950 . S
H853 C880 0.950 . S
H854 C883 0.950 . S
H855 C884 0.950 . S
H856 C886 0.950 . S
H857 C887 0.950 . S
C858 H840 0.951 . S
C858 C859 1.366 . S
C858 C860 1.388 . S
C859 C858 1.366 . S
C859 C863 1.385 . S
C860 H841 0.951 . S
C860 C858 1.388 . S
C860 C861 1.366 . S
C861 C860 1.366 . S
C861 C862 1.414 . S
C861 C864 1.499 . S
C862 H842 0.950 . S
C862 C861 1.414 . S
C862 C863 1.374 . S
C863 H843 0.950 . S
C863 C859 1.385 . S
C863 C862 1.374 . S
C864 C861 1.499 . S
C864 C865 1.373 . S
C864 C866 1.389 . S
C865 H844 0.950 . S
C865 C864 1.373 . S
C865 C881 1.377 . S
C866 C864 1.389 . S
C866 C867 1.524 . S
C866 C880 1.377 . S
C867 C866 1.524 . S
C867 C868 1.397 . S
C867 C872 1.363 . S
C868 H845 0.950 . S
C868 C867 1.397 . S
C868 C869 1.334 . S
C869 H846 0.950 . S
C869 C868 1.334 . S
C869 C870 1.287 . S
C870 C869 1.287 . S
C870 C871 1.524 . S
C870 H889 0.913 . S
C871 H847 0.950 . S
C871 C870 1.524 . S
C871 C872 1.415 . S
C872 H848 0.950 . S
C872 C867 1.363 . S
C872 C871 1.415 . S
C873 H849 0.951 . S
C873 C874 1.366 . S
C873 C875 1.388 . S
C874 C873 1.366 . S
C874 C878 1.385 . S
C875 H850 0.951 . S
C875 C873 1.388 . S
C875 C876 1.366 . S
C876 C875 1.366 . S
C876 C877 1.414 . S
C876 C879 1.499 . S
C877 H851 0.950 . S
C877 C876 1.414 . S
C877 C878 1.374 . S
C878 H852 0.950 . S
C878 C874 1.385 . S
C878 C877 1.374 . S
C879 C876 1.499 . S
C879 C880 1.373 . S
C879 C881 1.389 . S
C880 H853 0.950 . S
C880 C866 1.377 . S
C880 C879 1.373 . S
C881 C865 1.377 . S
C881 C879 1.389 . S
C881 C882 1.524 . S
C882 C881 1.524 . S
C882 C883 1.397 . S
C882 C887 1.363 . S
C883 H854 0.950 . S
C883 C882 1.397 . S
C883 C884 1.334 . S
C884 H855 0.950 . S
C884 C883 1.334 . S
C884 C885 1.287 . S
C885 C884 1.287 . S
C885 C886 1.524 . S
C885 H888 0.999 . S
C886 H856 0.950 . S
C886 C885 1.524 . S
C886 C887 1.415 . S
C887 H857 0.950 . S
C887 C882 1.363 . S
C887 C886 1.415 . S
H888 C885 0.999 . S
H889 C870 0.913 . S
H890 C908 0.951 . S
H891 C910 0.951 . S
H892 C912 0.950 . S
H893 C913 0.950 . S
H894 C915 0.950 . S
H895 C918 0.950 . S
H896 C919 0.950 . S
H897 C921 0.950 . S
H898 C922 0.950 . S
H899 C923 0.951 . S
H900 C925 0.951 . S
H901 C927 0.950 . S
H902 C928 0.950 . S
H903 C930 0.950 . S
H904 C933 0.950 . S
H905 C934 0.950 . S
H906 C936 0.950 . S
H907 C937 0.950 . S
C908 H890 0.951 . S
C908 C909 1.366 . S
C908 C910 1.388 . S
C909 C908 1.366 . S
C909 C913 1.385 . S
C910 H891 0.951 . S
C910 C908 1.388 . S
C910 C911 1.366 . S
C911 C910 1.366 . S
C911 C912 1.414 . S
C911 C914 1.499 . S
C912 H892 0.950 . S
C912 C911 1.414 . S
C912 C913 1.374 . S
C913 H893 0.950 . S
C913 C909 1.385 . S
C913 C912 1.374 . S
C914 C911 1.499 . S
C914 C915 1.373 . S
C914 C916 1.389 . S
C915 H894 0.950 . S
C915 C914 1.373 . S
C915 C931 1.377 . S
C916 C914 1.389 . S
C916 C917 1.524 . S
C916 C930 1.377 . S
C917 C916 1.524 . S
C917 C918 1.397 . S
C917 C922 1.363 . S
C918 H895 0.950 . S
C918 C917 1.397 . S
C918 C919 1.334 . S
C919 H896 0.950 . S
C919 C918 1.334 . S
C919 C920 1.287 . S
C920 C919 1.287 . S
C920 C921 1.524 . S
C920 H939 0.913 . S
C921 H897 0.950 . S
C921 C920 1.524 . S
C921 C922 1.415 . S
C922 H898 0.950 . S
C922 C917 1.363 . S
C922 C921 1.415 . S
C923 H899 0.951 . S
C923 C924 1.366 . S
C923 C925 1.388 . S
C924 C923 1.366 . S
C924 C928 1.385 . S
C925 H900 0.951 . S
C925 C923 1.388 . S
C925 C926 1.366 . S
C926 C925 1.366 . S
C926 C927 1.414 . S
C926 C929 1.499 . S
C927 H901 0.950 . S
C927 C926 1.414 . S
C927 C928 1.374 . S
C928 H902 0.950 . S
C928 C924 1.385 . S
C928 C927 1.374 . S
C929 C926 1.499 . S
C929 C930 1.373 . S
C929 C931 1.389 . S
C930 H903 0.950 . S
C930 C916 1.377 . S
C930 C929 1.373 . S
C931 C915 1.377 . S
C931 C929 1.389 . S
C931 C932 1.524 . S
C932 C931 1.524 . S
C932 C933 1.397 . S
C932 C937 1.363 . S
C933 H904 0.950 . S
C933 C932 1.397 . S
C933 C934 1.334 . S
C934 H905 0.950 . S
C934 C933 1.334 . S
C934 C935 1.287 . S
C935 C934 1.287 . S
C935 C936 1.524 . S
C935 H938 0.999 . S
C936 H906 0.950 . S
C936 C935 1.524 . S
C936 C937 1.415 . S
C937 H907 0.950 . S
C937 C932 1.363 . S
C937 C936 1.415 . S
H938 C935 0.999 . S
H939 C920 0.913 . S
H940 C958 0.951 . S
H941 C960 0.951 . S
H942 C962 0.950 . S
H943 C963 0.950 . S
H944 C965 0.950 . S
H945 C968 0.950 . S
H946 C969 0.950 . S
H947 C971 0.950 . S
H948 C972 0.950 . S
H949 C973 0.951 . S
H950 C975 0.951 . S
H951 C977 0.950 . S
H952 C978 0.950 . S
H953 C980 0.950 . S
H954 C983 0.950 . S
H955 C984 0.950 . S
H956 C986 0.950 . S
H957 C987 0.950 . S
C958 H940 0.951 . S
C958 C959 1.366 . S
C958 C960 1.388 . S
C959 C958 1.366 . S
C959 C963 1.385 . S
C960 H941 0.951 . S
C960 C958 1.388 . S
C960 C961 1.366 . S
C961 C960 1.366 . S
C961 C962 1.414 . S
C961 C964 1.499 . S
C962 H942 0.950 . S
C962 C961 1.414 . S
C962 C963 1.374 . S
C963 H943 0.950 . S
C963 C959 1.385 . S
C963 C962 1.374 . S
C964 C961 1.499 . S
C964 C965 1.373 . S
C964 C966 1.389 . S
C965 H944 0.950 . S
C965 C964 1.373 . S
C965 C981 1.377 . S
C966 C964 1.389 . S
C966 C967 1.524 . S
C966 C980 1.377 . S
C967 C966 1.524 . S
C967 C968 1.397 . S
C967 C972 1.363 . S
C968 H945 0.950 . S
C968 C967 1.397 . S
C968 C969 1.334 . S
C969 H946 0.950 . S
C969 C968 1.334 . S
C969 C970 1.287 . S
C970 C969 1.287 . S
C970 C971 1.524 . S
C970 H989 0.913 . S
C971 H947 0.950 . S
C971 C970 1.524 . S
C971 C972 1.415 . S
C972 H948 0.950 . S
C972 C967 1.363 . S
C972 C971 1.415 . S
C973 H949 0.951 . S
C973 C974 1.366 . S
C973 C975 1.388 . S
C974 C973 1.366 . S
C974 C978 1.385 . S
C975 H950 0.951 . S
C975 C973 1.388 . S
C975 C976 1.366 . S
C976 C975 1.366 . S
C976 C977 1.414 . S
C976 C979 1.499 . S
C977 H951 0.950 . S
C977 C976 1.414 . S
C977 C978 1.374 . S
C978 H952 0.950 . S
C978 C974 1.385 . S
C978 C977 1.374 . S
C979 C976 1.499 . S
C979 C980 1.373 . S
C979 C981 1.389 . S
C980 H953 0.950 . S
C980 C966 1.377 . S
C980 C979 1.373 . S
C981 C965 1.377 . S
C981 C979 1.389 . S
C981 C982 1.524 . S
C982 C981 1.524 . S
C982 C983 1.397 . S
C982 C987 1.363 . S
C983 H954 0.950 . S
C983 C982 1.397 . S
C983 C984 1.334 . S
C984 H955 0.950 . S
C984 C983 1.334 . S
C984 C985 1.287 . S
C985 C984 1.287 . S
C985 C986 1.524 . S
C985 H988 0.999 . S
C986 H956 0.950 . S
C986 C985 1.524 . S
C986 C987 1.415 . S
C987 H957 0.950 . S
C987 C982 1.363 . S
C987 C986 1.415 . S
H988 C985 0.999 . S
H989 C970 0.913 . S
H990 C1008 0.951 . S
H991 C1010 0.951 . S
H992 C1012 0.950 . S
H993 C1013 0.950 . S
H994 C1015 0.950 . S
H995 C1018 0.950 . S
H996 C1019 0.950 . S
H997 C1021 0.950 . S
H998 C1022 0.950 . S
H999 C1023 0.951 . S
H1000 C1025 0.951 . S
H1001 C1027 0.950 . S
H1002 C1028 0.950 . S
H1003 C1030 0.950 . S
H1004 C1033 0.950 . S
H1005 C1034 0.950 . S
H1006 C1036 0.950 . S
H1007 C1037 0.950 . S
C1008 H990 0.951 . S
C1008 C1009 1.366 . S
C1008 C1010 1.388 . S
C1009 C1008 1.366 . S
C1009 C1013 1.385 . S
C1010 H991 0.951 . S
C1010 C1008 1.388 . S
C1010 C1011 1.366 . S
C1011 C1010 1.366 . S
C1011 C1012 1.414 . S
C1011 C1014 1.499 . S
C1012 H992 0.950 . S
C1012 C1011 1.414 . S
C1012 C1013 1.374 . S
C1013 H993 0.950 . S
C1013 C1009 1.385 . S
C1013 C1012 1.374 . S
C1014 C1011 1.499 . S
C1014 C1015 1.373 . S
C1014 C1016 1.389 . S
C1015 H994 0.950 . S
C1015 C1014 1.373 . S
C1015 C1031 1.377 . S
C1016 C1014 1.389 . S
C1016 C1017 1.524 . S
C1016 C1030 1.377 . S
C1017 C1016 1.524 . S
C1017 C1018 1.397 . S
C1017 C1022 1.363 . S
C1018 H995 0.950 . S
C1018 C1017 1.397 . S
C1018 C1019 1.334 . S
C1019 H996 0.950 . S
C1019 C1018 1.334 . S
C1019 C1020 1.287 . S
C1020 C1019 1.287 . S
C1020 C1021 1.524 . S
C1020 H1039 0.913 . S
C1021 H997 0.950 . S
C1021 C1020 1.524 . S
C1021 C1022 1.415 . S
C1022 H998 0.950 . S
C1022 C1017 1.363 . S
C1022 C1021 1.415 . S
C1023 H999 0.951 . S
C1023 C1024 1.366 . S
C1023 C1025 1.388 . S
C1024 C1023 1.366 . S
C1024 C1028 1.385 . S
C1025 H1000 0.951 . S
C1025 C1023 1.388 . S
C1025 C1026 1.366 . S
C1026 C1025 1.366 . S
C1026 C1027 1.414 . S
C1026 C1029 1.499 . S
C1027 H1001 0.950 . S
C1027 C1026 1.414 . S
C1027 C1028 1.374 . S
C1028 H1002 0.950 . S
C1028 C1024 1.385 . S
C1028 C1027 1.374 . S
C1029 C1026 1.499 . S
C1029 C1030 1.373 . S
C1029 C1031 1.389 . S
C1030 H1003 0.950 . S
C1030 C1016 1.377 . S
C1030 C1029 1.373 . S
C1031 C1015 1.377 . S
C1031 C1029 1.389 . S
C1031 C1032 1.524 . S
C1032 C1031 1.524 . S
C1032 C1033 1.397 . S
C1032 C1037 1.363 . S
C1033 H1004 0.950 . S
C1033 C1032 1.397 . S
C1033 C1034 1.334 . S
C1034 H1005 0.950 . S
C1034 C1033 1.334 . S
C1034 C1035 1.287 . S
C1035 C1034 1.287 . S
C1035 C1036 1.524 . S
C1035 H1038 0.999 . S
C1036 H1006 0.950 . S
C1036 C1035 1.524 . S
C1036 C1037 1.415 . S
C1037 H1007 0.950 . S
C1037 C1032 1.363 . S
C1037 C1036 1.415 . S
H1038 C1035 0.999 . S
H1039 C1020 0.913 . S
H1040 C1058 0.951 . S
H1041 C1060 0.951 . S
H1042 C1062 0.950 . S
H1043 C1063 0.950 . S
H1044 C1065 0.950 . S
H1045 C1068 0.950 . S
H1046 C1069 0.950 . S
H1047 C1071 0.950 . S
H1048 C1072 0.950 . S
H1049 C1073 0.951 . S
H1050 C1075 0.951 . S
H1051 C1077 0.950 . S
H1052 C1078 0.950 . S
H1053 C1080 0.950 . S
H1054 C1083 0.950 . S
H1055 C1084 0.950 . S
H1056 C1086 0.950 . S
H1057 C1087 0.950 . S
C1058 H1040 0.951 . S
C1058 C1059 1.366 . S
C1058 C1060 1.388 . S
C1059 C1058 1.366 . S
C1059 C1063 1.385 . S
C1060 H1041 0.951 . S
C1060 C1058 1.388 . S
C1060 C1061 1.366 . S
C1061 C1060 1.366 . S
C1061 C1062 1.414 . S
C1061 C1064 1.499 . S
C1062 H1042 0.950 . S
C1062 C1061 1.414 . S
C1062 C1063 1.374 . S
C1063 H1043 0.950 . S
C1063 C1059 1.385 . S
C1063 C1062 1.374 . S
C1064 C1061 1.499 . S
C1064 C1065 1.373 . S
C1064 C1066 1.389 . S
C1065 H1044 0.950 . S
C1065 C1064 1.373 . S
C1065 C1081 1.377 . S
C1066 C1064 1.389 . S
C1066 C1067 1.524 . S
C1066 C1080 1.377 . S
C1067 C1066 1.524 . S
C1067 C1068 1.397 . S
C1067 C1072 1.363 . S
C1068 H1045 0.950 . S
C1068 C1067 1.397 . S
C1068 C1069 1.334 . S
C1069 H1046 0.950 . S
C1069 C1068 1.334 . S
C1069 C1070 1.287 . S
C1070 C1069 1.287 . S
C1070 C1071 1.524 . S
C1070 H1089 0.913 . S
C1071 H1047 0.950 . S
C1071 C1070 1.524 . S
C1071 C1072 1.415 . S
C1072 H1048 0.950 . S
C1072 C1067 1.363 . S
C1072 C1071 1.415 . S
C1073 H1049 0.951 . S
C1073 C1074 1.366 . S
C1073 C1075 1.388 . S
C1074 C1073 1.366 . S
C1074 C1078 1.385 . S
C1075 H1050 0.951 . S
C1075 C1073 1.388 . S
C1075 C1076 1.366 . S
C1076 C1075 1.366 . S
C1076 C1077 1.414 . S
C1076 C1079 1.499 . S
C1077 H1051 0.950 . S
C1077 C1076 1.414 . S
C1077 C1078 1.374 . S
C1078 H1052 0.950 . S
C1078 C1074 1.385 . S
C1078 C1077 1.374 . S
C1079 C1076 1.499 . S
C1079 C1080 1.373 . S
C1079 C1081 1.389 . S
C1080 H1053 0.950 . S
C1080 C1066 1.377 . S
C1080 C1079 1.373 . S
C1081 C1065 1.377 . S
C1081 C1079 1.389 . S
C1081 C1082 1.524 . S
C1082 C1081 1.524 . S
C1082 C1083 1.397 . S
C1082 C1087 1.363 . S
C1083 H1054 0.950 . S
C1083 C1082 1.397 . S
C1083 C1084 1.334 . S
C1084 H1055 0.950 . S
C1084 C1083 1.334 . S
C1084 C1085 1.287 . S
C1085 C1084 1.287 . S
C1085 C1086 1.524 . S
C1085 H1088 0.999 . S
C1086 H1056 0.950 . S
C1086 C1085 1.524 . S
C1086 C1087 1.415 . S
C1087 H1057 0.950 . S
C1087 C1082 1.363 . S
C1087 C1086 1.415 . S
H1088 C1085 0.999 . S
H1089 C1070 0.913 . S
H1090 C1108 0.951 . S
H1091 C1110 0.951 . S
H1092 C1112 0.950 . S
H1093 C1113 0.950 . S
H1094 C1115 0.950 . S
H1095 C1118 0.950 . S
H1096 C1119 0.950 . S
H1097 C1121 0.950 . S
H1098 C1122 0.950 . S
H1099 C1123 0.951 . S
H1100 C1125 0.951 . S
H1101 C1127 0.950 . S
H1102 C1128 0.950 . S
H1103 C1130 0.950 . S
H1104 C1133 0.950 . S
H1105 C1134 0.950 . S
H1106 C1136 0.950 . S
H1107 C1137 0.950 . S
C1108 H1090 0.951 . S
C1108 C1109 1.366 . S
C1108 C1110 1.388 . S
C1109 C1108 1.366 . S
C1109 C1113 1.385 . S
C1110 H1091 0.951 . S
C1110 C1108 1.388 . S
C1110 C1111 1.366 . S
C1111 C1110 1.366 . S
C1111 C1112 1.414 . S
C1111 C1114 1.499 . S
C1112 H1092 0.950 . S
C1112 C1111 1.414 . S
C1112 C1113 1.374 . S
C1113 H1093 0.950 . S
C1113 C1109 1.385 . S
C1113 C1112 1.374 . S
C1114 C1111 1.499 . S
C1114 C1115 1.373 . S
C1114 C1116 1.389 . S
C1115 H1094 0.950 . S
C1115 C1114 1.373 . S
C1115 C1131 1.377 . S
C1116 C1114 1.389 . S
C1116 C1117 1.524 . S
C1116 C1130 1.377 . S
C1117 C1116 1.524 . S
C1117 C1118 1.397 . S
C1117 C1122 1.363 . S
C1118 H1095 0.950 . S
C1118 C1117 1.397 . S
C1118 C1119 1.334 . S
C1119 H1096 0.950 . S
C1119 C1118 1.334 . S
C1119 C1120 1.287 . S
C1120 C1119 1.287 . S
C1120 C1121 1.524 . S
C1120 H1139 0.913 . S
C1121 H1097 0.950 . S
C1121 C1120 1.524 . S
C1121 C1122 1.415 . S
C1122 H1098 0.950 . S
C1122 C1117 1.363 . S
C1122 C1121 1.415 . S
C1123 H1099 0.951 . S
C1123 C1124 1.366 . S
C1123 C1125 1.388 . S
C1124 C1123 1.366 . S
C1124 C1128 1.385 . S
C1125 H1100 0.951 . S
C1125 C1123 1.388 . S
C1125 C1126 1.366 . S
C1126 C1125 1.366 . S
C1126 C1127 1.414 . S
C1126 C1129 1.499 . S
C1127 H1101 0.950 . S
C1127 C1126 1.414 . S
C1127 C1128 1.374 . S
C1128 H1102 0.950 . S
C1128 C1124 1.385 . S
C1128 C1127 1.374 . S
C1129 C1126 1.499 . S
C1129 C1130 1.373 . S
C1129 C1131 1.389 . S
C1130 H1103 0.950 . S
C1130 C1116 1.377 . S
C1130 C1129 1.373 . S
C1131 C1115 1.377 . S
C1131 C1129 1.389 . S
C1131 C1132 1.524 . S
C1132 C1131 1.524 . S
C1132 C1133 1.397 . S
C1132 C1137 1.363 . S
C1133 H1104 0.950 . S
C1133 C1132 1.397 . S
C1133 C1134 1.334 . S
C1134 H1105 0.950 . S
C1134 C1133 1.334 . S
C1134 C1135 1.287 . S
C1135 C1134 1.287 . S
C1135 C1136 1.524 . S
C1135 H1138 0.999 . S
C1136 H1106 0.950 . S
C1136 C1135 1.524 . S
C1136 C1137 1.415 . S
C1137 H1107 0.950 . S
C1137 C1132 1.363 . S
C1137 C1136 1.415 . S
H1138 C1135 0.999 . S
H1139 C1120 0.913 . S
H1140 C1158 0.951 . S
H1141 C1160 0.951 . S
H1142 C1162 0.950 . S
H1143 C1163 0.950 . S
H1144 C1165 0.950 . S
H1145 C1168 0.950 . S
H1146 C1169 0.950 . S
H1147 C1171 0.950 . S
H1148 C1172 0.950 . S
H1149 C1173 0.951 . S
H1150 C1175 0.951 . S
H1151 C1177 0.950 . S
H1152 C1178 0.950 . S
H1153 C1180 0.950 . S
H1154 C1183 0.950 . S
H1155 C1184 0.950 . S
H1156 C1186 0.950 . S
H1157 C1187 0.950 . S
C1158 H1140 0.951 . S
C1158 C1159 1.366 . S
C1158 C1160 1.388 . S
C1159 C1158 1.366 . S
C1159 C1163 1.385 . S
C1160 H1141 0.951 . S
C1160 C1158 1.388 . S
C1160 C1161 1.366 . S
C1161 C1160 1.366 . S
C1161 C1162 1.414 . S
C1161 C1164 1.499 . S
C1162 H1142 0.950 . S
C1162 C1161 1.414 . S
C1162 C1163 1.374 . S
C1163 H1143 0.950 . S
C1163 C1159 1.385 . S
C1163 C1162 1.374 . S
C1164 C1161 1.499 . S
C1164 C1165 1.356 1_556 S
C1164 C1166 1.389 1_565 S
C1165 H1144 0.950 . S
C1165 C1164 1.356 1_554 S
C1165 C1181 1.393 . S
C1166 C1164 1.389 1_545 S
C1166 C1167 1.524 . S
C1166 C1180 1.393 . S
C1167 C1166 1.524 . S
C1167 C1168 1.397 1_545 S
C1167 C1172 1.363 . S
C1168 H1145 0.950 . S
C1168 C1167 1.397 1_565 S
C1168 C1169 1.334 . S
C1169 H1146 0.950 . S
C1169 C1168 1.334 . S
C1169 C1170 1.287 1_565 S
C1170 C1169 1.287 1_545 S
C1170 C1171 1.524 . S
C1170 H1189 0.913 . S
C1171 H1147 0.950 . S
C1171 C1170 1.524 . S
C1171 C1172 1.415 . S
C1172 H1148 0.950 . S
C1172 C1167 1.363 . S
C1172 C1171 1.415 . S
C1173 H1149 0.951 . S
C1173 C1174 1.366 . S
C1173 C1175 1.388 . S
C1174 C1173 1.366 . S
C1174 C1178 1.385 . S
C1175 H1150 0.951 . S
C1175 C1173 1.388 . S
C1175 C1176 1.366 . S
C1176 C1175 1.366 . S
C1176 C1177 1.414 . S
C1176 C1179 1.499 . S
C1177 H1151 0.950 . S
C1177 C1176 1.414 . S
C1177 C1178 1.374 . S
C1178 H1152 0.950 . S
C1178 C1174 1.385 . S
C1178 C1177 1.374 . S
C1179 C1176 1.499 . S
C1179 C1180 1.356 1_554 S
C1179 C1181 1.389 1_545 S
C1180 H1153 0.950 . S
C1180 C1166 1.393 . S
C1180 C1179 1.356 1_556 S
C1181 C1165 1.393 . S
C1181 C1179 1.389 1_565 S
C1181 C1182 1.524 . S
C1182 C1181 1.524 . S
C1182 C1183 1.397 1_565 S
C1182 C1187 1.363 . S
C1183 H1154 0.950 . S
C1183 C1182 1.397 1_545 S
C1183 C1184 1.334 . S
C1184 H1155 0.950 . S
C1184 C1183 1.334 . S
C1184 C1185 1.287 1_545 S
C1185 C1184 1.287 1_565 S
C1185 C1186 1.524 . S
C1185 H1188 0.999 . S
C1186 H1156 0.950 . S
C1186 C1185 1.524 . S
C1186 C1187 1.415 . S
C1187 H1157 0.950 . S
C1187 C1182 1.363 . S
C1187 C1186 1.415 . S
H1188 C1185 0.999 . S
H1189 C1170 0.913 . S
H1190 C1208 0.951 . S
H1191 C1210 0.951 . S
H1192 C1212 0.950 . S
H1193 C1213 0.950 . S
H1194 C1215 0.950 . S
H1195 C1218 0.950 . S
H1196 C1219 0.950 . S
H1197 C1221 0.950 . S
H1198 C1222 0.950 . S
H1199 C1223 0.951 . S
H1200 C1225 0.951 . S
H1201 C1227 0.950 . S
H1202 C1228 0.950 . S
H1203 C1230 0.950 . S
H1204 C1233 0.950 . S
H1205 C1234 0.950 . S
H1206 C1236 0.950 . S
H1207 C1237 0.950 . S
C1208 H1190 0.951 . S
C1208 C1209 1.366 . S
C1208 C1210 1.388 . S
C1209 C1208 1.366 . S
C1209 C1213 1.385 . S
C1210 H1191 0.951 . S
C1210 C1208 1.388 . S
C1210 C1211 1.366 . S
C1211 C1210 1.366 . S
C1211 C1212 1.414 . S
C1211 C1214 1.499 . S
C1212 H1192 0.950 . S
C1212 C1211 1.414 . S
C1212 C1213 1.374 . S
C1213 H1193 0.950 . S
C1213 C1209 1.385 . S
C1213 C1212 1.374 . S
C1214 C1211 1.499 . S
C1214 C1215 1.373 . S
C1214 C1216 1.389 . S
C1215 H1194 0.950 . S
C1215 C1214 1.373 . S
C1215 C1231 1.377 . S
C1216 C1214 1.389 . S
C1216 C1217 1.524 . S
C1216 C1230 1.377 . S
C1217 C1216 1.524 . S
C1217 C1218 1.397 . S
C1217 C1222 1.363 . S
C1218 H1195 0.950 . S
C1218 C1217 1.397 . S
C1218 C1219 1.334 . S
C1219 H1196 0.950 . S
C1219 C1218 1.334 . S
C1219 C1220 1.287 . S
C1220 C1219 1.287 . S
C1220 C1221 1.524 . S
C1220 H1239 0.913 . S
C1221 H1197 0.950 . S
C1221 C1220 1.524 . S
C1221 C1222 1.415 . S
C1222 H1198 0.950 . S
C1222 C1217 1.363 . S
C1222 C1221 1.415 . S
C1223 H1199 0.951 . S
C1223 C1224 1.366 . S
C1223 C1225 1.388 . S
C1224 C1223 1.366 . S
C1224 C1228 1.385 . S
C1225 H1200 0.951 . S
C1225 C1223 1.388 . S
C1225 C1226 1.366 . S
C1226 C1225 1.366 . S
C1226 C1227 1.414 . S
C1226 C1229 1.499 . S
C1227 H1201 0.950 . S
C1227 C1226 1.414 . S
C1227 C1228 1.374 . S
C1228 H1202 0.950 . S
C1228 C1224 1.385 . S
C1228 C1227 1.374 . S
C1229 C1226 1.499 . S
C1229 C1230 1.373 . S
C1229 C1231 1.389 . S
C1230 H1203 0.950 . S
C1230 C1216 1.377 . S
C1230 C1229 1.373 . S
C1231 C1215 1.377 . S
C1231 C1229 1.389 . S
C1231 C1232 1.524 . S
C1232 C1231 1.524 . S
C1232 C1233 1.397 . S
C1232 C1237 1.363 . S
C1233 H1204 0.950 . S
C1233 C1232 1.397 . S
C1233 C1234 1.334 . S
C1234 H1205 0.950 . S
C1234 C1233 1.334 . S
C1234 C1235 1.287 . S
C1235 C1234 1.287 . S
C1235 C1236 1.524 . S
C1235 H1238 0.999 . S
C1236 H1206 0.950 . S
C1236 C1235 1.524 . S
C1236 C1237 1.415 . S
C1237 H1207 0.950 . S
C1237 C1232 1.363 . S
C1237 C1236 1.415 . S
H1238 C1235 0.999 . S
H1239 C1220 0.913 . S
H1240 C1258 0.951 . S
H1241 C1260 0.951 . S
H1242 C1262 0.950 . S
H1243 C1263 0.950 . S
H1244 C1265 0.950 . S
H1245 C1268 0.950 1_556 S
H1246 C1269 0.950 . S
H1247 C1271 0.950 . S
H1248 C1272 0.950 . S
H1249 C1273 0.951 . S
H1250 C1275 0.951 . S
H1251 C1277 0.950 . S
H1252 C1278 0.950 . S
H1253 C1280 0.950 . S
H1254 C1283 0.950 1_554 S
H1255 C1284 0.950 . S
H1256 C1286 0.950 . S
H1257 C1287 0.950 . S
C1258 H1240 0.951 . S
C1258 C1259 1.366 . S
C1258 C1260 1.388 . S
C1259 C1258 1.366 . S
C1259 C1263 1.385 . S
C1260 H1241 0.951 . S
C1260 C1258 1.388 . S
C1260 C1261 1.366 . S
C1261 C1260 1.366 . S
C1261 C1262 1.414 . S
C1261 C1264 1.499 . S
C1262 H1242 0.950 . S
C1262 C1261 1.414 . S
C1262 C1263 1.374 . S
C1263 H1243 0.950 . S
C1263 C1259 1.385 . S
C1263 C1262 1.374 . S
C1264 C1261 1.499 . S
C1264 C1265 1.373 1_455 S
C1264 C1266 1.389 1_556 S
C1265 H1244 0.950 . S
C1265 C1264 1.373 1_655 S
C1265 C1281 1.377 . S
C1266 C1264 1.389 1_554 S
C1266 C1267 1.524 . S
C1266 C1280 1.377 . S
C1267 C1266 1.524 . S
C1267 C1268 1.397 . S
C1267 C1272 1.363 . S
C1268 H1245 0.950 1_554 S
C1268 C1267 1.397 . S
C1268 C1269 1.334 . S
C1269 H1246 0.950 . S
C1269 C1268 1.334 . S
C1269 C1270 1.287 . S
C1270 C1269 1.287 . S
C1270 C1271 1.524 . S
C1270 H1289 0.913 . S
C1271 H1247 0.950 . S
C1271 C1270 1.524 . S
C1271 C1272 1.415 . S
C1272 H1248 0.950 . S
C1272 C1267 1.363 . S
C1272 C1271 1.415 . S
C1273 H1249 0.951 . S
C1273 C1274 1.366 . S
C1273 C1275 1.388 . S
C1274 C1273 1.366 . S
C1274 C1278 1.385 . S
C1275 H1250 0.951 . S
C1275 C1273 1.388 . S
C1275 C1276 1.366 . S
C1276 C1275 1.366 . S
C1276 C1277 1.414 . S
C1276 C1279 1.499 . S
C1277 H1251 0.950 . S
C1277 C1276 1.414 . S
C1277 C1278 1.374 . S
C1278 H1252 0.950 . S
C1278 C1274 1.385 . S
C1278 C1277 1.374 . S
C1279 C1276 1.499 . S
C1279 C1280 1.373 1_655 S
C1279 C1281 1.389 1_554 S
C1280 H1253 0.950 . S
C1280 C1266 1.377 . S
C1280 C1279 1.373 1_455 S
C1281 C1265 1.377 . S
C1281 C1279 1.389 1_556 S
C1281 C1282 1.524 . S
C1282 C1281 1.524 . S
C1282 C1283 1.397 . S
C1282 C1287 1.363 . S
C1283 H1254 0.950 1_556 S
C1283 C1282 1.397 . S
C1283 C1284 1.334 . S
C1284 H1255 0.950 . S
C1284 C1283 1.334 . S
C1284 C1285 1.287 . S
C1285 C1284 1.287 . S
C1285 C1286 1.524 . S
C1285 H1288 0.999 . S
C1286 H1256 0.950 . S
C1286 C1285 1.524 . S
C1286 C1287 1.415 . S
C1287 H1257 0.950 . S
C1287 C1282 1.363 . S
C1287 C1286 1.415 . S
H1288 C1285 0.999 . S
H1289 C1270 0.913 . S
H1290 C1308 0.951 . S
H1291 C1310 0.951 . S
H1292 C1312 0.950 . S
H1293 C1313 0.950 . S
H1294 C1315 0.950 . S
H1295 C1318 0.950 1_545 S
H1296 C1319 0.950 . S
H1297 C1321 0.950 . S
H1298 C1322 0.950 . S
H1299 C1323 0.951 . S
H1300 C1325 0.951 . S
H1301 C1327 0.950 . S
H1302 C1328 0.950 . S
H1303 C1330 0.950 . S
H1304 C1333 0.950 1_565 S
H1305 C1334 0.950 . S
H1306 C1336 0.950 . S
H1307 C1337 0.950 . S
C1308 H1290 0.951 . S
C1308 C1309 1.366 . S
C1308 C1310 1.388 . S
C1309 C1308 1.366 . S
C1309 C1313 1.385 . S
C1310 H1291 0.951 . S
C1310 C1308 1.388 . S
C1310 C1311 1.366 . S
C1311 C1310 1.366 . S
C1311 C1312 1.414 . S
C1311 C1314 1.499 . S
C1312 H1292 0.950 . S
C1312 C1311 1.414 . S
C1312 C1313 1.374 . S
C1313 H1293 0.950 . S
C1313 C1309 1.385 . S
C1313 C1312 1.374 . S
C1314 C1311 1.499 . S
C1314 C1315 1.373 . S
C1314 C1316 1.389 1_545 S
C1315 H1294 0.950 . S
C1315 C1314 1.373 . S
C1315 C1331 1.377 . S
C1316 C1314 1.389 1_565 S
C1316 C1317 1.524 . S
C1316 C1330 1.377 . S
C1317 C1316 1.524 . S
C1317 C1318 1.397 . S
C1317 C1322 1.363 . S
C1318 H1295 0.950 1_565 S
C1318 C1317 1.397 . S
C1318 C1319 1.334 . S
C1319 H1296 0.950 . S
C1319 C1318 1.334 . S
C1319 C1320 1.287 . S
C1320 C1319 1.287 . S
C1320 C1321 1.524 . S
C1320 H1339 0.913 . S
C1321 H1297 0.950 . S
C1321 C1320 1.524 . S
C1321 C1322 1.415 . S
C1322 H1298 0.950 . S
C1322 C1317 1.363 . S
C1322 C1321 1.415 . S
C1323 H1299 0.951 . S
C1323 C1324 1.366 . S
C1323 C1325 1.388 . S
C1324 C1323 1.366 . S
C1324 C1328 1.385 . S
C1325 H1300 0.951 . S
C1325 C1323 1.388 . S
C1325 C1326 1.366 . S
C1326 C1325 1.366 . S
C1326 C1327 1.414 . S
C1326 C1329 1.499 . S
C1327 H1301 0.950 . S
C1327 C1326 1.414 . S
C1327 C1328 1.374 . S
C1328 H1302 0.950 . S
C1328 C1324 1.385 . S
C1328 C1327 1.374 . S
C1329 C1326 1.499 . S
C1329 C1330 1.373 . S
C1329 C1331 1.389 1_565 S
C1330 H1303 0.950 . S
C1330 C1316 1.377 . S
C1330 C1329 1.373 . S
C1331 C1315 1.377 . S
C1331 C1329 1.389 1_545 S
C1331 C1332 1.524 . S
C1332 C1331 1.524 . S
C1332 C1333 1.397 . S
C1332 C1337 1.363 . S
C1333 H1304 0.950 1_545 S
C1333 C1332 1.397 . S
C1333 C1334 1.334 . S
C1334 H1305 0.950 . S
C1334 C1333 1.334 . S
C1334 C1335 1.287 . S
C1335 C1334 1.287 . S
C1335 C1336 1.524 . S
C1335 H1338 0.999 . S
C1336 H1306 0.950 . S
C1336 C1335 1.524 . S
C1336 C1337 1.415 . S
C1337 H1307 0.950 . S
C1337 C1332 1.363 . S
C1337 C1336 1.415 . S
H1338 C1335 0.999 . S
H1339 C1320 0.913 . S
H1340 C1358 0.951 . S
H1341 C1360 0.951 . S
H1342 C1362 0.950 . S
H1343 C1363 0.950 . S
H1344 C1365 0.950 . S
H1345 C1368 0.950 1_554 S
H1346 C1369 0.950 . S
H1347 C1371 0.950 . S
H1348 C1372 0.950 . S
H1349 C1373 0.951 . S
H1350 C1375 0.951 . S
H1351 C1377 0.950 . S
H1352 C1378 0.950 . S
H1353 C1380 0.950 . S
H1354 C1383 0.950 1_556 S
H1355 C1384 0.950 . S
H1356 C1386 0.950 . S
H1357 C1387 0.950 . S
C1358 H1340 0.951 . S
C1358 C1359 1.366 . S
C1358 C1360 1.388 . S
C1359 C1358 1.366 . S
C1359 C1363 1.385 . S
C1360 H1341 0.951 . S
C1360 C1358 1.388 . S
C1360 C1361 1.366 . S
C1361 C1360 1.366 . S
C1361 C1362 1.414 . S
C1361 C1364 1.499 . S
C1362 H1342 0.950 . S
C1362 C1361 1.414 . S
C1362 C1363 1.374 . S
C1363 H1343 0.950 . S
C1363 C1359 1.385 . S
C1363 C1362 1.374 . S
C1364 C1361 1.499 . S
C1364 C1365 1.373 . S
C1364 C1366 1.389 1_554 S
C1365 H1344 0.950 . S
C1365 C1364 1.373 . S
C1365 C1381 1.377 . S
C1366 C1364 1.389 1_556 S
C1366 C1367 1.524 . S
C1366 C1380 1.377 . S
C1367 C1366 1.524 . S
C1367 C1368 1.397 . S
C1367 C1372 1.363 . S
C1368 H1345 0.950 1_556 S
C1368 C1367 1.397 . S
C1368 C1369 1.334 . S
C1369 H1346 0.950 . S
C1369 C1368 1.334 . S
C1369 C1370 1.287 . S
C1370 C1369 1.287 . S
C1370 C1371 1.524 . S
C1370 H1389 0.913 . S
C1371 H1347 0.950 . S
C1371 C1370 1.524 . S
C1371 C1372 1.415 . S
C1372 H1348 0.950 . S
C1372 C1367 1.363 . S
C1372 C1371 1.415 . S
C1373 H1349 0.951 . S
C1373 C1374 1.366 . S
C1373 C1375 1.388 . S
C1374 C1373 1.366 . S
C1374 C1378 1.385 . S
C1375 H1350 0.951 . S
C1375 C1373 1.388 . S
C1375 C1376 1.366 . S
C1376 C1375 1.366 . S
C1376 C1377 1.414 . S
C1376 C1379 1.499 . S
C1377 H1351 0.950 . S
C1377 C1376 1.414 . S
C1377 C1378 1.374 . S
C1378 H1352 0.950 . S
C1378 C1374 1.385 . S
C1378 C1377 1.374 . S
C1379 C1376 1.499 . S
C1379 C1380 1.373 . S
C1379 C1381 1.389 1_556 S
C1380 H1353 0.950 . S
C1380 C1366 1.377 . S
C1380 C1379 1.373 . S
C1381 C1365 1.377 . S
C1381 C1379 1.389 1_554 S
C1381 C1382 1.524 . S
C1382 C1381 1.524 . S
C1382 C1383 1.397 . S
C1382 C1387 1.363 . S
C1383 H1354 0.950 1_554 S
C1383 C1382 1.397 . S
C1383 C1384 1.334 . S
C1384 H1355 0.950 . S
C1384 C1383 1.334 . S
C1384 C1385 1.287 . S
C1385 C1384 1.287 . S
C1385 C1386 1.524 . S
C1385 H1388 0.999 . S
C1386 H1356 0.950 . S
C1386 C1385 1.524 . S
C1386 C1387 1.415 . S
C1387 H1357 0.950 . S
C1387 C1382 1.363 . S
C1387 C1386 1.415 . S
H1388 C1385 0.999 . S
H1389 C1370 0.913 . S
H1390 C1408 0.951 . S
H1391 C1410 0.951 . S
H1392 C1412 0.950 . S
H1393 C1413 0.950 . S
H1394 C1415 0.950 . S
H1395 C1418 0.950 . S
H1396 C1419 0.950 . S
H1397 C1421 0.950 . S
H1398 C1422 0.950 . S
H1399 C1423 0.951 . S
H1400 C1425 0.951 . S
H1401 C1427 0.950 . S
H1402 C1428 0.950 . S
H1403 C1430 0.950 . S
H1404 C1433 0.950 . S
H1405 C1434 0.950 . S
H1406 C1436 0.950 . S
H1407 C1437 0.950 . S
C1408 H1390 0.951 . S
C1408 C1409 1.366 . S
C1408 C1410 1.388 . S
C1409 C1408 1.366 . S
C1409 C1413 1.385 . S
C1410 H1391 0.951 . S
C1410 C1408 1.388 . S
C1410 C1411 1.366 . S
C1411 C1410 1.366 . S
C1411 C1412 1.414 . S
C1411 C1414 1.499 . S
C1412 H1392 0.950 . S
C1412 C1411 1.414 . S
C1412 C1413 1.374 . S
C1413 H1393 0.950 . S
C1413 C1409 1.385 . S
C1413 C1412 1.374 . S
C1414 C1411 1.499 . S
C1414 C1415 1.373 1_455 S
C1414 C1416 1.389 . S
C1415 H1394 0.950 . S
C1415 C1414 1.373 1_655 S
C1415 C1431 1.377 . S
C1416 C1414 1.389 . S
C1416 C1417 1.524 . S
C1416 C1430 1.377 . S
C1417 C1416 1.524 . S
C1417 C1418 1.397 . S
C1417 C1422 1.363 . S
C1418 H1395 0.950 . S
C1418 C1417 1.397 . S
C1418 C1419 1.334 . S
C1419 H1396 0.950 . S
C1419 C1418 1.334 . S
C1419 C1420 1.287 . S
C1420 C1419 1.287 . S
C1420 C1421 1.524 . S
C1420 H1439 0.913 . S
C1421 H1397 0.950 . S
C1421 C1420 1.524 . S
C1421 C1422 1.415 . S
C1422 H1398 0.950 . S
C1422 C1417 1.363 . S
C1422 C1421 1.415 . S
C1423 H1399 0.951 . S
C1423 C1424 1.366 . S
C1423 C1425 1.388 . S
C1424 C1423 1.366 . S
C1424 C1428 1.385 . S
C1425 H1400 0.951 . S
C1425 C1423 1.388 . S
C1425 C1426 1.366 . S
C1426 C1425 1.366 . S
C1426 C1427 1.414 . S
C1426 C1429 1.499 . S
C1427 H1401 0.950 . S
C1427 C1426 1.414 . S
C1427 C1428 1.374 . S
C1428 H1402 0.950 . S
C1428 C1424 1.385 . S
C1428 C1427 1.374 . S
C1429 C1426 1.499 . S
C1429 C1430 1.373 1_655 S
C1429 C1431 1.389 . S
C1430 H1403 0.950 . S
C1430 C1416 1.377 . S
C1430 C1429 1.373 1_455 S
C1431 C1415 1.377 . S
C1431 C1429 1.389 . S
C1431 C1432 1.524 . S
C1432 C1431 1.524 . S
C1432 C1433 1.397 . S
C1432 C1437 1.363 . S
C1433 H1404 0.950 . S
C1433 C1432 1.397 . S
C1433 C1434 1.334 . S
C1434 H1405 0.950 . S
C1434 C1433 1.334 . S
C1434 C1435 1.287 . S
C1435 C1434 1.287 . S
C1435 C1436 1.524 . S
C1435 H1438 0.999 . S
C1436 H1406 0.950 . S
C1436 C1435 1.524 . S
C1436 C1437 1.415 . S
C1437 H1407 0.950 . S
C1437 C1432 1.363 . S
C1437 C1436 1.415 . S
H1438 C1435 0.999 . S
H1439 C1420 0.913 . S
H1440 C1458 0.951 . S
H1441 C1460 0.951 . S
H1442 C1462 0.950 . S
H1443 C1463 0.950 . S
H1444 C1465 0.950 . S
H1445 C1468 0.950 . S
H1446 C1469 0.950 . S
H1447 C1471 0.950 . S
H1448 C1472 0.950 . S
H1449 C1473 0.951 . S
H1450 C1475 0.951 . S
H1451 C1477 0.950 . S
H1452 C1478 0.950 . S
H1453 C1480 0.950 . S
H1454 C1483 0.950 . S
H1455 C1484 0.950 . S
H1456 C1486 0.950 . S
H1457 C1487 0.950 . S
C1458 H1440 0.951 . S
C1458 C1459 1.366 . S
C1458 C1460 1.388 . S
C1459 C1458 1.366 . S
C1459 C1463 1.385 . S
C1460 H1441 0.951 . S
C1460 C1458 1.388 . S
C1460 C1461 1.366 . S
C1461 C1460 1.366 . S
C1461 C1462 1.414 . S
C1461 C1464 1.499 . S
C1462 H1442 0.950 . S
C1462 C1461 1.414 . S
C1462 C1463 1.374 . S
C1463 H1443 0.950 . S
C1463 C1459 1.385 . S
C1463 C1462 1.374 . S
C1464 C1461 1.499 . S
C1464 C1465 1.373 . S
C1464 C1466 1.389 . S
C1465 H1444 0.950 . S
C1465 C1464 1.373 . S
C1465 C1481 1.377 . S
C1466 C1464 1.389 . S
C1466 C1467 1.524 . S
C1466 C1480 1.377 . S
C1467 C1466 1.524 . S
C1467 C1468 1.397 . S
C1467 C1472 1.363 . S
C1468 H1445 0.950 . S
C1468 C1467 1.397 . S
C1468 C1469 1.334 . S
C1469 H1446 0.950 . S
C1469 C1468 1.334 . S
C1469 C1470 1.287 . S
C1470 C1469 1.287 . S
C1470 C1471 1.524 . S
C1470 H1489 0.913 . S
C1471 H1447 0.950 . S
C1471 C1470 1.524 . S
C1471 C1472 1.415 . S
C1472 H1448 0.950 . S
C1472 C1467 1.363 . S
C1472 C1471 1.415 . S
C1473 H1449 0.951 . S
C1473 C1474 1.366 . S
C1473 C1475 1.388 . S
C1474 C1473 1.366 . S
C1474 C1478 1.385 . S
C1475 H1450 0.951 . S
C1475 C1473 1.388 . S
C1475 C1476 1.366 . S
C1476 C1475 1.366 . S
C1476 C1477 1.414 . S
C1476 C1479 1.499 . S
C1477 H1451 0.950 . S
C1477 C1476 1.414 . S
C1477 C1478 1.374 . S
C1478 H1452 0.950 . S
C1478 C1474 1.385 . S
C1478 C1477 1.374 . S
C1479 C1476 1.499 . S
C1479 C1480 1.373 . S
C1479 C1481 1.389 . S
C1480 H1453 0.950 . S
C1480 C1466 1.377 . S
C1480 C1479 1.373 . S
C1481 C1465 1.377 . S
C1481 C1479 1.389 . S
C1481 C1482 1.524 . S
C1482 C1481 1.524 . S
C1482 C1483 1.397 . S
C1482 C1487 1.363 . S
C1483 H1454 0.950 . S
C1483 C1482 1.397 . S
C1483 C1484 1.334 . S
C1484 H1455 0.950 . S
C1484 C1483 1.334 . S
C1484 C1485 1.287 . S
C1485 C1484 1.287 . S
C1485 C1486 1.524 . S
C1485 H1488 0.999 . S
C1486 H1456 0.950 . S
C1486 C1485 1.524 . S
C1486 C1487 1.415 . S
C1487 H1457 0.950 . S
C1487 C1482 1.363 . S
C1487 C1486 1.415 . S
H1488 C1485 0.999 . S
H1489 C1470 0.913 . S
H1490 C1508 0.951 . S
H1491 C1510 0.951 . S
H1492 C1512 0.950 . S
H1493 C1513 0.950 . S
H1494 C1515 0.950 . S
H1495 C1518 0.950 . S
H1496 C1519 0.950 . S
H1497 C1521 0.950 . S
H1498 C1522 0.950 . S
H1499 C1523 0.951 . S
H1500 C1525 0.951 . S
H1501 C1527 0.950 . S
H1502 C1528 0.950 . S
H1503 C1530 0.950 . S
H1504 C1533 0.950 . S
H1505 C1534 0.950 . S
H1506 C1536 0.950 . S
H1507 C1537 0.950 . S
C1508 H1490 0.951 . S
C1508 C1509 1.366 . S
C1508 C1510 1.388 . S
C1509 C1508 1.366 . S
C1509 C1513 1.385 . S
C1510 H1491 0.951 . S
C1510 C1508 1.388 . S
C1510 C1511 1.366 . S
C1511 C1510 1.366 . S
C1511 C1512 1.414 . S
C1511 C1514 1.499 . S
C1512 H1492 0.950 . S
C1512 C1511 1.414 . S
C1512 C1513 1.374 . S
C1513 H1493 0.950 . S
C1513 C1509 1.385 . S
C1513 C1512 1.374 . S
C1514 C1511 1.499 . S
C1514 C1515 1.373 . S
C1514 C1516 1.389 . S
C1515 H1494 0.950 . S
C1515 C1514 1.373 . S
C1515 C1531 1.377 . S
C1516 C1514 1.389 . S
C1516 C1517 1.524 . S
C1516 C1530 1.377 . S
C1517 C1516 1.524 . S
C1517 C1518 1.397 . S
C1517 C1522 1.363 . S
C1518 H1495 0.950 . S
C1518 C1517 1.397 . S
C1518 C1519 1.334 . S
C1519 H1496 0.950 . S
C1519 C1518 1.334 . S
C1519 C1520 1.287 . S
C1520 C1519 1.287 . S
C1520 C1521 1.524 . S
C1520 H1539 0.913 . S
C1521 H1497 0.950 . S
C1521 C1520 1.524 . S
C1521 C1522 1.415 . S
C1522 H1498 0.950 . S
C1522 C1517 1.363 . S
C1522 C1521 1.415 . S
C1523 H1499 0.951 . S
C1523 C1524 1.366 . S
C1523 C1525 1.388 . S
C1524 C1523 1.366 . S
C1524 C1528 1.385 . S
C1525 H1500 0.951 . S
C1525 C1523 1.388 . S
C1525 C1526 1.366 . S
C1526 C1525 1.366 . S
C1526 C1527 1.414 . S
C1526 C1529 1.499 . S
C1527 H1501 0.950 . S
C1527 C1526 1.414 . S
C1527 C1528 1.374 . S
C1528 H1502 0.950 . S
C1528 C1524 1.385 . S
C1528 C1527 1.374 . S
C1529 C1526 1.499 . S
C1529 C1530 1.373 . S
C1529 C1531 1.389 . S
C1530 H1503 0.950 . S
C1530 C1516 1.377 . S
C1530 C1529 1.373 . S
C1531 C1515 1.377 . S
C1531 C1529 1.389 . S
C1531 C1532 1.524 . S
C1532 C1531 1.524 . S
C1532 C1533 1.397 . S
C1532 C1537 1.363 . S
C1533 H1504 0.950 . S
C1533 C1532 1.397 . S
C1533 C1534 1.334 . S
C1534 H1505 0.950 . S
C1534 C1533 1.334 . S
C1534 C1535 1.287 . S
C1535 C1534 1.287 . S
C1535 C1536 1.524 . S
C1535 H1538 0.999 . S
C1536 H1506 0.950 . S
C1536 C1535 1.524 . S
C1536 C1537 1.415 . S
C1537 H1507 0.950 . S
C1537 C1532 1.363 . S
C1537 C1536 1.415 . S
H1538 C1535 0.999 . S
H1539 C1520 0.913 . S
H1540 C1558 0.951 . S
H1541 C1560 0.951 . S
H1542 C1562 0.950 . S
H1543 C1563 0.950 . S
H1544 C1565 0.950 . S
H1545 C1568 0.950 . S
H1546 C1569 0.950 . S
H1547 C1571 0.950 . S
H1548 C1572 0.950 . S
H1549 C1573 0.951 . S
H1550 C1575 0.951 . S
H1551 C1577 0.950 . S
H1552 C1578 0.950 . S
H1553 C1580 0.950 . S
H1554 C1583 0.950 . S
H1555 C1584 0.950 . S
H1556 C1586 0.950 . S
H1557 C1587 0.950 . S
C1558 H1540 0.951 . S
C1558 C1559 1.366 . S
C1558 C1560 1.388 . S
C1559 C1558 1.366 . S
C1559 C1563 1.385 . S
C1560 H1541 0.951 . S
C1560 C1558 1.388 . S
C1560 C1561 1.366 . S
C1561 C1560 1.366 . S
C1561 C1562 1.414 . S
C1561 C1564 1.499 . S
C1562 H1542 0.950 . S
C1562 C1561 1.414 . S
C1562 C1563 1.374 . S
C1563 H1543 0.950 . S
C1563 C1559 1.385 . S
C1563 C1562 1.374 . S
C1564 C1561 1.499 . S
C1564 C1565 1.373 . S
C1564 C1566 1.389 . S
C1565 H1544 0.950 . S
C1565 C1564 1.373 . S
C1565 C1581 1.377 . S
C1566 C1564 1.389 . S
C1566 C1567 1.524 . S
C1566 C1580 1.377 . S
C1567 C1566 1.524 . S
C1567 C1568 1.397 . S
C1567 C1572 1.363 . S
C1568 H1545 0.950 . S
C1568 C1567 1.397 . S
C1568 C1569 1.334 . S
C1569 H1546 0.950 . S
C1569 C1568 1.334 . S
C1569 C1570 1.287 . S
C1570 C1569 1.287 . S
C1570 C1571 1.524 . S
C1570 H1589 0.913 . S
C1571 H1547 0.950 . S
C1571 C1570 1.524 . S
C1571 C1572 1.415 . S
C1572 H1548 0.950 . S
C1572 C1567 1.363 . S
C1572 C1571 1.415 . S
C1573 H1549 0.951 . S
C1573 C1574 1.366 . S
C1573 C1575 1.388 . S
C1574 C1573 1.366 . S
C1574 C1578 1.385 . S
C1575 H1550 0.951 . S
C1575 C1573 1.388 . S
C1575 C1576 1.366 . S
C1576 C1575 1.366 . S
C1576 C1577 1.414 . S
C1576 C1579 1.499 . S
C1577 H1551 0.950 . S
C1577 C1576 1.414 . S
C1577 C1578 1.374 . S
C1578 H1552 0.950 . S
C1578 C1574 1.385 . S
C1578 C1577 1.374 . S
C1579 C1576 1.499 . S
C1579 C1580 1.373 . S
C1579 C1581 1.389 . S
C1580 H1553 0.950 . S
C1580 C1566 1.377 . S
C1580 C1579 1.373 . S
C1581 C1565 1.377 . S
C1581 C1579 1.389 . S
C1581 C1582 1.524 . S
C1582 C1581 1.524 . S
C1582 C1583 1.397 . S
C1582 C1587 1.363 . S
C1583 H1554 0.950 . S
C1583 C1582 1.397 . S
C1583 C1584 1.334 . S
C1584 H1555 0.950 . S
C1584 C1583 1.334 . S
C1584 C1585 1.287 . S
C1585 C1584 1.287 . S
C1585 C1586 1.524 . S
C1585 H1588 0.999 . S
C1586 H1556 0.950 . S
C1586 C1585 1.524 . S
C1586 C1587 1.415 . S
C1587 H1557 0.950 . S
C1587 C1582 1.363 . S
C1587 C1586 1.415 . S
H1588 C1585 0.999 . S
H1589 C1570 0.913 . S
H1590 C1608 0.951 . S
H1591 C1610 0.951 . S
H1592 C1612 0.950 . S
H1593 C1613 0.950 . S
H1594 C1615 0.950 . S
H1595 C1618 0.950 . S
H1596 C1619 0.950 . S
H1597 C1621 0.950 . S
H1598 C1622 0.950 . S
H1599 C1623 0.951 . S
H1600 C1625 0.951 . S
H1601 C1627 0.950 . S
H1602 C1628 0.950 . S
H1603 C1630 0.950 . S
H1604 C1633 0.950 . S
H1605 C1634 0.950 . S
H1606 C1636 0.950 . S
H1607 C1637 0.950 . S
C1608 H1590 0.951 . S
C1608 C1609 1.366 . S
C1608 C1610 1.388 . S
C1609 C1608 1.366 . S
C1609 C1613 1.385 . S
C1610 H1591 0.951 . S
C1610 C1608 1.388 . S
C1610 C1611 1.366 . S
C1611 C1610 1.366 . S
C1611 C1612 1.414 . S
C1611 C1614 1.499 . S
C1612 H1592 0.950 . S
C1612 C1611 1.414 . S
C1612 C1613 1.374 . S
C1613 H1593 0.950 . S
C1613 C1609 1.385 . S
C1613 C1612 1.374 . S
C1614 C1611 1.499 . S
C1614 C1615 1.373 . S
C1614 C1616 1.389 . S
C1615 H1594 0.950 . S
C1615 C1614 1.373 . S
C1615 C1631 1.377 . S
C1616 C1614 1.389 . S
C1616 C1617 1.524 . S
C1616 C1630 1.377 . S
C1617 C1616 1.524 . S
C1617 C1618 1.397 . S
C1617 C1622 1.363 . S
C1618 H1595 0.950 . S
C1618 C1617 1.397 . S
C1618 C1619 1.334 . S
C1619 H1596 0.950 . S
C1619 C1618 1.334 . S
C1619 C1620 1.287 . S
C1620 C1619 1.287 . S
C1620 C1621 1.524 . S
C1620 H1639 0.913 . S
C1621 H1597 0.950 . S
C1621 C1620 1.524 . S
C1621 C1622 1.415 . S
C1622 H1598 0.950 . S
C1622 C1617 1.363 . S
C1622 C1621 1.415 . S
C1623 H1599 0.951 . S
C1623 C1624 1.366 . S
C1623 C1625 1.388 . S
C1624 C1623 1.366 . S
C1624 C1628 1.385 . S
C1625 H1600 0.951 . S
C1625 C1623 1.388 . S
C1625 C1626 1.366 . S
C1626 C1625 1.366 . S
C1626 C1627 1.414 . S
C1626 C1629 1.499 . S
C1627 H1601 0.950 . S
C1627 C1626 1.414 . S
C1627 C1628 1.374 . S
C1628 H1602 0.950 . S
C1628 C1624 1.385 . S
C1628 C1627 1.374 . S
C1629 C1626 1.499 . S
C1629 C1630 1.373 . S
C1629 C1631 1.389 . S
C1630 H1603 0.950 . S
C1630 C1616 1.377 . S
C1630 C1629 1.373 . S
C1631 C1615 1.377 . S
C1631 C1629 1.389 . S
C1631 C1632 1.524 . S
C1632 C1631 1.524 . S
C1632 C1633 1.397 . S
C1632 C1637 1.363 . S
C1633 H1604 0.950 . S
C1633 C1632 1.397 . S
C1633 C1634 1.334 . S
C1634 H1605 0.950 . S
C1634 C1633 1.334 . S
C1634 C1635 1.287 . S
C1635 C1634 1.287 . S
C1635 C1636 1.524 . S
C1635 H1638 0.999 . S
C1636 H1606 0.950 . S
C1636 C1635 1.524 . S
C1636 C1637 1.415 . S
C1637 H1607 0.950 . S
C1637 C1632 1.363 . S
C1637 C1636 1.415 . S
H1638 C1635 0.999 . S
H1639 C1620 0.913 . S
H1640 C1658 0.951 . S
H1641 C1660 0.951 . S
H1642 C1662 0.950 . S
H1643 C1663 0.950 . S
H1644 C1665 0.950 . S
H1645 C1668 0.950 . S
H1646 C1669 0.950 . S
H1647 C1671 0.950 . S
H1648 C1672 0.950 . S
H1649 C1673 0.951 . S
H1650 C1675 0.951 . S
H1651 C1677 0.950 . S
H1652 C1678 0.950 . S
H1653 C1680 0.950 . S
H1654 C1683 0.950 . S
H1655 C1684 0.950 . S
H1656 C1686 0.950 . S
H1657 C1687 0.950 . S
C1658 H1640 0.951 . S
C1658 C1659 1.366 . S
C1658 C1660 1.388 . S
C1659 C1658 1.366 . S
C1659 C1663 1.385 . S
C1660 H1641 0.951 . S
C1660 C1658 1.388 . S
C1660 C1661 1.366 . S
C1661 C1660 1.366 . S
C1661 C1662 1.414 . S
C1661 C1664 1.499 . S
C1662 H1642 0.950 . S
C1662 C1661 1.414 . S
C1662 C1663 1.374 . S
C1663 H1643 0.950 . S
C1663 C1659 1.385 . S
C1663 C1662 1.374 . S
C1664 C1661 1.499 . S
C1664 C1665 1.373 . S
C1664 C1666 1.389 . S
C1665 H1644 0.950 . S
C1665 C1664 1.373 . S
C1665 C1681 1.377 . S
C1666 C1664 1.389 . S
C1666 C1667 1.524 . S
C1666 C1680 1.377 . S
C1667 C1666 1.524 . S
C1667 C1668 1.397 . S
C1667 C1672 1.363 . S
C1668 H1645 0.950 . S
C1668 C1667 1.397 . S
C1668 C1669 1.334 . S
C1669 H1646 0.950 . S
C1669 C1668 1.334 . S
C1669 C1670 1.287 . S
C1670 C1669 1.287 . S
C1670 C1671 1.524 . S
C1670 H1689 0.913 . S
C1671 H1647 0.950 . S
C1671 C1670 1.524 . S
C1671 C1672 1.415 . S
C1672 H1648 0.950 . S
C1672 C1667 1.363 . S
C1672 C1671 1.415 . S
C1673 H1649 0.951 . S
C1673 C1674 1.366 . S
C1673 C1675 1.388 . S
C1674 C1673 1.366 . S
C1674 C1678 1.385 . S
C1675 H1650 0.951 . S
C1675 C1673 1.388 . S
C1675 C1676 1.366 . S
C1676 C1675 1.366 . S
C1676 C1677 1.414 . S
C1676 C1679 1.499 . S
C1677 H1651 0.950 . S
C1677 C1676 1.414 . S
C1677 C1678 1.374 . S
C1678 H1652 0.950 . S
C1678 C1674 1.385 . S
C1678 C1677 1.374 . S
C1679 C1676 1.499 . S
C1679 C1680 1.373 . S
C1679 C1681 1.389 . S
C1680 H1653 0.950 . S
C1680 C1666 1.377 . S
C1680 C1679 1.373 . S
C1681 C1665 1.377 . S
C1681 C1679 1.389 . S
C1681 C1682 1.524 . S
C1682 C1681 1.524 . S
C1682 C1683 1.397 . S
C1682 C1687 1.363 . S
C1683 H1654 0.950 . S
C1683 C1682 1.397 . S
C1683 C1684 1.334 . S
C1684 H1655 0.950 . S
C1684 C1683 1.334 . S
C1684 C1685 1.287 . S
C1685 C1684 1.287 . S
C1685 C1686 1.524 . S
C1685 H1688 0.999 . S
C1686 H1656 0.950 . S
C1686 C1685 1.524 . S
C1686 C1687 1.415 . S
C1687 H1657 0.950 . S
C1687 C1682 1.363 . S
C1687 C1686 1.415 . S
H1688 C1685 0.999 . S
H1689 C1670 0.913 . S
H1690 C1708 0.951 . S
H1691 C1710 0.951 . S
H1692 C1712 0.950 . S
H1693 C1713 0.950 . S
H1694 C1715 0.950 . S
H1695 C1718 0.950 . S
H1696 C1719 0.950 . S
H1697 C1721 0.950 . S
H1698 C1722 0.950 . S
H1699 C1723 0.951 . S
H1700 C1725 0.951 . S
H1701 C1727 0.950 . S
H1702 C1728 0.950 . S
H1703 C1730 0.950 . S
H1704 C1733 0.950 . S
H1705 C1734 0.950 . S
H1706 C1736 0.950 . S
H1707 C1737 0.950 . S
C1708 H1690 0.951 . S
C1708 C1709 1.366 . S
C1708 C1710 1.388 . S
C1709 C1708 1.366 . S
C1709 C1713 1.385 . S
C1710 H1691 0.951 . S
C1710 C1708 1.388 . S
C1710 C1711 1.366 . S
C1711 C1710 1.366 . S
C1711 C1712 1.414 . S
C1711 C1714 1.499 . S
C1712 H1692 0.950 . S
C1712 C1711 1.414 . S
C1712 C1713 1.374 . S
C1713 H1693 0.950 . S
C1713 C1709 1.385 . S
C1713 C1712 1.374 . S
C1714 C1711 1.499 . S
C1714 C1715 1.373 . S
C1714 C1716 1.389 . S
C1715 H1694 0.950 . S
C1715 C1714 1.373 . S
C1715 C1731 1.377 . S
C1716 C1714 1.389 . S
C1716 C1717 1.524 . S
C1716 C1730 1.377 . S
C1717 C1716 1.524 . S
C1717 C1718 1.397 . S
C1717 C1722 1.363 . S
C1718 H1695 0.950 . S
C1718 C1717 1.397 . S
C1718 C1719 1.334 . S
C1719 H1696 0.950 . S
C1719 C1718 1.334 . S
C1719 C1720 1.287 . S
C1720 C1719 1.287 . S
C1720 C1721 1.524 . S
C1720 H1739 0.913 . S
C1721 H1697 0.950 . S
C1721 C1720 1.524 . S
C1721 C1722 1.415 . S
C1722 H1698 0.950 . S
C1722 C1717 1.363 . S
C1722 C1721 1.415 . S
C1723 H1699 0.951 . S
C1723 C1724 1.366 . S
C1723 C1725 1.388 . S
C1724 C1723 1.366 . S
C1724 C1728 1.385 . S
C1725 H1700 0.951 . S
C1725 C1723 1.388 . S
C1725 C1726 1.366 . S
C1726 C1725 1.366 . S
C1726 C1727 1.414 . S
C1726 C1729 1.499 . S
C1727 H1701 0.950 . S
C1727 C1726 1.414 . S
C1727 C1728 1.374 . S
C1728 H1702 0.950 . S
C1728 C1724 1.385 . S
C1728 C1727 1.374 . S
C1729 C1726 1.499 . S
C1729 C1730 1.373 . S
C1729 C1731 1.389 . S
C1730 H1703 0.950 . S
C1730 C1716 1.377 . S
C1730 C1729 1.373 . S
C1731 C1715 1.377 . S
C1731 C1729 1.389 . S
C1731 C1732 1.524 . S
C1732 C1731 1.524 . S
C1732 C1733 1.397 . S
C1732 C1737 1.363 . S
C1733 H1704 0.950 . S
C1733 C1732 1.397 . S
C1733 C1734 1.334 . S
C1734 H1705 0.950 . S
C1734 C1733 1.334 . S
C1734 C1735 1.287 . S
C1735 C1734 1.287 . S
C1735 C1736 1.524 . S
C1735 H1738 0.999 . S
C1736 H1706 0.950 . S
C1736 C1735 1.524 . S
C1736 C1737 1.415 . S
C1737 H1707 0.950 . S
C1737 C1732 1.363 . S
C1737 C1736 1.415 . S
H1738 C1735 0.999 . S
H1739 C1720 0.913 . S
H1740 C1758 0.951 . S
H1741 C1760 0.951 . S
H1742 C1762 0.950 . S
H1743 C1763 0.950 . S
H1744 C1765 0.950 . S
H1745 C1768 0.950 . S
H1746 C1769 0.950 . S
H1747 C1771 0.950 . S
H1748 C1772 0.950 . S
H1749 C1773 0.951 . S
H1750 C1775 0.951 . S
H1751 C1777 0.950 . S
H1752 C1778 0.950 . S
H1753 C1780 0.950 . S
H1754 C1783 0.950 . S
H1755 C1784 0.950 . S
H1756 C1786 0.950 . S
H1757 C1787 0.950 . S
C1758 H1740 0.951 . S
C1758 C1759 1.366 . S
C1758 C1760 1.388 . S
C1759 C1758 1.366 . S
C1759 C1763 1.385 . S
C1760 H1741 0.951 . S
C1760 C1758 1.388 . S
C1760 C1761 1.366 . S
C1761 C1760 1.366 . S
C1761 C1762 1.414 . S
C1761 C1764 1.499 . S
C1762 H1742 0.950 . S
C1762 C1761 1.414 . S
C1762 C1763 1.374 . S
C1763 H1743 0.950 . S
C1763 C1759 1.385 . S
C1763 C1762 1.374 . S
C1764 C1761 1.499 . S
C1764 C1765 1.373 . S
C1764 C1766 1.389 . S
C1765 H1744 0.950 . S
C1765 C1764 1.373 . S
C1765 C1781 1.377 . S
C1766 C1764 1.389 . S
C1766 C1767 1.524 . S
C1766 C1780 1.377 . S
C1767 C1766 1.524 . S
C1767 C1768 1.397 . S
C1767 C1772 1.363 . S
C1768 H1745 0.950 . S
C1768 C1767 1.397 . S
C1768 C1769 1.334 . S
C1769 H1746 0.950 . S
C1769 C1768 1.334 . S
C1769 C1770 1.287 . S
C1770 C1769 1.287 . S
C1770 C1771 1.524 . S
C1770 H1789 0.913 . S
C1771 H1747 0.950 . S
C1771 C1770 1.524 . S
C1771 C1772 1.415 . S
C1772 H1748 0.950 . S
C1772 C1767 1.363 . S
C1772 C1771 1.415 . S
C1773 H1749 0.951 . S
C1773 C1774 1.366 . S
C1773 C1775 1.388 . S
C1774 C1773 1.366 . S
C1774 C1778 1.385 . S
C1775 H1750 0.951 . S
C1775 C1773 1.388 . S
C1775 C1776 1.366 . S
C1776 C1775 1.366 . S
C1776 C1777 1.414 . S
C1776 C1779 1.499 . S
C1777 H1751 0.950 . S
C1777 C1776 1.414 . S
C1777 C1778 1.374 . S
C1778 H1752 0.950 . S
C1778 C1774 1.385 . S
C1778 C1777 1.374 . S
C1779 C1776 1.499 . S
C1779 C1780 1.373 . S
C1779 C1781 1.389 . S
C1780 H1753 0.950 . S
C1780 C1766 1.377 . S
C1780 C1779 1.373 . S
C1781 C1765 1.377 . S
C1781 C1779 1.389 . S
C1781 C1782 1.524 . S
C1782 C1781 1.524 . S
C1782 C1783 1.397 . S
C1782 C1787 1.363 . S
C1783 H1754 0.950 . S
C1783 C1782 1.397 . S
C1783 C1784 1.334 . S
C1784 H1755 0.950 . S
C1784 C1783 1.334 . S
C1784 C1785 1.287 . S
C1785 C1784 1.287 . S
C1785 C1786 1.524 . S
C1785 H1788 0.999 . S
C1786 H1756 0.950 . S
C1786 C1785 1.524 . S
C1786 C1787 1.415 . S
C1787 H1757 0.950 . S
C1787 C1782 1.363 . S
C1787 C1786 1.415 . S
H1788 C1785 0.999 . S
H1789 C1770 0.913 . S
H1790 C1808 0.951 . S
H1791 C1810 0.951 . S
H1792 C1812 0.950 . S
H1793 C1813 0.950 . S
H1794 C1815 0.950 . S
H1795 C1818 0.950 . S
H1796 C1819 0.950 . S
H1797 C1821 0.950 . S
H1798 C1822 0.950 . S
H1799 C1823 0.951 . S
H1800 C1825 0.951 . S
H1801 C1827 0.950 . S
H1802 C1828 0.950 . S
H1803 C1830 0.950 . S
H1804 C1833 0.950 . S
H1805 C1834 0.950 . S
H1806 C1836 0.950 . S
H1807 C1837 0.950 . S
C1808 H1790 0.951 . S
C1808 C1809 1.366 . S
C1808 C1810 1.388 . S
C1809 C1808 1.366 . S
C1809 C1813 1.385 . S
C1810 H1791 0.951 . S
C1810 C1808 1.388 . S
C1810 C1811 1.366 . S
C1811 C1810 1.366 . S
C1811 C1812 1.414 . S
C1811 C1814 1.499 . S
C1812 H1792 0.950 . S
C1812 C1811 1.414 . S
C1812 C1813 1.374 . S
C1813 H1793 0.950 . S
C1813 C1809 1.385 . S
C1813 C1812 1.374 . S
C1814 C1811 1.499 . S
C1814 C1815 1.373 . S
C1814 C1816 1.389 . S
C1815 H1794 0.950 . S
C1815 C1814 1.373 . S
C1815 C1831 1.377 . S
C1816 C1814 1.389 . S
C1816 C1817 1.524 . S
C1816 C1830 1.377 . S
C1817 C1816 1.524 . S
C1817 C1818 1.397 . S
C1817 C1822 1.363 . S
C1818 H1795 0.950 . S
C1818 C1817 1.397 . S
C1818 C1819 1.334 . S
C1819 H1796 0.950 . S
C1819 C1818 1.334 . S
C1819 C1820 1.287 . S
C1820 C1819 1.287 . S
C1820 C1821 1.524 . S
C1820 H1839 0.913 . S
C1821 H1797 0.950 . S
C1821 C1820 1.524 . S
C1821 C1822 1.415 . S
C1822 H1798 0.950 . S
C1822 C1817 1.363 . S
C1822 C1821 1.415 . S
C1823 H1799 0.951 . S
C1823 C1824 1.366 . S
C1823 C1825 1.388 . S
C1824 C1823 1.366 . S
C1824 C1828 1.385 . S
C1825 H1800 0.951 . S
C1825 C1823 1.388 . S
C1825 C1826 1.366 . S
C1826 C1825 1.366 . S
C1826 C1827 1.414 . S
C1826 C1829 1.499 . S
C1827 H1801 0.950 . S
C1827 C1826 1.414 . S
C1827 C1828 1.374 . S
C1828 H1802 0.950 . S
C1828 C1824 1.385 . S
C1828 C1827 1.374 . S
C1829 C1826 1.499 . S
C1829 C1830 1.373 . S
C1829 C1831 1.389 . S
C1830 H1803 0.950 . S
C1830 C1816 1.377 . S
C1830 C1829 1.373 . S
C1831 C1815 1.377 . S
C1831 C1829 1.389 . S
C1831 C1832 1.524 . S
C1832 C1831 1.524 . S
C1832 C1833 1.397 . S
C1832 C1837 1.363 . S
C1833 H1804 0.950 . S
C1833 C1832 1.397 . S
C1833 C1834 1.334 . S
C1834 H1805 0.950 . S
C1834 C1833 1.334 . S
C1834 C1835 1.287 . S
C1835 C1834 1.287 . S
C1835 C1836 1.524 . S
C1835 H1838 0.999 . S
C1836 H1806 0.950 . S
C1836 C1835 1.524 . S
C1836 C1837 1.415 . S
C1837 H1807 0.950 . S
C1837 C1832 1.363 . S
C1837 C1836 1.415 . S
H1838 C1835 0.999 . S
H1839 C1820 0.913 . S
H1840 C1858 0.951 . S
H1841 C1860 0.951 . S
H1842 C1862 0.950 . S
H1843 C1863 0.950 . S
H1844 C1865 0.950 . S
H1845 C1868 0.950 . S
H1846 C1869 0.950 . S
H1847 C1871 0.950 . S
H1848 C1872 0.950 . S
H1849 C1873 0.951 . S
H1850 C1875 0.951 . S
H1851 C1877 0.950 . S
H1852 C1878 0.950 . S
H1853 C1880 0.950 . S
H1854 C1883 0.950 . S
H1855 C1884 0.950 . S
H1856 C1886 0.950 . S
H1857 C1887 0.950 . S
C1858 H1840 0.951 . S
C1858 C1859 1.366 . S
C1858 C1860 1.388 . S
C1859 C1858 1.366 . S
C1859 C1863 1.385 . S
C1860 H1841 0.951 . S
C1860 C1858 1.388 . S
C1860 C1861 1.366 . S
C1861 C1860 1.366 . S
C1861 C1862 1.414 . S
C1861 C1864 1.499 . S
C1862 H1842 0.950 . S
C1862 C1861 1.414 . S
C1862 C1863 1.374 . S
C1863 H1843 0.950 . S
C1863 C1859 1.385 . S
C1863 C1862 1.374 . S
C1864 C1861 1.499 . S
C1864 C1865 1.373 . S
C1864 C1866 1.389 . S
C1865 H1844 0.950 . S
C1865 C1864 1.373 . S
C1865 C1881 1.377 . S
C1866 C1864 1.389 . S
C1866 C1867 1.524 . S
C1866 C1880 1.377 . S
C1867 C1866 1.524 . S
C1867 C1868 1.397 . S
C1867 C1872 1.363 . S
C1868 H1845 0.950 . S
C1868 C1867 1.397 . S
C1868 C1869 1.334 . S
C1869 H1846 0.950 . S
C1869 C1868 1.334 . S
C1869 C1870 1.287 . S
C1870 C1869 1.287 . S
C1870 C1871 1.524 . S
C1870 H1889 0.913 . S
C1871 H1847 0.950 . S
C1871 C1870 1.524 . S
C1871 C1872 1.415 . S
C1872 H1848 0.950 . S
C1872 C1867 1.363 . S
C1872 C1871 1.415 . S
C1873 H1849 0.951 . S
C1873 C1874 1.366 . S
C1873 C1875 1.388 . S
C1874 C1873 1.366 . S
C1874 C1878 1.385 . S
C1875 H1850 0.951 . S
C1875 C1873 1.388 . S
C1875 C1876 1.366 . S
C1876 C1875 1.366 . S
C1876 C1877 1.414 . S
C1876 C1879 1.499 . S
C1877 H1851 0.950 . S
C1877 C1876 1.414 . S
C1877 C1878 1.374 . S
C1878 H1852 0.950 . S
C1878 C1874 1.385 . S
C1878 C1877 1.374 . S
C1879 C1876 1.499 . S
C1879 C1880 1.373 . S
C1879 C1881 1.389 . S
C1880 H1853 0.950 . S
C1880 C1866 1.377 . S
C1880 C1879 1.373 . S
C1881 C1865 1.377 . S
C1881 C1879 1.389 . S
C1881 C1882 1.524 . S
C1882 C1881 1.524 . S
C1882 C1883 1.397 . S
C1882 C1887 1.363 . S
C1883 H1854 0.950 . S
C1883 C1882 1.397 . S
C1883 C1884 1.334 . S
C1884 H1855 0.950 . S
C1884 C1883 1.334 . S
C1884 C1885 1.287 . S
C1885 C1884 1.287 . S
C1885 C1886 1.524 . S
C1885 H1888 0.999 . S
C1886 H1856 0.950 . S
C1886 C1885 1.524 . S
C1886 C1887 1.415 . S
C1887 H1857 0.950 . S
C1887 C1882 1.363 . S
C1887 C1886 1.415 . S
H1888 C1885 0.999 . S
H1889 C1870 0.913 . S
H1890 C1908 0.951 . S
H1891 C1910 0.951 . S
H1892 C1912 0.950 . S
H1893 C1913 0.950 . S
H1894 C1915 0.950 . S
H1895 C1918 0.950 . S
H1896 C1919 0.950 . S
H1897 C1921 0.950 . S
H1898 C1922 0.950 . S
H1899 C1923 0.951 . S
H1900 C1925 0.951 . S
H1901 C1927 0.950 . S
H1902 C1928 0.950 . S
H1903 C1930 0.950 . S
H1904 C1933 0.950 . S
H1905 C1934 0.950 . S
H1906 C1936 0.950 . S
H1907 C1937 0.950 . S
C1908 H1890 0.951 . S
C1908 C1909 1.366 . S
C1908 C1910 1.388 . S
C1909 C1908 1.366 . S
C1909 C1913 1.385 . S
C1910 H1891 0.951 . S
C1910 C1908 1.388 . S
C1910 C1911 1.366 . S
C1911 C1910 1.366 . S
C1911 C1912 1.414 . S
C1911 C1914 1.499 . S
C1912 H1892 0.950 . S
C1912 C1911 1.414 . S
C1912 C1913 1.374 . S
C1913 H1893 0.950 . S
C1913 C1909 1.385 . S
C1913 C1912 1.374 . S
C1914 C1911 1.499 . S
C1914 C1915 1.373 . S
C1914 C1916 1.389 . S
C1915 H1894 0.950 . S
C1915 C1914 1.373 . S
C1915 C1931 1.377 . S
C1916 C1914 1.389 . S
C1916 C1917 1.524 . S
C1916 C1930 1.377 . S
C1917 C1916 1.524 . S
C1917 C1918 1.397 . S
C1917 C1922 1.363 . S
C1918 H1895 0.950 . S
C1918 C1917 1.397 . S
C1918 C1919 1.334 . S
C1919 H1896 0.950 . S
C1919 C1918 1.334 . S
C1919 C1920 1.287 . S
C1920 C1919 1.287 . S
C1920 C1921 1.524 . S
C1920 H1939 0.913 . S
C1921 H1897 0.950 . S
C1921 C1920 1.524 . S
C1921 C1922 1.415 . S
C1922 H1898 0.950 . S
C1922 C1917 1.363 . S
C1922 C1921 1.415 . S
C1923 H1899 0.951 . S
C1923 C1924 1.366 . S
C1923 C1925 1.388 . S
C1924 C1923 1.366 . S
C1924 C1928 1.385 . S
C1925 H1900 0.951 . S
C1925 C1923 1.388 . S
C1925 C1926 1.366 . S
C1926 C1925 1.366 . S
C1926 C1927 1.414 . S
C1926 C1929 1.499 . S
C1927 H1901 0.950 . S
C1927 C1926 1.414 . S
C1927 C1928 1.374 . S
C1928 H1902 0.950 . S
C1928 C1924 1.385 . S
C1928 C1927 1.374 . S
C1929 C1926 1.499 . S
C1929 C1930 1.373 . S
C1929 C1931 1.389 . S
C1930 H1903 0.950 . S
C1930 C1916 1.377 . S
C1930 C1929 1.373 . S
C1931 C1915 1.377 . S
C1931 C1929 1.389 . S
C1931 C1932 1.524 . S
C1932 C1931 1.524 . S
C1932 C1933 1.397 . S
C1932 C1937 1.363 . S
C1933 H1904 0.950 . S
C1933 C1932 1.397 . S
C1933 C1934 1.334 . S
C1934 H1905 0.950 . S
C1934 C1933 1.334 . S
C1934 C1935 1.287 . S
C1935 C1934 1.287 . S
C1935 C1936 1.524 . S
C1935 H1938 0.999 . S
C1936 H1906 0.950 . S
C1936 C1935 1.524 . S
C1936 C1937 1.415 . S
C1937 H1907 0.950 . S
C1937 C1932 1.363 . S
C1937 C1936 1.415 . S
H1938 C1935 0.999 . S
H1939 C1920 0.913 . S
H1940 C1958 0.951 . S
H1941 C1960 0.951 . S
H1942 C1962 0.950 . S
H1943 C1963 0.950 . S
H1944 C1965 0.950 . S
H1945 C1968 0.950 . S
H1946 C1969 0.950 . S
H1947 C1971 0.950 . S
H1948 C1972 0.950 . S
H1949 C1973 0.951 . S
H1950 C1975 0.951 . S
H1951 C1977 0.950 . S
H1952 C1978 0.950 . S
H1953 C1980 0.950 . S
H1954 C1983 0.950 . S
H1955 C1984 0.950 . S
H1956 C1986 0.950 . S
H1957 C1987 0.950 . S
C1958 H1940 0.951 . S
C1958 C1959 1.366 . S
C1958 C1960 1.388 . S
C1959 C1958 1.366 . S
C1959 C1963 1.385 . S
C1960 H1941 0.951 . S
C1960 C1958 1.388 . S
C1960 C1961 1.366 . S
C1961 C1960 1.366 . S
C1961 C1962 1.414 . S
C1961 C1964 1.499 . S
C1962 H1942 0.950 . S
C1962 C1961 1.414 . S
C1962 C1963 1.374 . S
C1963 H1943 0.950 . S
C1963 C1959 1.385 . S
C1963 C1962 1.374 . S
C1964 C1961 1.499 . S
C1964 C1965 1.373 . S
C1964 C1966 1.389 . S
C1965 H1944 0.950 . S
C1965 C1964 1.373 . S
C1965 C1981 1.377 . S
C1966 C1964 1.389 . S
C1966 C1967 1.524 . S
C1966 C1980 1.377 . S
C1967 C1966 1.524 . S
C1967 C1968 1.397 . S
C1967 C1972 1.363 . S
C1968 H1945 0.950 . S
C1968 C1967 1.397 . S
C1968 C1969 1.334 . S
C1969 H1946 0.950 . S
C1969 C1968 1.334 . S
C1969 C1970 1.287 . S
C1970 C1969 1.287 . S
C1970 C1971 1.524 . S
C1970 H1989 0.913 . S
C1971 H1947 0.950 . S
C1971 C1970 1.524 . S
C1971 C1972 1.415 . S
C1972 H1948 0.950 . S
C1972 C1967 1.363 . S
C1972 C1971 1.415 . S
C1973 H1949 0.951 . S
C1973 C1974 1.366 . S
C1973 C1975 1.388 . S
C1974 C1973 1.366 . S
C1974 C1978 1.385 . S
C1975 H1950 0.951 . S
C1975 C1973 1.388 . S
C1975 C1976 1.366 . S
C1976 C1975 1.366 . S
C1976 C1977 1.414 . S
C1976 C1979 1.499 . S
C1977 H1951 0.950 . S
C1977 C1976 1.414 . S
C1977 C1978 1.374 . S
C1978 H1952 0.950 . S
C1978 C1974 1.385 . S
C1978 C1977 1.374 . S
C1979 C1976 1.499 . S
C1979 C1980 1.373 . S
C1979 C1981 1.389 . S
C1980 H1953 0.950 . S
C1980 C1966 1.377 . S
C1980 C1979 1.373 . S
C1981 C1965 1.377 . S
C1981 C1979 1.389 . S
C1981 C1982 1.524 . S
C1982 C1981 1.524 . S
C1982 C1983 1.397 . S
C1982 C1987 1.363 . S
C1983 H1954 0.950 . S
C1983 C1982 1.397 . S
C1983 C1984 1.334 . S
C1984 H1955 0.950 . S
C1984 C1983 1.334 . S
C1984 C1985 1.287 . S
C1985 C1984 1.287 . S
C1985 C1986 1.524 . S
C1985 H1988 0.999 . S
C1986 H1956 0.950 . S
C1986 C1985 1.524 . S
C1986 C1987 1.415 . S
C1987 H1957 0.950 . S
C1987 C1982 1.363 . S
C1987 C1986 1.415 . S
H1988 C1985 0.999 . S
H1989 C1970 0.913 . S
H1990 C2008 0.951 . S
H1991 C2010 0.951 . S
H1992 C2012 0.950 . S
H1993 C2013 0.950 . S
H1994 C2015 0.950 . S
H1995 C2018 0.950 . S
H1996 C2019 0.950 . S
H1997 C2021 0.950 . S
H1998 C2022 0.950 . S
H1999 C2023 0.951 . S
H2000 C2025 0.951 . S
H2001 C2027 0.950 . S
H2002 C2028 0.950 . S
H2003 C2030 0.950 . S
H2004 C2033 0.950 . S
H2005 C2034 0.950 . S
H2006 C2036 0.950 . S
H2007 C2037 0.950 . S
C2008 H1990 0.951 . S
C2008 C2009 1.366 . S
C2008 C2010 1.388 . S
C2009 C2008 1.366 . S
C2009 C2013 1.385 . S
C2010 H1991 0.951 . S
C2010 C2008 1.388 . S
C2010 C2011 1.366 . S
C2011 C2010 1.366 . S
C2011 C2012 1.414 . S
C2011 C2014 1.499 . S
C2012 H1992 0.950 . S
C2012 C2011 1.414 . S
C2012 C2013 1.374 . S
C2013 H1993 0.950 . S
C2013 C2009 1.385 . S
C2013 C2012 1.374 . S
C2014 C2011 1.499 . S
C2014 C2015 1.373 . S
C2014 C2016 1.389 . S
C2015 H1994 0.950 . S
C2015 C2014 1.373 . S
C2015 C2031 1.377 . S
C2016 C2014 1.389 . S
C2016 C2017 1.524 . S
C2016 C2030 1.377 . S
C2017 C2016 1.524 . S
C2017 C2018 1.397 . S
C2017 C2022 1.363 . S
C2018 H1995 0.950 . S
C2018 C2017 1.397 . S
C2018 C2019 1.334 . S
C2019 H1996 0.950 . S
C2019 C2018 1.334 . S
C2019 C2020 1.287 . S
C2020 C2019 1.287 . S
C2020 C2021 1.524 . S
C2020 H2039 0.913 . S
C2021 H1997 0.950 . S
C2021 C2020 1.524 . S
C2021 C2022 1.415 . S
C2022 H1998 0.950 . S
C2022 C2017 1.363 . S
C2022 C2021 1.415 . S
C2023 H1999 0.951 . S
C2023 C2024 1.366 . S
C2023 C2025 1.388 . S
C2024 C2023 1.366 . S
C2024 C2028 1.385 . S
C2025 H2000 0.951 . S
C2025 C2023 1.388 . S
C2025 C2026 1.366 . S
C2026 C2025 1.366 . S
C2026 C2027 1.414 . S
C2026 C2029 1.499 . S
C2027 H2001 0.950 . S
C2027 C2026 1.414 . S
C2027 C2028 1.374 . S
C2028 H2002 0.950 . S
C2028 C2024 1.385 . S
C2028 C2027 1.374 . S
C2029 C2026 1.499 . S
C2029 C2030 1.373 . S
C2029 C2031 1.389 . S
C2030 H2003 0.950 . S
C2030 C2016 1.377 . S
C2030 C2029 1.373 . S
C2031 C2015 1.377 . S
C2031 C2029 1.389 . S
C2031 C2032 1.524 . S
C2032 C2031 1.524 . S
C2032 C2033 1.397 . S
C2032 C2037 1.363 . S
C2033 H2004 0.950 . S
C2033 C2032 1.397 . S
C2033 C2034 1.334 . S
C2034 H2005 0.950 . S
C2034 C2033 1.334 . S
C2034 C2035 1.287 . S
C2035 C2034 1.287 . S
C2035 C2036 1.524 . S
C2035 H2038 0.999 . S
C2036 H2006 0.950 . S
C2036 C2035 1.524 . S
C2036 C2037 1.415 . S
C2037 H2007 0.950 . S
C2037 C2032 1.363 . S
C2037 C2036 1.415 . S
H2038 C2035 0.999 . S
H2039 C2020 0.913 . S
C259 C59 1.333 . S
C274 C6 1.331 . S
C309 C68 1.334 . S
C324 C36 1.331 . S
C359 C46 1.331 . S
C374 C99 1.333 . S
C409 C76 1.331 . S
C424 C108 1.334 . S
C459 C19 1.333 . S
C474 C86 1.332 . S
C509 C28 1.334 . S
C524 C116 1.331 . S
C559 C208 1.334 . S
C574 C136 1.331 . S
C609 C146 1.332 . S
C624 C239 1.333 . S
C659 C176 1.332 . S
C674 C128 1.333 . S
C709 C186 1.331 . S
C724 C159 1.334 . S
C759 C216 1.332 . S
C774 C168 1.333 . S
C809 C199 1.333 . S
C824 C226 1.331 . S
C859 C61 1.799 . S
C874 C9 1.799 . S
C909 C21 1.799 . S
C924 C89 1.798 . S
C959 C49 1.798 . S
C974 C101 1.799 . S
C1009 C121 1.799 . S
C1024 C189 1.798 . S
C1059 C149 1.798 . S
C1074 C201 1.799 . S
C1109 C161 1.798 . S
C1124 C229 1.799 . S
C1159 C141 1.965 . S
C1174 C1 1.965 . S
C1209 C29 1.965 . S
C1224 C169 1.965 . S
C1259 C181 1.965 . S
C1274 C41 1.965 . S
C1309 C69 1.965 . S
C1324 C209 1.965 . S
C1359 C81 1.965 . S
C1374 C221 1.965 . S
C1409 C129 1.965 . S
C1424 C109 1.965 . S
C1459 C48 1.516 . S
C1474 C16 1.581 . S
C1509 C26 1.581 . S
C1524 C79 1.517 . S
C1559 C56 1.581 . S
C1574 C88 1.516 . S
C1609 C66 1.581 . S
C1624 C119 1.517 . S
C1659 C8 1.516 . S
C1674 C96 1.581 . S
C1709 C39 1.516 . S
C1724 C106 1.581 . S
C1759 C219 1.516 . S
C1774 C126 1.581 . S
C1809 C156 1.581 . S
C1824 C228 1.516 . S
C1859 C166 1.581 . S
C1874 C139 1.517 . S
C1909 C148 1.517 . S
C1924 C196 1.581 . S
C1959 C206 1.581 . S
C1974 C179 1.516 . S
C2009 C236 1.581 . S
C2024 C188 1.516 . S
