# Generated by pormake.
# Topology zfo, (5)-cn, num edge types: 1
# Building blocks:
#     Node 0, Type 0, BuildingBlock: XOMCOT_clean_sbu_1, # of connection points: 5
#     Node 1, Type 0, BuildingBlock: XOMCOT_clean_sbu_1, # of connection points: 5
#     Node 2, Type 0, BuildingBlock: XOMCOT_clean_sbu_1, # of connection points: 5
#     Node 3, Type 0, BuildingBlock: XOMCOT_clean_sbu_1, # of connection points: 5
#     Node 4, Type 0, BuildingBlock: XOMCOT_clean_sbu_1, # of connection points: 5
#     Node 5, Type 0, BuildingBlock: XOMCOT_clean_sbu_1, # of connection points: 5
#     Node 6, Type 0, BuildingBlock: XOMCOT_clean_sbu_1, # of connection points: 5
#     Node 7, Type 0, BuildingBlock: XOMCOT_clean_sbu_1, # of connection points: 5
#     Node 8, Type 0, BuildingBlock: XOMCOT_clean_sbu_1, # of connection points: 5
#     Node 9, Type 0, BuildingBlock: XOMCOT_clean_sbu_1, # of connection points: 5
#     Node 10, Type 0, BuildingBlock: XOMCOT_clean_sbu_1, # of connection points: 5
#     Node 11, Type 0, BuildingBlock: XOMCOT_clean_sbu_1, # of connection points: 5
#     Node 12, Type 0, BuildingBlock: XOMCOT_clean_sbu_1, # of connection points: 5
#     Node 13, Type 0, BuildingBlock: XOMCOT_clean_sbu_1, # of connection points: 5
#     Node 14, Type 0, BuildingBlock: XOMCOT_clean_sbu_1, # of connection points: 5
#     Node 15, Type 0, BuildingBlock: XOMCOT_clean_sbu_1, # of connection points: 5
#     Edge 16, Type (0, 0), BuildingBlock: CIFDUS_clean_linker_0, # of connection points: 2
#     Edge 17, Type (0, 0), BuildingBlock: CIFDUS_clean_linker_0, # of connection points: 2
#     Edge 18, Type (0, 0), BuildingBlock: CIFDUS_clean_linker_0, # of connection points: 2
#     Edge 19, Type (0, 0), BuildingBlock: CIFDUS_clean_linker_0, # of connection points: 2
#     Edge 20, Type (0, 0), BuildingBlock: CIFDUS_clean_linker_0, # of connection points: 2
#     Edge 21, Type (0, 0), BuildingBlock: CIFDUS_clean_linker_0, # of connection points: 2
#     Edge 22, Type (0, 0), BuildingBlock: CIFDUS_clean_linker_0, # of connection points: 2
#     Edge 23, Type (0, 0), BuildingBlock: CIFDUS_clean_linker_0, # of connection points: 2
#     Edge 24, Type (0, 0), BuildingBlock: CIFDUS_clean_linker_0, # of connection points: 2
#     Edge 25, Type (0, 0), BuildingBlock: CIFDUS_clean_linker_0, # of connection points: 2
#     Edge 26, Type (0, 0), BuildingBlock: CIFDUS_clean_linker_0, # of connection points: 2
#     Edge 27, Type (0, 0), BuildingBlock: CIFDUS_clean_linker_0, # of connection points: 2
#     Edge 28, Type (0, 0), BuildingBlock: CIFDUS_clean_linker_0, # of connection points: 2
#     Edge 29, Type (0, 0), BuildingBlock: CIFDUS_clean_linker_0, # of connection points: 2
#     Edge 30, Type (0, 0), BuildingBlock: CIFDUS_clean_linker_0, # of connection points: 2
#     Edge 31, Type (0, 0), BuildingBlock: CIFDUS_clean_linker_0, # of connection points: 2
#     Edge 32, Type (0, 0), BuildingBlock: CIFDUS_clean_linker_0, # of connection points: 2
#     Edge 33, Type (0, 0), BuildingBlock: CIFDUS_clean_linker_0, # of connection points: 2
#     Edge 34, Type (0, 0), BuildingBlock: CIFDUS_clean_linker_0, # of connection points: 2
#     Edge 35, Type (0, 0), BuildingBlock: CIFDUS_clean_linker_0, # of connection points: 2
#     Edge 36, Type (0, 0), BuildingBlock: CIFDUS_clean_linker_0, # of connection points: 2
#     Edge 37, Type (0, 0), BuildingBlock: CIFDUS_clean_linker_0, # of connection points: 2
#     Edge 38, Type (0, 0), BuildingBlock: CIFDUS_clean_linker_0, # of connection points: 2
#     Edge 39, Type (0, 0), BuildingBlock: CIFDUS_clean_linker_0, # of connection points: 2
#     Edge 40, Type (0, 0), BuildingBlock: CIFDUS_clean_linker_0, # of connection points: 2
#     Edge 41, Type (0, 0), BuildingBlock: CIFDUS_clean_linker_0, # of connection points: 2
#     Edge 42, Type (0, 0), BuildingBlock: CIFDUS_clean_linker_0, # of connection points: 2
#     Edge 43, Type (0, 0), BuildingBlock: CIFDUS_clean_linker_0, # of connection points: 2
#     Edge 44, Type (0, 0), BuildingBlock: CIFDUS_clean_linker_0, # of connection points: 2
#     Edge 45, Type (0, 0), BuildingBlock: CIFDUS_clean_linker_0, # of connection points: 2
#     Edge 46, Type (0, 0), BuildingBlock: CIFDUS_clean_linker_0, # of connection points: 2
#     Edge 47, Type (0, 0), BuildingBlock: CIFDUS_clean_linker_0, # of connection points: 2
#     Edge 48, Type (0, 0), BuildingBlock: CIFDUS_clean_linker_0, # of connection points: 2
#     Edge 49, Type (0, 0), BuildingBlock: CIFDUS_clean_linker_0, # of connection points: 2
#     Edge 50, Type (0, 0), BuildingBlock: CIFDUS_clean_linker_0, # of connection points: 2
#     Edge 51, Type (0, 0), BuildingBlock: CIFDUS_clean_linker_0, # of connection points: 2
#     Edge 52, Type (0, 0), BuildingBlock: CIFDUS_clean_linker_0, # of connection points: 2
#     Edge 53, Type (0, 0), BuildingBlock: CIFDUS_clean_linker_0, # of connection points: 2
#     Edge 54, Type (0, 0), BuildingBlock: CIFDUS_clean_linker_0, # of connection points: 2
#     Edge 55, Type (0, 0), BuildingBlock: CIFDUS_clean_linker_0, # of connection points: 2
# Relax obj value: 0.177
# Max RMSD: 0.150
# Mean RMSD: 0.150
data_MOF--net-zfo--node1-XOMCOT_clean_sbu_1--edge1-CIFDUS_clean_linker_0
_symmetry_space_group_name_H-M    P1
_symmetry_Int_Tables_number       1
_symmetry_cell_setting            triclinic
loop_
_symmetry_equiv_pos_as_xyz
'x, y, z'
_cell_length_a     31.629324
_cell_length_b     31.609027
_cell_length_c     44.986591
_cell_angle_alpha  90.173941
_cell_angle_beta   90.129178
_cell_angle_gamma 89.79792
loop_
_atom_site_label
_atom_site_type_symbol
_atom_site_fract_x
_atom_site_fract_y
_atom_site_fract_z
_atom_type_partial_charge
C0 C 0.99876 0.21104 0.15735 0.0
C1 C 0.95548 0.21157 0.15752 0.0
N2 N 0.9421 0.24462 0.14114 0.0
N3 N 0.01306 0.24348 0.14085 0.0
C4 C 0.97775 0.26373 0.13138 0.0
H5 H 0.01867 0.18861 0.16893 0.0
Co6 Co 0.07069 0.25308 0.13541 0.0
C7 C 0.08239 0.28503 0.07431 0.0
O8 O 0.11768 0.26305 0.07369 0.0
N9 N 0.12945 0.2631 0.13137 0.0
C10 C 0.18936 0.29958 0.12739 0.0
C11 C 0.14608 0.30221 0.12831 0.0
C12 C 0.16372 0.2373 0.13263 0.0
N13 N 0.20049 0.25866 0.13009 0.0
O14 O 0.0674 0.30377 0.15923 0.0
H15 H 0.12778 0.33108 0.12673 0.0
H16 H 0.16228 0.20352 0.13528 0.0
O17 O 0.05905 0.28429 0.09766 0.0
C18 C 0.06788 0.29511 0.18697 0.0
O19 O 0.06445 0.25535 0.19498 0.0
N20 N 0.07381 0.20087 0.11523 0.0
C21 C 0.06312 0.11612 0.09895 0.0
C22 C 0.04815 0.14875 0.0806 0.0
C23 C 0.05319 0.19096 0.08938 0.0
C24 C 0.08856 0.16946 0.13316 0.0
C25 C 0.08432 0.12709 0.12525 0.0
H26 H 0.03744 0.215 0.0765 0.0
H27 H 0.10099 0.17731 0.1549 0.0
H28 H 0.97817 0.29172 0.11759 0.0
H29 H 0.93543 0.18989 0.16954 0.0
H30 H 0.21091 0.32597 0.12569 0.0
H31 H 0.03073 0.14173 0.06044 0.0
H32 H 0.09473 0.10315 0.14084 0.0
C33 C 0.81059 0.98622 0.69233 0.0
C34 C 0.80335 0.94423 0.69757 0.0
N35 N 0.76298 0.93552 0.69025 0.0
N36 N 0.77537 0.00432 0.68109 0.0
C37 C 0.74636 0.97293 0.68113 0.0
H38 H 0.84033 1.00239 0.69556 0.0
Co39 Co 0.77567 0.06131 0.66936 0.0
C40 C 0.71792 0.02812 0.61709 0.0
O41 O 0.71807 0.98699 0.62091 0.0
N42 N 0.77731 0.11838 0.65844 0.0
C43 C 0.78167 0.17695 0.63152 0.0
C44 C 0.78052 0.13356 0.63057 0.0
C45 C 0.77718 0.15314 0.67601 0.0
N46 N 0.77968 0.1895 0.66018 0.0
O47 O 0.72845 0.07315 0.69507 0.0
H48 H 0.78232 0.11425 0.61072 0.0
H49 H 0.77583 0.15157 0.69999 0.0
O50 O 0.73849 0.0521 0.63491 0.0
C51 C 0.73815 0.07361 0.72265 0.0
O52 O 0.77703 0.06367 0.73034 0.0
N53 N 0.82358 0.05055 0.64593 0.0
C54 C 0.90087 0.0296 0.6201 0.0
C55 C 0.86368 0.00924 0.61109 0.0
C56 C 0.82532 0.02002 0.62441 0.0
C57 C 0.85922 0.07151 0.65437 0.0
C58 C 0.89818 0.06177 0.64157 0.0
H59 H 0.79777 1.00192 0.61866 0.0
H60 H 0.8577 0.09463 0.67211 0.0
H61 H 0.71377 0.97734 0.67457 0.0
H62 H 0.82691 0.92147 0.70465 0.0
H63 H 0.78327 0.19743 0.61235 0.0
H64 H 0.86443 0.9841 0.59468 0.0
H65 H 0.92624 0.07766 0.64966 0.0
C66 C 0.02963 0.7107 0.20049 0.0
C67 C 0.07229 0.70406 0.19748 0.0
N68 N 0.0854 0.72373 0.1727 0.0
N69 N 0.01522 0.73453 0.17769 0.0
C70 C 0.05006 0.74106 0.16077 0.0
H71 H 0.01111 0.6997 0.21898 0.0
Co72 Co 0.96021 0.75842 0.17373 0.0
C73 C 0.93511 0.69091 0.13039 0.0
O74 O 0.91867 0.66672 0.151 0.0
N75 N 0.90576 0.78192 0.17022 0.0
C76 C 0.85117 0.82636 0.17294 0.0
C77 C 0.8946 0.82286 0.17374 0.0
C78 C 0.86861 0.76119 0.16751 0.0
N79 N 0.83478 0.7874 0.16923 0.0
O80 O 0.93733 0.71482 0.19845 0.0
H81 H 0.91651 0.8484 0.1779 0.0
H82 H 0.86639 0.72724 0.16543 0.0
O83 O 0.9519 0.72621 0.13737 0.0
C84 C 0.93404 0.72812 0.22515 0.0
O85 O 0.94675 0.76676 0.23123 0.0
N86 N 0.98232 0.80362 0.15216 0.0
C87 C 0.01775 0.87551 0.12698 0.0
C88 C 0.99119 0.84925 0.1101 0.0
C89 C 0.97375 0.81312 0.12315 0.0
C90 C 0.00693 0.82957 0.16904 0.0
C91 C 0.0255 0.86528 0.15678 0.0
H92 H 0.95279 0.79344 0.11014 0.0
H93 H 0.01226 0.82219 0.19222 0.0
H94 H 0.05004 0.76024 0.14091 0.0
H95 H 0.0922 0.68684 0.21288 0.0
H96 H 0.83312 0.85507 0.17648 0.0
H97 H 0.98398 0.85664 0.08714 0.0
H98 H 0.04489 0.88539 0.17076 0.0
C99 C 0.21108 0.97672 0.67117 0.0
C100 C 0.20303 0.01925 0.67281 0.0
N101 N 0.2281 0.03974 0.65334 0.0
N102 N 0.24161 0.96916 0.65107 0.0
C103 C 0.25149 0.00827 0.64047 0.0
H104 H 0.19498 0.95246 0.68365 0.0
Co105 Co 0.25784 0.9123 0.64266 0.0
C106 C 0.29269 0.91191 0.58172 0.0
O107 O 0.27565 0.87442 0.57798 0.0
N108 N 0.27412 0.85408 0.63548 0.0
C109 C 0.31819 0.79985 0.62741 0.0
C110 C 0.31504 0.84276 0.63177 0.0
C111 C 0.25307 0.81643 0.63391 0.0
N112 N 0.27924 0.78299 0.62867 0.0
O113 O 0.30768 0.91872 0.66706 0.0
H114 H 0.34129 0.86459 0.63176 0.0
H115 H 0.21928 0.81321 0.63616 0.0
O116 O 0.28866 0.93099 0.60678 0.0
C117 C 0.3011 0.91668 0.69501 0.0
O118 O 0.26203 0.91341 0.70447 0.0
N119 N 0.20719 0.90636 0.62133 0.0
C120 C 0.12256 0.91572 0.60493 0.0
C121 C 0.15465 0.93458 0.58819 0.0
C122 C 0.19669 0.9303 0.59711 0.0
C123 C 0.17649 0.8863 0.63705 0.0
C124 C 0.13403 0.89 0.62901 0.0
H125 H 0.21972 0.9498 0.58617 0.0
H126 H 0.1846 0.87056 0.65762 0.0
H127 H 0.27471 0.01337 0.62329 0.0
H128 H 0.18003 0.03351 0.68748 0.0
H129 H 0.34722 0.7823 0.62396 0.0
H130 H 0.14711 0.95517 0.5697 0.0
H131 H 0.11028 0.87601 0.64318 0.0
C132 C 0.50951 0.28724 0.83275 0.0
C133 C 0.46646 0.2826 0.83018 0.0
N134 N 0.45253 0.25902 0.85307 0.0
N135 N 0.52347 0.26637 0.85695 0.0
C136 C 0.48796 0.24938 0.86889 0.0
H137 H 0.5292 0.30623 0.81845 0.0
Co138 Co 0.57983 0.27065 0.87101 0.0
C139 C 0.58041 0.21402 0.92295 0.0
O140 O 0.61045 0.1913 0.91052 0.0
N141 N 0.63621 0.27592 0.88525 0.0
C142 C 0.68942 0.29159 0.91578 0.0
C143 C 0.6463 0.28954 0.91284 0.0
C144 C 0.67417 0.26998 0.87176 0.0
N145 N 0.7072 0.27944 0.88994 0.0
O146 O 0.59369 0.21712 0.85275 0.0
H147 H 0.62357 0.29793 0.92981 0.0
H148 H 0.67754 0.25996 0.84888 0.0
O149 O 0.56419 0.24497 0.90868 0.0
C150 C 0.60088 0.22366 0.82521 0.0
O151 O 0.59858 0.26264 0.81528 0.0
N152 N 0.56706 0.32437 0.88556 0.0
C153 C 0.54156 0.40812 0.89268 0.0
C154 C 0.52161 0.37569 0.9086 0.0
C155 C 0.53481 0.33374 0.90463 0.0
C156 C 0.58811 0.35563 0.87115 0.0
C157 C 0.57629 0.39775 0.8747 0.0
H158 H 0.51724 0.30875 0.9152 0.0
H159 H 0.61289 0.34755 0.85558 0.0
H160 H 0.48785 0.23205 0.88958 0.0
H161 H 0.44702 0.29619 0.81284 0.0
H162 H 0.70635 0.30113 0.93561 0.0
H163 H 0.49435 0.38228 0.92241 0.0
H164 H 0.59299 0.42181 0.86235 0.0
C165 C 0.71008 0.52446 0.35222 0.0
C166 C 0.71053 0.48099 0.35216 0.0
N167 N 0.73742 0.46815 0.37351 0.0
N168 N 0.73687 0.53869 0.37336 0.0
C169 C 0.75297 0.50354 0.38605 0.0
H170 H 0.69119 0.54448 0.33792 0.0
Co171 Co 0.74797 0.59501 0.38142 0.0
C172 C 0.77288 0.59874 0.44538 0.0
O173 O 0.75283 0.63505 0.44787 0.0
N174 N 0.76026 0.65211 0.3885 0.0
C175 C 0.79891 0.709 0.39906 0.0
C176 C 0.79836 0.66568 0.39836 0.0
C177 C 0.73891 0.68807 0.38201 0.0
N178 N 0.76155 0.72283 0.38871 0.0
O179 O 0.80116 0.59044 0.36136 0.0
H180 H 0.82455 0.6452 0.40419 0.0
H181 H 0.70808 0.68932 0.37175 0.0
O182 O 0.77333 0.57927 0.42032 0.0
C183 C 0.79515 0.59276 0.33335 0.0
O184 O 0.75617 0.59434 0.32332 0.0
N185 N 0.69351 0.59964 0.39778 0.0
C186 C 0.60638 0.59319 0.40724 0.0
C187 C 0.63527 0.57576 0.42759 0.0
C188 C 0.67878 0.57874 0.42222 0.0
C189 C 0.66579 0.61654 0.37786 0.0
C190 C 0.62232 0.61443 0.38238 0.0
H191 H 0.69994 0.56139 0.43654 0.0
H192 H 0.67739 0.62881 0.35702 0.0
H193 H 0.77579 0.50361 0.40398 0.0
H194 H 0.69168 0.46039 0.3382 0.0
H195 H 0.82534 0.72887 0.40526 0.0
H196 H 0.62437 0.55825 0.44674 0.0
H197 H 0.6014 0.62666 0.36534 0.0
C198 C 0.49502 0.75246 0.85087 0.0
C199 C 0.53822 0.75006 0.85245 0.0
N200 N 0.55103 0.76928 0.87769 0.0
N201 N 0.4802 0.77365 0.8747 0.0
C202 C 0.5151 0.78357 0.89072 0.0
H203 H 0.47554 0.73804 0.83391 0.0
Co204 Co 0.42249 0.77907 0.88238 0.0
C205 C 0.4136 0.80283 0.94524 0.0
O206 O 0.38265 0.77532 0.94661 0.0
N207 N 0.36357 0.78502 0.889 0.0
C208 C 0.30263 0.81752 0.89932 0.0
C209 C 0.34558 0.82225 0.89698 0.0
C210 C 0.33032 0.75841 0.88577 0.0
N211 N 0.29307 0.77735 0.89224 0.0
O212 O 0.42084 0.83201 0.86131 0.0
H213 H 0.36274 0.85128 0.90088 0.0
H214 H 0.33277 0.72588 0.87871 0.0
O215 O 0.43407 0.80783 0.92091 0.0
C216 C 0.41495 0.82509 0.83363 0.0
O217 O 0.4132 0.78572 0.82435 0.0
N218 N 0.42448 0.72512 0.89971 0.0
C219 C 0.44283 0.64 0.91037 0.0
C220 C 0.45701 0.67146 0.92999 0.0
C221 C 0.4482 0.71398 0.92396 0.0
C222 C 0.41028 0.69479 0.88065 0.0
C223 C 0.41806 0.6521 0.88593 0.0
H224 H 0.46361 0.73764 0.93741 0.0
H225 H 0.39541 0.70398 0.85998 0.0
H226 H 0.51406 0.79909 0.91217 0.0
H227 H 0.55844 0.73468 0.83632 0.0
H228 H 0.28003 0.84209 0.90487 0.0
H229 H 0.47756 0.66364 0.94849 0.0
H230 H 0.40686 0.62895 0.86998 0.0
C231 C 0.19798 0.52083 0.32535 0.0
C232 C 0.19238 0.56356 0.32913 0.0
N233 N 0.21759 0.57652 0.35145 0.0
N234 N 0.22678 0.50626 0.34512 0.0
C235 C 0.23728 0.54111 0.3612 0.0
H236 H 0.18243 0.50235 0.30841 0.0
Co237 Co 0.25047 0.45082 0.34635 0.0
C238 C 0.18683 0.42635 0.39269 0.0
O239 O 0.15938 0.41259 0.373 0.0
N240 N 0.27371 0.39639 0.34699 0.0
C241 C 0.31623 0.3419 0.33759 0.0
C242 C 0.31269 0.38532 0.33769 0.0
C243 C 0.25411 0.3593 0.35233 0.0
N244 N 0.27917 0.32541 0.34663 0.0
O245 O 0.20382 0.42907 0.32317 0.0
H246 H 0.33639 0.40735 0.33011 0.0
H247 H 0.22148 0.35729 0.35913 0.0
O248 O 0.2222 0.44129 0.38419 0.0
C249 C 0.21377 0.42753 0.29568 0.0
O250 O 0.25136 0.4412 0.28792 0.0
N251 N 0.29844 0.47116 0.36631 0.0
C252 C 0.37545 0.49945 0.38905 0.0
C253 C 0.34922 0.47326 0.40605 0.0
C254 C 0.3107 0.45936 0.39424 0.0
C255 C 0.32389 0.49596 0.34933 0.0
C256 C 0.3622 0.51101 0.36043 0.0
H257 H 0.29158 0.43804 0.4072 0.0
H258 H 0.31439 0.50378 0.32689 0.0
H259 H 0.26051 0.54105 0.37886 0.0
H260 H 0.17185 0.5836 0.31598 0.0
H261 H 0.34328 0.32401 0.32982 0.0
H262 H 0.35863 0.46323 0.4281 0.0
H263 H 0.38199 0.53029 0.34632 0.0
C264 C 0.99047 0.7374 0.85855 0.0
C265 C 0.03377 0.73578 0.85732 0.0
N266 N 0.04873 0.73352 0.88526 0.0
N267 N 0.97771 0.73559 0.88716 0.0
C268 C 0.01421 0.73329 0.90291 0.0
H269 H 0.9702 0.74204 0.83956 0.0
Co270 Co 0.92189 0.74208 0.90103 0.0
C271 C 0.9195 0.68589 0.95386 0.0
O272 O 0.88519 0.66693 0.9442 0.0
N273 N 0.86609 0.74943 0.91482 0.0
C274 C 0.81052 0.76636 0.94289 0.0
C275 C 0.85397 0.76376 0.94185 0.0
C276 C 0.8294 0.74375 0.89989 0.0
N277 N 0.79518 0.75357 0.91644 0.0
O278 O 0.90659 0.68961 0.88217 0.0
H279 H 0.87539 0.77192 0.95972 0.0
H280 H 0.82746 0.73345 0.87705 0.0
O281 O 0.93693 0.71417 0.93793 0.0
C282 C 0.89645 0.69676 0.85515 0.0
O283 O 0.89514 0.73619 0.84597 0.0
N284 N 0.93616 0.79466 0.91671 0.0
C285 C 0.95963 0.87708 0.93008 0.0
C286 C 0.97209 0.84372 0.94856 0.0
C287 C 0.95966 0.80255 0.94162 0.0
C288 C 0.92276 0.82687 0.89903 0.0
C289 C 0.93386 0.86848 0.90543 0.0
H290 H 0.97024 0.77729 0.9558 0.0
H291 H 0.90436 0.81989 0.87933 0.0
H292 H 0.01569 0.73302 0.9269 0.0
H293 H 0.05284 0.73905 0.83751 0.0
H294 H 0.7917 0.77634 0.96173 0.0
H295 H 0.99206 0.84933 0.96776 0.0
H296 H 0.92418 0.89341 0.89038 0.0
C297 C 0.20905 0.01988 0.33502 0.0
C298 C 0.21194 0.06225 0.32929 0.0
N299 N 0.24923 0.07627 0.33987 0.0
N300 N 0.24405 0.00672 0.34948 0.0
C301 C 0.26878 0.04155 0.35109 0.0
H302 H 0.18243 0.99988 0.32963 0.0
Co303 Co 0.247 0.95072 0.36299 0.0
C304 C 0.29996 0.98925 0.41632 0.0
O305 O 0.29707 0.03044 0.41324 0.0
N306 N 0.24841 0.89451 0.37577 0.0
C307 C 0.24284 0.83777 0.40444 0.0
C308 C 0.24462 0.88113 0.40407 0.0
C309 C 0.24854 0.85871 0.35928 0.0
N310 N 0.2452 0.82348 0.37622 0.0
O311 O 0.29648 0.94061 0.33901 0.0
H312 H 0.24126 0.90168 0.42319 0.0
H313 H 0.25 0.85871 0.33527 0.0
O314 O 0.28146 0.96463 0.39785 0.0
C315 C 0.28846 0.93787 0.31124 0.0
O316 O 0.24933 0.94381 0.30226 0.0
N317 N 0.19703 0.95964 0.38462 0.0
C318 C 0.11674 0.97726 0.40703 0.0
C319 C 0.15205 1.00007 0.41693 0.0
C320 C 0.19195 0.99094 0.4053 0.0
C321 C 0.1633 0.93631 0.37539 0.0
C322 C 0.12291 0.94437 0.38646 0.0
H323 H 0.21804 0.01077 0.41166 0.0
H324 H 0.16747 0.91256 0.35827 0.0
H325 H 0.30016 0.04166 0.36053 0.0
H326 H 0.18799 0.08131 0.31847 0.0
H327 H 0.23796 0.81852 0.42397 0.0
H328 H 0.14869 0.02575 0.43275 0.0
H329 H 0.09647 0.92655 0.37769 0.0
C330 C 0.00376 0.2335 0.81332 0.0
C331 C 0.96065 0.2364 0.81174 0.0
N332 N 0.9456 0.24413 0.83916 0.0
N333 N 0.01682 0.23978 0.84156 0.0
C334 C 0.98033 0.24655 0.85692 0.0
H335 H 0.02391 0.22468 0.795 0.0
Co336 Co 0.07371 0.22841 0.85232 0.0
C337 C 0.09256 0.27061 0.90952 0.0
O338 O 0.11752 0.2385 0.91541 0.0
N339 N 0.13233 0.21526 0.86136 0.0
C340 C 0.19214 0.18041 0.87171 0.0
C341 C 0.14893 0.17768 0.86991 0.0
C342 C 0.16702 0.24027 0.85803 0.0
N343 N 0.20392 0.2198 0.86419 0.0
O344 O 0.09228 0.26971 0.82372 0.0
H345 H 0.1315 0.14925 0.8744 0.0
H346 H 0.16518 0.27291 0.85099 0.0
O347 O 0.07137 0.27135 0.88511 0.0
C348 C 0.10387 0.24933 0.80053 0.0
O349 O 0.10403 0.20776 0.80174 0.0
N350 N 0.05409 0.18508 0.87696 0.0
C351 C 0.02077 0.1134 0.90347 0.0
C352 C 0.01879 0.1524 0.9181 0.0
C353 C 0.03547 0.18815 0.9043 0.0
C354 C 0.05353 0.14773 0.86181 0.0
C355 C 0.03809 0.11118 0.87496 0.0
H356 H 0.03143 0.21812 0.91516 0.0
H357 H 0.06593 0.14633 0.83944 0.0
H358 H 0.97895 0.25035 0.8808 0.0
H359 H 0.94163 0.2315 0.792 0.0
H360 H 0.21324 0.15455 0.87713 0.0
H361 H 0.00408 0.15523 0.93974 0.0
H362 H 0.03881 0.0816 0.86273 0.0
C363 C 0.78044 0.0264 0.35182 0.0
C364 C 0.77985 0.983 0.35036 0.0
N365 N 0.75648 0.96885 0.37316 0.0
N366 N 0.75719 0.03935 0.37527 0.0
C367 C 0.74312 1.00347 0.38795 0.0
H368 H 0.79753 0.04718 0.33711 0.0
Co369 Co 0.74913 0.09535 0.3858 0.0
C370 C 0.72617 0.09575 0.44954 0.0
O371 O 0.75107 0.12874 0.4524 0.0
N372 N 0.73987 0.15258 0.39505 0.0
C373 C 0.70387 0.21064 0.40756 0.0
C374 C 0.70322 0.16735 0.4067 0.0
C375 C 0.76121 0.18791 0.38739 0.0
N376 N 0.7403 0.22337 0.39535 0.0
O377 O 0.69669 0.09614 0.36432 0.0
H378 H 0.67676 0.14783 0.41309 0.0
H379 H 0.79018 0.18824 0.37482 0.0
O380 O 0.7215 0.07836 0.42387 0.0
C381 C 0.70545 0.10467 0.33729 0.0
O382 O 0.74529 0.10983 0.33001 0.0
N383 N 0.8031 0.09445 0.40366 0.0
C384 C 0.88854 0.08124 0.41692 0.0
C385 C 0.85694 0.06166 0.43372 0.0
C386 C 0.81448 0.06788 0.42632 0.0
C387 C 0.83354 0.11323 0.38694 0.0
C388 C 0.87632 0.10786 0.39354 0.0
H389 H 0.79138 0.04865 0.43746 0.0
H390 H 0.8249 0.12941 0.36673 0.0
H391 H 0.72378 1.00244 0.40769 0.0
H392 H 0.79665 0.96328 0.33457 0.0
H393 H 0.6784 0.23127 0.41466 0.0
H394 H 0.86497 0.03997 0.45146 0.0
H395 H 0.89961 0.12187 0.379 0.0
C396 C 0.52867 0.73047 0.19702 0.0
C397 C 0.5717 0.73376 0.19997 0.0
N398 N 0.58578 0.76203 0.17997 0.0
N399 N 0.51518 0.75682 0.17549 0.0
C400 C 0.55074 0.7758 0.16548 0.0
H401 H 0.50859 0.70884 0.20902 0.0
Co402 Co 0.45934 0.75625 0.16184 0.0
C403 C 0.45894 0.82058 0.11449 0.0
O404 O 0.42908 0.8416 0.1285 0.0
N405 N 0.40329 0.7543 0.14826 0.0
C406 C 0.34717 0.74391 0.11942 0.0
C407 C 0.39044 0.74705 0.12009 0.0
C408 C 0.36726 0.75512 0.16434 0.0
N409 N 0.3324 0.7489 0.14731 0.0
O410 O 0.44684 0.80707 0.18417 0.0
H411 H 0.41135 0.74275 0.10132 0.0
H412 H 0.36684 0.75933 0.18819 0.0
O413 O 0.47499 0.78773 0.12652 0.0
C414 C 0.44141 0.79948 0.21177 0.0
O415 O 0.44593 0.76042 0.22114 0.0
N416 N 0.47044 0.70517 0.14258 0.0
C417 C 0.48633 0.62357 0.12168 0.0
C418 C 0.50617 0.65862 0.10866 0.0
C419 C 0.49801 0.6993 0.1196 0.0
C420 C 0.45075 0.67168 0.15535 0.0
C421 C 0.45809 0.63067 0.14522 0.0
H422 H 0.51479 0.7257 0.11017 0.0
H423 H 0.42993 0.67689 0.17407 0.0
H424 H 0.55127 0.79757 0.14697 0.0
H425 H 0.59117 0.71604 0.21537 0.0
H426 H 0.32839 0.7366 0.09996 0.0
H427 H 0.52829 0.65462 0.09053 0.0
H428 H 0.44296 0.60466 0.15659 0.0
C429 C 0.22521 0.47796 0.67018 0.0
C430 C 0.22232 0.52098 0.67378 0.0
N431 N 0.22424 0.53936 0.64692 0.0
N432 N 0.22826 0.46816 0.64102 0.0
C433 C 0.22809 0.50669 0.62733 0.0
H434 H 0.22603 0.4556 0.6882 0.0
Co435 Co 0.23482 0.41132 0.62644 0.0
C436 C 0.18533 0.41279 0.57037 0.0
O437 O 0.1624 0.3809 0.57967 0.0
N438 N 0.24255 0.35425 0.61193 0.0
C439 C 0.26379 0.30168 0.58214 0.0
C440 C 0.25809 0.34468 0.58475 0.0
C441 C 0.23932 0.31582 0.62544 0.0
N442 N 0.25207 0.28329 0.60776 0.0
O443 O 0.1797 0.39722 0.6412 0.0
H444 H 0.26599 0.36774 0.56796 0.0
H445 H 0.22966 0.31157 0.64822 0.0
O446 O 0.21341 0.42851 0.58756 0.0
C447 C 0.1864 0.38324 0.66739 0.0
O448 O 0.22555 0.3802 0.67697 0.0
N449 N 0.28954 0.42346 0.6156 0.0
C450 C 0.37559 0.43614 0.60878 0.0
C451 C 0.34673 0.45526 0.58919 0.0
C452 C 0.30345 0.44841 0.59298 0.0
C453 C 0.31711 0.40479 0.63472 0.0
C454 C 0.36029 0.41046 0.63164 0.0
H455 H 0.28145 0.46371 0.57817 0.0
H456 H 0.30525 0.38564 0.65273 0.0
H457 H 0.23078 0.51082 0.60354 0.0
H458 H 0.22029 0.53767 0.69479 0.0
H459 H 0.27595 0.28522 0.56281 0.0
H460 H 0.35748 0.47556 0.57141 0.0
H461 H 0.3814 0.39604 0.6477 0.0
C462 C 0.4975 0.20356 0.17664 0.0
C463 C 0.45505 0.19804 0.1718 0.0
N464 N 0.44493 0.21531 0.14539 0.0
N465 N 0.51456 0.22419 0.15337 0.0
C466 C 0.48177 0.23019 0.13445 0.0
H467 H 0.51379 0.19526 0.19688 0.0
Co468 Co 0.5692 0.24723 0.15082 0.0
C469 C 0.5862 0.18862 0.09958 0.0
O470 O 0.59983 0.1576 0.11647 0.0
N471 N 0.62347 0.26988 0.14854 0.0
C472 C 0.67927 0.31122 0.15551 0.0
C473 C 0.63608 0.30805 0.15855 0.0
C474 C 0.65936 0.25034 0.13974 0.0
N475 N 0.69397 0.27472 0.14381 0.0
O476 O 0.5925 0.1982 0.16999 0.0
H477 H 0.61536 0.33148 0.16839 0.0
H478 H 0.66014 0.21826 0.13138 0.0
O479 O 0.57451 0.22352 0.11124 0.0
C480 C 0.59569 0.2057 0.1978 0.0
O481 O 0.58234 0.24244 0.20794 0.0
N482 N 0.54692 0.29706 0.13483 0.0
C483 C 0.5156 0.37584 0.11824 0.0
C484 C 0.54315 0.35357 0.09942 0.0
C485 C 0.5584 0.31387 0.1081 0.0
C486 C 0.52058 0.31858 0.15345 0.0
C487 C 0.50394 0.3577 0.14536 0.0
H488 H 0.58065 0.29749 0.09391 0.0
H489 H 0.51295 0.30544 0.17495 0.0
H490 H 0.48452 0.24746 0.11382 0.0
H491 H 0.43287 0.18538 0.18772 0.0
H492 H 0.69849 0.33754 0.16284 0.0
H493 H 0.55328 0.36704 0.07852 0.0
H494 H 0.48357 0.37446 0.16077 0.0
C495 C 0.72305 0.48866 0.7079 0.0
C496 C 0.73135 0.44622 0.70974 0.0
N497 N 0.76073 0.43603 0.68922 0.0
N498 N 0.74691 0.50578 0.68633 0.0
C499 C 0.77 0.47306 0.67549 0.0
H500 H 0.69912 0.50566 0.72029 0.0
Co501 Co 0.73888 0.56218 0.67473 0.0
C502 C 0.75837 0.54773 0.609 0.0
O503 O 0.71829 0.54623 0.60182 0.0
N504 N 0.73096 0.61968 0.6642 0.0
C505 C 0.71678 0.67966 0.64027 0.0
C506 C 0.71809 0.63636 0.63807 0.0
C507 C 0.73695 0.65382 0.68198 0.0
N508 N 0.72869 0.69077 0.66794 0.0
O509 O 0.79091 0.57718 0.69416 0.0
H510 H 0.70934 0.61863 0.61859 0.0
H511 H 0.74683 0.65163 0.70493 0.0
O512 O 0.76982 0.55354 0.63617 0.0
C513 C 0.78695 0.57823 0.7224 0.0
O514 O 0.75002 0.56914 0.73397 0.0
N515 N 0.68532 0.54735 0.65879 0.0
C516 C 0.60406 0.52734 0.63899 0.0
C517 C 0.63806 0.49978 0.63379 0.0
C518 C 0.67791 0.50953 0.64489 0.0
C519 C 0.65203 0.57297 0.66598 0.0
C520 C 0.6113 0.56393 0.65595 0.0
H521 H 0.70344 0.48774 0.64034 0.0
H522 H 0.65675 0.60052 0.67986 0.0
H523 H 0.79137 0.47605 0.65689 0.0
H524 H 0.71463 0.42425 0.72382 0.0
H525 H 0.70849 0.70124 0.62255 0.0
H526 H 0.63436 0.47106 0.6209 0.0
H527 H 0.58567 0.58502 0.66202 0.0
H528 H 0.11255 0.0464 0.1068 0.0
H529 H 0.98732 0.08478 0.07955 0.0
H530 H 0.96381 0.01142 0.08105 0.0
H531 H 0.97573 0.93835 0.09824 0.0
H532 H 0.09954 0.90138 0.12913 0.0
H533 H 0.12664 0.97196 0.11825 0.0
C534 C 0.08026 0.03862 0.10081 0.0
C535 C 0.05168 0.07116 0.09347 0.0
C536 C 0.0665 0.99658 0.10283 0.0
C537 C 0.01015 0.06045 0.08514 0.0
C538 C 0.99649 0.01847 0.08632 0.0
C539 C 0.00888 0.94553 0.1018 0.0
C540 C 0.03556 0.91502 0.11472 0.0
C541 C 0.02393 0.98655 0.09629 0.0
C542 C 0.07838 0.92466 0.11949 0.0
C543 C 0.09384 0.96496 0.11332 0.0
H544 H 0.09287 0.99491 0.59516 0.0
H545 H 0.05179 0.866 0.60692 0.0
H546 H 0.97823 0.88992 0.60944 0.0
H547 H 0.92716 0.94818 0.61428 0.0
H548 H 0.96886 0.07706 0.6035 0.0
H549 H 0.0409 0.05226 0.59419 0.0
C550 C 0.06779 0.97182 0.59734 0.0
C551 C 0.0778 0.9287 0.6009 0.0
C552 C 0.02582 0.98586 0.5993 0.0
C553 C 0.0449 0.89939 0.60438 0.0
C554 C 1.00289 0.91306 0.60585 0.0
C555 C 0.95176 0.97079 0.60911 0.0
C556 C 0.94277 0.01443 0.60979 0.0
C557 C 0.99316 0.95634 0.60423 0.0
C558 C 0.97515 0.04335 0.6035 0.0
C559 C 0.01628 0.02919 0.59814 0.0
H560 H 0.47223 0.59086 0.86585 0.0
H561 H 0.45038 0.59065 0.96044 0.0
H562 H 0.47923 0.51862 0.96366 0.0
H563 H 0.51125 0.4558 0.93915 0.0
H564 H 0.5308 0.45776 0.84417 0.0
H565 H 0.502 0.52898 0.8416 0.0
C566 C 0.47298 0.57486 0.88714 0.0
C567 C 0.45859 0.59584 0.91279 0.0
C568 C 0.48952 0.53384 0.88878 0.0
C569 C 0.4612 0.5751 0.94034 0.0
C570 C 0.47761 0.53395 0.94217 0.0
C571 C 0.50899 0.47183 0.91793 0.0
C572 C 0.52377 0.45164 0.89198 0.0
C573 C 0.49197 0.513 0.91649 0.0
C574 C 0.52069 0.47286 0.86461 0.0
C575 C 0.50387 0.51351 0.86304 0.0
H576 H 0.56747 0.51963 0.42274 0.0
H577 H 0.54132 0.64804 0.3958 0.0
H578 H 0.46651 0.63108 0.39 0.0
H579 H 0.40998 0.57796 0.38759 0.0
H580 H 0.43601 0.44971 0.4146 0.0
H581 H 0.50915 0.46867 0.42611 0.0
C582 C 0.54529 0.54426 0.41641 0.0
C583 C 0.56017 0.58496 0.40938 0.0
C584 C 0.50229 0.53421 0.41291 0.0
C585 C 0.53087 0.61628 0.40087 0.0
C586 C 0.48806 0.60662 0.39755 0.0
C587 C 0.43162 0.55433 0.39629 0.0
C588 C 0.41779 0.51244 0.39996 0.0
C589 C 0.47367 0.56538 0.40261 0.0
C590 C 0.44588 0.48221 0.41168 0.0
C591 C 0.48777 0.49298 0.41808 0.0
H592 H 0.06345 0.0441 0.92073 0.0
H593 H 0.93823 0.09732 0.91462 0.0
H594 H 0.90731 0.02837 0.92646 0.0
H595 H 0.91641 0.95126 0.93134 0.0
H596 H 0.042 0.89836 0.93717 0.0
H597 H 0.07256 0.969 0.93338 0.0
C598 C 0.02946 0.04057 0.92276 0.0
C599 C 1.00291 0.07507 0.91672 0.0
C600 C 0.01215 1.00099 0.92931 0.0
C601 C 0.95898 0.07082 0.91934 0.0
C602 C 0.94141 0.03148 0.92589 0.0
C603 C 0.95041 0.95548 0.93237 0.0
C604 C 0.97702 0.91993 0.93418 0.0
C605 C 0.9677 0.99606 0.92983 0.0
C606 C 0.02099 0.92545 0.93587 0.0
C607 C 0.03846 0.96573 0.93345 0.0
H608 H 0.08576 0.0573 0.41114 0.0
H609 H 0.04983 0.92655 0.42127 0.0
H610 H 0.97613 0.94781 0.42814 0.0
H611 H 0.92138 1.00281 0.4261 0.0
H612 H 0.95723 0.13351 0.41561 0.0
H613 H 0.03179 0.11296 0.41441 0.0
C614 C 0.06202 0.03349 0.41561 0.0
C615 C 0.07326 0.99036 0.41552 0.0
C616 C 0.0197 0.0459 0.41921 0.0
C617 C 0.04191 0.95991 0.42083 0.0
C618 C 0.99979 0.97205 0.42481 0.0
C619 C 0.94551 0.02696 0.42435 0.0
C620 C 0.93374 0.06965 0.42083 0.0
C621 C 0.98821 0.01486 0.4233 0.0
C622 C 0.96546 0.1004 0.41803 0.0
C623 C 0.00806 0.08867 0.41736 0.0
H624 H 0.56528 0.4423 0.10423 0.0
H625 H 0.43534 0.40699 0.11815 0.0
H626 H 0.41383 0.48136 0.11615 0.0
H627 H 0.43325 0.5563 0.1165 0.0
H628 H 0.56423 0.59168 0.10707 0.0
H629 H 0.58388 0.51761 0.10024 0.0
C630 C 0.53216 0.45095 0.10604 0.0
C631 C 0.50188 0.41949 0.1114 0.0
C632 C 0.52029 0.4938 0.10587 0.0
C633 C 0.45912 0.43089 0.11415 0.0
C634 C 0.44688 0.47333 0.11309 0.0
C635 C 0.46609 0.54785 0.11281 0.0
C636 C 0.49723 0.57954 0.11273 0.0
C637 C 0.4774 0.50508 0.11001 0.0
C638 C 0.53949 0.56808 0.10711 0.0
C639 C 0.55086 0.52563 0.10348 0.0
H640 H 0.41245 0.51274 0.60186 0.0
H641 H 0.44075 0.3802 0.61372 0.0
H642 H 0.51488 0.39687 0.6229 0.0
H643 H 0.56871 0.44932 0.6337 0.0
H644 H 0.54232 0.58196 0.61942 0.0
H645 H 0.46973 0.56491 0.60555 0.0
C646 C 0.43511 0.48746 0.60559 0.0
C647 C 0.42122 0.44541 0.60757 0.0
C648 C 0.47757 0.49729 0.61114 0.0
C649 C 0.45076 0.4129 0.61262 0.0
C650 C 0.49303 0.4224 0.61793 0.0
C651 C 0.54769 0.47459 0.62677 0.0
C652 C 0.56103 0.51694 0.62801 0.0
C653 C 0.50641 0.46458 0.61824 0.0
C654 C 0.53267 0.54913 0.61948 0.0
C655 C 0.49125 0.53941 0.61124 0.0
H656 H 0.12757 0.32945 0.03494 0.0
H657 H 0.00434 0.27556 0.04855 0.0
H658 H 0.99091 0.27734 0.99486 0.0
H659 H 0.02218 0.27741 0.94437 0.0
H660 H 0.14781 0.32637 0.93204 0.0
H661 H 0.15161 0.34554 0.98451 0.0
C662 C 0.09704 0.31984 0.02621 0.0
C663 C 0.06725 0.30183 0.04552 0.0
C664 C 0.09019 0.31986 0.99535 0.0
C665 C 0.02779 0.28953 0.0341 0.0
C666 C 0.02034 0.29011 1.00333 0.0
C667 C 0.04955 0.29403 0.9529 0.0
C668 C 0.08488 0.30021 0.93437 0.0
C669 C 0.0524 0.30276 0.98364 0.0
C670 C 0.12014 0.32168 0.9458 0.0
C671 C 0.1226 0.33195 0.97596 0.0
H672 H 0.70532 0.13506 0.50063 0.0
H673 H 0.71425 0.01124 0.46073 0.0
H674 H 0.70607 0.97851 0.50965 0.0
H675 H 0.70779 0.98585 0.56438 0.0
H676 H 0.69979 0.11028 0.6038 0.0
H677 H 0.69584 0.14199 0.5545 0.0
C678 C 0.70451 0.10087 0.50257 0.0
C679 C 0.71078 0.07561 0.47714 0.0
C680 C 0.70059 0.08243 0.53078 0.0
C681 C 0.70927 0.03139 0.47989 0.0
C682 C 0.70502 0.01269 0.50795 0.0
C683 C 0.70408 0.01982 0.56224 0.0
C684 C 0.70519 0.04576 0.58781 0.0
C685 C 0.70229 0.03796 0.53368 0.0
C686 C 0.70008 0.08968 0.58452 0.0
C687 C 0.69778 0.10785 0.55631 0.0
H688 H 0.87716 0.6477 0.99949 0.0
H689 H 0.99216 0.71496 0.97962 0.0
H690 H 0.00768 0.72161 0.03245 0.0
H691 H 0.98556 0.71393 0.08452 0.0
H692 H 0.87297 0.64325 0.10485 0.0
H693 H 0.85989 0.63191 0.05179 0.0
C694 C 0.90602 0.66312 1.00665 0.0
C695 C 0.93276 0.6819 0.98548 0.0
C696 C 0.91508 0.66651 0.03726 0.0
C697 C 0.97026 0.70134 0.99532 0.0
C698 C 0.9793 0.70506 0.02561 0.0
C699 C 0.9584 0.69566 0.07731 0.0
C700 C 0.93004 0.67984 0.09856 0.0
C701 C 0.95134 0.68886 0.0468 0.0
C702 C 0.8953 0.65575 0.08894 0.0
C703 C 0.88771 0.64939 0.05858 0.0
H704 H 0.30389 0.02933 0.47013 0.0
H705 H 0.32597 0.90867 0.4277 0.0
H706 H 0.33156 0.87472 0.47621 0.0
H707 H 0.31962 0.87763 0.52999 0.0
H708 H 0.29621 0.99774 0.5727 0.0
H709 H 0.30285 0.03375 0.52492 0.0
C710 C 0.31103 0.99582 0.47148 0.0
C711 C 0.31345 0.97134 0.44528 0.0
C712 C 0.31364 0.97635 0.49954 0.0
C713 C 0.32297 0.92801 0.44751 0.0
C714 C 0.32618 0.90857 0.47525 0.0
C715 C 0.31682 0.91181 0.52896 0.0
C716 C 0.30678 0.93487 0.55483 0.0
C717 C 0.31985 0.93213 0.50134 0.0
C718 C 0.30386 0.97918 0.55318 0.0
C719 C 0.30731 0.99977 0.52577 0.0
H720 H 0.54197 0.23576 0.05974 0.0
H721 H 0.63024 0.13173 0.06549 0.0
H722 H 0.63395 0.12823 1.0112 0.0
H723 H 0.61551 0.15781 0.96214 0.0
H724 H 0.52609 0.26107 0.95692 0.0
H725 H 0.51921 0.26139 1.01081 0.0
C726 C 0.56193 0.21219 0.04913 0.0
C727 C 0.58616 0.18434 0.0667 0.0
C728 C 0.56372 0.2102 0.01793 0.0
C729 C 0.61132 0.15359 0.05255 0.0
C730 C 0.61352 0.15164 0.02148 0.0
C731 C 0.59407 0.18003 0.97272 0.0
C732 C 0.57173 0.20969 0.9553 0.0
C733 C 0.5903 0.18018 1.00393 0.0
C734 C 0.54397 0.23807 0.96956 0.0
C735 C 0.54007 0.23839 1.0005 0.0
H736 H 0.77006 0.49574 0.56242 0.0
H737 H 0.80663 0.61668 0.5982 0.0
H738 H 0.82163 0.64237 0.54808 0.0
H739 H 0.80688 0.63539 0.49434 0.0
H740 H 0.76849 0.5147 0.4587 0.0
H741 H 0.77218 0.48361 0.50831 0.0
C742 C 0.78359 0.52691 0.55928 0.0
C743 C 0.78727 0.55433 0.58385 0.0
C744 C 0.79046 0.54187 0.5303 0.0
C745 C 0.80421 0.59483 0.57966 0.0
C746 C 0.81189 0.60979 0.55091 0.0
C747 C 0.80063 0.60195 0.49736 0.0
C748 C 0.78676 0.5775 0.47302 0.0
C749 C 0.80244 0.58444 0.52605 0.0
C750 C 0.77921 0.53416 0.47705 0.0
C751 C 0.78101 0.51645 0.5055 0.0
H752 H 0.4081 0.86374 0.07617 0.0
H753 H 0.5231 0.79014 0.07966 0.0
H754 H 0.52377 0.7851 0.02546 0.0
H755 H 0.48475 0.791 0.97792 0.0
H756 H 0.36688 0.85943 0.97557 0.0
H757 H 0.37466 0.87809 0.02808 0.0
C758 C 0.43399 0.84761 0.06509 0.0
C759 C 0.4651 0.82673 0.08205 0.0
C760 C 0.43347 0.84375 0.03393 0.0
C761 C 0.49835 0.80592 0.0672 0.0
C762 C 0.49873 0.80297 0.03616 0.0
C763 C 0.46176 0.81138 0.98873 0.0
C764 C 0.42559 0.82441 0.973 0.0
C765 C 0.46548 0.82021 0.01936 0.0
C766 C 0.39526 0.84972 0.98728 0.0
C767 C 0.39949 0.85996 0.01736 0.0
H768 H 0.14102 0.37597 0.5248 0.0
H769 H 0.22846 0.47718 0.54353 0.0
H770 H 0.23656 0.49032 0.49052 0.0
H771 H 0.22214 0.47051 0.4385 0.0
H772 H 0.13208 0.37184 0.41953 0.0
H773 H 0.12149 0.36063 0.47276 0.0
C774 C 0.16144 0.40129 0.51736 0.0
C775 C 0.18482 0.42487 0.53834 0.0
C776 C 0.1657 0.40903 0.48665 0.0
C777 C 0.21081 0.45778 0.52808 0.0
C778 C 0.21541 0.46545 0.49765 0.0
C779 C 0.20004 0.44667 0.44602 0.0
C780 C 0.17825 0.42178 0.425 0.0
C781 C 0.1937 0.44072 0.47671 0.0
C782 C 0.14929 0.39146 0.43517 0.0
C783 C 0.14328 0.38494 0.46565 0.0
H784 H 0.12219 0.36103 0.18009 0.0
H785 H 0.04695 0.2964 0.24539 0.0
H786 H 0.08277 0.33473 0.28538 0.0
H787 H 0.14187 0.38 0.3021 0.0
H788 H 0.21978 0.44075 0.2363 0.0
H789 H 0.1769 0.41076 0.19658 0.0
C790 C 0.11278 0.3563 0.203 0.0
C791 C 0.08188 0.32602 0.20973 0.0
C792 C 0.13476 0.37717 0.226 0.0
C793 C 0.07061 0.31968 0.23963 0.0
C794 C 0.09132 0.34134 0.26255 0.0
C795 C 0.149 0.38714 0.27909 0.0
C796 C 0.1843 0.41223 0.27228 0.0
C797 C 0.12452 0.36908 0.25608 0.0
C798 C 0.19315 0.42109 0.24228 0.0
C799 C 0.16854 0.40404 0.21943 0.0
H800 H 0.66745 0.12223 0.71478 0.0
H801 H 0.74447 0.06385 0.78254 0.0
H802 H 0.70469 0.10071 0.82119 0.0
H803 H 0.65356 0.15644 0.83557 0.0
H804 H 0.57964 0.21747 0.76737 0.0
H805 H 0.61182 0.1725 0.72944 0.0
C806 C 0.67488 0.11686 0.73802 0.0
C807 C 0.70906 0.09053 0.74568 0.0
C808 C 0.65247 0.13897 0.76022 0.0
C809 C 0.71849 0.08422 0.77595 0.0
C810 C 0.69578 0.10535 0.79815 0.0
C811 C 0.64374 0.15893 0.81252 0.0
C812 C 0.6143 0.19012 0.80426 0.0
C813 C 0.66347 0.13378 0.79056 0.0
C814 C 0.60236 0.19366 0.77423 0.0
C815 C 0.62087 0.16808 0.75248 0.0
H816 H 0.85842 0.64891 0.34158 0.0
H817 H 0.8052 0.5625 0.27758 0.0
H818 H 0.84739 0.59423 0.23805 0.0
H819 H 0.89144 0.65327 0.22058 0.0
H820 H 0.94013 0.7429 0.28449 0.0
H821 H 0.90788 0.70355 0.32489 0.0
C822 C 0.85738 0.63609 0.31919 0.0
C823 C 0.82925 0.60323 0.31245 0.0
C824 C 0.88011 0.6559 0.29633 0.0
C825 C 0.82709 0.58759 0.28322 0.0
C826 C 0.85082 0.60602 0.26057 0.0
C827 C 0.89549 0.66375 0.24338 0.0
C828 C 0.9177 0.70124 0.24941 0.0
C829 C 0.87615 0.64132 0.26664 0.0
C830 C 0.92268 0.71446 0.27912 0.0
C831 C 0.90437 0.69188 0.30233 0.0
H832 H 0.43653 0.83122 0.77596 0.0
H833 H 0.36195 0.89184 0.84398 0.0
H834 H 0.32321 0.93165 0.80594 0.0
H835 H 0.30226 0.93845 0.75325 0.0
H836 H 0.37705 0.87767 0.6853 0.0
H837 H 0.42464 0.84924 0.72332 0.0
C838 C 0.41274 0.85427 0.78244 0.0
C839 C 0.40181 0.85848 0.81263 0.0
C840 C 0.3903 0.87644 0.76042 0.0
C841 C 0.37109 0.88837 0.82091 0.0
C842 C 0.34861 0.9107 0.79911 0.0
C843 C 0.32968 0.91992 0.74675 0.0
C844 C 0.33583 0.90961 0.71656 0.0
C845 C 0.35665 0.90343 0.76878 0.0
C846 C 0.37165 0.88603 0.70835 0.0
C847 C 0.39865 0.86947 0.73013 0.0
H848 H 0.90622 0.69644 0.79585 0.0
H849 H 0.85568 0.62268 0.86789 0.0
H850 H 0.82138 0.57522 0.83202 0.0
H851 H 0.79821 0.56124 0.7806 0.0
H852 H 0.84812 0.63587 0.70873 0.0
H853 H 0.89103 0.67628 0.74412 0.0
C854 C 0.88826 0.6695 0.80366 0.0
C855 C 0.8829 0.66322 0.83439 0.0
C856 C 0.86847 0.64283 0.78296 0.0
C857 C 0.8602 0.628 0.84434 0.0
C858 C 0.84039 0.60113 0.82383 0.0
C859 C 0.81918 0.58581 0.77265 0.0
C860 C 0.81979 0.59593 0.74217 0.0
C861 C 0.84319 0.60916 0.79316 0.0
C862 C 0.84731 0.62743 0.73204 0.0
C863 C 0.8715 0.65075 0.75231 0.0
H864 H 0.36115 0.89301 0.3213 0.0
H865 H 0.28663 0.94973 0.25152 0.0
H866 H 0.33156 0.91679 0.21396 0.0
H867 H 0.38655 0.8645 0.20076 0.0
H868 H 0.45797 0.80435 0.27063 0.0
H869 H 0.42061 0.8462 0.30801 0.0
C870 C 0.35539 0.8989 0.2979 0.0
C871 C 0.32042 0.92356 0.28928 0.0
C872 C 0.38076 0.87888 0.27627 0.0
C873 C 0.31315 0.93057 0.2588 0.0
C874 C 0.33882 0.91169 0.23724 0.0
C875 C 0.39468 0.86153 0.2241 0.0
C876 C 0.42495 0.83144 0.23293 0.0
C877 C 0.37196 0.88473 0.24565 0.0
C878 C 0.43468 0.82731 0.26331 0.0
C879 C 0.4132 0.85109 0.28473 0.0
H880 H 0.10169 0.33423 0.78619 0.0
H881 H 0.12762 0.21023 0.74968 0.0
H882 H 0.1455 0.24113 0.7022 0.0
H883 H 0.16179 0.30312 0.67248 0.0
H884 H 0.14233 0.42768 0.70866 0.0
H885 H 0.11222 0.3972 0.75402 0.0
C886 C 0.11106 0.31408 0.76779 0.0
C887 C 0.11381 0.26999 0.77181 0.0
C888 C 0.12172 0.33217 0.74014 0.0
C889 C 0.12561 0.2443 0.74754 0.0
C890 C 0.13566 0.26187 0.72016 0.0
C891 C 0.14926 0.32353 0.6898 0.0
C892 C 0.15319 0.36743 0.68707 0.0
C893 C 0.13459 0.30572 0.71634 0.0
C894 C 0.13823 0.39372 0.71 0.0
C895 C 0.12193 0.37624 0.73617 0.0
H896 H 0.71126 0.09218 0.27823 0.0
H897 H 0.62783 0.14117 0.34584 0.0
H898 H 0.58317 0.17341 0.3074 0.0
H899 H 0.57426 0.19593 0.25536 0.0
H900 H 0.65782 0.14708 0.18776 0.0
H901 H 0.69606 0.10596 0.22543 0.0
C902 C 0.68272 0.10912 0.28448 0.0
C903 C 0.67293 0.11472 0.31478 0.0
C904 C 0.65771 0.12794 0.26232 0.0
C905 C 0.63579 0.13631 0.32267 0.0
C906 C 0.61058 0.15508 0.3007 0.0
C907 C 0.60044 0.17571 0.24884 0.0
C908 C 0.61372 0.17489 0.21897 0.0
C909 C 0.62219 0.15241 0.27059 0.0
C910 C 0.64713 0.14814 0.21062 0.0
C911 C 0.66909 0.1249 0.23218 0.0
H912 H 0.37431 0.17134 0.15769 0.0
H913 H 0.41969 0.28042 0.11005 0.0
H914 H 0.34727 0.30146 0.09889 0.0
H915 H 0.27103 0.29258 0.10656 0.0
H916 H 0.22589 0.18644 0.15747 0.0
H917 H 0.29807 0.16069 0.1634 0.0
C918 C 0.36842 0.19967 0.14481 0.0
C919 C 0.40262 0.22435 0.13504 0.0
C920 C 0.3266 0.21239 0.13925 0.0
C921 C 0.39427 0.26046 0.11772 0.0
C922 C 0.35272 0.27284 0.11157 0.0
C923 C 0.27692 0.2639 0.11904 0.0
C924 C 0.24291 0.24181 0.13177 0.0
C925 C 0.31866 0.24966 0.1229 0.0
C926 C 0.25121 0.20404 0.14722 0.0
C927 C 0.2926 0.18938 0.1508 0.0
H928 H 0.80217 0.26064 0.63037 0.0
H929 H 0.7556 0.21691 0.71513 0.0
H930 H 0.75061 0.2896 0.73258 0.0
H931 H 0.75501 0.36548 0.72296 0.0
H932 H 0.79474 0.4095 0.63664 0.0
H933 H 0.80745 0.33672 0.62097 0.0
C934 C 0.79059 0.26667 0.6526 0.0
C935 C 0.77893 0.23268 0.67115 0.0
C936 C 0.78665 0.30881 0.66234 0.0
C937 C 0.76511 0.24185 0.70021 0.0
C938 C 0.76199 0.28365 0.71024 0.0
C939 C 0.76616 0.35943 0.70061 0.0
C940 C 0.77317 0.39343 0.68097 0.0
C941 C 0.77197 0.31736 0.69132 0.0
C942 C 0.78907 0.38444 0.65243 0.0
C943 C 0.79603 0.34262 0.64331 0.0
H944 H 0.65374 0.71191 0.18871 0.0
H945 H 0.61658 0.83572 0.15808 0.0
H946 H 0.691 0.85432 0.15082 0.0
H947 H 0.7669 0.83594 0.15499 0.0
H948 H 0.80262 0.71233 0.18727 0.0
H949 H 0.72857 0.69321 0.19201 0.0
C950 C 0.66179 0.74314 0.1807 0.0
C951 C 0.62948 0.77256 0.17433 0.0
C952 C 0.70451 0.75363 0.17681 0.0
C953 C 0.6407 0.81243 0.1631 0.0
C954 C 0.68329 0.82313 0.15909 0.0
C955 C 0.7585 0.80487 0.16314 0.0
C956 C 0.79063 0.7757 0.1707 0.0
C957 C 0.71552 0.79409 0.16617 0.0
C958 C 0.77894 0.73532 0.18081 0.0
C959 C 0.73643 0.7244 0.18379 0.0
H960 H 0.27455 0.5847 0.60997 0.0
H961 H 0.1741 0.59663 0.67387 0.0
H962 H 0.17965 0.67371 0.67239 0.0
H963 H 0.21726 0.73825 0.65617 0.0
H964 H 0.31937 0.72622 0.59345 0.0
H965 H 0.30905 0.64979 0.59115 0.0
C966 C 0.25334 0.60428 0.62302 0.0
C967 C 0.2239 0.58475 0.64199 0.0
C968 C 0.25742 0.64897 0.62261 0.0
C969 C 0.19712 0.61075 0.65917 0.0
C970 C 0.20035 0.65493 0.65839 0.0
C971 C 0.23676 0.71899 0.64165 0.0
C972 C 0.26935 0.73829 0.62525 0.0
C973 C 0.23101 0.67453 0.6407 0.0
C974 C 0.29451 0.71243 0.60674 0.0
C975 C 0.28854 0.66854 0.60531 0.0
H976 H 0.906 0.29343 0.87999 0.0
H977 H 0.88505 0.19401 0.81596 0.0
H978 H 0.80923 0.19665 0.82532 0.0
H979 H 0.74799 0.22788 0.85115 0.0
H980 H 0.76836 0.32805 0.9148 0.0
H981 H 0.84436 0.32433 0.90634 0.0
C982 C 0.88479 0.27213 0.86839 0.0
C983 C 0.90128 0.24386 0.84714 0.0
C984 C 0.84077 0.27404 0.87371 0.0
C985 C 0.87325 0.21658 0.8321 0.0
C986 C 0.82977 0.21797 0.83748 0.0
C987 C 0.769 0.24911 0.86298 0.0
C988 C 0.75215 0.27803 0.88368 0.0
C989 C 0.81301 0.2469 0.85798 0.0
C990 C 0.78019 0.30498 0.89904 0.0
C991 C 0.82385 0.30302 0.89415 0.0
H992 H 0.76706 0.78737 0.42659 0.0
H993 H 0.73342 0.75412 0.33684 0.0
H994 H 0.72608 0.8292 0.32402 0.0
H995 H 0.7361 0.90422 0.33766 0.0
H996 H 0.76656 0.9373 0.42808 0.0
H997 H 0.76792 0.86235 0.44182 0.0
C998 C 0.75747 0.79689 0.40443 0.0
C999 C 0.75103 0.76594 0.38255 0.0
C1000 C 0.75306 0.83981 0.39747 0.0
C1001 C 0.73827 0.77786 0.3539 0.0
C1002 C 0.73439 0.82059 0.3466 0.0
C1003 C 0.74247 0.89473 0.36038 0.0
C1004 C 0.75166 0.92564 0.38184 0.0
C1005 C 0.74273 0.85181 0.36805 0.0
C1006 C 0.75935 0.91366 0.41136 0.0
C1007 C 0.76035 0.87097 0.41912 0.0
H1008 H 0.11682 0.70263 0.85693 0.0
H1009 H 0.07846 0.7771 0.93268 0.0
H1010 H 0.1522 0.79502 0.94295 0.0
H1011 H 0.22688 0.79477 0.92753 0.0
H1012 H 0.26527 0.72071 0.85162 0.0
H1013 H 0.19239 0.69706 0.84427 0.0
C1014 C 0.12477 0.72242 0.87584 0.0
C1015 C 0.09228 0.73875 0.89388 0.0
C1016 C 0.16717 0.73289 0.8814 0.0
C1017 C 0.1029 0.76386 0.91861 0.0
C1018 C 0.14503 0.77443 0.92431 0.0
C1019 C 0.21921 0.77328 0.9095 0.0
C1020 C 0.25122 0.75986 0.88993 0.0
C1021 C 0.17728 0.75997 0.90542 0.0
C1022 C 0.24118 0.73134 0.867 0.0
C1023 C 0.19949 0.71804 0.86271 0.0
H1024 H 0.33146 0.25707 0.34882 0.0
H1025 H 0.19968 0.29316 0.34401 0.0
H1026 H 0.1794 0.2193 0.34237 0.0
H1027 H 0.19836 0.14474 0.34139 0.0
H1028 H 0.32949 0.10687 0.34365 0.0
H1029 H 0.35063 0.18123 0.34718 0.0
C1030 C 0.29831 0.24892 0.34721 0.0
C1031 C 0.2673 0.2812 0.34664 0.0
C1032 C 0.28666 0.20598 0.34572 0.0
C1033 C 0.22444 0.26955 0.34503 0.0
C1034 C 0.21269 0.22709 0.34381 0.0
C1035 C 0.23166 0.1525 0.34214 0.0
C1036 C 0.26227 0.12001 0.34181 0.0
C1037 C 0.24349 0.19513 0.34393 0.0
C1038 C 0.3052 0.13106 0.34389 0.0
C1039 C 0.31729 0.17363 0.34581 0.0
H1040 H 0.61586 0.7173 0.86341 0.0
H1041 H 0.58334 0.8254 0.91767 0.0
H1042 H 0.65631 0.82925 0.93557 0.0
H1043 H 0.7302 0.8032 0.93433 0.0
H1044 H 0.76175 0.69659 0.87845 0.0
H1045 H 0.68842 0.6916 0.86206 0.0
C1046 C 0.62456 0.74215 0.87883 0.0
C1047 C 0.59389 0.77127 0.88888 0.0
C1048 C 0.6666 0.7446 0.88862 0.0
C1049 C 0.60601 0.80238 0.90962 0.0
C1050 C 0.64786 0.80475 0.91976 0.0
C1051 C 0.72087 0.77871 0.91876 0.0
C1052 C 0.75149 0.75043 0.90752 0.0
C1053 C 0.67851 0.77615 0.90926 0.0
C1054 C 0.73901 0.71912 0.8871 0.0
C1055 C 0.69702 0.7161 0.87784 0.0
H1056 H 0.20846 0.64666 0.31787 0.0
H1057 H 0.24524 0.60408 0.40526 0.0
H1058 H 0.25934 0.6771 0.42018 0.0
H1059 H 0.26005 0.75292 0.40862 0.0
H1060 H 0.22012 0.79534 0.32177 0.0
H1061 H 0.2089 0.72232 0.30638 0.0
C1062 C 0.219 0.65323 0.34032 0.0
C1063 C 0.22539 0.61972 0.36047 0.0
C1064 C 0.22679 0.69529 0.34879 0.0
C1065 C 0.24023 0.62906 0.38922 0.0
C1066 C 0.24817 0.67087 0.3978 0.0
C1067 C 0.24855 0.7464 0.38639 0.0
C1068 C 0.24076 0.78003 0.36653 0.0
C1069 C 0.24139 0.70424 0.3778 0.0
C1070 C 0.22685 0.77047 0.33755 0.0
C1071 C 0.22005 0.72858 0.32876 0.0
H1072 H 0.38126 0.298 0.83245 0.0
H1073 H 0.4239 0.19577 0.88864 0.0
H1074 H 0.35065 0.17649 0.89848 0.0
H1075 H 0.2746 0.18696 0.88999 0.0
H1076 H 0.232 0.2867 0.83166 0.0
H1077 H 0.30511 0.30866 0.82412 0.0
C1078 C 0.37488 0.27121 0.84665 0.0
C1079 C 0.40879 0.24828 0.85954 0.0
C1080 C 0.33244 0.25984 0.85195 0.0
C1081 C 0.39901 0.21433 0.87847 0.0
C1082 C 0.35692 0.20309 0.88402 0.0
C1083 C 0.28102 0.21332 0.8754 0.0
C1084 C 0.24718 0.23476 0.86125 0.0
C1085 C 0.32338 0.22536 0.87068 0.0
C1086 C 0.25682 0.2696 0.84309 0.0
C1087 C 0.29886 0.28204 0.83857 0.0
H1088 H 0.74027 0.28959 0.43193 0.0
H1089 H 0.76053 0.25205 0.34107 0.0
H1090 H 0.76408 0.32646 0.32595 0.0
H1091 H 0.75388 0.40197 0.33833 0.0
H1092 H 0.73667 0.43942 0.42958 0.0
H1093 H 0.73981 0.36529 0.44525 0.0
C1094 C 0.74629 0.29804 0.40899 0.0
C1095 C 0.74996 0.26604 0.38753 0.0
C1096 C 0.74841 0.34061 0.40066 0.0
C1097 C 0.75796 0.27659 0.35783 0.0
C1098 C 0.75961 0.31896 0.34922 0.0
C1099 C 0.75136 0.39362 0.36161 0.0
C1100 C 0.74456 0.42549 0.38283 0.0
C1101 C 0.75371 0.35117 0.37035 0.0
C1102 C 0.74193 0.41502 0.41304 0.0
C1103 C 0.74353 0.3728 0.42191 0.0
H1104 H 0.15554 0.72059 0.20711 0.0
H1105 H 0.11325 0.74098 0.11697 0.0
H1106 H 0.18622 0.75257 0.10137 0.0
H1107 H 0.26187 0.75631 0.11329 0.0
H1108 H 0.30391 0.73238 0.20315 0.0
H1109 H 0.231 0.72316 0.21883 0.0
C1110 C 0.16211 0.72692 0.18394 0.0
C1111 C 0.12866 0.72956 0.16324 0.0
C1112 C 0.20416 0.73325 0.17508 0.0
C1113 C 0.13813 0.73899 0.13346 0.0
C1114 C 0.17994 0.74549 0.1245 0.0
C1115 C 0.25536 0.74866 0.13626 0.0
C1116 C 0.28889 0.74494 0.15687 0.0
C1117 C 0.21321 0.7426 0.14512 0.0
C1118 C 0.27919 0.73596 0.18671 0.0
C1119 C 0.23734 0.73032 0.19572 0.0
H1120 H 0.19974 0.23788 0.643 0.0
H1121 H 0.31011 0.22683 0.58757 0.0
H1122 H 0.31297 0.15067 0.59656 0.0
H1123 H 0.28361 0.08625 0.61987 0.0
H1124 H 0.17086 0.09838 0.6735 0.0
H1125 H 0.17012 0.17373 0.66574 0.0
C1126 C 0.22463 0.21888 0.63312 0.0
C1127 C 0.25456 0.23839 0.61456 0.0
C1128 C 0.22583 0.17468 0.63807 0.0
C1129 C 0.2863 0.21287 0.60167 0.0
C1130 C 0.28805 0.16914 0.60689 0.0
C1131 C 0.25875 0.1051 0.62985 0.0
C1132 C 0.22778 0.08534 0.64767 0.0
C1133 C 0.25778 0.14945 0.62491 0.0
C1134 C 0.19593 0.11141 0.66017 0.0
C1135 C 0.19515 0.15516 0.65562 0.0
H1136 H 0.761 0.32638 0.13516 0.0
H1137 H 0.72617 0.19508 0.14439 0.0
H1138 H 0.80006 0.17428 0.14148 0.0
H1139 H 0.87476 0.19318 0.13956 0.0
H1140 H 0.91119 0.32407 0.1329 0.0
H1141 H 0.83659 0.34517 0.13119 0.0
C1142 C 0.76955 0.29323 0.13658 0.0
C1143 C 0.73774 0.26247 0.14009 0.0
C1144 C 0.81247 0.28137 0.13537 0.0
C1145 C 0.74956 0.21955 0.14132 0.0
C1146 C 0.792 0.20755 0.13989 0.0
C1147 C 0.86645 0.22636 0.13781 0.0
C1148 C 0.89856 0.25703 0.1368 0.0
C1149 C 0.82369 0.2382 0.1374 0.0
C1150 C 0.88717 0.29981 0.13365 0.0
C1151 C 0.84449 0.31188 0.1329 0.0
H1152 H 0.78676 0.86525 0.72017 0.0
H1153 H 0.69897 0.91054 0.65382 0.0
H1154 H 0.67756 0.83806 0.64306 0.0
H1155 H 0.6891 0.76161 0.64876 0.0
H1156 H 0.78078 0.71641 0.71251 0.0
H1157 H 0.79523 0.78895 0.72797 0.0
C1158 C 0.76289 0.85941 0.70337 0.0
C1159 C 0.74514 0.89359 0.68751 0.0
C1160 C 0.75166 0.81749 0.69661 0.0
C1161 C 0.71325 0.88518 0.66647 0.0
C1162 C 0.70124 0.84357 0.66008 0.0
C1163 C 0.7123 0.76752 0.666 0.0
C1164 C 0.73417 0.73336 0.67912 0.0
C1165 C 0.72116 0.80946 0.67437 0.0
C1166 C 0.76328 0.74181 0.70205 0.0
C1167 C 0.77179 0.78342 0.71079 0.0
loop_
_geom_bond_atom_site_label_1
_geom_bond_atom_site_label_2
_geom_bond_distance
_geom_bond_site_symmetry_2
_ccdc_geom_bond_type
C0 C1 1.351 . S
C0 N3 1.368 . S
C0 H5 0.931 . S
C1 C0 1.351 . S
C1 N2 1.373 . S
C1 H29 0.930 . S
N2 C1 1.373 . S
N2 C4 1.340 . S
N3 C0 1.368 . S
N3 C4 1.321 . S
N3 Co6 2.135 1_655 S
C4 N2 1.340 . S
C4 N3 1.321 . S
C4 H28 0.930 . S
H5 C0 0.931 . S
Co6 N3 2.135 1_455 S
Co6 N9 2.121 . S
Co6 O14 2.055 . S
Co6 O17 2.039 . S
Co6 N20 2.140 . S
C7 O8 1.227 . S
C7 O17 1.265 . S
O8 C7 1.227 . S
N9 Co6 2.121 . S
N9 C11 1.375 . S
N9 C12 1.313 . S
C10 C11 1.338 . S
C10 N13 1.377 . S
C10 H30 0.930 . S
C11 N9 1.375 . S
C11 C10 1.338 . S
C11 H15 0.931 . S
C12 N9 1.313 . S
C12 N13 1.344 . S
C12 H16 0.930 . S
N13 C10 1.377 . S
N13 C12 1.344 . S
O14 Co6 2.055 . S
O14 C18 1.253 . S
H15 C11 0.931 . S
H16 C12 0.930 . S
O17 Co6 2.039 . S
O17 C7 1.265 . S
C18 O14 1.253 . S
C18 O19 1.227 . S
O19 C18 1.227 . S
N20 Co6 2.140 . S
N20 C23 1.346 1_455 S
N20 C24 1.345 . S
C21 C22 1.387 1_455 S
C21 C25 1.391 . S
C22 C21 1.387 1_655 S
C22 C23 1.369 . S
C22 H31 0.929 . S
C23 N20 1.346 1_655 S
C23 C22 1.369 . S
C23 H26 0.928 . S
C24 N20 1.345 . S
C24 C25 1.371 . S
C24 H27 0.931 . S
C25 C21 1.391 . S
C25 C24 1.371 . S
C25 H32 0.930 . S
H26 C23 0.928 . S
H27 C24 0.931 . S
H28 C4 0.930 . S
H29 C1 0.930 . S
H30 C10 0.930 . S
H31 C22 0.929 . S
H32 C25 0.930 . S
C33 C34 1.351 . S
C33 N36 1.368 . S
C33 H38 0.931 . S
C34 C33 1.351 . S
C34 N35 1.373 . S
C34 H62 0.930 . S
N35 C34 1.373 . S
N35 C37 1.340 . S
N36 C33 1.368 . S
N36 C37 1.321 . S
N36 Co39 2.135 1_565 S
C37 N35 1.340 . S
C37 N36 1.321 . S
C37 H61 0.930 . S
H38 C33 0.931 . S
Co39 N36 2.135 1_545 S
Co39 N42 2.121 . S
Co39 O47 2.055 . S
Co39 O50 2.039 . S
Co39 N53 2.140 . S
C40 O41 1.227 . S
C40 O50 1.265 . S
O41 C40 1.227 . S
N42 Co39 2.121 . S
N42 C44 1.375 . S
N42 C45 1.313 . S
C43 C44 1.338 . S
C43 N46 1.377 . S
C43 H63 0.930 . S
C44 N42 1.375 . S
C44 C43 1.338 . S
C44 H48 0.931 . S
C45 N42 1.313 . S
C45 N46 1.344 . S
C45 H49 0.930 . S
N46 C43 1.377 . S
N46 C45 1.344 . S
O47 Co39 2.055 . S
O47 C51 1.253 . S
H48 C44 0.931 . S
H49 C45 0.930 . S
O50 Co39 2.039 . S
O50 C40 1.265 . S
C51 O47 1.253 . S
C51 O52 1.227 . S
O52 C51 1.227 . S
N53 Co39 2.140 . S
N53 C56 1.346 1_545 S
N53 C57 1.345 . S
C54 C55 1.387 1_545 S
C54 C58 1.391 . S
C55 C54 1.387 1_565 S
C55 C56 1.369 . S
C55 H64 0.929 . S
C56 N53 1.346 1_565 S
C56 C55 1.369 . S
C56 H59 0.928 . S
C57 N53 1.345 . S
C57 C58 1.371 . S
C57 H60 0.931 . S
C58 C54 1.391 . S
C58 C57 1.371 . S
C58 H65 0.930 . S
H59 C56 0.928 . S
H60 C57 0.931 . S
H61 C37 0.930 . S
H62 C34 0.930 . S
H63 C43 0.930 . S
H64 C55 0.929 . S
H65 C58 0.930 . S
C66 C67 1.351 . S
C66 N69 1.368 . S
C66 H71 0.931 . S
C67 C66 1.351 . S
C67 N68 1.373 . S
C67 H95 0.930 . S
N68 C67 1.373 . S
N68 C70 1.340 . S
N69 C66 1.368 . S
N69 C70 1.321 . S
N69 Co72 2.135 1_455 S
C70 N68 1.340 . S
C70 N69 1.321 . S
C70 H94 0.930 . S
H71 C66 0.931 . S
Co72 N69 2.135 1_655 S
Co72 N75 2.121 . S
Co72 O80 2.055 . S
Co72 O83 2.039 . S
Co72 N86 2.140 . S
C73 O74 1.227 . S
C73 O83 1.265 . S
O74 C73 1.227 . S
N75 Co72 2.121 . S
N75 C77 1.375 . S
N75 C78 1.313 . S
C76 C77 1.338 . S
C76 N79 1.377 . S
C76 H96 0.930 . S
C77 N75 1.375 . S
C77 C76 1.338 . S
C77 H81 0.931 . S
C78 N75 1.313 . S
C78 N79 1.344 . S
C78 H82 0.930 . S
N79 C76 1.377 . S
N79 C78 1.344 . S
O80 Co72 2.055 . S
O80 C84 1.253 . S
H81 C77 0.931 . S
H82 C78 0.930 . S
O83 Co72 2.039 . S
O83 C73 1.265 . S
C84 O80 1.253 . S
C84 O85 1.227 . S
O85 C84 1.227 . S
N86 Co72 2.140 . S
N86 C89 1.346 1_655 S
N86 C90 1.345 . S
C87 C88 1.387 1_655 S
C87 C91 1.391 . S
C88 C87 1.387 1_455 S
C88 C89 1.369 . S
C88 H97 0.929 . S
C89 N86 1.346 1_455 S
C89 C88 1.369 . S
C89 H92 0.928 . S
C90 N86 1.345 . S
C90 C91 1.371 . S
C90 H93 0.931 . S
C91 C87 1.391 . S
C91 C90 1.371 . S
C91 H98 0.930 . S
H92 C89 0.928 . S
H93 C90 0.931 . S
H94 C70 0.930 . S
H95 C67 0.930 . S
H96 C76 0.930 . S
H97 C88 0.929 . S
H98 C91 0.930 . S
C99 C100 1.351 . S
C99 N102 1.368 . S
C99 H104 0.931 . S
C100 C99 1.351 . S
C100 N101 1.373 . S
C100 H128 0.930 . S
N101 C100 1.373 . S
N101 C103 1.340 . S
N102 C99 1.368 . S
N102 C103 1.321 . S
N102 Co105 2.135 1_545 S
C103 N101 1.340 . S
C103 N102 1.321 . S
C103 H127 0.930 . S
H104 C99 0.931 . S
Co105 N102 2.135 1_565 S
Co105 N108 2.121 . S
Co105 O113 2.055 . S
Co105 O116 2.039 . S
Co105 N119 2.140 . S
C106 O107 1.227 . S
C106 O116 1.265 . S
O107 C106 1.227 . S
N108 Co105 2.121 . S
N108 C110 1.375 . S
N108 C111 1.313 . S
C109 C110 1.338 . S
C109 N112 1.377 . S
C109 H129 0.930 . S
C110 N108 1.375 . S
C110 C109 1.338 . S
C110 H114 0.931 . S
C111 N108 1.313 . S
C111 N112 1.344 . S
C111 H115 0.930 . S
N112 C109 1.377 . S
N112 C111 1.344 . S
O113 Co105 2.055 . S
O113 C117 1.253 . S
H114 C110 0.931 . S
H115 C111 0.930 . S
O116 Co105 2.039 . S
O116 C106 1.265 . S
C117 O113 1.253 . S
C117 O118 1.227 . S
O118 C117 1.227 . S
N119 Co105 2.140 . S
N119 C122 1.346 1_565 S
N119 C123 1.345 . S
C120 C121 1.387 1_565 S
C120 C124 1.391 . S
C121 C120 1.387 1_545 S
C121 C122 1.369 . S
C121 H130 0.929 . S
C122 N119 1.346 1_545 S
C122 C121 1.369 . S
C122 H125 0.928 . S
C123 N119 1.345 . S
C123 C124 1.371 . S
C123 H126 0.931 . S
C124 C120 1.391 . S
C124 C123 1.371 . S
C124 H131 0.930 . S
H125 C122 0.928 . S
H126 C123 0.931 . S
H127 C103 0.930 . S
H128 C100 0.930 . S
H129 C109 0.930 . S
H130 C121 0.929 . S
H131 C124 0.930 . S
C132 C133 1.351 . S
C132 N135 1.368 . S
C132 H137 0.931 . S
C133 C132 1.351 . S
C133 N134 1.373 . S
C133 H161 0.930 . S
N134 C133 1.373 . S
N134 C136 1.340 . S
N135 C132 1.368 . S
N135 C136 1.321 . S
N135 Co138 2.135 . S
C136 N134 1.340 . S
C136 N135 1.321 . S
C136 H160 0.930 . S
H137 C132 0.931 . S
Co138 N135 2.135 . S
Co138 N141 2.121 . S
Co138 O146 2.055 . S
Co138 O149 2.039 . S
Co138 N152 2.140 . S
C139 O140 1.227 . S
C139 O149 1.265 . S
O140 C139 1.227 . S
N141 Co138 2.121 . S
N141 C143 1.375 . S
N141 C144 1.313 . S
C142 C143 1.338 . S
C142 N145 1.377 . S
C142 H162 0.930 . S
C143 N141 1.375 . S
C143 C142 1.338 . S
C143 H147 0.931 . S
C144 N141 1.313 . S
C144 N145 1.344 . S
C144 H148 0.930 . S
N145 C142 1.377 . S
N145 C144 1.344 . S
O146 Co138 2.055 . S
O146 C150 1.253 . S
H147 C143 0.931 . S
H148 C144 0.930 . S
O149 Co138 2.039 . S
O149 C139 1.265 . S
C150 O146 1.253 . S
C150 O151 1.227 . S
O151 C150 1.227 . S
N152 Co138 2.140 . S
N152 C155 1.346 . S
N152 C156 1.345 . S
C153 C154 1.387 . S
C153 C157 1.391 . S
C154 C153 1.387 . S
C154 C155 1.369 . S
C154 H163 0.929 . S
C155 N152 1.346 . S
C155 C154 1.369 . S
C155 H158 0.928 . S
C156 N152 1.345 . S
C156 C157 1.371 . S
C156 H159 0.931 . S
C157 C153 1.391 . S
C157 C156 1.371 . S
C157 H164 0.930 . S
H158 C155 0.928 . S
H159 C156 0.931 . S
H160 C136 0.930 . S
H161 C133 0.930 . S
H162 C142 0.930 . S
H163 C154 0.929 . S
H164 C157 0.930 . S
C165 C166 1.351 . S
C165 N168 1.368 . S
C165 H170 0.931 . S
C166 C165 1.351 . S
C166 N167 1.373 . S
C166 H194 0.930 . S
N167 C166 1.373 . S
N167 C169 1.340 . S
N168 C165 1.368 . S
N168 C169 1.321 . S
N168 Co171 2.135 . S
C169 N167 1.340 . S
C169 N168 1.321 . S
C169 H193 0.930 . S
H170 C165 0.931 . S
Co171 N168 2.135 . S
Co171 N174 2.121 . S
Co171 O179 2.055 . S
Co171 O182 2.039 . S
Co171 N185 2.140 . S
C172 O173 1.227 . S
C172 O182 1.265 . S
O173 C172 1.227 . S
N174 Co171 2.121 . S
N174 C176 1.375 . S
N174 C177 1.313 . S
C175 C176 1.338 . S
C175 N178 1.377 . S
C175 H195 0.930 . S
C176 N174 1.375 . S
C176 C175 1.338 . S
C176 H180 0.931 . S
C177 N174 1.313 . S
C177 N178 1.344 . S
C177 H181 0.930 . S
N178 C175 1.377 . S
N178 C177 1.344 . S
O179 Co171 2.055 . S
O179 C183 1.253 . S
H180 C176 0.931 . S
H181 C177 0.930 . S
O182 Co171 2.039 . S
O182 C172 1.265 . S
C183 O179 1.253 . S
C183 O184 1.227 . S
O184 C183 1.227 . S
N185 Co171 2.140 . S
N185 C188 1.346 . S
N185 C189 1.345 . S
C186 C187 1.387 . S
C186 C190 1.391 . S
C187 C186 1.387 . S
C187 C188 1.369 . S
C187 H196 0.929 . S
C188 N185 1.346 . S
C188 C187 1.369 . S
C188 H191 0.928 . S
C189 N185 1.345 . S
C189 C190 1.371 . S
C189 H192 0.931 . S
C190 C186 1.391 . S
C190 C189 1.371 . S
C190 H197 0.930 . S
H191 C188 0.928 . S
H192 C189 0.931 . S
H193 C169 0.930 . S
H194 C166 0.930 . S
H195 C175 0.930 . S
H196 C187 0.929 . S
H197 C190 0.930 . S
C198 C199 1.351 . S
C198 N201 1.368 . S
C198 H203 0.931 . S
C199 C198 1.351 . S
C199 N200 1.373 . S
C199 H227 0.930 . S
N200 C199 1.373 . S
N200 C202 1.340 . S
N201 C198 1.368 . S
N201 C202 1.321 . S
N201 Co204 2.135 . S
C202 N200 1.340 . S
C202 N201 1.321 . S
C202 H226 0.930 . S
H203 C198 0.931 . S
Co204 N201 2.135 . S
Co204 N207 2.121 . S
Co204 O212 2.055 . S
Co204 O215 2.039 . S
Co204 N218 2.140 . S
C205 O206 1.227 . S
C205 O215 1.265 . S
O206 C205 1.227 . S
N207 Co204 2.121 . S
N207 C209 1.375 . S
N207 C210 1.313 . S
C208 C209 1.338 . S
C208 N211 1.377 . S
C208 H228 0.930 . S
C209 N207 1.375 . S
C209 C208 1.338 . S
C209 H213 0.931 . S
C210 N207 1.313 . S
C210 N211 1.344 . S
C210 H214 0.930 . S
N211 C208 1.377 . S
N211 C210 1.344 . S
O212 Co204 2.055 . S
O212 C216 1.253 . S
H213 C209 0.931 . S
H214 C210 0.930 . S
O215 Co204 2.039 . S
O215 C205 1.265 . S
C216 O212 1.253 . S
C216 O217 1.227 . S
O217 C216 1.227 . S
N218 Co204 2.140 . S
N218 C221 1.346 . S
N218 C222 1.345 . S
C219 C220 1.387 . S
C219 C223 1.391 . S
C220 C219 1.387 . S
C220 C221 1.369 . S
C220 H229 0.929 . S
C221 N218 1.346 . S
C221 C220 1.369 . S
C221 H224 0.928 . S
C222 N218 1.345 . S
C222 C223 1.371 . S
C222 H225 0.931 . S
C223 C219 1.391 . S
C223 C222 1.371 . S
C223 H230 0.930 . S
H224 C221 0.928 . S
H225 C222 0.931 . S
H226 C202 0.930 . S
H227 C199 0.930 . S
H228 C208 0.930 . S
H229 C220 0.929 . S
H230 C223 0.930 . S
C231 C232 1.351 . S
C231 N234 1.368 . S
C231 H236 0.931 . S
C232 C231 1.351 . S
C232 N233 1.373 . S
C232 H260 0.930 . S
N233 C232 1.373 . S
N233 C235 1.340 . S
N234 C231 1.368 . S
N234 C235 1.321 . S
N234 Co237 2.135 . S
C235 N233 1.340 . S
C235 N234 1.321 . S
C235 H259 0.930 . S
H236 C231 0.931 . S
Co237 N234 2.135 . S
Co237 N240 2.121 . S
Co237 O245 2.055 . S
Co237 O248 2.039 . S
Co237 N251 2.140 . S
C238 O239 1.227 . S
C238 O248 1.265 . S
O239 C238 1.227 . S
N240 Co237 2.121 . S
N240 C242 1.375 . S
N240 C243 1.313 . S
C241 C242 1.338 . S
C241 N244 1.377 . S
C241 H261 0.930 . S
C242 N240 1.375 . S
C242 C241 1.338 . S
C242 H246 0.931 . S
C243 N240 1.313 . S
C243 N244 1.344 . S
C243 H247 0.930 . S
N244 C241 1.377 . S
N244 C243 1.344 . S
O245 Co237 2.055 . S
O245 C249 1.253 . S
H246 C242 0.931 . S
H247 C243 0.930 . S
O248 Co237 2.039 . S
O248 C238 1.265 . S
C249 O245 1.253 . S
C249 O250 1.227 . S
O250 C249 1.227 . S
N251 Co237 2.140 . S
N251 C254 1.346 . S
N251 C255 1.345 . S
C252 C253 1.387 . S
C252 C256 1.391 . S
C253 C252 1.387 . S
C253 C254 1.369 . S
C253 H262 0.929 . S
C254 N251 1.346 . S
C254 C253 1.369 . S
C254 H257 0.928 . S
C255 N251 1.345 . S
C255 C256 1.371 . S
C255 H258 0.931 . S
C256 C252 1.391 . S
C256 C255 1.371 . S
C256 H263 0.930 . S
H257 C254 0.928 . S
H258 C255 0.931 . S
H259 C235 0.930 . S
H260 C232 0.930 . S
H261 C241 0.930 . S
H262 C253 0.929 . S
H263 C256 0.930 . S
C264 C265 1.351 . S
C264 N267 1.368 . S
C264 H269 0.931 . S
C265 C264 1.351 . S
C265 N266 1.373 . S
C265 H293 0.930 . S
N266 C265 1.373 . S
N266 C268 1.340 . S
N267 C264 1.368 . S
N267 C268 1.321 . S
N267 Co270 2.135 1_455 S
C268 N266 1.340 . S
C268 N267 1.321 . S
C268 H292 0.930 . S
H269 C264 0.931 . S
Co270 N267 2.135 1_655 S
Co270 N273 2.121 . S
Co270 O278 2.055 . S
Co270 O281 2.039 . S
Co270 N284 2.140 . S
C271 O272 1.227 . S
C271 O281 1.265 . S
O272 C271 1.227 . S
N273 Co270 2.121 . S
N273 C275 1.375 . S
N273 C276 1.313 . S
C274 C275 1.338 . S
C274 N277 1.377 . S
C274 H294 0.930 . S
C275 N273 1.375 . S
C275 C274 1.338 . S
C275 H279 0.931 . S
C276 N273 1.313 . S
C276 N277 1.344 . S
C276 H280 0.930 . S
N277 C274 1.377 . S
N277 C276 1.344 . S
O278 Co270 2.055 . S
O278 C282 1.253 . S
H279 C275 0.931 . S
H280 C276 0.930 . S
O281 Co270 2.039 . S
O281 C271 1.265 . S
C282 O278 1.253 . S
C282 O283 1.227 . S
O283 C282 1.227 . S
N284 Co270 2.140 . S
N284 C287 1.346 1_655 S
N284 C288 1.345 . S
C285 C286 1.387 1_655 S
C285 C289 1.391 . S
C286 C285 1.387 1_455 S
C286 C287 1.369 . S
C286 H295 0.929 . S
C287 N284 1.346 1_455 S
C287 C286 1.369 . S
C287 H290 0.928 . S
C288 N284 1.345 . S
C288 C289 1.371 . S
C288 H291 0.931 . S
C289 C285 1.391 . S
C289 C288 1.371 . S
C289 H296 0.930 . S
H290 C287 0.928 . S
H291 C288 0.931 . S
H292 C268 0.930 . S
H293 C265 0.930 . S
H294 C274 0.930 . S
H295 C286 0.929 . S
H296 C289 0.930 . S
C297 C298 1.351 . S
C297 N300 1.368 . S
C297 H302 0.931 . S
C298 C297 1.351 . S
C298 N299 1.373 . S
C298 H326 0.930 . S
N299 C298 1.373 . S
N299 C301 1.340 . S
N300 C297 1.368 . S
N300 C301 1.321 . S
N300 Co303 2.135 1_545 S
C301 N299 1.340 . S
C301 N300 1.321 . S
C301 H325 0.930 . S
H302 C297 0.931 . S
Co303 N300 2.135 1_565 S
Co303 N306 2.121 . S
Co303 O311 2.055 . S
Co303 O314 2.039 . S
Co303 N317 2.140 . S
C304 O305 1.227 . S
C304 O314 1.265 . S
O305 C304 1.227 . S
N306 Co303 2.121 . S
N306 C308 1.375 . S
N306 C309 1.313 . S
C307 C308 1.338 . S
C307 N310 1.377 . S
C307 H327 0.930 . S
C308 N306 1.375 . S
C308 C307 1.338 . S
C308 H312 0.931 . S
C309 N306 1.313 . S
C309 N310 1.344 . S
C309 H313 0.930 . S
N310 C307 1.377 . S
N310 C309 1.344 . S
O311 Co303 2.055 . S
O311 C315 1.253 . S
H312 C308 0.931 . S
H313 C309 0.930 . S
O314 Co303 2.039 . S
O314 C304 1.265 . S
C315 O311 1.253 . S
C315 O316 1.227 . S
O316 C315 1.227 . S
N317 Co303 2.140 . S
N317 C320 1.346 1_565 S
N317 C321 1.345 . S
C318 C319 1.387 1_565 S
C318 C322 1.391 . S
C319 C318 1.387 1_545 S
C319 C320 1.369 . S
C319 H328 0.929 . S
C320 N317 1.346 1_545 S
C320 C319 1.369 . S
C320 H323 0.928 . S
C321 N317 1.345 . S
C321 C322 1.371 . S
C321 H324 0.931 . S
C322 C318 1.391 . S
C322 C321 1.371 . S
C322 H329 0.930 . S
H323 C320 0.928 . S
H324 C321 0.931 . S
H325 C301 0.930 . S
H326 C298 0.930 . S
H327 C307 0.930 . S
H328 C319 0.929 . S
H329 C322 0.930 . S
C330 C331 1.351 . S
C330 N333 1.368 . S
C330 H335 0.931 . S
C331 C330 1.351 . S
C331 N332 1.373 . S
C331 H359 0.930 . S
N332 C331 1.373 . S
N332 C334 1.340 . S
N333 C330 1.368 . S
N333 C334 1.321 . S
N333 Co336 2.135 1_655 S
C334 N332 1.340 . S
C334 N333 1.321 . S
C334 H358 0.930 . S
H335 C330 0.931 . S
Co336 N333 2.135 1_455 S
Co336 N339 2.121 . S
Co336 O344 2.055 . S
Co336 O347 2.039 . S
Co336 N350 2.140 . S
C337 O338 1.227 . S
C337 O347 1.265 . S
O338 C337 1.227 . S
N339 Co336 2.121 . S
N339 C341 1.375 . S
N339 C342 1.313 . S
C340 C341 1.338 . S
C340 N343 1.377 . S
C340 H360 0.930 . S
C341 N339 1.375 . S
C341 C340 1.338 . S
C341 H345 0.931 . S
C342 N339 1.313 . S
C342 N343 1.344 . S
C342 H346 0.930 . S
N343 C340 1.377 . S
N343 C342 1.344 . S
O344 Co336 2.055 . S
O344 C348 1.253 . S
H345 C341 0.931 . S
H346 C342 0.930 . S
O347 Co336 2.039 . S
O347 C337 1.265 . S
C348 O344 1.253 . S
C348 O349 1.227 . S
O349 C348 1.227 . S
N350 Co336 2.140 . S
N350 C353 1.346 1_455 S
N350 C354 1.345 . S
C351 C352 1.387 1_455 S
C351 C355 1.391 . S
C352 C351 1.387 1_655 S
C352 C353 1.369 . S
C352 H361 0.929 . S
C353 N350 1.346 1_655 S
C353 C352 1.369 . S
C353 H356 0.928 . S
C354 N350 1.345 . S
C354 C355 1.371 . S
C354 H357 0.931 . S
C355 C351 1.391 . S
C355 C354 1.371 . S
C355 H362 0.930 . S
H356 C353 0.928 . S
H357 C354 0.931 . S
H358 C334 0.930 . S
H359 C331 0.930 . S
H360 C340 0.930 . S
H361 C352 0.929 . S
H362 C355 0.930 . S
C363 C364 1.351 . S
C363 N366 1.368 . S
C363 H368 0.931 . S
C364 C363 1.351 . S
C364 N365 1.373 . S
C364 H392 0.930 . S
N365 C364 1.373 . S
N365 C367 1.340 . S
N366 C363 1.368 . S
N366 C367 1.321 . S
N366 Co369 2.135 1_565 S
C367 N365 1.340 . S
C367 N366 1.321 . S
C367 H391 0.930 . S
H368 C363 0.931 . S
Co369 N366 2.135 1_545 S
Co369 N372 2.121 . S
Co369 O377 2.055 . S
Co369 O380 2.039 . S
Co369 N383 2.140 . S
C370 O371 1.227 . S
C370 O380 1.265 . S
O371 C370 1.227 . S
N372 Co369 2.121 . S
N372 C374 1.375 . S
N372 C375 1.313 . S
C373 C374 1.338 . S
C373 N376 1.377 . S
C373 H393 0.930 . S
C374 N372 1.375 . S
C374 C373 1.338 . S
C374 H378 0.931 . S
C375 N372 1.313 . S
C375 N376 1.344 . S
C375 H379 0.930 . S
N376 C373 1.377 . S
N376 C375 1.344 . S
O377 Co369 2.055 . S
O377 C381 1.253 . S
H378 C374 0.931 . S
H379 C375 0.930 . S
O380 Co369 2.039 . S
O380 C370 1.265 . S
C381 O377 1.253 . S
C381 O382 1.227 . S
O382 C381 1.227 . S
N383 Co369 2.140 . S
N383 C386 1.346 1_545 S
N383 C387 1.345 . S
C384 C385 1.387 1_545 S
C384 C388 1.391 . S
C385 C384 1.387 1_565 S
C385 C386 1.369 . S
C385 H394 0.929 . S
C386 N383 1.346 1_565 S
C386 C385 1.369 . S
C386 H389 0.928 . S
C387 N383 1.345 . S
C387 C388 1.371 . S
C387 H390 0.931 . S
C388 C384 1.391 . S
C388 C387 1.371 . S
C388 H395 0.930 . S
H389 C386 0.928 . S
H390 C387 0.931 . S
H391 C367 0.930 . S
H392 C364 0.930 . S
H393 C373 0.930 . S
H394 C385 0.929 . S
H395 C388 0.930 . S
C396 C397 1.351 . S
C396 N399 1.368 . S
C396 H401 0.931 . S
C397 C396 1.351 . S
C397 N398 1.373 . S
C397 H425 0.930 . S
N398 C397 1.373 . S
N398 C400 1.340 . S
N399 C396 1.368 . S
N399 C400 1.321 . S
N399 Co402 2.135 . S
C400 N398 1.340 . S
C400 N399 1.321 . S
C400 H424 0.930 . S
H401 C396 0.931 . S
Co402 N399 2.135 . S
Co402 N405 2.121 . S
Co402 O410 2.055 . S
Co402 O413 2.039 . S
Co402 N416 2.140 . S
C403 O404 1.227 . S
C403 O413 1.265 . S
O404 C403 1.227 . S
N405 Co402 2.121 . S
N405 C407 1.375 . S
N405 C408 1.313 . S
C406 C407 1.338 . S
C406 N409 1.377 . S
C406 H426 0.930 . S
C407 N405 1.375 . S
C407 C406 1.338 . S
C407 H411 0.931 . S
C408 N405 1.313 . S
C408 N409 1.344 . S
C408 H412 0.930 . S
N409 C406 1.377 . S
N409 C408 1.344 . S
O410 Co402 2.055 . S
O410 C414 1.253 . S
H411 C407 0.931 . S
H412 C408 0.930 . S
O413 Co402 2.039 . S
O413 C403 1.265 . S
C414 O410 1.253 . S
C414 O415 1.227 . S
O415 C414 1.227 . S
N416 Co402 2.140 . S
N416 C419 1.346 . S
N416 C420 1.345 . S
C417 C418 1.387 . S
C417 C421 1.391 . S
C418 C417 1.387 . S
C418 C419 1.369 . S
C418 H427 0.929 . S
C419 N416 1.346 . S
C419 C418 1.369 . S
C419 H422 0.928 . S
C420 N416 1.345 . S
C420 C421 1.371 . S
C420 H423 0.931 . S
C421 C417 1.391 . S
C421 C420 1.371 . S
C421 H428 0.930 . S
H422 C419 0.928 . S
H423 C420 0.931 . S
H424 C400 0.930 . S
H425 C397 0.930 . S
H426 C406 0.930 . S
H427 C418 0.929 . S
H428 C421 0.930 . S
C429 C430 1.351 . S
C429 N432 1.368 . S
C429 H434 0.931 . S
C430 C429 1.351 . S
C430 N431 1.373 . S
C430 H458 0.930 . S
N431 C430 1.373 . S
N431 C433 1.340 . S
N432 C429 1.368 . S
N432 C433 1.321 . S
N432 Co435 2.135 . S
C433 N431 1.340 . S
C433 N432 1.321 . S
C433 H457 0.930 . S
H434 C429 0.931 . S
Co435 N432 2.135 . S
Co435 N438 2.121 . S
Co435 O443 2.055 . S
Co435 O446 2.039 . S
Co435 N449 2.140 . S
C436 O437 1.227 . S
C436 O446 1.265 . S
O437 C436 1.227 . S
N438 Co435 2.121 . S
N438 C440 1.375 . S
N438 C441 1.313 . S
C439 C440 1.338 . S
C439 N442 1.377 . S
C439 H459 0.930 . S
C440 N438 1.375 . S
C440 C439 1.338 . S
C440 H444 0.931 . S
C441 N438 1.313 . S
C441 N442 1.344 . S
C441 H445 0.930 . S
N442 C439 1.377 . S
N442 C441 1.344 . S
O443 Co435 2.055 . S
O443 C447 1.253 . S
H444 C440 0.931 . S
H445 C441 0.930 . S
O446 Co435 2.039 . S
O446 C436 1.265 . S
C447 O443 1.253 . S
C447 O448 1.227 . S
O448 C447 1.227 . S
N449 Co435 2.140 . S
N449 C452 1.346 . S
N449 C453 1.345 . S
C450 C451 1.387 . S
C450 C454 1.391 . S
C451 C450 1.387 . S
C451 C452 1.369 . S
C451 H460 0.929 . S
C452 N449 1.346 . S
C452 C451 1.369 . S
C452 H455 0.928 . S
C453 N449 1.345 . S
C453 C454 1.371 . S
C453 H456 0.931 . S
C454 C450 1.391 . S
C454 C453 1.371 . S
C454 H461 0.930 . S
H455 C452 0.928 . S
H456 C453 0.931 . S
H457 C433 0.930 . S
H458 C430 0.930 . S
H459 C439 0.930 . S
H460 C451 0.929 . S
H461 C454 0.930 . S
C462 C463 1.351 . S
C462 N465 1.368 . S
C462 H467 0.931 . S
C463 C462 1.351 . S
C463 N464 1.373 . S
C463 H491 0.930 . S
N464 C463 1.373 . S
N464 C466 1.340 . S
N465 C462 1.368 . S
N465 C466 1.321 . S
N465 Co468 2.135 . S
C466 N464 1.340 . S
C466 N465 1.321 . S
C466 H490 0.930 . S
H467 C462 0.931 . S
Co468 N465 2.135 . S
Co468 N471 2.121 . S
Co468 O476 2.055 . S
Co468 O479 2.039 . S
Co468 N482 2.140 . S
C469 O470 1.227 . S
C469 O479 1.265 . S
O470 C469 1.227 . S
N471 Co468 2.121 . S
N471 C473 1.375 . S
N471 C474 1.313 . S
C472 C473 1.338 . S
C472 N475 1.377 . S
C472 H492 0.930 . S
C473 N471 1.375 . S
C473 C472 1.338 . S
C473 H477 0.931 . S
C474 N471 1.313 . S
C474 N475 1.344 . S
C474 H478 0.930 . S
N475 C472 1.377 . S
N475 C474 1.344 . S
O476 Co468 2.055 . S
O476 C480 1.253 . S
H477 C473 0.931 . S
H478 C474 0.930 . S
O479 Co468 2.039 . S
O479 C469 1.265 . S
C480 O476 1.253 . S
C480 O481 1.227 . S
O481 C480 1.227 . S
N482 Co468 2.140 . S
N482 C485 1.346 . S
N482 C486 1.345 . S
C483 C484 1.387 . S
C483 C487 1.391 . S
C484 C483 1.387 . S
C484 C485 1.369 . S
C484 H493 0.929 . S
C485 N482 1.346 . S
C485 C484 1.369 . S
C485 H488 0.928 . S
C486 N482 1.345 . S
C486 C487 1.371 . S
C486 H489 0.931 . S
C487 C483 1.391 . S
C487 C486 1.371 . S
C487 H494 0.930 . S
H488 C485 0.928 . S
H489 C486 0.931 . S
H490 C466 0.930 . S
H491 C463 0.930 . S
H492 C472 0.930 . S
H493 C484 0.929 . S
H494 C487 0.930 . S
C495 C496 1.351 . S
C495 N498 1.368 . S
C495 H500 0.931 . S
C496 C495 1.351 . S
C496 N497 1.373 . S
C496 H524 0.930 . S
N497 C496 1.373 . S
N497 C499 1.340 . S
N498 C495 1.368 . S
N498 C499 1.321 . S
N498 Co501 2.135 . S
C499 N497 1.340 . S
C499 N498 1.321 . S
C499 H523 0.930 . S
H500 C495 0.931 . S
Co501 N498 2.135 . S
Co501 N504 2.121 . S
Co501 O509 2.055 . S
Co501 O512 2.039 . S
Co501 N515 2.140 . S
C502 O503 1.227 . S
C502 O512 1.265 . S
O503 C502 1.227 . S
N504 Co501 2.121 . S
N504 C506 1.375 . S
N504 C507 1.313 . S
C505 C506 1.338 . S
C505 N508 1.377 . S
C505 H525 0.930 . S
C506 N504 1.375 . S
C506 C505 1.338 . S
C506 H510 0.931 . S
C507 N504 1.313 . S
C507 N508 1.344 . S
C507 H511 0.930 . S
N508 C505 1.377 . S
N508 C507 1.344 . S
O509 Co501 2.055 . S
O509 C513 1.253 . S
H510 C506 0.931 . S
H511 C507 0.930 . S
O512 Co501 2.039 . S
O512 C502 1.265 . S
C513 O509 1.253 . S
C513 O514 1.227 . S
O514 C513 1.227 . S
N515 Co501 2.140 . S
N515 C518 1.346 . S
N515 C519 1.345 . S
C516 C517 1.387 . S
C516 C520 1.391 . S
C517 C516 1.387 . S
C517 C518 1.369 . S
C517 H526 0.929 . S
C518 N515 1.346 . S
C518 C517 1.369 . S
C518 H521 0.928 . S
C519 N515 1.345 . S
C519 C520 1.371 . S
C519 H522 0.931 . S
C520 C516 1.391 . S
C520 C519 1.371 . S
C520 H527 0.930 . S
H521 C518 0.928 . S
H522 C519 0.931 . S
H523 C499 0.930 . S
H524 C496 0.930 . S
H525 C505 0.930 . S
H526 C517 0.929 . S
H527 C520 0.930 . S
H528 C534 0.930 . S
H529 C537 0.930 . S
H530 C538 0.930 . S
H531 C539 0.930 . S
H532 C542 0.930 . S
H533 C543 0.930 . S
C534 H528 0.930 . S
C534 C535 1.355 . S
C534 C536 1.415 . S
C535 C534 1.355 . S
C535 C537 1.419 1_455 S
C536 C534 1.415 . S
C536 C541 1.425 1_445 S
C536 C543 1.409 1_545 S
C537 H529 0.930 . S
C537 C535 1.419 1_655 S
C537 C538 1.362 . S
C538 H530 0.930 . S
C538 C537 1.362 . S
C538 C541 1.409 1_545 S
C539 H531 0.930 . S
C539 C540 1.355 . S
C539 C541 1.415 . S
C540 C539 1.355 . S
C540 C542 1.419 1_655 S
C541 C536 1.425 1_665 S
C541 C538 1.409 1_565 S
C541 C539 1.415 . S
C542 H532 0.930 . S
C542 C540 1.419 1_455 S
C542 C543 1.362 . S
C543 H533 0.930 . S
C543 C536 1.409 1_565 S
C543 C542 1.362 . S
H544 C550 0.930 . S
H545 C553 0.930 . S
H546 C554 0.930 1_655 S
H547 C555 0.930 . S
H548 C558 0.930 . S
H549 C559 0.930 1_455 S
C550 H544 0.930 . S
C550 C551 1.355 1_545 S
C550 C552 1.415 . S
C551 C550 1.355 1_565 S
C551 C553 1.419 . S
C552 C550 1.415 . S
C552 C557 1.425 1_445 S
C552 C559 1.409 1_455 S
C553 H545 0.930 . S
C553 C551 1.419 . S
C553 C554 1.362 . S
C554 H546 0.930 1_455 S
C554 C553 1.362 . S
C554 C557 1.409 1_455 S
C555 H547 0.930 . S
C555 C556 1.355 1_565 S
C555 C557 1.415 . S
C556 C555 1.355 1_545 S
C556 C558 1.419 . S
C557 C552 1.425 1_665 S
C557 C554 1.409 1_655 S
C557 C555 1.415 . S
C558 H548 0.930 . S
C558 C556 1.419 . S
C558 C559 1.362 . S
C559 H549 0.930 1_655 S
C559 C552 1.409 1_655 S
C559 C558 1.362 . S
H560 C566 0.930 . S
H561 C569 0.930 . S
H562 C570 0.930 . S
H563 C571 0.930 . S
H564 C574 0.930 . S
H565 C575 0.930 . S
C566 H560 0.930 . S
C566 C567 1.355 . S
C566 C568 1.415 . S
C567 C566 1.355 . S
C567 C569 1.419 . S
C568 C566 1.415 . S
C568 C573 1.425 . S
C568 C575 1.409 . S
C569 H561 0.930 . S
C569 C567 1.419 . S
C569 C570 1.362 . S
C570 H562 0.930 . S
C570 C569 1.362 . S
C570 C573 1.409 . S
C571 H563 0.930 . S
C571 C572 1.355 . S
C571 C573 1.415 . S
C572 C571 1.355 . S
C572 C574 1.419 . S
C573 C568 1.425 . S
C573 C570 1.409 . S
C573 C571 1.415 . S
C574 H564 0.930 . S
C574 C572 1.419 . S
C574 C575 1.362 . S
C575 H565 0.930 . S
C575 C568 1.409 . S
C575 C574 1.362 . S
H576 C582 0.930 . S
H577 C585 0.930 . S
H578 C586 0.930 . S
H579 C587 0.930 . S
H580 C590 0.930 . S
H581 C591 0.930 . S
C582 H576 0.930 . S
C582 C583 1.355 . S
C582 C584 1.415 . S
C583 C582 1.355 . S
C583 C585 1.419 . S
C584 C582 1.415 . S
C584 C589 1.425 . S
C584 C591 1.409 . S
C585 H577 0.930 . S
C585 C583 1.419 . S
C585 C586 1.362 . S
C586 H578 0.930 . S
C586 C585 1.362 . S
C586 C589 1.409 . S
C587 H579 0.930 . S
C587 C588 1.355 . S
C587 C589 1.415 . S
C588 C587 1.355 . S
C588 C590 1.419 . S
C589 C584 1.425 . S
C589 C586 1.409 . S
C589 C587 1.415 . S
C590 H580 0.930 . S
C590 C588 1.419 . S
C590 C591 1.362 . S
C591 H581 0.930 . S
C591 C584 1.409 . S
C591 C590 1.362 . S
H592 C598 0.930 . S
H593 C601 0.930 . S
H594 C602 0.930 . S
H595 C603 0.930 . S
H596 C606 0.930 . S
H597 C607 0.930 . S
C598 H592 0.930 . S
C598 C599 1.355 . S
C598 C600 1.415 . S
C599 C598 1.355 . S
C599 C601 1.419 1_455 S
C600 C598 1.415 . S
C600 C605 1.425 1_445 S
C600 C607 1.409 1_545 S
C601 H593 0.930 . S
C601 C599 1.419 1_655 S
C601 C602 1.362 . S
C602 H594 0.930 . S
C602 C601 1.362 . S
C602 C605 1.409 1_545 S
C603 H595 0.930 . S
C603 C604 1.355 . S
C603 C605 1.415 . S
C604 C603 1.355 . S
C604 C606 1.419 1_655 S
C605 C600 1.425 1_665 S
C605 C602 1.409 1_565 S
C605 C603 1.415 . S
C606 H596 0.930 . S
C606 C604 1.419 1_455 S
C606 C607 1.362 . S
C607 H597 0.930 . S
C607 C600 1.409 1_565 S
C607 C606 1.362 . S
H608 C614 0.930 . S
H609 C617 0.930 . S
H610 C618 0.930 1_655 S
H611 C619 0.930 . S
H612 C622 0.930 . S
H613 C623 0.930 1_455 S
C614 H608 0.930 . S
C614 C615 1.355 1_545 S
C614 C616 1.415 . S
C615 C614 1.355 1_565 S
C615 C617 1.419 . S
C616 C614 1.415 . S
C616 C621 1.425 1_445 S
C616 C623 1.409 1_455 S
C617 H609 0.930 . S
C617 C615 1.419 . S
C617 C618 1.362 . S
C618 H610 0.930 1_455 S
C618 C617 1.362 . S
C618 C621 1.409 1_455 S
C619 H611 0.930 . S
C619 C620 1.355 1_565 S
C619 C621 1.415 . S
C620 C619 1.355 1_545 S
C620 C622 1.419 . S
C621 C616 1.425 1_665 S
C621 C618 1.409 1_655 S
C621 C619 1.415 . S
C622 H612 0.930 . S
C622 C620 1.419 . S
C622 C623 1.362 . S
C623 H613 0.930 1_655 S
C623 C616 1.409 1_655 S
C623 C622 1.362 . S
H624 C630 0.930 . S
H625 C633 0.930 . S
H626 C634 0.930 . S
H627 C635 0.930 . S
H628 C638 0.930 . S
H629 C639 0.930 . S
C630 H624 0.930 . S
C630 C631 1.355 . S
C630 C632 1.415 . S
C631 C630 1.355 . S
C631 C633 1.419 . S
C632 C630 1.415 . S
C632 C637 1.425 . S
C632 C639 1.409 . S
C633 H625 0.930 . S
C633 C631 1.419 . S
C633 C634 1.362 . S
C634 H626 0.930 . S
C634 C633 1.362 . S
C634 C637 1.409 . S
C635 H627 0.930 . S
C635 C636 1.355 . S
C635 C637 1.415 . S
C636 C635 1.355 . S
C636 C638 1.419 . S
C637 C632 1.425 . S
C637 C634 1.409 . S
C637 C635 1.415 . S
C638 H628 0.930 . S
C638 C636 1.419 . S
C638 C639 1.362 . S
C639 H629 0.930 . S
C639 C632 1.409 . S
C639 C638 1.362 . S
H640 C646 0.930 . S
H641 C649 0.930 . S
H642 C650 0.930 . S
H643 C651 0.930 . S
H644 C654 0.930 . S
H645 C655 0.930 . S
C646 H640 0.930 . S
C646 C647 1.355 . S
C646 C648 1.415 . S
C647 C646 1.355 . S
C647 C649 1.419 . S
C648 C646 1.415 . S
C648 C653 1.425 . S
C648 C655 1.409 . S
C649 H641 0.930 . S
C649 C647 1.419 . S
C649 C650 1.362 . S
C650 H642 0.930 . S
C650 C649 1.362 . S
C650 C653 1.409 . S
C651 H643 0.930 . S
C651 C652 1.355 . S
C651 C653 1.415 . S
C652 C651 1.355 . S
C652 C654 1.419 . S
C653 C648 1.425 . S
C653 C650 1.409 . S
C653 C651 1.415 . S
C654 H644 0.930 . S
C654 C652 1.419 . S
C654 C655 1.362 . S
C655 H645 0.930 . S
C655 C648 1.409 . S
C655 C654 1.362 . S
H656 C662 0.930 . S
H657 C665 0.930 . S
H658 C666 0.930 . S
H659 C667 0.930 1_655 S
H660 C670 0.930 . S
H661 C671 0.930 . S
C662 H656 0.930 . S
C662 C663 1.355 . S
C662 C664 1.415 . S
C663 C662 1.355 . S
C663 C665 1.419 1_455 S
C664 C662 1.415 . S
C664 C669 1.425 1_554 S
C664 C671 1.409 1_554 S
C665 H657 0.930 . S
C665 C663 1.419 1_655 S
C665 C666 1.362 . S
C666 H658 0.930 . S
C666 C665 1.362 . S
C666 C669 1.409 1_654 S
C667 H659 0.930 1_455 S
C667 C668 1.355 . S
C667 C669 1.415 . S
C668 C667 1.355 . S
C668 C670 1.419 . S
C669 C664 1.425 1_556 S
C669 C666 1.409 1_456 S
C669 C667 1.415 . S
C670 H660 0.930 . S
C670 C668 1.419 . S
C670 C671 1.362 . S
C671 H661 0.930 . S
C671 C664 1.409 1_556 S
C671 C670 1.362 . S
H672 C678 0.930 . S
H673 C681 0.930 . S
H674 C682 0.930 . S
H675 C683 0.930 . S
H676 C686 0.930 . S
H677 C687 0.930 . S
C678 H672 0.930 . S
C678 C679 1.355 . S
C678 C680 1.415 . S
C679 C678 1.355 . S
C679 C681 1.419 1_545 S
C680 C678 1.415 . S
C680 C685 1.425 . S
C680 C687 1.409 . S
C681 H673 0.930 . S
C681 C679 1.419 1_565 S
C681 C682 1.362 . S
C682 H674 0.930 . S
C682 C681 1.362 . S
C682 C685 1.409 1_565 S
C683 H675 0.930 . S
C683 C684 1.355 1_565 S
C683 C685 1.415 1_565 S
C684 C683 1.355 1_545 S
C684 C686 1.419 . S
C685 C680 1.425 . S
C685 C682 1.409 1_545 S
C685 C683 1.415 1_545 S
C686 H676 0.930 . S
C686 C684 1.419 . S
C686 C687 1.362 . S
C687 H677 0.930 . S
C687 C680 1.409 . S
C687 C686 1.362 . S
H688 C694 0.930 . S
H689 C697 0.930 . S
H690 C698 0.930 . S
H691 C699 0.930 . S
H692 C702 0.930 . S
H693 C703 0.930 . S
C694 H688 0.930 . S
C694 C695 1.355 . S
C694 C696 1.415 . S
C695 C694 1.355 . S
C695 C697 1.419 1_655 S
C696 C694 1.415 . S
C696 C701 1.425 1_556 S
C696 C703 1.409 1_556 S
C697 H689 0.930 . S
C697 C695 1.419 1_455 S
C697 C698 1.362 . S
C698 H690 0.930 . S
C698 C697 1.362 . S
C698 C701 1.409 1_456 S
C699 H691 0.930 . S
C699 C700 1.355 1_455 S
C699 C701 1.415 1_455 S
C700 C699 1.355 1_655 S
C700 C702 1.419 . S
C701 C696 1.425 1_554 S
C701 C698 1.409 1_654 S
C701 C699 1.415 1_655 S
C702 H692 0.930 . S
C702 C700 1.419 . S
C702 C703 1.362 . S
C703 H693 0.930 . S
C703 C696 1.409 1_554 S
C703 C702 1.362 . S
H704 C710 0.930 1_545 S
H705 C713 0.930 . S
H706 C714 0.930 . S
H707 C715 0.930 . S
H708 C718 0.930 . S
H709 C719 0.930 . S
C710 H704 0.930 1_565 S
C710 C711 1.355 . S
C710 C712 1.415 . S
C711 C710 1.355 . S
C711 C713 1.419 . S
C712 C710 1.415 . S
C712 C717 1.425 . S
C712 C719 1.409 1_565 S
C713 H705 0.930 . S
C713 C711 1.419 . S
C713 C714 1.362 . S
C714 H706 0.930 . S
C714 C713 1.362 . S
C714 C717 1.409 . S
C715 H707 0.930 . S
C715 C716 1.355 . S
C715 C717 1.415 . S
C716 C715 1.355 . S
C716 C718 1.419 1_565 S
C717 C712 1.425 . S
C717 C714 1.409 . S
C717 C715 1.415 . S
C718 H708 0.930 . S
C718 C716 1.419 1_545 S
C718 C719 1.362 . S
C719 H709 0.930 . S
C719 C712 1.409 1_545 S
C719 C718 1.362 . S
H720 C726 0.930 . S
H721 C729 0.930 . S
H722 C730 0.930 . S
H723 C731 0.930 . S
H724 C734 0.930 . S
H725 C735 0.930 . S
C726 H720 0.930 . S
C726 C727 1.355 . S
C726 C728 1.415 . S
C727 C726 1.355 . S
C727 C729 1.419 . S
C728 C726 1.415 . S
C728 C733 1.425 1_554 S
C728 C735 1.409 1_554 S
C729 H721 0.930 . S
C729 C727 1.419 . S
C729 C730 1.362 . S
C730 H722 0.930 . S
C730 C729 1.362 . S
C730 C733 1.409 1_554 S
C731 H723 0.930 . S
C731 C732 1.355 . S
C731 C733 1.415 . S
C732 C731 1.355 . S
C732 C734 1.419 . S
C733 C728 1.425 1_556 S
C733 C730 1.409 1_556 S
C733 C731 1.415 . S
C734 H724 0.930 . S
C734 C732 1.419 . S
C734 C735 1.362 . S
C735 H725 0.930 . S
C735 C728 1.409 1_556 S
C735 C734 1.362 . S
H736 C742 0.930 . S
H737 C745 0.930 . S
H738 C746 0.930 . S
H739 C747 0.930 . S
H740 C750 0.930 . S
H741 C751 0.930 . S
C742 H736 0.930 . S
C742 C743 1.355 . S
C742 C744 1.415 . S
C743 C742 1.355 . S
C743 C745 1.419 . S
C744 C742 1.415 . S
C744 C749 1.425 . S
C744 C751 1.409 . S
C745 H737 0.930 . S
C745 C743 1.419 . S
C745 C746 1.362 . S
C746 H738 0.930 . S
C746 C745 1.362 . S
C746 C749 1.409 . S
C747 H739 0.930 . S
C747 C748 1.355 . S
C747 C749 1.415 . S
C748 C747 1.355 . S
C748 C750 1.419 . S
C749 C744 1.425 . S
C749 C746 1.409 . S
C749 C747 1.415 . S
C750 H740 0.930 . S
C750 C748 1.419 . S
C750 C751 1.362 . S
C751 H741 0.930 . S
C751 C744 1.409 . S
C751 C750 1.362 . S
H752 C758 0.930 . S
H753 C761 0.930 . S
H754 C762 0.930 . S
H755 C763 0.930 . S
H756 C766 0.930 . S
H757 C767 0.930 . S
C758 H752 0.930 . S
C758 C759 1.355 . S
C758 C760 1.415 . S
C759 C758 1.355 . S
C759 C761 1.419 . S
C760 C758 1.415 . S
C760 C765 1.425 1_554 S
C760 C767 1.409 1_554 S
C761 H753 0.930 . S
C761 C759 1.419 . S
C761 C762 1.362 . S
C762 H754 0.930 . S
C762 C761 1.362 . S
C762 C765 1.409 1_554 S
C763 H755 0.930 . S
C763 C764 1.355 . S
C763 C765 1.415 . S
C764 C763 1.355 . S
C764 C766 1.419 . S
C765 C760 1.425 1_556 S
C765 C762 1.409 1_556 S
C765 C763 1.415 . S
C766 H756 0.930 . S
C766 C764 1.419 . S
C766 C767 1.362 . S
C767 H757 0.930 . S
C767 C760 1.409 1_556 S
C767 C766 1.362 . S
H768 C774 0.930 . S
H769 C777 0.930 . S
H770 C778 0.930 . S
H771 C779 0.930 . S
H772 C782 0.930 . S
H773 C783 0.930 . S
C774 H768 0.930 . S
C774 C775 1.355 . S
C774 C776 1.415 . S
C775 C774 1.355 . S
C775 C777 1.419 . S
C776 C774 1.415 . S
C776 C781 1.425 . S
C776 C783 1.409 . S
C777 H769 0.930 . S
C777 C775 1.419 . S
C777 C778 1.362 . S
C778 H770 0.930 . S
C778 C777 1.362 . S
C778 C781 1.409 . S
C779 H771 0.930 . S
C779 C780 1.355 . S
C779 C781 1.415 . S
C780 C779 1.355 . S
C780 C782 1.419 . S
C781 C776 1.425 . S
C781 C778 1.409 . S
C781 C779 1.415 . S
C782 H772 0.930 . S
C782 C780 1.419 . S
C782 C783 1.362 . S
C783 H773 0.930 . S
C783 C776 1.409 . S
C783 C782 1.362 . S
H784 C790 0.930 . S
H785 C793 0.930 . S
H786 C794 0.930 . S
H787 C795 0.930 . S
H788 C798 0.930 . S
H789 C799 0.930 . S
C790 H784 0.930 . S
C790 C791 1.355 . S
C790 C792 1.415 . S
C791 C790 1.355 . S
C791 C793 1.419 . S
C792 C790 1.415 . S
C792 C797 1.425 . S
C792 C799 1.409 . S
C793 H785 0.930 . S
C793 C791 1.419 . S
C793 C794 1.362 . S
C794 H786 0.930 . S
C794 C793 1.362 . S
C794 C797 1.409 . S
C795 H787 0.930 . S
C795 C796 1.355 . S
C795 C797 1.415 . S
C796 C795 1.355 . S
C796 C798 1.419 . S
C797 C792 1.425 . S
C797 C794 1.409 . S
C797 C795 1.415 . S
C798 H788 0.930 . S
C798 C796 1.419 . S
C798 C799 1.362 . S
C799 H789 0.930 . S
C799 C792 1.409 . S
C799 C798 1.362 . S
H800 C806 0.930 . S
H801 C809 0.930 . S
H802 C810 0.930 . S
H803 C811 0.930 . S
H804 C814 0.930 . S
H805 C815 0.930 . S
C806 H800 0.930 . S
C806 C807 1.355 . S
C806 C808 1.415 . S
C807 C806 1.355 . S
C807 C809 1.419 . S
C808 C806 1.415 . S
C808 C813 1.425 . S
C808 C815 1.409 . S
C809 H801 0.930 . S
C809 C807 1.419 . S
C809 C810 1.362 . S
C810 H802 0.930 . S
C810 C809 1.362 . S
C810 C813 1.409 . S
C811 H803 0.930 . S
C811 C812 1.355 . S
C811 C813 1.415 . S
C812 C811 1.355 . S
C812 C814 1.419 . S
C813 C808 1.425 . S
C813 C810 1.409 . S
C813 C811 1.415 . S
C814 H804 0.930 . S
C814 C812 1.419 . S
C814 C815 1.362 . S
C815 H805 0.930 . S
C815 C808 1.409 . S
C815 C814 1.362 . S
H816 C822 0.930 . S
H817 C825 0.930 . S
H818 C826 0.930 . S
H819 C827 0.930 . S
H820 C830 0.930 . S
H821 C831 0.930 . S
C822 H816 0.930 . S
C822 C823 1.355 . S
C822 C824 1.415 . S
C823 C822 1.355 . S
C823 C825 1.419 . S
C824 C822 1.415 . S
C824 C829 1.425 . S
C824 C831 1.409 . S
C825 H817 0.930 . S
C825 C823 1.419 . S
C825 C826 1.362 . S
C826 H818 0.930 . S
C826 C825 1.362 . S
C826 C829 1.409 . S
C827 H819 0.930 . S
C827 C828 1.355 . S
C827 C829 1.415 . S
C828 C827 1.355 . S
C828 C830 1.419 . S
C829 C824 1.425 . S
C829 C826 1.409 . S
C829 C827 1.415 . S
C830 H820 0.930 . S
C830 C828 1.419 . S
C830 C831 1.362 . S
C831 H821 0.930 . S
C831 C824 1.409 . S
C831 C830 1.362 . S
H832 C838 0.930 . S
H833 C841 0.930 . S
H834 C842 0.930 . S
H835 C843 0.930 . S
H836 C846 0.930 . S
H837 C847 0.930 . S
C838 H832 0.930 . S
C838 C839 1.355 . S
C838 C840 1.415 . S
C839 C838 1.355 . S
C839 C841 1.419 . S
C840 C838 1.415 . S
C840 C845 1.425 . S
C840 C847 1.409 . S
C841 H833 0.930 . S
C841 C839 1.419 . S
C841 C842 1.362 . S
C842 H834 0.930 . S
C842 C841 1.362 . S
C842 C845 1.409 . S
C843 H835 0.930 . S
C843 C844 1.355 . S
C843 C845 1.415 . S
C844 C843 1.355 . S
C844 C846 1.419 . S
C845 C840 1.425 . S
C845 C842 1.409 . S
C845 C843 1.415 . S
C846 H836 0.930 . S
C846 C844 1.419 . S
C846 C847 1.362 . S
C847 H837 0.930 . S
C847 C840 1.409 . S
C847 C846 1.362 . S
H848 C854 0.930 . S
H849 C857 0.930 . S
H850 C858 0.930 . S
H851 C859 0.930 . S
H852 C862 0.930 . S
H853 C863 0.930 . S
C854 H848 0.930 . S
C854 C855 1.355 . S
C854 C856 1.415 . S
C855 C854 1.355 . S
C855 C857 1.419 . S
C856 C854 1.415 . S
C856 C861 1.425 . S
C856 C863 1.409 . S
C857 H849 0.930 . S
C857 C855 1.419 . S
C857 C858 1.362 . S
C858 H850 0.930 . S
C858 C857 1.362 . S
C858 C861 1.409 . S
C859 H851 0.930 . S
C859 C860 1.355 . S
C859 C861 1.415 . S
C860 C859 1.355 . S
C860 C862 1.419 . S
C861 C856 1.425 . S
C861 C858 1.409 . S
C861 C859 1.415 . S
C862 H852 0.930 . S
C862 C860 1.419 . S
C862 C863 1.362 . S
C863 H853 0.930 . S
C863 C856 1.409 . S
C863 C862 1.362 . S
H864 C870 0.930 . S
H865 C873 0.930 . S
H866 C874 0.930 . S
H867 C875 0.930 . S
H868 C878 0.930 . S
H869 C879 0.930 . S
C870 H864 0.930 . S
C870 C871 1.355 . S
C870 C872 1.415 . S
C871 C870 1.355 . S
C871 C873 1.419 . S
C872 C870 1.415 . S
C872 C877 1.425 . S
C872 C879 1.409 . S
C873 H865 0.930 . S
C873 C871 1.419 . S
C873 C874 1.362 . S
C874 H866 0.930 . S
C874 C873 1.362 . S
C874 C877 1.409 . S
C875 H867 0.930 . S
C875 C876 1.355 . S
C875 C877 1.415 . S
C876 C875 1.355 . S
C876 C878 1.419 . S
C877 C872 1.425 . S
C877 C874 1.409 . S
C877 C875 1.415 . S
C878 H868 0.930 . S
C878 C876 1.419 . S
C878 C879 1.362 . S
C879 H869 0.930 . S
C879 C872 1.409 . S
C879 C878 1.362 . S
H880 C886 0.930 . S
H881 C889 0.930 . S
H882 C890 0.930 . S
H883 C891 0.930 . S
H884 C894 0.930 . S
H885 C895 0.930 . S
C886 H880 0.930 . S
C886 C887 1.355 . S
C886 C888 1.415 . S
C887 C886 1.355 . S
C887 C889 1.419 . S
C888 C886 1.415 . S
C888 C893 1.425 . S
C888 C895 1.409 . S
C889 H881 0.930 . S
C889 C887 1.419 . S
C889 C890 1.362 . S
C890 H882 0.930 . S
C890 C889 1.362 . S
C890 C893 1.409 . S
C891 H883 0.930 . S
C891 C892 1.355 . S
C891 C893 1.415 . S
C892 C891 1.355 . S
C892 C894 1.419 . S
C893 C888 1.425 . S
C893 C890 1.409 . S
C893 C891 1.415 . S
C894 H884 0.930 . S
C894 C892 1.419 . S
C894 C895 1.362 . S
C895 H885 0.930 . S
C895 C888 1.409 . S
C895 C894 1.362 . S
H896 C902 0.930 . S
H897 C905 0.930 . S
H898 C906 0.930 . S
H899 C907 0.930 . S
H900 C910 0.930 . S
H901 C911 0.930 . S
C902 H896 0.930 . S
C902 C903 1.355 . S
C902 C904 1.415 . S
C903 C902 1.355 . S
C903 C905 1.419 . S
C904 C902 1.415 . S
C904 C909 1.425 . S
C904 C911 1.409 . S
C905 H897 0.930 . S
C905 C903 1.419 . S
C905 C906 1.362 . S
C906 H898 0.930 . S
C906 C905 1.362 . S
C906 C909 1.409 . S
C907 H899 0.930 . S
C907 C908 1.355 . S
C907 C909 1.415 . S
C908 C907 1.355 . S
C908 C910 1.419 . S
C909 C904 1.425 . S
C909 C906 1.409 . S
C909 C907 1.415 . S
C910 H900 0.930 . S
C910 C908 1.419 . S
C910 C911 1.362 . S
C911 H901 0.930 . S
C911 C904 1.409 . S
C911 C910 1.362 . S
H912 C918 0.930 . S
H913 C921 0.930 . S
H914 C922 0.930 . S
H915 C923 0.930 . S
H916 C926 0.930 . S
H917 C927 0.930 . S
C918 H912 0.930 . S
C918 C919 1.355 . S
C918 C920 1.415 . S
C919 C918 1.355 . S
C919 C921 1.419 . S
C920 C918 1.415 . S
C920 C925 1.425 . S
C920 C927 1.409 . S
C921 H913 0.930 . S
C921 C919 1.419 . S
C921 C922 1.362 . S
C922 H914 0.930 . S
C922 C921 1.362 . S
C922 C925 1.409 . S
C923 H915 0.930 . S
C923 C924 1.355 . S
C923 C925 1.415 . S
C924 C923 1.355 . S
C924 C926 1.419 . S
C925 C920 1.425 . S
C925 C922 1.409 . S
C925 C923 1.415 . S
C926 H916 0.930 . S
C926 C924 1.419 . S
C926 C927 1.362 . S
C927 H917 0.930 . S
C927 C920 1.409 . S
C927 C926 1.362 . S
H928 C934 0.930 . S
H929 C937 0.930 . S
H930 C938 0.930 . S
H931 C939 0.930 . S
H932 C942 0.930 . S
H933 C943 0.930 . S
C934 H928 0.930 . S
C934 C935 1.355 . S
C934 C936 1.415 . S
C935 C934 1.355 . S
C935 C937 1.419 . S
C936 C934 1.415 . S
C936 C941 1.425 . S
C936 C943 1.409 . S
C937 H929 0.930 . S
C937 C935 1.419 . S
C937 C938 1.362 . S
C938 H930 0.930 . S
C938 C937 1.362 . S
C938 C941 1.409 . S
C939 H931 0.930 . S
C939 C940 1.355 . S
C939 C941 1.415 . S
C940 C939 1.355 . S
C940 C942 1.419 . S
C941 C936 1.425 . S
C941 C938 1.409 . S
C941 C939 1.415 . S
C942 H932 0.930 . S
C942 C940 1.419 . S
C942 C943 1.362 . S
C943 H933 0.930 . S
C943 C936 1.409 . S
C943 C942 1.362 . S
H944 C950 0.930 . S
H945 C953 0.930 . S
H946 C954 0.930 . S
H947 C955 0.930 . S
H948 C958 0.930 . S
H949 C959 0.930 . S
C950 H944 0.930 . S
C950 C951 1.355 . S
C950 C952 1.415 . S
C951 C950 1.355 . S
C951 C953 1.419 . S
C952 C950 1.415 . S
C952 C957 1.425 . S
C952 C959 1.409 . S
C953 H945 0.930 . S
C953 C951 1.419 . S
C953 C954 1.362 . S
C954 H946 0.930 . S
C954 C953 1.362 . S
C954 C957 1.409 . S
C955 H947 0.930 . S
C955 C956 1.355 . S
C955 C957 1.415 . S
C956 C955 1.355 . S
C956 C958 1.419 . S
C957 C952 1.425 . S
C957 C954 1.409 . S
C957 C955 1.415 . S
C958 H948 0.930 . S
C958 C956 1.419 . S
C958 C959 1.362 . S
C959 H949 0.930 . S
C959 C952 1.409 . S
C959 C958 1.362 . S
H960 C966 0.930 . S
H961 C969 0.930 . S
H962 C970 0.930 . S
H963 C971 0.930 . S
H964 C974 0.930 . S
H965 C975 0.930 . S
C966 H960 0.930 . S
C966 C967 1.355 . S
C966 C968 1.415 . S
C967 C966 1.355 . S
C967 C969 1.419 . S
C968 C966 1.415 . S
C968 C973 1.425 . S
C968 C975 1.409 . S
C969 H961 0.930 . S
C969 C967 1.419 . S
C969 C970 1.362 . S
C970 H962 0.930 . S
C970 C969 1.362 . S
C970 C973 1.409 . S
C971 H963 0.930 . S
C971 C972 1.355 . S
C971 C973 1.415 . S
C972 C971 1.355 . S
C972 C974 1.419 . S
C973 C968 1.425 . S
C973 C970 1.409 . S
C973 C971 1.415 . S
C974 H964 0.930 . S
C974 C972 1.419 . S
C974 C975 1.362 . S
C975 H965 0.930 . S
C975 C968 1.409 . S
C975 C974 1.362 . S
H976 C982 0.930 . S
H977 C985 0.930 . S
H978 C986 0.930 . S
H979 C987 0.930 . S
H980 C990 0.930 . S
H981 C991 0.930 . S
C982 H976 0.930 . S
C982 C983 1.355 . S
C982 C984 1.415 . S
C983 C982 1.355 . S
C983 C985 1.419 . S
C984 C982 1.415 . S
C984 C989 1.425 . S
C984 C991 1.409 . S
C985 H977 0.930 . S
C985 C983 1.419 . S
C985 C986 1.362 . S
C986 H978 0.930 . S
C986 C985 1.362 . S
C986 C989 1.409 . S
C987 H979 0.930 . S
C987 C988 1.355 . S
C987 C989 1.415 . S
C988 C987 1.355 . S
C988 C990 1.419 . S
C989 C984 1.425 . S
C989 C986 1.409 . S
C989 C987 1.415 . S
C990 H980 0.930 . S
C990 C988 1.419 . S
C990 C991 1.362 . S
C991 H981 0.930 . S
C991 C984 1.409 . S
C991 C990 1.362 . S
H992 C998 0.930 . S
H993 C1001 0.930 . S
H994 C1002 0.930 . S
H995 C1003 0.930 . S
H996 C1006 0.930 . S
H997 C1007 0.930 . S
C998 H992 0.930 . S
C998 C999 1.355 . S
C998 C1000 1.415 . S
C999 C998 1.355 . S
C999 C1001 1.419 . S
C1000 C998 1.415 . S
C1000 C1005 1.425 . S
C1000 C1007 1.409 . S
C1001 H993 0.930 . S
C1001 C999 1.419 . S
C1001 C1002 1.362 . S
C1002 H994 0.930 . S
C1002 C1001 1.362 . S
C1002 C1005 1.409 . S
C1003 H995 0.930 . S
C1003 C1004 1.355 . S
C1003 C1005 1.415 . S
C1004 C1003 1.355 . S
C1004 C1006 1.419 . S
C1005 C1000 1.425 . S
C1005 C1002 1.409 . S
C1005 C1003 1.415 . S
C1006 H996 0.930 . S
C1006 C1004 1.419 . S
C1006 C1007 1.362 . S
C1007 H997 0.930 . S
C1007 C1000 1.409 . S
C1007 C1006 1.362 . S
H1008 C1014 0.930 . S
H1009 C1017 0.930 . S
H1010 C1018 0.930 . S
H1011 C1019 0.930 . S
H1012 C1022 0.930 . S
H1013 C1023 0.930 . S
C1014 H1008 0.930 . S
C1014 C1015 1.355 . S
C1014 C1016 1.415 . S
C1015 C1014 1.355 . S
C1015 C1017 1.419 . S
C1016 C1014 1.415 . S
C1016 C1021 1.425 . S
C1016 C1023 1.409 . S
C1017 H1009 0.930 . S
C1017 C1015 1.419 . S
C1017 C1018 1.362 . S
C1018 H1010 0.930 . S
C1018 C1017 1.362 . S
C1018 C1021 1.409 . S
C1019 H1011 0.930 . S
C1019 C1020 1.355 . S
C1019 C1021 1.415 . S
C1020 C1019 1.355 . S
C1020 C1022 1.419 . S
C1021 C1016 1.425 . S
C1021 C1018 1.409 . S
C1021 C1019 1.415 . S
C1022 H1012 0.930 . S
C1022 C1020 1.419 . S
C1022 C1023 1.362 . S
C1023 H1013 0.930 . S
C1023 C1016 1.409 . S
C1023 C1022 1.362 . S
H1024 C1030 0.930 . S
H1025 C1033 0.930 . S
H1026 C1034 0.930 . S
H1027 C1035 0.930 . S
H1028 C1038 0.930 . S
H1029 C1039 0.930 . S
C1030 H1024 0.930 . S
C1030 C1031 1.355 . S
C1030 C1032 1.415 . S
C1031 C1030 1.355 . S
C1031 C1033 1.419 . S
C1032 C1030 1.415 . S
C1032 C1037 1.425 . S
C1032 C1039 1.409 . S
C1033 H1025 0.930 . S
C1033 C1031 1.419 . S
C1033 C1034 1.362 . S
C1034 H1026 0.930 . S
C1034 C1033 1.362 . S
C1034 C1037 1.409 . S
C1035 H1027 0.930 . S
C1035 C1036 1.355 . S
C1035 C1037 1.415 . S
C1036 C1035 1.355 . S
C1036 C1038 1.419 . S
C1037 C1032 1.425 . S
C1037 C1034 1.409 . S
C1037 C1035 1.415 . S
C1038 H1028 0.930 . S
C1038 C1036 1.419 . S
C1038 C1039 1.362 . S
C1039 H1029 0.930 . S
C1039 C1032 1.409 . S
C1039 C1038 1.362 . S
H1040 C1046 0.930 . S
H1041 C1049 0.930 . S
H1042 C1050 0.930 . S
H1043 C1051 0.930 . S
H1044 C1054 0.930 . S
H1045 C1055 0.930 . S
C1046 H1040 0.930 . S
C1046 C1047 1.355 . S
C1046 C1048 1.415 . S
C1047 C1046 1.355 . S
C1047 C1049 1.419 . S
C1048 C1046 1.415 . S
C1048 C1053 1.425 . S
C1048 C1055 1.409 . S
C1049 H1041 0.930 . S
C1049 C1047 1.419 . S
C1049 C1050 1.362 . S
C1050 H1042 0.930 . S
C1050 C1049 1.362 . S
C1050 C1053 1.409 . S
C1051 H1043 0.930 . S
C1051 C1052 1.355 . S
C1051 C1053 1.415 . S
C1052 C1051 1.355 . S
C1052 C1054 1.419 . S
C1053 C1048 1.425 . S
C1053 C1050 1.409 . S
C1053 C1051 1.415 . S
C1054 H1044 0.930 . S
C1054 C1052 1.419 . S
C1054 C1055 1.362 . S
C1055 H1045 0.930 . S
C1055 C1048 1.409 . S
C1055 C1054 1.362 . S
H1056 C1062 0.930 . S
H1057 C1065 0.930 . S
H1058 C1066 0.930 . S
H1059 C1067 0.930 . S
H1060 C1070 0.930 . S
H1061 C1071 0.930 . S
C1062 H1056 0.930 . S
C1062 C1063 1.355 . S
C1062 C1064 1.415 . S
C1063 C1062 1.355 . S
C1063 C1065 1.419 . S
C1064 C1062 1.415 . S
C1064 C1069 1.425 . S
C1064 C1071 1.409 . S
C1065 H1057 0.930 . S
C1065 C1063 1.419 . S
C1065 C1066 1.362 . S
C1066 H1058 0.930 . S
C1066 C1065 1.362 . S
C1066 C1069 1.409 . S
C1067 H1059 0.930 . S
C1067 C1068 1.355 . S
C1067 C1069 1.415 . S
C1068 C1067 1.355 . S
C1068 C1070 1.419 . S
C1069 C1064 1.425 . S
C1069 C1066 1.409 . S
C1069 C1067 1.415 . S
C1070 H1060 0.930 . S
C1070 C1068 1.419 . S
C1070 C1071 1.362 . S
C1071 H1061 0.930 . S
C1071 C1064 1.409 . S
C1071 C1070 1.362 . S
H1072 C1078 0.930 . S
H1073 C1081 0.930 . S
H1074 C1082 0.930 . S
H1075 C1083 0.930 . S
H1076 C1086 0.930 . S
H1077 C1087 0.930 . S
C1078 H1072 0.930 . S
C1078 C1079 1.355 . S
C1078 C1080 1.415 . S
C1079 C1078 1.355 . S
C1079 C1081 1.419 . S
C1080 C1078 1.415 . S
C1080 C1085 1.425 . S
C1080 C1087 1.409 . S
C1081 H1073 0.930 . S
C1081 C1079 1.419 . S
C1081 C1082 1.362 . S
C1082 H1074 0.930 . S
C1082 C1081 1.362 . S
C1082 C1085 1.409 . S
C1083 H1075 0.930 . S
C1083 C1084 1.355 . S
C1083 C1085 1.415 . S
C1084 C1083 1.355 . S
C1084 C1086 1.419 . S
C1085 C1080 1.425 . S
C1085 C1082 1.409 . S
C1085 C1083 1.415 . S
C1086 H1076 0.930 . S
C1086 C1084 1.419 . S
C1086 C1087 1.362 . S
C1087 H1077 0.930 . S
C1087 C1080 1.409 . S
C1087 C1086 1.362 . S
H1088 C1094 0.930 . S
H1089 C1097 0.930 . S
H1090 C1098 0.930 . S
H1091 C1099 0.930 . S
H1092 C1102 0.930 . S
H1093 C1103 0.930 . S
C1094 H1088 0.930 . S
C1094 C1095 1.355 . S
C1094 C1096 1.415 . S
C1095 C1094 1.355 . S
C1095 C1097 1.419 . S
C1096 C1094 1.415 . S
C1096 C1101 1.425 . S
C1096 C1103 1.409 . S
C1097 H1089 0.930 . S
C1097 C1095 1.419 . S
C1097 C1098 1.362 . S
C1098 H1090 0.930 . S
C1098 C1097 1.362 . S
C1098 C1101 1.409 . S
C1099 H1091 0.930 . S
C1099 C1100 1.355 . S
C1099 C1101 1.415 . S
C1100 C1099 1.355 . S
C1100 C1102 1.419 . S
C1101 C1096 1.425 . S
C1101 C1098 1.409 . S
C1101 C1099 1.415 . S
C1102 H1092 0.930 . S
C1102 C1100 1.419 . S
C1102 C1103 1.362 . S
C1103 H1093 0.930 . S
C1103 C1096 1.409 . S
C1103 C1102 1.362 . S
H1104 C1110 0.930 . S
H1105 C1113 0.930 . S
H1106 C1114 0.930 . S
H1107 C1115 0.930 . S
H1108 C1118 0.930 . S
H1109 C1119 0.930 . S
C1110 H1104 0.930 . S
C1110 C1111 1.355 . S
C1110 C1112 1.415 . S
C1111 C1110 1.355 . S
C1111 C1113 1.419 . S
C1112 C1110 1.415 . S
C1112 C1117 1.425 . S
C1112 C1119 1.409 . S
C1113 H1105 0.930 . S
C1113 C1111 1.419 . S
C1113 C1114 1.362 . S
C1114 H1106 0.930 . S
C1114 C1113 1.362 . S
C1114 C1117 1.409 . S
C1115 H1107 0.930 . S
C1115 C1116 1.355 . S
C1115 C1117 1.415 . S
C1116 C1115 1.355 . S
C1116 C1118 1.419 . S
C1117 C1112 1.425 . S
C1117 C1114 1.409 . S
C1117 C1115 1.415 . S
C1118 H1108 0.930 . S
C1118 C1116 1.419 . S
C1118 C1119 1.362 . S
C1119 H1109 0.930 . S
C1119 C1112 1.409 . S
C1119 C1118 1.362 . S
H1120 C1126 0.930 . S
H1121 C1129 0.930 . S
H1122 C1130 0.930 . S
H1123 C1131 0.930 . S
H1124 C1134 0.930 . S
H1125 C1135 0.930 . S
C1126 H1120 0.930 . S
C1126 C1127 1.355 . S
C1126 C1128 1.415 . S
C1127 C1126 1.355 . S
C1127 C1129 1.419 . S
C1128 C1126 1.415 . S
C1128 C1133 1.425 . S
C1128 C1135 1.409 . S
C1129 H1121 0.930 . S
C1129 C1127 1.419 . S
C1129 C1130 1.362 . S
C1130 H1122 0.930 . S
C1130 C1129 1.362 . S
C1130 C1133 1.409 . S
C1131 H1123 0.930 . S
C1131 C1132 1.355 . S
C1131 C1133 1.415 . S
C1132 C1131 1.355 . S
C1132 C1134 1.419 . S
C1133 C1128 1.425 . S
C1133 C1130 1.409 . S
C1133 C1131 1.415 . S
C1134 H1124 0.930 . S
C1134 C1132 1.419 . S
C1134 C1135 1.362 . S
C1135 H1125 0.930 . S
C1135 C1128 1.409 . S
C1135 C1134 1.362 . S
H1136 C1142 0.930 . S
H1137 C1145 0.930 . S
H1138 C1146 0.930 . S
H1139 C1147 0.930 . S
H1140 C1150 0.930 . S
H1141 C1151 0.930 . S
C1142 H1136 0.930 . S
C1142 C1143 1.355 . S
C1142 C1144 1.415 . S
C1143 C1142 1.355 . S
C1143 C1145 1.419 . S
C1144 C1142 1.415 . S
C1144 C1149 1.425 . S
C1144 C1151 1.409 . S
C1145 H1137 0.930 . S
C1145 C1143 1.419 . S
C1145 C1146 1.362 . S
C1146 H1138 0.930 . S
C1146 C1145 1.362 . S
C1146 C1149 1.409 . S
C1147 H1139 0.930 . S
C1147 C1148 1.355 . S
C1147 C1149 1.415 . S
C1148 C1147 1.355 . S
C1148 C1150 1.419 . S
C1149 C1144 1.425 . S
C1149 C1146 1.409 . S
C1149 C1147 1.415 . S
C1150 H1140 0.930 . S
C1150 C1148 1.419 . S
C1150 C1151 1.362 . S
C1151 H1141 0.930 . S
C1151 C1144 1.409 . S
C1151 C1150 1.362 . S
H1152 C1158 0.930 . S
H1153 C1161 0.930 . S
H1154 C1162 0.930 . S
H1155 C1163 0.930 . S
H1156 C1166 0.930 . S
H1157 C1167 0.930 . S
C1158 H1152 0.930 . S
C1158 C1159 1.355 . S
C1158 C1160 1.415 . S
C1159 C1158 1.355 . S
C1159 C1161 1.419 . S
C1160 C1158 1.415 . S
C1160 C1165 1.425 . S
C1160 C1167 1.409 . S
C1161 H1153 0.930 . S
C1161 C1159 1.419 . S
C1161 C1162 1.362 . S
C1162 H1154 0.930 . S
C1162 C1161 1.362 . S
C1162 C1165 1.409 . S
C1163 H1155 0.930 . S
C1163 C1164 1.355 . S
C1163 C1165 1.415 . S
C1164 C1163 1.355 . S
C1164 C1166 1.419 . S
C1165 C1160 1.425 . S
C1165 C1162 1.409 . S
C1165 C1163 1.415 . S
C1166 H1156 0.930 . S
C1166 C1164 1.419 . S
C1166 C1167 1.362 . S
C1167 H1157 0.930 . S
C1167 C1160 1.409 . S
C1167 C1166 1.362 . S
C535 C21 1.347 . S
C540 C87 1.366 . S
C551 C120 1.366 . S
C556 C54 1.362 . S
C567 C219 1.346 . S
C572 C153 1.369 . S
C583 C186 1.366 . S
C588 C252 1.362 . S
C599 C351 1.363 . S
C604 C285 1.349 . S
C615 C318 1.364 . S
C620 C384 1.364 . S
C631 C483 1.360 . S
C636 C417 1.352 . S
C647 C450 1.353 . S
C652 C516 1.372 . S
C663 C7 1.499 . S
C668 C337 1.518 . S
C679 C370 1.498 . S
C684 C40 1.520 . S
C695 C271 1.493 . S
C700 C73 1.524 . S
C711 C304 1.531 . S
C716 C106 1.486 . S
C727 C469 1.531 . S
C732 C139 1.486 . S
C743 C502 1.522 . S
C748 C172 1.495 . S
C759 C403 1.491 . S
C764 C205 1.526 . S
C775 C436 1.491 . S
C780 C238 1.526 . S
C791 C18 1.370 . S
C796 C249 1.344 . S
C807 C51 1.329 . S
C812 C150 1.372 . S
C823 C183 1.343 . S
C828 C84 1.370 . S
C839 C216 1.359 . S
C844 C117 1.316 . S
C855 C282 1.321 . S
C860 C513 1.369 . S
C871 C315 1.371 . S
C876 C414 1.340 . S
C887 C348 1.372 . S
C892 C447 1.334 . S
C903 C381 1.353 . S
C908 C480 1.316 . S
C919 N464 1.309 . S
C924 N13 1.296 . S
C935 N46 1.325 . S
C940 N497 1.327 . S
C951 N398 1.296 . S
C956 N79 1.299 . S
C967 N431 1.269 . S
C972 N112 1.264 . S
C983 N332 1.272 . S
C988 N145 1.261 . S
C999 N178 1.310 . S
C1004 N365 1.320 . S
C1015 N266 1.303 . S
C1020 N211 1.306 . S
C1031 N244 1.302 . S
C1036 N299 1.299 . S
C1047 N200 1.315 . S
C1052 N277 1.317 . S
C1063 N233 1.307 . S
C1068 N310 1.311 . S
C1079 N134 1.314 . S
C1084 N343 1.317 . S
C1095 N376 1.309 . S
C1100 N167 1.305 . S
C1111 N68 1.287 . S
C1116 N409 1.273 . S
C1127 N442 1.268 . S
C1132 N101 1.281 . S
C1143 N475 1.287 . S
C1148 N2 1.286 . S
C1159 N35 1.285 . S
C1164 N508 1.272 . S
