# Generated by pormake.
# Topology wjn, (5)-cn, num edge types: 1
# Building blocks:
#     Node 0, Type 0, BuildingBlock: BEQFEK_clean_sbu_0, # of connection points: 5
#     Node 1, Type 0, BuildingBlock: BEQFEK_clean_sbu_0, # of connection points: 5
#     Node 2, Type 0, BuildingBlock: BEQFEK_clean_sbu_0, # of connection points: 5
#     Node 3, Type 0, BuildingBlock: BEQFEK_clean_sbu_0, # of connection points: 5
#     Node 4, Type 0, BuildingBlock: BEQFEK_clean_sbu_0, # of connection points: 5
#     Node 5, Type 0, BuildingBlock: BEQFEK_clean_sbu_0, # of connection points: 5
#     Node 6, Type 0, BuildingBlock: BEQFEK_clean_sbu_0, # of connection points: 5
#     Node 7, Type 0, BuildingBlock: BEQFEK_clean_sbu_0, # of connection points: 5
#     Node 8, Type 0, BuildingBlock: BEQFEK_clean_sbu_0, # of connection points: 5
#     Node 9, Type 0, BuildingBlock: BEQFEK_clean_sbu_0, # of connection points: 5
#     Node 10, Type 0, BuildingBlock: BEQFEK_clean_sbu_0, # of connection points: 5
#     Node 11, Type 0, BuildingBlock: BEQFEK_clean_sbu_0, # of connection points: 5
#     Edge 12, Type (0, 0), BuildingBlock: CIFDUS_clean_linker_0, # of connection points: 2
#     Edge 13, Type (0, 0), BuildingBlock: CIFDUS_clean_linker_0, # of connection points: 2
#     Edge 14, Type (0, 0), BuildingBlock: CIFDUS_clean_linker_0, # of connection points: 2
#     Edge 15, Type (0, 0), BuildingBlock: CIFDUS_clean_linker_0, # of connection points: 2
#     Edge 16, Type (0, 0), BuildingBlock: CIFDUS_clean_linker_0, # of connection points: 2
#     Edge 17, Type (0, 0), BuildingBlock: CIFDUS_clean_linker_0, # of connection points: 2
#     Edge 18, Type (0, 0), BuildingBlock: CIFDUS_clean_linker_0, # of connection points: 2
#     Edge 19, Type (0, 0), BuildingBlock: CIFDUS_clean_linker_0, # of connection points: 2
#     Edge 20, Type (0, 0), BuildingBlock: CIFDUS_clean_linker_0, # of connection points: 2
#     Edge 21, Type (0, 0), BuildingBlock: CIFDUS_clean_linker_0, # of connection points: 2
#     Edge 22, Type (0, 0), BuildingBlock: CIFDUS_clean_linker_0, # of connection points: 2
#     Edge 23, Type (0, 0), BuildingBlock: CIFDUS_clean_linker_0, # of connection points: 2
#     Edge 24, Type (0, 0), BuildingBlock: CIFDUS_clean_linker_0, # of connection points: 2
#     Edge 25, Type (0, 0), BuildingBlock: CIFDUS_clean_linker_0, # of connection points: 2
#     Edge 26, Type (0, 0), BuildingBlock: CIFDUS_clean_linker_0, # of connection points: 2
#     Edge 27, Type (0, 0), BuildingBlock: CIFDUS_clean_linker_0, # of connection points: 2
#     Edge 28, Type (0, 0), BuildingBlock: CIFDUS_clean_linker_0, # of connection points: 2
#     Edge 29, Type (0, 0), BuildingBlock: CIFDUS_clean_linker_0, # of connection points: 2
#     Edge 30, Type (0, 0), BuildingBlock: CIFDUS_clean_linker_0, # of connection points: 2
#     Edge 31, Type (0, 0), BuildingBlock: CIFDUS_clean_linker_0, # of connection points: 2
#     Edge 32, Type (0, 0), BuildingBlock: CIFDUS_clean_linker_0, # of connection points: 2
#     Edge 33, Type (0, 0), BuildingBlock: CIFDUS_clean_linker_0, # of connection points: 2
#     Edge 34, Type (0, 0), BuildingBlock: CIFDUS_clean_linker_0, # of connection points: 2
#     Edge 35, Type (0, 0), BuildingBlock: CIFDUS_clean_linker_0, # of connection points: 2
#     Edge 36, Type (0, 0), BuildingBlock: CIFDUS_clean_linker_0, # of connection points: 2
#     Edge 37, Type (0, 0), BuildingBlock: CIFDUS_clean_linker_0, # of connection points: 2
#     Edge 38, Type (0, 0), BuildingBlock: CIFDUS_clean_linker_0, # of connection points: 2
#     Edge 39, Type (0, 0), BuildingBlock: CIFDUS_clean_linker_0, # of connection points: 2
#     Edge 40, Type (0, 0), BuildingBlock: CIFDUS_clean_linker_0, # of connection points: 2
#     Edge 41, Type (0, 0), BuildingBlock: CIFDUS_clean_linker_0, # of connection points: 2
# Relax obj value: 0.387
# Max RMSD: 0.202
# Mean RMSD: 0.202
data_MOF--net-wjn--node1-BEQFEK_clean_sbu_0--edge1-CIFDUS_clean_linker_0
_symmetry_space_group_name_H-M    P1
_symmetry_Int_Tables_number       1
_symmetry_cell_setting            triclinic
loop_
_symmetry_equiv_pos_as_xyz
'x, y, z'
_cell_length_a     31.548908
_cell_length_b     31.770446
_cell_length_c     66.493541
_cell_angle_alpha  89.954727
_cell_angle_beta   89.936107
_cell_angle_gamma 120.15716
loop_
_atom_site_label
_atom_site_type_symbol
_atom_site_fract_x
_atom_site_fract_y
_atom_site_fract_z
_atom_type_partial_charge
Co0 Co 0.15974 0.46613 0.1055 0.0
Co1 Co 0.22736 0.4347 0.12618 0.0
C2 C 0.23052 0.53089 0.13542 0.0
O3 O 0.1989 0.52317 0.12202 0.0
O4 O 0.24377 0.49969 0.13908 0.0
C5 C 0.12726 0.5199 0.08184 0.0
O6 O 0.17011 0.55842 0.0856 0.0
C7 C 0.32801 0.455 0.13121 0.0
C8 C 0.31917 0.38925 0.1463 0.0
C9 C 0.35465 0.43435 0.1389 0.0
N10 N 0.27982 0.42378 0.13408 0.0
N11 N 0.27478 0.38456 0.14316 0.0
C12 C 0.347 0.5022 0.12019 0.0
H13 H 0.31738 0.50234 0.11127 0.0
H14 H 0.37769 0.50856 0.11008 0.0
H15 H 0.36037 0.53238 0.13122 0.0
C16 C 0.19861 0.44919 0.06876 0.0
N17 N 0.1979 0.45174 0.0889 0.0
N18 N 0.22514 0.43558 0.09687 0.0
C19 C 0.24367 0.42127 0.08161 0.0
C20 C 0.22674 0.42899 0.06335 0.0
C21 C 0.17482 0.4683 0.05484 0.0
H22 H 0.13443 0.44651 0.05656 0.0
H23 H 0.18761 0.50669 0.05869 0.0
H24 H 0.1844 0.4677 0.03886 0.0
O25 O 0.11602 0.40866 0.12184 0.0
O26 O 0.16078 0.38224 0.1372 0.0
H27 H 0.27322 0.37715 0.07093 0.0
H28 H 0.31336 0.42766 0.08672 0.0
C29 C 0.27479 0.39853 0.0844 0.0
H30 H 0.26263 0.37476 0.0979 0.0
H31 H 0.2411 0.35451 0.14711 0.0
O32 O 0.1168 0.4789 0.08913 0.0
C33 C 0.11913 0.37831 0.13335 0.0
Co34 Co 0.71438 0.12122 0.4465 0.0
Co35 Co 0.80716 0.21682 0.45994 0.0
C36 C 0.70645 0.20004 0.46841 0.0
O37 O 0.68774 0.15951 0.45927 0.0
O38 O 0.75275 0.2269 0.4702 0.0
C39 C 0.63584 0.07811 0.42098 0.0
O40 O 0.64991 0.12413 0.41773 0.0
C41 C 0.87826 0.32214 0.46651 0.0
C42 C 0.94889 0.32458 0.46233 0.0
C43 C 0.92878 0.35391 0.46591 0.0
N44 N 0.86919 0.27648 0.46308 0.0
N45 N 0.9117 0.27834 0.46071 0.0
C46 C 0.83925 0.33409 0.47158 0.0
H47 H 0.81511 0.30894 0.48345 0.0
H48 H 0.81655 0.32886 0.45805 0.0
H49 H 0.85476 0.37179 0.47723 0.0
C50 C 0.76334 0.14504 0.40787 0.0
N51 N 0.76179 0.1556 0.42729 0.0
N52 N 0.79891 0.19883 0.43157 0.0
C53 C 0.82381 0.21859 0.4142 0.0
C54 C 0.80132 0.18501 0.3986 0.0
C55 C 0.73335 0.0954 0.39877 0.0
H56 H 0.72165 0.06678 0.41046 0.0
H57 H 0.7007 0.09253 0.39123 0.0
H58 H 0.75494 0.0891 0.38719 0.0
O59 O 0.74013 0.09641 0.46644 0.0
O60 O 0.80607 0.16306 0.47775 0.0
H61 H 0.90037 0.26838 0.41732 0.0
H62 H 0.87222 0.28209 0.39668 0.0
C63 C 0.86699 0.26885 0.41245 0.0
H64 H 0.86204 0.29404 0.42242 0.0
H65 H 0.91528 0.24806 0.45766 0.0
O66 O 0.65909 0.06722 0.43348 0.0
C67 C 0.77684 0.11683 0.47807 0.0
Co68 Co 0.60795 0.7241 0.77506 0.0
Co69 Co 0.58163 0.79781 0.79298 0.0
C70 C 0.51211 0.69391 0.79843 0.0
O71 O 0.54339 0.68689 0.78914 0.0
O72 O 0.51976 0.73693 0.80091 0.0
C73 C 0.58101 0.6519 0.74672 0.0
O74 O 0.54585 0.6621 0.74402 0.0
C75 C 0.53881 0.85895 0.80589 0.0
C76 C 0.59458 0.93006 0.79366 0.0
C77 C 0.54866 0.90669 0.80271 0.0
N78 N 0.57628 0.85472 0.79837 0.0
N79 N 0.60986 0.89774 0.79152 0.0
C80 C 0.49634 0.81851 0.81678 0.0
H81 H 0.5068 0.79276 0.82311 0.0
H82 H 0.46547 0.79853 0.80616 0.0
H83 H 0.48435 0.83299 0.82938 0.0
C84 C 0.62151 0.77839 0.73821 0.0
N85 N 0.61212 0.7721 0.75802 0.0
N86 N 0.59263 0.79784 0.76411 0.0
C87 C 0.58461 0.81801 0.74761 0.0
C88 C 0.60261 0.8061 0.73054 0.0
C89 C 0.6462 0.75615 0.72663 0.0
H90 H 0.6634 0.74161 0.73685 0.0
H91 H 0.61944 0.72726 0.7165 0.0
H92 H 0.67612 0.78398 0.71723 0.0
O93 O 0.65909 0.75177 0.79441 0.0
O94 O 0.63801 0.80008 0.81031 0.0
H95 H 0.58688 0.88561 0.75164 0.0
H96 H 0.54289 0.84713 0.73343 0.0
C97 C 0.55942 0.84728 0.74814 0.0
H98 H 0.53095 0.83337 0.76008 0.0
H99 H 0.64228 0.90447 0.7845 0.0
O100 O 0.61389 0.67554 0.75972 0.0
C101 C 0.66537 0.78092 0.80859 0.0
Co102 Co 0.85163 0.54653 0.11033 0.0
Co103 Co 0.77859 0.57298 0.12941 0.0
C104 C 0.77669 0.47842 0.13884 0.0
O105 O 0.81053 0.48853 0.1262 0.0
O106 O 0.76155 0.50814 0.14239 0.0
C107 C 0.87985 0.49395 0.08388 0.0
O108 O 0.83367 0.45918 0.08394 0.0
C109 C 0.6773 0.55152 0.13384 0.0
C110 C 0.68527 0.61913 0.1466 0.0
C111 C 0.65019 0.57284 0.14022 0.0
N112 N 0.72539 0.58357 0.13642 0.0
N113 N 0.72988 0.62388 0.14414 0.0
C114 C 0.65889 0.50288 0.12416 0.0
H115 H 0.68883 0.50189 0.11579 0.0
H116 H 0.62824 0.49471 0.11375 0.0
H117 H 0.64559 0.47437 0.13599 0.0
C118 C 0.82064 0.56968 0.07309 0.0
N119 N 0.81618 0.56262 0.09304 0.0
N120 N 0.78302 0.57217 0.10015 0.0
C121 C 0.76384 0.58412 0.08433 0.0
C122 C 0.78658 0.58165 0.06668 0.0
C123 C 0.8622 0.57337 0.06071 0.0
H124 H 0.89622 0.5892 0.06974 0.0
H125 H 0.85269 0.53671 0.05525 0.0
H126 H 0.8696 0.59715 0.04739 0.0
O127 O 0.89346 0.60302 0.12677 0.0
O128 O 0.84482 0.62664 0.14088 0.0
H129 H 0.73505 0.6247 0.09881 0.0
H130 H 0.72317 0.61621 0.07199 0.0
C131 C 0.72598 0.59906 0.08608 0.0
H132 H 0.68985 0.56642 0.08917 0.0
H133 H 0.76337 0.65478 0.14752 0.0
O134 O 0.89381 0.53166 0.0946 0.0
C135 C 0.88762 0.6324 0.13779 0.0
Co136 Co 0.2794 0.86654 0.44883 0.0
Co137 Co 0.17964 0.77925 0.46203 0.0
C138 C 0.27464 0.78626 0.47426 0.0
O139 O 0.29839 0.82489 0.46397 0.0
O140 O 0.22806 0.76457 0.47537 0.0
C141 C 0.36261 0.90067 0.42585 0.0
O142 O 0.3467 0.85378 0.42465 0.0
C143 C 0.1056 0.67555 0.46363 0.0
C144 C 0.03668 0.67605 0.46853 0.0
C145 C 0.05525 0.64506 0.46576 0.0
N146 N 0.11616 0.72209 0.4652 0.0
N147 N 0.07477 0.72211 0.46825 0.0
C148 C 0.1428 0.66129 0.45836 0.0
H149 H 0.17409 0.69132 0.45018 0.0
H150 H 0.1262 0.62792 0.44897 0.0
H151 H 0.15695 0.65392 0.4724 0.0
C152 C 0.23375 0.84382 0.40915 0.0
N153 N 0.23287 0.83431 0.42891 0.0
N154 N 0.19227 0.79398 0.43349 0.0
C155 C 0.16749 0.7746 0.41615 0.0
C156 C 0.19301 0.80588 0.40019 0.0
C157 C 0.27369 0.88815 0.39887 0.0
H158 H 0.29005 0.91943 0.40932 0.0
H159 H 0.30207 0.88025 0.39327 0.0
H160 H 0.25989 0.89918 0.38581 0.0
O161 O 0.25561 0.89775 0.46681 0.0
O162 O 0.18344 0.83727 0.47732 0.0
H163 H 0.09328 0.72756 0.4254 0.0
H164 H 0.10516 0.72082 0.3993 0.0
C165 C 0.12029 0.72734 0.41478 0.0
H166 H 0.12657 0.69724 0.41918 0.0
H167 H 0.0724 0.75357 0.46972 0.0
O168 O 0.33923 0.91562 0.43633 0.0
C169 C 0.21683 0.88239 0.47722 0.0
Co170 Co 0.43836 0.29689 0.77977 0.0
Co171 Co 0.41096 0.1953 0.79727 0.0
C172 C 0.49894 0.29151 0.81185 0.0
O173 O 0.49236 0.31643 0.79867 0.0
O174 O 0.46955 0.24578 0.81342 0.0
C175 C 0.49401 0.38549 0.76013 0.0
O176 O 0.53008 0.37819 0.76519 0.0
C177 C 0.44111 0.1243 0.80829 0.0
C178 C 0.37699 0.05413 0.79974 0.0
C179 C 0.42556 0.07507 0.80573 0.0
N180 N 0.40443 0.13229 0.80308 0.0
N181 N 0.36571 0.08981 0.79859 0.0
C182 C 0.48866 0.16268 0.81708 0.0
H183 H 0.48118 0.1827 0.82888 0.0
H184 H 0.5114 0.1888 0.80515 0.0
H185 H 0.50916 0.14695 0.82436 0.0
C186 C 0.43604 0.25159 0.74142 0.0
N187 N 0.43353 0.25026 0.76162 0.0
N188 N 0.42062 0.20632 0.76817 0.0
C189 C 0.41458 0.17809 0.75186 0.0
C190 C 0.42337 0.20589 0.73446 0.0
C191 C 0.45258 0.29656 0.72894 0.0
H192 H 0.4281 0.31164 0.73159 0.0
H193 H 0.49051 0.32371 0.73323 0.0
H194 H 0.45349 0.29017 0.71264 0.0
O195 O 0.37551 0.27297 0.79346 0.0
O196 O 0.35107 0.19954 0.80624 0.0
H197 H 0.36034 0.10493 0.75874 0.0
H198 H 0.39856 0.11046 0.73761 0.0
C199 C 0.3982 0.12509 0.75271 0.0
H200 H 0.42259 0.1193 0.76291 0.0
H201 H 0.33237 0.0855 0.79364 0.0
O202 O 0.45055 0.35474 0.76525 0.0
C203 C 0.34407 0.23536 0.80295 0.0
Co204 Co 0.55596 0.85652 0.56566 0.0
Co205 Co 0.57476 0.77603 0.54937 0.0
C206 C 0.4885 0.78558 0.53556 0.0
O207 O 0.49962 0.82037 0.54764 0.0
O208 O 0.51484 0.7658 0.53424 0.0
C209 C 0.49833 0.87694 0.59007 0.0
O210 O 0.46926 0.82961 0.58864 0.0
C211 C 0.54776 0.67672 0.53741 0.0
C212 C 0.60995 0.67029 0.54871 0.0
C213 C 0.56314 0.64324 0.54077 0.0
N214 N 0.58266 0.72071 0.54401 0.0
N215 N 0.62042 0.71688 0.55014 0.0
C216 C 0.50247 0.66816 0.5266 0.0
H217 H 0.51212 0.69791 0.51562 0.0
H218 H 0.47581 0.66786 0.53759 0.0
H219 H 0.48536 0.63353 0.51806 0.0
C220 C 0.56926 0.8226 0.60445 0.0
N221 N 0.56422 0.81778 0.58437 0.0
N222 N 0.5691 0.78102 0.57837 0.0
C223 C 0.57526 0.75981 0.59502 0.0
C224 C 0.57488 0.78539 0.61196 0.0
C225 C 0.57737 0.86653 0.61608 0.0
H226 H 0.59462 0.89947 0.60646 0.0
H227 H 0.5418 0.86031 0.62199 0.0
H228 H 0.60168 0.87323 0.62919 0.0
O229 O 0.61708 0.89504 0.55049 0.0
O230 O 0.63258 0.83857 0.53854 0.0
H231 H 0.62193 0.72989 0.59125 0.0
H232 H 0.57503 0.69956 0.60999 0.0
C233 C 0.58308 0.71721 0.59496 0.0
H234 H 0.5592 0.69036 0.58354 0.0
H235 H 0.65221 0.74546 0.55637 0.0
O236 O 0.53872 0.89775 0.58054 0.0
C237 C 0.6439 0.8832 0.54043 0.0
Co238 Co 0.71164 0.57433 0.90077 0.0
Co239 Co 0.81106 0.58848 0.88571 0.0
C240 C 0.71601 0.50121 0.87347 0.0
O241 O 0.69296 0.51576 0.8844 0.0
O242 O 0.76252 0.526 0.87201 0.0
C243 C 0.63218 0.51919 0.92526 0.0
O244 O 0.65221 0.49158 0.92577 0.0
C245 C 0.88964 0.56647 0.87507 0.0
C246 C 0.95455 0.62942 0.88832 0.0
C247 C 0.93923 0.58468 0.87928 0.0
N248 N 0.87634 0.59813 0.882 0.0
N249 N 0.91573 0.63612 0.88949 0.0
C250 C 0.85604 0.52152 0.86347 0.0
H251 H 0.83223 0.5288 0.85355 0.0
H252 H 0.83246 0.49191 0.87408 0.0
H253 H 0.87684 0.50968 0.85383 0.0
C254 C 0.75983 0.59534 0.93962 0.0
N255 N 0.75971 0.5879 0.91974 0.0
N256 N 0.7991 0.5865 0.91452 0.0
C257 C 0.82343 0.58842 0.93163 0.0
C258 C 0.7995 0.59485 0.94804 0.0
C259 C 0.7219 0.60188 0.95055 0.0
H260 H 0.70395 0.61551 0.94025 0.0
H261 H 0.69433 0.56675 0.95737 0.0
H262 H 0.73848 0.62865 0.96287 0.0
O263 O 0.73271 0.63124 0.88408 0.0
O264 O 0.8049 0.64447 0.87266 0.0
H265 H 0.90108 0.62014 0.93056 0.0
H266 H 0.8711 0.56887 0.94716 0.0
C267 C 0.86816 0.58361 0.93243 0.0
H268 H 0.86738 0.55963 0.92015 0.0
H269 H 0.9156 0.66565 0.89629 0.0
O270 O 0.65188 0.55799 0.91484 0.0
C271 C 0.7714 0.65619 0.87374 0.0
Co272 Co 0.14133 0.71193 0.23816 0.0
Co273 Co 0.22301 0.80765 0.21911 0.0
C274 C 0.2185 0.7113 0.21245 0.0
O275 O 0.18173 0.69028 0.2241 0.0
O276 O 0.23806 0.75662 0.20857 0.0
C277 C 0.10971 0.63583 0.26616 0.0
O278 O 0.15638 0.64901 0.26699 0.0
C279 C 0.32663 0.88331 0.2148 0.0
C280 C 0.32275 0.94486 0.20149 0.0
C281 C 0.35592 0.93127 0.20817 0.0
N282 N 0.27909 0.86973 0.21206 0.0
N283 N 0.27709 0.90671 0.20402 0.0
C284 C 0.34261 0.85144 0.22486 0.0
H285 H 0.31193 0.82229 0.23363 0.0
H286 H 0.37417 0.87319 0.23496 0.0
H287 H 0.35382 0.83392 0.21323 0.0
C288 C 0.17068 0.76815 0.2748 0.0
N289 N 0.17687 0.76409 0.25509 0.0
N290 N 0.21449 0.80447 0.24828 0.0
C291 C 0.23508 0.83501 0.26417 0.0
C292 C 0.20819 0.81203 0.2815 0.0
C293 C 0.12599 0.73397 0.28672 0.0
H294 H 0.09319 0.71669 0.27693 0.0
H295 H 0.1318 0.70581 0.29392 0.0
H296 H 0.119 0.75364 0.29889 0.0
O297 O 0.10431 0.72798 0.21973 0.0
O298 O 0.15961 0.79714 0.20507 0.0
H299 H 0.27554 0.90444 0.24968 0.0
H300 H 0.28321 0.90605 0.27677 0.0
C301 C 0.27892 0.88495 0.26287 0.0
H302 H 0.3122 0.88201 0.26083 0.0
H303 H 0.24458 0.90609 0.20046 0.0
O304 O 0.09537 0.65723 0.25421 0.0
C305 C 0.11508 0.76271 0.20755 0.0
Co306 Co 0.42928 0.12715 0.5682 0.0
Co307 Co 0.42793 0.21813 0.55278 0.0
C308 C 0.51069 0.20168 0.54219 0.0
O309 O 0.49113 0.16307 0.55269 0.0
O310 O 0.4904 0.22743 0.54043 0.0
C311 C 0.47391 0.09617 0.59501 0.0
O312 O 0.5049 0.14325 0.59586 0.0
C313 C 0.45876 0.31835 0.53987 0.0
C314 C 0.40294 0.33026 0.55457 0.0
C315 C 0.44684 0.35418 0.54403 0.0
N316 N 0.42472 0.27623 0.54835 0.0
N317 N 0.39077 0.28336 0.55662 0.0
C318 C 0.49934 0.3226 0.52676 0.0
H319 H 0.48655 0.28853 0.5181 0.0
H320 H 0.53074 0.32853 0.53629 0.0
H321 H 0.51151 0.35302 0.51588 0.0
C322 C 0.41098 0.15734 0.60666 0.0
N323 N 0.41986 0.16479 0.58687 0.0
N324 N 0.42592 0.20733 0.5817 0.0
C325 C 0.42479 0.23014 0.59881 0.0
C326 C 0.41564 0.19895 0.61515 0.0
C327 C 0.39103 0.1089 0.61692 0.0
H328 H 0.37308 0.07878 0.60591 0.0
H329 H 0.42101 0.10681 0.62466 0.0
H330 H 0.36373 0.10433 0.62854 0.0
O331 O 0.37261 0.09601 0.55081 0.0
O332 O 0.36995 0.16011 0.53876 0.0
H333 H 0.39945 0.281 0.59879 0.0
H334 H 0.45198 0.29817 0.61441 0.0
C335 C 0.43467 0.28127 0.59984 0.0
H336 H 0.45892 0.3032 0.58729 0.0
H337 H 0.36051 0.25675 0.56451 0.0
O338 O 0.43733 0.0798 0.58325 0.0
C339 C 0.35266 0.11397 0.53984 0.0
Co340 Co 0.29486 0.42111 0.89498 0.0
Co341 Co 0.198 0.41622 0.88242 0.0
C342 C 0.29356 0.49364 0.86588 0.0
O343 O 0.314 0.47397 0.87535 0.0
O344 O 0.24767 0.47737 0.86762 0.0
C345 C 0.37583 0.47611 0.91771 0.0
O346 O 0.35679 0.5046 0.91726 0.0
C347 C 0.12052 0.4415 0.8737 0.0
C348 C 0.05606 0.3793 0.88772 0.0
C349 C 0.07136 0.42404 0.87864 0.0
N350 N 0.13355 0.4093 0.88021 0.0
N351 N 0.09443 0.37184 0.88821 0.0
C352 C 0.15388 0.48626 0.86189 0.0
H353 H 0.17722 0.47876 0.85177 0.0
H354 H 0.17795 0.5159 0.87235 0.0
H355 H 0.13285 0.49819 0.85247 0.0
C356 C 0.25504 0.41058 0.9349 0.0
N357 N 0.25249 0.41709 0.91509 0.0
N358 N 0.21339 0.41994 0.91096 0.0
C359 C 0.19145 0.41892 0.9287 0.0
C360 C 0.2177 0.41336 0.94447 0.0
C361 C 0.28679 0.3929 0.94404 0.0
H362 H 0.29669 0.37382 0.93265 0.0
H363 H 0.32069 0.42411 0.95015 0.0
H364 H 0.26744 0.36737 0.95664 0.0
O365 O 0.26616 0.36016 0.8814 0.0
O366 O 0.19797 0.356 0.86955 0.0
H367 H 0.11377 0.38738 0.92986 0.0
H368 H 0.1469 0.44047 0.94536 0.0
C369 C 0.14702 0.42398 0.93067 0.0
H370 H 0.14586 0.4468 0.91829 0.0
H371 H 0.09447 0.34202 0.89479 0.0
O372 O 0.3553 0.43622 0.90809 0.0
C373 C 0.22684 0.33852 0.8713 0.0
Co374 Co 0.86622 0.29123 0.23708 0.0
Co375 Co 0.78551 0.19589 0.2173 0.0
C376 C 0.78923 0.29331 0.21256 0.0
O377 O 0.82625 0.31442 0.22402 0.0
O378 O 0.77028 0.2482 0.20828 0.0
C379 C 0.9105 0.37591 0.261 0.0
O380 O 0.86798 0.37377 0.25918 0.0
C381 C 0.68152 0.12046 0.21393 0.0
C382 C 0.68422 0.06122 0.19784 0.0
C383 C 0.65166 0.07358 0.20633 0.0
N384 N 0.72878 0.13462 0.21 0.0
N385 N 0.73007 0.09902 0.20031 0.0
C386 C 0.66645 0.15067 0.22589 0.0
H387 H 0.6979 0.17864 0.23468 0.0
H388 H 0.63584 0.12739 0.23623 0.0
H389 H 0.65413 0.16969 0.21548 0.0
C390 C 0.8314 0.23494 0.274 0.0
N391 N 0.82913 0.23869 0.25396 0.0
N392 N 0.79548 0.19697 0.24634 0.0
C393 C 0.77545 0.1647 0.26174 0.0
C394 C 0.79821 0.18779 0.27971 0.0
C395 C 0.86057 0.27751 0.28763 0.0
H396 H 0.90022 0.29341 0.28444 0.0
H397 H 0.84969 0.30507 0.28486 0.0
H398 H 0.85406 0.26835 0.30379 0.0
O399 O 0.90148 0.27483 0.21744 0.0
O400 O 0.8471 0.20704 0.20195 0.0
H401 H 0.74107 0.09766 0.24522 0.0
H402 H 0.73552 0.09058 0.27236 0.0
C403 C 0.73585 0.11282 0.25941 0.0
H404 H 0.69987 0.11106 0.25878 0.0
H405 H 0.76223 0.10036 0.19551 0.0
O406 O 0.91725 0.34415 0.25249 0.0
C407 C 0.89127 0.24172 0.20453 0.0
H408 H 0.57355 0.47728 0.14213 0.0
H409 H 0.60402 0.62559 0.1384 0.0
H410 H 0.51641 0.59685 0.13812 0.0
H411 H 0.43128 0.52994 0.13925 0.0
H412 H 0.40073 0.38142 0.14018 0.0
H413 H 0.48836 0.41016 0.14119 0.0
C414 C 0.56151 0.5035 0.14059 0.0
C415 C 0.59609 0.55372 0.13974 0.0
C416 C 0.51078 0.48668 0.14005 0.0
C417 C 0.57866 0.58673 0.13896 0.0
C418 C 0.52838 0.57033 0.13874 0.0
C419 C 0.44332 0.50358 0.13898 0.0
C420 C 0.40873 0.45332 0.13907 0.0
C421 C 0.49404 0.52035 0.1392 0.0
C422 C 0.42612 0.42029 0.13997 0.0
C423 C 0.4764 0.4367 0.1405 0.0
H424 H 0.0773 0.57794 0.48057 0.0
H425 H 0.96616 0.59096 0.44815 0.0
H426 H 0.91693 0.50235 0.44528 0.0
H427 H 0.90656 0.42114 0.45114 0.0
H428 H 0.01669 0.40802 0.48434 0.0
H429 H 0.06601 0.49661 0.48712 0.0
C430 C 0.04267 0.56144 0.47262 0.0
C431 C 0.02588 0.59112 0.46426 0.0
C432 C 0.01439 0.51038 0.47114 0.0
C433 C 0.98003 0.56897 0.45465 0.0
C434 C 0.9519 0.51829 0.45296 0.0
C435 C 0.94068 0.43754 0.45946 0.0
C436 C 0.95721 0.40781 0.46802 0.0
C437 C 0.9687 0.48859 0.46114 0.0
C438 C 0.00284 0.42999 0.47781 0.0
C439 C 0.03106 0.48068 0.47942 0.0
H440 H 0.39438 0.97903 0.81284 0.0
H441 H 0.523 0.11426 0.79613 0.0
H442 H 0.57209 0.07526 0.79663 0.0
H443 H 0.57876 0.00271 0.80044 0.0
H444 H 0.44748 0.86374 0.81003 0.0
H445 H 0.40006 0.90402 0.81383 0.0
C446 C 0.43326 5e-05 0.8095 0.0
C447 C 0.45535 0.05049 0.80583 0.0
C448 C 0.46112 0.97655 0.80854 0.0
C449 C 0.5054 0.0765 0.80065 0.0
C450 C 0.53353 0.05387 0.80046 0.0
C451 C 0.53981 0.98085 0.8035 0.0
C452 C 0.51789 0.92997 0.80581 0.0
C453 C 0.51181 0.00395 0.80439 0.0
C454 C 0.46691 0.90289 0.80931 0.0
C455 C 0.43913 0.926 0.81108 0.0
H456 H 0.59717 0.58046 0.5358 0.0
H457 H 0.46373 0.58364 0.54615 0.0
H458 H 0.41643 0.49558 0.54516 0.0
H459 H 0.4127 0.417 0.54323 0.0
H460 H 0.54758 0.41355 0.53987 0.0
H461 H 0.5939 0.50133 0.53611 0.0
C462 C 0.55767 0.56187 0.53761 0.0
C463 C 0.534 0.58916 0.5398 0.0
C464 C 0.53066 0.51067 0.53827 0.0
C465 C 0.48293 0.56426 0.54291 0.0
C466 C 0.45572 0.51352 0.54281 0.0
C467 C 0.4522 0.43529 0.54147 0.0
C468 C 0.47592 0.40783 0.5408 0.0
C469 C 0.4792 0.48634 0.54059 0.0
C470 C 0.52741 0.43266 0.5391 0.0
C471 C 0.55434 0.48338 0.5374 0.0
H472 H 0.91042 0.48682 0.87931 0.0
H473 H 0.03861 0.63017 0.87625 0.0
H474 H 0.09105 0.59412 0.87587 0.0
H475 H 0.10049 0.52213 0.87802 0.0
H476 H 0.97196 0.37876 0.87692 0.0
H477 H 0.91965 0.41487 0.87714 0.0
C478 C 0.94955 0.51043 0.87758 0.0
C479 C 0.97008 0.56141 0.87715 0.0
C480 C 0.97963 0.48942 0.87682 0.0
C481 C 0.02148 0.59087 0.8764 0.0
C482 C 0.05162 0.57026 0.87617 0.0
C483 C 0.06124 0.49851 0.87688 0.0
C484 C 0.04061 0.44749 0.87684 0.0
C485 C 0.03113 0.51954 0.87646 0.0
C486 C 0.98917 0.41807 0.87678 0.0
C487 C 0.95908 0.4387 0.87689 0.0
H488 H 0.42853 0.90663 0.20583 0.0
H489 H 0.407 0.03016 0.21012 0.0
H490 H 0.49549 0.08509 0.20978 0.0
H491 H 0.57902 0.09834 0.20771 0.0
H492 H 0.60059 0.97461 0.20558 0.0
H493 H 0.5121 0.91971 0.20572 0.0
C494 C 0.4428 0.94532 0.20733 0.0
C495 C 0.41046 0.96375 0.2085 0.0
C496 C 0.49405 0.97695 0.2074 0.0
C497 C 0.43061 0.01459 0.2093 0.0
C498 C 0.4814 0.0462 0.20916 0.0
C499 C 0.5648 0.05951 0.20791 0.0
C500 C 0.59714 0.04104 0.20712 0.0
C501 C 0.51356 0.02784 0.20824 0.0
C502 C 0.57698 0.9902 0.20629 0.0
C503 C 0.5262 0.9586 0.20641 0.0
H504 H 0.96437 0.56727 0.06982 0.0
H505 H 0.8788 0.41057 0.07275 0.0
H506 H 0.95213 0.40549 0.06547 0.0
H507 H 0.04113 0.4461 0.06864 0.0
H508 H 0.1266 0.60298 0.0716 0.0
H509 H 0.05292 0.60787 0.06551 0.0
C510 C 0.96163 0.53197 0.06831 0.0
C511 C 0.91721 0.48938 0.07264 0.0
C512 C 0.00413 0.52964 0.06549 0.0
C513 C 0.91313 0.44378 0.06989 0.0
C514 C 0.95507 0.44097 0.06591 0.0
C515 C 0.04381 0.48144 0.06748 0.0
C516 C 0.08848 0.52408 0.07153 0.0
C517 C 1.00107 0.48373 0.06533 0.0
C518 C 0.09218 0.56965 0.06911 0.0
C519 C 0.05006 0.57241 0.06574 0.0
H520 H 0.55932 0.0864 0.40861 0.0
H521 H 0.6094 0.98336 0.41527 0.0
H522 H 0.52545 0.91581 0.412 0.0
H523 H 0.43831 0.8881 0.41609 0.0
H524 H 0.38893 0.99239 0.41409 0.0
H525 H 0.47187 0.05743 0.4063 0.0
C526 C 0.55194 0.04915 0.40867 0.0
C527 C 0.58968 0.03944 0.41278 0.0
C528 C 0.50357 0.01082 0.40802 0.0
C529 C 0.58023 0.99129 0.41261 0.0
C530 C 0.53236 0.95277 0.41082 0.0
C531 C 0.4456 0.92483 0.41335 0.0
C532 C 0.40849 0.93612 0.41623 0.0
C533 C 0.49361 0.96226 0.40994 0.0
C534 C 0.41771 0.98348 0.41246 0.0
C535 C 0.46497 0.02057 0.408 0.0
H536 H 0.5823 0.46146 0.74976 0.0
H537 H 0.42668 0.40655 0.74488 0.0
H538 H 0.44227 0.48589 0.73346 0.0
H539 H 0.49852 0.57346 0.73361 0.0
H540 H 0.65324 0.62963 0.74238 0.0
H541 H 0.63996 0.54707 0.74255 0.0
C542 C 0.55187 0.46661 0.74576 0.0
C543 C 0.50355 0.42915 0.74895 0.0
C544 C 0.56101 0.51265 0.73992 0.0
C545 C 0.46433 0.4356 0.74318 0.0
C546 C 0.47316 0.48086 0.73658 0.0
C547 C 0.52952 0.56766 0.73479 0.0
C548 C 0.57638 0.6069 0.73877 0.0
C549 C 0.52119 0.52026 0.73619 0.0
C550 C 0.61655 0.5994 0.73986 0.0
C551 C 0.60894 0.5523 0.74012 0.0
H552 H 0.55798 0.9635 0.60701 0.0
H553 H 0.40542 0.85654 0.59859 0.0
H554 H 0.38236 0.91748 0.60643 0.0
H555 H 0.40831 0.00395 0.60494 0.0
H556 H 0.56189 0.11182 0.60894 0.0
H557 H 0.58202 0.0479 0.61436 0.0
C558 C 0.51961 0.95338 0.60748 0.0
C559 C 0.48346 0.90677 0.60136 0.0
C560 C 0.50707 0.98898 0.61096 0.0
C561 C 0.43379 0.89286 0.60278 0.0
C562 C 0.42069 0.92771 0.60713 0.0
C563 C 0.44601 0.01338 0.60761 0.0
C564 C 0.48391 0.06179 0.60558 0.0
C565 C 0.45737 0.9765 0.60956 0.0
C566 C 0.53236 0.07437 0.60991 0.0
C567 C 0.54387 0.03787 0.61285 0.0
H568 H 0.40954 0.41784 0.93018 0.0
H569 H 0.4445 0.56775 0.92916 0.0
H570 H 0.52943 0.59435 0.93786 0.0
H571 H 0.59548 0.57554 0.93649 0.0
H572 H 0.56136 0.42605 0.93385 0.0
H573 H 0.47402 0.39834 0.93664 0.0
C574 C 0.43563 0.45626 0.93229 0.0
C575 C 0.4219 0.49107 0.9282 0.0
C576 C 0.48443 0.47119 0.93651 0.0
C577 C 0.45495 0.54052 0.93175 0.0
C578 C 0.50342 0.5557 0.93666 0.0
C579 C 0.56886 0.53689 0.93711 0.0
C580 C 0.584 0.50276 0.93412 0.0
C581 C 0.51903 0.52151 0.93764 0.0
C582 C 0.55003 0.45285 0.9357 0.0
C583 C 0.50018 0.43706 0.93711 0.0
H584 H 0.11326 0.55486 0.27463 0.0
H585 H 0.02303 0.62048 0.2808 0.0
H586 H 0.95046 0.54057 0.28552 0.0
H587 H 0.91176 0.45413 0.27762 0.0
H588 H 1.00161 0.38903 0.26768 0.0
H589 H 0.07511 0.46615 0.27515 0.0
C590 C 0.078 0.55159 0.27787 0.0
C591 C 0.07263 0.59261 0.27669 0.0
C592 C 0.03619 0.5055 0.27932 0.0
C593 C 0.02726 0.58868 0.28114 0.0
C594 C 0.98583 0.5431 0.28371 0.0
C595 C 0.9473 0.45652 0.27763 0.0
C596 C 0.95172 0.41697 0.27118 0.0
C597 C 0.98946 0.50132 0.28114 0.0
C598 C 0.99763 0.41979 0.2719 0.0
C599 C 0.0397 0.46383 0.27618 0.0
H600 H 0.25364 0.72068 0.17421 0.0
H601 H 0.21775 0.63133 0.22736 0.0
H602 H 0.22788 0.57067 0.20878 0.0
H603 H 0.23408 0.53706 0.1762 0.0
H604 H 0.26096 0.62252 0.12241 0.0
H605 H 0.26825 0.69059 0.14227 0.0
C606 C 0.24941 0.68857 0.18182 0.0
C607 C 0.23486 0.6805 0.20212 0.0
C608 C 0.25329 0.65273 0.17079 0.0
C609 C 0.22876 0.6383 0.21171 0.0
C610 C 0.23439 0.60348 0.20107 0.0
C611 C 0.24321 0.57123 0.16898 0.0
C612 C 0.24741 0.57499 0.14792 0.0
C613 C 0.24486 0.60939 0.18042 0.0
C614 C 0.25793 0.61898 0.13864 0.0
C615 C 0.26171 0.65778 0.14998 0.0
H616 H 0.70601 0.22134 0.50783 0.0
H617 H 0.62952 0.20366 0.45209 0.0
H618 H 0.56511 0.2104 0.46987 0.0
H619 H 0.52563 0.21155 0.50186 0.0
H620 H 0.59654 0.21711 0.55788 0.0
H621 H 0.66796 0.22539 0.53969 0.0
C622 C 0.67584 0.22028 0.49958 0.0
C623 C 0.6728 0.21286 0.47866 0.0
C624 C 0.6376 0.2215 0.51009 0.0
C625 C 0.63281 0.20996 0.46817 0.0
C626 C 0.59587 0.21352 0.47836 0.0
C627 C 0.55731 0.21577 0.50999 0.0
C628 C 0.55635 0.2145 0.53114 0.0
C629 C 0.59714 0.21795 0.49939 0.0
C630 C 0.59687 0.21854 0.54159 0.0
C631 C 0.63755 0.22303 0.53119 0.0
H632 H 0.43352 0.68976 0.81911 0.0
H633 H 0.49312 0.60058 0.79902 0.0
H634 H 0.42951 0.5313 0.81705 0.0
H635 H 0.36091 0.49668 0.84051 0.0
H636 H 0.29641 0.5812 0.86007 0.0
H637 H 0.3573 0.65114 0.84018 0.0
C638 C 0.43224 0.65504 0.81851 0.0
C639 C 0.46888 0.65104 0.80782 0.0
C640 C 0.39472 0.61437 0.82891 0.0
C641 C 0.46606 0.60538 0.80713 0.0
C642 C 0.42956 0.56543 0.81751 0.0
C643 C 0.35982 0.53028 0.84025 0.0
C644 C 0.32462 0.53401 0.85188 0.0
C645 C 0.3944 0.56973 0.82874 0.0
C646 C 0.32315 0.57746 0.8512 0.0
C647 C 0.35818 0.61749 0.83993 0.0
H648 H 0.77037 0.46804 0.17944 0.0
H649 H 0.74773 0.38849 0.12432 0.0
H650 H 0.74056 0.3189 0.14304 0.0
H651 H 0.75484 0.28647 0.1744 0.0
H652 H 0.78672 0.37024 0.22892 0.0
H653 H 0.77555 0.4316 0.21143 0.0
C654 C 0.76209 0.43475 0.17168 0.0
C655 C 0.75912 0.43311 0.15059 0.0
C656 C 0.76058 0.3958 0.18248 0.0
C657 C 0.74975 0.39031 0.14059 0.0
C658 C 0.74606 0.35068 0.15128 0.0
C659 C 0.75788 0.31744 0.18254 0.0
C660 C 0.77171 0.32386 0.2029 0.0
C661 C 0.75348 0.35377 0.17214 0.0
C662 C 0.77631 0.36461 0.21321 0.0
C663 C 0.77009 0.39983 0.20319 0.0
H664 H 0.35535 0.78051 0.46447 0.0
H665 H 0.25799 0.76077 0.51367 0.0
H666 H 0.31426 0.75486 0.53728 0.0
H667 H 0.39628 0.76593 0.54432 0.0
H668 H 0.49046 0.77852 0.49493 0.0
H669 H 0.43026 0.77591 0.47094 0.0
C670 C 0.34597 0.77363 0.48029 0.0
C671 C 0.30277 0.77136 0.48737 0.0
C672 C 0.37816 0.76943 0.49374 0.0
C673 C 0.29084 0.7623 0.50787 0.0
C674 C 0.32324 0.75934 0.52139 0.0
C675 C 0.40291 0.76681 0.52827 0.0
C676 C 0.44775 0.7727 0.52135 0.0
C677 C 0.3677 0.76437 0.51458 0.0
C678 C 0.45605 0.77369 0.50056 0.0
C679 C 0.4218 0.77259 0.48687 0.0
H680 H 0.63223 0.41763 0.8832 0.0
H681 H 0.7337 0.48915 0.83443 0.0
H682 H 0.6766 0.42737 0.81094 0.0
H683 H 0.59323 0.35926 0.80368 0.0
H684 H 0.4941 0.28409 0.85268 0.0
H685 H 0.55495 0.34049 0.87676 0.0
C686 C 0.64226 0.41894 0.86751 0.0
C687 C 0.68691 0.45814 0.8605 0.0
C688 C 0.60947 0.38288 0.85414 0.0
C689 C 0.69968 0.45928 0.84019 0.0
C690 C 0.66684 0.42416 0.82673 0.0
C691 C 0.58556 0.35458 0.81969 0.0
C692 C 0.53921 0.31788 0.82644 0.0
C693 C 0.621 0.38672 0.83343 0.0
C694 C 0.52962 0.31191 0.84718 0.0
C695 C 0.56427 0.34441 0.86091 0.0
H696 H 0.28695 0.45826 0.97299 0.0
H697 H 0.13162 0.36112 0.96568 0.0
H698 H 0.12211 0.35088 1.0023 0.0
H699 H 0.15822 0.3716 0.03635 0.0
H700 H 0.31351 0.46856 0.04328 0.0
H701 H 0.32373 0.47377 0.00662 0.0
C702 C 0.25105 0.43427 0.97938 0.0
C703 C 0.21 0.41039 0.96662 0.0
C704 C 0.24631 0.42734 1.00027 0.0
C705 C 0.1636 0.38052 0.97515 0.0
C706 C 0.15835 0.37406 0.99606 0.0
C707 C 0.19446 0.3926 0.02975 0.0
C708 C 0.23521 0.41954 0.04237 0.0
C709 C 0.1995 0.39716 0.00873 0.0
C710 C 0.2819 0.4471 0.03382 0.0
C711 C 0.28748 0.45079 0.0129 0.0
H712 H 0.86242 0.192 0.30759 0.0
H713 H 0.71056 0.14891 0.29921 0.0
H714 H 0.69891 0.14595 0.33575 0.0
H715 H 0.7344 0.16507 0.36966 0.0
H716 H 0.88729 0.21261 0.37833 0.0
H717 H 0.89732 0.20791 0.34186 0.0
C718 C 0.8265 0.18069 0.31387 0.0
C719 C 0.78734 0.17077 0.30084 0.0
C720 C 0.8211 0.18238 0.33479 0.0
C721 C 0.741 0.15628 0.30897 0.0
C722 C 0.7347 0.15562 0.32982 0.0
C723 C 0.76992 0.17424 0.36355 0.0
C724 C 0.81017 0.18926 0.37659 0.0
C725 C 0.77492 0.17041 0.34278 0.0
C726 C 0.85609 0.20173 0.36853 0.0
C727 C 0.86152 0.19824 0.34776 0.0
H728 H 0.51262 0.76001 0.6432 0.0
H729 H 0.66289 0.80839 0.628 0.0
H730 H 0.68633 0.82712 0.66345 0.0
H731 H 0.66442 0.83461 0.69829 0.0
H732 H 0.51232 0.77471 0.71424 0.0
H733 H 0.48942 0.75929 0.67877 0.0
C734 C 0.55014 0.77299 0.64785 0.0
C735 C 0.58589 0.78169 0.63323 0.0
C736 C 0.5632 0.78394 0.66817 0.0
C737 C 0.63468 0.8 0.63916 0.0
C738 C 0.64813 0.81164 0.65933 0.0
C739 C 0.62617 0.81742 0.69407 0.0
C740 C 0.59025 0.80615 0.70897 0.0
C741 C 0.61283 0.80464 0.67388 0.0
C742 C 0.54099 0.78541 0.70309 0.0
C743 C 0.52771 0.7754 0.68284 0.0
H744 H 0.81638 0.6595 0.97801 0.0
H745 H 0.78901 0.51447 0.96657 0.0
H746 H 0.77468 0.49528 1.00246 0.0
H747 H 0.76712 0.5188 0.03674 0.0
H748 H 0.79633 0.66409 0.04888 0.0
H749 H 0.80889 0.68328 0.01278 0.0
C750 C 0.80791 0.62395 0.98351 0.0
C751 C 0.80416 0.58849 0.96979 0.0
C752 C 0.79771 0.61266 1.00403 0.0
C753 C 0.79319 0.54259 0.97695 0.0
C754 C 0.78396 0.53133 0.99737 0.0
C755 C 0.77505 0.5543 0.03136 0.0
C756 C 0.77985 0.58974 0.04529 0.0
C757 C 0.78508 0.56572 0.01093 0.0
C758 C 0.79103 0.63588 0.03834 0.0
C759 C 0.79938 0.64711 0.01779 0.0
H760 H 0.18328 0.86006 0.37071 0.0
H761 H 0.19472 0.73212 0.38074 0.0
H762 H 0.20834 0.72756 0.34475 0.0
H763 H 0.22012 0.76173 0.31083 0.0
H764 H 0.20812 0.88902 0.30015 0.0
H765 H 0.19576 0.89487 0.33635 0.0
C766 C 0.18847 0.83106 0.36491 0.0
C767 C 0.18819 0.7965 0.37827 0.0
C768 C 0.19853 0.8301 0.34435 0.0
C769 C 0.19413 0.75865 0.37066 0.0
C770 C 0.20292 0.75667 0.35019 0.0
C771 C 0.21605 0.7915 0.31655 0.0
C772 C 0.21599 0.82552 0.30301 0.0
C773 C 0.20632 0.79283 0.33703 0.0
C774 C 0.20972 0.86335 0.3104 0.0
C775 C 0.20149 0.8659 0.33099 0.0
H776 H 0.36767 0.2153 0.70601 0.0
H777 H 0.47342 0.16906 0.71485 0.0
H778 H 0.48205 0.1654 0.67832 0.0
H779 H 0.46431 0.18173 0.64417 0.0
H780 H 0.36103 0.23102 0.63506 0.0
H781 H 0.34882 0.2304 0.6716 0.0
C782 C 0.39187 0.20352 0.69984 0.0
C783 C 0.4198 0.19224 0.71298 0.0
C784 C 0.39852 0.20416 0.67893 0.0
C785 C 0.45119 0.17725 0.70499 0.0
C786 C 0.45672 0.17605 0.68415 0.0
C787 C 0.43906 0.19228 0.65022 0.0
C788 C 0.41346 0.20634 0.63703 0.0
C789 C 0.43156 0.19068 0.67105 0.0
C790 C 0.38154 0.22073 0.64497 0.0
C791 C 0.37406 0.21961 0.66579 0.0
H792 H 0.90171 0.25111 0.16382 0.0
H793 H 0.9761 0.2505 0.21793 0.0
H794 H 0.05429 0.28719 0.19994 0.0
H795 H 0.10362 0.33243 0.17017 0.0
H796 H 0.02875 0.33707 0.11672 0.0
H797 H 0.94968 0.28599 0.1328 0.0
C798 C 0.93471 0.2571 0.1714 0.0
C799 C 0.93296 0.24744 0.1921 0.0
C800 C 0.98011 0.2803 0.16112 0.0
C801 C 0.9764 0.25694 0.20191 0.0
C802 C 0.02131 0.27853 0.19167 0.0
C803 C 0.07 0.32117 0.1619 0.0
C804 C 0.07239 0.33923 0.14233 0.0
C805 C 0.02405 0.29241 0.17147 0.0
C806 C 0.02821 0.32438 0.1319 0.0
C807 C 0.98275 0.29506 0.14109 0.0
H808 H 0.69876 0.97881 0.55045 0.0
H809 H 0.68167 0.87569 0.50449 0.0
H810 H 0.734 0.94261 0.48182 0.0
H811 H 0.76889 0.02909 0.47299 0.0
H812 H 0.7841 0.13209 0.51852 0.0
H813 H 0.74983 0.06691 0.54368 0.0
C814 C 0.70758 0.971 0.53565 0.0
C815 C 0.68552 0.92233 0.529 0.0
C816 C 0.73728 0.00973 0.52262 0.0
C817 C 0.69792 0.91272 0.50994 0.0
C818 C 0.72762 0.95105 0.49692 0.0
C819 C 0.7668 0.03755 0.48864 0.0
C820 C 0.77875 0.08521 0.49391 0.0
C821 C 0.74543 0.99956 0.50279 0.0
C822 C 0.7757 0.09585 0.51416 0.0
C823 C 0.75521 0.05834 0.52846 0.0
H824 H 0.74752 0.77492 0.80452 0.0
H825 H 0.65554 0.78775 0.84922 0.0
H826 H 0.68883 0.75727 0.87496 0.0
H827 H 0.72943 0.71022 0.88268 0.0
H828 H 0.81684 0.69202 0.83736 0.0
H829 H 0.80047 0.74177 0.81396 0.0
C830 C 0.73607 0.77274 0.82006 0.0
C831 C 0.69851 0.78297 0.82489 0.0
C832 C 0.75369 0.753 0.83453 0.0
C833 C 0.6844 0.78037 0.84508 0.0
C834 C 0.7029 0.76212 0.85974 0.0
C835 C 0.74593 0.71813 0.86783 0.0
C836 C 0.77358 0.6966 0.86163 0.0
C837 C 0.73526 0.74566 0.85434 0.0
C838 C 0.79536 0.7079 0.84249 0.0
C839 C 0.78564 0.73607 0.82906 0.0
H840 H 0.10413 0.76247 0.16683 0.0
H841 H 0.03056 0.7507 0.22288 0.0
H842 H 0.95174 0.71544 0.20563 0.0
H843 H 0.90201 0.67319 0.1756 0.0
H844 H 0.97618 0.6821 0.11991 0.0
H845 H 0.05543 0.73331 0.13572 0.0
C846 C 0.07115 0.75425 0.17507 0.0
C847 C 0.07328 0.75949 0.19607 0.0
C848 C 0.02541 0.73211 0.16511 0.0
C849 C 0.0299 0.7474 0.20665 0.0
C850 C 0.98463 0.72664 0.19682 0.0
C851 C 0.93545 0.6877 0.16682 0.0
C852 C 0.93304 0.6732 0.14667 0.0
C853 C 0.98153 0.71652 0.17618 0.0
C854 C 0.97692 0.69213 0.13553 0.0
C855 C 0.02246 0.72143 0.14457 0.0
H856 H 0.28156 0.02245 0.54915 0.0
H857 H 0.3342 0.12757 0.50094 0.0
H858 H 0.28503 0.06301 0.47682 0.0
H859 H 0.24285 0.97539 0.46896 0.0
H860 H 0.19276 0.87015 0.51705 0.0
H861 H 0.22378 0.93597 0.54183 0.0
C862 C 0.28097 0.0314 0.53344 0.0
C863 C 0.31207 0.07953 0.52673 0.0
C864 C 0.2534 0.99393 0.51967 0.0
C865 C 0.31064 0.09087 0.50644 0.0
C866 C 0.28287 0.05383 0.49264 0.0
C867 C 0.23693 0.9669 0.48489 0.0
C868 C 0.21601 0.91808 0.49123 0.0
C869 C 0.2563 0.005 0.49897 0.0
C870 C 0.20841 0.90735 0.51183 0.0
C871 C 0.22688 0.94508 0.52599 0.0
H872 H 0.21882 0.32418 0.83092 0.0
H873 H 0.22519 0.25922 0.88681 0.0
H874 H 0.25454 0.2112 0.86931 0.0
H875 H 0.29803 0.20431 0.83958 0.0
H876 H 0.29453 0.27253 0.78404 0.0
H877 H 0.244 0.30144 0.79963 0.0
C878 C 0.22397 0.29746 0.83906 0.0
C879 C 0.21986 0.29529 0.8601 0.0
C880 C 0.24302 0.27148 0.82896 0.0
C881 C 0.22777 0.26126 0.87054 0.0
C882 C 0.24538 0.23433 0.86057 0.0
C883 C 0.28444 0.22371 0.83071 0.0
C884 C 0.30077 0.23695 0.81079 0.0
C885 C 0.25619 0.24153 0.83997 0.0
C886 C 0.28304 0.26242 0.79951 0.0
C887 C 0.25425 0.27923 0.80844 0.0
loop_
_geom_bond_atom_site_label_1
_geom_bond_atom_site_label_2
_geom_bond_distance
_geom_bond_site_symmetry_2
_ccdc_geom_bond_type
Co0 O3 1.970 . S
Co0 N17 1.989 . S
Co0 O25 1.967 . S
Co0 O32 1.920 . S
Co1 O4 1.966 . S
Co1 N10 2.022 . S
Co1 N18 1.993 . S
Co1 O26 1.941 . S
C2 O3 1.258 . S
C2 O4 1.263 . S
O3 Co0 1.970 . S
O3 C2 1.258 . S
O4 Co1 1.966 . S
O4 C2 1.263 . S
C5 O6 1.235 . S
C5 O32 1.289 . S
O6 C5 1.235 . S
C7 C9 1.400 . S
C7 N10 1.351 . S
C7 C12 1.501 . S
C8 C9 1.387 . S
C8 N11 1.341 . S
C9 C7 1.400 . S
C9 C8 1.387 . S
N10 Co1 2.022 . S
N10 C7 1.351 . S
N10 N11 1.365 . S
N11 C8 1.341 . S
N11 N10 1.365 . S
N11 H31 0.862 . S
C12 C7 1.501 . S
C12 H13 0.961 . S
C12 H14 0.961 . S
C12 H15 0.960 . S
H13 C12 0.961 . S
H14 C12 0.961 . S
H15 C12 0.960 . S
C16 N17 1.342 . S
C16 C20 1.401 . S
C16 C21 1.499 . S
N17 Co0 1.989 . S
N17 C16 1.342 . S
N17 N18 1.388 . S
N18 Co1 1.993 . S
N18 N17 1.388 . S
N18 C19 1.346 . S
C19 N18 1.346 . S
C19 C20 1.396 . S
C19 C29 1.510 . S
C20 C16 1.401 . S
C20 C19 1.396 . S
C21 C16 1.499 . S
C21 H22 0.959 . S
C21 H23 0.960 . S
C21 H24 0.961 . S
H22 C21 0.959 . S
H23 C21 0.960 . S
H24 C21 0.961 . S
O25 Co0 1.967 . S
O25 C33 1.258 . S
O26 Co1 1.941 . S
O26 C33 1.266 . S
H27 C29 0.959 . S
H28 C29 0.961 . S
C29 C19 1.510 . S
C29 H27 0.959 . S
C29 H28 0.961 . S
C29 H30 0.960 . S
H30 C29 0.960 . S
H31 N11 0.862 . S
O32 Co0 1.920 . S
O32 C5 1.289 . S
C33 O25 1.258 . S
C33 O26 1.266 . S
Co34 O37 1.970 . S
Co34 N51 1.989 . S
Co34 O59 1.967 . S
Co34 O66 1.920 . S
Co35 O38 1.966 . S
Co35 N44 2.022 . S
Co35 N52 1.993 . S
Co35 O60 1.941 . S
C36 O37 1.258 . S
C36 O38 1.263 . S
O37 Co34 1.970 . S
O37 C36 1.258 . S
O38 Co35 1.966 . S
O38 C36 1.263 . S
C39 O40 1.235 . S
C39 O66 1.289 . S
O40 C39 1.235 . S
C41 C43 1.400 . S
C41 N44 1.351 . S
C41 C46 1.501 . S
C42 C43 1.387 . S
C42 N45 1.341 . S
C43 C41 1.400 . S
C43 C42 1.387 . S
N44 Co35 2.022 . S
N44 C41 1.351 . S
N44 N45 1.365 . S
N45 C42 1.341 . S
N45 N44 1.365 . S
N45 H65 0.862 . S
C46 C41 1.501 . S
C46 H47 0.961 . S
C46 H48 0.961 . S
C46 H49 0.960 . S
H47 C46 0.961 . S
H48 C46 0.961 . S
H49 C46 0.960 . S
C50 N51 1.342 . S
C50 C54 1.401 . S
C50 C55 1.499 . S
N51 Co34 1.989 . S
N51 C50 1.342 . S
N51 N52 1.388 . S
N52 Co35 1.993 . S
N52 N51 1.388 . S
N52 C53 1.346 . S
C53 N52 1.346 . S
C53 C54 1.396 . S
C53 C63 1.510 . S
C54 C50 1.401 . S
C54 C53 1.396 . S
C55 C50 1.499 . S
C55 H56 0.959 . S
C55 H57 0.960 . S
C55 H58 0.961 . S
H56 C55 0.959 . S
H57 C55 0.960 . S
H58 C55 0.961 . S
O59 Co34 1.967 . S
O59 C67 1.258 . S
O60 Co35 1.941 . S
O60 C67 1.266 . S
H61 C63 0.959 . S
H62 C63 0.961 . S
C63 C53 1.510 . S
C63 H61 0.959 . S
C63 H62 0.961 . S
C63 H64 0.960 . S
H64 C63 0.960 . S
H65 N45 0.862 . S
O66 Co34 1.920 . S
O66 C39 1.289 . S
C67 O59 1.258 . S
C67 O60 1.266 . S
Co68 O71 1.970 . S
Co68 N85 1.989 . S
Co68 O93 1.967 . S
Co68 O100 1.920 . S
Co69 O72 1.966 . S
Co69 N78 2.022 . S
Co69 N86 1.993 . S
Co69 O94 1.941 . S
C70 O71 1.258 . S
C70 O72 1.263 . S
O71 Co68 1.970 . S
O71 C70 1.258 . S
O72 Co69 1.966 . S
O72 C70 1.263 . S
C73 O74 1.235 . S
C73 O100 1.289 . S
O74 C73 1.235 . S
C75 C77 1.400 . S
C75 N78 1.351 . S
C75 C80 1.501 . S
C76 C77 1.387 . S
C76 N79 1.341 . S
C77 C75 1.400 . S
C77 C76 1.387 . S
N78 Co69 2.022 . S
N78 C75 1.351 . S
N78 N79 1.365 . S
N79 C76 1.341 . S
N79 N78 1.365 . S
N79 H99 0.862 . S
C80 C75 1.501 . S
C80 H81 0.961 . S
C80 H82 0.961 . S
C80 H83 0.960 . S
H81 C80 0.961 . S
H82 C80 0.961 . S
H83 C80 0.960 . S
C84 N85 1.342 . S
C84 C88 1.401 . S
C84 C89 1.499 . S
N85 Co68 1.989 . S
N85 C84 1.342 . S
N85 N86 1.388 . S
N86 Co69 1.993 . S
N86 N85 1.388 . S
N86 C87 1.346 . S
C87 N86 1.346 . S
C87 C88 1.396 . S
C87 C97 1.510 . S
C88 C84 1.401 . S
C88 C87 1.396 . S
C89 C84 1.499 . S
C89 H90 0.959 . S
C89 H91 0.960 . S
C89 H92 0.961 . S
H90 C89 0.959 . S
H91 C89 0.960 . S
H92 C89 0.961 . S
O93 Co68 1.967 . S
O93 C101 1.258 . S
O94 Co69 1.941 . S
O94 C101 1.266 . S
H95 C97 0.959 . S
H96 C97 0.961 . S
C97 C87 1.510 . S
C97 H95 0.959 . S
C97 H96 0.961 . S
C97 H98 0.960 . S
H98 C97 0.960 . S
H99 N79 0.862 . S
O100 Co68 1.920 . S
O100 C73 1.289 . S
C101 O93 1.258 . S
C101 O94 1.266 . S
Co102 O105 1.970 . S
Co102 N119 1.989 . S
Co102 O127 1.967 . S
Co102 O134 1.920 . S
Co103 O106 1.966 . S
Co103 N112 2.022 . S
Co103 N120 1.993 . S
Co103 O128 1.941 . S
C104 O105 1.258 . S
C104 O106 1.263 . S
O105 Co102 1.970 . S
O105 C104 1.258 . S
O106 Co103 1.966 . S
O106 C104 1.263 . S
C107 O108 1.235 . S
C107 O134 1.289 . S
O108 C107 1.235 . S
C109 C111 1.400 . S
C109 N112 1.351 . S
C109 C114 1.501 . S
C110 C111 1.387 . S
C110 N113 1.341 . S
C111 C109 1.400 . S
C111 C110 1.387 . S
N112 Co103 2.022 . S
N112 C109 1.351 . S
N112 N113 1.365 . S
N113 C110 1.341 . S
N113 N112 1.365 . S
N113 H133 0.862 . S
C114 C109 1.501 . S
C114 H115 0.961 . S
C114 H116 0.961 . S
C114 H117 0.960 . S
H115 C114 0.961 . S
H116 C114 0.961 . S
H117 C114 0.960 . S
C118 N119 1.342 . S
C118 C122 1.401 . S
C118 C123 1.499 . S
N119 Co102 1.989 . S
N119 C118 1.342 . S
N119 N120 1.388 . S
N120 Co103 1.993 . S
N120 N119 1.388 . S
N120 C121 1.346 . S
C121 N120 1.346 . S
C121 C122 1.396 . S
C121 C131 1.510 . S
C122 C118 1.401 . S
C122 C121 1.396 . S
C123 C118 1.499 . S
C123 H124 0.959 . S
C123 H125 0.960 . S
C123 H126 0.961 . S
H124 C123 0.959 . S
H125 C123 0.960 . S
H126 C123 0.961 . S
O127 Co102 1.967 . S
O127 C135 1.258 . S
O128 Co103 1.941 . S
O128 C135 1.266 . S
H129 C131 0.959 . S
H130 C131 0.961 . S
C131 C121 1.510 . S
C131 H129 0.959 . S
C131 H130 0.961 . S
C131 H132 0.960 . S
H132 C131 0.960 . S
H133 N113 0.862 . S
O134 Co102 1.920 . S
O134 C107 1.289 . S
C135 O127 1.258 . S
C135 O128 1.266 . S
Co136 O139 1.970 . S
Co136 N153 1.989 . S
Co136 O161 1.967 . S
Co136 O168 1.920 . S
Co137 O140 1.966 . S
Co137 N146 2.022 . S
Co137 N154 1.993 . S
Co137 O162 1.941 . S
C138 O139 1.258 . S
C138 O140 1.263 . S
O139 Co136 1.970 . S
O139 C138 1.258 . S
O140 Co137 1.966 . S
O140 C138 1.263 . S
C141 O142 1.235 . S
C141 O168 1.289 . S
O142 C141 1.235 . S
C143 C145 1.400 . S
C143 N146 1.351 . S
C143 C148 1.501 . S
C144 C145 1.387 . S
C144 N147 1.341 . S
C145 C143 1.400 . S
C145 C144 1.387 . S
N146 Co137 2.022 . S
N146 C143 1.351 . S
N146 N147 1.365 . S
N147 C144 1.341 . S
N147 N146 1.365 . S
N147 H167 0.862 . S
C148 C143 1.501 . S
C148 H149 0.961 . S
C148 H150 0.961 . S
C148 H151 0.960 . S
H149 C148 0.961 . S
H150 C148 0.961 . S
H151 C148 0.960 . S
C152 N153 1.342 . S
C152 C156 1.401 . S
C152 C157 1.499 . S
N153 Co136 1.989 . S
N153 C152 1.342 . S
N153 N154 1.388 . S
N154 Co137 1.993 . S
N154 N153 1.388 . S
N154 C155 1.346 . S
C155 N154 1.346 . S
C155 C156 1.396 . S
C155 C165 1.510 . S
C156 C152 1.401 . S
C156 C155 1.396 . S
C157 C152 1.499 . S
C157 H158 0.959 . S
C157 H159 0.960 . S
C157 H160 0.961 . S
H158 C157 0.959 . S
H159 C157 0.960 . S
H160 C157 0.961 . S
O161 Co136 1.967 . S
O161 C169 1.258 . S
O162 Co137 1.941 . S
O162 C169 1.266 . S
H163 C165 0.959 . S
H164 C165 0.961 . S
C165 C155 1.510 . S
C165 H163 0.959 . S
C165 H164 0.961 . S
C165 H166 0.960 . S
H166 C165 0.960 . S
H167 N147 0.862 . S
O168 Co136 1.920 . S
O168 C141 1.289 . S
C169 O161 1.258 . S
C169 O162 1.266 . S
Co170 O173 1.970 . S
Co170 N187 1.989 . S
Co170 O195 1.967 . S
Co170 O202 1.920 . S
Co171 O174 1.966 . S
Co171 N180 2.022 . S
Co171 N188 1.993 . S
Co171 O196 1.941 . S
C172 O173 1.258 . S
C172 O174 1.263 . S
O173 Co170 1.970 . S
O173 C172 1.258 . S
O174 Co171 1.966 . S
O174 C172 1.263 . S
C175 O176 1.235 . S
C175 O202 1.289 . S
O176 C175 1.235 . S
C177 C179 1.400 . S
C177 N180 1.351 . S
C177 C182 1.501 . S
C178 C179 1.387 . S
C178 N181 1.341 . S
C179 C177 1.400 . S
C179 C178 1.387 . S
N180 Co171 2.022 . S
N180 C177 1.351 . S
N180 N181 1.365 . S
N181 C178 1.341 . S
N181 N180 1.365 . S
N181 H201 0.862 . S
C182 C177 1.501 . S
C182 H183 0.961 . S
C182 H184 0.961 . S
C182 H185 0.960 . S
H183 C182 0.961 . S
H184 C182 0.961 . S
H185 C182 0.960 . S
C186 N187 1.342 . S
C186 C190 1.401 . S
C186 C191 1.499 . S
N187 Co170 1.989 . S
N187 C186 1.342 . S
N187 N188 1.388 . S
N188 Co171 1.993 . S
N188 N187 1.388 . S
N188 C189 1.346 . S
C189 N188 1.346 . S
C189 C190 1.396 . S
C189 C199 1.510 . S
C190 C186 1.401 . S
C190 C189 1.396 . S
C191 C186 1.499 . S
C191 H192 0.959 . S
C191 H193 0.960 . S
C191 H194 0.961 . S
H192 C191 0.959 . S
H193 C191 0.960 . S
H194 C191 0.961 . S
O195 Co170 1.967 . S
O195 C203 1.258 . S
O196 Co171 1.941 . S
O196 C203 1.266 . S
H197 C199 0.959 . S
H198 C199 0.961 . S
C199 C189 1.510 . S
C199 H197 0.959 . S
C199 H198 0.961 . S
C199 H200 0.960 . S
H200 C199 0.960 . S
H201 N181 0.862 . S
O202 Co170 1.920 . S
O202 C175 1.289 . S
C203 O195 1.258 . S
C203 O196 1.266 . S
Co204 O207 1.970 . S
Co204 N221 1.989 . S
Co204 O229 1.967 . S
Co204 O236 1.920 . S
Co205 O208 1.966 . S
Co205 N214 2.022 . S
Co205 N222 1.993 . S
Co205 O230 1.941 . S
C206 O207 1.258 . S
C206 O208 1.263 . S
O207 Co204 1.970 . S
O207 C206 1.258 . S
O208 Co205 1.966 . S
O208 C206 1.263 . S
C209 O210 1.235 . S
C209 O236 1.289 . S
O210 C209 1.235 . S
C211 C213 1.400 . S
C211 N214 1.351 . S
C211 C216 1.501 . S
C212 C213 1.387 . S
C212 N215 1.341 . S
C213 C211 1.400 . S
C213 C212 1.387 . S
N214 Co205 2.022 . S
N214 C211 1.351 . S
N214 N215 1.365 . S
N215 C212 1.341 . S
N215 N214 1.365 . S
N215 H235 0.862 . S
C216 C211 1.501 . S
C216 H217 0.961 . S
C216 H218 0.961 . S
C216 H219 0.960 . S
H217 C216 0.961 . S
H218 C216 0.961 . S
H219 C216 0.960 . S
C220 N221 1.342 . S
C220 C224 1.401 . S
C220 C225 1.499 . S
N221 Co204 1.989 . S
N221 C220 1.342 . S
N221 N222 1.388 . S
N222 Co205 1.993 . S
N222 N221 1.388 . S
N222 C223 1.346 . S
C223 N222 1.346 . S
C223 C224 1.396 . S
C223 C233 1.510 . S
C224 C220 1.401 . S
C224 C223 1.396 . S
C225 C220 1.499 . S
C225 H226 0.959 . S
C225 H227 0.960 . S
C225 H228 0.961 . S
H226 C225 0.959 . S
H227 C225 0.960 . S
H228 C225 0.961 . S
O229 Co204 1.967 . S
O229 C237 1.258 . S
O230 Co205 1.941 . S
O230 C237 1.266 . S
H231 C233 0.959 . S
H232 C233 0.961 . S
C233 C223 1.510 . S
C233 H231 0.959 . S
C233 H232 0.961 . S
C233 H234 0.960 . S
H234 C233 0.960 . S
H235 N215 0.862 . S
O236 Co204 1.920 . S
O236 C209 1.289 . S
C237 O229 1.258 . S
C237 O230 1.266 . S
Co238 O241 1.970 . S
Co238 N255 1.989 . S
Co238 O263 1.967 . S
Co238 O270 1.920 . S
Co239 O242 1.966 . S
Co239 N248 2.022 . S
Co239 N256 1.993 . S
Co239 O264 1.941 . S
C240 O241 1.258 . S
C240 O242 1.263 . S
O241 Co238 1.970 . S
O241 C240 1.258 . S
O242 Co239 1.966 . S
O242 C240 1.263 . S
C243 O244 1.235 . S
C243 O270 1.289 . S
O244 C243 1.235 . S
C245 C247 1.400 . S
C245 N248 1.351 . S
C245 C250 1.501 . S
C246 C247 1.387 . S
C246 N249 1.341 . S
C247 C245 1.400 . S
C247 C246 1.387 . S
N248 Co239 2.022 . S
N248 C245 1.351 . S
N248 N249 1.365 . S
N249 C246 1.341 . S
N249 N248 1.365 . S
N249 H269 0.862 . S
C250 C245 1.501 . S
C250 H251 0.961 . S
C250 H252 0.961 . S
C250 H253 0.960 . S
H251 C250 0.961 . S
H252 C250 0.961 . S
H253 C250 0.960 . S
C254 N255 1.342 . S
C254 C258 1.401 . S
C254 C259 1.499 . S
N255 Co238 1.989 . S
N255 C254 1.342 . S
N255 N256 1.388 . S
N256 Co239 1.993 . S
N256 N255 1.388 . S
N256 C257 1.346 . S
C257 N256 1.346 . S
C257 C258 1.396 . S
C257 C267 1.510 . S
C258 C254 1.401 . S
C258 C257 1.396 . S
C259 C254 1.499 . S
C259 H260 0.959 . S
C259 H261 0.960 . S
C259 H262 0.961 . S
H260 C259 0.959 . S
H261 C259 0.960 . S
H262 C259 0.961 . S
O263 Co238 1.967 . S
O263 C271 1.258 . S
O264 Co239 1.941 . S
O264 C271 1.266 . S
H265 C267 0.959 . S
H266 C267 0.961 . S
C267 C257 1.510 . S
C267 H265 0.959 . S
C267 H266 0.961 . S
C267 H268 0.960 . S
H268 C267 0.960 . S
H269 N249 0.862 . S
O270 Co238 1.920 . S
O270 C243 1.289 . S
C271 O263 1.258 . S
C271 O264 1.266 . S
Co272 O275 1.970 . S
Co272 N289 1.989 . S
Co272 O297 1.967 . S
Co272 O304 1.920 . S
Co273 O276 1.966 . S
Co273 N282 2.022 . S
Co273 N290 1.993 . S
Co273 O298 1.941 . S
C274 O275 1.258 . S
C274 O276 1.263 . S
O275 Co272 1.970 . S
O275 C274 1.258 . S
O276 Co273 1.966 . S
O276 C274 1.263 . S
C277 O278 1.235 . S
C277 O304 1.289 . S
O278 C277 1.235 . S
C279 C281 1.400 . S
C279 N282 1.351 . S
C279 C284 1.501 . S
C280 C281 1.387 . S
C280 N283 1.341 . S
C281 C279 1.400 . S
C281 C280 1.387 . S
N282 Co273 2.022 . S
N282 C279 1.351 . S
N282 N283 1.365 . S
N283 C280 1.341 . S
N283 N282 1.365 . S
N283 H303 0.862 . S
C284 C279 1.501 . S
C284 H285 0.961 . S
C284 H286 0.961 . S
C284 H287 0.960 . S
H285 C284 0.961 . S
H286 C284 0.961 . S
H287 C284 0.960 . S
C288 N289 1.342 . S
C288 C292 1.401 . S
C288 C293 1.499 . S
N289 Co272 1.989 . S
N289 C288 1.342 . S
N289 N290 1.388 . S
N290 Co273 1.993 . S
N290 N289 1.388 . S
N290 C291 1.346 . S
C291 N290 1.346 . S
C291 C292 1.396 . S
C291 C301 1.510 . S
C292 C288 1.401 . S
C292 C291 1.396 . S
C293 C288 1.499 . S
C293 H294 0.959 . S
C293 H295 0.960 . S
C293 H296 0.961 . S
H294 C293 0.959 . S
H295 C293 0.960 . S
H296 C293 0.961 . S
O297 Co272 1.967 . S
O297 C305 1.258 . S
O298 Co273 1.941 . S
O298 C305 1.266 . S
H299 C301 0.959 . S
H300 C301 0.961 . S
C301 C291 1.510 . S
C301 H299 0.959 . S
C301 H300 0.961 . S
C301 H302 0.960 . S
H302 C301 0.960 . S
H303 N283 0.862 . S
O304 Co272 1.920 . S
O304 C277 1.289 . S
C305 O297 1.258 . S
C305 O298 1.266 . S
Co306 O309 1.970 . S
Co306 N323 1.989 . S
Co306 O331 1.967 . S
Co306 O338 1.920 . S
Co307 O310 1.966 . S
Co307 N316 2.022 . S
Co307 N324 1.993 . S
Co307 O332 1.941 . S
C308 O309 1.258 . S
C308 O310 1.263 . S
O309 Co306 1.970 . S
O309 C308 1.258 . S
O310 Co307 1.966 . S
O310 C308 1.263 . S
C311 O312 1.235 . S
C311 O338 1.289 . S
O312 C311 1.235 . S
C313 C315 1.400 . S
C313 N316 1.351 . S
C313 C318 1.501 . S
C314 C315 1.387 . S
C314 N317 1.341 . S
C315 C313 1.400 . S
C315 C314 1.387 . S
N316 Co307 2.022 . S
N316 C313 1.351 . S
N316 N317 1.365 . S
N317 C314 1.341 . S
N317 N316 1.365 . S
N317 H337 0.862 . S
C318 C313 1.501 . S
C318 H319 0.961 . S
C318 H320 0.961 . S
C318 H321 0.960 . S
H319 C318 0.961 . S
H320 C318 0.961 . S
H321 C318 0.960 . S
C322 N323 1.342 . S
C322 C326 1.401 . S
C322 C327 1.499 . S
N323 Co306 1.989 . S
N323 C322 1.342 . S
N323 N324 1.388 . S
N324 Co307 1.993 . S
N324 N323 1.388 . S
N324 C325 1.346 . S
C325 N324 1.346 . S
C325 C326 1.396 . S
C325 C335 1.510 . S
C326 C322 1.401 . S
C326 C325 1.396 . S
C327 C322 1.499 . S
C327 H328 0.959 . S
C327 H329 0.960 . S
C327 H330 0.961 . S
H328 C327 0.959 . S
H329 C327 0.960 . S
H330 C327 0.961 . S
O331 Co306 1.967 . S
O331 C339 1.258 . S
O332 Co307 1.941 . S
O332 C339 1.266 . S
H333 C335 0.959 . S
H334 C335 0.961 . S
C335 C325 1.510 . S
C335 H333 0.959 . S
C335 H334 0.961 . S
C335 H336 0.960 . S
H336 C335 0.960 . S
H337 N317 0.862 . S
O338 Co306 1.920 . S
O338 C311 1.289 . S
C339 O331 1.258 . S
C339 O332 1.266 . S
Co340 O343 1.970 . S
Co340 N357 1.989 . S
Co340 O365 1.967 . S
Co340 O372 1.920 . S
Co341 O344 1.966 . S
Co341 N350 2.022 . S
Co341 N358 1.993 . S
Co341 O366 1.941 . S
C342 O343 1.258 . S
C342 O344 1.263 . S
O343 Co340 1.970 . S
O343 C342 1.258 . S
O344 Co341 1.966 . S
O344 C342 1.263 . S
C345 O346 1.235 . S
C345 O372 1.289 . S
O346 C345 1.235 . S
C347 C349 1.400 . S
C347 N350 1.351 . S
C347 C352 1.501 . S
C348 C349 1.387 . S
C348 N351 1.341 . S
C349 C347 1.400 . S
C349 C348 1.387 . S
N350 Co341 2.022 . S
N350 C347 1.351 . S
N350 N351 1.365 . S
N351 C348 1.341 . S
N351 N350 1.365 . S
N351 H371 0.862 . S
C352 C347 1.501 . S
C352 H353 0.961 . S
C352 H354 0.961 . S
C352 H355 0.960 . S
H353 C352 0.961 . S
H354 C352 0.961 . S
H355 C352 0.960 . S
C356 N357 1.342 . S
C356 C360 1.401 . S
C356 C361 1.499 . S
N357 Co340 1.989 . S
N357 C356 1.342 . S
N357 N358 1.388 . S
N358 Co341 1.993 . S
N358 N357 1.388 . S
N358 C359 1.346 . S
C359 N358 1.346 . S
C359 C360 1.396 . S
C359 C369 1.510 . S
C360 C356 1.401 . S
C360 C359 1.396 . S
C361 C356 1.499 . S
C361 H362 0.959 . S
C361 H363 0.960 . S
C361 H364 0.961 . S
H362 C361 0.959 . S
H363 C361 0.960 . S
H364 C361 0.961 . S
O365 Co340 1.967 . S
O365 C373 1.258 . S
O366 Co341 1.941 . S
O366 C373 1.266 . S
H367 C369 0.959 . S
H368 C369 0.961 . S
C369 C359 1.510 . S
C369 H367 0.959 . S
C369 H368 0.961 . S
C369 H370 0.960 . S
H370 C369 0.960 . S
H371 N351 0.862 . S
O372 Co340 1.920 . S
O372 C345 1.289 . S
C373 O365 1.258 . S
C373 O366 1.266 . S
Co374 O377 1.970 . S
Co374 N391 1.989 . S
Co374 O399 1.967 . S
Co374 O406 1.920 . S
Co375 O378 1.966 . S
Co375 N384 2.022 . S
Co375 N392 1.993 . S
Co375 O400 1.941 . S
C376 O377 1.258 . S
C376 O378 1.263 . S
O377 Co374 1.970 . S
O377 C376 1.258 . S
O378 Co375 1.966 . S
O378 C376 1.263 . S
C379 O380 1.235 . S
C379 O406 1.289 . S
O380 C379 1.235 . S
C381 C383 1.400 . S
C381 N384 1.351 . S
C381 C386 1.501 . S
C382 C383 1.387 . S
C382 N385 1.341 . S
C383 C381 1.400 . S
C383 C382 1.387 . S
N384 Co375 2.022 . S
N384 C381 1.351 . S
N384 N385 1.365 . S
N385 C382 1.341 . S
N385 N384 1.365 . S
N385 H405 0.862 . S
C386 C381 1.501 . S
C386 H387 0.961 . S
C386 H388 0.961 . S
C386 H389 0.960 . S
H387 C386 0.961 . S
H388 C386 0.961 . S
H389 C386 0.960 . S
C390 N391 1.342 . S
C390 C394 1.401 . S
C390 C395 1.499 . S
N391 Co374 1.989 . S
N391 C390 1.342 . S
N391 N392 1.388 . S
N392 Co375 1.993 . S
N392 N391 1.388 . S
N392 C393 1.346 . S
C393 N392 1.346 . S
C393 C394 1.396 . S
C393 C403 1.510 . S
C394 C390 1.401 . S
C394 C393 1.396 . S
C395 C390 1.499 . S
C395 H396 0.959 . S
C395 H397 0.960 . S
C395 H398 0.961 . S
H396 C395 0.959 . S
H397 C395 0.960 . S
H398 C395 0.961 . S
O399 Co374 1.967 . S
O399 C407 1.258 . S
O400 Co375 1.941 . S
O400 C407 1.266 . S
H401 C403 0.959 . S
H402 C403 0.961 . S
C403 C393 1.510 . S
C403 H401 0.959 . S
C403 H402 0.961 . S
C403 H404 0.960 . S
H404 C403 0.960 . S
H405 N385 0.862 . S
O406 Co374 1.920 . S
O406 C379 1.289 . S
C407 O399 1.258 . S
C407 O400 1.266 . S
H408 C414 0.930 . S
H409 C417 0.930 . S
H410 C418 0.930 . S
H411 C419 0.930 . S
H412 C422 0.930 . S
H413 C423 0.930 . S
C414 H408 0.930 . S
C414 C415 1.355 . S
C414 C416 1.415 . S
C415 C414 1.355 . S
C415 C417 1.419 . S
C416 C414 1.415 . S
C416 C421 1.425 . S
C416 C423 1.409 . S
C417 H409 0.930 . S
C417 C415 1.419 . S
C417 C418 1.362 . S
C418 H410 0.930 . S
C418 C417 1.362 . S
C418 C421 1.409 . S
C419 H411 0.930 . S
C419 C420 1.355 . S
C419 C421 1.415 . S
C420 C419 1.355 . S
C420 C422 1.419 . S
C421 C416 1.425 . S
C421 C418 1.409 . S
C421 C419 1.415 . S
C422 H412 0.930 . S
C422 C420 1.419 . S
C422 C423 1.362 . S
C423 H413 0.930 . S
C423 C416 1.409 . S
C423 C422 1.362 . S
H424 C430 0.930 . S
H425 C433 0.930 . S
H426 C434 0.930 . S
H427 C435 0.930 . S
H428 C438 0.930 . S
H429 C439 0.930 . S
C430 H424 0.930 . S
C430 C431 1.355 . S
C430 C432 1.415 . S
C431 C430 1.355 . S
C431 C433 1.419 1_455 S
C432 C430 1.415 . S
C432 C437 1.425 1_455 S
C432 C439 1.409 . S
C433 H425 0.930 . S
C433 C431 1.419 1_655 S
C433 C434 1.362 . S
C434 H426 0.930 . S
C434 C433 1.362 . S
C434 C437 1.409 . S
C435 H427 0.930 . S
C435 C436 1.355 . S
C435 C437 1.415 . S
C436 C435 1.355 . S
C436 C438 1.419 1_655 S
C437 C432 1.425 1_655 S
C437 C434 1.409 . S
C437 C435 1.415 . S
C438 H428 0.930 . S
C438 C436 1.419 1_455 S
C438 C439 1.362 . S
C439 H429 0.930 . S
C439 C432 1.409 . S
C439 C438 1.362 . S
H440 C446 0.929 1_565 S
H441 C449 0.930 . S
H442 C450 0.930 . S
H443 C451 0.929 1_545 S
H444 C454 0.930 . S
H445 C455 0.930 . S
C446 H440 0.929 1_545 S
C446 C447 1.356 . S
C446 C448 1.413 1_545 S
C447 C446 1.356 . S
C447 C449 1.419 . S
C448 C446 1.413 1_565 S
C448 C453 1.425 1_565 S
C448 C455 1.409 . S
C449 H441 0.930 . S
C449 C447 1.419 . S
C449 C450 1.362 . S
C450 H442 0.930 . S
C450 C449 1.362 . S
C450 C453 1.409 . S
C451 H443 0.929 1_565 S
C451 C452 1.356 . S
C451 C453 1.413 1_565 S
C452 C451 1.356 . S
C452 C454 1.419 . S
C453 C448 1.425 1_545 S
C453 C450 1.409 . S
C453 C451 1.413 1_545 S
C454 H444 0.930 . S
C454 C452 1.419 . S
C454 C455 1.362 . S
C455 H445 0.930 . S
C455 C448 1.409 . S
C455 C454 1.362 . S
H456 C462 0.930 . S
H457 C465 0.930 . S
H458 C466 0.930 . S
H459 C467 0.930 . S
H460 C470 0.930 . S
H461 C471 0.930 . S
C462 H456 0.930 . S
C462 C463 1.355 . S
C462 C464 1.415 . S
C463 C462 1.355 . S
C463 C465 1.419 . S
C464 C462 1.415 . S
C464 C469 1.425 . S
C464 C471 1.409 . S
C465 H457 0.930 . S
C465 C463 1.419 . S
C465 C466 1.362 . S
C466 H458 0.930 . S
C466 C465 1.362 . S
C466 C469 1.409 . S
C467 H459 0.930 . S
C467 C468 1.355 . S
C467 C469 1.415 . S
C468 C467 1.355 . S
C468 C470 1.419 . S
C469 C464 1.425 . S
C469 C466 1.409 . S
C469 C467 1.415 . S
C470 H460 0.930 . S
C470 C468 1.419 . S
C470 C471 1.362 . S
C471 H461 0.930 . S
C471 C464 1.409 . S
C471 C470 1.362 . S
H472 C478 0.930 . S
H473 C481 0.930 . S
H474 C482 0.930 . S
H475 C483 0.930 . S
H476 C486 0.930 . S
H477 C487 0.930 . S
C478 H472 0.930 . S
C478 C479 1.355 . S
C478 C480 1.415 . S
C479 C478 1.355 . S
C479 C481 1.419 1_655 S
C480 C478 1.415 . S
C480 C485 1.425 1_655 S
C480 C487 1.409 . S
C481 H473 0.930 . S
C481 C479 1.419 1_455 S
C481 C482 1.362 . S
C482 H474 0.930 . S
C482 C481 1.362 . S
C482 C485 1.409 . S
C483 H475 0.930 . S
C483 C484 1.355 . S
C483 C485 1.415 . S
C484 C483 1.355 . S
C484 C486 1.419 1_455 S
C485 C480 1.425 1_455 S
C485 C482 1.409 . S
C485 C483 1.415 . S
C486 H476 0.930 . S
C486 C484 1.419 1_655 S
C486 C487 1.362 . S
C487 H477 0.930 . S
C487 C480 1.409 . S
C487 C486 1.362 . S
H488 C494 0.930 . S
H489 C497 0.930 . S
H490 C498 0.930 . S
H491 C499 0.930 . S
H492 C502 0.930 . S
H493 C503 0.930 . S
C494 H488 0.930 . S
C494 C495 1.355 . S
C494 C496 1.415 . S
C495 C494 1.355 . S
C495 C497 1.419 . S
C496 C494 1.415 . S
C496 C501 1.425 1_565 S
C496 C503 1.409 . S
C497 H489 0.930 . S
C497 C495 1.419 . S
C497 C498 1.362 1_565 S
C498 H490 0.930 . S
C498 C497 1.362 1_545 S
C498 C501 1.409 . S
C499 H491 0.930 . S
C499 C500 1.355 . S
C499 C501 1.415 . S
C500 C499 1.355 . S
C500 C502 1.419 . S
C501 C496 1.425 1_545 S
C501 C498 1.409 . S
C501 C499 1.415 . S
C502 H492 0.930 . S
C502 C500 1.419 . S
C502 C503 1.362 1_545 S
C503 H493 0.930 . S
C503 C496 1.409 . S
C503 C502 1.362 1_565 S
H504 C510 0.930 1_455 S
H505 C513 0.930 . S
H506 C514 0.930 . S
H507 C515 0.930 1_655 S
H508 C518 0.930 . S
H509 C519 0.930 . S
C510 H504 0.930 1_655 S
C510 C511 1.355 . S
C510 C512 1.415 1_655 S
C511 C510 1.355 . S
C511 C513 1.419 . S
C512 C510 1.415 1_455 S
C512 C517 1.425 1_455 S
C512 C519 1.409 . S
C513 H505 0.930 . S
C513 C511 1.419 . S
C513 C514 1.362 . S
C514 H506 0.930 . S
C514 C513 1.362 . S
C514 C517 1.409 . S
C515 H507 0.930 1_455 S
C515 C516 1.355 . S
C515 C517 1.415 1_455 S
C516 C515 1.355 . S
C516 C518 1.419 . S
C517 C512 1.425 1_655 S
C517 C514 1.409 . S
C517 C515 1.415 1_655 S
C518 H508 0.930 . S
C518 C516 1.419 . S
C518 C519 1.362 . S
C519 H509 0.930 . S
C519 C512 1.409 . S
C519 C518 1.362 . S
H520 C526 0.930 . S
H521 C529 0.930 . S
H522 C530 0.930 . S
H523 C531 0.930 . S
H524 C534 0.930 . S
H525 C535 0.930 . S
C526 H520 0.930 . S
C526 C527 1.355 . S
C526 C528 1.415 . S
C527 C526 1.355 . S
C527 C529 1.419 . S
C528 C526 1.415 . S
C528 C533 1.425 1_545 S
C528 C535 1.409 . S
C529 H521 0.930 . S
C529 C527 1.419 . S
C529 C530 1.362 1_545 S
C530 H522 0.930 . S
C530 C529 1.362 1_565 S
C530 C533 1.409 . S
C531 H523 0.930 . S
C531 C532 1.355 . S
C531 C533 1.415 . S
C532 C531 1.355 . S
C532 C534 1.419 . S
C533 C528 1.425 1_565 S
C533 C530 1.409 . S
C533 C531 1.415 . S
C534 H524 0.930 . S
C534 C532 1.419 . S
C534 C535 1.362 1_565 S
C535 H525 0.930 . S
C535 C528 1.409 . S
C535 C534 1.362 1_545 S
H536 C542 0.930 . S
H537 C545 0.930 . S
H538 C546 0.930 . S
H539 C547 0.930 . S
H540 C550 0.930 . S
H541 C551 0.930 . S
C542 H536 0.930 . S
C542 C543 1.355 . S
C542 C544 1.415 . S
C543 C542 1.355 . S
C543 C545 1.419 . S
C544 C542 1.415 . S
C544 C549 1.425 . S
C544 C551 1.409 . S
C545 H537 0.930 . S
C545 C543 1.419 . S
C545 C546 1.362 . S
C546 H538 0.930 . S
C546 C545 1.362 . S
C546 C549 1.409 . S
C547 H539 0.930 . S
C547 C548 1.355 . S
C547 C549 1.415 . S
C548 C547 1.355 . S
C548 C550 1.419 . S
C549 C544 1.425 . S
C549 C546 1.409 . S
C549 C547 1.415 . S
C550 H540 0.930 . S
C550 C548 1.419 . S
C550 C551 1.362 . S
C551 H541 0.930 . S
C551 C544 1.409 . S
C551 C550 1.362 . S
H552 C558 0.930 1_545 S
H553 C561 0.930 . S
H554 C562 0.930 . S
H555 C563 0.930 1_565 S
H556 C566 0.930 . S
H557 C567 0.930 . S
C558 H552 0.930 1_565 S
C558 C559 1.355 . S
C558 C560 1.415 1_565 S
C559 C558 1.355 . S
C559 C561 1.419 . S
C560 C558 1.415 1_545 S
C560 C565 1.425 1_545 S
C560 C567 1.409 . S
C561 H553 0.930 . S
C561 C559 1.419 . S
C561 C562 1.362 . S
C562 H554 0.930 . S
C562 C561 1.362 . S
C562 C565 1.409 . S
C563 H555 0.930 1_545 S
C563 C564 1.355 . S
C563 C565 1.415 1_545 S
C564 C563 1.355 . S
C564 C566 1.419 . S
C565 C560 1.425 1_565 S
C565 C562 1.409 . S
C565 C563 1.415 1_565 S
C566 H556 0.930 . S
C566 C564 1.419 . S
C566 C567 1.362 . S
C567 H557 0.930 . S
C567 C560 1.409 . S
C567 C566 1.362 . S
H568 C574 0.930 . S
H569 C577 0.930 . S
H570 C578 0.930 . S
H571 C579 0.930 . S
H572 C582 0.930 . S
H573 C583 0.930 . S
C574 H568 0.930 . S
C574 C575 1.355 . S
C574 C576 1.415 . S
C575 C574 1.355 . S
C575 C577 1.419 . S
C576 C574 1.415 . S
C576 C581 1.425 . S
C576 C583 1.409 . S
C577 H569 0.930 . S
C577 C575 1.419 . S
C577 C578 1.362 . S
C578 H570 0.930 . S
C578 C577 1.362 . S
C578 C581 1.409 . S
C579 H571 0.930 . S
C579 C580 1.355 . S
C579 C581 1.415 . S
C580 C579 1.355 . S
C580 C582 1.419 . S
C581 C576 1.425 . S
C581 C578 1.409 . S
C581 C579 1.415 . S
C582 H572 0.930 . S
C582 C580 1.419 . S
C582 C583 1.362 . S
C583 H573 0.930 . S
C583 C576 1.409 . S
C583 C582 1.362 . S
H584 C590 0.930 . S
H585 C593 0.930 . S
H586 C594 0.930 . S
H587 C595 0.930 . S
H588 C598 0.930 . S
H589 C599 0.930 . S
C590 H584 0.930 . S
C590 C591 1.355 . S
C590 C592 1.415 . S
C591 C590 1.355 . S
C591 C593 1.419 1_455 S
C592 C590 1.415 . S
C592 C597 1.425 1_455 S
C592 C599 1.409 . S
C593 H585 0.930 . S
C593 C591 1.419 1_655 S
C593 C594 1.362 . S
C594 H586 0.930 . S
C594 C593 1.362 . S
C594 C597 1.409 . S
C595 H587 0.930 . S
C595 C596 1.355 . S
C595 C597 1.415 . S
C596 C595 1.355 . S
C596 C598 1.419 1_655 S
C597 C592 1.425 1_655 S
C597 C594 1.409 . S
C597 C595 1.415 . S
C598 H588 0.930 . S
C598 C596 1.419 1_455 S
C598 C599 1.362 . S
C599 H589 0.930 . S
C599 C592 1.409 . S
C599 C598 1.362 . S
H600 C606 0.930 . S
H601 C609 0.930 . S
H602 C610 0.930 . S
H603 C611 0.930 . S
H604 C614 0.930 . S
H605 C615 0.930 . S
C606 H600 0.930 . S
C606 C607 1.355 . S
C606 C608 1.415 . S
C607 C606 1.355 . S
C607 C609 1.419 . S
C608 C606 1.415 . S
C608 C613 1.425 . S
C608 C615 1.409 . S
C609 H601 0.930 . S
C609 C607 1.419 . S
C609 C610 1.362 . S
C610 H602 0.930 . S
C610 C609 1.362 . S
C610 C613 1.409 . S
C611 H603 0.930 . S
C611 C612 1.355 . S
C611 C613 1.415 . S
C612 C611 1.355 . S
C612 C614 1.419 . S
C613 C608 1.425 . S
C613 C610 1.409 . S
C613 C611 1.415 . S
C614 H604 0.930 . S
C614 C612 1.419 . S
C614 C615 1.362 . S
C615 H605 0.930 . S
C615 C608 1.409 . S
C615 C614 1.362 . S
H616 C622 0.930 . S
H617 C625 0.930 . S
H618 C626 0.930 . S
H619 C627 0.930 . S
H620 C630 0.930 . S
H621 C631 0.930 . S
C622 H616 0.930 . S
C622 C623 1.355 . S
C622 C624 1.415 . S
C623 C622 1.355 . S
C623 C625 1.419 . S
C624 C622 1.415 . S
C624 C629 1.425 . S
C624 C631 1.409 . S
C625 H617 0.930 . S
C625 C623 1.419 . S
C625 C626 1.362 . S
C626 H618 0.930 . S
C626 C625 1.362 . S
C626 C629 1.409 . S
C627 H619 0.930 . S
C627 C628 1.355 . S
C627 C629 1.415 . S
C628 C627 1.355 . S
C628 C630 1.419 . S
C629 C624 1.425 . S
C629 C626 1.409 . S
C629 C627 1.415 . S
C630 H620 0.930 . S
C630 C628 1.419 . S
C630 C631 1.362 . S
C631 H621 0.930 . S
C631 C624 1.409 . S
C631 C630 1.362 . S
H632 C638 0.930 . S
H633 C641 0.930 . S
H634 C642 0.930 . S
H635 C643 0.930 . S
H636 C646 0.930 . S
H637 C647 0.930 . S
C638 H632 0.930 . S
C638 C639 1.355 . S
C638 C640 1.415 . S
C639 C638 1.355 . S
C639 C641 1.419 . S
C640 C638 1.415 . S
C640 C645 1.425 . S
C640 C647 1.409 . S
C641 H633 0.930 . S
C641 C639 1.419 . S
C641 C642 1.362 . S
C642 H634 0.930 . S
C642 C641 1.362 . S
C642 C645 1.409 . S
C643 H635 0.930 . S
C643 C644 1.355 . S
C643 C645 1.415 . S
C644 C643 1.355 . S
C644 C646 1.419 . S
C645 C640 1.425 . S
C645 C642 1.409 . S
C645 C643 1.415 . S
C646 H636 0.930 . S
C646 C644 1.419 . S
C646 C647 1.362 . S
C647 H637 0.930 . S
C647 C640 1.409 . S
C647 C646 1.362 . S
H648 C654 0.930 . S
H649 C657 0.930 . S
H650 C658 0.930 . S
H651 C659 0.930 . S
H652 C662 0.930 . S
H653 C663 0.930 . S
C654 H648 0.930 . S
C654 C655 1.355 . S
C654 C656 1.415 . S
C655 C654 1.355 . S
C655 C657 1.419 . S
C656 C654 1.415 . S
C656 C661 1.425 . S
C656 C663 1.409 . S
C657 H649 0.930 . S
C657 C655 1.419 . S
C657 C658 1.362 . S
C658 H650 0.930 . S
C658 C657 1.362 . S
C658 C661 1.409 . S
C659 H651 0.930 . S
C659 C660 1.355 . S
C659 C661 1.415 . S
C660 C659 1.355 . S
C660 C662 1.419 . S
C661 C656 1.425 . S
C661 C658 1.409 . S
C661 C659 1.415 . S
C662 H652 0.930 . S
C662 C660 1.419 . S
C662 C663 1.362 . S
C663 H653 0.930 . S
C663 C656 1.409 . S
C663 C662 1.362 . S
H664 C670 0.930 . S
H665 C673 0.930 . S
H666 C674 0.930 . S
H667 C675 0.930 . S
H668 C678 0.930 . S
H669 C679 0.930 . S
C670 H664 0.930 . S
C670 C671 1.355 . S
C670 C672 1.415 . S
C671 C670 1.355 . S
C671 C673 1.419 . S
C672 C670 1.415 . S
C672 C677 1.425 . S
C672 C679 1.409 . S
C673 H665 0.930 . S
C673 C671 1.419 . S
C673 C674 1.362 . S
C674 H666 0.930 . S
C674 C673 1.362 . S
C674 C677 1.409 . S
C675 H667 0.930 . S
C675 C676 1.355 . S
C675 C677 1.415 . S
C676 C675 1.355 . S
C676 C678 1.419 . S
C677 C672 1.425 . S
C677 C674 1.409 . S
C677 C675 1.415 . S
C678 H668 0.930 . S
C678 C676 1.419 . S
C678 C679 1.362 . S
C679 H669 0.930 . S
C679 C672 1.409 . S
C679 C678 1.362 . S
H680 C686 0.930 . S
H681 C689 0.930 . S
H682 C690 0.930 . S
H683 C691 0.930 . S
H684 C694 0.930 . S
H685 C695 0.930 . S
C686 H680 0.930 . S
C686 C687 1.355 . S
C686 C688 1.415 . S
C687 C686 1.355 . S
C687 C689 1.419 . S
C688 C686 1.415 . S
C688 C693 1.425 . S
C688 C695 1.409 . S
C689 H681 0.930 . S
C689 C687 1.419 . S
C689 C690 1.362 . S
C690 H682 0.930 . S
C690 C689 1.362 . S
C690 C693 1.409 . S
C691 H683 0.930 . S
C691 C692 1.355 . S
C691 C693 1.415 . S
C692 C691 1.355 . S
C692 C694 1.419 . S
C693 C688 1.425 . S
C693 C690 1.409 . S
C693 C691 1.415 . S
C694 H684 0.930 . S
C694 C692 1.419 . S
C694 C695 1.362 . S
C695 H685 0.930 . S
C695 C688 1.409 . S
C695 C694 1.362 . S
H696 C702 0.930 . S
H697 C705 0.930 . S
H698 C706 0.930 . S
H699 C707 0.930 . S
H700 C710 0.930 . S
H701 C711 0.930 . S
C702 H696 0.930 . S
C702 C703 1.355 . S
C702 C704 1.415 . S
C703 C702 1.355 . S
C703 C705 1.419 . S
C704 C702 1.415 . S
C704 C709 1.425 1_556 S
C704 C711 1.409 1_556 S
C705 H697 0.930 . S
C705 C703 1.419 . S
C705 C706 1.362 . S
C706 H698 0.930 . S
C706 C705 1.362 . S
C706 C709 1.409 1_556 S
C707 H699 0.930 . S
C707 C708 1.355 . S
C707 C709 1.415 . S
C708 C707 1.355 . S
C708 C710 1.419 . S
C709 C704 1.425 1_554 S
C709 C706 1.409 1_554 S
C709 C707 1.415 . S
C710 H700 0.930 . S
C710 C708 1.419 . S
C710 C711 1.362 . S
C711 H701 0.930 . S
C711 C704 1.409 1_554 S
C711 C710 1.362 . S
H712 C718 0.930 . S
H713 C721 0.930 . S
H714 C722 0.930 . S
H715 C723 0.930 . S
H716 C726 0.930 . S
H717 C727 0.930 . S
C718 H712 0.930 . S
C718 C719 1.355 . S
C718 C720 1.415 . S
C719 C718 1.355 . S
C719 C721 1.419 . S
C720 C718 1.415 . S
C720 C725 1.425 . S
C720 C727 1.409 . S
C721 H713 0.930 . S
C721 C719 1.419 . S
C721 C722 1.362 . S
C722 H714 0.930 . S
C722 C721 1.362 . S
C722 C725 1.409 . S
C723 H715 0.930 . S
C723 C724 1.355 . S
C723 C725 1.415 . S
C724 C723 1.355 . S
C724 C726 1.419 . S
C725 C720 1.425 . S
C725 C722 1.409 . S
C725 C723 1.415 . S
C726 H716 0.930 . S
C726 C724 1.419 . S
C726 C727 1.362 . S
C727 H717 0.930 . S
C727 C720 1.409 . S
C727 C726 1.362 . S
H728 C734 0.930 . S
H729 C737 0.930 . S
H730 C738 0.930 . S
H731 C739 0.930 . S
H732 C742 0.930 . S
H733 C743 0.930 . S
C734 H728 0.930 . S
C734 C735 1.355 . S
C734 C736 1.415 . S
C735 C734 1.355 . S
C735 C737 1.419 . S
C736 C734 1.415 . S
C736 C741 1.425 . S
C736 C743 1.409 . S
C737 H729 0.930 . S
C737 C735 1.419 . S
C737 C738 1.362 . S
C738 H730 0.930 . S
C738 C737 1.362 . S
C738 C741 1.409 . S
C739 H731 0.930 . S
C739 C740 1.355 . S
C739 C741 1.415 . S
C740 C739 1.355 . S
C740 C742 1.419 . S
C741 C736 1.425 . S
C741 C738 1.409 . S
C741 C739 1.415 . S
C742 H732 0.930 . S
C742 C740 1.419 . S
C742 C743 1.362 . S
C743 H733 0.930 . S
C743 C736 1.409 . S
C743 C742 1.362 . S
H744 C750 0.930 . S
H745 C753 0.930 . S
H746 C754 0.930 . S
H747 C755 0.930 . S
H748 C758 0.930 . S
H749 C759 0.930 . S
C750 H744 0.930 . S
C750 C751 1.355 . S
C750 C752 1.415 . S
C751 C750 1.355 . S
C751 C753 1.419 . S
C752 C750 1.415 . S
C752 C757 1.425 1_556 S
C752 C759 1.409 1_556 S
C753 H745 0.930 . S
C753 C751 1.419 . S
C753 C754 1.362 . S
C754 H746 0.930 . S
C754 C753 1.362 . S
C754 C757 1.409 1_556 S
C755 H747 0.930 . S
C755 C756 1.355 . S
C755 C757 1.415 . S
C756 C755 1.355 . S
C756 C758 1.419 . S
C757 C752 1.425 1_554 S
C757 C754 1.409 1_554 S
C757 C755 1.415 . S
C758 H748 0.930 . S
C758 C756 1.419 . S
C758 C759 1.362 . S
C759 H749 0.930 . S
C759 C752 1.409 1_554 S
C759 C758 1.362 . S
H760 C766 0.930 . S
H761 C769 0.930 . S
H762 C770 0.930 . S
H763 C771 0.930 . S
H764 C774 0.930 . S
H765 C775 0.930 . S
C766 H760 0.930 . S
C766 C767 1.355 . S
C766 C768 1.415 . S
C767 C766 1.355 . S
C767 C769 1.419 . S
C768 C766 1.415 . S
C768 C773 1.425 . S
C768 C775 1.409 . S
C769 H761 0.930 . S
C769 C767 1.419 . S
C769 C770 1.362 . S
C770 H762 0.930 . S
C770 C769 1.362 . S
C770 C773 1.409 . S
C771 H763 0.930 . S
C771 C772 1.355 . S
C771 C773 1.415 . S
C772 C771 1.355 . S
C772 C774 1.419 . S
C773 C768 1.425 . S
C773 C770 1.409 . S
C773 C771 1.415 . S
C774 H764 0.930 . S
C774 C772 1.419 . S
C774 C775 1.362 . S
C775 H765 0.930 . S
C775 C768 1.409 . S
C775 C774 1.362 . S
H776 C782 0.930 . S
H777 C785 0.930 . S
H778 C786 0.930 . S
H779 C787 0.930 . S
H780 C790 0.930 . S
H781 C791 0.930 . S
C782 H776 0.930 . S
C782 C783 1.355 . S
C782 C784 1.415 . S
C783 C782 1.355 . S
C783 C785 1.419 . S
C784 C782 1.415 . S
C784 C789 1.425 . S
C784 C791 1.409 . S
C785 H777 0.930 . S
C785 C783 1.419 . S
C785 C786 1.362 . S
C786 H778 0.930 . S
C786 C785 1.362 . S
C786 C789 1.409 . S
C787 H779 0.930 . S
C787 C788 1.355 . S
C787 C789 1.415 . S
C788 C787 1.355 . S
C788 C790 1.419 . S
C789 C784 1.425 . S
C789 C786 1.409 . S
C789 C787 1.415 . S
C790 H780 0.930 . S
C790 C788 1.419 . S
C790 C791 1.362 . S
C791 H781 0.930 . S
C791 C784 1.409 . S
C791 C790 1.362 . S
H792 C798 0.930 . S
H793 C801 0.930 . S
H794 C802 0.930 . S
H795 C803 0.930 . S
H796 C806 0.930 . S
H797 C807 0.930 . S
C798 H792 0.930 . S
C798 C799 1.355 . S
C798 C800 1.415 . S
C799 C798 1.355 . S
C799 C801 1.419 . S
C800 C798 1.415 . S
C800 C805 1.425 1_655 S
C800 C807 1.409 . S
C801 H793 0.930 . S
C801 C799 1.419 . S
C801 C802 1.362 1_655 S
C802 H794 0.930 . S
C802 C801 1.362 1_455 S
C802 C805 1.409 . S
C803 H795 0.930 . S
C803 C804 1.355 . S
C803 C805 1.415 . S
C804 C803 1.355 . S
C804 C806 1.419 . S
C805 C800 1.425 1_455 S
C805 C802 1.409 . S
C805 C803 1.415 . S
C806 H796 0.930 . S
C806 C804 1.419 . S
C806 C807 1.362 1_455 S
C807 H797 0.930 . S
C807 C800 1.409 . S
C807 C806 1.362 1_655 S
H808 C814 0.930 . S
H809 C817 0.930 . S
H810 C818 0.930 . S
H811 C819 0.930 . S
H812 C822 0.930 . S
H813 C823 0.930 . S
C814 H808 0.930 . S
C814 C815 1.355 . S
C814 C816 1.415 1_565 S
C815 C814 1.355 . S
C815 C817 1.419 . S
C816 C814 1.415 1_545 S
C816 C821 1.425 1_545 S
C816 C823 1.409 . S
C817 H809 0.930 . S
C817 C815 1.419 . S
C817 C818 1.362 . S
C818 H810 0.930 . S
C818 C817 1.362 . S
C818 C821 1.409 . S
C819 H811 0.930 . S
C819 C820 1.355 . S
C819 C821 1.415 1_545 S
C820 C819 1.355 . S
C820 C822 1.419 . S
C821 C816 1.425 1_565 S
C821 C818 1.409 . S
C821 C819 1.415 1_565 S
C822 H812 0.930 . S
C822 C820 1.419 . S
C822 C823 1.362 . S
C823 H813 0.930 . S
C823 C816 1.409 . S
C823 C822 1.362 . S
H824 C830 0.930 . S
H825 C833 0.930 . S
H826 C834 0.930 . S
H827 C835 0.930 . S
H828 C838 0.930 . S
H829 C839 0.930 . S
C830 H824 0.930 . S
C830 C831 1.355 . S
C830 C832 1.415 . S
C831 C830 1.355 . S
C831 C833 1.419 . S
C832 C830 1.415 . S
C832 C837 1.425 . S
C832 C839 1.409 . S
C833 H825 0.930 . S
C833 C831 1.419 . S
C833 C834 1.362 . S
C834 H826 0.930 . S
C834 C833 1.362 . S
C834 C837 1.409 . S
C835 H827 0.930 . S
C835 C836 1.355 . S
C835 C837 1.415 . S
C836 C835 1.355 . S
C836 C838 1.419 . S
C837 C832 1.425 . S
C837 C834 1.409 . S
C837 C835 1.415 . S
C838 H828 0.930 . S
C838 C836 1.419 . S
C838 C839 1.362 . S
C839 H829 0.930 . S
C839 C832 1.409 . S
C839 C838 1.362 . S
H840 C846 0.930 . S
H841 C849 0.930 . S
H842 C850 0.930 . S
H843 C851 0.930 . S
H844 C854 0.930 . S
H845 C855 0.930 . S
C846 H840 0.930 . S
C846 C847 1.355 . S
C846 C848 1.415 . S
C847 C846 1.355 . S
C847 C849 1.419 . S
C848 C846 1.415 . S
C848 C853 1.425 1_455 S
C848 C855 1.409 . S
C849 H841 0.930 . S
C849 C847 1.419 . S
C849 C850 1.362 1_455 S
C850 H842 0.930 . S
C850 C849 1.362 1_655 S
C850 C853 1.409 . S
C851 H843 0.930 . S
C851 C852 1.355 . S
C851 C853 1.415 . S
C852 C851 1.355 . S
C852 C854 1.419 . S
C853 C848 1.425 1_655 S
C853 C850 1.409 . S
C853 C851 1.415 . S
C854 H844 0.930 . S
C854 C852 1.419 . S
C854 C855 1.362 1_655 S
C855 H845 0.930 . S
C855 C848 1.409 . S
C855 C854 1.362 1_455 S
H856 C862 0.930 . S
H857 C865 0.930 . S
H858 C866 0.930 . S
H859 C867 0.930 . S
H860 C870 0.930 . S
H861 C871 0.930 . S
C862 H856 0.930 . S
C862 C863 1.355 . S
C862 C864 1.407 1_545 S
C863 C862 1.355 . S
C863 C865 1.419 . S
C864 C862 1.407 1_565 S
C864 C869 1.417 1_565 S
C864 C871 1.421 . S
C865 H857 0.930 . S
C865 C863 1.419 . S
C865 C866 1.362 . S
C866 H858 0.930 . S
C866 C865 1.362 . S
C866 C869 1.421 . S
C867 H859 0.930 . S
C867 C868 1.355 . S
C867 C869 1.407 1_565 S
C868 C867 1.355 . S
C868 C870 1.419 . S
C869 C864 1.417 1_545 S
C869 C866 1.421 . S
C869 C867 1.407 1_545 S
C870 H860 0.930 . S
C870 C868 1.419 . S
C870 C871 1.362 . S
C871 H861 0.930 . S
C871 C864 1.421 . S
C871 C870 1.362 . S
H872 C878 0.930 . S
H873 C881 0.930 . S
H874 C882 0.930 . S
H875 C883 0.930 . S
H876 C886 0.930 . S
H877 C887 0.930 . S
C878 H872 0.930 . S
C878 C879 1.355 . S
C878 C880 1.415 . S
C879 C878 1.355 . S
C879 C881 1.419 . S
C880 C878 1.415 . S
C880 C885 1.425 . S
C880 C887 1.409 . S
C881 H873 0.930 . S
C881 C879 1.419 . S
C881 C882 1.362 . S
C882 H874 0.930 . S
C882 C881 1.362 . S
C882 C885 1.409 . S
C883 H875 0.930 . S
C883 C884 1.355 . S
C883 C885 1.415 . S
C884 C883 1.355 . S
C884 C886 1.419 . S
C885 C880 1.425 . S
C885 C882 1.409 . S
C885 C883 1.415 . S
C886 H876 0.930 . S
C886 C884 1.419 . S
C886 C887 1.362 . S
C887 H877 0.930 . S
C887 C880 1.409 . S
C887 C886 1.362 . S
C415 C111 1.525 . S
C420 C9 1.526 . S
C431 C145 1.525 . S
C436 C43 1.525 . S
C447 C179 1.530 . S
C452 C77 1.530 . S
C463 C213 1.530 . S
C468 C315 1.530 . S
C479 C247 1.524 . S
C484 C349 1.525 . S
C495 C281 1.526 . S
C500 C383 1.527 . S
C511 C107 0.560 . S
C516 C5 0.513 . S
C527 C39 0.672 . S
C532 C141 0.630 . S
C543 C175 0.549 . S
C548 C73 0.605 . S
C559 C209 0.500 . S
C564 C311 0.504 . S
C575 C345 0.603 . S
C580 C243 0.547 . S
C591 C277 0.685 . S
C596 C379 0.686 . S
C607 C274 1.480 . S
C612 C2 1.481 . S
C623 C36 1.472 . S
C628 C308 1.501 . S
C639 C70 1.487 . S
C644 C342 1.533 . S
C655 C104 1.473 . S
C660 C376 1.512 . S
C671 C138 1.527 . S
C676 C206 1.538 . S
C687 C240 1.526 . S
C692 C172 1.481 . S
C703 C360 1.661 . S
C708 C20 1.638 . S
C719 C394 1.640 . S
C724 C54 1.661 . S
C735 C224 1.660 . S
C740 C88 1.631 . S
C751 C258 1.624 . S
C756 C122 1.650 . S
C767 C156 1.624 . S
C772 C292 1.651 . S
C783 C190 1.636 . S
C788 C326 1.661 . S
C799 C407 1.335 . S
C804 C33 1.308 . S
C815 C237 1.353 . S
C820 C67 1.335 . S
C831 C101 1.291 . S
C836 C271 1.366 . S
C847 C305 1.320 . S
C852 C135 1.322 . S
C863 C339 1.360 . S
C868 C169 1.326 . S
C879 C373 1.350 . S
C884 C203 1.297 . S
