# Generated by pormake.
# Topology wjg, (4)-cn, num edge types: 1
# Building blocks:
#     Node 0, Type 0, BuildingBlock: QUQFOY_clean_sbu_3, # of connection points: 4
#     Node 1, Type 0, BuildingBlock: QUQFOY_clean_sbu_3, # of connection points: 4
#     Node 2, Type 0, BuildingBlock: QUQFOY_clean_sbu_3, # of connection points: 4
#     Node 3, Type 0, BuildingBlock: QUQFOY_clean_sbu_3, # of connection points: 4
#     Node 4, Type 0, BuildingBlock: QUQFOY_clean_sbu_3, # of connection points: 4
#     Node 5, Type 0, BuildingBlock: QUQFOY_clean_sbu_3, # of connection points: 4
#     Node 6, Type 0, BuildingBlock: QUQFOY_clean_sbu_3, # of connection points: 4
#     Node 7, Type 0, BuildingBlock: QUQFOY_clean_sbu_3, # of connection points: 4
#     Node 8, Type 0, BuildingBlock: QUQFOY_clean_sbu_3, # of connection points: 4
#     Node 9, Type 0, BuildingBlock: QUQFOY_clean_sbu_3, # of connection points: 4
#     Node 10, Type 0, BuildingBlock: QUQFOY_clean_sbu_3, # of connection points: 4
#     Node 11, Type 0, BuildingBlock: QUQFOY_clean_sbu_3, # of connection points: 4
#     Edge 12, Type (0, 0), BuildingBlock: AJUNOK_clean_linker_0, # of connection points: 2
#     Edge 13, Type (0, 0), BuildingBlock: AJUNOK_clean_linker_0, # of connection points: 2
#     Edge 14, Type (0, 0), BuildingBlock: AJUNOK_clean_linker_0, # of connection points: 2
#     Edge 15, Type (0, 0), BuildingBlock: AJUNOK_clean_linker_0, # of connection points: 2
#     Edge 16, Type (0, 0), BuildingBlock: AJUNOK_clean_linker_0, # of connection points: 2
#     Edge 17, Type (0, 0), BuildingBlock: AJUNOK_clean_linker_0, # of connection points: 2
#     Edge 18, Type (0, 0), BuildingBlock: AJUNOK_clean_linker_0, # of connection points: 2
#     Edge 19, Type (0, 0), BuildingBlock: AJUNOK_clean_linker_0, # of connection points: 2
#     Edge 20, Type (0, 0), BuildingBlock: AJUNOK_clean_linker_0, # of connection points: 2
#     Edge 21, Type (0, 0), BuildingBlock: AJUNOK_clean_linker_0, # of connection points: 2
#     Edge 22, Type (0, 0), BuildingBlock: AJUNOK_clean_linker_0, # of connection points: 2
#     Edge 23, Type (0, 0), BuildingBlock: AJUNOK_clean_linker_0, # of connection points: 2
#     Edge 24, Type (0, 0), BuildingBlock: AJUNOK_clean_linker_0, # of connection points: 2
#     Edge 25, Type (0, 0), BuildingBlock: AJUNOK_clean_linker_0, # of connection points: 2
#     Edge 26, Type (0, 0), BuildingBlock: AJUNOK_clean_linker_0, # of connection points: 2
#     Edge 27, Type (0, 0), BuildingBlock: AJUNOK_clean_linker_0, # of connection points: 2
#     Edge 28, Type (0, 0), BuildingBlock: AJUNOK_clean_linker_0, # of connection points: 2
#     Edge 29, Type (0, 0), BuildingBlock: AJUNOK_clean_linker_0, # of connection points: 2
#     Edge 30, Type (0, 0), BuildingBlock: AJUNOK_clean_linker_0, # of connection points: 2
#     Edge 31, Type (0, 0), BuildingBlock: AJUNOK_clean_linker_0, # of connection points: 2
#     Edge 32, Type (0, 0), BuildingBlock: AJUNOK_clean_linker_0, # of connection points: 2
#     Edge 33, Type (0, 0), BuildingBlock: AJUNOK_clean_linker_0, # of connection points: 2
#     Edge 34, Type (0, 0), BuildingBlock: AJUNOK_clean_linker_0, # of connection points: 2
#     Edge 35, Type (0, 0), BuildingBlock: AJUNOK_clean_linker_0, # of connection points: 2
# Relax obj value: 0.309
# Max RMSD: 0.115
# Mean RMSD: 0.107
data_MOF--net-wjg--node1-QUQFOY_clean_sbu_3--edge1-AJUNOK_clean_linker_0
_symmetry_space_group_name_H-M    P1
_symmetry_Int_Tables_number       1
_symmetry_cell_setting            triclinic
loop_
_symmetry_equiv_pos_as_xyz
'x, y, z'
_cell_length_a     24.147771
_cell_length_b     23.860087
_cell_length_c     31.75022
_cell_angle_alpha  89.66471
_cell_angle_beta   90.200703
_cell_angle_gamma 120.29741
loop_
_atom_site_label
_atom_site_type_symbol
_atom_site_fract_x
_atom_site_fract_y
_atom_site_fract_z
_atom_type_partial_charge
C0 C 0.23135 0.53146 0.32156 0.0
O1 O 0.26873 0.50939 0.32893 0.0
Cd2 Cd 0.24405 0.40201 0.34048 0.0
O3 O 0.17078 0.49446 0.31638 0.0
Cd4 Cd 0.0829 0.3753 0.314 0.0
C5 C 0.11453 0.37518 0.40268 0.0
O6 O 0.1616 0.34819 0.29137 0.0
O7 O 0.07467 0.26556 0.31317 0.0
O8 O 0.07047 0.41667 0.24701 0.0
C9 C 0.13061 0.28784 0.29826 0.0
O10 O 0.15161 0.38436 0.37278 0.0
C11 C 0.01414 0.37065 0.23978 0.0
O12 O 0.06057 0.36952 0.39359 0.0
O13 O -0.01416 0.33051 0.26979 0.0
C14 C 0.70749 0.23715 0.67388 0.0
O15 O 0.74929 0.24657 0.70182 0.0
Cd16 Cd 0.82355 0.20579 0.70427 0.0
O17 O 0.69068 0.19206 0.64694 0.0
Cd18 Cd 0.71878 0.10555 0.64264 0.0
C19 C 0.73636 0.08868 0.74054 0.0
O20 O 0.83238 0.18728 0.63338 0.0
O21 O 0.81233 0.08859 0.63594 0.0
O22 O 0.68611 0.10797 0.57201 0.0
C23 C 0.85339 0.14833 0.63114 0.0
O24 O 0.78093 0.09237 0.71832 0.0
C25 C 0.65925 0.0477 0.56458 0.0
O26 O 0.68845 0.08369 0.72029 0.0
O27 O 0.65293 0.01076 0.59571 0.0
C28 C 0.45093 0.71469 0.97435 0.0
O29 O 0.47398 0.77577 0.97607 0.0
Cd30 Cd 0.5804 0.8577 -0.0097 0.0
O31 O 0.48647 0.68922 0.97445 0.0
Cd32 Cd 0.60351 0.72347 0.96873 0.0
C33 C 0.60313 0.75287 0.06123 0.0
O34 O 0.64171 0.83488 0.94565 0.0
O35 O 0.71255 0.81753 0.97441 0.0
O36 O 0.56137 0.6699 0.90232 0.0
C37 C 0.69903 0.85763 0.95792 0.0
O38 O 0.59519 0.78944 0.03641 0.0
C39 C 0.60501 0.65663 0.89515 0.0
O40 O 0.60627 0.70493 0.04648 0.0
O41 O 0.64553 0.66829 0.9245 0.0
C42 C 0.73329 0.45244 0.31993 0.0
O43 O 0.69341 0.47257 0.32022 0.0
Cd44 Cd 0.71423 0.58022 0.32793 0.0
O45 O 0.79389 0.49105 0.31804 0.0
Cd46 Cd 0.87733 0.60993 0.31174 0.0
C47 C 0.83452 0.59896 0.39999 0.0
O48 O 0.80404 0.64568 0.28615 0.0
O49 O 0.89326 0.72031 0.31235 0.0
O50 O 0.89181 0.56859 0.24631 0.0
C51 C 0.83932 0.70479 0.29627 0.0
O52 O 0.79897 0.59335 0.36957 0.0
C53 C 0.94959 0.61272 0.24086 0.0
O54 O 0.89078 0.61031 0.39136 0.0
O55 O 0.97715 0.65236 0.27102 0.0
C56 C 0.25238 0.73613 0.66277 0.0
O57 O 0.19188 0.69937 0.66666 0.0
Cd58 Cd 0.10906 0.72416 0.67032 0.0
O59 O 0.27836 0.79728 0.65563 0.0
Cd60 Cd 0.24758 0.88474 0.64332 0.0
C61 C 0.21337 0.85336 0.73218 0.0
O62 O 0.13871 0.80745 0.62055 0.0
O63 O 0.15129 0.89882 0.64076 0.0
O64 O 0.291 0.88692 0.57495 0.0
C65 C 0.11337 0.84175 0.62766 0.0
O66 O 0.18473 0.81898 0.70111 0.0
C67 C 0.3146 0.94702 0.56785 0.0
O68 O 0.26179 0.90876 0.72392 0.0
O69 O 0.3132 0.98107 0.59828 0.0
C70 C 0.51917 0.28646 -0.01762 0.0
O71 O 0.50009 0.2261 -0.01505 0.0
Cd72 Cd 0.3962 0.13789 -0.00469 0.0
O73 O 0.48039 0.30823 -0.01983 0.0
Cd74 Cd 0.36107 0.26942 0.97364 0.0
C75 C 0.36269 0.23075 0.06216 0.0
O76 O 0.33545 0.16248 0.94915 0.0
O77 O 0.25419 0.16878 0.96952 0.0
O78 O 0.40445 0.32289 0.90707 0.0
C79 C 0.27578 0.1334 0.95633 0.0
O80 O 0.37283 0.20707 0.03021 0.0
C81 C 0.35992 0.33445 0.89845 0.0
O82 O 0.35125 0.27663 0.05524 0.0
O83 O 0.31945 0.3238 0.92762 0.0
C84 C 0.45579 0.74039 0.30315 0.0
O85 O 0.47663 0.7009 0.30209 0.0
Cd86 Cd 0.58409 0.72412 0.29547 0.0
O87 O 0.49331 0.80158 0.307 0.0
Cd88 Cd 0.61118 0.88298 0.31693 0.0
C89 C 0.60743 0.85133 0.22399 0.0
O90 O 0.64959 0.81093 0.33891 0.0
O91 O 0.7198 0.89914 0.30805 0.0
O92 O 0.57962 0.88732 0.38807 0.0
C93 C 0.70616 0.84522 0.32474 0.0
O94 O 0.5993 0.80709 0.24926 0.0
C95 C 0.61327 0.94826 0.39277 0.0
O96 O 0.6146 0.9043 0.23861 0.0
O97 O 0.64355 0.98134 0.3603 0.0
C98 C 0.69638 0.46391 0.62185 0.0
O99 O 0.73727 0.49506 0.593 0.0
Cd100 Cd 0.81506 0.61101 0.59284 0.0
O101 O 0.68031 0.49388 0.64766 0.0
Cd102 Cd 0.70389 0.60777 0.64772 0.0
C103 C 0.72822 0.63875 0.5518 0.0
O104 O 0.8141 0.63711 0.66327 0.0
O105 O 0.80165 0.71918 0.65512 0.0
O106 O 0.6524 0.56712 0.71493 0.0
C107 C 0.83968 0.69821 0.66244 0.0
O108 O 0.77066 0.6784 0.5762 0.0
C109 C 0.63726 0.61015 0.72084 0.0
O110 O 0.6765 0.59643 0.56942 0.0
O111 O 0.6473 0.64951 0.69062 0.0
C112 C 0.2169 0.68178 -0.00378 0.0
O113 O 0.24707 0.7333 0.01734 0.0
Cd114 Cd 0.23491 0.80589 0.97414 0.0
O115 O 0.166 0.67082 0.97683 0.0
Cd116 Cd 0.09953 0.72446 -0.00639 0.0
C117 C 0.12832 0.73436 0.89381 0.0
O118 O 0.17342 0.8347 0.01467 0.0
O119 O 0.08782 0.82081 -0.01635 0.0
O120 O 0.09164 0.68669 0.06396 0.0
C121 C 0.14264 0.85973 -0.00119 0.0
O122 O 0.18297 0.7517 0.90944 0.0
C123 C 0.03153 0.66187 0.06772 0.0
O124 O 0.08059 0.72098 0.91748 0.0
O125 O 5e-05 0.66247 0.03546 0.0
C126 C 0.52654 0.2349 0.30164 0.0
O127 O 0.51311 0.27664 0.2875 0.0
Cd128 Cd 0.41462 0.26433 0.26766 0.0
O129 O 0.48323 0.17685 0.31135 0.0
Cd130 Cd 0.36145 0.10183 0.31476 0.0
C131 C 0.3631 0.11748 0.22352 0.0
O132 O 0.34035 0.19322 0.31925 0.0
O133 O 0.25636 0.09835 0.31261 0.0
O134 O 0.37835 0.1028 0.38901 0.0
C135 C 0.27993 0.15942 0.31429 0.0
O136 O 0.38298 0.16082 0.25059 0.0
C137 C 0.35226 0.0422 0.39501 0.0
O138 O 0.34836 0.06127 0.2368 0.0
O139 O 0.33019 0.00616 0.36254 0.0
C140 C 0.27041 0.52694 0.63575 0.0
O141 O 0.21229 0.5047 0.62449 0.0
Cd142 Cd 0.13123 0.39691 0.60926 0.0
O143 O 0.29336 0.48969 0.64298 0.0
Cd144 Cd 0.26343 0.37044 0.64376 0.0
C145 C 0.24131 0.37613 0.55423 0.0
O146 O 0.15162 0.33617 0.65966 0.0
O147 O 0.16663 0.25905 0.63892 0.0
O148 O 0.29195 0.39924 0.71539 0.0
C149 C 0.12773 0.27662 0.65116 0.0
O150 O 0.21108 0.38237 0.58376 0.0
C151 C 0.32024 0.3676 0.72194 0.0
O152 O 0.28822 0.3687 0.56436 0.0
O153 O 0.32716 0.33852 0.69054 0.0
C154 C 0.73024 0.28186 -0.01971 0.0
O155 O 0.69056 0.22115 -0.01742 0.0
Cd156 Cd 0.70863 0.1328 0.97408 0.0
O157 O 0.79083 0.30497 -0.02013 0.0
Cd158 Cd 0.8684 0.26426 -0.01125 0.0
C159 C 0.82726 0.2284 0.8963 0.0
O160 O 0.79958 0.15276 0.01124 0.0
O161 O 0.88611 0.1729 0.97857 0.0
O162 O 0.86943 0.28785 0.06071 0.0
C163 C 0.83332 0.13127 -0.00479 0.0
O164 O 0.78411 0.19342 0.92227 0.0
C165 C 0.92958 0.32184 0.06568 0.0
O166 O 0.88118 0.27385 0.90987 0.0
O167 O 0.96488 0.33499 0.03293 0.0
C168 C 0.29336 0.64344 0.34668 0.0
C169 C 0.26296 0.60114 0.31277 0.0
C170 C 0.35424 0.69868 0.34163 0.0
C171 C 0.38592 0.71202 0.3027 0.0
H172 H 0.27476 0.62868 0.37832 0.0
H173 H 0.38014 0.72501 0.36949 0.0
S174 S 0.31813 0.62617 0.20223 0.0
N175 N 0.26159 0.58471 0.23747 0.0
N176 N 0.37692 0.68731 0.22806 0.0
C177 C 0.35119 0.67649 0.26733 0.0
C178 C 0.28886 0.62123 0.27237 0.0
C179 C 0.75264 0.35375 0.66234 0.0
C180 C 0.69742 0.29203 0.66413 0.0
C181 C 0.75015 0.40765 0.64829 0.0
C182 C 0.6922 0.40301 0.63603 0.0
H183 H 0.79921 0.36034 0.67039 0.0
H184 H 0.79459 0.4539 0.64694 0.0
S185 S 0.53192 0.25374 0.63816 0.0
N186 N 0.58162 0.22911 0.65399 0.0
N187 N 0.57659 0.33271 0.62911 0.0
C188 C 0.63546 0.34227 0.63909 0.0
C189 C 0.63822 0.28611 0.65259 0.0
C190 C 0.34523 0.64289 0.00723 0.0
C191 C 0.38103 0.67441 0.97108 0.0
C192 C 0.2832 0.63304 0.01245 0.0
C193 C 0.25581 0.65428 -0.01837 0.0
H194 H 0.36807 0.63387 0.03375 0.0
H195 H 0.26043 0.61714 0.04298 0.0
S196 S 0.32649 0.72698 0.87794 0.0
N197 N 0.38162 0.71635 0.90142 0.0
N198 N 0.26518 0.69756 0.91084 0.0
C199 C 0.28757 0.67628 0.94279 0.0
C200 C 0.3506 0.68669 0.93769 0.0
C201 C 0.61494 0.28635 0.35117 0.0
C202 C 0.59443 0.25973 0.31088 0.0
C203 C 0.66999 0.34757 0.3558 0.0
C204 C 0.7063 0.38202 0.32041 0.0
H205 H 0.58266 0.26603 0.37777 0.0
H206 H 0.67856 0.37176 0.38592 0.0
S207 S 0.68505 0.32139 0.21138 0.0
N208 N 0.62367 0.26323 0.23752 0.0
N209 N 0.72823 0.37775 0.24646 0.0
C210 C 0.69386 0.34951 0.28195 0.0
C211 C 0.63753 0.28765 0.27719 0.0
C212 C 0.27244 0.65553 0.69698 0.0
C213 C 0.29067 0.70385 0.66587 0.0
C214 C 0.27914 0.60148 0.69025 0.0
C215 C 0.303 0.59361 0.65187 0.0
H216 H 0.24508 0.65513 0.72411 0.0
H217 H 0.25611 0.56119 0.71223 0.0
S218 S 0.38256 0.71933 0.56915 0.0
N219 N 0.35303 0.75098 0.60218 0.0
N220 N 0.36326 0.64722 0.58857 0.0
C221 C 0.33256 0.64708 0.62435 0.0
C222 C 0.32701 0.70314 0.63168 0.0
C223 C 0.67856 0.33222 0.01799 0.0
C224 C 0.703 0.32461 -0.02023 0.0
C225 C 0.62199 0.33498 0.0187 0.0
C226 C 0.58875 0.32991 -0.01881 0.0
H227 H 0.69732 0.32588 0.04757 0.0
H228 H 0.59891 0.33005 0.04882 0.0
S229 S 0.64516 0.33186 0.87287 0.0
N230 N 0.69938 0.32919 0.90343 0.0
N231 N 0.59307 0.33499 0.90496 0.0
C232 C 0.61975 0.33565 0.94284 0.0
C233 C 0.67707 0.33239 0.94205 0.0
C234 C 0.1398 0.19042 0.31921 0.0
C235 C 0.16484 0.251 0.29875 0.0
C236 C 0.17657 0.15985 0.32316 0.0
C237 C 0.23974 0.18949 0.30747 0.0
H238 H 0.09244 0.1674 0.33319 0.0
H239 H 0.15629 0.11392 0.3398 0.0
S240 S 0.32368 0.34379 0.24674 0.0
N241 N 0.25389 0.33578 0.259 0.0
N242 N 0.32217 0.27957 0.26734 0.0
C243 C 0.2636 0.2485 0.28562 0.0
C244 C 0.22633 0.27889 0.281 0.0
C245 C 0.95397 0.21949 0.66972 0.0
C246 C 0.92212 0.17275 0.63831 0.0
C247 C 0.02012 0.24949 0.67495 0.0
C248 C 0.05747 0.23458 0.64872 0.0
H249 H 0.92817 0.23459 0.68996 0.0
H250 H 0.04251 0.28654 0.69891 0.0
S251 S -0.00323 0.11258 0.56306 0.0
N252 N 0.9317 0.10944 0.58226 0.0
N253 N 0.0576 0.16751 0.5912 0.0
C254 C 0.02614 0.18551 0.61838 0.0
C255 C 0.95799 0.15418 0.61339 0.0
C256 C 0.76387 0.01568 0.01624 0.0
C257 C 0.80487 0.06149 -0.01357 0.0
C258 C 0.73142 0.94921 0.00722 0.0
C259 C 0.73822 0.92672 0.96787 0.0
H260 H 0.75621 0.03141 0.04652 0.0
H261 H 0.69941 0.91536 0.03069 0.0
S262 S 0.83784 0.02612 0.87861 0.0
N263 N 0.8501 0.07938 0.91579 0.0
N264 N 0.78781 0.95407 0.89895 0.0
C265 C 0.77923 0.97153 0.93796 0.0
C266 C 0.81304 0.03918 0.94723 0.0
C267 C 0.73958 0.76665 0.34647 0.0
C268 C 0.74696 0.81611 0.31875 0.0
C269 C 0.77124 0.73209 0.3394 0.0
C270 C 0.81085 0.74535 0.30414 0.0
H271 H 0.70812 0.75372 0.3735 0.0
H272 H 0.76383 0.69397 0.36134 0.0
S273 S 0.84852 0.8709 0.22259 0.0
N274 N 0.79894 0.87787 0.25504 0.0
N275 N 0.85845 0.81219 0.24209 0.0
C276 C 0.82067 0.79585 0.27685 0.0
C277 C 0.78864 0.8315 0.28406 0.0
C278 C 0.0067 0.74176 0.62964 0.0
C279 C 0.04289 0.80962 0.63341 0.0
C280 C 0.94206 0.70708 0.64027 0.0
C281 C 0.9092 0.73854 0.65341 0.0
H282 H 0.02858 0.71427 0.61926 0.0
H283 H 0.91766 0.65473 0.6376 0.0
S284 S 0.9787 0.91666 0.66235 0.0
N285 N 0.03991 0.90816 0.64825 0.0
N286 N 0.91598 0.84244 0.66557 0.0
C287 C 0.94337 0.80686 0.65484 0.0
C288 C 0.01062 0.84252 0.64534 0.0
C289 C 0.17556 0.0306 0.97742 0.0
C290 C 0.23923 0.06213 0.96246 0.0
C291 C 0.14386 0.96465 -0.01104 0.0
C292 C 0.17586 0.9292 -0.01232 0.0
H293 H 0.15037 0.05715 -0.01918 0.0
H294 H 0.09476 0.94177 -2e-05 0.0
S295 S 0.33952 0.98659 0.94629 0.0
N296 N 0.32886 0.04922 0.94095 0.0
N297 N 0.27307 0.92922 0.96821 0.0
C298 C 0.23887 0.95989 0.97217 0.0
C299 C 0.26949 0.0253 0.95797 0.0
C300 C -0.00473 0.39865 0.12365 0.0
C301 C 0.95488 0.33527 0.10906 0.0
C302 C 0.01211 0.41015 0.16657 0.0
C303 C -0.01131 0.35873 0.19616 0.0
H304 H 0.01282 0.43941 0.10207 0.0
H305 H 0.04392 0.45963 0.17664 0.0
S306 S 0.88676 0.18341 0.17202 0.0
N307 N 0.89563 0.22042 0.12636 0.0
N308 N 0.92657 0.24174 0.20658 0.0
C309 C 0.94905 0.29516 0.18145 0.0
C310 C 0.9325 0.28358 0.13799 0.0
C311 C 0.59729 0.95954 0.51143 0.0
C312 C 0.64384 0.02403 0.52048 0.0
C313 C 0.58578 0.93663 0.46977 0.0
C314 C 0.62103 0.97692 0.43551 0.0
H315 H 0.56992 0.92641 0.53669 0.0
H316 H 0.54993 0.88623 0.46458 0.0
S317 S 0.75117 0.14894 0.44294 0.0
N318 N 0.72679 0.12749 0.49193 0.0
N319 N 0.70559 0.08431 0.41412 0.0
C320 C 0.66753 0.04161 0.44424 0.0
C321 C 0.67886 0.06506 0.48656 0.0
C322 C 0.5609 0.59722 0.82739 0.0
C323 C 0.61416 0.64055 0.85186 0.0
C324 C 0.5676 0.58819 0.78434 0.0
C325 C 0.62721 0.62438 0.76422 0.0
H326 H 0.51384 0.5701 0.84167 0.0
H327 H 0.52615 0.5529 0.76676 0.0
S328 S 0.78026 0.74683 0.81326 0.0
N329 N 0.72795 0.72085 0.85232 0.0
N330 N 0.7398 0.70593 0.77127 0.0
C331 C 0.68034 0.66864 0.78808 0.0
C332 C 0.67404 0.67628 0.83198 0.0
C333 C -0.01032 0.58737 0.12988 0.0
C334 C 0.00384 0.64601 0.11017 0.0
C335 C 0.97423 0.57716 0.17298 0.0
C336 C 0.9757 0.62655 0.19783 0.0
H337 H -0.00897 0.54955 0.11198 0.0
H338 H 0.96133 0.53062 0.18698 0.0
S339 S 0.00932 0.78833 0.16061 0.0
N340 N 0.01676 0.75306 0.1181 0.0
N341 N -0.0091 0.73527 0.19932 0.0
C342 C -0.00958 0.68547 0.17838 0.0
C343 C 0.00379 0.69488 0.13444 0.0
C344 C 0.34709 0.05546 0.47242 0.0
C345 C 0.34595 0.01682 0.43862 0.0
C346 C 0.34043 0.03403 0.51425 0.0
C347 C 0.33271 0.97307 0.52424 0.0
H348 H 0.35157 0.10234 0.46651 0.0
H349 H 0.33914 0.06472 0.53878 0.0
S350 S 0.3325 0.85543 0.44772 0.0
N351 N 0.34009 0.91606 0.41809 0.0
N352 N 0.32875 0.87585 0.4968 0.0
C353 C 0.33384 0.93474 0.49083 0.0
C354 C 0.33991 0.95642 0.44804 0.0
C355 C 0.40255 0.37832 0.82626 0.0
C356 C 0.34994 0.34742 0.85415 0.0
C357 C 0.39352 0.38297 0.78279 0.0
C358 C 0.33152 0.3558 0.76588 0.0
H359 H 0.45105 0.39891 0.83814 0.0
H360 H 0.43503 0.40875 0.76255 0.0
S361 S 0.17803 0.26426 0.82388 0.0
N362 N 0.2337 0.286 0.8606 0.0
N363 N 0.21708 0.29417 0.77925 0.0
C364 C 0.27879 0.32375 0.7931 0.0
C365 C 0.28783 0.31971 0.83716 0.0
C366 C 0.17545 0.42974 0.4666 0.0
C367 C 0.13698 0.3717 0.44485 0.0
C368 C 0.21506 0.43223 0.49975 0.0
C369 C 0.21889 0.37729 0.51154 0.0
H370 H 0.17627 0.47388 0.45715 0.0
H371 H 0.24164 0.47708 0.5172 0.0
S372 S 0.12894 0.21434 0.46327 0.0
N373 N 0.10609 0.25865 0.4363 0.0
N374 N 0.18051 0.26322 0.49895 0.0
C375 C 0.18136 0.31928 0.48959 0.0
C376 C 0.14042 0.31657 0.45618 0.0
C377 C 0.84638 0.18462 0.83122 0.0
C378 C 0.81203 0.20872 0.8522 0.0
C379 C 0.81968 0.14368 0.79643 0.0
C380 C 0.75784 0.1258 0.78073 0.0
H381 H 0.89217 0.19375 0.84342 0.0
H382 H 0.84803 0.12556 0.78184 0.0
S383 S 0.64847 0.17609 0.82637 0.0
N384 N 0.71323 0.21173 0.85621 0.0
N385 N 0.66333 0.13591 0.79019 0.0
C386 C 0.72345 0.15048 0.80147 0.0
C387 C 0.7507 0.19197 0.83705 0.0
C388 C 0.54978 0.78054 0.16462 0.0
C389 C 0.60552 0.83584 0.17937 0.0
C390 C 0.55078 0.74848 0.1281 0.0
C391 C 0.60791 0.76975 0.10563 0.0
H392 H 0.50542 0.76079 0.18226 0.0
H393 H 0.50619 0.70814 0.11658 0.0
S394 S 0.76644 0.91241 0.13046 0.0
N395 N 0.71907 0.91071 0.16852 0.0
N396 N 0.72094 0.85038 0.09954 0.0
C397 C 0.66379 0.82508 0.11986 0.0
C398 C 0.66262 0.85824 0.15676 0.0
C399 C 0.8472 0.65226 0.46863 0.0
C400 C 0.81079 0.59939 0.44242 0.0
C401 C 0.81884 0.66457 0.5029 0.0
C402 C 0.75313 0.62363 0.5132 0.0
H403 H 0.89678 0.68679 0.46104 0.0
H404 H 0.84923 0.70748 0.52129 0.0
S405 S 0.63863 0.4754 0.45491 0.0
N406 N 0.70681 0.50396 0.42891 0.0
N407 N 0.6537 0.52569 0.49459 0.0
C408 C 0.71684 0.56886 0.48792 0.0
C409 C 0.74573 0.55698 0.45244 0.0
C410 C 0.13258 0.72504 0.8166 0.0
C411 C 0.13282 0.76056 0.8515 0.0
C412 C 0.16034 0.75656 0.77858 0.0
C413 C 0.19107 0.82486 0.77446 0.0
H414 H 0.11376 0.67323 0.81928 0.0
H415 H 0.15901 0.72709 0.75233 0.0
S416 S 0.20803 0.93946 0.85845 0.0
N417 N 0.16697 0.86703 0.8806 0.0
N418 N 0.22151 0.92672 0.80939 0.0
C419 C 0.19219 0.86091 0.8094 0.0
C420 C 0.16208 0.82852 0.84772 0.0
C421 C 0.32207 0.16967 0.17514 0.0
C422 C 0.3547 0.13485 0.18038 0.0
C423 C 0.32601 0.20273 0.13747 0.0
C424 C 0.36356 0.2028 0.10388 0.0
H425 H 0.29459 0.17284 0.201 0.0
H426 H 0.29928 0.22784 0.13461 0.0
S427 S 0.46419 0.1252 0.10347 0.0
N428 N 0.42845 0.10569 0.14988 0.0
N429 N 0.43796 0.16898 0.07958 0.0
C430 C 0.39749 0.16913 0.10917 0.0
C431 C 0.39244 0.13468 0.14722 0.0
loop_
_geom_bond_atom_site_label_1
_geom_bond_atom_site_label_2
_geom_bond_distance
_geom_bond_site_symmetry_2
_ccdc_geom_bond_type
C0 O1 1.306 . S
C0 O3 1.160 . S
O1 C0 1.306 . S
O1 Cd2 2.228 . S
Cd2 O1 2.228 . S
Cd2 O6 2.273 . S
Cd2 O10 2.277 . S
O3 C0 1.160 . S
O3 Cd4 2.203 . S
Cd4 O3 2.203 . S
Cd4 O6 2.411 . S
Cd4 O7 2.333 . S
Cd4 O8 2.352 . S
Cd4 O12 2.277 . S
Cd4 O13 2.356 . S
C5 O10 1.209 . S
C5 O12 1.226 . S
O6 Cd2 2.273 . S
O6 Cd4 2.411 . S
O6 C9 1.320 . S
O7 Cd4 2.333 . S
O7 C9 1.214 . S
O8 Cd4 2.352 . S
O8 C11 1.258 . S
C9 O6 1.320 . S
C9 O7 1.214 . S
O10 Cd2 2.277 . S
O10 C5 1.209 . S
C11 O8 1.258 . S
C11 O13 1.282 . S
O12 Cd4 2.277 . S
O12 C5 1.226 . S
O13 Cd4 2.356 . S
O13 C11 1.282 . S
C14 O15 1.306 . S
C14 O17 1.160 . S
O15 C14 1.306 . S
O15 Cd16 2.228 . S
Cd16 O15 2.228 . S
Cd16 O20 2.273 . S
Cd16 O24 2.277 . S
O17 C14 1.160 . S
O17 Cd18 2.203 . S
Cd18 O17 2.203 . S
Cd18 O20 2.411 . S
Cd18 O21 2.333 . S
Cd18 O22 2.352 . S
Cd18 O26 2.277 . S
Cd18 O27 2.356 . S
C19 O24 1.209 . S
C19 O26 1.226 . S
O20 Cd16 2.273 . S
O20 Cd18 2.411 . S
O20 C23 1.320 . S
O21 Cd18 2.333 . S
O21 C23 1.214 . S
O22 Cd18 2.352 . S
O22 C25 1.258 . S
C23 O20 1.320 . S
C23 O21 1.214 . S
O24 Cd16 2.277 . S
O24 C19 1.209 . S
C25 O22 1.258 . S
C25 O27 1.282 . S
O26 Cd18 2.277 . S
O26 C19 1.226 . S
O27 Cd18 2.356 . S
O27 C25 1.282 . S
C28 O29 1.306 1_556 S
C28 O31 1.160 . S
O29 C28 1.306 1_554 S
O29 Cd30 2.228 . S
Cd30 O29 2.228 . S
Cd30 O34 2.273 1_554 S
Cd30 O38 2.277 . S
O31 C28 1.160 . S
O31 Cd32 2.203 . S
Cd32 O31 2.203 . S
Cd32 O34 2.411 . S
Cd32 O35 2.333 . S
Cd32 O36 2.352 . S
Cd32 O40 2.277 1_556 S
Cd32 O41 2.356 . S
C33 O38 1.209 . S
C33 O40 1.226 . S
O34 Cd30 2.273 1_556 S
O34 Cd32 2.411 . S
O34 C37 1.320 . S
O35 Cd32 2.333 . S
O35 C37 1.214 . S
O36 Cd32 2.352 . S
O36 C39 1.258 . S
C37 O34 1.320 . S
C37 O35 1.214 . S
O38 Cd30 2.277 . S
O38 C33 1.209 . S
C39 O36 1.258 . S
C39 O41 1.282 . S
O40 Cd32 2.277 1_554 S
O40 C33 1.226 . S
O41 Cd32 2.356 . S
O41 C39 1.282 . S
C42 O43 1.306 . S
C42 O45 1.160 . S
O43 C42 1.306 . S
O43 Cd44 2.228 . S
Cd44 O43 2.228 . S
Cd44 O48 2.273 . S
Cd44 O52 2.277 . S
O45 C42 1.160 . S
O45 Cd46 2.203 . S
Cd46 O45 2.203 . S
Cd46 O48 2.411 . S
Cd46 O49 2.333 . S
Cd46 O50 2.352 . S
Cd46 O54 2.277 . S
Cd46 O55 2.356 . S
C47 O52 1.209 . S
C47 O54 1.226 . S
O48 Cd44 2.273 . S
O48 Cd46 2.411 . S
O48 C51 1.320 . S
O49 Cd46 2.333 . S
O49 C51 1.214 . S
O50 Cd46 2.352 . S
O50 C53 1.258 . S
C51 O48 1.320 . S
C51 O49 1.214 . S
O52 Cd44 2.277 . S
O52 C47 1.209 . S
C53 O50 1.258 . S
C53 O55 1.282 . S
O54 Cd46 2.277 . S
O54 C47 1.226 . S
O55 Cd46 2.356 . S
O55 C53 1.282 . S
C56 O57 1.306 . S
C56 O59 1.160 . S
O57 C56 1.306 . S
O57 Cd58 2.228 . S
Cd58 O57 2.228 . S
Cd58 O62 2.273 . S
Cd58 O66 2.277 . S
O59 C56 1.160 . S
O59 Cd60 2.203 . S
Cd60 O59 2.203 . S
Cd60 O62 2.411 . S
Cd60 O63 2.333 . S
Cd60 O64 2.352 . S
Cd60 O68 2.277 . S
Cd60 O69 2.356 . S
C61 O66 1.209 . S
C61 O68 1.226 . S
O62 Cd58 2.273 . S
O62 Cd60 2.411 . S
O62 C65 1.320 . S
O63 Cd60 2.333 . S
O63 C65 1.214 . S
O64 Cd60 2.352 . S
O64 C67 1.258 . S
C65 O62 1.320 . S
C65 O63 1.214 . S
O66 Cd58 2.277 . S
O66 C61 1.209 . S
C67 O64 1.258 . S
C67 O69 1.282 . S
O68 Cd60 2.277 . S
O68 C61 1.226 . S
O69 Cd60 2.356 . S
O69 C67 1.282 . S
C70 O71 1.306 1_556 S
C70 O73 1.160 . S
O71 C70 1.306 1_554 S
O71 Cd72 2.228 . S
Cd72 O71 2.228 . S
Cd72 O76 2.273 1_554 S
Cd72 O80 2.277 . S
O73 C70 1.160 . S
O73 Cd74 2.203 . S
Cd74 O73 2.203 . S
Cd74 O76 2.411 . S
Cd74 O77 2.333 . S
Cd74 O78 2.352 . S
Cd74 O82 2.277 1_556 S
Cd74 O83 2.356 . S
C75 O80 1.209 . S
C75 O82 1.226 . S
O76 Cd72 2.273 1_556 S
O76 Cd74 2.411 . S
O76 C79 1.320 . S
O77 Cd74 2.333 . S
O77 C79 1.214 . S
O78 Cd74 2.352 . S
O78 C81 1.258 . S
C79 O76 1.320 . S
C79 O77 1.214 . S
O80 Cd72 2.277 . S
O80 C75 1.209 . S
C81 O78 1.258 . S
C81 O83 1.282 . S
O82 Cd74 2.277 1_554 S
O82 C75 1.226 . S
O83 Cd74 2.356 . S
O83 C81 1.282 . S
C84 O85 1.306 . S
C84 O87 1.160 . S
O85 C84 1.306 . S
O85 Cd86 2.228 . S
Cd86 O85 2.228 . S
Cd86 O90 2.273 . S
Cd86 O94 2.277 . S
O87 C84 1.160 . S
O87 Cd88 2.203 . S
Cd88 O87 2.203 . S
Cd88 O90 2.411 . S
Cd88 O91 2.333 . S
Cd88 O92 2.352 . S
Cd88 O96 2.277 . S
Cd88 O97 2.356 . S
C89 O94 1.209 . S
C89 O96 1.226 . S
O90 Cd86 2.273 . S
O90 Cd88 2.411 . S
O90 C93 1.320 . S
O91 Cd88 2.333 . S
O91 C93 1.214 . S
O92 Cd88 2.352 . S
O92 C95 1.258 . S
C93 O90 1.320 . S
C93 O91 1.214 . S
O94 Cd86 2.277 . S
O94 C89 1.209 . S
C95 O92 1.258 . S
C95 O97 1.282 . S
O96 Cd88 2.277 . S
O96 C89 1.226 . S
O97 Cd88 2.356 . S
O97 C95 1.282 . S
C98 O99 1.306 . S
C98 O101 1.160 . S
O99 C98 1.306 . S
O99 Cd100 2.228 . S
Cd100 O99 2.228 . S
Cd100 O104 2.273 . S
Cd100 O108 2.277 . S
O101 C98 1.160 . S
O101 Cd102 2.203 . S
Cd102 O101 2.203 . S
Cd102 O104 2.411 . S
Cd102 O105 2.333 . S
Cd102 O106 2.352 . S
Cd102 O110 2.277 . S
Cd102 O111 2.356 . S
C103 O108 1.209 . S
C103 O110 1.226 . S
O104 Cd100 2.273 . S
O104 Cd102 2.411 . S
O104 C107 1.320 . S
O105 Cd102 2.333 . S
O105 C107 1.214 . S
O106 Cd102 2.352 . S
O106 C109 1.258 . S
C107 O104 1.320 . S
C107 O105 1.214 . S
O108 Cd100 2.277 . S
O108 C103 1.209 . S
C109 O106 1.258 . S
C109 O111 1.282 . S
O110 Cd102 2.277 . S
O110 C103 1.226 . S
O111 Cd102 2.356 . S
O111 C109 1.282 . S
C112 O113 1.306 1_554 S
C112 O115 1.160 . S
O113 C112 1.306 1_556 S
O113 Cd114 2.228 . S
Cd114 O113 2.228 . S
Cd114 O118 2.273 1_556 S
Cd114 O122 2.277 . S
O115 C112 1.160 . S
O115 Cd116 2.203 . S
Cd116 O115 2.203 . S
Cd116 O118 2.411 . S
Cd116 O119 2.333 . S
Cd116 O120 2.352 . S
Cd116 O124 2.277 1_554 S
Cd116 O125 2.356 . S
C117 O122 1.209 . S
C117 O124 1.226 . S
O118 Cd114 2.273 1_554 S
O118 Cd116 2.411 . S
O118 C121 1.320 . S
O119 Cd116 2.333 . S
O119 C121 1.214 . S
O120 Cd116 2.352 . S
O120 C123 1.258 . S
C121 O118 1.320 . S
C121 O119 1.214 . S
O122 Cd114 2.277 . S
O122 C117 1.209 . S
C123 O120 1.258 . S
C123 O125 1.282 . S
O124 Cd116 2.277 1_556 S
O124 C117 1.226 . S
O125 Cd116 2.356 . S
O125 C123 1.282 . S
C126 O127 1.306 . S
C126 O129 1.160 . S
O127 C126 1.306 . S
O127 Cd128 2.228 . S
Cd128 O127 2.228 . S
Cd128 O132 2.273 . S
Cd128 O136 2.277 . S
O129 C126 1.160 . S
O129 Cd130 2.203 . S
Cd130 O129 2.203 . S
Cd130 O132 2.411 . S
Cd130 O133 2.333 . S
Cd130 O134 2.352 . S
Cd130 O138 2.277 . S
Cd130 O139 2.356 . S
C131 O136 1.209 . S
C131 O138 1.226 . S
O132 Cd128 2.273 . S
O132 Cd130 2.411 . S
O132 C135 1.320 . S
O133 Cd130 2.333 . S
O133 C135 1.214 . S
O134 Cd130 2.352 . S
O134 C137 1.258 . S
C135 O132 1.320 . S
C135 O133 1.214 . S
O136 Cd128 2.277 . S
O136 C131 1.209 . S
C137 O134 1.258 . S
C137 O139 1.282 . S
O138 Cd130 2.277 . S
O138 C131 1.226 . S
O139 Cd130 2.356 . S
O139 C137 1.282 . S
C140 O141 1.306 . S
C140 O143 1.160 . S
O141 C140 1.306 . S
O141 Cd142 2.228 . S
Cd142 O141 2.228 . S
Cd142 O146 2.273 . S
Cd142 O150 2.277 . S
O143 C140 1.160 . S
O143 Cd144 2.203 . S
Cd144 O143 2.203 . S
Cd144 O146 2.411 . S
Cd144 O147 2.333 . S
Cd144 O148 2.352 . S
Cd144 O152 2.277 . S
Cd144 O153 2.356 . S
C145 O150 1.209 . S
C145 O152 1.226 . S
O146 Cd142 2.273 . S
O146 Cd144 2.411 . S
O146 C149 1.320 . S
O147 Cd144 2.333 . S
O147 C149 1.214 . S
O148 Cd144 2.352 . S
O148 C151 1.258 . S
C149 O146 1.320 . S
C149 O147 1.214 . S
O150 Cd142 2.277 . S
O150 C145 1.209 . S
C151 O148 1.258 . S
C151 O153 1.282 . S
O152 Cd144 2.277 . S
O152 C145 1.226 . S
O153 Cd144 2.356 . S
O153 C151 1.282 . S
C154 O155 1.306 1_554 S
C154 O157 1.160 . S
O155 C154 1.306 1_556 S
O155 Cd156 2.228 . S
Cd156 O155 2.228 . S
Cd156 O160 2.273 1_556 S
Cd156 O164 2.277 . S
O157 C154 1.160 . S
O157 Cd158 2.203 . S
Cd158 O157 2.203 . S
Cd158 O160 2.411 . S
Cd158 O161 2.333 . S
Cd158 O162 2.352 . S
Cd158 O166 2.277 1_554 S
Cd158 O167 2.356 . S
C159 O164 1.209 . S
C159 O166 1.226 . S
O160 Cd156 2.273 1_554 S
O160 Cd158 2.411 . S
O160 C163 1.320 . S
O161 Cd158 2.333 . S
O161 C163 1.214 . S
O162 Cd158 2.352 . S
O162 C165 1.258 . S
C163 O160 1.320 . S
C163 O161 1.214 . S
O164 Cd156 2.277 . S
O164 C159 1.209 . S
C165 O162 1.258 . S
C165 O167 1.282 . S
O166 Cd158 2.277 1_556 S
O166 C159 1.226 . S
O167 Cd158 2.356 . S
O167 C165 1.282 . S
C168 C169 1.369 . S
C168 C170 1.419 . S
C168 H172 0.930 . S
C169 C168 1.369 . S
C169 C178 1.429 . S
C170 C168 1.419 . S
C170 C171 1.363 . S
C170 H173 0.929 . S
C171 C170 1.363 . S
C171 C177 1.428 . S
H172 C168 0.930 . S
H173 C170 0.929 . S
S174 N175 1.613 . S
S174 N176 1.610 . S
N175 S174 1.613 . S
N175 C178 1.350 . S
N176 S174 1.610 . S
N176 C177 1.351 . S
C177 C171 1.428 . S
C177 N176 1.351 . S
C177 C178 1.434 . S
C178 C169 1.429 . S
C178 N175 1.350 . S
C178 C177 1.434 . S
C179 C180 1.369 . S
C179 C181 1.419 . S
C179 H183 0.930 . S
C180 C179 1.369 . S
C180 C189 1.429 . S
C181 C179 1.419 . S
C181 C182 1.363 . S
C181 H184 0.929 . S
C182 C181 1.363 . S
C182 C188 1.428 . S
H183 C179 0.930 . S
H184 C181 0.929 . S
S185 N186 1.613 . S
S185 N187 1.610 . S
N186 S185 1.613 . S
N186 C189 1.350 . S
N187 S185 1.610 . S
N187 C188 1.351 . S
C188 C182 1.428 . S
C188 N187 1.351 . S
C188 C189 1.434 . S
C189 C180 1.429 . S
C189 N186 1.350 . S
C189 C188 1.434 . S
C190 C191 1.369 1_554 S
C190 C192 1.419 . S
C190 H194 0.930 . S
C191 C190 1.369 1_556 S
C191 C200 1.429 . S
C192 C190 1.419 . S
C192 C193 1.363 . S
C192 H195 0.929 . S
C193 C192 1.363 . S
C193 C199 1.428 1_554 S
H194 C190 0.930 . S
H195 C192 0.929 . S
S196 N197 1.613 . S
S196 N198 1.610 . S
N197 S196 1.613 . S
N197 C200 1.350 . S
N198 S196 1.610 . S
N198 C199 1.351 . S
C199 C193 1.428 1_556 S
C199 N198 1.351 . S
C199 C200 1.434 . S
C200 C191 1.429 . S
C200 N197 1.350 . S
C200 C199 1.434 . S
C201 C202 1.369 . S
C201 C203 1.419 . S
C201 H205 0.930 . S
C202 C201 1.369 . S
C202 C211 1.429 . S
C203 C201 1.419 . S
C203 C204 1.363 . S
C203 H206 0.929 . S
C204 C203 1.363 . S
C204 C210 1.428 . S
H205 C201 0.930 . S
H206 C203 0.929 . S
S207 N208 1.613 . S
S207 N209 1.610 . S
N208 S207 1.613 . S
N208 C211 1.350 . S
N209 S207 1.610 . S
N209 C210 1.351 . S
C210 C204 1.428 . S
C210 N209 1.351 . S
C210 C211 1.434 . S
C211 C202 1.429 . S
C211 N208 1.350 . S
C211 C210 1.434 . S
C212 C213 1.369 . S
C212 C214 1.419 . S
C212 H216 0.930 . S
C213 C212 1.369 . S
C213 C222 1.429 . S
C214 C212 1.419 . S
C214 C215 1.363 . S
C214 H217 0.929 . S
C215 C214 1.363 . S
C215 C221 1.428 . S
H216 C212 0.930 . S
H217 C214 0.929 . S
S218 N219 1.613 . S
S218 N220 1.610 . S
N219 S218 1.613 . S
N219 C222 1.350 . S
N220 S218 1.610 . S
N220 C221 1.351 . S
C221 C215 1.428 . S
C221 N220 1.351 . S
C221 C222 1.434 . S
C222 C213 1.429 . S
C222 N219 1.350 . S
C222 C221 1.434 . S
C223 C224 1.369 . S
C223 C225 1.419 . S
C223 H227 0.930 . S
C224 C223 1.369 . S
C224 C233 1.429 1_554 S
C225 C223 1.419 . S
C225 C226 1.363 1_554 S
C225 H228 0.929 . S
C226 C225 1.363 1_556 S
C226 C232 1.428 . S
H227 C223 0.930 . S
H228 C225 0.929 . S
S229 N230 1.613 . S
S229 N231 1.610 . S
N230 S229 1.613 . S
N230 C233 1.350 . S
N231 S229 1.610 . S
N231 C232 1.351 . S
C232 C226 1.428 . S
C232 N231 1.351 . S
C232 C233 1.434 . S
C233 C224 1.429 1_556 S
C233 N230 1.350 . S
C233 C232 1.434 . S
C234 C235 1.369 . S
C234 C236 1.419 . S
C234 H238 0.930 . S
C235 C234 1.369 . S
C235 C244 1.429 . S
C236 C234 1.419 . S
C236 C237 1.363 . S
C236 H239 0.929 . S
C237 C236 1.363 . S
C237 C243 1.428 . S
H238 C234 0.930 . S
H239 C236 0.929 . S
S240 N241 1.613 . S
S240 N242 1.610 . S
N241 S240 1.613 . S
N241 C244 1.350 . S
N242 S240 1.610 . S
N242 C243 1.351 . S
C243 C237 1.428 . S
C243 N242 1.351 . S
C243 C244 1.434 . S
C244 C235 1.429 . S
C244 N241 1.350 . S
C244 C243 1.434 . S
C245 C246 1.369 . S
C245 C247 1.419 1_655 S
C245 H249 0.930 . S
C246 C245 1.369 . S
C246 C255 1.429 . S
C247 C245 1.419 1_455 S
C247 C248 1.363 . S
C247 H250 0.929 . S
C248 C247 1.363 . S
C248 C254 1.428 . S
H249 C245 0.930 . S
H250 C247 0.929 . S
S251 N252 1.613 1_455 S
S251 N253 1.610 . S
N252 S251 1.613 1_655 S
N252 C255 1.350 . S
N253 S251 1.610 . S
N253 C254 1.351 . S
C254 C248 1.428 . S
C254 N253 1.351 . S
C254 C255 1.434 1_455 S
C255 C246 1.429 . S
C255 N252 1.350 . S
C255 C254 1.434 1_655 S
C256 C257 1.369 . S
C256 C258 1.419 1_545 S
C256 H260 0.930 . S
C257 C256 1.369 . S
C257 C266 1.429 1_554 S
C258 C256 1.419 1_565 S
C258 C259 1.363 1_554 S
C258 H261 0.929 . S
C259 C258 1.363 1_556 S
C259 C265 1.428 . S
H260 C256 0.930 . S
H261 C258 0.929 . S
S262 N263 1.613 . S
S262 N264 1.610 1_545 S
N263 S262 1.613 . S
N263 C266 1.350 . S
N264 S262 1.610 1_565 S
N264 C265 1.351 . S
C265 C259 1.428 . S
C265 N264 1.351 . S
C265 C266 1.434 1_565 S
C266 C257 1.429 1_556 S
C266 N263 1.350 . S
C266 C265 1.434 1_545 S
C267 C268 1.369 . S
C267 C269 1.419 . S
C267 H271 0.930 . S
C268 C267 1.369 . S
C268 C277 1.429 . S
C269 C267 1.419 . S
C269 C270 1.363 . S
C269 H272 0.929 . S
C270 C269 1.363 . S
C270 C276 1.428 . S
H271 C267 0.930 . S
H272 C269 0.929 . S
S273 N274 1.613 . S
S273 N275 1.610 . S
N274 S273 1.613 . S
N274 C277 1.350 . S
N275 S273 1.610 . S
N275 C276 1.351 . S
C276 C270 1.428 . S
C276 N275 1.351 . S
C276 C277 1.434 . S
C277 C268 1.429 . S
C277 N274 1.350 . S
C277 C276 1.434 . S
C278 C279 1.369 . S
C278 C280 1.419 1_455 S
C278 H282 0.930 . S
C279 C278 1.369 . S
C279 C288 1.429 . S
C280 C278 1.419 1_655 S
C280 C281 1.363 . S
C280 H283 0.929 . S
C281 C280 1.363 . S
C281 C287 1.428 . S
H282 C278 0.930 . S
H283 C280 0.929 . S
S284 N285 1.613 1_655 S
S284 N286 1.610 . S
N285 S284 1.613 1_455 S
N285 C288 1.350 . S
N286 S284 1.610 . S
N286 C287 1.351 . S
C287 C281 1.428 . S
C287 N286 1.351 . S
C287 C288 1.434 1_655 S
C288 C279 1.429 . S
C288 N285 1.350 . S
C288 C287 1.434 1_455 S
C289 C290 1.369 1_554 S
C289 C291 1.419 1_545 S
C289 H293 0.930 . S
C290 C289 1.369 1_556 S
C290 C299 1.429 . S
C291 C289 1.419 1_565 S
C291 C292 1.363 . S
C291 H294 0.929 . S
C292 C291 1.363 . S
C292 C298 1.428 1_554 S
H293 C289 0.930 . S
H294 C291 0.929 . S
S295 N296 1.613 1_565 S
S295 N297 1.610 . S
N296 S295 1.613 1_545 S
N296 C299 1.350 . S
N297 S295 1.610 . S
N297 C298 1.351 . S
C298 C292 1.428 1_556 S
C298 N297 1.351 . S
C298 C299 1.434 1_565 S
C299 C290 1.429 . S
C299 N296 1.350 . S
C299 C298 1.434 1_545 S
C300 C301 1.369 1_455 S
C300 C302 1.419 . S
C300 H304 0.930 . S
C301 C300 1.369 1_655 S
C301 C310 1.429 . S
C302 C300 1.419 . S
C302 C303 1.363 . S
C302 H305 0.929 . S
C303 C302 1.363 . S
C303 C309 1.428 1_455 S
H304 C300 0.930 . S
H305 C302 0.929 . S
S306 N307 1.613 . S
S306 N308 1.610 . S
N307 S306 1.613 . S
N307 C310 1.350 . S
N308 S306 1.610 . S
N308 C309 1.351 . S
C309 C303 1.428 1_655 S
C309 N308 1.351 . S
C309 C310 1.434 . S
C310 C301 1.429 . S
C310 N307 1.350 . S
C310 C309 1.434 . S
C311 C312 1.369 1_565 S
C311 C313 1.419 . S
C311 H315 0.930 . S
C312 C311 1.369 1_545 S
C312 C321 1.429 . S
C313 C311 1.419 . S
C313 C314 1.363 . S
C313 H316 0.929 . S
C314 C313 1.363 . S
C314 C320 1.428 1_565 S
H315 C311 0.930 . S
H316 C313 0.929 . S
S317 N318 1.613 . S
S317 N319 1.610 . S
N318 S317 1.613 . S
N318 C321 1.350 . S
N319 S317 1.610 . S
N319 C320 1.351 . S
C320 C314 1.428 1_545 S
C320 N319 1.351 . S
C320 C321 1.434 . S
C321 C312 1.429 . S
C321 N318 1.350 . S
C321 C320 1.434 . S
C322 C323 1.369 . S
C322 C324 1.419 . S
C322 H326 0.930 . S
C323 C322 1.369 . S
C323 C332 1.429 . S
C324 C322 1.419 . S
C324 C325 1.363 . S
C324 H327 0.929 . S
C325 C324 1.363 . S
C325 C331 1.428 . S
H326 C322 0.930 . S
H327 C324 0.929 . S
S328 N329 1.613 . S
S328 N330 1.610 . S
N329 S328 1.613 . S
N329 C332 1.350 . S
N330 S328 1.610 . S
N330 C331 1.351 . S
C331 C325 1.428 . S
C331 N330 1.351 . S
C331 C332 1.434 . S
C332 C323 1.429 . S
C332 N329 1.350 . S
C332 C331 1.434 . S
C333 C334 1.369 . S
C333 C335 1.419 1_455 S
C333 H337 0.930 . S
C334 C333 1.369 . S
C334 C343 1.429 . S
C335 C333 1.419 1_655 S
C335 C336 1.363 . S
C335 H338 0.929 . S
C336 C335 1.363 . S
C336 C342 1.428 1_655 S
H337 C333 0.930 . S
H338 C335 0.929 . S
S339 N340 1.613 . S
S339 N341 1.610 . S
N340 S339 1.613 . S
N340 C343 1.350 . S
N341 S339 1.610 . S
N341 C342 1.351 . S
C342 C336 1.428 1_455 S
C342 N341 1.351 . S
C342 C343 1.434 . S
C343 C334 1.429 . S
C343 N340 1.350 . S
C343 C342 1.434 . S
C344 C345 1.369 . S
C344 C346 1.419 . S
C344 H348 0.930 . S
C345 C344 1.369 . S
C345 C354 1.429 1_545 S
C346 C344 1.419 . S
C346 C347 1.363 1_545 S
C346 H349 0.929 . S
C347 C346 1.363 1_565 S
C347 C353 1.428 . S
H348 C344 0.930 . S
H349 C346 0.929 . S
S350 N351 1.613 . S
S350 N352 1.610 . S
N351 S350 1.613 . S
N351 C354 1.350 . S
N352 S350 1.610 . S
N352 C353 1.351 . S
C353 C347 1.428 . S
C353 N352 1.351 . S
C353 C354 1.434 . S
C354 C345 1.429 1_565 S
C354 N351 1.350 . S
C354 C353 1.434 . S
C355 C356 1.369 . S
C355 C357 1.419 . S
C355 H359 0.930 . S
C356 C355 1.369 . S
C356 C365 1.429 . S
C357 C355 1.419 . S
C357 C358 1.363 . S
C357 H360 0.929 . S
C358 C357 1.363 . S
C358 C364 1.428 . S
H359 C355 0.930 . S
H360 C357 0.929 . S
S361 N362 1.613 . S
S361 N363 1.610 . S
N362 S361 1.613 . S
N362 C365 1.350 . S
N363 S361 1.610 . S
N363 C364 1.351 . S
C364 C358 1.428 . S
C364 N363 1.351 . S
C364 C365 1.434 . S
C365 C356 1.429 . S
C365 N362 1.350 . S
C365 C364 1.434 . S
C366 C367 1.369 . S
C366 C368 1.419 . S
C366 H370 0.930 . S
C367 C366 1.369 . S
C367 C376 1.429 . S
C368 C366 1.419 . S
C368 C369 1.363 . S
C368 H371 0.929 . S
C369 C368 1.363 . S
C369 C375 1.428 . S
H370 C366 0.930 . S
H371 C368 0.929 . S
S372 N373 1.613 . S
S372 N374 1.610 . S
N373 S372 1.613 . S
N373 C376 1.350 . S
N374 S372 1.610 . S
N374 C375 1.351 . S
C375 C369 1.428 . S
C375 N374 1.351 . S
C375 C376 1.434 . S
C376 C367 1.429 . S
C376 N373 1.350 . S
C376 C375 1.434 . S
C377 C378 1.369 . S
C377 C379 1.419 . S
C377 H381 0.930 . S
C378 C377 1.369 . S
C378 C387 1.429 . S
C379 C377 1.419 . S
C379 C380 1.363 . S
C379 H382 0.929 . S
C380 C379 1.363 . S
C380 C386 1.428 . S
H381 C377 0.930 . S
H382 C379 0.929 . S
S383 N384 1.613 . S
S383 N385 1.610 . S
N384 S383 1.613 . S
N384 C387 1.350 . S
N385 S383 1.610 . S
N385 C386 1.351 . S
C386 C380 1.428 . S
C386 N385 1.351 . S
C386 C387 1.434 . S
C387 C378 1.429 . S
C387 N384 1.350 . S
C387 C386 1.434 . S
C388 C389 1.369 . S
C388 C390 1.419 . S
C388 H392 0.930 . S
C389 C388 1.369 . S
C389 C398 1.429 . S
C390 C388 1.419 . S
C390 C391 1.363 . S
C390 H393 0.929 . S
C391 C390 1.363 . S
C391 C397 1.428 . S
H392 C388 0.930 . S
H393 C390 0.929 . S
S394 N395 1.613 . S
S394 N396 1.610 . S
N395 S394 1.613 . S
N395 C398 1.350 . S
N396 S394 1.610 . S
N396 C397 1.351 . S
C397 C391 1.428 . S
C397 N396 1.351 . S
C397 C398 1.434 . S
C398 C389 1.429 . S
C398 N395 1.350 . S
C398 C397 1.434 . S
C399 C400 1.369 . S
C399 C401 1.419 . S
C399 H403 0.930 . S
C400 C399 1.369 . S
C400 C409 1.429 . S
C401 C399 1.419 . S
C401 C402 1.363 . S
C401 H404 0.929 . S
C402 C401 1.363 . S
C402 C408 1.428 . S
H403 C399 0.930 . S
H404 C401 0.929 . S
S405 N406 1.613 . S
S405 N407 1.610 . S
N406 S405 1.613 . S
N406 C409 1.350 . S
N407 S405 1.610 . S
N407 C408 1.351 . S
C408 C402 1.428 . S
C408 N407 1.351 . S
C408 C409 1.434 . S
C409 C400 1.429 . S
C409 N406 1.350 . S
C409 C408 1.434 . S
C410 C411 1.369 . S
C410 C412 1.419 . S
C410 H414 0.930 . S
C411 C410 1.369 . S
C411 C420 1.429 . S
C412 C410 1.419 . S
C412 C413 1.363 . S
C412 H415 0.929 . S
C413 C412 1.363 . S
C413 C419 1.428 . S
H414 C410 0.930 . S
H415 C412 0.929 . S
S416 N417 1.613 . S
S416 N418 1.610 . S
N417 S416 1.613 . S
N417 C420 1.350 . S
N418 S416 1.610 . S
N418 C419 1.351 . S
C419 C413 1.428 . S
C419 N418 1.351 . S
C419 C420 1.434 . S
C420 C411 1.429 . S
C420 N417 1.350 . S
C420 C419 1.434 . S
C421 C422 1.369 . S
C421 C423 1.419 . S
C421 H425 0.930 . S
C422 C421 1.369 . S
C422 C431 1.429 . S
C423 C421 1.419 . S
C423 C424 1.363 . S
C423 H426 0.929 . S
C424 C423 1.363 . S
C424 C430 1.428 . S
H425 C421 0.930 . S
H426 C423 0.929 . S
S427 N428 1.613 . S
S427 N429 1.610 . S
N428 S427 1.613 . S
N428 C431 1.350 . S
N429 S427 1.610 . S
N429 C430 1.351 . S
C430 C424 1.428 . S
C430 N429 1.351 . S
C430 C431 1.434 . S
C431 C422 1.429 . S
C431 N428 1.350 . S
C431 C430 1.434 . S
C169 C0 1.566 . S
C171 C84 1.574 . S
C180 C14 1.581 . S
C182 C98 1.569 . S
C191 C28 1.508 . S
C193 C112 1.506 . S
C202 C126 1.578 . S
C204 C42 1.570 . S
C213 C56 1.580 . S
C215 C140 1.568 . S
C224 C154 1.508 . S
C226 C70 1.512 . S
C235 C9 1.269 . S
C237 C135 1.270 . S
C246 C23 1.273 . S
C248 C149 1.271 . S
C257 C163 1.238 . S
C259 C37 1.241 . S
C268 C93 1.271 . S
C270 C51 1.271 . S
C279 C65 1.272 . S
C281 C107 1.271 . S
C290 C79 1.239 . S
C292 C121 1.238 . S
C301 C165 1.698 . S
C303 C11 1.692 . S
C312 C25 1.827 . S
C314 C95 1.832 . S
C323 C39 1.699 . S
C325 C109 1.690 . S
C334 C123 1.698 . S
C336 C53 1.691 . S
C345 C137 1.833 . S
C347 C67 1.828 . S
C356 C81 1.700 . S
C358 C151 1.690 . S
C367 C5 1.277 . S
C369 C145 1.278 . S
C378 C159 1.361 . S
C380 C19 1.378 . S
C389 C89 1.377 . S
C391 C33 1.367 . S
C400 C47 1.268 . S
C402 C103 1.283 . S
C411 C117 1.361 . S
C413 C61 1.380 . S
C422 C131 1.378 . S
C424 C75 1.365 . S
