# Generated by pormake.
# Topology bcu-i, (5)-cn, num edge types: 1
# Building blocks:
#     Node 0, Type 0, BuildingBlock: XOMCOT_clean_sbu_1, # of connection points: 5
#     Node 1, Type 0, BuildingBlock: XOMCOT_clean_sbu_1, # of connection points: 5
#     Node 2, Type 0, BuildingBlock: XOMCOT_clean_sbu_1, # of connection points: 5
#     Node 3, Type 0, BuildingBlock: XOMCOT_clean_sbu_1, # of connection points: 5
#     Node 4, Type 0, BuildingBlock: XOMCOT_clean_sbu_1, # of connection points: 5
#     Node 5, Type 0, BuildingBlock: XOMCOT_clean_sbu_1, # of connection points: 5
#     Node 6, Type 0, BuildingBlock: XOMCOT_clean_sbu_1, # of connection points: 5
#     Node 7, Type 0, BuildingBlock: XOMCOT_clean_sbu_1, # of connection points: 5
#     Node 8, Type 0, BuildingBlock: XOMCOT_clean_sbu_1, # of connection points: 5
#     Node 9, Type 0, BuildingBlock: XOMCOT_clean_sbu_1, # of connection points: 5
#     Node 10, Type 0, BuildingBlock: XOMCOT_clean_sbu_1, # of connection points: 5
#     Node 11, Type 0, BuildingBlock: XOMCOT_clean_sbu_1, # of connection points: 5
#     Node 12, Type 0, BuildingBlock: XOMCOT_clean_sbu_1, # of connection points: 5
#     Node 13, Type 0, BuildingBlock: XOMCOT_clean_sbu_1, # of connection points: 5
#     Node 14, Type 0, BuildingBlock: XOMCOT_clean_sbu_1, # of connection points: 5
#     Node 15, Type 0, BuildingBlock: XOMCOT_clean_sbu_1, # of connection points: 5
#     Edge 16, Type (0, 0), BuildingBlock: UVAHIK_clean_linker_0, # of connection points: 2
#     Edge 17, Type (0, 0), BuildingBlock: UVAHIK_clean_linker_0, # of connection points: 2
#     Edge 18, Type (0, 0), BuildingBlock: UVAHIK_clean_linker_0, # of connection points: 2
#     Edge 19, Type (0, 0), BuildingBlock: UVAHIK_clean_linker_0, # of connection points: 2
#     Edge 20, Type (0, 0), BuildingBlock: UVAHIK_clean_linker_0, # of connection points: 2
#     Edge 21, Type (0, 0), BuildingBlock: UVAHIK_clean_linker_0, # of connection points: 2
#     Edge 22, Type (0, 0), BuildingBlock: UVAHIK_clean_linker_0, # of connection points: 2
#     Edge 23, Type (0, 0), BuildingBlock: UVAHIK_clean_linker_0, # of connection points: 2
#     Edge 24, Type (0, 0), BuildingBlock: UVAHIK_clean_linker_0, # of connection points: 2
#     Edge 25, Type (0, 0), BuildingBlock: UVAHIK_clean_linker_0, # of connection points: 2
#     Edge 26, Type (0, 0), BuildingBlock: UVAHIK_clean_linker_0, # of connection points: 2
#     Edge 27, Type (0, 0), BuildingBlock: UVAHIK_clean_linker_0, # of connection points: 2
#     Edge 28, Type (0, 0), BuildingBlock: UVAHIK_clean_linker_0, # of connection points: 2
#     Edge 29, Type (0, 0), BuildingBlock: UVAHIK_clean_linker_0, # of connection points: 2
#     Edge 30, Type (0, 0), BuildingBlock: UVAHIK_clean_linker_0, # of connection points: 2
#     Edge 31, Type (0, 0), BuildingBlock: UVAHIK_clean_linker_0, # of connection points: 2
#     Edge 32, Type (0, 0), BuildingBlock: UVAHIK_clean_linker_0, # of connection points: 2
#     Edge 33, Type (0, 0), BuildingBlock: UVAHIK_clean_linker_0, # of connection points: 2
#     Edge 34, Type (0, 0), BuildingBlock: UVAHIK_clean_linker_0, # of connection points: 2
#     Edge 35, Type (0, 0), BuildingBlock: UVAHIK_clean_linker_0, # of connection points: 2
#     Edge 36, Type (0, 0), BuildingBlock: UVAHIK_clean_linker_0, # of connection points: 2
#     Edge 37, Type (0, 0), BuildingBlock: UVAHIK_clean_linker_0, # of connection points: 2
#     Edge 38, Type (0, 0), BuildingBlock: UVAHIK_clean_linker_0, # of connection points: 2
#     Edge 39, Type (0, 0), BuildingBlock: UVAHIK_clean_linker_0, # of connection points: 2
#     Edge 40, Type (0, 0), BuildingBlock: UVAHIK_clean_linker_0, # of connection points: 2
#     Edge 41, Type (0, 0), BuildingBlock: UVAHIK_clean_linker_0, # of connection points: 2
#     Edge 42, Type (0, 0), BuildingBlock: UVAHIK_clean_linker_0, # of connection points: 2
#     Edge 43, Type (0, 0), BuildingBlock: UVAHIK_clean_linker_0, # of connection points: 2
#     Edge 44, Type (0, 0), BuildingBlock: UVAHIK_clean_linker_0, # of connection points: 2
#     Edge 45, Type (0, 0), BuildingBlock: UVAHIK_clean_linker_0, # of connection points: 2
#     Edge 46, Type (0, 0), BuildingBlock: UVAHIK_clean_linker_0, # of connection points: 2
#     Edge 47, Type (0, 0), BuildingBlock: UVAHIK_clean_linker_0, # of connection points: 2
#     Edge 48, Type (0, 0), BuildingBlock: UVAHIK_clean_linker_0, # of connection points: 2
#     Edge 49, Type (0, 0), BuildingBlock: UVAHIK_clean_linker_0, # of connection points: 2
#     Edge 50, Type (0, 0), BuildingBlock: UVAHIK_clean_linker_0, # of connection points: 2
#     Edge 51, Type (0, 0), BuildingBlock: UVAHIK_clean_linker_0, # of connection points: 2
#     Edge 52, Type (0, 0), BuildingBlock: UVAHIK_clean_linker_0, # of connection points: 2
#     Edge 53, Type (0, 0), BuildingBlock: UVAHIK_clean_linker_0, # of connection points: 2
#     Edge 54, Type (0, 0), BuildingBlock: UVAHIK_clean_linker_0, # of connection points: 2
#     Edge 55, Type (0, 0), BuildingBlock: UVAHIK_clean_linker_0, # of connection points: 2
# Relax obj value: 0.538
# Max RMSD: 0.206
# Mean RMSD: 0.206
data_MOF--net-bcu-i--node1-XOMCOT_clean_sbu_1--edge1-UVAHIK_clean_linker_0
_symmetry_space_group_name_H-M    P1
_symmetry_Int_Tables_number       1
_symmetry_cell_setting            triclinic
loop_
_symmetry_equiv_pos_as_xyz
'x, y, z'
_cell_length_a     62.701318
_cell_length_b     62.763793
_cell_length_c     52.963428
_cell_angle_alpha  89.97873
_cell_angle_beta   90.037575
_cell_angle_gamma 90.044569
loop_
_atom_site_label
_atom_site_type_symbol
_atom_site_fract_x
_atom_site_fract_y
_atom_site_fract_z
_atom_type_partial_charge
C0 C 0.17045 0.06866 0.32681 0.0
C1 C 0.14972 0.07539 0.3241 0.0
N2 N 0.14613 0.09105 0.34098 0.0
N3 N 0.17981 0.07993 0.34539 0.0
C4 C 0.16468 0.09354 0.35358 0.0
H5 H 0.17828 0.05642 0.31585 0.0
Co6 Co 0.20768 0.07651 0.35576 0.0
C7 C 0.21183 0.1001 0.40455 0.0
O8 O 0.23229 0.10338 0.40093 0.0
N9 N 0.23624 0.07241 0.36582 0.0
C10 C 0.27171 0.07195 0.36993 0.0
C11 C 0.25476 0.08026 0.35646 0.0
C12 C 0.24244 0.05935 0.38468 0.0
N13 N 0.26373 0.05863 0.38737 0.0
O14 O 0.20003 0.04965 0.36956 0.0
H15 H 0.25605 0.09126 0.34085 0.0
H16 H 0.23154 0.05068 0.39674 0.0
O17 O 0.20089 0.0901 0.38798 0.0
C18 C 0.20526 0.03393 0.35577 0.0
O19 O 0.2161 0.03759 0.33498 0.0
N20 N 0.21442 0.10205 0.33994 0.0
C21 C 0.2216 0.13578 0.3068 0.0
C22 C 0.21688 0.13961 0.33233 0.0
C23 C 0.2129 0.1225 0.34855 0.0
C24 C 0.21865 0.09805 0.31523 0.0
C25 C 0.22214 0.1146 0.29832 0.0
H26 H 0.2081 0.12596 0.36759 0.0
H27 H 0.21889 0.08175 0.30858 0.0
H28 H 0.16716 0.10496 0.36859 0.0
H29 H 0.13832 0.06947 0.31045 0.0
H30 H 0.28849 0.07509 0.36687 0.0
H31 H 0.21621 0.15565 0.3398 0.0
H32 H 0.22492 0.11072 0.27869 0.0
C33 C 0.89786 0.17716 0.31198 0.0
C34 C 0.89021 0.15692 0.3076 0.0
N35 N 0.88501 0.14817 0.33001 0.0
N36 N 0.89731 0.18112 0.33697 0.0
C37 C 0.88954 0.16312 0.34746 0.0
H38 H 0.903 0.18849 0.29785 0.0
Co39 Co 0.90418 0.20692 0.35173 0.0
C40 C 0.88624 0.20453 0.40379 0.0
O41 O 0.88079 0.22472 0.40372 0.0
N42 N 0.91161 0.23356 0.3665 0.0
C43 C 0.91305 0.26741 0.37957 0.0
C44 C 0.90152 0.25267 0.36599 0.0
C45 C 0.9292 0.23732 0.38063 0.0
N46 N 0.93054 0.25768 0.3885 0.0
O47 O 0.93181 0.19619 0.35847 0.0
H48 H 0.88645 0.25593 0.35697 0.0
H49 H 0.94071 0.22529 0.38584 0.0
O50 O 0.89512 0.19632 0.38444 0.0
C51 C 0.94615 0.19902 0.34186 0.0
O52 O 0.94133 0.20954 0.32118 0.0
N53 N 0.87714 0.21672 0.34306 0.0
C54 C 0.83909 0.23106 0.3221 0.0
C55 C 0.83892 0.21782 0.34342 0.0
C56 C 0.85817 0.21039 0.35332 0.0
C57 C 0.87752 0.22866 0.32161 0.0
C58 C 0.85871 0.23629 0.31102 0.0
H59 H 0.85763 0.19908 0.36861 0.0
H60 H 0.89266 0.2325 0.31293 0.0
H61 H 0.88638 0.16122 0.3674 0.0
H62 H 0.88841 0.14933 0.28938 0.0
H63 H 0.90895 0.28397 0.38258 0.0
H64 H 0.82403 0.21286 0.35197 0.0
H65 H 0.85957 0.24645 0.29451 0.0
C66 C 0.80728 0.90522 0.32102 0.0
C67 C 0.82715 0.89917 0.31263 0.0
N68 N 0.83776 0.89037 0.33216 0.0
N69 N 0.80541 0.90019 0.34564 0.0
C70 C 0.82425 0.89128 0.35193 0.0
H71 H 0.79477 0.91235 0.30978 0.0
Co72 Co 0.7808 0.90354 0.36441 0.0
C73 C 0.78827 0.88075 0.41227 0.0
O74 O 0.76863 0.87345 0.41134 0.0
N75 N 0.75549 0.90764 0.38329 0.0
C76 C 0.72259 0.90823 0.39937 0.0
C77 C 0.7353 0.90032 0.38038 0.0
C78 C 0.75442 0.92008 0.40408 0.0
N79 N 0.7347 0.92076 0.41411 0.0
O80 O 0.78974 0.93161 0.37255 0.0
H81 H 0.72974 0.88986 0.36568 0.0
H82 H 0.76806 0.92818 0.41215 0.0
O83 O 0.79515 0.89288 0.39467 0.0
C84 C 0.78272 0.94606 0.35793 0.0
O85 O 0.76925 0.9407 0.34 0.0
N86 N 0.77246 0.8763 0.35407 0.0
C87 C 0.76207 0.83917 0.32826 0.0
C88 C 0.77772 0.83885 0.34707 0.0
C89 C 0.78286 0.85772 0.35966 0.0
C90 C 0.7581 0.87695 0.3348 0.0
C91 C 0.75216 0.85846 0.32216 0.0
H92 H 0.79605 0.85744 0.37272 0.0
H93 H 0.75153 0.89209 0.32891 0.0
H94 H 0.82771 0.88466 0.37033 0.0
H95 H 0.83319 0.90091 0.29361 0.0
H96 H 0.70572 0.90526 0.4019 0.0
H97 H 0.78627 0.82432 0.35146 0.0
H98 H 0.74064 0.85941 0.30694 0.0
C99 C 0.09041 0.80767 0.31221 0.0
C100 C 0.09851 0.82793 0.30941 0.0
N101 N 0.10123 0.83635 0.33258 0.0
N102 N 0.08826 0.80339 0.337 0.0
C103 C 0.09477 0.82124 0.34892 0.0
H104 H 0.08714 0.79642 0.29723 0.0
Co105 Co 0.08095 0.77715 0.35014 0.0
C106 C 0.09358 0.77945 0.40417 0.0
O107 O 0.10064 0.75975 0.40369 0.0
N108 N 0.07291 0.75031 0.36302 0.0
C109 C 0.06681 0.71585 0.37035 0.0
C110 C 0.07866 0.73023 0.35666 0.0
C111 C 0.05741 0.74754 0.38045 0.0
N112 N 0.05334 0.72682 0.38517 0.0
O113 O 0.05225 0.78632 0.35229 0.0
H114 H 0.09026 0.72584 0.34264 0.0
H115 H 0.04927 0.76061 0.38962 0.0
O116 O 0.08551 0.78768 0.3843 0.0
C117 C 0.04001 0.78389 0.33339 0.0
O118 O 0.04739 0.77439 0.3131 0.0
N119 N 0.10948 0.76886 0.34639 0.0
C120 C 0.15095 0.7589 0.33229 0.0
C121 C 0.14728 0.77275 0.35243 0.0
C122 C 0.12634 0.77777 0.35904 0.0
C123 C 0.11302 0.75663 0.32558 0.0
C124 C 0.13363 0.75086 0.31866 0.0
H125 H 0.12393 0.78968 0.37339 0.0
H126 H 0.0997 0.75166 0.31401 0.0
H127 H 0.09606 0.82277 0.36919 0.0
H128 H 0.10261 0.83562 0.29177 0.0
H129 H 0.0676 0.69866 0.36891 0.0
H130 H 0.16046 0.77994 0.36258 0.0
H131 H 0.13607 0.74083 0.30226 0.0
C132 C 0.16218 0.93538 0.68031 0.0
C133 C 0.14288 0.92735 0.68828 0.0
N134 N 0.13718 0.91158 0.67242 0.0
N135 N 0.1685 0.92471 0.65953 0.0
C136 C 0.15302 0.91025 0.65531 0.0
H137 H 0.17117 0.94796 0.68932 0.0
Co138 Co 0.19391 0.92832 0.6423 0.0
C139 C 0.17187 0.92714 0.59161 0.0
O140 O 0.17184 0.94785 0.5881 0.0
N141 N 0.2198 0.93225 0.62572 0.0
C142 C 0.25469 0.93332 0.61834 0.0
C143 C 0.23906 0.92583 0.63422 0.0
C144 C 0.22414 0.94387 0.60492 0.0
N145 N 0.24525 0.94481 0.60002 0.0
O146 O 0.18639 0.95707 0.63593 0.0
H147 H 0.24165 0.91684 0.65137 0.0
H148 H 0.21212 0.95202 0.59397 0.0
O149 O 0.18007 0.91914 0.61148 0.0
C150 C 0.19401 0.97139 0.65029 0.0
O151 O 0.20763 0.96586 0.66798 0.0
N152 N 0.20137 0.90022 0.64944 0.0
C153 C 0.21617 0.86009 0.66312 0.0
C154 C 0.21233 0.86503 0.63771 0.0
C155 C 0.20509 0.88528 0.63121 0.0
C156 C 0.20444 0.89556 0.67427 0.0
C157 C 0.21178 0.87553 0.68157 0.0
H158 H 0.20339 0.88913 0.61144 0.0
H159 H 0.20186 0.90772 0.6884 0.0
H160 H 0.15374 0.89841 0.64056 0.0
H161 H 0.13377 0.93272 0.70441 0.0
H162 H 0.27172 0.93128 0.62072 0.0
H163 H 0.21553 0.85359 0.6229 0.0
H164 H 0.215 0.87259 0.70135 0.0
C165 C 0.07335 0.2027 0.67647 0.0
C166 C 0.07815 0.182 0.68291 0.0
N167 N 0.08713 0.17255 0.66272 0.0
N168 N 0.07952 0.20626 0.65248 0.0
C169 C 0.08765 0.18754 0.64451 0.0
H170 H 0.06649 0.21466 0.68872 0.0
Co171 Co 0.07872 0.23246 0.63662 0.0
C172 C 0.10927 0.22844 0.5939 0.0
O173 O 0.1173 0.24736 0.59871 0.0
N174 N 0.07709 0.25916 0.62072 0.0
C175 C 0.07053 0.2932 0.61137 0.0
C176 C 0.07587 0.2791 0.63035 0.0
C177 C 0.07229 0.26165 0.59606 0.0
N178 N 0.06855 0.28207 0.58983 0.0
O179 O 0.05296 0.22436 0.62073 0.0
H180 H 0.0773 0.2832 0.65004 0.0
H181 H 0.07002 0.24846 0.58315 0.0
O182 O 0.09434 0.22099 0.60775 0.0
C183 C 0.03572 0.23033 0.6311 0.0
O184 O 0.03675 0.243 0.65082 0.0
N185 N 0.10359 0.23982 0.65411 0.0
C186 C 0.13553 0.24522 0.69013 0.0
C187 C 0.13911 0.23261 0.66878 0.0
C188 C 0.12274 0.22964 0.65132 0.0
C189 C 0.0998 0.25184 0.67503 0.0
C190 C 0.11564 0.25502 0.69312 0.0
H191 H 0.12515 0.21789 0.63679 0.0
H192 H 0.08393 0.25779 0.67862 0.0
H193 H 0.09486 0.18514 0.62619 0.0
H194 H 0.07563 0.1746 0.70114 0.0
H195 H 0.06741 0.31007 0.61342 0.0
H196 H 0.15398 0.22408 0.66638 0.0
H197 H 0.11213 0.26455 0.70965 0.0
C198 C 0.84135 0.07255 0.68085 0.0
C199 C 0.86058 0.083 0.679 0.0
N200 N 0.86083 0.09395 0.65709 0.0
N201 N 0.82962 0.07679 0.66015 0.0
C202 C 0.84185 0.0899 0.64608 0.0
H203 H 0.83608 0.06281 0.69649 0.0
Co204 Co 0.80216 0.06749 0.65408 0.0
C205 C 0.79375 0.07798 0.59979 0.0
O206 O 0.7732 0.08029 0.60373 0.0
N207 N 0.77422 0.05764 0.64838 0.0
C208 C 0.73905 0.0525 0.64695 0.0
C209 C 0.75524 0.06449 0.6574 0.0
C210 C 0.76911 0.04122 0.63304 0.0
N211 N 0.74792 0.03784 0.63175 0.0
O212 O 0.81272 0.03948 0.64943 0.0
H213 H 0.75301 0.0776 0.67029 0.0
H214 H 0.78068 0.03261 0.62184 0.0
O215 O 0.80606 0.07305 0.61811 0.0
C216 C 0.81118 0.02764 0.66883 0.0
O217 O 0.80221 0.03542 0.68926 0.0
N218 N 0.79249 0.09497 0.66079 0.0
C219 C 0.77914 0.13393 0.67993 0.0
C220 C 0.78462 0.13197 0.65442 0.0
C221 C 0.79178 0.11237 0.64527 0.0
C222 C 0.78814 0.09693 0.68584 0.0
C223 C 0.78129 0.11622 0.69581 0.0
H224 H 0.79709 0.11163 0.62601 0.0
H225 H 0.78968 0.08318 0.69804 0.0
H226 H 0.83689 0.0965 0.62817 0.0
H227 H 0.87311 0.08302 0.69306 0.0
H228 H 0.72211 0.05458 0.65003 0.0
H229 H 0.78359 0.14551 0.64178 0.0
H230 H 0.77714 0.11709 0.71564 0.0
C231 C 0.89348 0.78027 0.69021 0.0
C232 C 0.88572 0.79987 0.69731 0.0
N233 N 0.89196 0.81437 0.68 0.0
N234 N 0.9044 0.78241 0.66847 0.0
C235 C 0.90351 0.80334 0.66295 0.0
H236 H 0.89077 0.76529 0.6998 0.0
Co237 Co 0.91642 0.76066 0.6498 0.0
C238 C 0.92177 0.78268 0.60015 0.0
O239 O 0.94181 0.77703 0.59745 0.0
N240 N 0.92856 0.73861 0.63183 0.0
C241 C 0.95055 0.71236 0.62177 0.0
C242 C 0.94438 0.72614 0.64055 0.0
C243 C 0.9249 0.73181 0.60808 0.0
N244 N 0.93839 0.71609 0.60123 0.0
O245 O 0.94341 0.77402 0.65248 0.0
H246 H 0.95151 0.72759 0.65907 0.0
H247 H 0.913 0.73875 0.59578 0.0
O248 O 0.91113 0.77659 0.61931 0.0
C249 C 0.95355 0.77565 0.67317 0.0
O250 O 0.94546 0.76726 0.69378 0.0
N251 N 0.88981 0.74762 0.64749 0.0
C252 C 0.84956 0.72933 0.65185 0.0
C253 C 0.85251 0.74792 0.63764 0.0
C254 C 0.87273 0.75696 0.6359 0.0
C255 C 0.88746 0.72911 0.66058 0.0
C256 C 0.86744 0.71963 0.66297 0.0
H257 H 0.87427 0.77204 0.62628 0.0
H258 H 0.90106 0.72221 0.67014 0.0
H259 H 0.91109 0.81031 0.64658 0.0
H260 H 0.87556 0.80298 0.71339 0.0
H261 H 0.96387 0.70143 0.6227 0.0
H262 H 0.83917 0.75587 0.62868 0.0
H263 H 0.86586 0.70551 0.67457 0.0
C264 C 0.66296 0.54882 0.82889 0.0
C265 C 0.64262 0.55677 0.82581 0.0
N266 N 0.64228 0.57678 0.83499 0.0
N267 N 0.67516 0.56368 0.84032 0.0
C268 C 0.66217 0.58058 0.8434 0.0
H269 H 0.66827 0.53303 0.82375 0.0
Co270 Co 0.70296 0.56149 0.85223 0.0
C271 C 0.70173 0.5843 0.90279 0.0
O272 O 0.72248 0.58464 0.90607 0.0
N273 N 0.73118 0.559 0.86421 0.0
C274 C 0.76598 0.56283 0.87183 0.0
C275 C 0.7493 0.56865 0.85628 0.0
C276 C 0.73749 0.54691 0.88396 0.0
N277 N 0.75841 0.54906 0.88908 0.0
O278 O 0.69578 0.53495 0.86708 0.0
H279 H 0.75038 0.57966 0.84065 0.0
H280 H 0.72666 0.53785 0.89569 0.0
O281 O 0.69373 0.57609 0.88286 0.0
C282 C 0.70196 0.51879 0.85461 0.0
O283 O 0.71364 0.52183 0.83432 0.0
N284 N 0.70952 0.58676 0.83571 0.0
C285 C 0.71584 0.62078 0.803 0.0
C286 C 0.71436 0.62421 0.82912 0.0
C287 C 0.71113 0.6069 0.84528 0.0
C288 C 0.71141 0.58314 0.8105 0.0
C289 C 0.71451 0.59991 0.79377 0.0
H290 H 0.70967 0.60989 0.86519 0.0
H291 H 0.71014 0.56704 0.80337 0.0
H292 H 0.66701 0.59519 0.8526 0.0
H293 H 0.62911 0.54843 0.81777 0.0
H294 H 0.78224 0.56857 0.87086 0.0
H295 H 0.71539 0.64012 0.83694 0.0
H296 H 0.71611 0.59651 0.77382 0.0
C297 C 0.42275 0.69286 0.80547 0.0
C298 C 0.41963 0.67232 0.79706 0.0
N299 N 0.41437 0.66011 0.81705 0.0
N300 N 0.41915 0.69354 0.83053 0.0
C301 C 0.41447 0.67333 0.8371 0.0
H302 H 0.42662 0.70658 0.79399 0.0
Co303 Co 0.41922 0.71777 0.85046 0.0
C304 C 0.38359 0.7065 0.88592 0.0
O305 O 0.37271 0.72371 0.88008 0.0
N306 N 0.42049 0.74256 0.87047 0.0
C307 C 0.42255 0.76521 0.90266 0.0
C308 C 0.41401 0.74637 0.89438 0.0
C309 C 0.43335 0.75925 0.86502 0.0
N310 N 0.43502 0.77324 0.8843 0.0
O311 O 0.44407 0.70741 0.86669 0.0
H312 H 0.40574 0.73539 0.90651 0.0
H313 H 0.44259 0.76029 0.84785 0.0
O314 O 0.40181 0.70318 0.87586 0.0
C315 C 0.46164 0.71227 0.85621 0.0
O316 O 0.46145 0.72523 0.83673 0.0
N317 N 0.3952 0.72777 0.83278 0.0
C318 C 0.36342 0.74084 0.79951 0.0
C319 C 0.36161 0.72143 0.81224 0.0
C320 C 0.37793 0.71493 0.82832 0.0
C321 C 0.39726 0.74661 0.82019 0.0
C322 C 0.38146 0.75353 0.80358 0.0
H323 H 0.37694 0.69925 0.83662 0.0
H324 H 0.41161 0.75593 0.82201 0.0
H325 H 0.41009 0.66854 0.85602 0.0
H326 H 0.42064 0.66694 0.77769 0.0
H327 H 0.4217 0.77112 0.92184 0.0
H328 H 0.34815 0.71096 0.80896 0.0
H329 H 0.38351 0.7685 0.79367 0.0
C330 C 0.33242 0.41272 0.81923 0.0
C331 C 0.35219 0.4033 0.81766 0.0
N332 N 0.35711 0.39528 0.84054 0.0
N333 N 0.32499 0.41061 0.84295 0.0
C334 C 0.34035 0.39988 0.85549 0.0
H335 H 0.32386 0.42037 0.804 0.0
Co336 Co 0.29858 0.41979 0.85378 0.0
C337 C 0.2971 0.41076 0.90915 0.0
O338 O 0.27632 0.40817 0.90859 0.0
N339 N 0.27152 0.42958 0.8642 0.0
C340 C 0.23712 0.43311 0.87411 0.0
C341 C 0.25178 0.42129 0.86075 0.0
C342 C 0.26822 0.44677 0.87906 0.0
N343 N 0.24758 0.44916 0.88542 0.0
O344 O 0.30951 0.4479 0.85564 0.0
H345 H 0.2481 0.40702 0.85028 0.0
H346 H 0.28093 0.45648 0.88675 0.0
O347 O 0.30715 0.41524 0.88884 0.0
C348 C 0.30655 0.45984 0.83658 0.0
O349 O 0.29519 0.4526 0.81757 0.0
N350 N 0.28857 0.39199 0.84998 0.0
C351 C 0.27504 0.35164 0.83536 0.0
C352 C 0.28461 0.35473 0.85896 0.0
C353 C 0.29174 0.37501 0.86573 0.0
C354 C 0.28002 0.38906 0.82662 0.0
C355 C 0.27293 0.36906 0.81899 0.0
H356 H 0.30039 0.37661 0.88316 0.0
H357 H 0.27858 0.40249 0.81392 0.0
H358 H 0.33904 0.39484 0.87494 0.0
H359 H 0.36214 0.40244 0.80101 0.0
H360 H 0.22025 0.4298 0.87605 0.0
H361 H 0.28703 0.34149 0.87178 0.0
H362 H 0.26561 0.36733 0.80058 0.0
C363 C 0.58868 0.28569 0.84285 0.0
C364 C 0.59375 0.30575 0.8342 0.0
N365 N 0.59596 0.31869 0.85434 0.0
N366 N 0.58809 0.28601 0.86829 0.0
C367 C 0.59213 0.3064 0.87468 0.0
H368 H 0.58659 0.27153 0.83147 0.0
Co369 Co 0.58472 0.26258 0.88926 0.0
C370 C 0.61629 0.27582 0.92935 0.0
O371 O 0.62819 0.2588 0.92616 0.0
N372 N 0.5802 0.23869 0.90992 0.0
C373 C 0.57493 0.21622 0.94174 0.0
C374 C 0.5862 0.23368 0.93368 0.0
C375 C 0.56525 0.22396 0.90413 0.0
N376 N 0.56144 0.21024 0.92326 0.0
O377 O 0.55808 0.27393 0.89992 0.0
H378 H 0.59629 0.243 0.94579 0.0
H379 H 0.55631 0.22422 0.8867 0.0
O380 O 0.59906 0.27807 0.91669 0.0
C381 C 0.54346 0.27064 0.8837 0.0
O382 O 0.54808 0.25917 0.86367 0.0
N383 N 0.61041 0.25136 0.87676 0.0
C384 C 0.64389 0.23732 0.84635 0.0
C385 C 0.64522 0.25685 0.85903 0.0
C386 C 0.62815 0.26379 0.87364 0.0
C387 C 0.6091 0.23202 0.86518 0.0
C388 C 0.6257 0.22464 0.85001 0.0
H389 H 0.62879 0.27971 0.88133 0.0
H390 H 0.59455 0.22287 0.86614 0.0
H391 H 0.59359 0.3119 0.89395 0.0
H392 H 0.59637 0.31028 0.81473 0.0
H393 H 0.57498 0.21004 0.96082 0.0
H394 H 0.65895 0.26717 0.85689 0.0
H395 H 0.62363 0.20973 0.84003 0.0
C396 C 0.65777 0.43734 0.1901 0.0
C397 C 0.63923 0.42566 0.19181 0.0
N398 N 0.63664 0.41492 0.17001 0.0
N399 N 0.66677 0.43389 0.16738 0.0
C400 C 0.65348 0.42024 0.15552 0.0
H401 H 0.66473 0.44697 0.20488 0.0
Co402 Co 0.69357 0.44342 0.15806 0.0
C403 C 0.70177 0.42399 0.10759 0.0
O404 O 0.72214 0.42165 0.11273 0.0
N405 N 0.7208 0.4536 0.14908 0.0
C406 C 0.75544 0.46114 0.14604 0.0
C407 C 0.74011 0.45071 0.15995 0.0
C408 C 0.72484 0.46629 0.12902 0.0
N409 N 0.74574 0.47093 0.12659 0.0
O410 O 0.68139 0.46956 0.14743 0.0
H411 H 0.74323 0.4415 0.17673 0.0
H412 H 0.71272 0.47124 0.1157 0.0
O413 O 0.68935 0.4322 0.12404 0.0
C414 C 0.68008 0.48401 0.16415 0.0
O415 O 0.68792 0.48028 0.18673 0.0
N416 N 0.70472 0.41777 0.17035 0.0
C417 C 0.71616 0.38141 0.19735 0.0
C418 C 0.70834 0.37977 0.17265 0.0
C419 C 0.70229 0.39811 0.15963 0.0
C420 C 0.7116 0.41955 0.19466 0.0
C421 C 0.71775 0.40164 0.20839 0.0
H422 H 0.69458 0.39609 0.14165 0.0
H423 H 0.712 0.43507 0.20355 0.0
H424 H 0.65667 0.41321 0.13728 0.0
H425 H 0.62879 0.42473 0.20803 0.0
H426 H 0.7724 0.46141 0.14987 0.0
H427 H 0.70605 0.36437 0.16382 0.0
H428 H 0.72356 0.40362 0.2275 0.0
C429 C 0.5873 0.7233 0.15493 0.0
C430 C 0.59031 0.70263 0.16269 0.0
N431 N 0.58783 0.6897 0.14256 0.0
N432 N 0.58315 0.72343 0.12999 0.0
C433 C 0.58314 0.70277 0.12308 0.0
H434 H 0.58887 0.73744 0.16644 0.0
Co435 Co 0.58 0.74792 0.11092 0.0
C436 C 0.60097 0.73599 0.06239 0.0
O437 O 0.61196 0.75384 0.0625 0.0
N438 N 0.57569 0.77329 0.0928 0.0
C439 C 0.56555 0.80682 0.08558 0.0
C440 C 0.57074 0.79208 0.1038 0.0
C441 C 0.57232 0.77682 0.06793 0.0
N442 N 0.56685 0.79716 0.06302 0.0
O443 O 0.55104 0.74059 0.10549 0.0
H444 H 0.56955 0.7946 0.12393 0.0
H445 H 0.57205 0.76449 0.05373 0.0
O446 O 0.58764 0.73219 0.08012 0.0
C447 C 0.53782 0.74446 0.12307 0.0
O448 O 0.5443 0.75547 0.14274 0.0
N449 N 0.60898 0.75456 0.11756 0.0
C450 C 0.6498 0.75965 0.13789 0.0
C451 C 0.64495 0.74198 0.12291 0.0
C452 C 0.62442 0.73953 0.11336 0.0
C453 C 0.61363 0.77211 0.13169 0.0
C454 C 0.634 0.77513 0.14174 0.0
H455 H 0.62068 0.72468 0.10412 0.0
H456 H 0.60126 0.78306 0.13704 0.0
H457 H 0.58009 0.69746 0.10406 0.0
H458 H 0.59502 0.69768 0.18146 0.0
H459 H 0.5604 0.82307 0.0887 0.0
H460 H 0.65658 0.72952 0.1197 0.0
H461 H 0.63685 0.78866 0.15398 0.0
C462 C 0.338 0.58662 0.1907 0.0
C463 C 0.35751 0.59639 0.19359 0.0
N464 N 0.36457 0.60229 0.17059 0.0
N465 N 0.33274 0.58653 0.16605 0.0
C466 C 0.3494 0.59582 0.15422 0.0
H467 H 0.32777 0.58091 0.20568 0.0
Co468 Co 0.30632 0.57839 0.15357 0.0
C469 C 0.30279 0.60279 0.10585 0.0
O470 O 0.28368 0.6092 0.11269 0.0
N471 N 0.27953 0.56901 0.1413 0.0
C472 C 0.24734 0.55394 0.13746 0.0
C473 C 0.26224 0.56194 0.15415 0.0
C474 C 0.2751 0.56388 0.11708 0.0
N475 N 0.25549 0.55556 0.11412 0.0
O476 O 0.31801 0.55181 0.14385 0.0
H477 H 0.26088 0.56117 0.17443 0.0
H478 H 0.2865 0.56486 0.10183 0.0
O479 O 0.31341 0.59033 0.12028 0.0
C480 C 0.316 0.5376 0.16079 0.0
O481 O 0.30618 0.54263 0.18188 0.0
N482 N 0.29516 0.60468 0.16491 0.0
C483 C 0.2817 0.64216 0.18802 0.0
C484 C 0.29765 0.64273 0.16968 0.0
C485 C 0.30428 0.62378 0.15847 0.0
C486 C 0.28048 0.60392 0.18385 0.0
C487 C 0.27303 0.62254 0.19514 0.0
H488 H 0.31729 0.62453 0.14518 0.0
H489 H 0.27536 0.58887 0.19138 0.0
H490 H 0.34975 0.59927 0.13423 0.0
H491 H 0.36549 0.5996 0.21132 0.0
H492 H 0.23205 0.54697 0.14214 0.0
H493 H 0.30511 0.65764 0.16433 0.0
H494 H 0.26134 0.62153 0.21015 0.0
C495 C 0.41861 0.29915 0.18128 0.0
C496 C 0.41458 0.32006 0.18731 0.0
N497 N 0.41078 0.33083 0.16574 0.0
N498 N 0.41722 0.29673 0.15608 0.0
C499 C 0.41283 0.31637 0.14706 0.0
H500 H 0.4216 0.28631 0.19443 0.0
Co501 Co 0.41923 0.27063 0.13998 0.0
C502 C 0.39435 0.27875 0.0931 0.0
O503 O 0.38314 0.26128 0.09659 0.0
N504 N 0.4225 0.24382 0.12463 0.0
C505 C 0.43239 0.20987 0.12072 0.0
C506 C 0.42884 0.22627 0.13735 0.0
C507 C 0.42347 0.2379 0.1001 0.0
N508 N 0.42886 0.21722 0.09725 0.0
O509 O 0.44764 0.27735 0.13088 0.0
H510 H 0.43195 0.22571 0.15741 0.0
H511 H 0.42208 0.2488 0.08442 0.0
O512 O 0.40938 0.28352 0.1084 0.0
C513 C 0.46219 0.27359 0.14698 0.0
O514 O 0.45708 0.26381 0.16807 0.0
N515 N 0.39087 0.26442 0.15016 0.0
C516 C 0.34964 0.25523 0.16664 0.0
C517 C 0.35385 0.27413 0.15364 0.0
C518 C 0.37461 0.27856 0.14586 0.0
C519 C 0.38719 0.2468 0.16457 0.0
C520 C 0.36664 0.24164 0.17251 0.0
H521 H 0.37745 0.29338 0.13612 0.0
H522 H 0.40015 0.23683 0.1706 0.0
H523 H 0.40979 0.31977 0.12737 0.0
H524 H 0.41389 0.32667 0.20616 0.0
H525 H 0.43798 0.19405 0.12547 0.0
H526 H 0.34119 0.28527 0.14924 0.0
H527 H 0.36415 0.22736 0.18362 0.0
C528 C 0.18301 0.00838 0.3809 0.0
C529 C 0.19785 0.01216 0.36154 0.0
C530 C 0.17408 0.98811 0.384 0.0
C531 C 0.1795 0.93153 0.36376 0.0
H532 H 0.11774 0.93123 0.36788 0.0
C533 C 0.12841 0.86378 0.32403 0.0
C534 C 0.11169 0.85599 0.33903 0.0
C535 C 0.1396 0.882 0.33127 0.0
C536 C 0.135 0.93103 0.36712 0.0
H537 H 0.21593 -0.00251 0.33127 0.0
H538 H 0.20024 0.96249 0.33638 0.0
H539 H 0.13716 0.96451 0.37413 0.0
H540 H 0.09321 0.86133 0.373 0.0
H541 H 0.11265 0.89351 0.3855 0.0
H542 H 0.17719 0.89823 0.35547 0.0
C543 C 0.19556 0.97496 0.34937 0.0
C544 C 0.14615 0.95006 0.37082 0.0
C545 C 0.20444 0.99513 0.34628 0.0
C546 C 0.10612 0.86698 0.36119 0.0
C547 C 0.11716 0.88537 0.36828 0.0
C548 C 0.16835 0.91258 0.35984 0.0
C549 C 0.17991 0.97132 0.36786 0.0
C550 C 0.16849 0.95062 0.36843 0.0
C551 C 0.13414 0.89289 0.35351 0.0
C552 C 0.14598 0.9123 0.36079 0.0
H553 H 0.17771 0.0212 0.39304 0.0
H554 H 0.16224 0.98572 0.39862 0.0
H555 H 0.19673 0.93136 0.36232 0.0
H556 H 0.13322 0.85549 0.30706 0.0
H557 H 0.15246 0.88765 0.31937 0.0
C558 C 0.12696 0.12358 0.35431 0.0
C559 C 0.12661 0.10271 0.34468 0.0
C560 C 0.10802 0.13501 0.35733 0.0
C561 C 0.04955 0.12837 0.36193 0.0
H562 H 0.04788 0.18684 0.3383 0.0
C563 C 0.98331 0.19264 0.32662 0.0
C564 C 0.96777 0.19022 0.3455 0.0
C565 C 0.00342 0.18342 0.32941 0.0
C566 C 0.04811 0.17052 0.34497 0.0
H567 H 0.10604 0.07731 0.33134 0.0
H568 H 0.07309 0.09735 0.33613 0.0
H569 H 0.08152 0.16734 0.33772 0.0
H570 H 0.96135 0.17684 0.38251 0.0
H571 H 0.99657 0.16084 0.38744 0.0
H572 H 0.016 0.13126 0.36828 0.0
C573 C 0.08798 0.10483 0.34156 0.0
C574 C 0.0674 0.15943 0.34489 0.0
C575 C 0.10689 0.09343 0.33849 0.0
C576 C 0.97294 0.17885 0.36753 0.0
C577 C 0.99307 0.16962 0.37033 0.0
C578 C 0.03026 0.13946 0.36204 0.0
C579 C 0.08834 0.12578 0.35087 0.0
C580 C 0.06825 0.13812 0.35297 0.0
C581 C 0.00844 0.17161 0.35116 0.0
C582 C 0.02926 0.16054 0.35317 0.0
H583 H 0.14188 0.13127 0.35907 0.0
H584 H 0.10878 0.15108 0.36474 0.0
H585 H 0.04976 0.11205 0.36858 0.0
H586 H 0.97983 0.20131 0.30942 0.0
H587 H 0.01481 0.18501 0.31416 0.0
C588 C 0.78554 0.98289 0.34054 0.0
C589 C 0.79112 0.96804 0.35924 0.0
C590 C 0.79484 0.00308 0.34019 0.0
C591 C 0.84273 0.03172 0.36217 0.0
H592 H 0.81137 0.08109 0.3385 0.0
C593 C 0.87865 0.11682 0.35715 0.0
C594 C 0.87501 0.12788 0.33447 0.0
C595 C 0.86823 0.09756 0.36199 0.0
C596 C 0.82033 0.0674 0.34503 0.0
H597 H 0.8102 0.96298 0.39288 0.0
H598 H 0.82615 -0.00149 0.3926 0.0
H599 H 0.79267 0.04749 0.34515 0.0
H600 H 0.85759 0.1275 0.29913 0.0
H601 H 0.83938 0.09383 0.30755 0.0
H602 H 0.87038 0.05182 0.3621 0.0
C603 C 0.8149 0.99435 0.37787 0.0
C604 C 0.80965 0.04815 0.34881 0.0
C605 C 0.80567 0.97405 0.37814 0.0
C606 C 0.86086 0.11923 0.31664 0.0
C607 C 0.85027 0.1001 0.32159 0.0
C608 C 0.85337 0.05106 0.3586 0.0
C609 C 0.80983 0.00899 0.35866 0.0
C610 C 0.82079 0.02996 0.35699 0.0
C611 C 0.85378 0.08914 0.34435 0.0
C612 C 0.84233 0.06898 0.34959 0.0
H613 H 0.77444 0.97876 0.32565 0.0
H614 H 0.79078 0.01378 0.32488 0.0
H615 H 0.85188 0.01798 0.36814 0.0
H616 H 0.8896 0.12305 0.37114 0.0
H617 H 0.87118 0.08946 0.37971 0.0
C618 C 0.86626 0.87107 0.3095 0.0
C619 C 0.85843 0.8804 0.33175 0.0
C620 C 0.88578 0.86036 0.30951 0.0
C621 C 0.92367 0.83371 0.3525 0.0
H622 H 0.96289 0.83946 0.29632 0.0
C623 C 0.01031 0.80279 0.35554 0.0
C624 C 0.01832 0.79306 0.33362 0.0
C625 C 0.99036 0.81264 0.35531 0.0
C626 C 0.95198 0.83749 0.312 0.0
H627 H 0.86532 0.88649 0.37122 0.0
H628 H 0.89944 0.86796 0.37122 0.0
H629 H 0.92925 0.85892 0.2958 0.0
H630 H 0.01147 0.78555 0.29446 0.0
H631 H 0.97656 0.80266 0.29414 0.0
H632 H 0.94651 0.81241 0.36878 0.0
C633 C 0.89027 0.8685 0.35389 0.0
C634 C 0.93272 0.84865 0.31171 0.0
C635 C 0.87074 0.87916 0.35388 0.0
C636 C 0.00577 0.79296 0.31164 0.0
C637 C 0.98585 0.80289 0.31139 0.0
C638 C 0.94295 0.8226 0.35281 0.0
C639 C 0.89793 0.85882 0.33176 0.0
C640 C 0.91837 0.84692 0.33199 0.0
C641 C 0.97802 0.81301 0.33315 0.0
C642 C 0.95732 0.8244 0.33259 0.0
H643 H 0.85703 0.87148 0.29224 0.0
H644 H 0.89111 0.85285 0.29223 0.0
H645 H 0.91279 0.83175 0.36821 0.0
H646 H 0.01959 0.80311 0.3728 0.0
H647 H 0.98484 0.82047 0.37232 0.0
C648 C 0.09681 0.1404 0.63865 0.0
C649 C 0.09665 0.15176 0.66147 0.0
C650 C 0.10728 0.12082 0.63693 0.0
C651 C 0.13034 0.07746 0.67618 0.0
H652 H 0.16139 0.06432 0.61478 0.0
C653 C 0.18882 0.00722 0.66977 0.0
C654 C 0.18539 0.99325 0.64944 0.0
C655 C 0.1787 0.027 0.67045 0.0
C656 C 0.15269 0.06778 0.63197 0.0
H657 H 0.10731 0.15167 0.70036 0.0
H658 H 0.126 0.11777 0.69734 0.0
H659 H 0.1417 0.09775 0.61792 0.0
H660 H 0.16952 0.98944 0.61331 0.0
H661 H 0.15209 0.02426 0.61435 0.0
H662 H 0.1418 0.04765 0.69036 0.0
C663 C 0.1176 0.12362 0.68088 0.0
C664 C 0.14131 0.08685 0.63375 0.0
C665 C 0.1069 0.14307 0.68265 0.0
C666 C 0.1724 -0.00016 0.62926 0.0
C667 C 0.16249 0.01977 0.62981 0.0
C668 C 0.14194 0.05855 0.67449 0.0
C669 C 0.11804 0.11231 0.65795 0.0
C670 C 0.12997 0.09192 0.65589 0.0
C671 C 0.16519 0.03331 0.65067 0.0
C672 C 0.15321 0.05354 0.65239 0.0
H673 H 0.08881 0.14667 0.62212 0.0
H674 H 0.10689 0.11237 0.61912 0.0
H675 H 0.12148 0.08061 0.69331 0.0
H676 H 0.19874 0.00261 0.6856 0.0
H677 H 0.18122 0.03728 0.6866 0.0
C678 C 0.89863 0.10495 0.65573 0.0
C679 C 0.87744 0.10774 0.6478 0.0
C680 C 0.91463 0.11872 0.6474 0.0
C681 C 0.92243 0.17301 0.62349 0.0
H682 H 0.97997 0.1526 0.61212 0.0
C683 C 0.0145 0.20479 0.60487 0.0
C684 C 0.01527 0.22031 0.62397 0.0
C685 C 0.99605 0.19269 0.60117 0.0
C686 C 0.96393 0.1586 0.6147 0.0
H687 H 0.85654 0.1272 0.62459 0.0
H688 H 0.88454 0.15093 0.60969 0.0
H689 H 0.95114 0.12712 0.61784 0.0
H690 H 0.99682 0.23648 0.6528 0.0
H691 H 0.96488 0.21523 0.64669 0.0
H692 H 0.93529 0.20452 0.62059 0.0
C693 C 0.88872 0.13818 0.62256 0.0
C694 C 0.94746 0.14397 0.61835 0.0
C695 C 0.8727 0.12442 0.63093 0.0
C696 C 0.99678 0.22455 0.63803 0.0
C697 C 0.97838 0.21244 0.63439 0.0
C698 C 0.93891 0.18766 0.61975 0.0
C699 C 0.90983 0.13559 0.63088 0.0
C700 C 0.92666 0.15102 0.62354 0.0
C701 C 0.97804 0.19589 0.61651 0.0
C702 C 0.95996 0.18062 0.61606 0.0
H703 H 0.90289 0.09214 0.66844 0.0
H704 H 0.93068 0.11645 0.65446 0.0
H705 H 0.90659 0.17897 0.62753 0.0
H706 H 0.02844 0.2013 0.59353 0.0
H707 H 0.99615 0.18032 0.58693 0.0
C708 C 0.88574 0.84727 0.65533 0.0
C709 C 0.88584 0.83647 0.67863 0.0
C710 C 0.8788 0.86833 0.65375 0.0
C711 C 0.86847 0.91632 0.69225 0.0
H712 H 0.83173 0.93204 0.6363 0.0
C713 C 0.82003 0.99392 0.69139 0.0
C714 C 0.81986 0.0058 0.66891 0.0
C715 C 0.82876 0.97351 0.69192 0.0
C716 C 0.84218 0.92794 0.65185 0.0
H717 H 0.87923 0.83972 0.71863 0.0
H718 H 0.86663 0.8763 0.71578 0.0
H719 H 0.84604 0.89597 0.63871 0.0
H720 H 0.82844 0.00552 0.62923 0.0
H721 H 0.84371 0.96969 0.63018 0.0
H722 H 0.86431 0.94822 0.70557 0.0
C723 C 0.87215 0.8685 0.69877 0.0
C724 C 0.8504 0.90731 0.65324 0.0
C725 C 0.87915 0.84742 0.70036 0.0
C726 C 0.82837 0.99675 0.64685 0.0
C727 C 0.83702 0.97623 0.64736 0.0
C728 C 0.86018 0.93691 0.69091 0.0
C729 C 0.87174 0.87913 0.6754 0.0
C730 C 0.86354 0.90123 0.67354 0.0
C731 C 0.83744 0.96449 0.66996 0.0
C732 C 0.84684 0.94288 0.67079 0.0
H733 H 0.89055 0.83938 0.63813 0.0
H734 H 0.87894 0.87616 0.63552 0.0
H735 H 0.87885 0.91225 0.70788 0.0
H736 H 0.81355 0.00042 0.7087 0.0
H737 H 0.82857 0.96471 0.70951 0.0
C738 C 0.98233 0.79433 0.69741 0.0
C739 C 0.97331 0.78841 0.67416 0.0
C740 C 0.00016 0.80769 0.69819 0.0
C741 C 0.02879 0.84729 0.65921 0.0
H742 H 0.07469 0.83853 0.70721 0.0
C743 C 0.10956 0.89007 0.65127 0.0
C744 C 0.11838 0.89848 0.67353 0.0
C745 C 0.09154 0.87707 0.65224 0.0
C746 C 0.06186 0.84128 0.6939 0.0
H747 H 0.97635 0.79119 0.63347 0.0
H748 H 0.00765 0.81403 0.63482 0.0
H749 H 0.04415 0.81434 0.70714 0.0
H750 H 0.11533 0.89979 0.71426 0.0
H751 H 0.08368 0.87701 0.71597 0.0
H752 H 0.04667 0.87401 0.64572 0.0
C753 C 0.00067 0.80884 0.65248 0.0
C754 C 0.04438 0.82746 0.69386 0.0
C755 C 0.98281 0.79562 0.65171 0.0
C756 C 0.10876 0.89367 0.6968 0.0
C757 C 0.0908 0.88049 0.6978 0.0
C758 C 0.0463 0.861 0.65917 0.0
C759 C 0.00937 0.81529 0.67572 0.0
C760 C 0.02773 0.83021 0.67636 0.0
C761 C 0.08203 0.87209 0.67551 0.0
C762 C 0.06308 0.85804 0.67637 0.0
H763 H 0.97531 0.78908 0.71503 0.0
H764 H 0.00638 0.81251 0.7164 0.0
H765 H 0.01602 0.85016 0.64587 0.0
H766 H 0.1165 0.89367 0.63306 0.0
H767 H 0.08522 0.87066 0.63478 0.0
C768 C 0.69983 0.47994 0.8455 0.0
C769 C 0.69373 0.49735 0.86048 0.0
C770 C 0.68999 0.4602 0.84852 0.0
C771 C 0.63949 0.43723 0.87016 0.0
H772 H 0.66915 0.3839 0.85876 0.0
C773 C 0.59929 0.35394 0.87444 0.0
C774 C 0.60472 0.33984 0.85488 0.0
C775 C 0.6098 0.37344 0.87692 0.0
C776 C 0.66067 0.3987 0.86184 0.0
H777 H 0.67344 0.50745 0.8914 0.0
H778 H 0.65643 0.47274 0.89696 0.0
H779 H 0.68951 0.41687 0.86238 0.0
H780 H 0.62501 0.33529 0.82221 0.0
H781 H 0.64325 0.36945 0.82637 0.0
H782 H 0.61063 0.41893 0.86954 0.0
C783 C 0.66855 0.47452 0.88254 0.0
C784 C 0.6723 0.41755 0.86395 0.0
C785 C 0.67839 0.49434 0.87948 0.0
C786 C 0.62034 0.34592 0.83731 0.0
C787 C 0.63097 0.36532 0.8399 0.0
C788 C 0.62786 0.41831 0.86824 0.0
C789 C 0.6739 0.45738 0.86668 0.0
C790 C 0.66182 0.43709 0.86761 0.0
C791 C 0.62606 0.37908 0.85998 0.0
C792 C 0.63833 0.39896 0.86354 0.0
H793 H 0.71164 0.48173 0.83074 0.0
H794 H 0.69434 0.44743 0.83579 0.0
H795 H 0.6309 0.45204 0.87264 0.0
H796 H 0.5872 0.34967 0.88813 0.0
H797 H 0.60572 0.38378 0.89256 0.0
C798 C 0.48031 0.67942 0.87095 0.0
C799 C 0.48131 0.7005 0.86215 0.0
C800 C 0.49866 0.6668 0.8714 0.0
C801 C 0.55069 0.66377 0.83903 0.0
H802 H 0.56105 0.61722 0.88559 0.0
C803 C 0.62707 0.61289 0.83659 0.0
C804 C 0.62426 0.59071 0.83777 0.0
C805 C 0.60995 0.62659 0.8409 0.0
C806 C 0.55823 0.63011 0.8724 0.0
H807 H 0.50237 0.72557 0.84915 0.0
H808 H 0.53455 0.70392 0.85103 0.0
H809 H 0.53128 0.64155 0.89316 0.0
H810 H 0.60142 0.56544 0.84448 0.0
H811 H 0.57132 0.58947 0.85204 0.0
H812 H 0.57773 0.65244 0.81843 0.0
C813 C 0.51954 0.69678 0.85659 0.0
C814 C 0.54121 0.64403 0.8767 0.0
C815 C 0.50116 0.70926 0.85573 0.0
C816 C 0.60394 0.58246 0.84317 0.0
C817 C 0.58683 0.59619 0.84779 0.0
C818 C 0.56779 0.65002 0.83491 0.0
C819 C 0.51838 0.67514 0.86339 0.0
C820 C 0.53717 0.66099 0.85998 0.0
C821 C 0.58971 0.61837 0.84674 0.0
C822 C 0.57165 0.633 0.85144 0.0
H823 H 0.46514 0.67224 0.87583 0.0
H824 H 0.49711 0.65019 0.87661 0.0
H825 H 0.54779 0.67627 0.82536 0.0
H826 H 0.64255 0.61965 0.83233 0.0
H827 H 0.61262 0.64363 0.84008 0.0
C828 C 0.31537 0.49307 0.81278 0.0
C829 C 0.31712 0.48082 0.83489 0.0
C830 C 0.32648 0.51224 0.81041 0.0
C831 C 0.37308 0.54095 0.8358 0.0
H832 H 0.34657 0.58995 0.80413 0.0
C833 C 0.40891 0.62571 0.83862 0.0
C834 C 0.40686 0.63844 0.81692 0.0
C835 C 0.39929 0.60568 0.83976 0.0
C836 C 0.3543 0.57631 0.81269 0.0
H837 H 0.33147 0.47933 0.87214 0.0
H838 H 0.35064 0.513 0.86813 0.0
H839 H 0.32628 0.5571 0.80909 0.0
H840 H 0.3938 0.63979 0.77905 0.0
H841 H 0.37727 0.60463 0.78088 0.0
H842 H 0.40105 0.56029 0.83962 0.0
C843 C 0.34097 0.50757 0.85245 0.0
C844 C 0.34266 0.55751 0.81558 0.0
C845 C 0.32986 0.48837 0.85481 0.0
C846 C 0.39579 0.63032 0.79596 0.0
C847 C 0.3861 0.6103 0.79713 0.0
C848 C 0.38472 0.55978 0.83295 0.0
C849 C 0.33956 0.51961 0.83012 0.0
C850 C 0.3519 0.53963 0.82721 0.0
C851 C 0.38739 0.59796 0.81923 0.0
C852 C 0.37543 0.57766 0.82139 0.0
H853 H 0.30573 0.48767 0.79705 0.0
H854 H 0.32523 0.52102 0.79287 0.0
H855 H 0.38077 0.52733 0.84446 0.0
H856 H 0.41757 0.63145 0.85495 0.0
H857 H 0.40049 0.59659 0.8571 0.0
C858 C 0.38637 0.37084 0.82946 0.0
C859 C 0.37592 0.38351 0.84741 0.0
C860 C 0.40451 0.35929 0.83606 0.0
C861 C 0.43443 0.33783 0.89084 0.0
H862 H 0.4789 0.33182 0.8405 0.0
C863 C 0.51849 0.29711 0.90368 0.0
C864 C 0.52283 0.28196 0.8848 0.0
C865 C 0.50012 0.30978 0.9022 0.0
C866 C 0.46659 0.3334 0.85473 0.0
H867 H 0.37633 0.39415 0.88634 0.0
H868 H 0.40838 0.37426 0.89782 0.0
H869 H 0.44828 0.3544 0.83166 0.0
H870 H 0.51068 0.26729 0.85053 0.0
H871 H 0.47907 0.28952 0.84787 0.0
H872 H 0.45326 0.31686 0.91395 0.0
C873 C 0.4023 0.37293 0.87874 0.0
C874 C 0.44898 0.3462 0.84964 0.0
C875 C 0.38398 0.38435 0.87217 0.0
C876 C 0.50797 0.27895 0.86525 0.0
C877 C 0.48988 0.29169 0.86365 0.0
C878 C 0.45229 0.32518 0.89607 0.0
C879 C 0.41283 0.36031 0.86071 0.0
C880 C 0.4324 0.34817 0.86734 0.0
C881 C 0.48607 0.30755 0.8817 0.0
C882 C 0.46822 0.32251 0.87777 0.0
H883 H 0.38028 0.36955 0.8104 0.0
H884 H 0.41186 0.34931 0.82184 0.0
H885 H 0.4219 0.3389 0.90485 0.0
H886 H 0.52963 0.29974 0.919 0.0
H887 H 0.49741 0.32193 0.91635 0.0
C888 C 0.59191 0.6548 0.16364 0.0
C889 C 0.59218 0.66714 0.14151 0.0
C890 C 0.59838 0.63354 0.1632 0.0
C891 C 0.63208 0.59705 0.12603 0.0
H892 H 0.60897 0.55499 0.17219 0.0
C893 C 0.66388 0.51031 0.1341 0.0
C894 C 0.66867 0.50409 0.15897 0.0
C895 C 0.65266 0.52918 0.12952 0.0
C896 C 0.61554 0.56659 0.15918 0.0
H897 H 0.5987 0.66631 0.10122 0.0
H898 H 0.60921 0.6291 0.10033 0.0
H899 H 0.59147 0.5895 0.16798 0.0
H900 H 0.66538 0.51259 0.19848 0.0
H901 H 0.64564 0.54531 0.19045 0.0
H902 H 0.65619 0.574 0.11737 0.0
C903 C 0.60445 0.63603 0.11818 0.0
C904 C 0.60559 0.58637 0.15683 0.0
C905 C 0.59813 0.65737 0.11866 0.0
C906 C 0.66199 0.517 0.17911 0.0
C907 C 0.65053 0.53563 0.17455 0.0
C908 C 0.64188 0.57715 0.12819 0.0
C909 C 0.60511 0.62399 0.14055 0.0
C910 C 0.61405 0.60205 0.14071 0.0
C911 C 0.64575 0.54189 0.14974 0.0
C912 C 0.63399 0.56196 0.14524 0.0
H913 H 0.5871 0.66165 0.18149 0.0
H914 H 0.59886 0.62486 0.18086 0.0
H915 H 0.63922 0.6088 0.11368 0.0
H916 H 0.66888 0.50066 0.11822 0.0
H917 H 0.64915 0.5337 0.11022 0.0
C918 C 0.51129 0.71903 0.10444 0.0
C919 C 0.51706 0.73326 0.12377 0.0
C920 C 0.49331 0.70602 0.10702 0.0
C921 C 0.44419 0.6978 0.14522 0.0
H922 H 0.45244 0.63845 0.12734 0.0
C923 C 0.3893 0.63131 0.18232 0.0
C924 C 0.38239 0.61595 0.16483 0.0
C925 C 0.40524 0.64587 0.17587 0.0
C926 C 0.4498 0.65501 0.13216 0.0
H927 H 0.50785 0.74579 0.16034 0.0
H928 H 0.47675 0.723 0.16495 0.0
H929 H 0.48017 0.66442 0.11757 0.0
H930 H 0.38729 0.60337 0.12718 0.0
H931 H 0.41519 0.62884 0.11588 0.0
H932 H 0.41401 0.68823 0.16034 0.0
C933 C 0.48594 0.72197 0.14769 0.0
C934 C 0.46564 0.66993 0.12648 0.0
C935 C 0.50387 0.735 0.1451 0.0
C936 C 0.39218 0.61512 0.14098 0.0
C937 C 0.40823 0.62961 0.13457 0.0
C938 C 0.42841 0.68287 0.15101 0.0
C939 C 0.48074 0.70696 0.12897 0.0
C940 C 0.46313 0.69147 0.13318 0.0
C941 C 0.41471 0.64533 0.15184 0.0
C942 C 0.43115 0.66128 0.1448 0.0
H943 H 0.52106 0.71737 0.0877 0.0
H944 H 0.48951 0.69491 0.09203 0.0
H945 H 0.44158 0.71432 0.15027 0.0
H946 H 0.38194 0.63255 0.20072 0.0
H947 H 0.41011 0.65763 0.18969 0.0
C948 C 0.32201 0.5007 0.17655 0.0
C949 C 0.32495 0.51601 0.15753 0.0
C950 C 0.3309 0.48047 0.17426 0.0
C951 C 0.37406 0.45112 0.14313 0.0
H952 H 0.34238 0.40213 0.16741 0.0
C953 C 0.40594 0.36392 0.14097 0.0
C954 C 0.4027 0.35221 0.16329 0.0
C955 C 0.39664 0.38401 0.1379 0.0
C956 C 0.35146 0.41568 0.16067 0.0
H957 H 0.33937 0.52204 0.121 0.0
H958 H 0.35491 0.48641 0.11693 0.0
H959 H 0.32503 0.43678 0.1653 0.0
H960 H 0.38729 0.35254 0.19995 0.0
H961 H 0.37133 0.38755 0.19473 0.0
H962 H 0.40058 0.42986 0.13873 0.0
C963 C 0.34581 0.49023 0.13371 0.0
C964 C 0.34153 0.43552 0.15945 0.0
C965 C 0.33684 0.51057 0.13598 0.0
C966 C 0.39033 0.36119 0.18265 0.0
C967 C 0.38094 0.38114 0.17953 0.0
C968 C 0.384 0.43119 0.14424 0.0
C969 C 0.34295 0.47499 0.15288 0.0
C970 C 0.35286 0.45357 0.15125 0.0
C971 C 0.38376 0.39264 0.15702 0.0
C972 C 0.37291 0.4134 0.1536 0.0
H973 H 0.31299 0.50437 0.19343 0.0
H974 H 0.3287 0.46924 0.18958 0.0
H975 H 0.38326 0.46476 0.13688 0.0
H976 H 0.41554 0.35748 0.12581 0.0
H977 H 0.39906 0.39254 0.12035 0.0
C978 C 0.48902 0.29425 0.12184 0.0
C979 C 0.48357 0.28317 0.14398 0.0
C980 C 0.50807 0.3058 0.12051 0.0
C981 C 0.55956 0.31554 0.15421 0.0
H982 H 0.55375 0.3723 0.12605 0.0
C983 C 0.6125 0.38608 0.18355 0.0
C984 C 0.62072 0.39913 0.16433 0.0
C985 C 0.59758 0.37026 0.17794 0.0
C986 C 0.55571 0.3564 0.13366 0.0
H987 H 0.49431 0.27462 0.18159 0.0
H988 H 0.52707 0.29508 0.17955 0.0
H989 H 0.52477 0.34675 0.1212 0.0
H990 H 0.6197 0.40603 0.12427 0.0
H991 H 0.5932 0.37851 0.11449 0.0
H992 H 0.59012 0.32572 0.16775 0.0
C993 C 0.51694 0.29465 0.16299 0.0
C994 C 0.53916 0.34168 0.13079 0.0
C995 C 0.49802 0.28298 0.16424 0.0
C996 C 0.61365 0.39612 0.1394 0.0
C997 C 0.59848 0.38048 0.13383 0.0
C998 C 0.57598 0.33034 0.15732 0.0
C999 C 0.52197 0.30662 0.14135 0.0
C1000 C 0.54068 0.32121 0.1415 0.0
C1001 C 0.5904 0.36735 0.15306 0.0
C1002 C 0.57402 0.35103 0.14751 0.0
H1003 H 0.47829 0.29456 0.10582 0.0
H1004 H 0.51164 0.3145 0.10336 0.0
H1005 H 0.56148 0.29978 0.16223 0.0
H1006 H 0.61787 0.38785 0.20285 0.0
H1007 H 0.59142 0.36049 0.19315 0.0
C1008 C 0.17925 0.10725 0.43078 0.0
C1009 C 0.20086 0.11126 0.42543 0.0
C1010 C 0.1686 0.11905 0.44932 0.0
C1011 C 0.1696 0.17105 0.47958 0.0
H1012 H 0.13666 0.14501 0.53329 0.0
C1013 C 0.13841 0.22044 0.56313 0.0
C1014 C 0.11868 0.21501 0.57387 0.0
C1015 C 0.1477 0.20742 0.54482 0.0
C1016 C 0.14547 0.15259 0.51818 0.0
H1017 H 0.2283 0.13052 0.43573 0.0
H1018 H 0.20962 0.1512 0.4677 0.0
H1019 H 0.15402 0.12251 0.50178 0.0
H1020 H 0.093 0.19184 0.57354 0.0
H1021 H 0.10883 0.16949 0.54095 0.0
H1022 H 0.1608 0.20109 0.49531 0.0
C1023 C 0.20097 0.13895 0.45756 0.0
C1024 C 0.15549 0.13966 0.50023 0.0
C1025 C 0.21167 0.127 0.43934 0.0
C1026 C 0.10829 0.1964 0.5657 0.0
C1027 C 0.11746 0.1835 0.54712 0.0
C1028 C 0.15937 0.18398 0.49725 0.0
C1029 C 0.1793 0.13525 0.46254 0.0
C1030 C 0.16786 0.14879 0.48098 0.0
C1031 C 0.13734 0.18879 0.53651 0.0
C1032 C 0.14739 0.17494 0.51701 0.0
H1033 H 0.17048 0.09522 0.4204 0.0
H1034 H 0.15186 0.11594 0.45279 0.0
H1035 H 0.17879 0.17849 0.46466 0.0
H1036 H 0.14692 0.23457 0.5692 0.0
H1037 H 0.16321 0.21183 0.53753 0.0
C1038 C 0.86085 0.19599 0.43871 0.0
C1039 C 0.87873 0.19036 0.4242 0.0
C1040 C 0.85248 0.18175 0.45638 0.0
C1041 C 0.8644 0.13987 0.49952 0.0
H1042 H 0.80629 0.12042 0.48947 0.0
C1043 C 0.82482 0.08244 0.57049 0.0
C1044 C 0.80327 0.08623 0.57619 0.0
C1045 C 0.83451 0.09258 0.54995 0.0
C1046 C 0.82243 0.12586 0.49282 0.0
H1047 H 0.90227 0.16573 0.41733 0.0
H1048 H 0.888 0.14111 0.44912 0.0
H1049 H 0.82262 0.1443 0.45872 0.0
H1050 H 0.77485 0.10323 0.5644 0.0
H1051 H 0.79177 0.12144 0.52943 0.0
H1052 H 0.86403 0.12261 0.53428 0.0
C1053 C 0.88037 0.15642 0.4464 0.0
C1054 C 0.83178 0.13942 0.47508 0.0
C1055 C 0.88848 0.17048 0.42828 0.0
C1056 C 0.79144 0.09979 0.56043 0.0
C1057 C 0.80119 0.1102 0.54019 0.0
C1058 C 0.85491 0.12667 0.5176 0.0
C1059 C 0.86211 0.16184 0.46026 0.0
C1060 C 0.85275 0.14666 0.47842 0.0
C1061 C 0.82296 0.10703 0.53488 0.0
C1062 C 0.83369 0.11966 0.51465 0.0
H1063 H 0.8529 0.21112 0.43584 0.0
H1064 H 0.83842 0.18623 0.467 0.0
H1065 H 0.88059 0.14538 0.50246 0.0
H1066 H 0.83433 0.07197 0.58223 0.0
H1067 H 0.85115 0.08931 0.54618 0.0
C1068 C 0.89326 0.80812 0.58776 0.0
C1069 C 0.91085 0.79564 0.5808 0.0
C1070 C 0.88173 0.81937 0.56965 0.0
C1071 C 0.85093 0.82891 0.52817 0.0
H1072 H 0.87527 0.85205 0.46676 0.0
C1073 C 0.79725 0.85473 0.44625 0.0
C1074 C 0.80307 0.87251 0.4317 0.0
C1075 C 0.81128 0.84627 0.46404 0.0
C1076 C 0.86823 0.84593 0.48396 0.0
H1077 H 0.93046 0.78537 0.54946 0.0
H1078 H 0.90964 0.80424 0.51739 0.0
H1079 H 0.89867 0.83677 0.49881 0.0
H1080 H 0.82823 0.89541 0.42443 0.0
H1081 H 0.85254 0.88112 0.45632 0.0
H1082 H 0.82068 0.83877 0.51405 0.0
C1083 C 0.90511 0.80589 0.53701 0.0
C1084 C 0.88164 0.83686 0.5022 0.0
C1085 C 0.91701 0.79498 0.55534 0.0
C1086 C 0.82328 0.8817 0.4354 0.0
C1087 C 0.83727 0.87339 0.45353 0.0
C1088 C 0.83762 0.83821 0.5102 0.0
C1089 C 0.88707 0.81795 0.54392 0.0
C1090 C 0.87314 0.82813 0.52452 0.0
C1091 C 0.83142 0.85556 0.46813 0.0
C1092 C 0.846 0.84662 0.48769 0.0
H1093 H 0.88823 0.8091 0.60727 0.0
H1094 H 0.86841 0.82898 0.57591 0.0
H1095 H 0.84363 0.82203 0.5448 0.0
H1096 H 0.78194 0.84704 0.44363 0.0
H1097 H 0.80637 0.83221 0.47436 0.0
C1098 C 0.11718 0.78916 0.44037 0.0
C1099 C 0.09921 0.79357 0.42547 0.0
C1100 C 0.12407 0.80369 0.45861 0.0
C1101 C 0.13158 0.83173 0.50372 0.0
H1102 H 0.12224 0.89207 0.49298 0.0
C1103 C 0.15546 0.89225 0.57991 0.0
C1104 C 0.16225 0.91268 0.57268 0.0
C1105 C 0.14662 0.87828 0.56231 0.0
C1106 C 0.12531 0.87532 0.49619 0.0
H1107 H 0.0739 0.81628 0.41849 0.0
H1108 H 0.08503 0.84105 0.4514 0.0
H1109 H 0.10973 0.86669 0.4618 0.0
H1110 H 0.16533 0.93441 0.54114 0.0
H1111 H 0.15114 0.90958 0.50992 0.0
H1112 H 0.14856 0.84031 0.53702 0.0
C1113 C 0.09443 0.82682 0.44841 0.0
C1114 C 0.1177 0.86063 0.47845 0.0
C1115 C 0.08784 0.81249 0.42973 0.0
C1116 C 0.16008 0.91882 0.54732 0.0
C1117 C 0.15177 0.90457 0.52945 0.0
C1118 C 0.13964 0.84641 0.52108 0.0
C1119 C 0.11287 0.82281 0.46289 0.0
C1120 C 0.12066 0.83858 0.48197 0.0
C1121 C 0.14495 0.88402 0.53669 0.0
C1122 C 0.13652 0.86845 0.51774 0.0
H1123 H 0.1265 0.77488 0.43722 0.0
H1124 H 0.1386 0.80011 0.46878 0.0
H1125 H 0.13393 0.81496 0.50753 0.0
H1126 H 0.15684 0.88698 0.59928 0.0
H1127 H 0.14104 0.86297 0.56898 0.0
C1128 C 0.66641 0.60045 0.91408 0.0
C1129 C 0.68784 0.59633 0.9203 0.0
C1130 C 0.65397 0.61368 0.92931 0.0
C1131 C 0.64902 0.63617 0.99284 0.0
H1132 H 0.62253 0.68448 0.95953 0.0
C1133 C 0.61954 0.72401 0.0231 0.0
C1134 C 0.60602 0.71935 0.04354 0.0
C1135 C 0.62632 0.70785 0.00685 0.0
C1136 C 0.62973 0.67098 0.96902 0.0
H1137 H 0.7126 0.60193 0.94818 0.0
H1138 H 0.69067 0.62469 0.97502 0.0
H1139 H 0.64062 0.65727 0.9343 0.0
H1140 H 0.58812 0.6942 0.06202 0.0
H1141 H 0.60052 0.66591 0.0341 0.0
H1142 H 0.63839 0.65004 0.02757 0.0
C1143 C 0.68364 0.61783 0.95818 0.0
C1144 C 0.63994 0.65538 0.95462 0.0
C1145 C 0.6962 0.60488 0.94275 0.0
C1146 C 0.59875 0.69832 0.04673 0.0
C1147 C 0.60583 0.6821 0.03075 0.0
C1148 C 0.63851 0.65159 0.0072 0.0
C1149 C 0.66255 0.6227 0.95133 0.0
C1150 C 0.65001 0.63805 0.96645 0.0
C1151 C 0.61994 0.68668 0.01091 0.0
C1152 C 0.62911 0.66933 0.99545 0.0
H1153 H 0.65935 0.59392 0.89713 0.0
H1154 H 0.63767 0.61703 0.92376 0.0
H1155 H 0.65659 0.6229 0.00237 0.0
H1156 H 0.62532 0.74006 0.01998 0.0
H1157 H 0.63728 0.71179 0.99174 0.0
C1158 C 0.38854 0.67572 0.91558 0.0
C1159 C 0.37554 0.69198 0.90573 0.0
C1160 C 0.38124 0.66284 0.93533 0.0
C1161 C 0.33233 0.6452 0.968 0.0
H1162 H 0.36915 0.63879 0.02637 0.0
C1163 C 0.29966 0.62325 0.06561 0.0
C1164 C 0.31168 0.60987 0.08141 0.0
C1165 C 0.308 0.63042 0.04274 0.0
C1166 C 0.3588 0.64007 0.01007 0.0
H1167 H 0.34447 0.70702 0.90832 0.0
H1168 H 0.33178 0.68457 0.94265 0.0
H1169 H 0.38274 0.65619 0.98844 0.0
H1170 H 0.34183 0.59325 0.0854 0.0
H1171 H 0.35639 0.60573 0.04522 0.0
H1172 H 0.3083 0.62939 0.98966 0.0
C1173 C 0.34757 0.68172 0.93509 0.0
C1174 C 0.36658 0.65006 0.98835 0.0
C1175 C 0.35491 0.69469 0.91553 0.0
C1176 C 0.33219 0.60362 0.07368 0.0
C1177 C 0.34056 0.61082 0.05072 0.0
C1178 C 0.32459 0.63514 0.98964 0.0
C1179 C 0.36073 0.66582 0.94539 0.0
C1180 C 0.35327 0.65314 0.9673 0.0
C1181 C 0.32857 0.62437 0.03504 0.0
C1182 C 0.33757 0.6329 0.01114 0.0
H1183 H 0.4045 0.67318 0.90838 0.0
H1184 H 0.39165 0.65059 0.94277 0.0
H1185 H 0.32183 0.64704 0.9519 0.0
H1186 H 0.28382 0.6284 0.07098 0.0
H1187 H 0.29847 0.64114 0.03136 0.0
C1188 C 0.33152 0.40543 0.93258 0.0
C1189 C 0.30918 0.4036 0.93161 0.0
C1190 C 0.34306 0.39588 0.95217 0.0
C1191 C 0.33641 0.36887 0.01475 0.0
H1192 H 0.38732 0.33817 0.99462 0.0
C1193 C 0.3666 0.29355 0.06433 0.0
C1194 C 0.38746 0.29441 0.07396 0.0
C1195 C 0.35917 0.30943 0.04815 0.0
C1196 C 0.37329 0.3469 0.00053 0.0
H1197 H 0.2814 0.39118 0.95111 0.0
H1198 H 0.30134 0.37417 0.98459 0.0
H1199 H 0.3702 0.36248 0.96481 0.0
H1200 H 0.41713 0.31221 0.07362 0.0
H1201 H 0.40422 0.33971 0.04434 0.0
H1202 H 0.33884 0.35209 0.04988 0.0
C1203 C 0.31009 0.38326 0.97065 0.0
C1204 C 0.36352 0.36093 0.98356 0.0
C1205 C 0.29858 0.39294 0.95125 0.0
C1206 C 0.40098 0.31115 0.06644 0.0
C1207 C 0.39365 0.32684 0.04977 0.0
C1208 C 0.34595 0.35458 0.03147 0.0
C1209 C 0.33251 0.38421 0.97112 0.0
C1210 C 0.34463 0.37171 0.99025 0.0
C1211 C 0.37257 0.32625 0.04089 0.0
C1212 C 0.36418 0.34317 0.02429 0.0
H1213 H 0.34016 0.41373 0.91786 0.0
H1214 H 0.36027 0.39729 0.95216 0.0
H1215 H 0.32225 0.37728 0.02084 0.0
H1216 H 0.35574 0.28097 0.0699 0.0
H1217 H 0.3429 0.30862 0.04132 0.0
C1218 C 0.6447 0.29298 0.95545 0.0
C1219 C 0.62364 0.29302 0.94635 0.0
C1220 C 0.65213 0.3096 0.97059 0.0
C1221 C 0.63512 0.35036 0.01495 0.0
H1222 H 0.69029 0.37561 0.00067 0.0
C1223 C 0.67073 0.41542 0.07943 0.0
C1224 C 0.69252 0.4133 0.0852 0.0
C1225 C 0.66153 0.40337 0.06005 0.0
C1226 C 0.67494 0.36863 0.00507 0.0
H1227 H 0.59378 0.31046 0.94621 0.0
H1228 H 0.60674 0.33938 0.97323 0.0
H1229 H 0.67556 0.34898 0.97202 0.0
H1230 H 0.72187 0.39743 0.0745 0.0
H1231 H 0.70585 0.37619 0.04124 0.0
H1232 H 0.6348 0.36924 0.04854 0.0
C1233 C 0.61746 0.32648 0.96844 0.0
C1234 C 0.66649 0.35344 0.98859 0.0
C1235 C 0.61008 0.30996 0.95297 0.0
C1236 C 0.70506 0.39951 0.07053 0.0
C1237 C 0.69585 0.38738 0.0513 0.0
C1238 C 0.64367 0.36539 0.03162 0.0
C1239 C 0.63861 0.32652 0.97722 0.0
C1240 C 0.64666 0.34392 0.99358 0.0
C1241 C 0.67389 0.38887 0.04607 0.0
C1242 C 0.66387 0.37447 0.02711 0.0
H1243 H 0.6556 0.28024 0.95063 0.0
H1244 H 0.66843 0.30911 0.97735 0.0
H1245 H 0.61986 0.34315 0.01932 0.0
H1246 H 0.66065 0.42604 0.09024 0.0
H1247 H 0.64466 0.40525 0.05626 0.0
C1248 C 0.2161 0.1735 0.29137 0.0
C1249 C 0.2262 0.15353 0.28902 0.0
C1250 C 0.22101 0.19012 0.2747 0.0
C1251 C 0.24277 0.20128 0.2123 0.0
H1252 H 0.27682 0.24605 0.24265 0.0
C1253 C 0.32009 0.22899 0.17069 0.0
C1254 C 0.32774 0.24972 0.17453 0.0
C1255 C 0.30032 0.22294 0.18018 0.0
C1256 C 0.26679 0.23419 0.23371 0.0
H1257 H 0.24967 0.13573 0.26739 0.0
H1258 H 0.25731 0.16421 0.23796 0.0
H1259 H 0.25385 0.22413 0.26921 0.0
H1260 H 0.32037 0.28078 0.19014 0.0
H1261 H 0.2856 0.27007 0.20708 0.0
H1262 H 0.25673 0.2103 0.17707 0.0
C1263 C 0.24549 0.1669 0.25255 0.0
C1264 C 0.25365 0.22165 0.24897 0.0
C1265 C 0.24103 0.15056 0.26944 0.0
C1266 C 0.31478 0.26467 0.18695 0.0
C1267 C 0.29496 0.25855 0.19667 0.0
C1268 C 0.25571 0.21393 0.19703 0.0
C1269 C 0.23564 0.18681 0.2551 0.0
C1270 C 0.24267 0.20428 0.23854 0.0
C1271 C 0.28776 0.23748 0.19383 0.0
C1272 C 0.26896 0.22951 0.20787 0.0
H1273 H 0.20439 0.17633 0.30599 0.0
H1274 H 0.21343 0.20549 0.27708 0.0
H1275 H 0.23426 0.18802 0.20392 0.0
H1276 H 0.32969 0.21726 0.16089 0.0
H1277 H 0.29544 0.20648 0.17802 0.0
C1278 C 0.73384 0.34575 0.19999 0.0
C1279 C 0.72219 0.36208 0.21171 0.0
C1280 C 0.74045 0.32801 0.2138 0.0
C1281 C 0.75416 0.31305 0.27828 0.0
H1282 H 0.75919 0.25662 0.24908 0.0
C1283 C 0.8037 0.24889 0.32757 0.0
C1284 C 0.81908 0.23984 0.31158 0.0
C1285 C 0.78638 0.25997 0.31742 0.0
C1286 C 0.75779 0.27227 0.25753 0.0
H1287 H 0.70733 0.37213 0.2467 0.0
H1288 H 0.71903 0.34115 0.2709 0.0
H1289 H 0.73869 0.284 0.22702 0.0
H1290 H 0.82752 0.23363 0.27259 0.0
H1291 H 0.79763 0.25329 0.25488 0.0
H1292 H 0.77402 0.30175 0.30816 0.0
C1293 C 0.72328 0.34223 0.25112 0.0
C1294 C 0.7461 0.28793 0.24491 0.0
C1295 C 0.71668 0.35999 0.23731 0.0
C1296 C 0.81607 0.24079 0.28533 0.0
C1297 C 0.79878 0.25181 0.27521 0.0
C1298 C 0.76584 0.29743 0.29088 0.0
C1299 C 0.73552 0.32622 0.2396 0.0
C1300 C 0.74476 0.30867 0.25477 0.0
C1301 C 0.78413 0.2621 0.29113 0.0
C1302 C 0.76836 0.27708 0.28023 0.0
H1303 H 0.73847 0.34701 0.18035 0.0
H1304 H 0.75018 0.31613 0.20448 0.0
H1305 H 0.75362 0.32893 0.28625 0.0
H1306 H 0.80563 0.2484 0.34788 0.0
H1307 H 0.77519 0.26755 0.33014 0.0
C1308 C 0.77331 0.81059 0.29847 0.0
C1309 C 0.75728 0.82013 0.31309 0.0
C1310 C 0.76792 0.79577 0.27983 0.0
C1311 C 0.74691 0.78573 0.22915 0.0
H1312 H 0.69945 0.74633 0.23382 0.0
C1313 C 0.67749 0.7421 0.16479 0.0
C1314 C 0.67002 0.76045 0.15234 0.0
C1315 C 0.69441 0.74343 0.18183 0.0
C1316 C 0.71307 0.75686 0.23208 0.0
H1317 H 0.72353 0.82066 0.32145 0.0
H1318 H 0.71406 0.7946 0.28925 0.0
H1319 H 0.71786 0.75749 0.27209 0.0
H1320 H 0.67545 0.79418 0.14647 0.0
H1321 H 0.70477 0.79661 0.17658 0.0
H1322 H 0.74127 0.7861 0.18927 0.0
C1323 C 0.73075 0.79843 0.29203 0.0
C1324 C 0.7235 0.76332 0.25404 0.0
C1325 C 0.73609 0.81343 0.31034 0.0
C1326 C 0.68074 0.77985 0.156 0.0
C1327 C 0.69769 0.78116 0.17301 0.0
C1328 C 0.73641 0.77933 0.20718 0.0
C1329 C 0.74648 0.79012 0.27591 0.0
C1330 C 0.73982 0.77861 0.25287 0.0
C1331 C 0.7042 0.76311 0.18675 0.0
C1332 C 0.71874 0.76563 0.20859 0.0
H1333 H 0.78975 0.8157 0.30024 0.0
H1334 H 0.78032 0.78955 0.26766 0.0
H1335 H 0.75939 0.79762 0.22769 0.0
H1336 H 0.66945 0.72694 0.16258 0.0
H1337 H 0.69919 0.72925 0.19203 0.0
C1338 C 0.17996 0.73276 0.32542 0.0
C1339 C 0.17271 0.75382 0.3241 0.0
C1340 C 0.19904 0.72703 0.3138 0.0
C1341 C 0.24322 0.72014 0.29156 0.0
H1342 H 0.23615 0.7308 0.21988 0.0
C1343 C 0.25356 0.668 0.20014 0.0
C1344 C 0.27497 0.66173 0.20097 0.0
C1345 C 0.24664 0.6853 0.21441 0.0
C1346 C 0.23864 0.7281 0.23987 0.0
H1347 H 0.17971 0.78568 0.31087 0.0
H1348 H 0.21303 0.77549 0.28968 0.0
H1349 H 0.21473 0.7507 0.25029 0.0
H1350 H 0.30615 0.66854 0.21663 0.0
H1351 H 0.29379 0.69859 0.24254 0.0
H1352 H 0.26616 0.69653 0.28096 0.0
C1353 C 0.20417 0.76356 0.3001 0.0
C1354 C 0.22652 0.73954 0.25727 0.0
C1355 C 0.18523 0.76936 0.31216 0.0
C1356 C 0.28956 0.67331 0.21569 0.0
C1357 C 0.28254 0.69038 0.23043 0.0
C1358 C 0.25558 0.70891 0.27417 0.0
C1359 C 0.2109 0.74222 0.30026 0.0
C1360 C 0.22795 0.73487 0.28316 0.0
C1361 C 0.26096 0.69631 0.23011 0.0
C1362 C 0.25258 0.71208 0.24816 0.0
H1363 H 0.17038 0.72058 0.33448 0.0
H1364 H 0.2037 0.71041 0.31387 0.0
H1365 H 0.2446 0.71633 0.31145 0.0
H1366 H 0.24211 0.65918 0.1889 0.0
H1367 H 0.22985 0.68938 0.21417 0.0
C1368 C 0.32544 0.74769 0.78797 0.0
C1369 C 0.34704 0.74734 0.78112 0.0
C1370 C 0.31009 0.75486 0.77086 0.0
C1371 C 0.27902 0.76414 0.72841 0.0
H1372 H 0.29563 0.81454 0.69092 0.0
C1373 C 0.22183 0.82938 0.69271 0.0
C1374 C 0.22708 0.84004 0.67021 0.0
C1375 C 0.23478 0.81297 0.70174 0.0
C1376 C 0.29082 0.8002 0.70079 0.0
H1377 H 0.36956 0.75278 0.75082 0.0
H1378 H 0.34275 0.76475 0.72063 0.0
H1379 H 0.32204 0.79576 0.7157 0.0
H1380 H 0.24909 0.84076 0.63857 0.0
H1381 H 0.27139 0.81193 0.65414 0.0
H1382 H 0.24738 0.76957 0.71437 0.0
C1383 C 0.33765 0.7602 0.73941 0.0
C1384 C 0.30599 0.78939 0.71503 0.0
C1385 C 0.353 0.75336 0.75663 0.0
C1386 C 0.24452 0.83283 0.65591 0.0
C1387 C 0.25742 0.81644 0.66492 0.0
C1388 C 0.26373 0.77514 0.71428 0.0
C1389 C 0.31608 0.76152 0.7465 0.0
C1390 C 0.30023 0.77144 0.72935 0.0
C1391 C 0.25319 0.80699 0.68841 0.0
C1392 C 0.26947 0.79346 0.70066 0.0
H1393 H 0.32054 0.7431 0.80681 0.0
H1394 H 0.29369 0.75595 0.77709 0.0
H1395 H 0.27414 0.75018 0.73894 0.0
H1396 H 0.20828 0.83438 0.70391 0.0
H1397 H 0.23118 0.806 0.71996 0.0
C1398 C 0.2704 0.3229 0.80332 0.0
C1399 C 0.26671 0.33058 0.82781 0.0
C1400 C 0.25944 0.30508 0.79449 0.0
C1401 C 0.20717 0.28271 0.80264 0.0
H1402 H 0.22613 0.24454 0.74969 0.0
C1403 C 0.14675 0.24481 0.73545 0.0
C1404 C 0.15209 0.24718 0.70985 0.0
C1405 C 0.16218 0.24765 0.75414 0.0
C1406 C 0.2206 0.25503 0.76454 0.0
H1407 H 0.25019 0.32469 0.86306 0.0
H1408 H 0.23089 0.29343 0.84756 0.0
H1409 H 0.25243 0.26223 0.77656 0.0
H1410 H 0.17778 0.25358 0.6836 0.0
H1411 H 0.20462 0.25921 0.71617 0.0
H1412 H 0.17552 0.27683 0.78969 0.0
C1413 C 0.24216 0.3013 0.83517 0.0
C1414 C 0.23564 0.26505 0.77997 0.0
C1415 C 0.25324 0.3191 0.84405 0.0
C1416 C 0.17328 0.25164 0.70322 0.0
C1417 C 0.18868 0.25466 0.7219 0.0
C1418 C 0.19217 0.27279 0.78719 0.0
C1419 C 0.24452 0.29466 0.80998 0.0
C1420 C 0.22907 0.27972 0.79842 0.0
C1421 C 0.18321 0.2531 0.7476 0.0
C1422 C 0.19877 0.25959 0.76724 0.0
H1423 H 0.28098 0.33131 0.79058 0.0
H1424 H 0.26149 0.3005 0.77493 0.0
H1425 H 0.20158 0.29411 0.81649 0.0
H1426 H 0.1306 0.24089 0.74102 0.0
H1427 H 0.15754 0.24603 0.77374 0.0
C1428 C 0.6698 0.24662 0.81192 0.0
C1429 C 0.66034 0.23114 0.82761 0.0
C1430 C 0.68404 0.24066 0.79296 0.0
C1431 C 0.69572 0.19667 0.75134 0.0
H1432 H 0.75319 0.21921 0.74598 0.0
C1433 C 0.77672 0.16182 0.71331 0.0
C1434 C 0.76985 0.15377 0.68996 0.0
C1435 C 0.76483 0.17739 0.7257 0.0
C1436 C 0.73707 0.21306 0.74706 0.0
H1437 H 0.65913 0.19734 0.83619 0.0
H1438 H 0.68351 0.18694 0.80252 0.0
H1439 H 0.72884 0.23343 0.77809 0.0
H1440 H 0.74643 0.15691 0.66009 0.0
H1441 H 0.72549 0.18411 0.6819 0.0
H1442 H 0.70394 0.17584 0.72105 0.0
C1443 C 0.67977 0.20366 0.80499 0.0
C1444 C 0.72321 0.22115 0.76535 0.0
C1445 C 0.6658 0.20962 0.82419 0.0
C1446 C 0.75203 0.16289 0.6781 0.0
C1447 C 0.74002 0.17834 0.6906 0.0
C1448 C 0.70941 0.18881 0.73289 0.0
C1449 C 0.68879 0.21911 0.78908 0.0
C1450 C 0.70268 0.21252 0.76808 0.0
C1451 C 0.7458 0.18498 0.715 0.0
C1452 C 0.7304 0.1965 0.73103 0.0
H1453 H 0.66568 0.2633 0.81364 0.0
H1454 H 0.69077 0.2528 0.78078 0.0
H1455 H 0.67985 0.18997 0.75297 0.0
H1456 H 0.79056 0.15515 0.72266 0.0
H1457 H 0.7696 0.18214 0.74454 0.0
C1458 C 0.70942 0.63926 0.76182 0.0
C1459 C 0.71986 0.63855 0.7853 0.0
C1460 C 0.71578 0.65383 0.74339 0.0
C1461 C 0.75087 0.70065 0.73167 0.0
H1462 H 0.76411 0.67107 0.66934 0.0
C1463 C 0.82376 0.69949 0.65949 0.0
C1464 C 0.82779 0.72142 0.65749 0.0
C1465 C 0.80436 0.69221 0.66907 0.0
C1466 C 0.76035 0.67964 0.68651 0.0
H1467 H 0.74411 0.65341 0.80857 0.0
H1468 H 0.75536 0.67869 0.77646 0.0
H1469 H 0.74065 0.65437 0.70012 0.0
H1470 H 0.81402 0.75292 0.66227 0.0
H1471 H 0.78001 0.74016 0.67833 0.0
H1472 H 0.77195 0.72511 0.71906 0.0
C1473 C 0.74208 0.66822 0.77229 0.0
C1474 C 0.7467 0.67019 0.70405 0.0
C1475 C 0.73569 0.65368 0.7907 0.0
C1476 C 0.81142 0.73589 0.66344 0.0
C1477 C 0.79198 0.72861 0.6729 0.0
C1478 C 0.76458 0.71006 0.71419 0.0
C1479 C 0.7327 0.66794 0.74814 0.0
C1480 C 0.74262 0.68018 0.72731 0.0
C1481 C 0.78856 0.70674 0.67674 0.0
C1482 C 0.77022 0.6992 0.69195 0.0
H1483 H 0.69685 0.62802 0.75737 0.0
H1484 H 0.70805 0.65348 0.72511 0.0
H1485 H 0.74772 0.70887 0.74926 0.0
H1486 H 0.83593 0.68795 0.65465 0.0
H1487 H 0.80234 0.67525 0.67196 0.0
C1488 C 0.28964 0.055 0.4221 0.0
C1489 C 0.27485 0.04582 0.40547 0.0
C1490 C 0.29659 0.04361 0.44332 0.0
C1491 C 0.29417 0.99028 0.47469 0.0
H1492 H 0.27951 0.02312 0.53417 0.0
C1493 C 0.27513 0.95003 0.57019 0.0
C1494 C 0.25564 0.95689 0.58047 0.0
C1495 C 0.28485 0.96151 0.55069 0.0
C1496 C 0.28388 0.01376 0.51779 0.0
H1497 H 0.25722 0.01728 0.39624 0.0
H1498 H 0.2693 0.99732 0.43288 0.0
H1499 H 0.28541 0.04133 0.4942 0.0
H1500 H 0.23156 0.98162 0.57914 0.0
H1501 H 0.2482 0.00138 0.54495 0.0
H1502 H 0.29094 0.96257 0.4979 0.0
C1503 C 0.27568 0.01316 0.42986 0.0
C1504 C 0.28755 0.02422 0.49494 0.0
C1505 C 0.26859 0.02459 0.40898 0.0
C1506 C 0.24637 0.97574 0.57135 0.0
C1507 C 0.25613 0.98725 0.55203 0.0
C1508 C 0.29049 0.97982 0.49756 0.0
C1509 C 0.28901 0.02283 0.44787 0.0
C1510 C 0.29165 0.01249 0.47287 0.0
C1511 C 0.27536 0.98017 0.5413 0.0
C1512 C 0.28424 0.9914 0.51901 0.0
H1513 H 0.29454 0.07142 0.41967 0.0
H1514 H 0.30695 0.05141 0.45682 0.0
H1515 H 0.29759 0.98086 0.45804 0.0
H1516 H 0.28259 0.93552 0.57681 0.0
H1517 H 0.29967 0.95568 0.54279 0.0
C1518 C 0.9683 0.25977 0.40071 0.0
C1519 C 0.94718 0.26662 0.40385 0.0
C1520 C 0.98423 0.26666 0.41715 0.0
C1521 C 0.99706 0.30472 0.46895 0.0
H1522 H 0.03255 0.25793 0.49164 0.0
C1523 C 0.0415 0.30117 0.56485 0.0
C1524 C 0.06024 0.28901 0.566 0.0
C1525 C 0.03052 0.30332 0.54198 0.0
C1526 C 0.02317 0.27136 0.4852 0.0
H1527 H 0.92624 0.28679 0.42579 0.0
H1528 H 0.95401 0.29845 0.4552 0.0
H1529 H 0.0078 0.25235 0.45731 0.0
H1530 H 0.08349 0.27152 0.54421 0.0
H1531 H 0.06484 0.27586 0.50406 0.0
H1532 H 0.01211 0.32345 0.49784 0.0
C1533 C 0.95837 0.28806 0.43972 0.0
C1534 C 0.0089 0.26814 0.46544 0.0
C1535 C 0.94244 0.28134 0.423 0.0
C1536 C 0.06893 0.28078 0.54367 0.0
C1537 C 0.05818 0.28317 0.52081 0.0
C1538 C 0.0114 0.30796 0.4889 0.0
C1539 C 0.97933 0.28032 0.43737 0.0
C1540 C 0.99554 0.28469 0.45717 0.0
C1541 C 0.03829 0.29348 0.51996 0.0
C1542 C 0.02449 0.29122 0.49734 0.0
H1543 H 0.9724 0.24878 0.38573 0.0
H1544 H 0.00031 0.26082 0.4144 0.0
H1545 H 0.98708 0.31784 0.46289 0.0
H1546 H 0.03448 0.30749 0.58195 0.0
H1547 H 0.01521 0.3113 0.54199 0.0
C1548 C 0.73783 0.9521 0.44174 0.0
C1549 C 0.7282 0.93248 0.4361 0.0
C1550 C 0.73251 0.96303 0.46375 0.0
C1551 C 0.71498 0.95345 0.52782 0.0
H1552 H 0.71235 0.01517 0.52982 0.0
C1553 C 0.71871 0.02931 0.60215 0.0
C1554 C 0.7374 0.02328 0.61492 0.0
C1555 C 0.71067 0.01666 0.5826 0.0
C1556 C 0.71256 -0.00209 0.52966 0.0
H1557 H 0.70512 0.90909 0.44869 0.0
H1558 H 0.69591 0.92818 0.48758 0.0
H1559 H 0.71075 0.99681 0.48933 0.0
H1560 H 0.76125 -0.0014 0.61889 0.0
H1561 H 0.74735 0.97656 0.58482 0.0
H1562 H 0.71776 0.95462 0.56812 0.0
C1563 C 0.70752 0.93508 0.47483 0.0
C1564 C 0.71186 0.98743 0.50645 0.0
C1565 C 0.7127 0.92424 0.45258 0.0
C1566 C 0.74697 0.00369 0.6091 0.0
C1567 C 0.73885 0.99098 0.58977 0.0
C1568 C 0.71579 0.96395 0.55107 0.0
C1569 C 0.71753 0.9545 0.4807 0.0
C1570 C 0.71388 0.96517 0.50525 0.0
C1571 C 0.72105 -0.00232 0.57574 0.0
C1572 C 0.71539 0.98633 0.55213 0.0
H1573 H 0.74963 0.95892 0.42919 0.0
H1574 H 0.7407 0.97781 0.46792 0.0
H1575 H 0.71662 0.93628 0.52746 0.0
H1576 H 0.71109 0.04438 0.60624 0.0
H1577 H 0.69684 0.02213 0.57219 0.0
C1578 C 0.95313 0.68897 0.57227 0.0
C1579 C 0.94234 0.70834 0.57606 0.0
C1580 C 0.96057 0.68341 0.5483 0.0
C1581 C 0.95959 0.69906 0.48038 0.0
H1582 H 0.02032 0.68786 0.48409 0.0
C1583 C 0.01911 0.73008 0.40771 0.0
C1584 C 0.03761 0.71837 0.40221 0.0
C1585 C 0.00452 0.72266 0.42551 0.0
C1586 C 0.00329 0.69044 0.48253 0.0
H1587 H 0.92959 0.73629 0.55716 0.0
H1588 H 0.94248 0.72665 0.51567 0.0
H1589 H -0.00126 0.68506 0.52195 0.0
H1590 H 0.05486 0.68924 0.4103 0.0
H1591 H 0.02925 0.67616 0.44142 0.0
H1592 H 0.96448 0.70556 0.44112 0.0
C1593 C 0.94506 0.71561 0.53109 0.0
C1594 C 0.99088 0.6888 0.50429 0.0
C1595 C 0.93767 0.72117 0.55501 0.0
C1596 C 0.04075 0.69861 0.41413 0.0
C1597 C 0.02615 0.69118 0.43203 0.0
C1598 C 0.97202 0.70069 0.45859 0.0
C1599 C 0.9573 0.69709 0.52765 0.0
C1600 C 0.96907 0.69395 0.50366 0.0
C1601 C 0.00808 0.70334 0.43824 0.0
C1602 C 0.99416 0.69725 0.45969 0.0
H1603 H 0.95657 0.67853 0.58801 0.0
H1604 H 0.96967 0.66886 0.54613 0.0
H1605 H 0.94275 0.70277 0.47925 0.0
H1606 H 0.01602 0.74515 0.39848 0.0
H1607 H 0.99091 0.73255 0.43006 0.0
C1608 C 0.78208 0.55392 0.92585 0.0
C1609 C 0.76893 0.54078 0.91106 0.0
C1610 C 0.78853 0.54731 0.94991 0.0
C1611 C 0.7895 0.50086 0.99375 0.0
H1612 H 0.77158 0.5421 0.04393 0.0
C1613 C 0.77589 0.47643 0.09723 0.0
C1614 C 0.75557 0.48227 0.10604 0.0
C1615 C 0.7843 0.48579 0.07543 0.0
C1616 C 0.77687 0.53047 0.03018 0.0
H1617 H 0.75374 0.50992 0.90862 0.0
H1618 H 0.76498 0.49826 0.9504 0.0
H1619 H 0.77554 0.55311 5e-05 0.0
H1620 H 0.72878 0.50342 0.09996 0.0
H1621 H 0.74326 0.51959 0.06186 0.0
H1622 H 0.78938 0.47789 0.02357 0.0
C1623 C 0.77038 0.51363 0.94364 0.0
C1624 C 0.77938 0.53683 0.00508 0.0
C1625 C 0.76379 0.52033 0.9198 0.0
C1626 C 0.74434 0.49842 0.09341 0.0
C1627 C 0.75279 0.50786 0.07177 0.0
C1628 C 0.78704 0.49452 0.01886 0.0
C1629 C 0.78213 0.52735 0.95936 0.0
C1630 C 0.78481 0.52187 0.98642 0.0
C1631 C 0.77263 0.5013 0.06219 0.0
C1632 C 0.7798 0.50906 0.03712 0.0
H1633 H 0.78613 0.56983 0.91952 0.0
H1634 H 0.79769 0.55815 0.96157 0.0
H1635 H 0.79395 0.48905 0.97981 0.0
H1636 H 0.78486 0.46396 0.10652 0.0
H1637 H 0.79968 0.4805 0.06856 0.0
C1638 C 0.47171 0.78631 0.87704 0.0
C1639 C 0.45156 0.78885 0.88828 0.0
C1640 C 0.48945 0.797 0.88678 0.0
C1641 C 0.50728 0.83358 0.93882 0.0
H1642 H 0.54453 0.78601 0.95385 0.0
C1643 C 0.54282 0.81856 0.03633 0.0
C1644 C 0.56088 0.80557 0.03883 0.0
C1645 C 0.53509 0.82385 0.01238 0.0
C1646 C 0.53486 0.79982 0.94953 0.0
H1647 H 0.4336 0.8072 0.91555 0.0
H1648 H 0.46448 0.82517 0.93321 0.0
H1649 H 0.52031 0.78361 0.91878 0.0
H1650 H 0.58633 0.78973 0.01873 0.0
H1651 H 0.57337 0.79953 0.97682 0.0
H1652 H 0.52118 0.8492 0.97082 0.0
C1653 C 0.46678 0.815 0.91692 0.0
C1654 C 0.52086 0.79844 0.92919 0.0
C1655 C 0.44905 0.80448 0.90702 0.0
C1656 C 0.57212 0.79943 0.01713 0.0
C1657 C 0.56465 0.80504 0.99321 0.0
C1658 C 0.52142 0.835 0.95922 0.0
C1659 C 0.48737 0.81022 0.90807 0.0
C1660 C 0.50612 0.81482 0.92436 0.0
C1661 C 0.54549 0.81647 0.9905 0.0
C1662 C 0.5346 0.81766 0.96556 0.0
H1663 H 0.47428 0.7746 0.86238 0.0
H1664 H 0.50504 0.79343 0.87909 0.0
H1665 H 0.49638 0.84663 0.93532 0.0
H1666 H 0.53387 0.82342 0.05282 0.0
H1667 H 0.52016 0.83244 0.01113 0.0
C1668 C 0.25046 0.56081 0.06866 0.0
C1669 C 0.24639 0.54888 0.09054 0.0
C1670 C 0.24469 0.553 0.04503 0.0
C1671 C 0.21465 0.51143 0.01041 0.0
H1672 H 0.2634 0.51432 0.96555 0.0
C1673 C 0.22731 0.4559 0.92438 0.0
C1674 C 0.2397 0.46352 0.90425 0.0
C1675 C 0.22338 0.46885 0.94535 0.0
C1676 C 0.24938 0.51376 0.97745 0.0
H1677 H 0.2318 0.52018 0.10521 0.0
H1678 H 0.22197 0.50613 0.06354 0.0
H1679 H 0.26471 0.53237 0.00578 0.0
H1680 H 0.25602 0.49092 0.88889 0.0
H1681 H 0.24836 0.51399 0.92485 0.0
H1682 H 0.19951 0.49235 0.98196 0.0
C1683 C 0.22943 0.52167 0.06476 0.0
C1684 C 0.25018 0.52409 0.00065 0.0
C1685 C 0.23508 0.52963 0.08855 0.0
C1686 C 0.24661 0.48474 0.9044 0.0
C1687 C 0.24235 0.49781 0.92506 0.0
C1688 C 0.21377 0.50113 0.98695 0.0
C1689 C 0.23491 0.53296 0.04273 0.0
C1690 C 0.23292 0.52296 0.01748 0.0
C1691 C 0.23157 0.48972 0.94631 0.0
C1692 C 0.23124 0.50206 0.97028 0.0
H1693 H 0.25879 0.5759 0.06983 0.0
H1694 H 0.24869 0.56228 0.02844 0.0
H1695 H 0.20109 0.51035 0.02301 0.0
H1696 H 0.22201 0.43948 0.92467 0.0
H1697 H 0.21516 0.46203 0.9614 0.0
C1698 C 0.52353 0.20218 0.91425 0.0
C1699 C 0.54268 0.19726 0.92686 0.0
C1700 C 0.50409 0.1945 0.92336 0.0
C1701 C 0.47952 0.16357 0.97679 0.0
H1702 H 0.44957 0.21688 0.98676 0.0
C1703 C 0.44934 0.19122 0.07213 0.0
C1704 C 0.43301 0.20644 0.0738 0.0
C1705 C 0.45536 0.18299 0.04872 0.0
C1706 C 0.45714 0.20158 0.98385 0.0
H1707 H 0.5567 0.17737 0.95587 0.0
H1708 H 0.52296 0.16485 0.97249 0.0
H1709 H 0.47412 0.21351 0.95213 0.0
H1710 H 0.40875 0.22338 0.05273 0.0
H1711 H 0.41911 0.20886 0.01175 0.0
H1712 H 0.46345 0.15233 0.00992 0.0
C1713 C 0.52274 0.17461 0.95563 0.0
C1714 C 0.47133 0.19959 0.96377 0.0
C1715 C 0.54217 0.18206 0.94633 0.0
C1716 C 0.42173 0.21204 0.05186 0.0
C1717 C 0.42762 0.20366 0.02845 0.0
C1718 C 0.46527 0.16556 0.99697 0.0
C1719 C 0.50341 0.18202 0.94539 0.0
C1720 C 0.48366 0.18104 0.96089 0.0
C1721 C 0.44508 0.1897 0.02648 0.0
C1722 C 0.4549 0.18505 0.00155 0.0
H1723 H 0.52319 0.21353 0.8989 0.0
H1724 H 0.48949 0.19996 0.91453 0.0
H1725 H 0.4884 0.14888 0.97475 0.0
H1726 H 0.45839 0.18666 0.08866 0.0
H1727 H 0.46908 0.17254 0.04797 0.0
loop_
_geom_bond_atom_site_label_1
_geom_bond_atom_site_label_2
_geom_bond_distance
_geom_bond_site_symmetry_2
_ccdc_geom_bond_type
C0 C1 1.351 . S
C0 N3 1.368 . S
C0 H5 0.931 . S
C1 C0 1.351 . S
C1 N2 1.373 . S
C1 H29 0.930 . S
N2 C1 1.373 . S
N2 C4 1.340 . S
N3 C0 1.368 . S
N3 C4 1.321 . S
N3 Co6 2.135 . S
C4 N2 1.340 . S
C4 N3 1.321 . S
C4 H28 0.930 . S
H5 C0 0.931 . S
Co6 N3 2.135 . S
Co6 N9 2.121 . S
Co6 O14 2.055 . S
Co6 O17 2.039 . S
Co6 N20 2.140 . S
C7 O8 1.227 . S
C7 O17 1.265 . S
O8 C7 1.227 . S
N9 Co6 2.121 . S
N9 C11 1.375 . S
N9 C12 1.313 . S
C10 C11 1.338 . S
C10 N13 1.377 . S
C10 H30 0.930 . S
C11 N9 1.375 . S
C11 C10 1.338 . S
C11 H15 0.931 . S
C12 N9 1.313 . S
C12 N13 1.344 . S
C12 H16 0.930 . S
N13 C10 1.377 . S
N13 C12 1.344 . S
O14 Co6 2.055 . S
O14 C18 1.253 . S
H15 C11 0.931 . S
H16 C12 0.930 . S
O17 Co6 2.039 . S
O17 C7 1.265 . S
C18 O14 1.253 . S
C18 O19 1.227 . S
O19 C18 1.227 . S
N20 Co6 2.140 . S
N20 C23 1.346 . S
N20 C24 1.345 . S
C21 C22 1.387 . S
C21 C25 1.391 . S
C22 C21 1.387 . S
C22 C23 1.369 . S
C22 H31 0.929 . S
C23 N20 1.346 . S
C23 C22 1.369 . S
C23 H26 0.928 . S
C24 N20 1.345 . S
C24 C25 1.371 . S
C24 H27 0.931 . S
C25 C21 1.391 . S
C25 C24 1.371 . S
C25 H32 0.930 . S
H26 C23 0.928 . S
H27 C24 0.931 . S
H28 C4 0.930 . S
H29 C1 0.930 . S
H30 C10 0.930 . S
H31 C22 0.929 . S
H32 C25 0.930 . S
C33 C34 1.351 . S
C33 N36 1.368 . S
C33 H38 0.931 . S
C34 C33 1.351 . S
C34 N35 1.373 . S
C34 H62 0.930 . S
N35 C34 1.373 . S
N35 C37 1.340 . S
N36 C33 1.368 . S
N36 C37 1.321 . S
N36 Co39 2.135 . S
C37 N35 1.340 . S
C37 N36 1.321 . S
C37 H61 0.930 . S
H38 C33 0.931 . S
Co39 N36 2.135 . S
Co39 N42 2.121 . S
Co39 O47 2.055 . S
Co39 O50 2.039 . S
Co39 N53 2.140 . S
C40 O41 1.227 . S
C40 O50 1.265 . S
O41 C40 1.227 . S
N42 Co39 2.121 . S
N42 C44 1.375 . S
N42 C45 1.313 . S
C43 C44 1.338 . S
C43 N46 1.377 . S
C43 H63 0.930 . S
C44 N42 1.375 . S
C44 C43 1.338 . S
C44 H48 0.931 . S
C45 N42 1.313 . S
C45 N46 1.344 . S
C45 H49 0.930 . S
N46 C43 1.377 . S
N46 C45 1.344 . S
O47 Co39 2.055 . S
O47 C51 1.253 . S
H48 C44 0.931 . S
H49 C45 0.930 . S
O50 Co39 2.039 . S
O50 C40 1.265 . S
C51 O47 1.253 . S
C51 O52 1.227 . S
O52 C51 1.227 . S
N53 Co39 2.140 . S
N53 C56 1.346 . S
N53 C57 1.345 . S
C54 C55 1.387 . S
C54 C58 1.391 . S
C55 C54 1.387 . S
C55 C56 1.369 . S
C55 H64 0.929 . S
C56 N53 1.346 . S
C56 C55 1.369 . S
C56 H59 0.928 . S
C57 N53 1.345 . S
C57 C58 1.371 . S
C57 H60 0.931 . S
C58 C54 1.391 . S
C58 C57 1.371 . S
C58 H65 0.930 . S
H59 C56 0.928 . S
H60 C57 0.931 . S
H61 C37 0.930 . S
H62 C34 0.930 . S
H63 C43 0.930 . S
H64 C55 0.929 . S
H65 C58 0.930 . S
C66 C67 1.351 . S
C66 N69 1.368 . S
C66 H71 0.931 . S
C67 C66 1.351 . S
C67 N68 1.373 . S
C67 H95 0.930 . S
N68 C67 1.373 . S
N68 C70 1.340 . S
N69 C66 1.368 . S
N69 C70 1.321 . S
N69 Co72 2.135 . S
C70 N68 1.340 . S
C70 N69 1.321 . S
C70 H94 0.930 . S
H71 C66 0.931 . S
Co72 N69 2.135 . S
Co72 N75 2.121 . S
Co72 O80 2.055 . S
Co72 O83 2.039 . S
Co72 N86 2.140 . S
C73 O74 1.227 . S
C73 O83 1.265 . S
O74 C73 1.227 . S
N75 Co72 2.121 . S
N75 C77 1.375 . S
N75 C78 1.313 . S
C76 C77 1.338 . S
C76 N79 1.377 . S
C76 H96 0.930 . S
C77 N75 1.375 . S
C77 C76 1.338 . S
C77 H81 0.931 . S
C78 N75 1.313 . S
C78 N79 1.344 . S
C78 H82 0.930 . S
N79 C76 1.377 . S
N79 C78 1.344 . S
O80 Co72 2.055 . S
O80 C84 1.253 . S
H81 C77 0.931 . S
H82 C78 0.930 . S
O83 Co72 2.039 . S
O83 C73 1.265 . S
C84 O80 1.253 . S
C84 O85 1.227 . S
O85 C84 1.227 . S
N86 Co72 2.140 . S
N86 C89 1.346 . S
N86 C90 1.345 . S
C87 C88 1.387 . S
C87 C91 1.391 . S
C88 C87 1.387 . S
C88 C89 1.369 . S
C88 H97 0.929 . S
C89 N86 1.346 . S
C89 C88 1.369 . S
C89 H92 0.928 . S
C90 N86 1.345 . S
C90 C91 1.371 . S
C90 H93 0.931 . S
C91 C87 1.391 . S
C91 C90 1.371 . S
C91 H98 0.930 . S
H92 C89 0.928 . S
H93 C90 0.931 . S
H94 C70 0.930 . S
H95 C67 0.930 . S
H96 C76 0.930 . S
H97 C88 0.929 . S
H98 C91 0.930 . S
C99 C100 1.351 . S
C99 N102 1.368 . S
C99 H104 0.931 . S
C100 C99 1.351 . S
C100 N101 1.373 . S
C100 H128 0.930 . S
N101 C100 1.373 . S
N101 C103 1.340 . S
N102 C99 1.368 . S
N102 C103 1.321 . S
N102 Co105 2.135 . S
C103 N101 1.340 . S
C103 N102 1.321 . S
C103 H127 0.930 . S
H104 C99 0.931 . S
Co105 N102 2.135 . S
Co105 N108 2.121 . S
Co105 O113 2.055 . S
Co105 O116 2.039 . S
Co105 N119 2.140 . S
C106 O107 1.227 . S
C106 O116 1.265 . S
O107 C106 1.227 . S
N108 Co105 2.121 . S
N108 C110 1.375 . S
N108 C111 1.313 . S
C109 C110 1.338 . S
C109 N112 1.377 . S
C109 H129 0.930 . S
C110 N108 1.375 . S
C110 C109 1.338 . S
C110 H114 0.931 . S
C111 N108 1.313 . S
C111 N112 1.344 . S
C111 H115 0.930 . S
N112 C109 1.377 . S
N112 C111 1.344 . S
O113 Co105 2.055 . S
O113 C117 1.253 . S
H114 C110 0.931 . S
H115 C111 0.930 . S
O116 Co105 2.039 . S
O116 C106 1.265 . S
C117 O113 1.253 . S
C117 O118 1.227 . S
O118 C117 1.227 . S
N119 Co105 2.140 . S
N119 C122 1.346 . S
N119 C123 1.345 . S
C120 C121 1.387 . S
C120 C124 1.391 . S
C121 C120 1.387 . S
C121 C122 1.369 . S
C121 H130 0.929 . S
C122 N119 1.346 . S
C122 C121 1.369 . S
C122 H125 0.928 . S
C123 N119 1.345 . S
C123 C124 1.371 . S
C123 H126 0.931 . S
C124 C120 1.391 . S
C124 C123 1.371 . S
C124 H131 0.930 . S
H125 C122 0.928 . S
H126 C123 0.931 . S
H127 C103 0.930 . S
H128 C100 0.930 . S
H129 C109 0.930 . S
H130 C121 0.929 . S
H131 C124 0.930 . S
C132 C133 1.351 . S
C132 N135 1.368 . S
C132 H137 0.931 . S
C133 C132 1.351 . S
C133 N134 1.373 . S
C133 H161 0.930 . S
N134 C133 1.373 . S
N134 C136 1.340 . S
N135 C132 1.368 . S
N135 C136 1.321 . S
N135 Co138 2.135 . S
C136 N134 1.340 . S
C136 N135 1.321 . S
C136 H160 0.930 . S
H137 C132 0.931 . S
Co138 N135 2.135 . S
Co138 N141 2.121 . S
Co138 O146 2.055 . S
Co138 O149 2.039 . S
Co138 N152 2.140 . S
C139 O140 1.227 . S
C139 O149 1.265 . S
O140 C139 1.227 . S
N141 Co138 2.121 . S
N141 C143 1.375 . S
N141 C144 1.313 . S
C142 C143 1.338 . S
C142 N145 1.377 . S
C142 H162 0.930 . S
C143 N141 1.375 . S
C143 C142 1.338 . S
C143 H147 0.931 . S
C144 N141 1.313 . S
C144 N145 1.344 . S
C144 H148 0.930 . S
N145 C142 1.377 . S
N145 C144 1.344 . S
O146 Co138 2.055 . S
O146 C150 1.253 . S
H147 C143 0.931 . S
H148 C144 0.930 . S
O149 Co138 2.039 . S
O149 C139 1.265 . S
C150 O146 1.253 . S
C150 O151 1.227 . S
O151 C150 1.227 . S
N152 Co138 2.140 . S
N152 C155 1.346 . S
N152 C156 1.345 . S
C153 C154 1.387 . S
C153 C157 1.391 . S
C154 C153 1.387 . S
C154 C155 1.369 . S
C154 H163 0.929 . S
C155 N152 1.346 . S
C155 C154 1.369 . S
C155 H158 0.928 . S
C156 N152 1.345 . S
C156 C157 1.371 . S
C156 H159 0.931 . S
C157 C153 1.391 . S
C157 C156 1.371 . S
C157 H164 0.930 . S
H158 C155 0.928 . S
H159 C156 0.931 . S
H160 C136 0.930 . S
H161 C133 0.930 . S
H162 C142 0.930 . S
H163 C154 0.929 . S
H164 C157 0.930 . S
C165 C166 1.351 . S
C165 N168 1.368 . S
C165 H170 0.931 . S
C166 C165 1.351 . S
C166 N167 1.373 . S
C166 H194 0.930 . S
N167 C166 1.373 . S
N167 C169 1.340 . S
N168 C165 1.368 . S
N168 C169 1.321 . S
N168 Co171 2.135 . S
C169 N167 1.340 . S
C169 N168 1.321 . S
C169 H193 0.930 . S
H170 C165 0.931 . S
Co171 N168 2.135 . S
Co171 N174 2.121 . S
Co171 O179 2.055 . S
Co171 O182 2.039 . S
Co171 N185 2.140 . S
C172 O173 1.227 . S
C172 O182 1.265 . S
O173 C172 1.227 . S
N174 Co171 2.121 . S
N174 C176 1.375 . S
N174 C177 1.313 . S
C175 C176 1.338 . S
C175 N178 1.377 . S
C175 H195 0.930 . S
C176 N174 1.375 . S
C176 C175 1.338 . S
C176 H180 0.931 . S
C177 N174 1.313 . S
C177 N178 1.344 . S
C177 H181 0.930 . S
N178 C175 1.377 . S
N178 C177 1.344 . S
O179 Co171 2.055 . S
O179 C183 1.253 . S
H180 C176 0.931 . S
H181 C177 0.930 . S
O182 Co171 2.039 . S
O182 C172 1.265 . S
C183 O179 1.253 . S
C183 O184 1.227 . S
O184 C183 1.227 . S
N185 Co171 2.140 . S
N185 C188 1.346 . S
N185 C189 1.345 . S
C186 C187 1.387 . S
C186 C190 1.391 . S
C187 C186 1.387 . S
C187 C188 1.369 . S
C187 H196 0.929 . S
C188 N185 1.346 . S
C188 C187 1.369 . S
C188 H191 0.928 . S
C189 N185 1.345 . S
C189 C190 1.371 . S
C189 H192 0.931 . S
C190 C186 1.391 . S
C190 C189 1.371 . S
C190 H197 0.930 . S
H191 C188 0.928 . S
H192 C189 0.931 . S
H193 C169 0.930 . S
H194 C166 0.930 . S
H195 C175 0.930 . S
H196 C187 0.929 . S
H197 C190 0.930 . S
C198 C199 1.351 . S
C198 N201 1.368 . S
C198 H203 0.931 . S
C199 C198 1.351 . S
C199 N200 1.373 . S
C199 H227 0.930 . S
N200 C199 1.373 . S
N200 C202 1.340 . S
N201 C198 1.368 . S
N201 C202 1.321 . S
N201 Co204 2.135 . S
C202 N200 1.340 . S
C202 N201 1.321 . S
C202 H226 0.930 . S
H203 C198 0.931 . S
Co204 N201 2.135 . S
Co204 N207 2.121 . S
Co204 O212 2.055 . S
Co204 O215 2.039 . S
Co204 N218 2.140 . S
C205 O206 1.227 . S
C205 O215 1.265 . S
O206 C205 1.227 . S
N207 Co204 2.121 . S
N207 C209 1.375 . S
N207 C210 1.313 . S
C208 C209 1.338 . S
C208 N211 1.377 . S
C208 H228 0.930 . S
C209 N207 1.375 . S
C209 C208 1.338 . S
C209 H213 0.931 . S
C210 N207 1.313 . S
C210 N211 1.344 . S
C210 H214 0.930 . S
N211 C208 1.377 . S
N211 C210 1.344 . S
O212 Co204 2.055 . S
O212 C216 1.253 . S
H213 C209 0.931 . S
H214 C210 0.930 . S
O215 Co204 2.039 . S
O215 C205 1.265 . S
C216 O212 1.253 . S
C216 O217 1.227 . S
O217 C216 1.227 . S
N218 Co204 2.140 . S
N218 C221 1.346 . S
N218 C222 1.345 . S
C219 C220 1.387 . S
C219 C223 1.391 . S
C220 C219 1.387 . S
C220 C221 1.369 . S
C220 H229 0.929 . S
C221 N218 1.346 . S
C221 C220 1.369 . S
C221 H224 0.928 . S
C222 N218 1.345 . S
C222 C223 1.371 . S
C222 H225 0.931 . S
C223 C219 1.391 . S
C223 C222 1.371 . S
C223 H230 0.930 . S
H224 C221 0.928 . S
H225 C222 0.931 . S
H226 C202 0.930 . S
H227 C199 0.930 . S
H228 C208 0.930 . S
H229 C220 0.929 . S
H230 C223 0.930 . S
C231 C232 1.351 . S
C231 N234 1.368 . S
C231 H236 0.931 . S
C232 C231 1.351 . S
C232 N233 1.373 . S
C232 H260 0.930 . S
N233 C232 1.373 . S
N233 C235 1.340 . S
N234 C231 1.368 . S
N234 C235 1.321 . S
N234 Co237 2.135 . S
C235 N233 1.340 . S
C235 N234 1.321 . S
C235 H259 0.930 . S
H236 C231 0.931 . S
Co237 N234 2.135 . S
Co237 N240 2.121 . S
Co237 O245 2.055 . S
Co237 O248 2.039 . S
Co237 N251 2.140 . S
C238 O239 1.227 . S
C238 O248 1.265 . S
O239 C238 1.227 . S
N240 Co237 2.121 . S
N240 C242 1.375 . S
N240 C243 1.313 . S
C241 C242 1.338 . S
C241 N244 1.377 . S
C241 H261 0.930 . S
C242 N240 1.375 . S
C242 C241 1.338 . S
C242 H246 0.931 . S
C243 N240 1.313 . S
C243 N244 1.344 . S
C243 H247 0.930 . S
N244 C241 1.377 . S
N244 C243 1.344 . S
O245 Co237 2.055 . S
O245 C249 1.253 . S
H246 C242 0.931 . S
H247 C243 0.930 . S
O248 Co237 2.039 . S
O248 C238 1.265 . S
C249 O245 1.253 . S
C249 O250 1.227 . S
O250 C249 1.227 . S
N251 Co237 2.140 . S
N251 C254 1.346 . S
N251 C255 1.345 . S
C252 C253 1.387 . S
C252 C256 1.391 . S
C253 C252 1.387 . S
C253 C254 1.369 . S
C253 H262 0.929 . S
C254 N251 1.346 . S
C254 C253 1.369 . S
C254 H257 0.928 . S
C255 N251 1.345 . S
C255 C256 1.371 . S
C255 H258 0.931 . S
C256 C252 1.391 . S
C256 C255 1.371 . S
C256 H263 0.930 . S
H257 C254 0.928 . S
H258 C255 0.931 . S
H259 C235 0.930 . S
H260 C232 0.930 . S
H261 C241 0.930 . S
H262 C253 0.929 . S
H263 C256 0.930 . S
C264 C265 1.351 . S
C264 N267 1.368 . S
C264 H269 0.931 . S
C265 C264 1.351 . S
C265 N266 1.373 . S
C265 H293 0.930 . S
N266 C265 1.373 . S
N266 C268 1.340 . S
N267 C264 1.368 . S
N267 C268 1.321 . S
N267 Co270 2.135 . S
C268 N266 1.340 . S
C268 N267 1.321 . S
C268 H292 0.930 . S
H269 C264 0.931 . S
Co270 N267 2.135 . S
Co270 N273 2.121 . S
Co270 O278 2.055 . S
Co270 O281 2.039 . S
Co270 N284 2.140 . S
C271 O272 1.227 . S
C271 O281 1.265 . S
O272 C271 1.227 . S
N273 Co270 2.121 . S
N273 C275 1.375 . S
N273 C276 1.313 . S
C274 C275 1.338 . S
C274 N277 1.377 . S
C274 H294 0.930 . S
C275 N273 1.375 . S
C275 C274 1.338 . S
C275 H279 0.931 . S
C276 N273 1.313 . S
C276 N277 1.344 . S
C276 H280 0.930 . S
N277 C274 1.377 . S
N277 C276 1.344 . S
O278 Co270 2.055 . S
O278 C282 1.253 . S
H279 C275 0.931 . S
H280 C276 0.930 . S
O281 Co270 2.039 . S
O281 C271 1.265 . S
C282 O278 1.253 . S
C282 O283 1.227 . S
O283 C282 1.227 . S
N284 Co270 2.140 . S
N284 C287 1.346 . S
N284 C288 1.345 . S
C285 C286 1.387 . S
C285 C289 1.391 . S
C286 C285 1.387 . S
C286 C287 1.369 . S
C286 H295 0.929 . S
C287 N284 1.346 . S
C287 C286 1.369 . S
C287 H290 0.928 . S
C288 N284 1.345 . S
C288 C289 1.371 . S
C288 H291 0.931 . S
C289 C285 1.391 . S
C289 C288 1.371 . S
C289 H296 0.930 . S
H290 C287 0.928 . S
H291 C288 0.931 . S
H292 C268 0.930 . S
H293 C265 0.930 . S
H294 C274 0.930 . S
H295 C286 0.929 . S
H296 C289 0.930 . S
C297 C298 1.351 . S
C297 N300 1.368 . S
C297 H302 0.931 . S
C298 C297 1.351 . S
C298 N299 1.373 . S
C298 H326 0.930 . S
N299 C298 1.373 . S
N299 C301 1.340 . S
N300 C297 1.368 . S
N300 C301 1.321 . S
N300 Co303 2.135 . S
C301 N299 1.340 . S
C301 N300 1.321 . S
C301 H325 0.930 . S
H302 C297 0.931 . S
Co303 N300 2.135 . S
Co303 N306 2.121 . S
Co303 O311 2.055 . S
Co303 O314 2.039 . S
Co303 N317 2.140 . S
C304 O305 1.227 . S
C304 O314 1.265 . S
O305 C304 1.227 . S
N306 Co303 2.121 . S
N306 C308 1.375 . S
N306 C309 1.313 . S
C307 C308 1.338 . S
C307 N310 1.377 . S
C307 H327 0.930 . S
C308 N306 1.375 . S
C308 C307 1.338 . S
C308 H312 0.931 . S
C309 N306 1.313 . S
C309 N310 1.344 . S
C309 H313 0.930 . S
N310 C307 1.377 . S
N310 C309 1.344 . S
O311 Co303 2.055 . S
O311 C315 1.253 . S
H312 C308 0.931 . S
H313 C309 0.930 . S
O314 Co303 2.039 . S
O314 C304 1.265 . S
C315 O311 1.253 . S
C315 O316 1.227 . S
O316 C315 1.227 . S
N317 Co303 2.140 . S
N317 C320 1.346 . S
N317 C321 1.345 . S
C318 C319 1.387 . S
C318 C322 1.391 . S
C319 C318 1.387 . S
C319 C320 1.369 . S
C319 H328 0.929 . S
C320 N317 1.346 . S
C320 C319 1.369 . S
C320 H323 0.928 . S
C321 N317 1.345 . S
C321 C322 1.371 . S
C321 H324 0.931 . S
C322 C318 1.391 . S
C322 C321 1.371 . S
C322 H329 0.930 . S
H323 C320 0.928 . S
H324 C321 0.931 . S
H325 C301 0.930 . S
H326 C298 0.930 . S
H327 C307 0.930 . S
H328 C319 0.929 . S
H329 C322 0.930 . S
C330 C331 1.351 . S
C330 N333 1.368 . S
C330 H335 0.931 . S
C331 C330 1.351 . S
C331 N332 1.373 . S
C331 H359 0.930 . S
N332 C331 1.373 . S
N332 C334 1.340 . S
N333 C330 1.368 . S
N333 C334 1.321 . S
N333 Co336 2.135 . S
C334 N332 1.340 . S
C334 N333 1.321 . S
C334 H358 0.930 . S
H335 C330 0.931 . S
Co336 N333 2.135 . S
Co336 N339 2.121 . S
Co336 O344 2.055 . S
Co336 O347 2.039 . S
Co336 N350 2.140 . S
C337 O338 1.227 . S
C337 O347 1.265 . S
O338 C337 1.227 . S
N339 Co336 2.121 . S
N339 C341 1.375 . S
N339 C342 1.313 . S
C340 C341 1.338 . S
C340 N343 1.377 . S
C340 H360 0.930 . S
C341 N339 1.375 . S
C341 C340 1.338 . S
C341 H345 0.931 . S
C342 N339 1.313 . S
C342 N343 1.344 . S
C342 H346 0.930 . S
N343 C340 1.377 . S
N343 C342 1.344 . S
O344 Co336 2.055 . S
O344 C348 1.253 . S
H345 C341 0.931 . S
H346 C342 0.930 . S
O347 Co336 2.039 . S
O347 C337 1.265 . S
C348 O344 1.253 . S
C348 O349 1.227 . S
O349 C348 1.227 . S
N350 Co336 2.140 . S
N350 C353 1.346 . S
N350 C354 1.345 . S
C351 C352 1.387 . S
C351 C355 1.391 . S
C352 C351 1.387 . S
C352 C353 1.369 . S
C352 H361 0.929 . S
C353 N350 1.346 . S
C353 C352 1.369 . S
C353 H356 0.928 . S
C354 N350 1.345 . S
C354 C355 1.371 . S
C354 H357 0.931 . S
C355 C351 1.391 . S
C355 C354 1.371 . S
C355 H362 0.930 . S
H356 C353 0.928 . S
H357 C354 0.931 . S
H358 C334 0.930 . S
H359 C331 0.930 . S
H360 C340 0.930 . S
H361 C352 0.929 . S
H362 C355 0.930 . S
C363 C364 1.351 . S
C363 N366 1.368 . S
C363 H368 0.931 . S
C364 C363 1.351 . S
C364 N365 1.373 . S
C364 H392 0.930 . S
N365 C364 1.373 . S
N365 C367 1.340 . S
N366 C363 1.368 . S
N366 C367 1.321 . S
N366 Co369 2.135 . S
C367 N365 1.340 . S
C367 N366 1.321 . S
C367 H391 0.930 . S
H368 C363 0.931 . S
Co369 N366 2.135 . S
Co369 N372 2.121 . S
Co369 O377 2.055 . S
Co369 O380 2.039 . S
Co369 N383 2.140 . S
C370 O371 1.227 . S
C370 O380 1.265 . S
O371 C370 1.227 . S
N372 Co369 2.121 . S
N372 C374 1.375 . S
N372 C375 1.313 . S
C373 C374 1.338 . S
C373 N376 1.377 . S
C373 H393 0.930 . S
C374 N372 1.375 . S
C374 C373 1.338 . S
C374 H378 0.931 . S
C375 N372 1.313 . S
C375 N376 1.344 . S
C375 H379 0.930 . S
N376 C373 1.377 . S
N376 C375 1.344 . S
O377 Co369 2.055 . S
O377 C381 1.253 . S
H378 C374 0.931 . S
H379 C375 0.930 . S
O380 Co369 2.039 . S
O380 C370 1.265 . S
C381 O377 1.253 . S
C381 O382 1.227 . S
O382 C381 1.227 . S
N383 Co369 2.140 . S
N383 C386 1.346 . S
N383 C387 1.345 . S
C384 C385 1.387 . S
C384 C388 1.391 . S
C385 C384 1.387 . S
C385 C386 1.369 . S
C385 H394 0.929 . S
C386 N383 1.346 . S
C386 C385 1.369 . S
C386 H389 0.928 . S
C387 N383 1.345 . S
C387 C388 1.371 . S
C387 H390 0.931 . S
C388 C384 1.391 . S
C388 C387 1.371 . S
C388 H395 0.930 . S
H389 C386 0.928 . S
H390 C387 0.931 . S
H391 C367 0.930 . S
H392 C364 0.930 . S
H393 C373 0.930 . S
H394 C385 0.929 . S
H395 C388 0.930 . S
C396 C397 1.351 . S
C396 N399 1.368 . S
C396 H401 0.931 . S
C397 C396 1.351 . S
C397 N398 1.373 . S
C397 H425 0.930 . S
N398 C397 1.373 . S
N398 C400 1.340 . S
N399 C396 1.368 . S
N399 C400 1.321 . S
N399 Co402 2.135 . S
C400 N398 1.340 . S
C400 N399 1.321 . S
C400 H424 0.930 . S
H401 C396 0.931 . S
Co402 N399 2.135 . S
Co402 N405 2.121 . S
Co402 O410 2.055 . S
Co402 O413 2.039 . S
Co402 N416 2.140 . S
C403 O404 1.227 . S
C403 O413 1.265 . S
O404 C403 1.227 . S
N405 Co402 2.121 . S
N405 C407 1.375 . S
N405 C408 1.313 . S
C406 C407 1.338 . S
C406 N409 1.377 . S
C406 H426 0.930 . S
C407 N405 1.375 . S
C407 C406 1.338 . S
C407 H411 0.931 . S
C408 N405 1.313 . S
C408 N409 1.344 . S
C408 H412 0.930 . S
N409 C406 1.377 . S
N409 C408 1.344 . S
O410 Co402 2.055 . S
O410 C414 1.253 . S
H411 C407 0.931 . S
H412 C408 0.930 . S
O413 Co402 2.039 . S
O413 C403 1.265 . S
C414 O410 1.253 . S
C414 O415 1.227 . S
O415 C414 1.227 . S
N416 Co402 2.140 . S
N416 C419 1.346 . S
N416 C420 1.345 . S
C417 C418 1.387 . S
C417 C421 1.391 . S
C418 C417 1.387 . S
C418 C419 1.369 . S
C418 H427 0.929 . S
C419 N416 1.346 . S
C419 C418 1.369 . S
C419 H422 0.928 . S
C420 N416 1.345 . S
C420 C421 1.371 . S
C420 H423 0.931 . S
C421 C417 1.391 . S
C421 C420 1.371 . S
C421 H428 0.930 . S
H422 C419 0.928 . S
H423 C420 0.931 . S
H424 C400 0.930 . S
H425 C397 0.930 . S
H426 C406 0.930 . S
H427 C418 0.929 . S
H428 C421 0.930 . S
C429 C430 1.351 . S
C429 N432 1.368 . S
C429 H434 0.931 . S
C430 C429 1.351 . S
C430 N431 1.373 . S
C430 H458 0.930 . S
N431 C430 1.373 . S
N431 C433 1.340 . S
N432 C429 1.368 . S
N432 C433 1.321 . S
N432 Co435 2.135 . S
C433 N431 1.340 . S
C433 N432 1.321 . S
C433 H457 0.930 . S
H434 C429 0.931 . S
Co435 N432 2.135 . S
Co435 N438 2.121 . S
Co435 O443 2.055 . S
Co435 O446 2.039 . S
Co435 N449 2.140 . S
C436 O437 1.227 . S
C436 O446 1.265 . S
O437 C436 1.227 . S
N438 Co435 2.121 . S
N438 C440 1.375 . S
N438 C441 1.313 . S
C439 C440 1.338 . S
C439 N442 1.377 . S
C439 H459 0.930 . S
C440 N438 1.375 . S
C440 C439 1.338 . S
C440 H444 0.931 . S
C441 N438 1.313 . S
C441 N442 1.344 . S
C441 H445 0.930 . S
N442 C439 1.377 . S
N442 C441 1.344 . S
O443 Co435 2.055 . S
O443 C447 1.253 . S
H444 C440 0.931 . S
H445 C441 0.930 . S
O446 Co435 2.039 . S
O446 C436 1.265 . S
C447 O443 1.253 . S
C447 O448 1.227 . S
O448 C447 1.227 . S
N449 Co435 2.140 . S
N449 C452 1.346 . S
N449 C453 1.345 . S
C450 C451 1.387 . S
C450 C454 1.391 . S
C451 C450 1.387 . S
C451 C452 1.369 . S
C451 H460 0.929 . S
C452 N449 1.346 . S
C452 C451 1.369 . S
C452 H455 0.928 . S
C453 N449 1.345 . S
C453 C454 1.371 . S
C453 H456 0.931 . S
C454 C450 1.391 . S
C454 C453 1.371 . S
C454 H461 0.930 . S
H455 C452 0.928 . S
H456 C453 0.931 . S
H457 C433 0.930 . S
H458 C430 0.930 . S
H459 C439 0.930 . S
H460 C451 0.929 . S
H461 C454 0.930 . S
C462 C463 1.351 . S
C462 N465 1.368 . S
C462 H467 0.931 . S
C463 C462 1.351 . S
C463 N464 1.373 . S
C463 H491 0.930 . S
N464 C463 1.373 . S
N464 C466 1.340 . S
N465 C462 1.368 . S
N465 C466 1.321 . S
N465 Co468 2.135 . S
C466 N464 1.340 . S
C466 N465 1.321 . S
C466 H490 0.930 . S
H467 C462 0.931 . S
Co468 N465 2.135 . S
Co468 N471 2.121 . S
Co468 O476 2.055 . S
Co468 O479 2.039 . S
Co468 N482 2.140 . S
C469 O470 1.227 . S
C469 O479 1.265 . S
O470 C469 1.227 . S
N471 Co468 2.121 . S
N471 C473 1.375 . S
N471 C474 1.313 . S
C472 C473 1.338 . S
C472 N475 1.377 . S
C472 H492 0.930 . S
C473 N471 1.375 . S
C473 C472 1.338 . S
C473 H477 0.931 . S
C474 N471 1.313 . S
C474 N475 1.344 . S
C474 H478 0.930 . S
N475 C472 1.377 . S
N475 C474 1.344 . S
O476 Co468 2.055 . S
O476 C480 1.253 . S
H477 C473 0.931 . S
H478 C474 0.930 . S
O479 Co468 2.039 . S
O479 C469 1.265 . S
C480 O476 1.253 . S
C480 O481 1.227 . S
O481 C480 1.227 . S
N482 Co468 2.140 . S
N482 C485 1.346 . S
N482 C486 1.345 . S
C483 C484 1.387 . S
C483 C487 1.391 . S
C484 C483 1.387 . S
C484 C485 1.369 . S
C484 H493 0.929 . S
C485 N482 1.346 . S
C485 C484 1.369 . S
C485 H488 0.928 . S
C486 N482 1.345 . S
C486 C487 1.371 . S
C486 H489 0.931 . S
C487 C483 1.391 . S
C487 C486 1.371 . S
C487 H494 0.930 . S
H488 C485 0.928 . S
H489 C486 0.931 . S
H490 C466 0.930 . S
H491 C463 0.930 . S
H492 C472 0.930 . S
H493 C484 0.929 . S
H494 C487 0.930 . S
C495 C496 1.351 . S
C495 N498 1.368 . S
C495 H500 0.931 . S
C496 C495 1.351 . S
C496 N497 1.373 . S
C496 H524 0.930 . S
N497 C496 1.373 . S
N497 C499 1.340 . S
N498 C495 1.368 . S
N498 C499 1.321 . S
N498 Co501 2.135 . S
C499 N497 1.340 . S
C499 N498 1.321 . S
C499 H523 0.930 . S
H500 C495 0.931 . S
Co501 N498 2.135 . S
Co501 N504 2.121 . S
Co501 O509 2.055 . S
Co501 O512 2.039 . S
Co501 N515 2.140 . S
C502 O503 1.227 . S
C502 O512 1.265 . S
O503 C502 1.227 . S
N504 Co501 2.121 . S
N504 C506 1.375 . S
N504 C507 1.313 . S
C505 C506 1.338 . S
C505 N508 1.377 . S
C505 H525 0.930 . S
C506 N504 1.375 . S
C506 C505 1.338 . S
C506 H510 0.931 . S
C507 N504 1.313 . S
C507 N508 1.344 . S
C507 H511 0.930 . S
N508 C505 1.377 . S
N508 C507 1.344 . S
O509 Co501 2.055 . S
O509 C513 1.253 . S
H510 C506 0.931 . S
H511 C507 0.930 . S
O512 Co501 2.039 . S
O512 C502 1.265 . S
C513 O509 1.253 . S
C513 O514 1.227 . S
O514 C513 1.227 . S
N515 Co501 2.140 . S
N515 C518 1.346 . S
N515 C519 1.345 . S
C516 C517 1.387 . S
C516 C520 1.391 . S
C517 C516 1.387 . S
C517 C518 1.369 . S
C517 H526 0.929 . S
C518 N515 1.346 . S
C518 C517 1.369 . S
C518 H521 0.928 . S
C519 N515 1.345 . S
C519 C520 1.371 . S
C519 H522 0.931 . S
C520 C516 1.391 . S
C520 C519 1.371 . S
C520 H527 0.930 . S
H521 C518 0.928 . S
H522 C519 0.931 . S
H523 C499 0.930 . S
H524 C496 0.930 . S
H525 C505 0.930 . S
H526 C517 0.929 . S
H527 C520 0.930 . S
C528 C529 1.349 . S
C528 C530 1.327 1_545 S
C528 H553 0.950 . S
C529 C528 1.349 . S
C529 C545 1.349 . S
C530 C528 1.327 1_565 S
C530 C549 1.429 . S
C530 H554 0.950 . S
C531 C548 1.574 . S
C531 C550 1.368 . S
C531 H555 0.949 . S
H532 C536 0.949 . S
C533 C534 1.349 . S
C533 C535 1.327 . S
C533 H556 0.950 . S
C534 C533 1.349 . S
C534 C546 1.349 . S
C535 C533 1.327 . S
C535 C551 1.429 . S
C535 H557 0.950 . S
C536 H532 0.949 . S
C536 C544 1.574 . S
C536 C552 1.368 . S
H537 C545 0.950 . S
H538 C543 0.950 . S
H539 C544 0.949 . S
H540 C546 0.950 . S
H541 C547 0.950 . S
H542 C548 0.949 . S
C543 H538 0.950 . S
C543 C545 1.327 1_565 S
C543 C549 1.429 . S
C544 C536 1.574 . S
C544 H539 0.949 . S
C544 C550 1.368 . S
C545 C529 1.349 . S
C545 H537 0.950 . S
C545 C543 1.327 1_545 S
C546 C534 1.349 . S
C546 H540 0.950 . S
C546 C547 1.327 . S
C547 H541 0.950 . S
C547 C546 1.327 . S
C547 C551 1.429 . S
C548 C531 1.574 . S
C548 H542 0.949 . S
C548 C552 1.368 . S
C549 C530 1.429 . S
C549 C543 1.429 . S
C549 C550 1.523 . S
C550 C531 1.368 . S
C550 C544 1.368 . S
C550 C549 1.523 . S
C551 C535 1.429 . S
C551 C547 1.429 . S
C551 C552 1.523 . S
C552 C536 1.368 . S
C552 C548 1.368 . S
C552 C551 1.523 . S
H553 C528 0.950 . S
H554 C530 0.950 . S
H555 C531 0.949 . S
H556 C533 0.950 . S
H557 C535 0.950 . S
C558 C559 1.349 . S
C558 C560 1.327 . S
C558 H583 0.950 . S
C559 C558 1.349 . S
C559 C575 1.349 . S
C560 C558 1.327 . S
C560 C579 1.429 . S
C560 H584 0.950 . S
C561 C578 1.574 . S
C561 C580 1.368 . S
C561 H585 0.949 . S
H562 C566 0.949 . S
C563 C564 1.349 . S
C563 C565 1.327 1_655 S
C563 H586 0.950 . S
C564 C563 1.349 . S
C564 C576 1.349 . S
C565 C563 1.327 1_455 S
C565 C581 1.429 . S
C565 H587 0.950 . S
C566 H562 0.949 . S
C566 C574 1.574 . S
C566 C582 1.368 . S
H567 C575 0.950 . S
H568 C573 0.950 . S
H569 C574 0.949 . S
H570 C576 0.950 . S
H571 C577 0.950 . S
H572 C578 0.949 . S
C573 H568 0.950 . S
C573 C575 1.327 . S
C573 C579 1.429 . S
C574 C566 1.574 . S
C574 H569 0.949 . S
C574 C580 1.368 . S
C575 C559 1.349 . S
C575 H567 0.950 . S
C575 C573 1.327 . S
C576 C564 1.349 . S
C576 H570 0.950 . S
C576 C577 1.327 1_655 S
C577 H571 0.950 . S
C577 C576 1.327 1_455 S
C577 C581 1.429 . S
C578 C561 1.574 . S
C578 H572 0.949 . S
C578 C582 1.368 . S
C579 C560 1.429 . S
C579 C573 1.429 . S
C579 C580 1.523 . S
C580 C561 1.368 . S
C580 C574 1.368 . S
C580 C579 1.523 . S
C581 C565 1.429 . S
C581 C577 1.429 . S
C581 C582 1.523 . S
C582 C566 1.368 . S
C582 C578 1.368 . S
C582 C581 1.523 . S
H583 C558 0.950 . S
H584 C560 0.950 . S
H585 C561 0.949 . S
H586 C563 0.950 . S
H587 C565 0.950 . S
C588 C589 1.349 . S
C588 C590 1.327 1_565 S
C588 H613 0.950 . S
C589 C588 1.349 . S
C589 C605 1.349 . S
C590 C588 1.327 1_545 S
C590 C609 1.429 . S
C590 H614 0.950 . S
C591 C608 1.574 . S
C591 C610 1.368 . S
C591 H615 0.949 . S
H592 C596 0.949 . S
C593 C594 1.349 . S
C593 C595 1.327 . S
C593 H616 0.950 . S
C594 C593 1.349 . S
C594 C606 1.349 . S
C595 C593 1.327 . S
C595 C611 1.429 . S
C595 H617 0.950 . S
C596 H592 0.949 . S
C596 C604 1.574 . S
C596 C612 1.368 . S
H597 C605 0.950 . S
H598 C603 0.950 . S
H599 C604 0.949 . S
H600 C606 0.950 . S
H601 C607 0.950 . S
H602 C608 0.949 . S
C603 H598 0.950 . S
C603 C605 1.327 1_545 S
C603 C609 1.429 . S
C604 C596 1.574 . S
C604 H599 0.949 . S
C604 C610 1.368 . S
C605 C589 1.349 . S
C605 H597 0.950 . S
C605 C603 1.327 1_565 S
C606 C594 1.349 . S
C606 H600 0.950 . S
C606 C607 1.327 . S
C607 H601 0.950 . S
C607 C606 1.327 . S
C607 C611 1.429 . S
C608 C591 1.574 . S
C608 H602 0.949 . S
C608 C612 1.368 . S
C609 C590 1.429 . S
C609 C603 1.429 . S
C609 C610 1.523 . S
C610 C591 1.368 . S
C610 C604 1.368 . S
C610 C609 1.523 . S
C611 C595 1.429 . S
C611 C607 1.429 . S
C611 C612 1.523 . S
C612 C596 1.368 . S
C612 C608 1.368 . S
C612 C611 1.523 . S
H613 C588 0.950 . S
H614 C590 0.950 . S
H615 C591 0.949 . S
H616 C593 0.950 . S
H617 C595 0.950 . S
C618 C619 1.349 . S
C618 C620 1.327 . S
C618 H643 0.950 . S
C619 C618 1.349 . S
C619 C635 1.349 . S
C620 C618 1.327 . S
C620 C639 1.429 . S
C620 H644 0.950 . S
C621 C638 1.574 . S
C621 C640 1.368 . S
C621 H645 0.949 . S
H622 C626 0.949 . S
C623 C624 1.349 . S
C623 C625 1.327 1_455 S
C623 H646 0.950 . S
C624 C623 1.349 . S
C624 C636 1.349 . S
C625 C623 1.327 1_655 S
C625 C641 1.429 . S
C625 H647 0.950 . S
C626 H622 0.949 . S
C626 C634 1.574 . S
C626 C642 1.368 . S
H627 C635 0.950 . S
H628 C633 0.950 . S
H629 C634 0.949 . S
H630 C636 0.950 . S
H631 C637 0.950 . S
H632 C638 0.949 . S
C633 H628 0.950 . S
C633 C635 1.327 . S
C633 C639 1.429 . S
C634 C626 1.574 . S
C634 H629 0.949 . S
C634 C640 1.368 . S
C635 C619 1.349 . S
C635 H627 0.950 . S
C635 C633 1.327 . S
C636 C624 1.349 . S
C636 H630 0.950 . S
C636 C637 1.327 1_455 S
C637 H631 0.950 . S
C637 C636 1.327 1_655 S
C637 C641 1.429 . S
C638 C621 1.574 . S
C638 H632 0.949 . S
C638 C642 1.368 . S
C639 C620 1.429 . S
C639 C633 1.429 . S
C639 C640 1.523 . S
C640 C621 1.368 . S
C640 C634 1.368 . S
C640 C639 1.523 . S
C641 C625 1.429 . S
C641 C637 1.429 . S
C641 C642 1.523 . S
C642 C626 1.368 . S
C642 C638 1.368 . S
C642 C641 1.523 . S
H643 C618 0.950 . S
H644 C620 0.950 . S
H645 C621 0.949 . S
H646 C623 0.950 . S
H647 C625 0.950 . S
C648 C649 1.349 . S
C648 C650 1.327 . S
C648 H673 0.950 . S
C649 C648 1.349 . S
C649 C665 1.349 . S
C650 C648 1.327 . S
C650 C669 1.429 . S
C650 H674 0.950 . S
C651 C668 1.574 . S
C651 C670 1.368 . S
C651 H675 0.949 . S
H652 C656 0.949 . S
C653 C654 1.349 . S
C653 C655 1.327 1_565 S
C653 H676 0.950 . S
C654 C653 1.349 . S
C654 C666 1.349 . S
C655 C653 1.327 1_545 S
C655 C671 1.429 . S
C655 H677 0.950 . S
C656 H652 0.949 . S
C656 C664 1.574 . S
C656 C672 1.368 . S
H657 C665 0.950 . S
H658 C663 0.950 . S
H659 C664 0.949 . S
H660 C666 0.950 . S
H661 C667 0.950 . S
H662 C668 0.949 . S
C663 H658 0.950 . S
C663 C665 1.327 . S
C663 C669 1.429 . S
C664 C656 1.574 . S
C664 H659 0.949 . S
C664 C670 1.368 . S
C665 C649 1.349 . S
C665 H657 0.950 . S
C665 C663 1.327 . S
C666 C654 1.349 . S
C666 H660 0.950 . S
C666 C667 1.327 1_565 S
C667 H661 0.950 . S
C667 C666 1.327 1_545 S
C667 C671 1.429 . S
C668 C651 1.574 . S
C668 H662 0.949 . S
C668 C672 1.368 . S
C669 C650 1.429 . S
C669 C663 1.429 . S
C669 C670 1.523 . S
C670 C651 1.368 . S
C670 C664 1.368 . S
C670 C669 1.523 . S
C671 C655 1.429 . S
C671 C667 1.429 . S
C671 C672 1.523 . S
C672 C656 1.368 . S
C672 C668 1.368 . S
C672 C671 1.523 . S
H673 C648 0.950 . S
H674 C650 0.950 . S
H675 C651 0.949 . S
H676 C653 0.950 . S
H677 C655 0.950 . S
C678 C679 1.349 . S
C678 C680 1.327 . S
C678 H703 0.950 . S
C679 C678 1.349 . S
C679 C695 1.349 . S
C680 C678 1.327 . S
C680 C699 1.429 . S
C680 H704 0.950 . S
C681 C698 1.574 . S
C681 C700 1.368 . S
C681 H705 0.949 . S
H682 C686 0.949 . S
C683 C684 1.349 . S
C683 C685 1.327 1_455 S
C683 H706 0.950 . S
C684 C683 1.349 . S
C684 C696 1.349 . S
C685 C683 1.327 1_655 S
C685 C701 1.429 . S
C685 H707 0.950 . S
C686 H682 0.949 . S
C686 C694 1.574 . S
C686 C702 1.368 . S
H687 C695 0.950 . S
H688 C693 0.950 . S
H689 C694 0.949 . S
H690 C696 0.950 . S
H691 C697 0.950 . S
H692 C698 0.949 . S
C693 H688 0.950 . S
C693 C695 1.327 . S
C693 C699 1.429 . S
C694 C686 1.574 . S
C694 H689 0.949 . S
C694 C700 1.368 . S
C695 C679 1.349 . S
C695 H687 0.950 . S
C695 C693 1.327 . S
C696 C684 1.349 . S
C696 H690 0.950 . S
C696 C697 1.327 1_455 S
C697 H691 0.950 . S
C697 C696 1.327 1_655 S
C697 C701 1.429 . S
C698 C681 1.574 . S
C698 H692 0.949 . S
C698 C702 1.368 . S
C699 C680 1.429 . S
C699 C693 1.429 . S
C699 C700 1.523 . S
C700 C681 1.368 . S
C700 C694 1.368 . S
C700 C699 1.523 . S
C701 C685 1.429 . S
C701 C697 1.429 . S
C701 C702 1.523 . S
C702 C686 1.368 . S
C702 C698 1.368 . S
C702 C701 1.523 . S
H703 C678 0.950 . S
H704 C680 0.950 . S
H705 C681 0.949 . S
H706 C683 0.950 . S
H707 C685 0.950 . S
C708 C709 1.349 . S
C708 C710 1.327 . S
C708 H733 0.950 . S
C709 C708 1.349 . S
C709 C725 1.349 . S
C710 C708 1.327 . S
C710 C729 1.429 . S
C710 H734 0.950 . S
C711 C728 1.574 . S
C711 C730 1.368 . S
C711 H735 0.949 . S
H712 C716 0.949 . S
C713 C714 1.349 . S
C713 C715 1.327 1_545 S
C713 H736 0.950 . S
C714 C713 1.349 . S
C714 C726 1.349 . S
C715 C713 1.327 1_565 S
C715 C731 1.429 . S
C715 H737 0.950 . S
C716 H712 0.949 . S
C716 C724 1.574 . S
C716 C732 1.368 . S
H717 C725 0.950 . S
H718 C723 0.950 . S
H719 C724 0.949 . S
H720 C726 0.950 . S
H721 C727 0.950 . S
H722 C728 0.949 . S
C723 H718 0.950 . S
C723 C725 1.327 . S
C723 C729 1.429 . S
C724 C716 1.574 . S
C724 H719 0.949 . S
C724 C730 1.368 . S
C725 C709 1.349 . S
C725 H717 0.950 . S
C725 C723 1.327 . S
C726 C714 1.349 . S
C726 H720 0.950 . S
C726 C727 1.327 1_545 S
C727 H721 0.950 . S
C727 C726 1.327 1_565 S
C727 C731 1.429 . S
C728 C711 1.574 . S
C728 H722 0.949 . S
C728 C732 1.368 . S
C729 C710 1.429 . S
C729 C723 1.429 . S
C729 C730 1.523 . S
C730 C711 1.368 . S
C730 C724 1.368 . S
C730 C729 1.523 . S
C731 C715 1.429 . S
C731 C727 1.429 . S
C731 C732 1.523 . S
C732 C716 1.368 . S
C732 C728 1.368 . S
C732 C731 1.523 . S
H733 C708 0.950 . S
H734 C710 0.950 . S
H735 C711 0.949 . S
H736 C713 0.950 . S
H737 C715 0.950 . S
C738 C739 1.349 . S
C738 C740 1.327 1_655 S
C738 H763 0.950 . S
C739 C738 1.349 . S
C739 C755 1.349 . S
C740 C738 1.327 1_455 S
C740 C759 1.429 . S
C740 H764 0.950 . S
C741 C758 1.574 . S
C741 C760 1.368 . S
C741 H765 0.949 . S
H742 C746 0.949 . S
C743 C744 1.349 . S
C743 C745 1.327 . S
C743 H766 0.950 . S
C744 C743 1.349 . S
C744 C756 1.349 . S
C745 C743 1.327 . S
C745 C761 1.429 . S
C745 H767 0.950 . S
C746 H742 0.949 . S
C746 C754 1.574 . S
C746 C762 1.368 . S
H747 C755 0.950 . S
H748 C753 0.950 . S
H749 C754 0.949 . S
H750 C756 0.950 . S
H751 C757 0.950 . S
H752 C758 0.949 . S
C753 H748 0.950 . S
C753 C755 1.327 1_455 S
C753 C759 1.429 . S
C754 C746 1.574 . S
C754 H749 0.949 . S
C754 C760 1.368 . S
C755 C739 1.349 . S
C755 H747 0.950 . S
C755 C753 1.327 1_655 S
C756 C744 1.349 . S
C756 H750 0.950 . S
C756 C757 1.327 . S
C757 H751 0.950 . S
C757 C756 1.327 . S
C757 C761 1.429 . S
C758 C741 1.574 . S
C758 H752 0.949 . S
C758 C762 1.368 . S
C759 C740 1.429 . S
C759 C753 1.429 . S
C759 C760 1.523 . S
C760 C741 1.368 . S
C760 C754 1.368 . S
C760 C759 1.523 . S
C761 C745 1.429 . S
C761 C757 1.429 . S
C761 C762 1.523 . S
C762 C746 1.368 . S
C762 C758 1.368 . S
C762 C761 1.523 . S
H763 C738 0.950 . S
H764 C740 0.950 . S
H765 C741 0.949 . S
H766 C743 0.950 . S
H767 C745 0.950 . S
C768 C769 1.349 . S
C768 C770 1.327 . S
C768 H793 0.950 . S
C769 C768 1.349 . S
C769 C785 1.349 . S
C770 C768 1.327 . S
C770 C789 1.429 . S
C770 H794 0.950 . S
C771 C788 1.574 . S
C771 C790 1.368 . S
C771 H795 0.949 . S
H772 C776 0.949 . S
C773 C774 1.349 . S
C773 C775 1.327 . S
C773 H796 0.950 . S
C774 C773 1.349 . S
C774 C786 1.349 . S
C775 C773 1.327 . S
C775 C791 1.429 . S
C775 H797 0.950 . S
C776 H772 0.949 . S
C776 C784 1.574 . S
C776 C792 1.368 . S
H777 C785 0.950 . S
H778 C783 0.950 . S
H779 C784 0.949 . S
H780 C786 0.950 . S
H781 C787 0.950 . S
H782 C788 0.949 . S
C783 H778 0.950 . S
C783 C785 1.327 . S
C783 C789 1.429 . S
C784 C776 1.574 . S
C784 H779 0.949 . S
C784 C790 1.368 . S
C785 C769 1.349 . S
C785 H777 0.950 . S
C785 C783 1.327 . S
C786 C774 1.349 . S
C786 H780 0.950 . S
C786 C787 1.327 . S
C787 H781 0.950 . S
C787 C786 1.327 . S
C787 C791 1.429 . S
C788 C771 1.574 . S
C788 H782 0.949 . S
C788 C792 1.368 . S
C789 C770 1.429 . S
C789 C783 1.429 . S
C789 C790 1.523 . S
C790 C771 1.368 . S
C790 C784 1.368 . S
C790 C789 1.523 . S
C791 C775 1.429 . S
C791 C787 1.429 . S
C791 C792 1.523 . S
C792 C776 1.368 . S
C792 C788 1.368 . S
C792 C791 1.523 . S
H793 C768 0.950 . S
H794 C770 0.950 . S
H795 C771 0.949 . S
H796 C773 0.950 . S
H797 C775 0.950 . S
C798 C799 1.349 . S
C798 C800 1.327 . S
C798 H823 0.950 . S
C799 C798 1.349 . S
C799 C815 1.349 . S
C800 C798 1.327 . S
C800 C819 1.429 . S
C800 H824 0.950 . S
C801 C818 1.574 . S
C801 C820 1.368 . S
C801 H825 0.949 . S
H802 C806 0.949 . S
C803 C804 1.349 . S
C803 C805 1.327 . S
C803 H826 0.950 . S
C804 C803 1.349 . S
C804 C816 1.349 . S
C805 C803 1.327 . S
C805 C821 1.429 . S
C805 H827 0.950 . S
C806 H802 0.949 . S
C806 C814 1.574 . S
C806 C822 1.368 . S
H807 C815 0.950 . S
H808 C813 0.950 . S
H809 C814 0.949 . S
H810 C816 0.950 . S
H811 C817 0.950 . S
H812 C818 0.949 . S
C813 H808 0.950 . S
C813 C815 1.327 . S
C813 C819 1.429 . S
C814 C806 1.574 . S
C814 H809 0.949 . S
C814 C820 1.368 . S
C815 C799 1.349 . S
C815 H807 0.950 . S
C815 C813 1.327 . S
C816 C804 1.349 . S
C816 H810 0.950 . S
C816 C817 1.327 . S
C817 H811 0.950 . S
C817 C816 1.327 . S
C817 C821 1.429 . S
C818 C801 1.574 . S
C818 H812 0.949 . S
C818 C822 1.368 . S
C819 C800 1.429 . S
C819 C813 1.429 . S
C819 C820 1.523 . S
C820 C801 1.368 . S
C820 C814 1.368 . S
C820 C819 1.523 . S
C821 C805 1.429 . S
C821 C817 1.429 . S
C821 C822 1.523 . S
C822 C806 1.368 . S
C822 C818 1.368 . S
C822 C821 1.523 . S
H823 C798 0.950 . S
H824 C800 0.950 . S
H825 C801 0.949 . S
H826 C803 0.950 . S
H827 C805 0.950 . S
C828 C829 1.349 . S
C828 C830 1.327 . S
C828 H853 0.950 . S
C829 C828 1.349 . S
C829 C845 1.349 . S
C830 C828 1.327 . S
C830 C849 1.429 . S
C830 H854 0.950 . S
C831 C848 1.574 . S
C831 C850 1.368 . S
C831 H855 0.949 . S
H832 C836 0.949 . S
C833 C834 1.349 . S
C833 C835 1.327 . S
C833 H856 0.950 . S
C834 C833 1.349 . S
C834 C846 1.349 . S
C835 C833 1.327 . S
C835 C851 1.429 . S
C835 H857 0.950 . S
C836 H832 0.949 . S
C836 C844 1.574 . S
C836 C852 1.368 . S
H837 C845 0.950 . S
H838 C843 0.950 . S
H839 C844 0.949 . S
H840 C846 0.950 . S
H841 C847 0.950 . S
H842 C848 0.949 . S
C843 H838 0.950 . S
C843 C845 1.327 . S
C843 C849 1.429 . S
C844 C836 1.574 . S
C844 H839 0.949 . S
C844 C850 1.368 . S
C845 C829 1.349 . S
C845 H837 0.950 . S
C845 C843 1.327 . S
C846 C834 1.349 . S
C846 H840 0.950 . S
C846 C847 1.327 . S
C847 H841 0.950 . S
C847 C846 1.327 . S
C847 C851 1.429 . S
C848 C831 1.574 . S
C848 H842 0.949 . S
C848 C852 1.368 . S
C849 C830 1.429 . S
C849 C843 1.429 . S
C849 C850 1.523 . S
C850 C831 1.368 . S
C850 C844 1.368 . S
C850 C849 1.523 . S
C851 C835 1.429 . S
C851 C847 1.429 . S
C851 C852 1.523 . S
C852 C836 1.368 . S
C852 C848 1.368 . S
C852 C851 1.523 . S
H853 C828 0.950 . S
H854 C830 0.950 . S
H855 C831 0.949 . S
H856 C833 0.950 . S
H857 C835 0.950 . S
C858 C859 1.349 . S
C858 C860 1.327 . S
C858 H883 0.950 . S
C859 C858 1.349 . S
C859 C875 1.349 . S
C860 C858 1.327 . S
C860 C879 1.429 . S
C860 H884 0.950 . S
C861 C878 1.574 . S
C861 C880 1.368 . S
C861 H885 0.949 . S
H862 C866 0.949 . S
C863 C864 1.349 . S
C863 C865 1.327 . S
C863 H886 0.950 . S
C864 C863 1.349 . S
C864 C876 1.349 . S
C865 C863 1.327 . S
C865 C881 1.429 . S
C865 H887 0.950 . S
C866 H862 0.949 . S
C866 C874 1.574 . S
C866 C882 1.368 . S
H867 C875 0.950 . S
H868 C873 0.950 . S
H869 C874 0.949 . S
H870 C876 0.950 . S
H871 C877 0.950 . S
H872 C878 0.949 . S
C873 H868 0.950 . S
C873 C875 1.327 . S
C873 C879 1.429 . S
C874 C866 1.574 . S
C874 H869 0.949 . S
C874 C880 1.368 . S
C875 C859 1.349 . S
C875 H867 0.950 . S
C875 C873 1.327 . S
C876 C864 1.349 . S
C876 H870 0.950 . S
C876 C877 1.327 . S
C877 H871 0.950 . S
C877 C876 1.327 . S
C877 C881 1.429 . S
C878 C861 1.574 . S
C878 H872 0.949 . S
C878 C882 1.368 . S
C879 C860 1.429 . S
C879 C873 1.429 . S
C879 C880 1.523 . S
C880 C861 1.368 . S
C880 C874 1.368 . S
C880 C879 1.523 . S
C881 C865 1.429 . S
C881 C877 1.429 . S
C881 C882 1.523 . S
C882 C866 1.368 . S
C882 C878 1.368 . S
C882 C881 1.523 . S
H883 C858 0.950 . S
H884 C860 0.950 . S
H885 C861 0.949 . S
H886 C863 0.950 . S
H887 C865 0.950 . S
C888 C889 1.349 . S
C888 C890 1.327 . S
C888 H913 0.950 . S
C889 C888 1.349 . S
C889 C905 1.349 . S
C890 C888 1.327 . S
C890 C909 1.429 . S
C890 H914 0.950 . S
C891 C908 1.574 . S
C891 C910 1.368 . S
C891 H915 0.949 . S
H892 C896 0.949 . S
C893 C894 1.349 . S
C893 C895 1.327 . S
C893 H916 0.950 . S
C894 C893 1.349 . S
C894 C906 1.349 . S
C895 C893 1.327 . S
C895 C911 1.429 . S
C895 H917 0.950 . S
C896 H892 0.949 . S
C896 C904 1.574 . S
C896 C912 1.368 . S
H897 C905 0.950 . S
H898 C903 0.950 . S
H899 C904 0.949 . S
H900 C906 0.950 . S
H901 C907 0.950 . S
H902 C908 0.949 . S
C903 H898 0.950 . S
C903 C905 1.327 . S
C903 C909 1.429 . S
C904 C896 1.574 . S
C904 H899 0.949 . S
C904 C910 1.368 . S
C905 C889 1.349 . S
C905 H897 0.950 . S
C905 C903 1.327 . S
C906 C894 1.349 . S
C906 H900 0.950 . S
C906 C907 1.327 . S
C907 H901 0.950 . S
C907 C906 1.327 . S
C907 C911 1.429 . S
C908 C891 1.574 . S
C908 H902 0.949 . S
C908 C912 1.368 . S
C909 C890 1.429 . S
C909 C903 1.429 . S
C909 C910 1.523 . S
C910 C891 1.368 . S
C910 C904 1.368 . S
C910 C909 1.523 . S
C911 C895 1.429 . S
C911 C907 1.429 . S
C911 C912 1.523 . S
C912 C896 1.368 . S
C912 C908 1.368 . S
C912 C911 1.523 . S
H913 C888 0.950 . S
H914 C890 0.950 . S
H915 C891 0.949 . S
H916 C893 0.950 . S
H917 C895 0.950 . S
C918 C919 1.349 . S
C918 C920 1.327 . S
C918 H943 0.950 . S
C919 C918 1.349 . S
C919 C935 1.349 . S
C920 C918 1.327 . S
C920 C939 1.429 . S
C920 H944 0.950 . S
C921 C938 1.574 . S
C921 C940 1.368 . S
C921 H945 0.949 . S
H922 C926 0.949 . S
C923 C924 1.349 . S
C923 C925 1.327 . S
C923 H946 0.950 . S
C924 C923 1.349 . S
C924 C936 1.349 . S
C925 C923 1.327 . S
C925 C941 1.429 . S
C925 H947 0.950 . S
C926 H922 0.949 . S
C926 C934 1.574 . S
C926 C942 1.368 . S
H927 C935 0.950 . S
H928 C933 0.950 . S
H929 C934 0.949 . S
H930 C936 0.950 . S
H931 C937 0.950 . S
H932 C938 0.949 . S
C933 H928 0.950 . S
C933 C935 1.327 . S
C933 C939 1.429 . S
C934 C926 1.574 . S
C934 H929 0.949 . S
C934 C940 1.368 . S
C935 C919 1.349 . S
C935 H927 0.950 . S
C935 C933 1.327 . S
C936 C924 1.349 . S
C936 H930 0.950 . S
C936 C937 1.327 . S
C937 H931 0.950 . S
C937 C936 1.327 . S
C937 C941 1.429 . S
C938 C921 1.574 . S
C938 H932 0.949 . S
C938 C942 1.368 . S
C939 C920 1.429 . S
C939 C933 1.429 . S
C939 C940 1.523 . S
C940 C921 1.368 . S
C940 C934 1.368 . S
C940 C939 1.523 . S
C941 C925 1.429 . S
C941 C937 1.429 . S
C941 C942 1.523 . S
C942 C926 1.368 . S
C942 C938 1.368 . S
C942 C941 1.523 . S
H943 C918 0.950 . S
H944 C920 0.950 . S
H945 C921 0.949 . S
H946 C923 0.950 . S
H947 C925 0.950 . S
C948 C949 1.349 . S
C948 C950 1.327 . S
C948 H973 0.950 . S
C949 C948 1.349 . S
C949 C965 1.349 . S
C950 C948 1.327 . S
C950 C969 1.429 . S
C950 H974 0.950 . S
C951 C968 1.574 . S
C951 C970 1.368 . S
C951 H975 0.949 . S
H952 C956 0.949 . S
C953 C954 1.349 . S
C953 C955 1.327 . S
C953 H976 0.950 . S
C954 C953 1.349 . S
C954 C966 1.349 . S
C955 C953 1.327 . S
C955 C971 1.429 . S
C955 H977 0.950 . S
C956 H952 0.949 . S
C956 C964 1.574 . S
C956 C972 1.368 . S
H957 C965 0.950 . S
H958 C963 0.950 . S
H959 C964 0.949 . S
H960 C966 0.950 . S
H961 C967 0.950 . S
H962 C968 0.949 . S
C963 H958 0.950 . S
C963 C965 1.327 . S
C963 C969 1.429 . S
C964 C956 1.574 . S
C964 H959 0.949 . S
C964 C970 1.368 . S
C965 C949 1.349 . S
C965 H957 0.950 . S
C965 C963 1.327 . S
C966 C954 1.349 . S
C966 H960 0.950 . S
C966 C967 1.327 . S
C967 H961 0.950 . S
C967 C966 1.327 . S
C967 C971 1.429 . S
C968 C951 1.574 . S
C968 H962 0.949 . S
C968 C972 1.368 . S
C969 C950 1.429 . S
C969 C963 1.429 . S
C969 C970 1.523 . S
C970 C951 1.368 . S
C970 C964 1.368 . S
C970 C969 1.523 . S
C971 C955 1.429 . S
C971 C967 1.429 . S
C971 C972 1.523 . S
C972 C956 1.368 . S
C972 C968 1.368 . S
C972 C971 1.523 . S
H973 C948 0.950 . S
H974 C950 0.950 . S
H975 C951 0.949 . S
H976 C953 0.950 . S
H977 C955 0.950 . S
C978 C979 1.349 . S
C978 C980 1.327 . S
C978 H1003 0.950 . S
C979 C978 1.349 . S
C979 C995 1.349 . S
C980 C978 1.327 . S
C980 C999 1.429 . S
C980 H1004 0.950 . S
C981 C998 1.574 . S
C981 C1000 1.368 . S
C981 H1005 0.949 . S
H982 C986 0.949 . S
C983 C984 1.349 . S
C983 C985 1.327 . S
C983 H1006 0.950 . S
C984 C983 1.349 . S
C984 C996 1.349 . S
C985 C983 1.327 . S
C985 C1001 1.429 . S
C985 H1007 0.950 . S
C986 H982 0.949 . S
C986 C994 1.574 . S
C986 C1002 1.368 . S
H987 C995 0.950 . S
H988 C993 0.950 . S
H989 C994 0.949 . S
H990 C996 0.950 . S
H991 C997 0.950 . S
H992 C998 0.949 . S
C993 H988 0.950 . S
C993 C995 1.327 . S
C993 C999 1.429 . S
C994 C986 1.574 . S
C994 H989 0.949 . S
C994 C1000 1.368 . S
C995 C979 1.349 . S
C995 H987 0.950 . S
C995 C993 1.327 . S
C996 C984 1.349 . S
C996 H990 0.950 . S
C996 C997 1.327 . S
C997 H991 0.950 . S
C997 C996 1.327 . S
C997 C1001 1.429 . S
C998 C981 1.574 . S
C998 H992 0.949 . S
C998 C1002 1.368 . S
C999 C980 1.429 . S
C999 C993 1.429 . S
C999 C1000 1.523 . S
C1000 C981 1.368 . S
C1000 C994 1.368 . S
C1000 C999 1.523 . S
C1001 C985 1.429 . S
C1001 C997 1.429 . S
C1001 C1002 1.523 . S
C1002 C986 1.368 . S
C1002 C998 1.368 . S
C1002 C1001 1.523 . S
H1003 C978 0.950 . S
H1004 C980 0.950 . S
H1005 C981 0.949 . S
H1006 C983 0.950 . S
H1007 C985 0.950 . S
C1008 C1009 1.349 . S
C1008 C1010 1.327 . S
C1008 H1033 0.950 . S
C1009 C1008 1.349 . S
C1009 C1025 1.349 . S
C1010 C1008 1.327 . S
C1010 C1029 1.429 . S
C1010 H1034 0.950 . S
C1011 C1028 1.574 . S
C1011 C1030 1.368 . S
C1011 H1035 0.949 . S
H1012 C1016 0.949 . S
C1013 C1014 1.349 . S
C1013 C1015 1.327 . S
C1013 H1036 0.950 . S
C1014 C1013 1.349 . S
C1014 C1026 1.349 . S
C1015 C1013 1.327 . S
C1015 C1031 1.429 . S
C1015 H1037 0.950 . S
C1016 H1012 0.949 . S
C1016 C1024 1.574 . S
C1016 C1032 1.368 . S
H1017 C1025 0.950 . S
H1018 C1023 0.950 . S
H1019 C1024 0.949 . S
H1020 C1026 0.950 . S
H1021 C1027 0.950 . S
H1022 C1028 0.949 . S
C1023 H1018 0.950 . S
C1023 C1025 1.327 . S
C1023 C1029 1.429 . S
C1024 C1016 1.574 . S
C1024 H1019 0.949 . S
C1024 C1030 1.368 . S
C1025 C1009 1.349 . S
C1025 H1017 0.950 . S
C1025 C1023 1.327 . S
C1026 C1014 1.349 . S
C1026 H1020 0.950 . S
C1026 C1027 1.327 . S
C1027 H1021 0.950 . S
C1027 C1026 1.327 . S
C1027 C1031 1.429 . S
C1028 C1011 1.574 . S
C1028 H1022 0.949 . S
C1028 C1032 1.368 . S
C1029 C1010 1.429 . S
C1029 C1023 1.429 . S
C1029 C1030 1.523 . S
C1030 C1011 1.368 . S
C1030 C1024 1.368 . S
C1030 C1029 1.523 . S
C1031 C1015 1.429 . S
C1031 C1027 1.429 . S
C1031 C1032 1.523 . S
C1032 C1016 1.368 . S
C1032 C1028 1.368 . S
C1032 C1031 1.523 . S
H1033 C1008 0.950 . S
H1034 C1010 0.950 . S
H1035 C1011 0.949 . S
H1036 C1013 0.950 . S
H1037 C1015 0.950 . S
C1038 C1039 1.349 . S
C1038 C1040 1.327 . S
C1038 H1063 0.950 . S
C1039 C1038 1.349 . S
C1039 C1055 1.349 . S
C1040 C1038 1.327 . S
C1040 C1059 1.429 . S
C1040 H1064 0.950 . S
C1041 C1058 1.574 . S
C1041 C1060 1.368 . S
C1041 H1065 0.949 . S
H1042 C1046 0.949 . S
C1043 C1044 1.349 . S
C1043 C1045 1.327 . S
C1043 H1066 0.950 . S
C1044 C1043 1.349 . S
C1044 C1056 1.349 . S
C1045 C1043 1.327 . S
C1045 C1061 1.429 . S
C1045 H1067 0.950 . S
C1046 H1042 0.949 . S
C1046 C1054 1.574 . S
C1046 C1062 1.368 . S
H1047 C1055 0.950 . S
H1048 C1053 0.950 . S
H1049 C1054 0.949 . S
H1050 C1056 0.950 . S
H1051 C1057 0.950 . S
H1052 C1058 0.949 . S
C1053 H1048 0.950 . S
C1053 C1055 1.327 . S
C1053 C1059 1.429 . S
C1054 C1046 1.574 . S
C1054 H1049 0.949 . S
C1054 C1060 1.368 . S
C1055 C1039 1.349 . S
C1055 H1047 0.950 . S
C1055 C1053 1.327 . S
C1056 C1044 1.349 . S
C1056 H1050 0.950 . S
C1056 C1057 1.327 . S
C1057 H1051 0.950 . S
C1057 C1056 1.327 . S
C1057 C1061 1.429 . S
C1058 C1041 1.574 . S
C1058 H1052 0.949 . S
C1058 C1062 1.368 . S
C1059 C1040 1.429 . S
C1059 C1053 1.429 . S
C1059 C1060 1.523 . S
C1060 C1041 1.368 . S
C1060 C1054 1.368 . S
C1060 C1059 1.523 . S
C1061 C1045 1.429 . S
C1061 C1057 1.429 . S
C1061 C1062 1.523 . S
C1062 C1046 1.368 . S
C1062 C1058 1.368 . S
C1062 C1061 1.523 . S
H1063 C1038 0.950 . S
H1064 C1040 0.950 . S
H1065 C1041 0.949 . S
H1066 C1043 0.950 . S
H1067 C1045 0.950 . S
C1068 C1069 1.349 . S
C1068 C1070 1.327 . S
C1068 H1093 0.950 . S
C1069 C1068 1.349 . S
C1069 C1085 1.349 . S
C1070 C1068 1.327 . S
C1070 C1089 1.429 . S
C1070 H1094 0.950 . S
C1071 C1088 1.574 . S
C1071 C1090 1.368 . S
C1071 H1095 0.949 . S
H1072 C1076 0.949 . S
C1073 C1074 1.349 . S
C1073 C1075 1.327 . S
C1073 H1096 0.950 . S
C1074 C1073 1.349 . S
C1074 C1086 1.349 . S
C1075 C1073 1.327 . S
C1075 C1091 1.429 . S
C1075 H1097 0.950 . S
C1076 H1072 0.949 . S
C1076 C1084 1.574 . S
C1076 C1092 1.368 . S
H1077 C1085 0.950 . S
H1078 C1083 0.950 . S
H1079 C1084 0.949 . S
H1080 C1086 0.950 . S
H1081 C1087 0.950 . S
H1082 C1088 0.949 . S
C1083 H1078 0.950 . S
C1083 C1085 1.327 . S
C1083 C1089 1.429 . S
C1084 C1076 1.574 . S
C1084 H1079 0.949 . S
C1084 C1090 1.368 . S
C1085 C1069 1.349 . S
C1085 H1077 0.950 . S
C1085 C1083 1.327 . S
C1086 C1074 1.349 . S
C1086 H1080 0.950 . S
C1086 C1087 1.327 . S
C1087 H1081 0.950 . S
C1087 C1086 1.327 . S
C1087 C1091 1.429 . S
C1088 C1071 1.574 . S
C1088 H1082 0.949 . S
C1088 C1092 1.368 . S
C1089 C1070 1.429 . S
C1089 C1083 1.429 . S
C1089 C1090 1.523 . S
C1090 C1071 1.368 . S
C1090 C1084 1.368 . S
C1090 C1089 1.523 . S
C1091 C1075 1.429 . S
C1091 C1087 1.429 . S
C1091 C1092 1.523 . S
C1092 C1076 1.368 . S
C1092 C1088 1.368 . S
C1092 C1091 1.523 . S
H1093 C1068 0.950 . S
H1094 C1070 0.950 . S
H1095 C1071 0.949 . S
H1096 C1073 0.950 . S
H1097 C1075 0.950 . S
C1098 C1099 1.349 . S
C1098 C1100 1.327 . S
C1098 H1123 0.950 . S
C1099 C1098 1.349 . S
C1099 C1115 1.349 . S
C1100 C1098 1.327 . S
C1100 C1119 1.429 . S
C1100 H1124 0.950 . S
C1101 C1118 1.574 . S
C1101 C1120 1.368 . S
C1101 H1125 0.949 . S
H1102 C1106 0.949 . S
C1103 C1104 1.349 . S
C1103 C1105 1.327 . S
C1103 H1126 0.950 . S
C1104 C1103 1.349 . S
C1104 C1116 1.349 . S
C1105 C1103 1.327 . S
C1105 C1121 1.429 . S
C1105 H1127 0.950 . S
C1106 H1102 0.949 . S
C1106 C1114 1.574 . S
C1106 C1122 1.368 . S
H1107 C1115 0.950 . S
H1108 C1113 0.950 . S
H1109 C1114 0.949 . S
H1110 C1116 0.950 . S
H1111 C1117 0.950 . S
H1112 C1118 0.949 . S
C1113 H1108 0.950 . S
C1113 C1115 1.327 . S
C1113 C1119 1.429 . S
C1114 C1106 1.574 . S
C1114 H1109 0.949 . S
C1114 C1120 1.368 . S
C1115 C1099 1.349 . S
C1115 H1107 0.950 . S
C1115 C1113 1.327 . S
C1116 C1104 1.349 . S
C1116 H1110 0.950 . S
C1116 C1117 1.327 . S
C1117 H1111 0.950 . S
C1117 C1116 1.327 . S
C1117 C1121 1.429 . S
C1118 C1101 1.574 . S
C1118 H1112 0.949 . S
C1118 C1122 1.368 . S
C1119 C1100 1.429 . S
C1119 C1113 1.429 . S
C1119 C1120 1.523 . S
C1120 C1101 1.368 . S
C1120 C1114 1.368 . S
C1120 C1119 1.523 . S
C1121 C1105 1.429 . S
C1121 C1117 1.429 . S
C1121 C1122 1.523 . S
C1122 C1106 1.368 . S
C1122 C1118 1.368 . S
C1122 C1121 1.523 . S
H1123 C1098 0.950 . S
H1124 C1100 0.950 . S
H1125 C1101 0.949 . S
H1126 C1103 0.950 . S
H1127 C1105 0.950 . S
C1128 C1129 1.349 . S
C1128 C1130 1.327 . S
C1128 H1153 0.950 . S
C1129 C1128 1.349 . S
C1129 C1145 1.349 . S
C1130 C1128 1.327 . S
C1130 C1149 1.429 . S
C1130 H1154 0.950 . S
C1131 C1148 1.574 . S
C1131 C1150 1.368 1_554 S
C1131 H1155 0.949 . S
H1132 C1136 0.949 . S
C1133 C1134 1.349 . S
C1133 C1135 1.327 . S
C1133 H1156 0.950 . S
C1134 C1133 1.349 . S
C1134 C1146 1.349 . S
C1135 C1133 1.327 . S
C1135 C1151 1.429 . S
C1135 H1157 0.950 . S
C1136 H1132 0.949 . S
C1136 C1144 1.574 . S
C1136 C1152 1.368 1_556 S
H1137 C1145 0.950 . S
H1138 C1143 0.950 . S
H1139 C1144 0.949 . S
H1140 C1146 0.950 . S
H1141 C1147 0.950 . S
H1142 C1148 0.949 . S
C1143 H1138 0.950 . S
C1143 C1145 1.327 . S
C1143 C1149 1.429 . S
C1144 C1136 1.574 . S
C1144 H1139 0.949 . S
C1144 C1150 1.368 . S
C1145 C1129 1.349 . S
C1145 H1137 0.950 . S
C1145 C1143 1.327 . S
C1146 C1134 1.349 . S
C1146 H1140 0.950 . S
C1146 C1147 1.327 . S
C1147 H1141 0.950 . S
C1147 C1146 1.327 . S
C1147 C1151 1.429 . S
C1148 C1131 1.574 . S
C1148 H1142 0.949 . S
C1148 C1152 1.368 . S
C1149 C1130 1.429 . S
C1149 C1143 1.429 . S
C1149 C1150 1.523 . S
C1150 C1131 1.368 1_556 S
C1150 C1144 1.368 . S
C1150 C1149 1.523 . S
C1151 C1135 1.429 . S
C1151 C1147 1.429 . S
C1151 C1152 1.523 . S
C1152 C1136 1.368 1_554 S
C1152 C1148 1.368 . S
C1152 C1151 1.523 . S
H1153 C1128 0.950 . S
H1154 C1130 0.950 . S
H1155 C1131 0.949 . S
H1156 C1133 0.950 . S
H1157 C1135 0.950 . S
C1158 C1159 1.349 . S
C1158 C1160 1.327 . S
C1158 H1183 0.950 . S
C1159 C1158 1.349 . S
C1159 C1175 1.349 . S
C1160 C1158 1.327 . S
C1160 C1179 1.429 . S
C1160 H1184 0.950 . S
C1161 C1178 1.574 1_556 S
C1161 C1180 1.368 . S
C1161 H1185 0.949 . S
H1162 C1166 0.949 . S
C1163 C1164 1.349 . S
C1163 C1165 1.327 . S
C1163 H1186 0.950 . S
C1164 C1163 1.349 . S
C1164 C1176 1.349 . S
C1165 C1163 1.327 . S
C1165 C1181 1.429 . S
C1165 H1187 0.950 . S
C1166 H1162 0.949 . S
C1166 C1174 1.574 1_554 S
C1166 C1182 1.368 . S
H1167 C1175 0.950 . S
H1168 C1173 0.950 . S
H1169 C1174 0.949 . S
H1170 C1176 0.950 . S
H1171 C1177 0.950 . S
H1172 C1178 0.949 . S
C1173 H1168 0.950 . S
C1173 C1175 1.327 . S
C1173 C1179 1.429 . S
C1174 C1166 1.574 1_556 S
C1174 H1169 0.949 . S
C1174 C1180 1.368 . S
C1175 C1159 1.349 . S
C1175 H1167 0.950 . S
C1175 C1173 1.327 . S
C1176 C1164 1.349 . S
C1176 H1170 0.950 . S
C1176 C1177 1.327 . S
C1177 H1171 0.950 . S
C1177 C1176 1.327 . S
C1177 C1181 1.429 . S
C1178 C1161 1.574 1_554 S
C1178 H1172 0.949 . S
C1178 C1182 1.368 . S
C1179 C1160 1.429 . S
C1179 C1173 1.429 . S
C1179 C1180 1.523 . S
C1180 C1161 1.368 . S
C1180 C1174 1.368 . S
C1180 C1179 1.523 . S
C1181 C1165 1.429 . S
C1181 C1177 1.429 . S
C1181 C1182 1.523 . S
C1182 C1166 1.368 . S
C1182 C1178 1.368 . S
C1182 C1181 1.523 . S
H1183 C1158 0.950 . S
H1184 C1160 0.950 . S
H1185 C1161 0.949 . S
H1186 C1163 0.950 . S
H1187 C1165 0.950 . S
C1188 C1189 1.349 . S
C1188 C1190 1.327 . S
C1188 H1213 0.950 . S
C1189 C1188 1.349 . S
C1189 C1205 1.349 . S
C1190 C1188 1.327 . S
C1190 C1209 1.429 . S
C1190 H1214 0.950 . S
C1191 C1208 1.574 1_556 S
C1191 C1210 1.368 . S
C1191 H1215 0.949 . S
H1192 C1196 0.949 . S
C1193 C1194 1.349 . S
C1193 C1195 1.327 . S
C1193 H1216 0.950 . S
C1194 C1193 1.349 . S
C1194 C1206 1.349 . S
C1195 C1193 1.327 . S
C1195 C1211 1.429 . S
C1195 H1217 0.950 . S
C1196 H1192 0.949 . S
C1196 C1204 1.574 1_554 S
C1196 C1212 1.368 . S
H1197 C1205 0.950 . S
H1198 C1203 0.950 . S
H1199 C1204 0.949 . S
H1200 C1206 0.950 . S
H1201 C1207 0.950 . S
H1202 C1208 0.949 . S
C1203 H1198 0.950 . S
C1203 C1205 1.327 . S
C1203 C1209 1.429 . S
C1204 C1196 1.574 1_556 S
C1204 H1199 0.949 . S
C1204 C1210 1.368 . S
C1205 C1189 1.349 . S
C1205 H1197 0.950 . S
C1205 C1203 1.327 . S
C1206 C1194 1.349 . S
C1206 H1200 0.950 . S
C1206 C1207 1.327 . S
C1207 H1201 0.950 . S
C1207 C1206 1.327 . S
C1207 C1211 1.429 . S
C1208 C1191 1.574 1_554 S
C1208 H1202 0.949 . S
C1208 C1212 1.368 . S
C1209 C1190 1.429 . S
C1209 C1203 1.429 . S
C1209 C1210 1.523 . S
C1210 C1191 1.368 . S
C1210 C1204 1.368 . S
C1210 C1209 1.523 . S
C1211 C1195 1.429 . S
C1211 C1207 1.429 . S
C1211 C1212 1.523 . S
C1212 C1196 1.368 . S
C1212 C1208 1.368 . S
C1212 C1211 1.523 . S
H1213 C1188 0.950 . S
H1214 C1190 0.950 . S
H1215 C1191 0.949 . S
H1216 C1193 0.950 . S
H1217 C1195 0.950 . S
C1218 C1219 1.349 . S
C1218 C1220 1.327 . S
C1218 H1243 0.950 . S
C1219 C1218 1.349 . S
C1219 C1235 1.349 . S
C1220 C1218 1.327 . S
C1220 C1239 1.429 . S
C1220 H1244 0.950 . S
C1221 C1238 1.574 1_556 S
C1221 C1240 1.368 . S
C1221 H1245 0.949 . S
H1222 C1226 0.949 . S
C1223 C1224 1.349 . S
C1223 C1225 1.327 . S
C1223 H1246 0.950 . S
C1224 C1223 1.349 . S
C1224 C1236 1.349 . S
C1225 C1223 1.327 . S
C1225 C1241 1.429 . S
C1225 H1247 0.950 . S
C1226 H1222 0.949 . S
C1226 C1234 1.574 1_554 S
C1226 C1242 1.368 . S
H1227 C1235 0.950 . S
H1228 C1233 0.950 . S
H1229 C1234 0.949 . S
H1230 C1236 0.950 . S
H1231 C1237 0.950 . S
H1232 C1238 0.949 . S
C1233 H1228 0.950 . S
C1233 C1235 1.327 . S
C1233 C1239 1.429 . S
C1234 C1226 1.574 1_556 S
C1234 H1229 0.949 . S
C1234 C1240 1.368 . S
C1235 C1219 1.349 . S
C1235 H1227 0.950 . S
C1235 C1233 1.327 . S
C1236 C1224 1.349 . S
C1236 H1230 0.950 . S
C1236 C1237 1.327 . S
C1237 H1231 0.950 . S
C1237 C1236 1.327 . S
C1237 C1241 1.429 . S
C1238 C1221 1.574 1_554 S
C1238 H1232 0.949 . S
C1238 C1242 1.368 . S
C1239 C1220 1.429 . S
C1239 C1233 1.429 . S
C1239 C1240 1.523 . S
C1240 C1221 1.368 . S
C1240 C1234 1.368 . S
C1240 C1239 1.523 . S
C1241 C1225 1.429 . S
C1241 C1237 1.429 . S
C1241 C1242 1.523 . S
C1242 C1226 1.368 . S
C1242 C1238 1.368 . S
C1242 C1241 1.523 . S
H1243 C1218 0.950 . S
H1244 C1220 0.950 . S
H1245 C1221 0.949 . S
H1246 C1223 0.950 . S
H1247 C1225 0.950 . S
C1248 C1249 1.349 . S
C1248 C1250 1.327 . S
C1248 H1273 0.950 . S
C1249 C1248 1.349 . S
C1249 C1265 1.349 . S
C1250 C1248 1.327 . S
C1250 C1269 1.429 . S
C1250 H1274 0.950 . S
C1251 C1268 1.574 . S
C1251 C1270 1.368 . S
C1251 H1275 0.949 . S
H1252 C1256 0.949 . S
C1253 C1254 1.349 . S
C1253 C1255 1.327 . S
C1253 H1276 0.950 . S
C1254 C1253 1.349 . S
C1254 C1266 1.349 . S
C1255 C1253 1.327 . S
C1255 C1271 1.429 . S
C1255 H1277 0.950 . S
C1256 H1252 0.949 . S
C1256 C1264 1.574 . S
C1256 C1272 1.368 . S
H1257 C1265 0.950 . S
H1258 C1263 0.950 . S
H1259 C1264 0.949 . S
H1260 C1266 0.950 . S
H1261 C1267 0.950 . S
H1262 C1268 0.949 . S
C1263 H1258 0.950 . S
C1263 C1265 1.327 . S
C1263 C1269 1.429 . S
C1264 C1256 1.574 . S
C1264 H1259 0.949 . S
C1264 C1270 1.368 . S
C1265 C1249 1.349 . S
C1265 H1257 0.950 . S
C1265 C1263 1.327 . S
C1266 C1254 1.349 . S
C1266 H1260 0.950 . S
C1266 C1267 1.327 . S
C1267 H1261 0.950 . S
C1267 C1266 1.327 . S
C1267 C1271 1.429 . S
C1268 C1251 1.574 . S
C1268 H1262 0.949 . S
C1268 C1272 1.368 . S
C1269 C1250 1.429 . S
C1269 C1263 1.429 . S
C1269 C1270 1.523 . S
C1270 C1251 1.368 . S
C1270 C1264 1.368 . S
C1270 C1269 1.523 . S
C1271 C1255 1.429 . S
C1271 C1267 1.429 . S
C1271 C1272 1.523 . S
C1272 C1256 1.368 . S
C1272 C1268 1.368 . S
C1272 C1271 1.523 . S
H1273 C1248 0.950 . S
H1274 C1250 0.950 . S
H1275 C1251 0.949 . S
H1276 C1253 0.950 . S
H1277 C1255 0.950 . S
C1278 C1279 1.349 . S
C1278 C1280 1.327 . S
C1278 H1303 0.950 . S
C1279 C1278 1.349 . S
C1279 C1295 1.349 . S
C1280 C1278 1.327 . S
C1280 C1299 1.429 . S
C1280 H1304 0.950 . S
C1281 C1298 1.574 . S
C1281 C1300 1.368 . S
C1281 H1305 0.949 . S
H1282 C1286 0.949 . S
C1283 C1284 1.349 . S
C1283 C1285 1.327 . S
C1283 H1306 0.950 . S
C1284 C1283 1.349 . S
C1284 C1296 1.349 . S
C1285 C1283 1.327 . S
C1285 C1301 1.429 . S
C1285 H1307 0.950 . S
C1286 H1282 0.949 . S
C1286 C1294 1.574 . S
C1286 C1302 1.368 . S
H1287 C1295 0.950 . S
H1288 C1293 0.950 . S
H1289 C1294 0.949 . S
H1290 C1296 0.950 . S
H1291 C1297 0.950 . S
H1292 C1298 0.949 . S
C1293 H1288 0.950 . S
C1293 C1295 1.327 . S
C1293 C1299 1.429 . S
C1294 C1286 1.574 . S
C1294 H1289 0.949 . S
C1294 C1300 1.368 . S
C1295 C1279 1.349 . S
C1295 H1287 0.950 . S
C1295 C1293 1.327 . S
C1296 C1284 1.349 . S
C1296 H1290 0.950 . S
C1296 C1297 1.327 . S
C1297 H1291 0.950 . S
C1297 C1296 1.327 . S
C1297 C1301 1.429 . S
C1298 C1281 1.574 . S
C1298 H1292 0.949 . S
C1298 C1302 1.368 . S
C1299 C1280 1.429 . S
C1299 C1293 1.429 . S
C1299 C1300 1.523 . S
C1300 C1281 1.368 . S
C1300 C1294 1.368 . S
C1300 C1299 1.523 . S
C1301 C1285 1.429 . S
C1301 C1297 1.429 . S
C1301 C1302 1.523 . S
C1302 C1286 1.368 . S
C1302 C1298 1.368 . S
C1302 C1301 1.523 . S
H1303 C1278 0.950 . S
H1304 C1280 0.950 . S
H1305 C1281 0.949 . S
H1306 C1283 0.950 . S
H1307 C1285 0.950 . S
C1308 C1309 1.349 . S
C1308 C1310 1.327 . S
C1308 H1333 0.950 . S
C1309 C1308 1.349 . S
C1309 C1325 1.349 . S
C1310 C1308 1.327 . S
C1310 C1329 1.429 . S
C1310 H1334 0.950 . S
C1311 C1328 1.574 . S
C1311 C1330 1.368 . S
C1311 H1335 0.949 . S
H1312 C1316 0.949 . S
C1313 C1314 1.349 . S
C1313 C1315 1.327 . S
C1313 H1336 0.950 . S
C1314 C1313 1.349 . S
C1314 C1326 1.349 . S
C1315 C1313 1.327 . S
C1315 C1331 1.429 . S
C1315 H1337 0.950 . S
C1316 H1312 0.949 . S
C1316 C1324 1.574 . S
C1316 C1332 1.368 . S
H1317 C1325 0.950 . S
H1318 C1323 0.950 . S
H1319 C1324 0.949 . S
H1320 C1326 0.950 . S
H1321 C1327 0.950 . S
H1322 C1328 0.949 . S
C1323 H1318 0.950 . S
C1323 C1325 1.327 . S
C1323 C1329 1.429 . S
C1324 C1316 1.574 . S
C1324 H1319 0.949 . S
C1324 C1330 1.368 . S
C1325 C1309 1.349 . S
C1325 H1317 0.950 . S
C1325 C1323 1.327 . S
C1326 C1314 1.349 . S
C1326 H1320 0.950 . S
C1326 C1327 1.327 . S
C1327 H1321 0.950 . S
C1327 C1326 1.327 . S
C1327 C1331 1.429 . S
C1328 C1311 1.574 . S
C1328 H1322 0.949 . S
C1328 C1332 1.368 . S
C1329 C1310 1.429 . S
C1329 C1323 1.429 . S
C1329 C1330 1.523 . S
C1330 C1311 1.368 . S
C1330 C1324 1.368 . S
C1330 C1329 1.523 . S
C1331 C1315 1.429 . S
C1331 C1327 1.429 . S
C1331 C1332 1.523 . S
C1332 C1316 1.368 . S
C1332 C1328 1.368 . S
C1332 C1331 1.523 . S
H1333 C1308 0.950 . S
H1334 C1310 0.950 . S
H1335 C1311 0.949 . S
H1336 C1313 0.950 . S
H1337 C1315 0.950 . S
C1338 C1339 1.349 . S
C1338 C1340 1.327 . S
C1338 H1363 0.950 . S
C1339 C1338 1.349 . S
C1339 C1355 1.349 . S
C1340 C1338 1.327 . S
C1340 C1359 1.429 . S
C1340 H1364 0.950 . S
C1341 C1358 1.574 . S
C1341 C1360 1.368 . S
C1341 H1365 0.949 . S
H1342 C1346 0.949 . S
C1343 C1344 1.349 . S
C1343 C1345 1.327 . S
C1343 H1366 0.950 . S
C1344 C1343 1.349 . S
C1344 C1356 1.349 . S
C1345 C1343 1.327 . S
C1345 C1361 1.429 . S
C1345 H1367 0.950 . S
C1346 H1342 0.949 . S
C1346 C1354 1.574 . S
C1346 C1362 1.368 . S
H1347 C1355 0.950 . S
H1348 C1353 0.950 . S
H1349 C1354 0.949 . S
H1350 C1356 0.950 . S
H1351 C1357 0.950 . S
H1352 C1358 0.949 . S
C1353 H1348 0.950 . S
C1353 C1355 1.327 . S
C1353 C1359 1.429 . S
C1354 C1346 1.574 . S
C1354 H1349 0.949 . S
C1354 C1360 1.368 . S
C1355 C1339 1.349 . S
C1355 H1347 0.950 . S
C1355 C1353 1.327 . S
C1356 C1344 1.349 . S
C1356 H1350 0.950 . S
C1356 C1357 1.327 . S
C1357 H1351 0.950 . S
C1357 C1356 1.327 . S
C1357 C1361 1.429 . S
C1358 C1341 1.574 . S
C1358 H1352 0.949 . S
C1358 C1362 1.368 . S
C1359 C1340 1.429 . S
C1359 C1353 1.429 . S
C1359 C1360 1.523 . S
C1360 C1341 1.368 . S
C1360 C1354 1.368 . S
C1360 C1359 1.523 . S
C1361 C1345 1.429 . S
C1361 C1357 1.429 . S
C1361 C1362 1.523 . S
C1362 C1346 1.368 . S
C1362 C1358 1.368 . S
C1362 C1361 1.523 . S
H1363 C1338 0.950 . S
H1364 C1340 0.950 . S
H1365 C1341 0.949 . S
H1366 C1343 0.950 . S
H1367 C1345 0.950 . S
C1368 C1369 1.349 . S
C1368 C1370 1.327 . S
C1368 H1393 0.950 . S
C1369 C1368 1.349 . S
C1369 C1385 1.349 . S
C1370 C1368 1.327 . S
C1370 C1389 1.429 . S
C1370 H1394 0.950 . S
C1371 C1388 1.574 . S
C1371 C1390 1.368 . S
C1371 H1395 0.949 . S
H1372 C1376 0.949 . S
C1373 C1374 1.349 . S
C1373 C1375 1.327 . S
C1373 H1396 0.950 . S
C1374 C1373 1.349 . S
C1374 C1386 1.349 . S
C1375 C1373 1.327 . S
C1375 C1391 1.429 . S
C1375 H1397 0.950 . S
C1376 H1372 0.949 . S
C1376 C1384 1.574 . S
C1376 C1392 1.368 . S
H1377 C1385 0.950 . S
H1378 C1383 0.950 . S
H1379 C1384 0.949 . S
H1380 C1386 0.950 . S
H1381 C1387 0.950 . S
H1382 C1388 0.949 . S
C1383 H1378 0.950 . S
C1383 C1385 1.327 . S
C1383 C1389 1.429 . S
C1384 C1376 1.574 . S
C1384 H1379 0.949 . S
C1384 C1390 1.368 . S
C1385 C1369 1.349 . S
C1385 H1377 0.950 . S
C1385 C1383 1.327 . S
C1386 C1374 1.349 . S
C1386 H1380 0.950 . S
C1386 C1387 1.327 . S
C1387 H1381 0.950 . S
C1387 C1386 1.327 . S
C1387 C1391 1.429 . S
C1388 C1371 1.574 . S
C1388 H1382 0.949 . S
C1388 C1392 1.368 . S
C1389 C1370 1.429 . S
C1389 C1383 1.429 . S
C1389 C1390 1.523 . S
C1390 C1371 1.368 . S
C1390 C1384 1.368 . S
C1390 C1389 1.523 . S
C1391 C1375 1.429 . S
C1391 C1387 1.429 . S
C1391 C1392 1.523 . S
C1392 C1376 1.368 . S
C1392 C1388 1.368 . S
C1392 C1391 1.523 . S
H1393 C1368 0.950 . S
H1394 C1370 0.950 . S
H1395 C1371 0.949 . S
H1396 C1373 0.950 . S
H1397 C1375 0.950 . S
C1398 C1399 1.349 . S
C1398 C1400 1.327 . S
C1398 H1423 0.950 . S
C1399 C1398 1.349 . S
C1399 C1415 1.349 . S
C1400 C1398 1.327 . S
C1400 C1419 1.429 . S
C1400 H1424 0.950 . S
C1401 C1418 1.574 . S
C1401 C1420 1.368 . S
C1401 H1425 0.949 . S
H1402 C1406 0.949 . S
C1403 C1404 1.349 . S
C1403 C1405 1.327 . S
C1403 H1426 0.950 . S
C1404 C1403 1.349 . S
C1404 C1416 1.349 . S
C1405 C1403 1.327 . S
C1405 C1421 1.429 . S
C1405 H1427 0.950 . S
C1406 H1402 0.949 . S
C1406 C1414 1.574 . S
C1406 C1422 1.368 . S
H1407 C1415 0.950 . S
H1408 C1413 0.950 . S
H1409 C1414 0.949 . S
H1410 C1416 0.950 . S
H1411 C1417 0.950 . S
H1412 C1418 0.949 . S
C1413 H1408 0.950 . S
C1413 C1415 1.327 . S
C1413 C1419 1.429 . S
C1414 C1406 1.574 . S
C1414 H1409 0.949 . S
C1414 C1420 1.368 . S
C1415 C1399 1.349 . S
C1415 H1407 0.950 . S
C1415 C1413 1.327 . S
C1416 C1404 1.349 . S
C1416 H1410 0.950 . S
C1416 C1417 1.327 . S
C1417 H1411 0.950 . S
C1417 C1416 1.327 . S
C1417 C1421 1.429 . S
C1418 C1401 1.574 . S
C1418 H1412 0.949 . S
C1418 C1422 1.368 . S
C1419 C1400 1.429 . S
C1419 C1413 1.429 . S
C1419 C1420 1.523 . S
C1420 C1401 1.368 . S
C1420 C1414 1.368 . S
C1420 C1419 1.523 . S
C1421 C1405 1.429 . S
C1421 C1417 1.429 . S
C1421 C1422 1.523 . S
C1422 C1406 1.368 . S
C1422 C1418 1.368 . S
C1422 C1421 1.523 . S
H1423 C1398 0.950 . S
H1424 C1400 0.950 . S
H1425 C1401 0.949 . S
H1426 C1403 0.950 . S
H1427 C1405 0.950 . S
C1428 C1429 1.349 . S
C1428 C1430 1.327 . S
C1428 H1453 0.950 . S
C1429 C1428 1.349 . S
C1429 C1445 1.349 . S
C1430 C1428 1.327 . S
C1430 C1449 1.429 . S
C1430 H1454 0.950 . S
C1431 C1448 1.574 . S
C1431 C1450 1.368 . S
C1431 H1455 0.949 . S
H1432 C1436 0.949 . S
C1433 C1434 1.349 . S
C1433 C1435 1.327 . S
C1433 H1456 0.950 . S
C1434 C1433 1.349 . S
C1434 C1446 1.349 . S
C1435 C1433 1.327 . S
C1435 C1451 1.429 . S
C1435 H1457 0.950 . S
C1436 H1432 0.949 . S
C1436 C1444 1.574 . S
C1436 C1452 1.368 . S
H1437 C1445 0.950 . S
H1438 C1443 0.950 . S
H1439 C1444 0.949 . S
H1440 C1446 0.950 . S
H1441 C1447 0.950 . S
H1442 C1448 0.949 . S
C1443 H1438 0.950 . S
C1443 C1445 1.327 . S
C1443 C1449 1.429 . S
C1444 C1436 1.574 . S
C1444 H1439 0.949 . S
C1444 C1450 1.368 . S
C1445 C1429 1.349 . S
C1445 H1437 0.950 . S
C1445 C1443 1.327 . S
C1446 C1434 1.349 . S
C1446 H1440 0.950 . S
C1446 C1447 1.327 . S
C1447 H1441 0.950 . S
C1447 C1446 1.327 . S
C1447 C1451 1.429 . S
C1448 C1431 1.574 . S
C1448 H1442 0.949 . S
C1448 C1452 1.368 . S
C1449 C1430 1.429 . S
C1449 C1443 1.429 . S
C1449 C1450 1.523 . S
C1450 C1431 1.368 . S
C1450 C1444 1.368 . S
C1450 C1449 1.523 . S
C1451 C1435 1.429 . S
C1451 C1447 1.429 . S
C1451 C1452 1.523 . S
C1452 C1436 1.368 . S
C1452 C1448 1.368 . S
C1452 C1451 1.523 . S
H1453 C1428 0.950 . S
H1454 C1430 0.950 . S
H1455 C1431 0.949 . S
H1456 C1433 0.950 . S
H1457 C1435 0.950 . S
C1458 C1459 1.349 . S
C1458 C1460 1.327 . S
C1458 H1483 0.950 . S
C1459 C1458 1.349 . S
C1459 C1475 1.349 . S
C1460 C1458 1.327 . S
C1460 C1479 1.429 . S
C1460 H1484 0.950 . S
C1461 C1478 1.574 . S
C1461 C1480 1.368 . S
C1461 H1485 0.949 . S
H1462 C1466 0.949 . S
C1463 C1464 1.349 . S
C1463 C1465 1.327 . S
C1463 H1486 0.950 . S
C1464 C1463 1.349 . S
C1464 C1476 1.349 . S
C1465 C1463 1.327 . S
C1465 C1481 1.429 . S
C1465 H1487 0.950 . S
C1466 H1462 0.949 . S
C1466 C1474 1.574 . S
C1466 C1482 1.368 . S
H1467 C1475 0.950 . S
H1468 C1473 0.950 . S
H1469 C1474 0.949 . S
H1470 C1476 0.950 . S
H1471 C1477 0.950 . S
H1472 C1478 0.949 . S
C1473 H1468 0.950 . S
C1473 C1475 1.327 . S
C1473 C1479 1.429 . S
C1474 C1466 1.574 . S
C1474 H1469 0.949 . S
C1474 C1480 1.368 . S
C1475 C1459 1.349 . S
C1475 H1467 0.950 . S
C1475 C1473 1.327 . S
C1476 C1464 1.349 . S
C1476 H1470 0.950 . S
C1476 C1477 1.327 . S
C1477 H1471 0.950 . S
C1477 C1476 1.327 . S
C1477 C1481 1.429 . S
C1478 C1461 1.574 . S
C1478 H1472 0.949 . S
C1478 C1482 1.368 . S
C1479 C1460 1.429 . S
C1479 C1473 1.429 . S
C1479 C1480 1.523 . S
C1480 C1461 1.368 . S
C1480 C1474 1.368 . S
C1480 C1479 1.523 . S
C1481 C1465 1.429 . S
C1481 C1477 1.429 . S
C1481 C1482 1.523 . S
C1482 C1466 1.368 . S
C1482 C1478 1.368 . S
C1482 C1481 1.523 . S
H1483 C1458 0.950 . S
H1484 C1460 0.950 . S
H1485 C1461 0.949 . S
H1486 C1463 0.950 . S
H1487 C1465 0.950 . S
C1488 C1489 1.349 . S
C1488 C1490 1.327 . S
C1488 H1513 0.950 . S
C1489 C1488 1.349 . S
C1489 C1505 1.349 . S
C1490 C1488 1.327 . S
C1490 C1509 1.429 . S
C1490 H1514 0.950 . S
C1491 C1508 1.574 . S
C1491 C1510 1.368 1_565 S
C1491 H1515 0.949 . S
H1492 C1496 0.949 . S
C1493 C1494 1.349 . S
C1493 C1495 1.327 . S
C1493 H1516 0.950 . S
C1494 C1493 1.349 . S
C1494 C1506 1.349 . S
C1495 C1493 1.327 . S
C1495 C1511 1.429 . S
C1495 H1517 0.950 . S
C1496 H1492 0.949 . S
C1496 C1504 1.574 . S
C1496 C1512 1.368 1_545 S
H1497 C1505 0.950 . S
H1498 C1503 0.950 . S
H1499 C1504 0.949 . S
H1500 C1506 0.950 . S
H1501 C1507 0.950 . S
H1502 C1508 0.949 . S
C1503 H1498 0.950 . S
C1503 C1505 1.327 . S
C1503 C1509 1.429 . S
C1504 C1496 1.574 . S
C1504 H1499 0.949 . S
C1504 C1510 1.368 . S
C1505 C1489 1.349 . S
C1505 H1497 0.950 . S
C1505 C1503 1.327 . S
C1506 C1494 1.349 . S
C1506 H1500 0.950 . S
C1506 C1507 1.327 . S
C1507 H1501 0.950 . S
C1507 C1506 1.327 . S
C1507 C1511 1.429 . S
C1508 C1491 1.574 . S
C1508 H1502 0.949 . S
C1508 C1512 1.368 . S
C1509 C1490 1.429 . S
C1509 C1503 1.429 . S
C1509 C1510 1.523 . S
C1510 C1491 1.368 1_545 S
C1510 C1504 1.368 . S
C1510 C1509 1.523 . S
C1511 C1495 1.429 . S
C1511 C1507 1.429 . S
C1511 C1512 1.523 . S
C1512 C1496 1.368 1_565 S
C1512 C1508 1.368 . S
C1512 C1511 1.523 . S
H1513 C1488 0.950 . S
H1514 C1490 0.950 . S
H1515 C1491 0.949 . S
H1516 C1493 0.950 . S
H1517 C1495 0.950 . S
C1518 C1519 1.349 . S
C1518 C1520 1.327 . S
C1518 H1543 0.950 . S
C1519 C1518 1.349 . S
C1519 C1535 1.349 . S
C1520 C1518 1.327 . S
C1520 C1539 1.429 . S
C1520 H1544 0.950 . S
C1521 C1538 1.574 . S
C1521 C1540 1.368 . S
C1521 H1545 0.949 . S
H1522 C1526 0.949 . S
C1523 C1524 1.349 . S
C1523 C1525 1.327 . S
C1523 H1546 0.950 . S
C1524 C1523 1.349 . S
C1524 C1536 1.349 . S
C1525 C1523 1.327 . S
C1525 C1541 1.429 . S
C1525 H1547 0.950 . S
C1526 H1522 0.949 . S
C1526 C1534 1.574 . S
C1526 C1542 1.368 . S
H1527 C1535 0.950 . S
H1528 C1533 0.950 . S
H1529 C1534 0.949 . S
H1530 C1536 0.950 . S
H1531 C1537 0.950 . S
H1532 C1538 0.949 . S
C1533 H1528 0.950 . S
C1533 C1535 1.327 . S
C1533 C1539 1.429 . S
C1534 C1526 1.574 . S
C1534 H1529 0.949 . S
C1534 C1540 1.368 1_455 S
C1535 C1519 1.349 . S
C1535 H1527 0.950 . S
C1535 C1533 1.327 . S
C1536 C1524 1.349 . S
C1536 H1530 0.950 . S
C1536 C1537 1.327 . S
C1537 H1531 0.950 . S
C1537 C1536 1.327 . S
C1537 C1541 1.429 . S
C1538 C1521 1.574 . S
C1538 H1532 0.949 . S
C1538 C1542 1.368 1_655 S
C1539 C1520 1.429 . S
C1539 C1533 1.429 . S
C1539 C1540 1.523 . S
C1540 C1521 1.368 . S
C1540 C1534 1.368 1_655 S
C1540 C1539 1.523 . S
C1541 C1525 1.429 . S
C1541 C1537 1.429 . S
C1541 C1542 1.523 . S
C1542 C1526 1.368 . S
C1542 C1538 1.368 1_455 S
C1542 C1541 1.523 . S
H1543 C1518 0.950 . S
H1544 C1520 0.950 . S
H1545 C1521 0.949 . S
H1546 C1523 0.950 . S
H1547 C1525 0.950 . S
C1548 C1549 1.349 . S
C1548 C1550 1.327 . S
C1548 H1573 0.950 . S
C1549 C1548 1.349 . S
C1549 C1565 1.349 . S
C1550 C1548 1.327 . S
C1550 C1569 1.429 . S
C1550 H1574 0.950 . S
C1551 C1568 1.574 . S
C1551 C1570 1.368 1_545 S
C1551 H1575 0.949 . S
H1552 C1556 0.949 . S
C1553 C1554 1.349 . S
C1553 C1555 1.327 . S
C1553 H1576 0.950 . S
C1554 C1553 1.349 . S
C1554 C1566 1.349 . S
C1555 C1553 1.327 . S
C1555 C1571 1.429 . S
C1555 H1577 0.950 . S
C1556 H1552 0.949 . S
C1556 C1564 1.574 . S
C1556 C1572 1.368 1_565 S
H1557 C1565 0.950 . S
H1558 C1563 0.950 . S
H1559 C1564 0.949 . S
H1560 C1566 0.950 . S
H1561 C1567 0.950 . S
H1562 C1568 0.949 . S
C1563 H1558 0.950 . S
C1563 C1565 1.327 . S
C1563 C1569 1.429 . S
C1564 C1556 1.574 . S
C1564 H1559 0.949 . S
C1564 C1570 1.368 . S
C1565 C1549 1.349 . S
C1565 H1557 0.950 . S
C1565 C1563 1.327 . S
C1566 C1554 1.349 . S
C1566 H1560 0.950 . S
C1566 C1567 1.327 . S
C1567 H1561 0.950 . S
C1567 C1566 1.327 . S
C1567 C1571 1.429 . S
C1568 C1551 1.574 . S
C1568 H1562 0.949 . S
C1568 C1572 1.368 . S
C1569 C1550 1.429 . S
C1569 C1563 1.429 . S
C1569 C1570 1.523 . S
C1570 C1551 1.368 1_565 S
C1570 C1564 1.368 . S
C1570 C1569 1.523 . S
C1571 C1555 1.429 . S
C1571 C1567 1.429 . S
C1571 C1572 1.523 . S
C1572 C1556 1.368 1_545 S
C1572 C1568 1.368 . S
C1572 C1571 1.523 . S
H1573 C1548 0.950 . S
H1574 C1550 0.950 . S
H1575 C1551 0.949 . S
H1576 C1553 0.950 . S
H1577 C1555 0.950 . S
C1578 C1579 1.349 . S
C1578 C1580 1.327 . S
C1578 H1603 0.950 . S
C1579 C1578 1.349 . S
C1579 C1595 1.349 . S
C1580 C1578 1.327 . S
C1580 C1599 1.429 . S
C1580 H1604 0.950 . S
C1581 C1598 1.574 . S
C1581 C1600 1.368 . S
C1581 H1605 0.949 . S
H1582 C1586 0.949 . S
C1583 C1584 1.349 . S
C1583 C1585 1.327 . S
C1583 H1606 0.950 . S
C1584 C1583 1.349 . S
C1584 C1596 1.349 . S
C1585 C1583 1.327 . S
C1585 C1601 1.429 . S
C1585 H1607 0.950 . S
C1586 H1582 0.949 . S
C1586 C1594 1.574 . S
C1586 C1602 1.368 . S
H1587 C1595 0.950 . S
H1588 C1593 0.950 . S
H1589 C1594 0.949 . S
H1590 C1596 0.950 . S
H1591 C1597 0.950 . S
H1592 C1598 0.949 . S
C1593 H1588 0.950 . S
C1593 C1595 1.327 . S
C1593 C1599 1.429 . S
C1594 C1586 1.574 . S
C1594 H1589 0.949 . S
C1594 C1600 1.368 1_455 S
C1595 C1579 1.349 . S
C1595 H1587 0.950 . S
C1595 C1593 1.327 . S
C1596 C1584 1.349 . S
C1596 H1590 0.950 . S
C1596 C1597 1.327 . S
C1597 H1591 0.950 . S
C1597 C1596 1.327 . S
C1597 C1601 1.429 . S
C1598 C1581 1.574 . S
C1598 H1592 0.949 . S
C1598 C1602 1.368 1_655 S
C1599 C1580 1.429 . S
C1599 C1593 1.429 . S
C1599 C1600 1.523 . S
C1600 C1581 1.368 . S
C1600 C1594 1.368 1_655 S
C1600 C1599 1.523 . S
C1601 C1585 1.429 . S
C1601 C1597 1.429 . S
C1601 C1602 1.523 . S
C1602 C1586 1.368 . S
C1602 C1598 1.368 1_455 S
C1602 C1601 1.523 . S
H1603 C1578 0.950 . S
H1604 C1580 0.950 . S
H1605 C1581 0.949 . S
H1606 C1583 0.950 . S
H1607 C1585 0.950 . S
C1608 C1609 1.349 . S
C1608 C1610 1.327 . S
C1608 H1633 0.950 . S
C1609 C1608 1.349 . S
C1609 C1625 1.349 . S
C1610 C1608 1.327 . S
C1610 C1629 1.429 . S
C1610 H1634 0.950 . S
C1611 C1628 1.571 . S
C1611 C1630 1.368 . S
C1611 H1635 0.949 . S
H1612 C1616 0.949 . S
C1613 C1614 1.349 . S
C1613 C1615 1.327 . S
C1613 H1636 0.950 . S
C1614 C1613 1.349 . S
C1614 C1626 1.349 . S
C1615 C1613 1.327 . S
C1615 C1631 1.429 . S
C1615 H1637 0.950 . S
C1616 H1612 0.949 . S
C1616 C1624 1.571 . S
C1616 C1632 1.368 . S
H1617 C1625 0.950 . S
H1618 C1623 0.950 . S
H1619 C1624 0.949 1_556 S
H1620 C1626 0.950 . S
H1621 C1627 0.950 . S
H1622 C1628 0.949 1_554 S
C1623 H1618 0.950 . S
C1623 C1625 1.327 . S
C1623 C1629 1.429 . S
C1624 C1616 1.571 . S
C1624 H1619 0.949 1_554 S
C1624 C1630 1.371 1_554 S
C1625 C1609 1.349 . S
C1625 H1617 0.950 . S
C1625 C1623 1.327 . S
C1626 C1614 1.349 . S
C1626 H1620 0.950 . S
C1626 C1627 1.327 . S
C1627 H1621 0.950 . S
C1627 C1626 1.327 . S
C1627 C1631 1.429 . S
C1628 C1611 1.571 . S
C1628 H1622 0.949 1_556 S
C1628 C1632 1.371 1_556 S
C1629 C1610 1.429 . S
C1629 C1623 1.429 . S
C1629 C1630 1.523 . S
C1630 C1611 1.368 . S
C1630 C1624 1.371 1_556 S
C1630 C1629 1.523 . S
C1631 C1615 1.429 . S
C1631 C1627 1.429 . S
C1631 C1632 1.523 . S
C1632 C1616 1.368 . S
C1632 C1628 1.371 1_554 S
C1632 C1631 1.523 . S
H1633 C1608 0.950 . S
H1634 C1610 0.950 . S
H1635 C1611 0.949 . S
H1636 C1613 0.950 . S
H1637 C1615 0.950 . S
C1638 C1639 1.349 . S
C1638 C1640 1.327 . S
C1638 H1663 0.950 . S
C1639 C1638 1.349 . S
C1639 C1655 1.349 . S
C1640 C1638 1.327 . S
C1640 C1659 1.429 . S
C1640 H1664 0.950 . S
C1641 C1658 1.574 1_556 S
C1641 C1660 1.368 . S
C1641 H1665 0.949 . S
H1642 C1646 0.949 . S
C1643 C1644 1.349 . S
C1643 C1645 1.327 . S
C1643 H1666 0.950 . S
C1644 C1643 1.349 . S
C1644 C1656 1.349 . S
C1645 C1643 1.327 . S
C1645 C1661 1.429 . S
C1645 H1667 0.950 . S
C1646 H1642 0.949 . S
C1646 C1654 1.574 1_554 S
C1646 C1662 1.368 . S
H1647 C1655 0.950 . S
H1648 C1653 0.950 . S
H1649 C1654 0.949 . S
H1650 C1656 0.950 . S
H1651 C1657 0.950 . S
H1652 C1658 0.949 . S
C1653 H1648 0.950 . S
C1653 C1655 1.327 . S
C1653 C1659 1.429 . S
C1654 C1646 1.574 1_556 S
C1654 H1649 0.949 . S
C1654 C1660 1.368 . S
C1655 C1639 1.349 . S
C1655 H1647 0.950 . S
C1655 C1653 1.327 . S
C1656 C1644 1.349 . S
C1656 H1650 0.950 . S
C1656 C1657 1.327 . S
C1657 H1651 0.950 . S
C1657 C1656 1.327 . S
C1657 C1661 1.429 . S
C1658 C1641 1.574 1_554 S
C1658 H1652 0.949 . S
C1658 C1662 1.368 . S
C1659 C1640 1.429 . S
C1659 C1653 1.429 . S
C1659 C1660 1.523 . S
C1660 C1641 1.368 . S
C1660 C1654 1.368 . S
C1660 C1659 1.523 . S
C1661 C1645 1.429 . S
C1661 C1657 1.429 . S
C1661 C1662 1.523 . S
C1662 C1646 1.368 . S
C1662 C1658 1.368 . S
C1662 C1661 1.523 . S
H1663 C1638 0.950 . S
H1664 C1640 0.950 . S
H1665 C1641 0.949 . S
H1666 C1643 0.950 . S
H1667 C1645 0.950 . S
C1668 C1669 1.349 . S
C1668 C1670 1.327 . S
C1668 H1693 0.950 . S
C1669 C1668 1.349 . S
C1669 C1685 1.349 . S
C1670 C1668 1.327 . S
C1670 C1689 1.429 . S
C1670 H1694 0.950 . S
C1671 C1688 1.574 1_554 S
C1671 C1690 1.368 . S
C1671 H1695 0.949 . S
H1672 C1676 0.949 . S
C1673 C1674 1.349 . S
C1673 C1675 1.327 . S
C1673 H1696 0.950 . S
C1674 C1673 1.349 . S
C1674 C1686 1.349 . S
C1675 C1673 1.327 . S
C1675 C1691 1.429 . S
C1675 H1697 0.950 . S
C1676 H1672 0.949 . S
C1676 C1684 1.574 1_556 S
C1676 C1692 1.368 . S
H1677 C1685 0.950 . S
H1678 C1683 0.950 . S
H1679 C1684 0.949 . S
H1680 C1686 0.950 . S
H1681 C1687 0.950 . S
H1682 C1688 0.949 . S
C1683 H1678 0.950 . S
C1683 C1685 1.327 . S
C1683 C1689 1.429 . S
C1684 C1676 1.574 1_554 S
C1684 H1679 0.949 . S
C1684 C1690 1.368 . S
C1685 C1669 1.349 . S
C1685 H1677 0.950 . S
C1685 C1683 1.327 . S
C1686 C1674 1.349 . S
C1686 H1680 0.950 . S
C1686 C1687 1.327 . S
C1687 H1681 0.950 . S
C1687 C1686 1.327 . S
C1687 C1691 1.429 . S
C1688 C1671 1.574 1_556 S
C1688 H1682 0.949 . S
C1688 C1692 1.368 . S
C1689 C1670 1.429 . S
C1689 C1683 1.429 . S
C1689 C1690 1.523 . S
C1690 C1671 1.368 . S
C1690 C1684 1.368 . S
C1690 C1689 1.523 . S
C1691 C1675 1.429 . S
C1691 C1687 1.429 . S
C1691 C1692 1.523 . S
C1692 C1676 1.368 . S
C1692 C1688 1.368 . S
C1692 C1691 1.523 . S
H1693 C1668 0.950 . S
H1694 C1670 0.950 . S
H1695 C1671 0.949 . S
H1696 C1673 0.950 . S
H1697 C1675 0.950 . S
C1698 C1699 1.349 . S
C1698 C1700 1.327 . S
C1698 H1723 0.950 . S
C1699 C1698 1.349 . S
C1699 C1715 1.349 . S
C1700 C1698 1.327 . S
C1700 C1719 1.429 . S
C1700 H1724 0.950 . S
C1701 C1718 1.574 1_556 S
C1701 C1720 1.368 . S
C1701 H1725 0.949 . S
H1702 C1706 0.949 . S
C1703 C1704 1.349 . S
C1703 C1705 1.327 . S
C1703 H1726 0.950 . S
C1704 C1703 1.349 . S
C1704 C1716 1.349 . S
C1705 C1703 1.327 . S
C1705 C1721 1.429 . S
C1705 H1727 0.950 . S
C1706 H1702 0.949 . S
C1706 C1714 1.574 1_554 S
C1706 C1722 1.368 . S
H1707 C1715 0.950 . S
H1708 C1713 0.950 . S
H1709 C1714 0.949 . S
H1710 C1716 0.950 . S
H1711 C1717 0.950 . S
H1712 C1718 0.949 . S
C1713 H1708 0.950 . S
C1713 C1715 1.327 . S
C1713 C1719 1.429 . S
C1714 C1706 1.574 1_556 S
C1714 H1709 0.949 . S
C1714 C1720 1.368 . S
C1715 C1699 1.349 . S
C1715 H1707 0.950 . S
C1715 C1713 1.327 . S
C1716 C1704 1.349 . S
C1716 H1710 0.950 . S
C1716 C1717 1.327 . S
C1717 H1711 0.950 . S
C1717 C1716 1.327 . S
C1717 C1721 1.429 . S
C1718 C1701 1.574 1_554 S
C1718 H1712 0.949 . S
C1718 C1722 1.368 . S
C1719 C1700 1.429 . S
C1719 C1713 1.429 . S
C1719 C1720 1.523 . S
C1720 C1701 1.368 . S
C1720 C1714 1.368 . S
C1720 C1719 1.523 . S
C1721 C1705 1.429 . S
C1721 C1717 1.429 . S
C1721 C1722 1.523 . S
C1722 C1706 1.368 . S
C1722 C1718 1.368 . S
C1722 C1721 1.523 . S
H1723 C1698 0.950 . S
H1724 C1700 0.950 . S
H1725 C1701 0.949 . S
H1726 C1703 0.950 . S
H1727 C1705 0.950 . S
C529 C18 1.858 . S
C534 N101 1.742 . S
C559 N2 1.742 . S
C564 C51 1.859 . S
C589 C84 1.859 . S
C594 N35 1.742 . S
C619 N68 1.742 . S
C624 C117 1.858 . S
C649 N167 1.742 . S
C654 C150 1.858 . S
C679 N200 1.742 . S
C684 C183 1.859 . S
C709 N233 1.742 . S
C714 C216 1.859 . S
C739 C249 1.858 . S
C744 N134 1.742 . S
C769 C282 1.858 . S
C774 N365 1.742 . S
C799 C315 1.859 . S
C804 N266 1.742 . S
C829 C348 1.859 . S
C834 N299 1.742 . S
C859 N332 1.742 . S
C864 C381 1.858 . S
C889 N431 1.742 . S
C894 C414 1.858 . S
C919 C447 1.859 . S
C924 N464 1.742 . S
C949 C480 1.859 . S
C954 N497 1.742 . S
C979 C513 1.858 . S
C984 N398 1.742 . S
C1009 C7 0.734 . S
C1014 C172 0.734 . S
C1039 C40 0.734 . S
C1044 C205 0.734 . S
C1069 C238 0.734 . S
C1074 C73 0.734 . S
C1099 C106 0.734 . S
C1104 C139 0.734 . S
C1129 C271 0.734 . S
C1134 C436 0.734 . S
C1159 C304 0.734 . S
C1164 C469 0.734 . S
C1189 C337 0.734 . S
C1194 C502 0.734 . S
C1219 C370 0.734 . S
C1224 C403 0.734 . S
C1249 C21 0.233 . S
C1254 C516 0.233 . S
C1279 C417 0.233 . S
C1284 C54 0.233 . S
C1309 C87 0.233 . S
C1314 C450 0.233 . S
C1339 C120 0.233 . S
C1344 C483 0.233 . S
C1369 C318 0.233 . S
C1374 C153 0.233 . S
C1399 C351 0.233 . S
C1404 C186 0.233 . S
C1429 C384 0.233 . S
C1434 C219 0.233 . S
C1459 C285 0.233 . S
C1464 C252 0.233 . S
C1489 N13 0.641 . S
C1494 N145 0.641 . S
C1519 N46 0.641 . S
C1524 N178 0.641 . S
C1549 N79 0.641 . S
C1554 N211 0.641 . S
C1579 N244 0.641 . S
C1584 N112 0.641 . S
C1609 N277 0.641 . S
C1614 N409 0.641 . S
C1639 N310 0.641 . S
C1644 N442 0.641 . S
C1669 N475 0.641 . S
C1674 N343 0.641 . S
C1699 N376 0.641 . S
C1704 N508 0.641 . S
