# Generated by pormake.
# Topology rob, (6)-cn, num edge types: 1
# Building blocks:
#     Node 0, Type 0, BuildingBlock: PAMTUU_clean_sbu_0, # of connection points: 6
#     Node 1, Type 0, BuildingBlock: PAMTUU_clean_sbu_0, # of connection points: 6
#     Node 2, Type 0, BuildingBlock: PAMTUU_clean_sbu_0, # of connection points: 6
#     Node 3, Type 0, BuildingBlock: PAMTUU_clean_sbu_0, # of connection points: 6
#     Edge 4, Type (0, 0), BuildingBlock: TEMPAE_clean_linker_10, # of connection points: 2
#     Edge 5, Type (0, 0), BuildingBlock: TEMPAE_clean_linker_10, # of connection points: 2
#     Edge 6, Type (0, 0), BuildingBlock: TEMPAE_clean_linker_10, # of connection points: 2
#     Edge 7, Type (0, 0), BuildingBlock: TEMPAE_clean_linker_10, # of connection points: 2
#     Edge 8, Type (0, 0), BuildingBlock: TEMPAE_clean_linker_10, # of connection points: 2
#     Edge 9, Type (0, 0), BuildingBlock: TEMPAE_clean_linker_10, # of connection points: 2
#     Edge 10, Type (0, 0), BuildingBlock: TEMPAE_clean_linker_10, # of connection points: 2
#     Edge 11, Type (0, 0), BuildingBlock: TEMPAE_clean_linker_10, # of connection points: 2
#     Edge 12, Type (0, 0), BuildingBlock: TEMPAE_clean_linker_10, # of connection points: 2
#     Edge 13, Type (0, 0), BuildingBlock: TEMPAE_clean_linker_10, # of connection points: 2
#     Edge 14, Type (0, 0), BuildingBlock: TEMPAE_clean_linker_10, # of connection points: 2
#     Edge 15, Type (0, 0), BuildingBlock: TEMPAE_clean_linker_10, # of connection points: 2
# Relax obj value: 0.147
# Max RMSD: 0.212
# Mean RMSD: 0.212
data_MOF--net-rob--node1-PAMTUU_clean_sbu_0--edge1-TEMPAE_clean_linker_10
_symmetry_space_group_name_H-M    P1
_symmetry_Int_Tables_number       1
_symmetry_cell_setting            triclinic
loop_
_symmetry_equiv_pos_as_xyz
'x, y, z'
_cell_length_a     18.22112
_cell_length_b     24.56564
_cell_length_c     36.58487
_cell_angle_alpha  89.924825
_cell_angle_beta   55.537071
_cell_angle_gamma 90.180641
loop_
_atom_site_label
_atom_site_type_symbol
_atom_site_fract_x
_atom_site_fract_y
_atom_site_fract_z
_atom_type_partial_charge
Tb0 Tb 0.20695 0.26759 0.99695 0.0
Tb1 Tb 0.33574 0.18505 0.01077 0.0
C2 C 0.36396 0.31075 0.00089 0.0
C3 C 0.09003 0.32435 0.9491 0.0
C4 C 0.05557 0.32388 0.88274 0.0
C5 C 0.02974 0.36822 0.91191 0.0
C6 C 0.047 0.36845 0.94467 0.0
C7 C 0.11405 0.27937 0.92089 0.0
C8 C 0.09694 0.2791 0.88805 0.0
C9 C 0.11659 0.32777 0.98035 0.0
O10 O 0.28519 0.22047 0.93716 0.0
O11 O 0.40481 0.1956 0.93917 0.0
O12 O 0.26281 0.13164 0.9951 0.0
O13 O 0.14407 0.18767 0.01481 0.0
O14 O 0.45831 0.16983 0.00217 0.0
O15 O 0.3475 0.11448 0.03943 0.0
O16 O 0.21137 0.19871 0.07433 0.0
O17 O 0.17111 0.28264 0.06371 0.0
O18 O 0.32373 0.3136 0.9805 0.0
O19 O 0.3599 0.26727 0.02268 0.0
C20 C 0.36674 0.20241 0.91775 0.0
O21 O 0.08147 0.29229 0.01265 0.0
O22 O 0.20179 0.33319 0.96181 0.0
C23 C 0.18226 0.13957 0.00499 0.0
C24 C 0.43618 0.12996 0.06642 0.0
C25 C 0.45476 0.13278 0.13815 0.0
C26 C 0.51683 0.1049 0.09877 0.0
C27 C 0.5075 0.10348 0.0633 0.0
C28 C 0.37438 0.15815 0.10543 0.0
C29 C 0.38335 0.15939 0.14096 0.0
C30 C 0.42625 0.12819 0.02912 0.0
C31 C 0.16933 0.24509 0.08981 0.0
H32 H 0.99659 0.40298 0.90927 0.0
H33 H 0.02833 0.40363 0.96598 0.0
H34 H 0.14803 0.24509 0.92354 0.0
H35 H 0.11865 0.24454 0.86595 0.0
H36 H 0.57338 0.08469 0.09509 0.0
H37 H 0.55612 0.08178 0.03339 0.0
H38 H 0.31882 0.17899 0.10851 0.0
H39 H 0.33361 0.18065 0.17086 0.0
Tb40 Tb 0.69546 0.7704 0.99348 0.0
Tb41 Tb 0.83876 0.69416 -0.00015 0.0
C42 C 0.85656 0.82067 0.98881 0.0
C43 C 0.5744 0.82377 0.94717 0.0
C44 C 0.54487 0.82406 0.87895 0.0
C45 C 0.53349 0.87175 0.903 0.0
C46 C 0.54792 0.87151 0.93676 0.0
C47 C 0.58634 0.7761 0.92327 0.0
C48 C 0.57123 0.77614 0.88974 0.0
C49 C 0.59368 0.82496 0.98133 0.0
O50 O 0.81265 0.75649 0.92716 0.0
O51 O 0.86756 0.67626 0.93503 0.0
O52 O 0.71705 0.64787 0.02422 0.0
O53 O 0.67835 0.68706 0.98086 0.0
O54 O 0.96579 0.6804 0.98659 0.0
O55 O 0.85817 0.62402 0.02628 0.0
O56 O 0.76539 0.74091 0.05976 0.0
O57 O 0.63633 0.75728 0.06413 0.0
O58 O 0.77094 0.82501 0.00672 0.0
O59 O 0.89843 0.77407 0.9737 0.0
C60 C 0.85837 0.71127 0.91071 0.0
O61 O 0.56759 0.78283 0.00779 0.0
O62 O 0.67415 0.84016 0.9674 0.0
C63 C 0.67699 0.64572 0.00373 0.0
C64 C 0.95381 0.64013 0.04929 0.0
C65 C 0.97356 0.64231 0.12073 0.0
C66 C 0.93662 0.59658 0.11363 0.0
C67 C 0.92735 0.59541 0.0782 0.0
C68 C 0.99145 0.68581 0.05613 0.0
C69 C 1.0016 0.68673 0.09135 0.0
C70 C 0.93769 0.63909 0.01381 0.0
C71 C 0.68057 0.75278 0.08267 0.0
H72 H 0.51505 0.9097 0.89523 0.0
H73 H 0.53951 0.90892 0.95439 0.0
H74 H 0.60774 0.73884 0.93039 0.0
H75 H 0.57968 0.73843 0.8725 0.0
H76 H 0.91537 0.56148 0.13536 0.0
H77 H 0.89832 0.55966 0.0737 0.0
H78 H 1.01206 0.72114 0.03468 0.0
H79 H 0.02973 0.72268 0.09615 0.0
Tb80 Tb 0.32332 0.77172 0.50543 0.0
Tb81 Tb 0.19103 0.69064 0.49272 0.0
C82 C 0.17654 0.81867 0.49658 0.0
C83 C 0.42759 0.82801 0.5597 0.0
C84 C 0.45035 0.82755 0.63024 0.0
C85 C 0.45227 0.8767 0.60977 0.0
C86 C 0.44127 0.87684 0.57485 0.0
C87 C 0.42442 0.77888 0.58027 0.0
C88 C 0.43618 0.77861 0.61494 0.0
C89 C 0.41392 0.82915 0.52354 0.0
O90 O 0.19724 0.75905 0.56855 0.0
O91 O 0.15397 0.67521 0.55944 0.0
O92 O 0.30491 0.64286 0.47851 0.0
O93 O 0.34093 0.68979 0.52046 0.0
O94 O 0.06421 0.67048 0.50777 0.0
O95 O 0.17975 0.62392 0.46044 0.0
O96 O 0.27708 0.73232 0.43063 0.0
O97 O 0.39528 0.75707 0.43438 0.0
O98 O 0.25948 0.82378 0.48386 0.0
O99 O 0.13338 0.772 0.51081 0.0
C100 C 0.15563 0.71238 0.58467 0.0
O101 O 0.44623 0.78837 0.49588 0.0
O102 O 0.33392 0.84171 0.53525 0.0
C103 C 0.34385 0.6457 0.49963 0.0
C104 C 0.07314 0.63701 0.44468 0.0
C105 C 0.04286 0.64016 0.37694 0.0
C106 C 0.01683 0.59455 0.40513 0.0
C107 C 0.03192 0.59302 0.43864 0.0
C108 C 0.09806 0.68297 0.41716 0.0
C109 C 0.08287 0.6846 0.38369 0.0
C110 C 0.09606 0.63298 0.47731 0.0
C111 C 0.36018 0.7471 0.41195 0.0
H112 H 0.46111 0.91531 0.62107 0.0
H113 H 0.4428 0.91526 0.55984 0.0
H114 H 0.41299 0.74064 0.56949 0.0
H115 H 0.43525 0.73987 0.62934 0.0
H116 H 0.98494 0.55993 0.40121 0.0
H117 H 1.01271 0.55708 0.45939 0.0
H118 H 0.13091 0.71713 0.42099 0.0
H119 H 0.10473 0.72005 0.36229 0.0
Tb120 Tb 0.8349 0.2799 0.50995 0.0
Tb121 Tb 0.70079 0.19974 0.49934 0.0
C122 C 0.67715 0.32654 0.50948 0.0
C123 C 0.94682 0.33473 0.56123 0.0
C124 C 0.97198 0.33245 0.63096 0.0
C125 C 0.92864 0.37646 0.62632 0.0
C126 C 0.91665 0.3777 0.59176 0.0
C127 C 0.99072 0.29079 0.56565 0.0
C128 C 1.00341 0.2898 0.60002 0.0
C129 C 0.93006 0.33601 0.52592 0.0
O130 O 0.71348 0.26523 0.5748 0.0
O131 O 0.67138 0.18162 0.56455 0.0
O132 O 0.8221 0.15551 0.47723 0.0
O133 O 0.85706 0.19693 0.52132 0.0
O134 O 0.57305 0.17866 0.51597 0.0
O135 O 0.6883 0.13274 0.4677 0.0
O136 O 0.77599 0.24768 0.43936 0.0
O137 O 0.90006 0.26851 0.43871 0.0
O138 O 0.76119 0.33322 0.49467 0.0
O139 O 0.63751 0.27881 0.52279 0.0
C140 C 0.67158 0.21854 0.59045 0.0
O141 O 0.9604 0.29562 0.49789 0.0
O142 O 0.84981 0.34954 0.53855 0.0
C143 C 0.86227 0.15527 0.4977 0.0
C144 C 0.57808 0.14428 0.45419 0.0
C145 C 0.54133 0.14512 0.38875 0.0
C146 C 0.50988 0.10252 0.42002 0.0
C147 C 0.52838 0.10207 0.45234 0.0
C148 C 0.60781 0.18753 0.42381 0.0
C149 C 0.58976 0.18793 0.39136 0.0
C150 C 0.60401 0.14106 0.48567 0.0
C151 C 0.85951 0.26311 0.41836 0.0
H152 H 0.9046 0.41026 0.64926 0.0
H153 H 0.88304 0.4122 0.58908 0.0
H154 H 0.01462 0.25686 0.54286 0.0
H155 H 0.03639 0.25509 0.60289 0.0
H156 H 0.47325 0.06866 0.4187 0.0
H157 H 0.50546 0.06813 0.4753 0.0
H158 H 0.64624 0.22053 0.42474 0.0
H159 H 0.61401 0.22171 0.36821 0.0
C160 C 0.57904 0.56566 0.04318 0.0
C161 C 0.63433 0.59497 0.00387 0.0
C162 C 0.53463 0.51861 0.04364 0.0
C163 C 0.54908 0.49972 0.00348 0.0
C164 C 0.6076 0.52836 0.96343 0.0
C165 C 0.64823 0.57635 0.96429 0.0
C166 C 0.47052 0.49002 0.08716 0.0
C167 C 0.62708 0.50845 0.91972 0.0
C168 C 0.49074 0.35275 -0.00129 0.0
C169 C 0.4117 0.35885 0.00116 0.0
C170 C 0.5369 0.39838 -0.00106 0.0
C171 C 0.50107 0.45092 0.0034 0.0
C172 C 0.42014 0.45707 0.00682 0.0
C173 C 0.37717 0.41089 0.00486 0.0
C174 C 0.62456 0.39045 0.99369 0.0
C175 C 0.37864 0.51234 0.01289 0.0
H176 H 0.56829 0.58057 0.07374 0.0
H177 H 0.69203 0.59901 0.93384 0.0
H178 H 0.40298 0.48945 0.09389 0.0
H179 H 0.49081 0.44708 0.08543 0.0
H180 H 0.46671 0.51005 0.1154 0.0
H181 H 0.67895 0.53342 0.89126 0.0
H182 H 0.64968 0.46552 0.91421 0.0
H183 H 0.56557 0.50959 0.92033 0.0
H184 H 0.51738 0.31232 0.99565 0.0
H185 H 0.31532 0.41534 0.00732 0.0
H186 H 0.62075 0.40698 0.0229 0.0
H187 H 0.67792 0.41327 0.96418 0.0
H188 H 0.64385 0.34691 0.98985 0.0
H189 H 0.36944 0.53284 0.04222 0.0
H190 H 0.31311 0.50973 0.01738 0.0
H191 H 0.42352 0.53844 0.98363 0.0
C192 C 0.4121 0.59566 0.53251 0.0
C193 C 0.39024 0.59768 0.50141 0.0
C194 C 0.4569 0.55091 0.53465 0.0
C195 C 0.48127 0.50739 0.50466 0.0
C196 C 0.45916 0.50897 0.47328 0.0
C197 C 0.41331 0.55406 0.4722 0.0
C198 C 0.47849 0.55035 0.56891 0.0
C199 C 0.48499 0.4634 0.44051 0.0
C200 C 0.6721 0.41906 0.48286 0.0
C201 C 0.62685 0.37317 0.50902 0.0
C202 C 0.62548 0.46275 0.48065 0.0
C203 C 0.53138 0.46071 0.50571 0.0
C204 C 0.48523 0.41471 0.53248 0.0
C205 C 0.53364 0.37125 0.53357 0.0
C206 C 0.67693 0.511 0.4514 0.0
C207 C 0.38478 0.41153 0.56015 0.0
H208 H 0.39377 0.62901 0.55549 0.0
H209 H 0.3968 0.5555 0.44803 0.0
H210 H 0.44959 0.51346 0.59005 0.0
H211 H 0.55163 0.54862 0.55225 0.0
H212 H 0.45273 0.58683 0.59056 0.0
H213 H 0.46214 0.47065 0.41849 0.0
H214 H 0.55842 0.45874 0.41965 0.0
H215 H 0.45621 0.42433 0.45838 0.0
H216 H 0.74419 0.42051 0.46345 0.0
H217 H 0.49834 0.3359 0.55394 0.0
H218 H 0.65776 0.54844 0.47172 0.0
H219 H 0.66031 0.51747 0.42685 0.0
H220 H 0.75007 0.50566 0.43328 0.0
H221 H 0.35636 0.44609 0.5837 0.0
H222 H 0.35908 0.37291 0.57931 0.0
H223 H 0.36034 0.41496 0.53852 0.0
C224 C 0.13889 0.04187 0.01756 0.0
C225 C 0.13476 0.0932 0.00223 0.0
C226 C 0.09406 -0.00274 0.01486 0.0
C227 C 0.047 0.00408 0.9949 0.0
C228 C 0.04461 0.05572 0.9784 0.0
C229 C 0.08739 0.10001 0.98297 0.0
C230 C 0.09575 0.94315 0.03402 0.0
C231 C 0.99746 0.06409 0.95567 0.0
C232 C 0.99547 0.87578 0.95574 0.0
C233 C 0.90515 0.86824 0.98921 0.0
C234 C 0.04226 0.92069 0.95655 0.0
C235 C 0.99803 0.95753 0.9925 0.0
C236 C 0.90695 0.94964 0.0266 0.0
C237 C 0.86122 0.90545 0.02416 0.0
C238 C 0.13875 0.92872 0.91902 0.0
C239 C 0.85824 -0.0128 0.06608 0.0
H240 H 0.17564 0.03695 0.03249 0.0
H241 H 0.08569 0.13974 0.9705 0.0
H242 H 0.02674 0.92966 0.05962 0.0
H243 H 0.12604 0.91172 0.00774 0.0
H244 H 0.13385 0.94507 0.04928 0.0
H245 H 1.0063 0.1061 0.94245 0.0
H246 H 0.02297 0.03492 0.92789 0.0
H247 H 0.92522 0.05594 0.97928 0.0
H248 H 0.02914 0.84697 0.92866 0.0
H249 H 0.79155 0.89911 0.05037 0.0
H250 H 0.1814 0.92499 0.9316 0.0
H251 H 0.14917 0.97025 0.90484 0.0
H252 H 0.1613 0.89855 0.89209 0.0
H253 H 0.89254 -0.01185 0.08327 0.0
H254 H 0.78795 0.97451 0.09027 0.0
H255 H 0.85887 0.02933 0.05497 0.0
C256 C 0.93029 0.06485 0.46519 0.0
C257 C 0.91069 0.10615 0.49584 0.0
C258 C 0.97437 0.01745 0.46386 0.0
C259 C 0.99837 0.0111 0.49425 0.0
C260 C 0.97893 0.05266 0.52521 0.0
C261 C 0.93573 0.09987 0.52546 0.0
C262 C 0.99517 0.97418 0.43003 0.0
C263 C 1.00302 0.04704 0.55833 0.0
C264 C 0.03747 0.86877 0.51988 0.0
C265 C 0.13063 0.8671 0.49508 0.0
C266 C 0.99339 0.91541 0.51978 0.0
C267 C 0.04392 0.96094 0.49374 0.0
C268 C 0.138 0.95905 0.46791 0.0
C269 C 0.18024 0.91223 0.46913 0.0
C270 C 0.89285 0.91632 0.54811 0.0
C271 C 0.19402 0.00658 0.43922 0.0
H272 H 0.91147 0.0696 0.44207 0.0
H273 H 0.92037 0.13151 0.5494 0.0
H274 H 0.06785 0.96642 0.40896 0.0
H275 H 0.96196 0.93538 0.44703 0.0
H276 H 0.97324 -0.01418 0.40828 0.0
H277 H 0.98272 0.08302 0.58036 0.0
H278 H 0.97043 0.0103 0.57917 0.0
H279 H 0.07593 0.04159 0.54072 0.0
H280 H 0.99888 0.83404 0.54008 0.0
H281 H 0.25234 0.91093 0.44951 0.0
H282 H 0.8678 0.92468 0.52721 0.0
H283 H 0.86886 0.94962 0.57276 0.0
H284 H 0.86346 0.87731 0.5661 0.0
H285 H 0.17636 0.01721 0.41562 0.0
H286 H 0.26647 -0.00211 0.42003 0.0
H287 H 0.1803 0.04289 0.46014 0.0
C288 C 0.59494 0.15821 0.30915 0.0
C289 C 0.52606 0.14406 0.35276 0.0
C290 C 0.58248 0.15634 0.27461 0.0
C291 C 0.49893 0.14012 0.28378 0.0
C292 C 0.42884 0.12618 0.32778 0.0
C293 C 0.44336 0.12806 0.36165 0.0
C294 C 0.65911 0.1713 0.22818 0.0
C295 C 0.33859 0.10893 0.33908 0.0
C296 C 0.446 0.18211 0.20082 0.0
C297 C 0.46462 0.13433 0.17601 0.0
C298 C 0.45566 0.18431 0.23629 0.0
C299 C 0.48522 0.13773 0.24723 0.0
C300 C 0.50355 0.08926 0.22259 0.0
C301 C 0.4929 0.08811 0.18741 0.0
C302 C 0.43498 0.23672 0.26183 0.0
C303 C 0.53496 0.03862 0.23322 0.0
H304 H 0.65945 0.16982 0.30181 0.0
H305 H 0.38952 0.11751 0.39528 0.0
H306 H 0.67596 0.13621 0.20571 0.0
H307 H 0.63975 0.20538 0.21543 0.0
H308 H 0.7196 0.18352 0.22662 0.0
H309 H 0.2889 0.10449 0.37539 0.0
H310 H 0.31336 0.13902 0.32612 0.0
H311 H 0.34434 0.06936 0.3231 0.0
H312 H 0.42523 0.21827 0.19204 0.0
H313 H 0.50603 0.05071 0.16903 0.0
H314 H 0.49584 0.25235 0.25835 0.0
H315 H 0.38454 0.22923 0.29765 0.0
H316 H 0.40956 0.26868 0.25024 0.0
H317 H 0.5983 0.04723 0.2299 0.0
H318 H 0.5457 0.00407 0.21116 0.0
H319 H 0.48542 0.02606 0.26808 0.0
C320 C 0.67904 0.74343 0.15063 0.0
C321 C 0.63583 0.7606 0.13077 0.0
C322 C 0.63766 0.74708 0.19634 0.0
C323 C 0.55116 0.76909 0.22294 0.0
C324 C 0.50851 0.78886 0.20307 0.0
C325 C 0.55118 0.78391 0.15705 0.0
C326 C 0.68473 0.72451 0.21631 0.0
C327 C 0.41664 0.81336 0.23061 0.0
C328 C 0.40588 0.71245 0.33899 0.0
C329 C 0.41406 0.75247 0.36365 0.0
C330 C 0.4501 0.71764 0.29316 0.0
C331 C 0.50179 0.76483 0.27173 0.0
C332 C 0.5097 0.80579 0.29657 0.0
C333 C 0.46645 0.79872 0.34249 0.0
C334 C 0.44195 0.67236 0.26769 0.0
C335 C 0.5626 0.85717 0.27474 0.0
H336 H 0.74456 0.72525 0.13065 0.0
H337 H 0.51801 0.79778 0.1418 0.0
H338 H 0.68562 0.75496 0.23841 0.0
H339 H 0.64817 0.68821 0.23687 0.0
H340 H 0.75441 0.71242 0.19067 0.0
H341 H 0.39764 0.83305 0.20976 0.0
H342 H 0.36705 0.78108 0.25087 0.0
H343 H 0.41301 0.84399 0.25384 0.0
H344 H 0.36488 0.67678 0.35572 0.0
H345 H 0.47095 0.83001 0.36203 0.0
H346 H 0.50888 0.65616 0.24223 0.0
H347 H 0.41299 0.68823 0.2501 0.0
H348 H 0.39954 0.63822 0.28954 0.0
H349 H 0.63321 0.84702 0.24937 0.0
H350 H 0.55985 0.88577 0.29898 0.0
H351 H 0.53671 0.87815 0.25737 0.0
C352 C 0.58437 0.79358 0.80399 0.0
C353 C 0.53013 0.82449 0.8426 0.0
C354 C 0.57119 0.79357 0.76964 0.0
C355 C 0.50299 0.82593 0.77341 0.0
C356 C 0.44852 0.85761 0.81201 0.0
C357 C 0.46212 0.8561 0.84621 0.0
C358 C 0.63044 0.7589 0.72921 0.0
C359 C 0.37562 0.89311 0.81727 0.0
C360 C 0.52333 0.86379 0.66689 0.0
C361 C 0.46329 0.82737 0.6672 0.0
C362 C 0.53606 0.8642 0.70139 0.0
C363 C 0.48882 0.82667 0.73693 0.0
C364 C 0.4284 0.78968 0.73747 0.0
C365 C 0.41588 0.79076 0.70289 0.0
C366 C 0.60014 0.9049 0.69979 0.0
C367 C 0.37709 0.74877 0.77455 0.0
H368 H 0.63818 0.76978 0.80025 0.0
H369 H 0.41864 0.87943 0.87605 0.0
H370 H 0.58933 0.73019 0.72449 0.0
H371 H 0.66751 0.78501 0.69918 0.0
H372 H 0.67917 0.73511 0.73174 0.0
H373 H 0.34354 0.91832 0.84774 0.0
H374 H 0.40281 0.92056 0.78819 0.0
H375 H 0.32388 0.86732 0.81879 0.0
H376 H 0.5615 0.89172 0.63931 0.0
H377 H 0.36808 0.7631 0.70412 0.0
H378 H 0.65425 0.88329 0.69912 0.0
H379 H 0.56512 0.93039 0.73009 0.0
H380 H 0.63044 0.93207 0.67033 0.0
H381 H 0.42397 0.72276 0.7769 0.0
H382 H 0.33381 0.72215 0.76975 0.0
H383 H 0.33487 0.77016 0.80668 0.0
C384 C 0.61053 0.15447 0.65491 0.0
C385 C 0.62655 0.20781 0.63827 0.0
C386 C 0.57309 0.14467 0.70009 0.0
C387 C 0.55017 0.18934 0.72906 0.0
C388 C 0.56583 0.24317 0.71232 0.0
C389 C 0.60424 0.25167 0.66715 0.0
C390 C 0.55821 0.08676 0.71682 0.0
C391 C 0.54088 0.29199 0.74223 0.0
C392 C 0.36697 0.18504 0.85081 0.0
C393 C 0.41507 0.18956 0.87004 0.0
C394 C 0.41037 0.18099 0.80493 0.0
C395 C 0.5044 0.18093 0.77746 0.0
C396 C 0.55344 0.18115 0.79675 0.0
C397 C 0.50804 0.18557 0.84302 0.0
C398 C 0.35539 0.18117 0.78581 0.0
C399 C 0.65388 0.18045 0.76841 0.0
H400 H 0.62891 0.12045 0.63251 0.0
H401 H 0.6163 0.293 0.65448 0.0
H402 H 0.59223 0.07991 0.73376 0.0
H403 H 0.48617 0.07928 0.74164 0.0
H404 H 0.58311 0.05658 0.68971 0.0
H405 H 0.55879 0.33112 0.72375 0.0
H406 H 0.46814 0.29171 0.76801 0.0
H407 H 0.57489 0.29015 0.75953 0.0
H408 H 0.29489 0.1868 0.87151 0.0
H409 H 0.5455 0.18852 0.85771 0.0
H410 H 0.37813 0.14896 0.76042 0.0
H411 H 0.36391 0.22084 0.76924 0.0
H412 H 0.28334 0.17496 0.81168 0.0
H413 H 0.67906 0.14966 0.74176 0.0
H414 H 0.68133 0.1716 0.78823 0.0
H415 H 0.67948 0.22075 0.75222 0.0
C416 C 0.91123 0.62706 0.20117 0.0
C417 C 0.9824 0.64353 0.15878 0.0
C418 C 0.91896 0.62708 0.23729 0.0
C419 C 1.00012 0.64352 0.23086 0.0
C420 C 0.07208 0.66042 0.18816 0.0
C421 C 0.06219 0.66049 0.15271 0.0
C422 C 0.8403 0.60937 0.28233 0.0
C423 C 0.15994 0.67782 0.17978 0.0
C424 C 1.00026 0.68788 0.33063 0.0
C425 C 0.03041 0.64082 0.33998 0.0
C426 C 0.98962 0.68925 0.29544 0.0
C427 C 1.01005 0.64252 0.26869 0.0
C428 C 0.04031 0.59484 0.278 0.0
C429 C 0.04996 0.59455 0.31351 0.0
C430 C 0.95643 0.74072 0.28691 0.0
C431 C 0.0633 0.54422 0.25017 0.0
H432 H 0.849 0.61461 0.20618 0.0
H433 H 0.11764 0.6728 0.11996 0.0
H434 H 0.85829 0.57322 0.29386 0.0
H435 H 0.82182 0.64221 0.30686 0.0
H436 H 0.78123 0.59903 0.28204 0.0
H437 H 0.20906 0.6903 0.14479 0.0
H438 H 0.14974 0.71238 0.20166 0.0
H439 H 0.18847 0.64387 0.18791 0.0
H440 H 0.98401 0.7236 0.3512 0.0
H441 H 0.07448 0.55826 0.32005 0.0
H442 H 0.89451 0.73207 0.28884 0.0
H443 H 1.00648 0.75602 0.25295 0.0
H444 H 0.94264 0.77336 0.31098 0.0
H445 H 1.0046 0.5302 0.25084 0.0
H446 H 0.08555 0.51039 0.26184 0.0
H447 H 0.11701 0.55349 0.21513 0.0
C448 C 0.85965 0.27724 0.35096 0.0
C449 C 0.90775 0.27385 0.37023 0.0
C450 C 0.90305 0.28001 0.30497 0.0
C451 C 0.9971 0.27985 0.27743 0.0
C452 C 0.04629 0.2801 0.29663 0.0
C453 C 1.0009 0.27704 0.34297 0.0
C454 C 0.848 0.27929 0.2859 0.0
C455 C 0.14679 0.28033 0.26817 0.0
C456 C 0.09854 0.21063 0.16667 0.0
C457 C 0.12206 0.25495 0.13784 0.0
C458 C 0.05869 0.21844 0.21202 0.0
C459 C 0.04287 0.272 0.22899 0.0
C460 C 0.06676 0.3171 0.20012 0.0
C461 C 0.10559 0.30801 0.15477 0.0
C462 C 0.03288 0.1692 0.24181 0.0
C463 C 0.05179 0.37476 0.21712 0.0
H464 H 0.78755 0.27587 0.37176 0.0
H465 H 0.03846 0.27479 0.35763 0.0
H466 H 0.87077 0.31156 0.26038 0.0
H467 H 0.85651 0.23963 0.26946 0.0
H468 H 0.77595 0.28512 0.31175 0.0
H469 H 0.17481 0.28788 0.28793 0.0
H470 H 0.17135 0.24039 0.25146 0.0
H471 H 0.17255 0.31188 0.24188 0.0
H472 H 0.11105 0.16951 0.15378 0.0
H473 H 0.12492 0.3424 0.13245 0.0
H474 H 0.9601 0.16933 0.26752 0.0
H475 H 0.06669 0.17061 0.25922 0.0
H476 H 0.05039 0.13033 0.22322 0.0
H477 H 0.97977 0.38169 0.24208 0.0
H478 H 0.07643 0.40537 0.19016 0.0
H479 H 0.08606 0.38152 0.23395 0.0
C480 C 0.0658 0.31616 0.66037 0.0
C481 C 0.98382 0.33095 0.66809 0.0
C482 C 0.078 0.31502 0.69506 0.0
C483 C 1.00625 0.32849 0.73869 0.0
C484 C 0.92318 0.34318 0.74672 0.0
C485 C 0.9131 0.34442 0.71135 0.0
C486 C 0.1679 0.2997 0.68493 0.0
C487 C 0.84481 0.35748 0.79273 0.0
C488 C 0.01351 0.27834 0.83532 0.0
C489 C 0.04174 0.3251 0.84619 0.0
C490 C 1.00144 0.27891 0.80058 0.0
C491 C 0.01815 0.32737 0.77591 0.0
C492 C 0.04643 0.37475 0.78676 0.0
C493 C 0.05788 0.37303 0.82167 0.0
C494 C 0.97062 0.22761 0.79032 0.0
C495 C 0.06526 0.42723 0.76126 0.0
H496 H 0.12101 0.3063 0.62697 0.0
H497 H 0.84927 0.35526 0.71766 0.0
H498 H 0.19451 0.33342 0.69443 0.0
H499 H 0.16129 0.2635 0.70477 0.0
H500 H 0.21693 0.29051 0.64927 0.0
H501 H 0.78451 0.36754 0.79353 0.0
H502 H 0.82877 0.32293 0.8157 0.0
H503 H 0.86183 0.39286 0.80545 0.0
H504 H 0.99983 0.24131 0.85435 0.0
H505 H 0.08105 0.40916 0.82927 0.0
H506 H 0.02047 0.2151 0.75558 0.0
H507 H 0.90732 0.23531 0.79344 0.0
H508 H 0.96012 0.19336 0.81268 0.0
H509 H 0.11871 0.42078 0.72575 0.0
H510 H 0.08602 0.46062 0.77406 0.0
H511 H 1.00509 0.44037 0.76308 0.0
C512 C 0.14226 0.73122 0.65466 0.0
C513 C 0.11413 0.70136 0.63205 0.0
C514 C 0.10269 0.72343 0.69994 0.0
C515 C 0.03262 0.68515 0.72327 0.0
C516 C 1.00684 0.65281 0.70029 0.0
C517 C 0.04833 0.6612 0.65466 0.0
C518 C 0.13313 0.75816 0.72312 0.0
C519 C 0.93285 0.61127 0.72421 0.0
C520 C 0.96473 0.66048 0.84068 0.0
C521 C 0.89844 0.69996 0.8635 0.0
C522 C 1.00591 0.65247 0.79507 0.0
C523 C 0.97972 0.68474 0.77225 0.0
C524 C 0.90915 0.72222 0.79576 0.0
C525 C 0.86954 0.72942 0.84106 0.0
C526 C 0.08019 0.61157 0.77101 0.0
C527 C 0.87848 0.75697 0.77271 0.0
H528 H 0.19498 0.76126 0.63703 0.0
H529 H 0.02742 0.63755 0.63705 0.0
H530 H 0.0796 0.78705 0.74572 0.0
H531 H 0.14664 0.73244 0.7436 0.0
H532 H 0.19425 0.78194 0.6994 0.0
H533 H 0.93 0.58403 0.70082 0.0
H534 H 0.94124 0.58605 0.74678 0.0
H535 H 0.8681 0.63249 0.74489 0.0
H536 H 0.98636 0.63708 0.85807 0.0
H537 H 0.8166 0.75899 0.85874 0.0
H538 H 0.14489 0.63336 0.75093 0.0
H539 H 0.07275 0.58692 0.74789 0.0
H540 H 0.08243 0.58372 0.79431 0.0
H541 H 0.93164 0.78656 0.75041 0.0
H542 H 0.81696 0.77998 0.79652 0.0
H543 H 0.8656 0.73139 0.75193 0.0
loop_
_geom_bond_atom_site_label_1
_geom_bond_atom_site_label_2
_geom_bond_distance
_geom_bond_site_symmetry_2
_ccdc_geom_bond_type
Tb0 C9 2.764 1_554 S
Tb0 O10 2.325 1_554 S
Tb0 O13 2.303 . S
Tb0 O17 2.322 . S
Tb0 O18 2.349 1_554 S
Tb0 O21 2.415 1_554 S
Tb0 O22 2.399 1_554 S
Tb1 O11 2.322 1_554 S
Tb1 O12 2.349 . S
Tb1 O14 2.415 . S
Tb1 O15 2.399 . S
Tb1 O16 2.325 . S
Tb1 O19 2.303 . S
Tb1 C30 2.764 . S
C2 O18 1.246 1_554 S
C2 O19 1.260 . S
C3 C6 1.358 . S
C3 C7 1.332 . S
C3 C9 1.504 . S
C4 C5 1.373 . S
C4 C8 1.308 . S
C5 C4 1.373 . S
C5 C6 1.429 . S
C5 H32 0.932 . S
C6 C3 1.358 . S
C6 C5 1.429 . S
C6 H33 0.930 . S
C7 C3 1.332 . S
C7 C8 1.394 . S
C7 H34 0.932 . S
C8 C4 1.308 . S
C8 C7 1.394 . S
C8 H35 0.929 . S
C9 Tb0 2.764 1_556 S
C9 C3 1.504 . S
C9 O21 1.239 . S
C9 O22 1.263 . S
O10 Tb0 2.325 1_556 S
O10 C20 1.236 . S
O11 Tb1 2.322 1_556 S
O11 C20 1.257 . S
O12 Tb1 2.349 . S
O12 C23 1.261 . S
O13 Tb0 2.303 . S
O13 C23 1.257 . S
O14 Tb1 2.415 . S
O14 C30 1.239 . S
O15 Tb1 2.399 . S
O15 C30 1.263 . S
O16 Tb1 2.325 . S
O16 C31 1.236 . S
O17 Tb0 2.322 . S
O17 C31 1.257 . S
O18 Tb0 2.349 1_556 S
O18 C2 1.246 1_556 S
O19 Tb1 2.303 . S
O19 C2 1.260 . S
C20 O10 1.236 . S
C20 O11 1.257 . S
O21 Tb0 2.415 1_556 S
O21 C9 1.239 . S
O22 Tb0 2.399 1_556 S
O22 C9 1.263 . S
C23 O12 1.261 . S
C23 O13 1.257 . S
C24 C27 1.358 . S
C24 C28 1.332 . S
C24 C30 1.504 . S
C25 C26 1.373 . S
C25 C29 1.308 . S
C26 C25 1.373 . S
C26 C27 1.429 . S
C26 H36 0.932 . S
C27 C24 1.358 . S
C27 C26 1.429 . S
C27 H37 0.930 . S
C28 C24 1.332 . S
C28 C29 1.394 . S
C28 H38 0.932 . S
C29 C25 1.308 . S
C29 C28 1.394 . S
C29 H39 0.929 . S
C30 Tb1 2.764 . S
C30 O14 1.239 . S
C30 O15 1.263 . S
C30 C24 1.504 . S
C31 O16 1.236 . S
C31 O17 1.257 . S
H32 C5 0.932 . S
H33 C6 0.930 . S
H34 C7 0.932 . S
H35 C8 0.929 . S
H36 C26 0.932 . S
H37 C27 0.930 . S
H38 C28 0.932 . S
H39 C29 0.929 . S
Tb40 C49 2.764 1_554 S
Tb40 O50 2.325 1_554 S
Tb40 O53 2.303 . S
Tb40 O57 2.322 . S
Tb40 O58 2.349 1_554 S
Tb40 O61 2.415 1_554 S
Tb40 O62 2.399 1_554 S
Tb41 O51 2.322 1_554 S
Tb41 O52 2.349 . S
Tb41 O54 2.415 . S
Tb41 O55 2.399 . S
Tb41 O56 2.325 . S
Tb41 O59 2.303 . S
Tb41 C70 2.764 . S
C42 O58 1.246 1_554 S
C42 O59 1.260 . S
C43 C46 1.358 . S
C43 C47 1.332 . S
C43 C49 1.504 . S
C44 C45 1.373 . S
C44 C48 1.308 . S
C45 C44 1.373 . S
C45 C46 1.429 . S
C45 H72 0.932 . S
C46 C43 1.358 . S
C46 C45 1.429 . S
C46 H73 0.930 . S
C47 C43 1.332 . S
C47 C48 1.394 . S
C47 H74 0.932 . S
C48 C44 1.308 . S
C48 C47 1.394 . S
C48 H75 0.929 . S
C49 Tb40 2.764 1_556 S
C49 C43 1.504 . S
C49 O61 1.239 . S
C49 O62 1.263 . S
O50 Tb40 2.325 1_556 S
O50 C60 1.236 . S
O51 Tb41 2.322 1_556 S
O51 C60 1.257 . S
O52 Tb41 2.349 . S
O52 C63 1.261 . S
O53 Tb40 2.303 . S
O53 C63 1.257 . S
O54 Tb41 2.415 . S
O54 C70 1.239 . S
O55 Tb41 2.399 . S
O55 C70 1.263 . S
O56 Tb41 2.325 . S
O56 C71 1.236 . S
O57 Tb40 2.322 . S
O57 C71 1.257 . S
O58 Tb40 2.349 1_556 S
O58 C42 1.246 1_556 S
O59 Tb41 2.303 . S
O59 C42 1.260 . S
C60 O50 1.236 . S
C60 O51 1.257 . S
O61 Tb40 2.415 1_556 S
O61 C49 1.239 . S
O62 Tb40 2.399 1_556 S
O62 C49 1.263 . S
C63 O52 1.261 . S
C63 O53 1.257 . S
C64 C67 1.358 . S
C64 C68 1.332 . S
C64 C70 1.504 . S
C65 C66 1.373 . S
C65 C69 1.308 . S
C66 C65 1.373 . S
C66 C67 1.429 . S
C66 H76 0.932 . S
C67 C64 1.358 . S
C67 C66 1.429 . S
C67 H77 0.930 . S
C68 C64 1.332 . S
C68 C69 1.394 . S
C68 H78 0.932 . S
C69 C65 1.308 . S
C69 C68 1.394 . S
C69 H79 0.929 . S
C70 Tb41 2.764 . S
C70 O54 1.239 . S
C70 O55 1.263 . S
C70 C64 1.504 . S
C71 O56 1.236 . S
C71 O57 1.257 . S
H72 C45 0.932 . S
H73 C46 0.930 . S
H74 C47 0.932 . S
H75 C48 0.929 . S
H76 C66 0.932 . S
H77 C67 0.930 . S
H78 C68 0.932 . S
H79 C69 0.929 . S
Tb80 C89 2.764 . S
Tb80 O90 2.325 . S
Tb80 O93 2.303 . S
Tb80 O97 2.322 . S
Tb80 O98 2.349 . S
Tb80 O101 2.415 . S
Tb80 O102 2.399 . S
Tb81 O91 2.322 . S
Tb81 O92 2.349 . S
Tb81 O94 2.415 . S
Tb81 O95 2.399 . S
Tb81 O96 2.325 . S
Tb81 O99 2.303 . S
Tb81 C110 2.764 . S
C82 O98 1.261 . S
C82 O99 1.257 . S
C83 C86 1.358 . S
C83 C87 1.332 . S
C83 C89 1.504 . S
C84 C85 1.373 . S
C84 C88 1.308 . S
C85 C84 1.373 . S
C85 C86 1.429 . S
C85 H112 0.932 . S
C86 C83 1.358 . S
C86 C85 1.429 . S
C86 H113 0.930 . S
C87 C83 1.332 . S
C87 C88 1.394 . S
C87 H114 0.932 . S
C88 C84 1.308 . S
C88 C87 1.394 . S
C88 H115 0.929 . S
C89 Tb80 2.764 . S
C89 C83 1.504 . S
C89 O101 1.239 . S
C89 O102 1.263 . S
O90 Tb80 2.325 . S
O90 C100 1.236 . S
O91 Tb81 2.322 . S
O91 C100 1.257 . S
O92 Tb81 2.349 . S
O92 C103 1.261 . S
O93 Tb80 2.303 . S
O93 C103 1.257 . S
O94 Tb81 2.415 . S
O94 C110 1.239 . S
O95 Tb81 2.399 . S
O95 C110 1.263 . S
O96 Tb81 2.325 . S
O96 C111 1.236 . S
O97 Tb80 2.322 . S
O97 C111 1.257 . S
O98 Tb80 2.349 . S
O98 C82 1.261 . S
O99 Tb81 2.303 . S
O99 C82 1.257 . S
C100 O90 1.236 . S
C100 O91 1.257 . S
O101 Tb80 2.415 . S
O101 C89 1.239 . S
O102 Tb80 2.399 . S
O102 C89 1.263 . S
C103 O92 1.261 . S
C103 O93 1.257 . S
C104 C107 1.358 . S
C104 C108 1.332 . S
C104 C110 1.504 . S
C105 C106 1.373 . S
C105 C109 1.308 . S
C106 C105 1.373 . S
C106 C107 1.429 . S
C106 H116 0.932 . S
C107 C104 1.358 . S
C107 C106 1.429 . S
C107 H117 0.930 . S
C108 C104 1.332 . S
C108 C109 1.394 . S
C108 H118 0.932 . S
C109 C105 1.308 . S
C109 C108 1.394 . S
C109 H119 0.929 . S
C110 Tb81 2.764 . S
C110 O94 1.239 . S
C110 O95 1.263 . S
C110 C104 1.504 . S
C111 O96 1.236 . S
C111 O97 1.257 . S
H112 C85 0.932 . S
H113 C86 0.930 . S
H114 C87 0.932 . S
H115 C88 0.929 . S
H116 C106 0.932 . S
H117 C107 0.930 . S
H118 C108 0.932 . S
H119 C109 0.929 . S
Tb120 C129 2.764 . S
Tb120 O130 2.325 . S
Tb120 O133 2.303 . S
Tb120 O137 2.322 . S
Tb120 O138 2.349 . S
Tb120 O141 2.415 . S
Tb120 O142 2.399 . S
Tb121 O131 2.322 . S
Tb121 O132 2.349 . S
Tb121 O134 2.415 . S
Tb121 O135 2.399 . S
Tb121 O136 2.325 . S
Tb121 O139 2.303 . S
Tb121 C150 2.764 . S
C122 O138 1.261 . S
C122 O139 1.257 . S
C123 C126 1.358 . S
C123 C127 1.332 . S
C123 C129 1.504 . S
C124 C125 1.373 . S
C124 C128 1.308 . S
C125 C124 1.373 . S
C125 C126 1.429 . S
C125 H152 0.932 . S
C126 C123 1.358 . S
C126 C125 1.429 . S
C126 H153 0.930 . S
C127 C123 1.332 . S
C127 C128 1.394 . S
C127 H154 0.932 . S
C128 C124 1.308 . S
C128 C127 1.394 . S
C128 H155 0.929 . S
C129 Tb120 2.764 . S
C129 C123 1.504 . S
C129 O141 1.239 . S
C129 O142 1.263 . S
O130 Tb120 2.325 . S
O130 C140 1.236 . S
O131 Tb121 2.322 . S
O131 C140 1.257 . S
O132 Tb121 2.349 . S
O132 C143 1.261 . S
O133 Tb120 2.303 . S
O133 C143 1.257 . S
O134 Tb121 2.415 . S
O134 C150 1.239 . S
O135 Tb121 2.399 . S
O135 C150 1.263 . S
O136 Tb121 2.325 . S
O136 C151 1.236 . S
O137 Tb120 2.322 . S
O137 C151 1.257 . S
O138 Tb120 2.349 . S
O138 C122 1.261 . S
O139 Tb121 2.303 . S
O139 C122 1.257 . S
C140 O130 1.236 . S
C140 O131 1.257 . S
O141 Tb120 2.415 . S
O141 C129 1.239 . S
O142 Tb120 2.399 . S
O142 C129 1.263 . S
C143 O132 1.261 . S
C143 O133 1.257 . S
C144 C147 1.358 . S
C144 C148 1.332 . S
C144 C150 1.504 . S
C145 C146 1.373 . S
C145 C149 1.308 . S
C146 C145 1.373 . S
C146 C147 1.429 . S
C146 H156 0.932 . S
C147 C144 1.358 . S
C147 C146 1.429 . S
C147 H157 0.930 . S
C148 C144 1.332 . S
C148 C149 1.394 . S
C148 H158 0.932 . S
C149 C145 1.308 . S
C149 C148 1.394 . S
C149 H159 0.929 . S
C150 Tb121 2.764 . S
C150 O134 1.239 . S
C150 O135 1.263 . S
C150 C144 1.504 . S
C151 O136 1.236 . S
C151 O137 1.257 . S
H152 C125 0.932 . S
H153 C126 0.930 . S
H154 C127 0.932 . S
H155 C128 0.929 . S
H156 C146 0.932 . S
H157 C147 0.930 . S
H158 C148 0.932 . S
H159 C149 0.929 . S
C160 C161 1.391 . S
C160 C162 1.394 . S
C160 H176 0.931 . S
C161 C160 1.391 . S
C161 C165 1.376 1_554 S
C162 C160 1.394 . S
C162 C163 1.369 . S
C162 C166 1.531 . S
C163 C162 1.369 . S
C163 C164 1.410 1_554 S
C163 C171 1.503 . S
C164 C163 1.410 1_556 S
C164 C165 1.392 . S
C164 C167 1.511 . S
C165 C161 1.376 1_556 S
C165 C164 1.392 . S
C165 H177 0.929 . S
C166 C162 1.531 . S
C166 H178 0.960 . S
C166 H179 0.962 . S
C166 H180 0.960 . S
C167 C164 1.511 . S
C167 H181 0.961 . S
C167 H182 0.961 . S
C167 H183 0.961 . S
C168 C169 1.370 . S
C168 C170 1.363 . S
C168 H184 0.931 . S
C169 C168 1.370 . S
C169 C173 1.408 . S
C170 C168 1.363 . S
C170 C171 1.370 . S
C170 C174 1.524 . S
C171 C163 1.503 . S
C171 C170 1.370 . S
C171 C172 1.403 . S
C172 C171 1.403 . S
C172 C173 1.404 . S
C172 C175 1.539 1_554 S
C173 C169 1.408 . S
C173 C172 1.404 . S
C173 H185 0.930 1_554 S
C174 C170 1.524 . S
C174 H186 0.956 . S
C174 H187 0.961 1_554 S
C174 H188 0.961 . S
C175 C172 1.539 1_556 S
C175 H189 0.958 1_556 S
C175 H190 0.961 . S
C175 H191 0.960 . S
H176 C160 0.931 . S
H177 C165 0.929 . S
H178 C166 0.960 . S
H179 C166 0.962 . S
H180 C166 0.960 . S
H181 C167 0.961 . S
H182 C167 0.961 . S
H183 C167 0.961 . S
H184 C168 0.931 . S
H185 C173 0.930 1_556 S
H186 C174 0.956 . S
H187 C174 0.961 1_556 S
H188 C174 0.961 . S
H189 C175 0.958 1_554 S
H190 C175 0.961 . S
H191 C175 0.960 . S
C192 C193 1.391 . S
C192 C194 1.394 . S
C192 H208 0.931 . S
C193 C192 1.391 . S
C193 C197 1.376 . S
C194 C192 1.394 . S
C194 C195 1.369 . S
C194 C198 1.531 . S
C195 C194 1.369 . S
C195 C196 1.410 . S
C195 C203 1.503 . S
C196 C195 1.410 . S
C196 C197 1.392 . S
C196 C199 1.511 . S
C197 C193 1.376 . S
C197 C196 1.392 . S
C197 H209 0.929 . S
C198 C194 1.531 . S
C198 H210 0.960 . S
C198 H211 0.962 . S
C198 H212 0.960 . S
C199 C196 1.511 . S
C199 H213 0.961 . S
C199 H214 0.961 . S
C199 H215 0.961 . S
C200 C201 1.370 . S
C200 C202 1.363 . S
C200 H216 0.931 . S
C201 C200 1.370 . S
C201 C205 1.408 . S
C202 C200 1.363 . S
C202 C203 1.370 . S
C202 C206 1.524 . S
C203 C195 1.503 . S
C203 C202 1.370 . S
C203 C204 1.403 . S
C204 C203 1.403 . S
C204 C205 1.404 . S
C204 C207 1.539 . S
C205 C201 1.408 . S
C205 C204 1.404 . S
C205 H217 0.930 . S
C206 C202 1.524 . S
C206 H218 0.956 . S
C206 H219 0.961 . S
C206 H220 0.961 . S
C207 C204 1.539 . S
C207 H221 0.958 . S
C207 H222 0.961 . S
C207 H223 0.960 . S
H208 C192 0.931 . S
H209 C197 0.929 . S
H210 C198 0.960 . S
H211 C198 0.962 . S
H212 C198 0.960 . S
H213 C199 0.961 . S
H214 C199 0.961 . S
H215 C199 0.961 . S
H216 C200 0.931 . S
H217 C205 0.930 . S
H218 C206 0.956 . S
H219 C206 0.961 . S
H220 C206 0.961 . S
H221 C207 0.958 . S
H222 C207 0.961 . S
H223 C207 0.960 . S
C224 C225 1.391 . S
C224 C226 1.394 . S
C224 H240 0.931 . S
C225 C224 1.391 . S
C225 C229 1.376 1_554 S
C226 C224 1.394 . S
C226 C227 1.369 . S
C226 C230 1.531 1_545 S
C227 C226 1.369 . S
C227 C228 1.410 1_554 S
C227 C235 1.503 1_445 S
C228 C227 1.410 1_556 S
C228 C229 1.392 . S
C228 C231 1.511 1_455 S
C229 C225 1.376 1_556 S
C229 C228 1.392 . S
C229 H241 0.929 . S
C230 C226 1.531 1_565 S
C230 H242 0.960 1_455 S
C230 H243 0.962 . S
C230 H244 0.960 . S
C231 C228 1.511 1_655 S
C231 H245 0.961 1_655 S
C231 H246 0.961 . S
C231 H247 0.961 . S
C232 C233 1.370 1_556 S
C232 C234 1.363 1_655 S
C232 H248 0.931 . S
C233 C232 1.370 1_554 S
C233 C237 1.408 . S
C234 C232 1.363 1_455 S
C234 C235 1.370 1_456 S
C234 C238 1.524 . S
C235 C227 1.503 1_665 S
C235 C234 1.370 1_654 S
C235 C236 1.403 . S
C236 C235 1.403 . S
C236 C237 1.404 . S
C236 C239 1.539 1_565 S
C237 C233 1.408 . S
C237 C236 1.404 . S
C237 H249 0.930 . S
C238 C234 1.524 . S
C238 H250 0.956 . S
C238 H251 0.961 . S
C238 H252 0.961 . S
C239 C236 1.539 1_545 S
C239 H253 0.958 . S
C239 H254 0.961 . S
C239 H255 0.960 . S
H240 C224 0.931 . S
H241 C229 0.929 . S
H242 C230 0.960 1_655 S
H243 C230 0.962 . S
H244 C230 0.960 . S
H245 C231 0.961 1_455 S
H246 C231 0.961 . S
H247 C231 0.961 . S
H248 C232 0.931 . S
H249 C237 0.930 . S
H250 C238 0.956 . S
H251 C238 0.961 . S
H252 C238 0.961 . S
H253 C239 0.958 . S
H254 C239 0.961 . S
H255 C239 0.960 . S
C256 C257 1.391 . S
C256 C258 1.394 . S
C256 H272 0.931 . S
C257 C256 1.391 . S
C257 C261 1.376 . S
C258 C256 1.394 . S
C258 C259 1.369 . S
C258 C262 1.531 1_545 S
C259 C258 1.369 . S
C259 C260 1.407 1_655 S
C259 C267 1.503 1_645 S
C260 C259 1.407 1_455 S
C260 C261 1.385 1_455 S
C260 C263 1.521 . S
C261 C257 1.376 . S
C261 C260 1.385 1_655 S
C261 H273 0.929 . S
C262 C258 1.531 1_565 S
C262 H274 0.960 . S
C262 H275 0.962 . S
C262 H276 0.960 . S
C263 C260 1.521 . S
C263 H277 0.961 . S
C263 H278 0.961 . S
C263 H279 0.961 . S
C264 C265 1.370 . S
C264 C266 1.363 . S
C264 H280 0.931 . S
C265 C264 1.370 . S
C265 C269 1.408 . S
C266 C264 1.363 . S
C266 C267 1.370 . S
C266 C270 1.524 1_455 S
C267 C259 1.503 1_465 S
C267 C266 1.370 . S
C267 C268 1.403 . S
C268 C267 1.403 . S
C268 C269 1.404 . S
C268 C271 1.539 . S
C269 C265 1.408 . S
C269 C268 1.404 . S
C269 H281 0.930 . S
C270 C266 1.524 1_655 S
C270 H282 0.956 . S
C270 H283 0.961 1_565 S
C270 H284 0.961 . S
C271 C268 1.539 . S
C271 H285 0.958 . S
C271 H286 0.961 . S
C271 H287 0.960 1_565 S
H272 C256 0.931 . S
H273 C261 0.929 . S
H274 C262 0.960 . S
H275 C262 0.962 . S
H276 C262 0.960 . S
H277 C263 0.961 . S
H278 C263 0.961 . S
H279 C263 0.961 . S
H280 C264 0.931 . S
H281 C269 0.930 . S
H282 C270 0.956 . S
H283 C270 0.961 1_545 S
H284 C270 0.961 . S
H285 C271 0.958 . S
H286 C271 0.961 . S
H287 C271 0.960 1_545 S
C288 C289 1.391 . S
C288 C290 1.394 . S
C288 H304 0.931 . S
C289 C288 1.391 . S
C289 C293 1.376 . S
C290 C288 1.394 . S
C290 C291 1.369 . S
C290 C294 1.531 . S
C291 C290 1.369 . S
C291 C292 1.410 . S
C291 C299 1.503 . S
C292 C291 1.410 . S
C292 C293 1.392 . S
C292 C295 1.511 . S
C293 C289 1.376 . S
C293 C292 1.392 . S
C293 H305 0.929 . S
C294 C290 1.531 . S
C294 H306 0.960 . S
C294 H307 0.962 . S
C294 H308 0.960 . S
C295 C292 1.511 . S
C295 H309 0.961 . S
C295 H310 0.961 . S
C295 H311 0.961 . S
C296 C297 1.370 . S
C296 C298 1.363 . S
C296 H312 0.931 . S
C297 C296 1.370 . S
C297 C301 1.408 . S
C298 C296 1.363 . S
C298 C299 1.370 . S
C298 C302 1.524 . S
C299 C291 1.503 . S
C299 C298 1.370 . S
C299 C300 1.403 . S
C300 C299 1.403 . S
C300 C301 1.404 . S
C300 C303 1.539 . S
C301 C297 1.408 . S
C301 C300 1.404 . S
C301 H313 0.930 . S
C302 C298 1.524 . S
C302 H314 0.956 . S
C302 H315 0.961 . S
C302 H316 0.961 . S
C303 C300 1.539 . S
C303 H317 0.958 . S
C303 H318 0.961 . S
C303 H319 0.960 . S
H304 C288 0.931 . S
H305 C293 0.929 . S
H306 C294 0.960 . S
H307 C294 0.962 . S
H308 C294 0.960 . S
H309 C295 0.961 . S
H310 C295 0.961 . S
H311 C295 0.961 . S
H312 C296 0.931 . S
H313 C301 0.930 . S
H314 C302 0.956 . S
H315 C302 0.961 . S
H316 C302 0.961 . S
H317 C303 0.958 . S
H318 C303 0.961 . S
H319 C303 0.960 . S
C320 C321 1.391 . S
C320 C322 1.394 . S
C320 H336 0.931 . S
C321 C320 1.391 . S
C321 C325 1.376 . S
C322 C320 1.394 . S
C322 C323 1.369 . S
C322 C326 1.531 . S
C323 C322 1.369 . S
C323 C324 1.410 . S
C323 C331 1.503 . S
C324 C323 1.410 . S
C324 C325 1.392 . S
C324 C327 1.511 . S
C325 C321 1.376 . S
C325 C324 1.392 . S
C325 H337 0.929 . S
C326 C322 1.531 . S
C326 H338 0.960 . S
C326 H339 0.962 . S
C326 H340 0.960 . S
C327 C324 1.511 . S
C327 H341 0.961 . S
C327 H342 0.961 . S
C327 H343 0.961 . S
C328 C329 1.370 . S
C328 C330 1.363 . S
C328 H344 0.931 . S
C329 C328 1.370 . S
C329 C333 1.408 . S
C330 C328 1.363 . S
C330 C331 1.370 . S
C330 C334 1.524 . S
C331 C323 1.503 . S
C331 C330 1.370 . S
C331 C332 1.403 . S
C332 C331 1.403 . S
C332 C333 1.404 . S
C332 C335 1.539 . S
C333 C329 1.408 . S
C333 C332 1.404 . S
C333 H345 0.930 . S
C334 C330 1.524 . S
C334 H346 0.956 . S
C334 H347 0.961 . S
C334 H348 0.961 . S
C335 C332 1.539 . S
C335 H349 0.958 . S
C335 H350 0.961 . S
C335 H351 0.960 . S
H336 C320 0.931 . S
H337 C325 0.929 . S
H338 C326 0.960 . S
H339 C326 0.962 . S
H340 C326 0.960 . S
H341 C327 0.961 . S
H342 C327 0.961 . S
H343 C327 0.961 . S
H344 C328 0.931 . S
H345 C333 0.930 . S
H346 C334 0.956 . S
H347 C334 0.961 . S
H348 C334 0.961 . S
H349 C335 0.958 . S
H350 C335 0.961 . S
H351 C335 0.960 . S
C352 C353 1.391 . S
C352 C354 1.394 . S
C352 H368 0.931 . S
C353 C352 1.391 . S
C353 C357 1.376 . S
C354 C352 1.394 . S
C354 C355 1.369 . S
C354 C358 1.531 . S
C355 C354 1.369 . S
C355 C356 1.410 . S
C355 C363 1.503 . S
C356 C355 1.410 . S
C356 C357 1.392 . S
C356 C359 1.511 . S
C357 C353 1.376 . S
C357 C356 1.392 . S
C357 H369 0.929 . S
C358 C354 1.531 . S
C358 H370 0.960 . S
C358 H371 0.962 . S
C358 H372 0.960 . S
C359 C356 1.511 . S
C359 H373 0.961 . S
C359 H374 0.961 . S
C359 H375 0.961 . S
C360 C361 1.370 . S
C360 C362 1.363 . S
C360 H376 0.931 . S
C361 C360 1.370 . S
C361 C365 1.408 . S
C362 C360 1.363 . S
C362 C363 1.370 . S
C362 C366 1.524 . S
C363 C355 1.503 . S
C363 C362 1.370 . S
C363 C364 1.403 . S
C364 C363 1.403 . S
C364 C365 1.404 . S
C364 C367 1.539 . S
C365 C361 1.408 . S
C365 C364 1.404 . S
C365 H377 0.930 . S
C366 C362 1.524 . S
C366 H378 0.956 . S
C366 H379 0.961 . S
C366 H380 0.961 . S
C367 C364 1.539 . S
C367 H381 0.958 . S
C367 H382 0.961 . S
C367 H383 0.960 . S
H368 C352 0.931 . S
H369 C357 0.929 . S
H370 C358 0.960 . S
H371 C358 0.962 . S
H372 C358 0.960 . S
H373 C359 0.961 . S
H374 C359 0.961 . S
H375 C359 0.961 . S
H376 C360 0.931 . S
H377 C365 0.930 . S
H378 C366 0.956 . S
H379 C366 0.961 . S
H380 C366 0.961 . S
H381 C367 0.958 . S
H382 C367 0.961 . S
H383 C367 0.960 . S
C384 C385 1.391 . S
C384 C386 1.394 . S
C384 H400 0.931 . S
C385 C384 1.391 . S
C385 C389 1.376 . S
C386 C384 1.394 . S
C386 C387 1.369 . S
C386 C390 1.531 . S
C387 C386 1.369 . S
C387 C388 1.410 . S
C387 C395 1.503 . S
C388 C387 1.410 . S
C388 C389 1.392 . S
C388 C391 1.511 . S
C389 C385 1.376 . S
C389 C388 1.392 . S
C389 H401 0.929 . S
C390 C386 1.531 . S
C390 H402 0.960 . S
C390 H403 0.962 . S
C390 H404 0.960 . S
C391 C388 1.511 . S
C391 H405 0.961 . S
C391 H406 0.961 . S
C391 H407 0.961 . S
C392 C393 1.370 . S
C392 C394 1.363 . S
C392 H408 0.931 . S
C393 C392 1.370 . S
C393 C397 1.408 . S
C394 C392 1.363 . S
C394 C395 1.370 . S
C394 C398 1.524 . S
C395 C387 1.503 . S
C395 C394 1.370 . S
C395 C396 1.403 . S
C396 C395 1.403 . S
C396 C397 1.404 . S
C396 C399 1.539 . S
C397 C393 1.408 . S
C397 C396 1.404 . S
C397 H409 0.930 . S
C398 C394 1.524 . S
C398 H410 0.956 . S
C398 H411 0.961 . S
C398 H412 0.961 . S
C399 C396 1.539 . S
C399 H413 0.958 . S
C399 H414 0.961 . S
C399 H415 0.960 . S
H400 C384 0.931 . S
H401 C389 0.929 . S
H402 C390 0.960 . S
H403 C390 0.962 . S
H404 C390 0.960 . S
H405 C391 0.961 . S
H406 C391 0.961 . S
H407 C391 0.961 . S
H408 C392 0.931 . S
H409 C397 0.930 . S
H410 C398 0.956 . S
H411 C398 0.961 . S
H412 C398 0.961 . S
H413 C399 0.958 . S
H414 C399 0.961 . S
H415 C399 0.960 . S
C416 C417 1.391 . S
C416 C418 1.394 . S
C416 H432 0.931 . S
C417 C416 1.391 . S
C417 C421 1.376 1_655 S
C418 C416 1.394 . S
C418 C419 1.369 1_655 S
C418 C422 1.531 . S
C419 C418 1.369 1_455 S
C419 C420 1.410 . S
C419 C427 1.503 . S
C420 C419 1.410 . S
C420 C421 1.392 . S
C420 C423 1.511 . S
C421 C417 1.376 1_455 S
C421 C420 1.392 . S
C421 H433 0.929 . S
C422 C418 1.531 . S
C422 H434 0.960 . S
C422 H435 0.962 . S
C422 H436 0.960 . S
C423 C420 1.511 . S
C423 H437 0.961 . S
C423 H438 0.961 . S
C423 H439 0.961 . S
C424 C425 1.370 1_655 S
C424 C426 1.363 . S
C424 H440 0.931 . S
C425 C424 1.370 1_455 S
C425 C429 1.408 . S
C426 C424 1.363 . S
C426 C427 1.370 1_655 S
C426 C430 1.524 . S
C427 C419 1.503 . S
C427 C426 1.370 1_455 S
C427 C428 1.403 . S
C428 C427 1.403 . S
C428 C429 1.404 . S
C428 C431 1.539 . S
C429 C425 1.408 . S
C429 C428 1.404 . S
C429 H441 0.930 . S
C430 C426 1.524 . S
C430 H442 0.956 . S
C430 H443 0.961 . S
C430 H444 0.961 . S
C431 C428 1.539 . S
C431 H445 0.958 . S
C431 H446 0.961 . S
C431 H447 0.960 . S
H432 C416 0.931 . S
H433 C421 0.929 . S
H434 C422 0.960 . S
H435 C422 0.962 . S
H436 C422 0.960 . S
H437 C423 0.961 . S
H438 C423 0.961 . S
H439 C423 0.961 . S
H440 C424 0.931 . S
H441 C429 0.930 . S
H442 C430 0.956 . S
H443 C430 0.961 . S
H444 C430 0.961 . S
H445 C431 0.958 . S
H446 C431 0.961 . S
H447 C431 0.960 . S
C448 C449 1.391 . S
C448 C450 1.394 . S
C448 H464 0.931 . S
C449 C448 1.391 . S
C449 C453 1.376 . S
C450 C448 1.394 . S
C450 C451 1.369 . S
C450 C454 1.531 . S
C451 C450 1.369 . S
C451 C452 1.410 1_655 S
C451 C459 1.503 1_655 S
C452 C451 1.410 1_455 S
C452 C453 1.392 1_455 S
C452 C455 1.511 . S
C453 C449 1.376 . S
C453 C452 1.392 1_655 S
C453 H465 0.929 1_655 S
C454 C450 1.531 . S
C454 H466 0.960 . S
C454 H467 0.962 . S
C454 H468 0.960 . S
C455 C452 1.511 . S
C455 H469 0.961 . S
C455 H470 0.961 . S
C455 H471 0.961 . S
C456 C457 1.370 . S
C456 C458 1.363 . S
C456 H472 0.931 . S
C457 C456 1.370 . S
C457 C461 1.408 . S
C458 C456 1.363 . S
C458 C459 1.370 . S
C458 C462 1.524 1_455 S
C459 C451 1.503 1_455 S
C459 C458 1.370 . S
C459 C460 1.403 . S
C460 C459 1.403 . S
C460 C461 1.404 . S
C460 C463 1.539 . S
C461 C457 1.408 . S
C461 C460 1.404 . S
C461 H473 0.930 . S
C462 C458 1.524 1_655 S
C462 H474 0.956 . S
C462 H475 0.961 . S
C462 H476 0.961 . S
C463 C460 1.539 . S
C463 H477 0.958 . S
C463 H478 0.961 . S
C463 H479 0.960 . S
H464 C448 0.931 . S
H465 C453 0.929 1_455 S
H466 C454 0.960 . S
H467 C454 0.962 . S
H468 C454 0.960 . S
H469 C455 0.961 . S
H470 C455 0.961 . S
H471 C455 0.961 . S
H472 C456 0.931 . S
H473 C461 0.930 . S
H474 C462 0.956 . S
H475 C462 0.961 . S
H476 C462 0.961 . S
H477 C463 0.958 . S
H478 C463 0.961 . S
H479 C463 0.960 . S
C480 C481 1.391 1_455 S
C480 C482 1.394 . S
C480 H496 0.931 . S
C481 C480 1.391 1_655 S
C481 C485 1.376 . S
C482 C480 1.394 . S
C482 C483 1.369 . S
C482 C486 1.531 . S
C483 C482 1.369 . S
C483 C484 1.410 1_455 S
C483 C491 1.503 . S
C484 C483 1.410 1_655 S
C484 C485 1.392 . S
C484 C487 1.511 . S
C485 C481 1.376 . S
C485 C484 1.392 . S
C485 H497 0.929 . S
C486 C482 1.531 . S
C486 H498 0.960 . S
C486 H499 0.962 . S
C486 H500 0.960 . S
C487 C484 1.511 . S
C487 H501 0.961 . S
C487 H502 0.961 . S
C487 H503 0.961 . S
C488 C489 1.370 1_655 S
C488 C490 1.363 . S
C488 H504 0.931 . S
C489 C488 1.370 1_455 S
C489 C493 1.408 . S
C490 C488 1.363 . S
C490 C491 1.370 1_655 S
C490 C494 1.524 . S
C491 C483 1.503 . S
C491 C490 1.370 1_455 S
C491 C492 1.403 . S
C492 C491 1.403 . S
C492 C493 1.404 . S
C492 C495 1.539 . S
C493 C489 1.408 . S
C493 C492 1.404 . S
C493 H505 0.930 . S
C494 C490 1.524 . S
C494 H506 0.956 1_655 S
C494 H507 0.961 . S
C494 H508 0.961 . S
C495 C492 1.539 . S
C495 H509 0.958 . S
C495 H510 0.961 . S
C495 H511 0.960 . S
H496 C480 0.931 . S
H497 C485 0.929 . S
H498 C486 0.960 . S
H499 C486 0.962 . S
H500 C486 0.960 . S
H501 C487 0.961 . S
H502 C487 0.961 . S
H503 C487 0.961 . S
H504 C488 0.931 . S
H505 C493 0.930 . S
H506 C494 0.956 1_455 S
H507 C494 0.961 . S
H508 C494 0.961 . S
H509 C495 0.958 . S
H510 C495 0.961 . S
H511 C495 0.960 . S
C512 C513 1.391 . S
C512 C514 1.394 . S
C512 H528 0.931 . S
C513 C512 1.391 . S
C513 C517 1.376 . S
C514 C512 1.394 . S
C514 C515 1.369 . S
C514 C518 1.531 . S
C515 C514 1.369 . S
C515 C516 1.410 1_455 S
C515 C523 1.503 1_455 S
C516 C515 1.410 1_655 S
C516 C517 1.392 1_655 S
C516 C519 1.511 . S
C517 C513 1.376 . S
C517 C516 1.392 1_455 S
C517 H529 0.929 1_455 S
C518 C514 1.531 . S
C518 H530 0.960 . S
C518 H531 0.962 . S
C518 H532 0.960 . S
C519 C516 1.511 . S
C519 H533 0.961 . S
C519 H534 0.961 . S
C519 H535 0.961 . S
C520 C521 1.370 . S
C520 C522 1.363 . S
C520 H536 0.931 . S
C521 C520 1.370 . S
C521 C525 1.408 . S
C522 C520 1.363 . S
C522 C523 1.370 . S
C522 C526 1.524 1_655 S
C523 C515 1.503 1_655 S
C523 C522 1.370 . S
C523 C524 1.403 . S
C524 C523 1.403 . S
C524 C525 1.404 . S
C524 C527 1.539 . S
C525 C521 1.408 . S
C525 C524 1.404 . S
C525 H537 0.930 . S
C526 C522 1.524 1_455 S
C526 H538 0.956 . S
C526 H539 0.961 . S
C526 H540 0.961 . S
C527 C524 1.539 . S
C527 H541 0.958 . S
C527 H542 0.961 . S
C527 H543 0.960 . S
H528 C512 0.931 . S
H529 C517 0.929 1_655 S
H530 C518 0.960 . S
H531 C518 0.962 . S
H532 C518 0.960 . S
H533 C519 0.961 . S
H534 C519 0.961 . S
H535 C519 0.961 . S
H536 C520 0.931 . S
H537 C525 0.930 . S
H538 C526 0.956 . S
H539 C526 0.961 . S
H540 C526 0.961 . S
H541 C527 0.958 . S
H542 C527 0.961 . S
H543 C527 0.960 . S
C161 C63 1.594 . S
C169 C2 1.602 . S
C193 C103 1.594 . S
C201 C122 1.590 . S
C225 C23 1.588 . S
C233 C42 1.605 . S
C257 C143 1.584 . S
C265 C82 1.594 . S
C289 C145 1.126 . S
C297 C25 1.114 . S
C321 C71 1.479 . S
C329 C111 1.477 . S
C353 C44 1.102 . S
C361 C84 1.091 . S
C385 C140 1.468 . S
C393 C20 1.476 . S
C417 C65 1.134 . S
C425 C105 1.109 . S
C449 C151 1.483 . S
C457 C31 1.474 . S
C481 C124 1.134 . S
C489 C4 1.114 . S
C513 C100 1.458 . S
C521 C60 1.465 . S
