# Generated by pormake.
# Topology ung, (4)-cn, num edge types: 1
# Building blocks:
#     Node 0, Type 0, BuildingBlock: ESEHIV_clean_sbu_0, # of connection points: 4
#     Node 1, Type 0, BuildingBlock: ESEHIV_clean_sbu_0, # of connection points: 4
#     Node 2, Type 0, BuildingBlock: ESEHIV_clean_sbu_0, # of connection points: 4
#     Node 3, Type 0, BuildingBlock: ESEHIV_clean_sbu_0, # of connection points: 4
#     Node 4, Type 0, BuildingBlock: ESEHIV_clean_sbu_0, # of connection points: 4
#     Node 5, Type 0, BuildingBlock: ESEHIV_clean_sbu_0, # of connection points: 4
#     Node 6, Type 0, BuildingBlock: ESEHIV_clean_sbu_0, # of connection points: 4
#     Node 7, Type 0, BuildingBlock: ESEHIV_clean_sbu_0, # of connection points: 4
#     Node 8, Type 0, BuildingBlock: ESEHIV_clean_sbu_0, # of connection points: 4
#     Node 9, Type 0, BuildingBlock: ESEHIV_clean_sbu_0, # of connection points: 4
#     Node 10, Type 0, BuildingBlock: ESEHIV_clean_sbu_0, # of connection points: 4
#     Node 11, Type 0, BuildingBlock: ESEHIV_clean_sbu_0, # of connection points: 4
#     Node 12, Type 0, BuildingBlock: ESEHIV_clean_sbu_0, # of connection points: 4
#     Node 13, Type 0, BuildingBlock: ESEHIV_clean_sbu_0, # of connection points: 4
#     Node 14, Type 0, BuildingBlock: ESEHIV_clean_sbu_0, # of connection points: 4
#     Node 15, Type 0, BuildingBlock: ESEHIV_clean_sbu_0, # of connection points: 4
#     Node 16, Type 0, BuildingBlock: ESEHIV_clean_sbu_0, # of connection points: 4
#     Node 17, Type 0, BuildingBlock: ESEHIV_clean_sbu_0, # of connection points: 4
#     Edge 18, Type (0, 0), BuildingBlock: UVAHIK_clean_linker_0, # of connection points: 2
#     Edge 19, Type (0, 0), BuildingBlock: UVAHIK_clean_linker_0, # of connection points: 2
#     Edge 20, Type (0, 0), BuildingBlock: UVAHIK_clean_linker_0, # of connection points: 2
#     Edge 21, Type (0, 0), BuildingBlock: UVAHIK_clean_linker_0, # of connection points: 2
#     Edge 22, Type (0, 0), BuildingBlock: UVAHIK_clean_linker_0, # of connection points: 2
#     Edge 23, Type (0, 0), BuildingBlock: UVAHIK_clean_linker_0, # of connection points: 2
#     Edge 24, Type (0, 0), BuildingBlock: UVAHIK_clean_linker_0, # of connection points: 2
#     Edge 25, Type (0, 0), BuildingBlock: UVAHIK_clean_linker_0, # of connection points: 2
#     Edge 26, Type (0, 0), BuildingBlock: UVAHIK_clean_linker_0, # of connection points: 2
#     Edge 27, Type (0, 0), BuildingBlock: UVAHIK_clean_linker_0, # of connection points: 2
#     Edge 28, Type (0, 0), BuildingBlock: UVAHIK_clean_linker_0, # of connection points: 2
#     Edge 29, Type (0, 0), BuildingBlock: UVAHIK_clean_linker_0, # of connection points: 2
#     Edge 30, Type (0, 0), BuildingBlock: UVAHIK_clean_linker_0, # of connection points: 2
#     Edge 31, Type (0, 0), BuildingBlock: UVAHIK_clean_linker_0, # of connection points: 2
#     Edge 32, Type (0, 0), BuildingBlock: UVAHIK_clean_linker_0, # of connection points: 2
#     Edge 33, Type (0, 0), BuildingBlock: UVAHIK_clean_linker_0, # of connection points: 2
#     Edge 34, Type (0, 0), BuildingBlock: UVAHIK_clean_linker_0, # of connection points: 2
#     Edge 35, Type (0, 0), BuildingBlock: UVAHIK_clean_linker_0, # of connection points: 2
#     Edge 36, Type (0, 0), BuildingBlock: UVAHIK_clean_linker_0, # of connection points: 2
#     Edge 37, Type (0, 0), BuildingBlock: UVAHIK_clean_linker_0, # of connection points: 2
#     Edge 38, Type (0, 0), BuildingBlock: UVAHIK_clean_linker_0, # of connection points: 2
#     Edge 39, Type (0, 0), BuildingBlock: UVAHIK_clean_linker_0, # of connection points: 2
#     Edge 40, Type (0, 0), BuildingBlock: UVAHIK_clean_linker_0, # of connection points: 2
#     Edge 41, Type (0, 0), BuildingBlock: UVAHIK_clean_linker_0, # of connection points: 2
#     Edge 42, Type (0, 0), BuildingBlock: UVAHIK_clean_linker_0, # of connection points: 2
#     Edge 43, Type (0, 0), BuildingBlock: UVAHIK_clean_linker_0, # of connection points: 2
#     Edge 44, Type (0, 0), BuildingBlock: UVAHIK_clean_linker_0, # of connection points: 2
#     Edge 45, Type (0, 0), BuildingBlock: UVAHIK_clean_linker_0, # of connection points: 2
#     Edge 46, Type (0, 0), BuildingBlock: UVAHIK_clean_linker_0, # of connection points: 2
#     Edge 47, Type (0, 0), BuildingBlock: UVAHIK_clean_linker_0, # of connection points: 2
#     Edge 48, Type (0, 0), BuildingBlock: UVAHIK_clean_linker_0, # of connection points: 2
#     Edge 49, Type (0, 0), BuildingBlock: UVAHIK_clean_linker_0, # of connection points: 2
#     Edge 50, Type (0, 0), BuildingBlock: UVAHIK_clean_linker_0, # of connection points: 2
#     Edge 51, Type (0, 0), BuildingBlock: UVAHIK_clean_linker_0, # of connection points: 2
#     Edge 52, Type (0, 0), BuildingBlock: UVAHIK_clean_linker_0, # of connection points: 2
#     Edge 53, Type (0, 0), BuildingBlock: UVAHIK_clean_linker_0, # of connection points: 2
# Relax obj value: 0.011
# Max RMSD: 0.182
# Mean RMSD: 0.159
data_MOF--net-ung--node1-ESEHIV_clean_sbu_0--edge1-UVAHIK_clean_linker_0
_symmetry_space_group_name_H-M    P1
_symmetry_Int_Tables_number       1
_symmetry_cell_setting            triclinic
loop_
_symmetry_equiv_pos_as_xyz
'x, y, z'
_cell_length_a     113.56311
_cell_length_b     111.56405
_cell_length_c     26.979027
_cell_angle_alpha  95.531877
_cell_angle_beta   87.205758
_cell_angle_gamma 122.07578
loop_
_atom_site_label
_atom_site_type_symbol
_atom_site_fract_x
_atom_site_fract_y
_atom_site_fract_z
_atom_type_partial_charge
Cu0 Cu 0.04508 0.59678 0.23591 0.0
N1 N 0.0393 0.58557 0.28995 0.0
N2 N 0.03811 0.57184 0.34783 0.0
C3 C 0.04415 0.57779 0.305 0.0
C4 C 0.02911 0.57608 0.35995 0.0
C5 C 0.02991 0.58454 0.32438 0.0
O6 O 0.0492 0.58715 0.17974 0.0
C7 C 0.06724 0.62651 0.23642 0.0
O8 O 0.06533 0.62545 0.18817 0.0
H9 H 0.05201 0.5766 0.28515 0.0
H10 H 0.02427 0.58987 0.32422 0.0
N11 N 0.03011 0.59788 0.21637 0.0
N12 N 1.01703 0.60516 0.18687 0.0
C13 C 0.03 0.60885 0.19969 0.0
C14 C 1.01684 0.58693 0.21384 0.0
C15 C 1.00877 0.59136 0.19585 0.0
C16 C 0.05897 0.5847 0.17683 0.0
O17 O 0.06839 0.59015 0.21229 0.0
H18 H 0.03919 0.61927 0.19689 0.0
H19 H 1.01334 0.57636 0.22359 0.0
O20 O 0.06025 0.61555 0.26052 0.0
H21 H 0.02272 0.57364 0.39302 0.0
H22 H 0.99772 0.58476 0.1885 0.0
Cu23 Cu 0.48608 0.4689 0.22407 0.0
N24 N 0.49092 0.48082 0.17281 0.0
N25 N 0.50366 0.49553 0.11453 0.0
C26 C 0.50364 0.48848 0.15262 0.0
C27 C 0.49039 0.49215 0.11084 0.0
C28 C 0.48258 0.48309 0.14682 0.0
O29 O 0.50203 0.47827 0.26942 0.0
C30 C 0.47871 0.43981 0.21537 0.0
O31 O 0.47884 0.44083 0.2643 0.0
H32 H 0.51262 0.48855 0.16488 0.0
H33 H 0.47156 0.47836 0.1533 0.0
N34 N 0.47007 0.46669 0.25612 0.0
N35 N 0.44914 0.45719 0.29241 0.0
C36 C 0.45834 0.45459 0.26775 0.0
C37 C 0.46817 0.47725 0.27348 0.0
C38 C 0.45533 0.47146 0.29592 0.0
C39 C 0.50127 0.48032 0.31647 0.0
O40 O 0.48901 0.47446 0.33779 0.0
H41 H 0.45668 0.44414 0.25919 0.0
H42 H 0.47568 0.48841 0.27035 0.0
O43 O 0.48202 0.45066 0.19272 0.0
H44 H 0.48659 0.49598 0.08419 0.0
H45 H 0.45087 0.47732 0.31318 0.0
Cu46 Cu 0.61642 0.03023 0.3315 0.0
N47 N 0.60434 0.02272 0.27676 0.0
N48 N 0.59088 0.02089 0.21492 0.0
C49 C 0.60006 0.02954 0.2512 0.0
C50 C 0.58943 1.00815 0.21748 0.0
C51 C 0.59772 1.00931 0.2557 0.0
O52 O 0.6078 0.0359 0.38537 0.0
C53 C 0.64594 0.05033 0.33296 0.0
O54 O 0.64567 0.04626 0.37731 0.0
H55 H 0.60368 0.04066 0.2588 0.0
H56 H 0.5987 1.00091 0.26781 0.0
N57 N 0.61765 0.01579 0.35609 0.0
N58 N 0.62577 1.00365 0.3869 0.0
C59 C 0.62836 0.01375 0.35658 0.0
C60 C 0.60797 1.00648 0.38624 0.0
C61 C 0.61297 0.99905 0.40548 0.0
C62 C 0.6039 0.04469 0.38505 0.0
O63 O 0.60721 0.05249 0.34728 0.0
H64 H 0.63816 0.02012 0.33791 0.0
H65 H 0.59826 1.00575 0.39577 0.0
O66 O 0.63457 0.04533 0.30959 0.0
H67 H 0.58259 0.99857 0.19436 0.0
H68 H 0.60783 0.99125 0.43255 0.0
Cu69 Cu 0.06241 0.46439 0.74654 0.0
N70 N 0.06747 0.47548 0.69235 0.0
N71 N 0.0685 0.48963 0.63656 0.0
C72 C 0.06332 0.48419 0.68081 0.0
C73 C 0.07617 0.4841 0.61978 0.0
C74 C 0.07545 0.47536 0.65403 0.0
O75 O 0.0585 0.47384 0.80386 0.0
C76 C 0.0405 0.43448 0.74625 0.0
O77 O 0.04265 0.43544 0.79426 0.0
H78 H 0.05657 0.48641 0.70408 0.0
H79 H 0.08015 0.46906 0.6507 0.0
N80 N 0.07778 0.46353 0.76325 0.0
N81 N 0.09148 0.45695 0.79228 0.0
C82 C 0.07826 0.45355 0.78616 0.0
C83 C 0.09112 0.47359 0.75528 0.0
C84 C 0.09956 0.46955 0.77282 0.0
C85 C 0.04867 0.47621 0.80748 0.0
O86 O 0.03919 0.47078 0.77226 0.0
H87 H 0.06916 0.44399 0.79792 0.0
H88 H 0.09448 0.48332 0.73836 0.0
O89 O 0.04726 0.44552 0.72243 0.0
H90 H 0.08152 0.48583 0.58441 0.0
H91 H 0.11081 0.47562 0.77244 0.0
Cu92 Cu 0.63768 0.60474 0.68362 0.0
N93 N 0.6327 0.59512 0.74142 0.0
N94 N 0.61987 0.58206 0.80342 0.0
C95 C 0.61985 0.58756 0.76085 0.0
C96 C 0.63329 0.58636 0.81071 0.0
C97 C 0.64115 0.5944 0.77252 0.0
O98 O 0.62145 0.59456 0.63956 0.0
C99 C 0.63611 0.6279 0.72957 0.0
O100 O 0.62336 0.61797 0.74034 0.0
H101 H 0.61075 0.58635 0.74434 0.0
H102 H 0.65225 0.59936 0.76766 0.0
N103 N 0.65274 0.60435 0.65379 0.0
N104 N 0.67297 0.61083 0.61532 0.0
C105 C 0.66416 0.61494 0.63296 0.0
C106 C 0.65434 0.59319 0.64908 0.0
C107 C 0.66677 0.59714 0.62549 0.0
C108 C 0.62212 0.59184 0.59289 0.0
O109 O 0.63435 0.59735 0.57146 0.0
H110 H 0.66602 0.62547 0.63133 0.0
H111 H 0.64694 0.58288 0.66188 0.0
O112 O 0.64361 0.62443 0.70315 0.0
H113 H 0.6372 0.58377 0.84111 0.0
H114 H 0.67082 0.59035 0.61593 0.0
Cu115 Cu 0.48747 0.04757 0.79697 0.0
N116 N 0.49907 0.05323 0.85274 0.0
N117 N 0.51283 0.05399 0.91151 0.0
C118 C 0.50556 0.04712 0.86899 0.0
C119 C 0.51076 0.06483 0.92216 0.0
C120 C 0.50226 0.06427 0.88621 0.0
O121 O 0.49599 0.04276 0.74036 0.0
C122 C 0.45793 0.02611 0.79069 0.0
O123 O 0.45843 0.02886 0.74412 0.0
H124 H 0.50471 0.03767 0.85057 0.0
H125 H 0.49858 0.0714 0.88479 0.0
N126 N 0.48715 0.06335 0.78029 0.0
N127 N 0.48152 0.07744 0.74793 0.0
C128 C 0.47696 0.06414 0.75991 0.0
C129 C 0.49844 0.07658 0.78127 0.0
C130 C 0.49501 0.08527 0.76173 0.0
C131 C 0.49827 0.0327 0.73539 0.0
O132 O 0.4933 0.02326 0.76844 0.0
H133 H 0.46661 0.0551 0.75211 0.0
H134 H 0.50861 0.0796 0.79402 0.0
O135 O 0.46905 0.03242 0.8165 0.0
H136 H 0.51511 0.07271 0.95352 0.0
H137 H 0.50202 0.09647 0.75746 0.0
Cu138 Cu 0.72849 0.94451 0.64927 0.0
N139 N 0.72346 0.93478 0.70674 0.0
N140 N 0.72243 0.92115 0.76444 0.0
C141 C 0.7257 0.92454 0.71687 0.0
C142 C 0.7179 0.92952 0.78482 0.0
C143 C 0.71852 0.93788 0.7491 0.0
O144 O 0.73604 0.93591 0.60212 0.0
C145 C 0.75028 0.9689 0.70267 0.0
O146 O 0.75212 0.95952 0.72107 0.0
H147 H 0.73029 0.92019 0.6907 0.0
H148 H 0.71605 0.94604 0.75412 0.0
N149 N 0.71263 0.9419 0.61996 0.0
N150 N 0.69854 0.94608 0.58007 0.0
C151 C 0.71011 0.95184 0.60831 0.0
C152 C 0.70225 0.9295 0.59879 0.0
C153 C 0.69358 0.93204 0.57401 0.0
C154 C 0.73579 0.93649 0.55527 0.0
O155 O 0.73222 0.9448 0.53853 0.0
H156 H 0.71701 0.96311 0.6179 0.0
H157 H 0.70145 0.91941 0.59945 0.0
O158 O 0.74119 0.96471 0.66862 0.0
H159 H 0.71461 0.92974 0.82305 0.0
H160 H 0.68449 0.92425 0.5523 0.0
Cu161 Cu 0.14905 0.79888 0.59084 0.0
N162 N 0.15851 0.80485 0.65168 0.0
N163 N 0.17251 0.81874 0.71533 0.0
C164 C 0.16867 0.8181 0.66797 0.0
C165 C 0.16447 0.80536 0.72904 0.0
C166 C 0.15587 0.79685 0.68977 0.0
O167 O 0.15833 0.81488 0.54951 0.0
C168 C 0.1255 0.79956 0.62896 0.0
O169 O 0.13457 0.81308 0.64059 0.0
H170 H 0.17286 0.82714 0.64603 0.0
H171 H 0.14808 0.78563 0.68917 0.0
N172 N 0.15027 0.78383 0.55962 0.0
N173 N 0.14489 0.76331 0.51657 0.0
C174 C 0.14007 0.77146 0.53717 0.0
C175 C 0.16192 0.78355 0.55308 0.0
C176 C 0.15867 0.77096 0.52667 0.0
C177 C 0.15849 0.81339 0.50211 0.0
O178 O 0.15082 0.80066 0.47927 0.0
H179 H 0.12935 0.76857 0.53601 0.0
H180 H 0.17212 0.79203 0.56597 0.0
O181 O 0.12956 0.79198 0.60511 0.0
H182 H 0.16478 0.80194 0.76489 0.0
H183 H 0.16601 0.76789 0.51484 0.0
Cu184 Cu 0.28719 0.36393 0.60474 0.0
N185 N 0.26921 0.34931 0.61995 0.0
N186 N 0.24927 0.34009 0.66286 0.0
C187 C 0.263 0.34995 0.66308 0.0
C188 C 0.24673 0.33287 0.61747 0.0
C189 C 0.25906 0.33861 0.59101 0.0
O190 O 0.28423 0.37807 0.57975 0.0
C191 C 0.29749 0.35777 0.67942 0.0
O192 O 0.28928 0.34536 0.65528 0.0
H193 H 0.26833 0.35827 0.69265 0.0
H194 H 0.26035 0.33576 0.55255 0.0
N195 N 0.29703 0.35969 0.55575 0.0
N196 N 0.3154 0.36482 0.50681 0.0
C197 C 0.30938 0.36997 0.53924 0.0
C198 C 0.295 0.34747 0.53301 0.0
C199 C 0.30632 0.35061 0.50252 0.0
C200 C 0.2802 0.3752 0.53437 0.0
O201 O 0.27939 0.36412 0.50914 0.0
H202 H 0.31382 0.38107 0.55126 0.0
H203 H 0.28613 0.33703 0.53895 0.0
O204 O 0.29838 0.36876 0.66466 0.0
H205 H 0.23661 0.32443 0.60363 0.0
H206 H 0.30787 0.34298 0.48012 0.0
Cu207 Cu 0.72161 0.79928 0.09223 0.0
N208 N 0.7182 0.80556 0.15536 0.0
N209 N 0.71866 0.8194 0.22227 0.0
C210 C 0.72127 0.81868 0.17292 0.0
C211 C 0.71358 0.80618 0.2359 0.0
C212 C 0.71334 0.79773 0.19475 0.0
O213 O 0.72525 0.81272 0.04375 0.0
C214 C 0.74602 0.80249 0.13156 0.0
O215 O 0.74651 0.81301 0.15984 0.0
H216 H 0.72583 0.82763 0.15053 0.0
H217 H 0.7102 0.7867 0.19381 0.0
N218 N 0.70577 0.78189 0.07104 0.0
N219 N 0.69174 0.76076 0.02928 0.0
C220 C 0.70483 0.77228 0.0344 0.0
C221 C 0.69288 0.77632 0.08976 0.0
C222 C 0.68424 0.76334 0.06431 0.0
C223 C 0.73511 0.82569 0.04695 0.0
O224 O 0.74417 0.83052 0.08341 0.0
H225 H 0.71359 0.77383 1.01182 0.0
H226 H 0.68998 0.78133 0.12006 0.0
O227 O 0.73664 0.79587 0.09813 0.0
H228 H 0.71039 0.80283 0.2731 0.0
H229 H 0.67332 0.75628 0.07184 0.0
Cu230 Cu 0.29348 0.94529 0.12047 0.0
N231 N 0.28708 0.93604 0.17912 0.0
N232 N 0.27291 0.92199 0.23687 0.0
C233 C 0.27398 0.92577 0.18989 0.0
C234 C 0.28587 0.93021 0.25611 0.0
C235 C 0.29455 0.93884 0.22048 0.0
O236 O 0.27821 0.93534 0.07254 0.0
C237 C 0.29251 0.96959 0.15883 0.0
O238 O 0.27927 0.96042 0.16645 0.0
H239 H 0.26537 0.92143 0.16417 0.0
H240 H 0.30554 0.94671 0.22451 0.0
N241 N 0.30879 0.94441 0.09628 0.0
N242 N 0.32903 0.95015 0.0594 0.0
C243 C 0.31927 0.95356 0.06776 0.0
C244 C 0.31201 0.93489 0.10622 0.0
C245 C 0.32448 0.93842 0.08365 0.0
C246 C 0.2797 0.93483 0.02544 0.0
O247 O 0.29216 0.94252 1.00645 0.0
H248 H 0.31988 0.96272 0.05442 0.0
H249 H 0.30579 0.92611 0.12887 0.0
O250 O 0.29993 0.96522 0.13722 0.0
H251 H 0.28891 0.92997 0.29322 0.0
H252 H 0.32977 0.93274 0.08485 0.0
Cu253 Cu 0.15882 0.37069 0.12297 0.0
N254 N 0.16885 0.37801 0.18286 0.0
N255 N 0.18363 0.3834 0.24527 0.0
C256 C 0.17925 0.37686 0.19901 0.0
C257 C 0.1757 0.38889 0.2583 0.0
C258 C 0.16665 0.38557 0.21986 0.0
O259 O 0.16716 0.3625 0.07766 0.0
C260 C 0.13572 0.34945 0.17413 0.0
O261 O 0.14538 0.34954 0.19938 0.0
H262 H 0.1833 0.37111 0.17765 0.0
H263 H 0.15893 0.38842 0.21887 0.0
N264 N 0.15994 0.38579 0.09384 0.0
N265 N 0.15443 0.39933 0.05705 0.0
C266 C 0.1498 0.38628 0.07182 0.0
C267 C 0.17133 0.39888 0.09272 0.0
C268 C 0.16799 0.40724 0.07014 0.0
C269 C 0.16295 0.35809 0.03287 0.0
O270 O 0.15217 0.35824 0.01812 0.0
H271 H 0.13919 0.37736 0.06773 0.0
H272 H 0.18136 0.40212 0.10773 0.0
O273 O 0.13932 0.35724 0.13793 0.0
H274 H 0.17646 0.39501 0.29297 0.0
H275 H 0.17505 0.41829 0.06352 0.0
Cu276 Cu 0.37811 0.27536 0.9303 0.0
N277 N 0.37113 0.264 0.98369 0.0
N278 N 0.36857 0.2494 0.04034 0.0
C279 C 0.37531 0.25567 0.99882 0.0
C280 C 0.35979 0.25397 0.05151 0.0
C281 C 0.3614 0.26297 0.01656 0.0
O282 O 0.38305 0.26513 0.87902 0.0
C283 C 0.40146 0.30433 0.933 0.0
O284 O 0.39942 0.3037 0.88506 0.0
H285 H 0.38341 0.25457 0.98044 0.0
H286 H 0.35599 0.2685 0.01545 0.0
N287 N 0.36418 0.27788 0.9085 0.0
N288 N 0.35222 0.28745 0.88811 0.0
C289 C 0.36483 0.28995 0.89988 0.0
C290 C 0.35078 0.26747 0.90174 0.0
C291 C 0.34339 0.27331 0.88925 0.0
C292 C 0.37893 0.26228 0.83389 0.0
O293 O 0.3721 0.26769 0.81819 0.0
H294 H 0.3742 0.30038 0.90367 0.0
H295 H 0.34664 0.2564 0.90638 0.0
O296 O 0.39386 0.2934 0.95666 0.0
H297 H 0.35267 0.25101 0.08262 0.0
H298 H 0.33235 0.26759 0.88152 0.0
Cu299 Cu 0.8095 0.13436 0.99065 0.0
N300 N 0.81491 0.14547 0.93657 0.0
N301 N 0.82798 0.15922 0.87641 0.0
C302 C 0.82776 0.15287 0.91703 0.0
C303 C 0.81472 0.15565 0.87046 0.0
C304 C 0.80671 0.14715 0.90743 0.0
O305 O 0.8256 0.14342 0.03544 0.0
C306 C 0.80665 0.10665 0.9759 0.0
O307 O 0.81487 0.11043 0.0145 0.0
H308 H 0.83666 0.15324 0.93167 0.0
H309 H 0.79563 0.1424 0.91243 0.0
N310 N 0.7943 0.13421 0.02197 0.0
N311 N 0.77416 0.12731 0.0616 0.0
C312 C 0.7834 0.12368 0.04516 0.0
C313 C 0.7919 0.14484 0.02427 0.0
C314 C 0.77949 0.14061 0.04841 0.0
C315 C 0.82498 0.14635 0.082 0.0
O316 O 0.81276 0.14154 0.103 0.0
H317 H 0.78215 0.11351 0.04912 0.0
H318 H 0.7987 0.15496 1.00912 0.0
O319 O 0.80349 0.1152 0.96228 0.0
H320 H 0.81102 0.15894 0.84158 0.0
H321 H 0.77481 0.14688 0.05613 0.0
Cu322 Cu 0.9642 0.70819 0.88369 0.0
N323 N 0.95538 0.70398 0.82231 0.0
N324 N 0.94265 0.70347 0.76045 0.0
C325 C 0.94726 0.70846 0.80774 0.0
C326 C 0.9481 0.69554 0.74497 0.0
C327 C 0.95593 0.69588 0.78316 0.0
O328 O 0.95518 0.71529 0.93068 0.0
C329 C 0.98901 0.73286 0.85375 0.0
O330 O 0.98068 0.73721 0.84443 0.0
H331 H 0.94499 0.71542 0.8312 0.0
H332 H 0.96161 0.69058 0.78258 0.0
N333 N 0.96138 0.69138 0.90476 0.0
N334 N 0.96438 0.67586 0.94021 0.0
C335 C 0.97036 0.68941 0.92828 0.0
C336 C 0.94939 0.6787 0.90136 0.0
C337 C 0.95119 0.66911 0.92314 0.0
C338 C 0.9535 0.71289 0.97653 0.0
O339 O 0.95961 0.70706 0.99484 0.0
H340 H 0.98092 0.69783 0.93771 0.0
H341 H 0.93995 0.67663 0.88466 0.0
O342 O 0.98404 0.7212 0.87357 0.0
H343 H 0.94642 0.68973 0.70887 0.0
H344 H 0.94338 0.65802 0.92599 0.0
Cu345 Cu 0.38523 0.1373 0.43786 0.0
N346 N 0.38948 0.14606 0.37845 0.0
N347 N 0.39013 0.1588 0.31799 0.0
C348 C 0.38487 0.15398 0.36296 0.0
C349 C 0.39837 0.15366 0.30498 0.0
C350 C 0.39794 0.14583 0.34229 0.0
O351 O 0.37874 0.14704 0.48486 0.0
C352 C 0.36056 0.11205 0.39994 0.0
O353 O 0.35658 0.12067 0.38992 0.0
H354 H 0.37768 0.15602 0.38416 0.0
H355 H 0.40348 0.14041 0.34323 0.0
N356 N 0.40147 0.13959 0.46247 0.0
N357 N 0.41632 0.13544 0.4974 0.0
C358 C 0.40305 0.12994 0.48277 0.0
C359 C 0.4141 0.15157 0.46428 0.0
C360 C 0.42327 0.14907 0.48573 0.0
C361 C 0.38166 0.14941 0.53117 0.0
O362 O 0.38786 0.14366 0.54952 0.0
H363 H 0.39463 0.11911 0.48654 0.0
H364 H 0.41642 0.16148 0.45133 0.0
O365 O 0.372 0.11707 0.4228 0.0
H366 H 0.40449 0.1556 0.27134 0.0
H367 H 0.43415 0.15682 0.49312 0.0
Cu368 Cu 0.96211 0.26841 0.44802 0.0
N369 N 0.95686 0.2568 0.50046 0.0
N370 N 0.94399 0.24276 0.56016 0.0
C371 C 0.94422 0.24982 0.52173 0.0
C372 C 0.95703 0.24543 0.56292 0.0
C373 C 0.96493 0.25408 0.52609 0.0
O374 O 0.94581 0.25962 0.40432 0.0
C375 C 0.97224 0.29859 0.45709 0.0
O376 O 0.97276 0.29803 0.40822 0.0
H377 H 0.93546 0.2502 0.50989 0.0
H378 H 0.97582 0.25819 0.51869 0.0
N379 N 0.97696 0.26841 0.41425 0.0
N380 N 0.9969 0.27478 0.37378 0.0
C381 C 0.9892 0.27934 0.39913 0.0
C382 C 0.97699 0.25663 0.39838 0.0
C383 C 0.98921 0.26049 0.37347 0.0
C384 C 0.94631 0.2577 0.35709 0.0
O385 O 0.95848 0.26352 0.33503 0.0
H386 H 0.99227 0.29034 0.40566 0.0
H387 H 0.9686 0.24594 0.40423 0.0
O388 O 0.96777 0.28729 0.47874 0.0
H389 H 0.96062 0.24136 0.58943 0.0
H390 H 0.99223 0.2533 0.35678 0.0
Cu391 Cu 0.83019 0.71707 0.3498 0.0
N392 N 0.8394 0.72274 0.41096 0.0
N393 N 0.85267 0.72469 0.47362 0.0
C394 C 0.848 0.71902 0.42685 0.0
C395 C 0.84677 0.73229 0.48743 0.0
C396 C 0.8386 0.73107 0.4487 0.0
O397 O 0.84031 0.71103 0.30404 0.0
C398 C 0.80743 0.69214 0.3867 0.0
O399 O 0.81725 0.69064 0.40299 0.0
H400 H 0.8505 0.71204 0.40482 0.0
H401 H 0.83247 0.73586 0.44809 0.0
N402 N 0.83091 0.73267 0.32632 0.0
N403 N 0.82481 0.74639 0.29432 0.0
C404 C 0.82029 0.73363 0.31147 0.0
C405 C 0.84249 0.74522 0.31864 0.0
C406 C 0.83878 0.75369 0.29886 0.0
C407 C 0.84181 0.71308 0.2579 0.0
O408 O 0.83496 0.71797 0.23837 0.0
H409 H 0.80952 0.72504 0.31213 0.0
H410 H 0.85292 0.74793 0.32641 0.0
O411 O 0.8108 0.7024 0.36047 0.0
H412 H 0.84831 0.73841 0.52278 0.0
H413 H 0.84584 0.76443 0.28891 0.0
C414 C 0.03915 0.49048 0.84945 0.0
C415 C 0.04893 0.48637 0.8482 0.0
C416 C 0.04013 0.50096 0.88528 0.0
C417 C 0.0564 0.5203 1.00724 0.0
H418 H 0.04959 0.54835 0.96512 0.0
C419 C 0.0685 0.57034 0.1356 0.0
C420 C 0.05874 0.57448 0.13645 0.0
C421 C 0.06755 0.55984 0.09993 0.0
C422 C 0.05139 0.54053 0.97774 0.0
H423 H 0.06725 0.48992 0.88469 0.0
H424 H 0.06898 0.50815 0.94679 0.0
H425 H 0.04697 0.52921 0.90554 0.0
H426 H 0.04047 0.57092 0.0995 0.0
H427 H 0.03879 0.55266 0.03776 0.0
H428 H 0.06082 0.53161 0.07946 0.0
C429 C 0.06047 0.50321 0.92036 0.0
C430 C 0.04986 0.52951 0.9435 0.0
C431 C 0.0595 0.49276 0.88451 0.0
C432 C 0.04821 0.56807 0.09998 0.0
C433 C 0.04727 0.5576 0.06432 0.0
C434 C 0.05793 0.53131 0.04149 0.0
C435 C 0.0509 0.50759 0.92091 0.0
C436 C 0.05234 0.51923 0.95774 0.0
C437 C 0.05683 0.55321 0.06408 0.0
C438 C 0.05544 0.5416 0.02726 0.0
H439 H 0.03085 0.4858 0.82217 0.0
H440 H 0.03243 0.50387 0.88498 0.0
H441 H 0.05821 0.51248 0.01983 0.0
H442 H 0.07676 0.57503 0.16304 0.0
H443 H 0.07523 0.55692 0.10049 0.0
C444 C 0.59446 0.56596 0.81563 0.0
C445 C 0.6081 0.5735 0.83467 0.0
C446 C 0.58311 0.55763 0.84589 0.0
C447 C 0.57387 0.5391 0.96137 0.0
H448 H 0.54009 0.53954 0.95455 0.0
C449 C 0.52899 0.51151 0.10166 0.0
C450 C 0.51529 0.50443 0.08351 0.0
C451 C 0.54026 0.52003 0.07147 0.0
C452 C 0.54937 0.53914 0.95654 0.0
H453 H 0.62032 0.57829 0.9013 0.0
H454 H 0.60062 0.56373 0.95364 0.0
H455 H 0.55971 0.55407 0.90144 0.0
H456 H 0.5028 0.50068 0.01886 0.0
H457 H 0.52239 0.51539 0.96616 0.0
H458 H 0.56354 0.5241 0.01613 0.0
C459 C 0.59872 0.56412 0.91505 0.0
C460 C 0.56064 0.54749 0.92607 0.0
C461 C 0.61005 0.57248 0.88489 0.0
C462 C 0.51317 0.50613 0.03437 0.0
C463 C 0.52444 0.5146 1.00411 0.0
C464 C 0.56259 0.5307 0.9917 0.0
C465 C 0.5851 0.55656 0.89596 0.0
C466 C 0.57305 0.5476 0.92815 0.0
C467 C 0.53815 0.52166 0.0222 0.0
C468 C 0.55018 0.53062 0.98979 0.0
H469 H 0.59251 0.56628 0.77708 0.0
H470 H 0.57278 0.5518 0.82976 0.0
H471 H 0.58319 0.53875 0.96341 0.0
H472 H 0.53101 0.51064 0.13951 0.0
H473 H 0.55064 0.52549 0.08705 0.0
C474 C 0.58074 0.03495 0.1973 0.0
C475 C 0.58361 0.02435 0.18214 0.0
C476 C 0.57344 0.03812 0.16611 0.0
C477 C 0.54996 0.02341 0.05574 0.0
H478 H 0.55945 0.06231 0.05521 0.0
C479 C 0.52517 0.04129 0.91912 0.0
C480 C 0.52092 0.05046 0.94008 0.0
C481 C 0.53304 0.03799 0.94691 0.0
C482 C 0.55661 0.05138 0.05518 0.0
H483 H 0.58124 1.00893 0.12178 0.0
H484 H 0.56872 0.0146 0.0669 0.0
H485 H 0.57293 0.05691 0.10609 0.0
H486 H 0.52154 0.06306 1.00778 0.0
H487 H 0.53539 0.05752 0.05534 0.0
H488 H 0.5337 0.01797 1.00427 0.0
C489 C 0.57184 0.02028 0.10341 0.0
C490 C 0.56432 0.04826 0.0845 0.0
C491 C 0.57906 0.01704 0.13482 0.0
C492 C 0.52477 0.05619 0.98967 0.0
C493 C 0.53273 0.053 0.01719 0.0
C494 C 0.54232 0.02656 0.02606 0.0
C495 C 0.5689 0.03085 0.11867 0.0
C496 C 0.56101 0.03421 0.08566 0.0
C497 C 0.53698 0.04388 0.99618 0.0
C498 C 0.54546 0.04056 0.02586 0.0
H499 H 0.58386 0.0406 0.23382 0.0
H500 H 0.57114 0.04611 0.1797 0.0
H501 H 0.54696 1.01245 0.05611 0.0
H502 H 0.52261 0.03677 0.88102 0.0
H503 H 0.53626 0.03102 0.92951 0.0
C504 C 0.58864 0.05332 0.42217 0.0
C505 C 0.59414 0.04466 0.42403 0.0
C506 C 0.57842 0.05223 0.45609 0.0
C507 C 0.56202 0.03814 0.57734 0.0
H508 H 0.53152 0.03987 0.5278 0.0
C509 C 0.51299 0.02369 0.69591 0.0
C510 C 0.50797 0.03282 0.696 0.0
C511 C 0.5232 0.02484 0.66189 0.0
C512 C 0.54001 0.03948 0.54239 0.0
H513 H 0.59336 0.02828 0.46401 0.0
H514 H 0.57556 0.02631 0.52251 0.0
H515 H 0.55031 0.04306 0.47183 0.0
H516 H 0.50953 0.05006 0.65914 0.0
H517 H 0.52725 0.05201 0.59995 0.0
H518 H 0.55165 0.03445 0.64782 0.0
C519 C 0.57922 0.03408 0.4953 0.0
C520 C 0.55084 0.04136 0.51029 0.0
C521 C 0.58943 0.03517 0.4615 0.0
C522 C 0.51312 0.04283 0.66018 0.0
C523 C 0.52327 0.04392 0.62603 0.0
C524 C 0.55116 0.0362 0.60937 0.0
C525 C 0.57343 0.04246 0.49273 0.0
C526 C 0.56201 0.04073 0.52729 0.0
C527 C 0.5286 0.03509 0.62689 0.0
C528 C 0.54001 0.03685 0.59235 0.0
H529 H 0.59202 0.06075 0.3939 0.0
H530 H 0.5744 0.05904 0.45344 0.0
H531 H 0.57052 0.03779 0.59208 0.0
H532 H 0.50928 0.01587 0.72293 0.0
H533 H 0.52692 0.01772 0.66315 0.0
C534 C 0.03129 0.55432 0.41019 0.0
C535 C 0.04107 0.56338 0.37622 0.0
C536 C 0.03429 0.54647 0.43889 0.0
C537 C 0.05724 0.53244 0.44451 0.0
H538 H 0.04691 0.52965 0.58399 0.0
C539 C 0.07541 0.50756 0.57603 0.0
C540 C 0.06579 0.49867 0.61062 0.0
C541 C 0.07252 0.51573 0.54868 0.0
C542 C 0.04973 0.53018 0.54498 0.0
H543 H 0.06176 0.5712 0.34621 0.0
H544 H 0.06693 0.55745 0.39593 0.0
H545 H 0.04153 0.54311 0.53326 0.0
H546 H 0.04558 0.49154 0.64381 0.0
H547 H 0.04048 0.50573 0.59592 0.0
H548 H 0.06535 0.51946 0.456 0.0
C549 C 0.05686 0.55633 0.39997 0.0
C550 C 0.04665 0.53791 0.51588 0.0
C551 C 0.05388 0.56422 0.37135 0.0
C552 C 0.0533 0.49838 0.61793 0.0
C553 C 0.05037 0.50653 0.59041 0.0
C554 C 0.06029 0.52469 0.47355 0.0
C555 C 0.04714 0.54741 0.43429 0.0
C556 C 0.05038 0.53915 0.46528 0.0
C557 C 0.05989 0.5152 0.55503 0.0
C558 C 0.0566 0.52348 0.52422 0.0
H559 H 1.02123 0.55318 0.41443 0.0
H560 H 0.02646 0.53952 0.46431 0.0
H561 H 0.06006 0.53299 0.4055 0.0
H562 H 0.08524 0.50825 0.57013 0.0
H563 H 0.08023 0.52251 0.52261 0.0
C564 C 0.59641 0.57367 0.58773 0.0
C565 C 0.60936 0.58124 0.56402 0.0
C566 C 0.58468 0.5628 0.5612 0.0
C567 C 0.57482 0.53794 0.44715 0.0
H568 H 0.53829 0.53212 0.47174 0.0
C569 C 0.52699 0.49832 0.32282 0.0
C570 C 0.51398 0.49065 0.34606 0.0
C571 C 0.53867 0.50902 0.34996 0.0
C572 C 0.54839 0.53347 0.46482 0.0
H573 H 0.61998 0.58353 0.49326 0.0
H574 H 0.59957 0.5648 0.44703 0.0
H575 H 0.55833 0.55176 0.51725 0.0
H576 H 0.50321 0.48801 0.41665 0.0
H577 H 0.52356 0.50649 0.46393 0.0
H578 H 0.56488 0.51967 0.39464 0.0
C579 C 0.5985 0.56705 0.48636 0.0
C580 C 0.5599 0.54477 0.49094 0.0
C581 C 0.6102 0.57791 0.51285 0.0
C582 C 0.51304 0.49371 0.39741 0.0
C583 C 0.52471 0.50441 0.42451 0.0
C584 C 0.5633 0.52665 0.42101 0.0
C585 C 0.58561 0.55921 0.51028 0.0
C586 C 0.57329 0.54718 0.48241 0.0
C587 C 0.53765 0.51235 0.40104 0.0
C588 C 0.54992 0.52426 0.42944 0.0
H589 H 0.59537 0.5759 0.62713 0.0
H590 H 0.57498 0.55693 0.58103 0.0
H591 H 0.58491 0.53928 0.4402 0.0
H592 H 0.52811 0.49632 0.28331 0.0
H593 H 0.54842 0.51498 0.33047 0.0
C594 C 0.72406 0.83258 0.3057 0.0
C595 C 0.72154 0.8318 0.25459 0.0
C596 C 0.72672 0.84445 0.3373 0.0
C597 C 0.73742 0.88229 0.33848 0.0
H598 H 0.72102 0.87602 0.47019 0.0
C599 C 0.73568 0.92599 0.46845 0.0
C600 C 0.73713 0.92616 0.52006 0.0
C601 C 0.73508 0.91516 0.43562 0.0
C602 C 0.72587 0.87801 0.43385 0.0
H603 H 0.71991 0.84307 0.19684 0.0
H604 H 0.72444 0.86378 0.25209 0.0
H605 H 0.71711 0.85586 0.4138 0.0
H606 H 0.7397 0.91532 0.57724 0.0
H607 H 0.73882 0.89655 0.51998 0.0
H608 H 0.74604 0.90448 0.35858 0.0
C609 C 0.72454 0.85524 0.26759 0.0
C610 C 0.7236 0.86641 0.40137 0.0
C611 C 0.72191 0.84334 0.23586 0.0
C612 C 0.73854 0.91553 0.53777 0.0
C613 C 0.73791 0.90468 0.50494 0.0
C614 C 0.73967 0.89391 0.37101 0.0
C615 C 0.7269 0.85591 0.31885 0.0
C616 C 0.72935 0.86837 0.35323 0.0
C617 C 0.73588 0.90418 0.45353 0.0
C618 C 0.73392 0.89192 0.41915 0.0
H619 H 0.72419 0.82408 0.32138 0.0
H620 H 0.72878 0.84469 0.37627 0.0
H621 H 0.74217 0.88425 0.302 0.0
H622 H 0.73454 0.93399 0.45342 0.0
H623 H 0.73341 0.91509 0.39638 0.0
C624 C 0.16876 0.82391 0.42101 0.0
C625 C 0.16858 0.82551 0.47334 0.0
C626 C 0.17914 0.83477 0.39394 0.0
C627 C 0.20712 0.87323 0.40426 0.0
H628 H 0.22268 0.862 0.29154 0.0
C629 C 0.25947 0.91277 0.31399 0.0
C630 C 0.26056 0.91159 0.26178 0.0
C631 C 0.24766 0.90259 0.33833 0.0
C632 C 0.21835 0.86534 0.3225 0.0
H633 H 0.17905 0.84004 0.53811 0.0
H634 H 0.19722 0.85888 0.49109 0.0
H635 H 0.20313 0.84388 0.33651 0.0
H636 H 0.24995 0.89868 0.19439 0.0
H637 H 0.2293 0.88096 0.23682 0.0
H638 H 0.22255 0.89471 0.39066 0.0
C639 C 0.18923 0.8493 0.47076 0.0
C640 C 0.20709 0.85493 0.34833 0.0
C641 C 0.17881 0.83845 0.49783 0.0
C642 C 0.24944 0.89999 0.23455 0.0
C643 C 0.23765 0.88975 0.25895 0.0
C644 C 0.21842 0.88364 0.37853 0.0
C645 C 0.18967 0.84754 0.41844 0.0
C646 C 0.20135 0.85871 0.38977 0.0
C647 C 0.23662 0.8909 0.31119 0.0
C648 C 0.22424 0.87983 0.33748 0.0
H649 H 0.16101 0.81413 0.40084 0.0
H650 H 0.17895 0.83311 0.3537 0.0
H651 H 0.20286 0.87659 0.4354 0.0
H652 H 0.26773 0.92162 0.33618 0.0
H653 H 0.2473 0.90376 0.3786 0.0
C654 C 0.26459 0.38481 0.53498 0.0
C655 C 0.27447 0.38243 0.51062 0.0
C656 C 0.25609 0.38743 0.50747 0.0
C657 C 0.24193 0.37882 0.38004 0.0
H658 H 0.22757 0.40289 0.42135 0.0
C659 C 0.20545 0.38363 0.25259 0.0
C660 C 0.19437 0.3843 0.27509 0.0
C661 C 0.21591 0.38468 0.28165 0.0
C662 C 0.23138 0.396 0.40947 0.0
H663 H 0.2841 0.38216 0.43963 0.0
H664 H 0.26977 0.38723 0.39223 0.0
H665 H 0.24508 0.40342 0.47252 0.0
H666 H 0.18554 0.38637 0.34613 0.0
H667 H 0.2036 0.38803 0.39662 0.0
H668 H 0.22813 0.37114 0.31777 0.0
C669 C 0.2682 0.38667 0.43206 0.0
C670 C 0.24145 0.39635 0.43881 0.0
C671 C 0.27654 0.38394 0.45931 0.0
C672 C 0.19401 0.38603 0.32742 0.0
C673 C 0.20443 0.38702 0.35647 0.0
C674 C 0.23187 0.37843 0.35093 0.0
C675 C 0.25741 0.38775 0.45529 0.0
C676 C 0.24689 0.38779 0.42431 0.0
C677 C 0.21552 0.38635 0.33404 0.0
C678 C 0.22644 0.38702 0.3651 0.0
H679 H 0.26263 0.38347 0.57437 0.0
H680 H 0.24789 0.38822 0.52657 0.0
H681 H 0.2456 0.3718 0.36829 0.0
H682 H 0.20618 0.38252 0.21246 0.0
H683 H 0.22439 0.38434 0.26293 0.0
C684 C 0.16563 0.34851 0.94771 0.0
C685 C 0.1707 0.35391 0.99648 0.0
C686 C 0.1733 0.34545 0.91224 0.0
C687 C 0.2029 0.33975 0.89752 0.0
H688 H 0.20366 0.34965 0.76304 0.0
C689 C 0.24359 0.34358 0.75082 0.0
C690 C 0.23939 0.33912 0.70075 0.0
C691 C 0.23449 0.34394 0.78703 0.0
C692 C 0.20342 0.34662 0.80019 0.0
H693 H 0.18779 0.36008 0.04628 0.0
H694 H 0.20126 0.35496 0.98432 0.0
H695 H 0.18935 0.3531 0.82576 0.0
H696 H 0.2221 0.3312 0.64999 0.0
H697 H 0.20616 0.33167 0.71323 0.0
H698 H 0.2172 0.33351 0.87192 0.0
C699 C 0.19123 0.35288 0.97356 0.0
C700 C 0.19518 0.3486 0.83631 0.0
C701 C 0.18352 0.35589 1.00915 0.0
C702 C 0.22568 0.33461 0.68815 0.0
C703 C 0.21659 0.33504 0.72437 0.0
C704 C 0.21118 0.33782 0.86139 0.0
C705 C 0.1863 0.34777 0.92439 0.0
C706 C 0.19483 0.34525 0.8856 0.0
C707 C 0.22093 0.33989 0.7742 0.0
C708 C 0.21161 0.34129 0.81226 0.0
H709 H 0.15576 0.34676 0.93663 0.0
H710 H 0.169 0.34128 0.87515 0.0
H711 H 0.20275 0.33682 0.93476 0.0
H712 H 0.25401 0.34697 0.76197 0.0
H713 H 0.23826 0.34783 0.82485 0.0
C714 C 0.74235 0.85017 0.02688 0.0
C715 C 0.73543 0.83554 1.01291 0.0
C716 C 0.74167 0.85934 0.99686 0.0
C717 C 0.72076 0.85906 0.89324 0.0
H718 H 0.75076 0.89846 0.89262 0.0
C719 C 0.72205 0.89876 0.76445 0.0
C720 C 0.72442 0.9115 0.78948 0.0
C721 C 0.7238 0.88932 0.78919 0.0
C722 C 0.7423 0.88748 0.89253 0.0
H723 H 0.72281 0.81912 0.95544 0.0
H724 H 0.72215 0.83513 0.9019 0.0
H725 H 0.7535 0.88233 0.93866 0.0
H726 H 0.73082 0.92452 0.8595 0.0
H727 H 0.73416 0.90819 0.90241 0.0
H728 H 0.70977 0.86429 0.84587 0.0
C729 C 0.7277 0.83954 0.93692 0.0
C730 C 0.7438 0.87821 0.91921 0.0
C731 C 0.72818 0.83034 0.96744 0.0
C732 C 0.72878 0.91472 0.83946 0.0
C733 C 0.7308 0.90543 0.86386 0.0
C734 C 0.71938 0.86828 0.86582 0.0
C735 C 0.73424 0.85416 0.95153 0.0
C736 C 0.73298 0.86389 0.9206 0.0
C737 C 0.72825 0.8926 0.8391 0.0
C738 C 0.73005 0.88262 0.86573 0.0
H739 H 0.74792 0.8545 0.06195 0.0
H740 H 0.74664 0.87043 1.01014 0.0
H741 H 0.71206 0.84823 0.89393 0.0
H742 H 0.71863 0.89601 0.72601 0.0
H743 H 0.7218 0.87952 0.76921 0.0
C744 C 0.2693 0.92363 0.94067 0.0
C745 C 0.26778 0.92435 0.99275 0.0
C746 C 0.25851 0.9129 0.91017 0.0
C747 C 0.22797 0.8766 0.91405 0.0
H748 H 0.21834 0.88325 0.78795 0.0
C749 C 0.18141 0.83189 0.79771 0.0
C750 C 0.18274 0.83109 0.7456 0.0
C751 C 0.19144 0.84366 0.82732 0.0
C752 C 0.221 0.88115 0.82276 0.0
H753 H 0.25348 0.91453 0.05337 0.0
H754 H 0.2347 0.89586 1.00022 0.0
H755 H 0.23631 0.90318 0.84041 0.0
H756 H 0.1957 0.84213 0.68383 0.0
H757 H 0.21335 0.86258 0.73544 0.0
H758 H 0.21294 0.8546 0.89631 0.0
C759 C 0.2443 0.90353 0.98298 0.0
C760 C 0.23129 0.89261 0.85291 0.0
C761 C 0.25505 0.91431 1.01345 0.0
C762 C 0.19429 0.84246 0.72379 0.0
C763 C 0.2044 0.85422 0.75348 0.0
C764 C 0.21777 0.86515 0.88383 0.0
C765 C 0.24596 0.90255 0.93102 0.0
C766 C 0.23487 0.89047 0.89901 0.0
C767 C 0.20316 0.85494 0.80574 0.0
C768 C 0.2141 0.86725 0.83778 0.0
H769 H 0.27896 0.93118 0.92343 0.0
H770 H 0.26017 0.91241 0.87034 0.0
H771 H 0.23065 0.87452 0.94885 0.0
H772 H 0.17252 0.82347 0.81571 0.0
H773 H 0.18991 0.84394 0.86724 0.0
C774 C 0.37553 0.24817 0.75154 0.0
C775 C 0.38037 0.25162 0.80102 0.0
C776 C 0.37571 0.23724 0.72186 0.0
C777 C 0.37626 0.20467 0.73153 0.0
H778 H 0.38577 0.20783 0.59146 0.0
C779 C 0.38403 0.1633 0.61303 0.0
C780 C 0.37979 0.15996 0.56286 0.0
C781 C 0.38357 0.17416 0.6419 0.0
C782 C 0.38289 0.20667 0.63034 0.0
H783 H 0.38955 0.24645 0.85752 0.0
H784 H 0.38998 0.22752 0.80566 0.0
H785 H 0.38666 0.22772 0.64147 0.0
H786 H 0.37136 0.16527 0.50418 0.0
H787 H 0.37033 0.18406 0.55478 0.0
H788 H 0.37243 0.18362 0.72049 0.0
C789 C 0.38586 0.23314 0.78999 0.0
C790 C 0.38344 0.21812 0.6591 0.0
C791 C 0.38573 0.24409 0.81963 0.0
C792 C 0.37472 0.16754 0.54267 0.0
C793 C 0.37425 0.17842 0.5716 0.0
C794 C 0.37567 0.19322 0.70278 0.0
C795 C 0.38069 0.22944 0.7409 0.0
C796 C 0.38019 0.21729 0.71015 0.0
C797 C 0.37883 0.182 0.62148 0.0
C798 C 0.37902 0.19406 0.65179 0.0
H799 H 0.3713 0.2537 0.73594 0.0
H800 H 0.37154 0.23464 0.68442 0.0
H801 H 0.37343 0.20353 0.77048 0.0
H802 H 0.38805 0.15774 0.62986 0.0
H803 H 0.38734 0.17668 0.67989 0.0
C804 C 0.85344 0.17454 0.86334 0.0
C805 C 0.83976 0.1677 0.84511 0.0
C806 C 0.8648 0.18273 0.83292 0.0
C807 C 0.87437 0.20203 0.71896 0.0
H808 H 0.90712 0.19955 0.72112 0.0
C809 C 0.91863 0.22792 0.57518 0.0
C810 C 0.93238 0.23439 0.59215 0.0
C811 C 0.9074 0.21984 0.60621 0.0
C812 C 0.89813 0.20051 0.72046 0.0
H813 H 0.82745 0.16399 0.77983 0.0
H814 H 0.84718 0.17828 0.72719 0.0
H815 H 0.88754 0.18551 0.77515 0.0
H816 H 0.94502 0.23757 0.65564 0.0
H817 H 0.9255 0.22357 0.7097 0.0
H818 H 0.88495 0.21705 0.66444 0.0
C819 C 0.84912 0.17748 0.76529 0.0
C820 C 0.88689 0.19245 0.75147 0.0
C821 C 0.83778 0.16928 0.79561 0.0
C822 C 0.9346 0.23257 0.64099 0.0
C823 C 0.92338 0.22452 0.67205 0.0
C824 C 0.88562 0.21011 0.68804 0.0
C825 C 0.86279 0.18433 0.78352 0.0
C826 C 0.87485 0.19307 0.75103 0.0
C827 C 0.90962 0.21803 0.6551 0.0
C828 C 0.89765 0.20945 0.68826 0.0
H829 H 0.85541 0.17376 0.90136 0.0
H830 H 0.87518 0.18801 0.8484 0.0
H831 H 0.86536 0.20294 0.71821 0.0
H832 H 0.91652 0.22891 0.53761 0.0
H833 H 0.89696 0.21482 0.59155 0.0
C834 C 0.93402 0.70487 0.67989 0.0
C835 C 0.9338 0.70604 0.73227 0.0
C836 C 0.92538 0.70719 0.6525 0.0
C837 C 0.89314 0.70794 0.66216 0.0
H838 H 0.90713 0.72815 0.54301 0.0
C839 C 0.86163 0.72441 0.55525 0.0
C840 C 0.86184 0.72284 0.50289 0.0
C841 C 0.87046 0.72256 0.58359 0.0
C842 C 0.90301 0.72235 0.57588 0.0
H843 H 0.92417 0.71055 0.79674 0.0
H844 H 0.90928 0.71485 0.74901 0.0
H845 H 0.92244 0.72469 0.59186 0.0
H846 H 0.87172 0.71823 0.43949 0.0
H847 H 0.88693 0.71477 0.48883 0.0
H848 H 0.8737 0.70558 0.64611 0.0
C849 C 0.91606 0.71198 0.7291 0.0
C850 C 0.91179 0.72036 0.60393 0.0
C851 C 0.92473 0.70967 0.75652 0.0
C852 C 0.87115 0.71939 0.47966 0.0
C853 C 0.88 0.71757 0.508 0.0
C854 C 0.88436 0.70993 0.63411 0.0
C855 C 0.91626 0.71076 0.67671 0.0
C856 C 0.90697 0.71309 0.64736 0.0
C857 C 0.87977 0.71912 0.56034 0.0
C858 C 0.88916 0.71712 0.59052 0.0
H859 H 0.94096 0.70225 0.65986 0.0
H860 H 0.92571 0.70601 0.61223 0.0
H861 H 0.88901 0.7021 0.69495 0.0
H862 H 0.85452 0.72692 0.5745 0.0
H863 H 0.87009 0.72398 0.62379 0.0
C864 C 0.86115 0.70825 0.24986 0.0
C865 C 0.85248 0.71174 0.22796 0.0
C866 C 0.87204 0.70833 0.22275 0.0
C867 C 0.89455 0.72359 0.11318 0.0
H868 H 0.90387 0.69531 0.12701 0.0
C869 C 0.93472 0.71853 0.98582 0.0
C870 C 0.94321 0.71471 1.00715 0.0
C871 C 0.92399 0.71868 1.01336 0.0
C872 C 0.90154 0.70342 0.12316 0.0
H873 H 0.84827 0.71765 0.1597 0.0
H874 H 0.86708 0.71759 0.11244 0.0
H875 H 0.88424 0.69398 0.17293 0.0
H876 H 0.94733 0.70856 0.07498 0.0
H877 H 0.92885 0.70905 0.12306 0.0
H878 H 0.91186 0.73304 0.06344 0.0
C879 C 0.86564 0.71504 0.15085 0.0
C880 C 0.89024 0.70263 0.1495 0.0
C881 C 0.85475 0.71495 0.1779 0.0
C882 C 0.94098 0.7115 0.05719 0.0
C883 C 0.93028 0.71165 0.08471 0.0
C884 C 0.90586 0.72438 0.08687 0.0
C885 C 0.87455 0.71192 0.17307 0.0
C886 C 0.88657 0.71269 0.14484 0.0
C887 C 0.92148 0.71501 0.06296 0.0
C888 C 0.90952 0.71431 0.09147 0.0
H889 H 0.85976 0.7058 0.28838 0.0
H890 H 0.87875 0.70598 0.24127 0.0
H891 H 0.8922 0.73168 0.10929 0.0
H892 H 0.93608 0.721 0.94731 0.0
H893 H 0.91738 0.72121 0.99516 0.0
C894 C 0.38981 0.16792 0.23808 0.0
C895 C 0.38763 0.16765 0.28987 0.0
C896 C 0.38762 0.17664 0.21092 0.0
C897 C 0.3694 0.19605 0.21529 0.0
H898 H 0.39587 0.21705 0.11342 0.0
C899 C 0.36767 0.2392 0.11909 0.0
C900 C 0.37059 0.24013 0.06785 0.0
C901 C 0.36967 0.23029 0.14585 0.0
C902 C 0.38827 0.21112 0.14127 0.0
H903 H 0.38147 0.17654 0.35349 0.0
H904 H 0.37757 0.19164 0.30609 0.0
H905 H 0.39942 0.20164 0.16059 0.0
H906 H 0.37773 0.23218 1.00454 0.0
H907 H 0.38113 0.21655 0.05105 0.0
H908 H 0.3582 0.20546 0.19587 0.0
C909 C 0.38085 0.18497 0.28644 0.0
C910 C 0.39032 0.2023 0.16838 0.0
C911 C 0.38308 0.17628 0.31366 0.0
C912 C 0.37555 0.23189 0.04405 0.0
C913 C 0.37752 0.22293 0.0708 0.0
C914 C 0.36732 0.20484 0.18808 0.0
C915 C 0.38314 0.18529 0.23474 0.0
C916 C 0.38092 0.19466 0.20579 0.0
C917 C 0.3746 0.22201 0.12209 0.0
C918 C 0.37674 0.21252 0.15075 0.0
H919 H 0.39307 0.16127 0.21822 0.0
H920 H 0.38927 0.17645 0.17104 0.0
H921 H 0.36184 0.19016 0.2433 0.0
H922 H 0.36406 0.24556 0.13885 0.0
H923 H 0.36755 0.23007 0.18544 0.0
C924 C 0.93424 0.2444 0.27646 0.0
C925 C 0.93349 0.24738 0.32799 0.0
C926 C 0.92253 0.23364 0.24974 0.0
C927 C 0.88398 0.21102 0.25467 0.0
H928 H 0.88902 0.18621 0.15717 0.0
C929 C 0.83703 0.15992 0.16228 0.0
C930 C 0.83782 0.15665 0.11102 0.0
C931 C 0.84878 0.17068 0.18886 0.0
C932 C 0.88742 0.19312 0.18382 0.0
H933 H 0.91959 0.24153 0.39144 0.0
H934 H 0.89917 0.22278 0.34487 0.0
H935 H 0.90907 0.20591 0.20244 0.0
H936 H 0.85179 0.162 0.04786 0.0
H937 H 0.87225 0.18081 0.09408 0.0
H938 H 0.86235 0.19827 0.23598 0.0
C939 C 0.90883 0.22884 0.325 0.0
C940 C 0.89895 0.20445 0.20983 0.0
C941 C 0.92057 0.23959 0.35178 0.0
C942 C 0.85079 0.16416 0.08735 0.0
C943 C 0.86255 0.17496 0.11395 0.0
C944 C 0.87246 0.1997 0.22861 0.0
C945 C 0.9097 0.22556 0.27373 0.0
C946 C 0.89739 0.21357 0.24564 0.0
C947 C 0.86167 0.17852 0.16495 0.0
C948 C 0.874 0.19056 0.19286 0.0
H949 H 0.94399 0.25018 0.25677 0.0
H950 H 0.92355 0.23161 0.21018 0.0
H951 H 0.88238 0.21792 0.2814 0.0
H952 H 0.82725 0.15434 0.18188 0.0
H953 H 0.84772 0.17289 0.22824 0.0
C954 C 0.08375 0.65305 0.23879 0.0
C955 C 0.07641 0.64061 0.26391 0.0
C956 C 0.09159 0.66639 0.26535 0.0
C957 C 0.10762 0.68371 0.38986 0.0
H958 H 0.10732 0.71564 0.34608 0.0
C959 C 0.14254 0.74065 0.48242 0.0
C960 C 0.13719 0.74955 0.48865 0.0
C961 C 0.13531 0.72749 0.45463 0.0
C962 C 0.10743 0.70682 0.35916 0.0
H963 H 0.07176 0.63251 0.33693 0.0
H964 H 0.08518 0.65562 0.38296 0.0
H965 H 0.09457 0.69258 0.29867 0.0
H966 H 0.11984 0.75134 0.46993 0.0
H967 H 0.10708 0.72827 0.42273 0.0
H968 H 0.12011 0.6978 0.45115 0.0
C969 C 0.0851 0.65513 0.34269 0.0
C970 C 0.10026 0.69361 0.33147 0.0
C971 C 0.07731 0.64183 0.31619 0.0
C972 C 0.12429 0.7448 0.46648 0.0
C973 C 0.11703 0.7316 0.43875 0.0
C974 C 0.11475 0.6969 0.41759 0.0
C975 C 0.09228 0.66763 0.31775 0.0
C976 C 0.10023 0.68184 0.34648 0.0
C977 C 0.12245 0.72275 0.43234 0.0
C978 C 0.11476 0.70866 0.4027 0.0
H979 H 0.08331 0.65253 0.19857 0.0
H980 H 0.09713 0.67572 0.24473 0.0
H981 H 0.108 0.67499 0.40239 0.0
H982 H 0.15232 0.74376 0.49924 0.0
H983 H 0.13993 0.72111 0.45014 0.0
C984 C 0.43018 0.45106 0.35348 0.0
C985 C 0.4357 0.44704 0.31206 0.0
C986 C 0.41706 0.44145 0.37204 0.0
C987 C 0.38977 0.40301 0.37125 0.0
H988 H 0.3669 0.41779 0.42073 0.0
C989 C 0.33229 0.3677 0.43924 0.0
C990 C 0.32887 0.373 0.48344 0.0
C991 C 0.34517 0.37601 0.41595 0.0
C992 C 0.37318 0.41349 0.40737 0.0
H993 H 0.43167 0.42961 0.25794 0.0
H994 H 0.40864 0.41283 0.28999 0.0
H995 H 0.38943 0.43352 0.3843 0.0
H996 H 0.33686 0.39104 0.53885 0.0
H997 H 0.35893 0.40541 0.49811 0.0
H998 H 0.3733 0.38288 0.39428 0.0
C999 C 0.41458 0.42341 0.30857 0.0
C1000 C 0.38615 0.42254 0.38657 0.0
C1001 C 0.42779 0.43304 0.2901 0.0
C1002 C 0.33882 0.38667 0.50422 0.0
C1003 C 0.35157 0.39495 0.48087 0.0
C1004 C 0.37669 0.39389 0.39185 0.0
C1005 C 0.40897 0.42753 0.34959 0.0
C1006 C 0.39477 0.41752 0.36898 0.0
C1007 C 0.35488 0.38983 0.43617 0.0
C1008 C 0.36835 0.3991 0.41094 0.0
H1009 H 0.43607 0.46163 0.37207 0.0
H1010 H 0.41331 0.44495 0.40445 0.0
H1011 H 0.39612 0.39875 0.35844 0.0
H1012 H 0.32491 0.35727 0.42197 0.0
H1013 H 0.34738 0.37176 0.38146 0.0
C1014 C 0.69226 0.96423 0.58468 0.0
C1015 C 0.69316 0.95339 0.55745 0.0
C1016 C 0.6863 0.97076 0.56333 0.0
C1017 C 0.66383 0.96551 0.4556 0.0
H1018 H 0.67421 1.00399 0.50005 0.0
C1019 C 0.64257 0.99617 0.36779 0.0
C1020 C 0.63529 0.99997 0.40271 0.0
C1021 C 0.65094 0.99149 0.38364 0.0
C1022 C 0.67128 0.99325 0.48716 0.0
H1023 H 0.68922 0.94133 0.48598 0.0
H1024 H 0.67956 0.95314 0.44761 0.0
H1025 H 0.68662 0.99405 0.53255 0.0
H1026 H 0.63147 1.00254 0.4812 0.0
H1027 H 0.64649 0.99488 0.50903 0.0
H1028 H 0.64872 0.965 0.40921 0.0
C1029 C 0.68279 0.95626 0.48619 0.0
C1030 C 0.67828 0.98746 0.50615 0.0
C1031 C 0.68843 0.94951 0.50798 0.0
C1032 C 0.63693 0.99957 0.45366 0.0
C1033 C 0.64555 0.99527 0.46953 0.0
C1034 C 0.65708 0.97144 0.43581 0.0
C1035 C 0.68139 0.96683 0.51373 0.0
C1036 C 0.67452 0.97339 0.49131 0.0
C1037 C 0.65246 0.99097 0.43468 0.0
C1038 C 0.6606 0.98528 0.45195 0.0
H1039 H 0.69577 0.96732 0.62301 0.0
H1040 H 0.68523 0.97863 0.58634 0.0
H1041 H 0.66033 0.95457 0.44379 0.0
H1042 H 0.64139 0.99638 0.32836 0.0
H1043 H 0.65618 0.98822 0.35611 0.0
C1044 C 0.66009 0.06567 0.26444 0.0
C1045 C 0.65943 0.05927 0.30771 0.0
C1046 C 0.67262 0.0732 0.23859 0.0
C1047 C 0.7111 0.08925 0.24976 0.0
H1048 H 0.70954 0.08776 0.10591 0.0
C1049 C 0.75997 0.10978 0.12267 0.0
C1050 C 0.76124 0.11891 0.0875 0.0
C1051 C 0.74762 0.10226 0.14965 0.0
C1052 C 0.71014 0.08831 0.14609 0.0
H1053 H 0.67151 0.05581 0.35779 0.0
H1054 H 0.69317 0.06845 0.3121 0.0
H1055 H 0.68806 0.07541 0.15308 0.0
H1056 H 0.75041 0.12696 0.05192 0.0
H1057 H 0.72881 0.11367 0.0982 0.0
H1058 H 0.73329 0.10187 0.24212 0.0
C1059 C 0.68415 0.06807 0.29862 0.0
C1060 C 0.6978 0.08132 0.17334 0.0
C1061 C 0.67166 0.06073 0.32487 0.0
C1062 C 0.74979 0.1201 0.07907 0.0
C1063 C 0.73739 0.11241 0.10532 0.0
C1064 C 0.72345 0.09607 0.22238 0.0
C1065 C 0.68482 0.07433 0.25479 0.0
C1066 C 0.69806 0.08175 0.22569 0.0
C1067 C 0.73619 0.10352 0.14127 0.0
C1068 C 0.7231 0.09576 0.17027 0.0
H1069 H 0.65088 0.06482 0.25033 0.0
H1070 H 0.6727 0.07812 0.20581 0.0
H1071 H 0.71183 0.09009 0.28994 0.0
H1072 H 0.76864 0.10873 0.13015 0.0
H1073 H 0.74697 0.09542 0.17692 0.0
C1074 C 0.96211 0.65817 0.99483 0.0
C1075 C 0.9705 0.66983 0.96678 0.0
C1076 C 0.96785 0.65197 0.01939 0.0
C1077 C 1.00103 0.65804 0.06564 0.0
H1078 H 0.9797 0.617 0.06455 0.0
C1079 C 0.02217 0.62532 0.13863 0.0
C1080 C 1.01278 0.61371 0.1656 0.0
C1081 C 1.01768 0.6329 0.11523 0.0
C1082 C 0.98574 0.62848 0.06568 0.0
H1083 H 0.99163 0.68421 0.94314 0.0
H1084 H 1.00169 0.6733 0.98574 0.0
H1085 H 0.97074 0.62874 0.02176 0.0
H1086 H 0.99147 0.60157 0.19123 0.0
H1087 H 0.98368 0.61466 0.15045 0.0
H1088 H 1.0161 0.65766 0.10944 0.0
C1089 C 0.99064 0.66905 0.98919 0.0
C1090 C 0.98059 0.63523 0.04115 0.0
C1091 C 0.98488 0.67531 0.9647 0.0
C1092 C 0.99893 0.6102 0.16984 0.0
C1093 C 0.99445 0.61773 0.14643 0.0
C1094 C 1.00623 0.65125 0.09012 0.0
C1095 C 0.98217 0.65721 0.01647 0.0
C1096 C 0.98806 0.65011 0.04124 0.0
C1097 C 1.00369 0.62903 0.11817 0.0
C1098 C 0.99856 0.63639 0.09089 0.0
H1099 H 0.95106 0.65387 0.99824 0.0
H1100 H 0.96104 0.6431 0.04101 0.0
H1101 H 1.00703 0.66952 0.06685 0.0
H1102 H 0.03288 0.62828 0.13424 0.0
H1103 H 0.02505 0.64151 0.09354 0.0
C1104 C 0.41373 0.3185 1.01211 0.0
C1105 C 0.41161 0.31798 0.9608 0.0
C1106 C 0.42237 0.33145 0.03949 0.0
C1107 C 0.45 0.36923 0.02803 0.0
H1108 H 0.43634 0.37505 0.15696 0.0
C1109 C 0.47249 0.42469 0.13427 0.0
C1110 C 0.47324 0.42582 0.18657 0.0
C1111 C 0.46621 0.41142 0.10714 0.0
C1112 C 0.44045 0.37356 0.12143 0.0
H1113 H 0.41728 0.33071 0.89786 0.0
H1114 H 0.43228 0.35334 0.94576 0.0
H1115 H 0.42318 0.35224 0.10867 0.0
H1116 H 0.46838 0.41382 0.25114 0.0
H1117 H 0.45756 0.39067 0.20378 0.0
H1118 H 0.4672 0.39065 0.04067 0.0
C1119 C 0.42734 0.34369 0.96475 0.0
C1120 C 0.43288 0.36045 0.09364 0.0
C1121 C 0.41869 0.33071 0.93728 0.0
C1122 C 0.46794 0.41336 0.21094 0.0
C1123 C 0.46164 0.40007 0.18378 0.0
C1124 C 0.45759 0.38236 0.05588 0.0
C1125 C 0.42911 0.34425 0.01639 0.0
C1126 C 0.4375 0.35812 0.04645 0.0
C1127 C 0.46051 0.39891 0.13157 0.0
C1128 C 0.45287 0.38472 0.10284 0.0
H1129 H 0.40853 0.30891 0.03147 0.0
H1130 H 0.42368 0.33143 0.07897 0.0
H1131 H 0.45398 0.36776 0.99217 0.0
H1132 H 0.47645 0.43405 0.11418 0.0
H1133 H 0.4654 0.41095 0.06709 0.0
C1134 C 0.98338 0.32518 0.46454 0.0
C1135 C 0.97762 0.3124 0.48736 0.0
C1136 C 0.98906 0.33821 0.49335 0.0
C1137 C 1.0037 0.35509 0.61889 0.0
H1138 H 0.99915 0.38509 0.58148 0.0
C1139 C 0.02483 0.40782 0.74293 0.0
C1140 C 0.03139 0.4204 0.71849 0.0
C1141 C 1.01726 0.39453 0.7159 0.0
C1142 C 1.00064 0.37688 0.59227 0.0
H1143 H 0.97308 0.30337 0.5587 0.0
H1144 H 0.98282 0.32598 0.60865 0.0
H1145 H 0.98802 0.36228 0.53187 0.0
H1146 H 0.03477 0.42877 0.64629 0.0
H1147 H 0.02176 0.40572 0.5994 0.0
H1148 H 1.01643 0.36969 0.67887 0.0
C1149 C 0.98316 0.32598 0.56846 0.0
C1150 C 0.99425 0.36378 0.56374 0.0
C1151 C 0.97747 0.31298 0.53972 0.0
C1152 C 0.02986 0.41934 0.6665 0.0
C1153 C 0.0223 0.40607 0.63952 0.0
C1154 C 1.0101 0.36819 0.64734 0.0
C1155 C 0.98915 0.3388 0.54573 0.0
C1156 C 0.99573 0.35271 0.57655 0.0
C1157 C 1.01604 0.39346 0.6637 0.0
C1158 C 1.00872 0.3793 0.63437 0.0
H1159 H 0.98371 0.32516 0.42435 0.0
H1160 H 0.9937 0.34786 0.47448 0.0
H1161 H 1.00528 0.34693 0.62949 0.0
H1162 H 0.02575 0.40821 0.7829 0.0
H1163 H 1.0124 0.38508 0.73597 0.0
C1164 C 0.68898 0.6306 0.5639 0.0
C1165 C 0.68618 0.61915 0.59071 0.0
C1166 C 0.70166 0.63836 0.53897 0.0
C1167 C 0.73171 0.63601 0.48987 0.0
H1168 H 0.75024 0.67685 0.48887 0.0
C1169 C 0.78912 0.67133 0.43101 0.0
C1170 C 0.79283 0.6829 0.40332 0.0
C1171 C 0.77569 0.66329 0.45029 0.0
C1172 C 0.74512 0.66542 0.4882 0.0
H1173 H 0.69481 0.60725 0.61349 0.0
H1174 H 0.71683 0.62076 0.57073 0.0
H1175 H 0.72781 0.66361 0.53016 0.0
H1176 H 0.78515 0.69487 0.37344 0.0
H1177 H 0.7617 0.68078 0.40699 0.0
H1178 H 0.74912 0.63785 0.44859 0.0
C1179 C 0.70913 0.62356 0.56776 0.0
C1180 C 0.73223 0.65782 0.51192 0.0
C1181 C 0.69646 0.6158 0.59247 0.0
C1182 C 0.78266 0.68603 0.39454 0.0
C1183 C 0.76924 0.67802 0.41413 0.0
C1184 C 0.7446 0.64362 0.46637 0.0
C1185 C 0.71189 0.63489 0.54033 0.0
C1186 C 0.72539 0.64301 0.51348 0.0
C1187 C 0.76562 0.66662 0.44265 0.0
C1188 C 0.75154 0.65844 0.46554 0.0
H1189 H 0.68126 0.63339 0.56126 0.0
H1190 H 0.70332 0.6469 0.51781 0.0
H1191 H 0.72665 0.62459 0.48929 0.0
H1192 H 0.79666 0.66862 0.43864 0.0
H1193 H 0.77334 0.65469 0.47248 0.0
C1194 C 0.43627 0.13366 0.51886 0.0
C1195 C 0.42197 0.12851 0.52147 0.0
C1196 C 0.44191 0.12743 0.54382 0.0
C1197 C 0.43328 0.09492 0.60144 0.0
H1198 H 0.46843 0.12033 0.66947 0.0
C1199 C 0.4595 0.07551 0.72626 0.0
C1200 C 0.47404 0.08225 0.72251 0.0
C1201 C 0.45243 0.08056 0.70257 0.0
C1202 C 0.45868 0.11305 0.65027 0.0
H1203 H 0.40238 0.11252 0.55217 0.0
H1204 H 0.41226 0.1016 0.5956 0.0
H1205 H 0.45748 0.13009 0.62637 0.0
H1206 H 0.49238 0.09918 0.68871 0.0
H1207 H 0.48017 0.10789 0.64772 0.0
H1208 H 0.4346 0.07786 0.62524 0.0
C1209 C 0.41907 0.11044 0.57387 0.0
C1210 C 0.45239 0.11867 0.62552 0.0
C1211 C 0.41341 0.11671 0.54889 0.0
C1212 C 0.48126 0.09394 0.69362 0.0
C1213 C 0.47423 0.09895 0.67 0.0
C1214 C 0.43961 0.08927 0.62622 0.0
C1215 C 0.43343 0.11585 0.57212 0.0
C1216 C 0.4397 0.10969 0.60023 0.0
C1217 C 0.45975 0.09246 0.67456 0.0
C1218 C 0.4525 0.09828 0.65039 0.0
H1219 H 0.44315 0.14249 0.49728 0.0
H1220 H 0.45297 0.13167 0.54071 0.0
H1221 H 0.42354 0.0877 0.58209 0.0
H1222 H 0.45363 0.06653 0.74838 0.0
H1223 H 0.44128 0.07535 0.70712 0.0
C1224 C 0.34254 0.96462 0.98984 0.0
C1225 C 0.34179 0.95759 0.03155 0.0
C1226 C 0.35488 0.97161 0.96242 0.0
C1227 C 0.39274 0.98851 0.97305 0.0
H1228 H 0.39215 0.98266 0.82899 0.0
C1229 C 0.44385 1.01179 0.86126 0.0
C1230 C 0.44436 0.01685 0.81497 0.0
C1231 C 0.4312 1.00401 0.88616 0.0
C1232 C 0.39254 0.98461 0.86914 0.0
H1233 H 0.3535 0.95264 0.07762 0.0
H1234 H 0.37504 0.96496 0.03027 0.0
H1235 H 0.37043 0.9707 0.87543 0.0
H1236 H 0.43189 0.01753 0.75831 0.0
H1237 H 0.40993 1.00438 0.80222 0.0
H1238 H 0.41469 1.00269 0.96722 0.0
C1239 C 0.36607 0.965 0.01856 0.0
C1240 C 0.38005 0.97769 0.89575 0.0
C1241 C 0.35369 0.95784 0.04546 0.0
C1242 C 0.43186 0.0137 0.79373 0.0
C1243 C 0.41922 1.00609 0.81897 0.0
C1244 C 0.40519 0.99557 0.94649 0.0
C1245 C 0.36681 0.97193 0.9766 0.0
C1246 C 0.38002 0.9795 0.94805 0.0
C1247 C 0.41871 1.00125 0.86588 0.0
C1248 C 0.40532 0.99368 0.89409 0.0
H1249 H 0.33352 0.96453 0.97797 0.0
H1250 H 0.35514 0.97693 0.93046 0.0
H1251 H 0.39304 0.99028 1.01328 0.0
H1252 H 0.45326 0.01392 0.87854 0.0
H1253 H 0.43127 1.0002 0.92148 0.0
C1254 C 0.10887 0.45041 0.80131 0.0
C1255 C 0.09628 0.44923 0.81603 0.0
C1256 C 0.11418 0.44391 0.82648 0.0
C1257 C 0.10535 0.41686 0.91578 0.0
H1258 H 0.14517 0.43903 0.93815 0.0
C1259 C 0.13541 0.39461 1.00121 0.0
C1260 C 0.1467 0.40404 0.03281 0.0
C1261 C 0.12849 0.39948 0.97565 0.0
C1262 C 0.13401 0.43272 0.93274 0.0
H1263 H 0.07919 0.43991 0.86806 0.0
H1264 H 0.08855 0.42866 0.91268 0.0
H1265 H 0.13448 0.44848 0.89218 0.0
H1266 H 0.15903 0.42584 0.06433 0.0
H1267 H 0.14694 0.43427 0.02056 0.0
H1268 H 0.10493 0.40125 0.95772 0.0
C1269 C 0.09425 0.4345 0.88115 0.0
C1270 C 0.12788 0.43807 0.90562 0.0
C1271 C 0.08887 0.44095 0.85562 0.0
C1272 C 0.1506 0.41834 0.03943 0.0
C1273 C 0.14365 0.42318 0.0142 0.0
C1274 C 0.1115 0.4115 0.94311 0.0
C1275 C 0.10711 0.43611 0.86743 0.0
C1276 C 0.11348 0.43022 0.89658 0.0
C1277 C 0.13265 0.41389 0.9813 0.0
C1278 C 0.12593 0.41939 0.95206 0.0
H1279 H 0.11468 0.45644 0.77029 0.0
H1280 H 0.12392 0.44508 0.81392 0.0
H1281 H 0.09424 0.41047 0.90927 0.0
H1282 H 0.13221 0.38355 0.99506 0.0
H1283 H 0.12014 0.39202 0.95034 0.0
C1284 C 0.65657 0.65254 0.75117 0.0
C1285 C 0.64216 0.64266 0.75262 0.0
C1286 C 0.6624 0.66601 0.7769 0.0
C1287 C 0.65404 0.69211 0.8344 0.0
H1288 H 0.68644 0.70533 0.9166 0.0
C1289 C 0.67241 0.73907 0.9847 0.0
C1290 C 0.68672 0.74827 0.99445 0.0
C1291 C 0.66747 0.72679 0.95227 0.0
C1292 C 0.67754 0.70197 0.89326 0.0
H1293 H 0.62257 0.63941 0.78108 0.0
H1294 H 0.63272 0.66291 0.82542 0.0
H1295 H 0.677 0.6831 0.86432 0.0
H1296 H 0.70704 0.75158 0.97654 0.0
H1297 H 0.69847 0.73046 0.91893 0.0
H1298 H 0.65457 0.71096 0.86294 0.0
C1299 C 0.63951 0.66025 0.8044 0.0
C1300 C 0.6721 0.68917 0.86331 0.0
C1301 C 0.6337 0.64674 0.77911 0.0
C1302 C 0.69596 0.74489 0.97 0.0
C1303 C 0.69101 0.73262 0.93725 0.0
C1304 C 0.65954 0.70496 0.86401 0.0
C1305 C 0.65396 0.66998 0.80425 0.0
C1306 C 0.66019 0.684 0.83391 0.0
C1307 C 0.67667 0.72335 0.9281 0.0
C1308 C 0.67127 0.71001 0.89439 0.0
H1309 H 0.66341 0.64976 0.7312 0.0
H1310 H 0.67355 0.6733 0.77555 0.0
H1311 H 0.64498 0.68854 0.81166 0.0
H1312 H 0.66491 0.7413 1.002 0.0
H1313 H 0.65635 0.71987 0.94688 0.0
C1314 C 0.75466 0.99366 0.71019 0.0
C1315 C 0.75749 0.98376 0.72578 0.0
C1316 C 0.76052 1.00723 0.73523 0.0
C1317 C 0.78862 0.03304 0.82462 0.0
H1318 H 0.76504 0.04839 0.84917 0.0
C1319 C 0.80439 0.08281 0.96134 0.0
C1320 C 0.8012 0.09259 0.94728 0.0
C1321 C 0.79931 0.06967 0.93374 0.0
C1322 C 0.77184 0.04437 0.84221 0.0
H1323 H 0.76902 0.98059 0.77941 0.0
H1324 H 0.77909 1.00408 0.82308 0.0
H1325 H 0.75612 0.02565 0.80079 0.0
H1326 H 0.79013 0.09613 0.89282 0.0
H1327 H 0.78144 0.0734 0.84476 0.0
H1328 H 0.80432 0.05175 0.86636 0.0
C1329 C 0.77247 1.00147 0.79119 0.0
C1330 C 0.76672 0.03129 0.8143 0.0
C1331 C 0.76662 0.98792 0.76618 0.0
C1332 C 0.79278 0.08887 0.905 0.0
C1333 C 0.78771 0.07576 0.87748 0.0
C1334 C 0.79375 0.04612 0.85259 0.0
C1335 C 0.76938 1.01126 0.77651 0.0
C1336 C 0.77502 0.02542 0.80512 0.0
C1337 C 0.79089 0.06596 0.89141 0.0
C1338 C 0.78543 0.05197 0.86182 0.0
H1339 H 0.74769 0.99084 0.67921 0.0
H1340 H 0.75807 0.01455 0.7223 0.0
H1341 H 0.7954 0.02899 0.8178 0.0
H1342 H 0.81081 0.08529 0.99372 0.0
H1343 H 0.80184 0.06234 0.946 0.0
C1344 C 0.10567 0.80123 0.6667 0.0
C1345 C 0.11105 0.79287 0.64826 0.0
C1346 C 0.0924 0.795 0.6881 0.0
C1347 C 0.05949 0.75971 0.70222 0.0
H1348 H 0.05316 0.78072 0.81211 0.0
C1349 C 1.01099 0.73358 0.82893 0.0
C1350 C 1.00359 0.74049 0.8355 0.0
C1351 C 0.02417 0.74022 0.80694 0.0
C1352 C 0.05477 0.77476 0.7813 0.0
H1353 H 0.10664 0.77136 0.63789 0.0
H1354 H 0.08386 0.76057 0.67662 0.0
H1355 H 0.07577 0.79163 0.77128 0.0
H1356 H 1.0045 0.76003 0.82564 0.0
H1357 H 0.02771 0.77177 0.7885 0.0
H1358 H 0.03856 0.74268 0.7137 0.0
C1359 C 0.08962 0.7719 0.67336 0.0
C1360 C 0.06772 0.78103 0.75752 0.0
C1361 C 0.10277 0.77811 0.65123 0.0
C1362 C 1.00991 0.75441 0.82113 0.0
C1363 C 0.02321 0.76115 0.79995 0.0
C1364 C 0.04664 0.75337 0.72657 0.0
C1365 C 0.08423 0.78025 0.69245 0.0
C1366 C 0.0703 0.77362 0.7175 0.0
C1367 C 0.03038 0.75403 0.7918 0.0
C1368 C 0.04412 0.76081 0.76635 0.0
H1369 H 0.11174 0.81263 0.66477 0.0
H1370 H 0.08859 0.8018 0.70118 0.0
H1371 H 0.06085 0.75371 0.67099 0.0
H1372 H 1.00642 0.72285 0.83935 0.0
H1373 H 0.0295 0.73453 0.80156 0.0
C1374 C 0.32008 0.36266 0.70987 0.0
C1375 C 0.30614 0.35827 0.71943 0.0
C1376 C 0.32675 0.35791 0.73764 0.0
C1377 C 0.31626 0.32605 0.80025 0.0
H1378 H 0.35495 0.34482 0.83866 0.0
C1379 C 0.33561 0.29538 0.89181 0.0
C1380 C 0.34863 0.29757 0.87755 0.0
C1381 C 0.33157 0.30449 0.87868 0.0
C1382 C 0.34414 0.33939 0.82773 0.0
H1383 H 0.28859 0.34645 0.76734 0.0
H1384 H 0.30032 0.33868 0.81706 0.0
H1385 H 0.34621 0.35858 0.80715 0.0
H1386 H 0.3678 0.31131 0.83953 0.0
H1387 H 0.3606 0.32709 0.81512 0.0
H1388 H 0.31412 0.30683 0.81867 0.0
C1389 C 0.30608 0.34554 0.78775 0.0
C1390 C 0.33913 0.34731 0.80989 0.0
C1391 C 0.29942 0.35018 0.75987 0.0
C1392 C 0.35772 0.3094 0.85116 0.0
C1393 C 0.35359 0.31846 0.83734 0.0
C1394 C 0.32125 0.31817 0.81758 0.0
C1395 C 0.31954 0.34867 0.77518 0.0
C1396 C 0.32509 0.34072 0.79623 0.0
C1397 C 0.34032 0.31596 0.85012 0.0
C1398 C 0.33523 0.32469 0.83189 0.0
H1399 H 0.32534 0.36856 0.67794 0.0
H1400 H 0.3371 0.36049 0.72684 0.0
H1401 H 0.30549 0.32051 0.78866 0.0
H1402 H 0.32851 0.28655 0.91313 0.0
H1403 H 0.32146 0.30243 0.89061 0.0
C1404 C 1.01435 0.27733 0.30997 0.0
C1405 C 1.01039 0.28317 0.35112 0.0
C1406 C 0.02758 0.28511 0.28912 0.0
C1407 C 0.06326 0.3148 0.31951 0.0
H1408 H 0.06865 0.31224 0.17668 0.0
C1409 C 0.11738 0.33387 0.2336 0.0
C1410 C 0.12101 0.34143 0.19092 0.0
C1411 C 0.10377 0.32712 0.25184 0.0
C1412 C 0.06734 0.31316 0.21662 0.0
H1413 H 1.01731 0.30194 0.40205 0.0
H1414 H 0.04045 0.31561 0.36542 0.0
H1415 H 0.04514 0.30045 0.2106 0.0
H1416 H 0.113 0.34757 0.13346 0.0
H1417 H 0.08922 0.33576 0.16525 0.0
H1418 H 0.08545 0.32755 0.32555 0.0
C1419 C 0.03329 0.30492 0.34956 0.0
C1420 C 0.05385 0.30629 0.23613 0.0
C1421 C 1.01998 0.29713 0.37029 0.0
C1422 C 0.11058 0.34181 0.16633 0.0
C1423 C 0.09693 0.335 0.1845 0.0
C1424 C 0.07675 0.32161 0.30002 0.0
C1425 C 0.03729 0.29896 0.30887 0.0
C1426 C 0.05163 0.30692 0.28787 0.0
C1427 C 0.09339 0.32771 0.22785 0.0
C1428 C 0.07898 0.32079 0.24834 0.0
H1429 H 1.00719 0.2667 0.29372 0.0
H1430 H 0.03032 0.28012 0.25814 0.0
H1431 H 0.06197 0.31542 0.35952 0.0
H1432 H 0.1251 0.3333 0.25351 0.0
H1433 H 0.10138 0.3214 0.28477 0.0
C1434 C 0.80294 0.74623 0.29149 0.0
C1435 C 0.81658 0.75124 0.27474 0.0
C1436 C 0.79518 0.75135 0.27372 0.0
C1437 C 0.7927 0.76936 0.17003 0.0
H1438 H 0.77263 0.78014 0.26562 0.0
C1439 C 0.75454 0.78574 0.11432 0.0
C1440 C 0.75516 0.7973 0.14291 0.0
C1441 C 0.76225 0.78009 0.12816 0.0
C1442 C 0.77823 0.77724 0.23846 0.0
H1443 H 0.83256 0.76526 0.22491 0.0
H1444 H 0.81907 0.77421 0.19408 0.0
H1445 H 0.78535 0.77001 0.29394 0.0
H1446 H 0.76474 0.81223 0.20769 0.0
H1447 H 0.77812 0.8024 0.23161 0.0
H1448 H 0.78565 0.77671 0.1146 0.0
C1449 C 0.81437 0.76632 0.22097 0.0
C1450 C 0.78539 0.77129 0.25463 0.0
C1451 C 0.82216 0.7613 0.23907 0.0
C1452 C 0.76396 0.8033 0.18482 0.0
C1453 C 0.77156 0.7976 0.19882 0.0
C1454 C 0.78542 0.7752 0.15376 0.0
C1455 C 0.80082 0.76151 0.23839 0.0
C1456 C 0.79279 0.76735 0.22069 0.0
C1457 C 0.77066 0.78581 0.17109 0.0
C1458 C 0.77819 0.77932 0.18787 0.0
H1459 H 0.79836 0.73856 0.31913 0.0
H1460 H 0.78473 0.74734 0.28758 0.0
H1461 H 0.79821 0.76633 0.14288 0.0
H1462 H 0.74786 0.78084 0.08185 0.0
H1463 H 0.76128 0.77097 0.10611 0.0
C1464 C 0.29099 0.99027 0.19653 0.0
C1465 C 0.29911 0.98455 0.18031 0.0
C1466 C 0.2972 1.00405 0.22001 0.0
C1467 C 0.32733 0.03027 0.29582 0.0
H1468 H 0.31983 0.05797 0.25521 0.0
C1469 C 0.35896 0.08894 0.3754 0.0
C1470 C 0.35263 0.09693 0.37975 0.0
C1471 C 0.35199 0.0751 0.3524 0.0
C1472 C 0.32187 0.05033 0.26785 0.0
H1473 H 0.32016 0.98893 0.17575 0.0
H1474 H 0.33089 1.01282 0.21755 0.0
H1475 H 0.30845 0.03426 0.21195 0.0
H1476 H 0.33379 0.09641 0.36478 0.0
H1477 H 0.32138 0.07209 0.32677 0.0
H1478 H 0.34038 0.046 0.3526 0.0
C1479 C 0.31974 1.00666 0.21183 0.0
C1480 C 0.31539 0.03674 0.24269 0.0
C1481 C 0.31359 0.993 0.18757 0.0
C1482 C 0.339 0.09058 0.3618 0.0
C1483 C 0.33193 0.07664 0.33951 0.0
C1484 C 0.33362 0.04375 0.32154 0.0
C1485 C 0.31162 1.0123 0.22863 0.0
C1486 C 0.31817 0.02662 0.25607 0.0
C1487 C 0.33838 0.06873 0.33378 0.0
C1488 C 0.33113 0.05408 0.30766 0.0
H1489 H 0.27982 0.98404 0.19153 0.0
H1490 H 0.29067 1.00811 0.2327 0.0
H1491 H 0.32951 0.02261 0.30745 0.0
H1492 H 0.36951 0.09354 0.38833 0.0
H1493 H 0.35749 0.06958 0.34806 0.0
loop_
_geom_bond_atom_site_label_1
_geom_bond_atom_site_label_2
_geom_bond_distance
_geom_bond_site_symmetry_2
_ccdc_geom_bond_type
Cu0 N1 1.999 . S
Cu0 O6 1.974 . S
Cu0 N11 1.985 . S
Cu0 O20 1.959 . S
N1 Cu0 1.999 . S
N1 C3 1.263 . S
N1 C5 1.389 . S
N2 C3 1.358 . S
N2 C4 1.400 . S
C3 N1 1.263 . S
C3 N2 1.358 . S
C3 H9 0.930 . S
C4 N2 1.400 . S
C4 C5 1.351 . S
C4 H21 0.930 . S
C5 N1 1.389 . S
C5 C4 1.351 . S
C5 H10 0.930 . S
O6 Cu0 1.974 . S
O6 C16 1.282 . S
C7 O8 1.261 . S
C7 O20 1.251 . S
O8 C7 1.261 . S
H9 C3 0.930 . S
H10 C5 0.930 . S
N11 Cu0 1.985 . S
N11 C13 1.335 . S
N11 C14 1.390 . S
N12 C13 1.345 . S
N12 C15 1.336 . S
C13 N11 1.335 . S
C13 N12 1.345 . S
C13 H18 0.930 . S
C14 N11 1.390 . S
C14 C15 1.346 . S
C14 H19 0.930 . S
C15 N12 1.336 . S
C15 C14 1.346 . S
C15 H22 0.929 . S
C16 O6 1.282 . S
C16 O17 1.216 . S
O17 C16 1.216 . S
H18 C13 0.930 . S
H19 C14 0.930 . S
O20 Cu0 1.959 . S
O20 C7 1.251 . S
H21 C4 0.930 . S
H22 C15 0.929 . S
Cu23 N24 1.999 . S
Cu23 O29 1.974 . S
Cu23 N34 1.985 . S
Cu23 O43 1.959 . S
N24 Cu23 1.999 . S
N24 C26 1.263 . S
N24 C28 1.389 . S
N25 C26 1.358 . S
N25 C27 1.400 . S
C26 N24 1.263 . S
C26 N25 1.358 . S
C26 H32 0.930 . S
C27 N25 1.400 . S
C27 C28 1.351 . S
C27 H44 0.930 . S
C28 N24 1.389 . S
C28 C27 1.351 . S
C28 H33 0.930 . S
O29 Cu23 1.974 . S
O29 C39 1.282 . S
C30 O31 1.261 . S
C30 O43 1.251 . S
O31 C30 1.261 . S
H32 C26 0.930 . S
H33 C28 0.930 . S
N34 Cu23 1.985 . S
N34 C36 1.335 . S
N34 C37 1.390 . S
N35 C36 1.345 . S
N35 C38 1.336 . S
C36 N34 1.335 . S
C36 N35 1.345 . S
C36 H41 0.930 . S
C37 N34 1.390 . S
C37 C38 1.346 . S
C37 H42 0.930 . S
C38 N35 1.336 . S
C38 C37 1.346 . S
C38 H45 0.929 . S
C39 O29 1.282 . S
C39 O40 1.216 . S
O40 C39 1.216 . S
H41 C36 0.930 . S
H42 C37 0.930 . S
O43 Cu23 1.959 . S
O43 C30 1.251 . S
H44 C27 0.930 . S
H45 C38 0.929 . S
Cu46 N47 1.999 . S
Cu46 O52 1.974 . S
Cu46 N57 1.985 . S
Cu46 O66 1.959 . S
N47 Cu46 1.999 . S
N47 C49 1.263 . S
N47 C51 1.389 . S
N48 C49 1.358 . S
N48 C50 1.400 . S
C49 N47 1.263 . S
C49 N48 1.358 . S
C49 H55 0.930 . S
C50 N48 1.400 . S
C50 C51 1.351 . S
C50 H67 0.930 . S
C51 N47 1.389 . S
C51 C50 1.351 . S
C51 H56 0.930 . S
O52 Cu46 1.974 . S
O52 C62 1.282 . S
C53 O54 1.261 . S
C53 O66 1.251 . S
O54 C53 1.261 . S
H55 C49 0.930 . S
H56 C51 0.930 . S
N57 Cu46 1.985 . S
N57 C59 1.335 . S
N57 C60 1.390 . S
N58 C59 1.345 . S
N58 C61 1.336 . S
C59 N57 1.335 . S
C59 N58 1.345 . S
C59 H64 0.930 . S
C60 N57 1.390 . S
C60 C61 1.346 . S
C60 H65 0.930 . S
C61 N58 1.336 . S
C61 C60 1.346 . S
C61 H68 0.929 . S
C62 O52 1.282 . S
C62 O63 1.216 . S
O63 C62 1.216 . S
H64 C59 0.930 . S
H65 C60 0.930 . S
O66 Cu46 1.959 . S
O66 C53 1.251 . S
H67 C50 0.930 . S
H68 C61 0.929 . S
Cu69 N70 1.999 . S
Cu69 O75 1.974 . S
Cu69 N80 1.985 . S
Cu69 O89 1.959 . S
N70 Cu69 1.999 . S
N70 C72 1.263 . S
N70 C74 1.389 . S
N71 C72 1.358 . S
N71 C73 1.400 . S
C72 N70 1.263 . S
C72 N71 1.358 . S
C72 H78 0.930 . S
C73 N71 1.400 . S
C73 C74 1.351 . S
C73 H90 0.930 . S
C74 N70 1.389 . S
C74 C73 1.351 . S
C74 H79 0.930 . S
O75 Cu69 1.974 . S
O75 C85 1.282 . S
C76 O77 1.261 . S
C76 O89 1.251 . S
O77 C76 1.261 . S
H78 C72 0.930 . S
H79 C74 0.930 . S
N80 Cu69 1.985 . S
N80 C82 1.335 . S
N80 C83 1.390 . S
N81 C82 1.345 . S
N81 C84 1.336 . S
C82 N80 1.335 . S
C82 N81 1.345 . S
C82 H87 0.930 . S
C83 N80 1.390 . S
C83 C84 1.346 . S
C83 H88 0.930 . S
C84 N81 1.336 . S
C84 C83 1.346 . S
C84 H91 0.929 . S
C85 O75 1.282 . S
C85 O86 1.216 . S
O86 C85 1.216 . S
H87 C82 0.930 . S
H88 C83 0.930 . S
O89 Cu69 1.959 . S
O89 C76 1.251 . S
H90 C73 0.930 . S
H91 C84 0.929 . S
Cu92 N93 1.999 . S
Cu92 O98 1.974 . S
Cu92 N103 1.985 . S
Cu92 O112 1.959 . S
N93 Cu92 1.999 . S
N93 C95 1.263 . S
N93 C97 1.389 . S
N94 C95 1.358 . S
N94 C96 1.400 . S
C95 N93 1.263 . S
C95 N94 1.358 . S
C95 H101 0.930 . S
C96 N94 1.400 . S
C96 C97 1.351 . S
C96 H113 0.930 . S
C97 N93 1.389 . S
C97 C96 1.351 . S
C97 H102 0.930 . S
O98 Cu92 1.974 . S
O98 C108 1.282 . S
C99 O100 1.261 . S
C99 O112 1.251 . S
O100 C99 1.261 . S
H101 C95 0.930 . S
H102 C97 0.930 . S
N103 Cu92 1.985 . S
N103 C105 1.335 . S
N103 C106 1.390 . S
N104 C105 1.345 . S
N104 C107 1.336 . S
C105 N103 1.335 . S
C105 N104 1.345 . S
C105 H110 0.930 . S
C106 N103 1.390 . S
C106 C107 1.346 . S
C106 H111 0.930 . S
C107 N104 1.336 . S
C107 C106 1.346 . S
C107 H114 0.929 . S
C108 O98 1.282 . S
C108 O109 1.216 . S
O109 C108 1.216 . S
H110 C105 0.930 . S
H111 C106 0.930 . S
O112 Cu92 1.959 . S
O112 C99 1.251 . S
H113 C96 0.930 . S
H114 C107 0.929 . S
Cu115 N116 1.999 . S
Cu115 O121 1.974 . S
Cu115 N126 1.985 . S
Cu115 O135 1.959 . S
N116 Cu115 1.999 . S
N116 C118 1.263 . S
N116 C120 1.389 . S
N117 C118 1.358 . S
N117 C119 1.400 . S
C118 N116 1.263 . S
C118 N117 1.358 . S
C118 H124 0.930 . S
C119 N117 1.400 . S
C119 C120 1.351 . S
C119 H136 0.930 . S
C120 N116 1.389 . S
C120 C119 1.351 . S
C120 H125 0.930 . S
O121 Cu115 1.974 . S
O121 C131 1.282 . S
C122 O123 1.261 . S
C122 O135 1.251 . S
O123 C122 1.261 . S
H124 C118 0.930 . S
H125 C120 0.930 . S
N126 Cu115 1.985 . S
N126 C128 1.335 . S
N126 C129 1.390 . S
N127 C128 1.345 . S
N127 C130 1.336 . S
C128 N126 1.335 . S
C128 N127 1.345 . S
C128 H133 0.930 . S
C129 N126 1.390 . S
C129 C130 1.346 . S
C129 H134 0.930 . S
C130 N127 1.336 . S
C130 C129 1.346 . S
C130 H137 0.929 . S
C131 O121 1.282 . S
C131 O132 1.216 . S
O132 C131 1.216 . S
H133 C128 0.930 . S
H134 C129 0.930 . S
O135 Cu115 1.959 . S
O135 C122 1.251 . S
H136 C119 0.930 . S
H137 C130 0.929 . S
Cu138 N139 1.999 . S
Cu138 O144 1.974 . S
Cu138 N149 1.985 . S
Cu138 O158 1.959 . S
N139 Cu138 1.999 . S
N139 C141 1.263 . S
N139 C143 1.389 . S
N140 C141 1.358 . S
N140 C142 1.400 . S
C141 N139 1.263 . S
C141 N140 1.358 . S
C141 H147 0.930 . S
C142 N140 1.400 . S
C142 C143 1.351 . S
C142 H159 0.930 . S
C143 N139 1.389 . S
C143 C142 1.351 . S
C143 H148 0.930 . S
O144 Cu138 1.974 . S
O144 C154 1.282 . S
C145 O146 1.261 . S
C145 O158 1.251 . S
O146 C145 1.261 . S
H147 C141 0.930 . S
H148 C143 0.930 . S
N149 Cu138 1.985 . S
N149 C151 1.335 . S
N149 C152 1.390 . S
N150 C151 1.345 . S
N150 C153 1.336 . S
C151 N149 1.335 . S
C151 N150 1.345 . S
C151 H156 0.930 . S
C152 N149 1.390 . S
C152 C153 1.346 . S
C152 H157 0.930 . S
C153 N150 1.336 . S
C153 C152 1.346 . S
C153 H160 0.929 . S
C154 O144 1.282 . S
C154 O155 1.216 . S
O155 C154 1.216 . S
H156 C151 0.930 . S
H157 C152 0.930 . S
O158 Cu138 1.959 . S
O158 C145 1.251 . S
H159 C142 0.930 . S
H160 C153 0.929 . S
Cu161 N162 1.999 . S
Cu161 O167 1.974 . S
Cu161 N172 1.985 . S
Cu161 O181 1.959 . S
N162 Cu161 1.999 . S
N162 C164 1.263 . S
N162 C166 1.389 . S
N163 C164 1.358 . S
N163 C165 1.400 . S
C164 N162 1.263 . S
C164 N163 1.358 . S
C164 H170 0.930 . S
C165 N163 1.400 . S
C165 C166 1.351 . S
C165 H182 0.930 . S
C166 N162 1.389 . S
C166 C165 1.351 . S
C166 H171 0.930 . S
O167 Cu161 1.974 . S
O167 C177 1.282 . S
C168 O169 1.261 . S
C168 O181 1.251 . S
O169 C168 1.261 . S
H170 C164 0.930 . S
H171 C166 0.930 . S
N172 Cu161 1.985 . S
N172 C174 1.335 . S
N172 C175 1.390 . S
N173 C174 1.345 . S
N173 C176 1.336 . S
C174 N172 1.335 . S
C174 N173 1.345 . S
C174 H179 0.930 . S
C175 N172 1.390 . S
C175 C176 1.346 . S
C175 H180 0.930 . S
C176 N173 1.336 . S
C176 C175 1.346 . S
C176 H183 0.929 . S
C177 O167 1.282 . S
C177 O178 1.216 . S
O178 C177 1.216 . S
H179 C174 0.930 . S
H180 C175 0.930 . S
O181 Cu161 1.959 . S
O181 C168 1.251 . S
H182 C165 0.930 . S
H183 C176 0.929 . S
Cu184 N185 1.999 . S
Cu184 O190 1.974 . S
Cu184 N195 1.985 . S
Cu184 O204 1.959 . S
N185 Cu184 1.999 . S
N185 C187 1.263 . S
N185 C189 1.389 . S
N186 C187 1.358 . S
N186 C188 1.400 . S
C187 N185 1.263 . S
C187 N186 1.358 . S
C187 H193 0.930 . S
C188 N186 1.400 . S
C188 C189 1.351 . S
C188 H205 0.930 . S
C189 N185 1.389 . S
C189 C188 1.351 . S
C189 H194 0.930 . S
O190 Cu184 1.974 . S
O190 C200 1.282 . S
C191 O192 1.261 . S
C191 O204 1.251 . S
O192 C191 1.261 . S
H193 C187 0.930 . S
H194 C189 0.930 . S
N195 Cu184 1.985 . S
N195 C197 1.335 . S
N195 C198 1.390 . S
N196 C197 1.345 . S
N196 C199 1.336 . S
C197 N195 1.335 . S
C197 N196 1.345 . S
C197 H202 0.930 . S
C198 N195 1.390 . S
C198 C199 1.346 . S
C198 H203 0.930 . S
C199 N196 1.336 . S
C199 C198 1.346 . S
C199 H206 0.929 . S
C200 O190 1.282 . S
C200 O201 1.216 . S
O201 C200 1.216 . S
H202 C197 0.930 . S
H203 C198 0.930 . S
O204 Cu184 1.959 . S
O204 C191 1.251 . S
H205 C188 0.930 . S
H206 C199 0.929 . S
Cu207 N208 1.999 . S
Cu207 O213 1.974 . S
Cu207 N218 1.985 . S
Cu207 O227 1.959 . S
N208 Cu207 1.999 . S
N208 C210 1.263 . S
N208 C212 1.389 . S
N209 C210 1.358 . S
N209 C211 1.400 . S
C210 N208 1.263 . S
C210 N209 1.358 . S
C210 H216 0.930 . S
C211 N209 1.400 . S
C211 C212 1.351 . S
C211 H228 0.930 . S
C212 N208 1.389 . S
C212 C211 1.351 . S
C212 H217 0.930 . S
O213 Cu207 1.974 . S
O213 C223 1.282 . S
C214 O215 1.261 . S
C214 O227 1.251 . S
O215 C214 1.261 . S
H216 C210 0.930 . S
H217 C212 0.930 . S
N218 Cu207 1.985 . S
N218 C220 1.335 . S
N218 C221 1.390 1_554 S
N219 C220 1.345 1_556 S
N219 C222 1.336 . S
C220 N218 1.335 . S
C220 N219 1.345 1_554 S
C220 H225 0.930 . S
C221 N218 1.390 1_556 S
C221 C222 1.346 . S
C221 H226 0.930 . S
C222 N219 1.336 . S
C222 C221 1.346 . S
C222 H229 0.929 . S
C223 O213 1.282 . S
C223 O224 1.213 1_554 S
O224 C223 1.213 1_556 S
H225 C220 0.930 . S
H226 C221 0.930 . S
O227 Cu207 1.959 . S
O227 C214 1.251 . S
H228 C211 0.930 . S
H229 C222 0.929 . S
Cu230 N231 1.999 . S
Cu230 O236 1.974 . S
Cu230 N241 1.985 . S
Cu230 O250 1.959 . S
N231 Cu230 1.999 . S
N231 C233 1.263 . S
N231 C235 1.389 . S
N232 C233 1.358 . S
N232 C234 1.400 . S
C233 N231 1.263 . S
C233 N232 1.358 . S
C233 H239 0.930 . S
C234 N232 1.400 . S
C234 C235 1.351 . S
C234 H251 0.930 . S
C235 N231 1.389 . S
C235 C234 1.351 . S
C235 H240 0.930 . S
O236 Cu230 1.974 . S
O236 C246 1.282 . S
C237 O238 1.261 . S
C237 O250 1.251 . S
O238 C237 1.261 . S
H239 C233 0.930 . S
H240 C235 0.930 . S
N241 Cu230 1.985 . S
N241 C243 1.335 . S
N241 C244 1.390 . S
N242 C243 1.345 . S
N242 C245 1.336 1_554 S
C243 N241 1.335 . S
C243 N242 1.345 . S
C243 H248 0.930 . S
C244 N241 1.390 . S
C244 C245 1.346 1_554 S
C244 H249 0.930 1_554 S
C245 N242 1.336 1_556 S
C245 C244 1.346 1_556 S
C245 H252 0.929 . S
C246 O236 1.282 . S
C246 O247 1.216 . S
O247 C246 1.216 . S
H248 C243 0.930 . S
H249 C244 0.930 1_556 S
O250 Cu230 1.959 . S
O250 C237 1.251 . S
H251 C234 0.930 . S
H252 C245 0.929 . S
Cu253 N254 1.999 . S
Cu253 O259 1.974 . S
Cu253 N264 1.985 . S
Cu253 O273 1.959 . S
N254 Cu253 1.999 . S
N254 C256 1.263 . S
N254 C258 1.389 . S
N255 C256 1.358 . S
N255 C257 1.400 . S
C256 N254 1.263 . S
C256 N255 1.358 . S
C256 H262 0.930 . S
C257 N255 1.400 . S
C257 C258 1.351 . S
C257 H274 0.930 . S
C258 N254 1.389 . S
C258 C257 1.351 . S
C258 H263 0.930 . S
O259 Cu253 1.974 . S
O259 C269 1.282 . S
C260 O261 1.261 . S
C260 O273 1.251 . S
O261 C260 1.261 . S
H262 C256 0.930 . S
H263 C258 0.930 . S
N264 Cu253 1.985 . S
N264 C266 1.335 . S
N264 C267 1.390 . S
N265 C266 1.345 . S
N265 C268 1.336 1_554 S
C266 N264 1.335 . S
C266 N265 1.345 . S
C266 H271 0.930 . S
C267 N264 1.390 . S
C267 C268 1.346 1_554 S
C267 H272 0.930 1_554 S
C268 N265 1.336 1_556 S
C268 C267 1.346 1_556 S
C268 H275 0.929 . S
C269 O259 1.282 . S
C269 O270 1.216 . S
O270 C269 1.216 . S
H271 C266 0.930 . S
H272 C267 0.930 1_556 S
O273 Cu253 1.959 . S
O273 C260 1.251 . S
H274 C257 0.930 . S
H275 C268 0.929 . S
Cu276 N277 1.999 . S
Cu276 O282 1.974 . S
Cu276 N287 1.985 . S
Cu276 O296 1.959 . S
N277 Cu276 1.999 . S
N277 C279 1.263 . S
N277 C281 1.389 1_556 S
N278 C279 1.358 . S
N278 C280 1.400 1_556 S
C279 N277 1.263 . S
C279 N278 1.358 . S
C279 H285 0.930 . S
C280 N278 1.400 1_554 S
C280 C281 1.351 . S
C280 H297 0.930 . S
C281 N277 1.389 1_554 S
C281 C280 1.351 . S
C281 H286 0.930 . S
O282 Cu276 1.974 . S
O282 C292 1.282 . S
C283 O284 1.261 . S
C283 O296 1.251 . S
O284 C283 1.261 . S
H285 C279 0.930 . S
H286 C281 0.930 . S
N287 Cu276 1.985 . S
N287 C289 1.335 . S
N287 C290 1.390 . S
N288 C289 1.345 . S
N288 C291 1.336 . S
C289 N287 1.335 . S
C289 N288 1.345 . S
C289 H294 0.930 . S
C290 N287 1.390 . S
C290 C291 1.346 . S
C290 H295 0.930 . S
C291 N288 1.336 . S
C291 C290 1.346 . S
C291 H298 0.929 . S
C292 O282 1.282 . S
C292 O293 1.216 . S
O293 C292 1.216 . S
H294 C289 0.930 . S
H295 C290 0.930 . S
O296 Cu276 1.959 . S
O296 C283 1.251 . S
H297 C280 0.930 . S
H298 C291 0.929 . S
Cu299 N300 1.999 . S
Cu299 O305 1.974 1_556 S
Cu299 N310 1.985 1_556 S
Cu299 O319 1.959 . S
N300 Cu299 1.999 . S
N300 C302 1.263 . S
N300 C304 1.389 . S
N301 C302 1.358 . S
N301 C303 1.400 . S
C302 N300 1.263 . S
C302 N301 1.358 . S
C302 H308 0.930 . S
C303 N301 1.400 . S
C303 C304 1.351 . S
C303 H320 0.930 . S
C304 N300 1.389 . S
C304 C303 1.351 . S
C304 H309 0.930 . S
O305 Cu299 1.974 1_554 S
O305 C315 1.282 . S
C306 O307 1.261 . S
C306 O319 1.251 . S
O307 C306 1.261 . S
H308 C302 0.930 . S
H309 C304 0.930 . S
N310 Cu299 1.985 1_554 S
N310 C312 1.335 . S
N310 C313 1.390 . S
N311 C312 1.345 . S
N311 C314 1.336 . S
C312 N310 1.335 . S
C312 N311 1.345 . S
C312 H317 0.930 1_554 S
C313 N310 1.390 . S
C313 C314 1.346 . S
C313 H318 0.930 . S
C314 N311 1.336 . S
C314 C313 1.346 . S
C314 H321 0.929 . S
C315 O305 1.282 . S
C315 O316 1.216 . S
O316 C315 1.216 . S
H317 C312 0.930 1_556 S
H318 C313 0.930 . S
O319 Cu299 1.959 . S
O319 C306 1.251 . S
H320 C303 0.930 . S
H321 C314 0.929 . S
Cu322 N323 1.999 . S
Cu322 O328 1.974 . S
Cu322 N333 1.985 . S
Cu322 O342 1.959 . S
N323 Cu322 1.999 . S
N323 C325 1.263 . S
N323 C327 1.389 . S
N324 C325 1.358 . S
N324 C326 1.400 . S
C325 N323 1.263 . S
C325 N324 1.358 . S
C325 H331 0.930 . S
C326 N324 1.400 . S
C326 C327 1.351 . S
C326 H343 0.930 . S
C327 N323 1.389 . S
C327 C326 1.351 . S
C327 H332 0.930 . S
O328 Cu322 1.974 . S
O328 C338 1.282 . S
C329 O330 1.261 . S
C329 O342 1.251 . S
O330 C329 1.261 . S
H331 C325 0.930 . S
H332 C327 0.930 . S
N333 Cu322 1.985 . S
N333 C335 1.335 . S
N333 C336 1.390 . S
N334 C335 1.345 . S
N334 C337 1.329 1_556 S
C335 N333 1.335 . S
C335 N334 1.345 . S
C335 H340 0.930 . S
C336 N333 1.390 . S
C336 C337 1.340 1_556 S
C336 H341 0.930 . S
C337 N334 1.329 1_554 S
C337 C336 1.340 1_554 S
C337 H344 0.941 . S
C338 O328 1.282 . S
C338 O339 1.216 . S
O339 C338 1.216 . S
H340 C335 0.930 . S
H341 C336 0.930 . S
O342 Cu322 1.959 . S
O342 C329 1.251 . S
H343 C326 0.930 . S
H344 C337 0.941 . S
Cu345 N346 1.999 . S
Cu345 O351 1.974 . S
Cu345 N356 1.985 . S
Cu345 O365 1.959 . S
N346 Cu345 1.999 . S
N346 C348 1.263 . S
N346 C350 1.389 . S
N347 C348 1.358 . S
N347 C349 1.400 . S
C348 N346 1.263 . S
C348 N347 1.358 . S
C348 H354 0.930 . S
C349 N347 1.400 . S
C349 C350 1.351 . S
C349 H366 0.930 . S
C350 N346 1.389 . S
C350 C349 1.351 . S
C350 H355 0.930 . S
O351 Cu345 1.974 . S
O351 C361 1.282 . S
C352 O353 1.261 . S
C352 O365 1.251 . S
O353 C352 1.261 . S
H354 C348 0.930 . S
H355 C350 0.930 . S
N356 Cu345 1.985 . S
N356 C358 1.335 . S
N356 C359 1.390 . S
N357 C358 1.345 . S
N357 C360 1.336 . S
C358 N356 1.335 . S
C358 N357 1.345 . S
C358 H363 0.930 . S
C359 N356 1.390 . S
C359 C360 1.346 . S
C359 H364 0.930 . S
C360 N357 1.336 . S
C360 C359 1.346 . S
C360 H367 0.929 . S
C361 O351 1.282 . S
C361 O362 1.216 . S
O362 C361 1.216 . S
H363 C358 0.930 . S
H364 C359 0.930 . S
O365 Cu345 1.959 . S
O365 C352 1.251 . S
H366 C349 0.930 . S
H367 C360 0.929 . S
Cu368 N369 1.999 . S
Cu368 O374 1.974 . S
Cu368 N379 1.985 . S
Cu368 O388 1.959 . S
N369 Cu368 1.999 . S
N369 C371 1.263 . S
N369 C373 1.389 . S
N370 C371 1.358 . S
N370 C372 1.400 . S
C371 N369 1.263 . S
C371 N370 1.358 . S
C371 H377 0.930 . S
C372 N370 1.400 . S
C372 C373 1.351 . S
C372 H389 0.930 . S
C373 N369 1.389 . S
C373 C372 1.351 . S
C373 H378 0.930 . S
O374 Cu368 1.974 . S
O374 C384 1.282 . S
C375 O376 1.261 . S
C375 O388 1.251 . S
O376 C375 1.261 . S
H377 C371 0.930 . S
H378 C373 0.930 . S
N379 Cu368 1.985 . S
N379 C381 1.335 . S
N379 C382 1.390 . S
N380 C381 1.345 . S
N380 C383 1.336 . S
C381 N379 1.335 . S
C381 N380 1.345 . S
C381 H386 0.930 . S
C382 N379 1.390 . S
C382 C383 1.346 . S
C382 H387 0.930 . S
C383 N380 1.336 . S
C383 C382 1.346 . S
C383 H390 0.929 . S
C384 O374 1.282 . S
C384 O385 1.216 . S
O385 C384 1.216 . S
H386 C381 0.930 . S
H387 C382 0.930 . S
O388 Cu368 1.959 . S
O388 C375 1.251 . S
H389 C372 0.930 . S
H390 C383 0.929 . S
Cu391 N392 1.999 . S
Cu391 O397 1.974 . S
Cu391 N402 1.985 . S
Cu391 O411 1.959 . S
N392 Cu391 1.999 . S
N392 C394 1.263 . S
N392 C396 1.389 . S
N393 C394 1.358 . S
N393 C395 1.400 . S
C394 N392 1.263 . S
C394 N393 1.358 . S
C394 H400 0.930 . S
C395 N393 1.400 . S
C395 C396 1.351 . S
C395 H412 0.930 . S
C396 N392 1.389 . S
C396 C395 1.351 . S
C396 H401 0.930 . S
O397 Cu391 1.974 . S
O397 C407 1.282 . S
C398 O399 1.261 . S
C398 O411 1.251 . S
O399 C398 1.261 . S
H400 C394 0.930 . S
H401 C396 0.930 . S
N402 Cu391 1.985 . S
N402 C404 1.335 . S
N402 C405 1.390 . S
N403 C404 1.345 . S
N403 C406 1.336 . S
C404 N402 1.335 . S
C404 N403 1.345 . S
C404 H409 0.930 . S
C405 N402 1.390 . S
C405 C406 1.346 . S
C405 H410 0.930 . S
C406 N403 1.336 . S
C406 C405 1.346 . S
C406 H413 0.929 . S
C407 O397 1.282 . S
C407 O408 1.216 . S
O408 C407 1.216 . S
H409 C404 0.930 . S
H410 C405 0.930 . S
O411 Cu391 1.959 . S
O411 C398 1.251 . S
H412 C395 0.930 . S
H413 C406 0.929 . S
C414 C415 1.349 . S
C414 C416 1.327 . S
C414 H439 0.950 . S
C415 C414 1.349 . S
C415 C431 1.349 . S
C416 C414 1.327 . S
C416 C435 1.429 . S
C416 H440 0.950 . S
C417 C434 1.574 1_556 S
C417 C436 1.368 . S
C417 H441 0.949 . S
H418 C422 0.949 . S
C419 C420 1.349 . S
C419 C421 1.327 . S
C419 H442 0.950 . S
C420 C419 1.349 . S
C420 C432 1.349 . S
C421 C419 1.327 . S
C421 C437 1.429 . S
C421 H443 0.950 . S
C422 H418 0.949 . S
C422 C430 1.574 . S
C422 C438 1.368 1_556 S
H423 C431 0.950 . S
H424 C429 0.950 . S
H425 C430 0.949 . S
H426 C432 0.950 . S
H427 C433 0.950 . S
H428 C434 0.949 . S
C429 H424 0.950 . S
C429 C431 1.327 . S
C429 C435 1.429 . S
C430 C422 1.574 . S
C430 H425 0.949 . S
C430 C436 1.368 . S
C431 C415 1.349 . S
C431 H423 0.950 . S
C431 C429 1.327 . S
C432 C420 1.349 . S
C432 H426 0.950 . S
C432 C433 1.327 . S
C433 H427 0.950 . S
C433 C432 1.327 . S
C433 C437 1.429 . S
C434 C417 1.574 1_554 S
C434 H428 0.949 . S
C434 C438 1.368 . S
C435 C416 1.429 . S
C435 C429 1.429 . S
C435 C436 1.523 . S
C436 C417 1.368 . S
C436 C430 1.368 . S
C436 C435 1.523 . S
C437 C421 1.429 . S
C437 C433 1.429 . S
C437 C438 1.523 . S
C438 C422 1.368 1_554 S
C438 C434 1.368 . S
C438 C437 1.523 . S
H439 C414 0.950 . S
H440 C416 0.950 . S
H441 C417 0.949 . S
H442 C419 0.950 . S
H443 C421 0.950 . S
C444 C445 1.349 . S
C444 C446 1.327 . S
C444 H469 0.950 . S
C445 C444 1.349 . S
C445 C461 1.349 . S
C446 C444 1.327 . S
C446 C465 1.429 . S
C446 H470 0.950 . S
C447 C464 1.574 . S
C447 C466 1.368 . S
C447 H471 0.949 . S
H448 C452 0.949 . S
C449 C450 1.349 . S
C449 C451 1.327 . S
C449 H472 0.950 . S
C450 C449 1.349 . S
C450 C462 1.349 . S
C451 C449 1.327 . S
C451 C467 1.429 . S
C451 H473 0.950 . S
C452 H448 0.949 . S
C452 C460 1.574 . S
C452 C468 1.368 . S
H453 C461 0.950 . S
H454 C459 0.950 . S
H455 C460 0.949 . S
H456 C462 0.950 . S
H457 C463 0.950 1_556 S
H458 C464 0.949 1_554 S
C459 H454 0.950 . S
C459 C461 1.327 . S
C459 C465 1.429 . S
C460 C452 1.574 . S
C460 H455 0.949 . S
C460 C466 1.368 . S
C461 C445 1.349 . S
C461 H453 0.950 . S
C461 C459 1.327 . S
C462 C450 1.349 . S
C462 H456 0.950 . S
C462 C463 1.327 . S
C463 H457 0.950 1_554 S
C463 C462 1.327 . S
C463 C467 1.429 . S
C464 C447 1.574 . S
C464 H458 0.949 1_556 S
C464 C468 1.368 . S
C465 C446 1.429 . S
C465 C459 1.429 . S
C465 C466 1.523 . S
C466 C447 1.368 . S
C466 C460 1.368 . S
C466 C465 1.523 . S
C467 C451 1.429 . S
C467 C463 1.429 . S
C467 C468 1.523 1_554 S
C468 C452 1.368 . S
C468 C464 1.368 . S
C468 C467 1.523 1_556 S
H469 C444 0.950 . S
H470 C446 0.950 . S
H471 C447 0.949 . S
H472 C449 0.950 . S
H473 C451 0.950 . S
C474 C475 1.349 . S
C474 C476 1.327 . S
C474 H499 0.950 . S
C475 C474 1.349 . S
C475 C491 1.349 . S
C476 C474 1.327 . S
C476 C495 1.429 . S
C476 H500 0.950 . S
C477 C494 1.574 1_554 S
C477 C496 1.368 . S
C477 H501 0.949 . S
H478 C482 0.949 . S
C479 C480 1.349 . S
C479 C481 1.327 . S
C479 H502 0.950 . S
C480 C479 1.349 . S
C480 C492 1.349 . S
C481 C479 1.327 . S
C481 C497 1.429 . S
C481 H503 0.950 . S
C482 H478 0.949 . S
C482 C490 1.574 . S
C482 C498 1.368 . S
H483 C491 0.950 . S
H484 C489 0.950 . S
H485 C490 0.949 . S
H486 C492 0.950 . S
H487 C493 0.950 1_554 S
H488 C494 0.949 . S
C489 H484 0.950 . S
C489 C491 1.327 . S
C489 C495 1.429 . S
C490 C482 1.574 . S
C490 H485 0.949 . S
C490 C496 1.368 . S
C491 C475 1.349 . S
C491 H483 0.950 . S
C491 C489 1.327 . S
C492 C480 1.349 . S
C492 H486 0.950 . S
C492 C493 1.327 . S
C493 H487 0.950 1_556 S
C493 C492 1.327 . S
C493 C497 1.429 . S
C494 C477 1.574 1_556 S
C494 H488 0.949 . S
C494 C498 1.368 1_556 S
C495 C476 1.429 . S
C495 C489 1.429 . S
C495 C496 1.523 . S
C496 C477 1.368 . S
C496 C490 1.368 . S
C496 C495 1.523 . S
C497 C481 1.429 . S
C497 C493 1.429 . S
C497 C498 1.523 1_556 S
C498 C482 1.368 . S
C498 C494 1.368 1_554 S
C498 C497 1.523 1_554 S
H499 C474 0.950 . S
H500 C476 0.950 . S
H501 C477 0.949 . S
H502 C479 0.950 . S
H503 C481 0.950 . S
C504 C505 1.349 . S
C504 C506 1.327 . S
C504 H529 0.950 . S
C505 C504 1.349 . S
C505 C521 1.349 . S
C506 C504 1.327 . S
C506 C525 1.429 . S
C506 H530 0.950 . S
C507 C524 1.574 . S
C507 C526 1.368 . S
C507 H531 0.949 . S
H508 C512 0.949 . S
C509 C510 1.349 . S
C509 C511 1.327 . S
C509 H532 0.950 . S
C510 C509 1.349 . S
C510 C522 1.349 . S
C511 C509 1.327 . S
C511 C527 1.429 . S
C511 H533 0.950 . S
C512 H508 0.949 . S
C512 C520 1.574 . S
C512 C528 1.368 . S
H513 C521 0.950 . S
H514 C519 0.950 . S
H515 C520 0.949 . S
H516 C522 0.950 . S
H517 C523 0.950 . S
H518 C524 0.949 . S
C519 H514 0.950 . S
C519 C521 1.327 . S
C519 C525 1.429 . S
C520 C512 1.574 . S
C520 H515 0.949 . S
C520 C526 1.368 . S
C521 C505 1.349 . S
C521 H513 0.950 . S
C521 C519 1.327 . S
C522 C510 1.349 . S
C522 H516 0.950 . S
C522 C523 1.327 . S
C523 H517 0.950 . S
C523 C522 1.327 . S
C523 C527 1.429 . S
C524 C507 1.574 . S
C524 H518 0.949 . S
C524 C528 1.368 . S
C525 C506 1.429 . S
C525 C519 1.429 . S
C525 C526 1.523 . S
C526 C507 1.368 . S
C526 C520 1.368 . S
C526 C525 1.523 . S
C527 C511 1.429 . S
C527 C523 1.429 . S
C527 C528 1.523 . S
C528 C512 1.368 . S
C528 C524 1.368 . S
C528 C527 1.523 . S
H529 C504 0.950 . S
H530 C506 0.950 . S
H531 C507 0.949 . S
H532 C509 0.950 . S
H533 C511 0.950 . S
C534 C535 1.349 . S
C534 C536 1.327 . S
C534 H559 0.950 . S
C535 C534 1.349 . S
C535 C551 1.349 . S
C536 C534 1.327 . S
C536 C555 1.429 . S
C536 H560 0.950 . S
C537 C554 1.574 . S
C537 C556 1.368 . S
C537 H561 0.949 . S
H538 C542 0.949 . S
C539 C540 1.349 . S
C539 C541 1.327 . S
C539 H562 0.950 . S
C540 C539 1.349 . S
C540 C552 1.349 . S
C541 C539 1.327 . S
C541 C557 1.429 . S
C541 H563 0.950 . S
C542 H538 0.949 . S
C542 C550 1.574 . S
C542 C558 1.368 . S
H543 C551 0.950 . S
H544 C549 0.950 . S
H545 C550 0.949 . S
H546 C552 0.950 . S
H547 C553 0.950 . S
H548 C554 0.949 . S
C549 H544 0.950 . S
C549 C551 1.327 . S
C549 C555 1.429 . S
C550 C542 1.574 . S
C550 H545 0.949 . S
C550 C556 1.368 . S
C551 C535 1.349 . S
C551 H543 0.950 . S
C551 C549 1.327 . S
C552 C540 1.349 . S
C552 H546 0.950 . S
C552 C553 1.327 . S
C553 H547 0.950 . S
C553 C552 1.327 . S
C553 C557 1.429 . S
C554 C537 1.574 . S
C554 H548 0.949 . S
C554 C558 1.368 . S
C555 C536 1.429 . S
C555 C549 1.429 . S
C555 C556 1.523 . S
C556 C537 1.368 . S
C556 C550 1.368 . S
C556 C555 1.523 . S
C557 C541 1.429 . S
C557 C553 1.429 . S
C557 C558 1.523 . S
C558 C542 1.368 . S
C558 C554 1.368 . S
C558 C557 1.523 . S
H559 C534 0.950 . S
H560 C536 0.950 . S
H561 C537 0.949 . S
H562 C539 0.950 . S
H563 C541 0.950 . S
C564 C565 1.349 . S
C564 C566 1.327 . S
C564 H589 0.950 . S
C565 C564 1.349 . S
C565 C581 1.349 . S
C566 C564 1.327 . S
C566 C585 1.429 . S
C566 H590 0.950 . S
C567 C584 1.574 . S
C567 C586 1.368 . S
C567 H591 0.949 . S
H568 C572 0.949 . S
C569 C570 1.349 . S
C569 C571 1.327 . S
C569 H592 0.950 . S
C570 C569 1.349 . S
C570 C582 1.349 . S
C571 C569 1.327 . S
C571 C587 1.429 . S
C571 H593 0.950 . S
C572 H568 0.949 . S
C572 C580 1.574 . S
C572 C588 1.368 . S
H573 C581 0.950 . S
H574 C579 0.950 . S
H575 C580 0.949 . S
H576 C582 0.950 . S
H577 C583 0.950 . S
H578 C584 0.949 . S
C579 H574 0.950 . S
C579 C581 1.327 . S
C579 C585 1.429 . S
C580 C572 1.574 . S
C580 H575 0.949 . S
C580 C586 1.368 . S
C581 C565 1.349 . S
C581 H573 0.950 . S
C581 C579 1.327 . S
C582 C570 1.349 . S
C582 H576 0.950 . S
C582 C583 1.327 . S
C583 H577 0.950 . S
C583 C582 1.327 . S
C583 C587 1.429 . S
C584 C567 1.574 . S
C584 H578 0.949 . S
C584 C588 1.368 . S
C585 C566 1.429 . S
C585 C579 1.429 . S
C585 C586 1.523 . S
C586 C567 1.368 . S
C586 C580 1.368 . S
C586 C585 1.523 . S
C587 C571 1.429 . S
C587 C583 1.429 . S
C587 C588 1.523 . S
C588 C572 1.368 . S
C588 C584 1.368 . S
C588 C587 1.523 . S
H589 C564 0.950 . S
H590 C566 0.950 . S
H591 C567 0.949 . S
H592 C569 0.950 . S
H593 C571 0.950 . S
C594 C595 1.349 . S
C594 C596 1.327 . S
C594 H619 0.950 . S
C595 C594 1.349 . S
C595 C611 1.349 . S
C596 C594 1.327 . S
C596 C615 1.429 . S
C596 H620 0.950 . S
C597 C614 1.574 . S
C597 C616 1.368 . S
C597 H621 0.949 . S
H598 C602 0.949 . S
C599 C600 1.349 . S
C599 C601 1.327 . S
C599 H622 0.950 . S
C600 C599 1.349 . S
C600 C612 1.349 . S
C601 C599 1.327 . S
C601 C617 1.429 . S
C601 H623 0.950 . S
C602 H598 0.949 . S
C602 C610 1.574 . S
C602 C618 1.368 . S
H603 C611 0.950 . S
H604 C609 0.950 . S
H605 C610 0.949 . S
H606 C612 0.950 . S
H607 C613 0.950 . S
H608 C614 0.949 . S
C609 H604 0.950 . S
C609 C611 1.327 . S
C609 C615 1.429 . S
C610 C602 1.574 . S
C610 H605 0.949 . S
C610 C616 1.368 . S
C611 C595 1.349 . S
C611 H603 0.950 . S
C611 C609 1.327 . S
C612 C600 1.349 . S
C612 H606 0.950 . S
C612 C613 1.327 . S
C613 H607 0.950 . S
C613 C612 1.327 . S
C613 C617 1.429 . S
C614 C597 1.574 . S
C614 H608 0.949 . S
C614 C618 1.368 . S
C615 C596 1.429 . S
C615 C609 1.429 . S
C615 C616 1.523 . S
C616 C597 1.368 . S
C616 C610 1.368 . S
C616 C615 1.523 . S
C617 C601 1.429 . S
C617 C613 1.429 . S
C617 C618 1.523 . S
C618 C602 1.368 . S
C618 C614 1.368 . S
C618 C617 1.523 . S
H619 C594 0.950 . S
H620 C596 0.950 . S
H621 C597 0.949 . S
H622 C599 0.950 . S
H623 C601 0.950 . S
C624 C625 1.349 . S
C624 C626 1.327 . S
C624 H649 0.950 . S
C625 C624 1.349 . S
C625 C641 1.349 . S
C626 C624 1.327 . S
C626 C645 1.429 . S
C626 H650 0.950 . S
C627 C644 1.574 . S
C627 C646 1.368 . S
C627 H651 0.949 . S
H628 C632 0.949 . S
C629 C630 1.349 . S
C629 C631 1.327 . S
C629 H652 0.950 . S
C630 C629 1.349 . S
C630 C642 1.349 . S
C631 C629 1.327 . S
C631 C647 1.429 . S
C631 H653 0.950 . S
C632 H628 0.949 . S
C632 C640 1.574 . S
C632 C648 1.368 . S
H633 C641 0.950 . S
H634 C639 0.950 . S
H635 C640 0.949 . S
H636 C642 0.950 . S
H637 C643 0.950 . S
H638 C644 0.949 . S
C639 H634 0.950 . S
C639 C641 1.327 . S
C639 C645 1.429 . S
C640 C632 1.574 . S
C640 H635 0.949 . S
C640 C646 1.368 . S
C641 C625 1.349 . S
C641 H633 0.950 . S
C641 C639 1.327 . S
C642 C630 1.349 . S
C642 H636 0.950 . S
C642 C643 1.327 . S
C643 H637 0.950 . S
C643 C642 1.327 . S
C643 C647 1.429 . S
C644 C627 1.574 . S
C644 H638 0.949 . S
C644 C648 1.368 . S
C645 C626 1.429 . S
C645 C639 1.429 . S
C645 C646 1.523 . S
C646 C627 1.368 . S
C646 C640 1.368 . S
C646 C645 1.523 . S
C647 C631 1.429 . S
C647 C643 1.429 . S
C647 C648 1.523 . S
C648 C632 1.368 . S
C648 C644 1.368 . S
C648 C647 1.523 . S
H649 C624 0.950 . S
H650 C626 0.950 . S
H651 C627 0.949 . S
H652 C629 0.950 . S
H653 C631 0.950 . S
C654 C655 1.349 . S
C654 C656 1.327 . S
C654 H679 0.950 . S
C655 C654 1.349 . S
C655 C671 1.349 . S
C656 C654 1.327 . S
C656 C675 1.429 . S
C656 H680 0.950 . S
C657 C674 1.574 . S
C657 C676 1.368 . S
C657 H681 0.949 . S
H658 C662 0.949 . S
C659 C660 1.349 . S
C659 C661 1.327 . S
C659 H682 0.950 . S
C660 C659 1.349 . S
C660 C672 1.349 . S
C661 C659 1.327 . S
C661 C677 1.429 . S
C661 H683 0.950 . S
C662 H658 0.949 . S
C662 C670 1.574 . S
C662 C678 1.368 . S
H663 C671 0.950 . S
H664 C669 0.950 . S
H665 C670 0.949 . S
H666 C672 0.950 . S
H667 C673 0.950 . S
H668 C674 0.949 . S
C669 H664 0.950 . S
C669 C671 1.327 . S
C669 C675 1.429 . S
C670 C662 1.574 . S
C670 H665 0.949 . S
C670 C676 1.368 . S
C671 C655 1.349 . S
C671 H663 0.950 . S
C671 C669 1.327 . S
C672 C660 1.349 . S
C672 H666 0.950 . S
C672 C673 1.327 . S
C673 H667 0.950 . S
C673 C672 1.327 . S
C673 C677 1.429 . S
C674 C657 1.574 . S
C674 H668 0.949 . S
C674 C678 1.368 . S
C675 C656 1.429 . S
C675 C669 1.429 . S
C675 C676 1.523 . S
C676 C657 1.368 . S
C676 C670 1.368 . S
C676 C675 1.523 . S
C677 C661 1.429 . S
C677 C673 1.429 . S
C677 C678 1.523 . S
C678 C662 1.368 . S
C678 C674 1.368 . S
C678 C677 1.523 . S
H679 C654 0.950 . S
H680 C656 0.950 . S
H681 C657 0.949 . S
H682 C659 0.950 . S
H683 C661 0.950 . S
C684 C685 1.349 1_556 S
C684 C686 1.327 . S
C684 H709 0.950 . S
C685 C684 1.349 1_554 S
C685 C701 1.349 . S
C686 C684 1.327 . S
C686 C705 1.429 . S
C686 H710 0.950 . S
C687 C704 1.574 . S
C687 C706 1.368 . S
C687 H711 0.949 . S
H688 C692 0.949 . S
C689 C690 1.349 . S
C689 C691 1.327 . S
C689 H712 0.950 . S
C690 C689 1.349 . S
C690 C702 1.349 . S
C691 C689 1.327 . S
C691 C707 1.429 . S
C691 H713 0.950 . S
C692 H688 0.949 . S
C692 C700 1.574 . S
C692 C708 1.368 . S
H693 C701 0.950 . S
H694 C699 0.950 . S
H695 C700 0.949 . S
H696 C702 0.950 . S
H697 C703 0.950 . S
H698 C704 0.949 . S
C699 H694 0.950 . S
C699 C701 1.327 1_556 S
C699 C705 1.429 . S
C700 C692 1.574 . S
C700 H695 0.949 . S
C700 C706 1.368 . S
C701 C685 1.349 . S
C701 H693 0.950 . S
C701 C699 1.327 1_554 S
C702 C690 1.349 . S
C702 H696 0.950 . S
C702 C703 1.327 . S
C703 H697 0.950 . S
C703 C702 1.327 . S
C703 C707 1.429 . S
C704 C687 1.574 . S
C704 H698 0.949 . S
C704 C708 1.368 . S
C705 C686 1.429 . S
C705 C699 1.429 . S
C705 C706 1.523 . S
C706 C687 1.368 . S
C706 C700 1.368 . S
C706 C705 1.523 . S
C707 C691 1.429 . S
C707 C703 1.429 . S
C707 C708 1.523 . S
C708 C692 1.368 . S
C708 C704 1.368 . S
C708 C707 1.523 . S
H709 C684 0.950 . S
H710 C686 0.950 . S
H711 C687 0.949 . S
H712 C689 0.950 . S
H713 C691 0.950 . S
C714 C715 1.349 . S
C714 C716 1.327 . S
C714 H739 0.950 1_556 S
C715 C714 1.349 . S
C715 C731 1.349 . S
C716 C714 1.327 . S
C716 C735 1.429 . S
C716 H740 0.950 . S
C717 C734 1.574 . S
C717 C736 1.368 . S
C717 H741 0.949 . S
H718 C722 0.949 . S
C719 C720 1.349 . S
C719 C721 1.327 . S
C719 H742 0.950 . S
C720 C719 1.349 . S
C720 C732 1.349 . S
C721 C719 1.327 . S
C721 C737 1.429 . S
C721 H743 0.950 . S
C722 H718 0.949 . S
C722 C730 1.574 . S
C722 C738 1.368 . S
H723 C731 0.950 . S
H724 C729 0.950 . S
H725 C730 0.949 . S
H726 C732 0.950 . S
H727 C733 0.950 . S
H728 C734 0.949 . S
C729 H724 0.950 . S
C729 C731 1.327 . S
C729 C735 1.429 . S
C730 C722 1.574 . S
C730 H725 0.949 . S
C730 C736 1.368 . S
C731 C715 1.349 . S
C731 H723 0.950 . S
C731 C729 1.327 . S
C732 C720 1.349 . S
C732 H726 0.950 . S
C732 C733 1.327 . S
C733 H727 0.950 . S
C733 C732 1.327 . S
C733 C737 1.429 . S
C734 C717 1.574 . S
C734 H728 0.949 . S
C734 C738 1.368 . S
C735 C716 1.429 . S
C735 C729 1.429 . S
C735 C736 1.523 . S
C736 C717 1.368 . S
C736 C730 1.368 . S
C736 C735 1.523 . S
C737 C721 1.429 . S
C737 C733 1.429 . S
C737 C738 1.523 . S
C738 C722 1.368 . S
C738 C734 1.368 . S
C738 C737 1.523 . S
H739 C714 0.950 1_554 S
H740 C716 0.950 . S
H741 C717 0.949 . S
H742 C719 0.950 . S
H743 C721 0.950 . S
C744 C745 1.349 1_556 S
C744 C746 1.327 . S
C744 H769 0.950 . S
C745 C744 1.349 1_554 S
C745 C761 1.349 . S
C746 C744 1.327 . S
C746 C765 1.429 . S
C746 H770 0.950 . S
C747 C764 1.574 . S
C747 C766 1.368 . S
C747 H771 0.949 . S
H748 C752 0.949 . S
C749 C750 1.349 . S
C749 C751 1.327 . S
C749 H772 0.950 . S
C750 C749 1.349 . S
C750 C762 1.349 . S
C751 C749 1.327 . S
C751 C767 1.429 . S
C751 H773 0.950 . S
C752 H748 0.949 . S
C752 C760 1.574 . S
C752 C768 1.368 . S
H753 C761 0.950 . S
H754 C759 0.950 . S
H755 C760 0.949 . S
H756 C762 0.950 . S
H757 C763 0.950 . S
H758 C764 0.949 . S
C759 H754 0.950 . S
C759 C761 1.327 1_556 S
C759 C765 1.429 . S
C760 C752 1.574 . S
C760 H755 0.949 . S
C760 C766 1.368 . S
C761 C745 1.349 . S
C761 H753 0.950 . S
C761 C759 1.327 1_554 S
C762 C750 1.349 . S
C762 H756 0.950 . S
C762 C763 1.327 . S
C763 H757 0.950 . S
C763 C762 1.327 . S
C763 C767 1.429 . S
C764 C747 1.574 . S
C764 H758 0.949 . S
C764 C768 1.368 . S
C765 C746 1.429 . S
C765 C759 1.429 . S
C765 C766 1.523 . S
C766 C747 1.368 . S
C766 C760 1.368 . S
C766 C765 1.523 . S
C767 C751 1.429 . S
C767 C763 1.429 . S
C767 C768 1.523 . S
C768 C752 1.368 . S
C768 C764 1.368 . S
C768 C767 1.523 . S
H769 C744 0.950 . S
H770 C746 0.950 . S
H771 C747 0.949 . S
H772 C749 0.950 . S
H773 C751 0.950 . S
C774 C775 1.349 . S
C774 C776 1.327 . S
C774 H799 0.950 . S
C775 C774 1.349 . S
C775 C791 1.349 . S
C776 C774 1.327 . S
C776 C795 1.429 . S
C776 H800 0.950 . S
C777 C794 1.574 . S
C777 C796 1.368 . S
C777 H801 0.949 . S
H778 C782 0.949 . S
C779 C780 1.349 . S
C779 C781 1.327 . S
C779 H802 0.950 . S
C780 C779 1.349 . S
C780 C792 1.349 . S
C781 C779 1.327 . S
C781 C797 1.429 . S
C781 H803 0.950 . S
C782 H778 0.949 . S
C782 C790 1.574 . S
C782 C798 1.368 . S
H783 C791 0.950 . S
H784 C789 0.950 . S
H785 C790 0.949 . S
H786 C792 0.950 . S
H787 C793 0.950 . S
H788 C794 0.949 . S
C789 H784 0.950 . S
C789 C791 1.327 . S
C789 C795 1.429 . S
C790 C782 1.574 . S
C790 H785 0.949 . S
C790 C796 1.368 . S
C791 C775 1.349 . S
C791 H783 0.950 . S
C791 C789 1.327 . S
C792 C780 1.349 . S
C792 H786 0.950 . S
C792 C793 1.327 . S
C793 H787 0.950 . S
C793 C792 1.327 . S
C793 C797 1.429 . S
C794 C777 1.574 . S
C794 H788 0.949 . S
C794 C798 1.368 . S
C795 C776 1.429 . S
C795 C789 1.429 . S
C795 C796 1.523 . S
C796 C777 1.368 . S
C796 C790 1.368 . S
C796 C795 1.523 . S
C797 C781 1.429 . S
C797 C793 1.429 . S
C797 C798 1.523 . S
C798 C782 1.368 . S
C798 C794 1.368 . S
C798 C797 1.523 . S
H799 C774 0.950 . S
H800 C776 0.950 . S
H801 C777 0.949 . S
H802 C779 0.950 . S
H803 C781 0.950 . S
C804 C805 1.349 . S
C804 C806 1.327 . S
C804 H829 0.950 . S
C805 C804 1.349 . S
C805 C821 1.349 . S
C806 C804 1.327 . S
C806 C825 1.429 . S
C806 H830 0.950 . S
C807 C824 1.574 . S
C807 C826 1.368 . S
C807 H831 0.949 . S
H808 C812 0.949 . S
C809 C810 1.349 . S
C809 C811 1.327 . S
C809 H832 0.950 . S
C810 C809 1.349 . S
C810 C822 1.349 . S
C811 C809 1.327 . S
C811 C827 1.429 . S
C811 H833 0.950 . S
C812 H808 0.949 . S
C812 C820 1.574 . S
C812 C828 1.368 . S
H813 C821 0.950 . S
H814 C819 0.950 . S
H815 C820 0.949 . S
H816 C822 0.950 . S
H817 C823 0.950 . S
H818 C824 0.949 . S
C819 H814 0.950 . S
C819 C821 1.327 . S
C819 C825 1.429 . S
C820 C812 1.574 . S
C820 H815 0.949 . S
C820 C826 1.368 . S
C821 C805 1.349 . S
C821 H813 0.950 . S
C821 C819 1.327 . S
C822 C810 1.349 . S
C822 H816 0.950 . S
C822 C823 1.327 . S
C823 H817 0.950 . S
C823 C822 1.327 . S
C823 C827 1.429 . S
C824 C807 1.574 . S
C824 H818 0.949 . S
C824 C828 1.368 . S
C825 C806 1.429 . S
C825 C819 1.429 . S
C825 C826 1.523 . S
C826 C807 1.368 . S
C826 C820 1.368 . S
C826 C825 1.523 . S
C827 C811 1.429 . S
C827 C823 1.429 . S
C827 C828 1.523 . S
C828 C812 1.368 . S
C828 C824 1.368 . S
C828 C827 1.523 . S
H829 C804 0.950 . S
H830 C806 0.950 . S
H831 C807 0.949 . S
H832 C809 0.950 . S
H833 C811 0.950 . S
C834 C835 1.349 . S
C834 C836 1.327 . S
C834 H859 0.950 . S
C835 C834 1.349 . S
C835 C851 1.349 . S
C836 C834 1.327 . S
C836 C855 1.429 . S
C836 H860 0.950 . S
C837 C854 1.574 . S
C837 C856 1.368 . S
C837 H861 0.949 . S
H838 C842 0.949 . S
C839 C840 1.349 . S
C839 C841 1.327 . S
C839 H862 0.950 . S
C840 C839 1.349 . S
C840 C852 1.349 . S
C841 C839 1.327 . S
C841 C857 1.429 . S
C841 H863 0.950 . S
C842 H838 0.949 . S
C842 C850 1.574 . S
C842 C858 1.368 . S
H843 C851 0.950 . S
H844 C849 0.950 . S
H845 C850 0.949 . S
H846 C852 0.950 . S
H847 C853 0.950 . S
H848 C854 0.949 . S
C849 H844 0.950 . S
C849 C851 1.327 . S
C849 C855 1.429 . S
C850 C842 1.574 . S
C850 H845 0.949 . S
C850 C856 1.368 . S
C851 C835 1.349 . S
C851 H843 0.950 . S
C851 C849 1.327 . S
C852 C840 1.349 . S
C852 H846 0.950 . S
C852 C853 1.327 . S
C853 H847 0.950 . S
C853 C852 1.327 . S
C853 C857 1.429 . S
C854 C837 1.574 . S
C854 H848 0.949 . S
C854 C858 1.368 . S
C855 C836 1.429 . S
C855 C849 1.429 . S
C855 C856 1.523 . S
C856 C837 1.368 . S
C856 C850 1.368 . S
C856 C855 1.523 . S
C857 C841 1.429 . S
C857 C853 1.429 . S
C857 C858 1.523 . S
C858 C842 1.368 . S
C858 C854 1.368 . S
C858 C857 1.523 . S
H859 C834 0.950 . S
H860 C836 0.950 . S
H861 C837 0.949 . S
H862 C839 0.950 . S
H863 C841 0.950 . S
C864 C865 1.349 . S
C864 C866 1.327 . S
C864 H889 0.950 . S
C865 C864 1.349 . S
C865 C881 1.349 . S
C866 C864 1.327 . S
C866 C885 1.429 . S
C866 H890 0.950 . S
C867 C884 1.574 . S
C867 C886 1.368 . S
C867 H891 0.949 . S
H868 C872 0.949 . S
C869 C870 1.349 . S
C869 C871 1.327 1_556 S
C869 H892 0.950 . S
C870 C869 1.349 . S
C870 C882 1.349 1_556 S
C871 C869 1.327 1_554 S
C871 C887 1.429 . S
C871 H893 0.950 . S
C872 H868 0.949 . S
C872 C880 1.574 . S
C872 C888 1.368 . S
H873 C881 0.950 . S
H874 C879 0.950 . S
H875 C880 0.949 . S
H876 C882 0.950 . S
H877 C883 0.950 . S
H878 C884 0.949 . S
C879 H874 0.950 . S
C879 C881 1.327 . S
C879 C885 1.429 . S
C880 C872 1.574 . S
C880 H875 0.949 . S
C880 C886 1.368 . S
C881 C865 1.349 . S
C881 H873 0.950 . S
C881 C879 1.327 . S
C882 C870 1.349 1_554 S
C882 H876 0.950 . S
C882 C883 1.327 . S
C883 H877 0.950 . S
C883 C882 1.327 . S
C883 C887 1.429 . S
C884 C867 1.574 . S
C884 H878 0.949 . S
C884 C888 1.368 . S
C885 C866 1.429 . S
C885 C879 1.429 . S
C885 C886 1.523 . S
C886 C867 1.368 . S
C886 C880 1.368 . S
C886 C885 1.523 . S
C887 C871 1.429 . S
C887 C883 1.429 . S
C887 C888 1.523 . S
C888 C872 1.368 . S
C888 C884 1.368 . S
C888 C887 1.523 . S
H889 C864 0.950 . S
H890 C866 0.950 . S
H891 C867 0.949 . S
H892 C869 0.950 . S
H893 C871 0.950 . S
C894 C895 1.349 . S
C894 C896 1.327 . S
C894 H919 0.950 . S
C895 C894 1.349 . S
C895 C911 1.349 . S
C896 C894 1.327 . S
C896 C915 1.429 . S
C896 H920 0.950 . S
C897 C914 1.574 . S
C897 C916 1.368 . S
C897 H921 0.949 . S
H898 C902 0.949 . S
C899 C900 1.349 . S
C899 C901 1.327 . S
C899 H922 0.950 . S
C900 C899 1.349 . S
C900 C912 1.349 . S
C901 C899 1.327 . S
C901 C917 1.429 . S
C901 H923 0.950 . S
C902 H898 0.949 . S
C902 C910 1.574 . S
C902 C918 1.368 . S
H903 C911 0.950 . S
H904 C909 0.950 . S
H905 C910 0.949 . S
H906 C912 0.950 1_556 S
H907 C913 0.950 . S
H908 C914 0.949 . S
C909 H904 0.950 . S
C909 C911 1.327 . S
C909 C915 1.429 . S
C910 C902 1.574 . S
C910 H905 0.949 . S
C910 C916 1.368 . S
C911 C895 1.349 . S
C911 H903 0.950 . S
C911 C909 1.327 . S
C912 C900 1.349 . S
C912 H906 0.950 1_554 S
C912 C913 1.327 . S
C913 H907 0.950 . S
C913 C912 1.327 . S
C913 C917 1.429 . S
C914 C897 1.574 . S
C914 H908 0.949 . S
C914 C918 1.368 . S
C915 C896 1.429 . S
C915 C909 1.429 . S
C915 C916 1.523 . S
C916 C897 1.368 . S
C916 C910 1.368 . S
C916 C915 1.523 . S
C917 C901 1.429 . S
C917 C913 1.429 . S
C917 C918 1.523 . S
C918 C902 1.368 . S
C918 C914 1.368 . S
C918 C917 1.523 . S
H919 C894 0.950 . S
H920 C896 0.950 . S
H921 C897 0.949 . S
H922 C899 0.950 . S
H923 C901 0.950 . S
C924 C925 1.349 . S
C924 C926 1.327 . S
C924 H949 0.950 . S
C925 C924 1.349 . S
C925 C941 1.349 . S
C926 C924 1.327 . S
C926 C945 1.429 . S
C926 H950 0.950 . S
C927 C944 1.574 . S
C927 C946 1.368 . S
C927 H951 0.949 . S
H928 C932 0.949 . S
C929 C930 1.349 . S
C929 C931 1.327 . S
C929 H952 0.950 . S
C930 C929 1.349 . S
C930 C942 1.349 . S
C931 C929 1.327 . S
C931 C947 1.429 . S
C931 H953 0.950 . S
C932 H928 0.949 . S
C932 C940 1.574 . S
C932 C948 1.368 . S
H933 C941 0.950 . S
H934 C939 0.950 . S
H935 C940 0.949 . S
H936 C942 0.950 . S
H937 C943 0.950 . S
H938 C944 0.949 . S
C939 H934 0.950 . S
C939 C941 1.327 . S
C939 C945 1.429 . S
C940 C932 1.574 . S
C940 H935 0.949 . S
C940 C946 1.368 . S
C941 C925 1.349 . S
C941 H933 0.950 . S
C941 C939 1.327 . S
C942 C930 1.349 . S
C942 H936 0.950 . S
C942 C943 1.327 . S
C943 H937 0.950 . S
C943 C942 1.327 . S
C943 C947 1.429 . S
C944 C927 1.574 . S
C944 H938 0.949 . S
C944 C948 1.368 . S
C945 C926 1.429 . S
C945 C939 1.429 . S
C945 C946 1.523 . S
C946 C927 1.368 . S
C946 C940 1.368 . S
C946 C945 1.523 . S
C947 C931 1.429 . S
C947 C943 1.429 . S
C947 C948 1.523 . S
C948 C932 1.368 . S
C948 C944 1.368 . S
C948 C947 1.523 . S
H949 C924 0.950 . S
H950 C926 0.950 . S
H951 C927 0.949 . S
H952 C929 0.950 . S
H953 C931 0.950 . S
C954 C955 1.349 . S
C954 C956 1.327 . S
C954 H979 0.950 . S
C955 C954 1.349 . S
C955 C971 1.349 . S
C956 C954 1.327 . S
C956 C975 1.429 . S
C956 H980 0.950 . S
C957 C974 1.574 . S
C957 C976 1.368 . S
C957 H981 0.949 . S
H958 C962 0.949 . S
C959 C960 1.349 . S
C959 C961 1.327 . S
C959 H982 0.950 . S
C960 C959 1.349 . S
C960 C972 1.349 . S
C961 C959 1.327 . S
C961 C977 1.429 . S
C961 H983 0.950 . S
C962 H958 0.949 . S
C962 C970 1.574 . S
C962 C978 1.368 . S
H963 C971 0.950 . S
H964 C969 0.950 . S
H965 C970 0.949 . S
H966 C972 0.950 . S
H967 C973 0.950 . S
H968 C974 0.949 . S
C969 H964 0.950 . S
C969 C971 1.327 . S
C969 C975 1.429 . S
C970 C962 1.574 . S
C970 H965 0.949 . S
C970 C976 1.368 . S
C971 C955 1.349 . S
C971 H963 0.950 . S
C971 C969 1.327 . S
C972 C960 1.349 . S
C972 H966 0.950 . S
C972 C973 1.327 . S
C973 H967 0.950 . S
C973 C972 1.327 . S
C973 C977 1.429 . S
C974 C957 1.574 . S
C974 H968 0.949 . S
C974 C978 1.368 . S
C975 C956 1.429 . S
C975 C969 1.429 . S
C975 C976 1.523 . S
C976 C957 1.368 . S
C976 C970 1.368 . S
C976 C975 1.523 . S
C977 C961 1.429 . S
C977 C973 1.429 . S
C977 C978 1.523 . S
C978 C962 1.368 . S
C978 C974 1.368 . S
C978 C977 1.523 . S
H979 C954 0.950 . S
H980 C956 0.950 . S
H981 C957 0.949 . S
H982 C959 0.950 . S
H983 C961 0.950 . S
C984 C985 1.349 . S
C984 C986 1.327 . S
C984 H1009 0.950 . S
C985 C984 1.349 . S
C985 C1001 1.349 . S
C986 C984 1.327 . S
C986 C1005 1.429 . S
C986 H1010 0.950 . S
C987 C1004 1.574 . S
C987 C1006 1.368 . S
C987 H1011 0.949 . S
H988 C992 0.949 . S
C989 C990 1.349 . S
C989 C991 1.327 . S
C989 H1012 0.950 . S
C990 C989 1.349 . S
C990 C1002 1.349 . S
C991 C989 1.327 . S
C991 C1007 1.429 . S
C991 H1013 0.950 . S
C992 H988 0.949 . S
C992 C1000 1.574 . S
C992 C1008 1.368 . S
H993 C1001 0.950 . S
H994 C999 0.950 . S
H995 C1000 0.949 . S
H996 C1002 0.950 . S
H997 C1003 0.950 . S
H998 C1004 0.949 . S
C999 H994 0.950 . S
C999 C1001 1.327 . S
C999 C1005 1.429 . S
C1000 C992 1.574 . S
C1000 H995 0.949 . S
C1000 C1006 1.368 . S
C1001 C985 1.349 . S
C1001 H993 0.950 . S
C1001 C999 1.327 . S
C1002 C990 1.349 . S
C1002 H996 0.950 . S
C1002 C1003 1.327 . S
C1003 H997 0.950 . S
C1003 C1002 1.327 . S
C1003 C1007 1.429 . S
C1004 C987 1.574 . S
C1004 H998 0.949 . S
C1004 C1008 1.368 . S
C1005 C986 1.429 . S
C1005 C999 1.429 . S
C1005 C1006 1.523 . S
C1006 C987 1.368 . S
C1006 C1000 1.368 . S
C1006 C1005 1.523 . S
C1007 C991 1.429 . S
C1007 C1003 1.429 . S
C1007 C1008 1.523 . S
C1008 C992 1.368 . S
C1008 C1004 1.368 . S
C1008 C1007 1.523 . S
H1009 C984 0.950 . S
H1010 C986 0.950 . S
H1011 C987 0.949 . S
H1012 C989 0.950 . S
H1013 C991 0.950 . S
C1014 C1015 1.349 . S
C1014 C1016 1.327 . S
C1014 H1039 0.950 . S
C1015 C1014 1.349 . S
C1015 C1031 1.349 . S
C1016 C1014 1.327 . S
C1016 C1035 1.429 . S
C1016 H1040 0.950 . S
C1017 C1034 1.574 . S
C1017 C1036 1.368 . S
C1017 H1041 0.949 . S
H1018 C1022 0.949 1_545 S
C1019 C1020 1.349 1_565 S
C1019 C1021 1.327 . S
C1019 H1042 0.950 . S
C1020 C1019 1.349 1_545 S
C1020 C1032 1.349 . S
C1021 C1019 1.327 . S
C1021 C1037 1.429 . S
C1021 H1043 0.950 . S
C1022 H1018 0.949 1_565 S
C1022 C1030 1.574 . S
C1022 C1038 1.368 . S
H1023 C1031 0.950 . S
H1024 C1029 0.950 . S
H1025 C1030 0.949 . S
H1026 C1032 0.950 . S
H1027 C1033 0.950 . S
H1028 C1034 0.949 . S
C1029 H1024 0.950 . S
C1029 C1031 1.327 . S
C1029 C1035 1.429 . S
C1030 C1022 1.574 . S
C1030 H1025 0.949 . S
C1030 C1036 1.368 . S
C1031 C1015 1.349 . S
C1031 H1023 0.950 . S
C1031 C1029 1.327 . S
C1032 C1020 1.349 . S
C1032 H1026 0.950 . S
C1032 C1033 1.327 . S
C1033 H1027 0.950 . S
C1033 C1032 1.327 . S
C1033 C1037 1.429 1_545 S
C1034 C1017 1.574 . S
C1034 H1028 0.949 . S
C1034 C1038 1.368 . S
C1035 C1016 1.429 . S
C1035 C1029 1.429 . S
C1035 C1036 1.523 . S
C1036 C1017 1.368 . S
C1036 C1030 1.368 . S
C1036 C1035 1.523 . S
C1037 C1021 1.429 . S
C1037 C1033 1.429 1_565 S
C1037 C1038 1.523 . S
C1038 C1022 1.368 . S
C1038 C1034 1.368 . S
C1038 C1037 1.523 . S
H1039 C1014 0.950 . S
H1040 C1016 0.950 . S
H1041 C1017 0.949 . S
H1042 C1019 0.950 . S
H1043 C1021 0.950 . S
C1044 C1045 1.349 . S
C1044 C1046 1.327 . S
C1044 H1069 0.950 . S
C1045 C1044 1.349 . S
C1045 C1061 1.349 . S
C1046 C1044 1.327 . S
C1046 C1065 1.429 . S
C1046 H1070 0.950 . S
C1047 C1064 1.574 . S
C1047 C1066 1.368 . S
C1047 H1071 0.949 . S
H1048 C1052 0.949 . S
C1049 C1050 1.349 . S
C1049 C1051 1.327 . S
C1049 H1072 0.950 . S
C1050 C1049 1.349 . S
C1050 C1062 1.349 . S
C1051 C1049 1.327 . S
C1051 C1067 1.429 . S
C1051 H1073 0.950 . S
C1052 H1048 0.949 . S
C1052 C1060 1.574 . S
C1052 C1068 1.368 . S
H1053 C1061 0.950 . S
H1054 C1059 0.950 . S
H1055 C1060 0.949 . S
H1056 C1062 0.950 . S
H1057 C1063 0.950 . S
H1058 C1064 0.949 . S
C1059 H1054 0.950 . S
C1059 C1061 1.327 . S
C1059 C1065 1.429 . S
C1060 C1052 1.574 . S
C1060 H1055 0.949 . S
C1060 C1066 1.368 . S
C1061 C1045 1.349 . S
C1061 H1053 0.950 . S
C1061 C1059 1.327 . S
C1062 C1050 1.349 . S
C1062 H1056 0.950 . S
C1062 C1063 1.327 . S
C1063 H1057 0.950 . S
C1063 C1062 1.327 . S
C1063 C1067 1.429 . S
C1064 C1047 1.574 . S
C1064 H1058 0.949 . S
C1064 C1068 1.368 . S
C1065 C1046 1.429 . S
C1065 C1059 1.429 . S
C1065 C1066 1.523 . S
C1066 C1047 1.368 . S
C1066 C1060 1.368 . S
C1066 C1065 1.523 . S
C1067 C1051 1.429 . S
C1067 C1063 1.429 . S
C1067 C1068 1.523 . S
C1068 C1052 1.368 . S
C1068 C1064 1.368 . S
C1068 C1067 1.523 . S
H1069 C1044 0.950 . S
H1070 C1046 0.950 . S
H1071 C1047 0.949 . S
H1072 C1049 0.950 . S
H1073 C1051 0.950 . S
C1074 C1075 1.349 . S
C1074 C1076 1.327 1_556 S
C1074 H1099 0.950 . S
C1075 C1074 1.349 . S
C1075 C1091 1.349 . S
C1076 C1074 1.327 1_554 S
C1076 C1095 1.429 . S
C1076 H1100 0.950 . S
C1077 C1094 1.574 . S
C1077 C1096 1.368 1_455 S
C1077 H1101 0.949 . S
H1078 C1082 0.949 . S
C1079 C1080 1.349 . S
C1079 C1081 1.327 . S
C1079 H1102 0.950 . S
C1080 C1079 1.349 . S
C1080 C1092 1.359 . S
C1081 C1079 1.327 . S
C1081 C1097 1.429 . S
C1081 H1103 0.950 . S
C1082 H1078 0.949 . S
C1082 C1090 1.574 . S
C1082 C1098 1.368 . S
H1083 C1091 0.950 . S
H1084 C1089 1.000 . S
H1085 C1090 0.949 . S
H1086 C1092 0.949 1_655 S
H1087 C1093 0.950 . S
H1088 C1094 0.949 . S
C1089 H1084 1.000 . S
C1089 C1091 1.327 1_554 S
C1089 C1095 1.429 . S
C1090 C1082 1.574 . S
C1090 H1085 0.949 . S
C1090 C1096 1.368 . S
C1091 C1075 1.349 . S
C1091 H1083 0.950 . S
C1091 C1089 1.327 1_556 S
C1092 C1080 1.359 . S
C1092 H1086 0.949 1_455 S
C1092 C1093 1.319 1_455 S
C1093 H1087 0.950 . S
C1093 C1092 1.319 1_655 S
C1093 C1097 1.429 1_655 S
C1094 C1077 1.574 . S
C1094 H1088 0.949 . S
C1094 C1098 1.368 1_455 S
C1095 C1076 1.429 . S
C1095 C1089 1.429 . S
C1095 C1096 1.523 . S
C1096 C1077 1.368 1_655 S
C1096 C1090 1.368 . S
C1096 C1095 1.523 . S
C1097 C1081 1.429 . S
C1097 C1093 1.429 1_455 S
C1097 C1098 1.523 1_455 S
C1098 C1082 1.368 . S
C1098 C1094 1.368 1_655 S
C1098 C1097 1.523 1_655 S
H1099 C1074 0.950 . S
H1100 C1076 0.950 . S
H1101 C1077 0.949 . S
H1102 C1079 0.950 . S
H1103 C1081 0.950 . S
C1104 C1105 1.349 1_554 S
C1104 C1106 1.327 . S
C1104 H1129 0.950 . S
C1105 C1104 1.349 1_556 S
C1105 C1121 1.349 . S
C1106 C1104 1.327 . S
C1106 C1125 1.429 . S
C1106 H1130 0.950 . S
C1107 C1124 1.574 . S
C1107 C1126 1.368 . S
C1107 H1131 0.949 1_554 S
H1108 C1112 0.949 . S
C1109 C1110 1.349 . S
C1109 C1111 1.327 . S
C1109 H1132 0.950 . S
C1110 C1109 1.349 . S
C1110 C1122 1.349 . S
C1111 C1109 1.327 . S
C1111 C1127 1.429 . S
C1111 H1133 0.950 . S
C1112 H1108 0.949 . S
C1112 C1120 1.574 . S
C1112 C1128 1.368 . S
H1113 C1121 0.950 . S
H1114 C1119 0.950 . S
H1115 C1120 0.949 . S
H1116 C1122 0.950 . S
H1117 C1123 0.950 . S
H1118 C1124 0.949 . S
C1119 H1114 0.950 . S
C1119 C1121 1.327 . S
C1119 C1125 1.429 1_556 S
C1120 C1112 1.574 . S
C1120 H1115 0.949 . S
C1120 C1126 1.368 . S
C1121 C1105 1.349 . S
C1121 H1113 0.950 . S
C1121 C1119 1.327 . S
C1122 C1110 1.349 . S
C1122 H1116 0.950 . S
C1122 C1123 1.327 . S
C1123 H1117 0.950 . S
C1123 C1122 1.327 . S
C1123 C1127 1.429 . S
C1124 C1107 1.574 . S
C1124 H1118 0.949 . S
C1124 C1128 1.368 . S
C1125 C1106 1.429 . S
C1125 C1119 1.429 1_554 S
C1125 C1126 1.523 . S
C1126 C1107 1.368 . S
C1126 C1120 1.368 . S
C1126 C1125 1.523 . S
C1127 C1111 1.429 . S
C1127 C1123 1.429 . S
C1127 C1128 1.523 . S
C1128 C1112 1.368 . S
C1128 C1124 1.368 . S
C1128 C1127 1.523 . S
H1129 C1104 0.950 . S
H1130 C1106 0.950 . S
H1131 C1107 0.949 1_556 S
H1132 C1109 0.950 . S
H1133 C1111 0.950 . S
C1134 C1135 1.349 . S
C1134 C1136 1.327 . S
C1134 H1159 0.950 . S
C1135 C1134 1.349 . S
C1135 C1151 1.349 . S
C1136 C1134 1.327 . S
C1136 C1155 1.429 . S
C1136 H1160 0.950 . S
C1137 C1154 1.574 . S
C1137 C1156 1.368 . S
C1137 H1161 0.949 . S
H1138 C1142 0.949 . S
C1139 C1140 1.349 . S
C1139 C1141 1.327 . S
C1139 H1162 0.950 . S
C1140 C1139 1.349 . S
C1140 C1152 1.349 . S
C1141 C1139 1.327 . S
C1141 C1157 1.434 . S
C1141 H1163 0.950 . S
C1142 H1138 0.949 . S
C1142 C1150 1.574 . S
C1142 C1158 1.368 . S
H1143 C1151 0.950 . S
H1144 C1149 0.950 . S
H1145 C1150 0.949 . S
H1146 C1152 0.950 . S
H1147 C1153 0.950 1_655 S
H1148 C1154 0.949 . S
C1149 H1144 0.950 . S
C1149 C1151 1.327 . S
C1149 C1155 1.429 . S
C1150 C1142 1.574 . S
C1150 H1145 0.949 . S
C1150 C1156 1.368 . S
C1151 C1135 1.349 . S
C1151 H1143 0.950 . S
C1151 C1149 1.327 . S
C1152 C1140 1.349 . S
C1152 H1146 0.950 . S
C1152 C1153 1.327 . S
C1153 H1147 0.950 1_455 S
C1153 C1152 1.327 . S
C1153 C1157 1.423 . S
C1154 C1137 1.574 . S
C1154 H1148 0.949 . S
C1154 C1158 1.368 . S
C1155 C1136 1.429 . S
C1155 C1149 1.429 . S
C1155 C1156 1.523 . S
C1156 C1137 1.368 . S
C1156 C1150 1.368 . S
C1156 C1155 1.523 . S
C1157 C1141 1.434 . S
C1157 C1153 1.423 . S
C1157 C1158 1.523 1_455 S
C1158 C1142 1.368 . S
C1158 C1154 1.368 . S
C1158 C1157 1.523 1_655 S
H1159 C1134 0.950 . S
H1160 C1136 0.950 . S
H1161 C1137 0.949 . S
H1162 C1139 0.950 . S
H1163 C1141 0.950 . S
C1164 C1165 1.349 . S
C1164 C1166 1.327 . S
C1164 H1189 0.950 . S
C1165 C1164 1.349 . S
C1165 C1181 1.349 . S
C1166 C1164 1.327 . S
C1166 C1185 1.429 . S
C1166 H1190 0.950 . S
C1167 C1184 1.574 . S
C1167 C1186 1.368 . S
C1167 H1191 0.949 . S
H1168 C1172 0.949 . S
C1169 C1170 1.349 . S
C1169 C1171 1.327 . S
C1169 H1192 0.950 . S
C1170 C1169 1.349 . S
C1170 C1182 1.349 . S
C1171 C1169 1.327 . S
C1171 C1187 1.429 . S
C1171 H1193 0.950 . S
C1172 H1168 0.949 . S
C1172 C1180 1.574 . S
C1172 C1188 1.368 . S
H1173 C1181 0.950 . S
H1174 C1179 0.950 . S
H1175 C1180 0.949 . S
H1176 C1182 0.950 . S
H1177 C1183 0.950 . S
H1178 C1184 0.949 . S
C1179 H1174 0.950 . S
C1179 C1181 1.327 . S
C1179 C1185 1.429 . S
C1180 C1172 1.574 . S
C1180 H1175 0.949 . S
C1180 C1186 1.368 . S
C1181 C1165 1.349 . S
C1181 H1173 0.950 . S
C1181 C1179 1.327 . S
C1182 C1170 1.349 . S
C1182 H1176 0.950 . S
C1182 C1183 1.327 . S
C1183 H1177 0.950 . S
C1183 C1182 1.327 . S
C1183 C1187 1.429 . S
C1184 C1167 1.574 . S
C1184 H1178 0.949 . S
C1184 C1188 1.368 . S
C1185 C1166 1.429 . S
C1185 C1179 1.429 . S
C1185 C1186 1.523 . S
C1186 C1167 1.368 . S
C1186 C1180 1.368 . S
C1186 C1185 1.523 . S
C1187 C1171 1.429 . S
C1187 C1183 1.429 . S
C1187 C1188 1.523 . S
C1188 C1172 1.368 . S
C1188 C1184 1.368 . S
C1188 C1187 1.523 . S
H1189 C1164 0.950 . S
H1190 C1166 0.950 . S
H1191 C1167 0.949 . S
H1192 C1169 0.950 . S
H1193 C1171 0.950 . S
C1194 C1195 1.349 . S
C1194 C1196 1.327 . S
C1194 H1219 0.950 . S
C1195 C1194 1.349 . S
C1195 C1211 1.349 . S
C1196 C1194 1.327 . S
C1196 C1215 1.429 . S
C1196 H1220 0.950 . S
C1197 C1214 1.574 . S
C1197 C1216 1.368 . S
C1197 H1221 0.949 . S
H1198 C1202 0.949 . S
C1199 C1200 1.349 . S
C1199 C1201 1.327 . S
C1199 H1222 0.950 . S
C1200 C1199 1.349 . S
C1200 C1212 1.349 . S
C1201 C1199 1.327 . S
C1201 C1217 1.429 . S
C1201 H1223 0.950 . S
C1202 H1198 0.949 . S
C1202 C1210 1.574 . S
C1202 C1218 1.368 . S
H1203 C1211 0.950 . S
H1204 C1209 0.950 . S
H1205 C1210 0.949 . S
H1206 C1212 0.950 . S
H1207 C1213 0.950 . S
H1208 C1214 0.949 . S
C1209 H1204 0.950 . S
C1209 C1211 1.327 . S
C1209 C1215 1.429 . S
C1210 C1202 1.574 . S
C1210 H1205 0.949 . S
C1210 C1216 1.368 . S
C1211 C1195 1.349 . S
C1211 H1203 0.950 . S
C1211 C1209 1.327 . S
C1212 C1200 1.349 . S
C1212 H1206 0.950 . S
C1212 C1213 1.327 . S
C1213 H1207 0.950 . S
C1213 C1212 1.327 . S
C1213 C1217 1.429 . S
C1214 C1197 1.574 . S
C1214 H1208 0.949 . S
C1214 C1218 1.368 . S
C1215 C1196 1.429 . S
C1215 C1209 1.429 . S
C1215 C1216 1.523 . S
C1216 C1197 1.368 . S
C1216 C1210 1.368 . S
C1216 C1215 1.523 . S
C1217 C1201 1.429 . S
C1217 C1213 1.429 . S
C1217 C1218 1.523 . S
C1218 C1202 1.368 . S
C1218 C1214 1.368 . S
C1218 C1217 1.523 . S
H1219 C1194 0.950 . S
H1220 C1196 0.950 . S
H1221 C1197 0.949 . S
H1222 C1199 0.950 . S
H1223 C1201 0.950 . S
C1224 C1225 1.349 1_556 S
C1224 C1226 1.327 . S
C1224 H1249 0.950 . S
C1225 C1224 1.349 1_554 S
C1225 C1241 1.349 . S
C1226 C1224 1.327 . S
C1226 C1245 1.429 . S
C1226 H1250 0.950 . S
C1227 C1244 1.574 . S
C1227 C1246 1.368 . S
C1227 H1251 0.949 1_556 S
H1228 C1232 0.949 . S
C1229 C1230 1.349 . S
C1229 C1231 1.327 . S
C1229 H1252 0.950 . S
C1230 C1229 1.349 . S
C1230 C1242 1.349 . S
C1231 C1229 1.327 . S
C1231 C1247 1.437 1_545 S
C1231 H1253 0.950 . S
C1232 H1228 0.949 . S
C1232 C1240 1.574 . S
C1232 C1248 1.368 . S
H1233 C1241 0.950 . S
H1234 C1239 0.950 . S
H1235 C1240 0.949 . S
H1236 C1242 0.950 . S
H1237 C1243 0.966 1_565 S
H1238 C1244 0.949 . S
C1239 H1234 0.950 . S
C1239 C1241 1.327 . S
C1239 C1245 1.429 1_554 S
C1240 C1232 1.574 . S
C1240 H1235 0.949 . S
C1240 C1246 1.368 . S
C1241 C1225 1.349 . S
C1241 H1233 0.950 . S
C1241 C1239 1.327 . S
C1242 C1230 1.349 . S
C1242 H1236 0.950 . S
C1242 C1243 1.325 . S
C1243 H1237 0.966 1_545 S
C1243 C1242 1.325 . S
C1243 C1247 1.423 1_545 S
C1244 C1227 1.574 . S
C1244 H1238 0.949 . S
C1244 C1248 1.368 . S
C1245 C1226 1.429 . S
C1245 C1239 1.429 1_556 S
C1245 C1246 1.523 . S
C1246 C1227 1.368 . S
C1246 C1240 1.368 . S
C1246 C1245 1.523 . S
C1247 C1231 1.437 1_565 S
C1247 C1243 1.423 1_565 S
C1247 C1248 1.521 . S
C1248 C1232 1.368 . S
C1248 C1244 1.368 . S
C1248 C1247 1.521 . S
H1249 C1224 0.950 . S
H1250 C1226 0.950 . S
H1251 C1227 0.949 1_554 S
H1252 C1229 0.950 . S
H1253 C1231 0.950 . S
C1254 C1255 1.349 . S
C1254 C1256 1.327 . S
C1254 H1279 0.950 . S
C1255 C1254 1.349 . S
C1255 C1271 1.349 . S
C1256 C1254 1.327 . S
C1256 C1275 1.429 . S
C1256 H1280 0.950 . S
C1257 C1274 1.574 . S
C1257 C1276 1.368 . S
C1257 H1281 0.949 . S
H1258 C1262 0.949 . S
C1259 C1260 1.348 1_556 S
C1259 C1261 1.331 . S
C1259 H1282 0.947 1_556 S
C1260 C1259 1.348 1_554 S
C1260 C1272 1.349 1_554 S
C1261 C1259 1.331 . S
C1261 C1277 1.429 . S
C1261 H1283 0.950 . S
C1262 H1258 0.949 . S
C1262 C1270 1.574 . S
C1262 C1278 1.368 . S
H1263 C1271 0.950 . S
H1264 C1269 0.950 . S
H1265 C1270 0.949 . S
H1266 C1272 0.952 . S
H1267 C1273 0.950 . S
H1268 C1274 0.949 . S
C1269 H1264 0.950 . S
C1269 C1271 1.327 . S
C1269 C1275 1.429 . S
C1270 C1262 1.574 . S
C1270 H1265 0.949 . S
C1270 C1276 1.368 . S
C1271 C1255 1.349 . S
C1271 H1263 0.950 . S
C1271 C1269 1.327 . S
C1272 C1260 1.349 1_556 S
C1272 H1266 0.952 . S
C1272 C1273 1.327 . S
C1273 H1267 0.950 . S
C1273 C1272 1.327 . S
C1273 C1277 1.429 . S
C1274 C1257 1.574 . S
C1274 H1268 0.949 . S
C1274 C1278 1.368 . S
C1275 C1256 1.429 . S
C1275 C1269 1.429 . S
C1275 C1276 1.523 . S
C1276 C1257 1.368 . S
C1276 C1270 1.368 . S
C1276 C1275 1.523 . S
C1277 C1261 1.429 . S
C1277 C1273 1.429 . S
C1277 C1278 1.523 . S
C1278 C1262 1.368 . S
C1278 C1274 1.368 . S
C1278 C1277 1.523 . S
H1279 C1254 0.950 . S
H1280 C1256 0.950 . S
H1281 C1257 0.949 . S
H1282 C1259 0.947 1_554 S
H1283 C1261 0.950 . S
C1284 C1285 1.349 . S
C1284 C1286 1.327 . S
C1284 H1309 0.950 . S
C1285 C1284 1.349 . S
C1285 C1301 1.349 . S
C1286 C1284 1.327 . S
C1286 C1305 1.429 . S
C1286 H1310 0.950 . S
C1287 C1304 1.574 . S
C1287 C1306 1.368 . S
C1287 H1311 0.949 . S
H1288 C1292 0.949 . S
C1289 C1290 1.349 . S
C1289 C1291 1.327 . S
C1289 H1312 0.950 . S
C1290 C1289 1.349 . S
C1290 C1302 1.349 . S
C1291 C1289 1.327 . S
C1291 C1307 1.429 . S
C1291 H1313 0.950 . S
C1292 H1288 0.949 . S
C1292 C1300 1.574 . S
C1292 C1308 1.368 . S
H1293 C1301 0.950 . S
H1294 C1299 0.950 . S
H1295 C1300 0.949 . S
H1296 C1302 0.950 . S
H1297 C1303 0.950 . S
H1298 C1304 0.949 . S
C1299 H1294 0.950 . S
C1299 C1301 1.327 . S
C1299 C1305 1.429 . S
C1300 C1292 1.574 . S
C1300 H1295 0.949 . S
C1300 C1306 1.368 . S
C1301 C1285 1.349 . S
C1301 H1293 0.950 . S
C1301 C1299 1.327 . S
C1302 C1290 1.349 . S
C1302 H1296 0.950 . S
C1302 C1303 1.327 . S
C1303 H1297 0.950 . S
C1303 C1302 1.327 . S
C1303 C1307 1.429 . S
C1304 C1287 1.574 . S
C1304 H1298 0.949 . S
C1304 C1308 1.368 . S
C1305 C1286 1.429 . S
C1305 C1299 1.429 . S
C1305 C1306 1.523 . S
C1306 C1287 1.368 . S
C1306 C1300 1.368 . S
C1306 C1305 1.523 . S
C1307 C1291 1.429 . S
C1307 C1303 1.429 . S
C1307 C1308 1.523 . S
C1308 C1292 1.368 . S
C1308 C1304 1.368 . S
C1308 C1307 1.523 . S
H1309 C1284 0.950 . S
H1310 C1286 0.950 . S
H1311 C1287 0.949 . S
H1312 C1289 0.950 . S
H1313 C1291 0.950 . S
C1314 C1315 1.349 . S
C1314 C1316 1.327 . S
C1314 H1339 0.950 . S
C1315 C1314 1.349 . S
C1315 C1331 1.349 . S
C1316 C1314 1.327 . S
C1316 C1335 1.429 . S
C1316 H1340 0.950 . S
C1317 C1334 1.574 . S
C1317 C1336 1.368 . S
C1317 H1341 0.949 . S
H1318 C1322 0.949 . S
C1319 C1320 1.349 . S
C1319 C1321 1.327 . S
C1319 H1342 0.950 . S
C1320 C1319 1.349 . S
C1320 C1332 1.349 . S
C1321 C1319 1.327 . S
C1321 C1337 1.429 . S
C1321 H1343 0.950 . S
C1322 H1318 0.949 . S
C1322 C1330 1.574 . S
C1322 C1338 1.368 . S
H1323 C1331 0.950 . S
H1324 C1329 0.950 . S
H1325 C1330 0.949 . S
H1326 C1332 0.950 . S
H1327 C1333 0.950 . S
H1328 C1334 0.949 . S
C1329 H1324 0.950 . S
C1329 C1331 1.327 . S
C1329 C1335 1.429 . S
C1330 C1322 1.574 . S
C1330 H1325 0.949 . S
C1330 C1336 1.368 . S
C1331 C1315 1.349 . S
C1331 H1323 0.950 . S
C1331 C1329 1.327 . S
C1332 C1320 1.349 . S
C1332 H1326 0.950 . S
C1332 C1333 1.327 . S
C1333 H1327 0.950 . S
C1333 C1332 1.327 . S
C1333 C1337 1.429 . S
C1334 C1317 1.574 . S
C1334 H1328 0.949 . S
C1334 C1338 1.368 . S
C1335 C1316 1.429 . S
C1335 C1329 1.429 . S
C1335 C1336 1.523 1_565 S
C1336 C1317 1.368 . S
C1336 C1330 1.368 . S
C1336 C1335 1.523 1_545 S
C1337 C1321 1.429 . S
C1337 C1333 1.429 . S
C1337 C1338 1.523 . S
C1338 C1322 1.368 . S
C1338 C1334 1.368 . S
C1338 C1337 1.523 . S
H1339 C1314 0.950 . S
H1340 C1316 0.950 . S
H1341 C1317 0.949 . S
H1342 C1319 0.950 . S
H1343 C1321 0.950 . S
C1344 C1345 1.349 . S
C1344 C1346 1.327 . S
C1344 H1369 0.950 . S
C1345 C1344 1.349 . S
C1345 C1361 1.349 . S
C1346 C1344 1.327 . S
C1346 C1365 1.429 . S
C1346 H1370 0.950 . S
C1347 C1364 1.574 . S
C1347 C1366 1.368 . S
C1347 H1371 0.949 . S
H1348 C1352 0.949 . S
C1349 C1350 1.349 . S
C1349 C1351 1.387 . S
C1349 H1372 0.950 . S
C1350 C1349 1.349 . S
C1350 C1362 1.349 . S
C1351 C1349 1.387 . S
C1351 C1367 1.419 1_655 S
C1351 H1373 0.903 1_655 S
C1352 H1348 0.949 . S
C1352 C1360 1.574 . S
C1352 C1368 1.368 . S
H1353 C1361 0.950 . S
H1354 C1359 0.950 . S
H1355 C1360 0.949 . S
H1356 C1362 0.950 . S
H1357 C1363 0.950 . S
H1358 C1364 0.949 . S
C1359 H1354 0.950 . S
C1359 C1361 1.327 . S
C1359 C1365 1.429 . S
C1360 C1352 1.574 . S
C1360 H1355 0.949 . S
C1360 C1366 1.368 . S
C1361 C1345 1.349 . S
C1361 H1353 0.950 . S
C1361 C1359 1.327 . S
C1362 C1350 1.349 . S
C1362 H1356 0.950 . S
C1362 C1363 1.327 1_655 S
C1363 H1357 0.950 . S
C1363 C1362 1.327 1_455 S
C1363 C1367 1.429 . S
C1364 C1347 1.574 . S
C1364 H1358 0.949 . S
C1364 C1368 1.368 . S
C1365 C1346 1.429 . S
C1365 C1359 1.429 . S
C1365 C1366 1.523 . S
C1366 C1347 1.368 . S
C1366 C1360 1.368 . S
C1366 C1365 1.523 . S
C1367 C1351 1.419 1_455 S
C1367 C1363 1.429 . S
C1367 C1368 1.523 . S
C1368 C1352 1.368 . S
C1368 C1364 1.368 . S
C1368 C1367 1.523 . S
H1369 C1344 0.950 . S
H1370 C1346 0.950 . S
H1371 C1347 0.949 . S
H1372 C1349 0.950 . S
H1373 C1351 0.903 1_455 S
C1374 C1375 1.349 . S
C1374 C1376 1.327 . S
C1374 H1399 0.950 . S
C1375 C1374 1.349 . S
C1375 C1391 1.349 . S
C1376 C1374 1.327 . S
C1376 C1395 1.429 . S
C1376 H1400 0.950 . S
C1377 C1394 1.574 . S
C1377 C1396 1.368 . S
C1377 H1401 0.949 . S
H1378 C1382 0.949 . S
C1379 C1380 1.349 . S
C1379 C1381 1.327 . S
C1379 H1402 0.950 . S
C1380 C1379 1.349 . S
C1380 C1392 1.349 . S
C1381 C1379 1.327 . S
C1381 C1397 1.429 . S
C1381 H1403 0.950 . S
C1382 H1378 0.949 . S
C1382 C1390 1.574 . S
C1382 C1398 1.368 . S
H1383 C1391 0.950 . S
H1384 C1389 0.950 . S
H1385 C1390 0.949 . S
H1386 C1392 0.950 . S
H1387 C1393 0.950 . S
H1388 C1394 0.949 . S
C1389 H1384 0.950 . S
C1389 C1391 1.327 . S
C1389 C1395 1.429 . S
C1390 C1382 1.574 . S
C1390 H1385 0.949 . S
C1390 C1396 1.368 . S
C1391 C1375 1.349 . S
C1391 H1383 0.950 . S
C1391 C1389 1.327 . S
C1392 C1380 1.349 . S
C1392 H1386 0.950 . S
C1392 C1393 1.327 . S
C1393 H1387 0.950 . S
C1393 C1392 1.327 . S
C1393 C1397 1.429 . S
C1394 C1377 1.574 . S
C1394 H1388 0.949 . S
C1394 C1398 1.368 . S
C1395 C1376 1.429 . S
C1395 C1389 1.429 . S
C1395 C1396 1.523 . S
C1396 C1377 1.368 . S
C1396 C1390 1.368 . S
C1396 C1395 1.523 . S
C1397 C1381 1.429 . S
C1397 C1393 1.429 . S
C1397 C1398 1.523 . S
C1398 C1382 1.368 . S
C1398 C1394 1.368 . S
C1398 C1397 1.523 . S
H1399 C1374 0.950 . S
H1400 C1376 0.950 . S
H1401 C1377 0.949 . S
H1402 C1379 0.950 . S
H1403 C1381 0.950 . S
C1404 C1405 1.349 . S
C1404 C1406 1.327 1_655 S
C1404 H1429 0.950 . S
C1405 C1404 1.349 . S
C1405 C1421 1.349 . S
C1406 C1404 1.327 1_455 S
C1406 C1425 1.429 . S
C1406 H1430 0.950 . S
C1407 C1424 1.574 . S
C1407 C1426 1.368 . S
C1407 H1431 0.949 . S
H1408 C1412 0.949 . S
C1409 C1410 1.349 . S
C1409 C1411 1.327 . S
C1409 H1432 0.950 . S
C1410 C1409 1.349 . S
C1410 C1422 1.349 . S
C1411 C1409 1.327 . S
C1411 C1427 1.429 . S
C1411 H1433 0.950 . S
C1412 H1408 0.949 . S
C1412 C1420 1.574 . S
C1412 C1428 1.368 . S
H1413 C1421 0.950 . S
H1414 C1419 0.950 . S
H1415 C1420 0.949 . S
H1416 C1422 0.950 . S
H1417 C1423 0.950 . S
H1418 C1424 0.949 . S
C1419 H1414 0.950 . S
C1419 C1421 1.327 1_455 S
C1419 C1425 1.429 . S
C1420 C1412 1.574 . S
C1420 H1415 0.949 . S
C1420 C1426 1.368 . S
C1421 C1405 1.349 . S
C1421 H1413 0.950 . S
C1421 C1419 1.327 1_655 S
C1422 C1410 1.349 . S
C1422 H1416 0.950 . S
C1422 C1423 1.327 . S
C1423 H1417 0.950 . S
C1423 C1422 1.327 . S
C1423 C1427 1.429 . S
C1424 C1407 1.574 . S
C1424 H1418 0.949 . S
C1424 C1428 1.368 . S
C1425 C1406 1.429 . S
C1425 C1419 1.429 . S
C1425 C1426 1.523 . S
C1426 C1407 1.368 . S
C1426 C1420 1.368 . S
C1426 C1425 1.523 . S
C1427 C1411 1.429 . S
C1427 C1423 1.429 . S
C1427 C1428 1.523 . S
C1428 C1412 1.368 . S
C1428 C1424 1.368 . S
C1428 C1427 1.523 . S
H1429 C1404 0.950 . S
H1430 C1406 0.950 . S
H1431 C1407 0.949 . S
H1432 C1409 0.950 . S
H1433 C1411 0.950 . S
C1434 C1435 1.349 . S
C1434 C1436 1.327 . S
C1434 H1459 0.950 . S
C1435 C1434 1.349 . S
C1435 C1451 1.349 . S
C1436 C1434 1.327 . S
C1436 C1455 1.429 . S
C1436 H1460 0.950 . S
C1437 C1454 1.574 . S
C1437 C1456 1.368 . S
C1437 H1461 0.949 . S
H1438 C1442 0.949 . S
C1439 C1440 1.349 . S
C1439 C1441 1.327 . S
C1439 H1462 0.950 . S
C1440 C1439 1.349 . S
C1440 C1452 1.349 . S
C1441 C1439 1.327 . S
C1441 C1457 1.429 . S
C1441 H1463 0.950 . S
C1442 H1438 0.949 . S
C1442 C1450 1.574 . S
C1442 C1458 1.368 . S
H1443 C1451 0.950 . S
H1444 C1449 0.950 . S
H1445 C1450 0.949 . S
H1446 C1452 0.950 . S
H1447 C1453 0.950 . S
H1448 C1454 0.949 . S
C1449 H1444 0.950 . S
C1449 C1451 1.327 . S
C1449 C1455 1.429 . S
C1450 C1442 1.574 . S
C1450 H1445 0.949 . S
C1450 C1456 1.368 . S
C1451 C1435 1.349 . S
C1451 H1443 0.950 . S
C1451 C1449 1.327 . S
C1452 C1440 1.349 . S
C1452 H1446 0.950 . S
C1452 C1453 1.327 . S
C1453 H1447 0.950 . S
C1453 C1452 1.327 . S
C1453 C1457 1.429 . S
C1454 C1437 1.574 . S
C1454 H1448 0.949 . S
C1454 C1458 1.368 . S
C1455 C1436 1.429 . S
C1455 C1449 1.429 . S
C1455 C1456 1.523 . S
C1456 C1437 1.368 . S
C1456 C1450 1.368 . S
C1456 C1455 1.523 . S
C1457 C1441 1.429 . S
C1457 C1453 1.429 . S
C1457 C1458 1.523 . S
C1458 C1442 1.368 . S
C1458 C1454 1.368 . S
C1458 C1457 1.523 . S
H1459 C1434 0.950 . S
H1460 C1436 0.950 . S
H1461 C1437 0.949 . S
H1462 C1439 0.950 . S
H1463 C1441 0.950 . S
C1464 C1465 1.349 . S
C1464 C1466 1.327 . S
C1464 H1489 0.950 . S
C1465 C1464 1.349 . S
C1465 C1481 1.349 . S
C1466 C1464 1.327 . S
C1466 C1485 1.430 . S
C1466 H1490 0.950 . S
C1467 C1484 1.574 . S
C1467 C1486 1.368 . S
C1467 H1491 0.949 . S
H1468 C1472 0.949 . S
C1469 C1470 1.349 . S
C1469 C1471 1.327 . S
C1469 H1492 0.950 . S
C1470 C1469 1.349 . S
C1470 C1482 1.349 . S
C1471 C1469 1.327 . S
C1471 C1487 1.429 . S
C1471 H1493 0.950 . S
C1472 H1468 0.949 . S
C1472 C1480 1.574 . S
C1472 C1488 1.368 . S
H1473 C1481 0.950 . S
H1474 C1479 0.950 . S
H1475 C1480 0.949 . S
H1476 C1482 0.950 . S
H1477 C1483 0.950 . S
H1478 C1484 0.949 . S
C1479 H1474 0.950 . S
C1479 C1481 1.327 . S
C1479 C1485 1.519 . S
C1480 C1472 1.574 . S
C1480 H1475 0.949 . S
C1480 C1486 1.368 . S
C1481 C1465 1.349 . S
C1481 H1473 0.950 . S
C1481 C1479 1.327 . S
C1482 C1470 1.349 . S
C1482 H1476 0.950 . S
C1482 C1483 1.327 . S
C1483 H1477 0.950 . S
C1483 C1482 1.327 . S
C1483 C1487 1.429 . S
C1484 C1467 1.574 . S
C1484 H1478 0.949 . S
C1484 C1488 1.368 . S
C1485 C1466 1.430 . S
C1485 C1479 1.519 . S
C1485 C1486 1.444 1_565 S
C1486 C1467 1.368 . S
C1486 C1480 1.368 . S
C1486 C1485 1.444 1_545 S
C1487 C1471 1.429 . S
C1487 C1483 1.429 . S
C1487 C1488 1.523 . S
C1488 C1472 1.368 . S
C1488 C1484 1.368 . S
C1488 C1487 1.523 . S
H1489 C1464 0.950 . S
H1490 C1466 0.950 . S
H1491 C1467 0.949 . S
H1492 C1469 0.950 . S
H1493 C1471 0.950 . S
C415 C85 1.666 . S
C420 C16 1.666 . S
C445 N94 1.653 . S
C450 N25 1.652 . S
C475 N48 1.638 . S
C480 N117 1.642 . S
C505 C62 1.787 . S
C510 C131 1.786 . S
C535 N2 1.749 . S
C540 N71 1.744 . S
C565 C108 1.789 . S
C570 C39 1.791 . S
C595 N209 1.846 . S
C600 C154 1.907 . S
C625 C177 1.883 . S
C630 N232 1.825 . S
C655 C200 1.839 . S
C660 N255 1.784 . S
C685 C269 1.648 . S
C690 N186 1.596 . S
C715 C223 1.627 1_556 S
C720 N140 1.578 . S
C745 C246 1.686 . S
C750 N163 1.631 . S
C775 C292 1.692 . S
C780 C361 1.697 . S
C805 N301 1.682 . S
C810 N370 1.684 . S
C835 N324 1.674 . S
C840 N393 1.673 . S
C865 C407 1.818 . S
C870 C338 1.821 . S
C895 N347 1.782 . S
C900 N278 1.780 1_554 S
C925 C384 1.816 . S
C930 C315 1.819 . S
C955 C7 1.568 . S
C960 N173 1.549 . S
C985 N35 1.545 . S
C990 N196 1.543 . S
C1015 N150 1.536 . S
C1020 N58 1.542 . S
C1045 C53 1.653 . S
C1050 N311 1.631 . S
C1075 N334 1.620 . S
C1080 N12 1.633 . S
C1105 C283 1.614 . S
C1110 C30 1.622 . S
C1135 C375 1.615 . S
C1140 C76 1.619 . S
C1165 N104 1.627 . S
C1170 C398 1.634 . S
C1195 N357 1.621 . S
C1200 N127 1.626 . S
C1225 N242 1.635 . S
C1230 C122 1.658 . S
C1255 N81 1.622 . S
C1260 N265 1.622 . S
C1285 C99 1.668 . S
C1290 N219 1.648 . S
C1315 C145 1.713 . S
C1320 C306 1.714 . S
C1345 C168 1.704 . S
C1350 C329 1.708 . S
C1375 C191 1.711 . S
C1380 N288 1.689 . S
C1405 N380 1.605 . S
C1410 C260 1.621 . S
C1435 N403 1.604 . S
C1440 C214 1.617 . S
C1465 C237 1.606 . S
C1470 C352 1.610 . S
