# Generated by pormake.
# Topology wkh, (6)-cn, num edge types: 1
# Building blocks:
#     Node 0, Type 0, BuildingBlock: VOLQOD_clean_sbu_1, # of connection points: 6
#     Node 1, Type 0, BuildingBlock: VOLQOD_clean_sbu_1, # of connection points: 6
#     Node 2, Type 0, BuildingBlock: VOLQOD_clean_sbu_1, # of connection points: 6
#     Node 3, Type 0, BuildingBlock: VOLQOD_clean_sbu_1, # of connection points: 6
#     Node 4, Type 0, BuildingBlock: VOLQOD_clean_sbu_1, # of connection points: 6
#     Node 5, Type 0, BuildingBlock: VOLQOD_clean_sbu_1, # of connection points: 6
#     Node 6, Type 0, BuildingBlock: VOLQOD_clean_sbu_1, # of connection points: 6
#     Node 7, Type 0, BuildingBlock: VOLQOD_clean_sbu_1, # of connection points: 6
#     Node 8, Type 0, BuildingBlock: VOLQOD_clean_sbu_1, # of connection points: 6
#     Node 9, Type 0, BuildingBlock: VOLQOD_clean_sbu_1, # of connection points: 6
#     Node 10, Type 0, BuildingBlock: VOLQOD_clean_sbu_1, # of connection points: 6
#     Node 11, Type 0, BuildingBlock: VOLQOD_clean_sbu_1, # of connection points: 6
#     Edge 12, Type (0, 0), BuildingBlock: AJUNOK_clean_linker_0, # of connection points: 2
#     Edge 13, Type (0, 0), BuildingBlock: AJUNOK_clean_linker_0, # of connection points: 2
#     Edge 14, Type (0, 0), BuildingBlock: AJUNOK_clean_linker_0, # of connection points: 2
#     Edge 15, Type (0, 0), BuildingBlock: AJUNOK_clean_linker_0, # of connection points: 2
#     Edge 16, Type (0, 0), BuildingBlock: AJUNOK_clean_linker_0, # of connection points: 2
#     Edge 17, Type (0, 0), BuildingBlock: AJUNOK_clean_linker_0, # of connection points: 2
#     Edge 18, Type (0, 0), BuildingBlock: AJUNOK_clean_linker_0, # of connection points: 2
#     Edge 19, Type (0, 0), BuildingBlock: AJUNOK_clean_linker_0, # of connection points: 2
#     Edge 20, Type (0, 0), BuildingBlock: AJUNOK_clean_linker_0, # of connection points: 2
#     Edge 21, Type (0, 0), BuildingBlock: AJUNOK_clean_linker_0, # of connection points: 2
#     Edge 22, Type (0, 0), BuildingBlock: AJUNOK_clean_linker_0, # of connection points: 2
#     Edge 23, Type (0, 0), BuildingBlock: AJUNOK_clean_linker_0, # of connection points: 2
#     Edge 24, Type (0, 0), BuildingBlock: AJUNOK_clean_linker_0, # of connection points: 2
#     Edge 25, Type (0, 0), BuildingBlock: AJUNOK_clean_linker_0, # of connection points: 2
#     Edge 26, Type (0, 0), BuildingBlock: AJUNOK_clean_linker_0, # of connection points: 2
#     Edge 27, Type (0, 0), BuildingBlock: AJUNOK_clean_linker_0, # of connection points: 2
#     Edge 28, Type (0, 0), BuildingBlock: AJUNOK_clean_linker_0, # of connection points: 2
#     Edge 29, Type (0, 0), BuildingBlock: AJUNOK_clean_linker_0, # of connection points: 2
#     Edge 30, Type (0, 0), BuildingBlock: AJUNOK_clean_linker_0, # of connection points: 2
#     Edge 31, Type (0, 0), BuildingBlock: AJUNOK_clean_linker_0, # of connection points: 2
#     Edge 32, Type (0, 0), BuildingBlock: AJUNOK_clean_linker_0, # of connection points: 2
#     Edge 33, Type (0, 0), BuildingBlock: AJUNOK_clean_linker_0, # of connection points: 2
#     Edge 34, Type (0, 0), BuildingBlock: AJUNOK_clean_linker_0, # of connection points: 2
#     Edge 35, Type (0, 0), BuildingBlock: AJUNOK_clean_linker_0, # of connection points: 2
#     Edge 36, Type (0, 0), BuildingBlock: AJUNOK_clean_linker_0, # of connection points: 2
#     Edge 37, Type (0, 0), BuildingBlock: AJUNOK_clean_linker_0, # of connection points: 2
#     Edge 38, Type (0, 0), BuildingBlock: AJUNOK_clean_linker_0, # of connection points: 2
#     Edge 39, Type (0, 0), BuildingBlock: AJUNOK_clean_linker_0, # of connection points: 2
#     Edge 40, Type (0, 0), BuildingBlock: AJUNOK_clean_linker_0, # of connection points: 2
#     Edge 41, Type (0, 0), BuildingBlock: AJUNOK_clean_linker_0, # of connection points: 2
#     Edge 42, Type (0, 0), BuildingBlock: AJUNOK_clean_linker_0, # of connection points: 2
#     Edge 43, Type (0, 0), BuildingBlock: AJUNOK_clean_linker_0, # of connection points: 2
#     Edge 44, Type (0, 0), BuildingBlock: AJUNOK_clean_linker_0, # of connection points: 2
#     Edge 45, Type (0, 0), BuildingBlock: AJUNOK_clean_linker_0, # of connection points: 2
#     Edge 46, Type (0, 0), BuildingBlock: AJUNOK_clean_linker_0, # of connection points: 2
#     Edge 47, Type (0, 0), BuildingBlock: AJUNOK_clean_linker_0, # of connection points: 2
# Relax obj value: 0.361
# Max RMSD: 0.263
# Mean RMSD: 0.263
data_MOF--net-wkh--node1-VOLQOD_clean_sbu_1--edge1-AJUNOK_clean_linker_0
_symmetry_space_group_name_H-M    P1
_symmetry_Int_Tables_number       1
_symmetry_cell_setting            triclinic
loop_
_symmetry_equiv_pos_as_xyz
'x, y, z'
_cell_length_a     20.974658
_cell_length_b     20.989871
_cell_length_c     67.710842
_cell_angle_alpha  90.040137
_cell_angle_beta   89.969496
_cell_angle_gamma 119.9892
loop_
_atom_site_label
_atom_site_type_symbol
_atom_site_fract_x
_atom_site_fract_y
_atom_site_fract_z
_atom_type_partial_charge
O0 O 0.10577 0.31396 0.04626 0.0
Zn1 Zn 0.12451 0.29552 0.01862 0.0
O2 O 0.22735 0.33634 0.0141 0.0
Zn3 Zn 0.25135 0.26168 0.00778 0.0
Zn4 Zn 0.27786 0.38018 0.03849 0.0
Zn5 Zn 0.25943 0.40514 0.99212 0.0
O6 O 0.30612 0.28105 0.98243 0.0
O7 O 0.27881 0.35891 0.96779 0.0
O8 O 0.06695 0.18846 0.01265 0.0
O9 O 0.15809 0.16799 0.00464 0.0
O10 O 0.30355 0.24126 0.02931 0.0
O11 O 0.29773 0.30909 0.05341 0.0
O12 O 0.37837 0.46174 0.03064 0.0
O13 O 0.08624 0.34495 0.00195 0.0
O14 O 0.36433 0.4849 -0.00076 0.0
O15 O 0.17918 0.43458 0.98547 0.0
C16 C 0.14456 0.36082 0.05938 0.0
C17 C 0.30587 0.31617 0.96717 0.0
C18 C 0.31149 0.25981 0.04738 0.0
C19 C 0.09015 0.14593 0.00709 0.0
C20 C 0.40529 0.4948 0.01431 0.0
C21 C 0.11076 0.39959 0.99038 0.0
O22 O 0.21449 0.40059 0.05758 0.0
O23 O 0.79456 0.10546 0.21354 0.0
Zn24 Zn 0.82892 0.12316 0.18561 0.0
O25 O 0.89043 0.22564 0.18071 0.0
Zn26 Zn 0.98948 0.25016 0.1745 0.0
Zn27 Zn 0.89599 0.27636 0.20486 0.0
Zn28 Zn 0.85325 0.25694 0.15876 0.0
O29 O 0.02454 0.30434 0.14895 0.0
O30 O 0.91841 0.27506 0.1345 0.0
O31 O 0.87825 0.06576 0.17932 0.0
O32 O 0.98987 0.15688 0.17134 0.0
O33 O 0.06153 0.30165 0.19637 0.0
O34 O 0.98591 0.29546 0.21996 0.0
O35 O 0.91502 0.37662 0.19701 0.0
O36 O 0.74023 0.08446 0.16933 0.0
O37 O 0.87834 0.36204 0.16558 0.0
O38 O 0.74367 0.17643 0.15231 0.0
C39 C 0.7858 0.14457 0.22644 0.0
C40 C 0.98819 0.30223 0.13367 0.0
C41 C 0.04924 0.30872 0.21439 0.0
C42 C 0.94395 0.08897 0.17373 0.0
C43 C 0.90909 0.40326 0.18063 0.0
C44 C 0.7101 0.10843 0.15757 0.0
O45 O 0.81249 0.21371 0.2239 0.0
O46 O 0.68458 0.78643 0.37985 0.0
Zn47 Zn 0.70572 0.82481 0.35238 0.0
O48 O 0.6683 0.89009 0.34802 0.0
Zn49 Zn 0.74549 0.98814 0.34207 0.0
Zn50 Zn 0.62445 0.89772 0.37235 0.0
Zn51 Zn 0.59993 0.85594 0.32595 0.0
O52 O 0.73015 0.02467 0.3164 0.0
O53 O 0.64723 0.92163 0.3018 0.0
O54 O 0.81361 0.87264 0.34743 0.0
O55 O 0.83827 0.98618 0.34014 0.0
O56 O 0.76515 0.06135 0.36341 0.0
O57 O 0.69627 0.98792 0.38739 0.0
O58 O 0.54422 0.9187 0.36453 0.0
O59 O 0.6553 0.73788 0.33521 0.0
O60 O 0.52119 0.88224 0.33308 0.0
O61 O 0.56818 0.74665 0.31886 0.0
C62 C 0.63875 0.78047 0.39305 0.0
C63 C 0.69326 0.99067 0.3012 0.0
C64 C 0.74606 0.05077 0.38145 0.0
C65 C 0.85834 0.93886 0.34274 0.0
C66 C 0.51146 0.9132 0.3482 0.0
C67 C 0.60102 0.71082 0.32341 0.0
O68 O 0.60153 0.81336 0.39137 0.0
O69 O 0.89827 0.68964 0.54619 0.0
Zn70 Zn 0.87782 0.7111 0.51885 0.0
O71 O 0.77466 0.66659 0.51459 0.0
Zn72 Zn 0.74379 0.73664 0.50876 0.0
Zn73 Zn 0.72722 0.6237 0.53908 0.0
Zn74 Zn 0.74268 0.59678 0.4931 0.0
O75 O 0.69304 0.71817 0.48277 0.0
O76 O 0.72306 0.64145 0.46862 0.0
O77 O 0.92967 0.81948 0.514 0.0
O78 O 0.83395 0.83406 0.50705 0.0
O79 O 0.68445 0.74888 0.53012 0.0
O80 O 0.71578 0.69931 0.55435 0.0
O81 O 0.62483 0.54488 0.53159 0.0
O82 O 0.91877 0.66584 0.50123 0.0
O83 O 0.6379 0.51701 0.50055 0.0
O84 O 0.82471 0.56996 0.4867 0.0
C85 C 0.86034 0.63994 0.55882 0.0
C86 C 0.69564 0.68376 0.4676 0.0
C87 C 0.69037 0.73963 0.54841 0.0
C88 C 0.90261 0.85988 0.50951 0.0
C89 C 0.59725 0.51007 0.5155 0.0
C90 C 0.89398 0.60876 0.49049 0.0
O91 O 0.79051 0.59946 0.55697 0.0
O92 O 0.19355 0.89453 0.71106 0.0
Zn93 Zn 0.16533 0.871 0.68246 0.0
O94 O 0.11096 0.76725 0.67881 0.0
Zn95 Zn 0.01097 0.7327 0.67164 0.0
Zn96 Zn 0.1073 0.72199 0.70346 0.0
Zn97 Zn 0.15042 0.73622 0.65765 0.0
O98 O 0.9781 0.66497 0.64833 0.0
O99 O 0.08611 0.71754 0.63315 0.0
O100 O 0.11076 0.91937 0.67145 0.0
O101 O 0.00805 0.81919 0.66224 0.0
O102 O 0.9405 0.69402 0.6945 0.0
O103 O 0.01687 0.70316 0.71822 0.0
O104 O 0.09156 0.62148 0.69697 0.0
O105 O 0.25901 0.91051 0.66781 0.0
O106 O 0.12628 0.63223 0.66538 0.0
O107 O 0.25978 0.81812 0.65195 0.0
C108 C 0.20823 0.85976 0.72408 0.0
C109 C 0.01583 0.67874 0.63255 0.0
C110 C 0.95369 0.69035 0.71267 0.0
C111 C 0.04843 0.88862 0.66284 0.0
C112 C 0.09714 0.59301 0.68084 0.0
C113 C 0.29177 0.88632 0.657 0.0
O114 O 0.18992 0.7922 0.72161 0.0
O115 O 0.31549 0.21307 0.87933 0.0
Zn116 Zn 0.29522 0.17676 0.85165 0.0
O117 O 0.33342 0.11288 0.84649 0.0
Zn118 Zn 0.25654 0.01494 0.84039 0.0
Zn119 Zn 0.37873 0.10539 0.87053 0.0
Zn120 Zn 0.40037 0.14827 0.82407 0.0
O121 O 0.27076 0.9798 0.81429 0.0
O122 O 0.35084 0.08425 0.79971 0.0
O123 O 0.18794 0.12967 0.84651 0.0
O124 O 0.16346 0.01654 0.83884 0.0
O125 O 0.23822 0.94136 0.86148 0.0
O126 O 0.30793 0.01431 0.88546 0.0
O127 O 0.45942 0.08582 0.86213 0.0
O128 O 0.34457 0.26391 0.83484 0.0
O129 O 0.47891 0.12052 0.83051 0.0
O130 O 0.43142 0.25815 0.81758 0.0
C131 C 0.362 0.21928 0.89234 0.0
C132 C 0.30545 0.01509 0.79896 0.0
C133 C 0.25807 0.9515 0.87946 0.0
C134 C 0.14334 0.06376 0.84158 0.0
C135 C 0.49047 0.09049 0.84554 0.0
C136 C 0.39784 0.29266 0.82278 0.0
O137 O 0.40123 0.18879 0.88997 0.0
O138 O 0.69885 0.89891 0.77002 0.0
Zn139 Zn 0.7072 0.87842 0.7983 0.0
O140 O 0.66581 0.77534 0.80254 0.0
Zn141 Zn 0.73844 0.75129 0.81063 0.0
Zn142 Zn 0.62716 0.72573 0.77785 0.0
Zn143 Zn 0.59536 0.7423 0.82388 0.0
O144 O 0.70824 0.68417 0.83393 0.0
O145 O 0.64106 0.72471 0.84863 0.0
O146 O 0.81027 0.93558 0.80849 0.0
O147 O 0.82295 0.8433 0.81995 0.0
O148 O 0.77477 0.71425 0.78854 0.0
O149 O 0.70142 0.70704 0.76416 0.0
O150 O 0.54348 0.625 0.78479 0.0
O151 O 0.64964 0.91428 0.8128 0.0
O152 O 0.51681 0.63866 0.81594 0.0
O153 O 0.56337 0.82027 0.8299 0.0
C154 C 0.65224 0.8607 0.75674 0.0
C155 C 0.67857 0.69193 0.84945 0.0
C156 C 0.75572 0.70181 0.7705 0.0
C157 C 0.84622 0.91165 0.81801 0.0
C158 C 0.50733 0.59836 0.80075 0.0
C159 C 0.59466 0.88781 0.82437 0.0
O160 O 0.61045 0.79102 0.7586 0.0
O161 O 0.7994 0.6951 0.93682 0.0
Zn162 Zn 0.83165 0.70668 0.96499 0.0
O163 O 0.89206 0.66355 0.96912 0.0
Zn164 Zn 0.99002 0.73458 0.97687 0.0
Zn165 Zn 0.90065 0.62227 0.9446 0.0
Zn166 Zn 0.85498 0.59466 0.99075 0.0
O167 O 0.02624 0.70539 0.00056 0.0
O168 O 0.91832 0.6414 0.01535 0.0
O169 O 0.88146 0.81145 0.97434 0.0
O170 O 0.98599 0.82173 0.98536 0.0
O171 O 0.06269 0.76711 0.95469 0.0
O172 O 0.9932 0.6948 0.93055 0.0
O173 O 0.91821 0.53885 0.95198 0.0
O174 O 0.73956 0.65237 0.98044 0.0
O175 O 0.88005 0.51572 0.98335 0.0
O176 O 0.7458 0.56419 0.99696 0.0
C177 C 0.78991 0.64774 0.92364 0.0
C178 C 0.98862 0.6776 0.01615 0.0
C179 C 0.05415 0.74761 0.93666 0.0
C180 C 0.94258 0.84702 0.98337 0.0
C181 C 0.91019 0.50474 0.96825 0.0
C182 C 0.71069 0.59727 0.99197 0.0
O183 O 0.81779 0.60584 0.92548 0.0
O184 O 0.10455 0.79844 0.10366 0.0
Zn185 Zn 0.12465 0.83006 0.13189 0.0
O186 O 0.22809 0.89015 0.13627 0.0
Zn187 Zn 0.25523 0.98794 0.14421 0.0
Zn188 Zn 0.27833 0.89913 0.11179 0.0
Zn189 Zn 0.25927 0.85248 0.15789 0.0
O190 O 0.31929 0.02317 0.16819 0.0
O191 O 0.27471 0.91475 0.18267 0.0
O192 O 0.06963 0.87984 0.1412 0.0
O193 O 0.16382 0.98407 0.15238 0.0
O194 O 0.29671 0.0613 0.12225 0.0
O195 O 0.29919 0.99222 0.09794 0.0
O196 O 0.37874 0.91565 0.11922 0.0
O197 O 0.08639 0.73765 0.14715 0.0
O198 O 0.36347 0.87772 0.1506 0.0
O199 O 0.18047 0.74332 0.16377 0.0
C200 C 0.14277 0.78921 0.09053 0.0
C201 C 0.30856 0.98495 0.18371 0.0
C202 C 0.30787 0.05319 0.10421 0.0
C203 C 0.09513 0.94087 0.15027 0.0
C204 C 0.40467 0.90758 0.1355 0.0
C205 C 0.1124 0.70847 0.15865 0.0
O206 O 0.21248 0.81699 0.09248 0.0
O207 O 0.30297 0.10059 0.27173 0.0
Zn208 Zn 0.29439 0.12279 0.30005 0.0
O209 O 0.33654 0.22607 0.30404 0.0
Zn210 Zn 0.26498 0.25161 0.31217 0.0
Zn211 Zn 0.37543 0.27446 0.27927 0.0
Zn212 Zn 0.40655 0.26012 0.3255 0.0
O213 O 0.29618 0.31955 0.33533 0.0
O214 O 0.3591 0.27497 0.35035 0.0
O215 O 0.19119 0.0669 0.31045 0.0
O216 O 0.17997 0.16039 0.32171 0.0
O217 O 0.22961 0.28928 0.29011 0.0
O218 O 0.30167 0.29394 0.26565 0.0
O219 O 0.45901 0.37545 0.28604 0.0
O220 O 0.35182 0.08792 0.31503 0.0
O221 O 0.48316 0.36513 0.31767 0.0
O222 O 0.43966 0.18316 0.33145 0.0
C223 C 0.34936 0.13822 0.25833 0.0
C224 C 0.32339 0.30961 0.351 0.0
C225 C 0.2484 0.3009 0.27205 0.0
C226 C 0.15626 0.09188 0.32007 0.0
C227 C 0.49276 0.40411 0.30219 0.0
C228 C 0.40747 0.11506 0.32638 0.0
O229 O 0.39118 0.20799 0.26006 0.0
O230 O 0.19748 0.304 0.43856 0.0
Zn231 Zn 0.16793 0.29734 0.46714 0.0
O232 O 0.11067 0.34423 0.47074 0.0
Zn233 Zn 0.01195 0.27774 0.47867 0.0
Zn234 Zn 0.1026 0.38342 0.44598 0.0
Zn235 Zn 0.14911 0.41477 0.49191 0.0
O236 O 0.97781 0.31226 0.50169 0.0
O237 O 0.08578 0.37059 0.51667 0.0
O238 O 0.11458 0.19374 0.47795 0.0
O239 O 0.0123 0.19028 0.48819 0.0
O240 O 0.93933 0.24346 0.45658 0.0
O241 O 0.01031 0.30995 0.43192 0.0
O242 O 0.08589 0.46786 0.45275 0.0
O243 O 0.26166 0.35246 0.48214 0.0
O244 O 0.12557 0.4943 0.48394 0.0
O245 O 0.25778 0.44335 0.49797 0.0
C246 C 0.20888 0.35176 0.42527 0.0
C247 C 0.0155 0.33806 0.51737 0.0
C248 C 0.94861 0.25922 0.43832 0.0
C249 C 0.0533 0.16197 0.48711 0.0
C250 C 0.09488 0.50383 0.46874 0.0
C251 C 0.29177 0.40882 0.49326 0.0
O252 O 0.18536 0.39722 0.42737 0.0
O253 O 0.89775 0.21074 0.6036 0.0
Zn254 Zn 0.87837 0.16928 0.63095 0.0
O255 O 0.77484 0.11071 0.63509 0.0
Zn256 Zn 0.74231 0.00935 0.64069 0.0
Zn257 Zn 0.72594 0.10653 0.61085 0.0
Zn258 Zn 0.74428 0.14762 0.65692 0.0
O259 O 0.69307 0.9765 0.66686 0.0
O260 O 0.72758 0.08375 0.68124 0.0
O261 O 0.92896 0.11083 0.63556 0.0
O262 O 0.83162 0.00123 0.64208 0.0
O263 O 0.6824 0.93837 0.61932 0.0
O264 O 0.71391 0.01983 0.59526 0.0
O265 O 0.62336 0.0831 0.61887 0.0
O266 O 0.92062 0.2566 0.64857 0.0
O267 O 0.63983 0.1234 0.65004 0.0
O268 O 0.82529 0.2556 0.66335 0.0
C269 C 0.8598 0.2231 0.5911 0.0
C270 C 0.69925 0.01398 0.68223 0.0
C271 C 0.68836 0.95395 0.60106 0.0
C272 C 0.90047 0.04287 0.63971 0.0
C273 C 0.59772 0.09109 0.63525 0.0
C274 C 0.89458 0.28722 0.6596 0.0
O275 O 0.79 0.19437 0.59305 0.0
C276 C 0.59125 0.5967 0.98884 0.0
C277 C 0.63438 0.57293 -0.00094 0.0
C278 C 0.51903 0.57521 0.99463 0.0
C279 C 0.48645 0.52969 0.01111 0.0
H280 H 0.61265 0.63095 0.97582 0.0
H281 H 0.48771 0.59274 0.98571 0.0
S282 S 0.57671 0.45523 0.04376 0.0
N283 N 0.63989 0.50356 0.02702 0.0
N284 N 0.50454 0.46339 0.03812 0.0
C285 C 0.52986 0.5076 0.02197 0.0
C286 C 0.6034 0.52886 0.01586 0.0
C287 C 0.99473 0.58854 0.15486 0.0
C288 C 0.06033 0.63213 0.16556 0.0
C289 C 0.94378 0.51637 0.16055 0.0
C290 C 0.95521 0.48434 0.17741 0.0
H291 H 0.98317 0.60958 0.14155 0.0
H292 H 0.89602 0.48466 0.15128 0.0
S293 S 0.11588 0.57631 0.21141 0.0
N294 N 0.13221 0.63891 0.19438 0.0
N295 N 0.03658 0.50366 0.20532 0.0
C296 C 0.01932 0.5283 0.18874 0.0
C297 C 0.07185 0.60176 0.18273 0.0
C298 C 0.40953 0.99726 0.32292 0.0
C299 C 0.43302 0.0639 0.33325 0.0
C300 C 0.43118 0.94667 0.32861 0.0
C301 C 0.47671 0.95954 0.34509 0.0
H302 H 0.37517 0.98438 0.30992 0.0
H303 H 0.41368 0.89795 0.31964 0.0
S304 S 0.55094 0.12371 0.37793 0.0
N305 N 0.50239 0.13858 0.36127 0.0
N306 N 0.54306 0.04363 0.37216 0.0
C307 C 0.49878 0.02486 0.35602 0.0
C308 C 0.47726 0.077 0.35003 0.0
C309 C 0.41029 0.40713 0.49046 0.0
C310 C 0.36812 0.43294 0.50031 0.0
C311 C 0.48256 0.42857 0.49621 0.0
C312 C 0.51612 0.47605 0.51231 0.0
H313 H 0.38807 0.37124 0.47775 0.0
H314 H 0.51311 0.40932 0.48758 0.0
S315 S 0.42869 0.55651 0.54391 0.0
N316 N 0.36469 0.50654 0.52752 0.0
N317 N 0.50002 0.54654 0.53855 0.0
C318 C 0.47369 0.50029 0.5228 0.0
C319 C 0.40015 0.47909 0.51673 0.0
C320 C 0.01571 0.40453 0.65705 0.0
C321 C 0.94758 0.36289 0.66687 0.0
C322 C 0.06615 0.47718 0.66252 0.0
C323 C 0.05172 0.51154 0.67832 0.0
H324 H 0.02948 0.38184 0.64446 0.0
H325 H 0.11581 0.50754 0.65383 0.0
S326 S 0.8839 0.42534 0.70992 0.0
N327 N 0.87024 0.3605 0.69386 0.0
N328 N 0.96505 0.49655 0.70443 0.0
C329 C 0.98527 0.46943 0.68892 0.0
C330 C 0.93323 0.39554 0.68309 0.0
C331 C 0.58587 0.00125 0.81918 0.0
C332 C 0.56868 0.93898 0.83088 0.0
C333 C 0.56452 0.05233 0.82465 0.0
C334 C 0.52558 0.0444 0.84224 0.0
H335 H 0.615 0.01011 0.80532 0.0
H336 H 0.57699 0.09742 0.81467 0.0
S337 S 0.4708 0.89346 0.87889 0.0
N338 N 0.51318 0.87407 0.86135 0.0
N339 N 0.47319 0.96996 0.87188 0.0
C340 C 0.51013 0.98358 0.85448 0.0
C341 C 0.53126 0.93088 0.84872 0.0
C342 C 0.49611 0.47516 0.79457 0.0
C343 C 0.4685 0.51726 0.80358 0.0
C344 C 0.47273 0.40243 0.80054 0.0
C345 C 0.42021 0.36856 0.81562 0.0
H346 H 0.53931 0.4999 0.78359 0.0
H347 H 0.49723 0.3733 0.79359 0.0
S348 S 0.32555 0.4534 0.8425 0.0
N349 N 0.38246 0.51823 0.82726 0.0
N350 N 0.33734 0.38249 0.83843 0.0
C351 C 0.38946 0.40927 0.82399 0.0
C352 C 0.4138 0.48317 0.81799 0.0
C353 C 0.02111 0.49154 0.96149 0.0
C354 C 0.95346 0.46687 0.97145 0.0
C355 C 0.07184 0.46981 0.96748 0.0
C356 C 0.05671 0.4219 0.98355 0.0
H357 H 0.03693 0.53115 0.94961 0.0
H358 H 0.12363 0.49159 0.95965 0.0
S359 S 0.8847 0.33765 0.01374 0.0
N360 N 0.87268 0.38902 0.99744 0.0
N361 N 0.96626 0.34783 0.00878 0.0
C362 C 0.98763 0.39457 0.9931 0.0
C363 C 0.93656 0.41699 0.98703 0.0
C364 C 0.52869 0.01805 0.12864 0.0
C365 C 0.48576 0.95074 0.13871 0.0
C366 C 0.60109 0.0689 0.13462 0.0
C367 C 0.63382 0.05421 0.15079 0.0
H368 H 0.50493 0.03357 0.11668 0.0
H369 H 0.63107 0.12043 0.12671 0.0
S370 S 0.54627 0.88301 0.18122 0.0
N371 N 0.48286 0.87059 0.16486 0.0
N372 N 0.61759 0.96443 0.17618 0.0
C373 C 0.59216 0.98541 0.16043 0.0
C374 C 0.51872 0.9342 0.15437 0.0
C375 C 0.57974 0.51987 0.32 0.0
C376 C 0.52901 0.48548 0.30464 0.0
C377 C 0.60312 0.59266 0.32547 0.0
C378 C 0.57615 0.63468 0.31607 0.0
H379 H 0.59984 0.48947 0.32835 0.0
H380 H 0.64124 0.61519 0.33773 0.0
S381 S 0.44418 0.57155 0.27433 0.0
N382 N 0.45417 0.50012 0.27946 0.0
N383 N 0.49795 0.63686 0.28998 0.0
C384 C 0.52698 0.60185 0.30027 0.0
C385 C 0.50371 0.52757 0.29448 0.0
C386 C 0.98298 0.51516 0.46208 0.0
C387 C 0.05163 0.54188 0.47165 0.0
C388 C 0.93229 0.53704 0.468 0.0
C389 C 0.94852 0.58728 0.48357 0.0
H390 H 0.96631 0.47375 0.45064 0.0
H391 H 0.87962 0.51344 0.46056 0.0
S392 S 0.12333 0.67752 0.51249 0.0
N393 N 0.13446 0.62405 0.49669 0.0
N394 N 0.04101 0.66588 0.50781 0.0
C395 C 0.01862 0.61681 0.49264 0.0
C396 C 0.06961 0.59407 0.48668 0.0
C397 C 0.47384 0.9799 0.62833 0.0
C398 C 0.51674 0.04612 0.63889 0.0
C399 C 0.40157 0.92809 0.63421 0.0
C400 C 0.36879 0.9406 0.65077 0.0
H401 H 0.49735 0.96615 0.61593 0.0
H402 H 0.37147 0.87775 0.62578 0.0
S403 S 0.45628 0.10698 0.68297 0.0
N404 N 0.51957 0.12215 0.66626 0.0
N405 N 0.38507 0.02615 0.67735 0.0
C406 C 0.4105 0.0078 0.66108 0.0
C407 C 0.48387 0.06009 0.65513 0.0
C408 C 0.31295 0.32094 0.9302 0.0
C409 C 0.3324 0.30194 0.94819 0.0
C410 C 0.32759 0.2982 0.91213 0.0
C411 C 0.36259 0.2557 0.91124 0.0
H412 H 0.28294 0.35055 0.93003 0.0
H413 H 0.30828 0.31147 0.89877 0.0
S414 S 0.4357 0.20162 0.95397 0.0
N415 N 0.39713 0.246 0.96388 0.0
N416 N 0.42389 0.2029 0.92991 0.0
C417 C 0.38755 0.24127 0.92902 0.0
C418 C 0.3725 0.2643 0.94747 0.0
C419 C 0.10534 0.35655 0.11402 0.0
C420 C 0.02841 0.32793 0.11455 0.0
C421 C 0.144 0.37283 0.09611 0.0
C422 C 0.10727 0.36085 0.07798 0.0
H423 H 0.13594 0.36388 0.12752 0.0
H424 H 0.20217 0.3906 0.09647 0.0
S425 S 0.90908 0.29901 0.07105 0.0
N426 N 0.91895 0.29733 0.0952 0.0
N427 N 0.99158 0.32765 0.0616 0.0
C428 C 0.03154 0.3375 0.07828 0.0
C429 C 0.99214 0.32114 0.09653 0.0
C430 C 0.70702 0.03155 0.24624 0.0
C431 C 0.75132 0.10879 0.24545 0.0
C432 C 0.68547 0.99398 0.26429 0.0
C433 C 0.70787 0.03204 0.28234 0.0
H434 H 0.69113 0.99937 0.23277 0.0
H435 H 0.65385 0.93444 0.26403 0.0
S436 S 0.81672 0.2353 0.28844 0.0
N437 N 0.81121 0.2225 0.26431 0.0
N438 N 0.77067 0.15238 0.29826 0.0
C439 C 0.74826 0.10972 0.28176 0.0
C440 C 0.76984 0.14796 0.26334 0.0
C441 C 0.62593 0.76844 0.42975 0.0
C442 C 0.63783 0.74309 0.4117 0.0
C443 C 0.64187 0.74634 0.44773 0.0
C444 C 0.67013 0.69779 0.44842 0.0
H445 H 0.60859 0.80916 0.43 0.0
H446 H 0.63465 0.77012 0.46115 0.0
S447 S 0.69846 0.60565 0.40522 0.0
N448 N 0.67028 0.65955 0.39558 0.0
N449 N 0.70014 0.61793 0.42934 0.0
C450 C 0.67673 0.66763 0.43049 0.0
C451 C 0.66061 0.6903 0.41217 0.0
C452 C 0.86075 0.616 0.59503 0.0
C453 C 0.89825 0.63603 0.5769 0.0
C454 C 0.89888 0.62639 0.61286 0.0
C455 C 0.97609 0.65705 0.61328 0.0
H456 H 0.80217 0.59623 0.59561 0.0
H457 H 0.86764 0.61338 0.62646 0.0
S458 S 0.09787 0.70605 0.56938 0.0
N459 N 0.01535 0.67881 0.56015 0.0
N460 N 0.08692 0.69818 0.59357 0.0
C461 C 0.01332 0.67194 0.59509 0.0
C462 C 0.97446 0.66151 0.57694 0.0
C463 C 0.30236 0.01312 0.76188 0.0
C464 C 0.28878 0.97486 0.77984 0.0
C465 C 0.27886 0.9754 0.74385 0.0
C466 C 0.24167 0.89791 0.74299 0.0
H467 H 0.32865 0.07257 0.76178 0.0
H468 H 0.28834 0.00736 0.7305 0.0
S469 S 0.1992 0.7719 0.78562 0.0
N470 N 0.24069 0.85495 0.79548 0.0
N471 N 0.19685 0.78448 0.76164 0.0
C472 C 0.2313 0.85911 0.76073 0.0
C473 C 0.25465 0.89744 0.77912 0.0
C474 C 0.74222 0.63884 0.86927 0.0
C475 C 0.69592 0.66981 0.86876 0.0
C476 C 0.76888 0.62743 0.88716 0.0
C477 C 0.75063 0.64678 0.90528 0.0
H478 H 0.7607 0.6259 0.8557 0.0
H479 H 0.80715 0.60699 0.88666 0.0
S480 S 0.62201 0.71824 0.91253 0.0
N481 N 0.6262 0.71124 0.88834 0.0
N482 N 0.67621 0.68988 0.92187 0.0
C483 C 0.70042 0.67295 0.90512 0.0
C484 C 0.67305 0.68436 0.88691 0.0
C485 C 0.10506 0.74235 0.03609 0.0
C486 C 0.0279 0.69543 0.03549 0.0
C487 C 0.14278 0.76904 0.05402 0.0
C488 C 0.10492 0.75019 0.0721 0.0
H489 H 0.1366 0.76126 0.02255 0.0
H490 H 0.2014 0.80774 0.0536 0.0
S491 S 0.90516 0.61983 0.07913 0.0
N492 N 0.91667 0.62449 0.05495 0.0
N493 N 0.98742 0.67464 0.08856 0.0
C494 C 0.0287 0.69945 0.07185 0.0
C495 C 0.99028 0.67205 0.0536 0.0
C496 C 0.36099 0.10074 0.20393 0.0
C497 C 0.32877 0.02343 0.20318 0.0
C498 C 0.37138 0.13811 0.2219 0.0
C499 C 0.34968 0.09979 0.23989 0.0
H500 H 0.37598 0.13282 0.19046 0.0
H501 H 0.39326 0.19704 0.22155 0.0
S502 S 0.27334 0.89879 0.24656 0.0
N503 N 0.283 0.9111 0.22244 0.0
N504 N 0.30243 0.98115 0.25612 0.0
C505 C 0.32182 0.02315 0.23952 0.0
C506 C 0.31146 0.98508 0.22122 0.0
C507 C 0.30678 0.29525 0.38773 0.0
C508 C 0.30446 0.33025 0.37027 0.0
C509 C 0.27832 0.30493 0.40552 0.0
C510 C 0.24662 0.3504 0.40671 0.0
H511 H 0.32774 0.25742 0.38751 0.0
H512 H 0.27942 0.2746 0.41832 0.0
S513 S 0.23547 0.46189 0.36572 0.0
N514 N 0.27409 0.41777 0.35568 0.0
N515 N 0.22069 0.43584 0.38906 0.0
C516 C 0.24784 0.3891 0.38961 0.0
C517 C 0.27662 0.37901 0.37144 0.0
C518 C 0.8985 0.2751 0.53708 0.0
C519 C 0.97583 0.32088 0.53664 0.0
C520 C 0.86026 0.2478 0.55491 0.0
C521 C 0.89777 0.26495 0.57303 0.0
H522 H 0.86722 0.25713 0.52348 0.0
H523 H 0.80158 0.20948 0.55434 0.0
S524 S 0.09777 0.39274 0.5805 0.0
N525 N 0.08684 0.38965 0.55631 0.0
N526 N 0.01507 0.33832 0.58975 0.0
C527 C 0.97413 0.31507 0.57297 0.0
C528 C 0.0131 0.34304 0.55482 0.0
C529 C 0.63506 0.86047 0.72019 0.0
C530 C 0.65236 0.89839 0.73824 0.0
C531 C 0.64765 0.89809 0.70222 0.0
C532 C 0.67771 0.97515 0.70158 0.0
H533 H 0.61528 0.80191 0.71985 0.0
H534 H 0.63601 0.86649 0.68872 0.0
S535 S 0.72098 0.09797 0.74505 0.0
N536 N 0.69271 0.01576 0.75459 0.0
N537 N 0.71625 0.08643 0.72087 0.0
C538 C 0.69034 0.01286 0.71962 0.0
C539 C 0.67776 0.97453 0.73792 0.0
C540 C 0.31394 0.17211 0.09593 0.0
C541 C 0.32325 0.11296 0.09 0.0
C542 C 0.31537 0.22256 0.08219 0.0
C543 C 0.3262 0.21597 0.06195 0.0
H544 H 0.30156 0.17757 0.11116 0.0
H545 H 0.30381 0.26454 0.08741 0.0
S546 S 0.36806 0.07964 0.03933 0.0
N547 N 0.3544 0.05706 0.06292 0.0
N548 N 0.3573 0.15199 0.03708 0.0
C549 C 0.34199 0.16092 0.05606 0.0
C550 C 0.3404 0.10939 0.07008 0.0
C551 C 0.17029 0.32107 0.22355 0.0
C552 C 0.10614 0.32167 0.22936 0.0
C553 C 0.21802 0.31836 0.2375 0.0
C554 C 0.20373 0.3162 0.25788 0.0
H555 H 0.18211 0.31886 0.20807 0.0
H556 H 0.26467 0.31452 0.23216 0.0
S557 S 0.05019 0.32996 0.28095 0.0
N558 N 0.03603 0.32974 0.25698 0.0
N559 N 0.12577 0.3247 0.28322 0.0
C560 C 0.14298 0.32277 0.26395 0.0
C561 C 0.09426 0.32555 0.2497 0.0
C562 C 0.85546 0.17209 0.38992 0.0
C563 C 0.78949 0.10978 0.39596 0.0
C564 C 0.90456 0.22239 0.40367 0.0
C565 C 0.88982 0.21267 0.42406 0.0
H566 H 0.87142 0.18046 0.3745 0.0
H567 H 0.95608 0.26733 0.39824 0.0
S568 S 0.71882 0.06548 0.44735 0.0
N569 N 0.70763 0.0462 0.42353 0.0
N570 N 0.79985 0.14085 0.44943 0.0
C571 C 0.82142 0.15373 0.43021 0.0
C572 C 0.77133 0.10232 0.41616 0.0
C573 C 0.62129 0.78734 0.56777 0.0
C574 C 0.68811 0.79203 0.56224 0.0
C575 C 0.6208 0.84023 0.58044 0.0
C576 C 0.68722 0.89995 0.58719 0.0
H577 H 0.56955 0.74248 0.56242 0.0
H578 H 0.56867 0.83478 0.58487 0.0
S579 S 0.87595 0.93752 0.57623 0.0
N580 N 0.8215 0.86016 0.56439 0.0
N581 N 0.82074 0.96152 0.58721 0.0
C582 C 0.754 0.90556 0.58142 0.0
C583 C 0.75441 0.85098 0.56914 0.0
C584 C 0.83391 0.68122 0.72193 0.0
C585 C 0.89788 0.68029 0.72773 0.0
C586 C 0.78648 0.68461 0.73591 0.0
C587 C 0.80092 0.6872 0.75629 0.0
H588 H 0.8218 0.68269 0.70644 0.0
H589 H 0.73974 0.68827 0.73057 0.0
S590 S 0.95514 0.67479 0.77935 0.0
N591 N 0.96868 0.67376 0.75538 0.0
N592 N 0.87964 0.68019 0.78162 0.0
C593 C 0.86197 0.6812 0.76234 0.0
C594 C 0.91034 0.67769 0.74809 0.0
C595 C 0.17272 0.86064 0.92815 0.0
C596 C 0.11331 0.79224 0.9223 0.0
C597 C 0.22253 0.90986 0.91432 0.0
C598 C 0.215 0.89273 0.89405 0.0
H599 H 0.17888 0.87826 0.94342 0.0
H600 H 0.26473 0.96334 0.91951 0.0
S601 S 0.07768 0.71488 0.87152 0.0
N602 N 0.0562 0.70559 0.8952 0.0
N603 N 0.14991 0.79804 0.86919 0.0
C604 C 0.1597 0.82198 0.8882 0.0
C605 C 0.10884 0.7718 0.90232 0.0
C606 C 0.05451 0.01768 0.01303 0.0
C607 C 0.03875 0.06816 0.00402 0.0
C608 C 0.01843 0.94455 0.00714 0.0
C609 C 0.96628 0.91984 0.9918 0.0
H610 H 0.09776 0.03569 0.02401 0.0
H611 H 0.0345 0.90803 0.01399 0.0
S612 S 0.89973 0.02993 0.96529 0.0
N613 N 0.96296 0.08871 0.98069 0.0
N614 N 0.89491 0.94989 0.96918 0.0
C615 C 0.94564 0.96862 0.98377 0.0
C616 C 0.98224 0.04348 0.98998 0.0
C617 C 0.07326 0.01673 0.17398 0.0
C618 C 0.04599 0.96473 0.15859 0.0
C619 C 0.0363 0.05301 0.17978 0.0
C620 C 0.97032 0.03759 0.17065 0.0
H621 H 0.12565 0.03251 0.18093 0.0
H622 H 0.06138 0.09611 0.19081 0.0
S623 S 0.86996 0.89902 0.13179 0.0
N624 N 0.94496 0.89383 0.13581 0.0
N625 N 0.87432 0.96225 0.14718 0.0
C626 C 0.93861 0.98123 0.15657 0.0
C627 C 0.9768 0.94443 0.15044 0.0
C628 C 0.03524 0.97578 0.31957 0.0
C629 C 0.08502 0.04176 0.32907 0.0
C630 C 0.96123 0.93718 0.32535 0.0
C631 C 0.93628 0.964 0.34072 0.0
H632 H 0.05204 0.95722 0.30668 0.0
H633 H 0.92252 0.88999 0.31676 0.0
S634 S 0.04791 0.1245 0.37291 0.0
N635 N 0.10688 0.12469 0.35671 0.0
N636 N 0.96745 0.05264 0.36722 0.0
C637 C 0.98686 0.02529 0.35156 0.0
C638 C 0.06169 0.06416 0.34583 0.0
C639 C 0.04963 0.04116 0.48922 0.0
C640 C 0.02542 0.08888 0.49601 0.0
C641 C 0.01277 0.96692 0.49482 0.0
C642 C 0.95061 0.93899 0.50711 0.0
H643 H 0.09424 0.06001 0.47866 0.0
H644 H 0.02977 0.93037 0.48847 0.0
S645 S 0.87428 0.0438 0.53183 0.0
N646 N 0.94332 0.10516 0.51839 0.0
N647 N 0.87209 0.96518 0.52785 0.0
C648 C 0.92966 0.98717 0.51518 0.0
C649 C 0.96778 0.06248 0.50991 0.0
C650 C 0.04735 0.00681 0.65934 0.0
C651 C 0.01938 0.93282 0.65388 0.0
C652 C 0.01161 0.04502 0.65345 0.0
C653 C 0.94681 0.00972 0.6422 0.0
H654 H 0.09457 0.03409 0.66903 0.0
H655 H 0.0319 0.10052 0.65881 0.0
S656 S 0.85916 0.8217 0.62108 0.0
N657 N 0.92994 0.83014 0.63383 0.0
N658 N 0.86108 0.9007 0.62386 0.0
C659 C 0.92165 0.93792 0.63546 0.0
C660 C 0.95851 0.89972 0.64102 0.0
C661 C 0.01493 0.9746 0.84868 0.0
C662 C 0.06576 0.03927 0.83907 0.0
C663 C 0.9418 0.93701 0.84276 0.0
C664 C 0.91769 0.96243 0.82681 0.0
H665 H 0.03283 0.95048 0.86001 0.0
H666 H 0.90502 0.88516 0.84991 0.0
S667 S 0.02848 0.13546 0.79888 0.0
N668 N 0.08697 0.13277 0.81473 0.0
N669 N 0.94819 0.06103 0.80319 0.0
C670 C 0.96658 0.0309 0.81833 0.0
C671 C 0.04138 0.06968 0.82456 0.0
loop_
_geom_bond_atom_site_label_1
_geom_bond_atom_site_label_2
_geom_bond_distance
_geom_bond_site_symmetry_2
_ccdc_geom_bond_type
O0 Zn1 1.953 . S
O0 C16 1.225 . S
Zn1 O0 1.953 . S
Zn1 O2 1.949 . S
Zn1 O8 1.919 . S
Zn1 O13 1.924 . S
O2 Zn1 1.949 . S
O2 Zn3 1.923 . S
O2 Zn4 1.950 . S
O2 Zn5 1.945 1_554 S
Zn3 O2 1.923 . S
Zn3 O6 1.933 1_554 S
Zn3 O9 1.941 . S
Zn3 O10 1.965 . S
Zn4 O2 1.950 . S
Zn4 O11 1.938 . S
Zn4 O12 1.906 . S
Zn4 O22 1.953 . S
Zn5 O2 1.945 1_556 S
Zn5 O7 1.932 . S
Zn5 O14 1.977 . S
Zn5 O15 1.910 . S
O6 Zn3 1.933 1_556 S
O6 C17 1.226 . S
O7 Zn5 1.932 . S
O7 C17 1.307 . S
O8 Zn1 1.919 . S
O8 C19 1.253 . S
O9 Zn3 1.941 . S
O9 C19 1.283 . S
O10 Zn3 1.965 . S
O10 C18 1.303 . S
O11 Zn4 1.938 . S
O11 C18 1.247 . S
O12 Zn4 1.906 . S
O12 C20 1.304 . S
O13 Zn1 1.924 . S
O13 C21 1.311 1_554 S
O14 Zn5 1.977 . S
O14 C20 1.272 1_556 S
O15 Zn5 1.910 . S
O15 C21 1.231 . S
C16 O0 1.225 . S
C16 O22 1.298 . S
C17 O6 1.226 . S
C17 O7 1.307 . S
C18 O10 1.303 . S
C18 O11 1.247 . S
C19 O8 1.253 . S
C19 O9 1.283 . S
C20 O12 1.304 . S
C20 O14 1.272 1_554 S
C21 O13 1.311 1_556 S
C21 O15 1.231 . S
O22 Zn4 1.953 . S
O22 C16 1.298 . S
O23 Zn24 1.953 . S
O23 C39 1.225 . S
Zn24 O23 1.953 . S
Zn24 O25 1.949 . S
Zn24 O31 1.919 . S
Zn24 O36 1.924 . S
O25 Zn24 1.949 . S
O25 Zn26 1.923 1_655 S
O25 Zn27 1.950 . S
O25 Zn28 1.945 . S
Zn26 O25 1.923 1_455 S
Zn26 O29 1.933 . S
Zn26 O32 1.941 . S
Zn26 O33 1.965 . S
Zn27 O25 1.950 . S
Zn27 O34 1.938 1_655 S
Zn27 O35 1.906 . S
Zn27 O45 1.953 . S
Zn28 O25 1.945 . S
Zn28 O30 1.932 . S
Zn28 O37 1.977 . S
Zn28 O38 1.910 . S
O29 Zn26 1.933 . S
O29 C40 1.226 . S
O30 Zn28 1.932 . S
O30 C40 1.307 1_655 S
O31 Zn24 1.919 . S
O31 C42 1.253 . S
O32 Zn26 1.941 . S
O32 C42 1.283 1_455 S
O33 Zn26 1.965 . S
O33 C41 1.303 . S
O34 Zn27 1.938 1_455 S
O34 C41 1.247 . S
O35 Zn27 1.906 . S
O35 C43 1.304 . S
O36 Zn24 1.924 . S
O36 C44 1.311 . S
O37 Zn28 1.977 . S
O37 C43 1.272 . S
O38 Zn28 1.910 . S
O38 C44 1.231 . S
C39 O23 1.225 . S
C39 O45 1.298 . S
C40 O29 1.226 . S
C40 O30 1.307 1_455 S
C41 O33 1.303 . S
C41 O34 1.247 . S
C42 O31 1.253 . S
C42 O32 1.283 1_655 S
C43 O35 1.304 . S
C43 O37 1.272 . S
C44 O36 1.311 . S
C44 O38 1.231 . S
O45 Zn27 1.953 . S
O45 C39 1.298 . S
O46 Zn47 1.953 . S
O46 C62 1.225 . S
Zn47 O46 1.953 . S
Zn47 O48 1.949 . S
Zn47 O54 1.919 . S
Zn47 O59 1.924 . S
O48 Zn47 1.949 . S
O48 Zn49 1.923 1_565 S
O48 Zn50 1.950 . S
O48 Zn51 1.945 . S
Zn49 O48 1.923 1_545 S
Zn49 O52 1.933 . S
Zn49 O55 1.941 . S
Zn49 O56 1.965 . S
Zn50 O48 1.950 . S
Zn50 O57 1.938 1_565 S
Zn50 O58 1.906 . S
Zn50 O68 1.953 . S
Zn51 O48 1.945 . S
Zn51 O53 1.932 . S
Zn51 O60 1.977 . S
Zn51 O61 1.910 . S
O52 Zn49 1.933 . S
O52 C63 1.226 . S
O53 Zn51 1.932 . S
O53 C63 1.307 1_565 S
O54 Zn47 1.919 . S
O54 C65 1.253 . S
O55 Zn49 1.941 . S
O55 C65 1.283 1_545 S
O56 Zn49 1.965 . S
O56 C64 1.303 . S
O57 Zn50 1.938 1_545 S
O57 C64 1.247 . S
O58 Zn50 1.906 . S
O58 C66 1.304 . S
O59 Zn47 1.924 . S
O59 C67 1.311 . S
O60 Zn51 1.977 . S
O60 C66 1.272 . S
O61 Zn51 1.910 . S
O61 C67 1.231 . S
C62 O46 1.225 . S
C62 O68 1.298 . S
C63 O52 1.226 . S
C63 O53 1.307 1_545 S
C64 O56 1.303 . S
C64 O57 1.247 . S
C65 O54 1.253 . S
C65 O55 1.283 1_565 S
C66 O58 1.304 . S
C66 O60 1.272 . S
C67 O59 1.311 . S
C67 O61 1.231 . S
O68 Zn50 1.953 . S
O68 C62 1.298 . S
O69 Zn70 1.953 . S
O69 C85 1.225 . S
Zn70 O69 1.953 . S
Zn70 O71 1.949 . S
Zn70 O77 1.919 . S
Zn70 O82 1.924 . S
O71 Zn70 1.949 . S
O71 Zn72 1.923 . S
O71 Zn73 1.950 . S
O71 Zn74 1.945 . S
Zn72 O71 1.923 . S
Zn72 O75 1.933 . S
Zn72 O78 1.941 . S
Zn72 O79 1.965 . S
Zn73 O71 1.950 . S
Zn73 O80 1.938 . S
Zn73 O81 1.906 . S
Zn73 O91 1.953 . S
Zn74 O71 1.945 . S
Zn74 O76 1.932 . S
Zn74 O83 1.977 . S
Zn74 O84 1.910 . S
O75 Zn72 1.933 . S
O75 C86 1.226 . S
O76 Zn74 1.932 . S
O76 C86 1.307 . S
O77 Zn70 1.919 . S
O77 C88 1.253 . S
O78 Zn72 1.941 . S
O78 C88 1.283 . S
O79 Zn72 1.965 . S
O79 C87 1.303 . S
O80 Zn73 1.938 . S
O80 C87 1.247 . S
O81 Zn73 1.906 . S
O81 C89 1.304 . S
O82 Zn70 1.924 . S
O82 C90 1.311 . S
O83 Zn74 1.977 . S
O83 C89 1.272 . S
O84 Zn74 1.910 . S
O84 C90 1.231 . S
C85 O69 1.225 . S
C85 O91 1.298 . S
C86 O75 1.226 . S
C86 O76 1.307 . S
C87 O79 1.303 . S
C87 O80 1.247 . S
C88 O77 1.253 . S
C88 O78 1.283 . S
C89 O81 1.304 . S
C89 O83 1.272 . S
C90 O82 1.311 . S
C90 O84 1.231 . S
O91 Zn73 1.953 . S
O91 C85 1.298 . S
O92 Zn93 1.953 . S
O92 C108 1.225 . S
Zn93 O92 1.953 . S
Zn93 O94 1.949 . S
Zn93 O100 1.919 . S
Zn93 O105 1.924 . S
O94 Zn93 1.949 . S
O94 Zn95 1.923 1_455 S
O94 Zn96 1.950 . S
O94 Zn97 1.945 . S
Zn95 O94 1.923 1_655 S
Zn95 O98 1.933 . S
Zn95 O101 1.941 . S
Zn95 O102 1.965 . S
Zn96 O94 1.950 . S
Zn96 O103 1.938 1_455 S
Zn96 O104 1.906 . S
Zn96 O114 1.953 . S
Zn97 O94 1.945 . S
Zn97 O99 1.932 . S
Zn97 O106 1.977 . S
Zn97 O107 1.910 . S
O98 Zn95 1.933 . S
O98 C109 1.226 . S
O99 Zn97 1.932 . S
O99 C109 1.307 1_455 S
O100 Zn93 1.919 . S
O100 C111 1.253 . S
O101 Zn95 1.941 . S
O101 C111 1.283 1_655 S
O102 Zn95 1.965 . S
O102 C110 1.303 . S
O103 Zn96 1.938 1_655 S
O103 C110 1.247 . S
O104 Zn96 1.906 . S
O104 C112 1.304 . S
O105 Zn93 1.924 . S
O105 C113 1.311 . S
O106 Zn97 1.977 . S
O106 C112 1.272 . S
O107 Zn97 1.910 . S
O107 C113 1.231 . S
C108 O92 1.225 . S
C108 O114 1.298 . S
C109 O98 1.226 . S
C109 O99 1.307 1_655 S
C110 O102 1.303 . S
C110 O103 1.247 . S
C111 O100 1.253 . S
C111 O101 1.283 1_455 S
C112 O104 1.304 . S
C112 O106 1.272 . S
C113 O105 1.311 . S
C113 O107 1.231 . S
O114 Zn96 1.953 . S
O114 C108 1.298 . S
O115 Zn116 1.953 . S
O115 C131 1.225 . S
Zn116 O115 1.953 . S
Zn116 O117 1.949 . S
Zn116 O123 1.919 . S
Zn116 O128 1.924 . S
O117 Zn116 1.949 . S
O117 Zn118 1.923 1_545 S
O117 Zn119 1.950 . S
O117 Zn120 1.945 . S
Zn118 O117 1.923 1_565 S
Zn118 O121 1.933 . S
Zn118 O124 1.941 . S
Zn118 O125 1.965 . S
Zn119 O117 1.950 . S
Zn119 O126 1.938 1_545 S
Zn119 O127 1.906 . S
Zn119 O137 1.953 . S
Zn120 O117 1.945 . S
Zn120 O122 1.932 . S
Zn120 O129 1.977 . S
Zn120 O130 1.910 . S
O121 Zn118 1.933 . S
O121 C132 1.226 . S
O122 Zn120 1.932 . S
O122 C132 1.307 1_545 S
O123 Zn116 1.919 . S
O123 C134 1.253 . S
O124 Zn118 1.941 . S
O124 C134 1.283 1_565 S
O125 Zn118 1.965 . S
O125 C133 1.303 . S
O126 Zn119 1.938 1_565 S
O126 C133 1.247 . S
O127 Zn119 1.906 . S
O127 C135 1.304 . S
O128 Zn116 1.924 . S
O128 C136 1.311 . S
O129 Zn120 1.977 . S
O129 C135 1.272 . S
O130 Zn120 1.910 . S
O130 C136 1.231 . S
C131 O115 1.225 . S
C131 O137 1.298 . S
C132 O121 1.226 . S
C132 O122 1.307 1_565 S
C133 O125 1.303 . S
C133 O126 1.247 . S
C134 O123 1.253 . S
C134 O124 1.283 1_545 S
C135 O127 1.304 . S
C135 O129 1.272 . S
C136 O128 1.311 . S
C136 O130 1.231 . S
O137 Zn119 1.953 . S
O137 C131 1.298 . S
O138 Zn139 1.953 . S
O138 C154 1.225 . S
Zn139 O138 1.953 . S
Zn139 O140 1.949 . S
Zn139 O146 1.919 . S
Zn139 O151 1.924 . S
O140 Zn139 1.949 . S
O140 Zn141 1.923 . S
O140 Zn142 1.950 . S
O140 Zn143 1.945 . S
Zn141 O140 1.923 . S
Zn141 O144 1.933 . S
Zn141 O147 1.941 . S
Zn141 O148 1.965 . S
Zn142 O140 1.950 . S
Zn142 O149 1.938 . S
Zn142 O150 1.906 . S
Zn142 O160 1.953 . S
Zn143 O140 1.945 . S
Zn143 O145 1.932 . S
Zn143 O152 1.977 . S
Zn143 O153 1.910 . S
O144 Zn141 1.933 . S
O144 C155 1.226 . S
O145 Zn143 1.932 . S
O145 C155 1.307 . S
O146 Zn139 1.919 . S
O146 C157 1.253 . S
O147 Zn141 1.941 . S
O147 C157 1.283 . S
O148 Zn141 1.965 . S
O148 C156 1.303 . S
O149 Zn142 1.938 . S
O149 C156 1.247 . S
O150 Zn142 1.906 . S
O150 C158 1.304 . S
O151 Zn139 1.924 . S
O151 C159 1.311 . S
O152 Zn143 1.977 . S
O152 C158 1.272 . S
O153 Zn143 1.910 . S
O153 C159 1.231 . S
C154 O138 1.225 . S
C154 O160 1.298 . S
C155 O144 1.226 . S
C155 O145 1.307 . S
C156 O148 1.303 . S
C156 O149 1.247 . S
C157 O146 1.253 . S
C157 O147 1.283 . S
C158 O150 1.304 . S
C158 O152 1.272 . S
C159 O151 1.311 . S
C159 O153 1.231 . S
O160 Zn142 1.953 . S
O160 C154 1.298 . S
O161 Zn162 1.953 . S
O161 C177 1.225 . S
Zn162 O161 1.953 . S
Zn162 O163 1.949 . S
Zn162 O169 1.919 . S
Zn162 O174 1.924 . S
O163 Zn162 1.949 . S
O163 Zn164 1.923 1_655 S
O163 Zn165 1.950 . S
O163 Zn166 1.945 . S
Zn164 O163 1.923 1_455 S
Zn164 O167 1.933 1_556 S
Zn164 O170 1.941 . S
Zn164 O171 1.965 . S
Zn165 O163 1.950 . S
Zn165 O172 1.938 1_655 S
Zn165 O173 1.906 . S
Zn165 O183 1.953 . S
Zn166 O163 1.945 . S
Zn166 O168 1.932 1_556 S
Zn166 O175 1.977 . S
Zn166 O176 1.910 1_556 S
O167 Zn164 1.933 1_554 S
O167 C178 1.226 . S
O168 Zn166 1.932 1_554 S
O168 C178 1.307 1_655 S
O169 Zn162 1.919 . S
O169 C180 1.253 . S
O170 Zn164 1.941 . S
O170 C180 1.283 1_455 S
O171 Zn164 1.965 . S
O171 C179 1.303 . S
O172 Zn165 1.938 1_455 S
O172 C179 1.247 . S
O173 Zn165 1.906 . S
O173 C181 1.304 . S
O174 Zn162 1.924 . S
O174 C182 1.311 . S
O175 Zn166 1.977 . S
O175 C181 1.272 . S
O176 Zn166 1.910 1_554 S
O176 C182 1.231 1_554 S
C177 O161 1.225 . S
C177 O183 1.298 . S
C178 O167 1.226 . S
C178 O168 1.307 1_455 S
C179 O171 1.303 . S
C179 O172 1.247 . S
C180 O169 1.253 . S
C180 O170 1.283 1_655 S
C181 O173 1.304 . S
C181 O175 1.272 . S
C182 O174 1.311 . S
C182 O176 1.231 1_556 S
O183 Zn165 1.953 . S
O183 C177 1.298 . S
O184 Zn185 1.953 . S
O184 C200 1.225 . S
Zn185 O184 1.953 . S
Zn185 O186 1.949 . S
Zn185 O192 1.919 . S
Zn185 O197 1.924 . S
O186 Zn185 1.949 . S
O186 Zn187 1.923 1_565 S
O186 Zn188 1.950 . S
O186 Zn189 1.945 . S
Zn187 O186 1.923 1_545 S
Zn187 O190 1.933 . S
Zn187 O193 1.941 . S
Zn187 O194 1.965 . S
Zn188 O186 1.950 . S
Zn188 O195 1.938 1_565 S
Zn188 O196 1.906 . S
Zn188 O206 1.953 . S
Zn189 O186 1.945 . S
Zn189 O191 1.932 . S
Zn189 O198 1.977 . S
Zn189 O199 1.910 . S
O190 Zn187 1.933 . S
O190 C201 1.226 . S
O191 Zn189 1.932 . S
O191 C201 1.307 1_565 S
O192 Zn185 1.919 . S
O192 C203 1.253 . S
O193 Zn187 1.941 . S
O193 C203 1.283 1_545 S
O194 Zn187 1.965 . S
O194 C202 1.303 . S
O195 Zn188 1.938 1_545 S
O195 C202 1.247 . S
O196 Zn188 1.906 . S
O196 C204 1.304 . S
O197 Zn185 1.924 . S
O197 C205 1.311 . S
O198 Zn189 1.977 . S
O198 C204 1.272 . S
O199 Zn189 1.910 . S
O199 C205 1.231 . S
C200 O184 1.225 . S
C200 O206 1.298 . S
C201 O190 1.226 . S
C201 O191 1.307 1_545 S
C202 O194 1.303 . S
C202 O195 1.247 . S
C203 O192 1.253 . S
C203 O193 1.283 1_565 S
C204 O196 1.304 . S
C204 O198 1.272 . S
C205 O197 1.311 . S
C205 O199 1.231 . S
O206 Zn188 1.953 . S
O206 C200 1.298 . S
O207 Zn208 1.953 . S
O207 C223 1.225 . S
Zn208 O207 1.953 . S
Zn208 O209 1.949 . S
Zn208 O215 1.919 . S
Zn208 O220 1.924 . S
O209 Zn208 1.949 . S
O209 Zn210 1.923 . S
O209 Zn211 1.950 . S
O209 Zn212 1.945 . S
Zn210 O209 1.923 . S
Zn210 O213 1.933 . S
Zn210 O216 1.941 . S
Zn210 O217 1.965 . S
Zn211 O209 1.950 . S
Zn211 O218 1.938 . S
Zn211 O219 1.906 . S
Zn211 O229 1.953 . S
Zn212 O209 1.945 . S
Zn212 O214 1.932 . S
Zn212 O221 1.977 . S
Zn212 O222 1.910 . S
O213 Zn210 1.933 . S
O213 C224 1.226 . S
O214 Zn212 1.932 . S
O214 C224 1.307 . S
O215 Zn208 1.919 . S
O215 C226 1.253 . S
O216 Zn210 1.941 . S
O216 C226 1.283 . S
O217 Zn210 1.965 . S
O217 C225 1.303 . S
O218 Zn211 1.938 . S
O218 C225 1.247 . S
O219 Zn211 1.906 . S
O219 C227 1.304 . S
O220 Zn208 1.924 . S
O220 C228 1.311 . S
O221 Zn212 1.977 . S
O221 C227 1.272 . S
O222 Zn212 1.910 . S
O222 C228 1.231 . S
C223 O207 1.225 . S
C223 O229 1.298 . S
C224 O213 1.226 . S
C224 O214 1.307 . S
C225 O217 1.303 . S
C225 O218 1.247 . S
C226 O215 1.253 . S
C226 O216 1.283 . S
C227 O219 1.304 . S
C227 O221 1.272 . S
C228 O220 1.311 . S
C228 O222 1.231 . S
O229 Zn211 1.953 . S
O229 C223 1.298 . S
O230 Zn231 1.953 . S
O230 C246 1.225 . S
Zn231 O230 1.953 . S
Zn231 O232 1.949 . S
Zn231 O238 1.919 . S
Zn231 O243 1.924 . S
O232 Zn231 1.949 . S
O232 Zn233 1.923 1_455 S
O232 Zn234 1.950 . S
O232 Zn235 1.945 . S
Zn233 O232 1.923 1_655 S
Zn233 O236 1.933 . S
Zn233 O239 1.941 . S
Zn233 O240 1.965 . S
Zn234 O232 1.950 . S
Zn234 O241 1.938 1_455 S
Zn234 O242 1.906 . S
Zn234 O252 1.953 . S
Zn235 O232 1.945 . S
Zn235 O237 1.932 . S
Zn235 O244 1.977 . S
Zn235 O245 1.910 . S
O236 Zn233 1.933 . S
O236 C247 1.226 . S
O237 Zn235 1.932 . S
O237 C247 1.307 1_455 S
O238 Zn231 1.919 . S
O238 C249 1.253 . S
O239 Zn233 1.941 . S
O239 C249 1.283 1_655 S
O240 Zn233 1.965 . S
O240 C248 1.303 . S
O241 Zn234 1.938 1_655 S
O241 C248 1.247 . S
O242 Zn234 1.906 . S
O242 C250 1.304 . S
O243 Zn231 1.924 . S
O243 C251 1.311 . S
O244 Zn235 1.977 . S
O244 C250 1.272 . S
O245 Zn235 1.910 . S
O245 C251 1.231 . S
C246 O230 1.225 . S
C246 O252 1.298 . S
C247 O236 1.226 . S
C247 O237 1.307 1_655 S
C248 O240 1.303 . S
C248 O241 1.247 . S
C249 O238 1.253 . S
C249 O239 1.283 1_455 S
C250 O242 1.304 . S
C250 O244 1.272 . S
C251 O243 1.311 . S
C251 O245 1.231 . S
O252 Zn234 1.953 . S
O252 C246 1.298 . S
O253 Zn254 1.953 . S
O253 C269 1.225 . S
Zn254 O253 1.953 . S
Zn254 O255 1.949 . S
Zn254 O261 1.919 . S
Zn254 O266 1.924 . S
O255 Zn254 1.949 . S
O255 Zn256 1.923 1_545 S
O255 Zn257 1.950 . S
O255 Zn258 1.945 . S
Zn256 O255 1.923 1_565 S
Zn256 O259 1.933 . S
Zn256 O262 1.941 . S
Zn256 O263 1.965 . S
Zn257 O255 1.950 . S
Zn257 O264 1.938 1_545 S
Zn257 O265 1.906 . S
Zn257 O275 1.953 . S
Zn258 O255 1.945 . S
Zn258 O260 1.932 . S
Zn258 O267 1.977 . S
Zn258 O268 1.910 . S
O259 Zn256 1.933 . S
O259 C270 1.226 . S
O260 Zn258 1.932 . S
O260 C270 1.307 1_545 S
O261 Zn254 1.919 . S
O261 C272 1.253 . S
O262 Zn256 1.941 . S
O262 C272 1.283 1_565 S
O263 Zn256 1.965 . S
O263 C271 1.303 . S
O264 Zn257 1.938 1_565 S
O264 C271 1.247 . S
O265 Zn257 1.906 . S
O265 C273 1.304 . S
O266 Zn254 1.924 . S
O266 C274 1.311 . S
O267 Zn258 1.977 . S
O267 C273 1.272 . S
O268 Zn258 1.910 . S
O268 C274 1.231 . S
C269 O253 1.225 . S
C269 O275 1.298 . S
C270 O259 1.226 . S
C270 O260 1.307 1_565 S
C271 O263 1.303 . S
C271 O264 1.247 . S
C272 O261 1.253 . S
C272 O262 1.283 1_545 S
C273 O265 1.304 . S
C273 O267 1.272 . S
C274 O266 1.311 . S
C274 O268 1.231 . S
O275 Zn257 1.953 . S
O275 C269 1.298 . S
C276 C277 1.369 . S
C276 C278 1.419 . S
C276 H280 0.930 . S
C277 C276 1.369 . S
C277 C286 1.429 1_556 S
C278 C276 1.419 . S
C278 C279 1.363 1_556 S
C278 H281 0.929 . S
C279 C278 1.363 1_554 S
C279 C285 1.428 . S
H280 C276 0.930 . S
H281 C278 0.929 . S
S282 N283 1.613 . S
S282 N284 1.610 . S
N283 S282 1.613 . S
N283 C286 1.350 . S
N284 S282 1.610 . S
N284 C285 1.351 . S
C285 C279 1.428 . S
C285 N284 1.351 . S
C285 C286 1.434 . S
C286 C277 1.429 1_554 S
C286 N283 1.350 . S
C286 C285 1.434 . S
C287 C288 1.369 . S
C287 C289 1.419 1_455 S
C287 H291 0.930 . S
C288 C287 1.369 . S
C288 C297 1.429 . S
C289 C287 1.419 1_655 S
C289 C290 1.363 . S
C289 H292 0.929 . S
C290 C289 1.363 . S
C290 C296 1.428 1_655 S
H291 C287 0.930 . S
H292 C289 0.929 . S
S293 N294 1.613 . S
S293 N295 1.610 . S
N294 S293 1.613 . S
N294 C297 1.350 . S
N295 S293 1.610 . S
N295 C296 1.351 . S
C296 C290 1.428 1_455 S
C296 N295 1.351 . S
C296 C297 1.434 . S
C297 C288 1.429 . S
C297 N294 1.350 . S
C297 C296 1.434 . S
C298 C299 1.369 . S
C298 C300 1.419 . S
C298 H302 0.930 . S
C299 C298 1.369 . S
C299 C308 1.429 . S
C300 C298 1.419 . S
C300 C301 1.363 1_545 S
C300 H303 0.929 1_545 S
C301 C300 1.363 1_565 S
C301 C307 1.428 1_565 S
H302 C298 0.930 . S
H303 C300 0.929 1_565 S
S304 N305 1.613 . S
S304 N306 1.610 . S
N305 S304 1.613 . S
N305 C308 1.350 . S
N306 S304 1.610 . S
N306 C307 1.351 . S
C307 C301 1.428 1_545 S
C307 N306 1.351 . S
C307 C308 1.434 . S
C308 C299 1.429 . S
C308 N305 1.350 . S
C308 C307 1.434 . S
C309 C310 1.369 . S
C309 C311 1.419 . S
C309 H313 0.930 . S
C310 C309 1.369 . S
C310 C319 1.429 . S
C311 C309 1.419 . S
C311 C312 1.363 . S
C311 H314 0.929 . S
C312 C311 1.363 . S
C312 C318 1.428 . S
H313 C309 0.930 . S
H314 C311 0.929 . S
S315 N316 1.613 . S
S315 N317 1.610 . S
N316 S315 1.613 . S
N316 C319 1.350 . S
N317 S315 1.610 . S
N317 C318 1.351 . S
C318 C312 1.428 . S
C318 N317 1.351 . S
C318 C319 1.434 . S
C319 C310 1.429 . S
C319 N316 1.350 . S
C319 C318 1.434 . S
C320 C321 1.369 . S
C320 C322 1.419 . S
C320 H324 0.930 . S
C321 C320 1.369 . S
C321 C330 1.429 . S
C322 C320 1.419 . S
C322 C323 1.363 1_655 S
C322 H325 0.929 1_655 S
C323 C322 1.363 1_455 S
C323 C329 1.428 1_455 S
H324 C320 0.930 . S
H325 C322 0.929 1_455 S
S326 N327 1.613 . S
S326 N328 1.610 . S
N327 S326 1.613 . S
N327 C330 1.350 . S
N328 S326 1.610 . S
N328 C329 1.351 . S
C329 C323 1.428 1_655 S
C329 N328 1.351 . S
C329 C330 1.434 . S
C330 C321 1.429 . S
C330 N327 1.350 . S
C330 C329 1.434 . S
C331 C332 1.369 . S
C331 C333 1.419 . S
C331 H335 0.930 . S
C332 C331 1.369 . S
C332 C341 1.429 . S
C333 C331 1.419 . S
C333 C334 1.363 1_565 S
C333 H336 0.929 . S
C334 C333 1.363 1_545 S
C334 C340 1.428 . S
H335 C331 0.930 . S
H336 C333 0.929 . S
S337 N338 1.613 1_545 S
S337 N339 1.610 . S
N338 S337 1.613 1_565 S
N338 C341 1.350 . S
N339 S337 1.610 . S
N339 C340 1.351 . S
C340 C334 1.428 . S
C340 N339 1.351 . S
C340 C341 1.434 1_545 S
C341 C332 1.429 . S
C341 N338 1.350 . S
C341 C340 1.434 1_565 S
C342 C343 1.369 . S
C342 C344 1.419 . S
C342 H346 0.930 . S
C343 C342 1.369 . S
C343 C352 1.429 . S
C344 C342 1.419 . S
C344 C345 1.363 . S
C344 H347 0.929 . S
C345 C344 1.363 . S
C345 C351 1.428 . S
H346 C342 0.930 . S
H347 C344 0.929 . S
S348 N349 1.613 . S
S348 N350 1.610 . S
N349 S348 1.613 . S
N349 C352 1.350 . S
N350 S348 1.610 . S
N350 C351 1.351 . S
C351 C345 1.428 . S
C351 N350 1.351 . S
C351 C352 1.434 . S
C352 C343 1.429 . S
C352 N349 1.350 . S
C352 C351 1.434 . S
C353 C354 1.369 1_455 S
C353 C355 1.419 . S
C353 H357 0.930 . S
C354 C353 1.369 1_655 S
C354 C363 1.429 . S
C355 C353 1.419 . S
C355 C356 1.363 . S
C355 H358 0.929 . S
C356 C355 1.363 . S
C356 C362 1.402 1_556 S
H357 C353 0.930 . S
H358 C355 0.929 . S
S359 N360 1.613 . S
S359 N361 1.610 1_655 S
N360 S359 1.613 . S
N360 C363 1.350 1_554 S
N361 S359 1.610 1_455 S
N361 C362 1.390 . S
C362 C356 1.402 1_554 S
C362 N361 1.390 . S
C362 C363 1.426 1_454 S
C363 C354 1.429 . S
C363 N360 1.350 1_556 S
C363 C362 1.426 1_656 S
C364 C365 1.369 1_545 S
C364 C366 1.419 . S
C364 H368 0.930 . S
C365 C364 1.369 1_565 S
C365 C374 1.429 . S
C366 C364 1.419 . S
C366 C367 1.363 . S
C366 H369 0.929 . S
C367 C366 1.363 . S
C367 C373 1.428 . S
H368 C364 0.930 . S
H369 C366 0.929 . S
S370 N371 1.613 . S
S370 N372 1.610 . S
N371 S370 1.613 . S
N371 C374 1.350 . S
N372 S370 1.610 . S
N372 C373 1.351 1_565 S
C373 C367 1.428 . S
C373 N372 1.351 1_545 S
C373 C374 1.434 1_545 S
C374 C365 1.429 . S
C374 N371 1.350 . S
C374 C373 1.434 1_565 S
C375 C376 1.369 . S
C375 C377 1.419 . S
C375 H379 0.930 . S
C376 C375 1.369 . S
C376 C385 1.429 . S
C377 C375 1.419 . S
C377 C378 1.363 . S
C377 H380 0.929 . S
C378 C377 1.363 . S
C378 C384 1.428 . S
H379 C375 0.930 . S
H380 C377 0.929 . S
S381 N382 1.613 . S
S381 N383 1.610 . S
N382 S381 1.613 . S
N382 C385 1.350 . S
N383 S381 1.610 . S
N383 C384 1.351 . S
C384 C378 1.428 . S
C384 N383 1.351 . S
C384 C385 1.434 . S
C385 C376 1.429 . S
C385 N382 1.350 . S
C385 C384 1.434 . S
C386 C387 1.369 1_655 S
C386 C388 1.419 . S
C386 H390 0.930 . S
C387 C386 1.369 1_455 S
C387 C396 1.429 . S
C388 C386 1.419 . S
C388 C389 1.363 . S
C388 H391 0.929 . S
C389 C388 1.363 . S
C389 C395 1.428 . S
H390 C386 0.930 . S
H391 C388 0.929 . S
S392 N393 1.613 . S
S392 N394 1.610 . S
N393 S392 1.613 . S
N393 C396 1.350 . S
N394 S392 1.610 . S
N394 C395 1.351 1_455 S
C395 C389 1.428 . S
C395 N394 1.351 1_655 S
C395 C396 1.434 1_655 S
C396 C387 1.429 . S
C396 N393 1.350 . S
C396 C395 1.434 1_455 S
C397 C398 1.369 1_565 S
C397 C399 1.419 . S
C397 H401 0.930 . S
C398 C397 1.369 1_545 S
C398 C407 1.429 . S
C399 C397 1.419 . S
C399 C400 1.363 . S
C399 H402 0.929 . S
C400 C399 1.363 . S
C400 C406 1.428 . S
H401 C397 0.930 . S
H402 C399 0.929 . S
S403 N404 1.613 . S
S403 N405 1.610 . S
N404 S403 1.613 . S
N404 C407 1.350 . S
N405 S403 1.610 . S
N405 C406 1.351 1_545 S
C406 C400 1.428 . S
C406 N405 1.351 1_565 S
C406 C407 1.434 1_565 S
C407 C398 1.429 . S
C407 N404 1.350 . S
C407 C406 1.434 1_545 S
C408 C409 1.369 . S
C408 C410 1.419 . S
C408 H412 0.930 . S
C409 C408 1.369 . S
C409 C418 1.429 . S
C410 C408 1.419 . S
C410 C411 1.363 . S
C410 H413 0.929 . S
C411 C410 1.363 . S
C411 C417 1.428 . S
H412 C408 0.930 . S
H413 C410 0.929 . S
S414 N415 1.613 . S
S414 N416 1.610 . S
N415 S414 1.613 . S
N415 C418 1.350 . S
N416 S414 1.610 . S
N416 C417 1.351 . S
C417 C411 1.428 . S
C417 N416 1.351 . S
C417 C418 1.434 . S
C418 C409 1.429 . S
C418 N415 1.350 . S
C418 C417 1.434 . S
C419 C420 1.369 . S
C419 C421 1.419 . S
C419 H423 0.930 . S
C420 C419 1.369 . S
C420 C429 1.429 . S
C421 C419 1.419 . S
C421 C422 1.363 . S
C421 H424 0.929 . S
C422 C421 1.363 . S
C422 C428 1.428 . S
H423 C419 0.930 . S
H424 C421 0.929 . S
S425 N426 1.613 . S
S425 N427 1.610 1_655 S
N426 S425 1.613 . S
N426 C429 1.350 1_655 S
N427 S425 1.610 1_455 S
N427 C428 1.351 . S
C428 C422 1.428 . S
C428 N427 1.351 . S
C428 C429 1.434 . S
C429 C420 1.429 . S
C429 N426 1.350 1_455 S
C429 C428 1.434 . S
C430 C431 1.369 . S
C430 C432 1.419 . S
C430 H434 0.930 . S
C431 C430 1.369 . S
C431 C440 1.429 . S
C432 C430 1.419 . S
C432 C433 1.363 . S
C432 H435 0.929 . S
C433 C432 1.363 . S
C433 C439 1.428 . S
H434 C430 0.930 . S
H435 C432 0.929 . S
S436 N437 1.613 . S
S436 N438 1.610 . S
N437 S436 1.613 . S
N437 C440 1.350 . S
N438 S436 1.610 . S
N438 C439 1.351 . S
C439 C433 1.428 . S
C439 N438 1.351 . S
C439 C440 1.434 . S
C440 C431 1.429 . S
C440 N437 1.350 . S
C440 C439 1.434 . S
C441 C442 1.369 . S
C441 C443 1.419 . S
C441 H445 0.930 . S
C442 C441 1.369 . S
C442 C451 1.429 . S
C443 C441 1.419 . S
C443 C444 1.363 . S
C443 H446 0.929 . S
C444 C443 1.363 . S
C444 C450 1.428 . S
H445 C441 0.930 . S
H446 C443 0.929 . S
S447 N448 1.613 . S
S447 N449 1.610 . S
N448 S447 1.613 . S
N448 C451 1.350 . S
N449 S447 1.610 . S
N449 C450 1.351 . S
C450 C444 1.428 . S
C450 N449 1.351 . S
C450 C451 1.434 . S
C451 C442 1.429 . S
C451 N448 1.350 . S
C451 C450 1.434 . S
C452 C453 1.369 . S
C452 C454 1.419 . S
C452 H456 0.930 . S
C453 C452 1.369 . S
C453 C462 1.429 . S
C454 C452 1.419 . S
C454 C455 1.363 . S
C454 H457 0.929 . S
C455 C454 1.363 . S
C455 C461 1.428 . S
H456 C452 0.930 . S
H457 C454 0.929 . S
S458 N459 1.613 . S
S458 N460 1.610 . S
N459 S458 1.613 . S
N459 C462 1.350 . S
N460 S458 1.610 . S
N460 C461 1.351 . S
C461 C455 1.428 . S
C461 N460 1.351 . S
C461 C462 1.434 . S
C462 C453 1.429 . S
C462 N459 1.350 . S
C462 C461 1.434 . S
C463 C464 1.369 . S
C463 C465 1.419 . S
C463 H467 0.930 1_565 S
C464 C463 1.369 . S
C464 C473 1.429 . S
C465 C463 1.419 . S
C465 C466 1.363 . S
C465 H468 0.929 . S
C466 C465 1.363 . S
C466 C472 1.428 . S
H467 C463 0.930 1_545 S
H468 C465 0.929 . S
S469 N470 1.613 . S
S469 N471 1.610 . S
N470 S469 1.613 . S
N470 C473 1.350 . S
N471 S469 1.610 . S
N471 C472 1.351 . S
C472 C466 1.428 . S
C472 N471 1.351 . S
C472 C473 1.434 . S
C473 C464 1.429 . S
C473 N470 1.350 . S
C473 C472 1.434 . S
C474 C475 1.369 . S
C474 C476 1.419 . S
C474 H478 0.930 . S
C475 C474 1.369 . S
C475 C484 1.429 . S
C476 C474 1.419 . S
C476 C477 1.363 . S
C476 H479 0.929 . S
C477 C476 1.363 . S
C477 C483 1.428 . S
H478 C474 0.930 . S
H479 C476 0.929 . S
S480 N481 1.613 . S
S480 N482 1.610 . S
N481 S480 1.613 . S
N481 C484 1.350 . S
N482 S480 1.610 . S
N482 C483 1.351 . S
C483 C477 1.428 . S
C483 N482 1.351 . S
C483 C484 1.434 . S
C484 C475 1.429 . S
C484 N481 1.350 . S
C484 C483 1.434 . S
C485 C486 1.369 . S
C485 C487 1.419 . S
C485 H489 0.930 . S
C486 C485 1.369 . S
C486 C495 1.429 . S
C487 C485 1.419 . S
C487 C488 1.363 . S
C487 H490 0.929 . S
C488 C487 1.363 . S
C488 C494 1.428 . S
H489 C485 0.930 . S
H490 C487 0.929 . S
S491 N492 1.613 . S
S491 N493 1.610 . S
N492 S491 1.613 . S
N492 C495 1.350 . S
N493 S491 1.610 . S
N493 C494 1.351 . S
C494 C488 1.428 . S
C494 N493 1.351 . S
C494 C495 1.434 . S
C495 C486 1.429 . S
C495 N492 1.350 . S
C495 C494 1.434 . S
C496 C497 1.369 . S
C496 C498 1.419 . S
C496 H500 0.930 . S
C497 C496 1.369 . S
C497 C506 1.429 . S
C498 C496 1.419 . S
C498 C499 1.363 . S
C498 H501 0.929 . S
C499 C498 1.363 . S
C499 C505 1.428 . S
H500 C496 0.930 . S
H501 C498 0.929 . S
S502 N503 1.613 . S
S502 N504 1.610 . S
N503 S502 1.613 . S
N503 C506 1.350 . S
N504 S502 1.610 . S
N504 C505 1.351 . S
C505 C499 1.428 . S
C505 N504 1.351 . S
C505 C506 1.434 . S
C506 C497 1.429 . S
C506 N503 1.350 . S
C506 C505 1.434 . S
C507 C508 1.369 . S
C507 C509 1.419 . S
C507 H511 0.930 . S
C508 C507 1.369 . S
C508 C517 1.429 . S
C509 C507 1.419 . S
C509 C510 1.363 . S
C509 H512 0.929 . S
C510 C509 1.363 . S
C510 C516 1.428 . S
H511 C507 0.930 . S
H512 C509 0.929 . S
S513 N514 1.613 . S
S513 N515 1.610 . S
N514 S513 1.613 . S
N514 C517 1.350 . S
N515 S513 1.610 . S
N515 C516 1.351 . S
C516 C510 1.428 . S
C516 N515 1.351 . S
C516 C517 1.434 . S
C517 C508 1.429 . S
C517 N514 1.350 . S
C517 C516 1.434 . S
C518 C519 1.369 . S
C518 C520 1.419 . S
C518 H522 0.930 . S
C519 C518 1.369 . S
C519 C528 1.429 . S
C520 C518 1.419 . S
C520 C521 1.363 . S
C520 H523 0.929 . S
C521 C520 1.363 . S
C521 C527 1.428 . S
H522 C518 0.930 . S
H523 C520 0.929 . S
S524 N525 1.613 . S
S524 N526 1.610 1_455 S
N525 S524 1.613 . S
N525 C528 1.350 1_455 S
N526 S524 1.610 1_655 S
N526 C527 1.351 . S
C527 C521 1.428 . S
C527 N526 1.351 . S
C527 C528 1.434 . S
C528 C519 1.429 . S
C528 N525 1.350 1_655 S
C528 C527 1.434 . S
C529 C530 1.369 . S
C529 C531 1.419 . S
C529 H533 0.930 . S
C530 C529 1.369 . S
C530 C539 1.429 . S
C531 C529 1.419 . S
C531 C532 1.363 . S
C531 H534 0.929 . S
C532 C531 1.363 . S
C532 C538 1.428 . S
H533 C529 0.930 . S
H534 C531 0.929 . S
S535 N536 1.613 . S
S535 N537 1.610 . S
N536 S535 1.613 . S
N536 C539 1.350 . S
N537 S535 1.610 . S
N537 C538 1.351 . S
C538 C532 1.428 . S
C538 N537 1.351 . S
C538 C539 1.434 . S
C539 C530 1.429 . S
C539 N536 1.350 . S
C539 C538 1.434 . S
C540 C541 1.369 . S
C540 C542 1.419 . S
C540 H544 0.930 . S
C541 C540 1.369 . S
C541 C550 1.429 . S
C542 C540 1.419 . S
C542 C543 1.363 . S
C542 H545 0.929 . S
C543 C542 1.363 . S
C543 C549 1.428 . S
H544 C540 0.930 . S
H545 C542 0.929 . S
S546 N547 1.613 . S
S546 N548 1.610 1_565 S
N547 S546 1.613 . S
N547 C550 1.350 1_565 S
N548 S546 1.610 1_545 S
N548 C549 1.351 . S
C549 C543 1.428 . S
C549 N548 1.351 . S
C549 C550 1.434 . S
C550 C541 1.429 . S
C550 N547 1.350 1_545 S
C550 C549 1.434 . S
C551 C552 1.369 . S
C551 C553 1.419 . S
C551 H555 0.930 . S
C552 C551 1.369 . S
C552 C561 1.429 . S
C553 C551 1.419 . S
C553 C554 1.363 . S
C553 H556 0.929 . S
C554 C553 1.363 . S
C554 C560 1.428 . S
H555 C551 0.930 . S
H556 C553 0.929 . S
S557 N558 1.613 . S
S557 N559 1.610 . S
N558 S557 1.613 . S
N558 C561 1.350 . S
N559 S557 1.610 . S
N559 C560 1.351 . S
C560 C554 1.428 . S
C560 N559 1.351 . S
C560 C561 1.434 . S
C561 C552 1.429 . S
C561 N558 1.350 . S
C561 C560 1.434 . S
C562 C563 1.369 . S
C562 C564 1.419 . S
C562 H566 0.930 . S
C563 C562 1.369 . S
C563 C572 1.429 . S
C564 C562 1.419 . S
C564 C565 1.363 . S
C564 H567 0.929 . S
C565 C564 1.363 . S
C565 C571 1.428 . S
H566 C562 0.930 . S
H567 C564 0.929 . S
S568 N569 1.613 . S
S568 N570 1.610 1_565 S
N569 S568 1.613 . S
N569 C572 1.350 1_565 S
N570 S568 1.610 1_545 S
N570 C571 1.351 . S
C571 C565 1.428 . S
C571 N570 1.351 . S
C571 C572 1.434 . S
C572 C563 1.429 . S
C572 N569 1.350 1_545 S
C572 C571 1.434 . S
C573 C574 1.369 . S
C573 C575 1.419 . S
C573 H577 0.930 . S
C574 C573 1.369 . S
C574 C583 1.429 . S
C575 C573 1.419 . S
C575 C576 1.363 . S
C575 H578 0.929 . S
C576 C575 1.363 . S
C576 C582 1.428 . S
H577 C573 0.930 . S
H578 C575 0.929 . S
S579 N580 1.613 1_545 S
S579 N581 1.610 . S
N580 S579 1.613 1_565 S
N580 C583 1.350 . S
N581 S579 1.610 . S
N581 C582 1.351 1_545 S
C582 C576 1.428 . S
C582 N581 1.351 1_565 S
C582 C583 1.434 . S
C583 C574 1.429 . S
C583 N580 1.350 . S
C583 C582 1.434 . S
C584 C585 1.369 . S
C584 C586 1.419 . S
C584 H588 0.930 . S
C585 C584 1.369 . S
C585 C594 1.429 . S
C586 C584 1.419 . S
C586 C587 1.363 . S
C586 H589 0.929 . S
C587 C586 1.363 . S
C587 C593 1.428 . S
H588 C584 0.930 . S
H589 C586 0.929 . S
S590 N591 1.614 . S
S590 N592 1.614 . S
N591 S590 1.614 . S
N591 C594 1.350 . S
N592 S590 1.614 . S
N592 C593 1.351 . S
C593 C587 1.428 . S
C593 N592 1.351 . S
C593 C594 1.434 . S
C594 C585 1.429 . S
C594 N591 1.350 . S
C594 C593 1.434 . S
C595 C596 1.369 . S
C595 C597 1.419 . S
C595 H599 0.930 . S
C596 C595 1.369 . S
C596 C605 1.429 . S
C597 C595 1.419 . S
C597 C598 1.363 . S
C597 H600 0.929 . S
C598 C597 1.363 . S
C598 C604 1.428 . S
H599 C595 0.930 . S
H600 C597 0.929 . S
S601 N602 1.613 . S
S601 N603 1.610 . S
N602 S601 1.613 . S
N602 C605 1.350 . S
N603 S601 1.610 . S
N603 C604 1.351 . S
C604 C598 1.428 . S
C604 N603 1.351 . S
C604 C605 1.434 . S
C605 C596 1.429 . S
C605 N602 1.350 . S
C605 C604 1.434 . S
C606 C607 1.369 1_554 S
C606 C608 1.419 1_545 S
C606 H610 0.930 . S
C607 C606 1.369 1_556 S
C607 C616 1.429 1_455 S
C608 C606 1.419 1_565 S
C608 C609 1.363 1_454 S
C608 H611 0.929 . S
C609 C608 1.363 1_656 S
C609 C615 1.428 . S
H610 C606 0.930 . S
H611 C608 0.929 . S
S612 N613 1.613 . S
S612 N614 1.610 1_545 S
N613 S612 1.613 . S
N613 C616 1.350 . S
N614 S612 1.610 1_565 S
N614 C615 1.351 . S
C615 C609 1.428 . S
C615 N614 1.351 . S
C615 C616 1.434 1_565 S
C616 C607 1.429 1_655 S
C616 N613 1.350 . S
C616 C615 1.434 1_545 S
C617 C618 1.369 1_545 S
C617 C619 1.419 . S
C617 H621 0.930 . S
C618 C617 1.369 1_565 S
C618 C627 1.429 1_455 S
C619 C617 1.419 . S
C619 C620 1.363 1_455 S
C619 H622 0.929 . S
C620 C619 1.363 1_655 S
C620 C626 1.428 1_545 S
H621 C617 0.930 . S
H622 C619 0.929 . S
S623 N624 1.613 . S
S623 N625 1.610 . S
N624 S623 1.613 . S
N624 C627 1.350 . S
N625 S623 1.610 . S
N625 C626 1.351 . S
C626 C620 1.428 1_565 S
C626 N625 1.351 . S
C626 C627 1.434 . S
C627 C618 1.429 1_655 S
C627 N624 1.350 . S
C627 C626 1.434 . S
C628 C629 1.369 1_565 S
C628 C630 1.419 1_455 S
C628 H632 0.930 . S
C629 C628 1.369 1_545 S
C629 C638 1.429 . S
C630 C628 1.419 1_655 S
C630 C631 1.363 . S
C630 H633 0.929 . S
C631 C630 1.363 . S
C631 C637 1.428 1_565 S
H632 C628 0.930 . S
H633 C630 0.929 . S
S634 N635 1.613 . S
S634 N636 1.610 1_455 S
N635 S634 1.613 . S
N635 C638 1.350 . S
N636 S634 1.610 1_655 S
N636 C637 1.351 . S
C637 C631 1.428 1_545 S
C637 N636 1.351 . S
C637 C638 1.434 1_655 S
C638 C629 1.429 . S
C638 N635 1.350 . S
C638 C637 1.434 1_455 S
C639 C640 1.369 . S
C639 C641 1.419 1_545 S
C639 H643 0.930 . S
C640 C639 1.369 . S
C640 C649 1.429 1_455 S
C641 C639 1.419 1_565 S
C641 C642 1.363 1_455 S
C641 H644 0.929 . S
C642 C641 1.363 1_655 S
C642 C648 1.428 . S
H643 C639 0.930 . S
H644 C641 0.929 . S
S645 N646 1.613 . S
S645 N647 1.610 1_545 S
N646 S645 1.613 . S
N646 C649 1.350 . S
N647 S645 1.610 1_565 S
N647 C648 1.351 . S
C648 C642 1.428 . S
C648 N647 1.351 . S
C648 C649 1.434 1_565 S
C649 C640 1.429 1_655 S
C649 N646 1.350 . S
C649 C648 1.434 1_545 S
C650 C651 1.369 1_545 S
C650 C652 1.419 . S
C650 H654 0.930 . S
C651 C650 1.369 1_565 S
C651 C660 1.429 1_455 S
C652 C650 1.419 . S
C652 C653 1.363 1_455 S
C652 H655 0.929 . S
C653 C652 1.363 1_655 S
C653 C659 1.428 1_545 S
H654 C650 0.930 . S
H655 C652 0.929 . S
S656 N657 1.613 . S
S656 N658 1.610 . S
N657 S656 1.613 . S
N657 C660 1.350 . S
N658 S656 1.610 . S
N658 C659 1.351 . S
C659 C653 1.428 1_565 S
C659 N658 1.351 . S
C659 C660 1.434 . S
C660 C651 1.429 1_655 S
C660 N657 1.350 . S
C660 C659 1.434 . S
C661 C662 1.369 1_565 S
C661 C663 1.419 1_455 S
C661 H665 0.930 . S
C662 C661 1.369 1_545 S
C662 C671 1.429 . S
C663 C661 1.419 1_655 S
C663 C664 1.363 . S
C663 H666 0.929 . S
C664 C663 1.363 . S
C664 C670 1.428 1_565 S
H665 C661 0.930 . S
H666 C663 0.929 . S
S667 N668 1.613 . S
S667 N669 1.610 1_455 S
N668 S667 1.613 . S
N668 C671 1.350 . S
N669 S667 1.610 1_655 S
N669 C670 1.351 . S
C670 C664 1.428 1_545 S
C670 N669 1.351 . S
C670 C671 1.434 1_655 S
C671 C662 1.429 . S
C671 N668 1.350 . S
C671 C670 1.434 1_455 S
C277 C182 1.786 . S
C279 C20 1.799 . S
C288 C205 1.789 . S
C290 C43 1.797 . S
C299 C228 1.788 . S
C301 C66 1.797 . S
C310 C251 1.786 . S
C312 C89 1.799 . S
C321 C274 1.788 . S
C323 C112 1.797 . S
C332 C159 1.785 . S
C334 C135 1.799 . S
C343 C158 1.798 . S
C345 C136 1.787 . S
C354 C181 1.798 . S
C356 C21 1.788 . S
C365 C204 1.799 . S
C367 C44 1.787 . S
C376 C227 1.798 . S
C378 C67 1.788 . S
C387 C250 1.800 . S
C389 C90 1.786 . S
C398 C273 1.800 . S
C400 C113 1.786 . S
C409 C17 1.386 . S
C411 C131 1.365 . S
C420 C40 1.387 . S
C422 C16 1.364 . S
C431 C39 1.362 . S
C433 C63 1.386 . S
C442 C62 1.366 . S
C444 C86 1.387 . S
C453 C85 1.368 . S
C455 C109 1.387 . S
C464 C132 1.387 . S
C466 C108 1.366 . S
C475 C155 1.386 . S
C477 C177 1.363 . S
C486 C178 1.386 . S
C488 C200 1.363 . S
C497 C201 1.385 . S
C499 C223 1.362 . S
C508 C224 1.387 . S
C510 C246 1.368 . S
C519 C247 1.387 . S
C521 C269 1.364 . S
C530 C154 1.368 . S
C532 C270 1.387 . S
C541 C202 1.192 . S
C543 C18 1.198 . S
C552 C41 1.192 . S
C554 C225 1.197 . S
C563 C64 1.192 . S
C565 C248 1.198 . S
C574 C87 1.198 . S
C576 C271 1.195 . S
C585 C110 1.191 . S
C587 C156 1.198 . S
C596 C179 1.195 . S
C598 C133 1.194 . S
C607 C19 1.000 1_556 S
C609 C180 0.995 . S
C618 C203 0.995 . S
C620 C42 0.998 . S
C629 C226 0.993 . S
C631 C65 0.988 . S
C640 C249 0.995 . S
C642 C88 0.987 . S
C651 C111 0.991 . S
C653 C272 0.988 . S
C662 C134 0.999 . S
C664 C157 0.996 . S
