# Generated by pormake.
# Topology unp, (4)-cn, num edge types: 1
# Building blocks:
#     Node 0, Type 0, BuildingBlock: NAHDIM_clean_sbu_0, # of connection points: 4
#     Node 1, Type 0, BuildingBlock: NAHDIM_clean_sbu_0, # of connection points: 4
#     Node 2, Type 0, BuildingBlock: NAHDIM_clean_sbu_0, # of connection points: 4
#     Node 3, Type 0, BuildingBlock: NAHDIM_clean_sbu_0, # of connection points: 4
#     Node 4, Type 0, BuildingBlock: NAHDIM_clean_sbu_0, # of connection points: 4
#     Node 5, Type 0, BuildingBlock: NAHDIM_clean_sbu_0, # of connection points: 4
#     Node 6, Type 0, BuildingBlock: NAHDIM_clean_sbu_0, # of connection points: 4
#     Node 7, Type 0, BuildingBlock: NAHDIM_clean_sbu_0, # of connection points: 4
#     Node 8, Type 0, BuildingBlock: NAHDIM_clean_sbu_0, # of connection points: 4
#     Node 9, Type 0, BuildingBlock: NAHDIM_clean_sbu_0, # of connection points: 4
#     Node 10, Type 0, BuildingBlock: NAHDIM_clean_sbu_0, # of connection points: 4
#     Node 11, Type 0, BuildingBlock: NAHDIM_clean_sbu_0, # of connection points: 4
#     Node 12, Type 0, BuildingBlock: NAHDIM_clean_sbu_0, # of connection points: 4
#     Node 13, Type 0, BuildingBlock: NAHDIM_clean_sbu_0, # of connection points: 4
#     Node 14, Type 0, BuildingBlock: NAHDIM_clean_sbu_0, # of connection points: 4
#     Node 15, Type 0, BuildingBlock: NAHDIM_clean_sbu_0, # of connection points: 4
#     Node 16, Type 0, BuildingBlock: NAHDIM_clean_sbu_0, # of connection points: 4
#     Node 17, Type 0, BuildingBlock: NAHDIM_clean_sbu_0, # of connection points: 4
#     Edge 18, Type (0, 0), BuildingBlock: XIVTED_clean_linker_0, # of connection points: 2
#     Edge 19, Type (0, 0), BuildingBlock: XIVTED_clean_linker_0, # of connection points: 2
#     Edge 20, Type (0, 0), BuildingBlock: XIVTED_clean_linker_0, # of connection points: 2
#     Edge 21, Type (0, 0), BuildingBlock: XIVTED_clean_linker_0, # of connection points: 2
#     Edge 22, Type (0, 0), BuildingBlock: XIVTED_clean_linker_0, # of connection points: 2
#     Edge 23, Type (0, 0), BuildingBlock: XIVTED_clean_linker_0, # of connection points: 2
#     Edge 24, Type (0, 0), BuildingBlock: XIVTED_clean_linker_0, # of connection points: 2
#     Edge 25, Type (0, 0), BuildingBlock: XIVTED_clean_linker_0, # of connection points: 2
#     Edge 26, Type (0, 0), BuildingBlock: XIVTED_clean_linker_0, # of connection points: 2
#     Edge 27, Type (0, 0), BuildingBlock: XIVTED_clean_linker_0, # of connection points: 2
#     Edge 28, Type (0, 0), BuildingBlock: XIVTED_clean_linker_0, # of connection points: 2
#     Edge 29, Type (0, 0), BuildingBlock: XIVTED_clean_linker_0, # of connection points: 2
#     Edge 30, Type (0, 0), BuildingBlock: XIVTED_clean_linker_0, # of connection points: 2
#     Edge 31, Type (0, 0), BuildingBlock: XIVTED_clean_linker_0, # of connection points: 2
#     Edge 32, Type (0, 0), BuildingBlock: XIVTED_clean_linker_0, # of connection points: 2
#     Edge 33, Type (0, 0), BuildingBlock: XIVTED_clean_linker_0, # of connection points: 2
#     Edge 34, Type (0, 0), BuildingBlock: XIVTED_clean_linker_0, # of connection points: 2
#     Edge 35, Type (0, 0), BuildingBlock: XIVTED_clean_linker_0, # of connection points: 2
#     Edge 36, Type (0, 0), BuildingBlock: XIVTED_clean_linker_0, # of connection points: 2
#     Edge 37, Type (0, 0), BuildingBlock: XIVTED_clean_linker_0, # of connection points: 2
#     Edge 38, Type (0, 0), BuildingBlock: XIVTED_clean_linker_0, # of connection points: 2
#     Edge 39, Type (0, 0), BuildingBlock: XIVTED_clean_linker_0, # of connection points: 2
#     Edge 40, Type (0, 0), BuildingBlock: XIVTED_clean_linker_0, # of connection points: 2
#     Edge 41, Type (0, 0), BuildingBlock: XIVTED_clean_linker_0, # of connection points: 2
#     Edge 42, Type (0, 0), BuildingBlock: XIVTED_clean_linker_0, # of connection points: 2
#     Edge 43, Type (0, 0), BuildingBlock: XIVTED_clean_linker_0, # of connection points: 2
#     Edge 44, Type (0, 0), BuildingBlock: XIVTED_clean_linker_0, # of connection points: 2
#     Edge 45, Type (0, 0), BuildingBlock: XIVTED_clean_linker_0, # of connection points: 2
#     Edge 46, Type (0, 0), BuildingBlock: XIVTED_clean_linker_0, # of connection points: 2
#     Edge 47, Type (0, 0), BuildingBlock: XIVTED_clean_linker_0, # of connection points: 2
#     Edge 48, Type (0, 0), BuildingBlock: XIVTED_clean_linker_0, # of connection points: 2
#     Edge 49, Type (0, 0), BuildingBlock: XIVTED_clean_linker_0, # of connection points: 2
#     Edge 50, Type (0, 0), BuildingBlock: XIVTED_clean_linker_0, # of connection points: 2
#     Edge 51, Type (0, 0), BuildingBlock: XIVTED_clean_linker_0, # of connection points: 2
#     Edge 52, Type (0, 0), BuildingBlock: XIVTED_clean_linker_0, # of connection points: 2
#     Edge 53, Type (0, 0), BuildingBlock: XIVTED_clean_linker_0, # of connection points: 2
# Relax obj value: 0.394
# Max RMSD: 0.206
# Mean RMSD: 0.203
data_MOF--net-unp--node1-NAHDIM_clean_sbu_0--edge1-XIVTED_clean_linker_0
_symmetry_space_group_name_H-M    P1
_symmetry_Int_Tables_number       1
_symmetry_cell_setting            triclinic
loop_
_symmetry_equiv_pos_as_xyz
'x, y, z'
_cell_length_a     46.485602
_cell_length_b     46.485629
_cell_length_c     62.584395
_cell_angle_alpha  90.132299
_cell_angle_beta   89.871976
_cell_angle_gamma 120.24295
loop_
_atom_site_label
_atom_site_type_symbol
_atom_site_fract_x
_atom_site_fract_y
_atom_site_fract_z
_atom_type_partial_charge
C0 C 0.2085 0.24342 0.15378 0.0
O1 O 0.18336 0.22329 0.16601 0.0
O2 O 0.16241 0.15753 0.13265 0.0
Zn3 Zn 0.16593 0.19951 0.12095 0.0
O4 O 0.17103 0.19873 0.0891 0.0
C5 C 0.10483 0.18109 0.14291 0.0
O6 O 0.1171 0.16847 0.15641 0.0
O7 O 0.206 0.23899 0.13368 0.0
C8 C 0.148 0.17399 0.07916 0.0
O9 O 0.1224 0.15128 0.09002 0.0
C10 C 0.17863 0.1446 0.12496 0.0
O11 O 0.19979 0.15977 0.10929 0.0
O12 O 0.12247 0.19781 0.12707 0.0
C13 C 0.74267 0.97169 0.11755 0.0
O14 O 0.7423 0.96405 0.09729 0.0
O15 O 0.84958 0.01833 0.12842 0.0
Zn16 Zn 0.80823 0.97994 0.11577 0.0
O17 O 0.80907 0.98822 0.08425 0.0
C18 C 0.82303 0.93531 0.13787 0.0
O19 O 0.83007 0.95727 0.15318 0.0
O20 O 0.76777 0.97786 0.12893 0.0
C21 C 0.83113 0.98772 0.07252 0.0
O22 O 0.85274 0.98091 0.08118 0.0
C23 C 0.86293 0.04763 0.12085 0.0
O24 O 0.84853 0.05369 0.10484 0.0
O25 O 0.81086 0.93855 0.12049 0.0
C26 C 0.02505 0.77871 0.12614 0.0
O27 O 0.02546 0.77901 0.10516 0.0
O28 O 0.98802 0.84537 0.13065 0.0
Zn29 Zn 0.02726 0.84152 0.12084 0.0
O30 O 0.02325 0.83439 0.08903 0.0
C31 C 0.07005 0.90176 0.14345 0.0
O32 O 0.04611 0.88781 0.15771 0.0
O33 O 0.02684 0.80336 0.13618 0.0
C34 C 0.02175 0.85632 0.07778 0.0
O35 O 0.02358 0.88239 0.08734 0.0
C36 C 0.95937 0.8287 0.1222 0.0
O37 O 0.95451 0.80704 0.1071 0.0
O38 O 0.0685 0.88547 0.12674 0.0
C39 C 0.25609 0.21828 0.87607 0.0
O40 O 0.25742 0.21244 0.89646 0.0
O41 O 0.14907 0.15715 0.86789 0.0
Zn42 Zn 0.19086 0.15973 0.8791 0.0
O43 O 0.19152 0.16656 0.91086 0.0
C44 C 0.17395 0.09964 0.8565 0.0
O45 O 0.16517 0.11392 0.84184 0.0
O46 O 0.23062 0.19822 0.86527 0.0
C47 C 0.16637 0.1458 0.92161 0.0
O48 O 0.14157 0.12063 0.91166 0.0
C49 C 0.13988 0.17734 0.87411 0.0
O50 O 0.15888 0.20133 0.88743 0.0
O51 O 0.18767 0.11561 0.87352 0.0
C52 C 0.77156 0.99749 0.87285 0.0
O53 O 0.77408 0.98235 0.88983 0.0
O54 O 0.8395 0.9758 0.8609 0.0
Zn55 Zn 0.83992 0.01718 0.87106 0.0
O56 O 0.84357 0.01809 0.90321 0.0
C57 C 0.8981 0.0838 0.86832 0.0
O58 O 0.88499 0.08994 0.88508 0.0
O59 O 0.79742 0.01528 0.86164 0.0
C60 C 0.83386 0.03292 0.91586 0.0
O61 O 0.8207 0.04989 0.90803 0.0
C62 C 0.82661 0.94917 0.87185 0.0
O63 O 0.81159 0.94788 0.88992 0.0
O64 O 0.8819 0.05573 0.85904 0.0
C65 C 0.98216 0.74108 0.8746 0.0
O66 O 0.98469 0.74398 0.89549 0.0
O67 O 0.01428 0.84288 0.86658 0.0
Zn68 Zn 0.97625 0.79995 0.87785 0.0
O69 O 0.98146 0.80028 0.90976 0.0
C70 C 0.9311 0.81269 0.85427 0.0
O71 O 0.95404 0.82122 0.83945 0.0
O72 O 0.97733 0.7615 0.86394 0.0
C73 C 0.98295 0.82489 0.91967 0.0
O74 O 0.98042 0.84761 0.90874 0.0
C75 C 0.04346 0.85597 0.87431 0.0
O76 O 0.04958 0.84031 0.88949 0.0
O77 O 0.93417 0.80053 0.8717 0.0
C78 C 0.88946 0.58347 0.45289 0.0
O79 O 0.88927 0.58412 0.43191 0.0
O80 O 0.81969 0.47961 0.45795 0.0
Zn81 Zn 0.82554 0.52318 0.4475 0.0
O82 O 0.83249 0.52502 0.41567 0.0
C83 C 0.76731 0.50957 0.47092 0.0
O84 O 0.78171 0.50057 0.48536 0.0
O85 O 0.86451 0.56053 0.46273 0.0
C86 C 0.80974 0.50151 0.40476 0.0
O87 O 0.78316 0.47837 0.41465 0.0
C88 C 0.83452 0.46566 0.44961 0.0
O89 O 0.85576 0.48062 0.43396 0.0
O90 O 0.78261 0.52231 0.45354 0.0
C91 C 0.41971 0.30594 0.48756 0.0
O92 O 0.43682 0.29786 0.50041 0.0
O93 O 0.51018 0.35083 0.46664 0.0
Zn94 Zn 0.46776 0.31279 0.45478 0.0
O95 O 0.46713 0.32078 0.42335 0.0
C96 C 0.48454 0.26792 0.47493 0.0
O97 O 0.49655 0.29161 0.48943 0.0
O98 O 0.42817 0.31209 0.46806 0.0
C99 C 0.48937 0.32123 0.41129 0.0
O100 O 0.51183 0.31531 0.41958 0.0
C101 C 0.52318 0.38011 0.45908 0.0
O102 O 0.50756 0.3863 0.44391 0.0
O103 O 0.46901 0.27048 0.45903 0.0
C104 C 0.68774 0.12032 0.4782 0.0
O105 O 0.70094 0.14691 0.49044 0.0
O106 O 0.63728 0.16398 0.45991 0.0
Zn107 Zn 0.67535 0.16046 0.44735 0.0
O108 O 0.66723 0.15255 0.41583 0.0
C109 C 0.71976 0.22185 0.46847 0.0
O110 O 0.69634 0.20901 0.48312 0.0
O111 O 0.67658 0.12146 0.45991 0.0
C112 C 0.69045 0.16424 0.40203 0.0
O113 O 0.72149 0.18231 0.40838 0.0
C114 C 0.60855 0.15026 0.45144 0.0
O115 O 0.60255 0.13133 0.43449 0.0
O116 O 0.71731 0.20454 0.45209 0.0
C117 C 0.91277 0.56337 0.20176 0.0
O118 O 0.9069 0.56361 0.22228 0.0
O119 O 0.81296 0.49708 0.19533 0.0
Zn120 Zn 0.8549 0.49807 0.20453 0.0
O121 O 0.85647 0.50158 0.23661 0.0
C122 C 0.83555 0.43941 0.17938 0.0
O123 O 0.8253 0.45447 0.16631 0.0
O124 O 0.89432 0.53734 0.19089 0.0
C125 C 0.83104 0.47992 0.24674 0.0
O126 O 0.80619 0.45612 0.23595 0.0
C127 C 0.80472 0.51708 0.2033 0.0
O128 O 0.82489 0.53987 0.21692 0.0
O129 O 0.85083 0.4543 0.19634 0.0
C130 C 0.43535 0.34008 0.211 0.0
O131 O 0.43661 0.32315 0.22739 0.0
O132 O 0.50233 0.31771 0.19881 0.0
Zn133 Zn 0.5036 0.35901 0.20995 0.0
O134 O 0.50673 0.35828 0.24207 0.0
C135 C 0.56307 0.42487 0.2083 0.0
O136 O 0.55133 0.4301 0.22608 0.0
O137 O 0.4619 0.35861 0.2006 0.0
C138 C 0.49652 0.37212 0.25517 0.0
O139 O 0.48327 0.38933 0.2479 0.0
C140 C 0.48993 0.29082 0.20947 0.0
O141 O 0.47594 0.28916 0.22804 0.0
O142 O 0.54581 0.39761 0.19831 0.0
C143 C 0.63373 0.09153 0.17101 0.0
O144 O 0.62703 0.10842 0.15708 0.0
O145 O 0.67761 0.18331 0.18764 0.0
Zn146 Zn 0.64089 0.14225 0.20169 0.0
O147 O 0.65152 0.14569 0.23294 0.0
C148 C 0.59343 0.15565 0.1816 0.0
O149 O 0.61506 0.16513 0.16587 0.0
O150 O 0.63925 0.10112 0.19034 0.0
C151 C 0.62974 0.12781 0.24672 0.0
O152 O 0.59938 0.10637 0.24038 0.0
C153 C 0.70769 0.19594 0.19365 0.0
O154 O 0.71514 0.18052 0.20827 0.0
O155 O 0.59817 0.1428 0.19815 0.0
C156 C 0.54075 0.8902 0.82155 0.0
O157 O 0.51665 0.8707 0.83466 0.0
O158 O 0.49647 0.80272 0.80336 0.0
Zn159 Zn 0.49698 0.84271 0.79081 0.0
O160 O 0.49883 0.83912 0.75889 0.0
C161 C 0.4371 0.84691 0.78652 0.0
O162 O 0.45081 0.86178 0.76841 0.0
O163 O 0.53713 0.88393 0.80167 0.0
C164 C 0.51703 0.86328 0.74659 0.0
O165 O 0.53596 0.89309 0.75475 0.0
C166 C 0.51322 0.79062 0.7953 0.0
O167 O 0.53276 0.80559 0.77889 0.0
O168 O 0.45342 0.839 0.7991 0.0
C169 C 0.08937 0.64024 0.79108 0.0
O170 O 0.09826 0.65267 0.77177 0.0
O171 O 0.18474 0.6681 0.79201 0.0
Zn172 Zn 0.14193 0.62671 0.78393 0.0
O173 O 0.13682 0.62796 0.7521 0.0
C174 C 0.16234 0.58759 0.80787 0.0
O175 O 0.17191 0.61239 0.82142 0.0
O176 O 0.10403 0.62638 0.79968 0.0
C177 C 0.16027 0.62967 0.7407 0.0
O178 O 0.18516 0.62904 0.75015 0.0
C179 C 0.19433 0.6959 0.78289 0.0
O180 O 0.1752 0.69815 0.76837 0.0
O181 O 0.14696 0.58729 0.79103 0.0
C182 C 0.36951 0.44587 0.81796 0.0
O183 O 0.38128 0.47099 0.8314 0.0
O184 O 0.32441 0.49424 0.80085 0.0
Zn185 Zn 0.36278 0.49091 0.7887 0.0
O186 O 0.35758 0.48836 0.75681 0.0
C187 C 0.40669 0.54934 0.81273 0.0
O188 O 0.38191 0.53591 0.82643 0.0
O189 O 0.36125 0.44947 0.79926 0.0
C190 C 0.35503 0.51123 0.74749 0.0
O191 O 0.35672 0.53576 0.75895 0.0
C192 C 0.29517 0.47739 0.79328 0.0
O193 O 0.28935 0.45571 0.778 0.0
O194 O 0.40514 0.53328 0.79589 0.0
C195 C 0.58904 0.89522 0.53979 0.0
O196 O 0.59153 0.89147 0.56038 0.0
O197 O 0.48275 0.82931 0.53467 0.0
Zn198 Zn 0.52613 0.83435 0.54487 0.0
O199 O 0.52948 0.84265 0.57653 0.0
C200 C 0.50963 0.7744 0.5225 0.0
O201 O 0.50063 0.7886 0.50791 0.0
O202 O 0.56394 0.87302 0.52965 0.0
C203 C 0.51044 0.81938 0.58914 0.0
O204 O 0.48908 0.79007 0.58118 0.0
C205 C 0.46831 0.84313 0.54373 0.0
O206 O 0.48258 0.86282 0.56019 0.0
O207 O 0.52385 0.7906 0.53936 0.0
C208 C 0.09688 0.67656 0.53675 0.0
O209 O 0.09323 0.66102 0.55493 0.0
O210 O 0.16631 0.65179 0.53018 0.0
Zn211 Zn 0.16347 0.69043 0.54236 0.0
O212 O 0.15676 0.68302 0.57409 0.0
C213 C 0.22531 0.73426 0.52141 0.0
O214 O 0.21221 0.71133 0.50646 0.0
O215 O 0.12565 0.69245 0.52834 0.0
C216 C 0.17845 0.67891 0.58372 0.0
O217 O 0.20338 0.68069 0.57267 0.0
C218 C 0.14835 0.62228 0.53713 0.0
O219 O 0.12594 0.61632 0.55192 0.0
O220 O 0.20793 0.73178 0.53775 0.0
C221 C 0.30111 0.4145 0.54575 0.0
O222 O 0.29627 0.41486 0.56641 0.0
O223 O 0.3419 0.51974 0.53585 0.0
Zn224 Zn 0.30305 0.47747 0.54724 0.0
O225 O 0.30818 0.47765 0.57911 0.0
C226 C 0.25919 0.49096 0.52297 0.0
O227 O 0.28263 0.49919 0.50854 0.0
O228 O 0.30338 0.43805 0.53422 0.0
C229 C 0.31101 0.50199 0.59004 0.0
O230 O 0.30978 0.52635 0.58027 0.0
C231 C 0.37102 0.53209 0.54358 0.0
O232 O 0.37646 0.51615 0.55891 0.0
O233 O 0.26146 0.47879 0.54062 0.0
H234 H 0.42016 0.3584 0.17287 0.0
H235 H 0.22464 0.25406 0.19621 0.0
H236 H 0.37655 0.31002 0.23278 0.0
H237 H 0.26682 0.28615 0.13324 0.0
H238 H 0.28041 0.28566 0.21143 0.0
H239 H 0.36453 0.3429 0.15985 0.0
C240 C 0.39897 0.34495 0.18339 0.0
C241 C 0.40289 0.335 0.20381 0.0
C242 C 0.27741 0.28612 0.1943 0.0
C243 C 0.33936 0.31726 0.18905 0.0
C244 C 0.24555 0.26815 0.18559 0.0
C245 C 0.24111 0.26695 0.16337 0.0
C246 C 0.30505 0.30298 0.1807 0.0
C247 C 0.26913 0.28599 0.15044 0.0
C248 C 0.36724 0.33605 0.17593 0.0
C249 C 0.37461 0.31775 0.2168 0.0
N250 N 0.29998 0.3029 0.15927 0.0
N251 N 0.34403 0.30918 0.20913 0.0
H252 H 0.69488 0.97706 0.09534 0.0
H253 H 0.64999 0.05337 0.1957 0.0
H254 H 0.7327 0.98285 0.15911 0.0
H255 H 0.63126 0.06835 0.13026 0.0
H256 H 0.66818 0.0153 0.18337 0.0
H257 H 0.65964 0.99818 0.10895 0.0
C258 C 0.69535 0.98219 0.11227 0.0
C259 C 0.71718 0.97872 0.12607 0.0
C260 C 0.65972 0.02661 0.17172 0.0
C261 C 0.67702 0.00292 0.14166 0.0
C262 C 0.64928 0.04835 0.17874 0.0
C263 C 0.63968 0.06459 0.16394 0.0
C264 C 0.66062 0.02105 0.14975 0.0
C265 C 0.63887 0.05672 0.14221 0.0
C266 C 0.67531 0.99436 0.11999 0.0
C267 C 0.71661 0.98561 0.14785 0.0
N268 N 0.64964 0.03579 0.13573 0.0
N269 N 0.69712 0.99769 0.15493 0.0
H270 H 0.93017 0.57248 0.15938 0.0
H271 H 0.02389 0.76987 0.16944 0.0
H272 H 0.95149 0.62499 0.21952 0.0
H273 H 0.0092 0.7179 0.10959 0.0
H274 H 0.0039 0.71736 0.1884 0.0
H275 H 0.96522 0.62542 0.14124 0.0
C276 C 0.94254 0.59509 0.16882 0.0
C277 C 0.93747 0.59436 0.19097 0.0
C278 C 0.00542 0.71747 0.17113 0.0
C279 C 0.97743 0.65507 0.17029 0.0
C280 C 0.01685 0.74748 0.16029 0.0
C281 C 0.01774 0.7482 0.13787 0.0
C282 C 0.99452 0.6879 0.15948 0.0
C283 C 0.00862 0.71847 0.12687 0.0
C284 C 0.96257 0.62532 0.15844 0.0
C285 C 0.95438 0.62439 0.20239 0.0
N286 N 0.99695 0.68944 0.13778 0.0
N287 N 0.97325 0.65356 0.19188 0.0
H288 H 0.34464 0.38885 0.79421 0.0
H289 H 0.30654 0.27254 0.89635 0.0
H290 H 0.37627 0.42652 0.85816 0.0
H291 H 0.26263 0.23721 0.83416 0.0
H292 H 0.34187 0.328 0.88123 0.0
H293 H 0.32442 0.33252 0.80731 0.0
C294 C 0.3477 0.38535 0.81098 0.0
C295 C 0.36167 0.41242 0.82519 0.0
C296 C 0.3248 0.30799 0.87086 0.0
C297 C 0.33836 0.34785 0.8403 0.0
C298 C 0.30469 0.27628 0.87945 0.0
C299 C 0.28121 0.25032 0.86656 0.0
C300 C 0.32145 0.3137 0.84922 0.0
C301 C 0.28005 0.25659 0.84476 0.0
C302 C 0.3361 0.35313 0.81845 0.0
C303 C 0.36532 0.40635 0.84669 0.0
N304 N 0.29962 0.28772 0.83683 0.0
N305 N 0.35335 0.37463 0.85365 0.0
H306 H 0.75315 0.0107 0.83405 0.0
H307 H 0.55969 0.90528 0.86337 0.0
H308 H 0.71449 0.96965 0.89637 0.0
H309 H 0.59705 0.93217 0.79893 0.0
H310 H 0.61631 0.93969 0.8768 0.0
H311 H 0.69634 0.99267 0.82216 0.0
C312 C 0.7328 0.99835 0.84531 0.0
C313 C 0.73845 0.99115 0.86612 0.0
C314 C 0.61207 0.9384 0.85973 0.0
C315 C 0.6736 0.97051 0.85267 0.0
C316 C 0.5797 0.91881 0.85204 0.0
C317 C 0.57369 0.91533 0.82998 0.0
C318 C 0.63863 0.95456 0.84525 0.0
C319 C 0.6006 0.93374 0.81608 0.0
C320 C 0.70039 0.988 0.83851 0.0
C321 C 0.71121 0.97523 0.88008 0.0
N322 N 0.63198 0.95223 0.82393 0.0
N323 N 0.67996 0.96519 0.87305 0.0
H324 H 0.06617 0.61936 0.83177 0.0
H325 H 0.00197 0.69982 0.89194 0.0
H326 H 0.05874 0.67456 0.7788 0.0
H327 H 0.97962 0.729 0.83163 0.0
H328 H 0.02188 0.66769 0.87291 0.0
H329 H 0.0326 0.63507 0.85331 0.0
C330 C 0.05741 0.63477 0.82467 0.0
C331 C 0.06583 0.64618 0.80357 0.0
C332 C 0.01192 0.68029 0.86369 0.0
C333 C 0.02816 0.66536 0.82839 0.0
C334 C 0.00063 0.6989 0.87466 0.0
C335 C 0.98948 0.71748 0.86338 0.0
C336 C 0.01195 0.68016 0.8412 0.0
C337 C 0.98832 0.71534 0.841 0.0
C338 C 0.03842 0.64409 0.83709 0.0
C339 C 0.05328 0.66555 0.79508 0.0
N340 N -0.00022 0.69738 0.83068 0.0
N341 N 0.0354 0.67478 0.80758 0.0
H342 H 0.95063 0.62901 0.43686 0.0
H343 H 0.0947 0.70329 0.49813 0.0
H344 H 0.89818 0.58909 0.49623 0.0
H345 H 0.03156 0.63915 0.5485 0.0
H346 H 0.04539 0.68963 0.47717 0.0
H347 H 0.00239 0.65951 0.45658 0.0
C348 C 0.94993 0.62721 0.45413 0.0
C349 C 0.92006 0.60611 0.46487 0.0
C350 C 0.04209 0.67824 0.49269 0.0
C351 C 0.9795 0.64147 0.48785 0.0
C352 C 0.07041 0.68636 0.50479 0.0
C353 C 0.0673 0.67185 0.52493 0.0
C354 C 0.01043 0.65506 0.50071 0.0
C355 C 0.03521 0.65058 0.53293 0.0
C356 C 0.97966 0.64487 0.4655 0.0
C357 C 0.92066 0.60477 0.48724 0.0
N358 N 0.00811 0.64259 0.5207 0.0
N359 N 0.94993 0.62186 0.49793 0.0
H360 H 0.30729 0.40318 0.50353 0.0
H361 H 0.39918 0.30227 0.52916 0.0
H362 H 0.3133 0.37027 0.56696 0.0
H363 H 0.38135 0.3247 0.4653 0.0
H364 H 0.36225 0.32112 0.54312 0.0
H365 H 0.32856 0.36879 0.48896 0.0
C366 C 0.31269 0.38839 0.51438 0.0
C367 C 0.30898 0.38998 0.53652 0.0
C368 C 0.36607 0.32148 0.52603 0.0
C369 C 0.33375 0.35083 0.51997 0.0
C370 C 0.38716 0.31071 0.51805 0.0
C371 C 0.39382 0.31244 0.49606 0.0
C372 C 0.35177 0.33424 0.51192 0.0
C373 C 0.37735 0.32336 0.4824 0.0
C374 C 0.32483 0.36872 0.50605 0.0
C375 C 0.31605 0.37001 0.54979 0.0
N376 N 0.35745 0.33424 0.49058 0.0
N377 N 0.32858 0.35164 0.54134 0.0
H378 H 0.70024 0.10559 0.5184 0.0
H379 H 0.5934 0.91038 0.49726 0.0
H380 H 0.66222 0.06139 0.45659 0.0
H381 H 0.63661 0.95314 0.55848 0.0
H382 H 0.62496 0.96546 0.48116 0.0
H383 H 0.68362 0.05031 0.5325 0.0
C384 C 0.68881 0.08436 0.50772 0.0
C385 C 0.68212 0.08806 0.48637 0.0
C386 C 0.6279 0.96278 0.49807 0.0
C387 C 0.66291 0.02478 0.5024 0.0
C388 C 0.60987 0.93129 0.50728 0.0
C389 C 0.61198 0.92722 0.52931 0.0
C390 C 0.64792 0.99051 0.51103 0.0
C391 C 0.63399 0.95517 0.54145 0.0
C392 C 0.67931 0.05279 0.51578 0.0
C393 C 0.66744 0.05969 0.47324 0.0
N394 N 0.65074 0.98573 0.53221 0.0
N395 N 0.658 0.02925 0.48152 0.0
H396 H 0.069 0.19653 0.1151 0.0
H397 H 0.89727 0.04538 0.15562 0.0
H398 H 0.05867 0.1402 0.17224 0.0
H399 H 0.90507 0.10819 0.10261 0.0
H400 H 0.95525 0.08437 0.16459 0.0
H401 H 0.00839 0.16966 0.11298 0.0
C402 C 0.05404 0.17896 0.12742 0.0
C403 C 0.06895 0.17019 0.14367 0.0
C404 C 0.94421 0.0899 0.15116 0.0
C405 C -0.00044 0.13904 0.14118 0.0
C406 C 0.91107 0.06759 0.14601 0.0
C407 C 0.89642 0.0733 0.12816 0.0
C408 C 0.96303 0.11796 0.13822 0.0
C409 C 0.91543 0.10266 0.11641 0.0
C410 C 0.0194 0.16356 0.12617 0.0
C411 C 0.04829 0.14743 0.15926 0.0
N412 N 0.9479 0.12366 0.12147 0.0
N413 N 0.01467 0.13228 0.15744 0.0
H414 H 0.85904 0.92858 0.17002 0.0
H415 H 0.90022 0.8083 0.10155 0.0
H416 H 0.81506 0.88782 0.1086 0.0
H417 H 0.95883 0.86736 0.15506 0.0
H418 H 0.8606 0.82735 0.1082 0.0
H419 H 0.88692 0.89597 0.16903 0.0
C420 C 0.85477 0.91237 0.15648 0.0
C421 C 0.83507 0.91134 0.1392 0.0
C422 C 0.88195 0.83582 0.11862 0.0
C423 C 0.86712 0.8741 0.13794 0.0
C424 C 0.90453 0.8249 0.11487 0.0
C425 C 0.93311 0.83659 0.1276 0.0
C426 C 0.88789 0.85843 0.13528 0.0
C427 C 0.93735 0.858 0.14468 0.0
C428 C 0.87084 0.89385 0.1559 0.0
C429 C 0.83033 0.88968 0.12216 0.0
N430 N 0.91513 0.86842 0.14792 0.0
N431 N 0.84654 0.87219 0.12185 0.0
H432 H 0.14034 0.10866 0.15891 0.0
H433 H 0.12184 0.93924 0.11616 0.0
H434 H 0.19782 0.10347 0.10633 0.0
H435 H 0.07379 0.94661 0.17334 0.0
H436 H 0.15525 -8e-05 0.1149 0.0
H437 H 0.12089 0.05038 0.16698 0.0
C438 C 0.14918 0.09536 0.1492 0.0
C439 C 0.17039 0.11085 0.13173 0.0
C440 C 0.13776 0.98827 0.12791 0.0
C441 C 0.14796 0.04393 0.14078 0.0
C442 C 0.11869 0.95358 0.12866 0.0
C443 C 0.09458 0.9378 0.14469 0.0
C444 C 0.13248 0.00733 0.14319 0.0
C445 C 0.0918 0.95768 0.16054 0.0
C446 C 0.1381 0.06206 0.15384 0.0
C447 C 0.18129 0.09247 0.11985 0.0
N448 N 0.11013 0.99141 0.1592 0.0
N449 N 0.16957 0.05984 0.1244 0.0
H450 H 0.10394 0.89668 0.89311 0.0
H451 H 0.13538 0.05558 0.8254 0.0
H452 H 0.0407 0.89356 0.84166 0.0
H453 H 0.18587 0.06154 0.8845 0.0
H454 H 0.10889 0.99499 0.82655 0.0
H455 H 0.14201 0.95564 0.88557 0.0
C456 C 0.09828 0.90824 0.88004 0.0
C457 C 0.06885 0.89026 0.86818 0.0
C458 C 0.12609 0.00958 0.83913 0.0
C459 C 0.11228 0.95769 0.85951 0.0
C460 C 0.14134 0.04422 0.83845 0.0
C461 C 0.16249 0.06367 0.85506 0.0
C462 C 0.13205 0.99427 0.85652 0.0
C463 C 0.16943 0.04751 0.87148 0.0
C464 C 0.11999 0.94193 0.87578 0.0
C465 C 0.06289 0.90654 0.85138 0.0
N466 N 0.15396 0.01373 0.87192 0.0
N467 N 0.08426 0.93938 0.84766 0.0
H468 H 0.10749 0.20838 0.89004 0.0
H469 H 0.9347 0.07577 0.83696 0.0
H470 H 0.0957 0.1321 0.84552 0.0
H471 H 0.94334 0.14134 0.88865 0.0
H472 H 0.99527 0.10508 0.83405 0.0
H473 H 0.04936 0.19253 0.88406 0.0
C474 C 0.09285 0.18862 0.87878 0.0
C475 C 0.10634 0.17119 0.86851 0.0
C476 C 0.98391 0.11337 0.84583 0.0
C477 C 0.03983 0.15294 0.86163 0.0
C478 C 0.94928 0.09672 0.84746 0.0
C479 C 0.93388 0.10567 0.86337 0.0
C480 C 0.00334 0.13913 0.86023 0.0
C481 C 0.95411 0.13327 0.87634 0.0
C482 C 0.05964 0.17956 0.8754 0.0
C483 C 0.08622 0.14593 0.854 0.0
N484 N 0.98783 0.14871 0.8747 0.0
N485 N 0.05391 0.13736 0.85116 0.0
H486 H 0.92342 0.84797 0.82199 0.0
H487 H 0.80832 0.89146 0.8937 0.0
H488 H 0.88245 0.8027 0.88309 0.0
H489 H 0.8586 0.94452 0.83631 0.0
H490 H 0.82549 0.85073 0.88612 0.0
H491 H 0.88987 0.87487 0.82305 0.0
C492 C 0.90693 0.84318 0.83546 0.0
C493 C 0.90622 0.82353 0.85267 0.0
C494 C 0.83242 0.87105 0.87505 0.0
C495 C 0.86799 0.85452 0.85406 0.0
C496 C 0.82259 0.89432 0.87934 0.0
C497 C 0.83253 0.92179 0.86581 0.0
C498 C 0.85239 0.8753 0.85711 0.0
C499 C 0.85075 0.924 0.84735 0.0
C500 C 0.88785 0.85866 0.83608 0.0
C501 C 0.88416 0.81802 0.8696 0.0
N502 N 0.86043 0.9013 0.84368 0.0
N503 N 0.86627 0.83381 0.87 0.0
H504 H 0.72928 0.52328 0.44401 0.0
H505 H 0.56061 0.3776 0.49192 0.0
H506 H 0.72389 0.47153 0.50242 0.0
H507 H 0.56425 0.44001 0.43979 0.0
H508 H 0.61977 0.41566 0.49836 0.0
H509 H 0.66872 0.49759 0.44449 0.0
C510 C 0.71542 0.50694 0.45713 0.0
C511 C 0.73166 0.49915 0.47302 0.0
C512 C 0.60756 0.42132 0.48569 0.0
C513 C 0.66227 0.46931 0.47352 0.0
C514 C 0.57376 0.39955 0.48199 0.0
C515 C 0.55756 0.40539 0.4651 0.0
C516 C 0.62544 0.44893 0.47224 0.0
C517 C 0.57578 0.43439 0.45289 0.0
C518 C 0.68081 0.49224 0.45738 0.0
C519 C 0.71243 0.478 0.4897 0.0
N520 N 0.60887 0.45481 0.45649 0.0
N521 N 0.67872 0.46342 0.48933 0.0
H522 H 0.46817 0.21763 0.44593 0.0
H523 H 0.61148 0.18591 0.48705 0.0
H524 H 0.52376 0.25984 0.50401 0.0
H525 H 0.54978 0.13594 0.43235 0.0
H526 H 0.57485 0.20758 0.49603 0.0
H527 H 0.49253 0.18187 0.44322 0.0
C528 C 0.48508 0.21902 0.4583 0.0
C529 C 0.49433 0.24217 0.47505 0.0
C530 C 0.56903 0.19153 0.48221 0.0
C531 C 0.52259 0.20154 0.47191 0.0
C532 C 0.58998 0.17915 0.47706 0.0
C533 C 0.58396 0.15945 0.45874 0.0
C534 C 0.54203 0.18448 0.46882 0.0
C535 C 0.55555 0.15126 0.44652 0.0
C536 C 0.49904 0.19861 0.45673 0.0
C537 C 0.51619 0.24267 0.49068 0.0
N538 N 0.5359 0.1642 0.45161 0.0
N539 N 0.52992 0.22303 0.48857 0.0
H540 H 0.79672 0.43018 0.48383 0.0
H541 H 0.7696 0.25793 0.43956 0.0
H542 H 0.85009 0.42274 0.42955 0.0
H543 H 0.72683 0.26784 0.49848 0.0
H544 H 0.80411 0.31854 0.4377 0.0
H545 H 0.77549 0.37145 0.49147 0.0
C546 C 0.80425 0.41627 0.47364 0.0
C547 C 0.8249 0.4313 0.45587 0.0
C548 C 0.78753 0.30744 0.4512 0.0
C549 C 0.8004 0.36385 0.46443 0.0
C550 C 0.76784 0.2728 0.45229 0.0
C551 C 0.7449 0.25777 0.46904 0.0
C552 C 0.78406 0.32718 0.46686 0.0
C553 C 0.74388 0.27831 0.48514 0.0
C554 C 0.79215 0.3827 0.47803 0.0
C555 C 0.83407 0.41211 0.44334 0.0
N556 N 0.7628 0.31195 0.48349 0.0
N557 N 0.82139 0.37925 0.44769 0.0
H558 H 0.77099 0.23549 0.20892 0.0
H559 H 0.79343 0.39695 0.14878 0.0
H560 H 0.70128 0.23417 0.1629 0.0
H561 H 0.85135 0.40019 0.20354 0.0
H562 H 0.76759 0.33637 0.14808 0.0
H563 H 0.80833 0.29454 0.20135 0.0
C564 C 0.76375 0.24745 0.19698 0.0
C565 C 0.73271 0.22998 0.18678 0.0
C566 C 0.78628 0.35039 0.16007 0.0
C567 C 0.77529 0.29757 0.17811 0.0
C568 C 0.80115 0.38501 0.16045 0.0
C569 C 0.82421 0.40366 0.17647 0.0
C570 C 0.79456 0.33429 0.1758 0.0
C571 C 0.83338 0.38679 0.19106 0.0
C572 C 0.78505 0.2812 0.19272 0.0
C573 C 0.72477 0.24676 0.17136 0.0
N574 N 0.81825 0.35303 0.19053 0.0
N575 N 0.74576 0.2797 0.16766 0.0
H576 H 0.77433 0.54729 0.22329 0.0
H577 H 0.59664 0.41888 0.17414 0.0
H578 H 0.75795 0.47424 0.1749 0.0
H579 H 0.61045 0.48056 0.22926 0.0
H580 H 0.65682 0.44826 0.16887 0.0
H581 H 0.71587 0.53203 0.22041 0.0
C582 C 0.75859 0.5284 0.21183 0.0
C583 C 0.77093 0.51165 0.19955 0.0
C584 C 0.64667 0.45569 0.18195 0.0
C585 C 0.70403 0.49405 0.19623 0.0
C586 C 0.61225 0.43899 0.18494 0.0
C587 C 0.59847 0.44682 0.20243 0.0
C588 C 0.6675 0.48036 0.19658 0.0
C589 C 0.61998 0.47337 0.21573 0.0
C590 C 0.7252 0.51966 0.21024 0.0
C591 C 0.74941 0.4875 0.18489 0.0
N592 N 0.65348 0.48888 0.21271 0.0
N593 N 0.71695 0.47921 0.1838 0.0
H594 H 0.47455 0.23345 0.23089 0.0
H595 H 0.58118 0.19003 0.15093 0.0
H596 H 0.51783 0.28599 0.17203 0.0
H597 H 0.54851 0.1457 0.2133 0.0
H598 H 0.54749 0.21644 0.15492 0.0
H599 H 0.49112 0.19289 0.22123 0.0
C600 C 0.48712 0.23623 0.21579 0.0
C601 C 0.49533 0.26351 0.20242 0.0
C602 C 0.54732 0.20056 0.16761 0.0
C603 C 0.51445 0.21721 0.19131 0.0
C604 C 0.56648 0.18535 0.16532 0.0
C605 C 0.56819 0.16612 0.18198 0.0
C606 C 0.52981 0.19658 0.18672 0.0
C607 C 0.54832 0.1607 0.20016 0.0
C608 C 0.49662 0.21306 0.2103 0.0
C609 C 0.5114 0.26563 0.18298 0.0
N610 N 0.53033 0.17625 0.20217 0.0
N611 N 0.52077 0.24302 0.17813 0.0
H612 H 0.2275 0.75486 0.76103 0.0
H613 H 0.39953 0.80969 0.82043 0.0
H614 H 0.23855 0.70133 0.81366 0.0
H615 H 0.3922 0.85197 0.76074 0.0
H616 H 0.33889 0.77821 0.82268 0.0
H617 H 0.28589 0.7982 0.76514 0.0
C618 C 0.24205 0.75242 0.77363 0.0
C619 C 0.22824 0.72419 0.78684 0.0
C620 C 0.35055 0.7947 0.80923 0.0
C621 C 0.29502 0.77369 0.79161 0.0
C622 C 0.38522 0.81282 0.80796 0.0
C623 C 0.40102 0.83309 0.79016 0.0
C624 C 0.33149 0.79682 0.79259 0.0
C625 C 0.38111 0.83635 0.77462 0.0
C626 C 0.2754 0.77715 0.77594 0.0
C627 C 0.24826 0.72245 0.80295 0.0
N628 N 0.34735 0.81805 0.77605 0.0
N629 N 0.28069 0.74671 0.80477 0.0
H630 H 0.23373 0.45478 0.77531 0.0
H631 H 0.20338 0.58653 0.8388 0.0
H632 H 0.29818 0.5193 0.82514 0.0
H633 H 0.14944 0.53475 0.78198 0.0
H634 H 0.23049 0.55317 0.83883 0.0
H635 H 0.19527 0.47509 0.78241 0.0
C636 C 0.23958 0.47285 0.78795 0.0
C637 C 0.26946 0.48571 0.79944 0.0
C638 C 0.21241 0.54882 0.82651 0.0
C639 C 0.22561 0.50911 0.80758 0.0
C640 C 0.19682 0.56779 0.82651 0.0
C641 C 0.17448 0.56381 0.81016 0.0
C642 C 0.20563 0.52568 0.81005 0.0
C643 C 0.1668 0.53896 0.79476 0.0
C644 C 0.21764 0.48449 0.79195 0.0
C645 C 0.27563 0.50897 0.8157 0.0
N646 N 0.18264 0.52109 0.79494 0.0
N647 N 0.25406 0.52015 0.81915 0.0
H648 H 0.47863 0.75534 0.83053 0.0
H649 H 0.459 0.58672 0.78572 0.0
H650 H 0.53296 0.7504 0.77597 0.0
H651 H 0.41208 0.59355 0.84361 0.0
H652 H 0.49325 0.64736 0.7851 0.0
H653 H 0.46092 0.69748 0.83873 0.0
C654 C 0.4872 0.74221 0.82042 0.0
C655 C 0.50684 0.75756 0.80232 0.0
C656 C 0.47585 0.63559 0.79814 0.0
C657 C 0.48635 0.69111 0.81149 0.0
C658 C 0.45631 0.60091 0.79852 0.0
C659 C 0.43215 0.58503 0.81452 0.0
C660 C 0.47101 0.65451 0.81375 0.0
C661 C 0.43003 0.60471 0.83079 0.0
C662 C 0.4771 0.70914 0.82513 0.0
C663 C 0.51753 0.73945 0.78996 0.0
N664 N 0.44878 0.63843 0.82979 0.0
N665 N 0.5067 0.70701 0.79457 0.0
H666 H 0.47012 0.73016 0.49177 0.0
H667 H 0.43208 0.57144 0.56207 0.0
H668 H 0.52012 0.73591 0.55105 0.0
H669 H 0.36984 0.56971 0.5104 0.0
H670 H 0.4721 0.62964 0.55371 0.0
H671 H 0.44143 0.6695 0.4938 0.0
C672 C 0.47554 0.71871 0.50503 0.0
C673 C 0.49718 0.73819 0.52145 0.0
C674 C 0.44986 0.61638 0.54406 0.0
C675 C 0.46418 0.6687 0.52392 0.0
C676 C 0.42702 0.58313 0.54878 0.0
C677 C 0.39734 0.56581 0.53709 0.0
C678 C 0.44303 0.63235 0.52747 0.0
C679 C 0.3922 0.58221 0.52 0.0
C680 C 0.45901 0.68404 0.50622 0.0
C681 C 0.50335 0.7219 0.53816 0.0
N682 N 0.41467 0.61462 0.51582 0.0
N683 N 0.48662 0.68809 0.5391 0.0
H684 H 0.26138 0.78337 0.55071 0.0
H685 H 0.43365 0.80716 0.50869 0.0
H686 H 0.27185 0.74018 0.49215 0.0
H687 H 0.42528 0.85856 0.56378 0.0
H688 H 0.37541 0.78737 0.50025 0.0
H689 H 0.32197 0.81633 0.55352 0.0
C690 C 0.27639 0.78119 0.53825 0.0
C691 C 0.26148 0.75859 0.52132 0.0
C692 C 0.38637 0.80328 0.51406 0.0
C693 C 0.33089 0.79598 0.5246 0.0
C694 C 0.41965 0.81456 0.51891 0.0
C695 C 0.43427 0.83423 0.53713 0.0
C696 C 0.36739 0.81141 0.52763 0.0
C697 C 0.41498 0.84326 0.54966 0.0
C698 C 0.31102 0.8 0.5399 0.0
C699 C 0.28222 0.75702 0.50559 0.0
N700 N 0.38241 0.83143 0.54483 0.0
N701 N 0.31585 0.77508 0.50777 0.0
H702 H 0.25454 0.5281 0.49071 0.0
H703 H 0.12519 0.56081 0.55517 0.0
H704 H 0.20763 0.47893 0.54982 0.0
H705 H 0.18953 0.62455 0.50504 0.0
H706 H 0.1449 0.52187 0.54803 0.0
H707 H 0.22028 0.55425 0.49045 0.0
C708 C 0.23663 0.52231 0.50345 0.0
C709 C 0.23438 0.50175 0.52052 0.0
C710 C 0.15435 0.54417 0.53842 0.0
C711 C 0.19525 0.53177 0.52035 0.0
C712 C 0.14305 0.56638 0.54243 0.0
C713 C 0.15612 0.59624 0.53089 0.0
C714 C 0.17876 0.55181 0.52269 0.0
C715 C 0.17911 0.60205 0.51452 0.0
C716 C 0.21717 0.53737 0.50332 0.0
C717 C 0.21053 0.49498 0.53649 0.0
N718 N 0.18992 0.5802 0.51104 0.0
N719 N 0.19216 0.51028 0.53615 0.0
H720 H 0.10298 0.12404 0.05343 0.0
H721 H 0.21233 0.19596 0.94709 0.0
H722 H 0.19841 0.21484 0.05185 0.0
H723 H 0.11613 0.10611 0.94911 0.0
H724 H 0.20806 0.20329 0.98544 0.0
H725 H 0.10762 0.11719 0.01517 0.0
C726 C 0.12491 0.1426 0.04503 0.0
C727 C 0.15035 0.17008 0.05588 0.0
C728 C 0.1879 0.18197 0.97749 0.0
C729 C 0.15587 0.16231 0.01199 0.0
C730 C 0.19034 0.17774 0.95559 0.0
C731 C 0.16454 0.15036 0.94486 0.0
C732 C 0.15948 0.15865 0.98874 0.0
C733 C 0.13663 0.12758 0.9567 0.0
C734 C 0.12755 0.13865 0.02316 0.0
C735 C 0.17819 0.19329 0.04414 0.0
N736 N 0.13485 0.13225 0.97798 0.0
N737 N 0.18022 0.18887 0.02282 0.0
H738 H 0.80623 0.05196 0.94763 0.0
H739 H 0.87072 0.9828 0.042 0.0
H740 H 0.86475 0.00474 0.9372 0.0
H741 H 0.79562 0.01047 0.05065 0.0
H742 H 0.87311 0.9958 0.00399 0.0
H743 H 0.80665 0.04236 0.98602 0.0
C744 C 0.81934 0.03977 0.95341 0.0
C745 C 0.83537 0.02902 0.93918 0.0
C746 C 0.85611 0.99902 0.01422 0.0
C747 C 0.83591 0.01794 0.98303 0.0
C748 C 0.85475 0.99163 0.03592 0.0
C749 C 0.83285 0.99543 0.0495 0.0
C750 C 0.83559 0.01052 0.00606 0.0
C751 C 0.81276 0.00701 0.04074 0.0
C752 C 0.81945 0.03418 0.97531 0.0
C753 C 0.85192 0.01331 0.94757 0.0
N754 N 0.81465 0.01419 0.01957 0.0
N755 N 0.85175 0.00823 0.96894 0.0
H756 H 0.99004 0.78314 0.94736 0.0
H757 H 0.01636 0.89802 0.04949 0.0
H758 H 0.98854 0.87521 0.94516 0.0
H759 H 0.01564 0.80489 0.05285 0.0
H760 H 0.00694 0.89019 0.01108 0.0
H761 H -7e-05 0.79063 0.98589 0.0
C762 C 0.99173 0.8049 0.95497 0.0
C763 C 0.98843 0.82858 0.94301 0.0
C764 C 0.00886 0.87145 0.02019 0.0
C765 C -0.00018 0.83733 0.98706 0.0
C766 C 0.01429 0.87593 0.04215 0.0
C767 C 0.01679 0.85207 0.05442 0.0
C768 C 0.0059 0.84289 0.01036 0.0
C769 C 0.01388 0.82393 0.044 0.0
C770 C 0.9974 0.80916 0.97697 0.0
C771 C 0.9909 0.85629 0.95372 0.0
N772 N 0.00857 0.82011 0.02257 0.0
N773 N 0.99646 0.8599 0.9751 0.0
H774 H 0.77991 0.43786 0.27287 0.0
H775 H 0.86221 0.54383 0.37921 0.0
H776 H 0.87613 0.52776 0.27393 0.0
H777 H 0.76604 0.45394 0.37721 0.0
H778 H 0.86814 0.53855 0.34076 0.0
H779 H 0.77495 0.44328 0.31126 0.0
C780 C 0.80008 0.45871 0.28119 0.0
C781 C 0.82848 0.4824 0.27015 0.0
C782 C 0.84574 0.52001 0.34875 0.0
C783 C 0.82289 0.48884 0.3142 0.0
C784 C 0.84231 0.52303 0.37069 0.0
C785 C 0.81356 0.49929 0.38145 0.0
C786 C 0.82025 0.49306 0.3375 0.0
C787 C 0.78863 0.47285 0.3696 0.0
C788 C 0.7972 0.46181 0.30313 0.0
C789 C 0.85379 0.50889 0.2818 0.0
N790 N 0.79256 0.47045 0.34829 0.0
N791 N 0.85038 0.51143 0.30319 0.0
H792 H 0.52829 0.34402 0.27551 0.0
H793 H 0.45235 0.34304 0.39026 0.0
H794 H 0.46692 0.38766 0.28761 0.0
H795 H 0.52942 0.31847 0.3802 0.0
H796 H 0.45533 0.35715 0.35243 0.0
H797 H 0.52735 0.33253 0.3136 0.0
C798 C 0.51471 0.35132 0.28619 0.0
C799 C 0.49759 0.36677 0.27835 0.0
C800 C 0.47163 0.34874 0.35851 0.0
C801 C 0.49623 0.35344 0.322 0.0
C802 C 0.46986 0.34054 0.38009 0.0
C803 C 0.49063 0.32947 0.38839 0.0
C804 C 0.49415 0.34562 0.34509 0.0
C805 C 0.51293 0.32688 0.37449 0.0
C806 C 0.51422 0.34477 0.30795 0.0
C807 C 0.4805 0.37574 0.29296 0.0
N808 N 0.51402 0.33478 0.3535 0.0
N809 N 0.48008 0.36875 0.31408 0.0
H810 H 0.73309 0.18875 0.36788 0.0
H811 H 0.58873 0.09645 0.28081 0.0
H812 H 0.62923 0.1254 0.38383 0.0
H813 H 0.69076 0.16791 0.26487 0.0
H814 H 0.60373 0.10416 0.31864 0.0
H815 H 0.71865 0.17884 0.32999 0.0
C816 C 0.70727 0.1727 0.36343 0.0
C817 C 0.68233 0.15796 0.37906 0.0
C818 C 0.62284 0.11813 0.30686 0.0
C819 C 0.66564 0.1465 0.33574 0.0
C820 C 0.6143 0.1137 0.28525 0.0
C821 C 0.6385 0.13163 0.26965 0.0
C822 C 0.65584 0.14058 0.31292 0.0
C823 C 0.67125 0.15363 0.27635 0.0
C824 C 0.69904 0.16708 0.34179 0.0
C825 C 0.64928 0.13737 0.37234 0.0
N826 N 0.67895 0.1575 0.29748 0.0
N827 N 0.64191 0.13227 0.3512 0.0
H828 H 0.47524 0.7746 0.62068 0.0
H829 H 0.55215 0.90887 0.71521 0.0
H830 H 0.54867 0.87804 0.61059 0.0
H831 H 0.48133 0.80455 0.72495 0.0
H832 H 0.55115 0.89836 0.67683 0.0
H833 H 0.47717 0.78534 0.65899 0.0
C834 C 0.49179 0.79958 0.62652 0.0
C835 C 0.51179 0.82546 0.6124 0.0
C836 C 0.53586 0.87779 0.68738 0.0
C837 C 0.51409 0.83798 0.65628 0.0
C838 C 0.5364 0.88377 0.7093 0.0
C839 C 0.51678 0.85757 0.72333 0.0
C840 C 0.51553 0.84537 0.67944 0.0
C841 C 0.49685 0.82554 0.71475 0.0
C842 C 0.49289 0.8057 0.64841 0.0
C843 C 0.53282 0.85733 0.62089 0.0
N844 N 0.49673 0.82037 0.69339 0.0
N845 N 0.53337 0.8627 0.64228 0.0
H846 H 0.22037 0.66811 0.60845 0.0
H847 H 0.11538 0.63683 0.71616 0.0
H848 H 0.12941 0.67168 0.61152 0.0
H849 H 0.20684 0.63435 0.71206 0.0
H850 H 0.1189 0.64805 0.67776 0.0
H851 H 0.21487 0.6546 0.64636 0.0
C852 C 0.19923 0.6661 0.6171 0.0
C853 C 0.17536 0.67113 0.60679 0.0
C854 C 0.13812 0.64494 0.68527 0.0
C855 C 0.16884 0.65553 0.65032 0.0
C856 C 0.13609 0.63846 0.70718 0.0
C857 C 0.1609 0.63471 0.71735 0.0
C858 C 0.16514 0.64769 0.67347 0.0
C859 C 0.18718 0.63712 0.70492 0.0
C860 C 0.19608 0.65833 0.63878 0.0
C861 C 0.14845 0.66809 0.61884 0.0
N862 N 0.18864 0.64353 0.68368 0.0
N863 N 0.14593 0.66051 0.63999 0.0
H864 H 0.3185 0.55045 0.61821 0.0
H865 H 0.34835 0.46316 0.7192 0.0
H866 H 0.31704 0.45693 0.61491 0.0
H867 H 0.34786 0.55569 0.72276 0.0
H868 H 0.33731 0.46067 0.6809 0.0
H869 H 0.32939 0.55289 0.65653 0.0
C870 C 0.3204 0.53039 0.62554 0.0
C871 C 0.31685 0.50345 0.61332 0.0
C872 C 0.33964 0.48154 0.69005 0.0
C873 C 0.32942 0.50613 0.65719 0.0
C874 C 0.34599 0.483 0.71193 0.0
C875 C 0.34905 0.50969 0.72422 0.0
C876 C 0.33632 0.50695 0.68037 0.0
C877 C 0.34571 0.53465 0.71393 0.0
C878 C 0.32665 0.53181 0.64743 0.0
C879 C 0.31958 0.47817 0.62369 0.0
N880 N 0.33951 0.53266 0.69261 0.0
N881 N 0.32574 0.48016 0.64501 0.0
loop_
_geom_bond_atom_site_label_1
_geom_bond_atom_site_label_2
_geom_bond_distance
_geom_bond_site_symmetry_2
_ccdc_geom_bond_type
C0 O1 1.160 . S
C0 O7 1.185 . S
O1 C0 1.160 . S
O2 Zn3 1.899 . S
O2 C10 1.284 . S
Zn3 O2 1.899 . S
Zn3 O4 2.032 . S
Zn3 O7 2.086 . S
Zn3 O12 1.977 . S
O4 Zn3 2.032 . S
O4 C8 1.278 . S
C5 O6 1.203 . S
C5 O12 1.267 . S
O6 C5 1.203 . S
O7 C0 1.185 . S
O7 Zn3 2.086 . S
C8 O4 1.278 . S
C8 O9 1.211 . S
O9 C8 1.211 . S
C10 O2 1.284 . S
C10 O11 1.273 . S
O11 C10 1.273 . S
O12 Zn3 1.977 . S
O12 C5 1.267 . S
C13 O14 1.160 . S
C13 O20 1.185 1_545 S
O14 C13 1.160 . S
O15 Zn16 1.899 1_545 S
O15 C23 1.284 . S
Zn16 O15 1.899 1_565 S
Zn16 O17 2.032 1_565 S
Zn16 O20 2.086 . S
Zn16 O25 1.977 . S
O17 Zn16 2.032 1_545 S
O17 C21 1.278 1_545 S
C18 O19 1.203 . S
C18 O25 1.267 . S
O19 C18 1.203 . S
O20 C13 1.185 1_565 S
O20 Zn16 2.086 . S
C21 O17 1.278 1_565 S
C21 O22 1.211 . S
O22 C21 1.211 . S
C23 O15 1.284 . S
C23 O24 1.273 . S
O24 C23 1.273 . S
O25 Zn16 1.977 . S
O25 C18 1.267 . S
C26 O27 1.160 . S
C26 O33 1.185 1_655 S
O27 C26 1.160 . S
O28 Zn29 1.899 1_655 S
O28 C36 1.284 . S
Zn29 O28 1.899 1_455 S
Zn29 O30 2.032 1_455 S
Zn29 O33 2.086 . S
Zn29 O38 1.977 . S
O30 Zn29 2.032 1_655 S
O30 C34 1.278 1_655 S
C31 O32 1.203 . S
C31 O38 1.267 . S
O32 C31 1.203 . S
O33 C26 1.185 1_455 S
O33 Zn29 2.086 . S
C34 O30 1.278 1_455 S
C34 O35 1.211 . S
O35 C34 1.211 . S
C36 O28 1.284 . S
C36 O37 1.273 . S
O37 C36 1.273 . S
O38 Zn29 1.977 . S
O38 C31 1.267 . S
C39 O40 1.160 . S
C39 O46 1.185 . S
O40 C39 1.160 . S
O41 Zn42 1.899 . S
O41 C49 1.284 . S
Zn42 O41 1.899 . S
Zn42 O43 2.032 . S
Zn42 O46 2.086 . S
Zn42 O51 1.977 . S
O43 Zn42 2.032 . S
O43 C47 1.278 . S
C44 O45 1.203 . S
C44 O51 1.267 . S
O45 C44 1.203 . S
O46 C39 1.185 . S
O46 Zn42 2.086 . S
C47 O43 1.278 . S
C47 O48 1.211 . S
O48 C47 1.211 . S
C49 O41 1.284 . S
C49 O50 1.273 . S
O50 C49 1.273 . S
O51 Zn42 1.977 . S
O51 C44 1.267 . S
C52 O53 1.160 . S
C52 O59 1.185 1_565 S
O53 C52 1.160 . S
O54 Zn55 1.899 1_565 S
O54 C62 1.284 . S
Zn55 O54 1.899 1_545 S
Zn55 O56 2.032 1_545 S
Zn55 O59 2.086 . S
Zn55 O64 1.977 . S
O56 Zn55 2.032 1_565 S
O56 C60 1.278 1_565 S
C57 O58 1.203 . S
C57 O64 1.267 . S
O58 C57 1.203 . S
O59 C52 1.185 1_545 S
O59 Zn55 2.086 . S
C60 O56 1.278 1_545 S
C60 O61 1.211 . S
O61 C60 1.211 . S
C62 O54 1.284 . S
C62 O63 1.273 . S
O63 C62 1.273 . S
O64 Zn55 1.977 . S
O64 C57 1.267 . S
C65 O66 1.160 . S
C65 O72 1.185 1_455 S
O66 C65 1.160 . S
O67 Zn68 1.899 1_455 S
O67 C75 1.284 . S
Zn68 O67 1.899 1_655 S
Zn68 O69 2.032 1_655 S
Zn68 O72 2.086 . S
Zn68 O77 1.977 . S
O69 Zn68 2.032 1_455 S
O69 C73 1.278 1_455 S
C70 O71 1.203 . S
C70 O77 1.267 . S
O71 C70 1.203 . S
O72 C65 1.185 1_655 S
O72 Zn68 2.086 . S
C73 O69 1.278 1_655 S
C73 O74 1.211 . S
O74 C73 1.211 . S
C75 O67 1.284 . S
C75 O76 1.273 . S
O76 C75 1.273 . S
O77 Zn68 1.977 . S
O77 C70 1.267 . S
C78 O79 1.160 . S
C78 O85 1.185 . S
O79 C78 1.160 . S
O80 Zn81 1.899 . S
O80 C88 1.284 . S
Zn81 O80 1.899 . S
Zn81 O82 2.032 . S
Zn81 O85 2.086 . S
Zn81 O90 1.977 . S
O82 Zn81 2.032 . S
O82 C86 1.278 . S
C83 O84 1.203 . S
C83 O90 1.267 . S
O84 C83 1.203 . S
O85 C78 1.185 . S
O85 Zn81 2.086 . S
C86 O82 1.278 . S
C86 O87 1.211 . S
O87 C86 1.211 . S
C88 O80 1.284 . S
C88 O89 1.273 . S
O89 C88 1.273 . S
O90 Zn81 1.977 . S
O90 C83 1.267 . S
C91 O92 1.160 . S
C91 O98 1.185 . S
O92 C91 1.160 . S
O93 Zn94 1.899 . S
O93 C101 1.284 . S
Zn94 O93 1.899 . S
Zn94 O95 2.032 . S
Zn94 O98 2.086 . S
Zn94 O103 1.977 . S
O95 Zn94 2.032 . S
O95 C99 1.278 . S
C96 O97 1.203 . S
C96 O103 1.267 . S
O97 C96 1.203 . S
O98 C91 1.185 . S
O98 Zn94 2.086 . S
C99 O95 1.278 . S
C99 O100 1.211 . S
O100 C99 1.211 . S
C101 O93 1.284 . S
C101 O102 1.273 . S
O102 C101 1.273 . S
O103 Zn94 1.977 . S
O103 C96 1.267 . S
C104 O105 1.160 . S
C104 O111 1.185 . S
O105 C104 1.160 . S
O106 Zn107 1.899 . S
O106 C114 1.284 . S
Zn107 O106 1.899 . S
Zn107 O108 2.032 . S
Zn107 O111 2.086 . S
Zn107 O116 1.977 . S
O108 Zn107 2.032 . S
O108 C112 1.278 . S
C109 O110 1.203 . S
C109 O116 1.267 . S
O110 C109 1.203 . S
O111 C104 1.185 . S
O111 Zn107 2.086 . S
C112 O108 1.278 . S
C112 O113 1.211 . S
O113 C112 1.211 . S
C114 O106 1.284 . S
C114 O115 1.273 . S
O115 C114 1.273 . S
O116 Zn107 1.977 . S
O116 C109 1.267 . S
C117 O118 1.160 . S
C117 O124 1.185 . S
O118 C117 1.160 . S
O119 Zn120 1.899 . S
O119 C127 1.284 . S
Zn120 O119 1.899 . S
Zn120 O121 2.032 . S
Zn120 O124 2.086 . S
Zn120 O129 1.977 . S
O121 Zn120 2.032 . S
O121 C125 1.278 . S
C122 O123 1.203 . S
C122 O129 1.267 . S
O123 C122 1.203 . S
O124 C117 1.185 . S
O124 Zn120 2.086 . S
C125 O121 1.278 . S
C125 O126 1.211 . S
O126 C125 1.211 . S
C127 O119 1.284 . S
C127 O128 1.273 . S
O128 C127 1.273 . S
O129 Zn120 1.977 . S
O129 C122 1.267 . S
C130 O131 1.160 . S
C130 O137 1.185 . S
O131 C130 1.160 . S
O132 Zn133 1.899 . S
O132 C140 1.284 . S
Zn133 O132 1.899 . S
Zn133 O134 2.032 . S
Zn133 O137 2.086 . S
Zn133 O142 1.977 . S
O134 Zn133 2.032 . S
O134 C138 1.278 . S
C135 O136 1.203 . S
C135 O142 1.267 . S
O136 C135 1.203 . S
O137 C130 1.185 . S
O137 Zn133 2.086 . S
C138 O134 1.278 . S
C138 O139 1.211 . S
O139 C138 1.211 . S
C140 O132 1.284 . S
C140 O141 1.273 . S
O141 C140 1.273 . S
O142 Zn133 1.977 . S
O142 C135 1.267 . S
C143 O144 1.160 . S
C143 O150 1.185 . S
O144 C143 1.160 . S
O145 Zn146 1.899 . S
O145 C153 1.284 . S
Zn146 O145 1.899 . S
Zn146 O147 2.032 . S
Zn146 O150 2.086 . S
Zn146 O155 1.977 . S
O147 Zn146 2.032 . S
O147 C151 1.278 . S
C148 O149 1.203 . S
C148 O155 1.267 . S
O149 C148 1.203 . S
O150 C143 1.185 . S
O150 Zn146 2.086 . S
C151 O147 1.278 . S
C151 O152 1.211 . S
O152 C151 1.211 . S
C153 O145 1.284 . S
C153 O154 1.273 . S
O154 C153 1.273 . S
O155 Zn146 1.977 . S
O155 C148 1.267 . S
C156 O157 1.160 . S
C156 O163 1.185 . S
O157 C156 1.160 . S
O158 Zn159 1.899 . S
O158 C166 1.284 . S
Zn159 O158 1.899 . S
Zn159 O160 2.032 . S
Zn159 O163 2.086 . S
Zn159 O168 1.977 . S
O160 Zn159 2.032 . S
O160 C164 1.278 . S
C161 O162 1.203 . S
C161 O168 1.267 . S
O162 C161 1.203 . S
O163 C156 1.185 . S
O163 Zn159 2.086 . S
C164 O160 1.278 . S
C164 O165 1.211 . S
O165 C164 1.211 . S
C166 O158 1.284 . S
C166 O167 1.273 . S
O167 C166 1.273 . S
O168 Zn159 1.977 . S
O168 C161 1.267 . S
C169 O170 1.160 . S
C169 O176 1.185 . S
O170 C169 1.160 . S
O171 Zn172 1.899 . S
O171 C179 1.284 . S
Zn172 O171 1.899 . S
Zn172 O173 2.032 . S
Zn172 O176 2.086 . S
Zn172 O181 1.977 . S
O173 Zn172 2.032 . S
O173 C177 1.278 . S
C174 O175 1.203 . S
C174 O181 1.267 . S
O175 C174 1.203 . S
O176 C169 1.185 . S
O176 Zn172 2.086 . S
C177 O173 1.278 . S
C177 O178 1.211 . S
O178 C177 1.211 . S
C179 O171 1.284 . S
C179 O180 1.273 . S
O180 C179 1.273 . S
O181 Zn172 1.977 . S
O181 C174 1.267 . S
C182 O183 1.160 . S
C182 O189 1.185 . S
O183 C182 1.160 . S
O184 Zn185 1.899 . S
O184 C192 1.284 . S
Zn185 O184 1.899 . S
Zn185 O186 2.032 . S
Zn185 O189 2.086 . S
Zn185 O194 1.977 . S
O186 Zn185 2.032 . S
O186 C190 1.278 . S
C187 O188 1.203 . S
C187 O194 1.267 . S
O188 C187 1.203 . S
O189 C182 1.185 . S
O189 Zn185 2.086 . S
C190 O186 1.278 . S
C190 O191 1.211 . S
O191 C190 1.211 . S
C192 O184 1.284 . S
C192 O193 1.273 . S
O193 C192 1.273 . S
O194 Zn185 1.977 . S
O194 C187 1.267 . S
C195 O196 1.160 . S
C195 O202 1.185 . S
O196 C195 1.160 . S
O197 Zn198 1.899 . S
O197 C205 1.284 . S
Zn198 O197 1.899 . S
Zn198 O199 2.032 . S
Zn198 O202 2.086 . S
Zn198 O207 1.977 . S
O199 Zn198 2.032 . S
O199 C203 1.278 . S
C200 O201 1.203 . S
C200 O207 1.267 . S
O201 C200 1.203 . S
O202 C195 1.185 . S
O202 Zn198 2.086 . S
C203 O199 1.278 . S
C203 O204 1.211 . S
O204 C203 1.211 . S
C205 O197 1.284 . S
C205 O206 1.273 . S
O206 C205 1.273 . S
O207 Zn198 1.977 . S
O207 C200 1.267 . S
C208 O209 1.160 . S
C208 O215 1.185 . S
O209 C208 1.160 . S
O210 Zn211 1.899 . S
O210 C218 1.284 . S
Zn211 O210 1.899 . S
Zn211 O212 2.032 . S
Zn211 O215 2.086 . S
Zn211 O220 1.977 . S
O212 Zn211 2.032 . S
O212 C216 1.278 . S
C213 O214 1.203 . S
C213 O220 1.267 . S
O214 C213 1.203 . S
O215 C208 1.185 . S
O215 Zn211 2.086 . S
C216 O212 1.278 . S
C216 O217 1.211 . S
O217 C216 1.211 . S
C218 O210 1.284 . S
C218 O219 1.273 . S
O219 C218 1.273 . S
O220 Zn211 1.977 . S
O220 C213 1.267 . S
C221 O222 1.160 . S
C221 O228 1.185 . S
O222 C221 1.160 . S
O223 Zn224 1.899 . S
O223 C231 1.284 . S
Zn224 O223 1.899 . S
Zn224 O225 2.032 . S
Zn224 O228 2.086 . S
Zn224 O233 1.977 . S
O225 Zn224 2.032 . S
O225 C229 1.278 . S
C226 O227 1.203 . S
C226 O233 1.267 . S
O227 C226 1.203 . S
O228 C221 1.185 . S
O228 Zn224 2.086 . S
C229 O225 1.278 . S
C229 O230 1.211 . S
O230 C229 1.211 . S
C231 O223 1.284 . S
C231 O232 1.273 . S
O232 C231 1.273 . S
O233 Zn224 1.977 . S
O233 C226 1.267 . S
H234 C240 0.930 . S
H235 C244 0.930 . S
H236 C249 0.929 . S
H237 C247 0.929 . S
H238 C242 0.929 . S
H239 C248 0.929 . S
C240 H234 0.930 . S
C240 C241 1.367 . S
C240 C248 1.378 . S
C241 C240 1.367 . S
C241 C249 1.433 . S
C242 H238 0.929 . S
C242 C244 1.378 . S
C242 C246 1.350 . S
C243 C246 1.463 . S
C243 C248 1.350 . S
C243 N251 1.427 . S
C244 H235 0.930 . S
C244 C242 1.378 . S
C244 C245 1.367 . S
C245 C244 1.367 . S
C245 C247 1.433 . S
C246 C242 1.350 . S
C246 C243 1.463 . S
C246 N250 1.427 . S
C247 H237 0.929 . S
C247 C245 1.433 . S
C247 N250 1.384 . S
C248 H239 0.929 . S
C248 C240 1.378 . S
C248 C243 1.350 . S
C249 H236 0.929 . S
C249 C241 1.433 . S
C249 N251 1.384 . S
N250 C246 1.427 . S
N250 C247 1.384 . S
N251 C243 1.427 . S
N251 C249 1.384 . S
H252 C258 0.930 . S
H253 C262 0.930 . S
H254 C267 0.929 1_565 S
H255 C265 0.929 . S
H256 C260 0.929 . S
H257 C266 0.929 . S
C258 H252 0.930 . S
C258 C259 1.367 . S
C258 C266 1.378 . S
C259 C258 1.367 . S
C259 C267 1.433 . S
C260 H256 0.929 . S
C260 C262 1.378 . S
C260 C264 1.350 . S
C261 C264 1.463 . S
C261 C266 1.350 . S
C261 N269 1.427 . S
C262 H253 0.930 . S
C262 C260 1.378 . S
C262 C263 1.367 . S
C263 C262 1.367 . S
C263 C265 1.433 . S
C264 C260 1.350 . S
C264 C261 1.463 . S
C264 N268 1.427 . S
C265 H255 0.929 . S
C265 C263 1.433 . S
C265 N268 1.384 . S
C266 H257 0.929 . S
C266 C258 1.378 . S
C266 C261 1.350 . S
C267 H254 0.929 1_545 S
C267 C259 1.433 . S
C267 N269 1.384 . S
N268 C264 1.427 . S
N268 C265 1.384 . S
N269 C261 1.427 . S
N269 C267 1.384 . S
H270 C276 0.930 . S
H271 C280 0.930 1_455 S
H272 C285 0.929 . S
H273 C283 0.929 . S
H274 C278 0.929 . S
H275 C284 0.929 . S
C276 H270 0.930 . S
C276 C277 1.367 . S
C276 C284 1.378 . S
C277 C276 1.367 . S
C277 C285 1.433 . S
C278 H274 0.929 . S
C278 C280 1.378 . S
C278 C282 1.350 . S
C279 C282 1.463 . S
C279 C284 1.350 . S
C279 N287 1.427 . S
C280 H271 0.930 1_655 S
C280 C278 1.378 . S
C280 C281 1.367 . S
C281 C280 1.367 . S
C281 C283 1.433 . S
C282 C278 1.350 . S
C282 C279 1.463 . S
C282 N286 1.427 . S
C283 H273 0.929 . S
C283 C281 1.433 . S
C283 N286 1.384 . S
C284 H275 0.929 . S
C284 C276 1.378 . S
C284 C279 1.350 . S
C285 H272 0.929 . S
C285 C277 1.433 . S
C285 N287 1.384 . S
N286 C282 1.427 . S
N286 C283 1.384 . S
N287 C279 1.427 . S
N287 C285 1.384 . S
H288 C294 0.930 . S
H289 C298 0.930 . S
H290 C303 0.929 . S
H291 C301 0.929 . S
H292 C296 0.929 . S
H293 C302 0.929 . S
C294 H288 0.930 . S
C294 C295 1.367 . S
C294 C302 1.378 . S
C295 C294 1.367 . S
C295 C303 1.433 . S
C296 H292 0.929 . S
C296 C298 1.378 . S
C296 C300 1.350 . S
C297 C300 1.463 . S
C297 C302 1.350 . S
C297 N305 1.427 . S
C298 H289 0.930 . S
C298 C296 1.378 . S
C298 C299 1.367 . S
C299 C298 1.367 . S
C299 C301 1.433 . S
C300 C296 1.350 . S
C300 C297 1.463 . S
C300 N304 1.427 . S
C301 H291 0.929 . S
C301 C299 1.433 . S
C301 N304 1.384 . S
C302 H293 0.929 . S
C302 C294 1.378 . S
C302 C297 1.350 . S
C303 H290 0.929 . S
C303 C295 1.433 . S
C303 N305 1.384 . S
N304 C300 1.427 . S
N304 C301 1.384 . S
N305 C297 1.427 . S
N305 C303 1.384 . S
H306 C312 0.930 1_545 S
H307 C316 0.930 . S
H308 C321 0.929 . S
H309 C319 0.929 . S
H310 C314 0.929 . S
H311 C320 0.929 . S
C312 H306 0.930 1_565 S
C312 C313 1.367 . S
C312 C320 1.378 . S
C313 C312 1.367 . S
C313 C321 1.433 . S
C314 H310 0.929 . S
C314 C316 1.378 . S
C314 C318 1.350 . S
C315 C318 1.463 . S
C315 C320 1.350 . S
C315 N323 1.427 . S
C316 H307 0.930 . S
C316 C314 1.378 . S
C316 C317 1.367 . S
C317 C316 1.367 . S
C317 C319 1.433 . S
C318 C314 1.350 . S
C318 C315 1.463 . S
C318 N322 1.427 . S
C319 H309 0.929 . S
C319 C317 1.433 . S
C319 N322 1.384 . S
C320 H311 0.929 . S
C320 C312 1.378 . S
C320 C315 1.350 . S
C321 H308 0.929 . S
C321 C313 1.433 . S
C321 N323 1.384 . S
N322 C318 1.427 . S
N322 C319 1.384 . S
N323 C315 1.427 . S
N323 C321 1.384 . S
H324 C330 0.930 . S
H325 C334 0.930 . S
H326 C339 0.929 . S
H327 C337 0.929 1_655 S
H328 C332 0.929 . S
H329 C338 0.929 . S
C330 H324 0.930 . S
C330 C331 1.367 . S
C330 C338 1.378 . S
C331 C330 1.367 . S
C331 C339 1.433 . S
C332 H328 0.929 . S
C332 C334 1.378 . S
C332 C336 1.350 . S
C333 C336 1.463 . S
C333 C338 1.350 . S
C333 N341 1.427 . S
C334 H325 0.930 . S
C334 C332 1.378 . S
C334 C335 1.367 . S
C335 C334 1.367 . S
C335 C337 1.433 . S
C336 C332 1.350 . S
C336 C333 1.463 . S
C336 N340 1.427 . S
C337 H327 0.929 1_455 S
C337 C335 1.433 . S
C337 N340 1.384 . S
C338 H329 0.929 . S
C338 C330 1.378 . S
C338 C333 1.350 . S
C339 H326 0.929 . S
C339 C331 1.433 . S
C339 N341 1.384 . S
N340 C336 1.427 . S
N340 C337 1.384 . S
N341 C333 1.427 . S
N341 C339 1.384 . S
H342 C348 0.930 . S
H343 C352 0.930 . S
H344 C357 0.929 . S
H345 C355 0.929 . S
H346 C350 0.929 . S
H347 C356 0.929 . S
C348 H342 0.930 . S
C348 C349 1.367 . S
C348 C356 1.378 . S
C349 C348 1.367 . S
C349 C357 1.433 . S
C350 H346 0.929 . S
C350 C352 1.378 . S
C350 C354 1.350 . S
C351 C354 1.463 1_655 S
C351 C356 1.350 . S
C351 N359 1.427 . S
C352 H343 0.930 . S
C352 C350 1.378 . S
C352 C353 1.367 . S
C353 C352 1.367 . S
C353 C355 1.433 . S
C354 C350 1.350 . S
C354 C351 1.463 1_455 S
C354 N358 1.427 . S
C355 H345 0.929 . S
C355 C353 1.433 . S
C355 N358 1.384 . S
C356 H347 0.929 . S
C356 C348 1.378 . S
C356 C351 1.350 . S
C357 H344 0.929 . S
C357 C349 1.433 . S
C357 N359 1.384 . S
N358 C354 1.427 . S
N358 C355 1.384 . S
N359 C351 1.427 . S
N359 C357 1.384 . S
H360 C366 0.930 . S
H361 C370 0.930 . S
H362 C375 0.929 . S
H363 C373 0.929 . S
H364 C368 0.929 . S
H365 C374 0.929 . S
C366 H360 0.930 . S
C366 C367 1.367 . S
C366 C374 1.378 . S
C367 C366 1.367 . S
C367 C375 1.433 . S
C368 H364 0.929 . S
C368 C370 1.378 . S
C368 C372 1.350 . S
C369 C372 1.463 . S
C369 C374 1.350 . S
C369 N377 1.427 . S
C370 H361 0.930 . S
C370 C368 1.378 . S
C370 C371 1.367 . S
C371 C370 1.367 . S
C371 C373 1.433 . S
C372 C368 1.350 . S
C372 C369 1.463 . S
C372 N376 1.427 . S
C373 H363 0.929 . S
C373 C371 1.433 . S
C373 N376 1.384 . S
C374 H365 0.929 . S
C374 C366 1.378 . S
C374 C369 1.350 . S
C375 H362 0.929 . S
C375 C367 1.433 . S
C375 N377 1.384 . S
N376 C372 1.427 . S
N376 C373 1.384 . S
N377 C369 1.427 . S
N377 C375 1.384 . S
H378 C384 0.930 . S
H379 C388 0.930 . S
H380 C393 0.929 . S
H381 C391 0.929 . S
H382 C386 0.929 . S
H383 C392 0.929 . S
C384 H378 0.930 . S
C384 C385 1.367 . S
C384 C392 1.378 . S
C385 C384 1.367 . S
C385 C393 1.433 . S
C386 H382 0.929 . S
C386 C388 1.378 . S
C386 C390 1.350 . S
C387 C390 1.463 1_545 S
C387 C392 1.350 . S
C387 N395 1.427 . S
C388 H379 0.930 . S
C388 C386 1.378 . S
C388 C389 1.367 . S
C389 C388 1.367 . S
C389 C391 1.433 . S
C390 C386 1.350 . S
C390 C387 1.463 1_565 S
C390 N394 1.427 . S
C391 H381 0.929 . S
C391 C389 1.433 . S
C391 N394 1.384 . S
C392 H383 0.929 . S
C392 C384 1.378 . S
C392 C387 1.350 . S
C393 H380 0.929 . S
C393 C385 1.433 . S
C393 N395 1.384 . S
N394 C390 1.427 . S
N394 C391 1.384 . S
N395 C387 1.427 . S
N395 C393 1.384 . S
H396 C402 0.930 . S
H397 C406 0.930 . S
H398 C411 0.929 . S
H399 C409 0.929 . S
H400 C404 0.929 . S
H401 C410 0.929 . S
C402 H396 0.930 . S
C402 C403 1.367 . S
C402 C410 1.378 . S
C403 C402 1.367 . S
C403 C411 1.433 . S
C404 H400 0.929 . S
C404 C406 1.378 . S
C404 C408 1.350 . S
C405 C408 1.463 1_455 S
C405 C410 1.350 . S
C405 N413 1.427 . S
C406 H397 0.930 . S
C406 C404 1.378 . S
C406 C407 1.367 . S
C407 C406 1.367 . S
C407 C409 1.433 . S
C408 C404 1.350 . S
C408 C405 1.463 1_655 S
C408 N412 1.427 . S
C409 H399 0.929 . S
C409 C407 1.433 . S
C409 N412 1.384 . S
C410 H401 0.929 . S
C410 C402 1.378 . S
C410 C405 1.350 . S
C411 H398 0.929 . S
C411 C403 1.433 . S
C411 N413 1.384 . S
N412 C408 1.427 . S
N412 C409 1.384 . S
N413 C405 1.427 . S
N413 C411 1.384 . S
H414 C420 0.930 . S
H415 C424 0.930 . S
H416 C429 0.929 . S
H417 C427 0.929 . S
H418 C422 0.929 . S
H419 C428 0.929 . S
C420 H414 0.930 . S
C420 C421 1.367 . S
C420 C428 1.378 . S
C421 C420 1.367 . S
C421 C429 1.433 . S
C422 H418 0.929 . S
C422 C424 1.378 . S
C422 C426 1.350 . S
C423 C426 1.463 . S
C423 C428 1.350 . S
C423 N431 1.427 . S
C424 H415 0.930 . S
C424 C422 1.378 . S
C424 C425 1.367 . S
C425 C424 1.367 . S
C425 C427 1.433 . S
C426 C422 1.350 . S
C426 C423 1.463 . S
C426 N430 1.427 . S
C427 H417 0.929 . S
C427 C425 1.433 . S
C427 N430 1.384 . S
C428 H419 0.929 . S
C428 C420 1.378 . S
C428 C423 1.350 . S
C429 H416 0.929 . S
C429 C421 1.433 . S
C429 N431 1.384 . S
N430 C426 1.427 . S
N430 C427 1.384 . S
N431 C423 1.427 . S
N431 C429 1.384 . S
H432 C438 0.930 . S
H433 C442 0.930 . S
H434 C447 0.929 . S
H435 C445 0.929 . S
H436 C440 0.929 . S
H437 C446 0.929 . S
C438 H432 0.930 . S
C438 C439 1.367 . S
C438 C446 1.378 . S
C439 C438 1.367 . S
C439 C447 1.433 . S
C440 H436 0.929 . S
C440 C442 1.378 . S
C440 C444 1.350 . S
C441 C444 1.463 1_545 S
C441 C446 1.350 . S
C441 N449 1.427 . S
C442 H433 0.930 . S
C442 C440 1.378 . S
C442 C443 1.367 . S
C443 C442 1.367 . S
C443 C445 1.433 . S
C444 C440 1.350 . S
C444 C441 1.463 1_565 S
C444 N448 1.427 . S
C445 H435 0.929 . S
C445 C443 1.433 . S
C445 N448 1.384 . S
C446 H437 0.929 . S
C446 C438 1.378 . S
C446 C441 1.350 . S
C447 H434 0.929 . S
C447 C439 1.433 . S
C447 N449 1.384 . S
N448 C444 1.427 . S
N448 C445 1.384 . S
N449 C441 1.427 . S
N449 C447 1.384 . S
H450 C456 0.930 . S
H451 C460 0.930 . S
H452 C465 0.929 . S
H453 C463 0.929 . S
H454 C458 0.929 . S
H455 C464 0.929 . S
C456 H450 0.930 . S
C456 C457 1.367 . S
C456 C464 1.378 . S
C457 C456 1.367 . S
C457 C465 1.433 . S
C458 H454 0.929 . S
C458 C460 1.378 . S
C458 C462 1.350 . S
C459 C462 1.463 1_565 S
C459 C464 1.350 . S
C459 N467 1.427 . S
C460 H451 0.930 . S
C460 C458 1.378 . S
C460 C461 1.367 . S
C461 C460 1.367 . S
C461 C463 1.433 . S
C462 C458 1.350 . S
C462 C459 1.463 1_545 S
C462 N466 1.427 . S
C463 H453 0.929 . S
C463 C461 1.433 . S
C463 N466 1.384 . S
C464 H455 0.929 . S
C464 C456 1.378 . S
C464 C459 1.350 . S
C465 H452 0.929 . S
C465 C457 1.433 . S
C465 N467 1.384 . S
N466 C462 1.427 . S
N466 C463 1.384 . S
N467 C459 1.427 . S
N467 C465 1.384 . S
H468 C474 0.930 . S
H469 C478 0.930 . S
H470 C483 0.929 . S
H471 C481 0.929 . S
H472 C476 0.929 . S
H473 C482 0.929 . S
C474 H468 0.930 . S
C474 C475 1.367 . S
C474 C482 1.378 . S
C475 C474 1.367 . S
C475 C483 1.433 . S
C476 H472 0.929 . S
C476 C478 1.378 . S
C476 C480 1.350 . S
C477 C480 1.463 1_455 S
C477 C482 1.350 . S
C477 N485 1.427 . S
C478 H469 0.930 . S
C478 C476 1.378 . S
C478 C479 1.367 . S
C479 C478 1.367 . S
C479 C481 1.433 . S
C480 C476 1.350 . S
C480 C477 1.463 1_655 S
C480 N484 1.427 . S
C481 H471 0.929 . S
C481 C479 1.433 . S
C481 N484 1.384 . S
C482 H473 0.929 . S
C482 C474 1.378 . S
C482 C477 1.350 . S
C483 H470 0.929 . S
C483 C475 1.433 . S
C483 N485 1.384 . S
N484 C480 1.427 . S
N484 C481 1.384 . S
N485 C477 1.427 . S
N485 C483 1.384 . S
H486 C492 0.930 . S
H487 C496 0.930 . S
H488 C501 0.929 . S
H489 C499 0.929 . S
H490 C494 0.929 . S
H491 C500 0.929 . S
C492 H486 0.930 . S
C492 C493 1.367 . S
C492 C500 1.378 . S
C493 C492 1.367 . S
C493 C501 1.433 . S
C494 H490 0.929 . S
C494 C496 1.378 . S
C494 C498 1.350 . S
C495 C498 1.463 . S
C495 C500 1.350 . S
C495 N503 1.427 . S
C496 H487 0.930 . S
C496 C494 1.378 . S
C496 C497 1.367 . S
C497 C496 1.367 . S
C497 C499 1.433 . S
C498 C494 1.350 . S
C498 C495 1.463 . S
C498 N502 1.427 . S
C499 H489 0.929 . S
C499 C497 1.433 . S
C499 N502 1.384 . S
C500 H491 0.929 . S
C500 C492 1.378 . S
C500 C495 1.350 . S
C501 H488 0.929 . S
C501 C493 1.433 . S
C501 N503 1.384 . S
N502 C498 1.427 . S
N502 C499 1.384 . S
N503 C495 1.427 . S
N503 C501 1.384 . S
H504 C510 0.930 . S
H505 C514 0.930 . S
H506 C519 0.929 . S
H507 C517 0.929 . S
H508 C512 0.929 . S
H509 C518 0.929 . S
C510 H504 0.930 . S
C510 C511 1.367 . S
C510 C518 1.378 . S
C511 C510 1.367 . S
C511 C519 1.433 . S
C512 H508 0.929 . S
C512 C514 1.378 . S
C512 C516 1.350 . S
C513 C516 1.463 . S
C513 C518 1.350 . S
C513 N521 1.427 . S
C514 H505 0.930 . S
C514 C512 1.378 . S
C514 C515 1.367 . S
C515 C514 1.367 . S
C515 C517 1.433 . S
C516 C512 1.350 . S
C516 C513 1.463 . S
C516 N520 1.427 . S
C517 H507 0.929 . S
C517 C515 1.433 . S
C517 N520 1.384 . S
C518 H509 0.929 . S
C518 C510 1.378 . S
C518 C513 1.350 . S
C519 H506 0.929 . S
C519 C511 1.433 . S
C519 N521 1.384 . S
N520 C516 1.427 . S
N520 C517 1.384 . S
N521 C513 1.427 . S
N521 C519 1.384 . S
H522 C528 0.930 . S
H523 C532 0.930 . S
H524 C537 0.929 . S
H525 C535 0.929 . S
H526 C530 0.929 . S
H527 C536 0.929 . S
C528 H522 0.930 . S
C528 C529 1.367 . S
C528 C536 1.378 . S
C529 C528 1.367 . S
C529 C537 1.433 . S
C530 H526 0.929 . S
C530 C532 1.378 . S
C530 C534 1.350 . S
C531 C534 1.463 . S
C531 C536 1.350 . S
C531 N539 1.427 . S
C532 H523 0.930 . S
C532 C530 1.378 . S
C532 C533 1.367 . S
C533 C532 1.367 . S
C533 C535 1.433 . S
C534 C530 1.350 . S
C534 C531 1.463 . S
C534 N538 1.427 . S
C535 H525 0.929 . S
C535 C533 1.433 . S
C535 N538 1.384 . S
C536 H527 0.929 . S
C536 C528 1.378 . S
C536 C531 1.350 . S
C537 H524 0.929 . S
C537 C529 1.433 . S
C537 N539 1.384 . S
N538 C534 1.427 . S
N538 C535 1.384 . S
N539 C531 1.427 . S
N539 C537 1.384 . S
H540 C546 0.930 . S
H541 C550 0.930 . S
H542 C555 0.929 . S
H543 C553 0.929 . S
H544 C548 0.929 . S
H545 C554 0.929 . S
C546 H540 0.930 . S
C546 C547 1.367 . S
C546 C554 1.378 . S
C547 C546 1.367 . S
C547 C555 1.433 . S
C548 H544 0.929 . S
C548 C550 1.378 . S
C548 C552 1.350 . S
C549 C552 1.463 . S
C549 C554 1.350 . S
C549 N557 1.427 . S
C550 H541 0.930 . S
C550 C548 1.378 . S
C550 C551 1.367 . S
C551 C550 1.367 . S
C551 C553 1.433 . S
C552 C548 1.350 . S
C552 C549 1.463 . S
C552 N556 1.427 . S
C553 H543 0.929 . S
C553 C551 1.433 . S
C553 N556 1.384 . S
C554 H545 0.929 . S
C554 C546 1.378 . S
C554 C549 1.350 . S
C555 H542 0.929 . S
C555 C547 1.433 . S
C555 N557 1.384 . S
N556 C552 1.427 . S
N556 C553 1.384 . S
N557 C549 1.427 . S
N557 C555 1.384 . S
H558 C564 0.930 . S
H559 C568 0.930 . S
H560 C573 0.929 . S
H561 C571 0.929 . S
H562 C566 0.929 . S
H563 C572 0.929 . S
C564 H558 0.930 . S
C564 C565 1.367 . S
C564 C572 1.378 . S
C565 C564 1.367 . S
C565 C573 1.433 . S
C566 H562 0.929 . S
C566 C568 1.378 . S
C566 C570 1.350 . S
C567 C570 1.463 . S
C567 C572 1.350 . S
C567 N575 1.427 . S
C568 H559 0.930 . S
C568 C566 1.378 . S
C568 C569 1.367 . S
C569 C568 1.367 . S
C569 C571 1.433 . S
C570 C566 1.350 . S
C570 C567 1.463 . S
C570 N574 1.427 . S
C571 H561 0.929 . S
C571 C569 1.433 . S
C571 N574 1.384 . S
C572 H563 0.929 . S
C572 C564 1.378 . S
C572 C567 1.350 . S
C573 H560 0.929 . S
C573 C565 1.433 . S
C573 N575 1.384 . S
N574 C570 1.427 . S
N574 C571 1.384 . S
N575 C567 1.427 . S
N575 C573 1.384 . S
H576 C582 0.930 . S
H577 C586 0.930 . S
H578 C591 0.929 . S
H579 C589 0.929 . S
H580 C584 0.929 . S
H581 C590 0.929 . S
C582 H576 0.930 . S
C582 C583 1.367 . S
C582 C590 1.378 . S
C583 C582 1.367 . S
C583 C591 1.433 . S
C584 H580 0.929 . S
C584 C586 1.378 . S
C584 C588 1.350 . S
C585 C588 1.463 . S
C585 C590 1.350 . S
C585 N593 1.427 . S
C586 H577 0.930 . S
C586 C584 1.378 . S
C586 C587 1.367 . S
C587 C586 1.367 . S
C587 C589 1.433 . S
C588 C584 1.350 . S
C588 C585 1.463 . S
C588 N592 1.427 . S
C589 H579 0.929 . S
C589 C587 1.433 . S
C589 N592 1.384 . S
C590 H581 0.929 . S
C590 C582 1.378 . S
C590 C585 1.350 . S
C591 H578 0.929 . S
C591 C583 1.433 . S
C591 N593 1.384 . S
N592 C588 1.427 . S
N592 C589 1.384 . S
N593 C585 1.427 . S
N593 C591 1.384 . S
H594 C600 0.930 . S
H595 C604 0.930 . S
H596 C609 0.929 . S
H597 C607 0.929 . S
H598 C602 0.929 . S
H599 C608 0.929 . S
C600 H594 0.930 . S
C600 C601 1.367 . S
C600 C608 1.378 . S
C601 C600 1.367 . S
C601 C609 1.433 . S
C602 H598 0.929 . S
C602 C604 1.378 . S
C602 C606 1.350 . S
C603 C606 1.463 . S
C603 C608 1.350 . S
C603 N611 1.427 . S
C604 H595 0.930 . S
C604 C602 1.378 . S
C604 C605 1.367 . S
C605 C604 1.367 . S
C605 C607 1.433 . S
C606 C602 1.350 . S
C606 C603 1.463 . S
C606 N610 1.427 . S
C607 H597 0.929 . S
C607 C605 1.433 . S
C607 N610 1.384 . S
C608 H599 0.929 . S
C608 C600 1.378 . S
C608 C603 1.350 . S
C609 H596 0.929 . S
C609 C601 1.433 . S
C609 N611 1.384 . S
N610 C606 1.427 . S
N610 C607 1.384 . S
N611 C603 1.427 . S
N611 C609 1.384 . S
H612 C618 0.930 . S
H613 C622 0.930 . S
H614 C627 0.929 . S
H615 C625 0.929 . S
H616 C620 0.929 . S
H617 C626 0.929 . S
C618 H612 0.930 . S
C618 C619 1.367 . S
C618 C626 1.378 . S
C619 C618 1.367 . S
C619 C627 1.433 . S
C620 H616 0.929 . S
C620 C622 1.378 . S
C620 C624 1.350 . S
C621 C624 1.463 . S
C621 C626 1.350 . S
C621 N629 1.427 . S
C622 H613 0.930 . S
C622 C620 1.378 . S
C622 C623 1.367 . S
C623 C622 1.367 . S
C623 C625 1.433 . S
C624 C620 1.350 . S
C624 C621 1.463 . S
C624 N628 1.427 . S
C625 H615 0.929 . S
C625 C623 1.433 . S
C625 N628 1.384 . S
C626 H617 0.929 . S
C626 C618 1.378 . S
C626 C621 1.350 . S
C627 H614 0.929 . S
C627 C619 1.433 . S
C627 N629 1.384 . S
N628 C624 1.427 . S
N628 C625 1.384 . S
N629 C621 1.427 . S
N629 C627 1.384 . S
H630 C636 0.930 . S
H631 C640 0.930 . S
H632 C645 0.929 . S
H633 C643 0.929 . S
H634 C638 0.929 . S
H635 C644 0.929 . S
C636 H630 0.930 . S
C636 C637 1.367 . S
C636 C644 1.378 . S
C637 C636 1.367 . S
C637 C645 1.433 . S
C638 H634 0.929 . S
C638 C640 1.378 . S
C638 C642 1.350 . S
C639 C642 1.463 . S
C639 C644 1.350 . S
C639 N647 1.427 . S
C640 H631 0.930 . S
C640 C638 1.378 . S
C640 C641 1.367 . S
C641 C640 1.367 . S
C641 C643 1.433 . S
C642 C638 1.350 . S
C642 C639 1.463 . S
C642 N646 1.427 . S
C643 H633 0.929 . S
C643 C641 1.433 . S
C643 N646 1.384 . S
C644 H635 0.929 . S
C644 C636 1.378 . S
C644 C639 1.350 . S
C645 H632 0.929 . S
C645 C637 1.433 . S
C645 N647 1.384 . S
N646 C642 1.427 . S
N646 C643 1.384 . S
N647 C639 1.427 . S
N647 C645 1.384 . S
H648 C654 0.930 . S
H649 C658 0.930 . S
H650 C663 0.929 . S
H651 C661 0.929 . S
H652 C656 0.929 . S
H653 C662 0.929 . S
C654 H648 0.930 . S
C654 C655 1.367 . S
C654 C662 1.378 . S
C655 C654 1.367 . S
C655 C663 1.433 . S
C656 H652 0.929 . S
C656 C658 1.378 . S
C656 C660 1.350 . S
C657 C660 1.463 . S
C657 C662 1.350 . S
C657 N665 1.427 . S
C658 H649 0.930 . S
C658 C656 1.378 . S
C658 C659 1.367 . S
C659 C658 1.367 . S
C659 C661 1.433 . S
C660 C656 1.350 . S
C660 C657 1.463 . S
C660 N664 1.427 . S
C661 H651 0.929 . S
C661 C659 1.433 . S
C661 N664 1.384 . S
C662 H653 0.929 . S
C662 C654 1.378 . S
C662 C657 1.350 . S
C663 H650 0.929 . S
C663 C655 1.433 . S
C663 N665 1.384 . S
N664 C660 1.427 . S
N664 C661 1.384 . S
N665 C657 1.427 . S
N665 C663 1.384 . S
H666 C672 0.930 . S
H667 C676 0.930 . S
H668 C681 0.929 . S
H669 C679 0.929 . S
H670 C674 0.929 . S
H671 C680 0.929 . S
C672 H666 0.930 . S
C672 C673 1.367 . S
C672 C680 1.378 . S
C673 C672 1.367 . S
C673 C681 1.433 . S
C674 H670 0.929 . S
C674 C676 1.378 . S
C674 C678 1.350 . S
C675 C678 1.463 . S
C675 C680 1.350 . S
C675 N683 1.427 . S
C676 H667 0.930 . S
C676 C674 1.378 . S
C676 C677 1.367 . S
C677 C676 1.367 . S
C677 C679 1.433 . S
C678 C674 1.350 . S
C678 C675 1.463 . S
C678 N682 1.427 . S
C679 H669 0.929 . S
C679 C677 1.433 . S
C679 N682 1.384 . S
C680 H671 0.929 . S
C680 C672 1.378 . S
C680 C675 1.350 . S
C681 H668 0.929 . S
C681 C673 1.433 . S
C681 N683 1.384 . S
N682 C678 1.427 . S
N682 C679 1.384 . S
N683 C675 1.427 . S
N683 C681 1.384 . S
H684 C690 0.930 . S
H685 C694 0.930 . S
H686 C699 0.929 . S
H687 C697 0.929 . S
H688 C692 0.929 . S
H689 C698 0.929 . S
C690 H684 0.930 . S
C690 C691 1.367 . S
C690 C698 1.378 . S
C691 C690 1.367 . S
C691 C699 1.433 . S
C692 H688 0.929 . S
C692 C694 1.378 . S
C692 C696 1.350 . S
C693 C696 1.463 . S
C693 C698 1.350 . S
C693 N701 1.427 . S
C694 H685 0.930 . S
C694 C692 1.378 . S
C694 C695 1.367 . S
C695 C694 1.367 . S
C695 C697 1.433 . S
C696 C692 1.350 . S
C696 C693 1.463 . S
C696 N700 1.427 . S
C697 H687 0.929 . S
C697 C695 1.433 . S
C697 N700 1.384 . S
C698 H689 0.929 . S
C698 C690 1.378 . S
C698 C693 1.350 . S
C699 H686 0.929 . S
C699 C691 1.433 . S
C699 N701 1.384 . S
N700 C696 1.427 . S
N700 C697 1.384 . S
N701 C693 1.427 . S
N701 C699 1.384 . S
H702 C708 0.930 . S
H703 C712 0.930 . S
H704 C717 0.929 . S
H705 C715 0.929 . S
H706 C710 0.929 . S
H707 C716 0.929 . S
C708 H702 0.930 . S
C708 C709 1.367 . S
C708 C716 1.378 . S
C709 C708 1.367 . S
C709 C717 1.433 . S
C710 H706 0.929 . S
C710 C712 1.378 . S
C710 C714 1.350 . S
C711 C714 1.463 . S
C711 C716 1.350 . S
C711 N719 1.427 . S
C712 H703 0.930 . S
C712 C710 1.378 . S
C712 C713 1.367 . S
C713 C712 1.367 . S
C713 C715 1.433 . S
C714 C710 1.350 . S
C714 C711 1.463 . S
C714 N718 1.427 . S
C715 H705 0.929 . S
C715 C713 1.433 . S
C715 N718 1.384 . S
C716 H707 0.929 . S
C716 C708 1.378 . S
C716 C711 1.350 . S
C717 H704 0.929 . S
C717 C709 1.433 . S
C717 N719 1.384 . S
N718 C714 1.427 . S
N718 C715 1.384 . S
N719 C711 1.427 . S
N719 C717 1.384 . S
H720 C726 0.930 . S
H721 C730 0.930 . S
H722 C735 0.929 . S
H723 C733 0.929 . S
H724 C728 0.929 . S
H725 C734 0.929 . S
C726 H720 0.930 . S
C726 C727 1.367 . S
C726 C734 1.378 . S
C727 C726 1.367 . S
C727 C735 1.433 . S
C728 H724 0.929 . S
C728 C730 1.378 . S
C728 C732 1.350 . S
C729 C732 1.463 1_554 S
C729 C734 1.350 . S
C729 N737 1.427 . S
C730 H721 0.930 . S
C730 C728 1.378 . S
C730 C731 1.367 . S
C731 C730 1.367 . S
C731 C733 1.433 . S
C732 C728 1.350 . S
C732 C729 1.463 1_556 S
C732 N736 1.427 . S
C733 H723 0.929 . S
C733 C731 1.433 . S
C733 N736 1.384 . S
C734 H725 0.929 . S
C734 C726 1.378 . S
C734 C729 1.350 . S
C735 H722 0.929 . S
C735 C727 1.433 . S
C735 N737 1.384 . S
N736 C732 1.427 . S
N736 C733 1.384 . S
N737 C729 1.427 . S
N737 C735 1.384 . S
H738 C744 0.930 . S
H739 C748 0.930 . S
H740 C753 0.929 . S
H741 C751 0.929 . S
H742 C746 0.929 . S
H743 C752 0.929 . S
C744 H738 0.930 . S
C744 C745 1.367 . S
C744 C752 1.378 . S
C745 C744 1.367 . S
C745 C753 1.433 1_545 S
C746 H742 0.929 . S
C746 C748 1.378 . S
C746 C750 1.350 . S
C747 C750 1.463 1_546 S
C747 C752 1.350 . S
C747 N755 1.427 1_545 S
C748 H739 0.930 . S
C748 C746 1.378 . S
C748 C749 1.367 . S
C749 C748 1.367 . S
C749 C751 1.433 1_565 S
C750 C746 1.350 . S
C750 C747 1.463 1_564 S
C750 N754 1.427 1_565 S
C751 H741 0.929 . S
C751 C749 1.433 1_545 S
C751 N754 1.384 . S
C752 H743 0.929 . S
C752 C744 1.378 . S
C752 C747 1.350 . S
C753 H740 0.929 . S
C753 C745 1.433 1_565 S
C753 N755 1.384 . S
N754 C750 1.427 1_545 S
N754 C751 1.384 . S
N755 C747 1.427 1_565 S
N755 C753 1.384 . S
H756 C762 0.930 . S
H757 C766 0.930 . S
H758 C771 0.929 . S
H759 C769 0.929 . S
H760 C764 0.929 . S
H761 C770 0.929 . S
C762 H756 0.930 . S
C762 C763 1.367 . S
C762 C770 1.378 . S
C763 C762 1.367 . S
C763 C771 1.433 1_655 S
C764 H760 0.929 . S
C764 C766 1.378 . S
C764 C768 1.350 . S
C765 C768 1.463 1_656 S
C765 C770 1.350 . S
C765 N773 1.427 1_655 S
C766 H757 0.930 . S
C766 C764 1.378 . S
C766 C767 1.367 . S
C767 C766 1.367 . S
C767 C769 1.433 1_455 S
C768 C764 1.350 . S
C768 C765 1.463 1_454 S
C768 N772 1.427 1_455 S
C769 H759 0.929 . S
C769 C767 1.433 1_655 S
C769 N772 1.384 . S
C770 H761 0.929 . S
C770 C762 1.378 . S
C770 C765 1.350 . S
C771 H758 0.929 . S
C771 C763 1.433 1_455 S
C771 N773 1.384 . S
N772 C768 1.427 1_655 S
N772 C769 1.384 . S
N773 C765 1.427 1_455 S
N773 C771 1.384 . S
H774 C780 0.930 . S
H775 C784 0.930 . S
H776 C789 0.929 . S
H777 C787 0.929 . S
H778 C782 0.929 . S
H779 C788 0.929 . S
C780 H774 0.930 . S
C780 C781 1.367 . S
C780 C788 1.378 . S
C781 C780 1.367 . S
C781 C789 1.433 . S
C782 H778 0.929 . S
C782 C784 1.378 . S
C782 C786 1.350 . S
C783 C786 1.463 . S
C783 C788 1.350 . S
C783 N791 1.427 . S
C784 H775 0.930 . S
C784 C782 1.378 . S
C784 C785 1.367 . S
C785 C784 1.367 . S
C785 C787 1.433 . S
C786 C782 1.350 . S
C786 C783 1.463 . S
C786 N790 1.427 . S
C787 H777 0.929 . S
C787 C785 1.433 . S
C787 N790 1.384 . S
C788 H779 0.929 . S
C788 C780 1.378 . S
C788 C783 1.350 . S
C789 H776 0.929 . S
C789 C781 1.433 . S
C789 N791 1.384 . S
N790 C786 1.427 . S
N790 C787 1.384 . S
N791 C783 1.427 . S
N791 C789 1.384 . S
H792 C798 0.930 . S
H793 C802 0.930 . S
H794 C807 0.929 . S
H795 C805 0.929 . S
H796 C800 0.929 . S
H797 C806 0.929 . S
C798 H792 0.930 . S
C798 C799 1.367 . S
C798 C806 1.378 . S
C799 C798 1.367 . S
C799 C807 1.433 . S
C800 H796 0.929 . S
C800 C802 1.378 . S
C800 C804 1.350 . S
C801 C804 1.463 . S
C801 C806 1.350 . S
C801 N809 1.427 . S
C802 H793 0.930 . S
C802 C800 1.378 . S
C802 C803 1.367 . S
C803 C802 1.367 . S
C803 C805 1.433 . S
C804 C800 1.350 . S
C804 C801 1.463 . S
C804 N808 1.427 . S
C805 H795 0.929 . S
C805 C803 1.433 . S
C805 N808 1.384 . S
C806 H797 0.929 . S
C806 C798 1.378 . S
C806 C801 1.350 . S
C807 H794 0.929 . S
C807 C799 1.433 . S
C807 N809 1.384 . S
N808 C804 1.427 . S
N808 C805 1.384 . S
N809 C801 1.427 . S
N809 C807 1.384 . S
H810 C816 0.930 . S
H811 C820 0.930 . S
H812 C825 0.929 . S
H813 C823 0.929 . S
H814 C818 0.929 . S
H815 C824 0.929 . S
C816 H810 0.930 . S
C816 C817 1.367 . S
C816 C824 1.378 . S
C817 C816 1.367 . S
C817 C825 1.433 . S
C818 H814 0.929 . S
C818 C820 1.378 . S
C818 C822 1.350 . S
C819 C822 1.463 . S
C819 C824 1.350 . S
C819 N827 1.427 . S
C820 H811 0.930 . S
C820 C818 1.378 . S
C820 C821 1.367 . S
C821 C820 1.367 . S
C821 C823 1.433 . S
C822 C818 1.350 . S
C822 C819 1.463 . S
C822 N826 1.427 . S
C823 H813 0.929 . S
C823 C821 1.433 . S
C823 N826 1.384 . S
C824 H815 0.929 . S
C824 C816 1.378 . S
C824 C819 1.350 . S
C825 H812 0.929 . S
C825 C817 1.433 . S
C825 N827 1.384 . S
N826 C822 1.427 . S
N826 C823 1.384 . S
N827 C819 1.427 . S
N827 C825 1.384 . S
H828 C834 0.930 . S
H829 C838 0.930 . S
H830 C843 0.929 . S
H831 C841 0.929 . S
H832 C836 0.929 . S
H833 C842 0.929 . S
C834 H828 0.930 . S
C834 C835 1.367 . S
C834 C842 1.378 . S
C835 C834 1.367 . S
C835 C843 1.433 . S
C836 H832 0.929 . S
C836 C838 1.378 . S
C836 C840 1.350 . S
C837 C840 1.463 . S
C837 C842 1.350 . S
C837 N845 1.427 . S
C838 H829 0.930 . S
C838 C836 1.378 . S
C838 C839 1.367 . S
C839 C838 1.367 . S
C839 C841 1.433 . S
C840 C836 1.350 . S
C840 C837 1.463 . S
C840 N844 1.427 . S
C841 H831 0.929 . S
C841 C839 1.433 . S
C841 N844 1.384 . S
C842 H833 0.929 . S
C842 C834 1.378 . S
C842 C837 1.350 . S
C843 H830 0.929 . S
C843 C835 1.433 . S
C843 N845 1.384 . S
N844 C840 1.427 . S
N844 C841 1.384 . S
N845 C837 1.427 . S
N845 C843 1.384 . S
H846 C852 0.930 . S
H847 C856 0.930 . S
H848 C861 0.929 . S
H849 C859 0.929 . S
H850 C854 0.929 . S
H851 C860 0.929 . S
C852 H846 0.930 . S
C852 C853 1.367 . S
C852 C860 1.378 . S
C853 C852 1.367 . S
C853 C861 1.433 . S
C854 H850 0.929 . S
C854 C856 1.378 . S
C854 C858 1.350 . S
C855 C858 1.463 . S
C855 C860 1.350 . S
C855 N863 1.427 . S
C856 H847 0.930 . S
C856 C854 1.378 . S
C856 C857 1.367 . S
C857 C856 1.367 . S
C857 C859 1.433 . S
C858 C854 1.350 . S
C858 C855 1.463 . S
C858 N862 1.427 . S
C859 H849 0.929 . S
C859 C857 1.433 . S
C859 N862 1.384 . S
C860 H851 0.929 . S
C860 C852 1.378 . S
C860 C855 1.350 . S
C861 H848 0.929 . S
C861 C853 1.433 . S
C861 N863 1.384 . S
N862 C858 1.427 . S
N862 C859 1.384 . S
N863 C855 1.427 . S
N863 C861 1.384 . S
H864 C870 0.930 . S
H865 C874 0.930 . S
H866 C879 0.929 . S
H867 C877 0.929 . S
H868 C872 0.929 . S
H869 C878 0.929 . S
C870 H864 0.930 . S
C870 C871 1.367 . S
C870 C878 1.378 . S
C871 C870 1.367 . S
C871 C879 1.433 . S
C872 H868 0.929 . S
C872 C874 1.378 . S
C872 C876 1.350 . S
C873 C876 1.463 . S
C873 C878 1.350 . S
C873 N881 1.427 . S
C874 H865 0.930 . S
C874 C872 1.378 . S
C874 C875 1.367 . S
C875 C874 1.367 . S
C875 C877 1.433 . S
C876 C872 1.350 . S
C876 C873 1.463 . S
C876 N880 1.427 . S
C877 H867 0.929 . S
C877 C875 1.433 . S
C877 N880 1.384 . S
C878 H869 0.929 . S
C878 C870 1.378 . S
C878 C873 1.350 . S
C879 H866 0.929 . S
C879 C871 1.433 . S
C879 N881 1.384 . S
N880 C876 1.427 . S
N880 C877 1.384 . S
N881 C873 1.427 . S
N881 C879 1.384 . S
C241 C130 1.078 . S
C245 C0 1.055 . S
C259 C13 1.052 . S
C263 C143 1.060 . S
C277 C117 1.051 . S
C281 C26 1.073 . S
C295 C182 1.073 . S
C299 C39 1.059 . S
C313 C52 1.071 . S
C317 C156 1.049 . S
C331 C169 1.066 . S
C335 C65 1.048 . S
C349 C78 1.069 . S
C353 C208 1.093 . S
C367 C221 1.084 . S
C371 C91 1.066 . S
C385 C104 1.076 . S
C389 C195 1.088 . S
C403 C5 0.859 . S
C407 C23 0.978 . S
C421 C18 0.901 . S
C425 C36 0.960 . S
C439 C10 0.996 . S
C443 C31 0.910 . S
C457 C75 0.967 . S
C461 C44 0.884 . S
C475 C49 0.989 . S
C479 C57 0.891 . S
C493 C70 0.900 . S
C497 C62 0.959 . S
C511 C83 0.894 . S
C515 C101 1.003 . S
C529 C96 0.884 . S
C533 C114 0.992 . S
C547 C88 0.995 . S
C551 C109 0.885 . S
C565 C153 1.000 . S
C569 C122 0.881 . S
C583 C127 0.979 . S
C587 C135 0.865 . S
C601 C140 0.977 . S
C605 C148 0.906 . S
C619 C179 0.996 . S
C623 C161 0.890 . S
C637 C192 0.976 . S
C641 C174 0.886 . S
C655 C166 0.985 . S
C659 C187 0.877 . S
C673 C200 0.913 . S
C677 C231 0.990 . S
C691 C213 0.884 . S
C695 C205 0.995 . S
C709 C226 0.891 . S
C713 C218 0.978 . S
C727 C8 1.486 . S
C731 C47 1.498 . S
C745 C60 1.485 . S
C749 C21 1.468 . S
C763 C73 1.483 . S
C767 C34 1.474 . S
C781 C125 1.488 . S
C785 C86 1.499 . S
C799 C138 1.482 . S
C803 C99 1.494 . S
C817 C112 1.492 . S
C821 C151 1.497 . S
C835 C203 1.491 . S
C839 C164 1.494 . S
C853 C216 1.493 . S
C857 C177 1.504 . S
C871 C229 1.480 . S
C875 C190 1.492 . S
