# Generated by pormake.
# Topology pyc, (8)-cn, num edge types: 1
# Building blocks:
#     Node 0, Type 0, BuildingBlock: GIZVER_clean_sbu_0, # of connection points: 8
#     Node 1, Type 0, BuildingBlock: GIZVER_clean_sbu_0, # of connection points: 8
#     Node 2, Type 0, BuildingBlock: GIZVER_clean_sbu_0, # of connection points: 8
#     Node 3, Type 0, BuildingBlock: GIZVER_clean_sbu_0, # of connection points: 8
#     Node 4, Type 0, BuildingBlock: GIZVER_clean_sbu_0, # of connection points: 8
#     Node 5, Type 0, BuildingBlock: GIZVER_clean_sbu_0, # of connection points: 8
#     Node 6, Type 0, BuildingBlock: GIZVER_clean_sbu_0, # of connection points: 8
#     Node 7, Type 0, BuildingBlock: GIZVER_clean_sbu_0, # of connection points: 8
#     Node 8, Type 0, BuildingBlock: GIZVER_clean_sbu_0, # of connection points: 8
#     Node 9, Type 0, BuildingBlock: GIZVER_clean_sbu_0, # of connection points: 8
#     Node 10, Type 0, BuildingBlock: GIZVER_clean_sbu_0, # of connection points: 8
#     Node 11, Type 0, BuildingBlock: GIZVER_clean_sbu_0, # of connection points: 8
#     Node 12, Type 0, BuildingBlock: GIZVER_clean_sbu_0, # of connection points: 8
#     Node 13, Type 0, BuildingBlock: GIZVER_clean_sbu_0, # of connection points: 8
#     Node 14, Type 0, BuildingBlock: GIZVER_clean_sbu_0, # of connection points: 8
#     Node 15, Type 0, BuildingBlock: GIZVER_clean_sbu_0, # of connection points: 8
#     Node 16, Type 0, BuildingBlock: GIZVER_clean_sbu_0, # of connection points: 8
#     Node 17, Type 0, BuildingBlock: GIZVER_clean_sbu_0, # of connection points: 8
#     Node 18, Type 0, BuildingBlock: GIZVER_clean_sbu_0, # of connection points: 8
#     Node 19, Type 0, BuildingBlock: GIZVER_clean_sbu_0, # of connection points: 8
#     Node 20, Type 0, BuildingBlock: GIZVER_clean_sbu_0, # of connection points: 8
#     Node 21, Type 0, BuildingBlock: GIZVER_clean_sbu_0, # of connection points: 8
#     Node 22, Type 0, BuildingBlock: GIZVER_clean_sbu_0, # of connection points: 8
#     Node 23, Type 0, BuildingBlock: GIZVER_clean_sbu_0, # of connection points: 8
#     Node 24, Type 0, BuildingBlock: GIZVER_clean_sbu_0, # of connection points: 8
#     Node 25, Type 0, BuildingBlock: GIZVER_clean_sbu_0, # of connection points: 8
#     Node 26, Type 0, BuildingBlock: GIZVER_clean_sbu_0, # of connection points: 8
#     Node 27, Type 0, BuildingBlock: GIZVER_clean_sbu_0, # of connection points: 8
#     Node 28, Type 0, BuildingBlock: GIZVER_clean_sbu_0, # of connection points: 8
#     Node 29, Type 0, BuildingBlock: GIZVER_clean_sbu_0, # of connection points: 8
#     Node 30, Type 0, BuildingBlock: GIZVER_clean_sbu_0, # of connection points: 8
#     Node 31, Type 0, BuildingBlock: GIZVER_clean_sbu_0, # of connection points: 8
#     Node 32, Type 0, BuildingBlock: GIZVER_clean_sbu_0, # of connection points: 8
#     Node 33, Type 0, BuildingBlock: GIZVER_clean_sbu_0, # of connection points: 8
#     Node 34, Type 0, BuildingBlock: GIZVER_clean_sbu_0, # of connection points: 8
#     Node 35, Type 0, BuildingBlock: GIZVER_clean_sbu_0, # of connection points: 8
#     Node 36, Type 0, BuildingBlock: GIZVER_clean_sbu_0, # of connection points: 8
#     Node 37, Type 0, BuildingBlock: GIZVER_clean_sbu_0, # of connection points: 8
#     Node 38, Type 0, BuildingBlock: GIZVER_clean_sbu_0, # of connection points: 8
#     Node 39, Type 0, BuildingBlock: GIZVER_clean_sbu_0, # of connection points: 8
#     Node 40, Type 0, BuildingBlock: GIZVER_clean_sbu_0, # of connection points: 8
#     Node 41, Type 0, BuildingBlock: GIZVER_clean_sbu_0, # of connection points: 8
#     Node 42, Type 0, BuildingBlock: GIZVER_clean_sbu_0, # of connection points: 8
#     Node 43, Type 0, BuildingBlock: GIZVER_clean_sbu_0, # of connection points: 8
#     Node 44, Type 0, BuildingBlock: GIZVER_clean_sbu_0, # of connection points: 8
#     Node 45, Type 0, BuildingBlock: GIZVER_clean_sbu_0, # of connection points: 8
#     Node 46, Type 0, BuildingBlock: GIZVER_clean_sbu_0, # of connection points: 8
#     Node 47, Type 0, BuildingBlock: GIZVER_clean_sbu_0, # of connection points: 8
#     Edge 48, Type (0, 0), BuildingBlock: EZIPEK_clean_linker_0, # of connection points: 2
#     Edge 49, Type (0, 0), BuildingBlock: EZIPEK_clean_linker_0, # of connection points: 2
#     Edge 50, Type (0, 0), BuildingBlock: EZIPEK_clean_linker_0, # of connection points: 2
#     Edge 51, Type (0, 0), BuildingBlock: EZIPEK_clean_linker_0, # of connection points: 2
#     Edge 52, Type (0, 0), BuildingBlock: EZIPEK_clean_linker_0, # of connection points: 2
#     Edge 53, Type (0, 0), BuildingBlock: EZIPEK_clean_linker_0, # of connection points: 2
#     Edge 54, Type (0, 0), BuildingBlock: EZIPEK_clean_linker_0, # of connection points: 2
#     Edge 55, Type (0, 0), BuildingBlock: EZIPEK_clean_linker_0, # of connection points: 2
#     Edge 56, Type (0, 0), BuildingBlock: EZIPEK_clean_linker_0, # of connection points: 2
#     Edge 57, Type (0, 0), BuildingBlock: EZIPEK_clean_linker_0, # of connection points: 2
#     Edge 58, Type (0, 0), BuildingBlock: EZIPEK_clean_linker_0, # of connection points: 2
#     Edge 59, Type (0, 0), BuildingBlock: EZIPEK_clean_linker_0, # of connection points: 2
#     Edge 60, Type (0, 0), BuildingBlock: EZIPEK_clean_linker_0, # of connection points: 2
#     Edge 61, Type (0, 0), BuildingBlock: EZIPEK_clean_linker_0, # of connection points: 2
#     Edge 62, Type (0, 0), BuildingBlock: EZIPEK_clean_linker_0, # of connection points: 2
#     Edge 63, Type (0, 0), BuildingBlock: EZIPEK_clean_linker_0, # of connection points: 2
#     Edge 64, Type (0, 0), BuildingBlock: EZIPEK_clean_linker_0, # of connection points: 2
#     Edge 65, Type (0, 0), BuildingBlock: EZIPEK_clean_linker_0, # of connection points: 2
#     Edge 66, Type (0, 0), BuildingBlock: EZIPEK_clean_linker_0, # of connection points: 2
#     Edge 67, Type (0, 0), BuildingBlock: EZIPEK_clean_linker_0, # of connection points: 2
#     Edge 68, Type (0, 0), BuildingBlock: EZIPEK_clean_linker_0, # of connection points: 2
#     Edge 69, Type (0, 0), BuildingBlock: EZIPEK_clean_linker_0, # of connection points: 2
#     Edge 70, Type (0, 0), BuildingBlock: EZIPEK_clean_linker_0, # of connection points: 2
#     Edge 71, Type (0, 0), BuildingBlock: EZIPEK_clean_linker_0, # of connection points: 2
#     Edge 72, Type (0, 0), BuildingBlock: EZIPEK_clean_linker_0, # of connection points: 2
#     Edge 73, Type (0, 0), BuildingBlock: EZIPEK_clean_linker_0, # of connection points: 2
#     Edge 74, Type (0, 0), BuildingBlock: EZIPEK_clean_linker_0, # of connection points: 2
#     Edge 75, Type (0, 0), BuildingBlock: EZIPEK_clean_linker_0, # of connection points: 2
#     Edge 76, Type (0, 0), BuildingBlock: EZIPEK_clean_linker_0, # of connection points: 2
#     Edge 77, Type (0, 0), BuildingBlock: EZIPEK_clean_linker_0, # of connection points: 2
#     Edge 78, Type (0, 0), BuildingBlock: EZIPEK_clean_linker_0, # of connection points: 2
#     Edge 79, Type (0, 0), BuildingBlock: EZIPEK_clean_linker_0, # of connection points: 2
#     Edge 80, Type (0, 0), BuildingBlock: EZIPEK_clean_linker_0, # of connection points: 2
#     Edge 81, Type (0, 0), BuildingBlock: EZIPEK_clean_linker_0, # of connection points: 2
#     Edge 82, Type (0, 0), BuildingBlock: EZIPEK_clean_linker_0, # of connection points: 2
#     Edge 83, Type (0, 0), BuildingBlock: EZIPEK_clean_linker_0, # of connection points: 2
#     Edge 84, Type (0, 0), BuildingBlock: EZIPEK_clean_linker_0, # of connection points: 2
#     Edge 85, Type (0, 0), BuildingBlock: EZIPEK_clean_linker_0, # of connection points: 2
#     Edge 86, Type (0, 0), BuildingBlock: EZIPEK_clean_linker_0, # of connection points: 2
#     Edge 87, Type (0, 0), BuildingBlock: EZIPEK_clean_linker_0, # of connection points: 2
#     Edge 88, Type (0, 0), BuildingBlock: EZIPEK_clean_linker_0, # of connection points: 2
#     Edge 89, Type (0, 0), BuildingBlock: EZIPEK_clean_linker_0, # of connection points: 2
#     Edge 90, Type (0, 0), BuildingBlock: EZIPEK_clean_linker_0, # of connection points: 2
#     Edge 91, Type (0, 0), BuildingBlock: EZIPEK_clean_linker_0, # of connection points: 2
#     Edge 92, Type (0, 0), BuildingBlock: EZIPEK_clean_linker_0, # of connection points: 2
#     Edge 93, Type (0, 0), BuildingBlock: EZIPEK_clean_linker_0, # of connection points: 2
#     Edge 94, Type (0, 0), BuildingBlock: EZIPEK_clean_linker_0, # of connection points: 2
#     Edge 95, Type (0, 0), BuildingBlock: EZIPEK_clean_linker_0, # of connection points: 2
#     Edge 96, Type (0, 0), BuildingBlock: EZIPEK_clean_linker_0, # of connection points: 2
#     Edge 97, Type (0, 0), BuildingBlock: EZIPEK_clean_linker_0, # of connection points: 2
#     Edge 98, Type (0, 0), BuildingBlock: EZIPEK_clean_linker_0, # of connection points: 2
#     Edge 99, Type (0, 0), BuildingBlock: EZIPEK_clean_linker_0, # of connection points: 2
#     Edge 100, Type (0, 0), BuildingBlock: EZIPEK_clean_linker_0, # of connection points: 2
#     Edge 101, Type (0, 0), BuildingBlock: EZIPEK_clean_linker_0, # of connection points: 2
#     Edge 102, Type (0, 0), BuildingBlock: EZIPEK_clean_linker_0, # of connection points: 2
#     Edge 103, Type (0, 0), BuildingBlock: EZIPEK_clean_linker_0, # of connection points: 2
#     Edge 104, Type (0, 0), BuildingBlock: EZIPEK_clean_linker_0, # of connection points: 2
#     Edge 105, Type (0, 0), BuildingBlock: EZIPEK_clean_linker_0, # of connection points: 2
#     Edge 106, Type (0, 0), BuildingBlock: EZIPEK_clean_linker_0, # of connection points: 2
#     Edge 107, Type (0, 0), BuildingBlock: EZIPEK_clean_linker_0, # of connection points: 2
#     Edge 108, Type (0, 0), BuildingBlock: EZIPEK_clean_linker_0, # of connection points: 2
#     Edge 109, Type (0, 0), BuildingBlock: EZIPEK_clean_linker_0, # of connection points: 2
#     Edge 110, Type (0, 0), BuildingBlock: EZIPEK_clean_linker_0, # of connection points: 2
#     Edge 111, Type (0, 0), BuildingBlock: EZIPEK_clean_linker_0, # of connection points: 2
#     Edge 112, Type (0, 0), BuildingBlock: EZIPEK_clean_linker_0, # of connection points: 2
#     Edge 113, Type (0, 0), BuildingBlock: EZIPEK_clean_linker_0, # of connection points: 2
#     Edge 114, Type (0, 0), BuildingBlock: EZIPEK_clean_linker_0, # of connection points: 2
#     Edge 115, Type (0, 0), BuildingBlock: EZIPEK_clean_linker_0, # of connection points: 2
#     Edge 116, Type (0, 0), BuildingBlock: EZIPEK_clean_linker_0, # of connection points: 2
#     Edge 117, Type (0, 0), BuildingBlock: EZIPEK_clean_linker_0, # of connection points: 2
#     Edge 118, Type (0, 0), BuildingBlock: EZIPEK_clean_linker_0, # of connection points: 2
#     Edge 119, Type (0, 0), BuildingBlock: EZIPEK_clean_linker_0, # of connection points: 2
#     Edge 120, Type (0, 0), BuildingBlock: EZIPEK_clean_linker_0, # of connection points: 2
#     Edge 121, Type (0, 0), BuildingBlock: EZIPEK_clean_linker_0, # of connection points: 2
#     Edge 122, Type (0, 0), BuildingBlock: EZIPEK_clean_linker_0, # of connection points: 2
#     Edge 123, Type (0, 0), BuildingBlock: EZIPEK_clean_linker_0, # of connection points: 2
#     Edge 124, Type (0, 0), BuildingBlock: EZIPEK_clean_linker_0, # of connection points: 2
#     Edge 125, Type (0, 0), BuildingBlock: EZIPEK_clean_linker_0, # of connection points: 2
#     Edge 126, Type (0, 0), BuildingBlock: EZIPEK_clean_linker_0, # of connection points: 2
#     Edge 127, Type (0, 0), BuildingBlock: EZIPEK_clean_linker_0, # of connection points: 2
#     Edge 128, Type (0, 0), BuildingBlock: EZIPEK_clean_linker_0, # of connection points: 2
#     Edge 129, Type (0, 0), BuildingBlock: EZIPEK_clean_linker_0, # of connection points: 2
#     Edge 130, Type (0, 0), BuildingBlock: EZIPEK_clean_linker_0, # of connection points: 2
#     Edge 131, Type (0, 0), BuildingBlock: EZIPEK_clean_linker_0, # of connection points: 2
#     Edge 132, Type (0, 0), BuildingBlock: EZIPEK_clean_linker_0, # of connection points: 2
#     Edge 133, Type (0, 0), BuildingBlock: EZIPEK_clean_linker_0, # of connection points: 2
#     Edge 134, Type (0, 0), BuildingBlock: EZIPEK_clean_linker_0, # of connection points: 2
#     Edge 135, Type (0, 0), BuildingBlock: EZIPEK_clean_linker_0, # of connection points: 2
#     Edge 136, Type (0, 0), BuildingBlock: EZIPEK_clean_linker_0, # of connection points: 2
#     Edge 137, Type (0, 0), BuildingBlock: EZIPEK_clean_linker_0, # of connection points: 2
#     Edge 138, Type (0, 0), BuildingBlock: EZIPEK_clean_linker_0, # of connection points: 2
#     Edge 139, Type (0, 0), BuildingBlock: EZIPEK_clean_linker_0, # of connection points: 2
#     Edge 140, Type (0, 0), BuildingBlock: EZIPEK_clean_linker_0, # of connection points: 2
#     Edge 141, Type (0, 0), BuildingBlock: EZIPEK_clean_linker_0, # of connection points: 2
#     Edge 142, Type (0, 0), BuildingBlock: EZIPEK_clean_linker_0, # of connection points: 2
#     Edge 143, Type (0, 0), BuildingBlock: EZIPEK_clean_linker_0, # of connection points: 2
#     Edge 144, Type (0, 0), BuildingBlock: EZIPEK_clean_linker_0, # of connection points: 2
#     Edge 145, Type (0, 0), BuildingBlock: EZIPEK_clean_linker_0, # of connection points: 2
#     Edge 146, Type (0, 0), BuildingBlock: EZIPEK_clean_linker_0, # of connection points: 2
#     Edge 147, Type (0, 0), BuildingBlock: EZIPEK_clean_linker_0, # of connection points: 2
#     Edge 148, Type (0, 0), BuildingBlock: EZIPEK_clean_linker_0, # of connection points: 2
#     Edge 149, Type (0, 0), BuildingBlock: EZIPEK_clean_linker_0, # of connection points: 2
#     Edge 150, Type (0, 0), BuildingBlock: EZIPEK_clean_linker_0, # of connection points: 2
#     Edge 151, Type (0, 0), BuildingBlock: EZIPEK_clean_linker_0, # of connection points: 2
#     Edge 152, Type (0, 0), BuildingBlock: EZIPEK_clean_linker_0, # of connection points: 2
#     Edge 153, Type (0, 0), BuildingBlock: EZIPEK_clean_linker_0, # of connection points: 2
#     Edge 154, Type (0, 0), BuildingBlock: EZIPEK_clean_linker_0, # of connection points: 2
#     Edge 155, Type (0, 0), BuildingBlock: EZIPEK_clean_linker_0, # of connection points: 2
#     Edge 156, Type (0, 0), BuildingBlock: EZIPEK_clean_linker_0, # of connection points: 2
#     Edge 157, Type (0, 0), BuildingBlock: EZIPEK_clean_linker_0, # of connection points: 2
#     Edge 158, Type (0, 0), BuildingBlock: EZIPEK_clean_linker_0, # of connection points: 2
#     Edge 159, Type (0, 0), BuildingBlock: EZIPEK_clean_linker_0, # of connection points: 2
#     Edge 160, Type (0, 0), BuildingBlock: EZIPEK_clean_linker_0, # of connection points: 2
#     Edge 161, Type (0, 0), BuildingBlock: EZIPEK_clean_linker_0, # of connection points: 2
#     Edge 162, Type (0, 0), BuildingBlock: EZIPEK_clean_linker_0, # of connection points: 2
#     Edge 163, Type (0, 0), BuildingBlock: EZIPEK_clean_linker_0, # of connection points: 2
#     Edge 164, Type (0, 0), BuildingBlock: EZIPEK_clean_linker_0, # of connection points: 2
#     Edge 165, Type (0, 0), BuildingBlock: EZIPEK_clean_linker_0, # of connection points: 2
#     Edge 166, Type (0, 0), BuildingBlock: EZIPEK_clean_linker_0, # of connection points: 2
#     Edge 167, Type (0, 0), BuildingBlock: EZIPEK_clean_linker_0, # of connection points: 2
#     Edge 168, Type (0, 0), BuildingBlock: EZIPEK_clean_linker_0, # of connection points: 2
#     Edge 169, Type (0, 0), BuildingBlock: EZIPEK_clean_linker_0, # of connection points: 2
#     Edge 170, Type (0, 0), BuildingBlock: EZIPEK_clean_linker_0, # of connection points: 2
#     Edge 171, Type (0, 0), BuildingBlock: EZIPEK_clean_linker_0, # of connection points: 2
#     Edge 172, Type (0, 0), BuildingBlock: EZIPEK_clean_linker_0, # of connection points: 2
#     Edge 173, Type (0, 0), BuildingBlock: EZIPEK_clean_linker_0, # of connection points: 2
#     Edge 174, Type (0, 0), BuildingBlock: EZIPEK_clean_linker_0, # of connection points: 2
#     Edge 175, Type (0, 0), BuildingBlock: EZIPEK_clean_linker_0, # of connection points: 2
#     Edge 176, Type (0, 0), BuildingBlock: EZIPEK_clean_linker_0, # of connection points: 2
#     Edge 177, Type (0, 0), BuildingBlock: EZIPEK_clean_linker_0, # of connection points: 2
#     Edge 178, Type (0, 0), BuildingBlock: EZIPEK_clean_linker_0, # of connection points: 2
#     Edge 179, Type (0, 0), BuildingBlock: EZIPEK_clean_linker_0, # of connection points: 2
#     Edge 180, Type (0, 0), BuildingBlock: EZIPEK_clean_linker_0, # of connection points: 2
#     Edge 181, Type (0, 0), BuildingBlock: EZIPEK_clean_linker_0, # of connection points: 2
#     Edge 182, Type (0, 0), BuildingBlock: EZIPEK_clean_linker_0, # of connection points: 2
#     Edge 183, Type (0, 0), BuildingBlock: EZIPEK_clean_linker_0, # of connection points: 2
#     Edge 184, Type (0, 0), BuildingBlock: EZIPEK_clean_linker_0, # of connection points: 2
#     Edge 185, Type (0, 0), BuildingBlock: EZIPEK_clean_linker_0, # of connection points: 2
#     Edge 186, Type (0, 0), BuildingBlock: EZIPEK_clean_linker_0, # of connection points: 2
#     Edge 187, Type (0, 0), BuildingBlock: EZIPEK_clean_linker_0, # of connection points: 2
#     Edge 188, Type (0, 0), BuildingBlock: EZIPEK_clean_linker_0, # of connection points: 2
#     Edge 189, Type (0, 0), BuildingBlock: EZIPEK_clean_linker_0, # of connection points: 2
#     Edge 190, Type (0, 0), BuildingBlock: EZIPEK_clean_linker_0, # of connection points: 2
#     Edge 191, Type (0, 0), BuildingBlock: EZIPEK_clean_linker_0, # of connection points: 2
#     Edge 192, Type (0, 0), BuildingBlock: EZIPEK_clean_linker_0, # of connection points: 2
#     Edge 193, Type (0, 0), BuildingBlock: EZIPEK_clean_linker_0, # of connection points: 2
#     Edge 194, Type (0, 0), BuildingBlock: EZIPEK_clean_linker_0, # of connection points: 2
#     Edge 195, Type (0, 0), BuildingBlock: EZIPEK_clean_linker_0, # of connection points: 2
#     Edge 196, Type (0, 0), BuildingBlock: EZIPEK_clean_linker_0, # of connection points: 2
#     Edge 197, Type (0, 0), BuildingBlock: EZIPEK_clean_linker_0, # of connection points: 2
#     Edge 198, Type (0, 0), BuildingBlock: EZIPEK_clean_linker_0, # of connection points: 2
#     Edge 199, Type (0, 0), BuildingBlock: EZIPEK_clean_linker_0, # of connection points: 2
#     Edge 200, Type (0, 0), BuildingBlock: EZIPEK_clean_linker_0, # of connection points: 2
#     Edge 201, Type (0, 0), BuildingBlock: EZIPEK_clean_linker_0, # of connection points: 2
#     Edge 202, Type (0, 0), BuildingBlock: EZIPEK_clean_linker_0, # of connection points: 2
#     Edge 203, Type (0, 0), BuildingBlock: EZIPEK_clean_linker_0, # of connection points: 2
#     Edge 204, Type (0, 0), BuildingBlock: EZIPEK_clean_linker_0, # of connection points: 2
#     Edge 205, Type (0, 0), BuildingBlock: EZIPEK_clean_linker_0, # of connection points: 2
#     Edge 206, Type (0, 0), BuildingBlock: EZIPEK_clean_linker_0, # of connection points: 2
#     Edge 207, Type (0, 0), BuildingBlock: EZIPEK_clean_linker_0, # of connection points: 2
#     Edge 208, Type (0, 0), BuildingBlock: EZIPEK_clean_linker_0, # of connection points: 2
#     Edge 209, Type (0, 0), BuildingBlock: EZIPEK_clean_linker_0, # of connection points: 2
#     Edge 210, Type (0, 0), BuildingBlock: EZIPEK_clean_linker_0, # of connection points: 2
#     Edge 211, Type (0, 0), BuildingBlock: EZIPEK_clean_linker_0, # of connection points: 2
#     Edge 212, Type (0, 0), BuildingBlock: EZIPEK_clean_linker_0, # of connection points: 2
#     Edge 213, Type (0, 0), BuildingBlock: EZIPEK_clean_linker_0, # of connection points: 2
#     Edge 214, Type (0, 0), BuildingBlock: EZIPEK_clean_linker_0, # of connection points: 2
#     Edge 215, Type (0, 0), BuildingBlock: EZIPEK_clean_linker_0, # of connection points: 2
#     Edge 216, Type (0, 0), BuildingBlock: EZIPEK_clean_linker_0, # of connection points: 2
#     Edge 217, Type (0, 0), BuildingBlock: EZIPEK_clean_linker_0, # of connection points: 2
#     Edge 218, Type (0, 0), BuildingBlock: EZIPEK_clean_linker_0, # of connection points: 2
#     Edge 219, Type (0, 0), BuildingBlock: EZIPEK_clean_linker_0, # of connection points: 2
#     Edge 220, Type (0, 0), BuildingBlock: EZIPEK_clean_linker_0, # of connection points: 2
#     Edge 221, Type (0, 0), BuildingBlock: EZIPEK_clean_linker_0, # of connection points: 2
#     Edge 222, Type (0, 0), BuildingBlock: EZIPEK_clean_linker_0, # of connection points: 2
#     Edge 223, Type (0, 0), BuildingBlock: EZIPEK_clean_linker_0, # of connection points: 2
#     Edge 224, Type (0, 0), BuildingBlock: EZIPEK_clean_linker_0, # of connection points: 2
#     Edge 225, Type (0, 0), BuildingBlock: EZIPEK_clean_linker_0, # of connection points: 2
#     Edge 226, Type (0, 0), BuildingBlock: EZIPEK_clean_linker_0, # of connection points: 2
#     Edge 227, Type (0, 0), BuildingBlock: EZIPEK_clean_linker_0, # of connection points: 2
#     Edge 228, Type (0, 0), BuildingBlock: EZIPEK_clean_linker_0, # of connection points: 2
#     Edge 229, Type (0, 0), BuildingBlock: EZIPEK_clean_linker_0, # of connection points: 2
#     Edge 230, Type (0, 0), BuildingBlock: EZIPEK_clean_linker_0, # of connection points: 2
#     Edge 231, Type (0, 0), BuildingBlock: EZIPEK_clean_linker_0, # of connection points: 2
#     Edge 232, Type (0, 0), BuildingBlock: EZIPEK_clean_linker_0, # of connection points: 2
#     Edge 233, Type (0, 0), BuildingBlock: EZIPEK_clean_linker_0, # of connection points: 2
#     Edge 234, Type (0, 0), BuildingBlock: EZIPEK_clean_linker_0, # of connection points: 2
#     Edge 235, Type (0, 0), BuildingBlock: EZIPEK_clean_linker_0, # of connection points: 2
#     Edge 236, Type (0, 0), BuildingBlock: EZIPEK_clean_linker_0, # of connection points: 2
#     Edge 237, Type (0, 0), BuildingBlock: EZIPEK_clean_linker_0, # of connection points: 2
#     Edge 238, Type (0, 0), BuildingBlock: EZIPEK_clean_linker_0, # of connection points: 2
#     Edge 239, Type (0, 0), BuildingBlock: EZIPEK_clean_linker_0, # of connection points: 2
# Relax obj value: 0.412
# Max RMSD: 0.244
# Mean RMSD: 0.207
data_MOF--net-pyc--node1-GIZVER_clean_sbu_0--edge1-EZIPEK_clean_linker_0
_symmetry_space_group_name_H-M    P1
_symmetry_Int_Tables_number       1
_symmetry_cell_setting            triclinic
loop_
_symmetry_equiv_pos_as_xyz
'x, y, z'
_cell_length_a     50.641493
_cell_length_b     49.651946
_cell_length_c     48.250709
_cell_angle_alpha  89.919102
_cell_angle_beta   87.368393
_cell_angle_gamma 91.945745
loop_
_atom_site_label
_atom_site_type_symbol
_atom_site_fract_x
_atom_site_fract_y
_atom_site_fract_z
_atom_type_partial_charge
Co0 Co 0.18453 0.22645 0.4549 0.0
Co1 Co 0.19141 0.21606 0.49964 0.0
Co2 Co 0.17617 0.16141 0.47503 0.0
O3 O 0.16994 0.19926 0.47762 0.0
H4 H 0.1518 0.20231 0.48354 0.0
O5 O 0.18349 0.12391 0.47308 0.0
Co6 Co 0.16652 0.09709 0.49417 0.0
Co7 Co 0.1687 0.10881 0.44428 0.0
H8 H 0.20223 0.12129 0.47052 0.0
O9 O 0.17413 0.22833 0.52848 0.0
O10 O 0.19304 0.25068 0.48993 0.0
O11 O 0.22425 0.20094 0.50756 0.0
O12 O 0.2053 0.16057 0.50344 0.0
O13 O 0.14811 0.15611 0.50724 0.0
O14 O 0.15288 0.07111 0.51378 0.0
O15 O 0.19548 0.07703 0.49833 0.0
O16 O 0.13367 0.11547 0.49615 0.0
O17 O 0.14024 0.1583 0.45092 0.0
O18 O 0.13658 0.11845 0.4305 0.0
O19 O 0.15945 0.07689 0.45849 0.0
O20 O 0.19013 0.09141 0.42377 0.0
C21 C 0.16851 0.25709 0.43535 0.0
C22 C 0.22713 0.18897 0.44266 0.0
C23 C 0.22405 0.1759 0.512 0.0
C24 C 0.18376 0.25014 0.5163 0.0
C25 C 0.17729 0.06417 0.51374 0.0
C26 C 0.13006 0.13733 0.50939 0.0
C27 C 0.12565 0.13927 0.43895 0.0
C28 C 0.17389 0.07332 0.43532 0.0
O29 O 0.19372 0.25294 0.43219 0.0
O30 O 0.15357 0.2421 0.45213 0.0
O31 O 0.20891 0.16893 0.44402 0.0
O32 O 0.22034 0.21172 0.45284 0.0
Co33 Co 0.87646 0.43749 0.68598 0.0
Co34 Co 0.86522 0.44732 0.7341 0.0
Co35 Co 0.92743 0.44162 0.72077 0.0
O36 O 0.89162 0.43027 0.71955 0.0
H37 H 0.88956 0.41135 0.72413 0.0
O38 O 0.96399 0.45278 0.72101 0.0
Co39 Co 0.98947 0.4332 0.73707 0.0
Co40 Co 0.97941 0.44337 0.6872 0.0
H41 H 0.9662 0.47192 0.72411 0.0
O42 O 0.8436 0.42191 0.74917 0.0
O43 O 0.84172 0.44003 0.70596 0.0
O44 O 0.87667 0.47499 0.76041 0.0
O45 O 0.92042 0.46883 0.75339 0.0
O46 O 0.93184 0.41294 0.74924 0.0
O47 O 1.01471 0.41748 0.75333 0.0
O48 O 1.00928 0.46202 0.74729 0.0
O49 O 0.96954 0.39901 0.73188 0.0
O50 O 0.93322 0.40813 0.69202 0.0
O51 O 0.96936 0.41207 0.66512 0.0
O52 O 1.01055 0.43339 0.6998 0.0
O53 O 1.00002 0.46883 0.6717 0.0
C54 C 0.86292 0.41288 0.65542 0.0
C55 C 0.90238 0.48867 0.69117 0.0
C56 C 0.90061 0.4797 0.76693 0.0
C57 C 0.83363 0.42233 0.72476 0.0
C58 C 1.02133 0.4423 0.75861 0.0
C59 C 0.94805 0.39405 0.74646 0.0
C60 C 0.94982 0.39752 0.67373 0.0
C61 C 1.01704 0.45297 0.6819 0.0
O62 O 0.8618 0.43906 0.65287 0.0
O63 O 0.87144 0.4029 0.67802 0.0
O64 O 0.92328 0.47452 0.69373 0.0
O65 O 0.88026 0.47589 0.69095 0.0
Co66 Co 0.69094 0.23325 0.9651 0.0
Co67 Co 0.69265 0.21711 1.01212 0.0
Co68 Co 0.68021 0.16621 0.97579 0.0
O69 O 0.67517 0.20389 0.98343 0.0
H70 H 0.65655 0.20645 0.9874 0.0
O71 O 0.68575 0.12814 0.96982 0.0
Co72 Co 0.66379 0.10222 0.98809 0.0
Co73 Co 0.67002 0.11814 0.93807 0.0
H74 H 0.70417 0.1236 0.96872 0.0
O75 O 0.67393 0.23358 0.03774 0.0
O76 O 0.7016 0.25148 1.0026 0.0
O77 O 0.72242 0.19886 0.02411 0.0
O78 O 0.71353 0.16338 0.99783 0.0
O79 O 0.65563 0.15902 1.0105 0.0
O80 O 0.64488 0.07791 1.00478 0.0
O81 O 0.68764 0.07637 0.99133 0.0
O82 O 0.63507 0.12566 0.99074 0.0
O83 O 0.64191 0.16534 0.95515 0.0
O84 O 0.63877 0.13196 0.92483 0.0
O85 O 0.65657 0.08597 0.94981 0.0
O86 O 0.68889 0.09824 0.91635 0.0
C87 C 0.67595 0.26679 0.95047 0.0
C88 C 0.72973 0.19396 0.94451 0.0
C89 C 0.72811 0.17594 1.01487 0.0
C90 C 0.68984 0.2528 0.02782 0.0
C91 C 0.66622 0.06462 1.00268 0.0
C92 C 0.63495 0.14358 1.0094 0.0
C93 C 0.62739 0.14962 0.93903 0.0
C94 C 0.67205 0.08072 0.92775 0.0
O95 O 0.70114 0.26269 0.94637 0.0
O96 O 0.6612 0.25079 0.96629 0.0
O97 O 0.70987 0.17583 0.94305 0.0
O98 O 0.72533 0.21557 0.9586 0.0
Co99 Co 0.88171 0.95161 0.18536 0.0
Co100 Co 0.86695 0.94967 0.23317 0.0
Co101 Co 0.92993 0.94359 0.22161 0.0
O102 O 0.89342 0.93492 0.21671 0.0
H103 H 0.89002 0.91567 0.21672 0.0
O104 O 0.96739 0.95191 0.22664 0.0
Co105 Co 0.99095 0.9305 0.24484 0.0
Co106 Co 0.98586 0.93841 0.19737 0.0
H107 H 0.97105 0.97101 0.22871 0.0
O108 O 0.84163 0.92435 0.23962 0.0
O109 O 0.84522 0.95278 0.20245 0.0
O110 O 0.87864 0.96958 0.26577 0.0
O111 O 0.92266 0.96458 0.25869 0.0
O112 O 0.93124 0.90892 0.24305 0.0
O113 O 1.01324 0.91256 0.26298 0.0
O114 O 1.00967 0.95778 0.26042 0.0
O115 O 0.97293 0.89815 0.23409 0.0
O116 O 0.93441 0.91645 0.18584 0.0
O117 O 0.97593 0.90489 0.18045 0.0
O118 O 1.01707 0.93259 0.2106 0.0
O119 O 1.00354 0.96285 0.17777 0.0
C120 C 0.87214 0.93793 0.14812 0.0
C121 C 0.90835 0.99803 0.201 0.0
C122 C 0.9024 0.97322 0.27332 0.0
C123 C 0.83288 0.93329 0.21646 0.0
C124 C 1.0201 0.93653 0.27092 0.0
C125 C 0.94924 0.8914 0.24217 0.0
C126 C 0.952 0.89883 0.17712 0.0
C127 C 1.02168 0.94926 0.18926 0.0
O128 O 0.87161 0.96359 0.15367 0.0
O129 O 0.87612 0.92071 0.16771 0.0
O130 O 0.92874 0.98256 0.20181 0.0
O131 O 0.88608 0.98617 0.19983 0.0
Co132 Co 0.10402 0.18473 0.83501 0.0
Co133 Co 0.1277 0.18062 0.79142 0.0
Co134 Co 0.12233 0.1209 0.8151 0.0
O135 O 0.12708 0.15928 0.82018 0.0
H136 H 0.14474 0.16231 0.82654 0.0
O137 O 0.11859 0.08043 0.81054 0.0
Co138 Co 0.14401 0.06018 0.788 0.0
Co139 Co 0.13086 0.05943 0.8393 0.0
H140 H 0.10056 0.07511 0.80684 0.0
O141 O 0.15534 0.20135 0.7805 0.0
O142 O 0.11816 0.21289 0.80663 0.0
O143 O 0.10616 0.16732 0.76357 0.0
O144 O 0.1003 0.1248 0.77933 0.0
O145 O 0.15757 0.12337 0.79146 0.0
O146 O 0.16424 0.04089 0.76546 0.0
O147 O 0.12006 0.03663 0.77363 0.0
O148 O 0.17325 0.083 0.7977 0.0
O149 O 0.15064 0.11817 0.84859 0.0
O150 O 0.15673 0.07594 0.86154 0.0
O151 O 0.15089 0.03443 0.81955 0.0
O152 O 0.1164 1.02648 0.85069 0.0
C153 C 0.10905 0.20662 0.86985 0.0
C154 C 0.07048 0.1422 0.85017 0.0
C155 C 0.09595 0.14384 0.76162 0.0
C156 C 0.13747 0.21856 0.78803 0.0
C157 C 0.14155 0.03017 0.75942 0.0
C158 C 0.17725 0.10764 0.7912 0.0
C159 C 0.16517 0.1 0.86057 0.0
C160 C 0.13756 1.01851 0.83732 0.0
O161 O 0.08795 0.21018 0.85582 0.0
O162 O 0.12767 0.19257 0.85944 0.0
O163 O 0.08199 0.12302 0.83528 0.0
O164 O 0.08669 0.15911 0.86003 0.0
Co165 Co 0.86631 0.38634 0.12405 0.0
Co166 Co 0.85737 0.37555 0.08018 0.0
Co167 Co 0.91583 0.39476 0.07639 0.0
O168 O 0.87994 0.39946 0.08985 0.0
H169 H 0.87402 0.41723 0.08559 0.0
O170 O 0.95293 0.38991 0.06156 0.0
Co171 Co 0.96887 0.40166 0.02443 0.0
Co172 Co 0.97206 0.41903 0.07359 0.0
H173 H 0.95957 0.37339 0.06848 0.0
O174 O 0.83323 0.38978 0.06178 0.0
O175 O 0.83122 0.37392 0.10708 0.0
O176 O 0.87155 0.34399 0.06383 0.0
O177 O 0.90607 0.36801 0.0458 0.0
O178 O 0.91087 0.42899 0.05009 0.0
O179 O 0.98269 0.41113 0.99192 0.0
O180 O 0.99653 0.37849 1.01896 0.0
O181 O 0.9469 0.4298 0.02301 0.0
O182 O 0.92461 0.42463 0.10679 0.0
O183 O 0.95607 0.44997 0.0854 0.0
O184 O 0.99425 0.42413 0.04525 0.0
O185 O 1.00055 0.41098 0.09025 0.0
C186 C 0.85054 0.40491 0.15718 0.0
C187 C 0.90086 0.34165 0.11511 0.0
C188 C 0.89161 0.34616 0.04719 0.0
C189 C 0.82018 0.37968 0.08351 0.0
C190 C 1.00109 0.39541 0.99799 0.0
C191 C 0.92616 0.44092 0.03102 0.0
C192 C 0.93677 0.44812 0.10245 0.0
C193 C 1.0088 0.41413 0.06443 0.0
O194 O 0.85378 0.379 0.15763 0.0
O195 O 0.85465 0.41829 0.13408 0.0
O196 O 0.91904 0.3584 0.10295 0.0
O197 O 0.87773 0.35039 0.11868 0.0
Co198 Co 0.62596 0.1865 0.34884 0.0
Co199 Co 0.62303 0.19032 0.30263 0.0
Co200 Co 0.62944 0.12966 0.31921 0.0
O201 O 0.63809 0.16689 0.32061 0.0
H202 H 0.65691 0.17022 0.31762 0.0
O203 O 0.6241 0.08902 0.31543 0.0
Co204 Co 0.6504 0.07054 0.2905 0.0
Co205 Co 0.64139 0.06768 0.33992 0.0
H206 H 0.60592 0.08339 0.31293 0.0
O207 O 0.64686 0.20765 0.28209 0.0
O208 O 0.6276 0.22083 0.32376 0.0
O209 O 0.59483 0.17703 0.28115 0.0
O210 O 0.60735 0.13392 0.28341 0.0
O211 O 0.66343 0.12945 0.2945 0.0
O212 O 0.67116 0.05425 0.26643 0.0
O213 O 0.62689 0.04889 0.27228 0.0
O214 O 0.67957 0.09066 0.30356 0.0
O215 O 0.6573 0.12721 0.35346 0.0
O216 O 0.66986 0.08481 0.35809 0.0
O217 O 0.65675 0.0412 0.31853 0.0
O218 O 0.62701 0.037 0.35562 0.0
C219 C 0.64363 0.20145 0.38158 0.0
C220 C 0.57584 0.15815 0.34421 0.0
C221 C 0.59408 0.15296 0.27219 0.0
C222 C 0.64169 0.22616 0.30041 0.0
C223 C 0.64905 0.04395 0.25832 0.0
C224 C 0.68351 0.11467 0.29533 0.0
C225 C 0.67441 0.10953 0.36233 0.0
C226 C 0.64592 1.02747 0.33972 0.0
O227 O 0.61838 0.2045 0.37876 0.0
O228 O 0.65835 0.19287 0.36098 0.0
O229 O 0.59 0.13564 0.34213 0.0
O230 O 0.58922 0.18018 0.34015 0.0
Co231 Co 0.86844 0.86586 0.61598 0.0
Co232 Co 0.86542 0.88172 0.57651 0.0
Co233 Co 0.9243 0.88694 0.5765 0.0
O234 O 0.89089 0.8915 0.59712 0.0
H235 H 0.88828 0.90986 0.60298 0.0
O236 O 0.95909 0.8816 0.55668 0.0
Co237 Co 0.97776 0.89821 0.52471 0.0
Co238 Co 0.97473 0.91187 0.56869 0.0
H239 H 0.96773 0.86598 0.5634 0.0
O240 O 0.85083 0.90821 0.56192 0.0
O241 O 0.8363 0.88122 0.59882 0.0
O242 O 0.86989 0.8499 0.55541 0.0
O243 O 0.912 0.86131 0.54651 0.0
O244 O 0.91722 0.92147 0.55102 0.0
O245 O 0.99401 0.91206 0.49594 0.0
O246 O 1.00411 0.87426 0.51781 0.0
O247 O 0.9544 0.92611 0.52499 0.0
O248 O 0.93682 0.91644 0.60641 0.0
O249 O 0.9595 0.94388 0.57804 0.0
O250 O 1.0043 0.91601 0.55062 0.0
O251 O 0.99228 0.90196 0.59504 0.0
C252 C 0.85171 0.86434 0.65528 0.0
C253 C 0.9147 0.83584 0.61983 0.0
C254 C 0.89207 0.84529 0.54359 0.0
C255 C 0.83209 0.89892 0.57926 0.0
C256 C 1.01008 0.89295 0.49889 0.0
C257 C 0.93219 0.93498 0.5325 0.0
C258 C 0.9454 0.94098 0.59964 0.0
C259 C 1.01023 0.90739 0.57556 0.0
O260 O 0.84746 0.84484 0.63799 0.0
O261 O 0.86414 0.88604 0.64643 0.0
O262 O 0.92845 0.84877 0.59954 0.0
O263 O 0.89745 0.84919 0.63279 0.0
Co264 Co 0.51711 0.09615 0.11665 0.0
Co265 Co 0.46712 0.10572 0.12386 0.0
Co266 Co 0.498 0.16531 0.12513 0.0
O267 O 0.4969 0.12475 0.13423 0.0
H268 H 0.49705 0.1222 0.15408 0.0
O269 O 0.49919 0.20859 0.11815 0.0
Co270 Co 0.47724 0.24052 0.13839 0.0
Co271 Co 0.5269 0.22291 0.14036 0.0
H272 H 0.5031 0.21272 0.09879 0.0
O273 O 0.45222 0.07566 0.14279 0.0
O274 O 0.48209 0.07517 0.10648 0.0
O275 O 0.44611 0.12557 0.09964 0.0
O276 O 0.47412 0.16096 0.0908 0.0
O277 O 0.46705 0.16879 0.15296 0.0
O278 O 0.45838 0.26831 0.15775 0.0
O279 O 0.48309 0.27674 0.12038 0.0
O280 O 0.46587 0.21325 0.16119 0.0
O281 O 0.5222 0.16445 0.15838 0.0
O282 O 0.54658 0.20102 0.16579 0.0
O283 O 0.5083 0.24843 0.15998 0.0
O284 O 0.54431 0.2546 0.13074 0.0
C285 C 0.53112 0.05892 0.12781 0.0
C286 C 0.53627 0.14064 0.08221 0.0
C287 C 0.45455 0.14494 0.08403 0.0
C288 C 0.46501 0.06204 0.12388 0.0
C289 C 0.46852 0.28668 0.14113 0.0
C290 C 0.46058 0.18906 0.168 0.0
C291 C 0.54021 0.17679 0.17175 0.0
C292 C 0.52786 0.26364 0.14969 0.0
O293 O 0.53605 0.06892 0.10315 0.0
O294 O 0.5176 0.07305 0.14607 0.0
O295 O 0.5303 0.16053 0.09839 0.0
O296 O 0.52238 0.11833 0.08315 0.0
Co297 Co 0.88839 0.7014 0.44118 0.0
Co298 Co 0.89789 0.74931 0.43903 0.0
Co299 Co 0.9027 0.72619 0.37792 0.0
O300 O 0.90744 0.72346 0.41693 0.0
H301 H 0.926 0.72156 0.41952 0.0
O302 O 0.89964 0.73064 0.33689 0.0
Co303 Co 0.92458 0.75469 0.31535 0.0
Co304 Co 0.9187 0.70677 0.31574 0.0
H305 H 0.88153 0.73155 0.33157 0.0
O306 O 0.92113 0.76113 0.46211 0.0
O307 O 0.88528 0.7316 0.46985 0.0
O308 O 0.87491 0.7749 0.42497 0.0
O309 O 0.87592 0.75864 0.38166 0.0
O310 O 0.93417 0.75303 0.3775 0.0
O311 O 0.9447 0.77748 0.29538 0.0
O312 O 0.90069 0.77099 0.29382 0.0
O313 O 0.95395 0.74457 0.33686 0.0
O314 O 0.93559 0.69491 0.37397 0.0
O315 O 0.94919 0.69055 0.32968 0.0
O316 O 0.93087 0.72603 0.2854 0.0
O317 O 0.90162 0.68959 0.28932 0.0
C318 C 0.89938 0.67306 0.46668 0.0
C319 C 0.84649 0.70403 0.40508 0.0
C320 C 0.8672 0.77566 0.40043 0.0
C321 C 0.90115 0.75154 0.47761 0.0
C322 C 0.92237 0.78501 0.28661 0.0
C323 C 0.95503 0.75394 0.36149 0.0
C324 C 0.95384 0.68624 0.3547 0.0
C325 C 0.91763 0.70552 0.27455 0.0
O326 O 0.87429 0.67754 0.46488 0.0
O327 O 0.917 0.68939 0.45497 0.0
O328 O 0.86438 0.70235 0.38358 0.0
O329 O 0.85531 0.71114 0.42824 0.0
Co330 Co 0.34766 0.13599 0.7379 0.0
Co331 Co 0.30828 0.1543 0.71264 0.0
Co332 Co 0.35582 0.1613 0.67016 0.0
O333 O 0.34557 0.16418 0.71072 0.0
H334 H 0.35287 0.18031 0.71897 0.0
O335 O 0.36123 0.15477 0.63074 0.0
Co336 Co 0.34165 0.17416 0.60542 0.0
Co337 Co 0.38817 0.17346 0.61519 0.0
H338 H 0.36233 0.13594 0.62599 0.0
O339 O 0.28458 0.16582 0.73962 0.0
O340 O 0.30636 0.12651 0.73887 0.0
O341 O 0.29186 0.13785 0.68004 0.0
O342 O 0.33182 0.12667 0.66577 0.0
O343 O 0.32662 0.18569 0.66191 0.0
O344 O 0.32346 0.19084 0.581 0.0
O345 O 0.32936 0.14623 0.58443 0.0
O346 O 0.34663 0.20579 0.62588 0.0
O347 O 0.3805 0.2013 0.67041 0.0
O348 O 0.39857 0.2076 0.62778 0.0
O349 O 0.37549 0.17822 0.58154 0.0
O350 O 0.41021 0.15367 0.59742 0.0
C351 C 0.34782 0.13451 0.78044 0.0
C352 C 0.37858 0.11064 0.69254 0.0
C353 C 0.30663 0.12243 0.66598 0.0
C354 C 0.28552 0.14071 0.747 0.0
C355 C 0.31625 0.16642 0.5749 0.0
C356 C 0.33216 0.20728 0.64817 0.0
C357 C 0.39347 0.21764 0.65127 0.0
C358 C 0.39612 0.16275 0.57775 0.0
O359 O 0.35117 0.1132 0.76523 0.0
O360 O 0.342 0.15707 0.76852 0.0
O361 O 0.38461 0.13323 0.67912 0.0
O362 O 0.35785 0.10964 0.70915 0.0
Co363 Co 0.97469 0.56608 0.92207 0.0
Co364 Co 0.96458 0.61667 0.92593 0.0
Co365 Co 0.90502 0.58263 0.91949 0.0
O366 O 0.94546 0.58796 0.90997 0.0
H367 H 0.94785 0.59042 0.89013 0.0
O368 O 0.86388 0.5775 0.92708 0.0
Co369 Co 0.83551 0.58841 0.90011 0.0
Co370 Co 0.85313 0.54451 0.91311 0.0
H371 H 0.85855 0.57945 0.94644 0.0
O372 O 0.99517 0.63609 0.91155 0.0
O373 O 0.99577 0.60037 0.93994 0.0
O374 O 0.94207 0.63519 0.95209 0.0
O375 O 0.90816 0.60452 0.95696 0.0
O376 O 0.89654 0.61573 0.89591 0.0
O377 O 0.80712 0.6003 0.87505 0.0
O378 O 0.79992 0.59952 0.91873 0.0
O379 O 0.85238 0.62291 0.90263 0.0
O380 O 0.90593 0.5605 0.88245 0.0
O381 O 0.87646 0.52655 0.88625 0.0
O382 O 0.82156 0.55124 0.8967 0.0
O383 O 0.83059 0.52284 0.9325 0.0
C384 C 1.01124 0.55528 0.90567 0.0
C385 C 0.92954 0.54038 0.95793 0.0
C386 C 0.92296 0.62426 0.96654 0.0
C387 C 1.00896 0.62129 0.9273 0.0
C388 C 0.78968 0.60349 0.89478 0.0
C389 C 0.87476 0.62699 0.88918 0.0
C390 C 0.89586 0.53817 0.87317 0.0
C391 C 0.81734 0.52894 0.91094 0.0
O392 O 1.00161 0.54568 0.92919 0.0
O393 O 0.99734 0.57207 0.89185 0.0
O394 O 0.91081 0.54834 0.94278 0.0
O395 O 0.95287 0.55206 0.95554 0.0
Co396 Co 0.24877 0.46212 0.12127 0.0
Co397 Co 0.22024 0.50152 0.11195 0.0
Co398 Co 0.18509 0.44999 0.10429 0.0
O399 O 0.2204 0.46571 0.10138 0.0
H400 H 0.22746 0.46337 0.08286 0.0
O401 O 0.14802 0.43716 0.10668 0.0
Co402 Co 0.12819 0.45255 0.0783 0.0
Co403 Co 0.14238 0.40334 0.09166 0.0
H404 H 0.13967 0.43868 0.12498 0.0
O405 O 0.24535 0.52691 0.10008 0.0
O406 O 0.2461 0.49996 0.13802 0.0
O407 O 0.18821 0.51478 0.13013 0.0
O408 O 0.17511 0.47249 0.1382 0.0
O409 O 0.17777 0.48009 0.07851 0.0
O410 O 0.10765 0.4674 0.05506 0.0
O411 O 0.09752 0.45579 0.09911 0.0
O412 O 0.15618 0.45337 0.05219 0.0
O413 O 0.19373 0.42636 0.06757 0.0
O414 O 0.17052 0.38799 0.07052 0.0
O415 O 0.1217 0.41635 0.06465 0.0
O416 O 0.11111 0.38293 0.0951 0.0
C417 C 0.27676 0.43645 0.11776 0.0
C418 C 0.20878 0.42717 0.15426 0.0
C419 C 0.17415 0.49756 0.14396 0.0
C420 C 0.2541 0.52196 0.12439 0.0
C421 C 0.09201 0.46942 0.07686 0.0
C422 C 0.17139 0.47358 0.05434 0.0
C423 C 0.18542 0.40388 0.05604 0.0
C424 C 0.10722 0.39556 0.07214 0.0
O425 O 0.27822 0.4557 0.13613 0.0
O426 O 0.25493 0.43029 0.10607 0.0
O427 O 0.19443 0.42171 0.13319 0.0
O428 O 0.22827 0.44442 0.15206 0.0
Co429 Co 0.62948 0.37537 0.18697 0.0
Co430 Co 0.61839 0.32935 0.17979 0.0
Co431 Co 0.68093 0.34474 0.17536 0.0
O432 O 0.64457 0.34799 0.16518 0.0
H433 H 0.64262 0.34974 0.14543 0.0
O434 O 0.71727 0.34336 0.18557 0.0
Co435 Co 0.74731 0.32784 0.17276 0.0
Co436 Co 0.73196 0.37111 0.16506 0.0
H437 H 0.71957 0.34794 0.2047 0.0
O438 O 0.59201 0.32281 0.1579 0.0
O439 O 0.59495 0.35568 0.19084 0.0
O440 O 0.62843 0.30464 0.207 0.0
O441 O 0.67223 0.31487 0.20493 0.0
O442 O 0.68752 0.31755 0.14507 0.0
O443 O 0.77526 0.31029 0.16122 0.0
O444 O 0.73651 0.29351 0.18021 0.0
O445 O 0.73122 0.32292 0.1364 0.0
O446 O 0.68543 0.37397 0.14309 0.0
O447 O 0.72632 0.3765 0.12702 0.0
O448 O 0.76492 0.36489 0.16579 0.0
O449 O 0.73967 0.39858 0.18559 0.0
C450 C 0.61447 0.41077 0.17863 0.0
C451 C 0.65996 0.36541 0.22819 0.0
C452 C 0.65139 0.30238 0.21616 0.0
C453 C 0.5814 0.34152 0.17334 0.0
C454 C 0.76029 0.28986 0.16966 0.0
C455 C 0.70854 0.31254 0.13011 0.0
C456 C 0.70234 0.37705 0.12213 0.0
C457 C 0.76228 0.38786 0.17941 0.0
O458 O 0.6164 0.40265 0.20398 0.0
O459 O 0.62015 0.39467 0.15804 0.0
O460 O 0.67759 0.37094 0.20883 0.0
O461 O 0.63728 0.35925 0.22035 0.0
Co462 Co 0.75601 0.88125 0.4554 0.0
Co463 Co 0.71399 0.90833 0.44859 0.0
Co464 Co 0.7415 0.89492 0.38682 0.0
O465 O 0.74546 0.90593 0.4271 0.0
H466 H 0.75489 0.92308 0.42836 0.0
O467 O 0.73957 0.88332 0.34646 0.0
Co468 Co 0.72229 0.90278 0.31752 0.0
Co469 Co 0.77231 0.89418 0.32707 0.0
H470 H 0.73642 0.86408 0.345 0.0
O471 O 0.70868 0.92952 0.48275 0.0
O472 O 0.72299 0.88792 0.48029 0.0
O473 O 0.68697 0.88973 0.42717 0.0
O474 O 0.71353 0.86722 0.39712 0.0
O475 O 0.71256 0.9217 0.3828 0.0
O476 O 0.7062 0.91811 0.28997 0.0
O477 O 0.7187 0.87539 0.29148 0.0
O478 O 0.72386 0.93389 0.33945 0.0
O479 O 0.76717 0.92477 0.37841 0.0
O480 O 0.79607 0.92063 0.34303 0.0
O481 O 0.75677 0.91349 0.29993 0.0
O482 O 0.78373 0.87941 0.29348 0.0
C483 C 0.7765 0.88707 0.49143 0.0
C484 C 0.78842 0.86169 0.40724 0.0
C485 C 0.69239 0.86885 0.41274 0.0
C486 C 0.71616 0.90841 0.49574 0.0
C487 C 0.70842 0.89495 0.27771 0.0
C488 C 0.70983 0.93676 0.36159 0.0
C489 C 0.78702 0.93338 0.36376 0.0
C490 C 0.77043 0.89858 0.28308 0.0
O491 O 0.76912 0.8629 0.48436 0.0
O492 O 0.77361 0.90645 0.47407 0.0
O493 O 0.77103 0.86738 0.38952 0.0
O494 O 0.78712 0.87126 0.43203 0.0
Co495 Co 0.24743 0.96156 0.62614 0.0
Co496 Co 0.21708 0.99832 0.61837 0.0
Co497 Co 0.18421 0.94197 0.61083 0.0
O498 O 0.21772 0.96285 0.60488 0.0
H499 H 0.22186 0.96419 0.58516 0.0
O500 O 0.14947 0.92499 0.61826 0.0
Co501 Co 0.1217 0.94388 0.60286 0.0
Co502 Co 0.13937 0.899 0.59627 0.0
H503 H 0.14604 0.9199 0.63747 0.0
O504 O 0.22898 0.03196 0.60446 0.0
O505 O 0.25251 1.00263 0.62801 0.0
O506 O 0.19265 1.00113 0.64972 0.0
O507 O 0.17498 0.9595 0.64804 0.0
O508 O 0.16928 0.97234 0.59299 0.0
O509 O 0.0951 0.96182 0.5918 0.0
O510 O 0.09959 0.94385 0.63394 0.0
O511 O 0.14102 0.95002 0.56826 0.0
O512 O 0.1918 0.92304 0.57044 0.0
O513 O 0.15769 0.89512 0.56257 0.0
O514 O 0.10659 0.90867 0.58973 0.0
O515 O 0.12265 0.87051 0.61061 0.0
C516 C 0.28594 0.96032 0.61181 0.0
C517 C 0.22245 0.91077 0.64234 0.0
C518 C 0.17717 0.98257 0.6597 0.0
C519 C 0.24869 1.02736 0.61992 0.0
C520 C 0.0872 0.95989 0.61771 0.0
C521 C 0.15702 0.96997 0.57114 0.0
C522 C 0.17941 0.90592 0.55411 0.0
C523 C 0.10468 0.88313 0.59772 0.0
O524 O 0.28032 0.9597 0.63848 0.0
O525 O 0.26742 0.9594 0.59474 0.0
O526 O 0.19958 0.91201 0.63241 0.0
O527 O 0.2424 0.92285 0.62973 0.0
Co528 Co 0.61538 0.31967 0.38662 0.0
Co529 Co 0.5738 0.34446 0.39621 0.0
Co530 Co 0.62124 0.38534 0.39938 0.0
O531 O 0.60789 0.34922 0.40653 0.0
H532 H 0.608 0.34595 0.42628 0.0
O533 O 0.63026 0.42304 0.39363 0.0
Co534 Co 0.61496 0.4496 0.41718 0.0
Co535 Co 0.66221 0.43169 0.40549 0.0
H536 H 0.62806 0.4294 0.37511 0.0
O537 O 0.55 0.3225 0.41454 0.0
O538 O 0.576 0.31312 0.37592 0.0
O539 O 0.55913 0.37321 0.37541 0.0
O540 O 0.59932 0.39079 0.36611 0.0
O541 O 0.59149 0.39496 0.42342 0.0
O542 O 0.60102 0.47691 0.43566 0.0
O543 O 0.61373 0.47517 0.39058 0.0
O544 O 0.61052 0.42558 0.449 0.0
O545 O 0.64459 0.38131 0.43549 0.0
O546 O 0.67893 0.40985 0.43043 0.0
O547 O 0.65171 0.46051 0.42557 0.0
O548 O 0.68122 0.45714 0.38785 0.0
C549 C 0.62247 0.28342 0.39909 0.0
C550 C 0.64259 0.35935 0.34917 0.0
C551 C 0.57481 0.38903 0.36165 0.0
C552 C 0.5539 0.30936 0.39144 0.0
C553 C 0.60131 0.48747 0.41094 0.0
C554 C 0.59294 0.40688 0.44623 0.0
C555 C 0.66676 0.39161 0.44454 0.0
C556 C 0.67021 0.47043 0.40825 0.0
O557 O 0.62469 0.28875 0.37251 0.0
O558 O 0.6102 0.29925 0.41608 0.0
O559 O 0.64946 0.37385 0.37025 0.0
O560 O 0.62482 0.34032 0.35268 0.0
Co561 Co 0.12583 0.87532 0.17148 0.0
Co562 Co 0.11522 0.83008 0.16285 0.0
Co563 Co 0.17822 0.84336 0.16277 0.0
O564 O 0.14248 0.84761 0.15053 0.0
H565 H 0.14123 0.85033 0.13088 0.0
O566 O 0.21357 0.84303 0.17608 0.0
Co567 Co 0.24533 0.83144 0.163 0.0
Co568 Co 0.22624 0.87712 0.16315 0.0
H569 H 0.21335 0.84223 0.1961 0.0
O570 O 0.09158 0.82375 0.13751 0.0
O571 O 0.09079 0.85617 0.17105 0.0
O572 O 0.12478 0.80366 0.18824 0.0
O573 O 0.16901 0.81076 0.18812 0.0
O574 O 0.18768 0.81838 0.1313 0.0
O575 O 0.2751 0.81785 0.15056 0.0
O576 O 0.23752 0.79596 0.16627 0.0
O577 O 0.23091 0.82971 0.12558 0.0
O578 O 0.18452 0.87377 0.13196 0.0
O579 O 0.22507 0.88828 0.12518 0.0
O580 O 0.25955 0.86953 0.16139 0.0
O581 O 0.23727 0.89924 0.18952 0.0
C582 C 0.11144 0.91103 0.16175 0.0
C583 C 0.15235 0.86094 0.21607 0.0
C584 C 0.14747 0.79802 0.19664 0.0
C585 C 0.07949 0.84275 0.15122 0.0
C586 C 0.26212 0.79552 0.15694 0.0
C587 C 0.2094 0.81913 0.11631 0.0
C588 C 0.20393 0.88098 0.11461 0.0
C589 C 0.25892 0.88808 0.18082 0.0
O590 O 0.11147 0.903 0.18739 0.0
O591 O 0.11952 0.89521 0.14181 0.0
O592 O 0.17166 0.86646 0.19832 0.0
O593 O 0.13003 0.85834 0.20584 0.0
Co594 Co 0.10515 0.33737 0.86392 0.0
Co595 Co 0.06792 0.36429 0.88246 0.0
Co596 Co 0.12133 0.40055 0.88484 0.0
O597 O 0.10375 0.36554 0.8891 0.0
H598 H 0.1045 0.36074 0.90844 0.0
O599 O 0.13516 0.43627 0.87908 0.0
Co600 Co 0.11975 0.46302 0.90068 0.0
Co601 Co 0.16662 0.44337 0.89282 0.0
H602 H 0.13662 0.44111 0.85964 0.0
O603 O 1.04069 0.34495 0.90232 0.0
O604 O 0.06482 0.3303 0.86537 0.0
O605 O 0.0589 0.39323 0.85782 0.0
O606 O 0.10037 0.40951 0.85225 0.0
O607 O 0.09217 0.41212 0.91002 0.0
O608 O 0.10528 0.49046 0.9175 0.0
O609 O 0.11782 0.48691 0.8725 0.0
O610 O 0.11602 0.44034 0.93384 0.0
O611 O 0.1434 0.39412 0.92165 0.0
O612 O 0.18013 0.42003 0.91955 0.0
O613 O 0.15652 0.47512 0.90884 0.0
O614 O 0.18801 0.46673 0.87427 0.0
C615 C 0.111 0.29906 0.87563 0.0
C616 C 0.15054 0.36593 0.84335 0.0
C617 C 0.07637 0.40868 0.84564 0.0
C618 C 1.04332 0.32851 0.8815 0.0
C619 C 0.10486 0.49949 0.89225 0.0
C620 C 0.09678 0.42306 0.93291 0.0
C621 C 0.16466 0.404 0.93329 0.0
C622 C 0.17547 0.48297 0.89094 0.0
O623 O 0.10901 0.30375 0.84916 0.0
O624 O 0.11041 0.31809 0.89296 0.0
O625 O 0.14945 0.38868 0.85585 0.0
O626 O 0.14207 0.34496 0.8569 0.0
Co627 Co 0.12009 0.68995 0.33641 0.0
Co628 Co 0.11556 0.68108 0.29163 0.0
Co629 Co 0.12763 0.62557 0.31337 0.0
O630 O 0.134 0.66398 0.31461 0.0
H631 H 0.15259 0.66876 0.31184 0.0
O632 O 0.12269 0.58502 0.30948 0.0
Co633 Co 0.14696 0.56727 0.28221 0.0
Co634 Co 0.14084 0.56304 0.33175 0.0
H635 H 0.10436 0.57936 0.30803 0.0
O636 O 0.13706 0.69541 0.26636 0.0
O637 O 0.11437 0.71506 0.3031 0.0
O638 O 0.0847 0.66452 0.27761 0.0
O639 O 0.10814 0.62765 0.27545 0.0
O640 O 0.16337 0.6263 0.29127 0.0
O641 O 0.16575 0.55161 0.25603 0.0
O642 O 0.12176 0.54695 0.26461 0.0
O643 O 0.17755 0.58556 0.29471 0.0
O644 O 0.1543 0.62296 0.3487 0.0
O645 O 0.16897 0.58081 0.34984 0.0
O646 O 0.15423 0.53667 0.30822 0.0
O647 O 0.12718 0.53196 0.34732 0.0
C648 C 0.11924 0.6944 0.37689 0.0
C649 C 0.07229 0.65237 0.33886 0.0
C650 C 0.09017 0.64272 0.26568 0.0
C651 C 0.12808 0.7165 0.27906 0.0
C652 C 0.14297 0.54184 0.24913 0.0
C653 C 0.18267 0.6103 0.29029 0.0
C654 C 0.17238 0.60539 0.35595 0.0
C655 C 0.14418 0.5222 0.32927 0.0
O656 O 0.10957 0.71263 0.36094 0.0
O657 O 0.12586 0.67129 0.367 0.0
O658 O 0.08741 0.63064 0.33481 0.0
O659 O 0.08373 0.67559 0.3362 0.0
Co660 Co 0.36952 0.88234 0.12187 0.0
Co661 Co 0.36181 0.88695 0.0731 0.0
Co662 Co 0.42237 0.89254 0.08023 0.0
O663 O 0.38694 0.89969 0.09207 0.0
H664 H 0.38455 0.91891 0.0925 0.0
O665 O 0.45875 0.88558 0.06696 0.0
Co666 Co 0.48433 0.90638 0.04536 0.0
Co667 Co 0.47499 0.9064 0.09201 0.0
H668 H 0.46317 0.86693 0.06914 0.0
O669 O 0.33976 0.91203 0.06615 0.0
O670 O 0.33634 0.87848 0.09949 0.0
O671 O 0.37026 0.85818 0.04752 0.0
O672 O 0.41351 0.8624 0.05373 0.0
O673 O 0.42115 0.92233 0.049 0.0
O674 O 0.50901 0.92412 0.02606 0.0
O675 O 0.50727 0.87996 0.0357 0.0
O676 O 0.46271 0.93846 0.04902 0.0
O677 O 0.42925 0.92589 0.10805 0.0
O678 O 0.46951 0.94197 0.09939 0.0
O679 O 0.50633 0.90908 0.08007 0.0
O680 O 0.48488 0.88741 0.11835 0.0
C681 C 0.35151 0.89563 0.15662 0.0
C682 C 0.40323 0.83986 0.11457 0.0
C683 C 0.39364 0.85013 0.04335 0.0
C684 C 0.32581 0.8947 0.08156 0.0
C685 C 0.51994 0.90103 0.02453 0.0
C686 C 0.43909 0.94039 0.04059 0.0
C687 C 0.44664 0.94595 0.10824 0.0
C688 C 0.50592 0.89457 0.10321 0.0
O689 O 0.35302 0.86989 0.15201 0.0
O690 O 0.35902 0.91282 0.1372 0.0
O691 O 0.42253 0.85839 0.10953 0.0
O692 O 0.37984 0.84705 0.11051 0.0
Co693 Co 0.19388 0.73447 0.95751 0.0
Co694 Co 0.19461 0.72186 1.00624 0.0
Co695 Co 0.18189 0.66948 0.9722 0.0
O696 O 0.17715 0.70717 0.97863 0.0
H697 H 0.15856 0.71018 0.98221 0.0
O698 O 0.18782 0.63248 0.96666 0.0
Co699 Co 0.17015 0.60418 0.98381 0.0
Co700 Co 0.17179 0.62392 0.93467 0.0
H701 H 0.20643 0.62918 0.96368 0.0
O702 O 0.17645 0.74206 0.02918 0.0
O703 O 0.20543 0.75467 0.99264 0.0
O704 O 0.2228 0.70265 0.02121 0.0
O705 O 0.2154 0.66721 0.9944 0.0
O706 O 0.1575 0.66235 1.00687 0.0
O707 O 0.15501 0.57556 0.999 0.0
O708 O 0.19718 0.58254 0.98253 0.0
O709 O 0.13884 0.62497 0.99132 0.0
O710 O 0.1427 0.66798 0.95267 0.0
O711 O 0.13831 0.63337 0.92425 0.0
O712 O 0.16316 0.59058 0.9447 0.0
O713 O 0.19234 0.60907 0.91062 0.0
C714 C 0.17936 0.76598 0.93865 0.0
C715 C 0.23204 0.69493 0.94018 0.0
C716 C 0.2291 0.67977 1.01226 0.0
C717 C 0.19375 0.75891 1.0173 0.0
C718 C 0.17868 0.56711 0.99436 0.0
C719 C 0.13801 0.64509 1.00782 0.0
C720 C 0.12742 0.65158 0.93789 0.0
C721 C 0.18029 0.58868 0.92324 0.0
O722 O 0.20465 0.76175 0.93614 0.0
O723 O 0.16446 0.75234 0.95654 0.0
O724 O 0.21156 0.67759 0.93887 0.0
O725 O 0.22799 0.71679 0.95357 0.0
Co726 Co 0.37753 0.9777 0.69378 0.0
Co727 Co 0.3662 0.95449 0.73785 0.0
Co728 Co 0.42758 0.9477 0.72453 0.0
O729 O 0.39142 0.9473 0.7123 0.0
H730 H 0.38692 0.93041 0.70347 0.0
O731 O 0.46309 0.95033 0.73697 0.0
Co732 Co 0.48164 0.92696 0.75691 0.0
Co733 Co 0.48252 0.93599 0.70962 0.0
H734 H 0.46881 0.96885 0.73981 0.0
O735 O 0.33774 0.9327 0.73542 0.0
O736 O 0.34456 0.97441 0.71647 0.0
O737 O 0.37742 0.96921 0.77298 0.0
O738 O 0.42048 0.97014 0.76024 0.0
O739 O 0.4199 0.91449 0.74691 0.0
O740 O 0.50064 0.90634 0.77655 0.0
O741 O 0.50136 0.95182 0.77464 0.0
O742 O 0.46006 0.897 0.74365 0.0
O743 O 0.43387 0.91752 0.69033 0.0
O744 O 0.47447 0.90334 0.69193 0.0
O745 O 0.51115 0.92881 0.72559 0.0
O746 O 0.50097 0.9603 0.69215 0.0
C747 C 0.36128 0.98146 0.65622 0.0
C748 C 0.42312 0.998 0.68673 0.0
C749 C 0.40137 0.97545 0.77784 0.0
C750 C 0.32995 0.95257 0.72041 0.0
C751 C 0.50965 0.92951 0.78495 0.0
C752 C 0.43495 0.89465 0.74944 0.0
C753 C 0.45152 0.89871 0.68429 0.0
C754 C 0.51775 0.94723 0.70625 0.0
O755 O 0.36346 1.00274 0.67164 0.0
O756 O 0.36493 0.95809 0.66693 0.0
O757 O 0.43513 0.98613 0.70602 0.0
O758 O 0.4091 0.98243 0.67279 0.0
Co759 Co 0.61492 0.82347 0.88199 0.0
Co760 Co 0.57549 0.84784 0.90139 0.0
Co761 Co 0.62359 0.88899 0.89576 0.0
O762 O 0.61187 0.85253 0.90493 0.0
H763 H 0.61732 0.84799 0.92315 0.0
O764 O 0.63294 0.92552 0.88457 0.0
Co765 Co 0.61659 0.95357 0.9027 0.0
Co766 Co 0.66475 0.9379 0.89476 0.0
H767 H 0.63281 0.92812 0.86484 0.0
O768 O 0.55337 0.82038 0.91634 0.0
O769 O 0.5747 0.82099 0.87408 0.0
O770 O 0.55856 0.8794 0.8879 0.0
O771 O 0.59688 0.89111 0.86681 0.0
O772 O 0.59662 0.89999 0.92424 0.0
O773 O 0.60069 0.98137 0.91694 0.0
O774 O 0.61085 0.97351 0.87189 0.0
O775 O 0.61809 0.93601 0.93793 0.0
O776 O 0.65001 0.88829 0.92918 0.0
O777 O 0.67974 0.92256 0.92661 0.0
O778 O 0.65237 0.97044 0.90603 0.0
O779 O 0.68369 0.96097 0.87195 0.0
C780 C 0.61965 0.78648 0.89209 0.0
C781 C 0.64188 0.86346 0.84378 0.0
C782 C 0.57192 0.89283 0.86955 0.0
C783 C 0.55457 0.81261 0.89059 0.0
C784 C 0.5986 0.98765 0.89101 0.0
C785 C 0.60194 0.9164 0.94337 0.0
C786 C 0.66891 0.90292 0.94002 0.0
C787 C 0.67097 0.97795 0.88754 0.0
O788 O 0.62054 0.79273 0.86571 0.0
O789 O 0.60965 0.80223 0.91068 0.0
O790 O 0.64969 0.87737 0.86468 0.0
O791 O 0.62395 0.84474 0.84783 0.0
Co792 Co 0.12288 0.38029 0.6728 0.0
Co793 Co 0.1108 0.334 0.66678 0.0
Co794 Co 0.17282 0.34124 0.66403 0.0
O795 O 0.13819 0.35135 0.65383 0.0
H796 H 0.13694 0.3527 0.63398 0.0
O797 O 0.20739 0.33192 0.67521 0.0
Co798 Co 0.23387 0.31511 0.65674 0.0
Co799 Co 0.22599 0.36149 0.66235 0.0
H800 H 0.2084 0.3307 0.69512 0.0
O801 O 0.08773 0.32867 0.64131 0.0
O802 O 0.08774 0.36034 0.67598 0.0
O803 O 0.11707 0.30656 0.69365 0.0
O804 O 0.16107 0.31072 0.69057 0.0
O805 O 0.17473 0.31502 0.63246 0.0
O806 O 0.26 0.29918 0.64034 0.0
O807 O 0.2501 0.30272 0.68621 0.0
O808 O 0.21781 0.32239 0.62276 0.0
O809 O 0.18303 0.37056 0.63207 0.0
O810 O 0.22588 0.37579 0.62588 0.0
O811 O 0.25721 0.3496 0.66097 0.0
O812 O 0.23605 0.38105 0.68924 0.0
C813 C 0.10772 0.41483 0.66072 0.0
C814 C 0.15206 0.36548 0.71755 0.0
C815 C 0.13967 0.29978 0.70122 0.0
C816 C 0.07541 0.34503 0.65821 0.0
C817 C 0.26463 0.29322 0.66567 0.0
C818 C 0.19512 0.31275 0.61604 0.0
C819 C 0.20364 0.37736 0.61605 0.0
C820 C 0.25706 0.3691 0.67977 0.0
O821 O 0.10911 0.40907 0.68689 0.0
O822 O 0.11475 0.39731 0.64196 0.0
O823 O 0.17191 0.36557 0.69955 0.0
O824 O 0.12938 0.36646 0.70792 0.0
Co825 Co 0.395 0.70508 0.94196 0.0
Co826 Co 0.40004 0.75236 0.93588 0.0
Co827 Co 0.40509 0.72634 0.87687 0.0
O828 O 0.41202 0.72597 0.91551 0.0
H829 H 0.43094 0.72606 0.91738 0.0
O830 O 0.39981 0.72854 0.83649 0.0
Co831 Co 0.4216 0.75625 0.81703 0.0
Co832 Co 0.42043 0.70818 0.8133 0.0
H833 H 0.3814 0.72824 0.83199 0.0
O834 O 0.42361 0.76991 0.95389 0.0
O835 O 0.39321 0.73736 0.9696 0.0
O836 O 0.37164 0.77214 0.9238 0.0
O837 O 0.37539 0.75651 0.8805 0.0
O838 O 0.43595 0.75401 0.87415 0.0
O839 O 0.43886 0.78254 0.79963 0.0
O840 O 0.39493 0.77329 0.80086 0.0
O841 O 0.45269 0.74538 0.83287 0.0
O842 O 0.43886 0.69686 0.87231 0.0
O843 O 0.45222 0.69237 0.8276 0.0
O844 O 0.42848 0.7321 0.7842 0.0
O845 O 0.40438 0.69221 0.78482 0.0
C846 C 0.40781 0.67935 0.96912 0.0
C847 C 0.35149 0.70371 0.90612 0.0
C848 C 0.36339 0.77122 0.89955 0.0
C849 C 0.40897 0.75868 0.97396 0.0
C850 C 0.41518 0.78982 0.79498 0.0
C851 C 0.45591 0.75501 0.85683 0.0
C852 C 0.45717 0.68882 0.8529 0.0
C853 C 0.4167 0.71198 0.77142 0.0
O854 O 0.38253 0.68274 0.96755 0.0
O855 O 0.42478 0.69496 0.95539 0.0
O856 O 0.36887 0.70117 0.88458 0.0
O857 O 0.36055 0.71201 0.929 0.0
Co858 Co 0.97255 0.05755 0.42314 0.0
Co859 Co 0.96389 0.1088 0.42595 0.0
Co860 Co 0.90396 0.0775 0.42224 0.0
O861 O 0.944 0.07969 0.41171 0.0
H862 H 0.94603 0.08111 0.39177 0.0
O863 O 0.86221 0.07778 0.43038 0.0
Co864 Co 0.83317 0.09088 0.40319 0.0
Co865 Co 0.8508 0.0447 0.41725 0.0
H866 H 0.85739 0.07989 0.44985 0.0
O867 O 0.99438 0.12655 0.40987 0.0
O868 O 0.99458 0.09171 0.43962 0.0
O869 O 0.943 0.12982 0.45207 0.0
O870 O 0.90893 0.09994 0.45864 0.0
O871 O 0.89912 0.11015 0.39854 0.0
O872 O 0.80633 0.10261 0.37876 0.0
O873 O 0.79749 0.09217 0.42236 0.0
O874 O 0.86308 0.09311 0.37849 0.0
O875 O 0.9021 0.05469 0.38603 0.0
O876 O 0.87372 1.02087 0.3953 0.0
O877 O 0.82533 0.05304 0.39325 0.0
O878 O 0.82158 0.0306 0.43418 0.0
C879 C 1.00802 0.04492 0.4054 0.0
C880 C 0.9274 0.03433 0.46064 0.0
C881 C 0.92369 0.12006 0.46707 0.0
C882 C 1.00787 0.11198 0.42612 0.0
C883 C 0.7882 0.10034 0.39867 0.0
C884 C 0.8813 0.11139 0.38043 0.0
C885 C 0.892 0.03146 0.37967 0.0
C886 C 0.81358 0.0345 0.40926 0.0
O887 O 0.99938 0.03657 0.4298 0.0
O888 O 0.99425 0.06212 0.39201 0.0
O889 O 0.90811 0.04308 0.44647 0.0
O890 O 0.95106 0.04516 0.45723 0.0
Co891 Co 0.51096 0.59726 0.61905 0.0
Co892 Co 0.46062 0.60475 0.61945 0.0
Co893 Co 0.4911 0.66544 0.6256 0.0
O894 O 0.48772 0.62491 0.63375 0.0
H895 H 0.48538 0.62227 0.65357 0.0
O896 O 0.49488 0.70717 0.6215 0.0
Co897 Co 0.47748 0.73375 0.64934 0.0
Co898 Co 0.52433 0.72005 0.63907 0.0
H899 H 0.49481 0.71306 0.60241 0.0
O900 O 0.44536 0.57249 0.63511 0.0
O901 O 0.47927 0.57548 0.60329 0.0
O902 O 0.44295 0.62519 0.593 0.0
O903 O 0.47012 0.66228 0.5887 0.0
O904 O 0.45727 0.67271 0.6495 0.0
O905 O 0.45977 0.76263 0.67178 0.0
O906 O 0.47175 0.76854 0.62887 0.0
O907 O 0.44612 0.71582 0.64036 0.0
O908 O 0.51224 0.66347 0.66106 0.0
O909 O 0.54446 0.69476 0.66079 0.0
O910 O 0.5112 0.74739 0.66181 0.0
O911 O 0.54091 0.75057 0.6256 0.0
C912 C 0.52494 0.56175 0.63309 0.0
C913 C 0.53346 0.64103 0.58594 0.0
C914 C 0.45173 0.64589 0.57942 0.0
C915 C 0.46151 0.56042 0.61794 0.0
C916 C 0.46234 0.7798 0.65151 0.0
C917 C 0.44337 0.69395 0.65484 0.0
C918 C 0.53415 0.67275 0.67025 0.0
C919 C 0.53062 0.76004 0.6487 0.0
O920 O 0.53215 0.57119 0.60872 0.0
O921 O 0.50808 0.57484 0.64888 0.0
O922 O 0.52592 0.66038 0.60209 0.0
O923 O 0.5201 0.61857 0.58588 0.0
Co924 Co 0.89248 0.20312 0.94284 0.0
Co925 Co 0.89787 0.25151 0.93885 0.0
Co926 Co 0.90141 0.22681 0.87902 0.0
O927 O 0.90852 0.22566 0.9174 0.0
H928 H 0.9275 0.22582 0.91881 0.0
O929 O 0.8968 0.22962 0.83813 0.0
Co930 Co 0.92256 0.25339 0.81754 0.0
Co931 Co 0.91478 0.2041 0.81738 0.0
H932 H 0.87866 0.23154 0.83328 0.0
O933 O 0.92162 0.26649 0.95929 0.0
O934 O 0.88914 0.23415 0.97105 0.0
O935 O 0.87059 0.27323 0.92656 0.0
O936 O 0.87085 0.25595 0.88377 0.0
O937 O 0.92986 0.25662 0.87691 0.0
O938 O 0.94365 0.27632 0.79952 0.0
O939 O 0.90025 0.27068 0.79455 0.0
O940 O 0.95034 0.24227 0.83934 0.0
O941 O 0.93676 0.19842 0.87465 0.0
O942 O 0.94398 0.18444 0.83137 0.0
O943 O 0.92935 0.22438 0.78808 0.0
O944 O 0.89797 0.18969 0.78933 0.0
C945 C 0.90658 0.17724 0.96918 0.0
C946 C 0.84863 0.20244 0.90784 0.0
C947 C 0.86069 0.27177 0.90301 0.0
C948 C 0.90429 0.25539 0.97705 0.0
C949 C 0.92248 0.28433 0.78848 0.0
C950 C 0.95087 0.25605 0.86146 0.0
C951 C 0.95244 0.18585 0.85551 0.0
C952 C 0.91538 0.2052 0.77589 0.0
O953 O 0.88109 0.17936 0.96769 0.0
O954 O 0.92275 0.19378 0.95561 0.0
O955 O 0.8659 0.20052 0.88611 0.0
O956 O 0.85787 0.2096 0.9309 0.0
Co957 Co 1.00172 0.597 0.09694 0.0
Co958 Co 0.95968 0.60656 0.12356 0.0
Co959 Co 0.99466 0.66436 0.1219 0.0
O960 O 0.99347 0.62289 0.12656 0.0
H961 H 1.00055 0.61735 0.14384 0.0
O962 O 0.99502 0.70714 0.11771 0.0
Co963 Co 0.97595 0.73599 0.14324 0.0
Co964 Co 1.02589 0.72098 0.13547 0.0
H965 H 0.99563 0.71245 0.09841 0.0
O966 O 0.94507 0.57675 0.14556 0.0
O967 O 0.96855 0.57335 0.10543 0.0
O968 O 0.94055 0.62685 0.09692 0.0
O969 O 0.97023 0.66141 0.08842 0.0
O970 O 0.96307 0.66768 0.14923 0.0
O971 O 0.95964 0.76385 0.16561 0.0
O972 O 0.9734 0.77005 0.12249 0.0
O973 O 0.97487 0.70716 0.16898 0.0
O974 O 1.01887 0.66257 0.15531 0.0
O975 O 1.04488 0.69873 0.16076 0.0
O976 O 1.00999 0.7478 0.15565 0.0
O977 O 1.04263 0.75271 0.12288 0.0
C978 C 1.024 0.56113 0.09295 0.0
C979 C 1.04151 0.64296 0.08409 0.0
C980 C 0.94991 0.64631 0.08169 0.0
C981 C 0.95437 0.56165 0.12575 0.0
C982 C 0.96221 0.7808 0.14493 0.0
C983 C 0.95956 0.68628 0.16767 0.0
C984 C 1.03786 0.6748 0.16754 0.0
C985 C 1.02649 0.76329 0.1412 0.0
O986 O 1.01233 0.57113 0.07213 0.0
O987 O 1.02199 0.57365 0.1165 0.0
O988 O 1.02811 0.66256 0.09491 0.0
O989 O 1.03304 0.61849 0.08626 0.0
Co990 Co 0.68844 0.73194 0.46719 0.0
Co991 Co 0.68107 0.71168 0.51561 0.0
Co992 Co 0.67776 0.66505 0.47701 0.0
O993 O 0.67008 0.70201 0.48062 0.0
H994 H 0.65123 0.70406 0.47994 0.0
O995 O 0.68701 0.62862 0.47623 0.0
Co996 Co 0.67815 0.6061 0.50575 0.0
Co997 Co 0.6666 0.60665 0.45988 0.0
H998 H 0.70493 0.62654 0.46898 0.0
O999 O 0.66097 0.73329 0.5359 0.0
O1000 O 0.6974 0.74379 0.50713 0.0
O1001 O 0.70712 0.69206 0.53554 0.0
O1002 O 0.71198 0.66787 0.49782 0.0
O1003 O 0.65295 0.66025 0.51236 0.0
O1004 O 0.67291 0.58452 0.53343 0.0
O1005 O 0.71108 0.5947 0.5091 0.0
O1006 O 0.64223 0.6172 0.5091 0.0
O1007 O 0.63955 0.6584 0.45608 0.0
O1008 O 0.6312 0.61393 0.45494 0.0
O1009 O 0.66996 0.57619 0.47798 0.0
O1010 O 0.68389 0.59231 0.43386 0.0
C1011 C 0.67701 0.76872 0.45908 0.0
C1012 C 0.72711 0.69192 0.44456 0.0
C1013 C 0.72071 0.67647 0.52059 0.0
C1014 C 0.68132 0.74891 0.5288 0.0
C1015 C 0.69845 0.58396 0.53076 0.0
C1016 C 0.63647 0.64053 0.51818 0.0
C1017 C 0.62254 0.63728 0.45373 0.0
C1018 C 0.67811 0.57296 0.45168 0.0
O1019 O 0.70146 0.76207 0.45408 0.0
O1020 O 0.65969 0.75183 0.47036 0.0
O1021 O 0.70743 0.67341 0.44346 0.0
O1022 O 0.72243 0.71306 0.45927 0.0
Co1023 Co 0.6254 0.68984 0.83803 0.0
Co1024 Co 0.62288 0.6892 0.7919 0.0
Co1025 Co 0.63017 0.62932 0.81416 0.0
O1026 O 0.63841 0.66726 0.81216 0.0
H1027 H 0.65721 0.67045 0.8091 0.0
O1028 O 0.62473 0.58824 0.81389 0.0
Co1029 Co 0.65358 0.56948 0.79332 0.0
Co1030 Co 0.63912 0.5687 0.8426 0.0
H1031 H 0.60714 0.58226 0.8092 0.0
O1032 O 0.64458 0.70628 0.76852 0.0
O1033 O 0.62513 0.72208 0.80908 0.0
O1034 O 0.59413 0.67406 0.77382 0.0
O1035 O 0.60664 0.63112 0.77874 0.0
O1036 O 0.66399 0.62666 0.78892 0.0
O1037 O 0.67712 0.55371 0.7733 0.0
O1038 O 0.63377 0.54464 0.77345 0.0
O1039 O 0.67968 0.59195 0.80807 0.0
O1040 O 0.65906 0.62898 0.84784 0.0
O1041 O 0.66635 0.58712 0.86238 0.0
O1042 O 0.65798 0.5418 0.82421 0.0
O1043 O 0.62394 0.53668 0.85616 0.0
C1044 C 0.64248 0.70657 0.86913 0.0
C1045 C 0.57657 0.65812 0.83846 0.0
C1046 C 0.59295 0.64949 0.76672 0.0
C1047 C 0.63714 0.72621 0.78418 0.0
C1048 C 0.65777 0.53978 0.76353 0.0
C1049 C 0.68437 0.61379 0.79511 0.0
C1050 C 0.67367 0.61176 0.86144 0.0
C1051 C 0.64448 0.52703 0.84307 0.0
O1052 O 0.61736 0.71011 0.86575 0.0
O1053 O 0.65772 0.69858 0.84868 0.0
O1054 O 0.59177 0.63637 0.83786 0.0
O1055 O 0.5883 0.68061 0.83168 0.0
Co1056 Co 0.35183 0.64305 0.23523 0.0
Co1057 Co 0.31066 0.65407 0.21126 0.0
Co1058 Co 0.35562 0.66135 0.16534 0.0
O1059 O 0.34556 0.66712 0.20544 0.0
H1060 H 0.34795 0.68564 0.21104 0.0
O1061 O 0.36261 0.65352 0.1266 0.0
Co1062 Co 0.34421 0.67095 0.09913 0.0
Co1063 Co 0.39215 0.67025 0.11269 0.0
H1064 H 0.36436 0.63455 0.12292 0.0
O1065 O 0.28795 0.6707 0.23426 0.0
O1066 O 0.31094 0.63356 0.24314 0.0
O1067 O 0.29429 0.63182 0.18362 0.0
O1068 O 0.33242 0.6268 0.16158 0.0
O1069 O 0.32555 0.68391 0.15636 0.0
O1070 O 0.32718 0.68534 0.07243 0.0
O1071 O 0.33638 0.64165 0.07767 0.0
O1072 O 0.34496 0.704 0.11946 0.0
O1073 O 0.37825 0.70179 0.16307 0.0
O1074 O 0.40535 0.70395 0.12553 0.0
O1075 O 0.37982 0.67667 0.07857 0.0
O1076 O 0.41263 0.64937 0.09347 0.0
C1077 C 0.35841 0.64739 0.27621 0.0
C1078 C 0.37657 0.61124 0.19093 0.0
C1079 C 0.3081 0.61956 0.16553 0.0
C1080 C 0.29008 0.64867 0.24851 0.0
C1081 C 0.32326 0.66037 0.06562 0.0
C1082 C 0.3282 0.7041 0.14019 0.0
C1083 C 0.39342 0.7166 0.14463 0.0
C1084 C 0.39922 0.65986 0.07404 0.0
O1085 O 0.3594 0.62393 0.26441 0.0
O1086 O 0.35057 0.66812 0.26245 0.0
O1087 O 0.3837 0.63283 0.17599 0.0
O1088 O 0.35795 0.6134 0.20984 0.0
Co1089 Co 0.63177 0.89139 0.68831 0.0
Co1090 Co 0.61946 0.84894 0.66667 0.0
Co1091 Co 0.68132 0.85449 0.66864 0.0
O1092 O 0.6476 0.86907 0.6629 0.0
H1093 H 0.64666 0.87615 0.64452 0.0
O1094 O 0.71547 0.84033 0.67527 0.0
Co1095 Co 0.73766 0.82057 0.65244 0.0
Co1096 Co 0.73729 0.86779 0.66024 0.0
H1097 H 0.71847 0.83794 0.69471 0.0
O1098 O 0.59792 0.8616 0.63914 0.0
O1099 O 0.59803 0.86853 0.68658 0.0
O1100 O 0.62497 0.81686 0.69055 0.0
O1101 O 0.66801 0.82467 0.69563 0.0
O1102 O 0.67831 0.82937 0.63646 0.0
O1103 O 0.75982 0.80239 0.6318 0.0
O1104 O 0.75352 0.80151 0.67816 0.0
O1105 O 0.72048 0.83437 0.62124 0.0
O1106 O 0.69214 0.88442 0.63712 0.0
O1107 O 0.73423 0.88407 0.6243 0.0
O1108 O 0.76611 0.85027 0.65948 0.0
O1109 O 0.75167 0.88572 0.68647 0.0
C1110 C 0.61425 0.92644 0.68592 0.0
C1111 C 0.66607 0.87332 0.72454 0.0
C1112 C 0.64622 0.81175 0.70225 0.0
C1113 C 0.58983 0.85559 0.66428 0.0
C1114 C 0.7653 0.79248 0.65554 0.0
C1115 C 0.69657 0.82577 0.61767 0.0
C1116 C 0.71118 0.89011 0.61859 0.0
C1117 C 0.76763 0.86605 0.68173 0.0
O1118 O 0.6166 0.91495 0.70989 0.0
O1119 O 0.62141 0.91403 0.66322 0.0
O1120 O 0.68426 0.87706 0.70481 0.0
O1121 O 0.64218 0.87068 0.71796 0.0
Co1122 Co 0.73485 0.36618 0.96291 0.0
Co1123 Co 0.69629 0.40074 0.9531 0.0
Co1124 Co 0.72931 0.3859 0.89357 0.0
O1125 O 0.73081 0.39388 0.93492 0.0
H1126 H 0.7426 0.40906 0.93844 0.0
O1127 O 0.72807 0.37683 0.85277 0.0
Co1128 Co 0.71517 0.40015 0.82415 0.0
Co1129 Co 0.75787 0.39221 0.83542 0.0
H1130 H 0.72624 0.35775 0.84907 0.0
O1131 O 0.67746 0.4133 0.98811 0.0
O1132 O 0.70789 0.38356 0.98641 0.0
O1133 O 0.67253 0.37731 0.9329 0.0
O1134 O 0.69882 0.35982 0.89927 0.0
O1135 O 0.70353 0.41653 0.88797 0.0
O1136 O 0.70196 0.41884 0.79436 0.0
O1137 O 0.6982 0.37503 0.80051 0.0
O1138 O 0.68503 0.40619 0.84756 0.0
O1139 O 0.75976 0.41315 0.89047 0.0
O1140 O 0.76503 0.42799 0.84749 0.0
O1141 O 0.74597 0.39557 0.80121 0.0
O1142 O 0.78329 0.3759 0.81349 0.0
C1143 C 0.75635 0.36389 0.99934 0.0
C1144 C 0.76888 0.34436 0.91478 0.0
C1145 C 0.67655 0.36086 0.91296 0.0
C1146 C 0.68989 0.39549 1.00124 0.0
C1147 C 0.69681 0.39553 0.7838 0.0
C1148 C 0.68745 0.42167 0.86863 0.0
C1149 C 0.76596 0.43194 0.87324 0.0
C1150 C 0.76888 0.38648 0.79497 0.0
O1151 O 0.74086 0.34406 0.99207 0.0
O1152 O 0.76024 0.38398 0.98232 0.0
O1153 O 0.75638 0.35579 0.89556 0.0
O1154 O 0.76233 0.34834 0.94036 0.0
Co1155 Co 0.11422 0.8211 0.36786 0.0
Co1156 Co 0.07768 0.84772 0.38849 0.0
Co1157 Co 0.12843 0.88687 0.38477 0.0
O1158 O 0.11416 0.85069 0.39142 0.0
H1159 H 0.11764 0.84613 0.41026 0.0
O1160 O 0.13819 0.92397 0.37607 0.0
Co1161 Co 0.11861 0.94985 0.3959 0.0
Co1162 Co 0.16575 0.93789 0.39182 0.0
H1163 H 0.1399 0.92758 0.35636 0.0
O1164 O 0.05131 0.83157 0.41099 0.0
O1165 O 0.07467 0.81217 0.37551 0.0
O1166 O 0.06473 0.87486 0.36407 0.0
O1167 O 0.10457 0.89319 0.35387 0.0
O1168 O 0.10031 0.89685 0.41185 0.0
O1169 O 0.10002 0.97515 0.41176 0.0
O1170 O 0.11151 0.97137 0.36644 0.0
O1171 O 0.12126 0.93082 0.43014 0.0
O1172 O 0.15418 0.88268 0.41949 0.0
O1173 O 0.1765 0.92167 0.42449 0.0
O1174 O 0.15217 0.96975 0.40121 0.0
O1175 O 0.187 0.95951 0.37091 0.0
C1176 C 0.12394 0.78271 0.38072 0.0
C1177 C 0.15607 0.85309 0.34131 0.0
C1178 C 0.07993 0.89126 0.35022 0.0
C1179 C 0.05303 0.81364 0.39142 0.0
C1180 C 0.09822 0.98348 0.38645 0.0
C1181 C 0.10513 0.91076 0.43294 0.0
C1182 C 0.17028 0.89837 0.43367 0.0
C1183 C 0.17264 0.97663 0.38467 0.0
O1184 O 0.1181 0.78612 0.35488 0.0
O1185 O 0.12471 0.80284 0.3968 0.0
O1186 O 0.15517 0.87563 0.35439 0.0
O1187 O 0.14988 0.83109 0.3546 0.0
Co1188 Co 0.35966 0.3798 0.61468 0.0
Co1189 Co 0.3614 0.39771 0.5758 0.0
Co1190 Co 0.41919 0.3902 0.57873 0.0
O1191 O 0.38723 0.39884 0.59779 0.0
H1192 H 0.38793 0.41732 0.60404 0.0
O1193 O 0.45263 0.38026 0.55903 0.0
Co1194 Co 0.46644 0.3898 0.52209 0.0
Co1195 Co 0.47932 0.40157 0.57001 0.0
H1196 H 0.4563 0.3617 0.56294 0.0
O1197 O 0.35379 0.42824 0.56105 0.0
O1198 O 0.33354 0.40618 0.59885 0.0
O1199 O 0.3592 0.36537 0.55335 0.0
O1200 O 0.40295 0.36192 0.55467 0.0
O1201 O 0.41208 0.42179 0.5501 0.0
O1202 O 0.47978 0.39635 0.48929 0.0
O1203 O 0.4888 0.36175 0.51677 0.0
O1204 O 0.44687 0.42096 0.52105 0.0
O1205 O 0.43475 0.42265 0.60288 0.0
O1206 O 0.47462 0.43497 0.58611 0.0
O1207 O 0.49633 0.41007 0.53808 0.0
O1208 O 0.50844 0.38588 0.57528 0.0
C1209 C 0.34586 0.38377 0.65555 0.0
C1210 C 0.40476 0.34078 0.62187 0.0
C1211 C 0.38038 0.35333 0.54701 0.0
C1212 C 0.33343 0.42394 0.57824 0.0
C1213 C 0.49421 0.37602 0.49418 0.0
C1214 C 0.42615 0.4325 0.52937 0.0
C1215 C 0.45337 0.44123 0.59825 0.0
C1216 C 0.51452 0.39954 0.55261 0.0
O1217 O 0.33412 0.36669 0.63922 0.0
O1218 O 0.36506 0.39875 0.64572 0.0
O1219 O 0.42281 0.35562 0.60702 0.0
O1220 O 0.38194 0.35057 0.62612 0.0
Co1221 Co 0.37363 0.4579 0.18889 0.0
Co1222 Co 0.37116 0.43657 0.2354 0.0
Co1223 Co 0.43101 0.44796 0.22163 0.0
O1224 O 0.39648 0.44138 0.21092 0.0
H1225 H 0.39661 0.42285 0.205 0.0
O1226 O 0.46715 0.45465 0.23191 0.0
Co1227 Co 0.48783 0.42945 0.24882 0.0
Co1228 Co 0.48751 0.44777 0.20003 0.0
H1229 H 0.47021 0.47289 0.23826 0.0
O1230 O 0.35714 0.40256 0.23476 0.0
O1231 O 0.34432 0.43853 0.21008 0.0
O1232 O 0.37785 0.45831 0.26894 0.0
O1233 O 0.4196 0.4714 0.25563 0.0
O1234 O 0.42687 0.41534 0.24587 0.0
O1235 O 0.50805 0.40781 0.2657 0.0
O1236 O 0.50894 0.45326 0.26661 0.0
O1237 O 0.46627 0.39955 0.23523 0.0
O1238 O 0.44047 0.41768 0.18977 0.0
O1239 O 0.48124 0.41972 0.17268 0.0
O1240 O 0.51467 0.43292 0.21561 0.0
O1241 O 0.51104 0.47332 0.19208 0.0
C1242 C 0.36087 0.44531 0.15065 0.0
C1243 C 0.41603 0.49562 0.1839 0.0
C1244 C 0.39928 0.47199 0.27309 0.0
C1245 C 0.34194 0.41293 0.21665 0.0
C1246 C 0.51761 0.43031 0.27516 0.0
C1247 C 0.44216 0.39563 0.24389 0.0
C1248 C 0.45954 0.40678 0.17467 0.0
C1249 C 0.52482 0.45377 0.20107 0.0
O1250 O 0.35163 0.4672 0.1618 0.0
O1251 O 0.37741 0.43187 0.16371 0.0
O1252 O 0.43268 0.48508 0.20013 0.0
O1253 O 0.40113 0.47948 0.17072 0.0
Co1254 Co 0.38779 0.20942 0.44529 0.0
Co1255 Co 0.40061 0.2568 0.43835 0.0
Co1256 Co 0.4015 0.22982 0.37951 0.0
O1257 O 0.40657 0.22804 0.41835 0.0
H1258 H 0.42512 0.22522 0.4202 0.0
O1259 O 0.39762 0.23313 0.33869 0.0
Co1260 Co 0.42089 0.25895 0.31778 0.0
Co1261 Co 0.41792 0.21001 0.3176 0.0
H1262 H 0.37938 0.23305 0.33359 0.0
O1263 O 0.42542 0.2649 0.46312 0.0
O1264 O 0.38445 0.24361 0.46921 0.0
O1265 O 0.37713 0.28206 0.42308 0.0
O1266 O 0.37329 0.26136 0.38257 0.0
O1267 O 0.43201 0.25769 0.37889 0.0
O1268 O 0.43991 0.28334 0.29842 0.0
O1269 O 0.39604 0.27493 0.29706 0.0
O1270 O 0.45036 0.24943 0.33782 0.0
O1271 O 0.43611 0.20012 0.37544 0.0
O1272 O 0.44932 0.19397 0.33128 0.0
O1273 O 0.4287 0.23126 0.28802 0.0
O1274 O 0.40266 0.19223 0.29065 0.0
C1275 C 0.3994 0.18492 0.47405 0.0
C1276 C 0.34641 0.20621 0.40712 0.0
C1277 C 0.36644 0.28051 0.3999 0.0
C1278 C 0.40209 0.26268 0.47558 0.0
C1279 C 0.41708 0.29023 0.29049 0.0
C1280 C 0.45248 0.25805 0.36248 0.0
C1281 C 0.45465 0.19146 0.35633 0.0
C1282 C 0.41842 0.20925 0.27689 0.0
O1283 O 0.37412 0.18856 0.47212 0.0
O1284 O 0.41658 0.20057 0.46088 0.0
O1285 O 0.36462 0.20433 0.38599 0.0
O1286 O 0.35428 0.21581 0.42994 0.0
Co1287 Co 1.01313 0.09204 0.61685 0.0
Co1288 Co 0.96226 0.0998 0.62406 0.0
Co1289 Co 0.99187 0.16018 0.62577 0.0
O1290 O 0.99169 0.11962 0.63545 0.0
H1291 H 0.99228 0.11712 0.65526 0.0
O1292 O 0.99202 0.20239 0.61827 0.0
Co1293 Co 0.97546 0.23137 0.64526 0.0
Co1294 Co 1.02487 0.21542 0.63227 0.0
H1295 H 0.99075 0.20669 0.59885 0.0
O1296 O 0.94816 0.06864 0.64253 0.0
O1297 O 0.97864 0.06966 0.60692 0.0
O1298 O 0.94117 0.11945 0.59856 0.0
O1299 O 0.97003 0.15429 0.59034 0.0
O1300 O 0.95905 0.16482 0.65057 0.0
O1301 O 0.96102 0.25865 0.66907 0.0
O1302 O 0.97328 0.26616 0.62549 0.0
O1303 O 0.97433 0.20254 0.67036 0.0
O1304 O 1.01309 0.16243 0.66104 0.0
O1305 O 0.04661 0.19169 0.65424 0.0
O1306 O 1.01104 0.24131 0.65593 0.0
O1307 O 1.04047 0.24784 0.61983 0.0
C1308 C 1.02899 0.05538 0.62631 0.0
C1309 C 1.03162 0.1369 0.58366 0.0
C1310 C 0.9501 0.13895 0.58327 0.0
C1311 C 0.96201 0.0556 0.62402 0.0
C1312 C 0.96397 0.2763 0.64912 0.0
C1313 C 0.95697 0.18355 0.66891 0.0
C1314 C 1.03593 0.17167 0.66734 0.0
C1315 C 1.0272 0.25705 0.64123 0.0
O1316 O 1.03288 0.06641 0.60206 0.0
O1317 O 1.01524 0.06811 0.64559 0.0
O1318 O 1.02588 0.15603 0.60092 0.0
O1319 O 1.01744 0.1149 0.58396 0.0
Co1320 Co 0.84803 0.13616 0.23261 0.0
Co1321 Co 0.81175 0.15735 0.21031 0.0
Co1322 Co 0.85847 0.1608 0.16676 0.0
O1323 O 0.84886 0.16514 0.20682 0.0
H1324 H 0.85617 0.18134 0.2149 0.0
O1325 O 0.86345 0.15372 0.1273 0.0
Co1326 Co 0.84169 0.16938 0.10088 0.0
Co1327 Co 0.88771 0.17543 0.11069 0.0
H1328 H 0.8688 0.13557 0.12348 0.0
O1329 O 0.78617 0.17558 0.22984 0.0
O1330 O 0.80891 0.14104 0.24547 0.0
O1331 O 0.79807 0.13041 0.18442 0.0
O1332 O 0.83817 0.12401 0.16627 0.0
O1333 O 0.82593 0.18029 0.15983 0.0
O1334 O 0.822 0.1822 0.07546 0.0
O1335 O 0.83566 0.13981 0.07906 0.0
O1336 O 0.84036 0.20252 0.122 0.0
O1337 O 0.87977 0.20268 0.16482 0.0
O1338 O 0.8943 0.21044 0.12124 0.0
O1339 O 0.8752 0.17802 0.07729 0.0
O1340 O 0.91233 0.15814 0.09399 0.0
C1341 C 0.85936 0.13518 0.27385 0.0
C1342 C 0.89194 0.11966 0.19633 0.0
C1343 C 0.81399 0.11579 0.1707 0.0
C1344 C 0.78785 0.15586 0.24735 0.0
C1345 C 0.82076 0.15734 0.06766 0.0
C1346 C 0.82559 0.20092 0.14437 0.0
C1347 C 0.89037 0.21985 0.14506 0.0
C1348 C 0.89749 0.16491 0.07396 0.0
O1349 O 0.85108 0.11311 0.26211 0.0
O1350 O 0.85991 0.1574 0.26007 0.0
O1351 O 0.88962 0.13504 0.17454 0.0
O1352 O 0.88378 0.12835 0.22005 0.0
Co1353 Co 0.47058 0.55897 0.4297 0.0
Co1354 Co 0.46213 0.61013 0.42793 0.0
Co1355 Co 0.40219 0.57871 0.42174 0.0
O1356 O 0.44295 0.58038 0.41328 0.0
H1357 H 0.44628 0.58061 0.39341 0.0
O1358 O 0.36013 0.57857 0.42854 0.0
Co1359 Co 0.33138 0.59145 0.4007 0.0
Co1360 Co 0.34967 0.54524 0.41482 0.0
H1361 H 0.35478 0.58038 0.44791 0.0
O1362 O 0.49431 0.62639 0.41353 0.0
O1363 O 0.49062 0.59381 0.44598 0.0
O1364 O 0.44095 0.63069 0.45343 0.0
O1365 O 0.40599 0.6015 0.45825 0.0
O1366 O 0.39794 0.61206 0.39822 0.0
O1367 O 0.30466 0.60288 0.37579 0.0
O1368 O 0.29495 0.59024 0.4186 0.0
O1369 O 0.36203 0.59617 0.37712 0.0
O1370 O 0.40066 0.5565 0.38494 0.0
O1371 O 0.37415 0.52134 0.39506 0.0
O1372 O 0.32573 0.55372 0.38892 0.0
O1373 O 0.31952 0.53035 0.42909 0.0
C1374 C 0.50799 0.54622 0.41768 0.0
C1375 C 0.42399 0.53594 0.46181 0.0
C1376 C 0.42071 0.6215 0.46729 0.0
C1377 C 0.50573 0.61254 0.43213 0.0
C1378 C 0.286 0.59889 0.39494 0.0
C1379 C 0.38006 0.61437 0.38019 0.0
C1380 C 0.39149 0.53274 0.37892 0.0
C1381 C 0.31307 0.53488 0.4037 0.0
O1382 O 0.4964 0.53885 0.44118 0.0
O1383 O 0.49548 0.56174 0.40104 0.0
O1384 O 0.40577 0.54351 0.44544 0.0
O1385 O 0.44635 0.54945 0.46222 0.0
Co1386 Co 0.76238 0.43766 0.63042 0.0
Co1387 Co 0.74049 0.47514 0.63945 0.0
Co1388 Co 0.69604 0.44509 0.61425 0.0
O1389 O 0.73471 0.45091 0.61245 0.0
H1390 H 0.74149 0.45741 0.59452 0.0
O1391 O 0.65749 0.44254 0.61523 0.0
Co1392 Co 0.63656 0.47555 0.6165 0.0
Co1393 Co 0.65187 0.44866 0.57946 0.0
H1394 H 0.64956 0.42585 0.62246 0.0
O1395 O 0.74981 0.50799 0.62724 0.0
O1396 O 0.77387 0.47548 0.64736 0.0
O1397 O 0.72005 0.47298 0.67325 0.0
O1398 O 0.68804 0.47364 0.6446 0.0
O1399 O 0.69841 0.47331 0.58635 0.0
O1400 O 0.61656 0.50349 0.61983 0.0
O1401 O 0.60703 0.46114 0.63494 0.0
O1402 O 0.66387 0.49656 0.59851 0.0
O1403 O 0.69823 0.41714 0.58047 0.0
O1404 O 0.67807 0.44295 0.55058 0.0
O1405 O 0.62117 0.46692 0.57962 0.0
O1406 O 0.63036 0.42303 0.57135 0.0
C1407 C 0.78092 0.40303 0.62695 0.0
C1408 C 0.71372 0.4157 0.66493 0.0
C1409 C 0.69661 0.47825 0.66875 0.0
C1410 C 0.77077 0.50094 0.63967 0.0
C1411 C 0.60068 0.48641 0.63298 0.0
C1412 C 0.68644 0.49482 0.58647 0.0
C1413 C 0.69064 0.42189 0.55516 0.0
C1414 C 0.61417 0.44252 0.57201 0.0
O1415 O 0.78856 0.42136 0.6444 0.0
O1416 O 0.75869 0.40499 0.61478 0.0
O1417 O 0.69736 0.41677 0.64506 0.0
O1418 O 0.73773 0.42555 0.66187 0.0
Co1419 Co 0.25447 0.87462 0.94963 0.0
Co1420 Co 0.20614 0.8865 0.9431 0.0
Co1421 Co 0.23622 0.887 0.88117 0.0
O1422 O 0.23664 0.89511 0.92256 0.0
H1423 H 0.24008 0.91412 0.92559 0.0
O1424 O 0.23827 0.87896 0.83877 0.0
Co1425 Co 0.21676 0.89228 0.80782 0.0
Co1426 Co 0.2659 0.90087 0.82146 0.0
H1427 H 0.24184 0.86018 0.83568 0.0
O1428 O 0.1961 0.90198 0.97782 0.0
O1429 O 0.21887 0.8646 0.97161 0.0
O1430 O 0.18091 0.86923 0.91979 0.0
O1431 O 0.20899 0.85685 0.8852 0.0
O1432 O 0.2069 0.91364 0.87812 0.0
O1433 O 0.19797 0.90288 0.77892 0.0
O1434 O 0.22858 0.87177 0.77731 0.0
O1435 O 0.20142 0.91599 0.8325 0.0
O1436 O 0.26122 0.91845 0.8796 0.0
O1437 O 0.28583 0.92722 0.84172 0.0
O1438 O 0.24571 0.91901 0.79757 0.0
O1439 O 0.28172 0.89447 0.78761 0.0
C1440 C 0.27057 0.88266 0.98671 0.0
C1441 C 0.27033 0.84334 0.90315 0.0
C1442 C 0.18604 0.8558 0.89775 0.0
C1443 C 0.20551 0.88063 0.98881 0.0
C1444 C 0.21316 0.8877 0.76389 0.0
C1445 C 0.19677 0.92419 0.85695 0.0
C1446 C 0.27878 0.93254 0.86638 0.0
C1447 C 0.26573 0.91314 0.78095 0.0
O1448 O 0.27088 0.85883 0.97565 0.0
O1449 O 0.25947 0.902 0.97364 0.0
O1450 O 0.26625 0.86084 0.88431 0.0
O1451 O 0.25546 0.84305 0.92562 0.0
Co1452 Co 0.75078 0.95416 0.12843 0.0
Co1453 Co 0.72857 0.99824 0.12077 0.0
Co1454 Co 0.68717 0.94885 0.11537 0.0
O1455 O 0.7228 0.9638 0.10742 0.0
H1456 H 0.72704 0.96348 0.0877 0.0
O1457 O 0.65175 0.93569 0.12503 0.0
Co1458 Co 0.6221 0.94982 0.11063 0.0
Co1459 Co 0.64461 0.9035 0.10921 0.0
H1460 H 0.6486 0.93202 0.1444 0.0
O1461 O 0.75403 1.0224 0.10713 0.0
O1462 O 0.7573 0.99299 0.1429 0.0
O1463 O 0.69938 1.01332 0.14207 0.0
O1464 O 0.68199 0.97217 0.14944 0.0
O1465 O 0.67495 0.97817 0.09284 0.0
O1466 O 0.59245 0.96273 0.09932 0.0
O1467 O 0.60133 0.94995 0.14243 0.0
O1468 O 0.6407 0.95589 0.07612 0.0
O1469 O 0.69043 0.92649 0.07724 0.0
O1470 O 0.6613 0.89204 0.07557 0.0
O1471 O 0.61115 0.91146 0.10202 0.0
O1472 O 0.62793 0.87938 0.13068 0.0
C1473 C 0.78793 0.947 0.11689 0.0
C1474 C 0.71043 0.92657 0.16329 0.0
C1475 C 0.68351 0.99724 0.15531 0.0
C1476 C 0.7643 1.01588 0.13034 0.0
C1477 C 0.58639 0.96278 0.12576 0.0
C1478 C 0.6594 0.97375 0.07358 0.0
C1479 C 0.67907 0.90674 0.0636 0.0
C1480 C 0.60844 0.89084 0.11922 0.0
O1481 O 0.77984 0.94332 0.14277 0.0
O1482 O 0.77345 0.95937 0.09987 0.0
O1483 O 0.69916 0.91952 0.14097 0.0
O1484 O 0.72857 0.94515 0.16184 0.0
Co1485 Co 0.47565 0.06306 0.92738 0.0
Co1486 Co 0.46616 0.11305 0.93123 0.0
Co1487 Co 0.40635 0.07908 0.9261 0.0
O1488 O 0.4464 0.08438 0.91589 0.0
H1489 H 0.44838 0.08665 0.896 0.0
O1490 O 0.36368 0.07627 0.93507 0.0
Co1491 Co 0.32337 0.08647 0.92039 0.0
Co1492 Co 0.35204 0.04279 0.92202 0.0
H1493 H 0.36142 0.07489 0.95514 0.0
O1494 O 0.49492 0.13346 0.9152 0.0
O1495 O 0.49776 0.09723 0.94277 0.0
O1496 O 0.44745 0.12813 0.96154 0.0
O1497 O 0.40833 0.10494 0.96064 0.0
O1498 O 0.39884 0.10799 0.89813 0.0
O1499 O 0.30125 0.10227 0.88986 0.0
O1500 O 0.28263 0.08552 0.92572 0.0
O1501 O 0.35971 0.09283 0.90964 0.0
O1502 O 0.40712 0.05328 0.89235 0.0
O1503 O 0.37404 1.02292 0.89614 0.0
O1504 O 0.3211 0.04986 0.90508 0.0
O1505 O 0.32713 1.02269 0.9415 0.0
C1506 C 0.51031 0.05016 0.90866 0.0
C1507 C 0.43348 0.03921 0.9659 0.0
C1508 C 0.42468 0.12204 0.97215 0.0
C1509 C 0.50965 0.11866 0.92994 0.0
C1510 C 0.27883 0.09719 0.90267 0.0
C1511 C 0.37454 0.10645 0.89225 0.0
C1512 C 0.39512 0.03181 0.88377 0.0
C1513 C 0.31375 0.02874 0.92006 0.0
O1514 O 0.5029 0.04272 0.93374 0.0
O1515 O 0.49597 0.06686 0.89537 0.0
O1516 O 0.4133 0.04653 0.95221 0.0
O1517 O 0.45593 0.05254 0.96286 0.0
Co1518 Co 0.85328 0.63798 0.73183 0.0
Co1519 Co 0.81177 0.64713 0.70675 0.0
Co1520 Co 0.8573 0.65598 0.66189 0.0
O1521 O 0.84713 0.6613 0.70186 0.0
H1522 H 0.85233 0.67907 0.70805 0.0
O1523 O 0.86401 0.64866 0.62283 0.0
Co1524 Co 0.84562 0.668 0.59648 0.0
Co1525 Co 0.89382 0.66559 0.60915 0.0
H1526 H 0.86456 0.62984 0.61815 0.0
O1527 O 0.78752 0.66394 0.72743 0.0
O1528 O 0.81234 0.62899 0.73995 0.0
O1529 O 0.7975 0.61951 0.6827 0.0
O1530 O 0.83559 0.61981 0.65907 0.0
O1531 O 0.82693 0.67899 0.65219 0.0
O1532 O 0.8283 0.68455 0.57075 0.0
O1533 O 0.83494 0.64037 0.57381 0.0
O1534 O 0.84928 0.69951 0.61803 0.0
O1535 O 0.88005 0.69656 0.66056 0.0
O1536 O 0.90803 0.69879 0.62343 0.0
O1537 O 0.88105 0.67233 0.57519 0.0
O1538 O 0.91376 0.64455 0.5894 0.0
C1539 C 0.85753 0.64235 0.77329 0.0
C1540 C 0.87897 0.60667 0.68793 0.0
C1541 C 0.81337 0.60797 0.66614 0.0
C1542 C 0.79072 0.64337 0.7435 0.0
C1543 C 0.82279 0.66032 0.5626 0.0
C1544 C 0.83141 0.70026 0.63751 0.0
C1545 C 0.89662 0.71115 0.64317 0.0
C1546 C 0.89954 0.65452 0.57034 0.0
O1547 O 0.86044 0.61929 0.76102 0.0
O1548 O 0.85081 0.66323 0.75906 0.0
O1549 O 0.88577 0.62823 0.67284 0.0
O1550 O 0.85997 0.60802 0.70651 0.0
Co1551 Co 0.2613 0.39712 0.45304 0.0
Co1552 Co 0.21102 0.39999 0.4467 0.0
Co1553 Co 0.23861 0.39521 0.38315 0.0
O1554 O 0.23977 0.40965 0.42308 0.0
H1555 H 0.24073 0.42911 0.42258 0.0
O1556 O 0.23886 0.38185 0.34375 0.0
Co1557 Co 0.22731 0.40525 0.31465 0.0
Co1558 Co 0.27329 0.38942 0.3284 0.0
H1559 H 0.2334 0.3631 0.34206 0.0
O1560 O 0.19896 0.41672 0.48029 0.0
O1561 O 0.22782 0.38339 0.47688 0.0
O1562 O 0.18669 0.3775 0.42709 0.0
O1563 O 0.21528 0.36318 0.39395 0.0
O1564 O 0.20686 0.41831 0.37558 0.0
O1565 O 0.2147 0.42449 0.28467 0.0
O1566 O 0.21569 0.38042 0.28706 0.0
O1567 O 0.19408 0.40527 0.33342 0.0
O1568 O 0.26059 0.42759 0.37292 0.0
O1569 O 0.29537 0.41695 0.34589 0.0
O1570 O 0.2627 0.40623 0.29681 0.0
O1571 O 0.28623 0.36922 0.29907 0.0
C1572 C 0.27485 0.41364 0.48951 0.0
C1573 C 0.27841 0.35844 0.40902 0.0
C1574 C 0.19357 0.3607 0.40844 0.0
C1575 C 0.2122 0.39868 0.4927 0.0
C1576 C 0.21142 0.40164 0.27225 0.0
C1577 C 0.19146 0.42004 0.35495 0.0
C1578 C 0.28317 0.4333 0.36158 0.0
C1579 C 0.27522 0.38719 0.28425 0.0
O1580 O 0.28167 0.3899 0.48102 0.0
O1581 O 0.25979 0.42766 0.47403 0.0
O1582 O 0.27123 0.37264 0.38849 0.0
O1583 O 0.26843 0.3623 0.43374 0.0
C1584 C 0.17557 0.99302 0.52914 0.0
C1585 C 0.15869 0.99381 0.55319 0.0
C1586 C 0.16848 0.04194 0.5576 0.0
C1587 C 0.18263 0.04155 0.53192 0.0
N1588 N 0.21035 1.01634 0.50113 0.0
N1589 N 0.13508 1.01991 0.58761 0.0
C1590 C 0.18954 1.0169 0.51997 0.0
C1591 C 0.15398 1.01865 0.56665 0.0
N1592 N 0.17697 0.96978 0.51437 0.0
N1593 N 0.16907 0.06494 0.573 0.0
H1594 H 0.1241 1.00292 0.59455 0.0
H1595 H 0.1289 0.03795 0.59636 0.0
H1596 H 0.18013 0.08201 0.56612 0.0
H1597 H 0.16097 0.06609 0.59319 0.0
H1598 H 0.18756 0.96839 0.49545 0.0
H1599 H 0.16519 0.9528 0.51989 0.0
H1600 H 0.21869 0.99844 0.49451 0.0
H1601 H 0.22078 0.03394 0.49478 0.0
C1602 C 0.08072 0.42614 0.79635 0.0
C1603 C 0.06849 0.42692 0.82341 0.0
C1604 C 1.03318 0.45392 0.80633 0.0
C1605 C 1.04167 0.44684 0.77896 0.0
N1606 N 0.07421 0.4287 0.74704 0.0
N1607 N 1.04067 0.45108 0.85571 0.0
C1608 C 0.06617 0.43453 0.77372 0.0
C1609 C 0.04707 0.444 0.82892 0.0
N1610 N 0.10602 0.41782 0.79215 0.0
N1611 N 1.01055 0.46786 0.81062 0.0
H1612 H 0.0514 0.44468 0.87234 0.0
H1613 H 1.02655 0.46502 0.86138 0.0
H1614 H 1.00085 0.47652 0.79443 0.0
H1615 H 1.00116 0.47069 0.82997 0.0
H1616 H 0.11643 0.41898 0.77305 0.0
H1617 H 0.11799 0.4127 0.80809 0.0
H1618 H 0.08978 0.41626 0.74177 0.0
H1619 H 0.06404 0.43522 0.73011 0.0
C1620 C 0.72275 0.27694 0.05814 0.0
C1621 C 0.69668 0.27408 0.04872 0.0
C1622 C 0.67959 0.28949 0.09424 0.0
C1623 C 0.70554 0.29629 0.10308 0.0
N1624 N 0.75311 0.29091 0.09138 0.0
N1625 N 0.65107 0.2852 0.05566 0.0
C1626 C 0.72737 0.28869 0.0846 0.0
C1627 C 0.6756 0.28349 0.06594 0.0
N1628 N 0.74364 0.26769 0.04234 0.0
N1629 N 0.659 0.28485 0.11314 0.0
H1630 H 0.64735 0.28015 0.03522 0.0
H1631 H 0.63545 0.29408 0.06668 0.0
H1632 H 0.66176 0.28163 0.13413 0.0
H1633 H 0.64012 0.27868 0.10748 0.0
H1634 H 0.76298 0.2682 0.04896 0.0
H1635 H 0.74196 0.25977 0.02255 0.0
H1636 H 0.75999 0.29706 0.11036 0.0
H1637 H 0.75999 0.29706 0.11036 0.0
C1638 C 0.77118 0.93219 0.24253 0.0
C1639 C 0.77405 0.90527 0.25283 0.0
C1640 C 0.80251 0.89578 0.21196 0.0
C1641 C 0.80655 0.92366 0.20906 0.0
N1642 N 0.78415 0.9646 0.20581 0.0
N1643 N 0.78409 0.85913 0.2408 0.0
C1644 C 0.78654 0.94034 0.21851 0.0
C1645 C 0.78642 0.88603 0.23489 0.0
N1646 N 0.75601 0.95048 0.2563 0.0
N1647 N 0.81687 0.87949 0.19484 0.0
H1648 H 0.77137 0.8514 0.25669 0.0
H1649 H 0.79364 0.84428 0.22941 0.0
H1650 H 0.82963 0.88785 0.17928 0.0
H1651 H 0.81569 0.85854 0.19527 0.0
H1652 H 0.75709 0.97103 0.25188 0.0
H1653 H 0.74201 0.94556 0.27188 0.0
H1654 H 0.76871 0.97747 0.21024 0.0
H1655 H 0.79687 0.97041 0.18902 0.0
C1656 C 0.12161 0.25733 0.72445 0.0
C1657 C 0.14062 0.27903 0.7239 0.0
C1658 C 0.15699 0.26204 0.76798 0.0
C1659 C 0.13588 0.24259 0.76975 0.0
N1660 N 0.09389 0.22674 0.75267 0.0
N1661 N 0.17458 0.30399 0.74839 0.0
C1662 C 0.11675 0.24202 0.7491 0.0
C1663 C 0.15791 0.28194 0.74651 0.0
N1664 N 0.1093 0.25008 0.70082 0.0
N1665 N 0.17637 0.26133 0.78674 0.0
H1666 H 0.17713 0.31876 0.73326 0.0
H1667 H 0.18462 0.30877 0.76619 0.0
H1668 H 0.1752 0.2484 0.80386 0.0
H1669 H 0.19415 0.27248 0.7845 0.0
H1670 H 0.09715 0.2328 0.69947 0.0
H1671 H 0.11386 0.25922 0.68163 0.0
H1672 H 0.07845 0.22761 0.73917 0.0
H1673 H 0.0889 0.21565 0.77055 0.0
C1674 C 0.78071 0.34227 0.03789 0.0
C1675 C 0.76733 0.36481 0.02755 0.0
C1676 C 0.77614 0.38959 0.07056 0.0
C1677 C 0.7935 0.36963 0.07754 0.0
N1678 N 0.80529 0.32369 0.07555 0.0
N1679 N 0.75014 0.40947 0.03571 0.0
C1680 C 0.79269 0.34452 0.064 0.0
C1681 C 0.76402 0.38823 0.04458 0.0
N1682 N 0.7839 0.31982 0.02185 0.0
N1683 N 0.77231 0.41019 0.08884 0.0
H1684 H 0.73982 0.40928 1.01764 0.0
H1685 H 0.74929 0.42791 0.04585 0.0
H1686 H 0.78191 0.41076 0.10757 0.0
H1687 H 0.75843 0.42496 0.08683 0.0
H1688 H 0.79443 0.30325 0.02755 0.0
H1689 H 0.7775 0.31809 1.00172 0.0
H1690 H 0.80552 0.30419 0.06775 0.0
H1691 H 0.81404 0.32585 0.09465 0.0
C1692 C 0.64063 0.03601 0.20774 0.0
C1693 C 0.6507 1.02688 0.23303 0.0
C1694 C 0.68122 0.99807 0.20686 0.0
C1695 C 0.67079 1.00648 0.18183 0.0
N1696 N 0.63698 0.02887 0.15813 0.0
N1697 N 0.67554 0.99434 0.25695 0.0
C1698 C 0.64923 1.02394 0.18217 0.0
C1699 C 0.66927 1.00609 0.23261 0.0
N1700 N 0.62446 0.05747 0.20787 0.0
N1701 N 0.70363 0.98362 0.2052 0.0
H1702 H 0.66723 1.00029 0.27605 0.0
H1703 H 0.68677 0.97721 0.25803 0.0
H1704 H 0.71426 0.97804 0.22217 0.0
H1705 H 0.71426 0.97804 0.22217 0.0
H1706 H 0.61951 0.0674 0.18989 0.0
H1707 H 0.61713 0.06634 0.22607 0.0
H1708 H 0.61965 0.0395 0.15738 0.0
H1709 H 0.64304 1.02037 0.13921 0.0
C1710 C 0.07787 0.87943 0.46403 0.0
C1711 C 0.08712 0.90622 0.45788 0.0
C1712 C 0.04709 0.92352 0.47934 0.0
C1713 C 1.0366 0.89656 0.48404 0.0
N1714 N 1.04107 0.8488 0.47738 0.0
N1715 N 0.0866 0.9522 0.47281 0.0
C1716 C 0.05194 0.87438 0.47596 0.0
C1717 C 0.07361 0.92794 0.46945 0.0
N1718 N 0.0947 0.85901 0.45925 0.0
N1719 N 1.03118 0.94472 0.48446 0.0
H1720 H 0.10687 0.95495 0.46861 0.0
H1721 H 0.07852 0.96821 0.48381 0.0
H1722 H 1.03622 0.96476 0.47955 0.0
H1723 H 1.03622 0.96476 0.47955 0.0
H1724 H 0.09079 0.83902 0.465 0.0
H1725 H 0.11403 0.86324 0.45208 0.0
H1726 H 0.05057 0.83186 0.46993 0.0
H1727 H 1.02139 0.84461 0.48356 0.0
C1728 C 0.58477 0.12866 0.07186 0.0
C1729 C 0.56195 0.14242 0.06396 0.0
C1730 C 0.58885 0.16123 0.02343 0.0
C1731 C 0.61079 0.14533 0.02974 0.0
N1732 N 0.62849 0.11203 0.05931 0.0
N1733 N 0.54169 0.16938 0.03001 0.0
C1734 C 0.60833 0.12855 0.05381 0.0
C1735 C 0.56394 0.15812 0.03916 0.0
N1736 N 0.58435 0.11646 0.0973 0.0
N1737 N 0.59204 0.18002 1.00278 0.0
H1738 H 0.52348 0.16781 0.04103 0.0
H1739 H 0.54069 0.1783 1.01057 0.0
H1740 H 0.60997 0.18334 0.99168 0.0
H1741 H 0.57794 0.19402 0.99848 0.0
H1742 H 0.60095 0.10859 0.10585 0.0
H1743 H 0.5678 0.11616 0.11101 0.0
H1744 H 0.62687 0.09666 0.07404 0.0
H1745 H 0.64655 0.11276 0.04798 0.0
C1746 C 0.94359 0.81318 0.2483 0.0
C1747 C 0.92328 0.81025 0.2695 0.0
C1748 C 0.92272 0.85933 0.27438 0.0
C1749 C 0.94201 0.86293 0.25205 0.0
N1750 N 0.97131 0.84205 0.21764 0.0
N1751 N 0.88847 0.83071 0.29682 0.0
C1752 C 0.95272 0.83949 0.23901 0.0
C1753 C 0.91103 0.83338 0.28031 0.0
N1754 N 0.95412 0.79032 0.23721 0.0
N1755 N 0.91752 0.88021 0.29204 0.0
H1756 H 0.87924 0.81212 0.30159 0.0
H1757 H 0.87731 0.84709 0.30302 0.0
H1758 H 0.92822 0.89852 0.29108 0.0
H1759 H 0.90546 0.87813 0.31006 0.0
H1760 H 0.9709 0.78981 0.22405 0.0
H1761 H 0.94582 0.77116 0.24157 0.0
H1762 H 0.97842 0.82614 0.20592 0.0
H1763 H 0.979 0.86021 0.20977 0.0
C1764 C 0.2863 0.14643 0.53825 0.0
C1765 C 0.29013 0.16295 0.56178 0.0
C1766 C 0.24575 0.18091 0.5574 0.0
C1767 C 0.24313 0.16625 0.53243 0.0
N1768 N 0.2543 0.12538 0.5086 0.0
N1769 N 0.26943 0.18828 0.59933 0.0
C1770 C 0.2613 0.14589 0.52574 0.0
C1771 C 0.26855 0.17788 0.57309 0.0
N1772 N 0.30674 0.13239 0.52688 0.0
N1773 N 0.2262 0.19769 0.56612 0.0
H1774 H 0.2852 0.18578 0.61211 0.0
H1775 H 0.25352 0.19711 0.60976 0.0
H1776 H 0.2078 0.19758 0.55723 0.0
H1777 H 0.2282 0.21193 0.58175 0.0
H1778 H 0.30574 0.12224 0.50805 0.0
H1779 H 0.32532 0.13277 0.53522 0.0
H1780 H 0.26589 0.10869 0.50496 0.0
H1781 H 0.23552 0.12363 0.5008 0.0
C1782 C 0.91142 0.49797 0.84403 0.0
C1783 C 0.90472 0.52566 0.84528 0.0
C1784 C 0.8977 0.52396 0.7947 0.0
C1785 C 0.90488 0.49643 0.79314 0.0
N1786 N 0.92299 0.45866 0.81639 0.0
N1787 N 0.90158 0.56661 0.81903 0.0
C1788 C 0.91338 0.48403 0.8178 0.0
C1789 C 0.90108 0.53915 0.81975 0.0
N1790 N 0.91551 0.48475 0.86822 0.0
N1791 N 0.88668 0.53561 0.77256 0.0
H1792 H 0.90578 0.57828 0.83628 0.0
H1793 H 0.90109 0.57767 0.8007 0.0
H1794 H 0.88404 0.52556 0.75391 0.0
H1795 H 0.8782 0.55445 0.77356 0.0
H1796 H 0.91671 0.46392 0.86982 0.0
H1797 H 0.91687 0.49477 0.88711 0.0
H1798 H 0.93234 0.44959 0.83256 0.0
H1799 H 0.92327 0.44713 0.79837 0.0
C1800 C 0.55193 0.14954 0.24534 0.0
C1801 C 0.57999 0.14931 0.24526 0.0
C1802 C 0.58169 0.16199 0.19537 0.0
C1803 C 0.55355 0.16323 0.1957 0.0
N1804 N 0.51215 0.14891 0.21905 0.0
N1805 N 0.62113 0.14879 0.21861 0.0
C1806 C 0.53876 0.15394 0.22001 0.0
C1807 C 0.59465 0.1533 0.21963 0.0
N1808 N 0.53778 0.14661 0.27001 0.0
N1809 N 0.59612 0.16942 0.17181 0.0
H1810 H 0.63083 0.14232 0.23589 0.0
H1811 H 0.633 0.14903 0.20043 0.0
H1812 H 0.58743 0.17341 0.15311 0.0
H1813 H 0.61657 0.17243 0.17084 0.0
H1814 H 0.51767 0.15022 0.27249 0.0
H1815 H 0.54666 0.14187 0.28841 0.0
H1816 H 0.50075 0.13985 0.23522 0.0
H1817 H 0.50174 0.15135 0.2012 0.0
C1818 C 0.87402 0.81209 0.50958 0.0
C1819 C 0.8947 0.81987 0.52716 0.0
C1820 C 0.91449 0.77554 0.5195 0.0
C1821 C 0.89398 0.76838 0.50187 0.0
N1822 N 0.84969 0.77553 0.48801 0.0
N1823 N 0.93392 0.80737 0.5508 0.0
C1824 C 0.87215 0.78519 0.4997 0.0
C1825 C 0.91474 0.80112 0.53273 0.0
N1826 N 0.85712 0.83092 0.50081 0.0
N1827 N 0.93456 0.7581 0.52219 0.0
H1828 H 0.93847 0.82679 0.55702 0.0
H1829 H 0.94554 0.79314 0.55977 0.0
H1830 H 0.93354 0.73855 0.51421 0.0
H1831 H 0.95229 0.76296 0.53139 0.0
H1832 H 0.84332 0.82708 0.48584 0.0
H1833 H 0.85894 0.85126 0.50605 0.0
H1834 H 0.83234 0.7862 0.48778 0.0
H1835 H 0.84729 0.75561 0.48164 0.0
C1836 C 0.24879 0.14077 0.78559 0.0
C1837 C 0.25988 0.12849 0.76111 0.0
C1838 C 0.21606 0.10502 0.75527 0.0
C1839 C 0.20518 0.11666 0.78009 0.0
N1840 N 0.21171 0.14533 0.8194 0.0
N1841 N 0.25442 0.09559 0.72507 0.0
C1842 C 0.22177 0.1345 0.79533 0.0
C1843 C 0.24361 0.10947 0.7469 0.0
N1844 N 0.26428 0.15882 0.79947 0.0
N1845 N 0.19943 0.09106 0.73846 0.0
H1846 H 0.27379 0.09901 0.71767 0.0
H1847 H 0.24506 0.07922 0.71573 0.0
H1848 H 0.17917 0.08857 0.74307 0.0
H1849 H 0.20489 0.08429 0.7187 0.0
H1850 H 0.25747 0.17106 0.81553 0.0
H1851 H 0.28443 0.16191 0.79447 0.0
H1852 H 0.22285 0.15589 0.83361 0.0
H1853 H 0.19184 0.143 0.82571 0.0
C1854 C 0.94072 0.49082 1.01911 0.0
C1855 C 0.92198 0.46862 1.01657 0.0
C1856 C 0.90735 0.49294 0.97434 0.0
C1857 C 0.92435 0.51629 0.9791 0.0
N1858 N 0.94814 0.53907 1.01468 0.0
N1859 N 0.884 0.45223 0.99296 0.0
C1860 C 0.93812 0.51564 1.00417 0.0
C1861 C 0.90399 0.47115 0.99479 0.0
N1862 N 0.9624 0.48819 0.03446 0.0
N1863 N 0.89566 0.49024 0.94953 0.0
H1864 H 0.88153 0.43612 1.00686 0.0
H1865 H 0.86864 0.45398 0.9795 0.0
H1866 H 0.89828 0.50421 0.93354 0.0
H1867 H 0.88552 0.47271 0.94367 0.0
H1868 H 0.97743 0.50303 0.03512 0.0
H1869 H 0.9673 0.47007 0.04312 0.0
H1870 H 0.95707 0.54013 0.03372 0.0
H1871 H 0.94362 0.55761 1.00643 0.0
C1872 C 0.04962 0.48896 0.098 0.0
C1873 C 0.07059 0.49012 0.07733 0.0
C1874 C 0.0609 0.53749 0.06784 0.0
C1875 C 1.04053 0.53681 0.08894 0.0
N1876 N 1.01602 0.51244 0.12541 0.0
N1877 N 0.08553 0.51224 0.03384 0.0
C1878 C 1.03498 0.51262 0.10437 0.0
C1879 C 0.0732 0.51334 0.05963 0.0
N1880 N 1.04227 0.46458 0.10967 0.0
N1881 N 0.06952 0.56157 0.05627 0.0
H1882 H 0.09099 0.49455 0.0241 0.0
H1883 H 0.08603 0.52823 0.0198 0.0
H1884 H 0.06157 0.57994 0.06199 0.0
H1885 H 0.08656 0.56367 0.04337 0.0
H1886 H 1.02613 0.46135 0.12352 0.0
H1887 H 0.05061 0.44667 0.10297 0.0
H1888 H 1.01258 0.4967 0.13949 0.0
H1889 H 1.0045 0.52896 0.12987 0.0
C1890 C 0.53343 0.31352 0.14098 0.0
C1891 C 0.53187 0.2913 0.15997 0.0
C1892 C 0.54425 0.32186 0.19721 0.0
C1893 C 0.55264 0.34046 0.1766 0.0
N1894 N 0.53925 0.36228 0.13613 0.0
N1895 N 0.53447 0.27478 0.2073 0.0
C1896 C 0.54057 0.33926 0.15125 0.0
C1897 C 0.53595 0.29569 0.18878 0.0
N1898 N 0.53056 0.30989 0.11321 0.0
N1899 N 0.54725 0.32867 0.22425 0.0
H1900 H 0.53002 0.25493 0.20186 0.0
H1901 H 0.53931 0.27673 0.22794 0.0
H1902 H 0.55469 0.34781 0.22947 0.0
H1903 H 0.5405 0.31665 0.24098 0.0
H1904 H 0.53371 0.32535 0.0987 0.0
H1905 H 0.52704 0.29115 0.10424 0.0
H1906 H 0.52932 0.3633 0.11774 0.0
H1907 H 0.54643 0.38064 0.14385 0.0
C1908 C 0.82024 0.79199 0.41034 0.0
C1909 C 0.8454 0.79585 0.39594 0.0
C1910 C 0.83317 0.84353 0.38726 0.0
C1911 C 0.8077 0.83891 0.40077 0.0
N1912 N 0.77482 0.80557 0.41641 0.0
N1913 N 0.8744 0.82506 0.36786 0.0
C1914 C 0.80068 0.81217 0.40959 0.0
C1915 C 0.85127 0.82156 0.38331 0.0
N1916 N 0.81516 0.76934 0.42601 0.0
N1917 N 0.84024 0.86908 0.3787 0.0
H1918 H 0.88769 0.8096 0.3649 0.0
H1919 H 0.87967 0.8424 0.35653 0.0
H1920 H 0.82719 0.88487 0.38035 0.0
H1921 H 0.85911 0.87499 0.37111 0.0
H1922 H 0.79882 0.76697 0.43985 0.0
H1923 H 0.82819 0.75365 0.42671 0.0
H1924 H 0.76792 0.78599 0.42096 0.0
H1925 H 0.75983 0.81904 0.41393 0.0
C1926 C 0.29233 0.07225 0.66719 0.0
C1927 C 0.29427 0.09728 0.65277 0.0
C1928 C 0.27103 0.07476 0.61445 0.0
C1929 C 0.26563 0.05098 0.63066 0.0
N1930 N 0.2646 0.03268 0.67731 0.0
N1931 N 0.27901 0.12309 0.61493 0.0
C1932 C 0.27476 0.05104 0.65826 0.0
C1933 C 0.28173 0.0987 0.62707 0.0
N1934 N 0.30663 0.06868 0.69006 0.0
N1935 N 0.26703 0.07452 0.58666 0.0
H1936 H 0.28691 0.14082 0.62317 0.0
H1937 H 0.26667 0.12561 0.59849 0.0
H1938 H 0.26119 0.05716 0.57613 0.0
H1939 H 0.27266 0.09068 0.57363 0.0
H1940 H 0.30796 0.05001 0.69968 0.0
H1941 H 0.31831 0.08403 0.69822 0.0
H1942 H 0.268 0.03449 0.69835 0.0
H1943 H 0.24974 1.01843 0.67328 0.0
C1944 C 0.55478 0.5413 0.43256 0.0
C1945 C 0.53594 0.53805 0.41155 0.0
C1946 C 0.56877 0.51321 0.38328 0.0
C1947 C 0.58465 0.51148 0.40666 0.0
N1948 N 0.59888 0.53295 0.44804 0.0
N1949 N 0.52506 0.52027 0.36668 0.0
C1950 C 0.57953 0.52856 0.42956 0.0
C1951 C 0.54319 0.52443 0.3865 0.0
N1952 N 0.54846 0.55534 0.45615 0.0
N1953 N 0.5784 0.50499 0.35791 0.0
H1954 H 0.50597 0.5274 0.36826 0.0
H1955 H 0.52824 0.50799 0.34948 0.0
H1956 H 0.59792 0.49951 0.35439 0.0
H1957 H 0.56851 0.50734 0.33966 0.0
H1958 H 0.5594 0.55534 0.47386 0.0
H1959 H 0.53153 0.5665 0.45857 0.0
H1960 H 0.59805 0.54713 0.46387 0.0
H1961 H 0.61721 0.52403 0.44573 0.0
C1962 C 0.26901 0.74945 0.13644 0.0
C1963 C 0.27652 0.77023 0.15498 0.0
C1964 C 0.31506 0.74524 0.16714 0.0
C1965 C 0.31028 0.72683 0.14529 0.0
N1966 N 0.28121 0.70917 0.11104 0.0
N1967 N 0.30684 0.78842 0.18799 0.0
C1968 C 0.28677 0.72832 0.13044 0.0
C1969 C 0.29964 0.76829 0.17021 0.0
N1970 N 0.24475 0.74959 0.12512 0.0
N1971 N 0.33302 0.73982 0.1864 0.0
H1972 H 0.29448 0.80395 0.19401 0.0
H1973 H 0.32561 0.79032 0.19591 0.0
H1974 H 0.34344 0.72234 0.18612 0.0
H1975 H 0.3352 0.75086 0.20454 0.0
H1976 H 0.23699 0.73397 0.11332 0.0
H1977 H 0.23136 0.76474 0.12893 0.0
H1978 H 0.2666 0.7108 0.09671 0.0
H1979 H 0.29171 0.69156 0.10895 0.0
C1980 C 0.79545 0.98789 0.41305 0.0
C1981 C 0.79904 1.01131 0.39659 0.0
C1982 C 0.79482 0.98298 0.35514 0.0
C1983 C 0.79781 0.95986 0.37209 0.0
N1984 N 0.80713 0.94163 0.4168 0.0
N1985 N 0.79577 0.03191 0.35168 0.0
C1986 C 0.80054 0.96291 0.4009 0.0
C1987 C 0.79689 1.00914 0.36737 0.0
N1988 N 0.78647 0.98948 0.44007 0.0
N1989 N 0.78856 0.97994 0.32804 0.0
H1990 H 0.79202 0.05061 0.36058 0.0
H1991 H 0.79798 0.03219 0.33012 0.0
H1992 H 0.78766 0.96129 0.31823 0.0
H1993 H 0.78317 0.99572 0.3155 0.0
H1994 H 0.78216 0.97245 0.45238 0.0
H1995 H 0.78026 1.00764 0.44867 0.0
H1996 H 0.81082 0.94365 0.43778 0.0
H1997 H 0.81136 0.92288 0.40822 0.0
C1998 C 0.99957 0.26457 0.86972 0.0
C1999 C 0.97421 0.27499 0.86655 0.0
C2000 C 0.99393 0.32091 0.87252 0.0
C2001 C 1.0198 0.31027 0.87386 0.0
N2002 N 0.04637 0.27195 0.86165 0.0
N2003 N 0.94832 0.31398 0.8593 0.0
C2004 C 1.02241 0.28215 0.86877 0.0
C2005 C 0.97164 0.30346 0.86655 0.0
N2006 N 1.00191 0.23783 0.87509 0.0
N2007 N 0.99065 0.34792 0.87589 0.0
H2008 H 0.93185 0.30206 0.85438 0.0
H2009 H 0.9459 0.33441 0.85572 0.0
H2010 H 1.00637 0.36202 0.87568 0.0
H2011 H 0.97223 0.35633 0.87941 0.0
H2012 H 1.01975 0.22941 0.87983 0.0
H2013 H 0.9854 0.225 0.87844 0.0
H2014 H 0.04866 0.25203 0.8554 0.0
H2015 H 0.06329 0.28396 0.85851 0.0
C2016 C 0.93845 1.0102 0.50597 0.0
C2017 C 0.923 1.01045 0.48217 0.0
C2018 C 0.90588 0.96432 0.49857 0.0
C2019 C 0.92596 0.96237 0.51842 0.0
N2020 N 0.96748 0.98405 0.53205 0.0
N2021 N 0.892 0.98427 0.45546 0.0
C2022 C 0.94392 0.98545 0.51961 0.0
C2023 C 0.90638 0.98663 0.47859 0.0
N2024 N 0.94746 0.03397 0.51651 0.0
N2025 N 0.88668 0.94441 0.49804 0.0
H2026 H 0.89153 0.99938 0.44064 0.0
H2027 H 0.88214 0.9665 0.44986 0.0
H2028 H 0.88615 0.92794 0.51151 0.0
H2029 H 0.87021 0.94542 0.48599 0.0
H2030 H 0.95774 0.03514 0.53473 0.0
H2031 H 0.94058 0.05213 0.50949 0.0
H2032 H 0.98141 1.00004 0.53154 0.0
H2033 H 0.97521 0.96634 0.53885 0.0
C2034 C 0.08092 0.66299 0.19029 0.0
C2035 C 0.05271 0.66069 0.19011 0.0
C2036 C 0.05402 0.63245 0.23246 0.0
C2037 C 0.08059 0.64056 0.23634 0.0
N2038 N 0.12043 0.66217 0.21719 0.0
N2039 N 1.01233 0.64455 0.2143 0.0
C2040 C 0.0944 0.65521 0.21451 0.0
C2041 C 1.03926 0.64533 0.21184 0.0
N2042 N 0.09501 0.67156 0.16692 0.0
N2043 N 1.04311 0.61176 0.2481 0.0
H2044 H 1.00076 0.65529 0.20121 0.0
H2045 H 1.00181 0.63569 0.23121 0.0
H2046 H 0.05427 0.60147 0.26212 0.0
H2047 H 1.02445 0.60316 0.2448 0.0
H2048 H 0.11557 0.67159 0.1649 0.0
H2049 H 0.0861 0.67579 0.14842 0.0
H2050 H 0.13087 0.67601 0.20425 0.0
H2051 H 0.13123 0.65452 0.23316 0.0
C2052 C 0.42825 0.79441 1.00331 0.0
C2053 C 0.40756 0.77485 1.00027 0.0
C2054 C 0.38064 0.80112 0.03334 0.0
C2055 C 0.39814 0.82405 0.02853 0.0
N2056 N 0.43809 0.84211 1.00463 0.0
N2057 N 0.36432 0.75788 1.01693 0.0
C2058 C 0.42201 0.82054 1.01255 0.0
C2059 C 0.38376 0.77758 1.01665 0.0
N2060 N 0.45372 0.78815 0.99641 0.0
N2061 N 0.36268 0.80069 0.05534 0.0
H2062 H 0.36746 0.73843 1.00979 0.0
H2063 H 0.34518 0.7609 0.02493 0.0
H2064 H 0.36164 0.81607 0.06994 0.0
H2065 H 0.35123 0.78362 0.06121 0.0
H2066 H 0.46976 0.80127 0.99981 0.0
H2067 H 0.45861 0.7687 0.99026 0.0
H2068 H 0.45476 0.84023 0.99136 0.0
H2069 H 0.43308 0.86202 1.00829 0.0
C2070 C 0.27907 0.68176 1.01218 0.0
C2071 C 0.25462 0.66873 0.02101 0.0
C2072 C 0.27831 0.64109 0.05361 0.0
C2073 C 0.30244 0.65493 0.04523 0.0
N2074 N 0.32705 0.68061 1.01021 0.0
N2075 N 0.232 0.63131 0.04481 0.0
C2076 C 0.30311 0.67233 0.02202 0.0
C2077 C 0.25466 0.64658 0.03973 0.0
N2078 N 0.27936 0.70401 0.99549 0.0
N2079 N 0.27754 0.62425 0.07607 0.0
H2080 H 0.21425 0.63536 0.03575 0.0
H2081 H 0.2313 0.61348 0.05624 0.0
H2082 H 0.29448 0.61873 0.0858 0.0
H2083 H 0.26007 0.61649 0.08566 0.0
H2084 H 0.29626 0.71601 0.99087 0.0
H2085 H 0.26233 0.71169 0.98777 0.0
H2086 H 0.3292 0.69195 0.99202 0.0
H2087 H 0.34477 0.67367 1.01735 0.0
C2088 C 0.41019 0.03145 0.8317 0.0
C2089 C 0.40381 1.01745 0.85718 0.0
C2090 C 0.40053 0.97486 0.83061 0.0
C2091 C 0.40673 0.98891 0.80532 0.0
N2092 N 0.42757 0.02855 0.78407 0.0
N2093 N 0.40228 0.97463 0.88086 0.0
C2094 C 0.41492 1.01652 0.80661 0.0
C2095 C 0.40191 0.98874 0.85655 0.0
N2096 N 0.41008 0.05893 0.83066 0.0
N2097 N 0.39318 0.94815 0.82993 0.0
H2098 H 0.40466 0.98407 0.89995 0.0
H2099 H 0.40329 0.95374 0.8818 0.0
H2100 H 0.39399 0.93682 0.81173 0.0
H2101 H 0.38516 0.93759 0.84717 0.0
H2102 H 0.41128 0.0697 0.81206 0.0
H2103 H 0.40655 0.07104 0.84788 0.0
H2104 H 0.43611 0.04793 0.78458 0.0
H2105 H 0.43231 1.01803 0.76596 0.0
C2106 C 0.08001 0.12457 0.57285 0.0
C2107 C 0.0573 0.13861 0.56517 0.0
C2108 C 0.08354 0.15523 0.52296 0.0
C2109 C 0.1055 0.1394 0.52947 0.0
N2110 N 0.12383 0.10807 0.56073 0.0
N2111 N 1.03674 0.1649 0.53091 0.0
C2112 C 0.10334 0.12383 0.55446 0.0
C2113 C 0.05901 0.1534 0.53971 0.0
N2114 N 0.07964 0.11262 0.59842 0.0
N2115 N 0.08622 0.17242 0.50083 0.0
H2116 H 1.01892 0.16435 0.54268 0.0
H2117 H 1.03527 0.1732 0.51125 0.0
H2118 H 0.10349 0.17408 0.48826 0.0
H2119 H 0.07232 0.18649 0.49616 0.0
H2120 H 0.0961 0.10457 0.60705 0.0
H2121 H 0.06315 0.11251 0.6122 0.0
H2122 H 0.12246 0.09317 0.57594 0.0
H2123 H 0.14207 0.1092 0.5498 0.0
C2124 C 0.57975 0.93267 0.98904 0.0
C2125 C 0.58866 0.91166 0.97143 0.0
C2126 C 0.55726 0.87965 0.99517 0.0
C2127 C 0.54721 0.901 1.01144 0.0
N2128 N 0.56008 0.94232 0.03433 0.0
N2129 N 0.59687 0.86424 0.97148 0.0
C2130 C 0.56223 0.92575 1.01186 0.0
C2131 C 0.58085 0.88472 0.97878 0.0
N2132 N 0.5869 0.95906 0.98418 0.0
N2133 N 0.54454 0.85503 0.99435 0.0
H2134 H 0.616 0.86839 0.96343 0.0
H2135 H 0.59285 0.8443 0.97755 0.0
H2136 H 0.5277 0.84974 1.00649 0.0
H2137 H 0.55033 0.84021 0.98024 0.0
H2138 H 0.578 0.97475 0.99505 0.0
H2139 H 0.60084 0.96565 0.96905 0.0
H2140 H 0.57206 0.95962 0.03653 0.0
H2141 H 0.54874 0.93664 0.0521 0.0
C2142 C 0.77555 0.87747 0.54337 0.0
C2143 C 0.785 0.89335 0.51985 0.0
C2144 C 0.80396 0.92529 0.55217 0.0
C2145 C 0.80491 0.90447 0.57165 0.0
N2146 N 0.7834 0.86462 0.59095 0.0
N2147 N 0.81254 0.93195 0.50338 0.0
C2148 C 0.78747 0.88199 0.56917 0.0
C2149 C 0.79992 0.91767 0.52457 0.0
N2150 N 0.75456 0.8596 0.54178 0.0
N2151 N 0.81229 0.95065 0.55905 0.0
H2152 H 0.81476 0.92448 0.48329 0.0
H2153 H 0.8242 0.94926 0.50666 0.0
H2154 H 0.81748 0.95513 0.5793 0.0
H2155 H 0.81159 0.96695 0.54547 0.0
H2156 H 0.74604 0.8493 0.55894 0.0
H2157 H 0.74324 0.85765 0.52442 0.0
H2158 H 0.77378 0.84583 0.58949 0.0
H2159 H 0.79019 0.86937 0.61052 0.0
C2160 C 0.17456 0.49837 0.19596 0.0
C2161 C 0.16225 0.50581 0.17141 0.0
C2162 C 0.1306 0.53221 0.19961 0.0
C2163 C 0.14305 0.52428 0.22406 0.0
N2164 N 0.17275 0.49388 0.24516 0.0
N2165 N 0.12513 0.52505 0.15018 0.0
C2166 C 0.16306 0.50503 0.22207 0.0
C2167 C 0.13906 0.52116 0.17335 0.0
N2168 N 0.19817 0.4859 0.19467 0.0
N2169 N 0.11202 0.5515 0.20117 0.0
H2170 H 0.13109 0.51748 0.1308 0.0
H2171 H 0.10673 0.53383 0.15058 0.0
H2172 H 0.10481 0.55929 0.21997 0.0
H2173 H 0.10462 0.56061 0.18383 0.0
H2174 H 0.20776 0.48019 0.21235 0.0
H2175 H 0.20888 0.48303 0.17608 0.0
H2176 H 0.16489 0.49707 0.26524 0.0
H2177 H 0.16489 0.49707 0.26524 0.0
C2178 C 0.55203 0.91321 0.79846 0.0
C2179 C 0.53019 0.92919 0.80531 0.0
C2180 C 0.54028 0.92689 0.85423 0.0
C2181 C 0.55811 0.90619 0.84757 0.0
N2182 N 0.57647 0.87562 0.81331 0.0
N2183 N 0.50234 0.95088 0.83984 0.0
C2184 C 0.56317 0.89847 0.81962 0.0
C2185 C 0.52417 0.93639 0.83323 0.0
N2186 N 0.56114 0.91111 0.77152 0.0
N2187 N 0.53895 0.93755 0.88032 0.0
H2188 H 0.49061 0.95885 0.82485 0.0
H2189 H 0.49529 0.95396 0.86018 0.0
H2190 H 0.55072 0.93111 0.89608 0.0
H2191 H 0.528 0.95435 0.88553 0.0
H2192 H 0.57845 0.90138 0.76569 0.0
H2193 H 0.55276 0.92155 0.75556 0.0
H2194 H 0.57873 0.86811 0.79321 0.0
H2195 H 0.58242 0.86243 0.82841 0.0
C2196 C 0.17048 0.3033 0.57172 0.0
C2197 C 0.19249 0.29916 0.58829 0.0
C2198 C 0.21233 0.27294 0.54995 0.0
C2199 C 0.1883 0.27269 0.53602 0.0
N2200 N 0.14167 0.28203 0.53917 0.0
N2201 N 0.22996 0.2717 0.59547 0.0
C2202 C 0.16651 0.28636 0.54838 0.0
C2203 C 0.21247 0.28189 0.57793 0.0
N2204 N 0.15376 0.3237 0.5775 0.0
N2205 N 0.23454 0.26298 0.53724 0.0
H2206 H 0.22704 0.27334 0.61689 0.0
H2207 H 0.24436 0.25817 0.58926 0.0
H2208 H 0.23496 0.2561 0.51682 0.0
H2209 H 0.25296 0.26424 0.54607 0.0
H2210 H 0.13857 0.3284 0.56462 0.0
H2211 H 0.15723 0.33786 0.5929 0.0
H2212 H 0.12498 0.28993 0.54918 0.0
H2213 H 0.13755 0.26837 0.52345 0.0
C2214 C 0.20256 0.50722 0.03137 0.0
C2215 C 0.17951 0.49059 0.02986 0.0
C2216 C 0.16544 0.51905 0.99261 0.0
C2217 C 0.18341 0.53937 1.00158 0.0
N2218 N 0.2201 0.55274 0.02963 0.0
N2219 N 0.14259 0.47641 1.00232 0.0
C2220 C 0.20267 0.53344 0.02062 0.0
C2221 C 0.16212 0.49489 1.00813 0.0
N2222 N 0.22495 0.49709 0.04091 0.0
N2223 N 0.15196 0.52291 0.96914 0.0
H2224 H 0.14279 0.45634 1.00841 0.0
H2225 H 0.12679 0.48065 0.99016 0.0
H2226 H 0.15454 0.54046 0.95737 0.0
H2227 H 0.14041 0.50802 0.95991 0.0
H2228 H 0.24288 0.50802 0.04125 0.0
H2229 H 0.22631 0.47641 0.04283 0.0
H2230 H 0.23253 0.54932 0.04583 0.0
H2231 H 0.221 0.57253 0.0224 0.0
C2232 C 0.06908 0.52215 0.86607 0.0
C2233 C 0.08766 0.52279 0.88727 0.0
C2234 C 0.05926 0.55159 0.91562 0.0
C2235 C 1.03878 0.54816 0.89652 0.0
N2236 N 1.02424 0.53085 0.85285 0.0
N2237 N 0.10552 0.5474 0.92494 0.0
C2238 C 1.04396 0.53428 0.87107 0.0
C2239 C 0.08436 0.54089 0.90945 0.0
N2240 N 0.07561 0.51038 0.84124 0.0
N2241 N 0.05424 0.56312 0.94088 0.0
H2242 H 0.12411 0.53972 0.92033 0.0
H2243 H 0.10527 0.56204 0.94033 0.0
H2244 H 1.03694 0.57294 0.94611 0.0
H2245 H 0.06647 0.56096 0.95743 0.0
H2246 H 0.06367 0.50994 0.82428 0.0
H2247 H 0.09446 0.50356 0.8364 0.0
H2248 H 1.02552 0.51886 0.83524 0.0
H2249 H 1.00574 0.53919 0.85586 0.0
C2250 C 0.50469 0.80973 0.88523 0.0
C2251 C 0.52993 0.79865 0.87942 0.0
C2252 C 0.50733 0.76195 0.85362 0.0
C2253 C 0.48167 0.77062 0.86342 0.0
N2254 N 0.45721 0.80433 0.88949 0.0
N2255 N 0.55481 0.76239 0.8599 0.0
C2256 C 0.48084 0.79477 0.87964 0.0
C2257 C 0.53109 0.77445 0.86382 0.0
N2258 N 0.50331 0.83577 0.89428 0.0
N2259 N 0.50952 0.74172 0.83457 0.0
H2260 H 0.57227 0.77045 0.86748 0.0
H2261 H 0.55696 0.74336 0.85124 0.0
H2262 H 0.4939 0.72953 0.82834 0.0
H2263 H 0.52715 0.73773 0.82362 0.0
H2264 H 0.48589 0.84636 0.89547 0.0
H2265 H 0.51989 0.84804 0.89758 0.0
H2266 H 0.45576 0.81802 0.9058 0.0
H2267 H 0.43898 0.7988 0.88185 0.0
C2268 C 0.32536 0.25853 0.64388 0.0
C2269 C 0.32125 0.23352 0.65838 0.0
C2270 C 0.28365 0.25173 0.68491 0.0
C2271 C 0.28689 0.27584 0.66966 0.0
N2272 N 0.31705 0.30638 0.64465 0.0
N2273 N 0.30812 0.21689 0.70431 0.0
C2274 C 0.30996 0.28062 0.65249 0.0
C2275 C 0.30386 0.23314 0.68249 0.0
N2276 N 0.34345 0.2618 0.62218 0.0
N2277 N 0.2613 0.24577 0.70096 0.0
H2278 H 0.3261 0.20791 0.70545 0.0
H2279 H 0.2968 0.21725 0.72292 0.0
H2280 H 0.24568 0.25871 0.70371 0.0
H2281 H 0.25775 0.22684 0.71009 0.0
H2282 H 0.34405 0.2786 0.60925 0.0
H2283 H 0.35828 0.24859 0.61703 0.0
H2284 H 0.33503 0.31165 0.63437 0.0
H2285 H 0.30607 0.32273 0.65143 0.0
C2286 C 0.55469 0.53725 0.66351 0.0
C2287 C 0.53666 0.53629 0.64195 0.0
C2288 C 0.55275 0.49178 0.62874 0.0
C2289 C 0.57533 0.49694 0.64413 0.0
N2290 N 0.59844 0.52559 0.67598 0.0
N2291 N 0.51959 0.51252 0.60243 0.0
C2292 C 0.5761 0.51953 0.66219 0.0
C2293 C 0.53548 0.51316 0.6245 0.0
N2294 N 0.55252 0.55603 0.68405 0.0
N2295 N 0.54886 0.46719 0.61676 0.0
H2296 H 0.50772 0.52838 0.59769 0.0
H2297 H 0.51998 0.49736 0.58751 0.0
H2298 H 0.56142 0.4514 0.61999 0.0
H2299 H 0.53181 0.46175 0.60651 0.0
H2300 H 0.56416 0.55614 0.70132 0.0
H2301 H 0.53736 0.56968 0.68539 0.0
H2302 H 0.60151 0.54351 0.68676 0.0
H2303 H 0.61473 0.51341 0.67481 0.0
C2304 C 0.81325 0.28234 0.92073 0.0
C2305 C 0.83482 0.28736 0.90077 0.0
C2306 C 0.81268 0.32985 0.88833 0.0
C2307 C 0.79077 0.32403 0.90761 0.0
N2308 N 0.76748 0.28972 0.93532 0.0
N2309 N 0.85191 0.31423 0.86219 0.0
C2310 C 0.79036 0.29879 0.9217 0.0
C2311 C 0.8333 0.31046 0.88333 0.0
N2312 N 0.81465 0.26202 0.93963 0.0
N2313 N 0.81484 0.35465 0.87599 0.0
H2314 H 0.8673 0.30106 0.85861 0.0
H2315 H 0.85083 0.32891 0.84689 0.0
H2316 H 0.80094 0.36941 0.87943 0.0
H2317 H 0.83142 0.36148 0.86414 0.0
H2318 H 0.80181 0.25985 0.95705 0.0
H2319 H 0.82955 0.24818 0.93896 0.0
H2320 H 0.76491 0.27049 0.94388 0.0
H2321 H 0.74994 0.30013 0.93523 0.0
C2322 C 1.04189 0.83579 0.12318 0.0
C2323 C 0.05068 0.84325 0.14921 0.0
C2324 C 1.02717 0.80539 0.17125 0.0
C2325 C 1.02677 0.793 0.14447 0.0
N2326 N 1.02616 0.799 0.09462 0.0
N2327 N 1.03651 0.84704 0.19657 0.0
C2328 C 1.03102 0.80933 0.12018 0.0
C2329 C 1.03707 0.83242 0.17271 0.0
N2330 N 0.04717 0.85293 0.10145 0.0
N2331 N 1.02074 0.79119 0.19499 0.0
H2332 H 1.04476 0.86663 0.19684 0.0
H2333 H 1.02652 0.84076 0.21491 0.0
H2334 H 1.01261 0.77172 0.19543 0.0
H2335 H 1.02394 0.79871 0.21473 0.0
H2336 H 1.04101 0.8495 0.08144 0.0
H2337 H 0.05674 0.87159 0.10453 0.0
H2338 H 1.03087 0.80911 0.07606 0.0
H2339 H 1.01674 0.78023 0.09204 0.0
C2340 C 1.0305 0.93713 0.32034 0.0
C2341 C 1.03972 0.93811 0.29228 0.0
C2342 C 0.07923 0.91419 0.30315 0.0
C2343 C 0.06854 0.91047 0.33081 0.0
N2344 N 1.04082 0.92839 0.36796 0.0
N2345 N 0.07551 0.93605 0.25848 0.0
C2346 C 0.0463 0.9252 0.34018 0.0
C2347 C 0.06527 0.92977 0.28442 0.0
N2348 N 1.00597 0.94614 0.32761 0.0
N2349 N 0.10163 0.90167 0.29418 0.0
H2350 H 0.06473 0.9468 0.24461 0.0
H2351 H 0.09495 0.93284 0.25165 0.0
H2352 H 0.11367 0.89165 0.30722 0.0
H2353 H 0.10804 0.90045 0.27343 0.0
H2354 H 0.99667 0.94294 0.34709 0.0
H2355 H 0.99463 0.95611 0.31354 0.0
H2356 H 1.02626 0.94093 0.37593 0.0
H2357 H 0.0528 0.9209 0.38301 0.0
C2358 C 0.67046 0.80923 0.57626 0.0
C2359 C 0.69135 0.80619 0.59469 0.0
C2360 C 0.70739 0.768 0.56744 0.0
C2361 C 0.68712 0.7711 0.54858 0.0
N2362 N 0.6497 0.79509 0.53381 0.0
N2363 N 0.71757 0.77292 0.61533 0.0
C2364 C 0.66858 0.79177 0.55282 0.0
C2365 C 0.70678 0.78303 0.59231 0.0
N2366 N 0.65127 0.82716 0.58241 0.0
N2367 N 0.72706 0.75035 0.56209 0.0
H2368 H 0.71375 0.7811 0.63497 0.0
H2369 H 0.72697 0.75456 0.61555 0.0
H2370 H 0.72854 0.73914 0.54393 0.0
H2371 H 0.74335 0.74913 0.57445 0.0
H2372 H 0.63414 0.82896 0.57159 0.0
H2373 H 0.65124 0.839 0.60008 0.0
H2374 H 0.63714 0.81121 0.53358 0.0
H2375 H 0.64783 0.78256 0.51663 0.0
C2376 C 0.81228 0.3785 0.73156 0.0
C2377 C 0.81053 0.40478 0.72068 0.0
C2378 C 0.77419 0.4147 0.75148 0.0
C2379 C 0.77881 0.39031 0.76624 0.0
N2380 N 0.79259 0.3443 0.76263 0.0
N2381 N 0.78099 0.43847 0.70774 0.0
C2382 C 0.79435 0.37032 0.75342 0.0
C2383 C 0.78715 0.41842 0.72531 0.0
N2384 N 0.83378 0.36381 0.72461 0.0
N2385 N 0.76113 0.43575 0.76338 0.0
H2386 H 0.79317 0.44335 0.69032 0.0
H2387 H 0.76314 0.44834 0.70959 0.0
H2388 H 0.75535 0.43695 0.78426 0.0
H2389 H 0.75913 0.45406 0.75321 0.0
H2390 H 0.83796 0.34575 0.73424 0.0
H2391 H 0.84836 0.37119 0.71048 0.0
H2392 H 0.80257 0.32875 0.75269 0.0
H2393 H 0.77893 0.33797 0.77836 0.0
C2394 C 0.15169 0.76006 0.26558 0.0
C2395 C 0.13041 0.74126 0.26212 0.0
C2396 C 0.12866 0.75428 0.21358 0.0
C2397 C 0.14721 0.7758 0.21755 0.0
N2398 N 0.17708 0.79923 0.24794 0.0
N2399 N 0.09486 0.72455 0.23482 0.0
C2400 C 0.15915 0.77868 0.24369 0.0
C2401 C 0.11758 0.73995 0.23677 0.0
N2402 N 0.1652 0.75944 0.28943 0.0
N2403 N 0.12228 0.74703 0.18734 0.0
H2404 H 0.08604 0.71412 0.25182 0.0
H2405 H 0.0835 0.72442 0.21734 0.0
H2406 H 0.13132 0.75626 0.16973 0.0
H2407 H 0.11053 0.73002 0.18307 0.0
H2408 H 0.18285 0.77024 0.29223 0.0
H2409 H 0.15912 0.74703 0.30617 0.0
H2410 H 0.18372 0.80438 0.2674 0.0
H2411 H 0.18474 0.81197 0.23227 0.0
C2412 C 0.69886 0.51364 0.70462 0.0
C2413 C 0.68267 0.49553 0.69003 0.0
C2414 C 0.64662 0.5042 0.72526 0.0
C2415 C 0.66495 0.51966 0.74099 0.0
N2416 N 0.71176 0.52162 0.75069 0.0
N2417 N 0.64042 0.47219 0.68744 0.0
C2418 C 0.6921 0.51911 0.73233 0.0
C2419 C 0.65617 0.4904 0.70056 0.0
N2420 N 0.72101 0.52556 0.69228 0.0
N2421 N 0.62073 0.5016 0.73425 0.0
H2422 H 0.64628 0.46341 0.6687 0.0
H2423 H 0.62194 0.46529 0.6953 0.0
H2424 H 0.614 0.50737 0.75396 0.0
H2425 H 0.60591 0.49313 0.72248 0.0
H2426 H 0.73249 0.53991 0.70254 0.0
H2427 H 0.72553 0.52358 0.67112 0.0
H2428 H 0.7317 0.52033 0.74442 0.0
H2429 H 0.70801 0.52057 0.77212 0.0
C2430 C 0.07145 0.39 0.96474 0.0
C2431 C 0.07711 0.41717 0.95642 0.0
C2432 C 1.03504 0.43026 0.97832 0.0
C2433 C 1.02802 0.40239 0.98473 0.0
N2434 N 1.03884 0.35563 0.98016 0.0
N2435 N 0.06908 0.4637 0.96484 0.0
C2436 C 0.04623 0.38225 0.97728 0.0
C2437 C 0.06008 0.43743 0.96551 0.0
N2438 N 0.09108 0.37197 0.96224 0.0
N2439 N 1.01821 0.45051 0.98492 0.0
H2440 H 0.08874 0.46901 0.96002 0.0
H2441 H 0.05873 0.47972 0.9733 0.0
H2442 H 1.00426 0.44978 1.00139 0.0
H2443 H 1.01892 0.46892 0.97445 0.0
H2444 H 0.0896 0.35245 0.97019 0.0
H2445 H 0.1101 0.37792 0.9553 0.0
H2446 H 0.05005 0.34002 0.97214 0.0
H2447 H 1.0203 0.34902 0.98819 0.0
C2448 C 0.58248 0.62892 0.57886 0.0
C2449 C 0.56047 0.64312 0.56955 0.0
C2450 C 0.58993 0.66051 0.52984 0.0
C2451 C 0.61105 0.64381 0.53732 0.0
N2452 N 0.62723 0.61319 0.57063 0.0
N2453 N 0.54306 0.67114 0.5347 0.0
C2454 C 0.60704 0.62829 0.56229 0.0
C2455 C 0.56433 0.65877 0.54477 0.0
N2456 N 0.58033 0.61699 0.60448 0.0
N2457 N 0.59425 0.67828 0.50839 0.0
H2458 H 0.52454 0.67068 0.54515 0.0
H2459 H 0.54307 0.68006 0.51518 0.0
H2460 H 0.61203 0.67973 0.49678 0.0
H2461 H 0.5811 0.693 0.50341 0.0
H2462 H 0.59598 0.60857 0.61425 0.0
H2463 H 0.56316 0.61737 0.61724 0.0
H2464 H 0.62514 0.59813 0.58567 0.0
H2465 H 0.64634 0.61576 0.56202 0.0
C2466 C 0.9514 0.31767 0.76128 0.0
C2467 C 0.92534 0.31004 0.77114 0.0
C2468 C 0.91313 0.35765 0.76527 0.0
C2469 C 0.94023 0.36564 0.75768 0.0
N2470 N 0.98577 0.35102 0.75821 0.0
N2471 N 0.88051 0.32316 0.78095 0.0
C2472 C 0.95935 0.34518 0.75833 0.0
C2473 C 0.90585 0.33002 0.77203 0.0
N2474 N 0.96961 0.29832 0.75652 0.0
N2475 N 0.89394 0.37629 0.76682 0.0
H2476 H 0.87301 0.30342 0.78142 0.0
H2477 H 0.86658 0.33702 0.78747 0.0
H2478 H 0.89724 0.39582 0.77388 0.0
H2479 H 0.87406 0.37153 0.76399 0.0
H2480 H 0.9899 0.30262 0.75431 0.0
H2481 H 0.96403 0.27806 0.75388 0.0
H2482 H 0.9941 0.37031 0.76022 0.0
H2483 H 0.9941 0.37031 0.76022 0.0
C2484 C 0.90086 0.03073 0.32618 0.0
C2485 C 0.89959 1.0171 0.35238 0.0
C2486 C 0.90305 0.97395 0.32642 0.0
C2487 C 0.9059 0.98793 0.30063 0.0
N2488 N 0.91543 0.03018 0.27748 0.0
N2489 N 0.90701 0.97562 0.37644 0.0
C2490 C 0.9075 1.01648 0.3011 0.0
C2491 C 0.90297 0.98864 0.35213 0.0
N2492 N 0.89349 0.05676 0.32456 0.0
N2493 N 0.89972 0.94656 0.32646 0.0
H2494 H 0.90856 0.9858 0.3952 0.0
H2495 H 0.91183 0.95543 0.37745 0.0
H2496 H 0.9005 0.93523 0.30828 0.0
H2497 H 0.89444 0.93537 0.34427 0.0
H2498 H 0.89052 0.06624 0.30573 0.0
H2499 H 0.88728 0.06771 0.34177 0.0
H2500 H 0.91909 0.05097 0.27698 0.0
H2501 H 0.92109 1.02028 0.25921 0.0
C2502 C 0.5487 0.64984 0.744 0.0
C2503 C 0.57618 0.64448 0.74179 0.0
C2504 C 0.57494 0.65256 0.69105 0.0
C2505 C 0.54751 0.65851 0.69371 0.0
N2506 N 0.50696 0.65128 0.72174 0.0
N2507 N 0.61385 0.63471 0.712 0.0
C2508 C 0.53393 0.65319 0.71974 0.0
C2509 C 0.58866 0.64361 0.7148 0.0
N2510 N 0.53688 0.65378 0.76954 0.0
N2511 N 0.588 0.65572 0.66578 0.0
H2512 H 0.62409 0.6283 0.72895 0.0
H2513 H 0.62372 0.63141 0.69298 0.0
H2514 H 0.57828 0.65985 0.64774 0.0
H2515 H 0.60843 0.65499 0.6627 0.0
H2516 H 0.5179 0.66105 0.77261 0.0
H2517 H 0.54716 0.652 0.78754 0.0
H2518 H 0.49647 0.64475 0.73974 0.0
H2519 H 0.49505 0.65316 0.70495 0.0
C2520 C 0.92035 0.31003 0.02543 0.0
C2521 C 0.89579 0.32311 0.02773 0.0
C2522 C 0.87416 0.28453 1.00489 0.0
C2523 C 0.8988 0.27192 1.00209 0.0
N2524 N 0.94307 0.26833 1.01646 0.0
N2525 N 0.85154 0.3263 1.01202 0.0
C2526 C 0.92111 0.28337 1.01476 0.0
C2527 C 0.87322 0.31118 1.01551 0.0
N2528 N 0.94325 0.32359 0.03139 0.0
N2529 N 0.85151 0.27087 0.99809 0.0
H2530 H 0.85074 0.34644 1.01804 0.0
H2531 H 0.83589 0.32011 1.00002 0.0
H2532 H 0.85113 0.25075 0.99211 0.0
H2533 H 0.83268 0.27826 1.0018 0.0
H2534 H 0.96198 0.31602 0.02753 0.0
H2535 H 0.94384 0.34353 0.03761 0.0
H2536 H 0.9595 0.27417 0.02748 0.0
H2537 H 0.94351 0.24859 1.00899 0.0
C2538 C 0.21687 0.64595 0.26981 0.0
C2539 C 0.21139 0.62034 0.28269 0.0
C2540 C 0.26022 0.61297 0.27759 0.0
C2541 C 0.26509 0.63935 0.26617 0.0
N2542 N 0.24754 0.68407 0.26922 0.0
N2543 N 0.2317 0.58463 0.30804 0.0
C2544 C 0.24329 0.65684 0.268 0.0
C2545 C 0.23415 0.60517 0.28913 0.0
N2546 N 0.19756 0.6598 0.25777 0.0
N2547 N 0.28028 0.59542 0.27866 0.0
H2548 H 0.21438 0.58004 0.31966 0.0
H2549 H 0.24784 0.57471 0.31528 0.0
H2550 H 0.30012 0.60124 0.27586 0.0
H2551 H 0.27694 0.5749 0.2826 0.0
H2552 H 0.20165 0.67801 0.24735 0.0
H2553 H 0.17889 0.65153 0.25421 0.0
H2554 H 0.23205 0.69729 0.27203 0.0
H2555 H 0.26633 0.69278 0.27173 0.0
C2556 C 1.03138 1.00742 0.61019 0.0
C2557 C 1.0384 1.02735 0.62997 0.0
C2558 C 0.06811 0.99518 0.65057 0.0
C2559 C 0.06518 0.97782 0.62736 0.0
N2560 N 1.04161 0.96598 0.58673 0.0
N2561 N 0.06395 0.04051 0.66895 0.0
C2562 C 0.04549 0.98327 0.60822 0.0
C2563 C 0.05644 1.0211 0.65059 0.0
N2564 N 1.01138 1.01166 0.59278 0.0
N2565 N 0.08198 0.98707 0.67252 0.0
H2566 H 0.056 0.05959 0.66964 0.0
H2567 H 0.07935 0.03843 0.68226 0.0
H2568 H 0.08963 0.96797 0.67386 0.0
H2569 H 0.08312 0.99789 0.69091 0.0
H2570 H 1.00236 0.99651 0.58127 0.0
H2571 H 1.0021 0.02984 0.59124 0.0
H2572 H 1.03102 0.97023 0.56936 0.0
H2573 H 0.05048 0.9475 0.58571 0.0
C2574 C 0.57298 0.78153 0.6574 0.0
C2575 C 0.54581 0.78118 0.6631 0.0
C2576 C 0.54915 0.8277 0.67971 0.0
C2577 C 0.57488 0.82956 0.66664 0.0
N2578 N 0.6091 0.80713 0.63749 0.0
N2579 N 0.51058 0.79886 0.69233 0.0
C2580 C 0.58621 0.80626 0.65381 0.0
C2581 C 0.53441 0.80271 0.67832 0.0
N2582 N 0.58613 0.75798 0.65543 0.0
N2583 N 0.53827 0.85012 0.6913 0.0
H2584 H 0.50139 0.77992 0.69465 0.0
H2585 H 0.50128 0.81344 0.70433 0.0
H2586 H 0.54851 0.86865 0.69213 0.0
H2587 H 0.51876 0.851 0.69884 0.0
H2588 H 0.60672 0.75743 0.65343 0.0
H2589 H 0.57652 0.73932 0.6593 0.0
H2590 H 0.61506 0.79072 0.62552 0.0
H2591 H 0.62182 0.82369 0.63429 0.0
C2592 C 0.26765 0.59133 0.1532 0.0
C2593 C 0.29576 0.59466 0.15154 0.0
C2594 C 0.29692 0.54872 0.13065 0.0
C2595 C 0.2696 0.5444 0.13764 0.0
N2596 N 0.23008 0.56045 0.16069 0.0
N2597 N 0.33742 0.57511 0.13538 0.0
C2598 C 0.25547 0.56528 0.15076 0.0
C2599 C 0.31054 0.57305 0.13916 0.0
N2600 N 0.25225 0.6134 0.15459 0.0
N2601 N 0.30976 0.52978 0.11508 0.0
H2602 H 0.34865 0.59273 0.13715 0.0
H2603 H 0.34912 0.55862 0.13124 0.0
H2604 H 0.30089 0.5112 0.11019 0.0
H2605 H 0.32852 0.53294 0.10567 0.0
H2606 H 0.23171 0.61209 0.15373 0.0
H2607 H 0.26011 0.633 0.15214 0.0
H2608 H 0.21958 0.57451 0.1724 0.0
H2609 H 0.22081 0.54142 0.15996 0.0
C2610 C 0.55907 0.0453 0.91194 0.0
C2611 C 0.53604 0.04064 0.89671 0.0
C2612 C 0.56045 1.00858 0.86691 0.0
C2613 C 0.58178 1.01091 0.88496 0.0
N2614 N 0.606 0.0396 0.9151 0.0
N2615 N 0.5151 1.01995 0.8578 0.0
C2616 C 0.58254 0.03224 0.90409 0.0
C2617 C 0.53706 1.02348 0.87301 0.0
N2618 N 0.55808 0.0604 0.9355 0.0
N2619 N 0.5627 0.99239 0.84414 0.0
H2620 H 0.49779 0.03027 0.8619 0.0
H2621 H 0.51352 1.00661 0.84136 0.0
H2622 H 0.5799 0.98235 0.83882 0.0
H2623 H 0.54872 0.99061 0.82909 0.0
H2624 H 0.57248 0.05959 0.95013 0.0
H2625 H 0.54192 0.07165 0.9416 0.0
H2626 H 0.6087 0.05673 0.92725 0.0
H2627 H 0.62325 0.02974 0.90943 0.0
C2628 C 0.76603 0.47252 0.90487 0.0
C2629 C 0.77842 0.45732 0.88315 0.0
C2630 C 0.81094 0.49401 0.87473 0.0
C2631 C 0.80108 0.50721 0.89901 0.0
N2632 N 0.77065 0.5081 0.93879 0.0
N2633 N 0.81722 0.45083 0.85314 0.0
C2634 C 0.77905 0.49615 0.9146 0.0
C2635 C 0.80213 0.4673 0.8696 0.0
N2636 N 0.74143 0.46519 0.91551 0.0
N2637 N 0.82867 0.50666 0.85644 0.0
H2638 H 0.8126 0.43039 0.8505 0.0
H2639 H 0.836 0.45658 0.84502 0.0
H2640 H 0.83517 0.52659 0.85841 0.0
H2641 H 0.83452 0.49832 0.83741 0.0
H2642 H 0.73027 0.4773 0.92884 0.0
H2643 H 0.7312 0.44805 0.90931 0.0
H2644 H 0.75685 0.49906 0.95287 0.0
H2645 H 0.77861 0.52648 0.94553 0.0
C2646 C 1.01606 0.80276 0.35869 0.0
C2647 C 1.0283 0.7976 0.38415 0.0
C2648 C 0.99227 0.76384 0.39557 0.0
C2649 C 0.97975 0.76963 0.37042 0.0
N2650 N 0.97406 0.80448 0.33703 0.0
N2651 N 1.02365 0.77798 0.42991 0.0
C2652 C 0.9902 0.79168 0.35423 0.0
C2653 C 1.01498 0.77965 0.40358 0.0
N2654 N 1.02838 0.81918 0.339 0.0
N2655 N 0.98277 0.74291 0.41173 0.0
H2656 H 1.04038 0.78856 0.43635 0.0
H2657 H 1.01315 0.76782 0.44602 0.0
H2658 H 0.96654 0.73112 0.40636 0.0
H2659 H 0.9921 0.7359 0.42898 0.0
H2660 H 1.02135 0.82116 0.31915 0.0
H2661 H 0.04638 0.82936 0.34162 0.0
H2662 H 0.97973 0.822 0.32607 0.0
H2663 H 0.95376 0.80014 0.33769 0.0
C2664 C 0.07564 0.14887 0.68681 0.0
C2665 C 0.04992 0.15934 0.69131 0.0
C2666 C 0.05138 0.14614 0.74084 0.0
C2667 C 0.07853 0.1403 0.73721 0.0
N2668 N 0.11665 0.13534 0.70653 0.0
N2669 N 1.01407 0.16972 0.72386 0.0
C2670 C 0.09052 0.14109 0.70998 0.0
C2671 C 1.03779 0.15799 0.71861 0.0
N2672 N 0.08568 0.14581 0.66027 0.0
N2673 N 1.03868 0.14049 0.76583 0.0
H2674 H 1.00393 0.17935 0.70861 0.0
H2675 H 1.00555 0.17206 0.74372 0.0
H2676 H 0.0483 0.13154 0.78197 0.0
H2677 H 1.01838 0.14208 0.76958 0.0
H2678 H 0.10299 0.13583 0.65526 0.0
H2679 H 0.0755 0.15129 0.64294 0.0
H2680 H 0.12788 0.13879 0.68817 0.0
H2681 H 0.12736 0.12792 0.72271 0.0
C2682 C 0.37963 0.28205 0.51898 0.0
C2683 C 0.394 0.28609 0.4932 0.0
C2684 C 0.39555 0.33515 0.50151 0.0
C2685 C 0.38065 0.33098 0.52673 0.0
N2686 N 0.35348 0.3017 0.55673 0.0
N2687 N 0.41101 0.318 0.45744 0.0
C2688 C 0.37092 0.30482 0.53447 0.0
C2689 C 0.40068 0.31303 0.48376 0.0
N2690 N 0.37605 0.25664 0.52977 0.0
N2691 N 0.4052 0.36053 0.49466 0.0
H2692 H 0.41515 0.30351 0.44259 0.0
H2693 H 0.41363 0.3372 0.44888 0.0
H2694 H 0.39896 0.37784 0.50493 0.0
H2695 H 0.42043 0.36444 0.47981 0.0
H2696 H 0.3683 0.25272 0.54979 0.0
H2697 H 0.38323 0.23956 0.51983 0.0
H2698 H 0.34298 0.28366 0.56104 0.0
H2699 H 0.34755 0.31778 0.56914 0.0
C2700 C 0.41562 0.49954 0.34639 0.0
C2701 C 0.39671 0.51996 0.35038 0.0
C2702 C 0.38093 0.51011 0.30321 0.0
C2703 C 0.39999 0.48985 0.29893 0.0
N2704 N 0.43756 0.46727 0.31567 0.0
N2705 N 0.36425 0.54739 0.33041 0.0
C2706 C 0.41811 0.48538 0.32024 0.0
C2707 C 0.38033 0.52598 0.32806 0.0
N2708 N 0.43068 0.49308 0.36808 0.0
N2709 N 0.36271 0.51386 0.28365 0.0
H2710 H 0.36188 0.55808 0.34868 0.0
H2711 H 0.35468 0.55572 0.31397 0.0
H2712 H 0.36356 0.50447 0.26441 0.0
H2713 H 0.34592 0.52516 0.28683 0.0
H2714 H 0.44286 0.47665 0.36833 0.0
H2715 H 0.43008 0.50376 0.38669 0.0
H2716 H 0.4531 0.46478 0.32869 0.0
H2717 H 0.43904 0.45539 0.29792 0.0
C2718 C 0.09041 0.63316 0.07326 0.0
C2719 C 0.0676 0.64768 0.06671 0.0
C2720 C 0.09306 0.6647 0.02429 0.0
C2721 C 0.11443 0.64745 0.02903 0.0
N2722 N 0.13182 0.61317 0.05768 0.0
N2723 N 0.04646 0.67413 0.03278 0.0
C2724 C 0.11254 0.63112 0.05346 0.0
C2725 C 0.06885 0.66279 0.04144 0.0
N2726 N 0.09131 0.62188 0.09904 0.0
N2727 N 0.09589 0.68335 1.00349 0.0
H2728 H 1.02861 0.67337 0.04444 0.0
H2729 H 1.04498 0.68231 1.01304 0.0
H2730 H 0.11313 0.68557 0.99101 0.0
H2731 H 0.08233 0.69825 1.00044 0.0
H2732 H 0.1081 0.61331 0.10644 0.0
H2733 H 0.07603 0.62353 0.11414 0.0
H2734 H 0.13015 0.59821 0.07287 0.0
H2735 H 0.14885 0.61207 0.04478 0.0
C2736 C 0.54341 0.36849 0.4909 0.0
C2737 C 0.52012 0.37584 0.47809 0.0
C2738 C 0.54515 0.4101 0.45087 0.0
C2739 C 0.5685 0.40378 0.46404 0.0
N2740 N 0.58932 0.38036 0.49984 0.0
N2741 N 0.50242 0.39361 0.43683 0.0
C2742 C 0.56748 0.38374 0.48496 0.0
C2743 C 0.52235 0.39328 0.45491 0.0
N2744 N 0.5429 0.34571 0.50669 0.0
N2745 N 0.54483 0.4326 0.43475 0.0
H2746 H 0.4859 0.38048 0.4392 0.0
H2747 H 0.50374 0.40461 0.41836 0.0
H2748 H 0.56138 0.44555 0.43222 0.0
H2749 H 0.52766 0.43956 0.42647 0.0
H2750 H 0.55977 0.33764 0.5145 0.0
H2751 H 0.52595 0.33323 0.50906 0.0
H2752 H 0.58969 0.36755 0.5169 0.0
H2753 H 0.60619 0.39285 0.49656 0.0
C2754 C 0.13727 1.02664 0.70847 0.0
C2755 C 0.14077 1.01343 0.73404 0.0
C2756 C 0.15769 0.97407 0.70895 0.0
C2757 C 0.15943 0.9896 0.68417 0.0
N2758 N 0.14054 1.02485 0.65817 0.0
N2759 N 0.15325 0.97449 0.75932 0.0
C2760 C 0.1459 1.01416 0.68331 0.0
C2761 C 0.15009 0.98682 0.73443 0.0
N2762 N 0.12755 0.05202 0.70848 0.0
N2763 N 0.16244 0.9472 0.70815 0.0
H2764 H 0.1474 0.98332 0.7781 0.0
H2765 H 0.16273 0.95638 0.76146 0.0
H2766 H 0.16745 0.93702 0.68996 0.0
H2767 H 0.15877 0.93437 0.72509 0.0
H2768 H 0.12779 0.06442 0.69106 0.0
H2769 H 0.1199 0.06118 0.72642 0.0
H2770 H 0.12876 0.04135 0.65558 0.0
H2771 H 0.14578 1.01528 0.63963 0.0
C2772 C 0.56951 0.39533 0.31069 0.0
C2773 C 0.56496 0.40434 0.33827 0.0
C2774 C 0.53475 0.43798 0.32269 0.0
C2775 C 0.53862 0.42834 0.29519 0.0
N2776 N 0.56603 0.40496 0.26174 0.0
N2777 N 0.55173 0.44016 0.36878 0.0
C2778 C 0.5585 0.4096 0.28882 0.0
C2779 C 0.55034 0.42769 0.3437 0.0
N2780 N 0.58289 0.37231 0.30553 0.0
N2781 N 0.51512 0.45536 0.32922 0.0
H2782 H 0.56435 0.4337 0.38373 0.0
H2783 H 0.54287 0.45834 0.3734 0.0
H2784 H 0.50384 0.46422 0.31442 0.0
H2785 H 0.50914 0.45989 0.34959 0.0
H2786 H 0.58447 0.36332 0.28608 0.0
H2787 H 0.59077 0.36104 0.32118 0.0
H2788 H 0.58157 0.39277 0.25562 0.0
H2789 H 0.55816 0.41546 0.24546 0.0
C2790 C 0.18425 0.79987 0.04415 0.0
C2791 C 0.20286 0.78104 0.03537 0.0
C2792 C 0.23036 0.79387 0.07422 0.0
C2793 C 0.20885 0.80844 0.08672 0.0
N2794 N 0.16557 0.82695 0.08059 0.0
N2795 N 0.24411 0.75973 0.04125 0.0
C2796 C 0.1859 0.81188 0.07075 0.0
C2797 C 0.22618 0.77821 0.04998 0.0
N2798 N 0.16529 0.80674 0.02641 0.0
N2799 N 0.25516 0.79543 0.08426 0.0
H2800 H 0.24347 0.75033 0.022 0.0
H2801 H 0.25899 0.75302 0.05353 0.0
H2802 H 0.2606 0.80672 0.10112 0.0
H2803 H 0.27168 0.78782 0.07371 0.0
H2804 H 0.15258 0.82257 0.02989 0.0
H2805 H 0.16433 0.79832 1.00664 0.0
H2806 H 0.14678 0.82612 0.07264 0.0
H2807 H 0.16762 0.84072 0.09641 0.0
C2808 C 1.03628 1.01967 0.36975 0.0
C2809 C 1.03427 0.03564 0.39428 0.0
C2810 C 0.08052 1.02663 0.40317 0.0
C2811 C 0.08077 1.00678 0.38227 0.0
N2812 N 0.06365 0.99201 0.33899 0.0
N2813 N 0.0547 0.05347 0.43498 0.0
C2814 C 0.06017 1.00573 0.36329 0.0
C2815 C 0.05668 0.03939 0.41076 0.0
N2816 N 1.01467 1.01597 0.35405 0.0
N2817 N 0.10346 0.03318 0.4158 0.0
H2818 H 1.03818 0.06423 0.44104 0.0
H2819 H 0.06869 0.05264 0.45006 0.0
H2820 H 0.1211 1.02387 0.41034 0.0
H2821 H 0.10558 0.04941 0.42928 0.0
H2822 H 1.01359 1.00237 0.33775 0.0
H2823 H 0.99701 1.02571 0.35808 0.0
H2824 H 0.0507 0.99257 0.32291 0.0
H2825 H 0.08105 0.98239 0.3335 0.0
C2826 C 0.51611 0.30288 0.35906 0.0
C2827 C 0.53037 0.29319 0.38157 0.0
C2828 C 0.49345 0.26021 0.39235 0.0
C2829 C 0.47847 0.27122 0.37098 0.0
N2830 N 0.47281 0.30903 0.34111 0.0
N2831 N 0.53118 0.26437 0.42166 0.0
C2832 C 0.48919 0.29407 0.35611 0.0
C2833 C 0.5185 0.27241 0.39881 0.0
N2834 N 0.52787 0.32108 0.34073 0.0
N2835 N 0.4844 0.23729 0.40574 0.0
H2836 H 0.55039 0.27099 0.42565 0.0
H2837 H 0.52234 0.25217 0.43726 0.0
H2838 H 0.46621 0.2282 0.40204 0.0
H2839 H 0.49566 0.22612 0.4188 0.0
H2840 H 0.51933 0.32667 0.32243 0.0
H2841 H 0.5471 0.32879 0.34233 0.0
H2842 H 0.47853 0.32729 0.3316 0.0
H2843 H 0.45247 0.30501 0.3417 0.0
C2844 C 0.56746 0.99907 0.15743 0.0
C2845 C 0.56424 0.98041 0.13548 0.0
C2846 C 0.53239 1.0097 0.11475 0.0
C2847 C 0.53927 0.03068 0.13358 0.0
N2848 N 0.56185 0.04485 0.17435 0.0
N2849 N 0.53562 0.96269 0.10151 0.0
C2850 C 0.55582 1.02499 0.15586 0.0
C2851 C 0.54386 0.9841 0.11697 0.0
N2852 N 0.58121 0.99182 0.1798 0.0
N2853 N 0.51594 1.01461 0.09375 0.0
H2854 H 0.54399 0.94389 0.10316 0.0
H2855 H 0.51932 0.96272 0.08917 0.0
H2856 H 0.50581 0.03233 0.09201 0.0
H2857 H 0.51301 1.0016 0.0772 0.0
H2858 H 0.58373 1.00375 0.19723 0.0
H2859 H 0.58758 0.97232 0.18248 0.0
H2860 H 0.57507 0.04291 0.18998 0.0
H2861 H 0.55441 0.06411 0.17355 0.0
C2862 C 1.03324 0.3335 0.64079 0.0
C2863 C 0.04792 0.33698 0.66445 0.0
C2864 C 1.04099 0.29011 0.67728 0.0
C2865 C 1.03181 0.28504 0.65019 0.0
N2866 N 1.01803 0.30216 0.60614 0.0
N2867 N 0.05164 0.32422 0.71164 0.0
C2868 C 1.02694 0.30688 0.63204 0.0
C2869 C 0.04612 0.31714 0.68519 0.0
N2870 N 1.02772 0.35578 0.62594 0.0
N2871 N 0.04662 0.26937 0.69449 0.0
H2872 H 0.05607 0.34428 0.71669 0.0
H2873 H 0.04934 0.31106 0.72848 0.0
H2874 H 1.04459 0.24913 0.68906 0.0
H2875 H 0.0554 0.27222 0.7134 0.0
H2876 H 1.01578 0.35549 0.60895 0.0
H2877 H 1.03387 0.37491 0.63259 0.0
H2878 H 1.01597 0.31723 0.59146 0.0
H2879 H 1.0139 0.28289 0.59862 0.0
C2880 C 0.63865 1.00916 0.04696 0.0
C2881 C 0.66049 0.99307 0.05064 0.0
C2882 C 0.68695 1.02065 1.01677 0.0
C2883 C 0.66447 0.03649 1.01346 0.0
N2884 N 0.61612 0.03294 1.01285 0.0
N2885 N 0.70331 0.97873 0.03349 0.0
C2886 C 0.63932 1.02643 0.02417 0.0
C2887 C 0.6841 0.99731 0.03384 0.0
N2888 N 0.61833 1.01017 0.06645 0.0
N2889 N 0.71067 1.02724 1.00351 0.0
H2890 H 0.70146 0.96124 0.04523 0.0
H2891 H 0.7197 0.97927 0.01964 0.0
H2892 H 0.71252 0.03958 0.98606 0.0
H2893 H 0.72848 1.01945 1.00923 0.0
H2894 H 0.60273 1.0232 0.06477 0.0
H2895 H 0.61941 1.00145 0.08597 0.0
H2896 H 0.59794 1.02442 0.02003 0.0
H2897 H 0.61515 0.04356 0.99433 0.0
C2898 C 0.27166 0.95621 0.7529 0.0
C2899 C 0.27065 0.92729 0.7541 0.0
C2900 C 0.29213 0.92655 0.70787 0.0
C2901 C 0.30218 0.95232 0.7134 0.0
N2902 N 0.29042 0.99592 0.72801 0.0
N2903 N 0.27709 0.88484 0.7296 0.0
C2904 C 0.28716 0.96874 0.73094 0.0
C2905 C 0.27924 0.91231 0.73019 0.0
N2906 N 0.25969 0.97138 0.77312 0.0
N2907 N 0.29864 0.91498 0.68306 0.0
H2908 H 0.26752 0.87341 0.74532 0.0
H2909 H 0.28554 0.87332 0.71373 0.0
H2910 H 0.31034 0.9256 0.66803 0.0
H2911 H 0.29086 0.89633 0.67696 0.0
H2912 H 0.26225 0.99218 0.77463 0.0
H2913 H 0.24619 0.9636 0.78808 0.0
H2914 H 0.2802 1.00999 0.73986 0.0
H2915 H 0.30296 1.004 0.71209 0.0
C2916 C 0.67322 0.25645 0.27448 0.0
C2917 C 0.64936 0.25391 0.29085 0.0
C2918 C 0.63217 0.29104 0.26469 0.0
C2919 C 0.65258 0.28763 0.24332 0.0
N2920 N 0.69251 0.26512 0.2285 0.0
N2921 N 0.60743 0.27203 0.30469 0.0
C2922 C 0.67355 0.27029 0.24864 0.0
C2923 C 0.62953 0.27265 0.28734 0.0
N2924 N 0.695 0.24404 0.28313 0.0
N2925 N 0.61568 0.3122 0.26409 0.0
H2926 H 0.60634 0.2616 0.32345 0.0
H2927 H 0.59013 0.28167 0.30034 0.0
H2928 H 0.61601 0.32629 0.2483 0.0
H2929 H 0.60315 0.3174 0.28081 0.0
H2930 H 0.7137 0.24687 0.27344 0.0
H2931 H 0.69446 0.2333 0.30181 0.0
H2932 H 0.70681 0.25077 0.23078 0.0
H2933 H 0.69243 0.27295 0.20849 0.0
C2934 C 0.2794 0.40451 0.54066 0.0
C2935 C 0.28244 0.42286 0.51781 0.0
C2936 C 0.30874 0.45313 0.54718 0.0
C2937 C 0.30788 0.4328 0.56783 0.0
N2938 N 0.27972 0.3995 0.59056 0.0
N2939 N 0.29472 0.46837 0.50251 0.0
C2940 C 0.28838 0.4124 0.56679 0.0
C2941 C 0.29485 0.44873 0.52228 0.0
N2942 N 0.26986 0.3788 0.53745 0.0
N2943 N 0.32492 0.47529 0.55066 0.0
H2944 H 0.2864 0.46546 0.48349 0.0
H2945 H 0.30156 0.4881 0.50551 0.0
H2946 H 0.33443 0.47839 0.56922 0.0
H2947 H 0.32949 0.48979 0.53544 0.0
H2948 H 0.27349 0.36386 0.55186 0.0
H2949 H 0.26022 0.37191 0.52015 0.0
H2950 H 0.2648 0.38463 0.59086 0.0
H2951 H 0.28568 0.40598 0.60997 0.0
C2952 C 0.40253 0.85422 0.75485 0.0
C2953 C 0.42401 0.87021 0.76468 0.0
C2954 C 0.42731 0.83791 0.80253 0.0
C2955 C 0.41258 0.81859 0.78731 0.0
N2956 N 0.38339 0.80902 0.75029 0.0
N2957 N 0.45121 0.88099 0.80304 0.0
C2958 C 0.39892 0.82699 0.76409 0.0
C2959 C 0.43473 0.86315 0.79018 0.0
N2960 N 0.38483 0.86525 0.73807 0.0
N2961 N 0.43311 0.83228 0.82928 0.0
H2962 H 0.45338 0.90115 0.797 0.0
H2963 H 0.46266 0.87588 0.81951 0.0
H2964 H 0.4261 0.81462 0.83924 0.0
H2965 H 0.44223 0.84594 0.84243 0.0
H2966 H 0.36728 0.85529 0.73296 0.0
H2967 H 0.38624 0.88524 0.73156 0.0
H2968 H 0.37433 0.81378 0.73206 0.0
H2969 H 0.38045 0.78898 0.75644 0.0
C2970 C 0.75365 0.14194 0.04082 0.0
C2971 C 0.75359 0.16449 0.02267 0.0
C2972 C 0.802 0.16789 0.02331 0.0
C2973 C 0.80122 0.15055 0.0465 0.0
N2974 N 0.77667 0.11925 0.0767 0.0
N2975 N 0.7783 0.2001 0.99751 0.0
C2976 C 0.77727 0.13636 0.05454 0.0
C2977 C 0.778 0.17754 1.01375 0.0
N2978 N 0.73105 0.12652 0.04571 0.0
N2979 N 0.82597 0.17622 1.01166 0.0
H2980 H 0.76124 0.20816 0.99031 0.0
H2981 H 0.79529 0.21195 0.99282 0.0
H2982 H 0.84363 0.16931 1.01899 0.0
H2983 H 0.82816 0.18757 0.99346 0.0
H2984 H 0.7305 0.10842 0.05669 0.0
H2985 H 0.7132 0.13071 0.03696 0.0
H2986 H 0.75932 0.11102 0.08614 0.0
H2987 H 0.79377 0.11405 0.08624 0.0
C2988 C 0.73537 0.11363 0.29356 0.0
C2989 C 0.71133 0.12525 0.28505 0.0
C2990 C 0.73948 0.16195 0.26342 0.0
C2991 C 0.76308 0.14748 0.26574 0.0
N2992 N 0.78278 0.10914 0.28677 0.0
N2993 N 0.69367 0.1571 0.25297 0.0
C2994 C 0.76077 0.12309 0.28171 0.0
C2995 C 0.71428 0.14847 0.26751 0.0
N2996 N 0.73467 0.09486 0.31438 0.0
N2997 N 0.74075 0.189 0.25834 0.0
H2998 H 0.67611 0.14586 0.25126 0.0
H2999 H 0.69574 0.17316 0.23898 0.0
H3000 H 0.75835 0.20044 0.25923 0.0
H3001 H 0.72385 0.20038 0.25774 0.0
H3002 H 0.75154 0.08807 0.32336 0.0
H3003 H 0.71765 0.08836 0.32551 0.0
H3004 H 0.78199 0.08894 0.29276 0.0
H3005 H 0.8017 0.11792 0.2859 0.0
C3006 C 0.42868 0.45957 0.48314 0.0
C3007 C 0.41966 0.45824 0.51185 0.0
C3008 C 0.40623 0.50624 0.50504 0.0
C3009 C 0.42067 0.50884 0.47875 0.0
N3010 N 0.44802 0.48628 0.44457 0.0
N3011 N 0.40011 0.48321 0.54993 0.0
C3012 C 0.43265 0.485 0.46856 0.0
C3013 C 0.4083 0.48239 0.52265 0.0
N3014 N 0.43184 0.43611 0.4688 0.0
N3015 N 0.38963 0.52613 0.51294 0.0
H3016 H 0.40083 0.46667 0.56312 0.0
H3017 H 0.39455 0.50087 0.5599 0.0
H3018 H 0.3863 0.54234 0.49995 0.0
H3019 H 0.37691 0.52484 0.5305 0.0
H3020 H 0.43619 0.43551 0.44749 0.0
H3021 H 0.42639 0.41732 0.47734 0.0
H3022 H 0.45973 0.47051 0.43776 0.0
H3023 H 0.45065 0.50376 0.43261 0.0
C3024 C 0.31466 0.78155 0.91339 0.0
C3025 C 0.33787 0.78692 0.89562 0.0
C3026 C 0.31774 0.83043 0.88375 0.0
C3027 C 0.29329 0.82342 0.899 0.0
N3028 N 0.26745 0.78709 0.92115 0.0
N3029 N 0.35825 0.81539 0.85989 0.0
C3030 C 0.29152 0.79742 0.91159 0.0
C3031 C 0.33807 0.81078 0.87921 0.0
N3032 N 0.31457 0.76157 0.93283 0.0
N3033 N 0.32299 0.8565 0.87561 0.0
H3034 H 0.37364 0.80213 0.85675 0.0
H3035 H 0.35833 0.83094 0.84535 0.0
H3036 H 0.31073 0.87227 0.88083 0.0
H3037 H 0.34122 0.8632 0.86684 0.0
H3038 H 0.29985 0.75915 0.94855 0.0
H3039 H 0.33 0.74861 0.93466 0.0
H3040 H 0.26467 0.76781 0.92953 0.0
H3041 H 0.24975 0.7963 0.91751 0.0
C3042 C 0.80275 0.04963 0.12882 0.0
C3043 C 0.78099 0.03736 0.14411 0.0
C3044 C 0.78688 0.07197 0.1803 0.0
C3045 C 0.80456 0.08753 0.1622 0.0
N3046 N 0.82751 0.09078 0.11726 0.0
N3047 N 0.75063 0.0389 0.18422 0.0
C3048 C 0.8124 0.07598 0.13612 0.0
C3049 C 0.77275 0.04891 0.16996 0.0
N3050 N 0.81415 0.03604 0.10705 0.0
N3051 N 0.78433 0.07839 0.20781 0.0
H3052 H 0.73971 1.02207 0.17791 0.0
H3053 H 0.74194 0.04863 0.20128 0.0
H3054 H 0.79565 0.09368 0.21677 0.0
H3055 H 0.77361 0.06636 0.22235 0.0
H3056 H 0.83178 0.0424 0.09671 0.0
H3057 H 0.80739 1.01685 0.10137 0.0
H3058 H 0.83225 0.08436 0.09716 0.0
H3059 H 0.83221 0.11093 0.12041 0.0
C3060 C 0.8175 0.74839 0.62559 0.0
C3061 C 0.81685 0.72584 0.64418 0.0
C3062 C 0.7818 0.7479 0.67203 0.0
C3063 C 0.78512 0.77125 0.65539 0.0
N3064 N 0.81388 0.79662 0.62294 0.0
N3065 N 0.80591 0.71322 0.69223 0.0
C3066 C 0.80576 0.7725 0.63458 0.0
C3067 C 0.80117 0.72812 0.66952 0.0
N3068 N 0.82712 0.74698 0.59877 0.0
N3069 N 0.76019 0.74376 0.68968 0.0
H3070 H 0.82296 0.70266 0.69318 0.0
H3071 H 0.79597 0.71584 0.71141 0.0
H3072 H 0.74475 0.75699 0.69166 0.0
H3073 H 0.75653 0.7256 0.70032 0.0
H3074 H 0.82515 0.76261 0.58462 0.0
H3075 H 0.83358 0.72968 0.58916 0.0
H3076 H 0.82997 0.79855 0.60874 0.0
H3077 H 0.8065 0.81488 0.62993 0.0
C3078 C 0.28898 1.00755 0.88019 0.0
C3079 C 0.29669 1.00674 0.90818 0.0
C3080 C 0.29363 0.95765 0.9077 0.0
C3081 C 0.28709 0.95812 0.87947 0.0
N3082 N 0.26909 0.98364 0.84238 0.0
N3083 N 0.29087 0.9818 0.95103 0.0
C3084 C 0.28223 0.98311 0.8665 0.0
C3085 C 0.29404 0.98199 0.92279 0.0
N3086 N 0.28709 0.03158 0.86693 0.0
N3087 N 0.29994 0.93409 0.92007 0.0
H3088 H 0.28854 0.99957 0.96231 0.0
H3089 H 0.287 0.9642 0.96253 0.0
H3090 H 0.30085 0.91586 0.90939 0.0
H3091 H 0.30681 0.9333 0.94009 0.0
H3092 H 0.28662 0.03348 0.84545 0.0
H3093 H 0.28511 0.04947 0.8778 0.0
H3094 H 0.26253 1.00119 0.83352 0.0
H3095 H 0.262 0.96636 0.83265 0.0
C3096 C 0.41148 0.98004 0.01963 0.0
C3097 C 0.43417 0.96346 1.01888 0.0
C3098 C 0.45168 0.99244 0.97849 0.0
C3099 C 0.43214 1.01227 0.98344 0.0
N3100 N 0.39135 1.02246 1.00841 0.0
N3101 N 0.47247 0.95097 0.99135 0.0
C3102 C 0.4114 1.00516 1.00377 0.0
C3103 C 0.4534 0.96922 0.99667 0.0
N3104 N 0.38899 0.97105 0.03387 0.0
N3105 N 0.46699 0.99421 0.95442 0.0
H3106 H 0.47025 0.93113 0.99842 0.0
H3107 H 0.48991 0.95518 0.97967 0.0
H3108 H 0.464 1.0085 0.93915 0.0
H3109 H 0.48046 0.97998 0.9478 0.0
H3110 H 0.37085 0.98014 0.03268 0.0
H3111 H 0.38767 0.953 0.04484 0.0
H3112 H 0.3782 1.02112 0.02564 0.0
H3113 H 0.38843 0.03882 0.9956 0.0
C3114 C 0.75231 0.64708 0.54531 0.0
C3115 C 0.74825 0.6697 0.52823 0.0
C3116 C 0.79664 0.67798 0.5241 0.0
C3117 C 0.8002 0.65705 0.54348 0.0
N3118 N 0.78296 0.61476 0.56167 0.0
N3119 N 0.7667 0.70878 0.50375 0.0
C3120 C 0.77848 0.63944 0.55081 0.0
C3121 C 0.77055 0.68544 0.51775 0.0
N3122 N 0.73107 0.6339 0.55794 0.0
N3123 N 0.81857 0.69037 0.51162 0.0
H3124 H 0.74792 0.71593 0.50098 0.0
H3125 H 0.78183 0.7224 0.49733 0.0
H3126 H 0.83761 0.68445 0.51574 0.0
H3127 H 0.818 0.7042 0.49545 0.0
H3128 H 0.73297 0.62013 0.57395 0.0
H3129 H 0.7117 0.63884 0.55423 0.0
H3130 H 0.76814 0.60001 0.56567 0.0
H3131 H 0.80201 0.60773 0.56251 0.0
C3132 C 0.30497 0.86405 0.05084 0.0
C3133 C 0.3015 0.8862 0.06842 0.0
C3134 C 0.27223 0.90515 0.03483 0.0
C3135 C 0.28188 0.88628 1.01456 0.0
N3136 N 0.31551 0.85351 1.00347 0.0
N3137 N 0.28083 0.92789 0.07836 0.0
C3138 C 0.3005 0.86723 0.0226 0.0
C3139 C 0.28441 0.90663 0.06088 0.0
N3140 N 0.31329 0.84032 0.06091 0.0
N3141 N 0.25124 0.92083 0.03018 0.0
H3142 H 0.28869 0.92823 0.09802 0.0
H3143 H 0.2713 0.94527 0.07291 0.0
H3144 H 0.24087 0.92054 1.01216 0.0
H3145 H 0.24223 0.93243 0.04566 0.0
H3146 H 0.31435 0.82307 0.04863 0.0
H3147 H 0.3156 0.83736 0.08207 0.0
H3148 H 0.33 0.84038 1.00918 0.0
H3149 H 0.31628 0.8582 0.98236 0.0
C3150 C 0.69988 0.56793 0.57878 0.0
C3151 C 0.71176 0.56866 0.55164 0.0
C3152 C 0.71721 0.52074 0.55184 0.0
C3153 C 0.70089 0.51944 0.57675 0.0
N3154 N 0.6917 0.54176 0.62054 0.0
N3155 N 0.74632 0.55013 0.52292 0.0
C3156 C 0.69755 0.5431 0.59267 0.0
C3157 C 0.72587 0.54651 0.542 0.0
N3158 N 0.68789 0.58995 0.58971 0.0
N3159 N 0.72283 0.49839 0.53655 0.0
H3160 H 0.75256 0.56941 0.51617 0.0
H3161 H 0.75829 0.53452 0.51625 0.0
H3162 H 0.71658 0.47895 0.5422 0.0
H3163 H 0.73253 0.49951 0.51703 0.0
H3164 H 0.67604 0.58933 0.60797 0.0
H3165 H 0.6883 0.60833 0.57937 0.0
H3166 H 0.69093 0.55878 0.63315 0.0
H3167 H 0.69083 0.52358 0.63138 0.0
C3168 C 0.76518 0.24544 0.146 0.0
C3169 C 0.77151 0.26297 0.16794 0.0
C3170 C 0.80849 0.23543 0.17866 0.0
C3171 C 0.80644 0.22203 0.15268 0.0
N3172 N 0.77889 0.20963 0.11497 0.0
N3173 N 0.79721 0.27375 0.20727 0.0
C3174 C 0.78358 0.22573 0.13721 0.0
C3175 C 0.79235 0.25742 0.18513 0.0
N3176 N 0.74105 0.24686 0.13471 0.0
N3177 N 0.82522 0.22669 0.1977 0.0
H3178 H 0.78457 0.28893 0.21373 0.0
H3179 H 0.81415 0.2729 0.21865 0.0
H3180 H 0.83945 0.21292 0.1928 0.0
H3181 H 0.82444 0.23255 0.21844 0.0
H3182 H 0.73412 0.23369 0.11973 0.0
H3183 H 0.72691 0.26007 0.14229 0.0
H3184 H 0.76483 0.21342 0.10051 0.0
H3185 H 0.78913 0.1921 0.11126 0.0
C3186 C 0.32686 0.34513 0.41432 0.0
C3187 C 0.30138 0.33884 0.40415 0.0
C3188 C 0.32089 0.29758 0.38223 0.0
C3189 C 0.34529 0.30222 0.39543 0.0
N3190 N 0.37412 0.33773 0.41124 0.0
N3191 N 0.2742 0.30779 0.3788 0.0
C3192 C 0.34887 0.32809 0.40802 0.0
C3193 C 0.29861 0.31486 0.38788 0.0
N3194 N 0.33026 0.36752 0.43038 0.0
N3195 N 0.31968 0.27839 0.36219 0.0
H3196 H 0.2578 0.31971 0.38231 0.0
H3197 H 0.26973 0.28927 0.36974 0.0
H3198 H 0.336 0.26736 0.35598 0.0
H3199 H 0.30391 0.27603 0.34922 0.0
H3200 H 0.34705 0.3713 0.44164 0.0
H3201 H 0.3156 0.3815 0.43395 0.0
H3202 H 0.37881 0.35731 0.41748 0.0
H3203 H 0.39054 0.32726 0.40392 0.0
C3204 C 0.29469 0.3661 0.24139 0.0
C3205 C 0.28181 0.38855 0.25384 0.0
C3206 C 0.29518 0.41375 0.21203 0.0
C3207 C 0.31737 0.39796 0.21011 0.0
N3208 N 0.33245 0.3531 0.21185 0.0
N3209 N 0.26748 0.43505 0.24606 0.0
C3210 C 0.3144 0.37147 0.22013 0.0
C3211 C 0.28024 0.41261 0.23737 0.0
N3212 N 0.28834 0.34045 0.25007 0.0
N3213 N 0.29136 0.43227 0.19199 0.0
H3214 H 0.25678 0.437 0.26458 0.0
H3215 H 0.26897 0.45313 0.23499 0.0
H3216 H 0.30431 0.4338 0.17455 0.0
H3217 H 0.27454 0.44382 0.19189 0.0
H3218 H 0.29647 0.32351 0.2408 0.0
H3219 H 0.27278 0.33627 0.26454 0.0
H3220 H 0.33334 0.334 0.22064 0.0
H3221 H 0.3471 0.35801 0.19652 0.0
C3222 C 0.66538 0.75764 0.75426 0.0
C3223 C 0.64156 0.75351 0.77071 0.0
C3224 C 0.62397 0.79268 0.7471 0.0
C3225 C 0.6451 0.79221 0.72639 0.0
N3226 N 0.6846 0.77047 0.70919 0.0
N3227 N 0.59676 0.76708 0.78107 0.0
C3228 C 0.66563 0.77385 0.72983 0.0
C3229 C 0.62053 0.77123 0.76693 0.0
N3230 N 0.68778 0.74559 0.76189 0.0
N3231 N 0.60773 0.81409 0.74875 0.0
H3232 H 0.59337 0.75247 0.7964 0.0
H3233 H 0.57988 0.77728 0.77631 0.0
H3234 H 0.61019 0.83092 0.73589 0.0
H3235 H 0.5938 0.81658 0.76505 0.0
H3236 H 0.70627 0.74949 0.75202 0.0
H3237 H 0.68818 0.73409 0.78 0.0
H3238 H 0.69837 0.75538 0.70977 0.0
H3239 H 0.68478 0.78046 0.69018 0.0
C3240 C 0.42229 0.34821 0.23812 0.0
C3241 C 0.43251 0.36885 0.25551 0.0
C3242 C 0.42074 0.33995 0.29591 0.0
C3243 C 0.41598 0.31771 0.27814 0.0
N3244 N 0.41393 0.30017 0.23186 0.0
N3245 N 0.44238 0.3838 0.30156 0.0
C3246 C 0.41711 0.3217 0.24906 0.0
C3247 C 0.43181 0.36461 0.28464 0.0
N3248 N 0.41619 0.35418 0.21165 0.0
N3249 N 0.4144 0.33744 0.32364 0.0
H3250 H 0.45037 0.40224 0.29421 0.0
H3251 H 0.44507 0.38061 0.32257 0.0
H3252 H 0.40579 0.31975 0.33226 0.0
H3253 H 0.41519 0.35351 0.33747 0.0
H3254 H 0.40688 0.34045 0.19867 0.0
H3255 H 0.41767 0.37377 0.20394 0.0
H3256 H 0.41754 0.30138 0.21044 0.0
H3257 H 0.40912 0.2808 0.23936 0.0
C3258 C 0.73465 0.60413 0.78771 0.0
C3259 C 0.71317 0.6223 0.78548 0.0
C3260 C 0.74802 0.65572 0.76932 0.0
C3261 C 0.76666 0.63553 0.76291 0.0
N3262 N 0.7744 0.58753 0.76521 0.0
N3263 N 0.70243 0.66696 0.76809 0.0
C3264 C 0.75902 0.60881 0.77167 0.0
C3265 C 0.72062 0.64852 0.77444 0.0
N3266 N 0.73332 0.5835 0.80655 0.0
N3267 N 0.75644 0.68203 0.77129 0.0
H3268 H 0.68217 0.66352 0.76898 0.0
H3269 H 0.70791 0.68519 0.75832 0.0
H3270 H 0.77647 0.68782 0.7701 0.0
H3271 H 0.74386 0.69721 0.77788 0.0
H3272 H 0.74915 0.57102 0.80932 0.0
H3273 H 0.71925 0.58189 0.82287 0.0
H3274 H 0.76768 0.56763 0.76852 0.0
H3275 H 0.79301 0.58936 0.75546 0.0
C3276 C 0.7918 0.53253 0.67459 0.0
C3277 C 0.78962 0.52411 0.64664 0.0
C3278 C 0.80818 0.56902 0.63107 0.0
C3279 C 0.80754 0.5784 0.65893 0.0
N3280 N 0.80846 0.56545 0.70704 0.0
N3281 N 0.79766 0.5335 0.59807 0.0
C3282 C 0.80218 0.55903 0.6806 0.0
C3283 C 0.79905 0.542 0.62492 0.0
N3284 N 0.78228 0.51591 0.69561 0.0
N3285 N 0.81801 0.58576 0.6104 0.0
H3286 H 0.79299 0.5135 0.59305 0.0
H3287 H 0.80036 0.5461 0.58085 0.0
H3288 H 0.82206 0.60617 0.6135 0.0
H3289 H 0.82387 0.57905 0.59073 0.0
H3290 H 0.77955 0.52212 0.71612 0.0
H3291 H 0.77546 0.49621 0.69237 0.0
H3292 H 0.80849 0.55146 0.72313 0.0
H3293 H 0.81641 0.5842 0.71231 0.0
C3294 C 0.28937 0.49104 0.40742 0.0
C3295 C 0.29808 0.51259 0.39003 0.0
C3296 C 0.29687 0.48149 0.35035 0.0
C3297 C 0.2946 0.45962 0.36951 0.0
N3298 N 0.29526 0.44428 0.41687 0.0
N3299 N 0.30298 0.52997 0.34332 0.0
C3300 C 0.29322 0.46472 0.39825 0.0
C3301 C 0.29984 0.50839 0.36081 0.0
N3302 N 0.27691 0.49576 0.43248 0.0
N3303 N 0.29501 0.47658 0.32265 0.0
H3304 H 0.29999 0.54961 0.35012 0.0
H3305 H 0.30745 0.52845 0.32214 0.0
H3306 H 0.29346 0.45713 0.31464 0.0
H3307 H 0.29412 0.49157 0.30767 0.0
H3308 H 0.26781 0.48023 0.44438 0.0
H3309 H 0.27276 0.51525 0.43908 0.0
H3310 H 0.29636 0.44786 0.43807 0.0
H3311 H 0.29866 0.4245 0.41068 0.0
C3312 C 0.17404 1.02474 0.37582 0.0
C3313 C 0.18419 1.00282 0.38989 0.0
C3314 C 0.17904 1.02475 0.43349 0.0
C3315 C 0.17179 0.04821 0.42019 0.0
N3316 N 0.16214 0.07151 0.37782 0.0
N3317 N 0.20561 0.9857 0.42919 0.0
C3318 C 0.16964 0.04875 0.39082 0.0
C3319 C 0.19131 1.0051 0.41746 0.0
N3320 N 0.16697 1.02164 0.34904 0.0
N3321 N 0.17045 1.01911 0.45997 0.0
H3322 H 0.21378 0.97019 0.41734 0.0
H3323 H 0.2107 0.98659 0.44984 0.0
H3324 H 0.15807 0.03158 0.4715 0.0
H3325 H 0.17163 0.99976 0.46799 0.0
H3326 H 0.15659 0.03581 0.33839 0.0
H3327 H 0.17096 1.00406 0.33797 0.0
H3328 H 0.1628 0.07376 0.35633 0.0
H3329 H 0.15561 0.08833 0.38872 0.0
C3330 C 0.07418 0.43566 0.63392 0.0
C3331 C 0.09375 0.43912 0.65336 0.0
C3332 C 0.06475 0.46633 0.68231 0.0
C3333 C 1.04348 0.45399 0.66856 0.0
N3334 N 1.02711 0.4324 0.62744 0.0
N3335 N 0.11238 0.46719 0.68806 0.0
C3336 C 0.04788 0.44096 0.64263 0.0
C3337 C 0.09068 0.45862 0.67439 0.0
N3338 N 0.08087 0.42638 0.60806 0.0
N3339 N 0.05984 0.48419 0.70327 0.0
H3340 H 0.13122 0.46098 0.68172 0.0
H3341 H 0.11191 0.48024 0.70491 0.0
H3342 H 1.04073 0.49017 0.70867 0.0
H3343 H 0.07446 0.49386 0.71441 0.0
H3344 H 0.1006 0.42338 0.60192 0.0
H3345 H 0.06761 0.42441 0.59226 0.0
H3346 H 1.02918 0.42052 0.60977 0.0
H3347 H 1.00755 0.43661 0.63296 0.0
C3348 C 0.66577 0.31632 0.89369 0.0
C3349 C 0.65765 0.33766 0.91082 0.0
C3350 C 0.64826 0.30801 0.94969 0.0
C3351 C 0.66383 0.28859 0.93548 0.0
N3352 N 0.6777 0.2693 0.89141 0.0
N3353 N 0.62432 0.34928 0.9449 0.0
C3354 C 0.6691 0.29093 0.90633 0.0
C3355 C 0.64228 0.33146 0.93504 0.0
N3356 N 0.67242 0.32153 0.86647 0.0
N3357 N 0.64147 0.30556 0.97729 0.0
H3358 H 0.62101 0.36692 0.93391 0.0
H3359 H 0.61153 0.34534 0.96208 0.0
H3360 H 0.64615 0.28907 0.98913 0.0
H3361 H 0.63261 0.32083 0.9888 0.0
H3362 H 0.68007 0.3075 0.85255 0.0
H3363 H 0.66974 0.34061 0.85805 0.0
H3364 H 0.68204 0.26968 0.87014 0.0
H3365 H 0.67913 0.25028 0.90037 0.0
C3366 C 0.81973 0.91029 0.11691 0.0
C3367 C 0.81325 0.93605 0.10706 0.0
C3368 C 0.8597 0.94885 0.10141 0.0
C3369 C 0.86379 0.92848 0.12088 0.0
N3370 N 0.85549 0.88152 0.12931 0.0
N3371 N 0.82717 0.97297 0.07641 0.0
C3372 C 0.84651 0.90585 0.1217 0.0
C3373 C 0.83333 0.95301 0.09417 0.0
N3374 N 0.80023 0.89135 0.12317 0.0
N3375 N 0.88043 0.96568 0.09333 0.0
H3376 H 0.80811 0.97497 0.06962 0.0
H3377 H 0.84109 0.98622 0.06682 0.0
H3378 H 0.89941 0.96225 0.09994 0.0
H3379 H 0.87901 0.98233 0.08044 0.0
H3380 H 0.80353 0.87306 0.13279 0.0
H3381 H 0.78058 0.89441 0.11864 0.0
H3382 H 0.84386 0.8638 0.12975 0.0
H3383 H 0.87541 0.87934 0.13335 0.0
C3384 C 0.09175 0.2328 0.9075 0.0
C3385 C 0.1136 0.2197 0.89623 0.0
C3386 C 0.13809 0.26036 0.88612 0.0
C3387 C 0.11335 0.27282 0.88742 0.0
N3388 N 0.07195 0.27584 0.91515 0.0
N3389 N 0.16064 0.21993 0.89877 0.0
C3390 C 0.09176 0.26088 0.90377 0.0
C3391 C 0.13817 0.23352 0.89528 0.0
N3392 N 0.07009 0.2179 0.91686 0.0
N3393 N 0.16045 0.27345 0.87555 0.0
H3394 H 0.15964 0.19943 0.90384 0.0
H3395 H 0.17937 0.22933 0.89847 0.0
H3396 H 0.16064 0.29354 0.86912 0.0
H3397 H 0.1784 0.26401 0.87242 0.0
H3398 H 0.05193 0.22603 0.92244 0.0
H3399 H 0.07074 0.1969 0.91795 0.0
H3400 H 0.05671 0.26774 0.92815 0.0
H3401 H 0.07177 0.29669 0.91336 0.0
C3402 C 0.83034 0.40014 0.20324 0.0
C3403 C 0.83788 0.41797 0.18152 0.0
C3404 C 0.79296 0.42819 0.17407 0.0
C3405 C 0.78593 0.403 0.18708 0.0
N3406 N 0.79521 0.36954 0.2214 0.0
N3407 N 0.82867 0.46169 0.16495 0.0
C3408 C 0.80363 0.39073 0.20485 0.0
C3409 C 0.81971 0.43709 0.17446 0.0
N3410 N 0.84935 0.38997 0.21888 0.0
N3411 N 0.7753 0.44182 0.15929 0.0
H3412 H 0.84891 0.46671 0.16406 0.0
H3413 H 0.81621 0.47713 0.16015 0.0
H3414 H 0.75556 0.43561 0.15798 0.0
H3415 H 0.78062 0.45877 0.1473 0.0
H3416 H 0.84546 0.37665 0.23536 0.0
H3417 H 0.86912 0.39642 0.2156 0.0
H3418 H 0.80768 0.35861 0.23336 0.0
H3419 H 0.77537 0.36304 0.22304 0.0
C3420 C 0.65399 0.97751 0.33585 0.0
C3421 C 0.65888 1.00258 0.34895 0.0
C3422 C 0.69461 0.98294 0.37456 0.0
C3423 C 0.6898 0.95794 0.36143 0.0
N3424 N 0.66089 0.92928 0.33533 0.0
N3425 N 0.6778 1.02635 0.38736 0.0
C3426 C 0.66815 0.95458 0.34386 0.0
C3427 C 0.67727 1.0044 0.37041 0.0
N3428 N 0.63614 0.97571 0.31549 0.0
N3429 N 0.71647 0.98669 0.3899 0.0
H3430 H 0.66491 0.04207 0.38571 0.0
H3431 H 0.68877 1.02737 0.40508 0.0
H3432 H 0.72919 0.97123 0.39403 0.0
H3433 H 0.72295 1.00551 0.39691 0.0
H3434 H 0.63383 0.95889 0.30286 0.0
H3435 H 0.62471 0.99185 0.31009 0.0
H3436 H 0.64372 0.92493 0.32491 0.0
H3437 H 0.6708 0.91219 0.34108 0.0
C3438 C 0.05524 0.89285 0.55985 0.0
C3439 C 1.03692 0.89873 0.58171 0.0
C3440 C 0.06149 0.87151 0.61301 0.0
C3441 C 0.08044 0.86854 0.59148 0.0
N3442 N 0.09051 0.86534 0.54286 0.0
N3443 N 1.02996 0.90262 0.63161 0.0
C3444 C 0.07403 0.87345 0.56406 0.0
C3445 C 1.04168 0.89019 0.60924 0.0
N3446 N 0.0592 0.90944 0.53768 0.0
N3447 N 0.06471 0.85916 0.63777 0.0
H3448 H 1.01901 0.91988 0.62949 0.0
H3449 H 1.03419 0.8983 0.65204 0.0
H3450 H 0.08054 0.84657 0.64035 0.0
H3451 H 0.05074 0.8597 0.6543 0.0
H3452 H 0.04997 0.92782 0.53615 0.0
H3453 H 0.04997 0.92782 0.53615 0.0
H3454 H 0.08769 0.87058 0.52228 0.0
H3455 H 0.10621 0.85286 0.54649 0.0
C3456 C 0.43384 0.16239 0.03913 0.0
C3457 C 0.44602 0.14202 0.05435 0.0
C3458 C 0.43061 0.1087 0.02056 0.0
C3459 C 0.42247 0.12892 1.00263 0.0
N3460 N 0.41831 0.1763 0.99422 0.0
N3461 N 0.46436 0.09786 0.05156 0.0
C3462 C 0.42458 0.15626 1.01184 0.0
C3463 C 0.44674 0.11576 0.04272 0.0
N3464 N 0.43096 0.18723 0.05061 0.0
N3465 N 0.42387 0.08244 1.01582 0.0
H3466 H 0.47864 0.10351 0.06541 0.0
H3467 H 0.4671 0.07916 0.04223 0.0
H3468 H 0.41068 0.07716 1.00075 0.0
H3469 H 0.42856 0.06685 0.02903 0.0
H3470 H 0.42026 0.20225 0.04165 0.0
H3471 H 0.43808 0.19207 0.07001 0.0
H3472 H 0.42184 0.19667 0.99826 0.0
H3473 H 0.41046 0.17209 0.97499 0.0
C3474 C 0.94223 0.66504 0.21189 0.0
C3475 C 0.93905 0.68377 0.19052 0.0
C3476 C 0.91532 0.71343 0.2231 0.0
C3477 C 0.92351 0.69742 0.24533 0.0
N3478 N 0.94497 0.65775 0.26118 0.0
N3479 N 0.91501 0.72015 0.17297 0.0
C3480 C 0.93648 0.67279 0.23981 0.0
C3481 C 0.92296 0.7062 0.19535 0.0
N3482 N 0.95034 0.63981 0.20536 0.0
N3483 N 0.90097 0.73576 0.22868 0.0
H3484 H 0.92037 0.71445 0.1527 0.0
H3485 H 0.90179 0.73571 0.17409 0.0
H3486 H 0.89421 0.74072 0.2487 0.0
H3487 H 0.89592 0.74962 0.21383 0.0
H3488 H 0.95082 0.62422 0.21976 0.0
H3489 H 0.95399 0.6338 0.18489 0.0
H3490 H 0.95707 0.64134 0.25839 0.0
H3491 H 0.94167 0.66284 0.28193 0.0
C3492 C 0.39065 0.14532 0.50449 0.0
C3493 C 0.40863 0.16543 0.49389 0.0
C3494 C 0.42748 0.17243 0.5381 0.0
C3495 C 0.40545 0.15746 0.54973 0.0
N3496 N 0.37469 0.11993 0.54534 0.0
N3497 N 0.45377 0.18193 0.49587 0.0
C3498 C 0.38996 0.14026 0.53327 0.0
C3499 C 0.43067 0.17326 0.50908 0.0
N3500 N 0.37354 0.1328 0.48727 0.0
N3501 N 0.44382 0.18731 0.55435 0.0
H3502 H 0.45652 0.18078 0.47433 0.0
H3503 H 0.47083 0.1868 0.50634 0.0
H3504 H 0.44202 0.18706 0.57596 0.0
H3505 H 0.45832 0.20088 0.5462 0.0
H3506 H 0.35819 0.11959 0.49404 0.0
H3507 H 0.37519 0.13602 0.46585 0.0
H3508 H 0.36426 0.10555 0.53412 0.0
H3509 H 0.37441 0.11633 0.56669 0.0
C3510 C 0.84777 0.62072 0.81847 0.0
C3511 C 0.85955 0.64292 0.80384 0.0
C3512 C 0.88102 0.65712 0.84646 0.0
C3513 C 0.87232 0.63238 0.85913 0.0
N3514 N 0.85538 0.58696 0.85213 0.0
N3515 N 0.89022 0.68133 0.80305 0.0
C3516 C 0.8581 0.61309 0.8436 0.0
C3517 C 0.87687 0.66116 0.81759 0.0
N3518 N 0.82652 0.60689 0.80843 0.0
N3519 N 0.89306 0.67657 0.86188 0.0
H3520 H 0.88769 0.68483 0.78206 0.0
H3521 H 0.90506 0.69343 0.81139 0.0
H3522 H 0.89703 0.67358 0.88268 0.0
H3523 H 0.89756 0.69599 0.85451 0.0
H3524 H 0.81629 0.59138 0.81941 0.0
H3525 H 0.81732 0.61323 0.79082 0.0
H3526 H 0.84705 0.5718 0.84002 0.0
H3527 H 0.86416 0.58015 0.86969 0.0
C3528 C 0.46729 0.19651 0.21774 0.0
C3529 C 0.45075 0.18603 0.19701 0.0
C3530 C 0.41208 0.19125 0.22856 0.0
C3531 C 0.4291 0.2005 0.2495 0.0
N3532 N 0.47366 0.20221 0.26616 0.0
N3533 N 0.40831 0.16846 0.18417 0.0
C3534 C 0.45688 0.19993 0.24484 0.0
C3535 C 0.42341 0.18138 0.20309 0.0
N3536 N 0.49267 0.20528 0.21123 0.0
N3537 N 0.38534 0.19347 0.23225 0.0
H3538 H 0.41638 0.16152 0.16531 0.0
H3539 H 0.38859 0.16252 0.18818 0.0
H3540 H 0.37644 0.20172 0.25006 0.0
H3541 H 0.37214 0.1894 0.21675 0.0
H3542 H 0.50423 0.21628 0.22486 0.0
H3543 H 0.50147 0.20353 0.19156 0.0
H3544 H 0.49378 0.19848 0.26379 0.0
H3545 H 0.46742 0.20511 0.28663 0.0
C3546 C 0.88849 0.63473 0.49824 0.0
C3547 C 0.9079 0.65234 0.48568 0.0
C3548 C 0.92948 0.65929 0.52845 0.0
C3549 C 0.90656 0.64747 0.54196 0.0
N3550 N 0.8726 0.61246 0.54094 0.0
N3551 N 0.9544 0.66392 0.4845 0.0
C3552 C 0.88876 0.63105 0.52721 0.0
C3553 C 0.93135 0.65822 0.49934 0.0
N3554 N 0.86924 0.62347 0.48269 0.0
N3555 N 0.94809 0.67308 0.54293 0.0
H3556 H 0.95557 0.66215 0.4629 0.0
H3557 H 0.97242 0.66732 0.49371 0.0
H3558 H 0.94725 0.67424 0.56452 0.0
H3559 H 0.96362 0.68442 0.53331 0.0
H3560 H 0.85276 0.61268 0.49103 0.0
H3561 H 0.87011 0.62554 0.46111 0.0
H3562 H 0.85978 0.59915 0.53109 0.0
H3563 H 0.8739 0.60905 0.5622 0.0
C3564 C 0.36577 0.14944 0.82712 0.0
C3565 C 0.3499 0.13155 0.81117 0.0
C3566 C 0.35055 0.09776 0.84802 0.0
C3567 C 0.36467 0.11611 0.86514 0.0
N3568 N 0.38068 0.16155 0.87284 0.0
N3569 N 0.32106 0.09206 0.81023 0.0
C3570 C 0.37064 0.14268 0.85528 0.0
C3571 C 0.34009 0.10698 0.82314 0.0
N3572 N 0.37772 0.17189 0.81512 0.0
N3573 N 0.3487 0.07098 0.85428 0.0
H3574 H 0.31118 0.09945 0.79345 0.0
H3575 H 0.31315 0.07368 0.81767 0.0
H3576 H 0.35727 0.06299 0.87132 0.0
H3577 H 0.34157 0.05627 0.84091 0.0
H3578 H 0.39189 0.18376 0.82484 0.0
H3579 H 0.37519 0.17759 0.79469 0.0
H3580 H 0.38304 0.18191 0.8677 0.0
H3581 H 0.38421 0.15727 0.89349 0.0
C3582 C 0.91686 0.64984 0.0429 0.0
C3583 C 0.94268 0.64419 0.05171 0.0
C3584 C 0.95116 0.6203 1.00776 0.0
C3585 C 0.92658 0.62807 0.99745 0.0
N3586 N 0.88693 0.65268 1.00461 0.0
N3587 N 0.98561 0.62645 0.04026 0.0
C3588 C 0.90959 0.64351 1.01494 0.0
C3589 C 0.96013 0.63035 0.03333 0.0
N3590 N 0.89924 0.661 0.06139 0.0
N3591 N 0.96581 0.60214 0.99327 0.0
H3592 H 0.99294 0.63156 0.05933 0.0
H3593 H 1.0003 0.61988 0.02635 0.0
H3594 H 0.95997 0.59445 0.97454 0.0
H3595 H 0.98148 0.59209 1.00134 0.0
H3596 H 0.87936 0.66322 0.05759 0.0
H3597 H 0.90443 0.6669 0.08123 0.0
H3598 H 0.87481 0.66627 1.01499 0.0
H3599 H 0.88104 0.64753 0.9848 0.0
C3600 C 0.05359 0.41949 0.0419 0.0
C3601 C 1.03429 0.40326 0.05665 0.0
C3602 C 0.06647 0.369 0.06436 0.0
C3603 C 0.08554 0.38799 0.05437 0.0
N3604 N 0.09685 0.41956 1.01797 0.0
N3605 N 1.01993 0.35855 0.07308 0.0
C3606 C 0.0784 0.40849 0.03643 0.0
C3607 C 1.03982 0.37638 0.06477 0.0
N3608 N 0.04913 0.44565 0.03549 0.0
N3609 N 0.07432 0.34517 0.07479 0.0
H3610 H 1.00017 0.36341 0.0733 0.0
H3611 H 1.02273 0.33846 0.0779 0.0
H3612 H 0.0941 0.33983 0.0728 0.0
H3613 H 0.06175 0.33108 0.0851 0.0
H3614 H 0.06311 0.45817 0.02509 0.0
H3615 H 1.03203 0.45542 0.04194 0.0
H3616 H 0.09396 0.43664 1.00621 0.0
H3617 H 0.11494 0.41042 1.01403 0.0
C3618 C 0.58302 0.43722 0.15396 0.0
C3619 C 0.60167 0.43645 0.17446 0.0
C3620 C 0.5731 0.46031 0.20695 0.0
C3621 C 0.55203 0.4531 0.18991 0.0
N3622 N 0.53689 0.44133 0.14436 0.0
N3623 N 0.62065 0.45947 0.21254 0.0
C3624 C 0.55702 0.44428 0.16212 0.0
C3625 C 0.59884 0.45298 0.19806 0.0
N3626 N 0.59037 0.43082 0.1273 0.0
N3627 N 0.56818 0.47267 0.23183 0.0
H3628 H 0.63934 0.45329 0.20561 0.0
H3629 H 0.62055 0.47193 0.22986 0.0
H3630 H 0.54941 0.47909 0.23801 0.0
H3631 H 0.5824 0.47632 0.24637 0.0
H3632 H 0.57802 0.43199 0.11071 0.0
H3633 H 0.61001 0.42687 0.12164 0.0
H3634 H 0.53881 0.432 0.12511 0.0
H3635 H 0.51796 0.44804 0.149 0.0
C3636 C 0.65987 0.82984 0.42029 0.0
C3637 C 0.68387 0.84369 0.42604 0.0
C3638 C 0.68942 0.81492 0.4651 0.0
C3639 C 0.67064 0.7967 0.455 0.0
N3640 N 0.63571 0.7867 0.4239 0.0
N3641 N 0.72584 0.84154 0.44814 0.0
C3642 C 0.65455 0.80429 0.43319 0.0
C3643 C 0.69973 0.8345 0.44714 0.0
N3644 N 0.64309 0.84046 0.40221 0.0
N3645 N 0.70041 0.81102 0.48987 0.0
H3646 H 0.73583 0.85368 0.43349 0.0
H3647 H 0.73835 0.83164 0.46105 0.0
H3648 H 0.69498 0.79451 0.50204 0.0
H3649 H 0.71335 0.82516 0.49852 0.0
H3650 H 0.62443 0.83196 0.39878 0.0
H3651 H 0.64741 0.85873 0.39197 0.0
H3652 H 0.62531 0.7901 0.40616 0.0
H3653 H 0.63117 0.7683 0.43374 0.0
C3654 C 0.31899 0.99562 0.6018 0.0
C3655 C 0.3123 0.96784 0.60111 0.0
C3656 C 0.35636 0.95795 0.61256 0.0
C3657 C 0.35658 0.98293 0.6265 0.0
N3658 N 0.34653 0.02977 0.62361 0.0
N3659 N 0.32655 0.92245 0.59695 0.0
C3660 C 0.34117 1.00363 0.61674 0.0
C3661 C 0.33207 0.94888 0.60246 0.0
N3662 N 0.3035 1.01355 0.58948 0.0
N3663 N 0.37793 0.94234 0.61251 0.0
H3664 H 0.30827 0.91621 0.58954 0.0
H3665 H 0.33969 0.9072 0.60027 0.0
H3666 H 0.39539 0.94937 0.62119 0.0
H3667 H 0.37889 0.92393 0.60222 0.0
H3668 H 0.30817 0.03411 0.58821 0.0
H3669 H 0.28721 1.00697 0.57848 0.0
H3670 H 0.33411 0.04545 0.6195 0.0
H3671 H 0.36388 0.03538 0.63331 0.0
C3672 C 0.66714 0.51808 0.40068 0.0
C3673 C 0.67982 0.49715 0.41359 0.0
C3674 C 0.69509 0.5267 0.44951 0.0
C3675 C 0.67828 0.54641 0.43967 0.0
N3676 N 0.64499 0.5596 0.40801 0.0
N3677 N 0.70823 0.48076 0.44819 0.0
C3678 C 0.66362 0.54198 0.41552 0.0
C3679 C 0.69464 0.50126 0.43727 0.0
N3680 N 0.65796 0.51467 0.37468 0.0
N3681 N 0.71188 0.5316 0.47022 0.0
H3682 H 0.70902 0.46177 0.43898 0.0
H3683 H 0.71881 0.48305 0.46617 0.0
H3684 H 0.71424 0.55029 0.47971 0.0
H3685 H 0.71424 0.55029 0.47971 0.0
H3686 H 0.65028 0.53018 0.3633 0.0
H3687 H 0.66051 0.49687 0.36353 0.0
H3688 H 0.63208 0.55576 0.39218 0.0
H3689 H 0.64022 0.57661 0.41953 0.0
C3690 C 0.29433 0.92392 0.18122 0.0
C3691 C 0.28388 0.89856 0.19096 0.0
C3692 C 0.3278 0.88433 0.20051 0.0
C3693 C 0.33719 0.90472 0.18196 0.0
N3694 N 0.33444 0.95166 0.17224 0.0
N3695 N 0.28885 0.8589 0.21865 0.0
C3696 C 0.32211 0.92761 0.17906 0.0
C3697 C 0.30009 0.88042 0.20436 0.0
N3698 N 0.27816 0.94295 0.17166 0.0
N3699 N 0.3454 0.86751 0.21132 0.0
H3700 H 0.26834 0.85638 0.22157 0.0
H3701 H 0.29956 0.84409 0.2279 0.0
H3702 H 0.36571 0.87072 0.20722 0.0
H3703 H 0.34019 0.85163 0.22479 0.0
H3704 H 0.28517 0.96045 0.16146 0.0
H3705 H 0.25762 0.94094 0.17345 0.0
H3706 H 0.32456 0.96964 0.17082 0.0
H3707 H 0.35507 0.95349 0.17048 0.0
C3708 C 0.96541 1.00543 0.63885 0.0
C3709 C 0.95537 1.02515 0.62074 0.0
C3710 C 0.92799 0.9878 0.60086 0.0
C3711 C 0.94192 0.96773 0.61491 0.0
N3712 N 0.97598 0.95842 0.6461 0.0
N3713 N 0.92616 0.03415 0.58417 0.0
C3714 C 0.961 0.97694 0.63382 0.0
C3715 C 0.93627 1.01596 0.60174 0.0
N3716 N 0.97891 1.01381 0.66126 0.0
N3717 N 0.90667 0.97956 0.58636 0.0
H3718 H 0.93128 0.05467 0.58453 0.0
H3719 H 0.91415 0.02878 0.568 0.0
H3720 H 0.90013 0.9594 0.58616 0.0
H3721 H 0.89409 0.99262 0.57702 0.0
H3722 H 0.98492 1.00069 0.67642 0.0
H3723 H 0.98182 0.03411 0.66606 0.0
H3724 H 0.99265 0.96361 0.65707 0.0
H3725 H 0.97229 0.93773 0.64391 0.0
C3726 C 1.00228 0.6762 0.37679 0.0
C3727 C 0.98228 0.671 0.35702 0.0
C3728 C 1.01957 0.6459 0.32994 0.0
C3729 C 1.04045 0.65387 0.34781 0.0
N3730 N 0.04885 0.67851 0.3896 0.0
N3731 N 0.97239 0.63938 0.32104 0.0
C3732 C 1.03065 0.66947 0.37156 0.0
C3733 C 0.99142 0.6527 0.33535 0.0
N3734 N 0.99376 0.6851 0.40216 0.0
N3735 N 1.02671 0.63247 0.30641 0.0
H3736 H 0.95227 0.6414 0.32593 0.0
H3737 H 0.9762 0.62377 0.3072 0.0
H3738 H 0.04583 0.62575 0.30286 0.0
H3739 H 1.01422 0.62959 0.29006 0.0
H3740 H 1.00577 0.68706 0.41903 0.0
H3741 H 0.97362 0.68687 0.40712 0.0
H3742 H 1.04498 0.69301 0.40468 0.0
H3743 H 0.06825 0.67207 0.3886 0.0
C3744 C 0.39453 0.77034 0.1602 0.0
C3745 C 0.3957 0.74931 0.13963 0.0
C3746 C 0.41022 0.78785 0.1059 0.0
C3747 C 0.40567 0.8091 0.12517 0.0
N3748 N 0.38967 0.81837 0.17178 0.0
N3749 N 0.39502 0.74432 0.08947 0.0
C3750 C 0.3966 0.79949 0.15258 0.0
C3751 C 0.40113 0.75998 0.11164 0.0
N3752 N 0.39219 0.76277 0.18735 0.0
N3753 N 0.42317 0.79413 0.08125 0.0
H3754 H 0.38397 0.72636 0.0915 0.0
H3755 H 0.39685 0.75122 0.06904 0.0
H3756 H 0.43021 0.81369 0.07659 0.0
H3757 H 0.42938 0.77951 0.06713 0.0
H3758 H 0.39365 0.77631 0.20371 0.0
H3759 H 0.39081 0.74254 0.19327 0.0
H3760 H 0.38001 0.81361 0.19077 0.0
H3761 H 0.3925 0.83896 0.16784 0.0
C3762 C 0.24349 0.09296 0.86396 0.0
C3763 C 0.25029 0.10203 0.89085 0.0
C3764 C 0.20245 0.11743 0.89498 0.0
C3765 C 0.19498 0.10378 0.87013 0.0
N3766 N 0.2108 0.069 0.83832 0.0
N3767 N 0.23343 0.12322 0.93259 0.0
C3768 C 0.2162 0.08901 0.85675 0.0
C3769 C 0.22879 0.1143 0.9065 0.0
N3770 N 0.26297 0.08748 0.84464 0.0
N3771 N 0.18428 0.13331 0.90793 0.0
H3772 H 0.25213 0.12305 0.94074 0.0
H3773 H 0.2186 0.12954 0.9465 0.0
H3774 H 0.16543 0.13537 0.90046 0.0
H3775 H 0.18851 0.14593 0.92447 0.0
H3776 H 0.25914 0.08337 0.82397 0.0
H3777 H 0.28284 0.09008 0.84847 0.0
H3778 H 0.22529 0.05652 0.82999 0.0
H3779 H 0.19193 0.06176 0.83467 0.0
C3780 C 0.96512 0.83346 0.1314 0.0
C3781 C 0.95394 0.81177 0.1484 0.0
C3782 C 0.93054 0.849 0.17573 0.0
C3783 C 0.94705 0.87008 0.16313 0.0
N3784 N 0.97873 0.88087 0.12588 0.0
N3785 N 0.91963 0.80096 0.18336 0.0
C3786 C 0.96392 0.86159 0.14019 0.0
C3787 C 0.93474 0.82034 0.16951 0.0
N3788 N 0.9748 0.82778 0.1053 0.0
N3789 N 0.91047 0.85636 0.19365 0.0
H3790 H 0.91807 0.78122 0.17631 0.0
H3791 H 0.90824 0.80431 0.20142 0.0
H3792 H 0.90695 0.87645 0.19802 0.0
H3793 H 0.89613 0.84315 0.20255 0.0
H3794 H 0.98123 0.84248 0.09089 0.0
H3795 H 0.9728 0.8088 0.09648 0.0
H3796 H 0.9945 0.8765 0.11218 0.0
H3797 H 0.97535 0.90135 0.12829 0.0
C3798 C 0.30056 0.71165 0.89514 0.0
C3799 C 0.32005 0.69597 0.90803 0.0
C3800 C 0.28035 0.67375 0.93561 0.0
C3801 C 0.26141 0.69199 0.92564 0.0
N3802 N 0.25506 0.72783 0.89351 0.0
N3803 N 0.32633 0.6609 0.94113 0.0
C3804 C 0.27222 0.71064 0.90463 0.0
C3805 C 0.309 0.67668 0.92829 0.0
N3806 N 0.30927 0.7278 0.87348 0.0
N3807 N 0.27081 0.65288 0.95199 0.0
H3808 H 0.34624 0.66033 0.93467 0.0
H3809 H 0.32138 0.64908 0.95854 0.0
H3810 H 0.25073 0.65017 0.95727 0.0
H3811 H 0.28211 0.63712 0.9584 0.0
H3812 H 0.29708 0.73881 0.86132 0.0
H3813 H 0.32906 0.7287 0.86643 0.0
H3814 H 0.26066 0.74378 0.88032 0.0
H3815 H 0.23477 0.72654 0.89836 0.0
C3816 C 0.40251 0.03953 0.71256 0.0
C3817 C 0.41534 0.02851 0.6884 0.0
C3818 C 0.40454 0.07219 0.66471 0.0
C3819 C 0.39484 0.08404 0.69019 0.0
N3820 N 0.39491 0.07959 0.7399 0.0
N3821 N 0.43047 0.03734 0.64118 0.0
C3822 C 0.39711 0.06782 0.71445 0.0
C3823 C 0.41695 0.0459 0.66446 0.0
N3824 N 0.3928 1.02267 0.73305 0.0
N3825 N 0.40088 0.08522 0.64038 0.0
H3826 H 0.43925 1.01864 0.64016 0.0
H3827 H 0.43485 0.04957 0.62392 0.0
H3828 H 0.39248 0.10401 0.63964 0.0
H3829 H 0.40435 0.07656 0.62096 0.0
H3830 H 0.38108 0.02925 0.74989 0.0
H3831 H 0.39358 1.00189 0.73107 0.0
H3832 H 0.39757 0.06908 0.75824 0.0
H3833 H 0.3942 0.10044 0.74211 0.0
C3834 C 0.07897 0.11862 0.45585 0.0
C3835 C 0.09447 0.13705 0.43794 0.0
C3836 C 0.05424 0.13496 0.40899 0.0
C3837 C 1.03779 0.12096 0.43021 0.0
N3838 N 1.03618 0.11002 0.47901 0.0
N3839 N 0.09304 0.16456 0.39722 0.0
C3840 C 0.05059 0.11673 0.4554 0.0
C3841 C 0.08064 0.1461 0.4147 0.0
N3842 N 0.09089 0.09931 0.47025 0.0
N3843 N 0.04593 0.13587 0.38252 0.0
H3844 H 0.11208 0.17226 0.40052 0.0
H3845 H 0.08352 0.17387 0.38127 0.0
H3846 H 1.02895 0.12559 0.37632 0.0
H3847 H 0.05771 0.14367 0.36594 0.0
H3848 H 0.08037 0.08594 0.48372 0.0
H3849 H 0.10955 0.09293 0.46402 0.0
H3850 H 1.04498 0.10757 0.49796 0.0
H3851 H 1.01566 0.11059 0.48012 0.0
C3852 C 0.69471 0.8876 1.01471 0.0
C3853 C 0.67931 0.90558 0.03153 0.0
C3854 C 0.6624 0.92337 0.98851 0.0
C3855 C 0.67352 0.90286 0.97149 0.0
N3856 N 0.70061 0.864 0.9701 0.0
N3857 N 0.63689 0.92637 0.03087 0.0
C3858 C 0.6898 0.88439 0.98517 0.0
C3859 C 0.65989 0.91958 1.01753 0.0
N3860 N 0.71369 0.87351 0.02688 0.0
N3861 N 0.65452 0.947 0.97778 0.0
H3862 H 0.63061 0.91763 0.04975 0.0
H3863 H 0.62248 0.93684 0.02104 0.0
H3864 H 0.65862 0.95275 0.9573 0.0
H3865 H 0.64719 0.96229 0.99054 0.0
H3866 H 0.72703 0.8616 1.01586 0.0
H3867 H 0.71702 0.87532 0.04801 0.0
H3868 H 0.7109 0.84856 0.97883 0.0
H3869 H 0.69775 0.86187 0.94891 0.0
C3870 C 0.13186 0.35316 0.7669 0.0
C3871 C 0.15363 0.36469 0.74997 0.0
C3872 C 0.1754 0.37426 0.79502 0.0
C3873 C 0.15224 0.36564 0.81115 0.0
N3874 N 0.10548 0.35593 0.8096 0.0
N3875 N 0.19462 0.39109 0.75073 0.0
C3876 C 0.12981 0.35755 0.79623 0.0
C3877 C 0.1751 0.37643 0.76488 0.0
N3878 N 0.11293 0.33691 0.75564 0.0
N3879 N 0.19799 0.38019 0.80845 0.0
H3880 H 0.19474 0.39444 0.72945 0.0
H3881 H 0.20925 0.4023 0.76046 0.0
H3882 H 0.19868 0.37935 0.83002 0.0
H3883 H 0.21633 0.3837 0.79818 0.0
H3884 H 0.09905 0.32551 0.76771 0.0
H3885 H 0.11251 0.33214 0.73491 0.0
H3886 H 0.08795 0.35301 0.7993 0.0
H3887 H 0.10244 0.36177 0.83008 0.0
C3888 C 0.72884 0.92318 0.5455 0.0
C3889 C 0.71318 0.90655 0.52786 0.0
C3890 C 0.68815 0.89097 0.57081 0.0
C3891 C 0.70767 0.90154 0.58864 0.0
N3892 N 0.74457 0.93285 0.5919 0.0
N3893 N 0.6757 0.87541 0.52569 0.0
C3894 C 0.72744 0.91921 0.57549 0.0
C3895 C 0.69259 0.89037 0.5412 0.0
N3896 N 0.74476 0.94317 0.53368 0.0
N3897 N 0.66352 0.88435 0.581 0.0
H3898 H 0.67734 0.87475 0.50407 0.0
H3899 H 0.66049 0.86318 0.53476 0.0
H3900 H 0.65729 0.88804 0.60143 0.0
H3901 H 0.65729 0.88804 0.60143 0.0
H3902 H 0.75443 0.95806 0.54493 0.0
H3903 H 0.74713 0.94585 0.51226 0.0
H3904 H 0.76087 0.94434 0.58438 0.0
H3905 H 0.74224 0.9327 0.6135 0.0
C3906 C 0.2208 0.38667 0.22125 0.0
C3907 C 0.20523 0.40105 0.24133 0.0
C3908 C 0.18368 0.42199 0.20184 0.0
C3909 C 0.20388 0.41337 0.18259 0.0
N3910 N 0.24205 0.38639 0.17499 0.0
N3911 N 0.16737 0.42869 0.24911 0.0
C3912 C 0.22244 0.39525 0.19266 0.0
C3913 C 0.18552 0.41771 0.23105 0.0
N3914 N 0.23298 0.36396 0.22887 0.0
N3915 N 0.16204 0.43425 0.193 0.0
H3916 H 0.16676 0.42481 0.27039 0.0
H3917 H 0.15255 0.441 0.24252 0.0
H3918 H 0.15815 0.43649 0.17213 0.0
H3919 H 0.15815 0.43649 0.17213 0.0
H3920 H 0.24242 0.35132 0.21462 0.0
H3921 H 0.23103 0.356 0.24882 0.0
H3922 H 0.25807 0.37584 0.18163 0.0
H3923 H 0.24282 0.39085 0.15384 0.0
C3924 C 0.64821 0.89216 0.79851 0.0
C3925 C 0.65373 0.86851 0.81402 0.0
C3926 C 0.67648 0.8511 0.77091 0.0
C3927 C 0.67012 0.87448 0.75572 0.0
N3928 N 0.65774 0.92045 0.75772 0.0
N3929 N 0.67737 0.82737 0.8154 0.0
C3930 C 0.65875 0.89603 0.77063 0.0
C3931 C 0.6693 0.84861 0.80025 0.0
N3932 N 0.63088 0.91009 0.80933 0.0
N3933 N 0.68926 0.83113 0.75703 0.0
H3934 H 0.67262 0.82516 0.83656 0.0
H3935 H 0.69003 0.8128 0.80777 0.0
H3936 H 0.69654 0.83376 0.73667 0.0
H3937 H 0.69272 0.81233 0.76533 0.0
H3938 H 0.62347 0.92587 0.79813 0.0
H3939 H 0.62147 0.9072 0.8285 0.0
H3940 H 0.65211 0.93798 0.76789 0.0
H3941 H 0.6654 0.92362 0.73746 0.0
C3942 C 0.19743 0.4095 0.57363 0.0
C3943 C 0.2031 0.38364 0.58449 0.0
C3944 C 0.20769 0.36824 0.53584 0.0
C3945 C 0.20757 0.39441 0.52455 0.0
N3946 N 0.20601 0.44188 0.5358 0.0
N3947 N 0.22881 0.34488 0.57103 0.0
C3948 C 0.20315 0.41571 0.54432 0.0
C3949 C 0.21227 0.36456 0.56435 0.0
N3950 N 0.18743 0.42842 0.59124 0.0
N3951 N 0.20349 0.34658 0.51944 0.0
H3952 H 0.23983 0.34621 0.58859 0.0
H3953 H 0.23608 0.33126 0.55633 0.0
H3954 H 0.19525 0.34919 0.50036 0.0
H3955 H 0.20396 0.32688 0.52676 0.0
H3956 H 0.18076 0.4468 0.58442 0.0
H3957 H 0.18392 0.42462 0.6124 0.0
H3958 H 0.20538 0.45807 0.5495 0.0
H3959 H 0.21188 0.44731 0.51553 0.0
C3960 C 0.71747 0.88 0.22705 0.0
C3961 C 0.70178 0.89347 0.24745 0.0
C3962 C 0.68383 0.91993 0.21031 0.0
C3963 C 0.70444 0.912 0.19092 0.0
N3964 N 0.7402 0.88197 0.18149 0.0
N3965 N 0.66226 0.91888 0.25502 0.0
C3966 C 0.72089 0.89104 0.19945 0.0
C3967 C 0.68274 0.91091 0.23799 0.0
N3968 N 0.72698 0.85552 0.23318 0.0
N3969 N 0.66431 0.93628 0.20365 0.0
H3970 H 0.65858 0.91164 0.2752 0.0
H3971 H 0.65858 0.91164 0.2752 0.0
H3972 H 0.66224 0.94387 0.18398 0.0
H3973 H 0.66224 0.94387 0.18398 0.0
H3974 H 0.73605 0.84325 0.21832 0.0
H3975 H 0.72275 0.84616 0.2523 0.0
H3976 H 0.75437 0.8686 0.18732 0.0
H3977 H 0.74274 0.88884 0.16106 0.0
C3978 C 0.19563 0.41989 1.00509 0.0
C3979 C 0.18543 0.3996 0.0236 0.0
C3980 C 0.16574 0.37769 0.98124 0.0
C3981 C 0.1707 0.40148 0.96489 0.0
N3982 N 0.18609 0.44843 0.96679 0.0
N3983 N 0.16438 0.35497 0.0261 0.0
C3984 C 0.18461 0.42332 0.9784 0.0
C3985 C 0.17138 0.37734 1.01069 0.0
N3986 N 0.21702 0.43522 1.01222 0.0
N3987 N 0.15734 0.35469 0.96836 0.0
H3988 H 0.1738 0.35004 0.04407 0.0
H3989 H 0.14994 0.34085 0.02042 0.0
H3990 H 0.15409 0.35392 0.94721 0.0
H3991 H 0.15579 0.33586 0.97791 0.0
H3992 H 0.22686 0.44887 0.99856 0.0
H3993 H 0.22712 0.43113 0.03004 0.0
H3994 H 0.19609 0.46474 0.97558 0.0
H3995 H 0.17387 0.45405 0.95122 0.0
C3996 C 0.08107 0.65785 0.91593 0.0
C3997 C 0.0959 0.64881 0.93851 0.0
C3998 C 0.05281 0.62598 0.956 0.0
C3999 C 1.03911 0.63068 0.93133 0.0
N4000 N 0.04617 0.64714 0.88407 0.0
N4001 N 0.09446 0.60992 0.96886 0.0
C4002 C 0.05486 0.64587 0.91038 0.0
C4003 C 0.08131 0.6293 0.95599 0.0
N4004 N 0.09234 0.67731 0.89885 0.0
N4005 N 1.03926 0.61707 0.97939 0.0
H4006 H 0.11277 0.60423 0.96063 0.0
H4007 H 0.08516 0.59595 0.98255 0.0
H4008 H 1.01876 0.6151 0.98057 0.0
H4009 H 0.04853 0.61452 0.99807 0.0
H4010 H 0.08207 0.6867 0.88351 0.0
H4011 H 0.11114 0.68573 0.902 0.0
H4012 H 0.05747 0.65578 0.86758 0.0
H4013 H 1.02957 0.63627 0.87777 0.0
C4014 C 0.50743 0.68875 0.87147 0.0
C4015 C 0.48635 0.67579 0.8567 0.0
C4016 C 0.52335 0.64467 0.83779 0.0
C4017 C 0.54498 0.66051 0.84845 0.0
N4018 N 0.55474 0.69505 0.8815 0.0
N4019 N 0.47692 0.63947 0.82526 0.0
C4020 C 0.53584 0.68182 0.86695 0.0
C4021 C 0.49539 0.65318 0.83996 0.0
N4022 N 0.50023 0.70798 0.89025 0.0
N4023 N 0.52928 0.62051 0.8261 0.0
H4024 H 0.4567 0.64244 0.82829 0.0
H4025 H 0.48167 0.62598 0.80945 0.0
H4026 H 0.54866 0.61405 0.82409 0.0
H4027 H 0.51509 0.6061 0.82055 0.0
H4028 H 0.51304 0.71842 0.90293 0.0
H4029 H 0.48054 0.71288 0.89403 0.0
H4030 H 0.55175 0.71209 0.89354 0.0
H4031 H 0.57389 0.68812 0.88213 0.0
C4032 C 0.41964 0.28855 0.61824 0.0
C4033 C 0.40726 0.30992 0.63345 0.0
C4034 C 0.38823 0.27121 0.66568 0.0
C4035 C 0.40122 0.25005 0.6506 0.0
N4036 N 0.43949 0.24451 0.61947 0.0
N4037 N 0.38615 0.31909 0.67794 0.0
C4038 C 0.41987 0.26073 0.62903 0.0
C4039 C 0.39333 0.30026 0.65886 0.0
N4040 N 0.43066 0.29407 0.59247 0.0
N4041 N 0.37055 0.2639 0.68668 0.0
H4042 H 0.39072 0.33955 0.67487 0.0
H4043 H 0.37922 0.31408 0.69799 0.0
H4044 H 0.36777 0.24394 0.69318 0.0
H4045 H 0.35769 0.27731 0.69631 0.0
H4046 H 0.43718 0.27902 0.579 0.0
H4047 H 0.43104 0.31323 0.58365 0.0
H4048 H 0.45477 0.25122 0.60567 0.0
H4049 H 0.44264 0.22582 0.62843 0.0
C4050 C 0.70852 0.09608 0.39868 0.0
C4051 C 0.70163 0.11466 0.37745 0.0
C4052 C 0.75049 0.1287 0.37595 0.0
C4053 C 0.75786 0.10652 0.39325 0.0
N4054 N 0.74099 0.06707 0.41823 0.0
N4055 N 0.71826 0.1499 0.3468 0.0
C4056 C 0.73593 0.08997 0.40402 0.0
C4057 C 0.72333 0.13147 0.36666 0.0
N4058 N 0.68837 0.08456 0.41482 0.0
N4059 N 0.76937 0.14815 0.3692 0.0
H4060 H 0.69909 0.15345 0.34107 0.0
H4061 H 0.73291 0.16059 0.33512 0.0
H4062 H 0.78839 0.1478 0.3765 0.0
H4063 H 0.76558 0.16599 0.359 0.0
H4064 H 0.69139 0.07319 0.43248 0.0
H4065 H 0.66864 0.08909 0.41224 0.0
H4066 H 0.72641 0.05264 0.42412 0.0
H4067 H 0.76004 0.06112 0.42185 0.0
C4068 C 0.4562 0.49075 0.5818 0.0
C4069 C 0.45122 0.4717 0.60413 0.0
C4070 C 0.45519 0.51093 0.63628 0.0
C4071 C 0.45747 0.52976 0.61361 0.0
N4072 N 0.45078 0.53611 0.56516 0.0
N4073 N 0.44285 0.46545 0.65314 0.0
C4074 C 0.45512 0.51915 0.58659 0.0
C4075 C 0.44945 0.48246 0.63151 0.0
N4076 N 0.46308 0.4822 0.55565 0.0
N4077 N 0.46004 0.51989 0.66235 0.0
H4078 H 0.43948 0.44481 0.6504 0.0
H4079 H 0.43864 0.47208 0.67328 0.0
H4080 H 0.46504 0.53995 0.66659 0.0
H4081 H 0.46155 0.50711 0.67929 0.0
H4082 H 0.47021 0.49532 0.53993 0.0
H4083 H 0.46382 0.46216 0.54988 0.0
H4084 H 0.44624 0.52911 0.54554 0.0
H4085 H 0.44835 0.55669 0.56798 0.0
C4086 C 0.77762 0.17215 0.93704 0.0
C4087 C 0.75897 0.19184 0.92947 0.0
C4088 C 0.79783 0.21261 0.89941 0.0
C4089 C 0.81717 0.19519 0.90998 0.0
N4090 N 0.82344 0.15806 0.94065 0.0
N4091 N 0.75346 0.23157 0.90212 0.0
C4092 C 0.80617 0.17488 0.92916 0.0
C4093 C 0.76993 0.21214 0.9102 0.0
N4094 N 0.76803 0.15028 0.9519 0.0
N4095 N 0.80616 0.22975 0.87845 0.0
H4096 H 0.73325 0.23089 0.9074 0.0
H4097 H 0.75981 0.24888 0.89123 0.0
H4098 H 0.8256 0.23015 0.87028 0.0
H4099 H 0.7937 0.24173 0.86759 0.0
H4100 H 0.77912 0.13364 0.95618 0.0
H4101 H 0.74811 0.14779 0.95803 0.0
H4102 H 0.81852 0.14548 0.95751 0.0
H4103 H 0.84328 0.15758 0.93388 0.0
C4104 C 0.17052 0.5295 0.87671 0.0
C4105 C 0.18433 0.51069 0.89177 0.0
C4106 C 0.20338 0.5459 0.91949 0.0
C4107 C 0.18396 0.56303 0.91004 0.0
N4108 N 0.15044 0.57294 0.87772 0.0
N4109 N 0.21709 0.50054 0.92471 0.0
C4110 C 0.16826 0.55564 0.88757 0.0
C4111 C 0.20193 0.51875 0.91215 0.0
N4112 N 0.15981 0.52218 0.85228 0.0
N4113 N 0.22348 0.55493 0.93516 0.0
H4114 H 0.21699 0.48021 0.91921 0.0
H4115 H 0.22959 0.50603 0.94053 0.0
H4116 H 0.22712 0.57525 0.93961 0.0
H4117 H 0.22712 0.57525 0.93961 0.0
H4118 H 0.15091 0.53562 0.83932 0.0
H4119 H 0.16213 0.50297 0.84391 0.0
H4120 H 0.1364 0.56726 0.86354 0.0
H4121 H 0.14863 0.59259 0.885 0.0
C4122 C 0.09519 0.95445 0.17787 0.0
C4123 C 0.09744 0.9357 0.15598 0.0
C4124 C 0.05087 0.93665 0.14853 0.0
C4125 C 0.04764 0.94981 0.17459 0.0
N4126 N 0.06587 0.98209 0.20624 0.0
N4127 N 0.08209 0.92436 0.11126 0.0
C4128 C 0.06962 0.96262 0.18666 0.0
C4129 C 0.07681 0.93255 0.13781 0.0
N4130 N 0.11716 0.96169 0.19174 0.0
N4131 N 1.02956 0.92666 0.13506 0.0
H4132 H 0.10151 0.92182 0.10373 0.0
H4133 H 0.06785 0.92305 0.09637 0.0
H4134 H 1.01014 0.92967 0.14201 0.0
H4135 H 1.03124 0.91446 0.11758 0.0
H4136 H 0.11678 0.97298 0.20991 0.0
H4137 H 0.13583 0.95544 0.18481 0.0
H4138 H 0.08128 0.99327 0.21468 0.0
H4139 H 0.04699 0.98809 0.21265 0.0
C4140 C 0.81971 0.39796 0.59848 0.0
C4141 C 0.80091 0.38453 0.61657 0.0
C4142 C 0.83663 0.37109 0.64459 0.0
C4143 C 0.85068 0.39466 0.63489 0.0
N4144 N 0.8617 0.42249 0.59488 0.0
N4145 N 0.79287 0.34947 0.65002 0.0
C4146 C 0.84458 0.40501 0.60881 0.0
C4147 C 0.8102 0.36711 0.63663 0.0
N4148 N 0.81256 0.40821 0.57395 0.0
N4149 N 0.84848 0.353 0.66073 0.0
H4150 H 0.77343 0.34714 0.64379 0.0
H4151 H 0.79757 0.33826 0.66728 0.0
H4152 H 0.86839 0.35535 0.6652 0.0
H4153 H 0.83934 0.33481 0.66721 0.0
H4154 H 0.79373 0.40462 0.56647 0.0
H4155 H 0.79373 0.40462 0.56647 0.0
H4156 H 0.85731 0.43109 0.57594 0.0
H4157 H 0.88033 0.42737 0.60228 0.0
C4158 C 0.10998 0.71717 0.41878 0.0
C4159 C 0.12894 0.70289 0.40364 0.0
C4160 C 0.15257 0.74376 0.38955 0.0
C4161 C 0.12804 0.75664 0.3935 0.0
N4162 N 0.08686 0.75904 0.42141 0.0
N4163 N 0.17589 0.70231 0.39764 0.0
C4164 C 0.10795 0.74479 0.41199 0.0
C4165 C 0.15338 0.71649 0.39831 0.0
N4166 N 0.09295 0.70356 0.43682 0.0
N4167 N 0.17383 0.75677 0.37657 0.0
H4168 H 0.17513 0.68172 0.4023 0.0
H4169 H 0.1947 0.71115 0.39408 0.0
H4170 H 0.17337 0.7769 0.37039 0.0
H4171 H 0.19148 0.74738 0.37147 0.0
H4172 H 0.07864 0.71274 0.44939 0.0
H4173 H 0.09456 0.68282 0.43975 0.0
H4174 H 0.07088 0.75045 0.43295 0.0
H4175 H 0.08546 0.77955 0.41767 0.0
C4176 C 0.8019 0.83935 0.70252 0.0
C4177 C 0.78986 0.86424 0.7003 0.0
C4178 C 0.83278 0.88658 0.69639 0.0
C4179 C 0.84117 0.86245 0.68399 0.0
N4180 N 0.84031 0.81418 0.68784 0.0
N4181 N 0.79439 0.91074 0.71379 0.0
C4182 C 0.82828 0.83799 0.69234 0.0
C4183 C 0.80561 0.88781 0.7042 0.0
N4184 N 0.7884 0.81826 0.71505 0.0
N4185 N 0.85026 0.9078 0.69884 0.0
H4186 H 0.77475 0.91061 0.72139 0.0
H4187 H 0.80463 0.92917 0.71535 0.0
H4188 H 0.87033 0.90581 0.69353 0.0
H4189 H 0.84531 0.92624 0.7075 0.0
H4190 H 0.79675 0.79971 0.71849 0.0
H4191 H 0.76929 0.82065 0.72363 0.0
H4192 H 0.8307 0.79547 0.69109 0.0
H4193 H 0.85998 0.8138 0.68031 0.0
C4194 C 0.6597 0.46197 0.88452 0.0
C4195 C 0.67793 0.44993 0.86551 0.0
C4196 C 0.67005 0.48514 0.83199 0.0
C4197 C 0.6545 0.49974 0.85145 0.0
N4198 N 0.64189 0.50417 0.90058 0.0
N4199 N 0.70948 0.46003 0.82773 0.0
C4200 C 0.65119 0.48879 0.87909 0.0
C4201 C 0.68597 0.46461 0.8413 0.0
N4202 N 0.65058 0.44811 0.90762 0.0
N4203 N 0.66814 0.48903 0.8043 0.0
H4204 H 0.72244 0.44614 0.83505 0.0
H4205 H 0.7166 0.47179 0.81086 0.0
H4206 H 0.65257 0.49961 0.79685 0.0
H4207 H 0.67875 0.47783 0.78954 0.0
H4208 H 0.63536 0.45491 0.92082 0.0
H4209 H 0.65704 0.42897 0.91231 0.0
H4210 H 0.64109 0.4975 0.9211 0.0
H4211 H 0.6384 0.5246 0.89873 0.0
C4212 C 0.4295 0.66224 0.53504 0.0
C4213 C 0.4454 0.64392 0.54898 0.0
C4214 C 0.43433 0.60965 0.51433 0.0
C4215 C 0.42164 0.62831 0.4979 0.0
N4216 N 0.40989 0.67438 0.49152 0.0
N4217 N 0.4699 0.60323 0.54455 0.0
C4218 C 0.42011 0.65535 0.50793 0.0
C4219 C 0.4501 0.61872 0.53607 0.0
N4220 N 0.42307 0.68579 0.5477 0.0
N4221 N 0.43099 0.58287 0.50953 0.0
H4222 H 0.48214 0.6095 0.56011 0.0
H4223 H 0.47584 0.58599 0.53398 0.0
H4224 H 0.41662 0.57576 0.49656 0.0
H4225 H 0.43934 0.56812 0.52129 0.0
H4226 H 0.40962 0.69893 0.53987 0.0
H4227 H 0.43038 0.69129 0.56685 0.0
H4228 H 0.41042 0.69485 0.49625 0.0
H4229 H 0.40189 0.66947 0.47253 0.0
C4230 C 0.9128 0.21154 0.72441 0.0
C4231 C 0.92249 0.19719 0.74702 0.0
C4232 C 0.94285 0.16483 0.71476 0.0
C4233 C 0.93746 0.18192 0.69254 0.0
N4234 N 0.91465 0.21914 0.67446 0.0
N4235 N 0.94686 0.16007 0.76422 0.0
C4236 C 0.92111 0.20431 0.69689 0.0
C4237 C 0.93719 0.17351 0.74234 0.0
N4238 N 0.89566 0.23186 0.72936 0.0
N4239 N 0.95369 0.14047 0.70935 0.0
H4240 H 0.94271 0.16529 0.78476 0.0
H4241 H 0.96044 0.14486 0.76213 0.0
H4242 H 0.95748 0.13365 0.6892 0.0
H4243 H 0.95635 0.12591 0.72442 0.0
H4244 H 0.88627 0.242 0.71393 0.0
H4245 H 0.88961 0.23774 0.74934 0.0
H4246 H 0.9052 0.2374 0.6757 0.0
H4247 H 0.91948 0.21309 0.65418 0.0
C4248 C 0.4314 0.67073 0.0353 0.0
C4249 C 0.40901 0.65551 0.04588 0.0
C4250 C 0.39845 0.64062 0.99993 0.0
C4251 C 0.41687 0.66055 0.98971 0.0
N4252 N 0.46054 0.67966 0.99484 0.0
N4253 N 0.37896 0.61741 0.04062 0.0
C4254 C 0.437 0.67024 1.00651 0.0
C4255 C 0.39516 0.63724 0.02893 0.0
N4256 N 0.44598 0.68681 0.05222 0.0
N4257 N 0.38298 0.62702 0.98183 0.0
H4258 H 0.37744 0.6143 0.06205 0.0
H4259 H 0.3689 0.60287 0.02926 0.0
H4260 H 0.38625 0.62939 0.96041 0.0
H4261 H 0.36714 0.6141 0.98783 0.0
H4262 H 0.46071 0.70043 0.04471 0.0
H4263 H 0.44239 0.68755 0.07366 0.0
H4264 H 0.47646 0.68593 1.00645 0.0
H4265 H 0.46486 0.678 0.97355 0.0
C4266 C 0.90233 0.12331 0.33486 0.0
C4267 C 0.88436 0.13 0.35671 0.0
C4268 C 0.85373 0.1474 0.324 0.0
C4269 C 0.86903 0.13539 0.30219 0.0
N4270 N 0.90965 0.11562 0.28546 0.0
N4271 N 0.8489 0.15672 0.37359 0.0
C4272 C 0.89416 0.12486 0.30713 0.0
C4273 C 0.86212 0.14524 0.35157 0.0
N4274 N 0.92683 0.1151 0.34102 0.0
N4275 N 0.83058 0.15934 0.31849 0.0
H4276 H 0.85535 0.15481 0.39375 0.0
H4277 H 0.8332 0.16949 0.37196 0.0
H4278 H 0.82395 0.16141 0.29849 0.0
H4279 H 0.81744 0.16671 0.33358 0.0
H4280 H 0.94163 0.11038 0.32637 0.0
H4281 H 0.93307 0.1154 0.3613 0.0
H4282 H 0.92717 0.10567 0.28764 0.0
H4283 H 0.90452 0.11709 0.26489 0.0
C4284 C 0.40903 0.69983 0.69392 0.0
C4285 C 0.43594 0.69799 0.68481 0.0
C4286 C 0.44955 0.70404 0.73272 0.0
C4287 C 0.42296 0.70804 0.74149 0.0
N4288 N 0.3775 0.71318 0.73056 0.0
N4289 N 0.48204 0.7048 0.69503 0.0
C4290 C 0.40265 0.70682 0.72212 0.0
C4291 C 0.45622 0.70194 0.70408 0.0
N4292 N 0.38964 0.69441 0.67575 0.0
N4293 N 0.46843 0.70102 0.75183 0.0
H4294 H 0.48815 0.70248 0.67448 0.0
H4295 H 0.49713 0.71164 0.70749 0.0
H4296 H 0.46448 0.70135 0.77319 0.0
H4297 H 0.48774 0.6957 0.74668 0.0
H4298 H 0.36961 0.69277 0.68157 0.0
H4299 H 0.39381 0.68963 0.65498 0.0
H4300 H 0.36224 0.71528 0.71707 0.0
H4301 H 0.37236 0.71842 0.75099 0.0
C4302 C 0.93626 0.17112 1.00637 0.0
C4303 C 0.91674 0.15943 0.99004 0.0
C4304 C 0.89527 0.13862 0.03073 0.0
C4305 C 0.90771 0.15919 0.04622 0.0
N4306 N 0.94319 0.19286 0.05023 0.0
N4307 N 0.88417 0.1241 0.98447 0.0
C4308 C 0.92981 0.17434 0.03478 0.0
C4309 C 0.89896 0.13963 1.00159 0.0
N4310 N 0.95971 0.18037 0.99436 0.0
N4311 N 0.88025 0.1187 0.04385 0.0
H4312 H 0.88756 0.12505 0.96295 0.0
H4313 H 0.86864 0.11115 0.99137 0.0
H4314 H 0.87881 0.11714 0.06545 0.0
H4315 H 0.87143 0.10258 0.03357 0.0
H4316 H 0.97519 0.18824 1.00571 0.0
H4317 H 0.96429 0.17724 0.9733 0.0
H4318 H 0.95772 0.20614 0.04168 0.0
H4319 H 0.93868 0.19604 0.07125 0.0
C4320 C 0.3596 0.65058 0.35473 0.0
C4321 C 0.38223 0.63505 0.358 0.0
C4322 C 0.39433 0.64117 0.30875 0.0
C4323 C 0.36844 0.64996 0.30452 0.0
N4324 N 0.327 0.66594 0.32336 0.0
N4325 N 0.42301 0.61786 0.33896 0.0
C4326 C 0.35146 0.65634 0.32754 0.0
C4327 C 0.40063 0.63178 0.33539 0.0
N4328 N 0.34549 0.65859 0.37787 0.0
N4329 N 0.41266 0.6416 0.28705 0.0
H4330 H 0.4288 0.61206 0.35847 0.0
H4331 H 0.43539 0.61143 0.32264 0.0
H4332 H 0.40844 0.64876 0.26744 0.0
H4333 H 0.43249 0.63744 0.2891 0.0
H4334 H 0.32974 0.6715 0.37745 0.0
H4335 H 0.35137 0.65405 0.39777 0.0
H4336 H 0.31271 0.66869 0.33918 0.0
H4337 H 0.32055 0.67036 0.30372 0.0
C4338 C 0.92351 0.15147 0.54092 0.0
C4339 C 0.94338 0.13622 0.55306 0.0
C4340 C 0.94857 0.11062 0.50954 0.0
C4341 C 0.9275 0.12418 0.49776 0.0
N4342 N 0.89416 0.15723 0.50236 0.0
N4343 N 0.97072 0.0974 0.54997 0.0
C4344 C 0.91469 0.14459 0.51357 0.0
C4345 C 0.95464 0.11478 0.53757 0.0
N4346 N 0.91326 0.17251 0.55554 0.0
N4347 N 0.96378 0.09414 0.49344 0.0
H4348 H 0.97639 0.09998 0.57003 0.0
H4349 H 0.9767 0.07924 0.54144 0.0
H4350 H 0.95908 0.0889 0.47351 0.0
H4351 H 0.98129 0.08599 0.49947 0.0
H4352 H 0.89988 0.18573 0.54785 0.0
H4353 H 0.91938 0.17755 0.5753 0.0
H4354 H 0.88265 0.17126 0.5128 0.0
H4355 H 0.88775 0.15242 0.48266 0.0
C4356 C 0.55408 0.94683 0.66985 0.0
C4357 C 0.54539 0.95226 0.6977 0.0
C4358 C 0.59056 0.96217 0.71007 0.0
C4359 C 0.59848 0.95058 0.68453 0.0
N4360 N 0.59093 0.95121 0.63601 0.0
N4361 N 0.55379 0.97666 0.73982 0.0
C4362 C 0.58118 0.9505 0.66278 0.0
C4363 C 0.56314 0.96402 0.71648 0.0
N4364 N 0.53728 0.93618 0.65107 0.0
N4365 N 0.60923 0.96853 0.72866 0.0
H4366 H 0.53364 0.97935 0.74375 0.0
H4367 H 0.56587 0.98638 0.75383 0.0
H4368 H 0.62935 0.96707 0.72319 0.0
H4369 H 0.60492 0.97444 0.74901 0.0
H4370 H 0.54374 0.92974 0.63144 0.0
H4371 H 0.51735 0.93167 0.65576 0.0
H4372 H 0.5789 0.95223 0.61911 0.0
H4373 H 0.61127 0.95345 0.63143 0.0
C4374 C 0.33836 0.40764 0.12774 0.0
C4375 C 0.35033 0.43378 0.12544 0.0
C4376 C 0.31796 0.44626 0.09325 0.0
C4377 C 0.30126 0.42617 0.10604 0.0
N4378 N 0.29625 0.38273 0.12727 0.0
N4379 N 0.35765 0.4743 0.09886 0.0
C4380 C 0.31202 0.40451 0.11975 0.0
C4381 C 0.34263 0.45157 0.10486 0.0
N4382 N 0.35153 0.38689 0.13859 0.0
N4383 N 0.30845 0.46204 0.07311 0.0
H4384 H 0.37591 0.47769 0.10773 0.0
H4385 H 0.3521 0.48941 0.08556 0.0
H4386 H 0.28949 0.45837 0.06596 0.0
H4387 H 0.31963 0.47718 0.06267 0.0
H4388 H 0.34364 0.36728 0.14018 0.0
H4389 H 0.37148 0.38889 0.14299 0.0
H4390 H 0.30202 0.36746 0.14028 0.0
H4391 H 0.27703 0.38068 0.12039 0.0
C4392 C 0.67526 1.02565 0.8734 0.0
C4393 C 0.68251 1.00475 0.8911 0.0
C4394 C 0.67501 0.03162 0.93082 0.0
C4395 C 0.67103 0.05425 0.91443 0.0
N4396 N 0.66746 0.07334 0.86853 0.0
N4397 N 0.69968 0.99169 0.93455 0.0
C4398 C 0.67181 0.05169 0.88496 0.0
C4399 C 0.68794 1.01017 0.91872 0.0
N4400 N 0.66992 1.02002 0.84654 0.0
N4401 N 0.66043 1.02735 0.95467 0.0
H4402 H 0.70789 0.97447 0.92577 0.0
H4403 H 0.70241 0.99487 0.95563 0.0
H4404 H 0.645 0.03986 0.96003 0.0
H4405 H 0.66026 1.00893 0.96518 0.0
H4406 H 0.66168 0.0337 0.83332 0.0
H4407 H 0.67312 1.00104 0.83799 0.0
H4408 H 0.67032 0.07306 0.84702 0.0
H4409 H 0.66124 0.09167 0.87661 0.0
C4410 C 0.29897 0.36175 0.70203 0.0
C4411 C 0.28206 0.37963 0.68926 0.0
C4412 C 0.3185 0.41196 0.68241 0.0
C4413 C 0.33482 0.38992 0.68317 0.0
N4414 N 0.3447 0.35302 0.71172 0.0
N4415 N 0.27461 0.42466 0.67162 0.0
C4416 C 0.32636 0.36771 0.69941 0.0
C4417 C 0.29112 0.40626 0.68185 0.0
N4418 N 0.28877 0.33941 0.71565 0.0
N4419 N 0.3295 0.43715 0.67851 0.0
H4420 H 0.25436 0.42116 0.67017 0.0
H4421 H 0.28136 0.44313 0.66327 0.0
H4422 H 0.35004 0.44027 0.67755 0.0
H4423 H 0.31847 0.45449 0.67866 0.0
H4424 H 0.30024 0.3244 0.72346 0.0
H4425 H 0.26843 0.33665 0.7197 0.0
H4426 H 0.34016 0.33639 0.72442 0.0
H4427 H 0.3646 0.35935 0.71031 0.0
C4428 C 0.95164 0.51228 0.14377 0.0
C4429 C 0.94481 0.53189 0.12378 0.0
C4430 C 0.91985 0.49502 0.1002 0.0
C4431 C 0.93113 0.47495 0.11661 0.0
N4432 N 0.95824 0.46488 0.15436 0.0
N4433 N 0.92065 0.54134 0.08319 0.0
C4434 C 0.94674 0.48384 0.13884 0.0
C4435 C 0.92829 0.52302 0.10213 0.0
N4436 N 0.96322 0.5207 0.16739 0.0
N4437 N 0.90073 0.48699 0.08267 0.0
H4438 H 0.92468 0.56199 0.0849 0.0
H4439 H 0.91133 0.53606 0.06511 0.0
H4440 H 0.8938 0.46698 0.0821 0.0
H4441 H 0.88999 0.50012 0.07112 0.0
H4442 H 0.96625 0.50796 0.18403 0.0
H4443 H 0.96831 0.54085 0.17111 0.0
H4444 H 0.97262 0.46939 0.16855 0.0
H4445 H 0.95397 0.44431 0.15196 0.0
C4446 C 1.03001 0.17071 0.83256 0.0
C4447 C 1.03908 0.15048 0.85102 0.0
C4448 C 0.99266 0.15568 0.87621 0.0
C4449 C 0.98328 0.17528 0.85697 0.0
N4450 N 0.9963 0.19891 0.81424 0.0
N4451 N 1.02817 0.12814 0.89427 0.0
C4452 C 1.0031 0.18176 0.83466 0.0
C4453 C 1.0199 0.14437 0.87381 0.0
N4454 N 0.04816 0.18123 0.81329 0.0
N4455 N 0.97492 0.14669 0.89653 0.0
H4456 H 0.04656 0.11923 0.89284 0.0
H4457 H 1.01776 0.12463 0.91308 0.0
H4458 H 0.95616 0.15466 0.89908 0.0
H4459 H 0.97803 0.13066 0.90975 0.0
H4460 H 0.04571 0.19893 0.80227 0.0
H4461 H 0.0667 0.17313 0.80949 0.0
H4462 H 1.00602 0.2001 0.79476 0.0
H4463 H 0.98043 0.21153 0.81626 0.0
C4464 C 0.20665 0.59033 0.39152 0.0
C4465 C 0.19927 0.61027 0.37177 0.0
C4466 C 0.24749 0.62647 0.37263 0.0
C4467 C 0.25552 0.60375 0.38873 0.0
N4468 N 0.24021 0.56168 0.40961 0.0
N4469 N 0.21538 0.64728 0.34311 0.0
C4470 C 0.23423 0.58531 0.39727 0.0
C4471 C 0.22056 0.62838 0.36245 0.0
N4472 N 0.18677 0.57613 0.40566 0.0
N4473 N 0.26542 0.64728 0.36797 0.0
H4474 H 0.1963 0.65021 0.33672 0.0
H4475 H 0.23003 0.6589 0.33242 0.0
H4476 H 0.28416 0.64748 0.37605 0.0
H4477 H 0.26087 0.66548 0.35889 0.0
H4478 H 0.18996 0.56329 0.42218 0.0
H4479 H 0.16686 0.57975 0.40298 0.0
H4480 H 0.22646 0.54584 0.41319 0.0
H4481 H 0.25945 0.55678 0.41374 0.0
C4482 C 0.936 0.35173 0.64767 0.0
C4483 C 0.95146 0.36606 0.66751 0.0
C4484 C 0.97239 0.32156 0.67641 0.0
C4485 C 0.95913 0.30748 0.65487 0.0
N4486 N 0.9287 0.31162 0.61848 0.0
N4487 N 0.99185 0.36386 0.69203 0.0
C4488 C 0.94112 0.32347 0.64002 0.0
C4489 C 0.9717 0.35065 0.67927 0.0
N4490 N 0.91648 0.36528 0.63573 0.0
N4491 N 0.98629 0.30737 0.69459 0.0
H4492 H 0.99462 0.38461 0.69194 0.0
H4493 H 1.00796 0.35451 0.69984 0.0
H4494 H 0.98825 0.28664 0.69402 0.0
H4495 H 0.99501 0.31628 0.71145 0.0
H4496 H 0.90271 0.35635 0.62295 0.0
H4497 H 0.91321 0.3855 0.64008 0.0
H4498 H 0.91732 0.32194 0.60484 0.0
H4499 H 0.93102 0.29141 0.61336 0.0
C4500 C 0.26665 0.20723 0.40691 0.0
C4501 C 0.25697 0.18821 0.4282 0.0
C4502 C 0.3058 0.1765 0.43042 0.0
C4503 C 0.3155 0.19572 0.4094 0.0
N4504 N 0.30121 0.22216 0.37206 0.0
N4505 N 0.26939 0.14932 0.45307 0.0
C4506 C 0.29461 0.20892 0.3962 0.0
C4507 C 0.27731 0.17134 0.43767 0.0
N4508 N 0.24894 0.22417 0.39646 0.0
N4509 N 0.32417 0.16267 0.44391 0.0
H4510 H 0.24946 0.14478 0.45776 0.0
H4511 H 0.28206 0.13422 0.45829 0.0
H4512 H 0.34408 0.16323 0.4373 0.0
H4513 H 0.31983 0.15152 0.46194 0.0
H4514 H 0.25448 0.24072 0.38397 0.0
H4515 H 0.22868 0.22217 0.40126 0.0
H4516 H 0.28729 0.22961 0.35907 0.0
H4517 H 0.32055 0.22252 0.36357 0.0
C4518 C 0.42436 0.54867 0.17752 0.0
C4519 C 0.40783 0.52594 0.18637 0.0
C4520 C 0.37101 0.55837 0.19275 0.0
C4521 C 0.38787 0.58191 0.18672 0.0
N4522 N 0.4331 0.59753 0.17763 0.0
N4523 N 0.36668 0.51225 0.20974 0.0
C4524 C 0.41524 0.5764 0.18011 0.0
C4525 C 0.38161 0.53189 0.196 0.0
N4526 N 0.44883 0.54384 0.16603 0.0
N4527 N 0.34417 0.56063 0.19436 0.0
H4528 H 0.37414 0.49366 0.21472 0.0
H4529 H 0.3483 0.51558 0.2195 0.0
H4530 H 0.33471 0.57845 0.19096 0.0
H4531 H 0.33098 0.54405 0.19511 0.0
H4532 H 0.46098 0.55863 0.15621 0.0
H4533 H 0.4561 0.52444 0.16464 0.0
H4534 H 0.45346 0.59519 0.17588 0.0
H4535 H 0.42777 0.6175 0.17978 0.0
C4536 C 0.66279 0.37682 0.49746 0.0
C4537 C 0.67763 0.38784 0.47409 0.0
C4538 C 0.70886 0.40908 0.50707 0.0
C4539 C 0.69155 0.40254 0.53026 0.0
N4540 N 0.65391 0.37613 0.54786 0.0
N4541 N 0.72264 0.39979 0.45928 0.0
C4542 C 0.66936 0.38468 0.52547 0.0
C4543 C 0.70314 0.39947 0.47978 0.0
N4544 N 0.64391 0.35727 0.49305 0.0
N4545 N 0.73037 0.42574 0.51089 0.0
H4546 H 0.72007 0.3903 0.44025 0.0
H4547 H 0.74214 0.406 0.46239 0.0
H4548 H 0.73591 0.43167 0.53062 0.0
H4549 H 0.7418 0.43453 0.49456 0.0
H4550 H 0.63391 0.34627 0.50886 0.0
H4551 H 0.64034 0.35003 0.47326 0.0
H4552 H 0.63563 0.36611 0.5465 0.0
H4553 H 0.65947 0.37991 0.5681 0.0
C4554 C 0.17506 0.87163 0.26335 0.0
C4555 C 0.15448 0.85833 0.24834 0.0
C4556 C 0.13432 0.84387 0.29482 0.0
C4557 C 0.15649 0.85385 0.30919 0.0
N4558 N 0.20015 0.87428 0.30546 0.0
N4559 N 0.11686 0.82594 0.2532 0.0
C4560 C 0.17749 0.86677 0.29285 0.0
C4561 C 0.13495 0.84278 0.26505 0.0
N4562 N 0.19143 0.89048 0.25019 0.0
N4563 N 0.11116 0.83755 0.30941 0.0
H4564 H 0.11443 0.82393 0.23223 0.0
H4565 H 0.10557 0.81145 0.26459 0.0
H4566 H 0.10856 0.84082 0.33058 0.0
H4567 H 0.09338 0.83324 0.30001 0.0
H4568 H 0.20498 0.90261 0.26049 0.0
H4569 H 0.1894 0.89653 0.22979 0.0
H4570 H 0.21736 0.88101 0.29454 0.0
H4571 H 0.20246 0.87133 0.32662 0.0
C4572 C 0.68159 0.40488 0.08288 0.0
C4573 C 0.69526 0.38194 0.09174 0.0
C4574 C 0.69435 0.36564 0.04339 0.0
C4575 C 0.68671 0.39069 0.03291 0.0
N4576 N 0.67484 0.43637 0.04531 0.0
N4577 N 0.72324 0.34628 0.07318 0.0
C4578 C 0.68039 0.41092 0.0534 0.0
C4579 C 0.70392 0.36404 0.07021 0.0
N4580 N 0.67054 0.42148 0.10234 0.0
N4581 N 0.69412 0.34281 0.02782 0.0
H4582 H 0.73535 0.3459 0.08997 0.0
H4583 H 0.73535 0.3459 0.08997 0.0
H4584 H 0.68595 0.34149 1.00837 0.0
H4585 H 0.68595 0.34149 1.00837 0.0
H4586 H 0.6581 0.4369 0.09741 0.0
H4587 H 0.67222 0.41845 0.12357 0.0
H4588 H 0.6733 0.45239 0.05914 0.0
H4589 H 0.67373 0.44224 0.02476 0.0
C4590 C 0.21936 0.87704 0.68318 0.0
C4591 C 0.22277 0.90406 0.67324 0.0
C4592 C 0.21761 0.92001 0.72186 0.0
C4593 C 0.21595 0.89284 0.73238 0.0
N4594 N 0.21671 0.84539 0.72209 0.0
N4595 N 0.22824 0.95115 0.68418 0.0
C4596 C 0.21741 0.87136 0.71268 0.0
C4597 C 0.22287 0.9253 0.69294 0.0
N4598 N 0.21724 0.85673 0.66426 0.0
N4599 N 0.21391 0.94148 0.73923 0.0
H4600 H 0.22779 0.95704 0.66364 0.0
H4601 H 0.23423 0.96669 0.69721 0.0
H4602 H 0.2146 0.94092 0.76061 0.0
H4603 H 0.20991 0.96073 0.73232 0.0
H4604 H 0.21171 0.83691 0.6694 0.0
H4605 H 0.21973 0.86005 0.64293 0.0
H4606 H 0.22107 0.8289 0.70962 0.0
H4607 H 0.21272 0.84026 0.74284 0.0
C4608 C 0.64946 0.38813 0.27432 0.0
C4609 C 0.66335 0.36805 0.25956 0.0
C4610 C 0.66791 0.34429 0.30457 0.0
C4611 C 0.65397 0.36462 0.31937 0.0
N4612 N 0.64088 0.41062 0.31822 0.0
N4613 N 0.69311 0.33162 0.2628 0.0
C4614 C 0.64761 0.38804 0.30416 0.0
C4615 C 0.67488 0.34757 0.27539 0.0
N4616 N 0.63759 0.40692 0.25905 0.0
N4617 N 0.67438 0.32156 0.31832 0.0
H4618 H 0.69889 0.33412 0.24207 0.0
H4619 H 0.70427 0.31807 0.27338 0.0
H4620 H 0.67121 0.31921 0.33972 0.0
H4621 H 0.6818 0.30464 0.30839 0.0
H4622 H 0.6251 0.42144 0.26731 0.0
H4623 H 0.6251 0.42144 0.26731 0.0
H4624 H 0.63783 0.42912 0.30892 0.0
H4625 H 0.64272 0.41157 0.33939 0.0
C4626 C 0.18169 0.89131 0.06749 0.0
C4627 C 0.20298 0.8807 0.08207 0.0
C4628 C 0.21969 0.86175 0.03629 0.0
C4629 C 0.20162 0.8764 0.02108 0.0
N4630 N 0.16078 0.90005 0.0238 0.0
N4631 N 0.24515 0.85895 0.0773 0.0
C4632 C 0.18131 0.88974 0.03729 0.0
C4633 C 0.22291 0.86721 0.06543 0.0
N4634 N 0.16164 0.90294 0.08255 0.0
N4635 N 0.23315 0.84166 0.02321 0.0
H4636 H 0.25143 0.86514 0.09645 0.0
H4637 H 0.25909 0.84724 0.06733 0.0
H4638 H 0.22752 0.83363 1.00441 0.0
H4639 H 0.24708 0.82994 0.03212 0.0
H4640 H 0.14395 0.90855 0.07452 0.0
H4641 H 0.16246 0.90659 0.10376 0.0
H4642 H 0.14752 0.91352 0.03251 0.0
H4643 H 0.15645 0.89424 1.00371 0.0
C4644 C 0.71547 0.37917 0.73639 0.0
C4645 C 0.69583 0.39327 0.75228 0.0
C4646 C 0.68094 0.41104 0.70782 0.0
C4647 C 0.70483 0.40359 0.69339 0.0
N4648 N 0.74348 0.37671 0.69415 0.0
N4649 N 0.65959 0.42345 0.75174 0.0
C4650 C 0.72166 0.38648 0.70784 0.0
C4651 C 0.67855 0.40943 0.73752 0.0
N4652 N 0.72784 0.35829 0.7481 0.0
N4653 N 0.65957 0.41775 0.69351 0.0
H4654 H 0.65578 0.42136 0.77309 0.0
H4655 H 0.64863 0.43804 0.74233 0.0
H4656 H 0.65921 0.41728 0.67204 0.0
H4657 H 0.64094 0.41985 0.70323 0.0
H4658 H 0.74014 0.34549 0.73684 0.0
H4659 H 0.7238 0.35176 0.76836 0.0
H4660 H 0.75852 0.36728 0.70405 0.0
H4661 H 0.74679 0.37861 0.67275 0.0
C4662 C 0.16984 0.87275 0.48208 0.0
C4663 C 0.18062 0.89286 0.4634 0.0
C4664 C 0.20286 0.91437 0.50423 0.0
C4665 C 0.18681 0.89832 0.52321 0.0
N4666 N 0.16879 0.85297 0.52852 0.0
N4667 N 0.21962 0.92185 0.4564 0.0
C4668 C 0.17431 0.87468 0.51152 0.0
C4669 C 0.20085 0.91052 0.47447 0.0
N4670 N 0.15662 0.85096 0.47169 0.0
N4671 N 0.22049 0.93276 0.51444 0.0
H4672 H 0.22101 0.91638 0.43553 0.0
H4673 H 0.23564 0.9338 0.46229 0.0
H4674 H 0.22447 0.93366 0.53539 0.0
H4675 H 0.23091 0.9473 0.50241 0.0
H4676 H 0.14491 0.83745 0.4838 0.0
H4677 H 0.15754 0.8464 0.45061 0.0
H4678 H 0.16126 0.83445 0.52192 0.0
H4679 H 0.17487 0.85252 0.5489 0.0
C4680 C 0.52105 0.14415 0.35035 0.0
C4681 C 0.54389 0.16263 0.35238 0.0
C4682 C 0.5084 0.19796 0.35621 0.0
C4683 C 0.48507 0.18046 0.35975 0.0
N4684 N 0.47298 0.13327 0.35894 0.0
N4685 N 0.55226 0.20688 0.37208 0.0
C4686 C 0.49282 0.15243 0.35654 0.0
C4687 C 0.53516 0.18913 0.36023 0.0
N4688 N 0.52591 0.11866 0.34167 0.0
N4689 N 0.50634 0.22269 0.34481 0.0
H4690 H 0.56985 0.20072 0.37997 0.0
H4691 H 0.54672 0.22617 0.37797 0.0
H4692 H 0.48959 0.22761 0.33475 0.0
H4693 H 0.52278 0.23563 0.34083 0.0
H4694 H 0.51111 0.10468 0.33667 0.0
H4695 H 0.54513 0.11229 0.33773 0.0
H4696 H 0.47621 0.11268 0.35946 0.0
H4697 H 0.4533 0.1384 0.36263 0.0
C4698 C 0.70973 0.60077 0.89727 0.0
C4699 C 0.70238 0.61683 0.87407 0.0
C4700 C 0.75188 0.62832 0.86772 0.0
C4701 C 0.75928 0.60982 0.88915 0.0
N4702 N 0.74248 0.57506 0.92071 0.0
N4703 N 0.71798 0.65196 0.84281 0.0
C4704 C 0.7373 0.59555 0.90308 0.0
C4705 C 0.72404 0.6322 0.86088 0.0
N4706 N 0.68989 0.59137 0.91523 0.0
N4707 N 0.77176 0.64211 0.85315 0.0
H4708 H 0.69857 0.65585 0.83832 0.0
H4709 H 0.73159 0.66611 0.83423 0.0
H4710 H 0.79128 0.64266 0.85913 0.0
H4711 H 0.76926 0.6523 0.83465 0.0
H4712 H 0.6932 0.58218 0.93411 0.0
H4713 H 0.67014 0.59593 0.91292 0.0
H4714 H 0.72803 0.56133 0.9286 0.0
H4715 H 0.76154 0.56993 0.92532 0.0
C4716 C 0.43059 0.99375 0.10315 0.0
C4717 C 0.44314 0.97455 0.1194 0.0
C4718 C 0.46618 1.01321 0.14228 0.0
C4719 C 0.45798 0.0317 0.1219 0.0
N4720 N 0.43089 0.03878 0.08299 0.0
N4721 N 0.47313 0.96668 0.1554 0.0
C4722 C 0.43968 1.02167 0.10243 0.0
C4723 C 0.46084 0.98467 0.13939 0.0
N4724 N 0.40906 0.98542 0.08925 0.0
N4725 N 0.47848 1.02285 0.16501 0.0
H4726 H 0.4677 0.9462 0.15571 0.0
H4727 H 0.48917 0.97186 0.16732 0.0
H4728 H 0.48209 0.04331 0.16838 0.0
H4729 H 0.48283 1.01084 0.1818 0.0
H4730 H 0.39667 0.99871 0.07994 0.0
H4731 H 0.40191 0.96548 0.09032 0.0
H4732 H 0.41996 0.03227 0.06635 0.0
H4733 H 0.43593 0.05931 0.08264 0.0
C4734 C 0.76675 0.71139 0.40946 0.0
C4735 C 0.7566 0.69082 0.42901 0.0
C4736 C 0.80466 0.67527 0.4271 0.0
C4737 C 0.81487 0.69587 0.40767 0.0
N4738 N 0.80229 0.73106 0.37777 0.0
N4739 N 0.76795 0.65098 0.45311 0.0
C4740 C 0.79468 0.71297 0.39815 0.0
C4741 C 0.77633 0.67218 0.43656 0.0
N4742 N 0.74945 0.73022 0.40178 0.0
N4743 N 0.82265 0.65839 0.4372 0.0
H4744 H 0.74842 0.64855 0.46066 0.0
H4745 H 0.77956 0.6349 0.45793 0.0
H4746 H 0.84195 0.65778 0.42873 0.0
H4747 H 0.81895 0.64564 0.45415 0.0
H4748 H 0.75485 0.74752 0.39045 0.0
H4749 H 0.72937 0.72893 0.40768 0.0
H4750 H 0.78942 0.74303 0.36747 0.0
H4751 H 0.82179 0.73265 0.36976 0.0
C4752 C 0.16967 0.31822 0.39205 0.0
C4753 C 0.18224 0.33361 0.4127 0.0
C4754 C 0.16603 0.30245 0.44758 0.0
C4755 C 0.1598 0.28352 0.42746 0.0
N4756 N 0.15496 0.27277 0.3794 0.0
N4757 N 0.20497 0.32875 0.45493 0.0
C4758 C 0.16092 0.29131 0.39911 0.0
C4759 C 0.18378 0.32297 0.43944 0.0
N4760 N 0.16689 0.32875 0.36631 0.0
N4761 N 0.15886 0.2984 0.47474 0.0
H4762 H 0.22033 0.34191 0.44798 0.0
H4763 H 0.20878 0.31694 0.47214 0.0
H4764 H 0.14516 0.28309 0.48059 0.0
H4765 H 0.16452 0.31196 0.49006 0.0
H4766 H 0.15644 0.31875 0.35109 0.0
H4767 H 0.17387 0.3482 0.36102 0.0
H4768 H 0.15767 0.27651 0.35819 0.0
H4769 H 0.14806 0.25332 0.38489 0.0
C4770 C 0.62534 0.24143 0.42831 0.0
C4771 C 0.63742 0.26158 0.41037 0.0
C4772 C 0.6742 0.23256 0.40028 0.0
C4773 C 0.65601 0.21148 0.40671 0.0
N4774 N 0.62918 0.19544 0.44546 0.0
N4775 N 0.67852 0.28044 0.38977 0.0
C4776 C 0.63745 0.21615 0.42842 0.0
C4777 C 0.66406 0.25875 0.40023 0.0
N4778 N 0.602 0.24533 0.44271 0.0
N4779 N 0.69918 0.22683 0.39116 0.0
H4780 H 0.67147 0.29994 0.39109 0.0
H4781 H 0.69734 0.27914 0.38037 0.0
H4782 H 0.70508 0.20686 0.39022 0.0
H4783 H 0.71379 0.24144 0.38589 0.0
H4784 H 0.59146 0.22998 0.45354 0.0
H4785 H 0.59306 0.26386 0.44375 0.0
H4786 H 0.61581 0.19761 0.46231 0.0
H4787 H 0.63748 0.17654 0.44319 0.0
C4788 C 0.17161 0.99526 0.86456 0.0
C4789 C 0.14984 0.99332 0.84698 0.0
C4790 C 0.1534 0.94411 0.84721 0.0
C4791 C 0.17838 0.94694 0.85948 0.0
N4792 N 0.2122 0.97598 0.87841 0.0
N4793 N 0.11859 0.96552 0.82289 0.0
C4794 C 0.18766 0.97269 0.86803 0.0
C4795 C 0.1401 0.96754 0.83895 0.0
N4796 N 0.17596 1.01817 0.87939 0.0
N4797 N 0.14244 0.91887 0.84377 0.0
H4798 H 0.1081 0.98225 0.81725 0.0
H4799 H 0.11215 0.94765 0.81374 0.0
H4800 H 0.15157 0.90157 0.85029 0.0
H4801 H 0.12343 0.91518 0.83702 0.0
H4802 H 0.19049 1.02026 0.89392 0.0
H4803 H 0.16229 0.03326 0.88033 0.0
H4804 H 0.22121 0.99485 0.88158 0.0
H4805 H 0.2243 0.95996 0.8822 0.0
C4806 C 0.56643 0.89187 0.14428 0.0
C4807 C 0.58237 0.87919 0.12403 0.0
C4808 C 0.54443 0.86618 0.09822 0.0
C4809 C 0.53053 0.88594 0.11334 0.0
N4810 N 0.52624 0.91584 0.15281 0.0
N4811 N 0.58773 0.85053 0.08428 0.0
C4812 C 0.54051 0.89767 0.13766 0.0
C4813 C 0.57158 0.86438 0.10219 0.0
N4814 N 0.57686 0.89966 0.1687 0.0
N4815 N 0.53162 0.84938 0.0805 0.0
H4816 H 0.60777 0.84846 0.08776 0.0
H4817 H 0.58152 0.84205 0.06585 0.0
H4818 H 0.51118 0.84964 0.07859 0.0
H4819 H 0.54067 0.83357 0.07005 0.0
H4820 H 0.56577 0.90781 0.18516 0.0
H4821 H 0.59635 0.89565 0.17309 0.0
H4822 H 0.53393 0.92719 0.16887 0.0
H4823 H 0.50715 0.92088 0.14817 0.0
C4824 C 0.55978 0.39393 0.56473 0.0
C4825 C 0.54262 0.40719 0.54756 0.0
C4826 C 0.57388 0.44581 0.54441 0.0
C4827 C 0.58713 0.43451 0.5666 0.0
N4828 N 0.58791 0.40072 0.60275 0.0
N4829 N 0.53824 0.44348 0.514 0.0
C4830 C 0.57848 0.40946 0.57833 0.0
C4831 C 0.55084 0.43241 0.53531 0.0
N4832 N 0.55722 0.36678 0.56908 0.0
N4833 N 0.58332 0.46893 0.53156 0.0
H4834 H 0.52291 0.43389 0.50375 0.0
H4835 H 0.52291 0.43389 0.50375 0.0
H4836 H 0.60033 0.47943 0.5374 0.0
H4837 H 0.574 0.47747 0.51498 0.0
H4838 H 0.57075 0.35611 0.58007 0.0
H4839 H 0.54295 0.35489 0.55948 0.0
H4840 H 0.5805 0.38331 0.61291 0.0
H4841 H 0.601 0.41238 0.61419 0.0
C4842 C 0.14931 0.80452 0.92884 0.0
C4843 C 0.16775 0.78503 0.91957 0.0
C4844 C 0.17815 0.81107 0.87744 0.0
C4845 C 0.16753 0.83304 0.89184 0.0
N4846 N 0.12862 0.84642 0.91714 0.0
N4847 N 0.18858 0.76368 0.8797 0.0
C4848 C 0.14734 0.82776 0.91222 0.0
C4849 C 0.17823 0.78611 0.89169 0.0
N4850 N 0.13565 0.80227 0.95383 0.0
N4851 N 0.18979 0.81513 0.85169 0.0
H4852 H 0.18734 0.745 0.88974 0.0
H4853 H 0.19682 0.7631 0.85957 0.0
H4854 H 0.18905 0.83386 0.84187 0.0
H4855 H 0.19951 0.80044 0.84021 0.0
H4856 H 0.12482 0.81787 0.96251 0.0
H4857 H 0.13523 0.78517 0.96626 0.0
H4858 H 0.11243 0.84339 0.93105 0.0
H4859 H 0.12865 0.864 0.90517 0.0
C4860 C 0.91951 0.79084 0.6515 0.0
C4861 C 0.9127 0.8035 0.62575 0.0
C4862 C 0.89516 0.75672 0.61308 0.0
C4863 C 0.89982 0.74384 0.63948 0.0
N4864 N 0.91567 0.75247 0.68472 0.0
N4865 N 0.88186 0.79714 0.59009 0.0
C4866 C 0.9117 0.76226 0.6589 0.0
C4867 C 0.89727 0.78586 0.60897 0.0
N4868 N 0.93391 0.80622 0.66912 0.0
N4869 N 0.88858 0.74149 0.59076 0.0
H4870 H 0.87945 0.81776 0.58965 0.0
H4871 H 0.86866 0.7861 0.57822 0.0
H4872 H 0.88495 0.72089 0.59125 0.0
H4873 H 0.88847 0.74949 0.57076 0.0
H4874 H 0.94186 0.79889 0.68701 0.0
H4875 H 0.93941 0.82625 0.66457 0.0
H4876 H 0.9219 0.76426 0.70113 0.0
H4877 H 0.91083 0.73248 0.69011 0.0
C4878 C 0.47527 0.83242 0.646 0.0
C4879 C 0.45651 0.81139 0.65513 0.0
C4880 C 0.42856 0.84987 0.6744 0.0
C4881 C 0.44887 0.87014 0.66872 0.0
N4882 N 0.48673 0.88039 0.63854 0.0
N4883 N 0.41372 0.80222 0.67751 0.0
C4884 C 0.4708 0.86103 0.65153 0.0
C4885 C 0.43274 0.82096 0.6691 0.0
N4886 N 0.49846 0.82519 0.63301 0.0
N4887 N 0.40422 0.85855 0.68243 0.0
H4888 H 0.41479 0.78189 0.67237 0.0
H4889 H 0.39728 0.80659 0.69015 0.0
H4890 H 0.40065 0.87904 0.68438 0.0
H4891 H 0.38725 0.84612 0.68385 0.0
H4892 H 0.51469 0.83835 0.62941 0.0
H4893 H 0.50254 0.80546 0.62765 0.0
H4894 H 0.50149 0.87647 0.62354 0.0
H4895 H 0.48283 0.90084 0.64023 0.0
C4896 C 0.88557 0.04271 0.21399 0.0
C4897 C 0.90789 0.03001 0.20075 0.0
C4898 C 0.9218 0.07722 0.18402 0.0
C4899 C 0.89772 0.08862 0.19482 0.0
N4900 N 0.85357 0.07756 0.21305 0.0
N4901 N 0.94604 0.03707 0.16961 0.0
C4902 C 0.87891 0.0699 0.20763 0.0
C4903 C 0.92575 0.04793 0.18485 0.0
N4904 N 0.87079 0.02924 0.23423 0.0
N4905 N 0.94129 0.09439 0.17345 0.0
H4906 H 0.94958 1.01653 0.16989 0.0
H4907 H 0.95814 0.04808 0.15536 0.0
H4908 H 0.93873 0.11511 0.1721 0.0
H4909 H 0.96029 0.08838 0.16784 0.0
H4910 H 0.85641 0.03835 0.24685 0.0
H4911 H 0.87531 1.01027 0.24104 0.0
H4912 H 0.8382 0.06399 0.21906 0.0
H4913 H 0.84724 0.0967 0.20867 0.0
C4914 C 0.58082 0.15621 0.91792 0.0
C4915 C 0.59599 0.14628 0.93978 0.0
C4916 C 0.55324 0.12355 0.95776 0.0
C4917 C 0.53934 0.12873 0.93349 0.0
N4918 N 0.5452 0.14667 0.88664 0.0
N4919 N 0.59455 0.10575 0.96807 0.0
C4920 C 0.55453 0.14452 0.91261 0.0
C4921 C 0.58164 0.12628 0.95693 0.0
N4922 N 0.59182 0.1762 0.9013 0.0
N4923 N 0.54008 0.11429 0.98131 0.0
H4924 H 0.61259 0.10018 0.95923 0.0
H4925 H 0.58528 0.09144 0.98143 0.0
H4926 H 0.51951 0.11292 0.98341 0.0
H4927 H 0.54989 0.11097 0.99951 0.0
H4928 H 0.58126 0.18609 0.88654 0.0
H4929 H 0.61071 0.18444 0.9043 0.0
H4930 H 0.55615 0.1558 0.87018 0.0
H4931 H 0.52832 0.13622 0.88045 0.0
C4932 C 0.57295 0.62344 0.46971 0.0
C4933 C 0.59151 0.63669 0.44975 0.0
C4934 C 0.55454 0.62982 0.41671 0.0
C4935 C 0.5354 0.62068 0.43818 0.0
N4936 N 0.52741 0.61863 0.48772 0.0
N4937 N 0.59602 0.65473 0.4036 0.0
C4938 C 0.54489 0.62107 0.46542 0.0
C4939 C 0.58079 0.64091 0.42323 0.0
N4940 N 0.58181 0.61007 0.49186 0.0
N4941 N 0.54868 0.62612 0.38963 0.0
H4942 H 0.61498 0.66227 0.40747 0.0
H4943 H 0.58891 0.6608 0.38474 0.0
H4944 H 0.53141 0.61614 0.38374 0.0
H4945 H 0.56231 0.62987 0.37314 0.0
H4946 H 0.56933 0.59883 0.50562 0.0
H4947 H 0.60145 0.60633 0.49389 0.0
H4948 H 0.53331 0.62047 0.50808 0.0
H4949 H 0.50698 0.61779 0.48587 0.0
C4950 C 0.9189 0.29054 0.11375 0.0
C4951 C 0.90405 0.31126 0.12719 0.0
C4952 C 0.8853 0.27294 0.15967 0.0
C4953 C 0.89846 0.25201 0.14466 0.0
N4954 N 0.93753 0.24572 0.11523 0.0
N4955 N 0.88036 0.32105 0.1702 0.0
C4956 C 0.91799 0.26246 0.12394 0.0
C4957 C 0.88916 0.30186 0.15211 0.0
N4958 N 0.93411 0.29737 0.09069 0.0
N4959 N 0.87003 0.26537 0.18237 0.0
H4960 H 0.88569 0.34138 0.16751 0.0
H4961 H 0.87074 0.31698 0.18931 0.0
H4962 H 0.8717 0.24633 0.19104 0.0
H4963 H 0.85666 0.27775 0.19266 0.0
H4964 H 0.94258 0.28326 0.07737 0.0
H4965 H 0.93719 0.3173 0.08437 0.0
H4966 H 0.95376 0.25186 0.10246 0.0
H4967 H 0.93944 0.22666 0.12392 0.0
C4968 C 0.62186 0.74251 0.91734 0.0
C4969 C 0.63433 0.76392 0.90149 0.0
C4970 C 0.67207 0.73642 0.89099 0.0
C4971 C 0.65411 0.71476 0.89531 0.0
N4972 N 0.62626 0.69586 0.93201 0.0
N4973 N 0.67565 0.78486 0.88375 0.0
C4974 C 0.63478 0.71771 0.9167 0.0
C4975 C 0.66137 0.76232 0.89226 0.0
N4976 N 0.59732 0.7448 0.92979 0.0
N4977 N 0.69746 0.73168 0.88248 0.0
H4978 H 0.66806 0.80408 0.88586 0.0
H4979 H 0.69485 0.78451 0.87512 0.0
H4980 H 0.70378 0.71192 0.88046 0.0
H4981 H 0.71191 0.74682 0.87876 0.0
H4982 H 0.5868 0.7286 0.93922 0.0
H4983 H 0.58713 0.76267 0.92982 0.0
H4984 H 0.6121 0.6968 0.94831 0.0
H4985 H 0.63509 0.67731 0.92895 0.0
C4986 C 0.19516 0.46924 0.34266 0.0
C4987 C 0.17882 0.44632 0.35026 0.0
C4988 C 0.13959 0.47208 0.34018 0.0
C4989 C 0.15592 0.49573 0.33569 0.0
N4990 N 0.19899 0.51768 0.33989 0.0
N4991 N 0.13529 0.42639 0.35879 0.0
C4992 C 0.18362 0.49456 0.33897 0.0
C4993 C 0.15092 0.4479 0.34979 0.0
N4994 N 0.22173 0.46672 0.33745 0.0
N4995 N 0.11349 0.47242 0.33422 0.0
H4996 H 0.14311 0.40848 0.36558 0.0
H4997 H 0.11481 0.42698 0.36158 0.0
H4998 H 0.10478 0.48953 0.32667 0.0
H4999 H 0.10105 0.45529 0.33442 0.0
H5000 H 0.23399 0.48219 0.32896 0.0
H5001 H 0.23105 0.44842 0.33855 0.0
H5002 H 0.21866 0.51796 0.34541 0.0
H5003 H 0.19157 0.53684 0.33812 0.0
C5004 C 0.47444 0.35675 0.18067 0.0
C5005 C 0.46004 0.37584 0.16542 0.0
C5006 C 0.45416 0.3374 0.13103 0.0
C5007 C 0.46553 0.3178 0.14868 0.0
N5008 N 0.47813 0.31068 0.19598 0.0
N5009 N 0.43393 0.38159 0.12579 0.0
C5010 C 0.47262 0.32805 0.17526 0.0
C5011 C 0.44919 0.36519 0.14052 0.0
N5012 N 0.49188 0.36583 0.19948 0.0
N5013 N 0.44783 0.32952 0.10506 0.0
H5014 H 0.43055 0.4014 0.13187 0.0
H5015 H 0.42318 0.37506 0.10905 0.0
H5016 H 0.45017 0.30982 0.09812 0.0
H5017 H 0.44195 0.34277 0.08996 0.0
H5018 H 0.50289 0.35317 0.21123 0.0
H5019 H 0.4981 0.38589 0.20077 0.0
H5020 H 0.47982 0.31696 0.21647 0.0
H5021 H 0.47927 0.28997 0.19353 0.0
C5022 C 0.884 0.56024 0.66276 0.0
C5023 C 0.89146 0.57828 0.68433 0.0
C5024 C 0.91397 0.53896 0.70523 0.0
C5025 C 0.90259 0.52006 0.68632 0.0
N5026 N 0.87697 0.5144 0.64574 0.0
N5027 N 0.91341 0.58341 0.72717 0.0
C5028 C 0.88773 0.53137 0.66475 0.0
C5029 C 0.90656 0.56711 0.7057 0.0
N5030 N 0.87401 0.57084 0.63958 0.0
N5031 N 0.9321 0.53018 0.72293 0.0
H5032 H 0.9099 0.604 0.72744 0.0
H5033 H 0.92132 0.57643 0.74526 0.0
H5034 H 0.93793 0.51033 0.72332 0.0
H5035 H 0.94313 0.54293 0.7354 0.0
H5036 H 0.87039 0.55991 0.62168 0.0
H5037 H 0.8721 0.59143 0.6373 0.0
H5038 H 0.86247 0.52 0.63245 0.0
H5039 H 0.88204 0.49429 0.64379 0.0
loop_
_geom_bond_atom_site_label_1
_geom_bond_atom_site_label_2
_geom_bond_distance
_geom_bond_site_symmetry_2
_ccdc_geom_bond_type
Co0 O3 2.042 . S
Co0 O10 2.264 . S
Co0 O29 2.286 . S
Co0 O30 2.069 . S
Co0 O32 2.015 . S
Co1 O3 2.122 . S
Co1 O9 2.073 . S
Co1 O10 2.327 . S
Co1 O11 1.976 . S
Co2 O3 2.087 . S
Co2 O5 2.087 . S
Co2 O12 2.111 . S
Co2 O13 2.143 . S
Co2 O17 2.111 . S
Co2 O31 2.143 . S
O3 Co0 2.042 . S
O3 Co1 2.122 . S
O3 Co2 2.087 . S
O3 H4 0.980 . S
H4 O3 0.980 . S
O5 Co2 2.087 . S
O5 Co6 2.042 . S
O5 Co7 2.122 . S
O5 H8 0.980 . S
Co6 O5 2.042 . S
Co6 O14 2.286 . S
Co6 O15 2.069 . S
Co6 O16 2.015 . S
Co6 O19 2.264 . S
Co7 O5 2.122 . S
Co7 O18 1.976 . S
Co7 O19 2.327 . S
Co7 O20 2.073 . S
H8 O5 0.980 . S
O9 Co1 2.073 . S
O9 C24 1.245 . S
O10 Co0 2.264 . S
O10 Co1 2.327 . S
O10 C24 1.257 . S
O11 Co1 1.976 . S
O11 C23 1.251 . S
O12 Co2 2.111 . S
O12 C23 1.274 . S
O13 Co2 2.143 . S
O13 C26 1.246 . S
O14 Co6 2.286 . S
O14 C25 1.259 . S
O15 Co6 2.069 . S
O15 C25 1.289 . S
O16 Co6 2.015 . S
O16 C26 1.257 . S
O17 Co2 2.111 . S
O17 C27 1.274 . S
O18 Co7 1.976 . S
O18 C27 1.251 . S
O19 Co6 2.264 . S
O19 Co7 2.327 . S
O19 C28 1.257 . S
O20 Co7 2.073 . S
O20 C28 1.245 . S
C21 O29 1.259 . S
C21 O30 1.289 . S
C22 O31 1.246 . S
C22 O32 1.257 . S
C23 O11 1.251 . S
C23 O12 1.274 . S
C24 O9 1.245 . S
C24 O10 1.257 . S
C25 O14 1.259 . S
C25 O15 1.289 . S
C26 O13 1.246 . S
C26 O16 1.257 . S
C27 O17 1.274 . S
C27 O18 1.251 . S
C28 O19 1.257 . S
C28 O20 1.245 . S
O29 Co0 2.286 . S
O29 C21 1.259 . S
O30 Co0 2.069 . S
O30 C21 1.289 . S
O31 Co2 2.143 . S
O31 C22 1.246 . S
O32 Co0 2.015 . S
O32 C22 1.257 . S
Co33 O36 2.042 . S
Co33 O43 2.264 . S
Co33 O62 2.286 . S
Co33 O63 2.069 . S
Co33 O65 2.015 . S
Co34 O36 2.122 . S
Co34 O42 2.073 . S
Co34 O43 2.327 . S
Co34 O44 1.976 . S
Co35 O36 2.087 . S
Co35 O38 2.087 . S
Co35 O45 2.111 . S
Co35 O46 2.143 . S
Co35 O50 2.111 . S
Co35 O64 2.143 . S
O36 Co33 2.042 . S
O36 Co34 2.122 . S
O36 Co35 2.087 . S
O36 H37 0.980 . S
H37 O36 0.980 . S
O38 Co35 2.087 . S
O38 Co39 2.042 . S
O38 Co40 2.122 . S
O38 H41 0.980 . S
Co39 O38 2.042 . S
Co39 O47 2.286 . S
Co39 O48 2.069 . S
Co39 O49 2.015 . S
Co39 O52 2.264 . S
Co40 O38 2.122 . S
Co40 O51 1.976 . S
Co40 O52 2.327 . S
Co40 O53 2.073 . S
H41 O38 0.980 . S
O42 Co34 2.073 . S
O42 C57 1.245 . S
O43 Co33 2.264 . S
O43 Co34 2.327 . S
O43 C57 1.257 . S
O44 Co34 1.976 . S
O44 C56 1.251 . S
O45 Co35 2.111 . S
O45 C56 1.274 . S
O46 Co35 2.143 . S
O46 C59 1.246 . S
O47 Co39 2.286 . S
O47 C58 1.259 . S
O48 Co39 2.069 . S
O48 C58 1.289 . S
O49 Co39 2.015 . S
O49 C59 1.257 . S
O50 Co35 2.111 . S
O50 C60 1.274 . S
O51 Co40 1.976 . S
O51 C60 1.251 . S
O52 Co39 2.264 . S
O52 Co40 2.327 . S
O52 C61 1.257 . S
O53 Co40 2.073 . S
O53 C61 1.245 . S
C54 O62 1.259 . S
C54 O63 1.289 . S
C55 O64 1.246 . S
C55 O65 1.257 . S
C56 O44 1.251 . S
C56 O45 1.274 . S
C57 O42 1.245 . S
C57 O43 1.257 . S
C58 O47 1.259 . S
C58 O48 1.289 . S
C59 O46 1.246 . S
C59 O49 1.257 . S
C60 O50 1.274 . S
C60 O51 1.251 . S
C61 O52 1.257 . S
C61 O53 1.245 . S
O62 Co33 2.286 . S
O62 C54 1.259 . S
O63 Co33 2.069 . S
O63 C54 1.289 . S
O64 Co35 2.143 . S
O64 C55 1.246 . S
O65 Co33 2.015 . S
O65 C55 1.257 . S
Co66 O69 2.042 . S
Co66 O76 2.264 . S
Co66 O95 2.286 . S
Co66 O96 2.069 . S
Co66 O98 2.015 . S
Co67 O69 2.122 . S
Co67 O75 2.073 . S
Co67 O76 2.327 . S
Co67 O77 1.976 . S
Co68 O69 2.087 . S
Co68 O71 2.087 . S
Co68 O78 2.111 . S
Co68 O79 2.143 . S
Co68 O83 2.111 . S
Co68 O97 2.143 . S
O69 Co66 2.042 . S
O69 Co67 2.122 . S
O69 Co68 2.087 . S
O69 H70 0.980 . S
H70 O69 0.980 . S
O71 Co68 2.087 . S
O71 Co72 2.042 . S
O71 Co73 2.122 . S
O71 H74 0.980 . S
Co72 O71 2.042 . S
Co72 O80 2.286 . S
Co72 O81 2.069 . S
Co72 O82 2.015 . S
Co72 O85 2.264 . S
Co73 O71 2.122 . S
Co73 O84 1.976 . S
Co73 O85 2.327 . S
Co73 O86 2.073 . S
H74 O71 0.980 . S
O75 Co67 2.073 . S
O75 C90 1.245 . S
O76 Co66 2.264 . S
O76 Co67 2.327 . S
O76 C90 1.257 . S
O77 Co67 1.976 . S
O77 C89 1.251 . S
O78 Co68 2.111 . S
O78 C89 1.274 . S
O79 Co68 2.143 . S
O79 C92 1.246 . S
O80 Co72 2.286 . S
O80 C91 1.259 . S
O81 Co72 2.069 . S
O81 C91 1.289 . S
O82 Co72 2.015 . S
O82 C92 1.257 . S
O83 Co68 2.111 . S
O83 C93 1.274 . S
O84 Co73 1.976 . S
O84 C93 1.251 . S
O85 Co72 2.264 . S
O85 Co73 2.327 . S
O85 C94 1.257 . S
O86 Co73 2.073 . S
O86 C94 1.245 . S
C87 O95 1.259 . S
C87 O96 1.289 . S
C88 O97 1.246 . S
C88 O98 1.257 . S
C89 O77 1.251 . S
C89 O78 1.274 . S
C90 O75 1.245 . S
C90 O76 1.257 . S
C91 O80 1.259 . S
C91 O81 1.289 . S
C92 O79 1.246 . S
C92 O82 1.257 . S
C93 O83 1.274 . S
C93 O84 1.251 . S
C94 O85 1.257 . S
C94 O86 1.245 . S
O95 Co66 2.286 . S
O95 C87 1.259 . S
O96 Co66 2.069 . S
O96 C87 1.289 . S
O97 Co68 2.143 . S
O97 C88 1.246 . S
O98 Co66 2.015 . S
O98 C88 1.257 . S
Co99 O102 2.042 . S
Co99 O109 2.264 . S
Co99 O128 2.286 . S
Co99 O129 2.069 . S
Co99 O131 2.015 . S
Co100 O102 2.122 . S
Co100 O108 2.073 . S
Co100 O109 2.327 . S
Co100 O110 1.976 . S
Co101 O102 2.087 . S
Co101 O104 2.087 . S
Co101 O111 2.111 . S
Co101 O112 2.143 . S
Co101 O116 2.111 . S
Co101 O130 2.143 . S
O102 Co99 2.042 . S
O102 Co100 2.122 . S
O102 Co101 2.087 . S
O102 H103 0.980 . S
H103 O102 0.980 . S
O104 Co101 2.087 . S
O104 Co105 2.042 . S
O104 Co106 2.122 . S
O104 H107 0.980 . S
Co105 O104 2.042 . S
Co105 O113 2.286 . S
Co105 O114 2.069 . S
Co105 O115 2.015 . S
Co105 O118 2.264 . S
Co106 O104 2.122 . S
Co106 O117 1.976 . S
Co106 O118 2.327 . S
Co106 O119 2.073 . S
H107 O104 0.980 . S
O108 Co100 2.073 . S
O108 C123 1.245 . S
O109 Co99 2.264 . S
O109 Co100 2.327 . S
O109 C123 1.257 . S
O110 Co100 1.976 . S
O110 C122 1.251 . S
O111 Co101 2.111 . S
O111 C122 1.274 . S
O112 Co101 2.143 . S
O112 C125 1.246 . S
O113 Co105 2.286 . S
O113 C124 1.259 . S
O114 Co105 2.069 . S
O114 C124 1.289 . S
O115 Co105 2.015 . S
O115 C125 1.257 . S
O116 Co101 2.111 . S
O116 C126 1.274 . S
O117 Co106 1.976 . S
O117 C126 1.251 . S
O118 Co105 2.264 . S
O118 Co106 2.327 . S
O118 C127 1.257 . S
O119 Co106 2.073 . S
O119 C127 1.245 . S
C120 O128 1.259 . S
C120 O129 1.289 . S
C121 O130 1.246 . S
C121 O131 1.257 . S
C122 O110 1.251 . S
C122 O111 1.274 . S
C123 O108 1.245 . S
C123 O109 1.257 . S
C124 O113 1.259 . S
C124 O114 1.289 . S
C125 O112 1.246 . S
C125 O115 1.257 . S
C126 O116 1.274 . S
C126 O117 1.251 . S
C127 O118 1.257 . S
C127 O119 1.245 . S
O128 Co99 2.286 . S
O128 C120 1.259 . S
O129 Co99 2.069 . S
O129 C120 1.289 . S
O130 Co101 2.143 . S
O130 C121 1.246 . S
O131 Co99 2.015 . S
O131 C121 1.257 . S
Co132 O135 2.042 . S
Co132 O142 2.264 . S
Co132 O161 2.286 . S
Co132 O162 2.069 . S
Co132 O164 2.015 . S
Co133 O135 2.122 . S
Co133 O141 2.073 . S
Co133 O142 2.327 . S
Co133 O143 1.976 . S
Co134 O135 2.087 . S
Co134 O137 2.087 . S
Co134 O144 2.111 . S
Co134 O145 2.143 . S
Co134 O149 2.111 . S
Co134 O163 2.143 . S
O135 Co132 2.042 . S
O135 Co133 2.122 . S
O135 Co134 2.087 . S
O135 H136 0.980 . S
H136 O135 0.980 . S
O137 Co134 2.087 . S
O137 Co138 2.042 . S
O137 Co139 2.122 . S
O137 H140 0.980 . S
Co138 O137 2.042 . S
Co138 O146 2.286 . S
Co138 O147 2.069 . S
Co138 O148 2.015 . S
Co138 O151 2.264 . S
Co139 O137 2.122 . S
Co139 O150 1.976 . S
Co139 O151 2.327 . S
Co139 O152 2.073 . S
H140 O137 0.980 . S
O141 Co133 2.073 . S
O141 C156 1.245 . S
O142 Co132 2.264 . S
O142 Co133 2.327 . S
O142 C156 1.257 . S
O143 Co133 1.976 . S
O143 C155 1.251 . S
O144 Co134 2.111 . S
O144 C155 1.274 . S
O145 Co134 2.143 . S
O145 C158 1.246 . S
O146 Co138 2.286 . S
O146 C157 1.259 1_545 S
O147 Co138 2.069 . S
O147 C157 1.289 1_545 S
O148 Co138 2.015 . S
O148 C158 1.257 . S
O149 Co134 2.111 . S
O149 C159 1.274 . S
O150 Co139 1.976 . S
O150 C159 1.251 . S
O151 Co138 2.264 . S
O151 Co139 2.327 . S
O151 C160 1.257 . S
O152 Co139 2.073 . S
O152 C160 1.245 . S
C153 O161 1.259 . S
C153 O162 1.289 . S
C154 O163 1.246 . S
C154 O164 1.257 . S
C155 O143 1.251 . S
C155 O144 1.274 . S
C156 O141 1.245 . S
C156 O142 1.257 . S
C157 O146 1.259 1_565 S
C157 O147 1.289 1_565 S
C158 O145 1.246 . S
C158 O148 1.257 . S
C159 O149 1.274 . S
C159 O150 1.251 . S
C160 O151 1.257 . S
C160 O152 1.245 . S
O161 Co132 2.286 . S
O161 C153 1.259 . S
O162 Co132 2.069 . S
O162 C153 1.289 . S
O163 Co134 2.143 . S
O163 C154 1.246 . S
O164 Co132 2.015 . S
O164 C154 1.257 . S
Co165 O168 2.042 . S
Co165 O175 2.264 . S
Co165 O194 2.286 . S
Co165 O195 2.069 . S
Co165 O197 2.015 . S
Co166 O168 2.122 . S
Co166 O174 2.073 . S
Co166 O175 2.327 . S
Co166 O176 1.976 . S
Co167 O168 2.087 . S
Co167 O170 2.087 . S
Co167 O177 2.111 . S
Co167 O178 2.143 . S
Co167 O182 2.111 . S
Co167 O196 2.143 . S
O168 Co165 2.042 . S
O168 Co166 2.122 . S
O168 Co167 2.087 . S
O168 H169 0.980 . S
H169 O168 0.980 . S
O170 Co167 2.087 . S
O170 Co171 2.042 . S
O170 Co172 2.122 . S
O170 H173 0.980 . S
Co171 O170 2.042 . S
Co171 O179 2.286 . S
Co171 O180 2.069 . S
Co171 O181 2.015 . S
Co171 O184 2.264 . S
Co172 O170 2.122 . S
Co172 O183 1.976 . S
Co172 O184 2.327 . S
Co172 O185 2.073 . S
H173 O170 0.980 . S
O174 Co166 2.073 . S
O174 C189 1.245 . S
O175 Co165 2.264 . S
O175 Co166 2.327 . S
O175 C189 1.257 . S
O176 Co166 1.976 . S
O176 C188 1.251 . S
O177 Co167 2.111 . S
O177 C188 1.274 . S
O178 Co167 2.143 . S
O178 C191 1.246 . S
O179 Co171 2.286 . S
O179 C190 1.259 . S
O180 Co171 2.069 . S
O180 C190 1.289 . S
O181 Co171 2.015 . S
O181 C191 1.257 . S
O182 Co167 2.111 . S
O182 C192 1.274 . S
O183 Co172 1.976 . S
O183 C192 1.251 . S
O184 Co171 2.264 . S
O184 Co172 2.327 . S
O184 C193 1.257 . S
O185 Co172 2.073 . S
O185 C193 1.245 . S
C186 O194 1.259 . S
C186 O195 1.289 . S
C187 O196 1.246 . S
C187 O197 1.257 . S
C188 O176 1.251 . S
C188 O177 1.274 . S
C189 O174 1.245 . S
C189 O175 1.257 . S
C190 O179 1.259 . S
C190 O180 1.289 . S
C191 O178 1.246 . S
C191 O181 1.257 . S
C192 O182 1.274 . S
C192 O183 1.251 . S
C193 O184 1.257 . S
C193 O185 1.245 . S
O194 Co165 2.286 . S
O194 C186 1.259 . S
O195 Co165 2.069 . S
O195 C186 1.289 . S
O196 Co167 2.143 . S
O196 C187 1.246 . S
O197 Co165 2.015 . S
O197 C187 1.257 . S
Co198 O201 2.042 . S
Co198 O208 2.264 . S
Co198 O227 2.286 . S
Co198 O228 2.069 . S
Co198 O230 2.015 . S
Co199 O201 2.122 . S
Co199 O207 2.073 . S
Co199 O208 2.327 . S
Co199 O209 1.976 . S
Co200 O201 2.087 . S
Co200 O203 2.087 . S
Co200 O210 2.111 . S
Co200 O211 2.143 . S
Co200 O215 2.111 . S
Co200 O229 2.143 . S
O201 Co198 2.042 . S
O201 Co199 2.122 . S
O201 Co200 2.087 . S
O201 H202 0.980 . S
H202 O201 0.980 . S
O203 Co200 2.087 . S
O203 Co204 2.042 . S
O203 Co205 2.122 . S
O203 H206 0.980 . S
Co204 O203 2.042 . S
Co204 O212 2.286 . S
Co204 O213 2.069 . S
Co204 O214 2.015 . S
Co204 O217 2.264 . S
Co205 O203 2.122 . S
Co205 O216 1.976 . S
Co205 O217 2.327 . S
Co205 O218 2.073 . S
H206 O203 0.980 . S
O207 Co199 2.073 . S
O207 C222 1.245 . S
O208 Co198 2.264 . S
O208 Co199 2.327 . S
O208 C222 1.257 . S
O209 Co199 1.976 . S
O209 C221 1.251 . S
O210 Co200 2.111 . S
O210 C221 1.274 . S
O211 Co200 2.143 . S
O211 C224 1.246 . S
O212 Co204 2.286 . S
O212 C223 1.259 1_545 S
O213 Co204 2.069 . S
O213 C223 1.289 1_545 S
O214 Co204 2.015 . S
O214 C224 1.257 . S
O215 Co200 2.111 . S
O215 C225 1.274 . S
O216 Co205 1.976 . S
O216 C225 1.251 . S
O217 Co204 2.264 . S
O217 Co205 2.327 . S
O217 C226 1.257 . S
O218 Co205 2.073 . S
O218 C226 1.245 . S
C219 O227 1.259 . S
C219 O228 1.289 . S
C220 O229 1.246 . S
C220 O230 1.257 . S
C221 O209 1.251 . S
C221 O210 1.274 . S
C222 O207 1.245 . S
C222 O208 1.257 . S
C223 O212 1.259 1_565 S
C223 O213 1.289 1_565 S
C224 O211 1.246 . S
C224 O214 1.257 . S
C225 O215 1.274 . S
C225 O216 1.251 . S
C226 O217 1.257 . S
C226 O218 1.245 . S
O227 Co198 2.286 . S
O227 C219 1.259 . S
O228 Co198 2.069 . S
O228 C219 1.289 . S
O229 Co200 2.143 . S
O229 C220 1.246 . S
O230 Co198 2.015 . S
O230 C220 1.257 . S
Co231 O234 2.042 . S
Co231 O241 2.264 . S
Co231 O260 2.286 . S
Co231 O261 2.069 . S
Co231 O263 2.015 . S
Co232 O234 2.122 . S
Co232 O240 2.073 . S
Co232 O241 2.327 . S
Co232 O242 1.976 . S
Co233 O234 2.087 . S
Co233 O236 2.087 . S
Co233 O243 2.111 . S
Co233 O244 2.143 . S
Co233 O248 2.111 . S
Co233 O262 2.143 . S
O234 Co231 2.042 . S
O234 Co232 2.122 . S
O234 Co233 2.087 . S
O234 H235 0.980 . S
H235 O234 0.980 . S
O236 Co233 2.087 . S
O236 Co237 2.042 . S
O236 Co238 2.122 . S
O236 H239 0.980 . S
Co237 O236 2.042 . S
Co237 O245 2.286 . S
Co237 O246 2.069 . S
Co237 O247 2.015 . S
Co237 O250 2.264 . S
Co238 O236 2.122 . S
Co238 O249 1.976 . S
Co238 O250 2.327 . S
Co238 O251 2.073 . S
H239 O236 0.980 . S
O240 Co232 2.073 . S
O240 C255 1.245 . S
O241 Co231 2.264 . S
O241 Co232 2.327 . S
O241 C255 1.257 . S
O242 Co232 1.976 . S
O242 C254 1.251 . S
O243 Co233 2.111 . S
O243 C254 1.274 . S
O244 Co233 2.143 . S
O244 C257 1.246 . S
O245 Co237 2.286 . S
O245 C256 1.259 . S
O246 Co237 2.069 . S
O246 C256 1.289 . S
O247 Co237 2.015 . S
O247 C257 1.257 . S
O248 Co233 2.111 . S
O248 C258 1.274 . S
O249 Co238 1.976 . S
O249 C258 1.251 . S
O250 Co237 2.264 . S
O250 Co238 2.327 . S
O250 C259 1.257 . S
O251 Co238 2.073 . S
O251 C259 1.245 . S
C252 O260 1.259 . S
C252 O261 1.289 . S
C253 O262 1.246 . S
C253 O263 1.257 . S
C254 O242 1.251 . S
C254 O243 1.274 . S
C255 O240 1.245 . S
C255 O241 1.257 . S
C256 O245 1.259 . S
C256 O246 1.289 . S
C257 O244 1.246 . S
C257 O247 1.257 . S
C258 O248 1.274 . S
C258 O249 1.251 . S
C259 O250 1.257 . S
C259 O251 1.245 . S
O260 Co231 2.286 . S
O260 C252 1.259 . S
O261 Co231 2.069 . S
O261 C252 1.289 . S
O262 Co233 2.143 . S
O262 C253 1.246 . S
O263 Co231 2.015 . S
O263 C253 1.257 . S
Co264 O267 2.042 . S
Co264 O274 2.264 . S
Co264 O293 2.286 . S
Co264 O294 2.069 . S
Co264 O296 2.015 . S
Co265 O267 2.122 . S
Co265 O273 2.073 . S
Co265 O274 2.327 . S
Co265 O275 1.976 . S
Co266 O267 2.087 . S
Co266 O269 2.087 . S
Co266 O276 2.111 . S
Co266 O277 2.143 . S
Co266 O281 2.111 . S
Co266 O295 2.143 . S
O267 Co264 2.042 . S
O267 Co265 2.122 . S
O267 Co266 2.087 . S
O267 H268 0.980 . S
H268 O267 0.980 . S
O269 Co266 2.087 . S
O269 Co270 2.042 . S
O269 Co271 2.122 . S
O269 H272 0.980 . S
Co270 O269 2.042 . S
Co270 O278 2.286 . S
Co270 O279 2.069 . S
Co270 O280 2.015 . S
Co270 O283 2.264 . S
Co271 O269 2.122 . S
Co271 O282 1.976 . S
Co271 O283 2.327 . S
Co271 O284 2.073 . S
H272 O269 0.980 . S
O273 Co265 2.073 . S
O273 C288 1.245 . S
O274 Co264 2.264 . S
O274 Co265 2.327 . S
O274 C288 1.257 . S
O275 Co265 1.976 . S
O275 C287 1.251 . S
O276 Co266 2.111 . S
O276 C287 1.274 . S
O277 Co266 2.143 . S
O277 C290 1.246 . S
O278 Co270 2.286 . S
O278 C289 1.259 . S
O279 Co270 2.069 . S
O279 C289 1.289 . S
O280 Co270 2.015 . S
O280 C290 1.257 . S
O281 Co266 2.111 . S
O281 C291 1.274 . S
O282 Co271 1.976 . S
O282 C291 1.251 . S
O283 Co270 2.264 . S
O283 Co271 2.327 . S
O283 C292 1.257 . S
O284 Co271 2.073 . S
O284 C292 1.245 . S
C285 O293 1.259 . S
C285 O294 1.289 . S
C286 O295 1.246 . S
C286 O296 1.257 . S
C287 O275 1.251 . S
C287 O276 1.274 . S
C288 O273 1.245 . S
C288 O274 1.257 . S
C289 O278 1.259 . S
C289 O279 1.289 . S
C290 O277 1.246 . S
C290 O280 1.257 . S
C291 O281 1.274 . S
C291 O282 1.251 . S
C292 O283 1.257 . S
C292 O284 1.245 . S
O293 Co264 2.286 . S
O293 C285 1.259 . S
O294 Co264 2.069 . S
O294 C285 1.289 . S
O295 Co266 2.143 . S
O295 C286 1.246 . S
O296 Co264 2.015 . S
O296 C286 1.257 . S
Co297 O300 2.042 . S
Co297 O307 2.264 . S
Co297 O326 2.286 . S
Co297 O327 2.069 . S
Co297 O329 2.015 . S
Co298 O300 2.122 . S
Co298 O306 2.073 . S
Co298 O307 2.327 . S
Co298 O308 1.976 . S
Co299 O300 2.087 . S
Co299 O302 2.087 . S
Co299 O309 2.111 . S
Co299 O310 2.143 . S
Co299 O314 2.111 . S
Co299 O328 2.143 . S
O300 Co297 2.042 . S
O300 Co298 2.122 . S
O300 Co299 2.087 . S
O300 H301 0.980 . S
H301 O300 0.980 . S
O302 Co299 2.087 . S
O302 Co303 2.042 . S
O302 Co304 2.122 . S
O302 H305 0.980 . S
Co303 O302 2.042 . S
Co303 O311 2.286 . S
Co303 O312 2.069 . S
Co303 O313 2.015 . S
Co303 O316 2.264 . S
Co304 O302 2.122 . S
Co304 O315 1.976 . S
Co304 O316 2.327 . S
Co304 O317 2.073 . S
H305 O302 0.980 . S
O306 Co298 2.073 . S
O306 C321 1.245 . S
O307 Co297 2.264 . S
O307 Co298 2.327 . S
O307 C321 1.257 . S
O308 Co298 1.976 . S
O308 C320 1.251 . S
O309 Co299 2.111 . S
O309 C320 1.274 . S
O310 Co299 2.143 . S
O310 C323 1.246 . S
O311 Co303 2.286 . S
O311 C322 1.259 . S
O312 Co303 2.069 . S
O312 C322 1.289 . S
O313 Co303 2.015 . S
O313 C323 1.257 . S
O314 Co299 2.111 . S
O314 C324 1.274 . S
O315 Co304 1.976 . S
O315 C324 1.251 . S
O316 Co303 2.264 . S
O316 Co304 2.327 . S
O316 C325 1.257 . S
O317 Co304 2.073 . S
O317 C325 1.245 . S
C318 O326 1.259 . S
C318 O327 1.289 . S
C319 O328 1.246 . S
C319 O329 1.257 . S
C320 O308 1.251 . S
C320 O309 1.274 . S
C321 O306 1.245 . S
C321 O307 1.257 . S
C322 O311 1.259 . S
C322 O312 1.289 . S
C323 O310 1.246 . S
C323 O313 1.257 . S
C324 O314 1.274 . S
C324 O315 1.251 . S
C325 O316 1.257 . S
C325 O317 1.245 . S
O326 Co297 2.286 . S
O326 C318 1.259 . S
O327 Co297 2.069 . S
O327 C318 1.289 . S
O328 Co299 2.143 . S
O328 C319 1.246 . S
O329 Co297 2.015 . S
O329 C319 1.257 . S
Co330 O333 2.042 . S
Co330 O340 2.264 . S
Co330 O359 2.286 . S
Co330 O360 2.069 . S
Co330 O362 2.015 . S
Co331 O333 2.122 . S
Co331 O339 2.073 . S
Co331 O340 2.327 . S
Co331 O341 1.976 . S
Co332 O333 2.087 . S
Co332 O335 2.087 . S
Co332 O342 2.111 . S
Co332 O343 2.143 . S
Co332 O347 2.111 . S
Co332 O361 2.143 . S
O333 Co330 2.042 . S
O333 Co331 2.122 . S
O333 Co332 2.087 . S
O333 H334 0.980 . S
H334 O333 0.980 . S
O335 Co332 2.087 . S
O335 Co336 2.042 . S
O335 Co337 2.122 . S
O335 H338 0.980 . S
Co336 O335 2.042 . S
Co336 O344 2.286 . S
Co336 O345 2.069 . S
Co336 O346 2.015 . S
Co336 O349 2.264 . S
Co337 O335 2.122 . S
Co337 O348 1.976 . S
Co337 O349 2.327 . S
Co337 O350 2.073 . S
H338 O335 0.980 . S
O339 Co331 2.073 . S
O339 C354 1.245 . S
O340 Co330 2.264 . S
O340 Co331 2.327 . S
O340 C354 1.257 . S
O341 Co331 1.976 . S
O341 C353 1.251 . S
O342 Co332 2.111 . S
O342 C353 1.274 . S
O343 Co332 2.143 . S
O343 C356 1.246 . S
O344 Co336 2.286 . S
O344 C355 1.259 . S
O345 Co336 2.069 . S
O345 C355 1.289 . S
O346 Co336 2.015 . S
O346 C356 1.257 . S
O347 Co332 2.111 . S
O347 C357 1.274 . S
O348 Co337 1.976 . S
O348 C357 1.251 . S
O349 Co336 2.264 . S
O349 Co337 2.327 . S
O349 C358 1.257 . S
O350 Co337 2.073 . S
O350 C358 1.245 . S
C351 O359 1.259 . S
C351 O360 1.289 . S
C352 O361 1.246 . S
C352 O362 1.257 . S
C353 O341 1.251 . S
C353 O342 1.274 . S
C354 O339 1.245 . S
C354 O340 1.257 . S
C355 O344 1.259 . S
C355 O345 1.289 . S
C356 O343 1.246 . S
C356 O346 1.257 . S
C357 O347 1.274 . S
C357 O348 1.251 . S
C358 O349 1.257 . S
C358 O350 1.245 . S
O359 Co330 2.286 . S
O359 C351 1.259 . S
O360 Co330 2.069 . S
O360 C351 1.289 . S
O361 Co332 2.143 . S
O361 C352 1.246 . S
O362 Co330 2.015 . S
O362 C352 1.257 . S
Co363 O366 2.042 . S
Co363 O373 2.264 . S
Co363 O392 2.286 . S
Co363 O393 2.069 . S
Co363 O395 2.015 . S
Co364 O366 2.122 . S
Co364 O372 2.073 . S
Co364 O373 2.327 . S
Co364 O374 1.976 . S
Co365 O366 2.087 . S
Co365 O368 2.087 . S
Co365 O375 2.111 . S
Co365 O376 2.143 . S
Co365 O380 2.111 . S
Co365 O394 2.143 . S
O366 Co363 2.042 . S
O366 Co364 2.122 . S
O366 Co365 2.087 . S
O366 H367 0.980 . S
H367 O366 0.980 . S
O368 Co365 2.087 . S
O368 Co369 2.042 . S
O368 Co370 2.122 . S
O368 H371 0.980 . S
Co369 O368 2.042 . S
Co369 O377 2.286 . S
Co369 O378 2.069 . S
Co369 O379 2.015 . S
Co369 O382 2.264 . S
Co370 O368 2.122 . S
Co370 O381 1.976 . S
Co370 O382 2.327 . S
Co370 O383 2.073 . S
H371 O368 0.980 . S
O372 Co364 2.073 . S
O372 C387 1.245 . S
O373 Co363 2.264 . S
O373 Co364 2.327 . S
O373 C387 1.257 . S
O374 Co364 1.976 . S
O374 C386 1.251 . S
O375 Co365 2.111 . S
O375 C386 1.274 . S
O376 Co365 2.143 . S
O376 C389 1.246 . S
O377 Co369 2.286 . S
O377 C388 1.259 . S
O378 Co369 2.069 . S
O378 C388 1.289 . S
O379 Co369 2.015 . S
O379 C389 1.257 . S
O380 Co365 2.111 . S
O380 C390 1.274 . S
O381 Co370 1.976 . S
O381 C390 1.251 . S
O382 Co369 2.264 . S
O382 Co370 2.327 . S
O382 C391 1.257 . S
O383 Co370 2.073 . S
O383 C391 1.245 . S
C384 O392 1.259 . S
C384 O393 1.289 . S
C385 O394 1.246 . S
C385 O395 1.257 . S
C386 O374 1.251 . S
C386 O375 1.274 . S
C387 O372 1.245 . S
C387 O373 1.257 . S
C388 O377 1.259 . S
C388 O378 1.289 . S
C389 O376 1.246 . S
C389 O379 1.257 . S
C390 O380 1.274 . S
C390 O381 1.251 . S
C391 O382 1.257 . S
C391 O383 1.245 . S
O392 Co363 2.286 . S
O392 C384 1.259 . S
O393 Co363 2.069 . S
O393 C384 1.289 . S
O394 Co365 2.143 . S
O394 C385 1.246 . S
O395 Co363 2.015 . S
O395 C385 1.257 . S
Co396 O399 2.042 . S
Co396 O406 2.264 . S
Co396 O425 2.286 . S
Co396 O426 2.069 . S
Co396 O428 2.015 . S
Co397 O399 2.122 . S
Co397 O405 2.073 . S
Co397 O406 2.327 . S
Co397 O407 1.976 . S
Co398 O399 2.087 . S
Co398 O401 2.087 . S
Co398 O408 2.111 . S
Co398 O409 2.143 . S
Co398 O413 2.111 . S
Co398 O427 2.143 . S
O399 Co396 2.042 . S
O399 Co397 2.122 . S
O399 Co398 2.087 . S
O399 H400 0.980 . S
H400 O399 0.980 . S
O401 Co398 2.087 . S
O401 Co402 2.042 . S
O401 Co403 2.122 . S
O401 H404 0.980 . S
Co402 O401 2.042 . S
Co402 O410 2.286 . S
Co402 O411 2.069 . S
Co402 O412 2.015 . S
Co402 O415 2.264 . S
Co403 O401 2.122 . S
Co403 O414 1.976 . S
Co403 O415 2.327 . S
Co403 O416 2.073 . S
H404 O401 0.980 . S
O405 Co397 2.073 . S
O405 C420 1.245 . S
O406 Co396 2.264 . S
O406 Co397 2.327 . S
O406 C420 1.257 . S
O407 Co397 1.976 . S
O407 C419 1.251 . S
O408 Co398 2.111 . S
O408 C419 1.274 . S
O409 Co398 2.143 . S
O409 C422 1.246 . S
O410 Co402 2.286 . S
O410 C421 1.259 . S
O411 Co402 2.069 . S
O411 C421 1.289 . S
O412 Co402 2.015 . S
O412 C422 1.257 . S
O413 Co398 2.111 . S
O413 C423 1.274 . S
O414 Co403 1.976 . S
O414 C423 1.251 . S
O415 Co402 2.264 . S
O415 Co403 2.327 . S
O415 C424 1.257 . S
O416 Co403 2.073 . S
O416 C424 1.245 . S
C417 O425 1.259 . S
C417 O426 1.289 . S
C418 O427 1.246 . S
C418 O428 1.257 . S
C419 O407 1.251 . S
C419 O408 1.274 . S
C420 O405 1.245 . S
C420 O406 1.257 . S
C421 O410 1.259 . S
C421 O411 1.289 . S
C422 O409 1.246 . S
C422 O412 1.257 . S
C423 O413 1.274 . S
C423 O414 1.251 . S
C424 O415 1.257 . S
C424 O416 1.245 . S
O425 Co396 2.286 . S
O425 C417 1.259 . S
O426 Co396 2.069 . S
O426 C417 1.289 . S
O427 Co398 2.143 . S
O427 C418 1.246 . S
O428 Co396 2.015 . S
O428 C418 1.257 . S
Co429 O432 2.042 . S
Co429 O439 2.264 . S
Co429 O458 2.286 . S
Co429 O459 2.069 . S
Co429 O461 2.015 . S
Co430 O432 2.122 . S
Co430 O438 2.073 . S
Co430 O439 2.327 . S
Co430 O440 1.976 . S
Co431 O432 2.087 . S
Co431 O434 2.087 . S
Co431 O441 2.111 . S
Co431 O442 2.143 . S
Co431 O446 2.111 . S
Co431 O460 2.143 . S
O432 Co429 2.042 . S
O432 Co430 2.122 . S
O432 Co431 2.087 . S
O432 H433 0.980 . S
H433 O432 0.980 . S
O434 Co431 2.087 . S
O434 Co435 2.042 . S
O434 Co436 2.122 . S
O434 H437 0.980 . S
Co435 O434 2.042 . S
Co435 O443 2.286 . S
Co435 O444 2.069 . S
Co435 O445 2.015 . S
Co435 O448 2.264 . S
Co436 O434 2.122 . S
Co436 O447 1.976 . S
Co436 O448 2.327 . S
Co436 O449 2.073 . S
H437 O434 0.980 . S
O438 Co430 2.073 . S
O438 C453 1.245 . S
O439 Co429 2.264 . S
O439 Co430 2.327 . S
O439 C453 1.257 . S
O440 Co430 1.976 . S
O440 C452 1.251 . S
O441 Co431 2.111 . S
O441 C452 1.274 . S
O442 Co431 2.143 . S
O442 C455 1.246 . S
O443 Co435 2.286 . S
O443 C454 1.259 . S
O444 Co435 2.069 . S
O444 C454 1.289 . S
O445 Co435 2.015 . S
O445 C455 1.257 . S
O446 Co431 2.111 . S
O446 C456 1.274 . S
O447 Co436 1.976 . S
O447 C456 1.251 . S
O448 Co435 2.264 . S
O448 Co436 2.327 . S
O448 C457 1.257 . S
O449 Co436 2.073 . S
O449 C457 1.245 . S
C450 O458 1.259 . S
C450 O459 1.289 . S
C451 O460 1.246 . S
C451 O461 1.257 . S
C452 O440 1.251 . S
C452 O441 1.274 . S
C453 O438 1.245 . S
C453 O439 1.257 . S
C454 O443 1.259 . S
C454 O444 1.289 . S
C455 O442 1.246 . S
C455 O445 1.257 . S
C456 O446 1.274 . S
C456 O447 1.251 . S
C457 O448 1.257 . S
C457 O449 1.245 . S
O458 Co429 2.286 . S
O458 C450 1.259 . S
O459 Co429 2.069 . S
O459 C450 1.289 . S
O460 Co431 2.143 . S
O460 C451 1.246 . S
O461 Co429 2.015 . S
O461 C451 1.257 . S
Co462 O465 2.042 . S
Co462 O472 2.264 . S
Co462 O491 2.286 . S
Co462 O492 2.069 . S
Co462 O494 2.015 . S
Co463 O465 2.122 . S
Co463 O471 2.073 . S
Co463 O472 2.327 . S
Co463 O473 1.976 . S
Co464 O465 2.087 . S
Co464 O467 2.087 . S
Co464 O474 2.111 . S
Co464 O475 2.143 . S
Co464 O479 2.111 . S
Co464 O493 2.143 . S
O465 Co462 2.042 . S
O465 Co463 2.122 . S
O465 Co464 2.087 . S
O465 H466 0.980 . S
H466 O465 0.980 . S
O467 Co464 2.087 . S
O467 Co468 2.042 . S
O467 Co469 2.122 . S
O467 H470 0.980 . S
Co468 O467 2.042 . S
Co468 O476 2.286 . S
Co468 O477 2.069 . S
Co468 O478 2.015 . S
Co468 O481 2.264 . S
Co469 O467 2.122 . S
Co469 O480 1.976 . S
Co469 O481 2.327 . S
Co469 O482 2.073 . S
H470 O467 0.980 . S
O471 Co463 2.073 . S
O471 C486 1.245 . S
O472 Co462 2.264 . S
O472 Co463 2.327 . S
O472 C486 1.257 . S
O473 Co463 1.976 . S
O473 C485 1.251 . S
O474 Co464 2.111 . S
O474 C485 1.274 . S
O475 Co464 2.143 . S
O475 C488 1.246 . S
O476 Co468 2.286 . S
O476 C487 1.259 . S
O477 Co468 2.069 . S
O477 C487 1.289 . S
O478 Co468 2.015 . S
O478 C488 1.257 . S
O479 Co464 2.111 . S
O479 C489 1.274 . S
O480 Co469 1.976 . S
O480 C489 1.251 . S
O481 Co468 2.264 . S
O481 Co469 2.327 . S
O481 C490 1.257 . S
O482 Co469 2.073 . S
O482 C490 1.245 . S
C483 O491 1.259 . S
C483 O492 1.289 . S
C484 O493 1.246 . S
C484 O494 1.257 . S
C485 O473 1.251 . S
C485 O474 1.274 . S
C486 O471 1.245 . S
C486 O472 1.257 . S
C487 O476 1.259 . S
C487 O477 1.289 . S
C488 O475 1.246 . S
C488 O478 1.257 . S
C489 O479 1.274 . S
C489 O480 1.251 . S
C490 O481 1.257 . S
C490 O482 1.245 . S
O491 Co462 2.286 . S
O491 C483 1.259 . S
O492 Co462 2.069 . S
O492 C483 1.289 . S
O493 Co464 2.143 . S
O493 C484 1.246 . S
O494 Co462 2.015 . S
O494 C484 1.257 . S
Co495 O498 2.042 . S
Co495 O505 2.264 . S
Co495 O524 2.286 . S
Co495 O525 2.069 . S
Co495 O527 2.015 . S
Co496 O498 2.122 . S
Co496 O504 2.073 . S
Co496 O505 2.327 . S
Co496 O506 1.976 . S
Co497 O498 2.087 . S
Co497 O500 2.087 . S
Co497 O507 2.111 . S
Co497 O508 2.143 . S
Co497 O512 2.111 . S
Co497 O526 2.143 . S
O498 Co495 2.042 . S
O498 Co496 2.122 . S
O498 Co497 2.087 . S
O498 H499 0.980 . S
H499 O498 0.980 . S
O500 Co497 2.087 . S
O500 Co501 2.042 . S
O500 Co502 2.122 . S
O500 H503 0.980 . S
Co501 O500 2.042 . S
Co501 O509 2.286 . S
Co501 O510 2.069 . S
Co501 O511 2.015 . S
Co501 O514 2.264 . S
Co502 O500 2.122 . S
Co502 O513 1.976 . S
Co502 O514 2.327 . S
Co502 O515 2.073 . S
H503 O500 0.980 . S
O504 Co496 2.073 . S
O504 C519 1.245 . S
O505 Co495 2.264 . S
O505 Co496 2.327 . S
O505 C519 1.257 . S
O506 Co496 1.976 . S
O506 C518 1.251 . S
O507 Co497 2.111 . S
O507 C518 1.274 . S
O508 Co497 2.143 . S
O508 C521 1.246 . S
O509 Co501 2.286 . S
O509 C520 1.259 . S
O510 Co501 2.069 . S
O510 C520 1.289 . S
O511 Co501 2.015 . S
O511 C521 1.257 . S
O512 Co497 2.111 . S
O512 C522 1.274 . S
O513 Co502 1.976 . S
O513 C522 1.251 . S
O514 Co501 2.264 . S
O514 Co502 2.327 . S
O514 C523 1.257 . S
O515 Co502 2.073 . S
O515 C523 1.245 . S
C516 O524 1.259 . S
C516 O525 1.289 . S
C517 O526 1.246 . S
C517 O527 1.257 . S
C518 O506 1.251 . S
C518 O507 1.274 . S
C519 O504 1.245 . S
C519 O505 1.257 . S
C520 O509 1.259 . S
C520 O510 1.289 . S
C521 O508 1.246 . S
C521 O511 1.257 . S
C522 O512 1.274 . S
C522 O513 1.251 . S
C523 O514 1.257 . S
C523 O515 1.245 . S
O524 Co495 2.286 . S
O524 C516 1.259 . S
O525 Co495 2.069 . S
O525 C516 1.289 . S
O526 Co497 2.143 . S
O526 C517 1.246 . S
O527 Co495 2.015 . S
O527 C517 1.257 . S
Co528 O531 2.042 . S
Co528 O538 2.264 . S
Co528 O557 2.286 . S
Co528 O558 2.069 . S
Co528 O560 2.015 . S
Co529 O531 2.122 . S
Co529 O537 2.073 . S
Co529 O538 2.327 . S
Co529 O539 1.976 . S
Co530 O531 2.087 . S
Co530 O533 2.087 . S
Co530 O540 2.111 . S
Co530 O541 2.143 . S
Co530 O545 2.111 . S
Co530 O559 2.143 . S
O531 Co528 2.042 . S
O531 Co529 2.122 . S
O531 Co530 2.087 . S
O531 H532 0.980 . S
H532 O531 0.980 . S
O533 Co530 2.087 . S
O533 Co534 2.042 . S
O533 Co535 2.122 . S
O533 H536 0.980 . S
Co534 O533 2.042 . S
Co534 O542 2.286 . S
Co534 O543 2.069 . S
Co534 O544 2.015 . S
Co534 O547 2.264 . S
Co535 O533 2.122 . S
Co535 O546 1.976 . S
Co535 O547 2.327 . S
Co535 O548 2.073 . S
H536 O533 0.980 . S
O537 Co529 2.073 . S
O537 C552 1.245 . S
O538 Co528 2.264 . S
O538 Co529 2.327 . S
O538 C552 1.257 . S
O539 Co529 1.976 . S
O539 C551 1.251 . S
O540 Co530 2.111 . S
O540 C551 1.274 . S
O541 Co530 2.143 . S
O541 C554 1.246 . S
O542 Co534 2.286 . S
O542 C553 1.259 . S
O543 Co534 2.069 . S
O543 C553 1.289 . S
O544 Co534 2.015 . S
O544 C554 1.257 . S
O545 Co530 2.111 . S
O545 C555 1.274 . S
O546 Co535 1.976 . S
O546 C555 1.251 . S
O547 Co534 2.264 . S
O547 Co535 2.327 . S
O547 C556 1.257 . S
O548 Co535 2.073 . S
O548 C556 1.245 . S
C549 O557 1.259 . S
C549 O558 1.289 . S
C550 O559 1.246 . S
C550 O560 1.257 . S
C551 O539 1.251 . S
C551 O540 1.274 . S
C552 O537 1.245 . S
C552 O538 1.257 . S
C553 O542 1.259 . S
C553 O543 1.289 . S
C554 O541 1.246 . S
C554 O544 1.257 . S
C555 O545 1.274 . S
C555 O546 1.251 . S
C556 O547 1.257 . S
C556 O548 1.245 . S
O557 Co528 2.286 . S
O557 C549 1.259 . S
O558 Co528 2.069 . S
O558 C549 1.289 . S
O559 Co530 2.143 . S
O559 C550 1.246 . S
O560 Co528 2.015 . S
O560 C550 1.257 . S
Co561 O564 2.042 . S
Co561 O571 2.264 . S
Co561 O590 2.286 . S
Co561 O591 2.069 . S
Co561 O593 2.015 . S
Co562 O564 2.122 . S
Co562 O570 2.073 . S
Co562 O571 2.327 . S
Co562 O572 1.976 . S
Co563 O564 2.087 . S
Co563 O566 2.087 . S
Co563 O573 2.111 . S
Co563 O574 2.143 . S
Co563 O578 2.111 . S
Co563 O592 2.143 . S
O564 Co561 2.042 . S
O564 Co562 2.122 . S
O564 Co563 2.087 . S
O564 H565 0.980 . S
H565 O564 0.980 . S
O566 Co563 2.087 . S
O566 Co567 2.042 . S
O566 Co568 2.122 . S
O566 H569 0.980 . S
Co567 O566 2.042 . S
Co567 O575 2.286 . S
Co567 O576 2.069 . S
Co567 O577 2.015 . S
Co567 O580 2.264 . S
Co568 O566 2.122 . S
Co568 O579 1.976 . S
Co568 O580 2.327 . S
Co568 O581 2.073 . S
H569 O566 0.980 . S
O570 Co562 2.073 . S
O570 C585 1.245 . S
O571 Co561 2.264 . S
O571 Co562 2.327 . S
O571 C585 1.257 . S
O572 Co562 1.976 . S
O572 C584 1.251 . S
O573 Co563 2.111 . S
O573 C584 1.274 . S
O574 Co563 2.143 . S
O574 C587 1.246 . S
O575 Co567 2.286 . S
O575 C586 1.259 . S
O576 Co567 2.069 . S
O576 C586 1.289 . S
O577 Co567 2.015 . S
O577 C587 1.257 . S
O578 Co563 2.111 . S
O578 C588 1.274 . S
O579 Co568 1.976 . S
O579 C588 1.251 . S
O580 Co567 2.264 . S
O580 Co568 2.327 . S
O580 C589 1.257 . S
O581 Co568 2.073 . S
O581 C589 1.245 . S
C582 O590 1.259 . S
C582 O591 1.289 . S
C583 O592 1.246 . S
C583 O593 1.257 . S
C584 O572 1.251 . S
C584 O573 1.274 . S
C585 O570 1.245 . S
C585 O571 1.257 . S
C586 O575 1.259 . S
C586 O576 1.289 . S
C587 O574 1.246 . S
C587 O577 1.257 . S
C588 O578 1.274 . S
C588 O579 1.251 . S
C589 O580 1.257 . S
C589 O581 1.245 . S
O590 Co561 2.286 . S
O590 C582 1.259 . S
O591 Co561 2.069 . S
O591 C582 1.289 . S
O592 Co563 2.143 . S
O592 C583 1.246 . S
O593 Co561 2.015 . S
O593 C583 1.257 . S
Co594 O597 2.042 . S
Co594 O604 2.264 . S
Co594 O623 2.286 . S
Co594 O624 2.069 . S
Co594 O626 2.015 . S
Co595 O597 2.122 . S
Co595 O603 2.073 . S
Co595 O604 2.327 . S
Co595 O605 1.976 . S
Co596 O597 2.087 . S
Co596 O599 2.087 . S
Co596 O606 2.111 . S
Co596 O607 2.143 . S
Co596 O611 2.111 . S
Co596 O625 2.143 . S
O597 Co594 2.042 . S
O597 Co595 2.122 . S
O597 Co596 2.087 . S
O597 H598 0.980 . S
H598 O597 0.980 . S
O599 Co596 2.087 . S
O599 Co600 2.042 . S
O599 Co601 2.122 . S
O599 H602 0.980 . S
Co600 O599 2.042 . S
Co600 O608 2.286 . S
Co600 O609 2.069 . S
Co600 O610 2.015 . S
Co600 O613 2.264 . S
Co601 O599 2.122 . S
Co601 O612 1.976 . S
Co601 O613 2.327 . S
Co601 O614 2.073 . S
H602 O599 0.980 . S
O603 Co595 2.073 . S
O603 C618 1.245 . S
O604 Co594 2.264 . S
O604 Co595 2.327 . S
O604 C618 1.257 . S
O605 Co595 1.976 . S
O605 C617 1.251 . S
O606 Co596 2.111 . S
O606 C617 1.274 . S
O607 Co596 2.143 . S
O607 C620 1.246 . S
O608 Co600 2.286 . S
O608 C619 1.259 . S
O609 Co600 2.069 . S
O609 C619 1.289 . S
O610 Co600 2.015 . S
O610 C620 1.257 . S
O611 Co596 2.111 . S
O611 C621 1.274 . S
O612 Co601 1.976 . S
O612 C621 1.251 . S
O613 Co600 2.264 . S
O613 Co601 2.327 . S
O613 C622 1.257 . S
O614 Co601 2.073 . S
O614 C622 1.245 . S
C615 O623 1.259 . S
C615 O624 1.289 . S
C616 O625 1.246 . S
C616 O626 1.257 . S
C617 O605 1.251 . S
C617 O606 1.274 . S
C618 O603 1.245 . S
C618 O604 1.257 . S
C619 O608 1.259 . S
C619 O609 1.289 . S
C620 O607 1.246 . S
C620 O610 1.257 . S
C621 O611 1.274 . S
C621 O612 1.251 . S
C622 O613 1.257 . S
C622 O614 1.245 . S
O623 Co594 2.286 . S
O623 C615 1.259 . S
O624 Co594 2.069 . S
O624 C615 1.289 . S
O625 Co596 2.143 . S
O625 C616 1.246 . S
O626 Co594 2.015 . S
O626 C616 1.257 . S
Co627 O630 2.042 . S
Co627 O637 2.264 . S
Co627 O656 2.286 . S
Co627 O657 2.069 . S
Co627 O659 2.015 . S
Co628 O630 2.122 . S
Co628 O636 2.073 . S
Co628 O637 2.327 . S
Co628 O638 1.976 . S
Co629 O630 2.087 . S
Co629 O632 2.087 . S
Co629 O639 2.111 . S
Co629 O640 2.143 . S
Co629 O644 2.111 . S
Co629 O658 2.143 . S
O630 Co627 2.042 . S
O630 Co628 2.122 . S
O630 Co629 2.087 . S
O630 H631 0.980 . S
H631 O630 0.980 . S
O632 Co629 2.087 . S
O632 Co633 2.042 . S
O632 Co634 2.122 . S
O632 H635 0.980 . S
Co633 O632 2.042 . S
Co633 O641 2.286 . S
Co633 O642 2.069 . S
Co633 O643 2.015 . S
Co633 O646 2.264 . S
Co634 O632 2.122 . S
Co634 O645 1.976 . S
Co634 O646 2.327 . S
Co634 O647 2.073 . S
H635 O632 0.980 . S
O636 Co628 2.073 . S
O636 C651 1.245 . S
O637 Co627 2.264 . S
O637 Co628 2.327 . S
O637 C651 1.257 . S
O638 Co628 1.976 . S
O638 C650 1.251 . S
O639 Co629 2.111 . S
O639 C650 1.274 . S
O640 Co629 2.143 . S
O640 C653 1.246 . S
O641 Co633 2.286 . S
O641 C652 1.259 . S
O642 Co633 2.069 . S
O642 C652 1.289 . S
O643 Co633 2.015 . S
O643 C653 1.257 . S
O644 Co629 2.111 . S
O644 C654 1.274 . S
O645 Co634 1.976 . S
O645 C654 1.251 . S
O646 Co633 2.264 . S
O646 Co634 2.327 . S
O646 C655 1.257 . S
O647 Co634 2.073 . S
O647 C655 1.245 . S
C648 O656 1.259 . S
C648 O657 1.289 . S
C649 O658 1.246 . S
C649 O659 1.257 . S
C650 O638 1.251 . S
C650 O639 1.274 . S
C651 O636 1.245 . S
C651 O637 1.257 . S
C652 O641 1.259 . S
C652 O642 1.289 . S
C653 O640 1.246 . S
C653 O643 1.257 . S
C654 O644 1.274 . S
C654 O645 1.251 . S
C655 O646 1.257 . S
C655 O647 1.245 . S
O656 Co627 2.286 . S
O656 C648 1.259 . S
O657 Co627 2.069 . S
O657 C648 1.289 . S
O658 Co629 2.143 . S
O658 C649 1.246 . S
O659 Co627 2.015 . S
O659 C649 1.257 . S
Co660 O663 2.042 . S
Co660 O670 2.264 . S
Co660 O689 2.286 . S
Co660 O690 2.069 . S
Co660 O692 2.015 . S
Co661 O663 2.122 . S
Co661 O669 2.073 . S
Co661 O670 2.327 . S
Co661 O671 1.976 . S
Co662 O663 2.087 . S
Co662 O665 2.087 . S
Co662 O672 2.111 . S
Co662 O673 2.143 . S
Co662 O677 2.111 . S
Co662 O691 2.143 . S
O663 Co660 2.042 . S
O663 Co661 2.122 . S
O663 Co662 2.087 . S
O663 H664 0.980 . S
H664 O663 0.980 . S
O665 Co662 2.087 . S
O665 Co666 2.042 . S
O665 Co667 2.122 . S
O665 H668 0.980 . S
Co666 O665 2.042 . S
Co666 O674 2.286 . S
Co666 O675 2.069 . S
Co666 O676 2.015 . S
Co666 O679 2.264 . S
Co667 O665 2.122 . S
Co667 O678 1.976 . S
Co667 O679 2.327 . S
Co667 O680 2.073 . S
H668 O665 0.980 . S
O669 Co661 2.073 . S
O669 C684 1.245 . S
O670 Co660 2.264 . S
O670 Co661 2.327 . S
O670 C684 1.257 . S
O671 Co661 1.976 . S
O671 C683 1.251 . S
O672 Co662 2.111 . S
O672 C683 1.274 . S
O673 Co662 2.143 . S
O673 C686 1.246 . S
O674 Co666 2.286 . S
O674 C685 1.259 . S
O675 Co666 2.069 . S
O675 C685 1.289 . S
O676 Co666 2.015 . S
O676 C686 1.257 . S
O677 Co662 2.111 . S
O677 C687 1.274 . S
O678 Co667 1.976 . S
O678 C687 1.251 . S
O679 Co666 2.264 . S
O679 Co667 2.327 . S
O679 C688 1.257 . S
O680 Co667 2.073 . S
O680 C688 1.245 . S
C681 O689 1.259 . S
C681 O690 1.289 . S
C682 O691 1.246 . S
C682 O692 1.257 . S
C683 O671 1.251 . S
C683 O672 1.274 . S
C684 O669 1.245 . S
C684 O670 1.257 . S
C685 O674 1.259 . S
C685 O675 1.289 . S
C686 O673 1.246 . S
C686 O676 1.257 . S
C687 O677 1.274 . S
C687 O678 1.251 . S
C688 O679 1.257 . S
C688 O680 1.245 . S
O689 Co660 2.286 . S
O689 C681 1.259 . S
O690 Co660 2.069 . S
O690 C681 1.289 . S
O691 Co662 2.143 . S
O691 C682 1.246 . S
O692 Co660 2.015 . S
O692 C682 1.257 . S
Co693 O696 2.042 . S
Co693 O703 2.264 . S
Co693 O722 2.286 . S
Co693 O723 2.069 . S
Co693 O725 2.015 . S
Co694 O696 2.122 . S
Co694 O702 2.073 . S
Co694 O703 2.327 . S
Co694 O704 1.976 . S
Co695 O696 2.087 . S
Co695 O698 2.087 . S
Co695 O705 2.111 . S
Co695 O706 2.143 . S
Co695 O710 2.111 . S
Co695 O724 2.143 . S
O696 Co693 2.042 . S
O696 Co694 2.122 . S
O696 Co695 2.087 . S
O696 H697 0.980 . S
H697 O696 0.980 . S
O698 Co695 2.087 . S
O698 Co699 2.042 . S
O698 Co700 2.122 . S
O698 H701 0.980 . S
Co699 O698 2.042 . S
Co699 O707 2.286 . S
Co699 O708 2.069 . S
Co699 O709 2.015 . S
Co699 O712 2.264 . S
Co700 O698 2.122 . S
Co700 O711 1.976 . S
Co700 O712 2.327 . S
Co700 O713 2.073 . S
H701 O698 0.980 . S
O702 Co694 2.073 . S
O702 C717 1.245 . S
O703 Co693 2.264 . S
O703 Co694 2.327 . S
O703 C717 1.257 . S
O704 Co694 1.976 . S
O704 C716 1.251 . S
O705 Co695 2.111 . S
O705 C716 1.274 . S
O706 Co695 2.143 . S
O706 C719 1.246 . S
O707 Co699 2.286 . S
O707 C718 1.259 . S
O708 Co699 2.069 . S
O708 C718 1.289 . S
O709 Co699 2.015 . S
O709 C719 1.257 . S
O710 Co695 2.111 . S
O710 C720 1.274 . S
O711 Co700 1.976 . S
O711 C720 1.251 . S
O712 Co699 2.264 . S
O712 Co700 2.327 . S
O712 C721 1.257 . S
O713 Co700 2.073 . S
O713 C721 1.245 . S
C714 O722 1.259 . S
C714 O723 1.289 . S
C715 O724 1.246 . S
C715 O725 1.257 . S
C716 O704 1.251 . S
C716 O705 1.274 . S
C717 O702 1.245 . S
C717 O703 1.257 . S
C718 O707 1.259 . S
C718 O708 1.289 . S
C719 O706 1.246 . S
C719 O709 1.257 . S
C720 O710 1.274 . S
C720 O711 1.251 . S
C721 O712 1.257 . S
C721 O713 1.245 . S
O722 Co693 2.286 . S
O722 C714 1.259 . S
O723 Co693 2.069 . S
O723 C714 1.289 . S
O724 Co695 2.143 . S
O724 C715 1.246 . S
O725 Co693 2.015 . S
O725 C715 1.257 . S
Co726 O729 2.042 . S
Co726 O736 2.264 . S
Co726 O755 2.286 . S
Co726 O756 2.069 . S
Co726 O758 2.015 . S
Co727 O729 2.122 . S
Co727 O735 2.073 . S
Co727 O736 2.327 . S
Co727 O737 1.976 . S
Co728 O729 2.087 . S
Co728 O731 2.087 . S
Co728 O738 2.111 . S
Co728 O739 2.143 . S
Co728 O743 2.111 . S
Co728 O757 2.143 . S
O729 Co726 2.042 . S
O729 Co727 2.122 . S
O729 Co728 2.087 . S
O729 H730 0.980 . S
H730 O729 0.980 . S
O731 Co728 2.087 . S
O731 Co732 2.042 . S
O731 Co733 2.122 . S
O731 H734 0.980 . S
Co732 O731 2.042 . S
Co732 O740 2.286 . S
Co732 O741 2.069 . S
Co732 O742 2.015 . S
Co732 O745 2.264 . S
Co733 O731 2.122 . S
Co733 O744 1.976 . S
Co733 O745 2.327 . S
Co733 O746 2.073 . S
H734 O731 0.980 . S
O735 Co727 2.073 . S
O735 C750 1.245 . S
O736 Co726 2.264 . S
O736 Co727 2.327 . S
O736 C750 1.257 . S
O737 Co727 1.976 . S
O737 C749 1.251 . S
O738 Co728 2.111 . S
O738 C749 1.274 . S
O739 Co728 2.143 . S
O739 C752 1.246 . S
O740 Co732 2.286 . S
O740 C751 1.259 . S
O741 Co732 2.069 . S
O741 C751 1.289 . S
O742 Co732 2.015 . S
O742 C752 1.257 . S
O743 Co728 2.111 . S
O743 C753 1.274 . S
O744 Co733 1.976 . S
O744 C753 1.251 . S
O745 Co732 2.264 . S
O745 Co733 2.327 . S
O745 C754 1.257 . S
O746 Co733 2.073 . S
O746 C754 1.245 . S
C747 O755 1.259 . S
C747 O756 1.289 . S
C748 O757 1.246 . S
C748 O758 1.257 . S
C749 O737 1.251 . S
C749 O738 1.274 . S
C750 O735 1.245 . S
C750 O736 1.257 . S
C751 O740 1.259 . S
C751 O741 1.289 . S
C752 O739 1.246 . S
C752 O742 1.257 . S
C753 O743 1.274 . S
C753 O744 1.251 . S
C754 O745 1.257 . S
C754 O746 1.245 . S
O755 Co726 2.286 . S
O755 C747 1.259 . S
O756 Co726 2.069 . S
O756 C747 1.289 . S
O757 Co728 2.143 . S
O757 C748 1.246 . S
O758 Co726 2.015 . S
O758 C748 1.257 . S
Co759 O762 2.042 . S
Co759 O769 2.264 . S
Co759 O788 2.286 . S
Co759 O789 2.069 . S
Co759 O791 2.015 . S
Co760 O762 2.122 . S
Co760 O768 2.073 . S
Co760 O769 2.327 . S
Co760 O770 1.976 . S
Co761 O762 2.087 . S
Co761 O764 2.087 . S
Co761 O771 2.111 . S
Co761 O772 2.143 . S
Co761 O776 2.111 . S
Co761 O790 2.143 . S
O762 Co759 2.042 . S
O762 Co760 2.122 . S
O762 Co761 2.087 . S
O762 H763 0.980 . S
H763 O762 0.980 . S
O764 Co761 2.087 . S
O764 Co765 2.042 . S
O764 Co766 2.122 . S
O764 H767 0.980 . S
Co765 O764 2.042 . S
Co765 O773 2.286 . S
Co765 O774 2.069 . S
Co765 O775 2.015 . S
Co765 O778 2.264 . S
Co766 O764 2.122 . S
Co766 O777 1.976 . S
Co766 O778 2.327 . S
Co766 O779 2.073 . S
H767 O764 0.980 . S
O768 Co760 2.073 . S
O768 C783 1.245 . S
O769 Co759 2.264 . S
O769 Co760 2.327 . S
O769 C783 1.257 . S
O770 Co760 1.976 . S
O770 C782 1.251 . S
O771 Co761 2.111 . S
O771 C782 1.274 . S
O772 Co761 2.143 . S
O772 C785 1.246 . S
O773 Co765 2.286 . S
O773 C784 1.259 . S
O774 Co765 2.069 . S
O774 C784 1.289 . S
O775 Co765 2.015 . S
O775 C785 1.257 . S
O776 Co761 2.111 . S
O776 C786 1.274 . S
O777 Co766 1.976 . S
O777 C786 1.251 . S
O778 Co765 2.264 . S
O778 Co766 2.327 . S
O778 C787 1.257 . S
O779 Co766 2.073 . S
O779 C787 1.245 . S
C780 O788 1.259 . S
C780 O789 1.289 . S
C781 O790 1.246 . S
C781 O791 1.257 . S
C782 O770 1.251 . S
C782 O771 1.274 . S
C783 O768 1.245 . S
C783 O769 1.257 . S
C784 O773 1.259 . S
C784 O774 1.289 . S
C785 O772 1.246 . S
C785 O775 1.257 . S
C786 O776 1.274 . S
C786 O777 1.251 . S
C787 O778 1.257 . S
C787 O779 1.245 . S
O788 Co759 2.286 . S
O788 C780 1.259 . S
O789 Co759 2.069 . S
O789 C780 1.289 . S
O790 Co761 2.143 . S
O790 C781 1.246 . S
O791 Co759 2.015 . S
O791 C781 1.257 . S
Co792 O795 2.042 . S
Co792 O802 2.264 . S
Co792 O821 2.286 . S
Co792 O822 2.069 . S
Co792 O824 2.015 . S
Co793 O795 2.122 . S
Co793 O801 2.073 . S
Co793 O802 2.327 . S
Co793 O803 1.976 . S
Co794 O795 2.087 . S
Co794 O797 2.087 . S
Co794 O804 2.111 . S
Co794 O805 2.143 . S
Co794 O809 2.111 . S
Co794 O823 2.143 . S
O795 Co792 2.042 . S
O795 Co793 2.122 . S
O795 Co794 2.087 . S
O795 H796 0.980 . S
H796 O795 0.980 . S
O797 Co794 2.087 . S
O797 Co798 2.042 . S
O797 Co799 2.122 . S
O797 H800 0.980 . S
Co798 O797 2.042 . S
Co798 O806 2.286 . S
Co798 O807 2.069 . S
Co798 O808 2.015 . S
Co798 O811 2.264 . S
Co799 O797 2.122 . S
Co799 O810 1.976 . S
Co799 O811 2.327 . S
Co799 O812 2.073 . S
H800 O797 0.980 . S
O801 Co793 2.073 . S
O801 C816 1.245 . S
O802 Co792 2.264 . S
O802 Co793 2.327 . S
O802 C816 1.257 . S
O803 Co793 1.976 . S
O803 C815 1.251 . S
O804 Co794 2.111 . S
O804 C815 1.274 . S
O805 Co794 2.143 . S
O805 C818 1.246 . S
O806 Co798 2.286 . S
O806 C817 1.259 . S
O807 Co798 2.069 . S
O807 C817 1.289 . S
O808 Co798 2.015 . S
O808 C818 1.257 . S
O809 Co794 2.111 . S
O809 C819 1.274 . S
O810 Co799 1.976 . S
O810 C819 1.251 . S
O811 Co798 2.264 . S
O811 Co799 2.327 . S
O811 C820 1.257 . S
O812 Co799 2.073 . S
O812 C820 1.245 . S
C813 O821 1.259 . S
C813 O822 1.289 . S
C814 O823 1.246 . S
C814 O824 1.257 . S
C815 O803 1.251 . S
C815 O804 1.274 . S
C816 O801 1.245 . S
C816 O802 1.257 . S
C817 O806 1.259 . S
C817 O807 1.289 . S
C818 O805 1.246 . S
C818 O808 1.257 . S
C819 O809 1.274 . S
C819 O810 1.251 . S
C820 O811 1.257 . S
C820 O812 1.245 . S
O821 Co792 2.286 . S
O821 C813 1.259 . S
O822 Co792 2.069 . S
O822 C813 1.289 . S
O823 Co794 2.143 . S
O823 C814 1.246 . S
O824 Co792 2.015 . S
O824 C814 1.257 . S
Co825 O828 2.042 . S
Co825 O835 2.264 . S
Co825 O854 2.286 . S
Co825 O855 2.069 . S
Co825 O857 2.015 . S
Co826 O828 2.122 . S
Co826 O834 2.073 . S
Co826 O835 2.327 . S
Co826 O836 1.976 . S
Co827 O828 2.087 . S
Co827 O830 2.087 . S
Co827 O837 2.111 . S
Co827 O838 2.143 . S
Co827 O842 2.111 . S
Co827 O856 2.143 . S
O828 Co825 2.042 . S
O828 Co826 2.122 . S
O828 Co827 2.087 . S
O828 H829 0.980 . S
H829 O828 0.980 . S
O830 Co827 2.087 . S
O830 Co831 2.042 . S
O830 Co832 2.122 . S
O830 H833 0.980 . S
Co831 O830 2.042 . S
Co831 O839 2.286 . S
Co831 O840 2.069 . S
Co831 O841 2.015 . S
Co831 O844 2.264 . S
Co832 O830 2.122 . S
Co832 O843 1.976 . S
Co832 O844 2.327 . S
Co832 O845 2.073 . S
H833 O830 0.980 . S
O834 Co826 2.073 . S
O834 C849 1.245 . S
O835 Co825 2.264 . S
O835 Co826 2.327 . S
O835 C849 1.257 . S
O836 Co826 1.976 . S
O836 C848 1.251 . S
O837 Co827 2.111 . S
O837 C848 1.274 . S
O838 Co827 2.143 . S
O838 C851 1.246 . S
O839 Co831 2.286 . S
O839 C850 1.259 . S
O840 Co831 2.069 . S
O840 C850 1.289 . S
O841 Co831 2.015 . S
O841 C851 1.257 . S
O842 Co827 2.111 . S
O842 C852 1.274 . S
O843 Co832 1.976 . S
O843 C852 1.251 . S
O844 Co831 2.264 . S
O844 Co832 2.327 . S
O844 C853 1.257 . S
O845 Co832 2.073 . S
O845 C853 1.245 . S
C846 O854 1.259 . S
C846 O855 1.289 . S
C847 O856 1.246 . S
C847 O857 1.257 . S
C848 O836 1.251 . S
C848 O837 1.274 . S
C849 O834 1.245 . S
C849 O835 1.257 . S
C850 O839 1.259 . S
C850 O840 1.289 . S
C851 O838 1.246 . S
C851 O841 1.257 . S
C852 O842 1.274 . S
C852 O843 1.251 . S
C853 O844 1.257 . S
C853 O845 1.245 . S
O854 Co825 2.286 . S
O854 C846 1.259 . S
O855 Co825 2.069 . S
O855 C846 1.289 . S
O856 Co827 2.143 . S
O856 C847 1.246 . S
O857 Co825 2.015 . S
O857 C847 1.257 . S
Co858 O861 2.042 . S
Co858 O868 2.264 . S
Co858 O887 2.286 . S
Co858 O888 2.069 . S
Co858 O890 2.015 . S
Co859 O861 2.122 . S
Co859 O867 2.073 . S
Co859 O868 2.327 . S
Co859 O869 1.976 . S
Co860 O861 2.087 . S
Co860 O863 2.087 . S
Co860 O870 2.111 . S
Co860 O871 2.143 . S
Co860 O875 2.111 . S
Co860 O889 2.143 . S
O861 Co858 2.042 . S
O861 Co859 2.122 . S
O861 Co860 2.087 . S
O861 H862 0.980 . S
H862 O861 0.980 . S
O863 Co860 2.087 . S
O863 Co864 2.042 . S
O863 Co865 2.122 . S
O863 H866 0.980 . S
Co864 O863 2.042 . S
Co864 O872 2.286 . S
Co864 O873 2.069 . S
Co864 O874 2.015 . S
Co864 O877 2.264 . S
Co865 O863 2.122 . S
Co865 O876 1.976 . S
Co865 O877 2.327 . S
Co865 O878 2.073 . S
H866 O863 0.980 . S
O867 Co859 2.073 . S
O867 C882 1.245 . S
O868 Co858 2.264 . S
O868 Co859 2.327 . S
O868 C882 1.257 . S
O869 Co859 1.976 . S
O869 C881 1.251 . S
O870 Co860 2.111 . S
O870 C881 1.274 . S
O871 Co860 2.143 . S
O871 C884 1.246 . S
O872 Co864 2.286 . S
O872 C883 1.259 . S
O873 Co864 2.069 . S
O873 C883 1.289 . S
O874 Co864 2.015 . S
O874 C884 1.257 . S
O875 Co860 2.111 . S
O875 C885 1.274 . S
O876 Co865 1.976 . S
O876 C885 1.251 . S
O877 Co864 2.264 . S
O877 Co865 2.327 . S
O877 C886 1.257 . S
O878 Co865 2.073 . S
O878 C886 1.245 . S
C879 O887 1.259 . S
C879 O888 1.289 . S
C880 O889 1.246 . S
C880 O890 1.257 . S
C881 O869 1.251 . S
C881 O870 1.274 . S
C882 O867 1.245 . S
C882 O868 1.257 . S
C883 O872 1.259 . S
C883 O873 1.289 . S
C884 O871 1.246 . S
C884 O874 1.257 . S
C885 O875 1.274 . S
C885 O876 1.251 . S
C886 O877 1.257 . S
C886 O878 1.245 . S
O887 Co858 2.286 . S
O887 C879 1.259 . S
O888 Co858 2.069 . S
O888 C879 1.289 . S
O889 Co860 2.143 . S
O889 C880 1.246 . S
O890 Co858 2.015 . S
O890 C880 1.257 . S
Co891 O894 2.042 . S
Co891 O901 2.264 . S
Co891 O920 2.286 . S
Co891 O921 2.069 . S
Co891 O923 2.015 . S
Co892 O894 2.122 . S
Co892 O900 2.073 . S
Co892 O901 2.327 . S
Co892 O902 1.976 . S
Co893 O894 2.087 . S
Co893 O896 2.087 . S
Co893 O903 2.111 . S
Co893 O904 2.143 . S
Co893 O908 2.111 . S
Co893 O922 2.143 . S
O894 Co891 2.042 . S
O894 Co892 2.122 . S
O894 Co893 2.087 . S
O894 H895 0.980 . S
H895 O894 0.980 . S
O896 Co893 2.087 . S
O896 Co897 2.042 . S
O896 Co898 2.122 . S
O896 H899 0.980 . S
Co897 O896 2.042 . S
Co897 O905 2.286 . S
Co897 O906 2.069 . S
Co897 O907 2.015 . S
Co897 O910 2.264 . S
Co898 O896 2.122 . S
Co898 O909 1.976 . S
Co898 O910 2.327 . S
Co898 O911 2.073 . S
H899 O896 0.980 . S
O900 Co892 2.073 . S
O900 C915 1.245 . S
O901 Co891 2.264 . S
O901 Co892 2.327 . S
O901 C915 1.257 . S
O902 Co892 1.976 . S
O902 C914 1.251 . S
O903 Co893 2.111 . S
O903 C914 1.274 . S
O904 Co893 2.143 . S
O904 C917 1.246 . S
O905 Co897 2.286 . S
O905 C916 1.259 . S
O906 Co897 2.069 . S
O906 C916 1.289 . S
O907 Co897 2.015 . S
O907 C917 1.257 . S
O908 Co893 2.111 . S
O908 C918 1.274 . S
O909 Co898 1.976 . S
O909 C918 1.251 . S
O910 Co897 2.264 . S
O910 Co898 2.327 . S
O910 C919 1.257 . S
O911 Co898 2.073 . S
O911 C919 1.245 . S
C912 O920 1.259 . S
C912 O921 1.289 . S
C913 O922 1.246 . S
C913 O923 1.257 . S
C914 O902 1.251 . S
C914 O903 1.274 . S
C915 O900 1.245 . S
C915 O901 1.257 . S
C916 O905 1.259 . S
C916 O906 1.289 . S
C917 O904 1.246 . S
C917 O907 1.257 . S
C918 O908 1.274 . S
C918 O909 1.251 . S
C919 O910 1.257 . S
C919 O911 1.245 . S
O920 Co891 2.286 . S
O920 C912 1.259 . S
O921 Co891 2.069 . S
O921 C912 1.289 . S
O922 Co893 2.143 . S
O922 C913 1.246 . S
O923 Co891 2.015 . S
O923 C913 1.257 . S
Co924 O927 2.042 . S
Co924 O934 2.264 . S
Co924 O953 2.286 . S
Co924 O954 2.069 . S
Co924 O956 2.015 . S
Co925 O927 2.122 . S
Co925 O933 2.073 . S
Co925 O934 2.327 . S
Co925 O935 1.976 . S
Co926 O927 2.087 . S
Co926 O929 2.087 . S
Co926 O936 2.111 . S
Co926 O937 2.143 . S
Co926 O941 2.111 . S
Co926 O955 2.143 . S
O927 Co924 2.042 . S
O927 Co925 2.122 . S
O927 Co926 2.087 . S
O927 H928 0.980 . S
H928 O927 0.980 . S
O929 Co926 2.087 . S
O929 Co930 2.042 . S
O929 Co931 2.122 . S
O929 H932 0.980 . S
Co930 O929 2.042 . S
Co930 O938 2.286 . S
Co930 O939 2.069 . S
Co930 O940 2.015 . S
Co930 O943 2.264 . S
Co931 O929 2.122 . S
Co931 O942 1.976 . S
Co931 O943 2.327 . S
Co931 O944 2.073 . S
H932 O929 0.980 . S
O933 Co925 2.073 . S
O933 C948 1.245 . S
O934 Co924 2.264 . S
O934 Co925 2.327 . S
O934 C948 1.257 . S
O935 Co925 1.976 . S
O935 C947 1.251 . S
O936 Co926 2.111 . S
O936 C947 1.274 . S
O937 Co926 2.143 . S
O937 C950 1.246 . S
O938 Co930 2.286 . S
O938 C949 1.259 . S
O939 Co930 2.069 . S
O939 C949 1.289 . S
O940 Co930 2.015 . S
O940 C950 1.257 . S
O941 Co926 2.111 . S
O941 C951 1.274 . S
O942 Co931 1.976 . S
O942 C951 1.251 . S
O943 Co930 2.264 . S
O943 Co931 2.327 . S
O943 C952 1.257 . S
O944 Co931 2.073 . S
O944 C952 1.245 . S
C945 O953 1.259 . S
C945 O954 1.289 . S
C946 O955 1.246 . S
C946 O956 1.257 . S
C947 O935 1.251 . S
C947 O936 1.274 . S
C948 O933 1.245 . S
C948 O934 1.257 . S
C949 O938 1.259 . S
C949 O939 1.289 . S
C950 O937 1.246 . S
C950 O940 1.257 . S
C951 O941 1.274 . S
C951 O942 1.251 . S
C952 O943 1.257 . S
C952 O944 1.245 . S
O953 Co924 2.286 . S
O953 C945 1.259 . S
O954 Co924 2.069 . S
O954 C945 1.289 . S
O955 Co926 2.143 . S
O955 C946 1.246 . S
O956 Co924 2.015 . S
O956 C946 1.257 . S
Co957 O960 2.042 . S
Co957 O967 2.264 . S
Co957 O986 2.286 . S
Co957 O987 2.069 . S
Co957 O989 2.015 . S
Co958 O960 2.122 . S
Co958 O966 2.073 . S
Co958 O967 2.327 . S
Co958 O968 1.976 . S
Co959 O960 2.087 . S
Co959 O962 2.087 . S
Co959 O969 2.111 . S
Co959 O970 2.143 . S
Co959 O974 2.111 . S
Co959 O988 2.143 . S
O960 Co957 2.042 . S
O960 Co958 2.122 . S
O960 Co959 2.087 . S
O960 H961 0.980 . S
H961 O960 0.980 . S
O962 Co959 2.087 . S
O962 Co963 2.042 . S
O962 Co964 2.122 . S
O962 H965 0.980 . S
Co963 O962 2.042 . S
Co963 O971 2.286 . S
Co963 O972 2.069 . S
Co963 O973 2.015 . S
Co963 O976 2.264 . S
Co964 O962 2.122 . S
Co964 O975 1.976 . S
Co964 O976 2.327 . S
Co964 O977 2.073 . S
H965 O962 0.980 . S
O966 Co958 2.073 . S
O966 C981 1.245 . S
O967 Co957 2.264 . S
O967 Co958 2.327 . S
O967 C981 1.257 . S
O968 Co958 1.976 . S
O968 C980 1.251 . S
O969 Co959 2.111 . S
O969 C980 1.274 . S
O970 Co959 2.143 . S
O970 C983 1.246 . S
O971 Co963 2.286 . S
O971 C982 1.259 . S
O972 Co963 2.069 . S
O972 C982 1.289 . S
O973 Co963 2.015 . S
O973 C983 1.257 . S
O974 Co959 2.111 . S
O974 C984 1.274 . S
O975 Co964 1.976 . S
O975 C984 1.251 . S
O976 Co963 2.264 . S
O976 Co964 2.327 . S
O976 C985 1.257 . S
O977 Co964 2.073 . S
O977 C985 1.245 . S
C978 O986 1.259 . S
C978 O987 1.289 . S
C979 O988 1.246 . S
C979 O989 1.257 . S
C980 O968 1.251 . S
C980 O969 1.274 . S
C981 O966 1.245 . S
C981 O967 1.257 . S
C982 O971 1.259 . S
C982 O972 1.289 . S
C983 O970 1.246 . S
C983 O973 1.257 . S
C984 O974 1.274 . S
C984 O975 1.251 . S
C985 O976 1.257 . S
C985 O977 1.245 . S
O986 Co957 2.286 . S
O986 C978 1.259 . S
O987 Co957 2.069 . S
O987 C978 1.289 . S
O988 Co959 2.143 . S
O988 C979 1.246 . S
O989 Co957 2.015 . S
O989 C979 1.257 . S
Co990 O993 2.042 . S
Co990 O1000 2.264 . S
Co990 O1019 2.286 . S
Co990 O1020 2.069 . S
Co990 O1022 2.015 . S
Co991 O993 2.122 . S
Co991 O999 2.073 . S
Co991 O1000 2.327 . S
Co991 O1001 1.976 . S
Co992 O993 2.087 . S
Co992 O995 2.087 . S
Co992 O1002 2.111 . S
Co992 O1003 2.143 . S
Co992 O1007 2.111 . S
Co992 O1021 2.143 . S
O993 Co990 2.042 . S
O993 Co991 2.122 . S
O993 Co992 2.087 . S
O993 H994 0.980 . S
H994 O993 0.980 . S
O995 Co992 2.087 . S
O995 Co996 2.042 . S
O995 Co997 2.122 . S
O995 H998 0.980 . S
Co996 O995 2.042 . S
Co996 O1004 2.286 . S
Co996 O1005 2.069 . S
Co996 O1006 2.015 . S
Co996 O1009 2.264 . S
Co997 O995 2.122 . S
Co997 O1008 1.976 . S
Co997 O1009 2.327 . S
Co997 O1010 2.073 . S
H998 O995 0.980 . S
O999 Co991 2.073 . S
O999 C1014 1.245 . S
O1000 Co990 2.264 . S
O1000 Co991 2.327 . S
O1000 C1014 1.257 . S
O1001 Co991 1.976 . S
O1001 C1013 1.251 . S
O1002 Co992 2.111 . S
O1002 C1013 1.274 . S
O1003 Co992 2.143 . S
O1003 C1016 1.246 . S
O1004 Co996 2.286 . S
O1004 C1015 1.259 . S
O1005 Co996 2.069 . S
O1005 C1015 1.289 . S
O1006 Co996 2.015 . S
O1006 C1016 1.257 . S
O1007 Co992 2.111 . S
O1007 C1017 1.274 . S
O1008 Co997 1.976 . S
O1008 C1017 1.251 . S
O1009 Co996 2.264 . S
O1009 Co997 2.327 . S
O1009 C1018 1.257 . S
O1010 Co997 2.073 . S
O1010 C1018 1.245 . S
C1011 O1019 1.259 . S
C1011 O1020 1.289 . S
C1012 O1021 1.246 . S
C1012 O1022 1.257 . S
C1013 O1001 1.251 . S
C1013 O1002 1.274 . S
C1014 O999 1.245 . S
C1014 O1000 1.257 . S
C1015 O1004 1.259 . S
C1015 O1005 1.289 . S
C1016 O1003 1.246 . S
C1016 O1006 1.257 . S
C1017 O1007 1.274 . S
C1017 O1008 1.251 . S
C1018 O1009 1.257 . S
C1018 O1010 1.245 . S
O1019 Co990 2.286 . S
O1019 C1011 1.259 . S
O1020 Co990 2.069 . S
O1020 C1011 1.289 . S
O1021 Co992 2.143 . S
O1021 C1012 1.246 . S
O1022 Co990 2.015 . S
O1022 C1012 1.257 . S
Co1023 O1026 2.042 . S
Co1023 O1033 2.264 . S
Co1023 O1052 2.286 . S
Co1023 O1053 2.069 . S
Co1023 O1055 2.015 . S
Co1024 O1026 2.122 . S
Co1024 O1032 2.073 . S
Co1024 O1033 2.327 . S
Co1024 O1034 1.976 . S
Co1025 O1026 2.087 . S
Co1025 O1028 2.087 . S
Co1025 O1035 2.111 . S
Co1025 O1036 2.143 . S
Co1025 O1040 2.111 . S
Co1025 O1054 2.143 . S
O1026 Co1023 2.042 . S
O1026 Co1024 2.122 . S
O1026 Co1025 2.087 . S
O1026 H1027 0.980 . S
H1027 O1026 0.980 . S
O1028 Co1025 2.087 . S
O1028 Co1029 2.042 . S
O1028 Co1030 2.122 . S
O1028 H1031 0.980 . S
Co1029 O1028 2.042 . S
Co1029 O1037 2.286 . S
Co1029 O1038 2.069 . S
Co1029 O1039 2.015 . S
Co1029 O1042 2.264 . S
Co1030 O1028 2.122 . S
Co1030 O1041 1.976 . S
Co1030 O1042 2.327 . S
Co1030 O1043 2.073 . S
H1031 O1028 0.980 . S
O1032 Co1024 2.073 . S
O1032 C1047 1.245 . S
O1033 Co1023 2.264 . S
O1033 Co1024 2.327 . S
O1033 C1047 1.257 . S
O1034 Co1024 1.976 . S
O1034 C1046 1.251 . S
O1035 Co1025 2.111 . S
O1035 C1046 1.274 . S
O1036 Co1025 2.143 . S
O1036 C1049 1.246 . S
O1037 Co1029 2.286 . S
O1037 C1048 1.259 . S
O1038 Co1029 2.069 . S
O1038 C1048 1.289 . S
O1039 Co1029 2.015 . S
O1039 C1049 1.257 . S
O1040 Co1025 2.111 . S
O1040 C1050 1.274 . S
O1041 Co1030 1.976 . S
O1041 C1050 1.251 . S
O1042 Co1029 2.264 . S
O1042 Co1030 2.327 . S
O1042 C1051 1.257 . S
O1043 Co1030 2.073 . S
O1043 C1051 1.245 . S
C1044 O1052 1.259 . S
C1044 O1053 1.289 . S
C1045 O1054 1.246 . S
C1045 O1055 1.257 . S
C1046 O1034 1.251 . S
C1046 O1035 1.274 . S
C1047 O1032 1.245 . S
C1047 O1033 1.257 . S
C1048 O1037 1.259 . S
C1048 O1038 1.289 . S
C1049 O1036 1.246 . S
C1049 O1039 1.257 . S
C1050 O1040 1.274 . S
C1050 O1041 1.251 . S
C1051 O1042 1.257 . S
C1051 O1043 1.245 . S
O1052 Co1023 2.286 . S
O1052 C1044 1.259 . S
O1053 Co1023 2.069 . S
O1053 C1044 1.289 . S
O1054 Co1025 2.143 . S
O1054 C1045 1.246 . S
O1055 Co1023 2.015 . S
O1055 C1045 1.257 . S
Co1056 O1059 2.042 . S
Co1056 O1066 2.264 . S
Co1056 O1085 2.286 . S
Co1056 O1086 2.069 . S
Co1056 O1088 2.015 . S
Co1057 O1059 2.122 . S
Co1057 O1065 2.073 . S
Co1057 O1066 2.327 . S
Co1057 O1067 1.976 . S
Co1058 O1059 2.087 . S
Co1058 O1061 2.087 . S
Co1058 O1068 2.111 . S
Co1058 O1069 2.143 . S
Co1058 O1073 2.111 . S
Co1058 O1087 2.143 . S
O1059 Co1056 2.042 . S
O1059 Co1057 2.122 . S
O1059 Co1058 2.087 . S
O1059 H1060 0.980 . S
H1060 O1059 0.980 . S
O1061 Co1058 2.087 . S
O1061 Co1062 2.042 . S
O1061 Co1063 2.122 . S
O1061 H1064 0.980 . S
Co1062 O1061 2.042 . S
Co1062 O1070 2.286 . S
Co1062 O1071 2.069 . S
Co1062 O1072 2.015 . S
Co1062 O1075 2.264 . S
Co1063 O1061 2.122 . S
Co1063 O1074 1.976 . S
Co1063 O1075 2.327 . S
Co1063 O1076 2.073 . S
H1064 O1061 0.980 . S
O1065 Co1057 2.073 . S
O1065 C1080 1.245 . S
O1066 Co1056 2.264 . S
O1066 Co1057 2.327 . S
O1066 C1080 1.257 . S
O1067 Co1057 1.976 . S
O1067 C1079 1.251 . S
O1068 Co1058 2.111 . S
O1068 C1079 1.274 . S
O1069 Co1058 2.143 . S
O1069 C1082 1.246 . S
O1070 Co1062 2.286 . S
O1070 C1081 1.259 . S
O1071 Co1062 2.069 . S
O1071 C1081 1.289 . S
O1072 Co1062 2.015 . S
O1072 C1082 1.257 . S
O1073 Co1058 2.111 . S
O1073 C1083 1.274 . S
O1074 Co1063 1.976 . S
O1074 C1083 1.251 . S
O1075 Co1062 2.264 . S
O1075 Co1063 2.327 . S
O1075 C1084 1.257 . S
O1076 Co1063 2.073 . S
O1076 C1084 1.245 . S
C1077 O1085 1.259 . S
C1077 O1086 1.289 . S
C1078 O1087 1.246 . S
C1078 O1088 1.257 . S
C1079 O1067 1.251 . S
C1079 O1068 1.274 . S
C1080 O1065 1.245 . S
C1080 O1066 1.257 . S
C1081 O1070 1.259 . S
C1081 O1071 1.289 . S
C1082 O1069 1.246 . S
C1082 O1072 1.257 . S
C1083 O1073 1.274 . S
C1083 O1074 1.251 . S
C1084 O1075 1.257 . S
C1084 O1076 1.245 . S
O1085 Co1056 2.286 . S
O1085 C1077 1.259 . S
O1086 Co1056 2.069 . S
O1086 C1077 1.289 . S
O1087 Co1058 2.143 . S
O1087 C1078 1.246 . S
O1088 Co1056 2.015 . S
O1088 C1078 1.257 . S
Co1089 O1092 2.042 . S
Co1089 O1099 2.264 . S
Co1089 O1118 2.286 . S
Co1089 O1119 2.069 . S
Co1089 O1121 2.015 . S
Co1090 O1092 2.122 . S
Co1090 O1098 2.073 . S
Co1090 O1099 2.327 . S
Co1090 O1100 1.976 . S
Co1091 O1092 2.087 . S
Co1091 O1094 2.087 . S
Co1091 O1101 2.111 . S
Co1091 O1102 2.143 . S
Co1091 O1106 2.111 . S
Co1091 O1120 2.143 . S
O1092 Co1089 2.042 . S
O1092 Co1090 2.122 . S
O1092 Co1091 2.087 . S
O1092 H1093 0.980 . S
H1093 O1092 0.980 . S
O1094 Co1091 2.087 . S
O1094 Co1095 2.042 . S
O1094 Co1096 2.122 . S
O1094 H1097 0.980 . S
Co1095 O1094 2.042 . S
Co1095 O1103 2.286 . S
Co1095 O1104 2.069 . S
Co1095 O1105 2.015 . S
Co1095 O1108 2.264 . S
Co1096 O1094 2.122 . S
Co1096 O1107 1.976 . S
Co1096 O1108 2.327 . S
Co1096 O1109 2.073 . S
H1097 O1094 0.980 . S
O1098 Co1090 2.073 . S
O1098 C1113 1.245 . S
O1099 Co1089 2.264 . S
O1099 Co1090 2.327 . S
O1099 C1113 1.257 . S
O1100 Co1090 1.976 . S
O1100 C1112 1.251 . S
O1101 Co1091 2.111 . S
O1101 C1112 1.274 . S
O1102 Co1091 2.143 . S
O1102 C1115 1.246 . S
O1103 Co1095 2.286 . S
O1103 C1114 1.259 . S
O1104 Co1095 2.069 . S
O1104 C1114 1.289 . S
O1105 Co1095 2.015 . S
O1105 C1115 1.257 . S
O1106 Co1091 2.111 . S
O1106 C1116 1.274 . S
O1107 Co1096 1.976 . S
O1107 C1116 1.251 . S
O1108 Co1095 2.264 . S
O1108 Co1096 2.327 . S
O1108 C1117 1.257 . S
O1109 Co1096 2.073 . S
O1109 C1117 1.245 . S
C1110 O1118 1.259 . S
C1110 O1119 1.289 . S
C1111 O1120 1.246 . S
C1111 O1121 1.257 . S
C1112 O1100 1.251 . S
C1112 O1101 1.274 . S
C1113 O1098 1.245 . S
C1113 O1099 1.257 . S
C1114 O1103 1.259 . S
C1114 O1104 1.289 . S
C1115 O1102 1.246 . S
C1115 O1105 1.257 . S
C1116 O1106 1.274 . S
C1116 O1107 1.251 . S
C1117 O1108 1.257 . S
C1117 O1109 1.245 . S
O1118 Co1089 2.286 . S
O1118 C1110 1.259 . S
O1119 Co1089 2.069 . S
O1119 C1110 1.289 . S
O1120 Co1091 2.143 . S
O1120 C1111 1.246 . S
O1121 Co1089 2.015 . S
O1121 C1111 1.257 . S
Co1122 O1125 2.042 . S
Co1122 O1132 2.264 . S
Co1122 O1151 2.286 . S
Co1122 O1152 2.069 . S
Co1122 O1154 2.015 . S
Co1123 O1125 2.122 . S
Co1123 O1131 2.073 . S
Co1123 O1132 2.327 . S
Co1123 O1133 1.976 . S
Co1124 O1125 2.087 . S
Co1124 O1127 2.087 . S
Co1124 O1134 2.111 . S
Co1124 O1135 2.143 . S
Co1124 O1139 2.111 . S
Co1124 O1153 2.143 . S
O1125 Co1122 2.042 . S
O1125 Co1123 2.122 . S
O1125 Co1124 2.087 . S
O1125 H1126 0.980 . S
H1126 O1125 0.980 . S
O1127 Co1124 2.087 . S
O1127 Co1128 2.042 . S
O1127 Co1129 2.122 . S
O1127 H1130 0.980 . S
Co1128 O1127 2.042 . S
Co1128 O1136 2.286 . S
Co1128 O1137 2.069 . S
Co1128 O1138 2.015 . S
Co1128 O1141 2.264 . S
Co1129 O1127 2.122 . S
Co1129 O1140 1.976 . S
Co1129 O1141 2.327 . S
Co1129 O1142 2.073 . S
H1130 O1127 0.980 . S
O1131 Co1123 2.073 . S
O1131 C1146 1.245 . S
O1132 Co1122 2.264 . S
O1132 Co1123 2.327 . S
O1132 C1146 1.257 . S
O1133 Co1123 1.976 . S
O1133 C1145 1.251 . S
O1134 Co1124 2.111 . S
O1134 C1145 1.274 . S
O1135 Co1124 2.143 . S
O1135 C1148 1.246 . S
O1136 Co1128 2.286 . S
O1136 C1147 1.259 . S
O1137 Co1128 2.069 . S
O1137 C1147 1.289 . S
O1138 Co1128 2.015 . S
O1138 C1148 1.257 . S
O1139 Co1124 2.111 . S
O1139 C1149 1.274 . S
O1140 Co1129 1.976 . S
O1140 C1149 1.251 . S
O1141 Co1128 2.264 . S
O1141 Co1129 2.327 . S
O1141 C1150 1.257 . S
O1142 Co1129 2.073 . S
O1142 C1150 1.245 . S
C1143 O1151 1.259 . S
C1143 O1152 1.289 . S
C1144 O1153 1.246 . S
C1144 O1154 1.257 . S
C1145 O1133 1.251 . S
C1145 O1134 1.274 . S
C1146 O1131 1.245 . S
C1146 O1132 1.257 . S
C1147 O1136 1.259 . S
C1147 O1137 1.289 . S
C1148 O1135 1.246 . S
C1148 O1138 1.257 . S
C1149 O1139 1.274 . S
C1149 O1140 1.251 . S
C1150 O1141 1.257 . S
C1150 O1142 1.245 . S
O1151 Co1122 2.286 . S
O1151 C1143 1.259 . S
O1152 Co1122 2.069 . S
O1152 C1143 1.289 . S
O1153 Co1124 2.143 . S
O1153 C1144 1.246 . S
O1154 Co1122 2.015 . S
O1154 C1144 1.257 . S
Co1155 O1158 2.042 . S
Co1155 O1165 2.264 . S
Co1155 O1184 2.286 . S
Co1155 O1185 2.069 . S
Co1155 O1187 2.015 . S
Co1156 O1158 2.122 . S
Co1156 O1164 2.073 . S
Co1156 O1165 2.327 . S
Co1156 O1166 1.976 . S
Co1157 O1158 2.087 . S
Co1157 O1160 2.087 . S
Co1157 O1167 2.111 . S
Co1157 O1168 2.143 . S
Co1157 O1172 2.111 . S
Co1157 O1186 2.143 . S
O1158 Co1155 2.042 . S
O1158 Co1156 2.122 . S
O1158 Co1157 2.087 . S
O1158 H1159 0.980 . S
H1159 O1158 0.980 . S
O1160 Co1157 2.087 . S
O1160 Co1161 2.042 . S
O1160 Co1162 2.122 . S
O1160 H1163 0.980 . S
Co1161 O1160 2.042 . S
Co1161 O1169 2.286 . S
Co1161 O1170 2.069 . S
Co1161 O1171 2.015 . S
Co1161 O1174 2.264 . S
Co1162 O1160 2.122 . S
Co1162 O1173 1.976 . S
Co1162 O1174 2.327 . S
Co1162 O1175 2.073 . S
H1163 O1160 0.980 . S
O1164 Co1156 2.073 . S
O1164 C1179 1.245 . S
O1165 Co1155 2.264 . S
O1165 Co1156 2.327 . S
O1165 C1179 1.257 . S
O1166 Co1156 1.976 . S
O1166 C1178 1.251 . S
O1167 Co1157 2.111 . S
O1167 C1178 1.274 . S
O1168 Co1157 2.143 . S
O1168 C1181 1.246 . S
O1169 Co1161 2.286 . S
O1169 C1180 1.259 . S
O1170 Co1161 2.069 . S
O1170 C1180 1.289 . S
O1171 Co1161 2.015 . S
O1171 C1181 1.257 . S
O1172 Co1157 2.111 . S
O1172 C1182 1.274 . S
O1173 Co1162 1.976 . S
O1173 C1182 1.251 . S
O1174 Co1161 2.264 . S
O1174 Co1162 2.327 . S
O1174 C1183 1.257 . S
O1175 Co1162 2.073 . S
O1175 C1183 1.245 . S
C1176 O1184 1.259 . S
C1176 O1185 1.289 . S
C1177 O1186 1.246 . S
C1177 O1187 1.257 . S
C1178 O1166 1.251 . S
C1178 O1167 1.274 . S
C1179 O1164 1.245 . S
C1179 O1165 1.257 . S
C1180 O1169 1.259 . S
C1180 O1170 1.289 . S
C1181 O1168 1.246 . S
C1181 O1171 1.257 . S
C1182 O1172 1.274 . S
C1182 O1173 1.251 . S
C1183 O1174 1.257 . S
C1183 O1175 1.245 . S
O1184 Co1155 2.286 . S
O1184 C1176 1.259 . S
O1185 Co1155 2.069 . S
O1185 C1176 1.289 . S
O1186 Co1157 2.143 . S
O1186 C1177 1.246 . S
O1187 Co1155 2.015 . S
O1187 C1177 1.257 . S
Co1188 O1191 2.042 . S
Co1188 O1198 2.264 . S
Co1188 O1217 2.286 . S
Co1188 O1218 2.069 . S
Co1188 O1220 2.015 . S
Co1189 O1191 2.122 . S
Co1189 O1197 2.073 . S
Co1189 O1198 2.327 . S
Co1189 O1199 1.976 . S
Co1190 O1191 2.087 . S
Co1190 O1193 2.087 . S
Co1190 O1200 2.111 . S
Co1190 O1201 2.143 . S
Co1190 O1205 2.111 . S
Co1190 O1219 2.143 . S
O1191 Co1188 2.042 . S
O1191 Co1189 2.122 . S
O1191 Co1190 2.087 . S
O1191 H1192 0.980 . S
H1192 O1191 0.980 . S
O1193 Co1190 2.087 . S
O1193 Co1194 2.042 . S
O1193 Co1195 2.122 . S
O1193 H1196 0.980 . S
Co1194 O1193 2.042 . S
Co1194 O1202 2.286 . S
Co1194 O1203 2.069 . S
Co1194 O1204 2.015 . S
Co1194 O1207 2.264 . S
Co1195 O1193 2.122 . S
Co1195 O1206 1.976 . S
Co1195 O1207 2.327 . S
Co1195 O1208 2.073 . S
H1196 O1193 0.980 . S
O1197 Co1189 2.073 . S
O1197 C1212 1.245 . S
O1198 Co1188 2.264 . S
O1198 Co1189 2.327 . S
O1198 C1212 1.257 . S
O1199 Co1189 1.976 . S
O1199 C1211 1.251 . S
O1200 Co1190 2.111 . S
O1200 C1211 1.274 . S
O1201 Co1190 2.143 . S
O1201 C1214 1.246 . S
O1202 Co1194 2.286 . S
O1202 C1213 1.259 . S
O1203 Co1194 2.069 . S
O1203 C1213 1.289 . S
O1204 Co1194 2.015 . S
O1204 C1214 1.257 . S
O1205 Co1190 2.111 . S
O1205 C1215 1.274 . S
O1206 Co1195 1.976 . S
O1206 C1215 1.251 . S
O1207 Co1194 2.264 . S
O1207 Co1195 2.327 . S
O1207 C1216 1.257 . S
O1208 Co1195 2.073 . S
O1208 C1216 1.245 . S
C1209 O1217 1.259 . S
C1209 O1218 1.289 . S
C1210 O1219 1.246 . S
C1210 O1220 1.257 . S
C1211 O1199 1.251 . S
C1211 O1200 1.274 . S
C1212 O1197 1.245 . S
C1212 O1198 1.257 . S
C1213 O1202 1.259 . S
C1213 O1203 1.289 . S
C1214 O1201 1.246 . S
C1214 O1204 1.257 . S
C1215 O1205 1.274 . S
C1215 O1206 1.251 . S
C1216 O1207 1.257 . S
C1216 O1208 1.245 . S
O1217 Co1188 2.286 . S
O1217 C1209 1.259 . S
O1218 Co1188 2.069 . S
O1218 C1209 1.289 . S
O1219 Co1190 2.143 . S
O1219 C1210 1.246 . S
O1220 Co1188 2.015 . S
O1220 C1210 1.257 . S
Co1221 O1224 2.042 . S
Co1221 O1231 2.264 . S
Co1221 O1250 2.286 . S
Co1221 O1251 2.069 . S
Co1221 O1253 2.015 . S
Co1222 O1224 2.122 . S
Co1222 O1230 2.073 . S
Co1222 O1231 2.327 . S
Co1222 O1232 1.976 . S
Co1223 O1224 2.087 . S
Co1223 O1226 2.087 . S
Co1223 O1233 2.111 . S
Co1223 O1234 2.143 . S
Co1223 O1238 2.111 . S
Co1223 O1252 2.143 . S
O1224 Co1221 2.042 . S
O1224 Co1222 2.122 . S
O1224 Co1223 2.087 . S
O1224 H1225 0.980 . S
H1225 O1224 0.980 . S
O1226 Co1223 2.087 . S
O1226 Co1227 2.042 . S
O1226 Co1228 2.122 . S
O1226 H1229 0.980 . S
Co1227 O1226 2.042 . S
Co1227 O1235 2.286 . S
Co1227 O1236 2.069 . S
Co1227 O1237 2.015 . S
Co1227 O1240 2.264 . S
Co1228 O1226 2.122 . S
Co1228 O1239 1.976 . S
Co1228 O1240 2.327 . S
Co1228 O1241 2.073 . S
H1229 O1226 0.980 . S
O1230 Co1222 2.073 . S
O1230 C1245 1.245 . S
O1231 Co1221 2.264 . S
O1231 Co1222 2.327 . S
O1231 C1245 1.257 . S
O1232 Co1222 1.976 . S
O1232 C1244 1.251 . S
O1233 Co1223 2.111 . S
O1233 C1244 1.274 . S
O1234 Co1223 2.143 . S
O1234 C1247 1.246 . S
O1235 Co1227 2.286 . S
O1235 C1246 1.259 . S
O1236 Co1227 2.069 . S
O1236 C1246 1.289 . S
O1237 Co1227 2.015 . S
O1237 C1247 1.257 . S
O1238 Co1223 2.111 . S
O1238 C1248 1.274 . S
O1239 Co1228 1.976 . S
O1239 C1248 1.251 . S
O1240 Co1227 2.264 . S
O1240 Co1228 2.327 . S
O1240 C1249 1.257 . S
O1241 Co1228 2.073 . S
O1241 C1249 1.245 . S
C1242 O1250 1.259 . S
C1242 O1251 1.289 . S
C1243 O1252 1.246 . S
C1243 O1253 1.257 . S
C1244 O1232 1.251 . S
C1244 O1233 1.274 . S
C1245 O1230 1.245 . S
C1245 O1231 1.257 . S
C1246 O1235 1.259 . S
C1246 O1236 1.289 . S
C1247 O1234 1.246 . S
C1247 O1237 1.257 . S
C1248 O1238 1.274 . S
C1248 O1239 1.251 . S
C1249 O1240 1.257 . S
C1249 O1241 1.245 . S
O1250 Co1221 2.286 . S
O1250 C1242 1.259 . S
O1251 Co1221 2.069 . S
O1251 C1242 1.289 . S
O1252 Co1223 2.143 . S
O1252 C1243 1.246 . S
O1253 Co1221 2.015 . S
O1253 C1243 1.257 . S
Co1254 O1257 2.042 . S
Co1254 O1264 2.264 . S
Co1254 O1283 2.286 . S
Co1254 O1284 2.069 . S
Co1254 O1286 2.015 . S
Co1255 O1257 2.122 . S
Co1255 O1263 2.073 . S
Co1255 O1264 2.327 . S
Co1255 O1265 1.976 . S
Co1256 O1257 2.087 . S
Co1256 O1259 2.087 . S
Co1256 O1266 2.111 . S
Co1256 O1267 2.143 . S
Co1256 O1271 2.111 . S
Co1256 O1285 2.143 . S
O1257 Co1254 2.042 . S
O1257 Co1255 2.122 . S
O1257 Co1256 2.087 . S
O1257 H1258 0.980 . S
H1258 O1257 0.980 . S
O1259 Co1256 2.087 . S
O1259 Co1260 2.042 . S
O1259 Co1261 2.122 . S
O1259 H1262 0.980 . S
Co1260 O1259 2.042 . S
Co1260 O1268 2.286 . S
Co1260 O1269 2.069 . S
Co1260 O1270 2.015 . S
Co1260 O1273 2.264 . S
Co1261 O1259 2.122 . S
Co1261 O1272 1.976 . S
Co1261 O1273 2.327 . S
Co1261 O1274 2.073 . S
H1262 O1259 0.980 . S
O1263 Co1255 2.073 . S
O1263 C1278 1.245 . S
O1264 Co1254 2.264 . S
O1264 Co1255 2.327 . S
O1264 C1278 1.257 . S
O1265 Co1255 1.976 . S
O1265 C1277 1.251 . S
O1266 Co1256 2.111 . S
O1266 C1277 1.274 . S
O1267 Co1256 2.143 . S
O1267 C1280 1.246 . S
O1268 Co1260 2.286 . S
O1268 C1279 1.259 . S
O1269 Co1260 2.069 . S
O1269 C1279 1.289 . S
O1270 Co1260 2.015 . S
O1270 C1280 1.257 . S
O1271 Co1256 2.111 . S
O1271 C1281 1.274 . S
O1272 Co1261 1.976 . S
O1272 C1281 1.251 . S
O1273 Co1260 2.264 . S
O1273 Co1261 2.327 . S
O1273 C1282 1.257 . S
O1274 Co1261 2.073 . S
O1274 C1282 1.245 . S
C1275 O1283 1.259 . S
C1275 O1284 1.289 . S
C1276 O1285 1.246 . S
C1276 O1286 1.257 . S
C1277 O1265 1.251 . S
C1277 O1266 1.274 . S
C1278 O1263 1.245 . S
C1278 O1264 1.257 . S
C1279 O1268 1.259 . S
C1279 O1269 1.289 . S
C1280 O1267 1.246 . S
C1280 O1270 1.257 . S
C1281 O1271 1.274 . S
C1281 O1272 1.251 . S
C1282 O1273 1.257 . S
C1282 O1274 1.245 . S
O1283 Co1254 2.286 . S
O1283 C1275 1.259 . S
O1284 Co1254 2.069 . S
O1284 C1275 1.289 . S
O1285 Co1256 2.143 . S
O1285 C1276 1.246 . S
O1286 Co1254 2.015 . S
O1286 C1276 1.257 . S
Co1287 O1290 2.042 . S
Co1287 O1297 2.264 . S
Co1287 O1316 2.286 . S
Co1287 O1317 2.069 . S
Co1287 O1319 2.015 . S
Co1288 O1290 2.122 . S
Co1288 O1296 2.073 . S
Co1288 O1297 2.327 . S
Co1288 O1298 1.976 . S
Co1289 O1290 2.087 . S
Co1289 O1292 2.087 . S
Co1289 O1299 2.111 . S
Co1289 O1300 2.143 . S
Co1289 O1304 2.111 . S
Co1289 O1318 2.143 . S
O1290 Co1287 2.042 . S
O1290 Co1288 2.122 . S
O1290 Co1289 2.087 . S
O1290 H1291 0.980 . S
H1291 O1290 0.980 . S
O1292 Co1289 2.087 . S
O1292 Co1293 2.042 . S
O1292 Co1294 2.122 . S
O1292 H1295 0.980 . S
Co1293 O1292 2.042 . S
Co1293 O1301 2.286 . S
Co1293 O1302 2.069 . S
Co1293 O1303 2.015 . S
Co1293 O1306 2.264 . S
Co1294 O1292 2.122 . S
Co1294 O1305 1.976 . S
Co1294 O1306 2.327 . S
Co1294 O1307 2.073 . S
H1295 O1292 0.980 . S
O1296 Co1288 2.073 . S
O1296 C1311 1.245 . S
O1297 Co1287 2.264 . S
O1297 Co1288 2.327 . S
O1297 C1311 1.257 . S
O1298 Co1288 1.976 . S
O1298 C1310 1.251 . S
O1299 Co1289 2.111 . S
O1299 C1310 1.274 . S
O1300 Co1289 2.143 . S
O1300 C1313 1.246 . S
O1301 Co1293 2.286 . S
O1301 C1312 1.259 . S
O1302 Co1293 2.069 . S
O1302 C1312 1.289 . S
O1303 Co1293 2.015 . S
O1303 C1313 1.257 . S
O1304 Co1289 2.111 . S
O1304 C1314 1.274 . S
O1305 Co1294 1.976 . S
O1305 C1314 1.251 . S
O1306 Co1293 2.264 . S
O1306 Co1294 2.327 . S
O1306 C1315 1.257 . S
O1307 Co1294 2.073 . S
O1307 C1315 1.245 . S
C1308 O1316 1.259 . S
C1308 O1317 1.289 . S
C1309 O1318 1.246 . S
C1309 O1319 1.257 . S
C1310 O1298 1.251 . S
C1310 O1299 1.274 . S
C1311 O1296 1.245 . S
C1311 O1297 1.257 . S
C1312 O1301 1.259 . S
C1312 O1302 1.289 . S
C1313 O1300 1.246 . S
C1313 O1303 1.257 . S
C1314 O1304 1.274 . S
C1314 O1305 1.251 . S
C1315 O1306 1.257 . S
C1315 O1307 1.245 . S
O1316 Co1287 2.286 . S
O1316 C1308 1.259 . S
O1317 Co1287 2.069 . S
O1317 C1308 1.289 . S
O1318 Co1289 2.143 . S
O1318 C1309 1.246 . S
O1319 Co1287 2.015 . S
O1319 C1309 1.257 . S
Co1320 O1323 2.042 . S
Co1320 O1330 2.264 . S
Co1320 O1349 2.286 . S
Co1320 O1350 2.069 . S
Co1320 O1352 2.015 . S
Co1321 O1323 2.122 . S
Co1321 O1329 2.073 . S
Co1321 O1330 2.327 . S
Co1321 O1331 1.976 . S
Co1322 O1323 2.087 . S
Co1322 O1325 2.087 . S
Co1322 O1332 2.111 . S
Co1322 O1333 2.143 . S
Co1322 O1337 2.111 . S
Co1322 O1351 2.143 . S
O1323 Co1320 2.042 . S
O1323 Co1321 2.122 . S
O1323 Co1322 2.087 . S
O1323 H1324 0.980 . S
H1324 O1323 0.980 . S
O1325 Co1322 2.087 . S
O1325 Co1326 2.042 . S
O1325 Co1327 2.122 . S
O1325 H1328 0.980 . S
Co1326 O1325 2.042 . S
Co1326 O1334 2.286 . S
Co1326 O1335 2.069 . S
Co1326 O1336 2.015 . S
Co1326 O1339 2.264 . S
Co1327 O1325 2.122 . S
Co1327 O1338 1.976 . S
Co1327 O1339 2.327 . S
Co1327 O1340 2.073 . S
H1328 O1325 0.980 . S
O1329 Co1321 2.073 . S
O1329 C1344 1.245 . S
O1330 Co1320 2.264 . S
O1330 Co1321 2.327 . S
O1330 C1344 1.257 . S
O1331 Co1321 1.976 . S
O1331 C1343 1.251 . S
O1332 Co1322 2.111 . S
O1332 C1343 1.274 . S
O1333 Co1322 2.143 . S
O1333 C1346 1.246 . S
O1334 Co1326 2.286 . S
O1334 C1345 1.259 . S
O1335 Co1326 2.069 . S
O1335 C1345 1.289 . S
O1336 Co1326 2.015 . S
O1336 C1346 1.257 . S
O1337 Co1322 2.111 . S
O1337 C1347 1.274 . S
O1338 Co1327 1.976 . S
O1338 C1347 1.251 . S
O1339 Co1326 2.264 . S
O1339 Co1327 2.327 . S
O1339 C1348 1.257 . S
O1340 Co1327 2.073 . S
O1340 C1348 1.245 . S
C1341 O1349 1.259 . S
C1341 O1350 1.289 . S
C1342 O1351 1.246 . S
C1342 O1352 1.257 . S
C1343 O1331 1.251 . S
C1343 O1332 1.274 . S
C1344 O1329 1.245 . S
C1344 O1330 1.257 . S
C1345 O1334 1.259 . S
C1345 O1335 1.289 . S
C1346 O1333 1.246 . S
C1346 O1336 1.257 . S
C1347 O1337 1.274 . S
C1347 O1338 1.251 . S
C1348 O1339 1.257 . S
C1348 O1340 1.245 . S
O1349 Co1320 2.286 . S
O1349 C1341 1.259 . S
O1350 Co1320 2.069 . S
O1350 C1341 1.289 . S
O1351 Co1322 2.143 . S
O1351 C1342 1.246 . S
O1352 Co1320 2.015 . S
O1352 C1342 1.257 . S
Co1353 O1356 2.042 . S
Co1353 O1363 2.264 . S
Co1353 O1382 2.286 . S
Co1353 O1383 2.069 . S
Co1353 O1385 2.015 . S
Co1354 O1356 2.122 . S
Co1354 O1362 2.073 . S
Co1354 O1363 2.327 . S
Co1354 O1364 1.976 . S
Co1355 O1356 2.087 . S
Co1355 O1358 2.087 . S
Co1355 O1365 2.111 . S
Co1355 O1366 2.143 . S
Co1355 O1370 2.111 . S
Co1355 O1384 2.143 . S
O1356 Co1353 2.042 . S
O1356 Co1354 2.122 . S
O1356 Co1355 2.087 . S
O1356 H1357 0.980 . S
H1357 O1356 0.980 . S
O1358 Co1355 2.087 . S
O1358 Co1359 2.042 . S
O1358 Co1360 2.122 . S
O1358 H1361 0.980 . S
Co1359 O1358 2.042 . S
Co1359 O1367 2.286 . S
Co1359 O1368 2.069 . S
Co1359 O1369 2.015 . S
Co1359 O1372 2.264 . S
Co1360 O1358 2.122 . S
Co1360 O1371 1.976 . S
Co1360 O1372 2.327 . S
Co1360 O1373 2.073 . S
H1361 O1358 0.980 . S
O1362 Co1354 2.073 . S
O1362 C1377 1.245 . S
O1363 Co1353 2.264 . S
O1363 Co1354 2.327 . S
O1363 C1377 1.257 . S
O1364 Co1354 1.976 . S
O1364 C1376 1.251 . S
O1365 Co1355 2.111 . S
O1365 C1376 1.274 . S
O1366 Co1355 2.143 . S
O1366 C1379 1.246 . S
O1367 Co1359 2.286 . S
O1367 C1378 1.259 . S
O1368 Co1359 2.069 . S
O1368 C1378 1.289 . S
O1369 Co1359 2.015 . S
O1369 C1379 1.257 . S
O1370 Co1355 2.111 . S
O1370 C1380 1.274 . S
O1371 Co1360 1.976 . S
O1371 C1380 1.251 . S
O1372 Co1359 2.264 . S
O1372 Co1360 2.327 . S
O1372 C1381 1.257 . S
O1373 Co1360 2.073 . S
O1373 C1381 1.245 . S
C1374 O1382 1.259 . S
C1374 O1383 1.289 . S
C1375 O1384 1.246 . S
C1375 O1385 1.257 . S
C1376 O1364 1.251 . S
C1376 O1365 1.274 . S
C1377 O1362 1.245 . S
C1377 O1363 1.257 . S
C1378 O1367 1.259 . S
C1378 O1368 1.289 . S
C1379 O1366 1.246 . S
C1379 O1369 1.257 . S
C1380 O1370 1.274 . S
C1380 O1371 1.251 . S
C1381 O1372 1.257 . S
C1381 O1373 1.245 . S
O1382 Co1353 2.286 . S
O1382 C1374 1.259 . S
O1383 Co1353 2.069 . S
O1383 C1374 1.289 . S
O1384 Co1355 2.143 . S
O1384 C1375 1.246 . S
O1385 Co1353 2.015 . S
O1385 C1375 1.257 . S
Co1386 O1389 2.042 . S
Co1386 O1396 2.264 . S
Co1386 O1415 2.286 . S
Co1386 O1416 2.069 . S
Co1386 O1418 2.015 . S
Co1387 O1389 2.122 . S
Co1387 O1395 2.073 . S
Co1387 O1396 2.327 . S
Co1387 O1397 1.976 . S
Co1388 O1389 2.087 . S
Co1388 O1391 2.087 . S
Co1388 O1398 2.111 . S
Co1388 O1399 2.143 . S
Co1388 O1403 2.111 . S
Co1388 O1417 2.143 . S
O1389 Co1386 2.042 . S
O1389 Co1387 2.122 . S
O1389 Co1388 2.087 . S
O1389 H1390 0.980 . S
H1390 O1389 0.980 . S
O1391 Co1388 2.087 . S
O1391 Co1392 2.042 . S
O1391 Co1393 2.122 . S
O1391 H1394 0.980 . S
Co1392 O1391 2.042 . S
Co1392 O1400 2.286 . S
Co1392 O1401 2.069 . S
Co1392 O1402 2.015 . S
Co1392 O1405 2.264 . S
Co1393 O1391 2.122 . S
Co1393 O1404 1.976 . S
Co1393 O1405 2.327 . S
Co1393 O1406 2.073 . S
H1394 O1391 0.980 . S
O1395 Co1387 2.073 . S
O1395 C1410 1.245 . S
O1396 Co1386 2.264 . S
O1396 Co1387 2.327 . S
O1396 C1410 1.257 . S
O1397 Co1387 1.976 . S
O1397 C1409 1.251 . S
O1398 Co1388 2.111 . S
O1398 C1409 1.274 . S
O1399 Co1388 2.143 . S
O1399 C1412 1.246 . S
O1400 Co1392 2.286 . S
O1400 C1411 1.259 . S
O1401 Co1392 2.069 . S
O1401 C1411 1.289 . S
O1402 Co1392 2.015 . S
O1402 C1412 1.257 . S
O1403 Co1388 2.111 . S
O1403 C1413 1.274 . S
O1404 Co1393 1.976 . S
O1404 C1413 1.251 . S
O1405 Co1392 2.264 . S
O1405 Co1393 2.327 . S
O1405 C1414 1.257 . S
O1406 Co1393 2.073 . S
O1406 C1414 1.245 . S
C1407 O1415 1.259 . S
C1407 O1416 1.289 . S
C1408 O1417 1.246 . S
C1408 O1418 1.257 . S
C1409 O1397 1.251 . S
C1409 O1398 1.274 . S
C1410 O1395 1.245 . S
C1410 O1396 1.257 . S
C1411 O1400 1.259 . S
C1411 O1401 1.289 . S
C1412 O1399 1.246 . S
C1412 O1402 1.257 . S
C1413 O1403 1.274 . S
C1413 O1404 1.251 . S
C1414 O1405 1.257 . S
C1414 O1406 1.245 . S
O1415 Co1386 2.286 . S
O1415 C1407 1.259 . S
O1416 Co1386 2.069 . S
O1416 C1407 1.289 . S
O1417 Co1388 2.143 . S
O1417 C1408 1.246 . S
O1418 Co1386 2.015 . S
O1418 C1408 1.257 . S
Co1419 O1422 2.042 . S
Co1419 O1429 2.264 . S
Co1419 O1448 2.286 . S
Co1419 O1449 2.069 . S
Co1419 O1451 2.015 . S
Co1420 O1422 2.122 . S
Co1420 O1428 2.073 . S
Co1420 O1429 2.327 . S
Co1420 O1430 1.976 . S
Co1421 O1422 2.087 . S
Co1421 O1424 2.087 . S
Co1421 O1431 2.111 . S
Co1421 O1432 2.143 . S
Co1421 O1436 2.111 . S
Co1421 O1450 2.143 . S
O1422 Co1419 2.042 . S
O1422 Co1420 2.122 . S
O1422 Co1421 2.087 . S
O1422 H1423 0.980 . S
H1423 O1422 0.980 . S
O1424 Co1421 2.087 . S
O1424 Co1425 2.042 . S
O1424 Co1426 2.122 . S
O1424 H1427 0.980 . S
Co1425 O1424 2.042 . S
Co1425 O1433 2.286 . S
Co1425 O1434 2.069 . S
Co1425 O1435 2.015 . S
Co1425 O1438 2.264 . S
Co1426 O1424 2.122 . S
Co1426 O1437 1.976 . S
Co1426 O1438 2.327 . S
Co1426 O1439 2.073 . S
H1427 O1424 0.980 . S
O1428 Co1420 2.073 . S
O1428 C1443 1.245 . S
O1429 Co1419 2.264 . S
O1429 Co1420 2.327 . S
O1429 C1443 1.257 . S
O1430 Co1420 1.976 . S
O1430 C1442 1.251 . S
O1431 Co1421 2.111 . S
O1431 C1442 1.274 . S
O1432 Co1421 2.143 . S
O1432 C1445 1.246 . S
O1433 Co1425 2.286 . S
O1433 C1444 1.259 . S
O1434 Co1425 2.069 . S
O1434 C1444 1.289 . S
O1435 Co1425 2.015 . S
O1435 C1445 1.257 . S
O1436 Co1421 2.111 . S
O1436 C1446 1.274 . S
O1437 Co1426 1.976 . S
O1437 C1446 1.251 . S
O1438 Co1425 2.264 . S
O1438 Co1426 2.327 . S
O1438 C1447 1.257 . S
O1439 Co1426 2.073 . S
O1439 C1447 1.245 . S
C1440 O1448 1.259 . S
C1440 O1449 1.289 . S
C1441 O1450 1.246 . S
C1441 O1451 1.257 . S
C1442 O1430 1.251 . S
C1442 O1431 1.274 . S
C1443 O1428 1.245 . S
C1443 O1429 1.257 . S
C1444 O1433 1.259 . S
C1444 O1434 1.289 . S
C1445 O1432 1.246 . S
C1445 O1435 1.257 . S
C1446 O1436 1.274 . S
C1446 O1437 1.251 . S
C1447 O1438 1.257 . S
C1447 O1439 1.245 . S
O1448 Co1419 2.286 . S
O1448 C1440 1.259 . S
O1449 Co1419 2.069 . S
O1449 C1440 1.289 . S
O1450 Co1421 2.143 . S
O1450 C1441 1.246 . S
O1451 Co1419 2.015 . S
O1451 C1441 1.257 . S
Co1452 O1455 2.042 . S
Co1452 O1462 2.264 . S
Co1452 O1481 2.286 . S
Co1452 O1482 2.069 . S
Co1452 O1484 2.015 . S
Co1453 O1455 2.122 . S
Co1453 O1461 2.073 . S
Co1453 O1462 2.327 . S
Co1453 O1463 1.976 . S
Co1454 O1455 2.087 . S
Co1454 O1457 2.087 . S
Co1454 O1464 2.111 . S
Co1454 O1465 2.143 . S
Co1454 O1469 2.111 . S
Co1454 O1483 2.143 . S
O1455 Co1452 2.042 . S
O1455 Co1453 2.122 . S
O1455 Co1454 2.087 . S
O1455 H1456 0.980 . S
H1456 O1455 0.980 . S
O1457 Co1454 2.087 . S
O1457 Co1458 2.042 . S
O1457 Co1459 2.122 . S
O1457 H1460 0.980 . S
Co1458 O1457 2.042 . S
Co1458 O1466 2.286 . S
Co1458 O1467 2.069 . S
Co1458 O1468 2.015 . S
Co1458 O1471 2.264 . S
Co1459 O1457 2.122 . S
Co1459 O1470 1.976 . S
Co1459 O1471 2.327 . S
Co1459 O1472 2.073 . S
H1460 O1457 0.980 . S
O1461 Co1453 2.073 . S
O1461 C1476 1.245 . S
O1462 Co1452 2.264 . S
O1462 Co1453 2.327 . S
O1462 C1476 1.257 . S
O1463 Co1453 1.976 . S
O1463 C1475 1.251 . S
O1464 Co1454 2.111 . S
O1464 C1475 1.274 . S
O1465 Co1454 2.143 . S
O1465 C1478 1.246 . S
O1466 Co1458 2.286 . S
O1466 C1477 1.259 . S
O1467 Co1458 2.069 . S
O1467 C1477 1.289 . S
O1468 Co1458 2.015 . S
O1468 C1478 1.257 . S
O1469 Co1454 2.111 . S
O1469 C1479 1.274 . S
O1470 Co1459 1.976 . S
O1470 C1479 1.251 . S
O1471 Co1458 2.264 . S
O1471 Co1459 2.327 . S
O1471 C1480 1.257 . S
O1472 Co1459 2.073 . S
O1472 C1480 1.245 . S
C1473 O1481 1.259 . S
C1473 O1482 1.289 . S
C1474 O1483 1.246 . S
C1474 O1484 1.257 . S
C1475 O1463 1.251 . S
C1475 O1464 1.274 . S
C1476 O1461 1.245 . S
C1476 O1462 1.257 . S
C1477 O1466 1.259 . S
C1477 O1467 1.289 . S
C1478 O1465 1.246 . S
C1478 O1468 1.257 . S
C1479 O1469 1.274 . S
C1479 O1470 1.251 . S
C1480 O1471 1.257 . S
C1480 O1472 1.245 . S
O1481 Co1452 2.286 . S
O1481 C1473 1.259 . S
O1482 Co1452 2.069 . S
O1482 C1473 1.289 . S
O1483 Co1454 2.143 . S
O1483 C1474 1.246 . S
O1484 Co1452 2.015 . S
O1484 C1474 1.257 . S
Co1485 O1488 2.042 . S
Co1485 O1495 2.264 . S
Co1485 O1514 2.286 . S
Co1485 O1515 2.069 . S
Co1485 O1517 2.015 . S
Co1486 O1488 2.122 . S
Co1486 O1494 2.073 . S
Co1486 O1495 2.327 . S
Co1486 O1496 1.976 . S
Co1487 O1488 2.087 . S
Co1487 O1490 2.087 . S
Co1487 O1497 2.111 . S
Co1487 O1498 2.143 . S
Co1487 O1502 2.111 . S
Co1487 O1516 2.143 . S
O1488 Co1485 2.042 . S
O1488 Co1486 2.122 . S
O1488 Co1487 2.087 . S
O1488 H1489 0.980 . S
H1489 O1488 0.980 . S
O1490 Co1487 2.087 . S
O1490 Co1491 2.042 . S
O1490 Co1492 2.122 . S
O1490 H1493 0.980 . S
Co1491 O1490 2.042 . S
Co1491 O1499 2.286 . S
Co1491 O1500 2.069 . S
Co1491 O1501 2.015 . S
Co1491 O1504 2.264 . S
Co1492 O1490 2.122 . S
Co1492 O1503 1.976 . S
Co1492 O1504 2.327 . S
Co1492 O1505 2.073 . S
H1493 O1490 0.980 . S
O1494 Co1486 2.073 . S
O1494 C1509 1.245 . S
O1495 Co1485 2.264 . S
O1495 Co1486 2.327 . S
O1495 C1509 1.257 . S
O1496 Co1486 1.976 . S
O1496 C1508 1.251 . S
O1497 Co1487 2.111 . S
O1497 C1508 1.274 . S
O1498 Co1487 2.143 . S
O1498 C1511 1.246 . S
O1499 Co1491 2.286 . S
O1499 C1510 1.259 . S
O1500 Co1491 2.069 . S
O1500 C1510 1.289 . S
O1501 Co1491 2.015 . S
O1501 C1511 1.257 . S
O1502 Co1487 2.111 . S
O1502 C1512 1.274 . S
O1503 Co1492 1.976 . S
O1503 C1512 1.251 . S
O1504 Co1491 2.264 . S
O1504 Co1492 2.327 . S
O1504 C1513 1.257 . S
O1505 Co1492 2.073 . S
O1505 C1513 1.245 . S
C1506 O1514 1.259 . S
C1506 O1515 1.289 . S
C1507 O1516 1.246 . S
C1507 O1517 1.257 . S
C1508 O1496 1.251 . S
C1508 O1497 1.274 . S
C1509 O1494 1.245 . S
C1509 O1495 1.257 . S
C1510 O1499 1.259 . S
C1510 O1500 1.289 . S
C1511 O1498 1.246 . S
C1511 O1501 1.257 . S
C1512 O1502 1.274 . S
C1512 O1503 1.251 . S
C1513 O1504 1.257 . S
C1513 O1505 1.245 . S
O1514 Co1485 2.286 . S
O1514 C1506 1.259 . S
O1515 Co1485 2.069 . S
O1515 C1506 1.289 . S
O1516 Co1487 2.143 . S
O1516 C1507 1.246 . S
O1517 Co1485 2.015 . S
O1517 C1507 1.257 . S
Co1518 O1521 2.042 . S
Co1518 O1528 2.264 . S
Co1518 O1547 2.286 . S
Co1518 O1548 2.069 . S
Co1518 O1550 2.015 . S
Co1519 O1521 2.122 . S
Co1519 O1527 2.073 . S
Co1519 O1528 2.327 . S
Co1519 O1529 1.976 . S
Co1520 O1521 2.087 . S
Co1520 O1523 2.087 . S
Co1520 O1530 2.111 . S
Co1520 O1531 2.143 . S
Co1520 O1535 2.111 . S
Co1520 O1549 2.143 . S
O1521 Co1518 2.042 . S
O1521 Co1519 2.122 . S
O1521 Co1520 2.087 . S
O1521 H1522 0.980 . S
H1522 O1521 0.980 . S
O1523 Co1520 2.087 . S
O1523 Co1524 2.042 . S
O1523 Co1525 2.122 . S
O1523 H1526 0.980 . S
Co1524 O1523 2.042 . S
Co1524 O1532 2.286 . S
Co1524 O1533 2.069 . S
Co1524 O1534 2.015 . S
Co1524 O1537 2.264 . S
Co1525 O1523 2.122 . S
Co1525 O1536 1.976 . S
Co1525 O1537 2.327 . S
Co1525 O1538 2.073 . S
H1526 O1523 0.980 . S
O1527 Co1519 2.073 . S
O1527 C1542 1.245 . S
O1528 Co1518 2.264 . S
O1528 Co1519 2.327 . S
O1528 C1542 1.257 . S
O1529 Co1519 1.976 . S
O1529 C1541 1.251 . S
O1530 Co1520 2.111 . S
O1530 C1541 1.274 . S
O1531 Co1520 2.143 . S
O1531 C1544 1.246 . S
O1532 Co1524 2.286 . S
O1532 C1543 1.259 . S
O1533 Co1524 2.069 . S
O1533 C1543 1.289 . S
O1534 Co1524 2.015 . S
O1534 C1544 1.257 . S
O1535 Co1520 2.111 . S
O1535 C1545 1.274 . S
O1536 Co1525 1.976 . S
O1536 C1545 1.251 . S
O1537 Co1524 2.264 . S
O1537 Co1525 2.327 . S
O1537 C1546 1.257 . S
O1538 Co1525 2.073 . S
O1538 C1546 1.245 . S
C1539 O1547 1.259 . S
C1539 O1548 1.289 . S
C1540 O1549 1.246 . S
C1540 O1550 1.257 . S
C1541 O1529 1.251 . S
C1541 O1530 1.274 . S
C1542 O1527 1.245 . S
C1542 O1528 1.257 . S
C1543 O1532 1.259 . S
C1543 O1533 1.289 . S
C1544 O1531 1.246 . S
C1544 O1534 1.257 . S
C1545 O1535 1.274 . S
C1545 O1536 1.251 . S
C1546 O1537 1.257 . S
C1546 O1538 1.245 . S
O1547 Co1518 2.286 . S
O1547 C1539 1.259 . S
O1548 Co1518 2.069 . S
O1548 C1539 1.289 . S
O1549 Co1520 2.143 . S
O1549 C1540 1.246 . S
O1550 Co1518 2.015 . S
O1550 C1540 1.257 . S
Co1551 O1554 2.042 . S
Co1551 O1561 2.264 . S
Co1551 O1580 2.286 . S
Co1551 O1581 2.069 . S
Co1551 O1583 2.015 . S
Co1552 O1554 2.122 . S
Co1552 O1560 2.073 . S
Co1552 O1561 2.327 . S
Co1552 O1562 1.976 . S
Co1553 O1554 2.087 . S
Co1553 O1556 2.087 . S
Co1553 O1563 2.111 . S
Co1553 O1564 2.143 . S
Co1553 O1568 2.111 . S
Co1553 O1582 2.143 . S
O1554 Co1551 2.042 . S
O1554 Co1552 2.122 . S
O1554 Co1553 2.087 . S
O1554 H1555 0.980 . S
H1555 O1554 0.980 . S
O1556 Co1553 2.087 . S
O1556 Co1557 2.042 . S
O1556 Co1558 2.122 . S
O1556 H1559 0.980 . S
Co1557 O1556 2.042 . S
Co1557 O1565 2.286 . S
Co1557 O1566 2.069 . S
Co1557 O1567 2.015 . S
Co1557 O1570 2.264 . S
Co1558 O1556 2.122 . S
Co1558 O1569 1.976 . S
Co1558 O1570 2.327 . S
Co1558 O1571 2.073 . S
H1559 O1556 0.980 . S
O1560 Co1552 2.073 . S
O1560 C1575 1.245 . S
O1561 Co1551 2.264 . S
O1561 Co1552 2.327 . S
O1561 C1575 1.257 . S
O1562 Co1552 1.976 . S
O1562 C1574 1.251 . S
O1563 Co1553 2.111 . S
O1563 C1574 1.274 . S
O1564 Co1553 2.143 . S
O1564 C1577 1.246 . S
O1565 Co1557 2.286 . S
O1565 C1576 1.259 . S
O1566 Co1557 2.069 . S
O1566 C1576 1.289 . S
O1567 Co1557 2.015 . S
O1567 C1577 1.257 . S
O1568 Co1553 2.111 . S
O1568 C1578 1.274 . S
O1569 Co1558 1.976 . S
O1569 C1578 1.251 . S
O1570 Co1557 2.264 . S
O1570 Co1558 2.327 . S
O1570 C1579 1.257 . S
O1571 Co1558 2.073 . S
O1571 C1579 1.245 . S
C1572 O1580 1.259 . S
C1572 O1581 1.289 . S
C1573 O1582 1.246 . S
C1573 O1583 1.257 . S
C1574 O1562 1.251 . S
C1574 O1563 1.274 . S
C1575 O1560 1.245 . S
C1575 O1561 1.257 . S
C1576 O1565 1.259 . S
C1576 O1566 1.289 . S
C1577 O1564 1.246 . S
C1577 O1567 1.257 . S
C1578 O1568 1.274 . S
C1578 O1569 1.251 . S
C1579 O1570 1.257 . S
C1579 O1571 1.245 . S
O1580 Co1551 2.286 . S
O1580 C1572 1.259 . S
O1581 Co1551 2.069 . S
O1581 C1572 1.289 . S
O1582 Co1553 2.143 . S
O1582 C1573 1.246 . S
O1583 Co1551 2.015 . S
O1583 C1573 1.257 . S
C1584 C1585 1.363 . S
C1584 C1590 1.379 . S
C1584 N1592 1.356 . S
C1585 C1584 1.363 . S
C1585 C1591 1.363 . S
C1586 C1587 1.370 . S
C1586 C1591 1.379 1_545 S
C1586 N1593 1.356 . S
C1587 C1586 1.370 . S
C1587 C1590 1.332 1_545 S
N1588 C1590 1.356 . S
N1588 H1600 0.984 . S
N1588 H1601 0.985 . S
N1589 C1591 1.356 . S
N1589 H1594 0.984 . S
N1589 H1595 0.989 . S
C1590 C1584 1.379 . S
C1590 C1587 1.332 1_565 S
C1590 N1588 1.356 . S
C1591 C1585 1.363 . S
C1591 C1586 1.379 1_565 S
C1591 N1589 1.356 . S
N1592 C1584 1.356 . S
N1592 H1598 0.984 . S
N1592 H1599 0.984 . S
N1593 C1586 1.356 . S
N1593 H1596 0.984 . S
N1593 H1597 0.985 . S
H1594 N1589 0.984 . S
H1595 N1589 0.989 . S
H1596 N1593 0.984 . S
H1597 N1593 0.985 . S
H1598 N1592 0.984 . S
H1599 N1592 0.984 . S
H1600 N1588 0.984 . S
H1601 N1588 0.985 . S
C1602 C1603 1.363 . S
C1602 C1608 1.379 . S
C1602 N1610 1.356 . S
C1603 C1602 1.363 . S
C1603 C1609 1.363 . S
C1604 C1605 1.363 . S
C1604 C1609 1.379 . S
C1604 N1611 1.356 1_455 S
C1605 C1604 1.363 . S
C1605 C1608 1.363 . S
N1606 C1608 1.356 . S
N1606 H1618 0.984 . S
N1606 H1619 0.985 . S
N1607 C1609 1.356 . S
N1607 H1612 0.984 . S
N1607 H1613 0.985 . S
C1608 C1602 1.379 . S
C1608 C1605 1.363 . S
C1608 N1606 1.356 . S
C1609 C1603 1.363 . S
C1609 C1604 1.379 . S
C1609 N1607 1.356 . S
N1610 C1602 1.356 . S
N1610 H1616 0.984 . S
N1610 H1617 0.984 . S
N1611 C1604 1.356 1_655 S
N1611 H1614 0.984 . S
N1611 H1615 0.985 . S
H1612 N1607 0.984 . S
H1613 N1607 0.985 . S
H1614 N1611 0.984 . S
H1615 N1611 0.985 . S
H1616 N1610 0.984 . S
H1617 N1610 0.984 . S
H1618 N1606 0.984 . S
H1619 N1606 0.985 . S
C1620 C1621 1.363 1_554 S
C1620 C1626 1.379 . S
C1620 N1628 1.356 1_554 S
C1621 C1620 1.363 1_556 S
C1621 C1627 1.363 1_556 S
C1622 C1623 1.363 . S
C1622 C1627 1.379 . S
C1622 N1629 1.356 . S
C1623 C1622 1.363 . S
C1623 C1626 1.363 . S
N1624 C1626 1.356 . S
N1624 H1636 0.984 . S
N1624 H1637 0.985 . S
N1625 C1627 1.357 1_556 S
N1625 H1630 0.983 . S
N1625 H1631 0.985 1_556 S
C1626 C1620 1.379 . S
C1626 C1623 1.363 . S
C1626 N1624 1.356 . S
C1627 C1621 1.363 1_554 S
C1627 C1622 1.379 . S
C1627 N1625 1.357 1_554 S
N1628 C1620 1.356 1_556 S
N1628 H1634 0.984 . S
N1628 H1635 0.984 . S
N1629 C1622 1.356 . S
N1629 H1632 0.984 . S
N1629 H1633 0.985 . S
H1630 N1625 0.983 . S
H1631 N1625 0.985 1_554 S
H1632 N1629 0.984 . S
H1633 N1629 0.985 . S
H1634 N1628 0.984 . S
H1635 N1628 0.984 . S
H1636 N1624 0.984 . S
H1637 N1624 0.985 . S
C1638 C1639 1.363 . S
C1638 C1644 1.379 . S
C1638 N1646 1.356 . S
C1639 C1638 1.363 . S
C1639 C1645 1.363 . S
C1640 C1641 1.363 . S
C1640 C1645 1.379 . S
C1640 N1647 1.356 . S
C1641 C1640 1.363 . S
C1641 C1644 1.363 . S
N1642 C1644 1.356 . S
N1642 H1654 0.984 . S
N1642 H1655 0.985 . S
N1643 C1645 1.356 . S
N1643 H1648 0.984 . S
N1643 H1649 0.985 . S
C1644 C1638 1.379 . S
C1644 C1641 1.363 . S
C1644 N1642 1.356 . S
C1645 C1639 1.363 . S
C1645 C1640 1.379 . S
C1645 N1643 1.356 . S
N1646 C1638 1.356 . S
N1646 H1652 0.984 . S
N1646 H1653 0.984 . S
N1647 C1640 1.356 . S
N1647 H1650 0.984 . S
N1647 H1651 0.985 . S
H1648 N1643 0.984 . S
H1649 N1643 0.985 . S
H1650 N1647 0.984 . S
H1651 N1647 0.985 . S
H1652 N1646 0.984 . S
H1653 N1646 0.984 . S
H1654 N1642 0.984 . S
H1655 N1642 0.985 . S
C1656 C1657 1.363 . S
C1656 C1662 1.379 . S
C1656 N1664 1.356 . S
C1657 C1656 1.363 . S
C1657 C1663 1.363 . S
C1658 C1659 1.363 . S
C1658 C1663 1.379 . S
C1658 N1665 1.356 . S
C1659 C1658 1.363 . S
C1659 C1662 1.363 . S
N1660 C1662 1.356 . S
N1660 H1672 0.984 . S
N1660 H1673 0.985 . S
N1661 C1663 1.356 . S
N1661 H1666 0.984 . S
N1661 H1667 0.985 . S
C1662 C1656 1.379 . S
C1662 C1659 1.363 . S
C1662 N1660 1.356 . S
C1663 C1657 1.363 . S
C1663 C1658 1.379 . S
C1663 N1661 1.356 . S
N1664 C1656 1.356 . S
N1664 H1670 0.984 . S
N1664 H1671 0.984 . S
N1665 C1658 1.356 . S
N1665 H1668 0.984 . S
N1665 H1669 0.985 . S
H1666 N1661 0.984 . S
H1667 N1661 0.985 . S
H1668 N1665 0.984 . S
H1669 N1665 0.985 . S
H1670 N1664 0.984 . S
H1671 N1664 0.984 . S
H1672 N1660 0.984 . S
H1673 N1660 0.985 . S
C1674 C1675 1.363 . S
C1674 C1680 1.379 . S
C1674 N1682 1.356 . S
C1675 C1674 1.363 . S
C1675 C1681 1.363 . S
C1676 C1677 1.363 . S
C1676 C1681 1.379 . S
C1676 N1683 1.356 . S
C1677 C1676 1.363 . S
C1677 C1680 1.363 . S
N1678 C1680 1.356 . S
N1678 H1690 0.984 . S
N1678 H1691 0.985 . S
N1679 C1681 1.356 1_556 S
N1679 H1684 0.984 . S
N1679 H1685 0.985 . S
C1680 C1674 1.379 . S
C1680 C1677 1.363 . S
C1680 N1678 1.356 . S
C1681 C1675 1.363 . S
C1681 C1676 1.379 . S
C1681 N1679 1.356 1_554 S
N1682 C1674 1.356 . S
N1682 H1688 0.984 . S
N1682 H1689 0.984 . S
N1683 C1676 1.356 . S
N1683 H1686 0.984 . S
N1683 H1687 0.985 . S
H1684 N1679 0.984 . S
H1685 N1679 0.985 . S
H1686 N1683 0.984 . S
H1687 N1683 0.985 . S
H1688 N1682 0.984 . S
H1689 N1682 0.984 . S
H1690 N1678 0.984 . S
H1691 N1678 0.985 . S
C1692 C1693 1.363 . S
C1692 C1698 1.379 . S
C1692 N1700 1.356 1_565 S
C1693 C1692 1.363 . S
C1693 C1699 1.363 . S
C1694 C1695 1.363 . S
C1694 C1699 1.379 . S
C1694 N1701 1.356 . S
C1695 C1694 1.363 . S
C1695 C1698 1.363 . S
N1696 C1698 1.356 . S
N1696 H1708 0.984 1_565 S
N1696 H1709 0.985 . S
N1697 C1699 1.356 . S
N1697 H1702 0.984 . S
N1697 H1703 0.985 . S
C1698 C1692 1.379 . S
C1698 C1695 1.363 . S
C1698 N1696 1.356 . S
C1699 C1693 1.363 . S
C1699 C1694 1.379 . S
C1699 N1697 1.356 . S
N1700 C1692 1.356 1_545 S
N1700 H1706 0.984 . S
N1700 H1707 0.984 . S
N1701 C1694 1.356 . S
N1701 H1704 0.984 . S
N1701 H1705 0.985 . S
H1702 N1697 0.984 . S
H1703 N1697 0.985 . S
H1704 N1701 0.984 . S
H1705 N1701 0.985 . S
H1706 N1700 0.984 . S
H1707 N1700 0.984 . S
H1708 N1696 0.984 1_545 S
H1709 N1696 0.985 . S
C1710 C1711 1.363 . S
C1710 C1716 1.379 . S
C1710 N1718 1.356 . S
C1711 C1710 1.363 . S
C1711 C1717 1.363 . S
C1712 C1713 1.363 . S
C1712 C1717 1.379 . S
C1712 N1719 1.356 . S
C1713 C1712 1.363 . S
C1713 C1716 1.363 . S
N1714 C1716 1.356 1_655 S
N1714 H1726 0.984 . S
N1714 H1727 0.985 . S
N1715 C1717 1.356 . S
N1715 H1720 0.984 . S
N1715 H1721 0.985 . S
C1716 C1710 1.379 . S
C1716 C1713 1.363 . S
C1716 N1714 1.356 1_455 S
C1717 C1711 1.363 . S
C1717 C1712 1.379 . S
C1717 N1715 1.356 . S
N1718 C1710 1.356 . S
N1718 H1724 0.984 . S
N1718 H1725 0.984 . S
N1719 C1712 1.356 . S
N1719 H1722 0.984 . S
N1719 H1723 0.985 . S
H1720 N1715 0.984 . S
H1721 N1715 0.985 . S
H1722 N1719 0.984 . S
H1723 N1719 0.985 . S
H1724 N1718 0.984 . S
H1725 N1718 0.984 . S
H1726 N1714 0.984 . S
H1727 N1714 0.985 . S
C1728 C1729 1.363 . S
C1728 C1734 1.379 . S
C1728 N1736 1.356 . S
C1729 C1728 1.363 . S
C1729 C1735 1.363 . S
C1730 C1731 1.363 . S
C1730 C1735 1.379 1_556 S
C1730 N1737 1.356 . S
C1731 C1730 1.363 . S
C1731 C1734 1.363 1_556 S
N1732 C1734 1.356 . S
N1732 H1744 0.984 . S
N1732 H1745 0.985 1_554 S
N1733 C1735 1.356 . S
N1733 H1738 0.984 . S
N1733 H1739 0.985 1_554 S
C1734 C1728 1.379 . S
C1734 C1731 1.363 1_554 S
C1734 N1732 1.356 . S
C1735 C1729 1.363 . S
C1735 C1730 1.379 1_554 S
C1735 N1733 1.356 . S
N1736 C1728 1.356 . S
N1736 H1742 0.984 . S
N1736 H1743 0.984 . S
N1737 C1730 1.356 . S
N1737 H1740 0.984 . S
N1737 H1741 0.985 . S
H1738 N1733 0.984 . S
H1739 N1733 0.985 1_556 S
H1740 N1737 0.984 . S
H1741 N1737 0.985 . S
H1742 N1736 0.984 . S
H1743 N1736 0.984 . S
H1744 N1732 0.984 . S
H1745 N1732 0.985 1_556 S
C1746 C1747 1.363 . S
C1746 C1752 1.379 . S
C1746 N1754 1.356 . S
C1747 C1746 1.363 . S
C1747 C1753 1.363 . S
C1748 C1749 1.363 . S
C1748 C1753 1.379 . S
C1748 N1755 1.356 . S
C1749 C1748 1.363 . S
C1749 C1752 1.363 . S
N1750 C1752 1.356 . S
N1750 H1762 0.984 . S
N1750 H1763 0.985 . S
N1751 C1753 1.356 . S
N1751 H1756 0.984 . S
N1751 H1757 0.985 . S
C1752 C1746 1.379 . S
C1752 C1749 1.363 . S
C1752 N1750 1.356 . S
C1753 C1747 1.363 . S
C1753 C1748 1.379 . S
C1753 N1751 1.356 . S
N1754 C1746 1.356 . S
N1754 H1760 0.984 . S
N1754 H1761 0.984 . S
N1755 C1748 1.356 . S
N1755 H1758 0.984 . S
N1755 H1759 0.985 . S
H1756 N1751 0.984 . S
H1757 N1751 0.985 . S
H1758 N1755 0.984 . S
H1759 N1755 0.985 . S
H1760 N1754 0.984 . S
H1761 N1754 0.984 . S
H1762 N1750 0.984 . S
H1763 N1750 0.985 . S
C1764 C1765 1.363 . S
C1764 C1770 1.379 . S
C1764 N1772 1.356 . S
C1765 C1764 1.363 . S
C1765 C1771 1.363 . S
C1766 C1767 1.363 . S
C1766 C1771 1.379 . S
C1766 N1773 1.356 . S
C1767 C1766 1.363 . S
C1767 C1770 1.363 . S
N1768 C1770 1.356 . S
N1768 H1780 0.984 . S
N1768 H1781 0.985 . S
N1769 C1771 1.356 . S
N1769 H1774 0.984 . S
N1769 H1775 0.985 . S
C1770 C1764 1.379 . S
C1770 C1767 1.363 . S
C1770 N1768 1.356 . S
C1771 C1765 1.363 . S
C1771 C1766 1.379 . S
C1771 N1769 1.356 . S
N1772 C1764 1.356 . S
N1772 H1778 0.984 . S
N1772 H1779 0.984 . S
N1773 C1766 1.356 . S
N1773 H1776 0.984 . S
N1773 H1777 0.985 . S
H1774 N1769 0.984 . S
H1775 N1769 0.985 . S
H1776 N1773 0.984 . S
H1777 N1773 0.985 . S
H1778 N1772 0.984 . S
H1779 N1772 0.984 . S
H1780 N1768 0.984 . S
H1781 N1768 0.985 . S
C1782 C1783 1.363 . S
C1782 C1788 1.379 . S
C1782 N1790 1.356 . S
C1783 C1782 1.363 . S
C1783 C1789 1.363 . S
C1784 C1785 1.363 . S
C1784 C1789 1.379 . S
C1784 N1791 1.356 . S
C1785 C1784 1.363 . S
C1785 C1788 1.363 . S
N1786 C1788 1.356 . S
N1786 H1798 0.984 . S
N1786 H1799 0.985 . S
N1787 C1789 1.356 . S
N1787 H1792 0.984 . S
N1787 H1793 0.985 . S
C1788 C1782 1.379 . S
C1788 C1785 1.363 . S
C1788 N1786 1.356 . S
C1789 C1783 1.363 . S
C1789 C1784 1.379 . S
C1789 N1787 1.356 . S
N1790 C1782 1.356 . S
N1790 H1796 0.984 . S
N1790 H1797 0.984 . S
N1791 C1784 1.356 . S
N1791 H1794 0.984 . S
N1791 H1795 0.985 . S
H1792 N1787 0.984 . S
H1793 N1787 0.985 . S
H1794 N1791 0.984 . S
H1795 N1791 0.985 . S
H1796 N1790 0.984 . S
H1797 N1790 0.984 . S
H1798 N1786 0.984 . S
H1799 N1786 0.985 . S
C1800 C1801 1.363 . S
C1800 C1806 1.379 . S
C1800 N1808 1.356 . S
C1801 C1800 1.363 . S
C1801 C1807 1.363 . S
C1802 C1803 1.363 . S
C1802 C1807 1.379 . S
C1802 N1809 1.356 . S
C1803 C1802 1.363 . S
C1803 C1806 1.363 . S
N1804 C1806 1.356 . S
N1804 H1816 0.984 . S
N1804 H1817 0.985 . S
N1805 C1807 1.356 . S
N1805 H1810 0.984 . S
N1805 H1811 0.985 . S
C1806 C1800 1.379 . S
C1806 C1803 1.363 . S
C1806 N1804 1.356 . S
C1807 C1801 1.363 . S
C1807 C1802 1.379 . S
C1807 N1805 1.356 . S
N1808 C1800 1.356 . S
N1808 H1814 0.984 . S
N1808 H1815 0.984 . S
N1809 C1802 1.356 . S
N1809 H1812 0.984 . S
N1809 H1813 0.985 . S
H1810 N1805 0.984 . S
H1811 N1805 0.985 . S
H1812 N1809 0.984 . S
H1813 N1809 0.985 . S
H1814 N1808 0.984 . S
H1815 N1808 0.984 . S
H1816 N1804 0.984 . S
H1817 N1804 0.985 . S
C1818 C1819 1.363 . S
C1818 C1824 1.379 . S
C1818 N1826 1.356 . S
C1819 C1818 1.363 . S
C1819 C1825 1.363 . S
C1820 C1821 1.363 . S
C1820 C1825 1.379 . S
C1820 N1827 1.356 . S
C1821 C1820 1.363 . S
C1821 C1824 1.363 . S
N1822 C1824 1.356 . S
N1822 H1834 0.984 . S
N1822 H1835 0.985 . S
N1823 C1825 1.356 . S
N1823 H1828 0.984 . S
N1823 H1829 0.985 . S
C1824 C1818 1.379 . S
C1824 C1821 1.363 . S
C1824 N1822 1.356 . S
C1825 C1819 1.363 . S
C1825 C1820 1.379 . S
C1825 N1823 1.356 . S
N1826 C1818 1.356 . S
N1826 H1832 0.984 . S
N1826 H1833 0.984 . S
N1827 C1820 1.356 . S
N1827 H1830 0.984 . S
N1827 H1831 0.985 . S
H1828 N1823 0.984 . S
H1829 N1823 0.985 . S
H1830 N1827 0.984 . S
H1831 N1827 0.985 . S
H1832 N1826 0.984 . S
H1833 N1826 0.984 . S
H1834 N1822 0.984 . S
H1835 N1822 0.985 . S
C1836 C1837 1.363 . S
C1836 C1842 1.379 . S
C1836 N1844 1.356 . S
C1837 C1836 1.363 . S
C1837 C1843 1.363 . S
C1838 C1839 1.363 . S
C1838 C1843 1.379 . S
C1838 N1845 1.356 . S
C1839 C1838 1.363 . S
C1839 C1842 1.363 . S
N1840 C1842 1.356 . S
N1840 H1852 0.984 . S
N1840 H1853 0.985 . S
N1841 C1843 1.356 . S
N1841 H1846 0.984 . S
N1841 H1847 0.985 . S
C1842 C1836 1.379 . S
C1842 C1839 1.363 . S
C1842 N1840 1.356 . S
C1843 C1837 1.363 . S
C1843 C1838 1.379 . S
C1843 N1841 1.356 . S
N1844 C1836 1.356 . S
N1844 H1850 0.984 . S
N1844 H1851 0.984 . S
N1845 C1838 1.356 . S
N1845 H1848 0.984 . S
N1845 H1849 0.985 . S
H1846 N1841 0.984 . S
H1847 N1841 0.985 . S
H1848 N1845 0.984 . S
H1849 N1845 0.985 . S
H1850 N1844 0.984 . S
H1851 N1844 0.984 . S
H1852 N1840 0.984 . S
H1853 N1840 0.985 . S
C1854 C1855 1.363 . S
C1854 C1860 1.379 . S
C1854 N1862 1.356 . S
C1855 C1854 1.363 . S
C1855 C1861 1.363 1_554 S
C1856 C1857 1.363 . S
C1856 C1861 1.379 . S
C1856 N1863 1.356 . S
C1857 C1856 1.363 . S
C1857 C1860 1.363 1_556 S
N1858 C1860 1.356 . S
N1858 H1870 0.984 . S
N1858 H1871 0.982 1_554 S
N1859 C1861 1.356 . S
N1859 H1864 0.984 1_556 S
N1859 H1865 0.985 . S
C1860 C1854 1.379 . S
C1860 C1857 1.363 1_554 S
C1860 N1858 1.356 . S
C1861 C1855 1.363 1_556 S
C1861 C1856 1.379 . S
C1861 N1859 1.356 . S
N1862 C1854 1.356 . S
N1862 H1868 0.984 . S
N1862 H1869 0.984 . S
N1863 C1856 1.356 . S
N1863 H1866 0.984 . S
N1863 H1867 0.985 . S
H1864 N1859 0.984 1_554 S
H1865 N1859 0.985 . S
H1866 N1863 0.984 . S
H1867 N1863 0.985 . S
H1868 N1862 0.984 . S
H1869 N1862 0.984 . S
H1870 N1858 0.984 . S
H1871 N1858 0.982 1_556 S
C1872 C1873 1.363 1_655 S
C1872 C1878 1.379 . S
C1872 N1880 1.356 . S
C1873 C1872 1.363 1_455 S
C1873 C1879 1.363 . S
C1874 C1875 1.363 . S
C1874 C1879 1.379 1_655 S
C1874 N1881 1.356 . S
C1875 C1874 1.363 . S
C1875 C1878 1.363 . S
N1876 C1878 1.356 . S
N1876 H1888 0.984 . S
N1876 H1889 0.985 . S
N1877 C1879 1.356 . S
N1877 H1882 0.984 . S
N1877 H1883 0.985 . S
C1878 C1872 1.379 . S
C1878 C1875 1.363 . S
C1878 N1876 1.356 . S
C1879 C1873 1.363 . S
C1879 C1874 1.379 1_455 S
C1879 N1877 1.356 . S
N1880 C1872 1.356 . S
N1880 H1886 0.984 . S
N1880 H1887 0.984 1_655 S
N1881 C1874 1.356 . S
N1881 H1884 0.984 . S
N1881 H1885 0.985 . S
H1882 N1877 0.984 . S
H1883 N1877 0.985 . S
H1884 N1881 0.984 . S
H1885 N1881 0.985 . S
H1886 N1880 0.984 . S
H1887 N1880 0.984 1_455 S
H1888 N1876 0.984 . S
H1889 N1876 0.985 . S
C1890 C1891 1.363 . S
C1890 C1896 1.379 . S
C1890 N1898 1.356 . S
C1891 C1890 1.363 . S
C1891 C1897 1.363 . S
C1892 C1893 1.363 . S
C1892 C1897 1.379 . S
C1892 N1899 1.356 . S
C1893 C1892 1.363 . S
C1893 C1896 1.363 . S
N1894 C1896 1.356 . S
N1894 H1906 0.984 . S
N1894 H1907 0.985 . S
N1895 C1897 1.356 . S
N1895 H1900 0.984 . S
N1895 H1901 0.985 . S
C1896 C1890 1.379 . S
C1896 C1893 1.363 . S
C1896 N1894 1.356 . S
C1897 C1891 1.363 . S
C1897 C1892 1.379 . S
C1897 N1895 1.356 . S
N1898 C1890 1.356 . S
N1898 H1904 0.984 . S
N1898 H1905 0.984 . S
N1899 C1892 1.356 . S
N1899 H1902 0.984 . S
N1899 H1903 0.985 . S
H1900 N1895 0.984 . S
H1901 N1895 0.985 . S
H1902 N1899 0.984 . S
H1903 N1899 0.985 . S
H1904 N1898 0.984 . S
H1905 N1898 0.984 . S
H1906 N1894 0.984 . S
H1907 N1894 0.985 . S
C1908 C1909 1.363 . S
C1908 C1914 1.379 . S
C1908 N1916 1.356 . S
C1909 C1908 1.363 . S
C1909 C1915 1.363 . S
C1910 C1911 1.363 . S
C1910 C1915 1.379 . S
C1910 N1917 1.356 . S
C1911 C1910 1.363 . S
C1911 C1914 1.363 . S
N1912 C1914 1.356 . S
N1912 H1924 0.984 . S
N1912 H1925 0.985 . S
N1913 C1915 1.356 . S
N1913 H1918 0.984 . S
N1913 H1919 0.985 . S
C1914 C1908 1.379 . S
C1914 C1911 1.363 . S
C1914 N1912 1.356 . S
C1915 C1909 1.363 . S
C1915 C1910 1.379 . S
C1915 N1913 1.356 . S
N1916 C1908 1.356 . S
N1916 H1922 0.984 . S
N1916 H1923 0.984 . S
N1917 C1910 1.356 . S
N1917 H1920 0.984 . S
N1917 H1921 0.985 . S
H1918 N1913 0.984 . S
H1919 N1913 0.985 . S
H1920 N1917 0.984 . S
H1921 N1917 0.985 . S
H1922 N1916 0.984 . S
H1923 N1916 0.984 . S
H1924 N1912 0.984 . S
H1925 N1912 0.985 . S
C1926 C1927 1.363 . S
C1926 C1932 1.379 1_545 S
C1926 N1934 1.356 . S
C1927 C1926 1.363 . S
C1927 C1933 1.363 . S
C1928 C1929 1.363 1_545 S
C1928 C1933 1.379 . S
C1928 N1935 1.356 1_545 S
C1929 C1928 1.363 1_565 S
C1929 C1932 1.363 . S
N1930 C1932 1.356 . S
N1930 H1942 0.984 . S
N1930 H1943 0.985 . S
N1931 C1933 1.356 . S
N1931 H1936 0.984 . S
N1931 H1937 0.985 . S
C1932 C1926 1.379 1_565 S
C1932 C1929 1.363 . S
C1932 N1930 1.356 . S
C1933 C1927 1.363 . S
C1933 C1928 1.379 . S
C1933 N1931 1.356 . S
N1934 C1926 1.356 . S
N1934 H1940 0.984 . S
N1934 H1941 0.984 . S
N1935 C1928 1.356 1_565 S
N1935 H1938 0.984 . S
N1935 H1939 0.985 1_565 S
H1936 N1931 0.984 . S
H1937 N1931 0.985 . S
H1938 N1935 0.984 . S
H1939 N1935 0.985 1_545 S
H1940 N1934 0.984 . S
H1941 N1934 0.984 . S
H1942 N1930 0.984 . S
H1943 N1930 0.985 . S
C1944 C1945 1.363 . S
C1944 C1950 1.379 . S
C1944 N1952 1.356 . S
C1945 C1944 1.363 . S
C1945 C1951 1.363 . S
C1946 C1947 1.363 . S
C1946 C1951 1.379 . S
C1946 N1953 1.356 . S
C1947 C1946 1.363 . S
C1947 C1950 1.363 . S
N1948 C1950 1.356 . S
N1948 H1960 0.984 . S
N1948 H1961 0.985 . S
N1949 C1951 1.356 . S
N1949 H1954 0.984 . S
N1949 H1955 0.985 . S
C1950 C1944 1.379 . S
C1950 C1947 1.363 . S
C1950 N1948 1.356 . S
C1951 C1945 1.363 . S
C1951 C1946 1.379 . S
C1951 N1949 1.356 . S
N1952 C1944 1.356 . S
N1952 H1958 0.984 . S
N1952 H1959 0.984 . S
N1953 C1946 1.356 . S
N1953 H1956 0.984 . S
N1953 H1957 0.985 . S
H1954 N1949 0.984 . S
H1955 N1949 0.985 . S
H1956 N1953 0.984 . S
H1957 N1953 0.985 . S
H1958 N1952 0.984 . S
H1959 N1952 0.984 . S
H1960 N1948 0.984 . S
H1961 N1948 0.985 . S
C1962 C1963 1.363 . S
C1962 C1968 1.379 . S
C1962 N1970 1.356 . S
C1963 C1962 1.363 . S
C1963 C1969 1.363 . S
C1964 C1965 1.363 . S
C1964 C1969 1.379 . S
C1964 N1971 1.356 . S
C1965 C1964 1.363 . S
C1965 C1968 1.363 . S
N1966 C1968 1.356 . S
N1966 H1978 0.984 . S
N1966 H1979 0.985 . S
N1967 C1969 1.356 . S
N1967 H1972 0.984 . S
N1967 H1973 0.985 . S
C1968 C1962 1.379 . S
C1968 C1965 1.363 . S
C1968 N1966 1.356 . S
C1969 C1963 1.363 . S
C1969 C1964 1.379 . S
C1969 N1967 1.356 . S
N1970 C1962 1.356 . S
N1970 H1976 0.984 . S
N1970 H1977 0.984 . S
N1971 C1964 1.356 . S
N1971 H1974 0.984 . S
N1971 H1975 0.985 . S
H1972 N1967 0.984 . S
H1973 N1967 0.985 . S
H1974 N1971 0.984 . S
H1975 N1971 0.985 . S
H1976 N1970 0.984 . S
H1977 N1970 0.984 . S
H1978 N1966 0.984 . S
H1979 N1966 0.985 . S
C1980 C1981 1.363 1_565 S
C1980 C1986 1.379 . S
C1980 N1988 1.360 . S
C1981 C1980 1.363 1_545 S
C1981 C1987 1.363 . S
C1982 C1983 1.363 . S
C1982 C1987 1.379 1_565 S
C1982 N1989 1.356 . S
C1983 C1982 1.363 . S
C1983 C1986 1.363 . S
N1984 C1986 1.356 . S
N1984 H1996 0.984 . S
N1984 H1997 0.985 . S
N1985 C1987 1.356 . S
N1985 H1990 0.984 . S
N1985 H1991 0.985 . S
C1986 C1980 1.379 . S
C1986 C1983 1.363 . S
C1986 N1984 1.356 . S
C1987 C1981 1.363 . S
C1987 C1982 1.379 1_545 S
C1987 N1985 1.356 . S
N1988 C1980 1.360 . S
N1988 H1994 0.990 . S
N1988 H1995 0.975 1_565 S
N1989 C1982 1.356 . S
N1989 H1992 0.984 . S
N1989 H1993 0.985 . S
H1990 N1985 0.984 . S
H1991 N1985 0.985 . S
H1992 N1989 0.984 . S
H1993 N1989 0.985 . S
H1994 N1988 0.990 . S
H1995 N1988 0.975 1_545 S
H1996 N1984 0.984 . S
H1997 N1984 0.985 . S
C1998 C1999 1.363 . S
C1998 C2004 1.379 1_655 S
C1998 N2006 1.356 . S
C1999 C1998 1.363 . S
C1999 C2005 1.363 . S
C2000 C2001 1.363 1_655 S
C2000 C2005 1.379 . S
C2000 N2007 1.356 1_655 S
C2001 C2000 1.363 1_455 S
C2001 C2004 1.363 . S
N2002 C2004 1.356 . S
N2002 H2014 0.984 . S
N2002 H2015 0.985 . S
N2003 C2005 1.356 . S
N2003 H2008 0.984 . S
N2003 H2009 0.985 . S
C2004 C1998 1.379 1_455 S
C2004 C2001 1.363 . S
C2004 N2002 1.356 . S
C2005 C1999 1.363 . S
C2005 C2000 1.379 . S
C2005 N2003 1.356 . S
N2006 C1998 1.356 . S
N2006 H2012 0.984 . S
N2006 H2013 0.984 . S
N2007 C2000 1.356 1_455 S
N2007 H2010 0.984 . S
N2007 H2011 0.975 1_455 S
H2008 N2003 0.984 . S
H2009 N2003 0.985 . S
H2010 N2007 0.984 . S
H2011 N2007 0.975 1_655 S
H2012 N2006 0.984 . S
H2013 N2006 0.984 . S
H2014 N2002 0.984 . S
H2015 N2002 0.985 . S
C2016 C2017 1.363 . S
C2016 C2022 1.379 1_545 S
C2016 N2024 1.356 . S
C2017 C2016 1.363 . S
C2017 C2023 1.363 1_545 S
C2018 C2019 1.363 . S
C2018 C2023 1.379 . S
C2018 N2025 1.356 . S
C2019 C2018 1.363 . S
C2019 C2022 1.363 . S
N2020 C2022 1.356 . S
N2020 H2032 0.984 . S
N2020 H2033 0.985 . S
N2021 C2023 1.356 . S
N2021 H2026 0.984 1_565 S
N2021 H2027 0.985 . S
C2022 C2016 1.379 1_565 S
C2022 C2019 1.363 . S
C2022 N2020 1.356 . S
C2023 C2017 1.363 1_565 S
C2023 C2018 1.379 . S
C2023 N2021 1.356 . S
N2024 C2016 1.356 . S
N2024 H2030 0.984 . S
N2024 H2031 0.984 . S
N2025 C2018 1.356 . S
N2025 H2028 0.984 . S
N2025 H2029 0.985 . S
H2026 N2021 0.984 1_545 S
H2027 N2021 0.985 . S
H2028 N2025 0.984 . S
H2029 N2025 0.985 . S
H2030 N2024 0.984 . S
H2031 N2024 0.984 . S
H2032 N2020 0.984 . S
H2033 N2020 0.985 . S
C2034 C2035 1.363 1_455 S
C2034 C2040 1.379 . S
C2034 N2042 1.356 . S
C2035 C2034 1.363 1_655 S
C2035 C2041 1.363 . S
C2036 C2037 1.363 1_655 S
C2036 C2041 1.379 . S
C2036 N2043 1.356 . S
C2037 C2036 1.363 1_455 S
C2037 C2040 1.363 . S
N2038 C2040 1.356 . S
N2038 H2050 0.984 . S
N2038 H2051 0.985 . S
N2039 C2041 1.356 . S
N2039 H2044 0.984 . S
N2039 H2045 0.985 . S
C2040 C2034 1.379 . S
C2040 C2037 1.363 . S
C2040 N2038 1.356 . S
C2041 C2035 1.363 . S
C2041 C2036 1.379 . S
C2041 N2039 1.356 . S
N2042 C2034 1.356 . S
N2042 H2048 0.984 . S
N2042 H2049 0.984 1_455 S
N2043 C2036 1.356 . S
N2043 H2046 0.984 1_655 S
N2043 H2047 0.985 . S
H2044 N2039 0.984 . S
H2045 N2039 0.985 . S
H2046 N2043 0.984 1_455 S
H2047 N2043 0.985 . S
H2048 N2042 0.984 . S
H2049 N2042 0.984 1_655 S
H2050 N2038 0.984 . S
H2051 N2038 0.985 . S
C2052 C2053 1.363 . S
C2052 C2058 1.381 . S
C2052 N2060 1.356 . S
C2053 C2052 1.363 . S
C2053 C2059 1.363 1_556 S
C2054 C2055 1.363 . S
C2054 C2059 1.379 . S
C2054 N2061 1.356 . S
C2055 C2054 1.363 . S
C2055 C2058 1.359 1_554 S
N2056 C2058 1.357 . S
N2056 H2068 0.984 . S
N2056 H2069 0.985 1_556 S
N2057 C2059 1.356 . S
N2057 H2062 0.984 . S
N2057 H2063 0.985 . S
C2058 C2052 1.381 . S
C2058 C2055 1.359 1_556 S
C2058 N2056 1.357 . S
C2059 C2053 1.363 1_554 S
C2059 C2054 1.379 . S
C2059 N2057 1.356 . S
N2060 C2052 1.356 . S
N2060 H2066 0.984 . S
N2060 H2067 0.984 . S
N2061 C2054 1.356 . S
N2061 H2064 0.984 . S
N2061 H2065 0.985 . S
H2062 N2057 0.984 . S
H2063 N2057 0.985 . S
H2064 N2061 0.984 . S
H2065 N2061 0.985 . S
H2066 N2060 0.984 . S
H2067 N2060 0.984 . S
H2068 N2056 0.984 . S
H2069 N2056 0.985 1_554 S
C2070 C2071 1.363 . S
C2070 C2076 1.379 . S
C2070 N2078 1.356 . S
C2071 C2070 1.363 . S
C2071 C2077 1.363 . S
C2072 C2073 1.363 . S
C2072 C2077 1.379 1_554 S
C2072 N2079 1.356 . S
C2073 C2072 1.363 . S
C2073 C2076 1.361 1_554 S
N2074 C2076 1.356 . S
N2074 H2086 0.984 . S
N2074 H2087 0.985 . S
N2075 C2077 1.356 . S
N2075 H2080 0.984 . S
N2075 H2081 0.985 . S
C2076 C2070 1.379 . S
C2076 C2073 1.361 1_556 S
C2076 N2074 1.356 . S
C2077 C2071 1.363 . S
C2077 C2072 1.379 1_556 S
C2077 N2075 1.356 . S
N2078 C2070 1.356 . S
N2078 H2084 0.984 . S
N2078 H2085 0.984 . S
N2079 C2072 1.356 . S
N2079 H2082 0.984 . S
N2079 H2083 0.985 . S
H2080 N2075 0.984 . S
H2081 N2075 0.985 . S
H2082 N2079 0.984 . S
H2083 N2079 0.985 . S
H2084 N2078 0.984 . S
H2085 N2078 0.984 . S
H2086 N2074 0.984 . S
H2087 N2074 0.985 . S
C2088 C2089 1.363 . S
C2088 C2094 1.379 . S
C2088 N2096 1.356 . S
C2089 C2088 1.363 . S
C2089 C2095 1.363 1_545 S
C2090 C2091 1.363 . S
C2090 C2095 1.379 . S
C2090 N2097 1.356 . S
C2091 C2090 1.363 . S
C2091 C2094 1.363 1_565 S
N2092 C2094 1.356 . S
N2092 H2104 0.984 . S
N2092 H2105 0.985 1_545 S
N2093 C2095 1.356 . S
N2093 H2098 0.984 1_565 S
N2093 H2099 0.985 . S
C2094 C2088 1.379 . S
C2094 C2091 1.363 1_545 S
C2094 N2092 1.356 . S
C2095 C2089 1.363 1_565 S
C2095 C2090 1.379 . S
C2095 N2093 1.356 . S
N2096 C2088 1.356 . S
N2096 H2102 0.984 . S
N2096 H2103 0.984 . S
N2097 C2090 1.356 . S
N2097 H2100 0.984 . S
N2097 H2101 0.985 . S
H2098 N2093 0.984 1_545 S
H2099 N2093 0.985 . S
H2100 N2097 0.984 . S
H2101 N2097 0.985 . S
H2102 N2096 0.984 . S
H2103 N2096 0.984 . S
H2104 N2092 0.984 . S
H2105 N2092 0.985 1_565 S
C2106 C2107 1.363 1_455 S
C2106 C2112 1.379 . S
C2106 N2114 1.356 1_455 S
C2107 C2106 1.363 1_655 S
C2107 C2113 1.363 . S
C2108 C2109 1.363 . S
C2108 C2113 1.379 1_455 S
C2108 N2115 1.356 . S
C2109 C2108 1.363 . S
C2109 C2112 1.363 . S
N2110 C2112 1.356 . S
N2110 H2122 0.984 . S
N2110 H2123 0.985 . S
N2111 C2113 1.356 . S
N2111 H2116 0.984 . S
N2111 H2117 0.985 . S
C2112 C2106 1.379 . S
C2112 C2109 1.363 . S
C2112 N2110 1.356 . S
C2113 C2107 1.363 . S
C2113 C2108 1.379 1_655 S
C2113 N2111 1.356 . S
N2114 C2106 1.356 1_655 S
N2114 H2120 0.984 1_655 S
N2114 H2121 0.984 . S
N2115 C2108 1.356 . S
N2115 H2118 0.984 . S
N2115 H2119 0.985 . S
H2116 N2111 0.984 . S
H2117 N2111 0.985 . S
H2118 N2115 0.984 . S
H2119 N2115 0.985 . S
H2120 N2114 0.984 1_455 S
H2121 N2114 0.984 . S
H2122 N2110 0.984 . S
H2123 N2110 0.985 . S
C2124 C2125 1.363 . S
C2124 C2130 1.379 1_556 S
C2124 N2132 1.356 . S
C2125 C2124 1.363 . S
C2125 C2131 1.363 . S
C2126 C2127 1.363 1_556 S
C2126 C2131 1.379 . S
C2126 N2133 1.356 1_556 S
C2127 C2126 1.363 1_554 S
C2127 C2130 1.363 . S
N2128 C2130 1.356 . S
N2128 H2140 0.984 . S
N2128 H2141 0.985 . S
N2129 C2131 1.356 . S
N2129 H2134 0.984 . S
N2129 H2135 0.985 . S
C2130 C2124 1.379 1_554 S
C2130 C2127 1.363 . S
C2130 N2128 1.356 . S
C2131 C2125 1.363 . S
C2131 C2126 1.379 . S
C2131 N2129 1.356 . S
N2132 C2124 1.356 . S
N2132 H2138 0.984 . S
N2132 H2139 0.984 . S
N2133 C2126 1.356 1_554 S
N2133 H2136 0.984 . S
N2133 H2137 0.985 1_554 S
H2134 N2129 0.984 . S
H2135 N2129 0.985 . S
H2136 N2133 0.984 . S
H2137 N2133 0.985 1_556 S
H2138 N2132 0.984 . S
H2139 N2132 0.984 . S
H2140 N2128 0.984 . S
H2141 N2128 0.985 . S
C2142 C2143 1.363 . S
C2142 C2148 1.379 . S
C2142 N2150 1.356 . S
C2143 C2142 1.363 . S
C2143 C2149 1.363 . S
C2144 C2145 1.363 . S
C2144 C2149 1.379 . S
C2144 N2151 1.356 . S
C2145 C2144 1.363 . S
C2145 C2148 1.363 . S
N2146 C2148 1.356 . S
N2146 H2158 0.984 . S
N2146 H2159 0.985 . S
N2147 C2149 1.356 . S
N2147 H2152 0.984 . S
N2147 H2153 0.985 . S
C2148 C2142 1.379 . S
C2148 C2145 1.363 . S
C2148 N2146 1.356 . S
C2149 C2143 1.363 . S
C2149 C2144 1.379 . S
C2149 N2147 1.356 . S
N2150 C2142 1.356 . S
N2150 H2156 0.984 . S
N2150 H2157 0.984 . S
N2151 C2144 1.356 . S
N2151 H2154 0.984 . S
N2151 H2155 0.985 . S
H2152 N2147 0.984 . S
H2153 N2147 0.985 . S
H2154 N2151 0.984 . S
H2155 N2151 0.985 . S
H2156 N2150 0.984 . S
H2157 N2150 0.984 . S
H2158 N2146 0.984 . S
H2159 N2146 0.985 . S
C2160 C2161 1.363 . S
C2160 C2166 1.379 . S
C2160 N2168 1.356 . S
C2161 C2160 1.363 . S
C2161 C2167 1.363 . S
C2162 C2163 1.363 . S
C2162 C2167 1.379 . S
C2162 N2169 1.356 . S
C2163 C2162 1.363 . S
C2163 C2166 1.363 . S
N2164 C2166 1.356 . S
N2164 H2176 0.984 . S
N2164 H2177 0.985 . S
N2165 C2167 1.356 . S
N2165 H2170 0.984 . S
N2165 H2171 0.985 . S
C2166 C2160 1.379 . S
C2166 C2163 1.363 . S
C2166 N2164 1.356 . S
C2167 C2161 1.363 . S
C2167 C2162 1.379 . S
C2167 N2165 1.356 . S
N2168 C2160 1.356 . S
N2168 H2174 0.984 . S
N2168 H2175 0.984 . S
N2169 C2162 1.356 . S
N2169 H2172 0.984 . S
N2169 H2173 0.985 . S
H2170 N2165 0.984 . S
H2171 N2165 0.985 . S
H2172 N2169 0.984 . S
H2173 N2169 0.985 . S
H2174 N2168 0.984 . S
H2175 N2168 0.984 . S
H2176 N2164 0.984 . S
H2177 N2164 0.985 . S
C2178 C2179 1.363 . S
C2178 C2184 1.379 . S
C2178 N2186 1.356 . S
C2179 C2178 1.363 . S
C2179 C2185 1.363 . S
C2180 C2181 1.363 . S
C2180 C2185 1.379 . S
C2180 N2187 1.356 . S
C2181 C2180 1.363 . S
C2181 C2184 1.363 . S
N2182 C2184 1.356 . S
N2182 H2194 0.984 . S
N2182 H2195 0.985 . S
N2183 C2185 1.356 . S
N2183 H2188 0.984 . S
N2183 H2189 0.985 . S
C2184 C2178 1.379 . S
C2184 C2181 1.363 . S
C2184 N2182 1.356 . S
C2185 C2179 1.363 . S
C2185 C2180 1.379 . S
C2185 N2183 1.356 . S
N2186 C2178 1.356 . S
N2186 H2192 0.984 . S
N2186 H2193 0.984 . S
N2187 C2180 1.356 . S
N2187 H2190 0.984 . S
N2187 H2191 0.985 . S
H2188 N2183 0.984 . S
H2189 N2183 0.985 . S
H2190 N2187 0.984 . S
H2191 N2187 0.985 . S
H2192 N2186 0.984 . S
H2193 N2186 0.984 . S
H2194 N2182 0.984 . S
H2195 N2182 0.985 . S
C2196 C2197 1.363 . S
C2196 C2202 1.379 . S
C2196 N2204 1.356 . S
C2197 C2196 1.363 . S
C2197 C2203 1.363 . S
C2198 C2199 1.363 . S
C2198 C2203 1.379 . S
C2198 N2205 1.356 . S
C2199 C2198 1.363 . S
C2199 C2202 1.363 . S
N2200 C2202 1.356 . S
N2200 H2212 0.984 . S
N2200 H2213 0.985 . S
N2201 C2203 1.356 . S
N2201 H2206 0.984 . S
N2201 H2207 0.985 . S
C2202 C2196 1.379 . S
C2202 C2199 1.363 . S
C2202 N2200 1.356 . S
C2203 C2197 1.363 . S
C2203 C2198 1.379 . S
C2203 N2201 1.356 . S
N2204 C2196 1.356 . S
N2204 H2210 0.984 . S
N2204 H2211 0.984 . S
N2205 C2198 1.356 . S
N2205 H2208 0.984 . S
N2205 H2209 0.985 . S
H2206 N2201 0.984 . S
H2207 N2201 0.985 . S
H2208 N2205 0.984 . S
H2209 N2205 0.985 . S
H2210 N2204 0.984 . S
H2211 N2204 0.984 . S
H2212 N2200 0.984 . S
H2213 N2200 0.985 . S
C2214 C2215 1.363 . S
C2214 C2220 1.379 1_554 S
C2214 N2222 1.356 . S
C2215 C2214 1.363 . S
C2215 C2221 1.363 . S
C2216 C2217 1.363 . S
C2216 C2221 1.379 1_556 S
C2216 N2223 1.356 . S
C2217 C2216 1.363 . S
C2217 C2220 1.363 . S
N2218 C2220 1.356 . S
N2218 H2230 0.984 . S
N2218 H2231 0.985 . S
N2219 C2221 1.356 . S
N2219 H2224 0.984 . S
N2219 H2225 0.985 . S
C2220 C2214 1.379 1_556 S
C2220 C2217 1.363 . S
C2220 N2218 1.356 . S
C2221 C2215 1.363 . S
C2221 C2216 1.379 1_554 S
C2221 N2219 1.356 . S
N2222 C2214 1.356 . S
N2222 H2228 0.984 . S
N2222 H2229 0.984 . S
N2223 C2216 1.356 . S
N2223 H2226 0.984 . S
N2223 H2227 0.985 . S
H2224 N2219 0.984 . S
H2225 N2219 0.985 . S
H2226 N2223 0.984 . S
H2227 N2223 0.985 . S
H2228 N2222 0.984 . S
H2229 N2222 0.984 . S
H2230 N2218 0.984 . S
H2231 N2218 0.985 . S
C2232 C2233 1.363 . S
C2232 C2238 1.375 . S
C2232 N2240 1.356 . S
C2233 C2232 1.363 . S
C2233 C2239 1.363 . S
C2234 C2235 1.363 1_455 S
C2234 C2239 1.379 . S
C2234 N2241 1.356 . S
C2235 C2234 1.363 1_655 S
C2235 C2238 1.364 1_655 S
N2236 C2238 1.360 1_655 S
N2236 H2248 0.984 . S
N2236 H2249 0.985 . S
N2237 C2239 1.356 . S
N2237 H2242 0.984 . S
N2237 H2243 0.985 . S
C2238 C2232 1.375 . S
C2238 C2235 1.364 1_455 S
C2238 N2236 1.360 1_455 S
C2239 C2233 1.363 . S
C2239 C2234 1.379 . S
C2239 N2237 1.356 . S
N2240 C2232 1.356 . S
N2240 H2246 0.984 . S
N2240 H2247 0.984 . S
N2241 C2234 1.356 . S
N2241 H2244 0.984 1_455 S
N2241 H2245 0.985 . S
H2242 N2237 0.984 . S
H2243 N2237 0.985 . S
H2244 N2241 0.984 1_655 S
H2245 N2241 0.985 . S
H2246 N2240 0.984 . S
H2247 N2240 0.984 . S
H2248 N2236 0.984 . S
H2249 N2236 0.985 . S
C2250 C2251 1.363 . S
C2250 C2256 1.379 . S
C2250 N2258 1.356 . S
C2251 C2250 1.363 . S
C2251 C2257 1.363 . S
C2252 C2253 1.363 . S
C2252 C2257 1.379 . S
C2252 N2259 1.356 . S
C2253 C2252 1.363 . S
C2253 C2256 1.363 . S
N2254 C2256 1.356 . S
N2254 H2266 0.984 . S
N2254 H2267 0.985 . S
N2255 C2257 1.356 . S
N2255 H2260 0.984 . S
N2255 H2261 0.985 . S
C2256 C2250 1.379 . S
C2256 C2253 1.363 . S
C2256 N2254 1.356 . S
C2257 C2251 1.363 . S
C2257 C2252 1.379 . S
C2257 N2255 1.356 . S
N2258 C2250 1.356 . S
N2258 H2264 0.984 . S
N2258 H2265 0.984 . S
N2259 C2252 1.356 . S
N2259 H2262 0.984 . S
N2259 H2263 0.985 . S
H2260 N2255 0.984 . S
H2261 N2255 0.985 . S
H2262 N2259 0.984 . S
H2263 N2259 0.985 . S
H2264 N2258 0.984 . S
H2265 N2258 0.984 . S
H2266 N2254 0.984 . S
H2267 N2254 0.985 . S
C2268 C2269 1.363 . S
C2268 C2274 1.379 . S
C2268 N2276 1.356 . S
C2269 C2268 1.363 . S
C2269 C2275 1.363 . S
C2270 C2271 1.363 . S
C2270 C2275 1.379 . S
C2270 N2277 1.356 . S
C2271 C2270 1.363 . S
C2271 C2274 1.363 . S
N2272 C2274 1.356 . S
N2272 H2284 0.984 . S
N2272 H2285 0.985 . S
N2273 C2275 1.356 . S
N2273 H2278 0.984 . S
N2273 H2279 0.985 . S
C2274 C2268 1.379 . S
C2274 C2271 1.363 . S
C2274 N2272 1.356 . S
C2275 C2269 1.363 . S
C2275 C2270 1.379 . S
C2275 N2273 1.356 . S
N2276 C2268 1.356 . S
N2276 H2282 0.984 . S
N2276 H2283 0.984 . S
N2277 C2270 1.356 . S
N2277 H2280 0.984 . S
N2277 H2281 0.985 . S
H2278 N2273 0.984 . S
H2279 N2273 0.985 . S
H2280 N2277 0.984 . S
H2281 N2277 0.985 . S
H2282 N2276 0.984 . S
H2283 N2276 0.984 . S
H2284 N2272 0.984 . S
H2285 N2272 0.985 . S
C2286 C2287 1.363 . S
C2286 C2292 1.379 . S
C2286 N2294 1.356 . S
C2287 C2286 1.363 . S
C2287 C2293 1.363 . S
C2288 C2289 1.363 . S
C2288 C2293 1.379 . S
C2288 N2295 1.356 . S
C2289 C2288 1.363 . S
C2289 C2292 1.363 . S
N2290 C2292 1.356 . S
N2290 H2302 0.984 . S
N2290 H2303 0.985 . S
N2291 C2293 1.356 . S
N2291 H2296 0.984 . S
N2291 H2297 0.985 . S
C2292 C2286 1.379 . S
C2292 C2289 1.363 . S
C2292 N2290 1.356 . S
C2293 C2287 1.363 . S
C2293 C2288 1.379 . S
C2293 N2291 1.356 . S
N2294 C2286 1.356 . S
N2294 H2300 0.984 . S
N2294 H2301 0.984 . S
N2295 C2288 1.356 . S
N2295 H2298 0.984 . S
N2295 H2299 0.985 . S
H2296 N2291 0.984 . S
H2297 N2291 0.985 . S
H2298 N2295 0.984 . S
H2299 N2295 0.985 . S
H2300 N2294 0.984 . S
H2301 N2294 0.984 . S
H2302 N2290 0.984 . S
H2303 N2290 0.985 . S
C2304 C2305 1.363 . S
C2304 C2310 1.379 . S
C2304 N2312 1.356 . S
C2305 C2304 1.363 . S
C2305 C2311 1.363 . S
C2306 C2307 1.363 . S
C2306 C2311 1.379 . S
C2306 N2313 1.356 . S
C2307 C2306 1.363 . S
C2307 C2310 1.363 . S
N2308 C2310 1.356 . S
N2308 H2320 0.984 . S
N2308 H2321 0.985 . S
N2309 C2311 1.356 . S
N2309 H2314 0.984 . S
N2309 H2315 0.985 . S
C2310 C2304 1.379 . S
C2310 C2307 1.363 . S
C2310 N2308 1.356 . S
C2311 C2305 1.363 . S
C2311 C2306 1.379 . S
C2311 N2309 1.356 . S
N2312 C2304 1.356 . S
N2312 H2318 0.984 . S
N2312 H2319 0.984 . S
N2313 C2306 1.356 . S
N2313 H2316 0.984 . S
N2313 H2317 0.985 . S
H2314 N2309 0.984 . S
H2315 N2309 0.985 . S
H2316 N2313 0.984 . S
H2317 N2313 0.985 . S
H2318 N2312 0.984 . S
H2319 N2312 0.984 . S
H2320 N2308 0.984 . S
H2321 N2308 0.985 . S
C2322 C2323 1.363 1_655 S
C2322 C2328 1.379 . S
C2322 N2330 1.356 . S
C2323 C2322 1.363 1_455 S
C2323 C2329 1.363 . S
C2324 C2325 1.363 . S
C2324 C2329 1.379 1_655 S
C2324 N2331 1.356 . S
C2325 C2324 1.363 . S
C2325 C2328 1.363 . S
N2326 C2328 1.356 . S
N2326 H2338 0.984 . S
N2326 H2339 0.985 . S
N2327 C2329 1.356 . S
N2327 H2332 0.984 . S
N2327 H2333 0.985 . S
C2328 C2322 1.379 . S
C2328 C2325 1.363 . S
C2328 N2326 1.356 . S
C2329 C2323 1.363 . S
C2329 C2324 1.379 1_455 S
C2329 N2327 1.356 . S
N2330 C2322 1.356 . S
N2330 H2336 0.984 . S
N2330 H2337 0.984 1_655 S
N2331 C2324 1.356 . S
N2331 H2334 0.984 . S
N2331 H2335 0.985 . S
H2332 N2327 0.984 . S
H2333 N2327 0.985 . S
H2334 N2331 0.984 . S
H2335 N2331 0.985 . S
H2336 N2330 0.984 . S
H2337 N2330 0.984 1_455 S
H2338 N2326 0.984 . S
H2339 N2326 0.985 . S
C2340 C2341 1.363 . S
C2340 C2346 1.379 . S
C2340 N2348 1.356 1_455 S
C2341 C2340 1.363 . S
C2341 C2347 1.363 . S
C2342 C2343 1.363 . S
C2342 C2347 1.379 . S
C2342 N2349 1.356 . S
C2343 C2342 1.363 . S
C2343 C2346 1.363 . S
N2344 C2346 1.356 . S
N2344 H2356 0.984 . S
N2344 H2357 0.985 . S
N2345 C2347 1.356 . S
N2345 H2350 0.984 . S
N2345 H2351 0.985 . S
C2346 C2340 1.379 . S
C2346 C2343 1.363 . S
C2346 N2344 1.356 . S
C2347 C2341 1.363 . S
C2347 C2342 1.379 . S
C2347 N2345 1.356 . S
N2348 C2340 1.356 1_655 S
N2348 H2354 0.984 . S
N2348 H2355 0.984 . S
N2349 C2342 1.356 . S
N2349 H2352 0.984 . S
N2349 H2353 0.985 . S
H2350 N2345 0.984 . S
H2351 N2345 0.985 . S
H2352 N2349 0.984 . S
H2353 N2349 0.985 . S
H2354 N2348 0.984 . S
H2355 N2348 0.984 . S
H2356 N2344 0.984 . S
H2357 N2344 0.985 . S
C2358 C2359 1.363 . S
C2358 C2364 1.379 . S
C2358 N2366 1.356 . S
C2359 C2358 1.363 . S
C2359 C2365 1.363 . S
C2360 C2361 1.363 . S
C2360 C2365 1.379 . S
C2360 N2367 1.356 . S
C2361 C2360 1.363 . S
C2361 C2364 1.363 . S
N2362 C2364 1.356 . S
N2362 H2374 0.984 . S
N2362 H2375 0.985 . S
N2363 C2365 1.356 . S
N2363 H2368 0.984 . S
N2363 H2369 0.985 . S
C2364 C2358 1.379 . S
C2364 C2361 1.363 . S
C2364 N2362 1.356 . S
C2365 C2359 1.363 . S
C2365 C2360 1.379 . S
C2365 N2363 1.356 . S
N2366 C2358 1.356 . S
N2366 H2372 0.984 . S
N2366 H2373 0.984 . S
N2367 C2360 1.356 . S
N2367 H2370 0.984 . S
N2367 H2371 0.985 . S
H2368 N2363 0.984 . S
H2369 N2363 0.985 . S
H2370 N2367 0.984 . S
H2371 N2367 0.985 . S
H2372 N2366 0.984 . S
H2373 N2366 0.984 . S
H2374 N2362 0.984 . S
H2375 N2362 0.985 . S
C2376 C2377 1.363 . S
C2376 C2382 1.379 . S
C2376 N2384 1.356 . S
C2377 C2376 1.363 . S
C2377 C2383 1.363 . S
C2378 C2379 1.363 . S
C2378 C2383 1.379 . S
C2378 N2385 1.356 . S
C2379 C2378 1.363 . S
C2379 C2382 1.363 . S
N2380 C2382 1.356 . S
N2380 H2392 0.984 . S
N2380 H2393 0.985 . S
N2381 C2383 1.356 . S
N2381 H2386 0.984 . S
N2381 H2387 0.985 . S
C2382 C2376 1.379 . S
C2382 C2379 1.363 . S
C2382 N2380 1.356 . S
C2383 C2377 1.363 . S
C2383 C2378 1.379 . S
C2383 N2381 1.356 . S
N2384 C2376 1.356 . S
N2384 H2390 0.984 . S
N2384 H2391 0.984 . S
N2385 C2378 1.356 . S
N2385 H2388 0.984 . S
N2385 H2389 0.985 . S
H2386 N2381 0.984 . S
H2387 N2381 0.985 . S
H2388 N2385 0.984 . S
H2389 N2385 0.985 . S
H2390 N2384 0.984 . S
H2391 N2384 0.984 . S
H2392 N2380 0.984 . S
H2393 N2380 0.985 . S
C2394 C2395 1.363 . S
C2394 C2400 1.379 . S
C2394 N2402 1.356 . S
C2395 C2394 1.363 . S
C2395 C2401 1.363 . S
C2396 C2397 1.363 . S
C2396 C2401 1.379 . S
C2396 N2403 1.356 . S
C2397 C2396 1.363 . S
C2397 C2400 1.363 . S
N2398 C2400 1.356 . S
N2398 H2410 0.984 . S
N2398 H2411 0.985 . S
N2399 C2401 1.356 . S
N2399 H2404 0.984 . S
N2399 H2405 0.985 . S
C2400 C2394 1.379 . S
C2400 C2397 1.363 . S
C2400 N2398 1.356 . S
C2401 C2395 1.363 . S
C2401 C2396 1.379 . S
C2401 N2399 1.356 . S
N2402 C2394 1.356 . S
N2402 H2408 0.984 . S
N2402 H2409 0.984 . S
N2403 C2396 1.356 . S
N2403 H2406 0.984 . S
N2403 H2407 0.985 . S
H2404 N2399 0.984 . S
H2405 N2399 0.985 . S
H2406 N2403 0.984 . S
H2407 N2403 0.985 . S
H2408 N2402 0.984 . S
H2409 N2402 0.984 . S
H2410 N2398 0.984 . S
H2411 N2398 0.985 . S
C2412 C2413 1.363 . S
C2412 C2418 1.379 . S
C2412 N2420 1.356 . S
C2413 C2412 1.363 . S
C2413 C2419 1.363 . S
C2414 C2415 1.363 . S
C2414 C2419 1.379 . S
C2414 N2421 1.356 . S
C2415 C2414 1.363 . S
C2415 C2418 1.363 . S
N2416 C2418 1.356 . S
N2416 H2428 0.984 . S
N2416 H2429 0.985 . S
N2417 C2419 1.356 . S
N2417 H2422 0.984 . S
N2417 H2423 0.985 . S
C2418 C2412 1.379 . S
C2418 C2415 1.363 . S
C2418 N2416 1.356 . S
C2419 C2413 1.363 . S
C2419 C2414 1.379 . S
C2419 N2417 1.356 . S
N2420 C2412 1.356 . S
N2420 H2426 0.984 . S
N2420 H2427 0.984 . S
N2421 C2414 1.356 . S
N2421 H2424 0.984 . S
N2421 H2425 0.985 . S
H2422 N2417 0.984 . S
H2423 N2417 0.985 . S
H2424 N2421 0.984 . S
H2425 N2421 0.985 . S
H2426 N2420 0.984 . S
H2427 N2420 0.984 . S
H2428 N2416 0.984 . S
H2429 N2416 0.985 . S
C2430 C2431 1.363 . S
C2430 C2436 1.379 . S
C2430 N2438 1.356 . S
C2431 C2430 1.363 . S
C2431 C2437 1.363 . S
C2432 C2433 1.363 . S
C2432 C2437 1.379 1_554 S
C2432 N2439 1.356 . S
C2433 C2432 1.363 . S
C2433 C2436 1.363 1_554 S
N2434 C2436 1.356 1_654 S
N2434 H2446 0.984 1_554 S
N2434 H2447 0.985 . S
N2435 C2437 1.356 . S
N2435 H2440 0.984 . S
N2435 H2441 0.985 . S
C2436 C2430 1.379 . S
C2436 C2433 1.363 1_556 S
C2436 N2434 1.356 1_456 S
C2437 C2431 1.363 . S
C2437 C2432 1.379 1_556 S
C2437 N2435 1.356 . S
N2438 C2430 1.356 . S
N2438 H2444 0.984 . S
N2438 H2445 0.984 . S
N2439 C2432 1.356 . S
N2439 H2442 0.984 . S
N2439 H2443 0.985 . S
H2440 N2435 0.984 . S
H2441 N2435 0.985 . S
H2442 N2439 0.984 . S
H2443 N2439 0.985 . S
H2444 N2438 0.984 . S
H2445 N2438 0.984 . S
H2446 N2434 0.984 1_556 S
H2447 N2434 0.985 . S
C2448 C2449 1.363 . S
C2448 C2454 1.379 . S
C2448 N2456 1.356 . S
C2449 C2448 1.363 . S
C2449 C2455 1.363 . S
C2450 C2451 1.363 . S
C2450 C2455 1.379 . S
C2450 N2457 1.356 . S
C2451 C2450 1.363 . S
C2451 C2454 1.363 . S
N2452 C2454 1.356 . S
N2452 H2464 0.984 . S
N2452 H2465 0.985 . S
N2453 C2455 1.356 . S
N2453 H2458 0.984 . S
N2453 H2459 0.985 . S
C2454 C2448 1.379 . S
C2454 C2451 1.363 . S
C2454 N2452 1.356 . S
C2455 C2449 1.363 . S
C2455 C2450 1.379 . S
C2455 N2453 1.356 . S
N2456 C2448 1.356 . S
N2456 H2462 0.984 . S
N2456 H2463 0.984 . S
N2457 C2450 1.356 . S
N2457 H2460 0.984 . S
N2457 H2461 0.985 . S
H2458 N2453 0.984 . S
H2459 N2453 0.985 . S
H2460 N2457 0.984 . S
H2461 N2457 0.985 . S
H2462 N2456 0.984 . S
H2463 N2456 0.984 . S
H2464 N2452 0.984 . S
H2465 N2452 0.985 . S
C2466 C2467 1.363 . S
C2466 C2472 1.379 . S
C2466 N2474 1.356 . S
C2467 C2466 1.363 . S
C2467 C2473 1.363 . S
C2468 C2469 1.363 . S
C2468 C2473 1.379 . S
C2468 N2475 1.356 . S
C2469 C2468 1.363 . S
C2469 C2472 1.363 . S
N2470 C2472 1.356 . S
N2470 H2482 0.984 . S
N2470 H2483 0.985 . S
N2471 C2473 1.356 . S
N2471 H2476 0.984 . S
N2471 H2477 0.985 . S
C2472 C2466 1.379 . S
C2472 C2469 1.363 . S
C2472 N2470 1.356 . S
C2473 C2467 1.363 . S
C2473 C2468 1.379 . S
C2473 N2471 1.356 . S
N2474 C2466 1.356 . S
N2474 H2480 0.984 . S
N2474 H2481 0.984 . S
N2475 C2468 1.356 . S
N2475 H2478 0.984 . S
N2475 H2479 0.985 . S
H2476 N2471 0.984 . S
H2477 N2471 0.985 . S
H2478 N2475 0.984 . S
H2479 N2475 0.985 . S
H2480 N2474 0.984 . S
H2481 N2474 0.984 . S
H2482 N2470 0.984 . S
H2483 N2470 0.985 . S
C2484 C2485 1.363 . S
C2484 C2490 1.379 . S
C2484 N2492 1.356 . S
C2485 C2484 1.363 . S
C2485 C2491 1.363 1_545 S
C2486 C2487 1.363 . S
C2486 C2491 1.379 . S
C2486 N2493 1.356 . S
C2487 C2486 1.363 . S
C2487 C2490 1.363 1_565 S
N2488 C2490 1.356 . S
N2488 H2500 0.984 . S
N2488 H2501 0.985 1_545 S
N2489 C2491 1.356 . S
N2489 H2494 0.984 1_565 S
N2489 H2495 0.985 . S
C2490 C2484 1.379 . S
C2490 C2487 1.363 1_545 S
C2490 N2488 1.356 . S
C2491 C2485 1.363 1_565 S
C2491 C2486 1.379 . S
C2491 N2489 1.356 . S
N2492 C2484 1.356 . S
N2492 H2498 0.984 . S
N2492 H2499 0.984 . S
N2493 C2486 1.356 . S
N2493 H2496 0.984 . S
N2493 H2497 0.985 . S
H2494 N2489 0.984 1_545 S
H2495 N2489 0.985 . S
H2496 N2493 0.984 . S
H2497 N2493 0.985 . S
H2498 N2492 0.984 . S
H2499 N2492 0.984 . S
H2500 N2488 0.984 . S
H2501 N2488 0.985 1_565 S
C2502 C2503 1.363 . S
C2502 C2508 1.379 . S
C2502 N2510 1.356 . S
C2503 C2502 1.363 . S
C2503 C2509 1.363 . S
C2504 C2505 1.363 . S
C2504 C2509 1.379 . S
C2504 N2511 1.356 . S
C2505 C2504 1.363 . S
C2505 C2508 1.363 . S
N2506 C2508 1.356 . S
N2506 H2518 0.984 . S
N2506 H2519 0.985 . S
N2507 C2509 1.356 . S
N2507 H2512 0.984 . S
N2507 H2513 0.985 . S
C2508 C2502 1.379 . S
C2508 C2505 1.363 . S
C2508 N2506 1.356 . S
C2509 C2503 1.363 . S
C2509 C2504 1.379 . S
C2509 N2507 1.356 . S
N2510 C2502 1.356 . S
N2510 H2516 0.984 . S
N2510 H2517 0.984 . S
N2511 C2504 1.356 . S
N2511 H2514 0.984 . S
N2511 H2515 0.985 . S
H2512 N2507 0.984 . S
H2513 N2507 0.985 . S
H2514 N2511 0.984 . S
H2515 N2511 0.985 . S
H2516 N2510 0.984 . S
H2517 N2510 0.984 . S
H2518 N2506 0.984 . S
H2519 N2506 0.985 . S
C2520 C2521 1.363 . S
C2520 C2526 1.379 . S
C2520 N2528 1.356 . S
C2521 C2520 1.363 . S
C2521 C2527 1.363 . S
C2522 C2523 1.363 . S
C2522 C2527 1.379 1_556 S
C2522 N2529 1.356 . S
C2523 C2522 1.363 . S
C2523 C2526 1.363 1_556 S
N2524 C2526 1.356 . S
N2524 H2536 0.984 . S
N2524 H2537 0.985 1_554 S
N2525 C2527 1.356 . S
N2525 H2530 0.984 . S
N2525 H2531 0.985 1_554 S
C2526 C2520 1.379 . S
C2526 C2523 1.363 1_554 S
C2526 N2524 1.356 . S
C2527 C2521 1.363 . S
C2527 C2522 1.379 1_554 S
C2527 N2525 1.356 . S
N2528 C2520 1.356 . S
N2528 H2534 0.984 . S
N2528 H2535 0.984 . S
N2529 C2522 1.356 . S
N2529 H2532 0.984 . S
N2529 H2533 0.985 . S
H2530 N2525 0.984 . S
H2531 N2525 0.985 1_556 S
H2532 N2529 0.984 . S
H2533 N2529 0.985 . S
H2534 N2528 0.984 . S
H2535 N2528 0.984 . S
H2536 N2524 0.984 . S
H2537 N2524 0.985 1_556 S
C2538 C2539 1.363 . S
C2538 C2544 1.379 . S
C2538 N2546 1.356 . S
C2539 C2538 1.363 . S
C2539 C2545 1.363 . S
C2540 C2541 1.363 . S
C2540 C2545 1.379 . S
C2540 N2547 1.356 . S
C2541 C2540 1.363 . S
C2541 C2544 1.363 . S
N2542 C2544 1.356 . S
N2542 H2554 0.984 . S
N2542 H2555 0.985 . S
N2543 C2545 1.356 . S
N2543 H2548 0.984 . S
N2543 H2549 0.985 . S
C2544 C2538 1.379 . S
C2544 C2541 1.363 . S
C2544 N2542 1.356 . S
C2545 C2539 1.363 . S
C2545 C2540 1.379 . S
C2545 N2543 1.356 . S
N2546 C2538 1.356 . S
N2546 H2552 0.984 . S
N2546 H2553 0.984 . S
N2547 C2540 1.356 . S
N2547 H2550 0.984 . S
N2547 H2551 0.985 . S
H2548 N2543 0.984 . S
H2549 N2543 0.985 . S
H2550 N2547 0.984 . S
H2551 N2547 0.985 . S
H2552 N2546 0.984 . S
H2553 N2546 0.984 . S
H2554 N2542 0.984 . S
H2555 N2542 0.985 . S
C2556 C2557 1.363 . S
C2556 C2562 1.379 . S
C2556 N2564 1.356 . S
C2557 C2556 1.363 . S
C2557 C2563 1.363 . S
C2558 C2559 1.363 . S
C2558 C2563 1.379 1_455 S
C2558 N2565 1.356 . S
C2559 C2558 1.363 . S
C2559 C2562 1.363 1_455 S
N2560 C2562 1.356 . S
N2560 H2572 0.984 . S
N2560 H2573 0.985 1_655 S
N2561 C2563 1.356 1_545 S
N2561 H2566 0.984 . S
N2561 H2567 0.985 . S
C2562 C2556 1.379 . S
C2562 C2559 1.363 1_655 S
C2562 N2560 1.356 . S
C2563 C2557 1.363 . S
C2563 C2558 1.379 1_655 S
C2563 N2561 1.356 1_565 S
N2564 C2556 1.356 . S
N2564 H2570 0.984 . S
N2564 H2571 0.984 . S
N2565 C2558 1.356 . S
N2565 H2568 0.984 . S
N2565 H2569 0.985 . S
H2566 N2561 0.984 . S
H2567 N2561 0.985 . S
H2568 N2565 0.984 . S
H2569 N2565 0.985 . S
H2570 N2564 0.984 . S
H2571 N2564 0.984 . S
H2572 N2560 0.984 . S
H2573 N2560 0.985 1_455 S
C2574 C2575 1.363 . S
C2574 C2580 1.379 . S
C2574 N2582 1.356 . S
C2575 C2574 1.363 . S
C2575 C2581 1.363 . S
C2576 C2577 1.363 . S
C2576 C2581 1.379 . S
C2576 N2583 1.356 . S
C2577 C2576 1.363 . S
C2577 C2580 1.363 . S
N2578 C2580 1.356 . S
N2578 H2590 0.984 . S
N2578 H2591 0.985 . S
N2579 C2581 1.356 . S
N2579 H2584 0.984 . S
N2579 H2585 0.985 . S
C2580 C2574 1.379 . S
C2580 C2577 1.363 . S
C2580 N2578 1.356 . S
C2581 C2575 1.363 . S
C2581 C2576 1.379 . S
C2581 N2579 1.356 . S
N2582 C2574 1.356 . S
N2582 H2588 0.984 . S
N2582 H2589 0.984 . S
N2583 C2576 1.356 . S
N2583 H2586 0.984 . S
N2583 H2587 0.985 . S
H2584 N2579 0.984 . S
H2585 N2579 0.985 . S
H2586 N2583 0.984 . S
H2587 N2583 0.985 . S
H2588 N2582 0.984 . S
H2589 N2582 0.984 . S
H2590 N2578 0.984 . S
H2591 N2578 0.985 . S
C2592 C2593 1.363 . S
C2592 C2598 1.379 . S
C2592 N2600 1.356 . S
C2593 C2592 1.363 . S
C2593 C2599 1.363 . S
C2594 C2595 1.363 . S
C2594 C2599 1.379 . S
C2594 N2601 1.356 . S
C2595 C2594 1.363 . S
C2595 C2598 1.363 . S
N2596 C2598 1.356 . S
N2596 H2608 0.984 . S
N2596 H2609 0.985 . S
N2597 C2599 1.356 . S
N2597 H2602 0.984 . S
N2597 H2603 0.985 . S
C2598 C2592 1.379 . S
C2598 C2595 1.363 . S
C2598 N2596 1.356 . S
C2599 C2593 1.363 . S
C2599 C2594 1.379 . S
C2599 N2597 1.356 . S
N2600 C2592 1.356 . S
N2600 H2606 0.984 . S
N2600 H2607 0.984 . S
N2601 C2594 1.356 . S
N2601 H2604 0.984 . S
N2601 H2605 0.985 . S
H2602 N2597 0.984 . S
H2603 N2597 0.985 . S
H2604 N2601 0.984 . S
H2605 N2601 0.985 . S
H2606 N2600 0.984 . S
H2607 N2600 0.984 . S
H2608 N2596 0.984 . S
H2609 N2596 0.985 . S
C2610 C2611 1.363 . S
C2610 C2616 1.379 . S
C2610 N2618 1.356 . S
C2611 C2610 1.363 . S
C2611 C2617 1.363 . S
C2612 C2613 1.363 . S
C2612 C2617 1.379 . S
C2612 N2619 1.356 1_545 S
C2613 C2612 1.363 . S
C2613 C2616 1.363 . S
N2614 C2616 1.356 . S
N2614 H2626 0.984 . S
N2614 H2627 0.985 . S
N2615 C2617 1.356 . S
N2615 H2620 0.984 . S
N2615 H2621 0.985 . S
C2616 C2610 1.379 . S
C2616 C2613 1.363 . S
C2616 N2614 1.356 . S
C2617 C2611 1.363 . S
C2617 C2612 1.379 . S
C2617 N2615 1.356 . S
N2618 C2610 1.356 . S
N2618 H2624 0.984 . S
N2618 H2625 0.984 . S
N2619 C2612 1.356 1_565 S
N2619 H2622 0.984 . S
N2619 H2623 0.985 . S
H2620 N2615 0.984 . S
H2621 N2615 0.985 . S
H2622 N2619 0.984 . S
H2623 N2619 0.985 . S
H2624 N2618 0.984 . S
H2625 N2618 0.984 . S
H2626 N2614 0.984 . S
H2627 N2614 0.985 . S
C2628 C2629 1.363 . S
C2628 C2634 1.379 . S
C2628 N2636 1.356 . S
C2629 C2628 1.363 . S
C2629 C2635 1.363 . S
C2630 C2631 1.363 . S
C2630 C2635 1.379 . S
C2630 N2637 1.356 . S
C2631 C2630 1.363 . S
C2631 C2634 1.363 . S
N2632 C2634 1.356 . S
N2632 H2644 0.984 . S
N2632 H2645 0.985 . S
N2633 C2635 1.356 . S
N2633 H2638 0.984 . S
N2633 H2639 0.985 . S
C2634 C2628 1.379 . S
C2634 C2631 1.363 . S
C2634 N2632 1.356 . S
C2635 C2629 1.363 . S
C2635 C2630 1.379 . S
C2635 N2633 1.356 . S
N2636 C2628 1.356 . S
N2636 H2642 0.984 . S
N2636 H2643 0.984 . S
N2637 C2630 1.356 . S
N2637 H2640 0.984 . S
N2637 H2641 0.985 . S
H2638 N2633 0.984 . S
H2639 N2633 0.985 . S
H2640 N2637 0.984 . S
H2641 N2637 0.985 . S
H2642 N2636 0.984 . S
H2643 N2636 0.984 . S
H2644 N2632 0.984 . S
H2645 N2632 0.985 . S
C2646 C2647 1.370 . S
C2646 C2652 1.369 1_455 S
C2646 N2654 1.363 . S
C2647 C2646 1.370 . S
C2647 C2653 1.363 . S
C2648 C2649 1.363 . S
C2648 C2653 1.379 1_655 S
C2648 N2655 1.356 . S
C2649 C2648 1.363 . S
C2649 C2652 1.363 . S
N2650 C2652 1.356 . S
N2650 H2662 0.984 . S
N2650 H2663 0.985 . S
N2651 C2653 1.356 . S
N2651 H2656 0.984 . S
N2651 H2657 0.985 . S
C2652 C2646 1.369 1_655 S
C2652 C2649 1.363 . S
C2652 N2650 1.356 . S
C2653 C2647 1.363 . S
C2653 C2648 1.379 1_455 S
C2653 N2651 1.356 . S
N2654 C2646 1.363 . S
N2654 H2660 0.984 . S
N2654 H2661 0.984 . S
N2655 C2648 1.356 . S
N2655 H2658 0.984 . S
N2655 H2659 0.985 . S
H2656 N2651 0.984 . S
H2657 N2651 0.985 . S
H2658 N2655 0.984 . S
H2659 N2655 0.985 . S
H2660 N2654 0.984 . S
H2661 N2654 0.984 . S
H2662 N2650 0.984 . S
H2663 N2650 0.985 . S
C2664 C2665 1.363 1_455 S
C2664 C2670 1.379 . S
C2664 N2672 1.356 . S
C2665 C2664 1.363 1_655 S
C2665 C2671 1.363 . S
C2666 C2667 1.363 1_655 S
C2666 C2671 1.379 . S
C2666 N2673 1.356 . S
C2667 C2666 1.363 1_455 S
C2667 C2670 1.363 . S
N2668 C2670 1.356 . S
N2668 H2680 0.984 . S
N2668 H2681 0.985 . S
N2669 C2671 1.356 . S
N2669 H2674 0.984 . S
N2669 H2675 0.985 . S
C2670 C2664 1.379 . S
C2670 C2667 1.363 . S
C2670 N2668 1.356 . S
C2671 C2665 1.363 . S
C2671 C2666 1.379 . S
C2671 N2669 1.356 . S
N2672 C2664 1.356 . S
N2672 H2678 0.984 . S
N2672 H2679 0.984 1_455 S
N2673 C2666 1.356 . S
N2673 H2676 0.988 1_655 S
N2673 H2677 0.981 . S
H2674 N2669 0.984 . S
H2675 N2669 0.985 . S
H2676 N2673 0.988 1_455 S
H2677 N2673 0.981 . S
H2678 N2672 0.984 . S
H2679 N2672 0.984 1_655 S
H2680 N2668 0.984 . S
H2681 N2668 0.985 . S
C2682 C2683 1.363 . S
C2682 C2688 1.379 . S
C2682 N2690 1.356 . S
C2683 C2682 1.363 . S
C2683 C2689 1.363 . S
C2684 C2685 1.363 . S
C2684 C2689 1.379 . S
C2684 N2691 1.356 . S
C2685 C2684 1.363 . S
C2685 C2688 1.363 . S
N2686 C2688 1.356 . S
N2686 H2698 0.984 . S
N2686 H2699 0.985 . S
N2687 C2689 1.356 . S
N2687 H2692 0.984 . S
N2687 H2693 0.985 . S
C2688 C2682 1.379 . S
C2688 C2685 1.363 . S
C2688 N2686 1.356 . S
C2689 C2683 1.363 . S
C2689 C2684 1.379 . S
C2689 N2687 1.356 . S
N2690 C2682 1.356 . S
N2690 H2696 0.984 . S
N2690 H2697 0.984 . S
N2691 C2684 1.356 . S
N2691 H2694 0.984 . S
N2691 H2695 0.985 . S
H2692 N2687 0.984 . S
H2693 N2687 0.985 . S
H2694 N2691 0.984 . S
H2695 N2691 0.985 . S
H2696 N2690 0.984 . S
H2697 N2690 0.984 . S
H2698 N2686 0.984 . S
H2699 N2686 0.985 . S
C2700 C2701 1.363 . S
C2700 C2706 1.379 . S
C2700 N2708 1.356 . S
C2701 C2700 1.363 . S
C2701 C2707 1.363 . S
C2702 C2703 1.363 . S
C2702 C2707 1.379 . S
C2702 N2709 1.356 . S
C2703 C2702 1.363 . S
C2703 C2706 1.363 . S
N2704 C2706 1.356 . S
N2704 H2716 0.984 . S
N2704 H2717 0.985 . S
N2705 C2707 1.356 . S
N2705 H2710 0.984 . S
N2705 H2711 0.985 . S
C2706 C2700 1.379 . S
C2706 C2703 1.363 . S
C2706 N2704 1.356 . S
C2707 C2701 1.363 . S
C2707 C2702 1.379 . S
C2707 N2705 1.356 . S
N2708 C2700 1.356 . S
N2708 H2714 0.984 . S
N2708 H2715 0.984 . S
N2709 C2702 1.356 . S
N2709 H2712 0.984 . S
N2709 H2713 0.985 . S
H2710 N2705 0.984 . S
H2711 N2705 0.985 . S
H2712 N2709 0.984 . S
H2713 N2709 0.985 . S
H2714 N2708 0.984 . S
H2715 N2708 0.984 . S
H2716 N2704 0.984 . S
H2717 N2704 0.985 . S
C2718 C2719 1.363 1_455 S
C2718 C2724 1.379 . S
C2718 N2726 1.356 1_455 S
C2719 C2718 1.363 1_655 S
C2719 C2725 1.363 . S
C2720 C2721 1.363 . S
C2720 C2725 1.379 1_456 S
C2720 N2727 1.356 . S
C2721 C2720 1.363 . S
C2721 C2724 1.363 1_556 S
N2722 C2724 1.356 1_556 S
N2722 H2734 0.984 1_556 S
N2722 H2735 0.985 . S
N2723 C2725 1.356 . S
N2723 H2728 0.984 . S
N2723 H2729 0.985 . S
C2724 C2718 1.379 . S
C2724 C2721 1.363 1_554 S
C2724 N2722 1.356 1_554 S
C2725 C2719 1.363 . S
C2725 C2720 1.379 1_654 S
C2725 N2723 1.356 . S
N2726 C2718 1.356 1_655 S
N2726 H2732 0.984 1_655 S
N2726 H2733 0.984 . S
N2727 C2720 1.356 . S
N2727 H2730 0.984 . S
N2727 H2731 0.985 . S
H2728 N2723 0.984 . S
H2729 N2723 0.985 . S
H2730 N2727 0.984 . S
H2731 N2727 0.985 . S
H2732 N2726 0.984 1_455 S
H2733 N2726 0.984 . S
H2734 N2722 0.984 1_554 S
H2735 N2722 0.985 . S
C2736 C2737 1.363 . S
C2736 C2742 1.379 . S
C2736 N2744 1.356 . S
C2737 C2736 1.363 . S
C2737 C2743 1.363 . S
C2738 C2739 1.363 . S
C2738 C2743 1.379 . S
C2738 N2745 1.356 . S
C2739 C2738 1.363 . S
C2739 C2742 1.363 . S
N2740 C2742 1.356 . S
N2740 H2752 0.984 . S
N2740 H2753 0.985 . S
N2741 C2743 1.356 . S
N2741 H2746 0.984 . S
N2741 H2747 0.985 . S
C2742 C2736 1.379 . S
C2742 C2739 1.363 . S
C2742 N2740 1.356 . S
C2743 C2737 1.363 . S
C2743 C2738 1.379 . S
C2743 N2741 1.356 . S
N2744 C2736 1.356 . S
N2744 H2750 0.984 . S
N2744 H2751 0.984 . S
N2745 C2738 1.356 . S
N2745 H2748 0.984 . S
N2745 H2749 0.985 . S
H2746 N2741 0.984 . S
H2747 N2741 0.985 . S
H2748 N2745 0.984 . S
H2749 N2745 0.985 . S
H2750 N2744 0.984 . S
H2751 N2744 0.984 . S
H2752 N2740 0.984 . S
H2753 N2740 0.985 . S
C2754 C2755 1.363 . S
C2754 C2760 1.379 . S
C2754 N2762 1.356 1_565 S
C2755 C2754 1.363 . S
C2755 C2761 1.363 . S
C2756 C2757 1.363 . S
C2756 C2761 1.379 . S
C2756 N2763 1.356 . S
C2757 C2756 1.363 . S
C2757 C2760 1.363 . S
N2758 C2760 1.356 . S
N2758 H2770 0.984 1_565 S
N2758 H2771 0.985 . S
N2759 C2761 1.356 . S
N2759 H2764 0.984 . S
N2759 H2765 0.985 . S
C2760 C2754 1.379 . S
C2760 C2757 1.363 . S
C2760 N2758 1.356 . S
C2761 C2755 1.363 . S
C2761 C2756 1.379 . S
C2761 N2759 1.356 . S
N2762 C2754 1.356 1_545 S
N2762 H2768 0.984 . S
N2762 H2769 0.984 . S
N2763 C2756 1.356 . S
N2763 H2766 0.984 . S
N2763 H2767 0.985 . S
H2764 N2759 0.984 . S
H2765 N2759 0.985 . S
H2766 N2763 0.984 . S
H2767 N2763 0.985 . S
H2768 N2762 0.984 . S
H2769 N2762 0.984 . S
H2770 N2758 0.984 1_545 S
H2771 N2758 0.985 . S
C2772 C2773 1.363 . S
C2772 C2778 1.379 . S
C2772 N2780 1.356 . S
C2773 C2772 1.363 . S
C2773 C2779 1.363 . S
C2774 C2775 1.363 . S
C2774 C2779 1.379 . S
C2774 N2781 1.356 . S
C2775 C2774 1.363 . S
C2775 C2778 1.363 . S
N2776 C2778 1.356 . S
N2776 H2788 0.984 . S
N2776 H2789 0.985 . S
N2777 C2779 1.356 . S
N2777 H2782 0.984 . S
N2777 H2783 0.985 . S
C2778 C2772 1.379 . S
C2778 C2775 1.363 . S
C2778 N2776 1.356 . S
C2779 C2773 1.363 . S
C2779 C2774 1.379 . S
C2779 N2777 1.356 . S
N2780 C2772 1.356 . S
N2780 H2786 0.984 . S
N2780 H2787 0.984 . S
N2781 C2774 1.356 . S
N2781 H2784 0.984 . S
N2781 H2785 0.985 . S
H2782 N2777 0.984 . S
H2783 N2777 0.985 . S
H2784 N2781 0.984 . S
H2785 N2781 0.985 . S
H2786 N2780 0.984 . S
H2787 N2780 0.984 . S
H2788 N2776 0.984 . S
H2789 N2776 0.985 . S
C2790 C2791 1.363 1_554 S
C2790 C2796 1.379 . S
C2790 N2798 1.356 . S
C2791 C2790 1.363 1_556 S
C2791 C2797 1.365 . S
C2792 C2793 1.363 . S
C2792 C2797 1.371 1_554 S
C2792 N2799 1.356 . S
C2793 C2792 1.363 . S
C2793 C2796 1.363 . S
N2794 C2796 1.356 . S
N2794 H2806 0.984 . S
N2794 H2807 0.985 . S
N2795 C2797 1.363 . S
N2795 H2800 0.984 . S
N2795 H2801 0.985 . S
C2796 C2790 1.379 . S
C2796 C2793 1.363 . S
C2796 N2794 1.356 . S
C2797 C2791 1.365 . S
C2797 C2792 1.371 1_556 S
C2797 N2795 1.363 . S
N2798 C2790 1.356 . S
N2798 H2804 0.984 . S
N2798 H2805 0.984 1_554 S
N2799 C2792 1.356 . S
N2799 H2802 0.984 . S
N2799 H2803 0.985 . S
H2800 N2795 0.984 . S
H2801 N2795 0.985 . S
H2802 N2799 0.984 . S
H2803 N2799 0.985 . S
H2804 N2798 0.984 . S
H2805 N2798 0.984 1_556 S
H2806 N2794 0.984 . S
H2807 N2794 0.985 . S
C2808 C2809 1.362 1_455 S
C2808 C2814 1.385 . S
C2808 N2816 1.350 1_455 S
C2809 C2808 1.362 1_655 S
C2809 C2815 1.363 1_655 S
C2810 C2811 1.363 . S
C2810 C2815 1.379 . S
C2810 N2817 1.356 . S
C2811 C2810 1.363 . S
C2811 C2814 1.363 . S
N2812 C2814 1.356 1_565 S
N2812 H2824 0.984 . S
N2812 H2825 0.985 . S
N2813 C2815 1.356 . S
N2813 H2818 0.984 1_455 S
N2813 H2819 0.985 . S
C2814 C2808 1.385 . S
C2814 C2811 1.363 . S
C2814 N2812 1.356 1_545 S
C2815 C2809 1.363 1_455 S
C2815 C2810 1.379 . S
C2815 N2813 1.356 . S
N2816 C2808 1.350 1_655 S
N2816 H2822 0.984 . S
N2816 H2823 0.984 . S
N2817 C2810 1.356 . S
N2817 H2820 0.984 . S
N2817 H2821 0.985 . S
H2818 N2813 0.984 1_655 S
H2819 N2813 0.985 . S
H2820 N2817 0.984 . S
H2821 N2817 0.985 . S
H2822 N2816 0.984 . S
H2823 N2816 0.984 . S
H2824 N2812 0.984 . S
H2825 N2812 0.985 . S
C2826 C2827 1.363 . S
C2826 C2832 1.379 . S
C2826 N2834 1.356 . S
C2827 C2826 1.363 . S
C2827 C2833 1.363 . S
C2828 C2829 1.363 . S
C2828 C2833 1.379 . S
C2828 N2835 1.356 . S
C2829 C2828 1.363 . S
C2829 C2832 1.363 . S
N2830 C2832 1.356 . S
N2830 H2842 0.984 . S
N2830 H2843 0.985 . S
N2831 C2833 1.356 . S
N2831 H2836 0.984 . S
N2831 H2837 0.985 . S
C2832 C2826 1.379 . S
C2832 C2829 1.363 . S
C2832 N2830 1.356 . S
C2833 C2827 1.363 . S
C2833 C2828 1.379 . S
C2833 N2831 1.356 . S
N2834 C2826 1.356 . S
N2834 H2840 0.984 . S
N2834 H2841 0.984 . S
N2835 C2828 1.356 . S
N2835 H2838 0.984 . S
N2835 H2839 0.985 . S
H2836 N2831 0.984 . S
H2837 N2831 0.985 . S
H2838 N2835 0.984 . S
H2839 N2835 0.985 . S
H2840 N2834 0.984 . S
H2841 N2834 0.984 . S
H2842 N2830 0.984 . S
H2843 N2830 0.985 . S
C2844 C2845 1.363 . S
C2844 C2850 1.379 1_565 S
C2844 N2852 1.356 . S
C2845 C2844 1.363 . S
C2845 C2851 1.363 . S
C2846 C2847 1.363 . S
C2846 C2851 1.379 . S
C2846 N2853 1.356 . S
C2847 C2846 1.363 . S
C2847 C2850 1.363 1_565 S
N2848 C2850 1.356 . S
N2848 H2860 0.984 . S
N2848 H2861 0.985 . S
N2849 C2851 1.356 . S
N2849 H2854 0.984 . S
N2849 H2855 0.985 . S
C2850 C2844 1.379 1_545 S
C2850 C2847 1.363 1_545 S
C2850 N2848 1.356 . S
C2851 C2845 1.363 . S
C2851 C2846 1.379 . S
C2851 N2849 1.356 . S
N2852 C2844 1.356 . S
N2852 H2858 0.984 . S
N2852 H2859 0.984 . S
N2853 C2846 1.356 . S
N2853 H2856 0.984 . S
N2853 H2857 0.985 . S
H2854 N2849 0.984 . S
H2855 N2849 0.985 . S
H2856 N2853 0.984 . S
H2857 N2853 0.985 . S
H2858 N2852 0.984 . S
H2859 N2852 0.984 . S
H2860 N2848 0.984 . S
H2861 N2848 0.985 . S
C2862 C2863 1.363 1_655 S
C2862 C2868 1.379 . S
C2862 N2870 1.356 1_655 S
C2863 C2862 1.363 1_455 S
C2863 C2869 1.363 . S
C2864 C2865 1.363 . S
C2864 C2869 1.379 1_655 S
C2864 N2871 1.356 . S
C2865 C2864 1.363 . S
C2865 C2868 1.363 . S
N2866 C2868 1.356 . S
N2866 H2878 0.984 . S
N2866 H2879 0.985 . S
N2867 C2869 1.356 . S
N2867 H2872 0.984 . S
N2867 H2873 0.985 . S
C2868 C2862 1.379 . S
C2868 C2865 1.363 . S
C2868 N2866 1.356 . S
C2869 C2863 1.363 . S
C2869 C2864 1.379 1_455 S
C2869 N2867 1.356 . S
N2870 C2862 1.356 1_455 S
N2870 H2876 0.984 1_455 S
N2870 H2877 0.984 . S
N2871 C2864 1.356 . S
N2871 H2874 0.984 . S
N2871 H2875 0.985 . S
H2872 N2867 0.984 . S
H2873 N2867 0.985 . S
H2874 N2871 0.984 . S
H2875 N2871 0.985 . S
H2876 N2870 0.984 1_655 S
H2877 N2870 0.984 . S
H2878 N2866 0.984 . S
H2879 N2866 0.985 . S
C2880 C2881 1.363 . S
C2880 C2886 1.379 1_565 S
C2880 N2888 1.356 . S
C2881 C2880 1.363 . S
C2881 C2887 1.363 1_554 S
C2882 C2883 1.336 1_565 S
C2882 C2887 1.379 . S
C2882 N2889 1.356 . S
C2883 C2882 1.336 1_545 S
C2883 C2886 1.365 1_556 S
N2884 C2886 1.356 . S
N2884 H2896 0.984 . S
N2884 H2897 0.985 1_554 S
N2885 C2887 1.356 1_554 S
N2885 H2890 0.984 . S
N2885 H2891 0.985 1_554 S
C2886 C2880 1.379 1_545 S
C2886 C2883 1.365 1_554 S
C2886 N2884 1.356 . S
C2887 C2881 1.363 1_556 S
C2887 C2882 1.379 . S
C2887 N2885 1.356 1_556 S
N2888 C2880 1.356 . S
N2888 H2894 0.984 . S
N2888 H2895 0.984 . S
N2889 C2882 1.356 . S
N2889 H2892 0.984 1_565 S
N2889 H2893 0.985 . S
H2890 N2885 0.984 . S
H2891 N2885 0.985 1_556 S
H2892 N2889 0.984 1_545 S
H2893 N2889 0.985 . S
H2894 N2888 0.984 . S
H2895 N2888 0.984 . S
H2896 N2884 0.984 . S
H2897 N2884 0.985 1_556 S
C2898 C2899 1.363 . S
C2898 C2904 1.379 . S
C2898 N2906 1.356 . S
C2899 C2898 1.363 . S
C2899 C2905 1.363 . S
C2900 C2901 1.363 . S
C2900 C2905 1.379 . S
C2900 N2907 1.356 . S
C2901 C2900 1.363 . S
C2901 C2904 1.363 . S
N2902 C2904 1.356 . S
N2902 H2914 0.984 . S
N2902 H2915 0.985 . S
N2903 C2905 1.356 . S
N2903 H2908 0.984 . S
N2903 H2909 0.985 . S
C2904 C2898 1.379 . S
C2904 C2901 1.363 . S
C2904 N2902 1.356 . S
C2905 C2899 1.363 . S
C2905 C2900 1.379 . S
C2905 N2903 1.356 . S
N2906 C2898 1.356 . S
N2906 H2912 0.984 . S
N2906 H2913 0.984 . S
N2907 C2900 1.356 . S
N2907 H2910 0.984 . S
N2907 H2911 0.985 . S
H2908 N2903 0.984 . S
H2909 N2903 0.985 . S
H2910 N2907 0.984 . S
H2911 N2907 0.985 . S
H2912 N2906 0.984 . S
H2913 N2906 0.984 . S
H2914 N2902 0.984 . S
H2915 N2902 0.985 . S
C2916 C2917 1.363 . S
C2916 C2922 1.379 . S
C2916 N2924 1.356 . S
C2917 C2916 1.363 . S
C2917 C2923 1.363 . S
C2918 C2919 1.363 . S
C2918 C2923 1.379 . S
C2918 N2925 1.356 . S
C2919 C2918 1.363 . S
C2919 C2922 1.363 . S
N2920 C2922 1.356 . S
N2920 H2932 0.984 . S
N2920 H2933 0.985 . S
N2921 C2923 1.356 . S
N2921 H2926 0.984 . S
N2921 H2927 0.985 . S
C2922 C2916 1.379 . S
C2922 C2919 1.363 . S
C2922 N2920 1.356 . S
C2923 C2917 1.363 . S
C2923 C2918 1.379 . S
C2923 N2921 1.356 . S
N2924 C2916 1.356 . S
N2924 H2930 0.984 . S
N2924 H2931 0.984 . S
N2925 C2918 1.356 . S
N2925 H2928 0.984 . S
N2925 H2929 0.985 . S
H2926 N2921 0.984 . S
H2927 N2921 0.985 . S
H2928 N2925 0.984 . S
H2929 N2925 0.985 . S
H2930 N2924 0.984 . S
H2931 N2924 0.984 . S
H2932 N2920 0.984 . S
H2933 N2920 0.985 . S
C2934 C2935 1.363 . S
C2934 C2940 1.379 . S
C2934 N2942 1.356 . S
C2935 C2934 1.363 . S
C2935 C2941 1.363 . S
C2936 C2937 1.363 . S
C2936 C2941 1.379 . S
C2936 N2943 1.356 . S
C2937 C2936 1.363 . S
C2937 C2940 1.363 . S
N2938 C2940 1.356 . S
N2938 H2950 0.984 . S
N2938 H2951 0.985 . S
N2939 C2941 1.356 . S
N2939 H2944 0.984 . S
N2939 H2945 0.985 . S
C2940 C2934 1.379 . S
C2940 C2937 1.363 . S
C2940 N2938 1.356 . S
C2941 C2935 1.363 . S
C2941 C2936 1.379 . S
C2941 N2939 1.356 . S
N2942 C2934 1.356 . S
N2942 H2948 0.984 . S
N2942 H2949 0.984 . S
N2943 C2936 1.356 . S
N2943 H2946 0.984 . S
N2943 H2947 0.985 . S
H2944 N2939 0.984 . S
H2945 N2939 0.985 . S
H2946 N2943 0.984 . S
H2947 N2943 0.985 . S
H2948 N2942 0.984 . S
H2949 N2942 0.984 . S
H2950 N2938 0.984 . S
H2951 N2938 0.985 . S
C2952 C2953 1.363 . S
C2952 C2958 1.379 . S
C2952 N2960 1.356 . S
C2953 C2952 1.363 . S
C2953 C2959 1.363 . S
C2954 C2955 1.363 . S
C2954 C2959 1.379 . S
C2954 N2961 1.356 . S
C2955 C2954 1.363 . S
C2955 C2958 1.363 . S
N2956 C2958 1.356 . S
N2956 H2968 0.984 . S
N2956 H2969 0.985 . S
N2957 C2959 1.356 . S
N2957 H2962 0.984 . S
N2957 H2963 0.985 . S
C2958 C2952 1.379 . S
C2958 C2955 1.363 . S
C2958 N2956 1.356 . S
C2959 C2953 1.363 . S
C2959 C2954 1.379 . S
C2959 N2957 1.356 . S
N2960 C2952 1.356 . S
N2960 H2966 0.984 . S
N2960 H2967 0.984 . S
N2961 C2954 1.356 . S
N2961 H2964 0.984 . S
N2961 H2965 0.985 . S
H2962 N2957 0.984 . S
H2963 N2957 0.985 . S
H2964 N2961 0.984 . S
H2965 N2961 0.985 . S
H2966 N2960 0.984 . S
H2967 N2960 0.984 . S
H2968 N2956 0.984 . S
H2969 N2956 0.985 . S
C2970 C2971 1.363 . S
C2970 C2976 1.379 1_556 S
C2970 N2978 1.356 . S
C2971 C2970 1.363 . S
C2971 C2977 1.363 . S
C2972 C2973 1.361 1_556 S
C2972 C2977 1.379 . S
C2972 N2979 1.356 . S
C2973 C2972 1.361 1_554 S
C2973 C2976 1.364 . S
N2974 C2976 1.356 . S
N2974 H2986 0.984 . S
N2974 H2987 0.985 . S
N2975 C2977 1.356 . S
N2975 H2980 0.984 . S
N2975 H2981 0.985 . S
C2976 C2970 1.379 1_554 S
C2976 C2973 1.364 . S
C2976 N2974 1.356 . S
C2977 C2971 1.363 . S
C2977 C2972 1.379 . S
C2977 N2975 1.356 . S
N2978 C2970 1.356 . S
N2978 H2984 0.984 1_556 S
N2978 H2985 0.984 . S
N2979 C2972 1.356 . S
N2979 H2982 0.984 . S
N2979 H2983 0.985 . S
H2980 N2975 0.984 . S
H2981 N2975 0.985 . S
H2982 N2979 0.984 . S
H2983 N2979 0.985 . S
H2984 N2978 0.984 1_554 S
H2985 N2978 0.984 . S
H2986 N2974 0.984 . S
H2987 N2974 0.985 . S
C2988 C2989 1.363 . S
C2988 C2994 1.379 . S
C2988 N2996 1.356 . S
C2989 C2988 1.363 . S
C2989 C2995 1.363 . S
C2990 C2991 1.363 . S
C2990 C2995 1.379 . S
C2990 N2997 1.356 . S
C2991 C2990 1.363 . S
C2991 C2994 1.363 . S
N2992 C2994 1.356 . S
N2992 H3004 0.984 . S
N2992 H3005 0.985 . S
N2993 C2995 1.356 . S
N2993 H2998 0.984 . S
N2993 H2999 0.985 . S
C2994 C2988 1.379 . S
C2994 C2991 1.363 . S
C2994 N2992 1.356 . S
C2995 C2989 1.363 . S
C2995 C2990 1.379 . S
C2995 N2993 1.356 . S
N2996 C2988 1.356 . S
N2996 H3002 0.984 . S
N2996 H3003 0.984 . S
N2997 C2990 1.356 . S
N2997 H3000 0.984 . S
N2997 H3001 0.985 . S
H2998 N2993 0.984 . S
H2999 N2993 0.985 . S
H3000 N2997 0.984 . S
H3001 N2997 0.985 . S
H3002 N2996 0.984 . S
H3003 N2996 0.984 . S
H3004 N2992 0.984 . S
H3005 N2992 0.985 . S
C3006 C3007 1.363 . S
C3006 C3012 1.379 . S
C3006 N3014 1.356 . S
C3007 C3006 1.363 . S
C3007 C3013 1.363 . S
C3008 C3009 1.363 . S
C3008 C3013 1.379 . S
C3008 N3015 1.356 . S
C3009 C3008 1.363 . S
C3009 C3012 1.363 . S
N3010 C3012 1.356 . S
N3010 H3022 0.984 . S
N3010 H3023 0.985 . S
N3011 C3013 1.356 . S
N3011 H3016 0.984 . S
N3011 H3017 0.985 . S
C3012 C3006 1.379 . S
C3012 C3009 1.363 . S
C3012 N3010 1.356 . S
C3013 C3007 1.363 . S
C3013 C3008 1.379 . S
C3013 N3011 1.356 . S
N3014 C3006 1.356 . S
N3014 H3020 0.984 . S
N3014 H3021 0.984 . S
N3015 C3008 1.356 . S
N3015 H3018 0.984 . S
N3015 H3019 0.985 . S
H3016 N3011 0.984 . S
H3017 N3011 0.985 . S
H3018 N3015 0.984 . S
H3019 N3015 0.985 . S
H3020 N3014 0.984 . S
H3021 N3014 0.984 . S
H3022 N3010 0.984 . S
H3023 N3010 0.985 . S
C3024 C3025 1.363 . S
C3024 C3030 1.379 . S
C3024 N3032 1.356 . S
C3025 C3024 1.363 . S
C3025 C3031 1.363 . S
C3026 C3027 1.363 . S
C3026 C3031 1.379 . S
C3026 N3033 1.356 . S
C3027 C3026 1.363 . S
C3027 C3030 1.363 . S
N3028 C3030 1.356 . S
N3028 H3040 0.984 . S
N3028 H3041 0.985 . S
N3029 C3031 1.356 . S
N3029 H3034 0.984 . S
N3029 H3035 0.985 . S
C3030 C3024 1.379 . S
C3030 C3027 1.363 . S
C3030 N3028 1.356 . S
C3031 C3025 1.363 . S
C3031 C3026 1.379 . S
C3031 N3029 1.356 . S
N3032 C3024 1.356 . S
N3032 H3038 0.984 . S
N3032 H3039 0.984 . S
N3033 C3026 1.356 . S
N3033 H3036 0.984 . S
N3033 H3037 0.985 . S
H3034 N3029 0.984 . S
H3035 N3029 0.985 . S
H3036 N3033 0.984 . S
H3037 N3033 0.985 . S
H3038 N3032 0.984 . S
H3039 N3032 0.984 . S
H3040 N3028 0.984 . S
H3041 N3028 0.985 . S
C3042 C3043 1.363 . S
C3042 C3048 1.379 1_565 S
C3042 N3050 1.356 . S
C3043 C3042 1.363 . S
C3043 C3049 1.363 . S
C3044 C3045 1.363 . S
C3044 C3049 1.379 1_545 S
C3044 N3051 1.356 . S
C3045 C3044 1.363 . S
C3045 C3048 1.363 . S
N3046 C3048 1.356 . S
N3046 H3058 0.984 . S
N3046 H3059 0.985 . S
N3047 C3049 1.356 . S
N3047 H3052 0.984 . S
N3047 H3053 0.985 . S
C3048 C3042 1.379 1_545 S
C3048 C3045 1.363 . S
C3048 N3046 1.356 . S
C3049 C3043 1.363 . S
C3049 C3044 1.379 1_565 S
C3049 N3047 1.356 . S
N3050 C3042 1.356 . S
N3050 H3056 0.984 . S
N3050 H3057 0.984 . S
N3051 C3044 1.356 . S
N3051 H3054 0.984 . S
N3051 H3055 0.985 . S
H3052 N3047 0.984 . S
H3053 N3047 0.985 . S
H3054 N3051 0.984 . S
H3055 N3051 0.985 . S
H3056 N3050 0.984 . S
H3057 N3050 0.984 . S
H3058 N3046 0.984 . S
H3059 N3046 0.985 . S
C3060 C3061 1.363 . S
C3060 C3066 1.379 . S
C3060 N3068 1.356 . S
C3061 C3060 1.363 . S
C3061 C3067 1.363 . S
C3062 C3063 1.363 . S
C3062 C3067 1.379 . S
C3062 N3069 1.356 . S
C3063 C3062 1.363 . S
C3063 C3066 1.363 . S
N3064 C3066 1.356 . S
N3064 H3076 0.984 . S
N3064 H3077 0.985 . S
N3065 C3067 1.356 . S
N3065 H3070 0.984 . S
N3065 H3071 0.985 . S
C3066 C3060 1.379 . S
C3066 C3063 1.363 . S
C3066 N3064 1.356 . S
C3067 C3061 1.363 . S
C3067 C3062 1.379 . S
C3067 N3065 1.356 . S
N3068 C3060 1.356 . S
N3068 H3074 0.984 . S
N3068 H3075 0.984 . S
N3069 C3062 1.356 . S
N3069 H3072 0.984 . S
N3069 H3073 0.985 . S
H3070 N3065 0.984 . S
H3071 N3065 0.985 . S
H3072 N3069 0.984 . S
H3073 N3069 0.985 . S
H3074 N3068 0.984 . S
H3075 N3068 0.984 . S
H3076 N3064 0.984 . S
H3077 N3064 0.985 . S
C3078 C3079 1.363 . S
C3078 C3084 1.379 1_545 S
C3078 N3086 1.356 . S
C3079 C3078 1.363 . S
C3079 C3085 1.363 1_545 S
C3080 C3081 1.363 . S
C3080 C3085 1.379 . S
C3080 N3087 1.356 . S
C3081 C3080 1.363 . S
C3081 C3084 1.363 . S
N3082 C3084 1.356 . S
N3082 H3094 0.984 . S
N3082 H3095 0.985 . S
N3083 C3085 1.356 . S
N3083 H3088 0.984 1_565 S
N3083 H3089 0.985 . S
C3084 C3078 1.379 1_565 S
C3084 C3081 1.363 . S
C3084 N3082 1.356 . S
C3085 C3079 1.363 1_565 S
C3085 C3080 1.379 . S
C3085 N3083 1.356 . S
N3086 C3078 1.356 . S
N3086 H3092 0.984 . S
N3086 H3093 0.984 . S
N3087 C3080 1.356 . S
N3087 H3090 0.984 . S
N3087 H3091 0.985 . S
H3088 N3083 0.984 1_545 S
H3089 N3083 0.985 . S
H3090 N3087 0.984 . S
H3091 N3087 0.985 . S
H3092 N3086 0.984 . S
H3093 N3086 0.984 . S
H3094 N3082 0.984 . S
H3095 N3082 0.985 . S
C3096 C3097 1.363 . S
C3096 C3102 1.355 1_565 S
C3096 N3104 1.356 . S
C3097 C3096 1.363 . S
C3097 C3103 1.363 1_554 S
C3098 C3099 1.363 1_565 S
C3098 C3103 1.379 . S
C3098 N3105 1.356 . S
C3099 C3098 1.363 1_545 S
C3099 C3102 1.367 1_556 S
N3100 C3102 1.381 . S
N3100 H3112 0.984 . S
N3100 H3113 0.985 1_554 S
N3101 C3103 1.356 . S
N3101 H3106 0.984 1_556 S
N3101 H3107 0.985 . S
C3102 C3096 1.355 1_545 S
C3102 C3099 1.367 1_554 S
C3102 N3100 1.381 . S
C3103 C3097 1.363 1_556 S
C3103 C3098 1.379 . S
C3103 N3101 1.356 . S
N3104 C3096 1.356 . S
N3104 H3110 0.984 . S
N3104 H3111 0.984 . S
N3105 C3098 1.356 . S
N3105 H3108 0.984 1_565 S
N3105 H3109 0.985 . S
H3106 N3101 0.984 1_554 S
H3107 N3101 0.985 . S
H3108 N3105 0.984 1_545 S
H3109 N3105 0.985 . S
H3110 N3104 0.984 . S
H3111 N3104 0.984 . S
H3112 N3100 0.984 . S
H3113 N3100 0.985 1_556 S
C3114 C3115 1.363 . S
C3114 C3120 1.379 . S
C3114 N3122 1.356 . S
C3115 C3114 1.363 . S
C3115 C3121 1.363 . S
C3116 C3117 1.363 . S
C3116 C3121 1.379 . S
C3116 N3123 1.356 . S
C3117 C3116 1.363 . S
C3117 C3120 1.363 . S
N3118 C3120 1.356 . S
N3118 H3130 0.984 . S
N3118 H3131 0.985 . S
N3119 C3121 1.356 . S
N3119 H3124 0.984 . S
N3119 H3125 0.985 . S
C3120 C3114 1.379 . S
C3120 C3117 1.363 . S
C3120 N3118 1.356 . S
C3121 C3115 1.363 . S
C3121 C3116 1.379 . S
C3121 N3119 1.356 . S
N3122 C3114 1.356 . S
N3122 H3128 0.984 . S
N3122 H3129 0.984 . S
N3123 C3116 1.356 . S
N3123 H3126 0.984 . S
N3123 H3127 0.985 . S
H3124 N3119 0.984 . S
H3125 N3119 0.985 . S
H3126 N3123 0.984 . S
H3127 N3123 0.985 . S
H3128 N3122 0.984 . S
H3129 N3122 0.984 . S
H3130 N3118 0.984 . S
H3131 N3118 0.985 . S
C3132 C3133 1.363 . S
C3132 C3138 1.379 . S
C3132 N3140 1.356 . S
C3133 C3132 1.363 . S
C3133 C3139 1.363 . S
C3134 C3135 1.363 . S
C3134 C3139 1.379 . S
C3134 N3141 1.356 . S
C3135 C3134 1.363 . S
C3135 C3138 1.363 . S
N3136 C3138 1.356 1_556 S
N3136 H3148 0.984 . S
N3136 H3149 0.985 . S
N3137 C3139 1.356 . S
N3137 H3142 0.984 . S
N3137 H3143 0.985 . S
C3138 C3132 1.379 . S
C3138 C3135 1.363 . S
C3138 N3136 1.356 1_554 S
C3139 C3133 1.363 . S
C3139 C3134 1.379 . S
C3139 N3137 1.356 . S
N3140 C3132 1.356 . S
N3140 H3146 0.975 1_554 S
N3140 H3147 0.984 . S
N3141 C3134 1.356 . S
N3141 H3144 0.984 . S
N3141 H3145 0.985 . S
H3142 N3137 0.984 . S
H3143 N3137 0.985 . S
H3144 N3141 0.984 . S
H3145 N3141 0.985 . S
H3146 N3140 0.975 1_556 S
H3147 N3140 0.984 . S
H3148 N3136 0.984 . S
H3149 N3136 0.985 . S
C3150 C3151 1.363 . S
C3150 C3156 1.379 . S
C3150 N3158 1.356 . S
C3151 C3150 1.363 . S
C3151 C3157 1.363 . S
C3152 C3153 1.363 . S
C3152 C3157 1.379 . S
C3152 N3159 1.356 . S
C3153 C3152 1.363 . S
C3153 C3156 1.363 . S
N3154 C3156 1.356 . S
N3154 H3166 0.984 . S
N3154 H3167 0.985 . S
N3155 C3157 1.356 . S
N3155 H3160 0.984 . S
N3155 H3161 0.985 . S
C3156 C3150 1.379 . S
C3156 C3153 1.363 . S
C3156 N3154 1.356 . S
C3157 C3151 1.363 . S
C3157 C3152 1.379 . S
C3157 N3155 1.356 . S
N3158 C3150 1.356 . S
N3158 H3164 0.984 . S
N3158 H3165 0.984 . S
N3159 C3152 1.356 . S
N3159 H3162 0.984 . S
N3159 H3163 0.985 . S
H3160 N3155 0.984 . S
H3161 N3155 0.985 . S
H3162 N3159 0.984 . S
H3163 N3159 0.985 . S
H3164 N3158 0.984 . S
H3165 N3158 0.984 . S
H3166 N3154 0.984 . S
H3167 N3154 0.985 . S
C3168 C3169 1.363 . S
C3168 C3174 1.379 . S
C3168 N3176 1.356 . S
C3169 C3168 1.363 . S
C3169 C3175 1.363 . S
C3170 C3171 1.363 . S
C3170 C3175 1.379 . S
C3170 N3177 1.356 . S
C3171 C3170 1.363 . S
C3171 C3174 1.363 . S
N3172 C3174 1.356 . S
N3172 H3184 0.984 . S
N3172 H3185 0.985 . S
N3173 C3175 1.356 . S
N3173 H3178 0.984 . S
N3173 H3179 0.985 . S
C3174 C3168 1.379 . S
C3174 C3171 1.363 . S
C3174 N3172 1.356 . S
C3175 C3169 1.363 . S
C3175 C3170 1.379 . S
C3175 N3173 1.356 . S
N3176 C3168 1.356 . S
N3176 H3182 0.984 . S
N3176 H3183 0.984 . S
N3177 C3170 1.356 . S
N3177 H3180 0.984 . S
N3177 H3181 0.985 . S
H3178 N3173 0.984 . S
H3179 N3173 0.985 . S
H3180 N3177 0.984 . S
H3181 N3177 0.985 . S
H3182 N3176 0.984 . S
H3183 N3176 0.984 . S
H3184 N3172 0.984 . S
H3185 N3172 0.985 . S
C3186 C3187 1.363 . S
C3186 C3192 1.379 . S
C3186 N3194 1.356 . S
C3187 C3186 1.363 . S
C3187 C3193 1.363 . S
C3188 C3189 1.363 . S
C3188 C3193 1.379 . S
C3188 N3195 1.356 . S
C3189 C3188 1.363 . S
C3189 C3192 1.363 . S
N3190 C3192 1.356 . S
N3190 H3202 0.984 . S
N3190 H3203 0.985 . S
N3191 C3193 1.356 . S
N3191 H3196 0.984 . S
N3191 H3197 0.985 . S
C3192 C3186 1.379 . S
C3192 C3189 1.363 . S
C3192 N3190 1.356 . S
C3193 C3187 1.363 . S
C3193 C3188 1.379 . S
C3193 N3191 1.356 . S
N3194 C3186 1.356 . S
N3194 H3200 0.984 . S
N3194 H3201 0.984 . S
N3195 C3188 1.356 . S
N3195 H3198 0.984 . S
N3195 H3199 0.985 . S
H3196 N3191 0.984 . S
H3197 N3191 0.985 . S
H3198 N3195 0.984 . S
H3199 N3195 0.985 . S
H3200 N3194 0.984 . S
H3201 N3194 0.984 . S
H3202 N3190 0.984 . S
H3203 N3190 0.985 . S
C3204 C3205 1.363 . S
C3204 C3210 1.379 . S
C3204 N3212 1.356 . S
C3205 C3204 1.363 . S
C3205 C3211 1.363 . S
C3206 C3207 1.363 . S
C3206 C3211 1.379 . S
C3206 N3213 1.356 . S
C3207 C3206 1.363 . S
C3207 C3210 1.363 . S
N3208 C3210 1.356 . S
N3208 H3220 0.984 . S
N3208 H3221 0.985 . S
N3209 C3211 1.356 . S
N3209 H3214 0.984 . S
N3209 H3215 0.985 . S
C3210 C3204 1.379 . S
C3210 C3207 1.363 . S
C3210 N3208 1.356 . S
C3211 C3205 1.363 . S
C3211 C3206 1.379 . S
C3211 N3209 1.356 . S
N3212 C3204 1.356 . S
N3212 H3218 0.984 . S
N3212 H3219 0.984 . S
N3213 C3206 1.356 . S
N3213 H3216 0.984 . S
N3213 H3217 0.985 . S
H3214 N3209 0.984 . S
H3215 N3209 0.985 . S
H3216 N3213 0.984 . S
H3217 N3213 0.985 . S
H3218 N3212 0.984 . S
H3219 N3212 0.984 . S
H3220 N3208 0.984 . S
H3221 N3208 0.985 . S
C3222 C3223 1.363 . S
C3222 C3228 1.379 . S
C3222 N3230 1.356 . S
C3223 C3222 1.363 . S
C3223 C3229 1.363 . S
C3224 C3225 1.363 . S
C3224 C3229 1.379 . S
C3224 N3231 1.356 . S
C3225 C3224 1.363 . S
C3225 C3228 1.363 . S
N3226 C3228 1.356 . S
N3226 H3238 0.984 . S
N3226 H3239 0.985 . S
N3227 C3229 1.356 . S
N3227 H3232 0.984 . S
N3227 H3233 0.985 . S
C3228 C3222 1.379 . S
C3228 C3225 1.363 . S
C3228 N3226 1.356 . S
C3229 C3223 1.363 . S
C3229 C3224 1.379 . S
C3229 N3227 1.356 . S
N3230 C3222 1.356 . S
N3230 H3236 0.984 . S
N3230 H3237 0.984 . S
N3231 C3224 1.356 . S
N3231 H3234 0.984 . S
N3231 H3235 0.985 . S
H3232 N3227 0.984 . S
H3233 N3227 0.985 . S
H3234 N3231 0.984 . S
H3235 N3231 0.985 . S
H3236 N3230 0.984 . S
H3237 N3230 0.984 . S
H3238 N3226 0.984 . S
H3239 N3226 0.985 . S
C3240 C3241 1.363 . S
C3240 C3246 1.379 . S
C3240 N3248 1.356 . S
C3241 C3240 1.363 . S
C3241 C3247 1.363 . S
C3242 C3243 1.363 . S
C3242 C3247 1.379 . S
C3242 N3249 1.356 . S
C3243 C3242 1.363 . S
C3243 C3246 1.363 . S
N3244 C3246 1.356 . S
N3244 H3256 0.984 . S
N3244 H3257 0.985 . S
N3245 C3247 1.356 . S
N3245 H3250 0.984 . S
N3245 H3251 0.985 . S
C3246 C3240 1.379 . S
C3246 C3243 1.363 . S
C3246 N3244 1.356 . S
C3247 C3241 1.363 . S
C3247 C3242 1.379 . S
C3247 N3245 1.356 . S
N3248 C3240 1.356 . S
N3248 H3254 0.984 . S
N3248 H3255 0.984 . S
N3249 C3242 1.356 . S
N3249 H3252 0.984 . S
N3249 H3253 0.985 . S
H3250 N3245 0.984 . S
H3251 N3245 0.985 . S
H3252 N3249 0.984 . S
H3253 N3249 0.985 . S
H3254 N3248 0.984 . S
H3255 N3248 0.984 . S
H3256 N3244 0.984 . S
H3257 N3244 0.985 . S
C3258 C3259 1.363 . S
C3258 C3264 1.379 . S
C3258 N3266 1.356 . S
C3259 C3258 1.363 . S
C3259 C3265 1.363 . S
C3260 C3261 1.363 . S
C3260 C3265 1.379 . S
C3260 N3267 1.356 . S
C3261 C3260 1.363 . S
C3261 C3264 1.363 . S
N3262 C3264 1.356 . S
N3262 H3274 0.984 . S
N3262 H3275 0.985 . S
N3263 C3265 1.356 . S
N3263 H3268 0.984 . S
N3263 H3269 0.985 . S
C3264 C3258 1.379 . S
C3264 C3261 1.363 . S
C3264 N3262 1.356 . S
C3265 C3259 1.363 . S
C3265 C3260 1.379 . S
C3265 N3263 1.356 . S
N3266 C3258 1.356 . S
N3266 H3272 0.984 . S
N3266 H3273 0.984 . S
N3267 C3260 1.356 . S
N3267 H3270 0.984 . S
N3267 H3271 0.985 . S
H3268 N3263 0.984 . S
H3269 N3263 0.985 . S
H3270 N3267 0.984 . S
H3271 N3267 0.985 . S
H3272 N3266 0.984 . S
H3273 N3266 0.984 . S
H3274 N3262 0.984 . S
H3275 N3262 0.985 . S
C3276 C3277 1.363 . S
C3276 C3282 1.379 . S
C3276 N3284 1.356 . S
C3277 C3276 1.363 . S
C3277 C3283 1.363 . S
C3278 C3279 1.363 . S
C3278 C3283 1.379 . S
C3278 N3285 1.356 . S
C3279 C3278 1.363 . S
C3279 C3282 1.363 . S
N3280 C3282 1.356 . S
N3280 H3292 0.984 . S
N3280 H3293 0.985 . S
N3281 C3283 1.356 . S
N3281 H3286 0.984 . S
N3281 H3287 0.985 . S
C3282 C3276 1.379 . S
C3282 C3279 1.363 . S
C3282 N3280 1.356 . S
C3283 C3277 1.363 . S
C3283 C3278 1.379 . S
C3283 N3281 1.356 . S
N3284 C3276 1.356 . S
N3284 H3290 0.984 . S
N3284 H3291 0.984 . S
N3285 C3278 1.356 . S
N3285 H3288 0.984 . S
N3285 H3289 0.985 . S
H3286 N3281 0.984 . S
H3287 N3281 0.985 . S
H3288 N3285 0.984 . S
H3289 N3285 0.985 . S
H3290 N3284 0.984 . S
H3291 N3284 0.984 . S
H3292 N3280 0.984 . S
H3293 N3280 0.985 . S
C3294 C3295 1.363 . S
C3294 C3300 1.379 . S
C3294 N3302 1.356 . S
C3295 C3294 1.363 . S
C3295 C3301 1.363 . S
C3296 C3297 1.363 . S
C3296 C3301 1.379 . S
C3296 N3303 1.356 . S
C3297 C3296 1.363 . S
C3297 C3300 1.363 . S
N3298 C3300 1.356 . S
N3298 H3310 0.984 . S
N3298 H3311 0.985 . S
N3299 C3301 1.356 . S
N3299 H3304 0.984 . S
N3299 H3305 0.985 . S
C3300 C3294 1.379 . S
C3300 C3297 1.363 . S
C3300 N3298 1.356 . S
C3301 C3295 1.363 . S
C3301 C3296 1.379 . S
C3301 N3299 1.356 . S
N3302 C3294 1.356 . S
N3302 H3308 0.984 . S
N3302 H3309 0.984 . S
N3303 C3296 1.356 . S
N3303 H3306 0.984 . S
N3303 H3307 0.985 . S
H3304 N3299 0.984 . S
H3305 N3299 0.985 . S
H3306 N3303 0.984 . S
H3307 N3303 0.985 . S
H3308 N3302 0.984 . S
H3309 N3302 0.984 . S
H3310 N3298 0.984 . S
H3311 N3298 0.985 . S
C3312 C3313 1.363 . S
C3312 C3318 1.379 1_565 S
C3312 N3320 1.356 . S
C3313 C3312 1.363 . S
C3313 C3319 1.363 . S
C3314 C3315 1.363 . S
C3314 C3319 1.379 1_545 S
C3314 N3321 1.356 . S
C3315 C3314 1.363 . S
C3315 C3318 1.363 . S
N3316 C3318 1.356 . S
N3316 H3328 0.984 . S
N3316 H3329 0.985 . S
N3317 C3319 1.356 . S
N3317 H3322 0.984 . S
N3317 H3323 0.985 . S
C3318 C3312 1.379 1_545 S
C3318 C3315 1.363 . S
C3318 N3316 1.356 . S
C3319 C3313 1.363 . S
C3319 C3314 1.379 1_565 S
C3319 N3317 1.356 . S
N3320 C3312 1.356 . S
N3320 H3326 0.984 . S
N3320 H3327 0.984 . S
N3321 C3314 1.356 . S
N3321 H3324 0.984 . S
N3321 H3325 0.985 . S
H3322 N3317 0.984 . S
H3323 N3317 0.985 . S
H3324 N3321 0.984 . S
H3325 N3321 0.985 . S
H3326 N3320 0.984 . S
H3327 N3320 0.984 . S
H3328 N3316 0.984 . S
H3329 N3316 0.985 . S
C3330 C3331 1.363 . S
C3330 C3336 1.379 1_455 S
C3330 N3338 1.356 . S
C3331 C3330 1.363 . S
C3331 C3337 1.363 . S
C3332 C3333 1.363 1_455 S
C3332 C3337 1.379 . S
C3332 N3339 1.356 . S
C3333 C3332 1.363 1_655 S
C3333 C3336 1.363 . S
N3334 C3336 1.356 . S
N3334 H3346 0.984 . S
N3334 H3347 0.985 . S
N3335 C3337 1.356 . S
N3335 H3340 0.984 . S
N3335 H3341 0.985 . S
C3336 C3330 1.379 1_655 S
C3336 C3333 1.363 . S
C3336 N3334 1.356 . S
C3337 C3331 1.363 . S
C3337 C3332 1.379 . S
C3337 N3335 1.356 . S
N3338 C3330 1.356 . S
N3338 H3344 0.969 1_455 S
N3338 H3345 0.984 . S
N3339 C3332 1.356 . S
N3339 H3342 0.984 1_455 S
N3339 H3343 0.985 . S
H3340 N3335 0.984 . S
H3341 N3335 0.985 . S
H3342 N3339 0.984 1_655 S
H3343 N3339 0.985 . S
H3344 N3338 0.969 1_655 S
H3345 N3338 0.984 . S
H3346 N3334 0.984 . S
H3347 N3334 0.985 . S
C3348 C3349 1.363 . S
C3348 C3354 1.379 . S
C3348 N3356 1.356 . S
C3349 C3348 1.363 . S
C3349 C3355 1.363 . S
C3350 C3351 1.363 . S
C3350 C3355 1.379 . S
C3350 N3357 1.356 . S
C3351 C3350 1.363 . S
C3351 C3354 1.363 . S
N3352 C3354 1.356 . S
N3352 H3364 0.984 . S
N3352 H3365 0.985 . S
N3353 C3355 1.356 . S
N3353 H3358 0.984 . S
N3353 H3359 0.985 . S
C3354 C3348 1.379 . S
C3354 C3351 1.363 . S
C3354 N3352 1.356 . S
C3355 C3349 1.363 . S
C3355 C3350 1.379 . S
C3355 N3353 1.356 . S
N3356 C3348 1.356 . S
N3356 H3362 0.984 . S
N3356 H3363 0.984 . S
N3357 C3350 1.356 . S
N3357 H3360 0.984 . S
N3357 H3361 0.985 . S
H3358 N3353 0.984 . S
H3359 N3353 0.985 . S
H3360 N3357 0.984 . S
H3361 N3357 0.985 . S
H3362 N3356 0.984 . S
H3363 N3356 0.984 . S
H3364 N3352 0.984 . S
H3365 N3352 0.985 . S
C3366 C3367 1.363 . S
C3366 C3372 1.379 . S
C3366 N3374 1.356 . S
C3367 C3366 1.363 . S
C3367 C3373 1.363 . S
C3368 C3369 1.363 . S
C3368 C3373 1.379 . S
C3368 N3375 1.356 . S
C3369 C3368 1.363 . S
C3369 C3372 1.363 . S
N3370 C3372 1.356 . S
N3370 H3382 0.984 . S
N3370 H3383 0.985 . S
N3371 C3373 1.356 . S
N3371 H3376 0.984 . S
N3371 H3377 0.985 . S
C3372 C3366 1.379 . S
C3372 C3369 1.363 . S
C3372 N3370 1.356 . S
C3373 C3367 1.363 . S
C3373 C3368 1.379 . S
C3373 N3371 1.356 . S
N3374 C3366 1.356 . S
N3374 H3380 0.984 . S
N3374 H3381 0.984 . S
N3375 C3368 1.356 . S
N3375 H3378 0.984 . S
N3375 H3379 0.985 . S
H3376 N3371 0.984 . S
H3377 N3371 0.985 . S
H3378 N3375 0.984 . S
H3379 N3375 0.985 . S
H3380 N3374 0.984 . S
H3381 N3374 0.984 . S
H3382 N3370 0.984 . S
H3383 N3370 0.985 . S
C3384 C3385 1.363 . S
C3384 C3390 1.379 . S
C3384 N3392 1.356 . S
C3385 C3384 1.363 . S
C3385 C3391 1.363 . S
C3386 C3387 1.363 . S
C3386 C3391 1.379 . S
C3386 N3393 1.356 . S
C3387 C3386 1.363 . S
C3387 C3390 1.363 . S
N3388 C3390 1.356 . S
N3388 H3400 0.984 . S
N3388 H3401 0.985 . S
N3389 C3391 1.356 . S
N3389 H3394 0.984 . S
N3389 H3395 0.985 . S
C3390 C3384 1.379 . S
C3390 C3387 1.363 . S
C3390 N3388 1.356 . S
C3391 C3385 1.363 . S
C3391 C3386 1.379 . S
C3391 N3389 1.356 . S
N3392 C3384 1.356 . S
N3392 H3398 0.984 . S
N3392 H3399 0.984 . S
N3393 C3386 1.356 . S
N3393 H3396 0.984 . S
N3393 H3397 0.985 . S
H3394 N3389 0.984 . S
H3395 N3389 0.985 . S
H3396 N3393 0.984 . S
H3397 N3393 0.985 . S
H3398 N3392 0.984 . S
H3399 N3392 0.984 . S
H3400 N3388 0.984 . S
H3401 N3388 0.985 . S
C3402 C3403 1.363 . S
C3402 C3408 1.379 . S
C3402 N3410 1.356 . S
C3403 C3402 1.363 . S
C3403 C3409 1.363 . S
C3404 C3405 1.363 . S
C3404 C3409 1.379 . S
C3404 N3411 1.356 . S
C3405 C3404 1.363 . S
C3405 C3408 1.363 . S
N3406 C3408 1.356 . S
N3406 H3418 0.984 . S
N3406 H3419 0.985 . S
N3407 C3409 1.356 . S
N3407 H3412 0.984 . S
N3407 H3413 0.985 . S
C3408 C3402 1.379 . S
C3408 C3405 1.363 . S
C3408 N3406 1.356 . S
C3409 C3403 1.363 . S
C3409 C3404 1.379 . S
C3409 N3407 1.356 . S
N3410 C3402 1.356 . S
N3410 H3416 0.984 . S
N3410 H3417 0.984 . S
N3411 C3404 1.356 . S
N3411 H3414 0.984 . S
N3411 H3415 0.985 . S
H3412 N3407 0.984 . S
H3413 N3407 0.985 . S
H3414 N3411 0.984 . S
H3415 N3411 0.985 . S
H3416 N3410 0.984 . S
H3417 N3410 0.984 . S
H3418 N3406 0.984 . S
H3419 N3406 0.985 . S
C3420 C3421 1.363 . S
C3420 C3426 1.379 . S
C3420 N3428 1.356 . S
C3421 C3420 1.363 . S
C3421 C3427 1.363 . S
C3422 C3423 1.363 . S
C3422 C3427 1.379 . S
C3422 N3429 1.356 . S
C3423 C3422 1.363 . S
C3423 C3426 1.363 . S
N3424 C3426 1.356 . S
N3424 H3436 0.984 . S
N3424 H3437 0.985 . S
N3425 C3427 1.356 1_545 S
N3425 H3430 0.984 . S
N3425 H3431 0.985 . S
C3426 C3420 1.379 . S
C3426 C3423 1.363 . S
C3426 N3424 1.356 . S
C3427 C3421 1.363 . S
C3427 C3422 1.379 . S
C3427 N3425 1.356 1_565 S
N3428 C3420 1.356 . S
N3428 H3434 0.984 . S
N3428 H3435 0.984 . S
N3429 C3422 1.356 . S
N3429 H3432 0.984 . S
N3429 H3433 0.985 . S
H3430 N3425 0.984 . S
H3431 N3425 0.985 . S
H3432 N3429 0.984 . S
H3433 N3429 0.985 . S
H3434 N3428 0.984 . S
H3435 N3428 0.984 . S
H3436 N3424 0.984 . S
H3437 N3424 0.985 . S
C3438 C3439 1.363 . S
C3438 C3444 1.379 1_655 S
C3438 N3446 1.356 . S
C3439 C3438 1.363 . S
C3439 C3445 1.363 1_655 S
C3440 C3441 1.363 . S
C3440 C3445 1.379 . S
C3440 N3447 1.356 . S
C3441 C3440 1.363 . S
C3441 C3444 1.363 . S
N3442 C3444 1.356 . S
N3442 H3454 0.984 . S
N3442 H3455 0.985 . S
N3443 C3445 1.356 1_655 S
N3443 H3448 0.984 . S
N3443 H3449 0.985 1_655 S
C3444 C3438 1.379 1_455 S
C3444 C3441 1.363 . S
C3444 N3442 1.356 . S
C3445 C3439 1.363 1_455 S
C3445 C3440 1.379 . S
C3445 N3443 1.356 1_455 S
N3446 C3438 1.356 . S
N3446 H3452 0.984 . S
N3446 H3453 0.984 . S
N3447 C3440 1.356 . S
N3447 H3450 0.984 . S
N3447 H3451 0.985 . S
H3448 N3443 0.984 . S
H3449 N3443 0.985 1_455 S
H3450 N3447 0.984 . S
H3451 N3447 0.985 . S
H3452 N3446 0.984 . S
H3453 N3446 0.984 . S
H3454 N3442 0.984 . S
H3455 N3442 0.985 . S
C3456 C3457 1.363 . S
C3456 C3462 1.379 1_554 S
C3456 N3464 1.356 . S
C3457 C3456 1.363 . S
C3457 C3463 1.363 . S
C3458 C3459 1.363 . S
C3458 C3463 1.379 1_556 S
C3458 N3465 1.356 . S
C3459 C3458 1.363 . S
C3459 C3462 1.363 . S
N3460 C3462 1.356 . S
N3460 H3472 0.984 . S
N3460 H3473 0.985 . S
N3461 C3463 1.356 . S
N3461 H3466 0.984 . S
N3461 H3467 0.985 . S
C3462 C3456 1.379 1_556 S
C3462 C3459 1.363 . S
C3462 N3460 1.356 . S
C3463 C3457 1.363 . S
C3463 C3458 1.379 1_554 S
C3463 N3461 1.356 . S
N3464 C3456 1.356 . S
N3464 H3470 0.984 . S
N3464 H3471 0.984 . S
N3465 C3458 1.356 . S
N3465 H3468 0.984 . S
N3465 H3469 0.985 . S
H3466 N3461 0.984 . S
H3467 N3461 0.985 . S
H3468 N3465 0.984 . S
H3469 N3465 0.985 . S
H3470 N3464 0.984 . S
H3471 N3464 0.984 . S
H3472 N3460 0.984 . S
H3473 N3460 0.985 . S
C3474 C3475 1.363 . S
C3474 C3480 1.379 . S
C3474 N3482 1.356 . S
C3475 C3474 1.363 . S
C3475 C3481 1.363 . S
C3476 C3477 1.363 . S
C3476 C3481 1.379 . S
C3476 N3483 1.356 . S
C3477 C3476 1.363 . S
C3477 C3480 1.363 . S
N3478 C3480 1.356 . S
N3478 H3490 0.984 . S
N3478 H3491 0.985 . S
N3479 C3481 1.356 . S
N3479 H3484 0.984 . S
N3479 H3485 0.985 . S
C3480 C3474 1.379 . S
C3480 C3477 1.363 . S
C3480 N3478 1.356 . S
C3481 C3475 1.363 . S
C3481 C3476 1.379 . S
C3481 N3479 1.356 . S
N3482 C3474 1.356 . S
N3482 H3488 0.984 . S
N3482 H3489 0.984 . S
N3483 C3476 1.356 . S
N3483 H3486 0.984 . S
N3483 H3487 0.985 . S
H3484 N3479 0.984 . S
H3485 N3479 0.985 . S
H3486 N3483 0.984 . S
H3487 N3483 0.985 . S
H3488 N3482 0.984 . S
H3489 N3482 0.984 . S
H3490 N3478 0.984 . S
H3491 N3478 0.985 . S
C3492 C3493 1.363 . S
C3492 C3498 1.379 . S
C3492 N3500 1.356 . S
C3493 C3492 1.363 . S
C3493 C3499 1.363 . S
C3494 C3495 1.363 . S
C3494 C3499 1.379 . S
C3494 N3501 1.356 . S
C3495 C3494 1.363 . S
C3495 C3498 1.363 . S
N3496 C3498 1.356 . S
N3496 H3508 0.984 . S
N3496 H3509 0.985 . S
N3497 C3499 1.356 . S
N3497 H3502 0.984 . S
N3497 H3503 0.985 . S
C3498 C3492 1.379 . S
C3498 C3495 1.363 . S
C3498 N3496 1.356 . S
C3499 C3493 1.363 . S
C3499 C3494 1.379 . S
C3499 N3497 1.356 . S
N3500 C3492 1.356 . S
N3500 H3506 0.984 . S
N3500 H3507 0.984 . S
N3501 C3494 1.356 . S
N3501 H3504 0.984 . S
N3501 H3505 0.985 . S
H3502 N3497 0.984 . S
H3503 N3497 0.985 . S
H3504 N3501 0.984 . S
H3505 N3501 0.985 . S
H3506 N3500 0.984 . S
H3507 N3500 0.984 . S
H3508 N3496 0.984 . S
H3509 N3496 0.985 . S
C3510 C3511 1.363 . S
C3510 C3516 1.379 . S
C3510 N3518 1.356 . S
C3511 C3510 1.363 . S
C3511 C3517 1.363 . S
C3512 C3513 1.363 . S
C3512 C3517 1.379 . S
C3512 N3519 1.356 . S
C3513 C3512 1.363 . S
C3513 C3516 1.363 . S
N3514 C3516 1.356 . S
N3514 H3526 0.984 . S
N3514 H3527 0.985 . S
N3515 C3517 1.356 . S
N3515 H3520 0.984 . S
N3515 H3521 0.985 . S
C3516 C3510 1.379 . S
C3516 C3513 1.363 . S
C3516 N3514 1.356 . S
C3517 C3511 1.363 . S
C3517 C3512 1.379 . S
C3517 N3515 1.356 . S
N3518 C3510 1.356 . S
N3518 H3524 0.984 . S
N3518 H3525 0.984 . S
N3519 C3512 1.356 . S
N3519 H3522 0.984 . S
N3519 H3523 0.985 . S
H3520 N3515 0.984 . S
H3521 N3515 0.985 . S
H3522 N3519 0.984 . S
H3523 N3519 0.985 . S
H3524 N3518 0.984 . S
H3525 N3518 0.984 . S
H3526 N3514 0.984 . S
H3527 N3514 0.985 . S
C3528 C3529 1.363 . S
C3528 C3534 1.379 . S
C3528 N3536 1.356 . S
C3529 C3528 1.363 . S
C3529 C3535 1.363 . S
C3530 C3531 1.363 . S
C3530 C3535 1.379 . S
C3530 N3537 1.356 . S
C3531 C3530 1.363 . S
C3531 C3534 1.363 . S
N3532 C3534 1.356 . S
N3532 H3544 0.984 . S
N3532 H3545 0.985 . S
N3533 C3535 1.356 . S
N3533 H3538 0.984 . S
N3533 H3539 0.985 . S
C3534 C3528 1.379 . S
C3534 C3531 1.363 . S
C3534 N3532 1.356 . S
C3535 C3529 1.363 . S
C3535 C3530 1.379 . S
C3535 N3533 1.356 . S
N3536 C3528 1.356 . S
N3536 H3542 0.984 . S
N3536 H3543 0.984 . S
N3537 C3530 1.356 . S
N3537 H3540 0.984 . S
N3537 H3541 0.985 . S
H3538 N3533 0.984 . S
H3539 N3533 0.985 . S
H3540 N3537 0.984 . S
H3541 N3537 0.985 . S
H3542 N3536 0.984 . S
H3543 N3536 0.984 . S
H3544 N3532 0.984 . S
H3545 N3532 0.985 . S
C3546 C3547 1.363 . S
C3546 C3552 1.379 . S
C3546 N3554 1.356 . S
C3547 C3546 1.363 . S
C3547 C3553 1.363 . S
C3548 C3549 1.363 . S
C3548 C3553 1.379 . S
C3548 N3555 1.356 . S
C3549 C3548 1.363 . S
C3549 C3552 1.363 . S
N3550 C3552 1.356 . S
N3550 H3562 0.984 . S
N3550 H3563 0.985 . S
N3551 C3553 1.356 . S
N3551 H3556 0.984 . S
N3551 H3557 0.985 . S
C3552 C3546 1.379 . S
C3552 C3549 1.363 . S
C3552 N3550 1.356 . S
C3553 C3547 1.363 . S
C3553 C3548 1.379 . S
C3553 N3551 1.356 . S
N3554 C3546 1.356 . S
N3554 H3560 0.984 . S
N3554 H3561 0.984 . S
N3555 C3548 1.356 . S
N3555 H3558 0.984 . S
N3555 H3559 0.985 . S
H3556 N3551 0.984 . S
H3557 N3551 0.985 . S
H3558 N3555 0.984 . S
H3559 N3555 0.985 . S
H3560 N3554 0.984 . S
H3561 N3554 0.984 . S
H3562 N3550 0.984 . S
H3563 N3550 0.985 . S
C3564 C3565 1.363 . S
C3564 C3570 1.379 . S
C3564 N3572 1.356 . S
C3565 C3564 1.363 . S
C3565 C3571 1.363 . S
C3566 C3567 1.363 . S
C3566 C3571 1.379 . S
C3566 N3573 1.356 . S
C3567 C3566 1.363 . S
C3567 C3570 1.363 . S
N3568 C3570 1.356 . S
N3568 H3580 0.984 . S
N3568 H3581 0.985 . S
N3569 C3571 1.356 . S
N3569 H3574 0.984 . S
N3569 H3575 0.985 . S
C3570 C3564 1.379 . S
C3570 C3567 1.363 . S
C3570 N3568 1.356 . S
C3571 C3565 1.363 . S
C3571 C3566 1.379 . S
C3571 N3569 1.356 . S
N3572 C3564 1.356 . S
N3572 H3578 0.984 . S
N3572 H3579 0.984 . S
N3573 C3566 1.356 . S
N3573 H3576 0.984 . S
N3573 H3577 0.985 . S
H3574 N3569 0.984 . S
H3575 N3569 0.985 . S
H3576 N3573 0.984 . S
H3577 N3573 0.985 . S
H3578 N3572 0.984 . S
H3579 N3572 0.984 . S
H3580 N3568 0.984 . S
H3581 N3568 0.985 . S
C3582 C3583 1.363 . S
C3582 C3588 1.379 1_554 S
C3582 N3590 1.356 . S
C3583 C3582 1.363 . S
C3583 C3589 1.363 . S
C3584 C3585 1.363 . S
C3584 C3589 1.379 1_556 S
C3584 N3591 1.356 . S
C3585 C3584 1.363 . S
C3585 C3588 1.363 . S
N3586 C3588 1.356 . S
N3586 H3598 0.984 . S
N3586 H3599 0.985 . S
N3587 C3589 1.356 . S
N3587 H3592 0.984 . S
N3587 H3593 0.985 . S
C3588 C3582 1.379 1_556 S
C3588 C3585 1.363 . S
C3588 N3586 1.356 . S
C3589 C3583 1.363 . S
C3589 C3584 1.379 1_554 S
C3589 N3587 1.356 . S
N3590 C3582 1.356 . S
N3590 H3596 0.984 . S
N3590 H3597 0.984 . S
N3591 C3584 1.356 . S
N3591 H3594 0.984 . S
N3591 H3595 0.985 . S
H3592 N3587 0.984 . S
H3593 N3587 0.985 . S
H3594 N3591 0.984 . S
H3595 N3591 0.985 . S
H3596 N3590 0.984 . S
H3597 N3590 0.984 . S
H3598 N3586 0.984 . S
H3599 N3586 0.985 . S
C3600 C3601 1.363 . S
C3600 C3606 1.379 1_655 S
C3600 N3608 1.356 . S
C3601 C3600 1.363 . S
C3601 C3607 1.365 1_655 S
C3602 C3603 1.363 . S
C3602 C3607 1.376 . S
C3602 N3609 1.356 . S
C3603 C3602 1.363 . S
C3603 C3606 1.363 . S
N3604 C3606 1.356 . S
N3604 H3616 0.984 . S
N3604 H3617 0.985 . S
N3605 C3607 1.357 1_655 S
N3605 H3610 0.984 . S
N3605 H3611 0.985 . S
C3606 C3600 1.379 1_455 S
C3606 C3603 1.363 . S
C3606 N3604 1.356 . S
C3607 C3601 1.365 1_455 S
C3607 C3602 1.376 . S
C3607 N3605 1.357 1_455 S
N3608 C3600 1.356 . S
N3608 H3614 0.984 . S
N3608 H3615 0.984 . S
N3609 C3602 1.356 . S
N3609 H3612 0.984 . S
N3609 H3613 0.985 . S
H3610 N3605 0.984 . S
H3611 N3605 0.985 . S
H3612 N3609 0.984 . S
H3613 N3609 0.985 . S
H3614 N3608 0.984 . S
H3615 N3608 0.984 . S
H3616 N3604 0.984 . S
H3617 N3604 0.985 . S
C3618 C3619 1.363 . S
C3618 C3624 1.379 . S
C3618 N3626 1.356 . S
C3619 C3618 1.363 . S
C3619 C3625 1.363 . S
C3620 C3621 1.363 . S
C3620 C3625 1.379 . S
C3620 N3627 1.356 . S
C3621 C3620 1.363 . S
C3621 C3624 1.363 . S
N3622 C3624 1.356 . S
N3622 H3634 0.984 . S
N3622 H3635 0.985 . S
N3623 C3625 1.356 . S
N3623 H3628 0.984 . S
N3623 H3629 0.985 . S
C3624 C3618 1.379 . S
C3624 C3621 1.363 . S
C3624 N3622 1.356 . S
C3625 C3619 1.363 . S
C3625 C3620 1.379 . S
C3625 N3623 1.356 . S
N3626 C3618 1.356 . S
N3626 H3632 0.984 . S
N3626 H3633 0.984 . S
N3627 C3620 1.356 . S
N3627 H3630 0.984 . S
N3627 H3631 0.985 . S
H3628 N3623 0.984 . S
H3629 N3623 0.985 . S
H3630 N3627 0.984 . S
H3631 N3627 0.985 . S
H3632 N3626 0.984 . S
H3633 N3626 0.984 . S
H3634 N3622 0.984 . S
H3635 N3622 0.985 . S
C3636 C3637 1.363 . S
C3636 C3642 1.379 . S
C3636 N3644 1.356 . S
C3637 C3636 1.363 . S
C3637 C3643 1.363 . S
C3638 C3639 1.363 . S
C3638 C3643 1.379 . S
C3638 N3645 1.356 . S
C3639 C3638 1.363 . S
C3639 C3642 1.363 . S
N3640 C3642 1.356 . S
N3640 H3652 0.984 . S
N3640 H3653 0.985 . S
N3641 C3643 1.356 . S
N3641 H3646 0.984 . S
N3641 H3647 0.985 . S
C3642 C3636 1.379 . S
C3642 C3639 1.363 . S
C3642 N3640 1.356 . S
C3643 C3637 1.363 . S
C3643 C3638 1.379 . S
C3643 N3641 1.356 . S
N3644 C3636 1.356 . S
N3644 H3650 0.984 . S
N3644 H3651 0.984 . S
N3645 C3638 1.356 . S
N3645 H3648 0.984 . S
N3645 H3649 0.985 . S
H3646 N3641 0.984 . S
H3647 N3641 0.985 . S
H3648 N3645 0.984 . S
H3649 N3645 0.985 . S
H3650 N3644 0.984 . S
H3651 N3644 0.984 . S
H3652 N3640 0.984 . S
H3653 N3640 0.985 . S
C3654 C3655 1.363 . S
C3654 C3660 1.379 . S
C3654 N3662 1.356 . S
C3655 C3654 1.363 . S
C3655 C3661 1.363 . S
C3656 C3657 1.363 . S
C3656 C3661 1.379 . S
C3656 N3663 1.356 . S
C3657 C3656 1.363 . S
C3657 C3660 1.363 . S
N3658 C3660 1.356 . S
N3658 H3670 0.984 . S
N3658 H3671 0.985 . S
N3659 C3661 1.356 . S
N3659 H3664 0.984 . S
N3659 H3665 0.985 . S
C3660 C3654 1.379 . S
C3660 C3657 1.363 . S
C3660 N3658 1.356 . S
C3661 C3655 1.363 . S
C3661 C3656 1.379 . S
C3661 N3659 1.356 . S
N3662 C3654 1.356 . S
N3662 H3668 0.984 . S
N3662 H3669 0.984 . S
N3663 C3656 1.356 . S
N3663 H3666 0.984 . S
N3663 H3667 0.985 . S
H3664 N3659 0.984 . S
H3665 N3659 0.985 . S
H3666 N3663 0.984 . S
H3667 N3663 0.985 . S
H3668 N3662 0.984 . S
H3669 N3662 0.984 . S
H3670 N3658 0.984 . S
H3671 N3658 0.985 . S
C3672 C3673 1.363 . S
C3672 C3678 1.379 . S
C3672 N3680 1.356 . S
C3673 C3672 1.363 . S
C3673 C3679 1.363 . S
C3674 C3675 1.363 . S
C3674 C3679 1.379 . S
C3674 N3681 1.356 . S
C3675 C3674 1.363 . S
C3675 C3678 1.363 . S
N3676 C3678 1.356 . S
N3676 H3688 0.984 . S
N3676 H3689 0.985 . S
N3677 C3679 1.356 . S
N3677 H3682 0.984 . S
N3677 H3683 0.985 . S
C3678 C3672 1.379 . S
C3678 C3675 1.363 . S
C3678 N3676 1.356 . S
C3679 C3673 1.363 . S
C3679 C3674 1.379 . S
C3679 N3677 1.356 . S
N3680 C3672 1.356 . S
N3680 H3686 0.984 . S
N3680 H3687 0.984 . S
N3681 C3674 1.356 . S
N3681 H3684 0.984 . S
N3681 H3685 0.985 . S
H3682 N3677 0.984 . S
H3683 N3677 0.985 . S
H3684 N3681 0.984 . S
H3685 N3681 0.985 . S
H3686 N3680 0.984 . S
H3687 N3680 0.984 . S
H3688 N3676 0.984 . S
H3689 N3676 0.985 . S
C3690 C3691 1.363 . S
C3690 C3696 1.379 . S
C3690 N3698 1.356 . S
C3691 C3690 1.363 . S
C3691 C3697 1.363 . S
C3692 C3693 1.363 . S
C3692 C3697 1.379 . S
C3692 N3699 1.356 . S
C3693 C3692 1.363 . S
C3693 C3696 1.363 . S
N3694 C3696 1.356 . S
N3694 H3706 0.984 . S
N3694 H3707 0.985 . S
N3695 C3697 1.356 . S
N3695 H3700 0.984 . S
N3695 H3701 0.985 . S
C3696 C3690 1.379 . S
C3696 C3693 1.363 . S
C3696 N3694 1.356 . S
C3697 C3691 1.363 . S
C3697 C3692 1.379 . S
C3697 N3695 1.356 . S
N3698 C3690 1.356 . S
N3698 H3704 0.984 . S
N3698 H3705 0.984 . S
N3699 C3692 1.356 . S
N3699 H3702 0.984 . S
N3699 H3703 0.985 . S
H3700 N3695 0.984 . S
H3701 N3695 0.985 . S
H3702 N3699 0.984 . S
H3703 N3699 0.985 . S
H3704 N3698 0.984 . S
H3705 N3698 0.984 . S
H3706 N3694 0.984 . S
H3707 N3694 0.985 . S
C3708 C3709 1.363 . S
C3708 C3714 1.379 . S
C3708 N3716 1.356 1_565 S
C3709 C3708 1.363 . S
C3709 C3715 1.363 . S
C3710 C3711 1.363 . S
C3710 C3715 1.379 . S
C3710 N3717 1.356 . S
C3711 C3710 1.363 . S
C3711 C3714 1.363 . S
N3712 C3714 1.356 . S
N3712 H3724 0.984 . S
N3712 H3725 0.985 . S
N3713 C3715 1.356 . S
N3713 H3718 0.984 1_565 S
N3713 H3719 0.985 . S
C3714 C3708 1.379 . S
C3714 C3711 1.363 . S
C3714 N3712 1.356 . S
C3715 C3709 1.363 . S
C3715 C3710 1.379 . S
C3715 N3713 1.356 . S
N3716 C3708 1.356 1_545 S
N3716 H3722 0.984 . S
N3716 H3723 0.984 . S
N3717 C3710 1.356 . S
N3717 H3720 0.984 . S
N3717 H3721 0.985 . S
H3718 N3713 0.984 1_545 S
H3719 N3713 0.985 . S
H3720 N3717 0.984 . S
H3721 N3717 0.985 . S
H3722 N3716 0.984 . S
H3723 N3716 0.984 . S
H3724 N3712 0.984 . S
H3725 N3712 0.985 . S
C3726 C3727 1.363 . S
C3726 C3732 1.350 1_655 S
C3726 N3734 1.356 . S
C3727 C3726 1.363 . S
C3727 C3733 1.363 . S
C3728 C3729 1.363 1_655 S
C3728 C3733 1.379 . S
C3728 N3735 1.356 1_655 S
C3729 C3728 1.363 1_455 S
C3729 C3732 1.373 . S
N3730 C3732 1.382 . S
N3730 H3742 0.984 . S
N3730 H3743 0.985 . S
N3731 C3733 1.356 . S
N3731 H3736 0.984 . S
N3731 H3737 0.985 . S
C3732 C3726 1.350 1_455 S
C3732 C3729 1.373 . S
C3732 N3730 1.382 . S
C3733 C3727 1.363 . S
C3733 C3728 1.379 . S
C3733 N3731 1.356 . S
N3734 C3726 1.356 . S
N3734 H3740 0.984 . S
N3734 H3741 0.984 . S
N3735 C3728 1.356 1_455 S
N3735 H3738 0.984 . S
N3735 H3739 0.985 1_455 S
H3736 N3731 0.984 . S
H3737 N3731 0.985 . S
H3738 N3735 0.984 . S
H3739 N3735 0.985 1_655 S
H3740 N3734 0.984 . S
H3741 N3734 0.984 . S
H3742 N3730 0.984 . S
H3743 N3730 0.985 . S
C3744 C3745 1.363 . S
C3744 C3750 1.379 . S
C3744 N3752 1.356 . S
C3745 C3744 1.363 . S
C3745 C3751 1.363 . S
C3746 C3747 1.363 . S
C3746 C3751 1.379 . S
C3746 N3753 1.356 . S
C3747 C3746 1.363 . S
C3747 C3750 1.363 . S
N3748 C3750 1.356 . S
N3748 H3760 0.984 . S
N3748 H3761 0.985 . S
N3749 C3751 1.356 . S
N3749 H3754 0.984 . S
N3749 H3755 0.985 . S
C3750 C3744 1.379 . S
C3750 C3747 1.363 . S
C3750 N3748 1.356 . S
C3751 C3745 1.363 . S
C3751 C3746 1.379 . S
C3751 N3749 1.356 . S
N3752 C3744 1.356 . S
N3752 H3758 0.984 . S
N3752 H3759 0.984 . S
N3753 C3746 1.356 . S
N3753 H3756 0.984 . S
N3753 H3757 0.985 . S
H3754 N3749 0.984 . S
H3755 N3749 0.985 . S
H3756 N3753 0.984 . S
H3757 N3753 0.985 . S
H3758 N3752 0.984 . S
H3759 N3752 0.984 . S
H3760 N3748 0.984 . S
H3761 N3748 0.985 . S
C3762 C3763 1.363 . S
C3762 C3768 1.379 . S
C3762 N3770 1.356 . S
C3763 C3762 1.363 . S
C3763 C3769 1.363 . S
C3764 C3765 1.363 . S
C3764 C3769 1.379 . S
C3764 N3771 1.356 . S
C3765 C3764 1.363 . S
C3765 C3768 1.363 . S
N3766 C3768 1.356 . S
N3766 H3778 0.984 . S
N3766 H3779 0.985 . S
N3767 C3769 1.356 . S
N3767 H3772 0.984 . S
N3767 H3773 0.985 . S
C3768 C3762 1.379 . S
C3768 C3765 1.363 . S
C3768 N3766 1.356 . S
C3769 C3763 1.363 . S
C3769 C3764 1.379 . S
C3769 N3767 1.356 . S
N3770 C3762 1.356 . S
N3770 H3776 0.984 . S
N3770 H3777 0.984 . S
N3771 C3764 1.356 . S
N3771 H3774 0.984 . S
N3771 H3775 0.985 . S
H3772 N3767 0.984 . S
H3773 N3767 0.985 . S
H3774 N3771 0.984 . S
H3775 N3771 0.985 . S
H3776 N3770 0.984 . S
H3777 N3770 0.984 . S
H3778 N3766 0.984 . S
H3779 N3766 0.985 . S
C3780 C3781 1.363 . S
C3780 C3786 1.379 . S
C3780 N3788 1.356 . S
C3781 C3780 1.363 . S
C3781 C3787 1.363 . S
C3782 C3783 1.363 . S
C3782 C3787 1.379 . S
C3782 N3789 1.356 . S
C3783 C3782 1.363 . S
C3783 C3786 1.363 . S
N3784 C3786 1.356 . S
N3784 H3796 0.984 . S
N3784 H3797 0.985 . S
N3785 C3787 1.356 . S
N3785 H3790 0.984 . S
N3785 H3791 0.985 . S
C3786 C3780 1.379 . S
C3786 C3783 1.363 . S
C3786 N3784 1.356 . S
C3787 C3781 1.363 . S
C3787 C3782 1.379 . S
C3787 N3785 1.356 . S
N3788 C3780 1.356 . S
N3788 H3794 0.984 . S
N3788 H3795 0.984 . S
N3789 C3782 1.356 . S
N3789 H3792 0.984 . S
N3789 H3793 0.985 . S
H3790 N3785 0.984 . S
H3791 N3785 0.985 . S
H3792 N3789 0.984 . S
H3793 N3789 0.985 . S
H3794 N3788 0.984 . S
H3795 N3788 0.984 . S
H3796 N3784 0.984 . S
H3797 N3784 0.985 . S
C3798 C3799 1.363 . S
C3798 C3804 1.379 . S
C3798 N3806 1.356 . S
C3799 C3798 1.363 . S
C3799 C3805 1.363 . S
C3800 C3801 1.363 . S
C3800 C3805 1.379 . S
C3800 N3807 1.356 . S
C3801 C3800 1.363 . S
C3801 C3804 1.363 . S
N3802 C3804 1.356 . S
N3802 H3814 0.984 . S
N3802 H3815 0.985 . S
N3803 C3805 1.356 . S
N3803 H3808 0.984 . S
N3803 H3809 0.985 . S
C3804 C3798 1.379 . S
C3804 C3801 1.363 . S
C3804 N3802 1.356 . S
C3805 C3799 1.363 . S
C3805 C3800 1.379 . S
C3805 N3803 1.356 . S
N3806 C3798 1.356 . S
N3806 H3812 0.984 . S
N3806 H3813 0.984 . S
N3807 C3800 1.356 . S
N3807 H3810 0.984 . S
N3807 H3811 0.985 . S
H3808 N3803 0.984 . S
H3809 N3803 0.985 . S
H3810 N3807 0.984 . S
H3811 N3807 0.985 . S
H3812 N3806 0.984 . S
H3813 N3806 0.984 . S
H3814 N3802 0.984 . S
H3815 N3802 0.985 . S
C3816 C3817 1.363 . S
C3816 C3822 1.379 1_565 S
C3816 N3824 1.356 . S
C3817 C3816 1.363 . S
C3817 C3823 1.363 1_565 S
C3818 C3819 1.363 . S
C3818 C3823 1.379 . S
C3818 N3825 1.356 . S
C3819 C3818 1.363 . S
C3819 C3822 1.363 . S
N3820 C3822 1.356 . S
N3820 H3832 0.984 . S
N3820 H3833 0.985 . S
N3821 C3823 1.356 1_565 S
N3821 H3826 0.984 . S
N3821 H3827 0.985 . S
C3822 C3816 1.379 1_545 S
C3822 C3819 1.363 . S
C3822 N3820 1.356 . S
C3823 C3817 1.363 1_545 S
C3823 C3818 1.379 . S
C3823 N3821 1.356 1_545 S
N3824 C3816 1.356 . S
N3824 H3830 0.984 . S
N3824 H3831 0.984 . S
N3825 C3818 1.356 . S
N3825 H3828 0.984 . S
N3825 H3829 0.985 . S
H3826 N3821 0.984 . S
H3827 N3821 0.985 . S
H3828 N3825 0.984 . S
H3829 N3825 0.985 . S
H3830 N3824 0.984 . S
H3831 N3824 0.984 . S
H3832 N3820 0.984 . S
H3833 N3820 0.985 . S
C3834 C3835 1.363 . S
C3834 C3840 1.379 . S
C3834 N3842 1.356 . S
C3835 C3834 1.363 . S
C3835 C3841 1.363 . S
C3836 C3837 1.363 1_455 S
C3836 C3841 1.379 . S
C3836 N3843 1.356 1_455 S
C3837 C3836 1.363 1_655 S
C3837 C3840 1.363 1_655 S
N3838 C3840 1.349 1_655 S
N3838 H3850 0.979 1_655 S
N3838 H3851 0.998 . S
N3839 C3841 1.356 . S
N3839 H3844 0.984 . S
N3839 H3845 0.985 . S
C3840 C3834 1.379 . S
C3840 C3837 1.363 1_455 S
C3840 N3838 1.349 1_455 S
C3841 C3835 1.363 . S
C3841 C3836 1.379 . S
C3841 N3839 1.356 . S
N3842 C3834 1.356 . S
N3842 H3848 0.984 . S
N3842 H3849 0.984 . S
N3843 C3836 1.356 1_655 S
N3843 H3846 0.984 . S
N3843 H3847 0.985 . S
H3844 N3839 0.984 . S
H3845 N3839 0.985 . S
H3846 N3843 0.984 . S
H3847 N3843 0.985 . S
H3848 N3842 0.984 . S
H3849 N3842 0.984 . S
H3850 N3838 0.979 1_455 S
H3851 N3838 0.998 . S
C3852 C3853 1.364 . S
C3852 C3858 1.376 1_554 S
C3852 N3860 1.358 . S
C3853 C3852 1.364 . S
C3853 C3859 1.363 . S
C3854 C3855 1.363 . S
C3854 C3859 1.379 1_556 S
C3854 N3861 1.356 . S
C3855 C3854 1.363 . S
C3855 C3858 1.363 . S
N3856 C3858 1.356 . S
N3856 H3868 0.984 . S
N3856 H3869 0.985 . S
N3857 C3859 1.356 . S
N3857 H3862 0.984 . S
N3857 H3863 0.985 . S
C3858 C3852 1.376 1_556 S
C3858 C3855 1.363 . S
C3858 N3856 1.356 . S
C3859 C3853 1.363 . S
C3859 C3854 1.379 1_554 S
C3859 N3857 1.356 . S
N3860 C3852 1.358 . S
N3860 H3866 0.984 . S
N3860 H3867 0.984 . S
N3861 C3854 1.356 . S
N3861 H3864 0.984 . S
N3861 H3865 0.985 . S
H3862 N3857 0.984 . S
H3863 N3857 0.985 . S
H3864 N3861 0.984 . S
H3865 N3861 0.985 . S
H3866 N3860 0.984 . S
H3867 N3860 0.984 . S
H3868 N3856 0.984 . S
H3869 N3856 0.985 . S
C3870 C3871 1.363 . S
C3870 C3876 1.379 . S
C3870 N3878 1.356 . S
C3871 C3870 1.363 . S
C3871 C3877 1.363 . S
C3872 C3873 1.363 . S
C3872 C3877 1.379 . S
C3872 N3879 1.356 . S
C3873 C3872 1.363 . S
C3873 C3876 1.363 . S
N3874 C3876 1.356 . S
N3874 H3886 0.984 . S
N3874 H3887 0.985 . S
N3875 C3877 1.356 . S
N3875 H3880 0.984 . S
N3875 H3881 0.985 . S
C3876 C3870 1.379 . S
C3876 C3873 1.363 . S
C3876 N3874 1.356 . S
C3877 C3871 1.363 . S
C3877 C3872 1.379 . S
C3877 N3875 1.356 . S
N3878 C3870 1.356 . S
N3878 H3884 0.984 . S
N3878 H3885 0.984 . S
N3879 C3872 1.356 . S
N3879 H3882 0.984 . S
N3879 H3883 0.985 . S
H3880 N3875 0.984 . S
H3881 N3875 0.985 . S
H3882 N3879 0.984 . S
H3883 N3879 0.985 . S
H3884 N3878 0.984 . S
H3885 N3878 0.984 . S
H3886 N3874 0.984 . S
H3887 N3874 0.985 . S
C3888 C3889 1.363 . S
C3888 C3894 1.379 . S
C3888 N3896 1.356 . S
C3889 C3888 1.363 . S
C3889 C3895 1.363 . S
C3890 C3891 1.363 . S
C3890 C3895 1.379 . S
C3890 N3897 1.356 . S
C3891 C3890 1.363 . S
C3891 C3894 1.363 . S
N3892 C3894 1.356 . S
N3892 H3904 0.984 . S
N3892 H3905 0.985 . S
N3893 C3895 1.356 . S
N3893 H3898 0.984 . S
N3893 H3899 0.985 . S
C3894 C3888 1.379 . S
C3894 C3891 1.363 . S
C3894 N3892 1.356 . S
C3895 C3889 1.363 . S
C3895 C3890 1.379 . S
C3895 N3893 1.356 . S
N3896 C3888 1.356 . S
N3896 H3902 0.984 . S
N3896 H3903 0.984 . S
N3897 C3890 1.356 . S
N3897 H3900 0.984 . S
N3897 H3901 0.985 . S
H3898 N3893 0.984 . S
H3899 N3893 0.985 . S
H3900 N3897 0.984 . S
H3901 N3897 0.985 . S
H3902 N3896 0.984 . S
H3903 N3896 0.984 . S
H3904 N3892 0.984 . S
H3905 N3892 0.985 . S
C3906 C3907 1.363 . S
C3906 C3912 1.379 . S
C3906 N3914 1.356 . S
C3907 C3906 1.363 . S
C3907 C3913 1.363 . S
C3908 C3909 1.363 . S
C3908 C3913 1.379 . S
C3908 N3915 1.356 . S
C3909 C3908 1.363 . S
C3909 C3912 1.363 . S
N3910 C3912 1.356 . S
N3910 H3922 0.984 . S
N3910 H3923 0.985 . S
N3911 C3913 1.356 . S
N3911 H3916 0.984 . S
N3911 H3917 0.985 . S
C3912 C3906 1.379 . S
C3912 C3909 1.363 . S
C3912 N3910 1.356 . S
C3913 C3907 1.363 . S
C3913 C3908 1.379 . S
C3913 N3911 1.356 . S
N3914 C3906 1.356 . S
N3914 H3920 0.984 . S
N3914 H3921 0.984 . S
N3915 C3908 1.356 . S
N3915 H3918 0.984 . S
N3915 H3919 0.985 . S
H3916 N3911 0.984 . S
H3917 N3911 0.985 . S
H3918 N3915 0.984 . S
H3919 N3915 0.985 . S
H3920 N3914 0.984 . S
H3921 N3914 0.984 . S
H3922 N3910 0.984 . S
H3923 N3910 0.985 . S
C3924 C3925 1.363 . S
C3924 C3930 1.379 . S
C3924 N3932 1.356 . S
C3925 C3924 1.363 . S
C3925 C3931 1.363 . S
C3926 C3927 1.363 . S
C3926 C3931 1.379 . S
C3926 N3933 1.356 . S
C3927 C3926 1.363 . S
C3927 C3930 1.363 . S
N3928 C3930 1.356 . S
N3928 H3940 0.984 . S
N3928 H3941 0.985 . S
N3929 C3931 1.356 . S
N3929 H3934 0.984 . S
N3929 H3935 0.985 . S
C3930 C3924 1.379 . S
C3930 C3927 1.363 . S
C3930 N3928 1.356 . S
C3931 C3925 1.363 . S
C3931 C3926 1.379 . S
C3931 N3929 1.356 . S
N3932 C3924 1.356 . S
N3932 H3938 0.984 . S
N3932 H3939 0.984 . S
N3933 C3926 1.356 . S
N3933 H3936 0.984 . S
N3933 H3937 0.985 . S
H3934 N3929 0.984 . S
H3935 N3929 0.985 . S
H3936 N3933 0.984 . S
H3937 N3933 0.985 . S
H3938 N3932 0.984 . S
H3939 N3932 0.984 . S
H3940 N3928 0.984 . S
H3941 N3928 0.985 . S
C3942 C3943 1.363 . S
C3942 C3948 1.379 . S
C3942 N3950 1.356 . S
C3943 C3942 1.363 . S
C3943 C3949 1.363 . S
C3944 C3945 1.363 . S
C3944 C3949 1.379 . S
C3944 N3951 1.356 . S
C3945 C3944 1.363 . S
C3945 C3948 1.363 . S
N3946 C3948 1.356 . S
N3946 H3958 0.984 . S
N3946 H3959 0.985 . S
N3947 C3949 1.356 . S
N3947 H3952 0.984 . S
N3947 H3953 0.985 . S
C3948 C3942 1.379 . S
C3948 C3945 1.363 . S
C3948 N3946 1.356 . S
C3949 C3943 1.363 . S
C3949 C3944 1.379 . S
C3949 N3947 1.356 . S
N3950 C3942 1.356 . S
N3950 H3956 0.984 . S
N3950 H3957 0.984 . S
N3951 C3944 1.356 . S
N3951 H3954 0.984 . S
N3951 H3955 0.985 . S
H3952 N3947 0.984 . S
H3953 N3947 0.985 . S
H3954 N3951 0.984 . S
H3955 N3951 0.985 . S
H3956 N3950 0.984 . S
H3957 N3950 0.984 . S
H3958 N3946 0.984 . S
H3959 N3946 0.985 . S
C3960 C3961 1.363 . S
C3960 C3966 1.379 . S
C3960 N3968 1.356 . S
C3961 C3960 1.363 . S
C3961 C3967 1.363 . S
C3962 C3963 1.363 . S
C3962 C3967 1.379 . S
C3962 N3969 1.356 . S
C3963 C3962 1.363 . S
C3963 C3966 1.363 . S
N3964 C3966 1.356 . S
N3964 H3976 0.984 . S
N3964 H3977 0.985 . S
N3965 C3967 1.356 . S
N3965 H3970 0.984 . S
N3965 H3971 0.985 . S
C3966 C3960 1.379 . S
C3966 C3963 1.363 . S
C3966 N3964 1.356 . S
C3967 C3961 1.363 . S
C3967 C3962 1.379 . S
C3967 N3965 1.356 . S
N3968 C3960 1.356 . S
N3968 H3974 0.984 . S
N3968 H3975 0.984 . S
N3969 C3962 1.356 . S
N3969 H3972 0.984 . S
N3969 H3973 0.985 . S
H3970 N3965 0.984 . S
H3971 N3965 0.985 . S
H3972 N3969 0.984 . S
H3973 N3969 0.985 . S
H3974 N3968 0.984 . S
H3975 N3968 0.984 . S
H3976 N3964 0.984 . S
H3977 N3964 0.985 . S
C3978 C3979 1.363 . S
C3978 C3984 1.379 1_554 S
C3978 N3986 1.356 . S
C3979 C3978 1.363 . S
C3979 C3985 1.369 . S
C3980 C3981 1.363 . S
C3980 C3985 1.367 1_556 S
C3980 N3987 1.356 . S
C3981 C3980 1.363 . S
C3981 C3984 1.363 . S
N3982 C3984 1.356 . S
N3982 H3994 0.984 . S
N3982 H3995 0.985 . S
N3983 C3985 1.365 . S
N3983 H3988 0.984 . S
N3983 H3989 0.985 . S
C3984 C3978 1.379 1_556 S
C3984 C3981 1.363 . S
C3984 N3982 1.356 . S
C3985 C3979 1.369 . S
C3985 C3980 1.367 1_554 S
C3985 N3983 1.365 . S
N3986 C3978 1.356 . S
N3986 H3992 0.984 . S
N3986 H3993 0.984 . S
N3987 C3980 1.356 . S
N3987 H3990 0.984 . S
N3987 H3991 0.985 . S
H3988 N3983 0.984 . S
H3989 N3983 0.985 . S
H3990 N3987 0.984 . S
H3991 N3987 0.985 . S
H3992 N3986 0.984 . S
H3993 N3986 0.984 . S
H3994 N3982 0.984 . S
H3995 N3982 0.985 . S
C3996 C3997 1.363 . S
C3996 C4002 1.379 . S
C3996 N4004 1.356 . S
C3997 C3996 1.363 . S
C3997 C4003 1.363 . S
C3998 C3999 1.363 1_455 S
C3998 C4003 1.379 . S
C3998 N4005 1.356 1_455 S
C3999 C3998 1.363 1_655 S
C3999 C4002 1.363 1_655 S
N4000 C4002 1.356 1_655 S
N4000 H4012 0.984 . S
N4000 H4013 0.985 . S
N4001 C4003 1.356 . S
N4001 H4006 0.984 . S
N4001 H4007 0.985 . S
C4002 C3996 1.379 . S
C4002 C3999 1.363 1_455 S
C4002 N4000 1.356 1_455 S
C4003 C3997 1.363 . S
C4003 C3998 1.379 . S
C4003 N4001 1.356 . S
N4004 C3996 1.356 . S
N4004 H4010 0.984 . S
N4004 H4011 0.984 . S
N4005 C3998 1.356 1_655 S
N4005 H4008 0.984 . S
N4005 H4009 0.985 1_655 S
H4006 N4001 0.984 . S
H4007 N4001 0.985 . S
H4008 N4005 0.984 . S
H4009 N4005 0.985 1_455 S
H4010 N4004 0.984 . S
H4011 N4004 0.984 . S
H4012 N4000 0.984 . S
H4013 N4000 0.985 . S
C4014 C4015 1.363 . S
C4014 C4020 1.379 . S
C4014 N4022 1.356 . S
C4015 C4014 1.363 . S
C4015 C4021 1.363 . S
C4016 C4017 1.363 . S
C4016 C4021 1.379 . S
C4016 N4023 1.356 . S
C4017 C4016 1.363 . S
C4017 C4020 1.363 . S
N4018 C4020 1.356 . S
N4018 H4030 0.984 . S
N4018 H4031 0.985 . S
N4019 C4021 1.356 . S
N4019 H4024 0.984 . S
N4019 H4025 0.985 . S
C4020 C4014 1.379 . S
C4020 C4017 1.363 . S
C4020 N4018 1.356 . S
C4021 C4015 1.363 . S
C4021 C4016 1.379 . S
C4021 N4019 1.356 . S
N4022 C4014 1.356 . S
N4022 H4028 0.984 . S
N4022 H4029 0.984 . S
N4023 C4016 1.356 . S
N4023 H4026 0.984 . S
N4023 H4027 0.985 . S
H4024 N4019 0.984 . S
H4025 N4019 0.985 . S
H4026 N4023 0.984 . S
H4027 N4023 0.985 . S
H4028 N4022 0.984 . S
H4029 N4022 0.984 . S
H4030 N4018 0.984 . S
H4031 N4018 0.985 . S
C4032 C4033 1.363 . S
C4032 C4038 1.379 . S
C4032 N4040 1.356 . S
C4033 C4032 1.363 . S
C4033 C4039 1.363 . S
C4034 C4035 1.363 . S
C4034 C4039 1.379 . S
C4034 N4041 1.356 . S
C4035 C4034 1.363 . S
C4035 C4038 1.363 . S
N4036 C4038 1.356 . S
N4036 H4048 0.984 . S
N4036 H4049 0.985 . S
N4037 C4039 1.356 . S
N4037 H4042 0.984 . S
N4037 H4043 0.985 . S
C4038 C4032 1.379 . S
C4038 C4035 1.363 . S
C4038 N4036 1.356 . S
C4039 C4033 1.363 . S
C4039 C4034 1.379 . S
C4039 N4037 1.356 . S
N4040 C4032 1.356 . S
N4040 H4046 0.984 . S
N4040 H4047 0.984 . S
N4041 C4034 1.356 . S
N4041 H4044 0.984 . S
N4041 H4045 0.985 . S
H4042 N4037 0.984 . S
H4043 N4037 0.985 . S
H4044 N4041 0.984 . S
H4045 N4041 0.985 . S
H4046 N4040 0.984 . S
H4047 N4040 0.984 . S
H4048 N4036 0.984 . S
H4049 N4036 0.985 . S
C4050 C4051 1.363 . S
C4050 C4056 1.379 . S
C4050 N4058 1.356 . S
C4051 C4050 1.363 . S
C4051 C4057 1.363 . S
C4052 C4053 1.363 . S
C4052 C4057 1.379 . S
C4052 N4059 1.356 . S
C4053 C4052 1.363 . S
C4053 C4056 1.363 . S
N4054 C4056 1.356 . S
N4054 H4066 0.984 . S
N4054 H4067 0.985 . S
N4055 C4057 1.356 . S
N4055 H4060 0.984 . S
N4055 H4061 0.985 . S
C4056 C4050 1.379 . S
C4056 C4053 1.363 . S
C4056 N4054 1.356 . S
C4057 C4051 1.363 . S
C4057 C4052 1.379 . S
C4057 N4055 1.356 . S
N4058 C4050 1.356 . S
N4058 H4064 0.984 . S
N4058 H4065 0.984 . S
N4059 C4052 1.356 . S
N4059 H4062 0.984 . S
N4059 H4063 0.985 . S
H4060 N4055 0.984 . S
H4061 N4055 0.985 . S
H4062 N4059 0.984 . S
H4063 N4059 0.985 . S
H4064 N4058 0.984 . S
H4065 N4058 0.984 . S
H4066 N4054 0.984 . S
H4067 N4054 0.985 . S
C4068 C4069 1.363 . S
C4068 C4074 1.379 . S
C4068 N4076 1.356 . S
C4069 C4068 1.363 . S
C4069 C4075 1.363 . S
C4070 C4071 1.363 . S
C4070 C4075 1.379 . S
C4070 N4077 1.356 . S
C4071 C4070 1.363 . S
C4071 C4074 1.363 . S
N4072 C4074 1.356 . S
N4072 H4084 0.984 . S
N4072 H4085 0.985 . S
N4073 C4075 1.356 . S
N4073 H4078 0.984 . S
N4073 H4079 0.985 . S
C4074 C4068 1.379 . S
C4074 C4071 1.363 . S
C4074 N4072 1.356 . S
C4075 C4069 1.363 . S
C4075 C4070 1.379 . S
C4075 N4073 1.356 . S
N4076 C4068 1.356 . S
N4076 H4082 0.984 . S
N4076 H4083 0.984 . S
N4077 C4070 1.356 . S
N4077 H4080 0.984 . S
N4077 H4081 0.985 . S
H4078 N4073 0.984 . S
H4079 N4073 0.985 . S
H4080 N4077 0.984 . S
H4081 N4077 0.985 . S
H4082 N4076 0.984 . S
H4083 N4076 0.984 . S
H4084 N4072 0.984 . S
H4085 N4072 0.985 . S
C4086 C4087 1.363 . S
C4086 C4092 1.379 . S
C4086 N4094 1.356 . S
C4087 C4086 1.363 . S
C4087 C4093 1.363 . S
C4088 C4089 1.363 . S
C4088 C4093 1.379 . S
C4088 N4095 1.356 . S
C4089 C4088 1.363 . S
C4089 C4092 1.363 . S
N4090 C4092 1.356 . S
N4090 H4102 0.984 . S
N4090 H4103 0.985 . S
N4091 C4093 1.356 . S
N4091 H4096 0.984 . S
N4091 H4097 0.985 . S
C4092 C4086 1.379 . S
C4092 C4089 1.363 . S
C4092 N4090 1.356 . S
C4093 C4087 1.363 . S
C4093 C4088 1.379 . S
C4093 N4091 1.356 . S
N4094 C4086 1.356 . S
N4094 H4100 0.984 . S
N4094 H4101 0.984 . S
N4095 C4088 1.356 . S
N4095 H4098 0.984 . S
N4095 H4099 0.985 . S
H4096 N4091 0.984 . S
H4097 N4091 0.985 . S
H4098 N4095 0.984 . S
H4099 N4095 0.985 . S
H4100 N4094 0.984 . S
H4101 N4094 0.984 . S
H4102 N4090 0.984 . S
H4103 N4090 0.985 . S
C4104 C4105 1.363 . S
C4104 C4110 1.379 . S
C4104 N4112 1.356 . S
C4105 C4104 1.363 . S
C4105 C4111 1.363 . S
C4106 C4107 1.363 . S
C4106 C4111 1.379 . S
C4106 N4113 1.356 . S
C4107 C4106 1.363 . S
C4107 C4110 1.363 . S
N4108 C4110 1.356 . S
N4108 H4120 0.984 . S
N4108 H4121 0.985 . S
N4109 C4111 1.356 . S
N4109 H4114 0.984 . S
N4109 H4115 0.985 . S
C4110 C4104 1.379 . S
C4110 C4107 1.363 . S
C4110 N4108 1.356 . S
C4111 C4105 1.363 . S
C4111 C4106 1.379 . S
C4111 N4109 1.356 . S
N4112 C4104 1.356 . S
N4112 H4118 0.984 . S
N4112 H4119 0.984 . S
N4113 C4106 1.356 . S
N4113 H4116 0.984 . S
N4113 H4117 0.985 . S
H4114 N4109 0.984 . S
H4115 N4109 0.985 . S
H4116 N4113 0.984 . S
H4117 N4113 0.985 . S
H4118 N4112 0.984 . S
H4119 N4112 0.984 . S
H4120 N4108 0.984 . S
H4121 N4108 0.985 . S
C4122 C4123 1.363 . S
C4122 C4128 1.379 1_455 S
C4122 N4130 1.356 . S
C4123 C4122 1.363 . S
C4123 C4129 1.363 . S
C4124 C4125 1.363 1_455 S
C4124 C4129 1.379 . S
C4124 N4131 1.356 . S
C4125 C4124 1.363 1_655 S
C4125 C4128 1.363 . S
N4126 C4128 1.356 . S
N4126 H4138 0.984 . S
N4126 H4139 0.985 . S
N4127 C4129 1.356 . S
N4127 H4132 0.984 . S
N4127 H4133 0.985 . S
C4128 C4122 1.379 1_655 S
C4128 C4125 1.363 . S
C4128 N4126 1.356 . S
C4129 C4123 1.363 . S
C4129 C4124 1.379 . S
C4129 N4127 1.356 . S
N4130 C4122 1.356 . S
N4130 H4136 0.984 1_455 S
N4130 H4137 0.984 . S
N4131 C4124 1.356 . S
N4131 H4134 0.984 1_455 S
N4131 H4135 0.985 . S
H4132 N4127 0.984 . S
H4133 N4127 0.985 . S
H4134 N4131 0.984 1_655 S
H4135 N4131 0.985 . S
H4136 N4130 0.984 1_655 S
H4137 N4130 0.984 . S
H4138 N4126 0.984 . S
H4139 N4126 0.985 . S
C4140 C4141 1.363 . S
C4140 C4146 1.379 . S
C4140 N4148 1.356 . S
C4141 C4140 1.363 . S
C4141 C4147 1.363 . S
C4142 C4143 1.363 . S
C4142 C4147 1.379 . S
C4142 N4149 1.356 . S
C4143 C4142 1.363 . S
C4143 C4146 1.363 . S
N4144 C4146 1.356 . S
N4144 H4156 0.984 . S
N4144 H4157 0.985 . S
N4145 C4147 1.356 . S
N4145 H4150 0.984 . S
N4145 H4151 0.985 . S
C4146 C4140 1.379 . S
C4146 C4143 1.363 . S
C4146 N4144 1.356 . S
C4147 C4141 1.363 . S
C4147 C4142 1.379 . S
C4147 N4145 1.356 . S
N4148 C4140 1.356 . S
N4148 H4154 0.984 . S
N4148 H4155 0.984 . S
N4149 C4142 1.356 . S
N4149 H4152 0.984 . S
N4149 H4153 0.985 . S
H4150 N4145 0.984 . S
H4151 N4145 0.985 . S
H4152 N4149 0.984 . S
H4153 N4149 0.985 . S
H4154 N4148 0.984 . S
H4155 N4148 0.984 . S
H4156 N4144 0.984 . S
H4157 N4144 0.985 . S
C4158 C4159 1.363 . S
C4158 C4164 1.379 . S
C4158 N4166 1.356 . S
C4159 C4158 1.363 . S
C4159 C4165 1.363 . S
C4160 C4161 1.363 . S
C4160 C4165 1.379 . S
C4160 N4167 1.356 . S
C4161 C4160 1.363 . S
C4161 C4164 1.363 . S
N4162 C4164 1.356 . S
N4162 H4174 0.984 . S
N4162 H4175 0.985 . S
N4163 C4165 1.356 . S
N4163 H4168 0.984 . S
N4163 H4169 0.985 . S
C4164 C4158 1.379 . S
C4164 C4161 1.363 . S
C4164 N4162 1.356 . S
C4165 C4159 1.363 . S
C4165 C4160 1.379 . S
C4165 N4163 1.356 . S
N4166 C4158 1.356 . S
N4166 H4172 0.984 . S
N4166 H4173 0.984 . S
N4167 C4160 1.356 . S
N4167 H4170 0.984 . S
N4167 H4171 0.985 . S
H4168 N4163 0.984 . S
H4169 N4163 0.985 . S
H4170 N4167 0.984 . S
H4171 N4167 0.985 . S
H4172 N4166 0.984 . S
H4173 N4166 0.984 . S
H4174 N4162 0.984 . S
H4175 N4162 0.985 . S
C4176 C4177 1.363 . S
C4176 C4182 1.379 . S
C4176 N4184 1.356 . S
C4177 C4176 1.363 . S
C4177 C4183 1.363 . S
C4178 C4179 1.363 . S
C4178 C4183 1.379 . S
C4178 N4185 1.356 . S
C4179 C4178 1.363 . S
C4179 C4182 1.363 . S
N4180 C4182 1.356 . S
N4180 H4192 0.984 . S
N4180 H4193 0.985 . S
N4181 C4183 1.356 . S
N4181 H4186 0.984 . S
N4181 H4187 0.985 . S
C4182 C4176 1.379 . S
C4182 C4179 1.363 . S
C4182 N4180 1.356 . S
C4183 C4177 1.363 . S
C4183 C4178 1.379 . S
C4183 N4181 1.356 . S
N4184 C4176 1.356 . S
N4184 H4190 0.984 . S
N4184 H4191 0.984 . S
N4185 C4178 1.356 . S
N4185 H4188 0.984 . S
N4185 H4189 0.985 . S
H4186 N4181 0.984 . S
H4187 N4181 0.985 . S
H4188 N4185 0.984 . S
H4189 N4185 0.985 . S
H4190 N4184 0.984 . S
H4191 N4184 0.984 . S
H4192 N4180 0.984 . S
H4193 N4180 0.985 . S
C4194 C4195 1.363 . S
C4194 C4200 1.379 . S
C4194 N4202 1.356 . S
C4195 C4194 1.363 . S
C4195 C4201 1.363 . S
C4196 C4197 1.363 . S
C4196 C4201 1.379 . S
C4196 N4203 1.356 . S
C4197 C4196 1.363 . S
C4197 C4200 1.363 . S
N4198 C4200 1.356 . S
N4198 H4210 0.984 . S
N4198 H4211 0.985 . S
N4199 C4201 1.356 . S
N4199 H4204 0.984 . S
N4199 H4205 0.985 . S
C4200 C4194 1.379 . S
C4200 C4197 1.363 . S
C4200 N4198 1.356 . S
C4201 C4195 1.363 . S
C4201 C4196 1.379 . S
C4201 N4199 1.356 . S
N4202 C4194 1.356 . S
N4202 H4208 0.984 . S
N4202 H4209 0.984 . S
N4203 C4196 1.356 . S
N4203 H4206 0.984 . S
N4203 H4207 0.985 . S
H4204 N4199 0.984 . S
H4205 N4199 0.985 . S
H4206 N4203 0.984 . S
H4207 N4203 0.985 . S
H4208 N4202 0.984 . S
H4209 N4202 0.984 . S
H4210 N4198 0.984 . S
H4211 N4198 0.985 . S
C4212 C4213 1.363 . S
C4212 C4218 1.379 . S
C4212 N4220 1.356 . S
C4213 C4212 1.363 . S
C4213 C4219 1.363 . S
C4214 C4215 1.363 . S
C4214 C4219 1.379 . S
C4214 N4221 1.356 . S
C4215 C4214 1.363 . S
C4215 C4218 1.363 . S
N4216 C4218 1.356 . S
N4216 H4228 0.984 . S
N4216 H4229 0.985 . S
N4217 C4219 1.356 . S
N4217 H4222 0.984 . S
N4217 H4223 0.985 . S
C4218 C4212 1.379 . S
C4218 C4215 1.363 . S
C4218 N4216 1.356 . S
C4219 C4213 1.363 . S
C4219 C4214 1.379 . S
C4219 N4217 1.356 . S
N4220 C4212 1.356 . S
N4220 H4226 0.984 . S
N4220 H4227 0.984 . S
N4221 C4214 1.356 . S
N4221 H4224 0.984 . S
N4221 H4225 0.985 . S
H4222 N4217 0.984 . S
H4223 N4217 0.985 . S
H4224 N4221 0.984 . S
H4225 N4221 0.985 . S
H4226 N4220 0.984 . S
H4227 N4220 0.984 . S
H4228 N4216 0.984 . S
H4229 N4216 0.985 . S
C4230 C4231 1.363 . S
C4230 C4236 1.379 . S
C4230 N4238 1.356 . S
C4231 C4230 1.363 . S
C4231 C4237 1.363 . S
C4232 C4233 1.363 . S
C4232 C4237 1.379 . S
C4232 N4239 1.356 . S
C4233 C4232 1.363 . S
C4233 C4236 1.363 . S
N4234 C4236 1.356 . S
N4234 H4246 0.984 . S
N4234 H4247 0.985 . S
N4235 C4237 1.356 . S
N4235 H4240 0.984 . S
N4235 H4241 0.985 . S
C4236 C4230 1.379 . S
C4236 C4233 1.363 . S
C4236 N4234 1.356 . S
C4237 C4231 1.363 . S
C4237 C4232 1.379 . S
C4237 N4235 1.356 . S
N4238 C4230 1.356 . S
N4238 H4244 0.984 . S
N4238 H4245 0.984 . S
N4239 C4232 1.356 . S
N4239 H4242 0.984 . S
N4239 H4243 0.985 . S
H4240 N4235 0.984 . S
H4241 N4235 0.985 . S
H4242 N4239 0.984 . S
H4243 N4239 0.985 . S
H4244 N4238 0.984 . S
H4245 N4238 0.984 . S
H4246 N4234 0.984 . S
H4247 N4234 0.985 . S
C4248 C4249 1.363 . S
C4248 C4254 1.379 1_554 S
C4248 N4256 1.356 . S
C4249 C4248 1.363 . S
C4249 C4255 1.363 . S
C4250 C4251 1.363 . S
C4250 C4255 1.379 1_556 S
C4250 N4257 1.356 . S
C4251 C4250 1.363 . S
C4251 C4254 1.363 . S
N4252 C4254 1.356 . S
N4252 H4264 0.984 . S
N4252 H4265 0.985 . S
N4253 C4255 1.356 . S
N4253 H4258 0.984 . S
N4253 H4259 0.985 . S
C4254 C4248 1.379 1_556 S
C4254 C4251 1.363 . S
C4254 N4252 1.356 . S
C4255 C4249 1.363 . S
C4255 C4250 1.379 1_554 S
C4255 N4253 1.356 . S
N4256 C4248 1.356 . S
N4256 H4262 0.984 . S
N4256 H4263 0.984 . S
N4257 C4250 1.356 . S
N4257 H4260 0.984 . S
N4257 H4261 0.985 . S
H4258 N4253 0.984 . S
H4259 N4253 0.985 . S
H4260 N4257 0.984 . S
H4261 N4257 0.985 . S
H4262 N4256 0.984 . S
H4263 N4256 0.984 . S
H4264 N4252 0.984 . S
H4265 N4252 0.985 . S
C4266 C4267 1.363 . S
C4266 C4272 1.379 . S
C4266 N4274 1.356 . S
C4267 C4266 1.363 . S
C4267 C4273 1.363 . S
C4268 C4269 1.363 . S
C4268 C4273 1.379 . S
C4268 N4275 1.356 . S
C4269 C4268 1.363 . S
C4269 C4272 1.363 . S
N4270 C4272 1.356 . S
N4270 H4282 0.984 . S
N4270 H4283 0.985 . S
N4271 C4273 1.356 . S
N4271 H4276 0.984 . S
N4271 H4277 0.985 . S
C4272 C4266 1.379 . S
C4272 C4269 1.363 . S
C4272 N4270 1.356 . S
C4273 C4267 1.363 . S
C4273 C4268 1.379 . S
C4273 N4271 1.356 . S
N4274 C4266 1.356 . S
N4274 H4280 0.984 . S
N4274 H4281 0.984 . S
N4275 C4268 1.356 . S
N4275 H4278 0.984 . S
N4275 H4279 0.985 . S
H4276 N4271 0.984 . S
H4277 N4271 0.985 . S
H4278 N4275 0.984 . S
H4279 N4275 0.985 . S
H4280 N4274 0.984 . S
H4281 N4274 0.984 . S
H4282 N4270 0.984 . S
H4283 N4270 0.985 . S
C4284 C4285 1.363 . S
C4284 C4290 1.379 . S
C4284 N4292 1.356 . S
C4285 C4284 1.363 . S
C4285 C4291 1.363 . S
C4286 C4287 1.363 . S
C4286 C4291 1.379 . S
C4286 N4293 1.356 . S
C4287 C4286 1.363 . S
C4287 C4290 1.363 . S
N4288 C4290 1.356 . S
N4288 H4300 0.984 . S
N4288 H4301 0.985 . S
N4289 C4291 1.356 . S
N4289 H4294 0.984 . S
N4289 H4295 0.985 . S
C4290 C4284 1.379 . S
C4290 C4287 1.363 . S
C4290 N4288 1.356 . S
C4291 C4285 1.363 . S
C4291 C4286 1.379 . S
C4291 N4289 1.356 . S
N4292 C4284 1.356 . S
N4292 H4298 0.984 . S
N4292 H4299 0.984 . S
N4293 C4286 1.356 . S
N4293 H4296 0.984 . S
N4293 H4297 0.985 . S
H4294 N4289 0.984 . S
H4295 N4289 0.985 . S
H4296 N4293 0.984 . S
H4297 N4293 0.985 . S
H4298 N4292 0.984 . S
H4299 N4292 0.984 . S
H4300 N4288 0.984 . S
H4301 N4288 0.985 . S
C4302 C4303 1.363 . S
C4302 C4308 1.379 1_556 S
C4302 N4310 1.356 . S
C4303 C4302 1.363 . S
C4303 C4309 1.363 . S
C4304 C4305 1.363 . S
C4304 C4309 1.379 1_554 S
C4304 N4311 1.356 . S
C4305 C4304 1.363 . S
C4305 C4308 1.363 . S
N4306 C4308 1.356 . S
N4306 H4318 0.984 . S
N4306 H4319 0.985 . S
N4307 C4309 1.356 . S
N4307 H4312 0.984 . S
N4307 H4313 0.985 . S
C4308 C4302 1.379 1_554 S
C4308 C4305 1.363 . S
C4308 N4306 1.356 . S
C4309 C4303 1.363 . S
C4309 C4304 1.379 1_556 S
C4309 N4307 1.356 . S
N4310 C4302 1.356 . S
N4310 H4316 0.984 . S
N4310 H4317 0.984 . S
N4311 C4304 1.356 . S
N4311 H4314 0.984 . S
N4311 H4315 0.985 . S
H4312 N4307 0.984 . S
H4313 N4307 0.985 . S
H4314 N4311 0.984 . S
H4315 N4311 0.985 . S
H4316 N4310 0.984 . S
H4317 N4310 0.984 . S
H4318 N4306 0.984 . S
H4319 N4306 0.985 . S
C4320 C4321 1.363 . S
C4320 C4326 1.379 . S
C4320 N4328 1.356 . S
C4321 C4320 1.363 . S
C4321 C4327 1.363 . S
C4322 C4323 1.363 . S
C4322 C4327 1.379 . S
C4322 N4329 1.356 . S
C4323 C4322 1.363 . S
C4323 C4326 1.363 . S
N4324 C4326 1.356 . S
N4324 H4336 0.984 . S
N4324 H4337 0.985 . S
N4325 C4327 1.356 . S
N4325 H4330 0.984 . S
N4325 H4331 0.985 . S
C4326 C4320 1.379 . S
C4326 C4323 1.363 . S
C4326 N4324 1.356 . S
C4327 C4321 1.363 . S
C4327 C4322 1.379 . S
C4327 N4325 1.356 . S
N4328 C4320 1.356 . S
N4328 H4334 0.984 . S
N4328 H4335 0.984 . S
N4329 C4322 1.356 . S
N4329 H4332 0.984 . S
N4329 H4333 0.985 . S
H4330 N4325 0.984 . S
H4331 N4325 0.985 . S
H4332 N4329 0.984 . S
H4333 N4329 0.985 . S
H4334 N4328 0.984 . S
H4335 N4328 0.984 . S
H4336 N4324 0.984 . S
H4337 N4324 0.985 . S
C4338 C4339 1.363 . S
C4338 C4344 1.379 . S
C4338 N4346 1.356 . S
C4339 C4338 1.363 . S
C4339 C4345 1.363 . S
C4340 C4341 1.363 . S
C4340 C4345 1.379 . S
C4340 N4347 1.356 . S
C4341 C4340 1.363 . S
C4341 C4344 1.363 . S
N4342 C4344 1.356 . S
N4342 H4354 0.984 . S
N4342 H4355 0.985 . S
N4343 C4345 1.356 . S
N4343 H4348 0.984 . S
N4343 H4349 0.985 . S
C4344 C4338 1.379 . S
C4344 C4341 1.363 . S
C4344 N4342 1.356 . S
C4345 C4339 1.363 . S
C4345 C4340 1.379 . S
C4345 N4343 1.356 . S
N4346 C4338 1.356 . S
N4346 H4352 0.984 . S
N4346 H4353 0.984 . S
N4347 C4340 1.356 . S
N4347 H4350 0.984 . S
N4347 H4351 0.985 . S
H4348 N4343 0.984 . S
H4349 N4343 0.985 . S
H4350 N4347 0.984 . S
H4351 N4347 0.985 . S
H4352 N4346 0.984 . S
H4353 N4346 0.984 . S
H4354 N4342 0.984 . S
H4355 N4342 0.985 . S
C4356 C4357 1.363 . S
C4356 C4362 1.379 . S
C4356 N4364 1.356 . S
C4357 C4356 1.363 . S
C4357 C4363 1.363 . S
C4358 C4359 1.363 . S
C4358 C4363 1.379 . S
C4358 N4365 1.356 . S
C4359 C4358 1.363 . S
C4359 C4362 1.363 . S
N4360 C4362 1.356 . S
N4360 H4372 0.984 . S
N4360 H4373 0.985 . S
N4361 C4363 1.356 . S
N4361 H4366 0.984 . S
N4361 H4367 0.985 . S
C4362 C4356 1.379 . S
C4362 C4359 1.363 . S
C4362 N4360 1.356 . S
C4363 C4357 1.363 . S
C4363 C4358 1.379 . S
C4363 N4361 1.356 . S
N4364 C4356 1.356 . S
N4364 H4370 0.984 . S
N4364 H4371 0.984 . S
N4365 C4358 1.356 . S
N4365 H4368 0.984 . S
N4365 H4369 0.985 . S
H4366 N4361 0.984 . S
H4367 N4361 0.985 . S
H4368 N4365 0.984 . S
H4369 N4365 0.985 . S
H4370 N4364 0.984 . S
H4371 N4364 0.984 . S
H4372 N4360 0.984 . S
H4373 N4360 0.985 . S
C4374 C4375 1.363 . S
C4374 C4380 1.379 . S
C4374 N4382 1.356 . S
C4375 C4374 1.363 . S
C4375 C4381 1.363 . S
C4376 C4377 1.363 . S
C4376 C4381 1.379 . S
C4376 N4383 1.356 . S
C4377 C4376 1.363 . S
C4377 C4380 1.363 . S
N4378 C4380 1.356 . S
N4378 H4390 0.984 . S
N4378 H4391 0.985 . S
N4379 C4381 1.356 . S
N4379 H4384 0.984 . S
N4379 H4385 0.985 . S
C4380 C4374 1.379 . S
C4380 C4377 1.363 . S
C4380 N4378 1.356 . S
C4381 C4375 1.363 . S
C4381 C4376 1.379 . S
C4381 N4379 1.356 . S
N4382 C4374 1.356 . S
N4382 H4388 0.984 . S
N4382 H4389 0.984 . S
N4383 C4376 1.356 . S
N4383 H4386 0.984 . S
N4383 H4387 0.985 . S
H4384 N4379 0.984 . S
H4385 N4379 0.985 . S
H4386 N4383 0.984 . S
H4387 N4383 0.985 . S
H4388 N4382 0.984 . S
H4389 N4382 0.984 . S
H4390 N4378 0.984 . S
H4391 N4378 0.985 . S
C4392 C4393 1.363 . S
C4392 C4398 1.379 1_565 S
C4392 N4400 1.356 . S
C4393 C4392 1.363 . S
C4393 C4399 1.363 . S
C4394 C4395 1.363 . S
C4394 C4399 1.379 1_545 S
C4394 N4401 1.356 . S
C4395 C4394 1.363 . S
C4395 C4398 1.363 . S
N4396 C4398 1.356 . S
N4396 H4408 0.984 . S
N4396 H4409 0.985 . S
N4397 C4399 1.356 . S
N4397 H4402 0.984 . S
N4397 H4403 0.985 . S
C4398 C4392 1.379 1_545 S
C4398 C4395 1.363 . S
C4398 N4396 1.356 . S
C4399 C4393 1.363 . S
C4399 C4394 1.379 1_565 S
C4399 N4397 1.356 . S
N4400 C4392 1.356 . S
N4400 H4406 0.984 . S
N4400 H4407 0.984 . S
N4401 C4394 1.356 . S
N4401 H4404 0.984 . S
N4401 H4405 0.985 . S
H4402 N4397 0.984 . S
H4403 N4397 0.985 . S
H4404 N4401 0.984 . S
H4405 N4401 0.985 . S
H4406 N4400 0.984 . S
H4407 N4400 0.984 . S
H4408 N4396 0.984 . S
H4409 N4396 0.985 . S
C4410 C4411 1.363 . S
C4410 C4416 1.379 . S
C4410 N4418 1.356 . S
C4411 C4410 1.363 . S
C4411 C4417 1.363 . S
C4412 C4413 1.363 . S
C4412 C4417 1.379 . S
C4412 N4419 1.356 . S
C4413 C4412 1.363 . S
C4413 C4416 1.363 . S
N4414 C4416 1.356 . S
N4414 H4426 0.984 . S
N4414 H4427 0.985 . S
N4415 C4417 1.356 . S
N4415 H4420 0.984 . S
N4415 H4421 0.985 . S
C4416 C4410 1.379 . S
C4416 C4413 1.363 . S
C4416 N4414 1.356 . S
C4417 C4411 1.363 . S
C4417 C4412 1.379 . S
C4417 N4415 1.356 . S
N4418 C4410 1.356 . S
N4418 H4424 0.984 . S
N4418 H4425 0.984 . S
N4419 C4412 1.356 . S
N4419 H4422 0.984 . S
N4419 H4423 0.985 . S
H4420 N4415 0.984 . S
H4421 N4415 0.985 . S
H4422 N4419 0.984 . S
H4423 N4419 0.985 . S
H4424 N4418 0.984 . S
H4425 N4418 0.984 . S
H4426 N4414 0.984 . S
H4427 N4414 0.985 . S
C4428 C4429 1.363 . S
C4428 C4434 1.379 . S
C4428 N4436 1.356 . S
C4429 C4428 1.363 . S
C4429 C4435 1.363 . S
C4430 C4431 1.363 . S
C4430 C4435 1.379 . S
C4430 N4437 1.356 . S
C4431 C4430 1.363 . S
C4431 C4434 1.363 . S
N4432 C4434 1.356 . S
N4432 H4444 0.984 . S
N4432 H4445 0.985 . S
N4433 C4435 1.356 . S
N4433 H4438 0.984 . S
N4433 H4439 0.985 . S
C4434 C4428 1.379 . S
C4434 C4431 1.363 . S
C4434 N4432 1.356 . S
C4435 C4429 1.363 . S
C4435 C4430 1.379 . S
C4435 N4433 1.356 . S
N4436 C4428 1.356 . S
N4436 H4442 0.984 . S
N4436 H4443 0.984 . S
N4437 C4430 1.356 . S
N4437 H4440 0.984 . S
N4437 H4441 0.985 . S
H4438 N4433 0.984 . S
H4439 N4433 0.985 . S
H4440 N4437 0.984 . S
H4441 N4437 0.985 . S
H4442 N4436 0.984 . S
H4443 N4436 0.984 . S
H4444 N4432 0.984 . S
H4445 N4432 0.985 . S
C4446 C4447 1.363 . S
C4446 C4452 1.379 1_455 S
C4446 N4454 1.356 . S
C4447 C4446 1.363 . S
C4447 C4453 1.363 1_455 S
C4448 C4449 1.363 . S
C4448 C4453 1.379 . S
C4448 N4455 1.356 . S
C4449 C4448 1.363 . S
C4449 C4452 1.363 . S
N4450 C4452 1.356 . S
N4450 H4462 0.984 . S
N4450 H4463 0.985 . S
N4451 C4453 1.356 1_455 S
N4451 H4456 0.984 . S
N4451 H4457 0.985 1_455 S
C4452 C4446 1.379 1_655 S
C4452 C4449 1.363 . S
C4452 N4450 1.356 . S
C4453 C4447 1.363 1_655 S
C4453 C4448 1.379 . S
C4453 N4451 1.356 1_655 S
N4454 C4446 1.356 . S
N4454 H4460 0.984 . S
N4454 H4461 0.984 . S
N4455 C4448 1.356 . S
N4455 H4458 0.984 . S
N4455 H4459 0.985 . S
H4456 N4451 0.984 . S
H4457 N4451 0.985 1_655 S
H4458 N4455 0.984 . S
H4459 N4455 0.985 . S
H4460 N4454 0.984 . S
H4461 N4454 0.984 . S
H4462 N4450 0.984 . S
H4463 N4450 0.985 . S
C4464 C4465 1.363 . S
C4464 C4470 1.379 . S
C4464 N4472 1.356 . S
C4465 C4464 1.363 . S
C4465 C4471 1.363 . S
C4466 C4467 1.363 . S
C4466 C4471 1.379 . S
C4466 N4473 1.356 . S
C4467 C4466 1.363 . S
C4467 C4470 1.363 . S
N4468 C4470 1.356 . S
N4468 H4480 0.984 . S
N4468 H4481 0.985 . S
N4469 C4471 1.356 . S
N4469 H4474 0.984 . S
N4469 H4475 0.985 . S
C4470 C4464 1.379 . S
C4470 C4467 1.363 . S
C4470 N4468 1.356 . S
C4471 C4465 1.363 . S
C4471 C4466 1.379 . S
C4471 N4469 1.356 . S
N4472 C4464 1.356 . S
N4472 H4478 0.984 . S
N4472 H4479 0.984 . S
N4473 C4466 1.356 . S
N4473 H4476 0.984 . S
N4473 H4477 0.985 . S
H4474 N4469 0.984 . S
H4475 N4469 0.985 . S
H4476 N4473 0.984 . S
H4477 N4473 0.985 . S
H4478 N4472 0.984 . S
H4479 N4472 0.984 . S
H4480 N4468 0.984 . S
H4481 N4468 0.985 . S
C4482 C4483 1.363 . S
C4482 C4488 1.379 . S
C4482 N4490 1.356 . S
C4483 C4482 1.363 . S
C4483 C4489 1.363 . S
C4484 C4485 1.363 . S
C4484 C4489 1.379 . S
C4484 N4491 1.356 . S
C4485 C4484 1.363 . S
C4485 C4488 1.363 . S
N4486 C4488 1.356 . S
N4486 H4498 0.984 . S
N4486 H4499 0.985 . S
N4487 C4489 1.356 . S
N4487 H4492 0.984 . S
N4487 H4493 0.985 . S
C4488 C4482 1.379 . S
C4488 C4485 1.363 . S
C4488 N4486 1.356 . S
C4489 C4483 1.363 . S
C4489 C4484 1.379 . S
C4489 N4487 1.356 . S
N4490 C4482 1.356 . S
N4490 H4496 0.984 . S
N4490 H4497 0.984 . S
N4491 C4484 1.356 . S
N4491 H4494 0.984 . S
N4491 H4495 0.985 . S
H4492 N4487 0.984 . S
H4493 N4487 0.985 . S
H4494 N4491 0.984 . S
H4495 N4491 0.985 . S
H4496 N4490 0.984 . S
H4497 N4490 0.984 . S
H4498 N4486 0.984 . S
H4499 N4486 0.985 . S
C4500 C4501 1.363 . S
C4500 C4506 1.379 . S
C4500 N4508 1.356 . S
C4501 C4500 1.363 . S
C4501 C4507 1.363 . S
C4502 C4503 1.363 . S
C4502 C4507 1.379 . S
C4502 N4509 1.356 . S
C4503 C4502 1.363 . S
C4503 C4506 1.363 . S
N4504 C4506 1.356 . S
N4504 H4516 0.984 . S
N4504 H4517 0.985 . S
N4505 C4507 1.356 . S
N4505 H4510 0.984 . S
N4505 H4511 0.985 . S
C4506 C4500 1.379 . S
C4506 C4503 1.363 . S
C4506 N4504 1.356 . S
C4507 C4501 1.363 . S
C4507 C4502 1.379 . S
C4507 N4505 1.356 . S
N4508 C4500 1.356 . S
N4508 H4514 0.984 . S
N4508 H4515 0.984 . S
N4509 C4502 1.356 . S
N4509 H4512 0.984 . S
N4509 H4513 0.985 . S
H4510 N4505 0.984 . S
H4511 N4505 0.985 . S
H4512 N4509 0.984 . S
H4513 N4509 0.985 . S
H4514 N4508 0.984 . S
H4515 N4508 0.984 . S
H4516 N4504 0.984 . S
H4517 N4504 0.985 . S
C4518 C4519 1.363 . S
C4518 C4524 1.379 . S
C4518 N4526 1.356 . S
C4519 C4518 1.363 . S
C4519 C4525 1.363 . S
C4520 C4521 1.363 . S
C4520 C4525 1.379 . S
C4520 N4527 1.356 . S
C4521 C4520 1.363 . S
C4521 C4524 1.363 . S
N4522 C4524 1.356 . S
N4522 H4534 0.984 . S
N4522 H4535 0.985 . S
N4523 C4525 1.356 . S
N4523 H4528 0.984 . S
N4523 H4529 0.985 . S
C4524 C4518 1.379 . S
C4524 C4521 1.363 . S
C4524 N4522 1.356 . S
C4525 C4519 1.363 . S
C4525 C4520 1.379 . S
C4525 N4523 1.356 . S
N4526 C4518 1.356 . S
N4526 H4532 0.984 . S
N4526 H4533 0.984 . S
N4527 C4520 1.356 . S
N4527 H4530 0.984 . S
N4527 H4531 0.985 . S
H4528 N4523 0.984 . S
H4529 N4523 0.985 . S
H4530 N4527 0.984 . S
H4531 N4527 0.985 . S
H4532 N4526 0.984 . S
H4533 N4526 0.984 . S
H4534 N4522 0.984 . S
H4535 N4522 0.985 . S
C4536 C4537 1.363 . S
C4536 C4542 1.379 . S
C4536 N4544 1.356 . S
C4537 C4536 1.363 . S
C4537 C4543 1.363 . S
C4538 C4539 1.363 . S
C4538 C4543 1.379 . S
C4538 N4545 1.356 . S
C4539 C4538 1.363 . S
C4539 C4542 1.363 . S
N4540 C4542 1.356 . S
N4540 H4552 0.984 . S
N4540 H4553 0.985 . S
N4541 C4543 1.356 . S
N4541 H4546 0.984 . S
N4541 H4547 0.985 . S
C4542 C4536 1.379 . S
C4542 C4539 1.363 . S
C4542 N4540 1.356 . S
C4543 C4537 1.363 . S
C4543 C4538 1.379 . S
C4543 N4541 1.356 . S
N4544 C4536 1.356 . S
N4544 H4550 0.984 . S
N4544 H4551 0.984 . S
N4545 C4538 1.356 . S
N4545 H4548 0.984 . S
N4545 H4549 0.985 . S
H4546 N4541 0.984 . S
H4547 N4541 0.985 . S
H4548 N4545 0.984 . S
H4549 N4545 0.985 . S
H4550 N4544 0.984 . S
H4551 N4544 0.984 . S
H4552 N4540 0.984 . S
H4553 N4540 0.985 . S
C4554 C4555 1.363 . S
C4554 C4560 1.379 . S
C4554 N4562 1.356 . S
C4555 C4554 1.363 . S
C4555 C4561 1.363 . S
C4556 C4557 1.363 . S
C4556 C4561 1.379 . S
C4556 N4563 1.356 . S
C4557 C4556 1.363 . S
C4557 C4560 1.363 . S
N4558 C4560 1.356 . S
N4558 H4570 0.984 . S
N4558 H4571 0.985 . S
N4559 C4561 1.356 . S
N4559 H4564 0.984 . S
N4559 H4565 0.985 . S
C4560 C4554 1.379 . S
C4560 C4557 1.363 . S
C4560 N4558 1.356 . S
C4561 C4555 1.363 . S
C4561 C4556 1.379 . S
C4561 N4559 1.356 . S
N4562 C4554 1.356 . S
N4562 H4568 0.984 . S
N4562 H4569 0.984 . S
N4563 C4556 1.356 . S
N4563 H4566 0.984 . S
N4563 H4567 0.985 . S
H4564 N4559 0.984 . S
H4565 N4559 0.985 . S
H4566 N4563 0.984 . S
H4567 N4563 0.985 . S
H4568 N4562 0.984 . S
H4569 N4562 0.984 . S
H4570 N4558 0.984 . S
H4571 N4558 0.985 . S
C4572 C4573 1.363 . S
C4572 C4578 1.379 . S
C4572 N4580 1.356 . S
C4573 C4572 1.363 . S
C4573 C4579 1.363 . S
C4574 C4575 1.363 . S
C4574 C4579 1.379 . S
C4574 N4581 1.356 . S
C4575 C4574 1.363 . S
C4575 C4578 1.363 . S
N4576 C4578 1.323 1_556 S
N4576 H4588 0.980 1_556 S
N4576 H4589 1.024 . S
N4577 C4579 1.356 . S
N4577 H4582 0.984 . S
N4577 H4583 0.985 . S
C4578 C4572 1.379 . S
C4578 C4575 1.363 . S
C4578 N4576 1.323 1_554 S
C4579 C4573 1.363 . S
C4579 C4574 1.379 . S
C4579 N4577 1.356 . S
N4580 C4572 1.356 . S
N4580 H4586 0.984 . S
N4580 H4587 0.984 . S
N4581 C4574 1.356 . S
N4581 H4584 0.984 1_554 S
N4581 H4585 0.985 . S
H4582 N4577 0.984 . S
H4583 N4577 0.985 . S
H4584 N4581 0.984 1_556 S
H4585 N4581 0.985 . S
H4586 N4580 0.984 . S
H4587 N4580 0.984 . S
H4588 N4576 0.980 1_554 S
H4589 N4576 1.024 . S
C4590 C4591 1.363 . S
C4590 C4596 1.379 . S
C4590 N4598 1.356 . S
C4591 C4590 1.363 . S
C4591 C4597 1.363 . S
C4592 C4593 1.363 . S
C4592 C4597 1.379 . S
C4592 N4599 1.356 . S
C4593 C4592 1.363 . S
C4593 C4596 1.363 . S
N4594 C4596 1.356 . S
N4594 H4606 0.984 . S
N4594 H4607 0.985 . S
N4595 C4597 1.356 . S
N4595 H4600 0.984 . S
N4595 H4601 0.985 . S
C4596 C4590 1.379 . S
C4596 C4593 1.363 . S
C4596 N4594 1.356 . S
C4597 C4591 1.363 . S
C4597 C4592 1.379 . S
C4597 N4595 1.356 . S
N4598 C4590 1.356 . S
N4598 H4604 0.984 . S
N4598 H4605 0.984 . S
N4599 C4592 1.356 . S
N4599 H4602 0.984 . S
N4599 H4603 0.985 . S
H4600 N4595 0.984 . S
H4601 N4595 0.985 . S
H4602 N4599 0.984 . S
H4603 N4599 0.985 . S
H4604 N4598 0.984 . S
H4605 N4598 0.984 . S
H4606 N4594 0.984 . S
H4607 N4594 0.985 . S
C4608 C4609 1.363 . S
C4608 C4614 1.379 . S
C4608 N4616 1.356 . S
C4609 C4608 1.363 . S
C4609 C4615 1.363 . S
C4610 C4611 1.363 . S
C4610 C4615 1.379 . S
C4610 N4617 1.356 . S
C4611 C4610 1.363 . S
C4611 C4614 1.363 . S
N4612 C4614 1.356 . S
N4612 H4624 0.984 . S
N4612 H4625 0.985 . S
N4613 C4615 1.356 . S
N4613 H4618 0.984 . S
N4613 H4619 0.985 . S
C4614 C4608 1.379 . S
C4614 C4611 1.363 . S
C4614 N4612 1.356 . S
C4615 C4609 1.363 . S
C4615 C4610 1.379 . S
C4615 N4613 1.356 . S
N4616 C4608 1.356 . S
N4616 H4622 0.984 . S
N4616 H4623 0.984 . S
N4617 C4610 1.356 . S
N4617 H4620 0.984 . S
N4617 H4621 0.985 . S
H4618 N4613 0.984 . S
H4619 N4613 0.985 . S
H4620 N4617 0.984 . S
H4621 N4617 0.985 . S
H4622 N4616 0.984 . S
H4623 N4616 0.984 . S
H4624 N4612 0.984 . S
H4625 N4612 0.985 . S
C4626 C4627 1.363 . S
C4626 C4632 1.379 . S
C4626 N4634 1.356 . S
C4627 C4626 1.363 . S
C4627 C4633 1.363 . S
C4628 C4629 1.363 . S
C4628 C4633 1.379 . S
C4628 N4635 1.356 . S
C4629 C4628 1.363 . S
C4629 C4632 1.363 . S
N4630 C4632 1.356 1_556 S
N4630 H4642 0.984 1_556 S
N4630 H4643 0.985 . S
N4631 C4633 1.356 . S
N4631 H4636 0.984 . S
N4631 H4637 0.985 . S
C4632 C4626 1.379 . S
C4632 C4629 1.363 . S
C4632 N4630 1.356 1_554 S
C4633 C4627 1.363 . S
C4633 C4628 1.379 . S
C4633 N4631 1.356 . S
N4634 C4626 1.356 . S
N4634 H4640 0.984 . S
N4634 H4641 0.984 . S
N4635 C4628 1.356 . S
N4635 H4638 0.984 1_554 S
N4635 H4639 0.985 . S
H4636 N4631 0.984 . S
H4637 N4631 0.985 . S
H4638 N4635 0.984 1_556 S
H4639 N4635 0.985 . S
H4640 N4634 0.984 . S
H4641 N4634 0.984 . S
H4642 N4630 0.984 1_554 S
H4643 N4630 0.985 . S
C4644 C4645 1.363 . S
C4644 C4650 1.379 . S
C4644 N4652 1.356 . S
C4645 C4644 1.363 . S
C4645 C4651 1.363 . S
C4646 C4647 1.363 . S
C4646 C4651 1.379 . S
C4646 N4653 1.356 . S
C4647 C4646 1.363 . S
C4647 C4650 1.363 . S
N4648 C4650 1.356 . S
N4648 H4660 0.984 . S
N4648 H4661 0.985 . S
N4649 C4651 1.356 . S
N4649 H4654 0.984 . S
N4649 H4655 0.985 . S
C4650 C4644 1.379 . S
C4650 C4647 1.363 . S
C4650 N4648 1.356 . S
C4651 C4645 1.363 . S
C4651 C4646 1.379 . S
C4651 N4649 1.356 . S
N4652 C4644 1.356 . S
N4652 H4658 0.984 . S
N4652 H4659 0.984 . S
N4653 C4646 1.356 . S
N4653 H4656 0.984 . S
N4653 H4657 0.985 . S
H4654 N4649 0.984 . S
H4655 N4649 0.985 . S
H4656 N4653 0.984 . S
H4657 N4653 0.985 . S
H4658 N4652 0.984 . S
H4659 N4652 0.984 . S
H4660 N4648 0.984 . S
H4661 N4648 0.985 . S
C4662 C4663 1.363 . S
C4662 C4668 1.379 . S
C4662 N4670 1.356 . S
C4663 C4662 1.363 . S
C4663 C4669 1.363 . S
C4664 C4665 1.363 . S
C4664 C4669 1.379 . S
C4664 N4671 1.356 . S
C4665 C4664 1.363 . S
C4665 C4668 1.363 . S
N4666 C4668 1.356 . S
N4666 H4678 0.984 . S
N4666 H4679 0.985 . S
N4667 C4669 1.356 . S
N4667 H4672 0.984 . S
N4667 H4673 0.985 . S
C4668 C4662 1.379 . S
C4668 C4665 1.363 . S
C4668 N4666 1.356 . S
C4669 C4663 1.363 . S
C4669 C4664 1.379 . S
C4669 N4667 1.356 . S
N4670 C4662 1.356 . S
N4670 H4676 0.984 . S
N4670 H4677 0.984 . S
N4671 C4664 1.356 . S
N4671 H4674 0.984 . S
N4671 H4675 0.985 . S
H4672 N4667 0.984 . S
H4673 N4667 0.985 . S
H4674 N4671 0.984 . S
H4675 N4671 0.985 . S
H4676 N4670 0.984 . S
H4677 N4670 0.984 . S
H4678 N4666 0.984 . S
H4679 N4666 0.985 . S
C4680 C4681 1.363 . S
C4680 C4686 1.379 . S
C4680 N4688 1.356 . S
C4681 C4680 1.363 . S
C4681 C4687 1.363 . S
C4682 C4683 1.363 . S
C4682 C4687 1.379 . S
C4682 N4689 1.356 . S
C4683 C4682 1.363 . S
C4683 C4686 1.363 . S
N4684 C4686 1.356 . S
N4684 H4696 0.984 . S
N4684 H4697 0.985 . S
N4685 C4687 1.356 . S
N4685 H4690 0.984 . S
N4685 H4691 0.985 . S
C4686 C4680 1.379 . S
C4686 C4683 1.363 . S
C4686 N4684 1.356 . S
C4687 C4681 1.363 . S
C4687 C4682 1.379 . S
C4687 N4685 1.356 . S
N4688 C4680 1.356 . S
N4688 H4694 0.984 . S
N4688 H4695 0.984 . S
N4689 C4682 1.356 . S
N4689 H4692 0.984 . S
N4689 H4693 0.985 . S
H4690 N4685 0.984 . S
H4691 N4685 0.985 . S
H4692 N4689 0.984 . S
H4693 N4689 0.985 . S
H4694 N4688 0.984 . S
H4695 N4688 0.984 . S
H4696 N4684 0.984 . S
H4697 N4684 0.985 . S
C4698 C4699 1.363 . S
C4698 C4704 1.379 . S
C4698 N4706 1.356 . S
C4699 C4698 1.363 . S
C4699 C4705 1.363 . S
C4700 C4701 1.363 . S
C4700 C4705 1.379 . S
C4700 N4707 1.356 . S
C4701 C4700 1.363 . S
C4701 C4704 1.363 . S
N4702 C4704 1.356 . S
N4702 H4714 0.984 . S
N4702 H4715 0.985 . S
N4703 C4705 1.356 . S
N4703 H4708 0.984 . S
N4703 H4709 0.985 . S
C4704 C4698 1.379 . S
C4704 C4701 1.363 . S
C4704 N4702 1.356 . S
C4705 C4699 1.363 . S
C4705 C4700 1.379 . S
C4705 N4703 1.356 . S
N4706 C4698 1.356 . S
N4706 H4712 0.984 . S
N4706 H4713 0.984 . S
N4707 C4700 1.356 . S
N4707 H4710 0.984 . S
N4707 H4711 0.985 . S
H4708 N4703 0.984 . S
H4709 N4703 0.985 . S
H4710 N4707 0.984 . S
H4711 N4707 0.985 . S
H4712 N4706 0.984 . S
H4713 N4706 0.984 . S
H4714 N4702 0.984 . S
H4715 N4702 0.985 . S
C4716 C4717 1.363 . S
C4716 C4722 1.379 . S
C4716 N4724 1.356 . S
C4717 C4716 1.363 . S
C4717 C4723 1.363 . S
C4718 C4719 1.363 . S
C4718 C4723 1.379 . S
C4718 N4725 1.356 1_565 S
C4719 C4718 1.363 . S
C4719 C4722 1.363 . S
N4720 C4722 1.356 . S
N4720 H4732 0.984 . S
N4720 H4733 0.985 1_565 S
N4721 C4723 1.356 . S
N4721 H4726 0.984 . S
N4721 H4727 0.985 . S
C4722 C4716 1.379 . S
C4722 C4719 1.363 . S
C4722 N4720 1.356 . S
C4723 C4717 1.363 . S
C4723 C4718 1.379 . S
C4723 N4721 1.356 . S
N4724 C4716 1.356 . S
N4724 H4730 0.984 . S
N4724 H4731 0.984 . S
N4725 C4718 1.356 1_545 S
N4725 H4728 0.984 . S
N4725 H4729 0.985 . S
H4726 N4721 0.984 . S
H4727 N4721 0.985 . S
H4728 N4725 0.984 . S
H4729 N4725 0.985 . S
H4730 N4724 0.984 . S
H4731 N4724 0.984 . S
H4732 N4720 0.984 . S
H4733 N4720 0.985 1_545 S
C4734 C4735 1.363 . S
C4734 C4740 1.379 . S
C4734 N4742 1.356 . S
C4735 C4734 1.363 . S
C4735 C4741 1.363 . S
C4736 C4737 1.363 . S
C4736 C4741 1.379 . S
C4736 N4743 1.356 . S
C4737 C4736 1.363 . S
C4737 C4740 1.363 . S
N4738 C4740 1.356 . S
N4738 H4750 0.984 . S
N4738 H4751 0.985 . S
N4739 C4741 1.356 . S
N4739 H4744 0.984 . S
N4739 H4745 0.985 . S
C4740 C4734 1.379 . S
C4740 C4737 1.363 . S
C4740 N4738 1.356 . S
C4741 C4735 1.363 . S
C4741 C4736 1.379 . S
C4741 N4739 1.356 . S
N4742 C4734 1.356 . S
N4742 H4748 0.984 . S
N4742 H4749 0.984 . S
N4743 C4736 1.356 . S
N4743 H4746 0.984 . S
N4743 H4747 0.985 . S
H4744 N4739 0.984 . S
H4745 N4739 0.985 . S
H4746 N4743 0.984 . S
H4747 N4743 0.985 . S
H4748 N4742 0.984 . S
H4749 N4742 0.984 . S
H4750 N4738 0.984 . S
H4751 N4738 0.985 . S
C4752 C4753 1.363 . S
C4752 C4758 1.379 . S
C4752 N4760 1.356 . S
C4753 C4752 1.363 . S
C4753 C4759 1.363 . S
C4754 C4755 1.363 . S
C4754 C4759 1.379 . S
C4754 N4761 1.356 . S
C4755 C4754 1.363 . S
C4755 C4758 1.363 . S
N4756 C4758 1.356 . S
N4756 H4768 0.984 . S
N4756 H4769 0.985 . S
N4757 C4759 1.356 . S
N4757 H4762 0.984 . S
N4757 H4763 0.985 . S
C4758 C4752 1.379 . S
C4758 C4755 1.363 . S
C4758 N4756 1.356 . S
C4759 C4753 1.363 . S
C4759 C4754 1.379 . S
C4759 N4757 1.356 . S
N4760 C4752 1.356 . S
N4760 H4766 0.984 . S
N4760 H4767 0.984 . S
N4761 C4754 1.356 . S
N4761 H4764 0.984 . S
N4761 H4765 0.985 . S
H4762 N4757 0.984 . S
H4763 N4757 0.985 . S
H4764 N4761 0.984 . S
H4765 N4761 0.985 . S
H4766 N4760 0.984 . S
H4767 N4760 0.984 . S
H4768 N4756 0.984 . S
H4769 N4756 0.985 . S
C4770 C4771 1.363 . S
C4770 C4776 1.379 . S
C4770 N4778 1.356 . S
C4771 C4770 1.363 . S
C4771 C4777 1.363 . S
C4772 C4773 1.363 . S
C4772 C4777 1.379 . S
C4772 N4779 1.356 . S
C4773 C4772 1.363 . S
C4773 C4776 1.363 . S
N4774 C4776 1.356 . S
N4774 H4786 0.984 . S
N4774 H4787 0.985 . S
N4775 C4777 1.356 . S
N4775 H4780 0.984 . S
N4775 H4781 0.985 . S
C4776 C4770 1.379 . S
C4776 C4773 1.363 . S
C4776 N4774 1.356 . S
C4777 C4771 1.363 . S
C4777 C4772 1.379 . S
C4777 N4775 1.356 . S
N4778 C4770 1.356 . S
N4778 H4784 0.984 . S
N4778 H4785 0.984 . S
N4779 C4772 1.356 . S
N4779 H4782 0.984 . S
N4779 H4783 0.985 . S
H4780 N4775 0.984 . S
H4781 N4775 0.985 . S
H4782 N4779 0.984 . S
H4783 N4779 0.985 . S
H4784 N4778 0.984 . S
H4785 N4778 0.984 . S
H4786 N4774 0.984 . S
H4787 N4774 0.985 . S
C4788 C4789 1.363 . S
C4788 C4794 1.379 . S
C4788 N4796 1.356 1_565 S
C4789 C4788 1.363 . S
C4789 C4795 1.363 . S
C4790 C4791 1.363 . S
C4790 C4795 1.379 . S
C4790 N4797 1.356 . S
C4791 C4790 1.363 . S
C4791 C4794 1.363 . S
N4792 C4794 1.356 . S
N4792 H4804 0.984 . S
N4792 H4805 0.985 . S
N4793 C4795 1.356 . S
N4793 H4798 0.984 . S
N4793 H4799 0.985 . S
C4794 C4788 1.379 . S
C4794 C4791 1.363 . S
C4794 N4792 1.356 . S
C4795 C4789 1.363 . S
C4795 C4790 1.379 . S
C4795 N4793 1.356 . S
N4796 C4788 1.356 1_545 S
N4796 H4802 0.984 . S
N4796 H4803 0.984 . S
N4797 C4790 1.356 . S
N4797 H4800 0.984 . S
N4797 H4801 0.985 . S
H4798 N4793 0.984 . S
H4799 N4793 0.985 . S
H4800 N4797 0.984 . S
H4801 N4797 0.985 . S
H4802 N4796 0.984 . S
H4803 N4796 0.984 . S
H4804 N4792 0.984 . S
H4805 N4792 0.985 . S
C4806 C4807 1.363 . S
C4806 C4812 1.379 . S
C4806 N4814 1.356 . S
C4807 C4806 1.363 . S
C4807 C4813 1.363 . S
C4808 C4809 1.363 . S
C4808 C4813 1.379 . S
C4808 N4815 1.356 . S
C4809 C4808 1.363 . S
C4809 C4812 1.363 . S
N4810 C4812 1.356 . S
N4810 H4822 0.984 . S
N4810 H4823 0.985 . S
N4811 C4813 1.356 . S
N4811 H4816 0.984 . S
N4811 H4817 0.985 . S
C4812 C4806 1.379 . S
C4812 C4809 1.363 . S
C4812 N4810 1.356 . S
C4813 C4807 1.363 . S
C4813 C4808 1.379 . S
C4813 N4811 1.356 . S
N4814 C4806 1.356 . S
N4814 H4820 0.984 . S
N4814 H4821 0.984 . S
N4815 C4808 1.356 . S
N4815 H4818 0.984 . S
N4815 H4819 0.985 . S
H4816 N4811 0.984 . S
H4817 N4811 0.985 . S
H4818 N4815 0.984 . S
H4819 N4815 0.985 . S
H4820 N4814 0.984 . S
H4821 N4814 0.984 . S
H4822 N4810 0.984 . S
H4823 N4810 0.985 . S
C4824 C4825 1.363 . S
C4824 C4830 1.379 . S
C4824 N4832 1.356 . S
C4825 C4824 1.363 . S
C4825 C4831 1.363 . S
C4826 C4827 1.363 . S
C4826 C4831 1.379 . S
C4826 N4833 1.356 . S
C4827 C4826 1.363 . S
C4827 C4830 1.363 . S
N4828 C4830 1.356 . S
N4828 H4840 0.984 . S
N4828 H4841 0.985 . S
N4829 C4831 1.356 . S
N4829 H4834 0.984 . S
N4829 H4835 0.985 . S
C4830 C4824 1.379 . S
C4830 C4827 1.363 . S
C4830 N4828 1.356 . S
C4831 C4825 1.363 . S
C4831 C4826 1.379 . S
C4831 N4829 1.356 . S
N4832 C4824 1.356 . S
N4832 H4838 0.984 . S
N4832 H4839 0.984 . S
N4833 C4826 1.356 . S
N4833 H4836 0.984 . S
N4833 H4837 0.985 . S
H4834 N4829 0.984 . S
H4835 N4829 0.985 . S
H4836 N4833 0.984 . S
H4837 N4833 0.985 . S
H4838 N4832 0.984 . S
H4839 N4832 0.984 . S
H4840 N4828 0.984 . S
H4841 N4828 0.985 . S
C4842 C4843 1.363 . S
C4842 C4848 1.379 . S
C4842 N4850 1.356 . S
C4843 C4842 1.363 . S
C4843 C4849 1.363 . S
C4844 C4845 1.363 . S
C4844 C4849 1.379 . S
C4844 N4851 1.356 . S
C4845 C4844 1.363 . S
C4845 C4848 1.363 . S
N4846 C4848 1.356 . S
N4846 H4858 0.984 . S
N4846 H4859 0.985 . S
N4847 C4849 1.356 . S
N4847 H4852 0.984 . S
N4847 H4853 0.985 . S
C4848 C4842 1.379 . S
C4848 C4845 1.363 . S
C4848 N4846 1.356 . S
C4849 C4843 1.363 . S
C4849 C4844 1.379 . S
C4849 N4847 1.356 . S
N4850 C4842 1.356 . S
N4850 H4856 0.984 . S
N4850 H4857 0.984 . S
N4851 C4844 1.356 . S
N4851 H4854 0.984 . S
N4851 H4855 0.985 . S
H4852 N4847 0.984 . S
H4853 N4847 0.985 . S
H4854 N4851 0.984 . S
H4855 N4851 0.985 . S
H4856 N4850 0.984 . S
H4857 N4850 0.984 . S
H4858 N4846 0.984 . S
H4859 N4846 0.985 . S
C4860 C4861 1.363 . S
C4860 C4866 1.379 . S
C4860 N4868 1.356 . S
C4861 C4860 1.363 . S
C4861 C4867 1.363 . S
C4862 C4863 1.363 . S
C4862 C4867 1.379 . S
C4862 N4869 1.356 . S
C4863 C4862 1.363 . S
C4863 C4866 1.363 . S
N4864 C4866 1.356 . S
N4864 H4876 0.984 . S
N4864 H4877 0.985 . S
N4865 C4867 1.356 . S
N4865 H4870 0.984 . S
N4865 H4871 0.985 . S
C4866 C4860 1.379 . S
C4866 C4863 1.363 . S
C4866 N4864 1.356 . S
C4867 C4861 1.363 . S
C4867 C4862 1.379 . S
C4867 N4865 1.356 . S
N4868 C4860 1.356 . S
N4868 H4874 0.984 . S
N4868 H4875 0.984 . S
N4869 C4862 1.356 . S
N4869 H4872 0.984 . S
N4869 H4873 0.985 . S
H4870 N4865 0.984 . S
H4871 N4865 0.985 . S
H4872 N4869 0.984 . S
H4873 N4869 0.985 . S
H4874 N4868 0.984 . S
H4875 N4868 0.984 . S
H4876 N4864 0.984 . S
H4877 N4864 0.985 . S
C4878 C4879 1.363 . S
C4878 C4884 1.379 . S
C4878 N4886 1.356 . S
C4879 C4878 1.363 . S
C4879 C4885 1.363 . S
C4880 C4881 1.363 . S
C4880 C4885 1.379 . S
C4880 N4887 1.356 . S
C4881 C4880 1.363 . S
C4881 C4884 1.363 . S
N4882 C4884 1.356 . S
N4882 H4894 0.984 . S
N4882 H4895 0.985 . S
N4883 C4885 1.356 . S
N4883 H4888 0.984 . S
N4883 H4889 0.985 . S
C4884 C4878 1.379 . S
C4884 C4881 1.363 . S
C4884 N4882 1.356 . S
C4885 C4879 1.363 . S
C4885 C4880 1.379 . S
C4885 N4883 1.356 . S
N4886 C4878 1.356 . S
N4886 H4892 0.984 . S
N4886 H4893 0.984 . S
N4887 C4880 1.356 . S
N4887 H4890 0.984 . S
N4887 H4891 0.985 . S
H4888 N4883 0.984 . S
H4889 N4883 0.985 . S
H4890 N4887 0.984 . S
H4891 N4887 0.985 . S
H4892 N4886 0.984 . S
H4893 N4886 0.984 . S
H4894 N4882 0.984 . S
H4895 N4882 0.985 . S
C4896 C4897 1.363 . S
C4896 C4902 1.379 1_565 S
C4896 N4904 1.356 . S
C4897 C4896 1.363 . S
C4897 C4903 1.363 1_565 S
C4898 C4899 1.363 . S
C4898 C4903 1.379 . S
C4898 N4905 1.356 . S
C4899 C4898 1.363 . S
C4899 C4902 1.363 . S
N4900 C4902 1.356 . S
N4900 H4912 0.984 . S
N4900 H4913 0.985 . S
N4901 C4903 1.356 1_565 S
N4901 H4906 0.984 . S
N4901 H4907 0.985 . S
C4902 C4896 1.379 1_545 S
C4902 C4899 1.363 . S
C4902 N4900 1.356 . S
C4903 C4897 1.363 1_545 S
C4903 C4898 1.379 . S
C4903 N4901 1.356 1_545 S
N4904 C4896 1.356 . S
N4904 H4910 0.984 . S
N4904 H4911 0.984 . S
N4905 C4898 1.356 . S
N4905 H4908 0.984 . S
N4905 H4909 0.985 . S
H4906 N4901 0.984 . S
H4907 N4901 0.985 . S
H4908 N4905 0.984 . S
H4909 N4905 0.985 . S
H4910 N4904 0.984 . S
H4911 N4904 0.984 . S
H4912 N4900 0.984 . S
H4913 N4900 0.985 . S
C4914 C4915 1.363 . S
C4914 C4920 1.379 . S
C4914 N4922 1.356 . S
C4915 C4914 1.363 . S
C4915 C4921 1.363 . S
C4916 C4917 1.363 . S
C4916 C4921 1.379 . S
C4916 N4923 1.356 . S
C4917 C4916 1.363 . S
C4917 C4920 1.363 . S
N4918 C4920 1.356 . S
N4918 H4930 0.984 . S
N4918 H4931 0.985 . S
N4919 C4921 1.356 . S
N4919 H4924 0.984 . S
N4919 H4925 0.985 . S
C4920 C4914 1.379 . S
C4920 C4917 1.363 . S
C4920 N4918 1.356 . S
C4921 C4915 1.363 . S
C4921 C4916 1.379 . S
C4921 N4919 1.356 . S
N4922 C4914 1.356 . S
N4922 H4928 0.984 . S
N4922 H4929 0.984 . S
N4923 C4916 1.356 . S
N4923 H4926 0.984 . S
N4923 H4927 0.985 . S
H4924 N4919 0.984 . S
H4925 N4919 0.985 . S
H4926 N4923 0.984 . S
H4927 N4923 0.985 . S
H4928 N4922 0.984 . S
H4929 N4922 0.984 . S
H4930 N4918 0.984 . S
H4931 N4918 0.985 . S
C4932 C4933 1.363 . S
C4932 C4938 1.379 . S
C4932 N4940 1.356 . S
C4933 C4932 1.363 . S
C4933 C4939 1.363 . S
C4934 C4935 1.363 . S
C4934 C4939 1.379 . S
C4934 N4941 1.356 . S
C4935 C4934 1.363 . S
C4935 C4938 1.363 . S
N4936 C4938 1.356 . S
N4936 H4948 0.984 . S
N4936 H4949 0.985 . S
N4937 C4939 1.356 . S
N4937 H4942 0.984 . S
N4937 H4943 0.985 . S
C4938 C4932 1.379 . S
C4938 C4935 1.363 . S
C4938 N4936 1.356 . S
C4939 C4933 1.363 . S
C4939 C4934 1.379 . S
C4939 N4937 1.356 . S
N4940 C4932 1.356 . S
N4940 H4946 0.984 . S
N4940 H4947 0.984 . S
N4941 C4934 1.356 . S
N4941 H4944 0.984 . S
N4941 H4945 0.985 . S
H4942 N4937 0.984 . S
H4943 N4937 0.985 . S
H4944 N4941 0.984 . S
H4945 N4941 0.985 . S
H4946 N4940 0.984 . S
H4947 N4940 0.984 . S
H4948 N4936 0.984 . S
H4949 N4936 0.985 . S
C4950 C4951 1.363 . S
C4950 C4956 1.379 . S
C4950 N4958 1.356 . S
C4951 C4950 1.363 . S
C4951 C4957 1.363 . S
C4952 C4953 1.363 . S
C4952 C4957 1.379 . S
C4952 N4959 1.356 . S
C4953 C4952 1.363 . S
C4953 C4956 1.363 . S
N4954 C4956 1.356 . S
N4954 H4966 0.984 . S
N4954 H4967 0.985 . S
N4955 C4957 1.356 . S
N4955 H4960 0.984 . S
N4955 H4961 0.985 . S
C4956 C4950 1.379 . S
C4956 C4953 1.363 . S
C4956 N4954 1.356 . S
C4957 C4951 1.363 . S
C4957 C4952 1.379 . S
C4957 N4955 1.356 . S
N4958 C4950 1.356 . S
N4958 H4964 0.984 . S
N4958 H4965 0.984 . S
N4959 C4952 1.356 . S
N4959 H4962 0.984 . S
N4959 H4963 0.985 . S
H4960 N4955 0.984 . S
H4961 N4955 0.985 . S
H4962 N4959 0.984 . S
H4963 N4959 0.985 . S
H4964 N4958 0.984 . S
H4965 N4958 0.984 . S
H4966 N4954 0.984 . S
H4967 N4954 0.985 . S
C4968 C4969 1.363 . S
C4968 C4974 1.379 . S
C4968 N4976 1.356 . S
C4969 C4968 1.363 . S
C4969 C4975 1.363 . S
C4970 C4971 1.363 . S
C4970 C4975 1.379 . S
C4970 N4977 1.356 . S
C4971 C4970 1.363 . S
C4971 C4974 1.363 . S
N4972 C4974 1.356 . S
N4972 H4984 0.984 . S
N4972 H4985 0.985 . S
N4973 C4975 1.356 . S
N4973 H4978 0.984 . S
N4973 H4979 0.985 . S
C4974 C4968 1.379 . S
C4974 C4971 1.363 . S
C4974 N4972 1.356 . S
C4975 C4969 1.363 . S
C4975 C4970 1.379 . S
C4975 N4973 1.356 . S
N4976 C4968 1.356 . S
N4976 H4982 0.984 . S
N4976 H4983 0.984 . S
N4977 C4970 1.356 . S
N4977 H4980 0.984 . S
N4977 H4981 0.985 . S
H4978 N4973 0.984 . S
H4979 N4973 0.985 . S
H4980 N4977 0.984 . S
H4981 N4977 0.985 . S
H4982 N4976 0.984 . S
H4983 N4976 0.984 . S
H4984 N4972 0.984 . S
H4985 N4972 0.985 . S
C4986 C4987 1.363 . S
C4986 C4992 1.379 . S
C4986 N4994 1.356 . S
C4987 C4986 1.363 . S
C4987 C4993 1.363 . S
C4988 C4989 1.363 . S
C4988 C4993 1.379 . S
C4988 N4995 1.356 . S
C4989 C4988 1.363 . S
C4989 C4992 1.363 . S
N4990 C4992 1.356 . S
N4990 H5002 0.984 . S
N4990 H5003 0.985 . S
N4991 C4993 1.356 . S
N4991 H4996 0.984 . S
N4991 H4997 0.985 . S
C4992 C4986 1.379 . S
C4992 C4989 1.363 . S
C4992 N4990 1.356 . S
C4993 C4987 1.363 . S
C4993 C4988 1.379 . S
C4993 N4991 1.356 . S
N4994 C4986 1.356 . S
N4994 H5000 0.984 . S
N4994 H5001 0.984 . S
N4995 C4988 1.356 . S
N4995 H4998 0.984 . S
N4995 H4999 0.985 . S
H4996 N4991 0.984 . S
H4997 N4991 0.985 . S
H4998 N4995 0.984 . S
H4999 N4995 0.985 . S
H5000 N4994 0.984 . S
H5001 N4994 0.984 . S
H5002 N4990 0.984 . S
H5003 N4990 0.985 . S
C5004 C5005 1.363 . S
C5004 C5010 1.379 . S
C5004 N5012 1.356 . S
C5005 C5004 1.363 . S
C5005 C5011 1.363 . S
C5006 C5007 1.363 . S
C5006 C5011 1.379 . S
C5006 N5013 1.356 . S
C5007 C5006 1.363 . S
C5007 C5010 1.363 . S
N5008 C5010 1.356 . S
N5008 H5020 0.984 . S
N5008 H5021 0.985 . S
N5009 C5011 1.356 . S
N5009 H5014 0.984 . S
N5009 H5015 0.985 . S
C5010 C5004 1.379 . S
C5010 C5007 1.363 . S
C5010 N5008 1.356 . S
C5011 C5005 1.363 . S
C5011 C5006 1.379 . S
C5011 N5009 1.356 . S
N5012 C5004 1.356 . S
N5012 H5018 0.984 . S
N5012 H5019 0.984 . S
N5013 C5006 1.356 . S
N5013 H5016 0.984 . S
N5013 H5017 0.985 . S
H5014 N5009 0.984 . S
H5015 N5009 0.985 . S
H5016 N5013 0.984 . S
H5017 N5013 0.985 . S
H5018 N5012 0.984 . S
H5019 N5012 0.984 . S
H5020 N5008 0.984 . S
H5021 N5008 0.985 . S
C5022 C5023 1.363 . S
C5022 C5028 1.379 . S
C5022 N5030 1.356 . S
C5023 C5022 1.363 . S
C5023 C5029 1.363 . S
C5024 C5025 1.363 . S
C5024 C5029 1.379 . S
C5024 N5031 1.356 . S
C5025 C5024 1.363 . S
C5025 C5028 1.363 . S
N5026 C5028 1.356 . S
N5026 H5038 0.984 . S
N5026 H5039 0.985 . S
N5027 C5029 1.356 . S
N5027 H5032 0.984 . S
N5027 H5033 0.985 . S
C5028 C5022 1.379 . S
C5028 C5025 1.363 . S
C5028 N5026 1.356 . S
C5029 C5023 1.363 . S
C5029 C5024 1.379 . S
C5029 N5027 1.356 . S
N5030 C5022 1.356 . S
N5030 H5036 0.984 . S
N5030 H5037 0.984 . S
N5031 C5024 1.356 . S
N5031 H5034 0.984 . S
N5031 H5035 0.985 . S
H5032 N5027 0.984 . S
H5033 N5027 0.985 . S
H5034 N5031 0.984 . S
H5035 N5031 0.985 . S
H5036 N5030 0.984 . S
H5037 N5030 0.984 . S
H5038 N5026 0.984 . S
H5039 N5026 0.985 . S
C1585 C521 1.687 . S
C1587 C25 1.748 . S
C1603 C617 1.928 . S
C1605 C58 1.896 1_455 S
C1621 C90 1.937 . S
C1623 C455 2.299 . S
C1639 C490 1.520 . S
C1641 C123 1.691 . S
C1657 C815 2.087 . S
C1659 C156 2.099 . S
C1675 C1143 1.436 1_554 S
C1677 C189 1.407 . S
C1693 C223 1.853 . S
C1695 C1475 1.999 . S
C1711 C1181 1.871 . S
C1713 C256 1.801 1_455 S
C1729 C286 2.796 . S
C1731 C92 2.877 . S
C1747 C322 1.861 . S
C1749 C125 2.068 . S
C1765 C355 2.024 . S
C1767 C23 2.106 . S
C1783 C390 2.783 . S
C1785 C56 2.640 . S
C1801 C221 2.830 . S
C1803 C291 2.896 . S
C1819 C254 2.046 . S
C1821 C321 1.910 . S
C1837 C354 2.119 . S
C1839 C158 2.644 . S
C1855 C191 2.935 . S
C1857 C385 2.820 . S
C1873 C421 1.445 . S
C1875 C978 1.441 . S
C1891 C292 1.580 . S
C1893 C453 1.635 . S
C1909 C320 3.004 . S
C1911 C484 3.112 . S
C1927 C353 2.369 . S
C1929 C519 2.066 . S
C1945 C1374 1.414 . S
C1947 C553 1.342 . S
C1963 C586 2.005 . S
C1965 C1082 2.108 . S
C1981 C886 2.063 . S
C1983 C489 2.264 . S
C1999 C950 2.581 . S
C2001 C618 2.140 . S
C2017 C880 2.820 . S
C2019 C257 2.935 . S
C2035 C984 2.896 . S
C2037 C650 2.830 . S
C2053 C849 1.910 . S
C2055 C683 2.046 . S
C2071 C716 2.106 . S
C2073 C1081 2.026 . S
C2089 C1512 2.783 . S
C2091 C749 2.640 . S
C2107 C1309 2.796 . S
C2109 C26 2.877 . S
C2125 C785 1.871 . S
C2127 C685 1.801 . S
C2143 C483 1.436 . S
C2145 C255 1.407 . S
C2161 C419 1.999 . S
C2163 C652 1.853 . S
C2179 C751 1.896 . S
C2181 C782 1.928 . S
C2197 C818 2.299 . S
C2199 C24 1.937 . S
C2215 C422 1.687 . S
C2217 C718 1.719 . S
C2233 C619 1.342 . S
C2235 C384 1.414 . S
C2251 C783 2.140 . S
C2253 C851 2.581 . S
C2269 C356 2.108 . S
C2271 C817 2.005 . S
C2287 C912 1.441 . S
C2289 C1411 1.445 . S
C2305 C947 3.004 . S
C2307 C1144 3.112 . S
C2323 C585 1.635 . S
C2325 C985 1.580 . S
C2341 C124 1.896 1_455 S
C2343 C1178 1.928 . S
C2359 C1115 2.299 . S
C2361 C1014 1.937 . S
C2377 C57 1.691 . S
C2379 C1150 1.520 . S
C2395 C651 2.099 . S
C2397 C584 2.087 . S
C2413 C1409 1.999 . S
C2415 C1048 1.853 . S
C2431 C620 1.871 . S
C2433 C190 1.801 1_455 S
C2449 C913 2.796 . S
C2451 C1016 2.877 . S
C2467 C949 1.861 . S
C2469 C59 2.068 . S
C2485 C885 2.783 . S
C2487 C122 2.640 . S
C2503 C1046 2.830 . S
C2505 C918 2.896 . S
C2521 C188 2.046 . S
C2523 C948 1.910 . S
C2539 C653 2.644 . S
C2541 C1080 2.119 . S
C2557 C1308 1.441 1_565 S
C2559 C520 1.445 . S
C2575 C919 1.580 . S
C2577 C1113 1.635 . S
C2593 C1079 2.369 . S
C2595 C420 2.066 . S
C2611 C1506 1.414 . S
C2613 C784 1.342 1_545 S
C2629 C1149 2.264 . S
C2631 C391 2.063 . S
C2647 C1179 2.140 . S
C2649 C323 2.581 . S
C2665 C1314 2.896 . S
C2667 C155 2.830 . S
C2683 C1278 1.910 . S
C2685 C1211 2.046 . S
C2701 C1380 2.783 . S
C2703 C1244 2.640 . S
C2719 C979 2.796 . S
C2721 C719 2.877 . S
C2737 C1213 1.801 . S
C2739 C554 1.871 . S
C2755 C157 1.853 . S
C2757 C518 1.999 . S
C2773 C551 1.928 . S
C2775 C1246 1.896 . S
C2791 C717 1.937 . S
C2793 C587 2.299 . S
C2809 C879 1.414 . S
C2811 C1180 1.342 1_545 S
C2827 C552 2.140 . S
C2829 C1280 2.581 . S
C2845 C1477 1.445 . S
C2847 C285 1.441 1_565 S
C2863 C816 1.635 . S
C2865 C1315 1.580 . S
C2881 C1478 1.687 . S
C2883 C91 1.748 . S
C2899 C1447 1.520 . S
C2901 C750 1.691 . S
C2917 C222 2.099 . S
C2919 C452 2.087 . S
C2935 C1572 1.436 . S
C2937 C1212 1.407 . S
C2953 C752 2.068 . S
C2955 C850 1.861 . S
C2971 C89 2.106 . S
C2973 C1345 2.026 . S
C2989 C224 2.644 . S
C2991 C1344 2.119 . S
C3007 C1214 2.935 . S
C3009 C1375 2.820 . S
C3025 C848 3.004 . S
C3027 C1441 3.112 . S
C3043 C1476 2.066 . S
C3045 C1343 2.369 . S
C3061 C1544 2.108 . S
C3063 C1114 2.005 . S
C3079 C1513 2.063 . S
C3081 C1446 2.264 . S
C3097 C686 2.935 . S
C3099 C1507 2.820 . S
C3115 C1013 2.106 . S
C3117 C1543 2.024 . S
C3133 C684 1.407 . S
C3135 C1440 1.436 1_554 S
C3151 C1015 1.719 . S
C3153 C1412 1.687 . S
C3169 C454 2.005 . S
C3171 C1346 2.108 . S
C3187 C1573 3.112 . S
C3189 C1277 3.004 . S
C3205 C1579 1.520 . S
C3207 C1245 1.691 . S
C3223 C1047 2.099 . S
C3225 C1112 2.087 . S
C3241 C1247 2.068 . S
C3243 C1279 1.861 . S
C3259 C1049 2.644 . S
C3261 C1542 2.119 . S
C3277 C1410 2.066 . S
C3279 C1541 2.369 . S
C3295 C1381 2.063 . S
C3297 C1578 2.264 . S
C3313 C1183 0.463 . S
C3315 C28 0.467 . S
C3331 C813 0.551 . S
C3333 C61 0.643 . S
C3349 C1145 0.760 . S
C3351 C87 0.765 . S
C3367 C1473 0.669 . S
C3369 C120 0.553 . S
C3385 C153 0.419 . S
C3387 C615 0.522 . S
C3403 C186 0.310 . S
C3405 C457 0.449 . S
C3421 C226 1.310 1_565 S
C3423 C488 1.329 . S
C3439 C259 0.385 . S
C3441 C523 0.399 . S
C3457 C287 1.590 . S
C3459 C1508 1.591 . S
C3475 C983 1.165 . S
C3477 C325 1.217 . S
C3493 C1275 0.489 . S
C3495 C358 0.505 . S
C3511 C1539 1.074 . S
C3513 C389 1.016 . S
C3529 C290 1.165 . S
C3531 C1282 1.217 . S
C3547 C318 0.489 . S
C3549 C1546 0.505 . S
C3565 C351 1.074 . S
C3567 C1511 1.016 . S
C3583 C980 1.590 . S
C3585 C386 1.591 . S
C3601 C193 0.385 . S
C3603 C424 0.399 . S
C3619 C450 0.551 . S
C3621 C1249 0.643 . S
C3637 C485 0.760 . S
C3639 C1011 0.765 . S
C3655 C516 0.669 . S
C3657 C747 0.553 . S
C3673 C556 0.463 . S
C3675 C1018 0.467 . S
C3691 C589 0.449 . S
C3693 C681 0.310 . S
C3709 C1311 1.715 1_565 S
C3711 C258 1.672 . S
C3727 C324 2.768 . S
C3729 C649 2.694 . S
C3745 C1083 2.495 . S
C3747 C682 2.559 . S
C3763 C1510 2.119 . S
C3765 C159 2.125 . S
C3781 C982 1.869 . S
C3783 C126 1.833 . S
C3799 C847 2.662 . S
C3801 C715 2.718 . S
C3817 C748 1.977 . S
C3819 C352 2.090 . S
C3835 C27 1.907 . S
C3837 C882 1.987 . S
C3853 C1479 1.725 . S
C3855 C786 1.741 . S
C3871 C814 1.894 . S
C3873 C616 1.863 . S
C3889 C486 1.631 . S
C3891 C1116 1.588 . S
C3907 C1576 1.467 . S
C3909 C418 1.400 . S
C3925 C781 1.863 . S
C3927 C1111 1.894 . S
C3943 C819 1.588 . S
C3945 C1575 1.631 . S
C3961 C487 1.467 . S
C3963 C1474 1.400 . S
C3979 C423 1.725 . S
C3981 C621 1.741 . S
C3997 C720 1.907 . S
C3999 C387 1.987 . S
C4015 C852 2.768 . S
C4017 C1045 2.694 . S
C4033 C1210 2.559 . S
C4035 C357 2.495 . S
C4051 C225 2.125 . S
C4053 C883 2.119 . S
C4069 C1215 1.672 . S
C4071 C915 1.715 . S
C4087 C88 2.718 . S
C4089 C946 2.662 . S
C4105 C622 0.463 . S
C4107 C721 0.467 . S
C4123 C582 0.551 . S
C4125 C127 0.643 . S
C4141 C1407 0.669 . S
C4143 C54 0.553 . S
C4159 C648 0.419 . S
C4161 C1176 0.522 . S
C4177 C1117 0.449 . S
C4179 C252 0.310 . S
C4195 C1148 1.329 . S
C4197 C1051 1.310 . S
C4213 C914 1.590 . S
C4215 C1376 1.591 . S
C4231 C952 1.217 . S
C4233 C1313 1.165 . S
C4249 C1084 0.505 . S
C4251 C846 0.489 . S
C4267 C884 1.016 . S
C4269 C1341 1.074 . S
C4285 C917 1.165 . S
C4287 C853 1.217 . S
C4303 C945 0.489 . S
C4305 C1348 0.505 . S
C4321 C1379 1.016 . S
C4323 C1077 1.074 . S
C4339 C1310 1.590 . S
C4341 C881 1.591 . S
C4357 C754 0.643 . S
C4359 C1110 0.551 . S
C4375 C1242 0.553 . S
C4377 C417 0.669 . S
C4393 C787 0.463 . S
C4395 C94 0.467 . S
C4411 C820 0.449 . S
C4413 C1209 0.310 . S
C4429 C981 1.715 . S
C4431 C192 1.672 . S
C4447 C154 2.694 . S
C4449 C951 2.768 . S
C4465 C654 2.125 . S
C4467 C1378 2.119 . S
C4483 C60 1.833 . S
C4485 C1312 1.869 . S
C4501 C22 2.718 . S
C4503 C1276 2.662 . S
C4519 C1243 1.977 . S
C4521 C1078 2.090 . S
C4537 C555 1.741 . S
C4539 C1413 1.725 . S
C4555 C583 1.894 . S
C4557 C1177 1.863 . S
C4573 C456 1.588 . S
C4575 C1146 1.631 1_554 S
C4591 C517 1.400 . S
C4593 C1444 1.467 . S
C4609 C451 1.894 . S
C4611 C550 1.863 . S
C4627 C588 1.588 . S
C4629 C1443 1.631 1_554 S
C4645 C1147 1.467 . S
C4647 C1408 1.400 . S
C4663 C1182 1.741 . S
C4665 C522 1.725 . S
C4681 C220 2.694 . S
C4683 C1281 2.768 . S
C4699 C1050 2.125 . S
C4701 C388 2.119 . S
C4717 C687 1.672 . S
C4719 C288 1.715 1_565 S
C4735 C1012 2.718 . S
C4737 C319 2.662 . S
C4753 C1574 0.760 . S
C4755 C21 0.765 . S
C4771 C549 0.522 . S
C4773 C219 0.419 . S
C4789 C160 1.310 1_565 S
C4791 C1445 1.329 . S
C4807 C1480 0.399 . S
C4809 C688 0.385 . S
C4825 C1216 0.385 . S
C4827 C1414 0.399 . S
C4843 C714 0.765 . S
C4845 C1442 0.760 . S
C4861 C253 2.559 . S
C4863 C1545 2.495 . S
C4879 C916 1.869 . S
C4881 C753 1.833 . S
C4897 C121 1.977 . S
C4899 C1342 2.090 . S
C4915 C93 1.907 . S
C4917 C1509 1.987 . S
C4933 C1017 1.907 . S
C4935 C1377 1.987 . S
C4951 C187 2.559 . S
C4953 C1347 2.495 . S
C4969 C780 0.522 . S
C4971 C1044 0.419 . S
C4987 C1577 1.329 . S
C4989 C655 1.310 . S
C5005 C1248 1.833 . S
C5007 C289 1.869 . S
C5023 C1540 2.090 . S
C5025 C55 1.977 . S
